drugbank_target|C0H546 Chaperone, putative (DB11638)
 OpenBabel12092121113D

  0  0  0     0  0            999 V3000
M  V30 BEGIN CTAB
M  V30 COUNTS 4183 4222 0 0 0
M  V30 BEGIN ATOM
M  V30 1 H -0.908 1.98254 -0.117106 0
M  V30 2 N 0 1.576 0 0
M  V30 3 C 0.933 2.03868 1.02534 0
M  V30 4 C 1.911 0.928543 1.3348 0
M  V30 5 O 3.095 1.19667 1.45644 0
M  V30 6 C 0.222 2.43627 2.35294 0
M  V30 7 C -0.732 3.65373 2.2001 0
M  V30 8 S 0.101 5.13292 1.52614 0
M  V30 9 C 1.257 5.56322 2.86805 0
M  V30 10 H 1.49 2.90518 0.631377 0
M  V30 11 H -0.977 1.52953 0.210867 0
M  V30 12 H 0.981 2.67203 3.11629 0
M  V30 13 H -0.358 1.57376 2.7183 0
M  V30 14 H -1.165 3.90944 3.18086 0
M  V30 15 H -1.563 3.418 1.51819 0
M  V30 16 H 0.729 5.58782 3.83104 0
M  V30 17 H 1.672 6.56266 2.65933 0
M  V30 18 H 2.08 4.83886 2.90714 0
M  V30 19 N 1.4781 -0.272755 1.55222 0
M  V30 20 C 2.4251 -1.33716 1.88119 0
M  V30 21 C 3.3951 -1.49066 0.73271 0
M  V30 22 O 4.5801 -1.63469 0.984002 0
M  V30 23 C 1.7201 -2.69238 2.15882 0
M  V30 24 C 0.8331 -2.62108 3.43399 0
M  V30 25 C -0.0319 -3.89811 3.60861 0
M  V30 26 C -0.9929 -3.77193 4.8207 0
M  V30 27 N -1.8559 -4.9673 4.96189 0
M  V30 28 H 2.9841 -1.04962 2.78903 0
M  V30 29 H 0.5211 -0.507088 1.38083 0
M  V30 30 H 2.4791 -3.48089 2.29978 0
M  V30 31 H 1.1091 -2.96194 1.28331 0
M  V30 32 H 0.1611 -1.74967 3.37773 0
M  V30 33 H 1.4731 -2.48685 4.32386 0
M  V30 34 H 0.6271 -4.77103 3.74777 0
M  V30 35 H -0.6339 -4.06102 2.7006 0
M  V30 36 H -1.6289 -2.88284 4.68159 0
M  V30 37 H -0.4039 -3.62421 5.74307 0
M  V30 38 H -2.4579 -5.13431 4.08319 0
M  V30 39 H -2.5409 -4.85839 5.79221 0
M  V30 40 H -1.2729 -5.85594 5.1449 0
M  V30 41 N 2.9562 -1.48159 -0.537278 0
M  V30 42 C 3.9032 -1.62138 -1.64256 0
M  V30 43 C 4.8732 -0.463668 -1.59497 0
M  V30 44 O 6.0582 -0.686241 -1.78032 0
M  V30 45 C 3.1982 -1.66028 -3.02537 0
M  V30 46 C 2.3112 -2.92855 -3.17585 0
M  V30 47 C 1.4462 -2.87952 -4.46382 0
M  V30 48 C 0.4852 -4.09516 -4.54932 0
M  V30 49 N -0.3778 -4.02733 -5.75109 0
M  V30 50 H 4.4622 -2.56529 -1.51647 0
M  V30 51 H 1.9992 -1.27224 -0.738414 0
M  V30 52 H 3.9572 -1.66265 -3.82638 0
M  V30 53 H 2.5872 -0.751331 -3.13934 0
M  V30 54 H 1.6392 -3.02395 -2.30784 0
M  V30 55 H 2.9512 -3.82822 -3.19764 0
M  V30 56 H 2.1052 -2.8655 -5.34765 0
M  V30 57 H 0.8442 -1.95702 -4.46712 0
M  V30 58 H -0.1508 -4.11201 -3.64957 0
M  V30 59 H 1.0742 -5.02917 -4.56346 0
M  V30 60 H -0.9798 -3.13299 -5.76351 0
M  V30 61 H -1.0628 -4.86397 -5.78752 0
M  V30 62 H 0.2052 -4.05379 -6.65799 0
M  V30 63 N 4.4343 0.785586 -1.36625 0
M  V30 64 C 5.6833 1.53883 -1.30396 0
M  V30 65 C 5.9963 1.95271 0.113452 0
M  V30 66 O 7.2023 2.69858 0.298142 0
M  V30 67 C 5.6583 2.77808 -2.28802 0
M  V30 68 C 5.2663 2.43574 -3.75999 0
M  V30 69 C 7.0103 3.55783 -2.31558 0
M  V30 70 C 4.9173 3.63919 -4.66173 0
M  V30 71 H 3.8473 0.577678 -0.484566 0
M  V30 72 H 6.4983 0.861705 -1.62009 0
M  V30 73 H 4.8803 3.47339 -1.90188 0
M  V30 74 H 6.0543 1.81916 -4.23371 0
M  V30 75 H 4.3693 1.78803 -3.76056 0
M  V30 76 H 6.9663 4.45205 -2.96137 0
M  V30 77 H 7.3093 3.94644 -1.3252 0
M  V30 78 H 7.8423 2.93235 -2.68809 0
M  V30 79 H 4.5813 3.3015 -5.66287 0
M  V30 80 H 4.1013 4.2473 -4.23515 0
M  V30 81 H 5.7803 4.30901 -4.82632 0
M  V30 82 N 5.9124 1.20967 1.01018 0
M  V30 83 C 6.8594 0.964281 2.09691 0
M  V30 84 C 7.8294 -0.107853 1.65749 0
M  V30 85 O 9.0144 0.0381987 1.90762 0
M  V30 86 C 6.1544 0.52943 3.41015 0
M  V30 87 C 5.2674 1.67043 3.98398 0
M  V30 88 C 4.4024 1.18525 5.17808 0
M  V30 89 C 3.4414 2.29892 5.67288 0
M  V30 90 N 2.5784 1.82546 6.77954 0
M  V30 91 H 7.4184 1.89463 2.30017 0
M  V30 92 H 4.9554 0.944289 1.1279 0
M  V30 93 H 6.9134 0.258588 4.16398 0
M  V30 94 H 5.5434 -0.363919 3.20742 0
M  V30 95 H 4.5954 2.05603 3.20049 0
M  V30 96 H 5.9074 2.50877 4.31117 0
M  V30 97 H 5.0614 0.870762 6.00419 0
M  V30 98 H 3.8004 0.316887 4.86669 0
M  V30 99 H 2.8054 2.6215 4.83278 0
M  V30 100 H 4.0304 3.17216 6.00459 0
M  V30 101 H 1.9764 0.980454 6.48632 0
M  V30 102 H 1.8934 2.59956 7.09901 0
M  V30 103 H 3.1614 1.54115 7.64113 0
M  V30 104 N 7.3905 -1.2043 1.01659 0
M  V30 105 C 8.6205 -1.93496 0.724081 0
M  V30 106 C 9.0285 -1.74998 -0.71918 0
M  V30 107 O 8.3715 -1.06118 -1.49949 0
M  V30 108 C 8.4335 -3.45886 0.97994 0
M  V30 109 C 8.0975 -3.88145 2.41232 0
M  V30 110 C 9.0945 -3.93907 3.39313 0
M  V30 111 C 6.7795 -4.20134 2.75305 0
M  V30 112 C 8.7735 -4.31069 4.6953 0
M  V30 113 C 6.4605 -4.56971 4.05735 0
M  V30 114 C 7.4585 -4.62411 5.02658 0
M  V30 115 O 7.1465 -4.98403 6.30754 0
M  V30 116 H 6.8785 -0.621824 0.265162 0
M  V30 117 H 9.4325 -1.53867 1.36066 0
M  V30 118 H 7.6625 -3.85639 0.286198 0
M  V30 119 H 9.3515 -4.0018 0.679021 0
M  V30 120 H 10.1175 -3.69357 3.14325 0
M  V30 121 H 5.9965 -4.1509 2.00551 0
M  V30 122 H 9.5405 -4.3523 5.45179 0
M  V30 123 H 5.4375 -4.80977 4.30502 0
M  V30 124 H 6.2055 -5.16395 6.35042 0
M  V30 125 N 8.8686 -0.792821 -1.36206 0
M  V30 126 C 9.7986 -0.207853 -2.32573 0
M  V30 127 C 10.7796 0.659055 -1.56813 0
M  V30 128 O 11.9646 0.592176 -1.84951 0
M  V30 129 C 9.0946 0.655449 -3.41059 0
M  V30 130 C 8.0486 -0.111842 -4.27854 0
M  V30 131 C 7.3746 0.872274 -5.27537 0
M  V30 132 C 8.6746 -1.30299 -5.05786 0
M  V30 133 H 10.3686 -1.01294 -2.81744 0
M  V30 134 H 7.9146 -0.48854 -1.3546 0
M  V30 135 H 9.8676 1.07464 -4.07467 0
M  V30 136 H 8.5916 1.49328 -2.90463 0
M  V30 137 H 7.2506 -0.512053 -3.63006 0
M  V30 138 H 6.8986 1.70523 -4.73214 0
M  V30 139 H 6.5986 0.363291 -5.86476 0
M  V30 140 H 8.1226 1.28996 -5.96818 0
M  V30 141 H 9.5366 -0.959379 -5.65216 0
M  V30 142 H 7.9336 -1.7455 -5.74154 0
M  V30 143 H 9.0036 -2.09663 -4.37229 0
M  V30 144 N 10.3467 1.47872 -0.545128 0
M  V30 145 C 11.5717 2.07391 -0.0190611 0
M  V30 146 C 11.9967 1.39688 1.25971 0
M  V30 147 O 11.3547 0.467816 1.7516 0
M  V30 148 C 11.4027 3.60188 0.172335 0
M  V30 149 O 10.5067 3.9339 1.23766 0
M  V30 150 H 9.8477 0.662411 -0.0459059 0
M  V30 151 H 12.3777 1.90066 -0.757365 0
M  V30 152 H 12.3877 4.06129 0.390305 0
M  V30 153 H 11.0627 4.08865 -0.761725 0
M  V30 154 H 9.6397 3.5921 1.00114 0
M  V30 155 N 11.8248 0.280983 1.55075 0
M  V30 156 C 13.0738 -0.334784 1.98902 0
M  V30 157 C 13.3868 -1.56534 1.17288 0
M  V30 158 O 14.5928 -2.25443 1.51287 0
M  V30 159 C 13.0488 -0.646994 3.54037 0
M  V30 160 C 12.6568 0.564085 4.44435 0
M  V30 161 C 14.4008 -1.22506 4.06439 0
M  V30 162 C 12.3078 0.226137 5.90967 0
M  V30 163 H 11.2378 -0.128866 0.742906 0
M  V30 164 H 13.8888 0.386556 1.79382 0
M  V30 165 H 12.2708 -1.42739 3.6938 0
M  V30 166 H 13.4448 1.34082 4.40861 0
M  V30 167 H 11.7598 1.0594 4.02698 0
M  V30 168 H 14.3568 -1.49182 5.13468 0
M  V30 169 H 14.6998 -2.16085 3.55827 0
M  V30 170 H 15.2328 -0.50682 3.94558 0
M  V30 171 H 11.9718 1.12996 6.45687 0
M  V30 172 H 11.4918 -0.513717 5.97596 0
M  V30 173 H 13.1708 -0.179539 6.46751 0
M  V30 174 N 13.3029 -1.57598 0.00835791 0
M  V30 175 C 14.2329 -2.1198 -0.979113 0
M  V30 176 C 15.2139 -1.03091 -1.35301 0
M  V30 177 O 16.3989 -1.30818 -1.43528 0
M  V30 178 C 13.5289 -2.62995 -2.26828 0
M  V30 179 C 12.4829 -3.76485 -2.03576 0
M  V30 180 C 11.8089 -4.13846 -3.38579 0
M  V30 181 C 13.1089 -5.0342 -1.39161 0
M  V30 182 H 14.8029 -2.94738 -0.526281 0
M  V30 183 H 12.3489 -1.41783 -0.251704 0
M  V30 184 H 14.3019 -2.99669 -2.96271 0
M  V30 185 H 13.0259 -1.7737 -2.7424 0
M  V30 186 H 11.6849 -3.40217 -1.36557 0
M  V30 187 H 11.3329 -3.25232 -3.83709 0
M  V30 188 H 11.0329 -4.90312 -3.23834 0
M  V30 189 H 12.5569 -4.53086 -4.09323 0
M  V30 190 H 13.9709 -5.37812 -1.98573 0
M  V30 191 H 12.3679 -5.84746 -1.34878 0
M  V30 192 H 13.4379 -4.83548 -0.361868 0
M  V30 193 N 14.781 0.264519 -1.55364 0
M  V30 194 C 16.027 0.992314 -1.77552 0
M  V30 195 C 16.382 1.83626 -0.574379 0
M  V30 196 O 15.675 1.86648 0.432782 0
M  V30 197 C 15.869 1.9004 -3.02687 0
M  V30 198 C 15.698 1.14583 -4.34857 0
M  V30 199 C 14.468 0.858068 -4.97961 0
M  V30 200 C 16.666 0.532069 -5.1154 0
M  V30 201 N 14.648 0.0775974 -6.13851 0
M  V30 202 C 16.019 -0.113823 -6.19896 0
M  V30 203 C 18.074 0.440763 -4.95945 0
M  V30 204 C 16.777 -0.842231 -7.14352 0
M  V30 205 C 18.803 -0.274072 -5.90765 0
M  V30 206 C 18.165 -0.90867 -6.98515 0
M  V30 207 H 14.264 0.344811 -0.701875 0
M  V30 208 H 16.848 0.267141 -1.92859 0
M  V30 209 H 15.019 2.59775 -2.88741 0
M  V30 210 H 16.751 2.56243 -3.13243 0
M  V30 211 H 13.506 1.16547 -4.59036 0
M  V30 212 H 13.93 -0.300216 -6.76334 0
M  V30 213 H 18.572 0.917064 -4.12735 0
M  V30 214 H 16.29 -1.33019 -7.97077 0
M  V30 215 H 19.876 -0.345151 -5.80775 0
M  V30 216 H 18.756 -1.45299 -7.70622 0
M  V30 217 N 16.2591 1.48442 0.529413 0
M  V30 218 C 17.2061 1.63007 1.63394 0
M  V30 219 C 18.1761 0.47212 1.59249 0
M  V30 220 O 19.3611 0.695673 1.77666 0
M  V30 221 C 16.5011 1.6763 3.01653 0
M  V30 222 C 15.6141 2.94535 3.16027 0
M  V30 223 C 14.7491 2.90316 4.44849 0
M  V30 224 C 13.7881 4.11923 4.52754 0
M  V30 225 N 12.9251 4.05777 5.72965 0
M  V30 226 H 17.7651 2.5733 1.50285 0
M  V30 227 H 15.3021 1.27613 0.731656 0
M  V30 228 H 17.2601 1.68292 3.81751 0
M  V30 229 H 15.8901 0.76797 3.13532 0
M  V30 230 H 14.9421 3.03615 2.29177 0
M  V30 231 H 16.2541 3.84512 3.17729 0
M  V30 232 H 15.4081 2.89382 5.33238 0
M  V30 233 H 14.1471 1.98068 4.45668 0
M  V30 234 H 13.1521 4.13131 3.62771 0
M  V30 235 H 14.3771 5.0533 4.53672 0
M  V30 236 H 12.3231 3.16351 5.74681 0
M  V30 237 H 12.2401 4.8946 5.76164 0
M  V30 238 H 13.5081 4.08904 6.6364 0
M  V30 239 N 17.7372 -0.778329 1.37039 0
M  V30 240 C 18.6872 -1.88142 1.28789 0
M  V30 241 C 19.6712 -1.59923 0.177063 0
M  V30 242 O 20.8632 -1.72165 0.410873 0
M  V30 243 C 17.9922 -3.25518 1.09055 0
M  V30 244 C 17.0782 -3.5971 2.24654 0
M  V30 245 N 17.4692 -3.65131 3.50018 0
M  V30 246 C 15.7672 -3.89837 2.16663 0
M  V30 247 C 16.4682 -3.95882 4.26207 0
M  V30 248 N 15.4442 -4.11441 3.55271 0
M  V30 249 H 19.2462 -1.90575 2.23737 0
M  V30 250 H 16.7602 -0.974435 1.29917 0
M  V30 251 H 18.7572 -4.04423 1.0123 0
M  V30 252 H 17.4172 -3.24353 0.15018 0
M  V30 253 H 18.4282 -3.475 3.84011 0
M  V30 254 H 15.1052 -3.96533 1.30645 0
M  V30 255 H 16.4952 -4.06907 5.34674 0
M  V30 256 N 19.2153 -1.21501 -1.00376 0
M  V30 257 C 20.1623 -0.975387 -2.09177 0
M  V30 258 C 21.1323 0.0990615 -1.65804 0
M  V30 259 O 22.3173 -0.0483147 -1.90739 0
M  V30 260 C 19.4573 -0.547507 -3.40729 0
M  V30 261 C 18.5703 -1.69153 -3.97506 0
M  V30 262 C 17.7053 -1.2127 -5.17172 0
M  V30 263 C 16.7443 -2.32897 -5.66061 0
M  V30 264 N 15.8813 -1.86138 -6.76976 0
M  V30 265 H 20.7213 -1.9068 -2.29009 0
M  V30 266 H 18.2583 -0.950257 -1.12288 0
M  V30 267 H 20.2163 -0.280667 -4.16255 0
M  V30 268 H 18.8463 0.346904 -3.20931 0
M  V30 269 H 17.8983 -2.07298 -3.18954 0
M  V30 270 H 19.2103 -2.5316 -4.29781 0
M  V30 271 H 18.3643 -0.902591 -5.99948 0
M  V30 272 H 17.1033 -0.342692 -4.86495 0
M  V30 273 H 16.1083 -2.64709 -4.81881 0
M  V30 274 H 17.3333 -3.20396 -5.98768 0
M  V30 275 H 15.2793 -1.01484 -6.48103 0
M  V30 276 H 15.1963 -2.63717 -7.08512 0
M  V30 277 H 16.4643 -1.58165 -7.63285 0
M  V30 278 N 20.6934 1.19889 -1.02296 0
M  V30 279 C 21.6404 2.22901 -0.598651 0
M  V30 280 C 22.6104 1.61588 0.384521 0
M  V30 281 O 23.7954 1.88697 0.282522 0
M  V30 282 C 20.9354 3.45063 0.0504476 0
M  V30 283 C 20.0484 4.20783 -0.978053 0
M  V30 284 C 19.1834 5.30356 -0.299338 0
M  V30 285 C 18.2224 5.97826 -1.31416 0
M  V30 286 N 17.3594 6.98975 -0.661667 0
M  V30 287 H 22.1994 2.58554 -1.48169 0
M  V30 288 H 19.7364 1.27039 -0.741584 0
M  V30 289 H 21.6944 4.14831 0.443971 0
M  V30 290 H 20.3244 3.10084 0.897097 0
M  V30 291 H 19.3764 3.50018 -1.48969 0
M  V30 292 H 20.6884 4.67109 -1.74958 0
M  V30 293 H 19.8424 6.06516 0.149347 0
M  V30 294 H 18.5814 4.85084 0.504445 0
M  V30 295 H 17.5864 5.20422 -1.77317 0
M  V30 296 H 18.8114 6.45183 -2.11933 0
M  V30 297 H 16.7574 6.55886 0.122132 0
M  V30 298 H 16.6744 7.43461 -1.37117 0
M  V30 299 H 17.9424 7.7914 -0.236785 0
M  V30 300 N 22.1715 0.800033 1.35784 0
M  V30 301 C 23.4205 0.37387 1.98205 0
M  V30 302 C 23.7335 -1.06302 1.64193 0
M  V30 303 O 24.9395 -1.59198 2.19928 0
M  V30 304 C 23.3955 0.617532 3.54562 0
M  V30 305 C 23.0035 2.06654 3.9749 0
M  V30 306 C 24.7475 0.256401 4.23725 0
M  V30 307 C 22.6545 2.2563 5.46667 0
M  V30 308 H 21.5845 0.136055 0.741623 0
M  V30 309 H 24.2355 0.983166 1.54939 0
M  V30 310 H 22.6175 -0.0616248 3.95952 0
M  V30 311 H 23.7915 2.78296 3.67271 0
M  V30 312 H 22.1065 2.38691 3.41197 0
M  V30 313 H 24.7035 0.376318 5.33374 0
M  V30 314 H 25.0465 -0.796692 4.08606 0
M  V30 315 H 25.5795 0.889214 3.87734 0
M  V30 316 H 22.3185 3.2936 5.66747 0
M  V30 317 H 21.8385 1.58504 5.78478 0
M  V30 318 H 23.5175 2.06861 6.1304 0
M  V30 319 N 23.6496 -1.47581 0.552962 0
M  V30 320 C 24.5976 -2.31648 -0.21023 0
M  V30 321 C 25.5916 -1.42663 -0.913432 0
M  V30 322 O 26.7976 -1.5945 -0.835201 0
M  V30 323 H 23.1726 -0.746989 -0.0866676 0
M  V30 324 H 25.1436 -2.93869 0.518051 0
M  V30 325 C 23.8926 -3.25226 -1.22976 0
M  V30 326 H 23.2156 -3.93658 -0.698077 0
M  V30 327 H 24.6556 -3.86889 -1.73473 0
M  V30 328 C 23.1146 -2.48448 -2.27542 0
M  V30 329 O 23.6446 -2.22585 -3.34393 0
M  V30 330 N 21.8506 -2.09532 -2.01357 0
M  V30 331 H 21.3976 -2.30765 -1.14478 0
M  V30 332 H 21.3556 -1.58476 -2.71538 0
M  V30 333 N 25.1277 -0.289203 -1.54924 0
M  V30 334 C 26.3767 0.324231 -1.99077 0
M  V30 335 C 26.6897 1.5591 -1.18117 0
M  V30 336 O 27.8957 2.24637 -1.52481 0
M  V30 337 C 26.3517 0.628209 -3.54375 0
M  V30 338 C 25.9597 -0.587647 -4.44129 0
M  V30 339 C 27.7037 1.20349 -4.07083 0
M  V30 340 C 25.6107 -0.257475 -5.90839 0
M  V30 341 H 24.5407 0.124924 -0.743579 0
M  V30 342 H 27.1917 -0.396063 -1.79175 0
M  V30 343 H 25.5737 1.40778 -3.70132 0
M  V30 344 H 26.7477 -1.36418 -4.40144 0
M  V30 345 H 25.0627 -1.08074 -4.0213 0
M  V30 346 H 27.6597 1.46456 -5.14252 0
M  V30 347 H 28.0027 2.14195 -3.56968 0
M  V30 348 H 28.5357 0.485889 -3.94821 0
M  V30 349 H 25.2747 -1.16419 -6.45079 0
M  V30 350 H 24.7947 0.482018 -5.9786 0
M  V30 351 H 26.4737 0.145238 -6.46837 0
M  V30 352 N 26.6058 1.57591 -0.0167156 0
M  V30 353 C 27.8458 1.93145 0.668902 0
M  V30 354 C 28.2098 0.892406 1.7 0
M  V30 355 O 29.4108 1.13373 2.43721 0
M  V30 356 C 27.6818 3.33678 1.28039 0
M  V30 357 S 29.2408 3.91142 1.9888 0
M  V30 358 H 26.0588 0.67593 0.220545 0
M  V30 359 H 28.6608 1.95347 -0.0774105 0
M  V30 360 H 27.3648 4.07126 0.517339 0
M  V30 361 H 26.8958 3.3489 2.06427 0
M  V30 362 H 28.9108 3.73571 3.26587 0
M  V30 363 N 28.0839 -0.256276 1.55502 0
M  V30 364 C 29.0319 -1.33694 1.90338 0
M  V30 365 C 30.0259 -1.50299 0.781441 0
M  V30 366 O 31.2319 -1.51885 0.965966 0
M  V30 367 H 27.6069 -0.447483 0.60437 0
M  V30 368 H 29.5779 -1.01574 2.8058 0
M  V30 369 C 28.3269 -2.68724 2.20642 0
M  V30 370 H 27.6499 -2.56743 3.06469 0
M  V30 371 H 29.0899 -3.43237 2.48926 0
M  V30 372 C 27.5489 -3.21101 1.01959 0
M  V30 373 O 28.0789 -4.0084 0.262762 0
M  V30 374 N 26.2849 -2.79003 0.812746 0
M  V30 375 H 25.8319 -2.14271 1.42989 0
M  V30 376 H 25.7899 -3.14393 0.0203076 0
M  V30 377 N 29.562 -1.4872 -0.521534 0
M  V30 378 C 30.512 -1.60269 -1.62166 0
M  V30 379 C 31.496 -0.45935 -1.54204 0
M  V30 380 O 32.688 -0.711241 -1.62081 0
M  V30 381 C 29.817 -1.65344 -3.00859 0
M  V30 382 C 28.903 -2.85187 -3.13894 0
M  V30 383 N 29.294 -4.09509 -2.96877 0
M  V30 384 C 27.592 -2.82695 -3.44963 0
M  V30 385 C 28.293 -4.89959 -3.13552 0
M  V30 386 N 27.269 -4.22934 -3.41508 0
M  V30 387 H 31.071 -2.5413 -1.47632 0
M  V30 388 H 28.585 -1.45209 -0.727194 0
M  V30 389 H 30.582 -1.71713 -3.79895 0
M  V30 390 H 29.242 -0.726058 -3.16478 0
M  V30 391 H 30.253 -4.39814 -2.73467 0
M  V30 392 H 26.93 -1.99249 -3.66887 0
M  V30 393 H 28.32 -5.98654 -3.05061 0
M  V30 394 N 31.0401 0.771051 -1.3745 0
M  V30 395 C 31.9871 1.88435 -1.3327 0
M  V30 396 C 32.9571 1.64914 -0.198136 0
M  V30 397 O 34.1421 1.86821 -0.387606 0
M  V30 398 C 31.2821 3.25509 -1.14622 0
M  V30 399 C 30.3951 3.60979 -2.37314 0
M  V30 400 C 29.5301 4.87265 -2.11533 0
M  V30 401 C 28.5691 5.15469 -3.30088 0
M  V30 402 N 27.7061 6.32944 -3.03853 0
M  V30 403 H 32.5461 1.91344 -2.28455 0
M  V30 404 H 30.0831 0.935466 -1.13523 0
M  V30 405 H 32.0411 4.04582 -1.01831 0
M  V30 406 H 30.6711 3.21974 -0.230837 0
M  V30 407 H 29.7231 2.76885 -2.60842 0
M  V30 408 H 31.0351 3.77759 -3.25729 0
M  V30 409 H 30.1891 5.74244 -1.95777 0
M  V30 410 H 28.9281 4.7259 -1.20457 0
M  V30 411 H 27.9331 4.26966 -3.46382 0
M  V30 412 H 29.1581 5.32052 -4.22016 0
M  V30 413 H 27.1041 6.19625 -2.15407 0
M  V30 414 H 27.0211 6.50143 -3.85812 0
M  V30 415 H 28.2891 7.22857 -2.91716 0
M  V30 416 N 32.5182 1.22032 0.997298 0
M  V30 417 C 33.4662 0.983634 2.10778 0
M  V30 418 C 34.4602 -0.0717564 1.69248 0
M  V30 419 O 35.6662 0.080304 1.79821 0
M  V30 420 H 32.0412 0.300877 0.689186 0
M  V30 421 H 34.0122 1.92606 2.27916 0
M  V30 422 C 32.7612 0.57326 3.42942 0
M  V30 423 H 32.0842 1.37702 3.75338 0
M  V30 424 H 33.5242 0.447031 4.21637 0
M  V30 425 C 31.9832 -0.7167 3.29188 0
M  V30 426 O 32.5132 -1.77027 3.60589 0
M  V30 427 N 30.7192 -0.686167 2.82383 0
M  V30 428 H 30.2662 0.171507 2.57028 0
M  V30 429 H 30.2242 -1.54955 2.73562 0
M  V30 430 N 33.9963 -1.19345 1.0293 0
M  V30 431 C 35.2363 -1.90738 0.734727 0
M  V30 432 C 35.6003 -1.7785 -0.723414 0
M  V30 433 O 36.8013 -2.43844 -1.13108 0
M  V30 434 C 35.0723 -3.37569 1.17396 0
M  V30 435 S 36.6313 -4.27176 1.00329 0
M  V30 436 H 33.4493 -0.658771 0.267474 0
M  V30 437 H 36.0513 -1.4428 1.31922 0
M  V30 438 H 34.7553 -3.44475 2.23081 0
M  V30 439 H 34.2863 -3.8906 0.582772 0
M  V30 440 H 36.3013 -4.96126 -0.0859152 0
M  V30 441 N 35.4744 -0.807222 -1.35358 0
M  V30 442 C 36.7044 -0.399796 -2.02695 0
M  V30 443 C 37.1124 0.994176 -1.60974 0
M  V30 444 O 36.4554 1.65209 -0.803226 0
M  V30 445 C 36.5174 -0.404445 -3.57218 0
M  V30 446 C 36.1814 -1.74904 -4.22206 0
M  V30 447 C 37.1784 -2.70743 -4.4384 0
M  V30 448 C 34.8634 -2.03322 -4.5931 0
M  V30 449 C 36.8574 -3.93183 -5.01683 0
M  V30 450 C 34.5444 -3.26026 -5.16866 0
M  V30 451 C 35.5424 -4.20774 -5.37994 0
M  V30 452 O 35.2304 -5.41312 -5.94337 0
M  V30 453 H 34.9624 -0.160517 -0.656666 0
M  V30 454 H 37.5164 -1.09235 -1.73945 0
M  V30 455 H 35.7464 0.344707 -3.85161 0
M  V30 456 H 37.4354 -0.0192429 -4.05895 0
M  V30 457 H 38.2014 -2.5008 -4.15554 0
M  V30 458 H 34.0804 -1.30384 -4.42178 0
M  V30 459 H 37.6244 -4.6715 -5.1809 0
M  V30 460 H 33.5214 -3.46559 -5.44579 0
M  V30 461 H 34.2894 -5.42618 -6.12787 0
M  V30 462 N 36.9525 1.47285 -0.560781 0
M  V30 463 C 38.1805 2.06855 -0.0430262 0
M  V30 464 C 38.5955 1.41291 1.25229 0
M  V30 465 O 37.9525 0.510648 1.7521 0
M  V30 466 C 38.0035 3.61178 0.152518 0
M  V30 467 O 37.7245 4.24285 -1.0915 0
M  V30 468 C 39.2255 4.37624 0.707145 0
M  V30 469 H 36.4455 0.669319 -0.0474652 0
M  V30 470 H 38.9895 1.89237 -0.77521 0
M  V30 471 H 37.1445 3.78298 0.834843 0
M  V30 472 H 37.5585 5.16868 -0.891482 0
M  V30 473 H 39.0325 5.46271 0.793244 0
M  V30 474 H 39.5095 4.04152 1.71923 0
M  V30 475 H 40.1155 4.25257 0.0604027 0
M  V30 476 N 38.4306 0.297415 1.54768 0
M  V30 477 C 39.6606 -0.315165 2.04182 0
M  V30 478 C 40.0686 -1.4834 1.17439 0
M  V30 479 O 39.4116 -1.82695 0.191891 0
M  V30 480 C 39.4736 -0.837583 3.49607 0
M  V30 481 C 39.1376 0.204912 4.5654 0
M  V30 482 C 40.1346 1.03214 5.09552 0
M  V30 483 C 37.8196 0.345578 5.0111 0
M  V30 484 C 39.8136 1.986 6.05671 0
M  V30 485 C 37.5006 1.30289 5.97049 0
M  V30 486 C 38.4986 2.12159 6.49213 0
M  V30 487 O 38.1866 3.06268 7.43273 0
M  V30 488 H 37.9186 -0.0729646 0.672051 0
M  V30 489 H 40.4726 0.433907 2.00765 0
M  V30 490 H 38.7026 -1.63712 3.50336 0
M  V30 491 H 40.3916 -1.36566 3.82236 0
M  V30 492 H 41.1576 0.934312 4.75916 0
M  V30 493 H 37.0366 -0.28171 4.60138 0
M  V30 494 H 40.5806 2.62542 6.46311 0
M  V30 495 H 36.4776 1.40145 6.30103 0
M  V30 496 H 37.2456 3.01205 7.61064 0
M  V30 497 N 39.9087 -1.5758 0.0250728 0
M  V30 498 C 40.8567 -2.11125 -0.97617 0
M  V30 499 C 41.8507 -1.03689 -1.33959 0
M  V30 500 O 43.0567 -1.22128 -1.3223 0
M  V30 501 H 39.4317 -0.674468 -0.332561 0
M  V30 502 H 41.4027 -2.94194 -0.499223 0
M  V30 503 C 40.1517 -2.65017 -2.2508 0
M  V30 504 H 39.4747 -3.47333 -1.9799 0
M  V30 505 H 40.9147 -3.06133 -2.93357 0
M  V30 506 C 39.3737 -1.57574 -2.97779 0
M  V30 507 O 39.9037 -0.973203 -3.89733 0
M  V30 508 N 38.1097 -1.29716 -2.60043 0
M  V30 509 H 37.6567 -1.789 -1.85345 0
M  V30 510 H 37.6147 -0.58051 -3.08994 0
M  V30 511 N 41.3868 0.248026 -1.55636 0
M  V30 512 C 42.3168 1.31079 -1.93237 0
M  V30 513 C 43.2978 1.50264 -0.797174 0
M  V30 514 O 44.4828 1.62891 -1.05737 0
M  V30 515 C 41.6128 2.66575 -2.22609 0
M  V30 516 C 40.5668 2.62087 -3.3837 0
M  V30 517 C 39.8928 4.01369 -3.53281 0
M  V30 518 C 41.1928 2.19171 -4.7409 0
M  V30 519 H 42.8868 0.998556 -2.82257 0
M  V30 520 H 40.4328 0.47891 -1.35803 0
M  V30 521 H 42.3858 3.41057 -2.47503 0
M  V30 522 H 41.1098 2.99432 -1.30414 0
M  V30 523 H 39.7688 1.90063 -3.13483 0
M  V30 524 H 39.4168 4.31489 -2.58508 0
M  V30 525 H 39.1168 3.99254 -4.31127 0
M  V30 526 H 40.6408 4.77552 -3.80495 0
M  V30 527 H 42.0548 2.83384 -4.98363 0
M  V30 528 H 40.4518 2.2817 -5.5503 0
M  V30 529 H 41.5218 1.14336 -4.71227 0
M  V30 530 N 42.8649 1.48995 0.513639 0
M  V30 531 C 43.8279 1.64229 1.59879 0
M  V30 532 C 44.8279 0.514696 1.5234 0
M  V30 533 O 46.0179 0.78087 1.55718 0
M  V30 534 C 43.1499 1.62783 2.99524 0
M  V30 535 H 44.3429 2.61004 1.47705 0
M  V30 536 H 41.8959 1.37837 0.736936 0
M  V30 537 H 42.6309 0.675461 3.17188 0
M  V30 538 H 42.4159 2.4466 3.06404 0
M  V30 539 H 43.9059 1.76669 3.78388 0
M  V30 540 N 44.343 -0.763751 1.37857 0
M  V30 541 C 45.275 -1.88664 1.30148 0
M  V30 542 C 46.288 -1.61365 0.215685 0
M  V30 543 O 47.477 -1.72134 0.472459 0
M  V30 544 C 44.577 -3.24075 0.991396 0
M  V30 545 C 43.75 -3.78958 2.18426 0
M  V30 546 C 42.809 -4.92862 1.8432 0
M  V30 547 O 41.835 -5.08027 2.56704 0
M  V30 548 N 43.037 -5.75071 0.792081 0
M  V30 549 H 45.802 -1.95791 2.26905 0
M  V30 550 H 43.363 -0.943226 1.31586 0
M  V30 551 H 45.355 -3.97804 0.743935 0
M  V30 552 H 43.925 -3.12399 0.112122 0
M  V30 553 H 43.145 -2.96913 2.59299 0
M  V30 554 H 44.433 -4.12357 2.98058 0
M  V30 555 H 43.831 -5.65375 0.191595 0
M  V30 556 H 42.388 -6.48991 0.60449 0
M  V30 557 N 45.8211 -1.22559 -0.990812 0
M  V30 558 C 46.7691 -0.994798 -2.10253 0
M  V30 559 C 47.7631 0.0627798 -1.69284 0
M  V30 560 O 48.9691 -0.0898392 -1.79776 0
M  V30 561 H 45.3441 -0.304527 -0.687581 0
M  V30 562 H 47.3151 -1.93812 -2.26891 0
M  V30 563 C 46.0641 -0.591439 -3.42633 0
M  V30 564 H 45.3871 -1.3969 -3.74602 0
M  V30 565 H 46.8271 -0.469385 -4.21394 0
M  V30 566 C 45.2861 0.699232 -3.29564 0
M  V30 567 O 45.8161 1.75112 -3.61523 0
M  V30 568 N 44.0221 0.671182 -2.82743 0
M  V30 569 H 43.5691 -0.185136 -2.56934 0
M  V30 570 H 43.5271 1.53502 -2.7438 0
M  V30 571 N 47.2992 1.18797 -1.03562 0
M  V30 572 C 48.5462 1.8865 -0.736023 0
M  V30 573 C 48.8742 1.80041 0.735889 0
M  V30 574 O 48.1292 1.19179 1.55225 0
M  V30 575 C 48.4282 3.38692 -1.14117 0
M  V30 576 C 48.0942 3.67504 -2.6125 0
M  V30 577 C 46.7562 3.75078 -3.01447 0
M  V30 578 C 49.1082 3.80293 -3.56408 0
M  V30 579 C 46.4362 3.92915 -4.35701 0
M  V30 580 C 48.7882 3.99645 -4.90374 0
M  V30 581 C 47.4522 4.05453 -5.30249 0
M  V30 582 H 46.7222 0.690321 -0.26933 0
M  V30 583 H 49.3692 1.40641 -1.29971 0
M  V30 584 H 47.6742 3.88645 -0.496202 0
M  V30 585 H 49.3712 3.91072 -0.886789 0
M  V30 586 H 45.9612 3.62223 -2.29113 0
M  V30 587 H 50.1452 3.73779 -3.26501 0
M  V30 588 H 45.4012 3.95653 -4.66121 0
M  V30 589 H 49.5752 4.08482 -5.64017 0
M  V30 590 H 47.2022 4.19027 -6.34288 0
M  V30 591 N 48.7773 0.814389 1.34928 0
M  V30 592 C 50.0243 0.398423 1.98542 0
M  V30 593 C 50.3523 -1.03638 1.64589 0
M  V30 594 O 49.6073 -1.73509 0.90516 0
M  V30 595 C 49.9063 0.537781 3.53331 0
M  V30 596 C 49.5723 1.93704 4.07172 0
M  V30 597 C 48.2343 2.31984 4.21589 0
M  V30 598 C 50.5863 2.85213 4.36237 0
M  V30 599 C 47.9143 3.61125 4.62391 0
M  V30 600 C 50.2663 4.13809 4.78482 0
M  V30 601 C 48.9303 4.52077 4.91104 0
M  V30 602 H 48.2003 0.145793 0.726516 0
M  V30 603 H 50.8473 1.03669 1.61012 0
M  V30 604 H 49.1523 -0.183906 3.91368 0
M  V30 605 H 50.8493 0.196588 4.00518 0
M  V30 606 H 47.4393 1.62966 3.96409 0
M  V30 607 H 51.6233 2.56885 4.24645 0
M  V30 608 H 46.8793 3.90612 4.70353 0
M  V30 609 H 51.0533 4.84811 4.99932 0
M  V30 610 H 48.6803 5.52196 5.22478 0
M  V30 611 N 50.2554 -1.46986 0.568584 0
M  V30 612 C 51.2054 -2.27179 -0.193339 0
M  V30 613 C 52.1894 -1.35035 -0.874895 0
M  V30 614 O 53.3814 -1.5931 -0.771322 0
M  V30 615 C 50.5104 -3.21063 -1.21546 0
M  V30 616 C 49.5964 -4.2069 -0.536738 0
M  V30 617 N 49.9874 -5.04218 0.399673 0
M  V30 618 C 48.2854 -4.38961 -0.789254 0
M  V30 619 C 48.9864 -5.76242 0.795017 0
M  V30 620 N 47.9624 -5.434 0.1473 0
M  V30 621 H 51.7644 -2.89146 0.526458 0
M  V30 622 H 49.2784 -1.57664 0.389342 0
M  V30 623 H 51.2754 -3.77209 -1.77536 0
M  V30 624 H 49.9354 -2.60654 -1.93623 0
M  V30 625 H 50.9464 -5.12077 0.774454 0
M  V30 626 H 47.6234 -3.89713 -1.49767 0
M  V30 627 H 49.0134 -6.53417 1.56513 0
M  V30 628 N 51.7335 -0.305618 -1.54608 0
M  V30 629 C 52.9585 0.307562 -2.05107 0
M  V30 630 C 53.3835 1.46385 -1.18123 0
M  V30 631 O 52.7415 1.8034 -0.186324 0
M  V30 632 C 52.7895 0.73704 -3.52987 0
M  V30 633 O 51.8935 1.84134 -3.6901 0
M  V30 634 H 51.2345 0.0589143 -0.661381 0
M  V30 635 H 53.7645 -0.448807 -1.99617 0
M  V30 636 H 53.7745 1.02459 -3.94925 0
M  V30 637 H 52.4495 -0.108773 -4.15758 0
M  V30 638 H 51.0265 1.55398 -3.38978 0
M  V30 639 N 53.2116 1.57565 -0.0334293 0
M  V30 640 C 54.1596 2.1164 0.96496 0
M  V30 641 C 55.1536 1.04398 1.33407 0
M  V30 642 O 56.3596 1.22828 1.3158 0
M  V30 643 H 52.7346 0.676222 0.32898 0
M  V30 644 H 54.7056 2.94455 0.483614 0
M  V30 645 C 53.4546 2.66207 2.23672 0
M  V30 646 H 52.7776 3.48378 1.96145 0
M  V30 647 H 54.2176 3.07685 2.9173 0
M  V30 648 C 52.6766 1.59151 2.96939 0
M  V30 649 O 53.2066 0.993858 3.89211 0
M  V30 650 N 51.4126 1.31093 2.59351 0
M  V30 651 H 50.9596 1.7988 1.84393 0
M  V30 652 H 50.9176 0.596889 3.08682 0
M  V30 653 N 54.6897 -0.239769 1.55765 0
M  V30 654 C 55.6367 -1.29696 1.90913 0
M  V30 655 C 56.6067 -1.47478 0.764164 0
M  V30 656 O 57.7917 -1.61345 1.01845 0
M  V30 657 C 54.9317 -2.64598 2.21544 0
M  V30 658 C 54.0447 -2.54765 3.48882 0
M  V30 659 C 53.1797 -3.82069 3.69049 0
M  V30 660 C 52.2187 -3.66883 4.89963 0
M  V30 661 N 51.3557 -4.86094 5.06614 0
M  V30 662 H 56.1957 -0.990224 2.81067 0
M  V30 663 H 53.7327 -0.477684 1.39128 0
M  V30 664 H 55.6907 -3.43132 2.3731 0
M  V30 665 H 54.3207 -2.93405 1.34585 0
M  V30 666 H 53.3727 -1.67763 3.41409 0
M  V30 667 H 54.6847 -2.39457 4.37563 0
M  V30 668 H 53.8387 -4.69046 3.84812 0
M  V30 669 H 52.5777 -4.00282 2.78614 0
M  V30 670 H 51.5827 -2.78289 4.74168 0
M  V30 671 H 52.8077 -3.50157 5.81865 0
M  V30 672 H 50.7537 -5.04655 4.19117 0
M  V30 673 H 50.6707 -4.73443 5.89396 0
M  V30 674 H 51.9387 -5.74549 5.26795 0
M  V30 675 N 56.1678 -1.49265 -0.50573 0
M  V30 676 C 57.1158 -1.66065 -1.62866 0
M  V30 677 C 58.1098 -0.526636 -1.61006 0
M  V30 678 O 59.3158 -0.706126 -1.65571 0
M  V30 679 H 55.6908 -0.52356 -0.539805 0
M  V30 680 H 57.6618 -2.60329 -1.45848 0
M  V30 681 C 56.4108 -1.74008 -3.01026 0
M  V30 682 H 55.7338 -2.6064 -3.03161 0
M  V30 683 H 57.1738 -1.89798 -3.79147 0
M  V30 684 C 55.6328 -0.483868 -3.33407 0
M  V30 685 O 56.1628 0.392548 -3.99777 0
M  V30 686 N 54.3688 -0.348236 -2.88506 0
M  V30 687 H 53.9158 -1.06242 -2.34671 0
M  V30 688 H 53.8738 0.491204 -3.10539 0
M  V30 689 N 57.6459 0.756429 -1.3826 0
M  V30 690 C 58.5939 1.89149 -1.35372 0
M  V30 691 C 59.5879 1.67691 -0.24004 0
M  V30 692 O 60.7939 1.75294 -0.408919 0
M  V30 693 H 57.1689 0.622271 -0.422236 0
M  V30 694 H 59.1399 1.88701 -2.31159 0
M  V30 695 C 57.8889 3.26599 -1.19284 0
M  V30 696 H 57.2119 3.43695 -2.0424 0
M  V30 697 H 58.6519 4.06274 -1.21316 0
M  V30 698 C 57.1109 3.3675 0.100454 0
M  V30 699 O 57.6409 3.86951 1.07851 0
M  V30 700 N 55.8469 2.90179 0.15633 0
M  V30 701 H 55.3939 2.49517 -0.640253 0
M  V30 702 H 55.3519 2.97352 1.02123 0
M  V30 703 N 59.124 1.23083 0.984299 0
M  V30 704 C 60.373 1.05466 1.71929 0
M  V30 705 C 60.686 -0.409211 1.91272 0
M  V30 706 O 61.892 -0.705226 2.62181 0
M  V30 707 C 60.348 1.83874 3.09384 0
M  V30 708 C 59.956 3.34566 2.97943 0
M  V30 709 C 61.7 1.74734 3.8687 0
M  V30 710 C 59.607 4.05381 4.30605 0
M  V30 711 H 58.537 0.391039 0.644674 0
M  V30 712 H 61.188 1.47013 1.09815 0
M  V30 713 H 59.57 1.35131 3.72231 0
M  V30 714 H 60.744 3.90767 2.44209 0
M  V30 715 H 59.059 3.44476 2.33934 0
M  V30 716 H 61.656 2.24957 4.85076 0
M  V30 717 H 61.999 0.709372 4.10212 0
M  V30 718 H 62.532 2.21067 3.30717 0
M  V30 719 H 59.271 5.09467 4.1246 0
M  V30 720 H 58.791 3.53967 4.84218 0
M  V30 721 H 60.47 4.11458 4.99311 0
M  V30 722 N 60.6021 -1.18246 1.0419 0
M  V30 723 C 61.8791 -1.84121 0.660208 0
M  V30 724 C 62.2591 -1.92778 -0.860221 0
M  V30 725 O 61.6071 -1.45464 -1.76217 0
M  V30 726 C 61.8171 -3.22355 1.33747 0
M  V30 727 C 63.1651 -3.98376 1.46906 0
M  V30 728 O 64.1891 -3.31799 1.29568 0
M  V30 729 O 63.0481 -5.17665 1.75171 0
M  V30 730 H 60.1421 -0.794036 0.231161 0
M  V30 731 H 62.6881 -1.25628 1.14087 0
M  V30 732 H 61.4601 -3.10964 2.37522 0
M  V30 733 H 61.0831 -3.88506 0.845515 0
M  V30 734 N 62.0802 -0.821533 -1.34494 0
M  V30 735 C 63.3052 -0.420873 -2.03085 0
M  V30 736 C 63.7302 0.964915 -1.61465 0
M  V30 737 O 63.0882 1.62763 -0.798607 0
M  V30 738 C 63.1362 -0.529414 -3.56693 0
M  V30 739 O 62.2402 0.451302 -4.09923 0
M  V30 740 H 61.5812 -0.173489 -0.640935 0
M  V30 741 H 64.1112 -1.11157 -1.71771 0
M  V30 742 H 64.1212 -0.404671 -4.05988 0
M  V30 743 H 62.7962 -1.54014 -3.86332 0
M  V30 744 H 61.3732 0.285558 -3.71805 0
M  V30 745 N 63.5583 1.46682 -0.576371 0
M  V30 746 C 64.5063 2.31953 0.17335 0
M  V30 747 C 65.5003 1.44098 0.89062 0
M  V30 748 O 66.7063 1.60759 0.809728 0
M  V30 749 H 63.0813 0.748273 0.0747727 0
M  V30 750 H 65.0523 2.93007 -0.564738 0
M  V30 751 C 63.8013 3.27142 1.17786 0
M  V30 752 H 63.1243 3.94719 0.635361 0
M  V30 753 H 64.5643 3.896 1.67296 0
M  V30 754 C 63.0233 2.52036 2.23561 0
M  V30 755 O 63.5533 2.27877 3.3081 0
M  V30 756 N 61.7593 2.12709 1.97998 0
M  V30 757 H 61.3063 2.32557 1.10792 0
M  V30 758 H 61.2643 1.62776 2.68982 0
M  V30 759 N 65.0364 0.313813 1.54444 0
M  V30 760 C 65.9844 -0.572171 2.25453 0
M  V30 761 C 66.9784 -1.12657 1.2651 0
M  V30 762 O 68.1844 -1.07573 1.44319 0
M  V30 763 H 64.5594 -0.203146 0.724041 0
M  V30 764 H 66.5304 0.0491145 2.9836 0
M  V30 765 C 65.2794 -1.72626 3.0182 0
M  V30 766 H 64.6024 -1.30891 3.77767 0
M  V30 767 H 66.0424 -2.32199 3.54767 0
M  V30 768 C 64.5014 -2.63806 2.09542 0
M  V30 769 O 65.0314 -3.65256 1.67185 0
M  V30 770 N 63.2374 -2.31824 1.75232 0
M  V30 771 H 62.7844 -1.49368 2.09873 0
M  V30 772 H 62.7424 -2.93095 1.13767 0
M  V30 773 N 66.5145 -1.57545 0.0417849 0
M  V30 774 C 67.7445 -1.96339 -0.642995 0
M  V30 775 C 68.1525 -0.917536 -1.65463 0
M  V30 776 O 67.4955 0.107747 -1.83384 0
M  V30 777 C 67.5575 -3.31333 -1.39494 0
M  V30 778 C 67.2215 -4.53796 -0.540204 0
M  V30 779 C 68.2185 -5.19553 0.189806 0
M  V30 780 C 65.9035 -5.0006 -0.473886 0
M  V30 781 C 67.8975 -6.29904 0.974674 0
M  V30 782 C 65.5845 -6.10289 0.314677 0
M  V30 783 C 66.5825 -6.75072 1.03765 0
M  V30 784 O 66.2705 -7.83183 1.81327 0
M  V30 785 H 66.0025 -0.651241 -0.181277 0
M  V30 786 H 68.5565 -2.05148 0.101665 0
M  V30 787 H 66.7865 -3.19052 -2.18502 0
M  V30 788 H 68.4755 -3.54942 -1.96904 0
M  V30 789 H 69.2415 -4.84774 0.147981 0
M  V30 790 H 65.1205 -4.49433 -1.0262 0
M  V30 791 H 68.6645 -6.80401 1.5395 0
M  V30 792 H 64.5615 -6.44506 0.358174 0
M  V30 793 H 65.3295 -7.99913 1.73438 0
M  V30 794 N 67.9926 0.231505 -1.5589 0
M  V30 795 C 68.9406 1.30649 -1.92441 0
M  V30 796 C 69.9346 1.49037 -0.805254 0
M  V30 797 O 71.1406 1.50329 -0.990007 0
M  V30 798 H 67.5156 0.437812 -0.611412 0
M  V30 799 H 69.4866 0.970973 -2.82161 0
M  V30 800 C 68.2356 2.65179 -2.24889 0
M  V30 801 H 67.5586 2.51835 -3.10514 0
M  V30 802 H 68.9986 3.39234 -2.54355 0
M  V30 803 C 67.4576 3.19439 -1.07054 0
M  V30 804 O 67.9876 4.00371 -0.326499 0
M  V30 805 N 66.1936 2.77675 -0.85703 0
M  V30 806 H 65.7406 2.11969 -1.46379 0
M  V30 807 H 65.6986 3.14321 -0.0703223 0
M  V30 808 N 69.4707 1.49531 0.497807 0
M  V30 809 C 70.7187 1.58865 1.24926 0
M  V30 810 C 71.0397 0.278721 1.92998 0
M  V30 811 O 70.3097 -0.702144 1.82885 0
M  V30 812 H 68.8897 0.585343 0.464094 0
M  V30 813 H 71.5517 1.86174 0.57666 0
M  V30 814 H 70.6477 2.38633 2.01149 0
M  V30 815 N 70.9488 -0.749086 1.3866 0
M  V30 816 C 71.8968 -1.88428 1.36373 0
M  V30 817 C 72.8908 -1.67561 0.248929 0
M  V30 818 O 74.0968 -1.75074 0.41821 0
M  V30 819 H 70.4718 -0.620023 0.42553 0
M  V30 820 H 72.4428 -1.87473 2.32156 0
M  V30 821 C 71.1918 -3.25961 1.21014 0
M  V30 822 H 70.5148 -3.42607 2.06059 0
M  V30 823 H 71.9548 -4.05625 1.23469 0
M  V30 824 C 70.4138 -3.36799 -0.0825941 0
M  V30 825 O 70.9438 -3.87517 -1.05797 0
M  V30 826 N 69.1498 -2.90258 -0.140939 0
M  V30 827 H 68.6968 -2.49174 0.653477 0
M  V30 828 H 68.6548 -2.97889 -1.00545 0
M  V30 829 N 72.4269 -1.23603 -0.977757 0
M  V30 830 C 73.6759 -1.06377 -1.71368 0
M  V30 831 C 73.9889 0.399062 -1.91486 0
M  V30 832 O 75.1949 0.691312 -2.62551 0
M  V30 833 C 73.6509 -1.85512 -3.08404 0
M  V30 834 C 73.2589 -3.36141 -2.96164 0
M  V30 835 C 75.0029 -1.76783 -3.85938 0
M  V30 836 C 72.9099 -4.07659 -4.28449 0
M  V30 837 H 71.8399 -0.394452 -0.642591 0
M  V30 838 H 74.4909 -1.47594 -1.09034 0
M  V30 839 H 72.8729 -1.37103 -3.71509 0
M  V30 840 H 74.0469 -3.92056 -2.42133 0
M  V30 841 H 72.3619 -3.45712 -2.32104 0
M  V30 842 H 74.9589 -2.27526 -4.83876 0
M  V30 843 H 75.3019 -0.731116 -4.0983 0
M  V30 844 H 75.8349 -2.22818 -3.2954 0
M  V30 845 H 72.5739 -5.11648 -4.09752 0
M  V30 846 H 72.0939 -3.5653 -4.82334 0
M  V30 847 H 73.7729 -4.141 -4.97122 0
M  V30 848 N 73.905 1.17692 -1.04816 0
M  V30 849 C 74.835 2.23777 -0.666791 0
M  V30 850 C 75.816 1.66796 0.33361 0
M  V30 851 O 77.001 1.93039 0.212042 0
M  V30 852 C 74.131 3.47281 -0.0367933 0
M  V30 853 C 73.085 4.17059 -0.961546 0
M  V30 854 C 72.411 5.34342 -0.195626 0
M  V30 855 C 73.711 4.69713 -2.28402 0
M  V30 856 H 75.405 2.55933 -1.55367 0
M  V30 857 H 72.951 1.23019 -0.748484 0
M  V30 858 H 74.904 4.20706 0.241775 0
M  V30 859 H 73.628 3.14381 0.885004 0
M  V30 860 H 72.287 3.45541 -1.22462 0
M  V30 861 H 71.935 4.97692 0.728816 0
M  V30 862 H 71.635 5.81966 -0.811775 0
M  V30 863 H 73.159 6.10553 0.0757473 0
M  V30 864 H 74.573 5.34794 -2.06563 0
M  V30 865 H 72.97 5.279 -2.8538 0
M  V30 866 H 74.04 3.86726 -2.92525 0
M  V30 867 N 75.3831 0.828654 1.34056 0
M  V30 868 C 76.6081 0.431637 2.02859 0
M  V30 869 C 77.0331 -0.956339 1.61975 0
M  V30 870 O 76.3911 -1.62338 0.807228 0
M  V30 871 C 76.4391 0.548323 3.56407 0
M  V30 872 O 75.5431 -0.429556 4.10157 0
M  V30 873 H 74.8841 0.176886 0.640006 0
M  V30 874 H 77.4141 1.12066 1.71179 0
M  V30 875 H 77.4241 0.426196 4.05768 0
M  V30 876 H 76.0991 1.5606 3.8551 0
M  V30 877 H 74.6761 -0.265836 3.71951 0
M  V30 878 N 76.8612 -1.46375 0.584142 0
M  V30 879 C 77.8092 -2.32042 -0.161047 0
M  V30 880 C 78.8032 -1.44569 -0.882966 0
M  V30 881 O 80.0092 -1.61186 -0.801191 0
M  V30 882 H 76.3842 -0.748659 -0.0708033 0
M  V30 883 H 78.3552 -2.92704 0.580269 0
M  V30 884 C 77.1042 -3.27762 -1.1605 0
M  V30 885 H 76.4272 -3.95051 -0.614419 0
M  V30 886 H 77.8672 -3.90481 -1.65228 0
M  V30 887 C 76.3262 -2.53218 -2.22221 0
M  V30 888 O 76.8562 -2.29628 -3.29597 0
M  V30 889 N 75.0622 -2.13756 -1.96868 0
M  V30 890 H 74.6092 -2.33142 -1.09557 0
M  V30 891 H 74.5672 -1.642 -2.68115 0
M  V30 892 N 78.3393 -0.321999 -1.54275 0
M  V30 893 C 79.2863 0.544664 -2.24281 0
M  V30 894 C 80.2563 1.1129 -1.23303 0
M  V30 895 O 81.4413 1.15354 -1.51981 0
M  V30 896 C 78.5813 1.70045 -3.00298 0
M  V30 897 C 77.6943 1.16159 -4.1609 0
M  V30 898 C 76.8293 2.28293 -4.79641 0
M  V30 899 C 75.8683 1.71648 -5.8754 0
M  V30 900 N 75.0053 2.77438 -6.44959 0
M  V30 901 H 79.8453 -0.0588907 -2.97942 0
M  V30 902 H 77.3823 -0.0408345 -1.47043 0
M  V30 903 H 79.3403 2.38054 -3.42616 0
M  V30 904 H 77.9703 2.27531 -2.28975 0
M  V30 905 H 77.0223 0.373092 -3.78566 0
M  V30 906 H 78.3343 0.707087 -4.93763 0
M  V30 907 H 77.4883 3.0421 -5.2492 0
M  V30 908 H 76.2273 2.77079 -4.01346 0
M  V30 909 H 75.2323 0.942282 -5.41665 0
M  V30 910 H 76.4573 1.23741 -6.67731 0
M  V30 911 H 74.4033 3.25519 -5.69538 0
M  V30 912 H 74.3203 2.36547 -7.1804 0
M  V30 913 H 75.5883 3.53189 -6.94894 0
M  V30 914 N 79.8174 1.5752 -0.0501392 0
M  V30 915 C 80.7654 2.12651 0.942459 0
M  V30 916 C 81.7594 1.05807 1.32292 0
M  V30 917 O 82.9654 1.24217 1.3027 0
M  V30 918 H 79.3404 0.679673 0.321789 0
M  V30 919 H 81.3114 2.94951 0.452356 0
M  V30 920 C 80.0604 2.68565 2.20836 0
M  V30 921 H 79.3834 3.50439 1.92439 0
M  V30 922 H 80.8234 3.10761 2.8845 0
M  V30 923 C 79.2824 1.62291 2.95234 0
M  V30 924 O 79.8124 1.03508 3.88135 0
M  V30 925 N 78.0184 1.33836 2.57946 0
M  V30 926 H 77.5654 1.81826 1.82475 0
M  V30 927 H 77.5234 0.629595 3.08032 0
M  V30 928 N 81.2955 -0.223234 1.56011 0
M  V30 929 C 82.2425 -1.27664 1.92277 0
M  V30 930 C 83.2125 -1.46659 0.779763 0
M  V30 931 O 84.3975 -1.60256 1.03551 0
M  V30 932 C 81.5375 -2.62234 2.24338 0
M  V30 933 C 80.6505 -2.51051 3.51564 0
M  V30 934 C 79.7855 -3.78133 3.7308 0
M  V30 935 C 78.8245 -3.61665 4.93827 0
M  V30 936 N 77.9615 -4.80693 5.11741 0
M  V30 937 H 82.8015 -0.960358 2.82101 0
M  V30 938 H 80.3385 -0.462901 1.39627 0
M  V30 939 H 82.2965 -3.40596 2.40936 0
M  V30 940 H 80.9265 -2.91961 1.3769 0
M  V30 941 H 79.9785 -1.64132 3.43169 0
M  V30 942 H 81.2905 -2.34803 4.40079 0
M  V30 943 H 80.4445 -4.64938 3.89766 0
M  V30 944 H 79.1835 -3.97304 2.82844 0
M  V30 945 H 78.1885 -2.73244 4.77093 0
M  V30 946 H 79.4135 -3.43966 5.85546 0
M  V30 947 H 77.3595 -5.00181 4.24446 0
M  V30 948 H 77.2765 -4.67165 5.94384 0
M  V30 949 H 78.5445 -5.6893 5.3286 0
M  V30 950 N 82.7736 -1.49793 -0.48987 0
M  V30 951 C 84.0196 -1.60078 -1.24511 0
M  V30 952 C 84.3526 -0.291608 -1.91998 0
M  V30 953 O 83.6276 0.705647 -1.81248 0
M  V30 954 C 83.9106 -2.76791 -2.30345 0
M  V30 955 C 83.7636 -4.17535 -1.67286 0
M  V30 956 C 85.0826 -2.89111 -3.31817 0
M  V30 957 H 82.2016 -0.582645 -0.451324 0
M  V30 958 H 84.8436 -1.82117 -0.541612 0
M  V30 959 H 82.9936 -2.5813 -2.90346 0
M  V30 960 H 84.6656 -4.4774 -1.11026 0
M  V30 961 H 82.9086 -4.22665 -0.976577 0
M  V30 962 H 83.5796 -4.95094 -2.44103 0
M  V30 963 H 86.0556 -3.06133 -2.81819 0
M  V30 964 H 84.9316 -3.72433 -4.03219 0
M  V30 965 H 85.1926 -1.9893 -3.94815 0
M  V30 966 N 84.2517 0.741722 -1.39055 0
M  V30 967 C 85.1987 1.85566 -1.37237 0
M  V30 968 C 86.1687 1.64457 -0.233072 0
M  V30 969 O 87.3537 1.85957 -0.427147 0
M  V30 970 C 84.4937 3.23004 -1.215 0
M  V30 971 C 83.6067 3.55864 -2.44918 0
M  V30 972 C 82.7417 4.82669 -2.21821 0
M  V30 973 C 81.7807 5.08351 -3.40948 0
M  V30 974 N 80.9177 6.26356 -3.17211 0
M  V30 975 H 85.7577 1.86455 -2.32462 0
M  V30 976 H 83.2947 0.911176 -1.15482 0
M  V30 977 H 85.2527 4.02331 -1.10389 0
M  V30 978 H 83.8827 3.21411 -0.29908 0
M  V30 979 H 82.9347 2.7129 -2.66657 0
M  V30 980 H 84.2467 3.70765 -3.33668 0
M  V30 981 H 83.4007 5.69962 -2.07914 0
M  V30 982 H 82.1397 4.69929 -1.30454 0
M  V30 983 H 81.1447 4.19522 -3.55361 0
M  V30 984 H 82.3697 5.22981 -4.33207 0
M  V30 985 H 80.3157 6.14917 -2.28502 0
M  V30 986 H 80.2327 6.41813 -3.99515 0
M  V30 987 H 81.5007 7.16506 -3.06984 0
M  V30 988 N 85.7298 1.2412 0.971189 0
M  V30 989 C 86.6798 0.997551 2.05019 0
M  V30 990 C 87.6638 -0.0597747 1.60789 0
M  V30 991 O 88.8558 0.153516 1.76333 0
M  V30 992 C 85.9848 0.600557 3.38006 0
M  V30 993 C 85.0708 1.69377 3.88809 0
M  V30 994 N 85.4618 2.92586 4.12586 0
M  V30 995 C 83.7598 1.57048 4.17435 0
M  V30 996 C 84.4608 3.63431 4.54195 0
M  V30 997 N 83.4368 2.90979 4.59165 0
M  V30 998 H 87.2388 1.93316 2.21374 0
M  V30 999 H 84.7528 1.14194 1.1547 0
M  V30 1000 H 86.7498 0.40725 4.14906 0
M  V30 1001 H 85.4098 -0.327903 3.2304 0
M  V30 1002 H 86.4208 3.288 4.00139 0
M  V30 1003 H 83.0978 0.709798 4.11422 0
M  V30 1004 H 84.4878 4.69102 4.81033 0
M  V30 1005 N 87.2079 -1.17134 1.05439 0
M  V30 1006 C 88.4549 -1.87456 0.765942 0
M  V30 1007 C 88.7829 -1.81189 -0.707153 0
M  V30 1008 O 88.0379 -1.21633 -1.5331 0
M  V30 1009 C 88.3369 -3.36833 1.19491 0
M  V30 1010 C 88.0029 -3.63301 2.67063 0
M  V30 1011 C 86.6649 -3.70234 3.07376 0
M  V30 1012 C 89.0169 -3.74575 3.62413 0
M  V30 1013 C 86.3449 -3.85933 4.41896 0
M  V30 1014 C 88.6969 -3.91793 4.9667 0
M  V30 1015 C 87.3609 -3.96966 5.36633 0
M  V30 1016 H 86.6309 -0.685948 0.280278 0
M  V30 1017 H 89.2779 -1.38556 1.32192 0
M  V30 1018 H 87.5829 -3.87807 0.557969 0
M  V30 1019 H 89.2799 -3.89611 0.948893 0
M  V30 1020 H 85.8699 -3.58532 2.34846 0
M  V30 1021 H 90.0539 -3.68537 3.32406 0
M  V30 1022 H 85.3099 -3.88187 4.72357 0
M  V30 1023 H 89.4839 -3.99458 5.70444 0
M  V30 1024 H 87.1109 -4.08883 6.40874 0
M  V30 1025 N 88.686 -0.835752 -1.33615 0
M  V30 1026 C 89.633 -0.26473 -2.29277 0
M  V30 1027 C 90.603 0.617712 -1.54187 0
M  V30 1028 O 91.788 0.556641 -1.825 0
M  V30 1029 C 88.928 0.556777 -3.40579 0
M  V30 1030 C 88.041 -0.349339 -4.30585 0
M  V30 1031 C 87.176 0.482969 -5.29 0
M  V30 1032 C 86.215 -0.421732 -6.10645 0
M  V30 1033 N 85.352 0.372262 -7.01112 0
M  V30 1034 H 90.192 -1.08582 -2.77514 0
M  V30 1035 H 87.729 -0.546927 -1.36554 0
M  V30 1036 H 89.687 1.04852 -4.03809 0
M  V30 1037 H 88.317 1.34286 -2.93542 0
M  V30 1038 H 87.369 -0.959372 -3.68104 0
M  V30 1039 H 88.681 -1.04445 -4.87742 0
M  V30 1040 H 87.835 1.03866 -5.97743 0
M  V30 1041 H 86.574 1.21153 -4.72412 0
M  V30 1042 H 85.579 -0.989464 -5.40823 0
M  V30 1043 H 86.804 -1.14861 -6.69316 0
M  V30 1044 H 84.75 1.08426 -6.46977 0
M  V30 1045 H 84.667 -0.264198 -7.55538 0
M  V30 1046 H 85.935 0.910293 -7.74167 0
M  V30 1047 N 90.1641 1.46063 -0.591896 0
M  V30 1048 C 91.4041 2.04228 -0.0838014 0
M  V30 1049 C 91.7681 1.45231 1.25587 0
M  V30 1050 O 92.9691 1.94653 1.85375 0
M  V30 1051 C 91.2401 3.57389 -0.0286282 0
M  V30 1052 S 92.7991 4.3678 0.420557 0
M  V30 1053 H 89.6171 0.709762 -0.0419319 0
M  V30 1054 H 92.2191 1.78983 -0.786465 0
M  V30 1055 H 90.9231 3.97843 -1.00743 0
M  V30 1056 H 90.4541 3.87185 0.69652 0
M  V30 1057 H 92.4691 4.67131 1.67341 0
M  V30 1058 N 91.6422 0.330177 1.54103 0
M  V30 1059 C 93.0532 -0.15652 1.86043 0
M  V30 1060 C 93.4042 -1.51086 1.2517 0
M  V30 1061 O 92.5292 -2.09023 0.560217 0
M  V30 1062 C 93.1242 -0.290784 3.3755 0
M  V30 1063 C 91.6832 -0.721705 3.69416 0
M  V30 1064 C 90.8302 0.152622 2.7688 0
M  V30 1065 H 93.7812 0.550237 1.48856 0
M  V30 1066 H 93.8022 -1.12058 3.63625 0
M  V30 1067 H 93.3142 0.695068 3.81825 0
M  V30 1068 H 91.4152 -1.71706 3.30678 0
M  V30 1069 H 91.5282 -0.520869 4.7626 0
M  V30 1070 H 89.8922 -0.372894 2.51956 0
M  V30 1071 H 90.6752 1.13536 3.23982 0
M  V30 1072 N 93.1203 -1.57491 0.0584922 0
M  V30 1073 C 94.0673 -2.11958 -0.913376 0
M  V30 1074 C 95.0373 -1.02875 -1.30407 0
M  V30 1075 O 96.2223 -1.30464 -1.39226 0
M  V30 1076 C 93.3623 -2.67497 -2.18035 0
M  V30 1077 C 92.4753 -3.90691 -1.84349 0
M  V30 1078 C 91.6103 -4.3452 -3.05559 0
M  V30 1079 C 90.6493 -5.50395 -2.67827 0
M  V30 1080 N 89.7863 -5.89244 -3.81754 0
M  V30 1081 H 94.6263 -2.94704 -0.442017 0
M  V30 1082 H 92.1633 -1.45643 -0.206545 0
M  V30 1083 H 94.1213 -2.978 -2.92183 0
M  V30 1084 H 92.7513 -1.87537 -2.62735 0
M  V30 1085 H 91.8033 -3.66934 -1.00319 0
M  V30 1086 H 93.1153 -4.7489 -1.5258 0
M  V30 1087 H 92.2693 -4.66414 -3.87998 0
M  V30 1088 H 91.0083 -3.49147 -3.40511 0
M  V30 1089 H 90.0133 -5.18165 -1.83806 0
M  V30 1090 H 91.2383 -6.3749 -2.34059 0
M  V30 1091 H 89.1843 -5.06823 -4.16493 0
M  V30 1092 H 89.1013 -6.68151 -3.53708 0
M  V30 1093 H 90.3693 -6.25756 -4.64811 0
M  V30 1094 N 94.5984 0.214957 -1.56127 0
M  V30 1095 C 95.8384 0.945364 -1.81224 0
M  V30 1096 C 96.2024 1.81265 -0.633005 0
M  V30 1097 O 97.4034 2.57731 -0.763423 0
M  V30 1098 C 95.6744 1.75665 -3.1125 0
M  V30 1099 S 97.2334 2.54179 -3.57685 0
M  V30 1100 H 94.0514 0.317443 -0.6362 0
M  V30 1101 H 96.6534 0.210381 -1.94365 0
M  V30 1102 H 95.3574 1.10977 -3.9511 0
M  V30 1103 H 94.8884 2.53381 -3.00934 0
M  V30 1104 H 96.9034 3.7792 -3.21545 0
M  V30 1105 N 96.0765 1.50051 0.48192 0
M  V30 1106 C 97.0245 1.68635 1.60203 0
M  V30 1107 C 98.0185 0.552184 1.60148 0
M  V30 1108 O 99.2245 0.732377 1.64427 0
M  V30 1109 H 95.5995 0.532081 0.531407 0
M  V30 1110 H 97.5705 2.62616 1.41688 0
M  V30 1111 C 96.3195 1.78775 2.9822 0
M  V30 1112 H 95.6425 2.6543 2.98976 0
M  V30 1113 H 97.0825 1.95806 3.7608 0
M  V30 1114 C 95.5415 0.536849 3.32595 0
M  V30 1115 O 96.0715 -0.328897 4.00351 0
M  V30 1116 N 94.2775 0.394091 2.87915 0
M  V30 1117 H 93.8245 1.09962 2.32951 0
M  V30 1118 H 93.7825 -0.441737 3.11281 0
M  V30 1119 N 97.5546 -0.734337 1.39446 0
M  V30 1120 C 98.5026 -1.86971 1.38364 0
M  V30 1121 C 99.4966 -1.67288 0.266687 0
M  V30 1122 O 100.703 -1.74621 0.436755 0
M  V30 1123 H 97.0776 -0.615474 0.432082 0
M  V30 1124 H 99.0486 -1.85 2.34132 0
M  V30 1125 C 97.7976 -3.2466 1.24465 0
M  V30 1126 H 97.1206 -3.40402 2.09682 0
M  V30 1127 H 98.5606 -4.04292 1.27764 0
M  V30 1128 C 97.0196 -3.36867 -0.0468674 0
M  V30 1129 O 97.5496 -3.88618 -1.01681 0
M  V30 1130 N 95.7556 -2.90391 -0.110145 0
M  V30 1131 H 95.3026 -2.48466 0.679868 0
M  V30 1132 H 95.2606 -2.98939 -0.973799 0
M  V30 1133 N 99.0327 -1.24633 -0.964593 0
M  V30 1134 C 99.9807 -1.03917 -2.08096 0
M  V30 1135 C 100.975 0.0268581 -1.69379 0
M  V30 1136 O 102.181 -0.127952 -1.79545 0
M  V30 1137 H 98.5557 -0.319044 -0.680966 0
M  V30 1138 H 100.527 -1.98581 -2.22729 0
M  V30 1139 C 99.2757 -0.663983 -3.41301 0
M  V30 1140 H 98.5987 -1.47605 -3.71555 0
M  V30 1141 H 100.039 -0.558663 -4.20303 0
M  V30 1142 C 98.4977 0.629169 -3.30973 0
M  V30 1143 O 99.0277 1.67404 -3.65156 0
M  V30 1144 N 97.2337 0.611057 -2.84103 0
M  V30 1145 H 96.7807 -0.239593 -2.56483 0
M  V30 1146 H 96.7387 1.47647 -2.77575 0
M  V30 1147 N 100.511 1.16574 -1.06058 0
M  V30 1148 C 101.76 1.86385 -0.770944 0
M  V30 1149 C 102.073 1.82448 0.705129 0
M  V30 1150 O 103.279 2.47815 1.10905 0
M  V30 1151 C 101.735 3.34466 -1.32893 0
M  V30 1152 C 101.343 3.46883 -2.83507 0
M  V30 1153 C 103.087 4.09548 -1.11672 0
M  V30 1154 C 100.994 4.89036 -3.32562 0
M  V30 1155 H 99.9238 0.698181 -0.284709 0
M  V30 1156 H 102.575 1.31583 -1.27899 0
M  V30 1157 H 100.957 3.88859 -0.748662 0
M  V30 1158 H 102.131 3.02663 -3.47465 0
M  V30 1159 H 100.446 2.85232 -3.03368 0
M  V30 1160 H 103.043 5.14434 -1.45814 0
M  V30 1161 H 103.386 4.16264 -0.0549535 0
M  V30 1162 H 103.919 3.61387 -1.66265 0
M  V30 1163 H 100.658 4.87499 -4.38207 0
M  V30 1164 H 100.178 5.3389 -2.73351 0
M  V30 1165 H 101.857 5.57843 -3.2775 0
M  V30 1166 N 101.989 0.842826 1.3317 0
M  V30 1167 C 103.214 0.453129 2.02389 0
M  V30 1168 C 103.639 -0.939105 1.6298 0
M  V30 1169 O 102.997 -1.61472 0.8244 0
M  V30 1170 C 103.045 0.586094 3.55805 0
M  V30 1171 O 102.149 -0.386029 4.10589 0
M  V30 1172 H 101.49 0.183664 0.638094 0
M  V30 1173 H 104.02 1.13875 1.69981 0
M  V30 1174 H 104.03 0.469209 4.05293 0
M  V30 1175 H 102.705 1.6014 3.83833 0
M  V30 1176 H 101.282 -0.226371 3.72212 0
M  V30 1177 N 103.467 -1.45747 0.599634 0
M  V30 1178 C 104.695 -2.06668 0.0978551 0
M  V30 1179 C 105.11 -1.44562 -1.21439 0
M  V30 1180 O 104.467 -0.556923 -1.73795 0
M  V30 1181 C 104.518 -3.61456 -0.0567044 0
M  V30 1182 O 104.239 -4.21242 1.20361 0
M  V30 1183 C 105.74 -4.39345 -0.590869 0
M  V30 1184 H 102.96 -0.667825 0.0651943 0
M  V30 1185 H 105.504 -1.87115 0.82511 0
M  V30 1186 H 103.659 -3.80378 -0.734251 0
M  V30 1187 H 104.073 -5.14323 1.02821 0
M  V30 1188 H 105.547 -5.48182 -0.648131 0
M  V30 1189 H 106.024 -4.08568 -1.61147 0
M  V30 1190 H 106.63 -4.25268 0.0523679 0
M  V30 1191 N 104.945 -0.338344 -1.53925 0
M  V30 1192 C 106.222 0.314774 -1.93051 0
M  V30 1193 C 106.602 1.68669 -1.26941 0
M  V30 1194 O 105.95 2.24636 -0.418445 0
M  V30 1195 C 106.16 0.392249 -3.46789 0
M  V30 1196 C 107.508 0.645554 -4.19664 0
M  V30 1197 O 108.532 0.474575 -3.53024 0
M  V30 1198 O 107.391 0.976408 -5.37707 0
M  V30 1199 H 104.485 0.182598 -0.80659 0
M  V30 1200 H 107.031 -0.389141 -1.65178 0
M  V30 1201 H 105.803 -0.570702 -3.87116 0
M  V30 1202 H 105.426 1.14316 -3.80812 0
M  V30 1203 N 106.423 1.57458 -0.0668435 0
M  V30 1204 C 107.651 1.97624 0.612565 0
M  V30 1205 C 108.066 0.94502 1.63447 0
M  V30 1206 O 107.423 -0.0689276 1.8237 0
M  V30 1207 C 107.474 3.37869 1.28555 0
M  V30 1208 O 107.195 4.3704 0.304557 0
M  V30 1209 C 108.696 3.92882 2.05325 0
M  V30 1210 H 105.916 0.650045 0.166381 0
M  V30 1211 H 108.46 2.04035 -0.137782 0
M  V30 1212 H 106.615 3.3256 1.98702 0
M  V30 1213 H 107.029 5.18565 0.786779 0
M  V30 1214 H 108.503 4.93247 2.47812 0
M  V30 1215 H 108.98 3.29156 2.9078 0
M  V30 1216 H 109.586 4.01577 1.40056 0
M  V30 1217 N 107.901 -0.206675 1.56239 0
M  V30 1218 C 109.147 -0.930218 1.80208 0
M  V30 1219 C 109.48 -1.83387 0.638981 0
M  V30 1220 O 108.755 -1.91119 -0.361066 0
M  V30 1221 C 109.038 -1.75641 3.1436 0
M  V30 1222 C 108.891 -0.878257 4.41142 0
M  V30 1223 C 110.21 -2.73129 3.45092 0
M  V30 1224 H 107.329 -0.336742 0.655571 0
M  V30 1225 H 109.971 -0.198222 1.88963 0
M  V30 1226 H 108.121 -2.38048 3.07027 0
M  V30 1227 H 109.793 -0.269787 4.6051 0
M  V30 1228 H 108.036 -0.184385 4.33408 0
M  V30 1229 H 108.707 -1.49106 5.3148 0
M  V30 1230 H 111.183 -2.20856 3.52649 0
M  V30 1231 H 110.059 -3.28028 4.40101 0
M  V30 1232 H 110.32 -3.51606 2.68003 0
M  V30 1233 N 109.379 -1.50304 -0.473955 0
M  V30 1234 C 110.604 -1.65175 -1.25427 0
M  V30 1235 C 111.029 -0.333673 -1.85117 0
M  V30 1236 O 110.387 0.702114 -1.67153 0
M  V30 1237 C 110.435 -2.74295 -2.34082 0
M  V30 1238 O 109.539 -2.35349 -3.38651 0
M  V30 1239 H 108.88 -0.551944 -0.369126 0
M  V30 1240 H 111.41 -1.96662 -0.564364 0
M  V30 1241 H 111.42 -2.97285 -2.79438 0
M  V30 1242 H 110.095 -3.69959 -1.90008 0
M  V30 1243 H 108.672 -2.22794 -2.99027 0
M  V30 1244 N 110.857 0.726932 -1.39834 0
M  V30 1245 C 112.104 1.48664 -1.37496 0
M  V30 1246 C 112.432 1.94482 0.0264678 0
M  V30 1247 O 111.687 1.67692 1.00886 0
M  V30 1248 C 111.986 2.73495 -2.30077 0
M  V30 1249 C 111.652 2.46502 -3.77555 0
M  V30 1250 C 110.314 2.3885 -4.17737 0
M  V30 1251 C 112.666 2.23604 -4.70798 0
M  V30 1252 C 109.994 2.06352 -5.49214 0
M  V30 1253 C 112.346 1.92622 -6.02561 0
M  V30 1254 C 111.01 1.83444 -6.41798 0
M  V30 1255 H 110.28 0.544001 -0.503135 0
M  V30 1256 H 112.927 0.833657 -1.72402 0
M  V30 1257 H 111.232 3.43575 -1.88317 0
M  V30 1258 H 112.929 3.31549 -2.25558 0
M  V30 1259 H 109.519 2.5334 -3.45712 0
M  V30 1260 H 113.703 2.28479 -4.40581 0
M  V30 1261 H 108.959 1.97776 -5.78528 0
M  V30 1262 H 113.133 1.73914 -6.74334 0
M  V30 1263 H 110.76 1.58029 -7.43593 0
M  V30 1264 N 112.336 1.25143 0.95797 0
M  V30 1265 C 113.284 1.05019 2.07542 0
M  V30 1266 C 114.278 -0.0178751 1.69391 0
M  V30 1267 O 115.484 0.137472 1.79474 0
M  V30 1268 H 111.859 0.32265 0.679265 0
M  V30 1269 H 113.83 1.99759 2.21673 0
M  V30 1270 C 112.579 0.682074 3.40944 0
M  V30 1271 H 111.902 1.49573 3.70767 0
M  V30 1272 H 113.342 0.580945 4.20001 0
M  V30 1273 C 111.801 -0.611608 3.31302 0
M  V30 1274 O 112.331 -1.65465 3.66038 0
M  V30 1275 N 110.537 -0.595982 2.84423 0
M  V30 1276 H 110.084 0.253192 2.56353 0
M  V30 1277 H 110.042 -1.46173 2.78354 0
M  V30 1278 N 113.814 -1.1601 1.06675 0
M  V30 1279 C 115.054 -1.88304 0.795037 0
M  V30 1280 C 115.418 -1.80062 -0.666466 0
M  V30 1281 O 116.619 -2.47319 -1.05293 0
M  V30 1282 C 114.89 -3.33664 1.28076 0
M  V30 1283 S 116.449 -4.23768 1.13868 0
M  V30 1284 H 113.267 -0.649928 0.288296 0
M  V30 1285 H 115.869 -1.4001 1.36445 0
M  V30 1286 H 114.573 -3.37203 2.33927 0
M  V30 1287 H 114.104 -3.87009 0.706253 0
M  V30 1288 H 116.119 -4.96148 0.0719668 0
M  V30 1289 N 115.292 -0.849877 -1.32721 0
M  V30 1290 C 116.202 -0.293791 -2.32753 0
M  V30 1291 C 117.218 0.585906 -1.63839 0
M  V30 1292 O 118.394 0.487413 -1.95413 0
M  V30 1293 C 115.459 0.512752 -3.42887 0
M  V30 1294 C 114.52 -0.39252 -4.27502 0
M  V30 1295 C 113.753 0.375625 -5.32377 0
M  V30 1296 O 113.976 1.60613 -5.4732 0
M  V30 1297 O 112.91 -0.256094 -6.01355 0
M  V30 1298 H 116.736 -1.12242 -2.82197 0
M  V30 1299 H 114.321 -0.612685 -1.36259 0
M  V30 1300 H 116.203 0.970704 -4.10067 0
M  V30 1301 H 114.878 1.31826 -2.95641 0
M  V30 1302 H 113.785 -0.898547 -3.63149 0
M  V30 1303 H 115.118 -1.16309 -4.7826 0
M  V30 1304 N 116.77 1.45427 -0.607355 0
M  V30 1305 C 118.016 2.0254 -0.102607 0
M  V30 1306 C 118.349 1.47478 1.26348 0
M  V30 1307 O 117.624 0.64939 1.83339 0
M  V30 1308 C 117.907 3.60044 -0.0634347 0
M  V30 1309 C 117.76 4.2544 -1.46017 0
M  V30 1310 C 119.079 4.35646 0.624514 0
M  V30 1311 H 116.198 0.73598 -0.0387607 0
M  V30 1312 H 118.84 1.73284 -0.779282 0
M  V30 1313 H 116.99 3.85101 0.512808 0
M  V30 1314 H 118.662 4.11569 -2.08347 0
M  V30 1315 H 116.905 3.83849 -2.02094 0
M  V30 1316 H 117.576 5.34342 -1.385 0
M  V30 1317 H 120.052 4.15882 0.134723 0
M  V30 1318 H 118.928 5.45376 0.621028 0
M  V30 1319 H 119.189 4.08501 1.69055 0
M  V30 1320 N 118.248 0.346503 1.53744 0
M  V30 1321 C 119.488 -0.249413 2.02873 0
M  V30 1322 C 119.852 -1.47532 1.22876 0
M  V30 1323 O 121.053 -2.1456 1.61918 0
M  V30 1324 C 119.324 -0.552909 3.53097 0
M  V30 1325 S 120.883 -1.12521 4.24128 0
M  V30 1326 H 117.701 -0.074042 0.707134 0
M  V30 1327 H 120.303 0.48495 1.8939 0
M  V30 1328 H 119.007 0.347083 4.0893 0
M  V30 1329 H 118.538 -1.31686 3.70705 0
M  V30 1330 H 120.553 -2.41075 4.33702 0
M  V30 1331 N 119.726 -1.57421 0.075193 0
M  V30 1332 C 120.673 -2.12915 -0.890843 0
M  V30 1333 C 121.643 -1.04252 -1.29309 0
M  V30 1334 O 122.828 -1.31933 -1.37834 0
M  V30 1335 C 119.968 -2.69795 -2.15186 0
M  V30 1336 C 119.081 -3.92624 -1.80194 0
M  V30 1337 C 118.216 -4.37736 -3.00933 0
M  V30 1338 C 117.255 -5.53205 -2.61974 0
M  V30 1339 N 116.392 -5.9326 -3.75483 0
M  V30 1340 H 121.232 -2.95156 -0.410735 0
M  V30 1341 H 118.769 -1.45854 -0.191086 0
M  V30 1342 H 120.727 -3.00883 -2.89008 0
M  V30 1343 H 119.357 -1.90313 -2.60731 0
M  V30 1344 H 118.409 -3.67977 -0.964218 0
M  V30 1345 H 119.721 -4.76482 -1.47534 0
M  V30 1346 H 118.875 -4.70503 -3.8303 0
M  V30 1347 H 117.614 -3.52739 -3.36789 0
M  V30 1348 H 116.619 -5.20086 -1.783 0
M  V30 1349 H 117.844 -6.39936 -2.27284 0
M  V30 1350 H 115.79 -5.11212 -4.11094 0
M  V30 1351 H 115.707 -6.71865 -3.46602 0
M  V30 1352 H 116.975 -6.30651 -4.58148 0
M  V30 1353 N 121.204 0.198386 -1.56346 0
M  V30 1354 C 122.167 1.22952 -1.93431 0
M  V30 1355 C 123.167 1.38611 -0.815092 0
M  V30 1356 O 124.357 1.36479 -1.08255 0
M  V30 1357 C 121.489 2.59946 -2.20546 0
M  V30 1358 H 122.682 0.912626 -2.85677 0
M  V30 1359 H 120.235 0.43977 -1.49986 0
M  V30 1360 H 120.97 2.96696 -1.30927 0
M  V30 1361 H 120.755 2.49953 -3.02102 0
M  V30 1362 H 122.245 3.3431 -2.50253 0
M  V30 1363 N 122.682 1.50554 0.465978 0
M  V30 1364 C 123.612 1.72722 1.57128 0
M  V30 1365 C 124.593 0.576294 1.6004 0
M  V30 1366 O 125.778 0.81598 1.76225 0
M  V30 1367 C 122.908 1.82605 2.95419 0
M  V30 1368 C 121.862 2.97835 3.07373 0
M  V30 1369 C 121.188 2.92867 4.47363 0
M  V30 1370 C 122.488 4.38265 2.84114 0
M  V30 1371 H 124.182 2.65267 1.38829 0
M  V30 1372 H 121.728 1.2765 0.666441 0
M  V30 1373 H 123.681 1.96698 3.72677 0
M  V30 1374 H 122.405 0.866858 3.14886 0
M  V30 1375 H 121.064 2.83401 2.3255 0
M  V30 1376 H 120.712 1.94783 4.63755 0
M  V30 1377 H 120.412 3.70227 4.56296 0
M  V30 1378 H 121.936 3.09015 5.26633 0
M  V30 1379 H 123.35 4.53198 3.51118 0
M  V30 1380 H 121.747 5.17115 3.04487 0
M  V30 1381 H 122.817 4.50281 1.7993 0
M  V30 1382 N 124.16 -0.719506 1.40217 0
M  V30 1383 C 125.407 -1.47933 1.38283 0
M  V30 1384 C 125.735 -1.94493 -0.0161536 0
M  V30 1385 O 124.99 -1.68224 -0.999956 0
M  V30 1386 C 125.289 -2.72271 2.31524 0
M  V30 1387 C 124.955 -2.44496 3.78857 0
M  V30 1388 C 123.617 -2.36631 4.18998 0
M  V30 1389 C 125.969 -2.21104 4.71977 0
M  V30 1390 C 123.297 -2.03437 5.503 0
M  V30 1391 C 125.649 -1.89423 6.03574 0
M  V30 1392 C 124.313 -1.80038 6.42762 0
M  V30 1393 H 123.583 -0.541325 0.506012 0
M  V30 1394 H 126.23 -0.824502 1.72842 0
M  V30 1395 H 124.535 -3.42572 1.90137 0
M  V30 1396 H 126.232 -3.30348 2.27313 0
M  V30 1397 H 122.822 -2.51503 3.47051 0
M  V30 1398 H 127.006 -2.26139 4.41786 0
M  V30 1399 H 122.262 -1.94705 5.79569 0
M  V30 1400 H 126.436 -1.70336 6.75247 0
M  V30 1401 H 124.063 -1.54083 7.44421 0
M  V30 1402 N 125.638 -1.25649 -0.95132 0
M  V30 1403 C 126.586 -1.06118 -2.06982 0
M  V30 1404 C 127.58 0.00889169 -1.69398 0
M  V30 1405 O 128.786 -0.146988 -1.79399 0
M  V30 1406 H 125.161 -0.326248 -0.677544 0
M  V30 1407 H 127.132 -2.00932 -2.2061 0
M  V30 1408 C 125.881 -0.700145 -3.40578 0
M  V30 1409 H 125.204 -1.51537 -3.69968 0
M  V30 1410 H 126.644 -0.603211 -4.19687 0
M  V30 1411 C 125.103 0.59403 -3.31622 0
M  V30 1412 O 125.633 1.63522 -3.66911 0
M  V30 1413 N 123.839 0.58089 -2.84735 0
M  V30 1414 H 123.386 -0.266783 -2.56215 0
M  V30 1415 H 123.344 1.44695 -2.79125 0
M  V30 1416 N 127.117 1.15442 -1.07289 0
M  V30 1417 C 128.366 1.85557 -0.790669 0
M  V30 1418 C 128.679 1.83186 0.685739 0
M  V30 1419 O 129.885 2.48977 1.0827 0
M  V30 1420 C 128.341 3.33038 -1.36433 0
M  V30 1421 C 127.949 3.43856 -2.8717 0
M  V30 1422 C 129.693 4.0834 -1.1601 0
M  V30 1423 C 127.6 4.85482 -3.3773 0
M  V30 1424 H 126.53 0.695122 -0.292098 0
M  V30 1425 H 129.181 1.30219 -1.29287 0
M  V30 1426 H 127.563 3.88043 -0.789864 0
M  V30 1427 H 128.737 2.98961 -3.50655 0
M  V30 1428 H 127.052 2.81998 -3.06376 0
M  V30 1429 H 129.649 5.12859 -1.51262 0
M  V30 1430 H 129.992 4.16182 -0.0991007 0
M  V30 1431 H 130.525 3.59603 -1.70089 0
M  V30 1432 H 127.264 4.82823 -4.43353 0
M  V30 1433 H 126.784 5.30961 -2.78999 0
M  V30 1434 H 128.463 5.54335 -3.33648 0
M  V30 1435 N 128.595 0.856903 1.32268 0
M  V30 1436 C 129.872 0.382583 1.91822 0
M  V30 1437 C 130.252 -1.13407 1.78051 0
M  V30 1438 O 129.6 -1.95673 1.18001 0
M  V30 1439 C 129.81 0.849446 3.38505 0
M  V30 1440 C 131.158 0.867936 4.15634 0
M  V30 1441 O 132.182 0.794232 3.47232 0
M  V30 1442 O 131.041 0.972286 5.37781 0
M  V30 1443 H 128.135 0.112014 0.819379 0
M  V30 1444 H 130.681 0.943952 1.41024 0
M  V30 1445 H 129.453 1.89267 3.42482 0
M  V30 1446 H 129.076 0.265652 3.96712 0
M  V30 1447 N 130.073 -1.45103 0.615059 0
M  V30 1448 C 131.322 -2.01396 0.110718 0
M  V30 1449 C 131.635 -1.48834 -1.26916 0
M  V30 1450 O 132.841 -1.97152 -1.86664 0
M  V30 1451 C 131.297 -3.59599 0.14723 0
M  V30 1452 C 130.905 -4.21158 1.52743 0
M  V30 1453 C 132.649 -4.23428 -0.30148 0
M  V30 1454 C 130.556 -5.71535 1.51992 0
M  V30 1455 H 129.486 -0.753061 0.0376241 0
M  V30 1456 H 132.137 -1.66494 0.77149 0
M  V30 1457 H 130.519 -3.91724 -0.580339 0
M  V30 1458 H 131.693 -4.00594 2.2773 0
M  V30 1459 H 130.008 -3.69552 1.91886 0
M  V30 1460 H 132.605 -5.33703 -0.326392 0
M  V30 1461 H 132.948 -3.94629 -1.32565 0
M  V30 1462 H 133.481 -3.96047 0.373065 0
M  V30 1463 H 130.22 -6.05044 2.52193 0
M  V30 1464 H 129.74 -5.94268 0.81274 0
M  V30 1465 H 131.419 -6.34873 1.24681 0
M  V30 1466 N 131.551 -0.354651 -1.53558 0
M  V30 1467 C 132.798 0.238443 -2.01091 0
M  V30 1468 C 133.126 1.49663 -1.24222 0
M  V30 1469 O 132.381 1.93049 -0.321003 0
M  V30 1470 C 132.68 0.587121 -3.52545 0
M  V30 1471 C 132.346 -0.575472 -4.47213 0
M  V30 1472 C 131.008 -0.894497 -4.72813 0
M  V30 1473 C 133.36 -1.35489 -5.03281 0
M  V30 1474 C 130.688 -1.99511 -5.51736 0
M  V30 1475 C 133.04 -2.44583 -5.83405 0
M  V30 1476 C 131.704 -2.77033 -6.07296 0
M  V30 1477 H 130.974 0.0872526 -0.735845 0
M  V30 1478 H 133.621 -0.484859 -1.8526 0
M  V30 1479 H 131.926 1.39129 -3.66265 0
M  V30 1480 H 133.623 1.05809 -3.86789 0
M  V30 1481 H 130.213 -0.316774 -4.27428 0
M  V30 1482 H 134.397 -1.12167 -4.83459 0
M  V30 1483 H 129.653 -2.25063 -5.68469 0
M  V30 1484 H 133.827 -3.05401 -6.25862 0
M  V30 1485 H 131.454 -3.6244 -6.68237 0
M  V30 1486 N 133.029 1.57378 -0.0835403 0
M  V30 1487 C 134.445 1.57246 0.273109 0
M  V30 1488 C 134.645 1.09385 1.69225 0
M  V30 1489 O 133.701 0.765051 2.40631 0
M  V30 1490 C 135.014 3.00614 0.0720628 0
M  V30 1491 C 136.562 3.12684 0.1407 0
M  V30 1492 C 137.037 4.57989 -0.0322094 0
M  V30 1493 N 138.528 4.63194 0.0230085 0
M  V30 1494 C 139.263 5.73335 -0.0861941 0
M  V30 1495 N 138.759 6.9235 -0.24958 0
M  V30 1496 N 140.552 5.62093 -0.0282886 0
M  V30 1497 H 132.703 1.86801 -1.0109 0
M  V30 1498 H 134.966 0.861687 -0.395222 0
M  V30 1499 H 134.672 3.39786 -0.907662 0
M  V30 1500 H 134.546 3.68193 0.81936 0
M  V30 1501 H 136.933 2.73391 1.11092 0
M  V30 1502 H 137.014 2.47719 -0.637896 0
M  V30 1503 H 136.658 4.97973 -0.999247 0
M  V30 1504 H 136.588 5.21 0.765937 0
M  V30 1505 H 139.079 3.77613 0.14722 0
M  V30 1506 H 139.392 7.72117 -0.324733 0
M  V30 1507 H 137.737 6.94415 -0.285097 0
M  V30 1508 H 140.928 4.67997 0.0981408 0
M  V30 1509 H 141.101 6.47895 -0.116845 0
M  V30 1510 N 134.507 -0.190092 1.56449 0
M  V30 1511 C 135.455 -1.25501 1.95837 0
M  V30 1512 C 136.449 -1.4685 0.844485 0
M  V30 1513 O 137.655 -1.47651 1.02952 0
M  V30 1514 H 134.03 -0.421447 0.622805 0
M  V30 1515 H 136.001 -0.895821 2.84636 0
M  V30 1516 C 134.75 -2.59124 2.31841 0
M  V30 1517 H 134.073 -2.43514 3.17082 0
M  V30 1518 H 135.513 -3.32371 2.6326 0
M  V30 1519 C 133.972 -3.16488 1.15486 0
M  V30 1520 O 134.502 -3.99365 0.432535 0
M  V30 1521 N 132.708 -2.75305 0.930349 0
M  V30 1522 H 132.255 -2.08013 1.51948 0
M  V30 1523 H 132.213 -3.14024 0.153634 0
M  V30 1524 N 135.985 -1.50799 -0.457987 0
M  V30 1525 C 137.232 -1.62442 -1.20908 0
M  V30 1526 C 137.56 -0.330865 -1.91665 0
M  V30 1527 O 136.815 0.68401 -1.83357 0
M  V30 1528 C 137.114 -2.76358 -2.2663 0
M  V30 1529 C 136.78 -4.16378 -1.73033 0
M  V30 1530 C 135.442 -4.54473 -1.58138 0
M  V30 1531 C 137.794 -5.03836 -1.33413 0
M  V30 1532 C 135.122 -5.77754 -1.02065 0
M  V30 1533 C 137.474 -6.27676 -0.78778 0
M  V30 1534 C 136.138 -6.64562 -0.625561 0
M  V30 1535 H 135.408 -0.594417 -0.442435 0
M  V30 1536 H 138.055 -1.84772 -0.503136 0
M  V30 1537 H 136.36 -2.48167 -3.03184 0
M  V30 1538 H 138.057 -2.82568 -2.84528 0
M  V30 1539 H 134.647 -3.86331 -1.85598 0
M  V30 1540 H 138.831 -4.75026 -1.4375 0
M  V30 1541 H 134.087 -6.04997 -0.882547 0
M  V30 1542 H 138.261 -6.94797 -0.472177 0
M  V30 1543 H 135.888 -7.59965 -0.188926 0
M  V30 1544 N 137.463 0.71206 -1.40597 0
M  V30 1545 C 138.411 1.84746 -1.41321 0
M  V30 1546 C 139.405 1.66842 -0.293268 0
M  V30 1547 O 140.611 1.73904 -0.464481 0
M  V30 1548 H 136.986 0.608522 -0.441819 0
M  V30 1549 H 138.957 1.81252 -2.37045 0
M  V30 1550 C 137.706 3.22638 -1.29614 0
M  V30 1551 H 137.029 3.37023 -2.15071 0
M  V30 1552 H 138.469 4.02209 -1.3418 0
M  V30 1553 C 136.928 3.36899 -0.00673121 0
M  V30 1554 O 137.458 3.90186 0.954859 0
M  V30 1555 N 135.664 2.9053 0.0639327 0
M  V30 1556 H 135.211 2.47353 -0.719311 0
M  V30 1557 H 135.169 3.0045 0.926118 0
M  V30 1558 N 138.941 1.26152 0.944643 0
M  V30 1559 C 140.19 1.10883 1.68487 0
M  V30 1560 C 140.503 -0.348153 1.92477 0
M  V30 1561 O 141.709 -0.621459 2.64292 0
M  V30 1562 C 140.165 1.93624 3.03377 0
M  V30 1563 C 139.773 3.43875 2.87148 0
M  V30 1564 C 141.517 1.86954 3.81115 0
M  V30 1565 C 139.424 4.18875 4.1749 0
M  V30 1566 H 138.354 0.41135 0.631907 0
M  V30 1567 H 141.005 1.50433 1.05082 0
M  V30 1568 H 139.387 1.46904 3.67743 0
M  V30 1569 H 140.561 3.98338 2.31653 0
M  V30 1570 H 138.876 3.51744 2.22856 0
M  V30 1571 H 141.473 2.40275 4.77673 0
M  V30 1572 H 141.816 0.839518 4.07747 0
M  V30 1573 H 142.349 2.31477 3.23517 0
M  V30 1574 H 139.088 5.22332 3.96043 0
M  V30 1575 H 138.608 3.69193 4.72712 0
M  V30 1576 H 140.287 4.27134 4.85968 0
M  V30 1577 N 140.419 -1.14872 1.07899 0
M  V30 1578 C 141.666 -1.85789 0.805532 0
M  V30 1579 C 141.994 -1.82649 -0.668561 0
M  V30 1580 O 141.249 -1.24858 -1.50695 0
M  V30 1581 C 141.548 -3.34223 1.26609 0
M  V30 1582 C 141.214 -3.57555 2.74709 0
M  V30 1583 C 139.876 -3.63631 3.1516 0
M  V30 1584 C 142.228 -3.66803 3.70277 0
M  V30 1585 C 139.556 -3.76473 4.49983 0
M  V30 1586 C 141.908 -3.8117 5.04869 0
M  V30 1587 C 140.572 -3.85494 5.44932 0
M  V30 1588 H 139.842 -0.679849 0.294765 0
M  V30 1589 H 142.489 -1.3572 1.35101 0
M  V30 1590 H 140.794 -3.86536 0.640103 0
M  V30 1591 H 142.491 -3.87511 1.03132 0
M  V30 1592 H 139.081 -3.5347 2.42398 0
M  V30 1593 H 143.265 -3.61404 3.40149 0
M  V30 1594 H 138.521 -3.7808 4.80484 0
M  V30 1595 H 142.695 -3.87268 5.78789 0
M  V30 1596 H 140.322 -3.95197 6.49403 0
M  V30 1597 N 141.898 -0.863906 -1.31812 0
M  V30 1598 C 142.808 -0.318461 -2.32428 0
M  V30 1599 C 143.824 0.568496 -1.64451 0
M  V30 1600 O 145 0.46666 -1.95919 0
M  V30 1601 C 142.065 0.476355 -3.43412 0
M  V30 1602 C 141.126 -0.43784 -4.27061 0
M  V30 1603 C 140.359 0.319138 -5.32745 0
M  V30 1604 O 140.582 1.54799 -5.48993 0
M  V30 1605 O 139.516 -0.319861 -6.01049 0
M  V30 1606 H 143.342 -1.15229 -2.80991 0
M  V30 1607 H 140.927 -0.627103 -1.35602 0
M  V30 1608 H 142.809 0.927156 -4.11074 0
M  V30 1609 H 141.484 1.28683 -2.97022 0
M  V30 1610 H 140.391 -0.937013 -3.62175 0
M  V30 1611 H 141.724 -1.21375 -4.77 0
M  V30 1612 N 143.376 1.44774 -0.622745 0
M  V30 1613 C 144.306 2.33382 0.0741861 0
M  V30 1614 C 145.287 1.47719 0.843387 0
M  V30 1615 O 146.472 1.76458 0.810934 0
M  V30 1616 C 143.602 3.30663 1.06204 0
M  V30 1617 C 142.556 4.26079 0.405037 0
M  V30 1618 C 141.882 5.13165 1.5022 0
M  V30 1619 C 143.182 5.1781 -0.683414 0
M  V30 1620 H 144.876 2.91905 -0.665713 0
M  V30 1621 H 142.422 1.40363 -0.321587 0
M  V30 1622 H 144.375 3.9153 1.55827 0
M  V30 1623 H 143.099 2.70331 1.83272 0
M  V30 1624 H 141.758 3.66532 -0.0704683 0
M  V30 1625 H 141.406 4.49191 2.26355 0
M  V30 1626 H 141.106 5.77812 1.06803 0
M  V30 1627 H 142.63 5.76902 2.00041 0
M  V30 1628 H 144.044 5.72661 -0.270631 0
M  V30 1629 H 142.441 5.91015 -1.04023 0
M  V30 1630 H 143.511 4.59326 -1.55395 0
M  V30 1631 N 144.854 0.36279 1.53368 0
M  V30 1632 C 146.101 -0.227776 2.01215 0
M  V30 1633 C 146.429 -1.49003 1.25014 0
M  V30 1634 O 145.684 -1.92876 0.331236 0
M  V30 1635 C 145.983 -0.568417 3.52851 0
M  V30 1636 C 145.649 0.59918 4.46901 0
M  V30 1637 C 144.311 0.919559 4.72332 0
M  V30 1638 C 146.663 1.38156 5.02556 0
M  V30 1639 C 143.991 2.02434 5.5067 0
M  V30 1640 C 146.343 2.47674 5.821 0
M  V30 1641 C 145.007 2.8025 6.05819 0
M  V30 1642 H 144.277 -0.083349 0.736297 0
M  V30 1643 H 146.924 0.494677 1.85001 0
M  V30 1644 H 145.229 -1.37185 3.66998 0
M  V30 1645 H 146.926 -1.03756 3.87344 0
M  V30 1646 H 143.516 0.339437 4.27254 0
M  V30 1647 H 147.7 1.14729 4.82857 0
M  V30 1648 H 142.956 2.28075 5.67267 0
M  V30 1649 H 147.13 3.08716 6.24234 0
M  V30 1650 H 144.757 3.65979 6.66306 0
M  V30 1651 N 146.332 -1.57332 0.0918853 0
M  V30 1652 C 147.28 -2.15075 -0.885747 0
M  V30 1653 C 148.274 -1.09277 -1.29441 0
M  V30 1654 O 149.48 -1.27627 -1.26931 0
M  V30 1655 H 145.855 -0.687966 -0.303656 0
M  V30 1656 H 147.826 -2.96047 -0.373995 0
M  V30 1657 C 146.575 -2.74325 -2.13638 0
M  V30 1658 H 145.898 -3.55418 -1.8308 0
M  V30 1659 H 147.338 -3.183 -2.80109 0
M  V30 1660 C 145.797 -1.70062 -2.90827 0
M  V30 1661 O 146.327 -1.13763 -3.85254 0
M  V30 1662 N 144.533 -1.40628 -2.54307 0
M  V30 1663 H 144.08 -1.866 -1.7759 0
M  V30 1664 H 144.038 -0.711043 -3.06254 0
M  V30 1665 N 147.81 0.181792 -1.56548 0
M  V30 1666 C 149.059 0.898348 -1.8059 0
M  V30 1667 C 149.372 1.83862 -0.667379 0
M  V30 1668 O 150.578 2.59678 -0.792446 0
M  V30 1669 C 149.034 1.64791 -3.19956 0
M  V30 1670 C 148.642 0.751789 -4.41647 0
M  V30 1671 C 150.386 2.35331 -3.53298 0
M  V30 1672 C 148.293 1.50098 -5.72035 0
M  V30 1673 H 147.223 0.339194 -0.673397 0
M  V30 1674 H 149.874 0.151413 -1.82874 0
M  V30 1675 H 148.256 2.43921 -3.11959 0
M  V30 1676 H 149.43 -0.0018076 -4.608 0
M  V30 1677 H 147.745 0.156562 -4.16106 0
M  V30 1678 H 150.342 2.91958 -4.47956 0
M  V30 1679 H 150.685 3.10164 -2.77676 0
M  V30 1680 H 151.218 1.63154 -3.62803 0
M  V30 1681 H 147.957 0.795175 -6.50659 0
M  V30 1682 H 147.477 2.22817 -5.56878 0
M  V30 1683 H 149.156 2.05125 -6.13622 0
M  V30 1684 N 149.288 1.51039 0.449983 0
M  V30 1685 C 150.198 1.74261 1.57067 0
M  V30 1686 C 151.214 0.626363 1.62335 0
M  V30 1687 O 152.39 0.907162 1.79812 0
M  V30 1688 C 149.455 1.85114 2.93144 0
M  V30 1689 C 148.516 3.0893 2.98095 0
M  V30 1690 C 147.749 3.19256 4.27681 0
M  V30 1691 O 147.972 2.35835 5.19363 0
M  V30 1692 O 146.906 4.12144 4.38658 0
M  V30 1693 H 150.732 2.69303 1.40391 0
M  V30 1694 H 148.317 1.35389 0.631688 0
M  V30 1695 H 150.199 1.94311 3.73926 0
M  V30 1696 H 148.874 0.932588 3.09975 0
M  V30 1697 H 147.781 3.0522 2.16314 0
M  V30 1698 H 149.114 4.00433 2.86206 0
M  V30 1699 N 150.766 -0.704594 1.40972 0
M  V30 1700 C 152.012 -1.46675 1.40051 0
M  V30 1701 C 152.345 -1.94199 0.00641102 0
M  V30 1702 O 151.62 -1.68916 -0.964235 0
M  V30 1703 C 151.903 -2.68505 2.39952 0
M  V30 1704 C 151.756 -2.26805 3.88432 0
M  V30 1705 C 153.075 -3.70686 2.37233 0
M  V30 1706 H 150.194 -0.532015 0.510028 0
M  V30 1707 H 152.836 -0.803255 1.72185 0
M  V30 1708 H 150.986 -3.25114 2.1268 0
M  V30 1709 H 152.658 -1.75592 4.26574 0
M  V30 1710 H 150.901 -1.58685 4.03734 0
M  V30 1711 H 151.572 -3.14181 4.53866 0
M  V30 1712 H 154.048 -3.23731 2.61415 0
M  V30 1713 H 152.924 -4.53553 3.09162 0
M  V30 1714 H 153.185 -4.19754 1.38777 0
M  V30 1715 N 152.244 -1.26651 -0.937939 0
M  V30 1716 C 153.192 -1.08308 -2.05845 0
M  V30 1717 C 154.186 -0.0090757 -1.69398 0
M  V30 1718 O 155.392 -0.166007 -1.79233 0
M  V30 1719 H 151.767 -0.333416 -0.674046 0
M  V30 1720 H 153.738 -2.03261 -2.18467 0
M  V30 1721 C 152.487 -0.736229 -3.39816 0
M  V30 1722 H 151.81 -1.55453 -3.6834 0
M  V30 1723 H 153.25 -0.64769 -4.19024 0
M  V30 1724 C 151.709 0.558824 -3.32233 0
M  V30 1725 O 152.239 1.59621 -3.68624 0
M  V30 1726 N 150.445 0.550657 -2.85335 0
M  V30 1727 H 149.992 -0.293943 -2.55917 0
M  V30 1728 H 149.95 1.41726 -2.80644 0
M  V30 1729 N 153.722 1.14298 -1.08507 0
M  V30 1730 C 154.952 1.88945 -0.835663 0
M  V30 1731 C 155.36 1.78894 0.615928 0
M  V30 1732 O 154.703 1.1468 1.43506 0
M  V30 1733 C 154.765 3.39585 -1.17994 0
M  V30 1734 C 154.429 3.7342 -2.63451 0
M  V30 1735 C 155.426 3.73454 -3.61702 0
M  V30 1736 C 153.111 4.03368 -2.99332 0
M  V30 1737 C 155.105 4.02961 -4.93864 0
M  V30 1738 C 152.792 4.32538 -4.31687 0
M  V30 1739 C 153.79 4.32318 -5.28763 0
M  V30 1740 O 153.478 4.6078 -6.58739 0
M  V30 1741 H 153.21 0.605307 -0.300965 0
M  V30 1742 H 155.764 1.45673 -1.44806 0
M  V30 1743 H 153.994 3.83315 -0.51055 0
M  V30 1744 H 155.683 3.9554 -0.911182 0
M  V30 1745 H 156.449 3.50403 -3.35325 0
M  V30 1746 H 152.328 4.02692 -2.24411 0
M  V30 1747 H 155.872 4.02704 -5.69627 0
M  V30 1748 H 151.769 4.55059 -4.57812 0
M  V30 1749 H 152.537 4.78492 -6.64069 0
M  V30 1750 N 155.201 0.870884 1.31352 0
M  V30 1751 C 156.478 0.402907 1.91405 0
M  V30 1752 C 156.858 -1.11512 1.79244 0
M  V30 1753 O 156.206 -1.94411 1.2007 0
M  V30 1754 C 156.416 0.885301 3.37585 0
M  V30 1755 C 157.764 0.911971 4.14691 0
M  V30 1756 O 158.788 0.831016 3.46371 0
M  V30 1757 O 157.647 1.02927 5.3672 0
M  V30 1758 H 154.741 0.120698 0.818145 0
M  V30 1759 H 157.287 0.958857 1.40014 0
M  V30 1760 H 156.059 1.92889 3.40455 0
M  V30 1761 H 155.682 0.307714 3.96407 0
M  V30 1762 N 156.679 -1.44442 0.630414 0
M  V30 1763 C 157.928 -2.01267 0.132073 0
M  V30 1764 C 158.241 -1.50172 -1.25331 0
M  V30 1765 O 159.447 -1.9912 -1.84562 0
M  V30 1766 C 157.903 -3.59422 0.185362 0
M  V30 1767 C 157.511 -4.19514 1.57201 0
M  V30 1768 C 159.255 -4.23724 -0.256553 0
M  V30 1769 C 157.162 -5.69891 1.58045 0
M  V30 1770 H 156.092 -0.752619 0.0456092 0
M  V30 1771 H 158.743 -1.65666 0.789106 0
M  V30 1772 H 157.125 -3.92318 -0.538759 0
M  V30 1773 H 158.299 -3.98156 2.31966 0
M  V30 1774 H 156.614 -3.67496 1.95795 0
M  V30 1775 H 159.211 -5.34019 -0.269767 0
M  V30 1776 H 159.554 -3.96013 -1.28372 0
M  V30 1777 H 160.087 -3.95629 0.41505 0
M  V30 1778 H 156.826 -6.02336 2.58597 0
M  V30 1779 H 156.346 -5.93373 0.875725 0
M  V30 1780 H 158.025 -6.33515 1.31408 0
M  V30 1781 N 158.157 -0.370918 -1.53173 0
M  V30 1782 C 159.434 0.273754 -1.93675 0
M  V30 1783 C 159.814 1.65938 -1.3049 0
M  V30 1784 O 159.162 2.23698 -0.465999 0
M  V30 1785 C 159.372 0.318602 -3.47543 0
M  V30 1786 C 160.72 0.556392 -4.20939 0
M  V30 1787 O 161.744 0.399587 -3.53952 0
M  V30 1788 O 160.603 0.862133 -5.39657 0
M  V30 1789 H 157.697 0.165448 -0.810281 0
M  V30 1790 H 160.243 -0.42409 -1.64315 0
M  V30 1791 H 159.015 -0.652687 -3.85818 0
M  V30 1792 H 158.638 1.06212 -3.83151 0
M  V30 1793 N 159.635 1.57281 -0.100228 0
M  V30 1794 C 160.582 2.14305 0.856858 0
M  V30 1795 C 161.552 1.06296 1.27634 0
M  V30 1796 O 162.737 1.34109 1.35718 0
M  V30 1797 C 159.877 2.73184 2.10866 0
M  V30 1798 C 158.99 3.95442 1.73925 0
M  V30 1799 C 158.125 4.42468 2.93931 0
M  V30 1800 C 157.164 5.57303 2.5314 0
M  V30 1801 N 156.301 5.99158 3.65997 0
M  V30 1802 H 161.141 2.95772 0.363726 0
M  V30 1803 H 158.678 1.46139 0.167858 0
M  V30 1804 H 160.636 3.05442 2.84185 0
M  V30 1805 H 159.266 1.94437 2.57671 0
M  V30 1806 H 158.318 3.69464 0.905554 0
M  V30 1807 H 159.63 4.78769 1.39935 0
M  V30 1808 H 158.784 4.76537 3.75496 0
M  V30 1809 H 157.523 3.58052 3.31134 0
M  V30 1810 H 156.528 5.22857 1.70003 0
M  V30 1811 H 157.753 6.43471 2.17075 0
M  V30 1812 H 155.699 5.17687 4.02909 0
M  V30 1813 H 155.616 6.77295 3.35869 0
M  V30 1814 H 156.884 6.3786 4.48057 0
M  V30 1815 N 161.113 -0.173488 1.56642 0
M  V30 1816 C 162.338 -0.910149 1.86363 0
M  V30 1817 C 162.763 -1.75132 0.686318 0
M  V30 1818 O 162.121 -1.77595 -0.364643 0
M  V30 1819 C 162.169 -1.76447 3.14482 0
M  V30 1820 O 161.273 -2.86584 2.96553 0
M  V30 1821 H 160.614 -0.255086 0.613047 0
M  V30 1822 H 163.144 -0.172283 2.03873 0
M  V30 1823 H 163.154 -2.16483 3.45831 0
M  V30 1824 H 161.829 -1.14658 3.99783 0
M  V30 1825 H 160.406 -2.50146 2.76553 0
M  V30 1826 N 162.591 -1.51276 -0.441967 0
M  V30 1827 C 163.541 -1.6864 -1.53442 0
M  V30 1828 C 164.525 -0.540444 -1.51552 0
M  V30 1829 O 165.717 -0.796157 -1.58083 0
M  V30 1830 C 162.846 -1.8106 -2.91672 0
M  V30 1831 C 161.932 -3.01424 -2.98336 0
M  V30 1832 N 162.323 -4.2467 -2.74752 0
M  V30 1833 C 160.621 -3.00584 -3.29493 0
M  V30 1834 C 161.322 -5.05891 -2.87139 0
M  V30 1835 N 160.298 -4.40442 -3.18609 0
M  V30 1836 H 164.1 -2.61598 -1.33954 0
M  V30 1837 H 161.614 -1.4886 -0.6492 0
M  V30 1838 H 163.611 -1.91609 -3.70259 0
M  V30 1839 H 162.271 -0.892795 -3.12185 0
M  V30 1840 H 163.282 -4.53691 -2.49769 0
M  V30 1841 H 159.959 -2.18417 -3.55809 0
M  V30 1842 H 161.349 -6.13983 -2.72899 0
M  V30 1843 N 164.069 0.697108 -1.41344 0
M  V30 1844 C 164.999 1.82353 -1.45841 0
M  V30 1845 C 165.98 1.67115 -0.317247 0
M  V30 1846 O 167.165 1.86871 -0.528474 0
M  V30 1847 C 164.295 3.20476 -1.33838 0
M  V30 1848 C 163.249 3.50415 -2.4575 0
M  V30 1849 C 162.575 4.87878 -2.18813 0
M  V30 1850 C 163.875 3.49546 -3.88091 0
M  V30 1851 H 165.569 1.78846 -2.40113 0
M  V30 1852 H 163.115 0.859028 -1.15571 0
M  V30 1853 H 165.068 3.98988 -1.35596 0
M  V30 1854 H 163.792 3.24604 -0.360498 0
M  V30 1855 H 162.451 2.74253 -2.43271 0
M  V30 1856 H 162.099 4.8863 -1.19371 0
M  V30 1857 H 161.799 5.08875 -2.93803 0
M  V30 1858 H 163.323 5.68702 -2.22284 0
M  V30 1859 H 164.737 4.18066 -3.92293 0
M  V30 1860 H 163.134 3.82075 -4.62751 0
M  V30 1861 H 164.204 2.48552 -4.16353 0
M  V30 1862 N 165.547 1.27147 0.931209 0
M  V30 1863 C 166.494 1.09568 2.03134 0
M  V30 1864 C 167.464 -0.00222433 1.661 0
M  V30 1865 O 168.649 0.159439 1.90133 0
M  V30 1866 C 165.789 0.745231 3.36957 0
M  V30 1867 C 164.902 1.92041 3.86968 0
M  V30 1868 C 164.037 1.51216 5.09222 0
M  V30 1869 C 163.076 2.65504 5.5152 0
M  V30 1870 N 162.213 2.25291 6.64972 0
M  V30 1871 H 167.053 2.03708 2.17502 0
M  V30 1872 H 164.59 1.01411 1.06556 0
M  V30 1873 H 166.548 0.522878 4.1391 0
M  V30 1874 H 165.178 -0.159202 3.22407 0
M  V30 1875 H 164.23 2.25541 3.06326 0
M  V30 1876 H 165.542 2.77787 4.1429 0
M  V30 1877 H 164.696 1.25084 5.93666 0
M  V30 1878 H 163.435 0.625749 4.83669 0
M  V30 1879 H 162.44 2.92354 4.65628 0
M  V30 1880 H 163.665 3.54761 5.7907 0
M  V30 1881 H 161.611 1.39098 6.41083 0
M  V30 1882 H 161.528 3.04577 6.91931 0
M  V30 1883 H 162.796 2.02398 7.52765 0
M  V30 1884 N 167.025 -1.13721 1.09112 0
M  V30 1885 C 167.972 -2.19031 0.727591 0
M  V30 1886 C 168.942 -1.63555 -0.289656 0
M  V30 1887 O 170.127 -1.90023 -0.172026 0
M  V30 1888 C 167.267 -3.4477 0.15082 0
M  V30 1889 C 166.38 -4.14365 1.22172 0
M  V30 1890 C 165.515 -5.27709 0.608042 0
M  V30 1891 C 164.554 -5.89147 1.66047 0
M  V30 1892 N 163.691 -6.93929 1.06806 0
M  V30 1893 H 168.531 -2.49475 1.62991 0
M  V30 1894 H 166.068 -1.22499 0.81439 0
M  V30 1895 H 168.026 -4.16714 -0.201358 0
M  V30 1896 H 166.656 -3.14787 -0.714783 0
M  V30 1897 H 165.708 -3.40737 1.69122 0
M  V30 1898 H 167.02 -4.56114 2.01895 0
M  V30 1899 H 166.174 -6.06355 0.204523 0
M  V30 1900 H 164.913 -4.872 -0.220769 0
M  V30 1901 H 163.918 -5.09198 2.07357 0
M  V30 1902 H 165.143 -6.31729 2.49189 0
M  V30 1903 H 163.089 -6.55483 0.260476 0
M  V30 1904 H 163.006 -7.34202 1.8023 0
M  V30 1905 H 164.274 -7.76434 0.690644 0
M  V30 1906 N 168.503 -0.877838 -1.30888 0
M  V30 1907 C 169.45 -0.337538 -2.28318 0
M  V30 1908 C 170.42 0.568346 -1.56074 0
M  V30 1909 O 171.605 0.498298 -1.84178 0
M  V30 1910 C 168.745 0.448142 -3.42178 0
M  V30 1911 C 167.858 -0.48615 -4.29256 0
M  V30 1912 C 166.993 0.314427 -5.30269 0
M  V30 1913 C 166.032 -0.615791 -6.08995 0
M  V30 1914 N 165.169 0.14902 -7.01942 0
M  V30 1915 H 170.009 -1.17356 -2.73919 0
M  V30 1916 H 167.546 -0.590094 -1.34745 0
M  V30 1917 H 169.504 0.919517 -4.06941 0
M  V30 1918 H 168.134 1.24879 -2.97666 0
M  V30 1919 H 167.186 -1.076 -3.64865 0
M  V30 1920 H 168.498 -1.19909 -4.84173 0
M  V30 1921 H 167.652 0.847969 -6.00745 0
M  V30 1922 H 166.391 1.06062 -4.76027 0
M  V30 1923 H 165.396 -1.16102 -5.37401 0
M  V30 1924 H 166.621 -1.36097 -6.65323 0
M  V30 1925 H 164.567 0.877884 -6.50099 0
M  V30 1926 H 164.484 -0.504433 -7.54315 0
M  V30 1927 H 165.752 0.663537 -7.76671 0
M  V30 1928 N 169.982 1.44106 -0.638065 0
M  V30 1929 C 171.229 2.01978 -0.14533 0
M  V30 1930 C 171.557 1.50234 1.23532 0
M  V30 1931 O 170.812 0.679548 1.83523 0
M  V30 1932 C 171.111 3.5729 -0.0887327 0
M  V30 1933 C 170.777 4.28317 -1.40909 0
M  V30 1934 C 169.439 4.47437 -1.77069 0
M  V30 1935 C 171.791 4.6867 -2.28031 0
M  V30 1936 C 169.119 5.04171 -3.00047 0
M  V30 1937 C 171.471 5.26766 -3.50286 0
M  V30 1938 C 170.135 5.44104 -3.86661 0
M  V30 1939 H 169.405 0.739089 -0.0531801 0
M  V30 1940 H 172.052 1.72781 -0.825761 0
M  V30 1941 H 170.357 3.8594 0.675095 0
M  V30 1942 H 172.054 3.99807 0.309145 0
M  V30 1943 H 168.644 4.1377 -1.1177 0
M  V30 1944 H 172.828 4.53604 -2.01388 0
M  V30 1945 H 168.084 5.15782 -3.28298 0
M  V30 1946 H 172.258 5.56983 -4.18023 0
M  V30 1947 H 169.885 5.87832 -4.82034 0
M  V30 1948 N 171.46 0.379036 1.52974 0
M  V30 1949 C 172.408 -0.476033 2.27677 0
M  V30 1950 C 173.402 -1.0719 1.31174 0
M  V30 1951 O 174.608 -1.01355 1.48752 0
M  V30 1952 H 170.983 -0.172255 0.732006 0
M  V30 1953 H 172.954 0.175615 2.97883 0
M  V30 1954 C 171.703 -1.5967 3.0887 0
M  V30 1955 H 171.026 -1.1475 3.82978 0
M  V30 1956 H 172.466 -2.16943 3.64296 0
M  V30 1957 C 170.925 -2.54682 2.20542 0
M  V30 1958 O 171.455 -3.57836 1.82527 0
M  V30 1959 N 169.661 -2.24183 1.84907 0
M  V30 1960 H 169.208 -1.40333 2.1602 0
M  V30 1961 H 169.166 -2.88006 1.26096 0
M  V30 1962 N 172.938 -1.57226 0.108567 0
M  V30 1963 C 173.848 -2.18292 -0.859401 0
M  V30 1964 C 174.864 -1.15612 -1.30038 0
M  V30 1965 O 176.04 -1.48039 -1.36552 0
M  V30 1966 C 173.105 -2.762 -2.09558 0
M  V30 1967 C 172.166 -3.93881 -1.70752 0
M  V30 1968 C 171.399 -4.49018 -2.88477 0
M  V30 1969 O 171.622 -4.03068 -4.036 0
M  V30 1970 O 170.556 -5.39852 -2.66164 0
M  V30 1971 H 174.382 -3.01441 -0.369769 0
M  V30 1972 H 171.967 -1.48945 -0.1165 0
M  V30 1973 H 173.849 -3.13156 -2.81978 0
M  V30 1974 H 172.524 -1.96089 -2.57548 0
M  V30 1975 H 171.431 -3.61713 -0.954714 0
M  V30 1976 H 172.764 -4.75396 -1.27513 0
M  V30 1977 N 174.416 0.165178 -1.56732 0
M  V30 1978 C 175.665 0.879143 -1.81532 0
M  V30 1979 C 175.978 1.83144 -0.686842 0
M  V30 1980 O 177.184 2.58823 -0.819944 0
M  V30 1981 C 175.64 1.61388 -3.21686 0
M  V30 1982 C 175.248 0.704904 -4.4242 0
M  V30 1983 C 176.992 2.3157 -3.55774 0
M  V30 1984 C 174.899 1.44022 -5.73595 0
M  V30 1985 H 173.829 0.332033 -0.676957 0
M  V30 1986 H 176.48 0.132008 -1.83025 0
M  V30 1987 H 174.862 2.40599 -3.14529 0
M  V30 1988 H 176.036 -0.0506815 -4.60772 0
M  V30 1989 H 174.351 0.112419 -4.16248 0
M  V30 1990 H 176.948 2.8719 -4.51028 0
M  V30 1991 H 177.291 3.07201 -2.8095 0
M  V30 1992 H 177.824 1.59297 -3.64513 0
M  V30 1993 H 174.563 0.72612 -6.51466 0
M  V30 1994 H 174.083 2.16898 -5.5921 0
M  V30 1995 H 175.762 1.98606 -6.15764 0
M  V30 1996 N 175.894 1.51508 0.433938 0
M  V30 1997 C 176.826 1.69266 1.54537 0
M  V30 1998 C 177.839 0.573276 1.52373 0
M  V30 1999 O 179.028 0.847698 1.57087 0
M  V30 2000 C 176.128 1.69524 2.93453 0
M  V30 2001 C 175.301 2.98101 3.20085 0
M  V30 2002 C 174.36 2.90502 4.38742 0
M  V30 2003 O 173.386 3.64442 4.3723 0
M  V30 2004 N 174.588 2.06586 5.42496 0
M  V30 2005 H 177.353 2.65145 1.39708 0
M  V30 2006 H 174.914 1.49437 0.622922 0
M  V30 2007 H 176.906 1.62004 3.70859 0
M  V30 2008 H 175.476 0.812245 3.01863 0
M  V30 2009 H 174.696 3.19464 2.30947 0
M  V30 2010 H 175.984 3.83207 3.34708 0
M  V30 2011 H 175.382 1.45896 5.46563 0
M  V30 2012 H 173.939 2.04943 6.18742 0
M  V30 2013 N 177.372 -0.689602 1.41712 0
M  V30 2014 C 178.32 -1.82475 1.44242 0
M  V30 2015 C 179.314 -1.66354 0.319774 0
M  V30 2016 O 180.52 -1.73143 0.492089 0
M  V30 2017 H 176.895 -0.601416 0.451445 0
M  V30 2018 H 178.866 -1.77458 2.39899 0
M  V30 2019 C 177.615 -3.20535 1.3473 0
M  V30 2020 H 176.938 -3.33559 2.20405 0
M  V30 2021 H 178.378 -4.00023 1.40562 0
M  V30 2022 C 176.837 -3.36846 0.0603281 0
M  V30 2023 O 177.367 -3.91656 -0.892663 0
M  V30 2024 N 175.573 -2.90595 -0.0177039 0
M  V30 2025 H 175.12 -2.46178 0.758572 0
M  V30 2026 H 175.078 -3.01886 -0.878201 0
M  V30 2027 N 178.85 -1.27639 -0.924453 0
M  V30 2028 C 180.099 -1.13549 -1.66702 0
M  V30 2029 C 180.412 0.317487 -1.93006 0
M  V30 2030 O 181.618 0.579333 -2.65247 0
M  V30 2031 C 180.074 -1.98426 -3.00259 0
M  V30 2032 C 179.682 -3.484 -2.81641 0
M  V30 2033 C 181.426 -1.92993 -3.78092 0
M  V30 2034 C 179.333 -4.25464 -4.10773 0
M  V30 2035 H 178.263 -0.421351 -0.625283 0
M  V30 2036 H 180.914 -1.52085 -1.02676 0
M  V30 2037 H 179.296 -1.52736 -3.6536 0
M  V30 2038 H 180.47 -4.01973 -2.25287 0
M  V30 2039 H 178.785 -3.55245 -2.17232 0
M  V30 2040 H 181.382 -2.47844 -4.7379 0
M  V30 2041 H 181.725 -0.904281 -4.0636 0
M  V30 2042 H 182.258 -2.36595 -3.19793 0
M  V30 2043 H 178.997 -5.28566 -3.87683 0
M  V30 2044 H 178.517 -3.76667 -4.66779 0
M  V30 2045 H 180.196 -4.34812 -4.79111 0
M  V30 2046 N 180.328 1.1314 -1.09713 0
M  V30 2047 C 181.558 1.88048 -0.855656 0
M  V30 2048 C 181.966 1.79537 0.596919 0
M  V30 2049 O 181.309 1.16196 1.42282 0
M  V30 2050 C 181.371 3.38314 -1.21589 0
M  V30 2051 C 181.035 3.70605 -2.67397 0
M  V30 2052 C 182.032 3.69596 -3.65643 0
M  V30 2053 C 179.717 4.0017 -3.03593 0
M  V30 2054 C 181.711 3.977 -4.9811 0
M  V30 2055 C 179.398 4.27935 -4.36251 0
M  V30 2056 C 180.396 4.26685 -5.33318 0
M  V30 2057 O 180.084 4.53767 -6.63589 0
M  V30 2058 H 179.816 0.60208 -0.307368 0
M  V30 2059 H 182.37 1.44128 -1.46343 0
M  V30 2060 H 180.6 3.82752 -0.551177 0
M  V30 2061 H 182.289 3.94552 -0.953083 0
M  V30 2062 H 183.055 3.46826 -3.39023 0
M  V30 2063 H 178.934 4.00289 -2.2867 0
M  V30 2064 H 182.478 3.9664 -5.73866 0
M  V30 2065 H 178.375 4.50178 -4.62613 0
M  V30 2066 H 179.143 4.71422 -6.69107 0
M  V30 2067 N 181.806 0.884767 1.30421 0
M  V30 2068 C 182.756 0.322846 2.25703 0
M  V30 2069 C 183.74 -0.548582 1.51259 0
M  V30 2070 O 184.932 -0.39304 1.72581 0
M  V30 2071 C 182.061 -0.461787 3.4018 0
M  V30 2072 C 181.147 0.423717 4.21978 0
M  V30 2073 N 181.538 1.52408 4.82292 0
M  V30 2074 C 179.836 0.218795 4.45463 0
M  V30 2075 C 180.537 2.07136 5.43571 0
M  V30 2076 N 179.513 1.36635 5.26148 0
M  V30 2077 H 183.315 1.16363 2.69883 0
M  V30 2078 H 180.829 0.73415 1.44859 0
M  V30 2079 H 182.826 -0.880985 4.07485 0
M  V30 2080 H 181.486 -1.30001 2.9754 0
M  V30 2081 H 182.497 1.90693 4.81515 0
M  V30 2082 H 179.174 -0.582275 4.1342 0
M  V30 2083 H 180.564 2.99538 6.01437 0
M  V30 2084 N 183.284 -1.43765 0.645699 0
M  V30 2085 C 184.695 -1.85193 0.236719 0
M  V30 2086 C 185.046 -1.54045 -1.21509 0
M  V30 2087 O 184.171 -0.985694 -1.92647 0
M  V30 2088 C 184.766 -3.36151 0.422845 0
M  V30 2089 C 183.325 -3.76338 0.0682492 0
M  V30 2090 C 182.472 -2.67538 0.729306 0
M  V30 2091 H 185.423 -1.34025 0.849883 0
M  V30 2092 H 185.444 -3.79032 -0.333904 0
M  V30 2093 H 184.956 -3.5879 1.47958 0
M  V30 2094 H 183.057 -3.59312 -0.986179 0
M  V30 2095 H 183.17 -4.76603 0.488469 0
M  V30 2096 H 181.534 -2.54176 0.163235 0
M  V30 2097 H 182.317 -2.93006 1.78892 0
M  V30 2098 N 184.763 -0.387143 -1.52771 0
M  V30 2099 C 186.04 0.253197 -1.93954 0
M  V30 2100 C 186.42 1.64545 -1.32243 0
M  V30 2101 O 185.768 2.23191 -0.489699 0
M  V30 2102 C 185.978 0.281722 -3.47861 0
M  V30 2103 C 187.326 0.511715 -4.21505 0
M  V30 2104 O 188.35 0.362023 -3.54356 0
M  V30 2105 O 187.209 0.804847 -5.40541 0
M  V30 2106 H 184.303 0.156845 -0.811991 0
M  V30 2107 H 186.849 -0.441494 -1.63856 0
M  V30 2108 H 185.621 -0.693571 -3.85104 0
M  V30 2109 H 185.244 1.02142 -3.84256 0
M  V30 2110 N 186.241 1.57166 -0.116904 0
M  V30 2111 C 187.188 2.15202 0.83408 0
M  V30 2112 C 188.158 1.07644 1.26499 0
M  V30 2113 O 189.343 1.35541 1.34288 0
M  V30 2114 C 186.483 2.75405 2.07957 0
M  V30 2115 C 185.596 3.97264 1.69721 0
M  V30 2116 C 184.731 4.45561 2.89221 0
M  V30 2117 C 183.77 5.59956 2.47215 0
M  V30 2118 N 182.907 6.03006 3.59622 0
M  V30 2119 H 187.747 2.96141 0.332335 0
M  V30 2120 H 185.284 1.46309 0.152349 0
M  V30 2121 H 187.242 3.08439 2.80929 0
M  V30 2122 H 185.872 1.97159 2.55594 0
M  V30 2123 H 184.924 3.70404 0.866316 0
M  V30 2124 H 186.236 4.80226 1.34849 0
M  V30 2125 H 185.39 4.80493 3.7042 0
M  V30 2126 H 184.129 3.61544 3.27318 0
M  V30 2127 H 183.134 5.2463 1.64448 0
M  V30 2128 H 184.359 6.45738 2.10238 0
M  V30 2129 H 182.305 5.21931 3.97396 0
M  V30 2130 H 182.222 6.80819 3.28667 0
M  V30 2131 H 183.49 6.42576 4.41267 0
M  V30 2132 N 187.719 -0.156864 1.56817 0
M  V30 2133 C 188.667 -1.21319 1.98455 0
M  V30 2134 C 189.661 -1.45025 0.875444 0
M  V30 2135 O 190.867 -1.45435 1.0606 0
M  V30 2136 H 187.242 -0.408142 0.631605 0
M  V30 2137 H 189.213 -0.835244 2.86472 0
M  V30 2138 C 187.962 -2.54148 2.37285 0
M  V30 2139 H 187.285 -2.36733 3.22176 0
M  V30 2140 H 188.725 -3.26712 2.70251 0
M  V30 2141 C 187.184 -3.13967 1.22173 0
M  V30 2142 O 187.714 -3.98357 0.517149 0
M  V30 2143 N 185.92 -2.7327 0.988536 0
M  V30 2144 H 185.467 -2.04744 1.56326 0
M  V30 2145 H 185.425 -3.13628 0.220209 0
M  V30 2146 N 189.197 -1.51736 -0.425897 0
M  V30 2147 C 190.16 -1.73271 -1.50032 0
M  V30 2148 C 191.16 -0.602639 -1.4908 0
M  V30 2149 O 192.35 -0.87033 -1.509 0
M  V30 2150 C 189.482 -1.79969 -2.89523 0
M  V30 2151 H 190.675 -2.69172 -1.32237 0
M  V30 2152 H 188.228 -1.41899 -0.65532 0
M  V30 2153 H 188.963 -0.859241 -3.1271 0
M  V30 2154 H 188.748 -2.62109 -2.91619 0
M  V30 2155 H 190.238 -1.9843 -3.67444 0
M  V30 2156 N 190.675 0.682077 -1.42076 0
M  V30 2157 C 191.607 1.80755 -1.40926 0
M  V30 2158 C 192.62 1.59833 -0.309398 0
M  V30 2159 O 193.809 1.69087 -0.572014 0
M  V30 2160 C 190.909 3.17744 -1.17865 0
M  V30 2161 C 190.082 3.65578 -2.40149 0
M  V30 2162 C 189.141 4.81277 -2.12742 0
M  V30 2163 O 188.167 4.92197 -2.85887 0
M  V30 2164 N 189.369 5.69474 -1.12602 0
M  V30 2165 H 192.134 1.82229 -2.37935 0
M  V30 2166 H 189.695 0.864903 -1.36861 0
M  V30 2167 H 191.687 3.9279 -0.9746 0
M  V30 2168 H 190.257 3.11214 -0.294068 0
M  V30 2169 H 189.477 2.81291 -2.76169 0
M  V30 2170 H 190.765 3.94278 -3.21593 0
M  V30 2171 H 190.163 5.63297 -0.520899 0
M  V30 2172 H 188.72 6.44363 -0.981842 0
M  V30 2173 N 192.153 1.28127 0.917671 0
M  V30 2174 C 193.101 1.11569 2.04096 0
M  V30 2175 C 194.095 0.0360242 1.69362 0
M  V30 2176 O 195.301 0.194501 1.78946 0
M  V30 2177 H 191.676 0.344097 0.668656 0
M  V30 2178 H 193.647 2.06711 2.15205 0
M  V30 2179 C 192.396 0.790197 3.38602 0
M  V30 2180 H 191.719 1.61293 3.6582 0
M  V30 2181 H 193.159 0.714271 4.1794 0
M  V30 2182 C 191.618 -0.505897 3.3308 0
M  V30 2183 O 192.148 -1.53736 3.71117 0
M  V30 2184 N 190.354 -0.505193 2.86175 0
M  V30 2185 H 189.901 0.334621 2.55417 0
M  V30 2186 H 189.859 -1.37243 2.82863 0
M  V30 2187 N 193.631 -1.12557 1.10312 0
M  V30 2188 C 194.877 -1.84311 0.846011 0
M  V30 2189 C 195.21 -1.83805 -0.626859 0
M  V30 2190 O 194.485 -1.28268 -1.46211 0
M  V30 2191 C 194.768 -3.32048 1.39341 0
M  V30 2192 C 194.621 -3.41016 2.93305 0
M  V30 2193 C 195.94 -4.27764 1.03468 0
M  V30 2194 H 193.059 -0.669192 0.30879 0
M  V30 2195 H 195.701 -1.32057 1.36605 0
M  V30 2196 H 193.851 -3.76678 0.951087 0
M  V30 2197 H 195.523 -3.05031 3.46055 0
M  V30 2198 H 193.766 -2.81603 3.29973 0
M  V30 2199 H 194.437 -4.44948 3.26689 0
M  V30 2200 H 196.913 -3.91253 1.41633 0
M  V30 2201 H 195.789 -5.29549 1.44463 0
M  V30 2202 H 196.05 -4.42064 -0.0560404 0
M  V30 2203 N 195.109 -0.891671 -1.2995 0
M  V30 2204 C 196.019 -0.367691 -2.31701 0
M  V30 2205 C 197.035 0.533486 -1.6562 0
M  V30 2206 O 198.211 0.424997 -1.96865 0
M  V30 2207 C 195.276 0.403406 -3.44345 0
M  V30 2208 C 194.337 -0.528328 -4.26037 0
M  V30 2209 C 193.57 0.206063 -5.33302 0
M  V30 2210 O 193.793 1.43119 -5.52153 0
M  V30 2211 O 192.727 -0.447281 -6.00236 0
M  V30 2212 H 196.553 -1.21163 -2.78484 0
M  V30 2213 H 194.138 -0.655725 -1.34241 0
M  V30 2214 H 196.02 0.839753 -4.12948 0
M  V30 2215 H 194.695 1.22354 -2.99685 0
M  V30 2216 H 193.602 -1.01362 -3.60106 0
M  V30 2217 H 194.935 -1.31465 -4.74318 0
M  V30 2218 N 196.587 1.43421 -0.653314 0
M  V30 2219 C 197.833 2.02111 -0.166992 0
M  V30 2220 C 198.166 1.51423 1.21592 0
M  V30 2221 O 197.441 0.707389 1.8118 0
M  V30 2222 C 197.724 3.5966 -0.177948 0
M  V30 2223 C 197.577 4.20579 -1.59478 0
M  V30 2224 C 198.896 4.37413 0.4856 0
M  V30 2225 H 196.015 0.734374 -0.0621557 0
M  V30 2226 H 198.657 1.70717 -0.834016 0
M  V30 2227 H 196.807 3.86537 0.390032 0
M  V30 2228 H 198.479 4.04732 -2.21336 0
M  V30 2229 H 196.722 3.77226 -2.14204 0
M  V30 2230 H 197.393 5.29665 -1.5543 0
M  V30 2231 H 199.869 4.161 0.00234528 0
M  V30 2232 H 198.745 5.47075 0.447207 0
M  V30 2233 H 199.006 4.13672 1.55974 0
M  V30 2234 N 198.065 0.39524 1.52563 0
M  V30 2235 C 199.342 -0.242908 1.94086 0
M  V30 2236 C 199.722 -1.63841 1.33114 0
M  V30 2237 O 199.07 -2.22928 0.501529 0
M  V30 2238 C 199.28 -0.26327 3.48006 0
M  V30 2239 C 200.628 -0.489354 4.21771 0
M  V30 2240 O 201.652 -0.343226 3.54543 0
M  V30 2241 O 200.511 -0.776169 5.4096 0
M  V30 2242 H 197.605 -0.152536 0.812811 0
M  V30 2243 H 200.151 0.450178 1.6362 0
M  V30 2244 H 198.923 0.713985 3.84731 0
M  V30 2245 H 198.546 -1.00103 3.84792 0
M  V30 2246 N 199.544 -1.57102 0.125237 0
M  V30 2247 C 200.454 -2.19191 -0.8362 0
M  V30 2248 C 201.47 -1.16985 -1.28805 0
M  V30 2249 O 202.646 -1.49479 -1.34974 0
M  V30 2250 C 199.711 -2.78407 -2.06617 0
M  V30 2251 C 198.772 -3.9567 -1.66565 0
M  V30 2252 C 198.005 -4.52052 -2.83698 0
M  V30 2253 O 198.228 -4.07326 -3.99302 0
M  V30 2254 O 197.162 -5.42645 -2.60423 0
M  V30 2255 H 200.988 -3.01816 -0.337776 0
M  V30 2256 H 198.573 -1.4906 -0.100695 0
M  V30 2257 H 200.455 -3.16129 -2.7864 0
M  V30 2258 H 199.13 -1.9881 -2.55453 0
M  V30 2259 H 198.037 -3.62705 -0.916296 0
M  V30 2260 H 199.37 -4.76722 -1.22464 0
M  V30 2261 N 201.022 0.148545 -1.56898 0
M  V30 2262 C 202.271 0.85984 -1.82454 0
M  V30 2263 C 202.584 1.82406 -0.706229 0
M  V30 2264 O 203.79 2.57938 -0.847349 0
M  V30 2265 C 202.246 1.57967 -3.2338 0
M  V30 2266 C 201.854 0.65794 -4.43142 0
M  V30 2267 C 203.598 2.27784 -3.58211 0
M  V30 2268 C 201.505 1.3793 -5.75091 0
M  V30 2269 H 200.435 0.324834 -0.68044 0
M  V30 2270 H 203.086 0.112588 -1.83154 0
M  V30 2271 H 201.468 2.37249 -3.17063 0
M  V30 2272 H 202.642 -0.0995497 -4.60692 0
M  V30 2273 H 200.957 0.0682643 -4.16344 0
M  V30 2274 H 203.554 2.8239 -4.54048 0
M  V30 2275 H 203.897 3.04204 -2.84193 0
M  V30 2276 H 204.43 1.55421 -3.66182 0
M  V30 2277 H 201.169 0.656982 -6.52199 0
M  V30 2278 H 200.689 2.10954 -5.61479 0
M  V30 2279 H 202.368 1.92063 -6.17835 0
M  V30 2280 N 202.5 1.5196 0.417844 0
M  V30 2281 C 203.448 1.75278 1.52907 0
M  V30 2282 C 204.442 0.619611 1.57662 0
M  V30 2283 O 205.648 0.801457 1.61173 0
M  V30 2284 H 202.023 0.554141 0.508362 0
M  V30 2285 H 203.994 2.68389 1.30422 0
M  V30 2286 C 202.743 1.91262 2.90369 0
M  V30 2287 H 202.066 2.77872 2.8745 0
M  V30 2288 H 203.506 2.11581 3.67436 0
M  V30 2289 C 201.965 0.677431 3.30019 0
M  V30 2290 O 202.495 -0.158799 4.01386 0
M  V30 2291 N 200.701 0.515851 2.85985 0
M  V30 2292 H 200.248 1.19744 2.28077 0
M  V30 2293 H 200.206 -0.309315 3.12875 0
M  V30 2294 N 203.978 -0.674533 1.42435 0
M  V30 2295 C 204.888 -1.81751 1.48337 0
M  V30 2296 C 205.904 -1.69975 0.372099 0
M  V30 2297 O 207.08 -1.91521 0.62304 0
M  V30 2298 C 204.145 -3.17895 1.38361 0
M  V30 2299 C 203.206 -3.41625 2.59982 0
M  V30 2300 C 202.439 -4.71274 2.50473 0
M  V30 2301 O 202.662 -5.49197 1.54075 0
M  V30 2302 O 201.596 -4.96254 3.4061 0
M  V30 2303 H 205.422 -1.79728 2.44809 0
M  V30 2304 H 203.007 -0.830312 1.24202 0
M  V30 2305 H 204.889 -3.99136 1.35161 0
M  V30 2306 H 203.564 -3.20555 0.450144 0
M  V30 2307 H 202.471 -2.60231 2.68757 0
M  V30 2308 H 203.804 -3.43796 3.52229 0
M  V30 2309 N 205.456 -1.28612 -0.910864 0
M  V30 2310 C 206.702 -1.16106 -1.66274 0
M  V30 2311 C 207.035 0.289113 -1.92036 0
M  V30 2312 O 206.31 1.21 -1.52281 0
M  V30 2313 C 206.593 -1.96309 -3.01885 0
M  V30 2314 C 206.446 -3.49405 -2.8326 0
M  V30 2315 C 207.765 -1.78076 -4.02463 0
M  V30 2316 H 204.884 -0.423152 -0.603417 0
M  V30 2317 H 207.526 -1.57961 -1.05586 0
M  V30 2318 H 205.676 -1.60742 -3.53687 0
M  V30 2319 H 207.348 -3.94894 -2.38446 0
M  V30 2320 H 205.591 -3.74893 -2.18261 0
M  V30 2321 H 206.262 -4.00784 -3.79574 0
M  V30 2322 H 208.738 -2.0912 -3.59733 0
M  V30 2323 H 207.614 -2.36561 -4.95308 0
M  V30 2324 H 207.875 -0.733008 -4.35981 0
M  V30 2325 N 206.934 1.1197 -1.10907 0
M  V30 2326 C 208.159 1.87942 -0.877064 0
M  V30 2327 C 208.584 1.79341 0.567314 0
M  V30 2328 O 207.942 1.15184 1.40009 0
M  V30 2329 C 207.99 3.34926 -1.33629 0
M  V30 2330 O 207.094 4.09303 -0.504447 0
M  V30 2331 H 206.435 0.583785 -0.316371 0
M  V30 2332 H 208.965 1.4157 -1.47712 0
M  V30 2333 H 208.975 3.8577 -1.32837 0
M  V30 2334 H 207.65 3.40504 -2.3881 0
M  V30 2335 H 206.227 3.68393 -0.577993 0
M  V30 2336 N 208.412 0.89855 1.29475 0
M  V30 2337 C 209.637 0.538561 2.00285 0
M  V30 2338 C 210.062 -0.869135 1.66816 0
M  V30 2339 O 209.42 -1.57831 0.892145 0
M  V30 2340 C 209.468 0.736475 3.52999 0
M  V30 2341 O 208.572 -0.211537 4.11857 0
M  V30 2342 H 207.913 0.210563 0.62973 0
M  V30 2343 H 210.443 1.20982 1.64998 0
M  V30 2344 H 210.453 0.640685 4.02938 0
M  V30 2345 H 209.128 1.76276 3.76696 0
M  V30 2346 H 207.705 -0.0682991 3.72837 0
M  V30 2347 N 209.89 -1.43072 0.660911 0
M  V30 2348 C 211.12 -2.05769 0.185153 0
M  V30 2349 C 211.528 -1.49668 -1.15742 0
M  V30 2350 O 210.871 -0.625649 -1.72717 0
M  V30 2351 C 210.933 -3.59489 0.0278237 0
M  V30 2352 C 210.597 -4.38212 1.2969 0
M  V30 2353 C 211.594 -4.69772 2.22734 0
M  V30 2354 C 209.279 -4.7809 1.54063 0
M  V30 2355 C 211.273 -5.40129 3.38437 0
M  V30 2356 C 208.96 -5.4819 2.70058 0
M  V30 2357 C 209.958 -5.79132 3.62071 0
M  V30 2358 O 209.646 -6.47798 4.76039 0
M  V30 2359 H 209.378 -0.669873 0.0908086 0
M  V30 2360 H 211.932 -1.84436 0.90402 0
M  V30 2361 H 210.162 -3.79426 -0.746489 0
M  V30 2362 H 211.851 -4.03862 -0.406275 0
M  V30 2363 H 212.617 -4.39476 2.05149 0
M  V30 2364 H 208.496 -4.53408 0.833215 0
M  V30 2365 H 212.04 -5.64198 4.10277 0
M  V30 2366 H 207.937 -5.77902 2.87574 0
M  V30 2367 H 208.705 -6.66283 4.75404 0
M  V30 2368 N 211.368 -0.403325 -1.52352 0
M  V30 2369 C 212.298 0.416205 -2.29761 0
M  V30 2370 C 213.279 1.05123 -1.33728 0
M  V30 2371 O 214.464 1.06134 -1.62632 0
M  V30 2372 C 211.594 1.53624 -3.11475 0
M  V30 2373 C 210.548 1.02653 -4.15507 0
M  V30 2374 C 209.874 2.23971 -4.85532 0
M  V30 2375 C 211.174 0.08463 -5.22231 0
M  V30 2376 H 212.868 -0.229701 -2.98518 0
M  V30 2377 H 210.414 -0.111913 -1.43564 0
M  V30 2378 H 212.367 2.1165 -3.64393 0
M  V30 2379 H 211.091 2.20994 -2.40477 0
M  V30 2380 H 209.75 0.46871 -3.63591 0
M  V30 2381 H 209.398 2.89883 -4.11068 0
M  V30 2382 H 209.098 1.90521 -5.55856 0
M  V30 2383 H 210.622 2.82614 -5.41259 0
M  V30 2384 H 212.036 0.573509 -5.70424 0
M  V30 2385 H 210.433 -0.160783 -5.99885 0
M  V30 2386 H 211.503 -0.86237 -4.7717 0
M  V30 2387 N 212.846 1.57033 -0.133567 0
M  V30 2388 C 213.794 2.17348 0.828412 0
M  V30 2389 C 214.788 1.12671 1.26498 0
M  V30 2390 O 215.994 1.30947 1.23502 0
M  V30 2391 H 212.369 0.695775 0.285309 0
M  V30 2392 H 214.34 2.96935 0.295372 0
M  V30 2393 C 213.089 2.79893 2.06289 0
M  V30 2394 H 212.412 3.60147 1.73592 0
M  V30 2395 H 213.852 3.25615 2.71572 0
M  V30 2396 C 212.311 1.77713 2.86216 0
M  V30 2397 O 212.841 1.23937 3.82103 0
M  V30 2398 N 211.047 1.47321 2.50489 0
M  V30 2399 H 210.594 1.91243 1.7258 0
M  V30 2400 H 210.552 0.79199 3.04261 0
M  V30 2401 N 214.325 -0.140222 1.56975 0
M  V30 2402 C 215.273 -1.19207 1.99731 0
M  V30 2403 C 216.267 -1.44089 0.890777 0
M  V30 2404 O 217.473 -1.44301 1.07597 0
M  V30 2405 H 213.848 -0.40142 0.635898 0
M  V30 2406 H 215.819 -0.804813 2.87342 0
M  V30 2407 C 214.568 -2.51617 2.39967 0
M  V30 2408 H 213.891 -2.33303 3.24669 0
M  V30 2409 H 215.331 -3.23827 2.73701 0
M  V30 2410 C 213.79 -3.12654 1.25496 0
M  V30 2411 O 214.32 -3.97786 0.559371 0
M  V30 2412 N 212.526 -2.72206 1.01746 0
M  V30 2413 H 212.073 -2.03074 1.58489 0
M  V30 2414 H 212.031 -3.13377 0.253461 0
M  V30 2415 N 215.803 -1.52179 -0.40978 0
M  V30 2416 C 216.766 -1.74853 -1.48186 0
M  V30 2417 C 217.766 -0.618417 -1.48433 0
M  V30 2418 O 218.956 -0.886286 -1.49969 0
M  V30 2419 C 216.088 -1.8303 -2.87598 0
M  V30 2420 H 217.281 -2.70559 -1.29374 0
M  V30 2421 H 214.834 -1.42586 -0.640233 0
M  V30 2422 H 215.569 -0.89236 -3.11781 0
M  V30 2423 H 215.354 -2.65187 -2.88822 0
M  V30 2424 H 216.844 -2.02316 -3.65319 0
M  V30 2425 N 217.281 0.66697 -1.42791 0
M  V30 2426 C 218.511 1.45294 -1.46878 0
M  V30 2427 C 218.919 1.89027 -0.0809861 0
M  V30 2428 O 218.262 1.59219 0.916246 0
M  V30 2429 C 218.324 2.72908 -2.34012 0
M  V30 2430 C 217.988 2.51203 -3.81767 0
M  V30 2431 C 218.985 2.15302 -4.73224 0
M  V30 2432 C 216.67 2.65954 -4.26115 0
M  V30 2433 C 218.664 1.94431 -6.07022 0
M  V30 2434 C 216.351 2.44699 -5.59969 0
M  V30 2435 C 217.349 2.08992 -6.5024 0
M  V30 2436 O 217.037 1.87948 -7.81621 0
M  V30 2437 H 216.769 0.453306 -0.501487 0
M  V30 2438 H 219.323 0.826232 -1.88049 0
M  V30 2439 H 217.553 3.38089 -1.87703 0
M  V30 2440 H 219.242 3.34816 -2.29462 0
M  V30 2441 H 220.008 2.03495 -4.40244 0
M  V30 2442 H 215.887 2.92724 -3.56137 0
M  V30 2443 H 219.431 1.66484 -6.77443 0
M  V30 2444 H 215.328 2.56105 -5.9252 0
M  V30 2445 H 216.096 2.02483 -7.93059 0
M  V30 2446 N 218.759 1.29093 0.90403 0
M  V30 2447 C 219.706 1.13853 2.00764 0
M  V30 2448 C 220.676 0.0330084 1.66067 0
M  V30 2449 O 221.861 0.199733 1.89752 0
M  V30 2450 C 219.001 0.816537 3.35301 0
M  V30 2451 C 218.114 2.00206 3.82807 0
M  V30 2452 C 217.249 1.61983 5.059 0
M  V30 2453 C 216.288 2.77143 5.45764 0
M  V30 2454 N 215.425 2.39346 6.60044 0
M  V30 2455 H 220.265 2.08276 2.13132 0
M  V30 2456 H 217.802 1.03648 1.04381 0
M  V30 2457 H 219.76 0.610557 4.12708 0
M  V30 2458 H 218.39 -0.090779 3.22672 0
M  V30 2459 H 217.442 2.31988 3.01473 0
M  V30 2460 H 218.754 2.86512 4.08304 0
M  V30 2461 H 217.908 1.37649 5.90879 0
M  V30 2462 H 216.647 0.728202 4.82233 0
M  V30 2463 H 215.652 3.02165 4.59322 0
M  V30 2464 H 216.877 3.66964 5.71414 0
M  V30 2465 H 214.823 1.52665 6.37989 0
M  V30 2466 H 214.74 3.19185 6.85315 0
M  V30 2467 H 216.008 2.1832 7.48303 0
M  V30 2468 N 220.237 -1.11381 1.11499 0
M  V30 2469 C 221.465 -1.86934 0.88675 0
M  V30 2470 C 221.88 -1.80195 -0.563476 0
M  V30 2471 O 221.237 -1.18367 -1.38908 0
M  V30 2472 C 221.288 -3.35722 1.34064 0
M  V30 2473 O 221.009 -3.4232 2.73401 0
M  V30 2474 C 222.51 -4.2818 1.14791 0
M  V30 2475 H 219.73 -0.591117 0.317523 0
M  V30 2476 H 222.274 -1.40865 1.48248 0
M  V30 2477 H 220.429 -3.79294 0.788355 0
M  V30 2478 H 220.843 -4.34971 2.93087 0
M  V30 2479 H 222.317 -5.30817 1.5145 0
M  V30 2480 H 222.794 -4.39113 0.0875279 0
M  V30 2481 H 223.4 -3.90402 1.68721 0
M  V30 2482 N 221.715 -0.905404 -1.28997 0
M  V30 2483 C 222.645 -0.404212 -2.29975 0
M  V30 2484 C 223.626 0.523784 -1.61835 0
M  V30 2485 O 224.811 0.433298 -1.89304 0
M  V30 2486 C 221.941 0.364042 -3.45387 0
M  V30 2487 C 220.895 -0.474048 -4.25367 0
M  V30 2488 C 220.221 0.422045 -5.33032 0
M  V30 2489 C 221.521 -1.72696 -4.92923 0
M  V30 2490 H 223.215 -1.24807 -2.72146 0
M  V30 2491 H 220.761 -0.601585 -1.30832 0
M  V30 2492 H 222.714 0.725447 -4.15109 0
M  V30 2493 H 221.438 1.24174 -3.02074 0
M  V30 2494 H 220.097 -0.81786 -3.57361 0
M  V30 2495 H 219.745 1.29804 -4.85963 0
M  V30 2496 H 219.445 -0.135057 -5.87445 0
M  V30 2497 H 220.969 0.779517 -6.05604 0
M  V30 2498 H 222.383 -1.43495 -5.55051 0
M  V30 2499 H 220.78 -2.22582 -5.57295 0
M  V30 2500 H 221.85 -2.45964 -4.17887 0
M  V30 2501 N 223.193 1.4272 -0.668489 0
M  V30 2502 C 224.418 2.06484 -0.194758 0
M  V30 2503 C 224.843 1.49862 1.13679 0
M  V30 2504 O 224.201 0.614582 1.70565 0
M  V30 2505 C 224.249 3.60353 -0.133546 0
M  V30 2506 O 223.353 4.02464 0.899806 0
M  V30 2507 H 222.694 0.656137 -0.10188 0
M  V30 2508 H 225.224 1.82964 -0.915722 0
M  V30 2509 H 225.234 4.07976 0.0447041 0
M  V30 2510 H 223.909 4.00938 -1.1055 0
M  V30 2511 H 222.486 3.66402 0.693109 0
M  V30 2512 N 224.671 0.411399 1.52136 0
M  V30 2513 C 225.619 -0.427633 2.28635 0
M  V30 2514 C 226.613 -1.04383 1.33419 0
M  V30 2515 O 227.819 -0.981772 1.50868 0
M  V30 2516 H 224.194 -0.156689 0.735495 0
M  V30 2517 H 226.165 0.238761 2.97443 0
M  V30 2518 C 224.914 -1.53082 3.12188 0
M  V30 2519 H 224.237 -1.06601 3.85326 0
M  V30 2520 H 225.677 -2.09167 3.68816 0
M  V30 2521 C 224.136 -2.49946 2.25895 0
M  V30 2522 O 224.666 -3.53884 1.90076 0
M  V30 2523 N 222.872 -2.2021 1.8962 0
M  V30 2524 H 222.419 -1.35719 2.18948 0
M  V30 2525 H 222.377 -2.85266 1.32176 0
M  V30 2526 N 226.149 -1.5696 0.141893 0
M  V30 2527 C 227.426 -1.87553 -0.555281 0
M  V30 2528 C 227.806 -1.04699 -1.83306 0
M  V30 2529 O 227.154 -0.132346 -2.28116 0
M  V30 2530 C 227.364 -3.39093 -0.825664 0
M  V30 2531 C 228.712 -4.08199 -1.16869 0
M  V30 2532 O 229.736 -3.44242 -0.915185 0
M  V30 2533 O 228.595 -5.21139 -1.6455 0
M  V30 2534 H 225.689 -0.777188 -0.282679 0
M  V30 2535 H 228.235 -1.68763 0.17812 0
M  V30 2536 H 227.007 -3.91221 0.0788633 0
M  V30 2537 H 226.63 -3.63393 -1.61343 0
M  V30 2538 N 227.627 0.131896 -1.57047 0
M  V30 2539 C 228.873 0.843179 -1.84441 0
M  V30 2540 C 229.206 1.80129 -0.725749 0
M  V30 2541 O 228.481 1.92624 0.269469 0
M  V30 2542 C 228.764 1.60442 -3.22382 0
M  V30 2543 C 228.617 0.666782 -4.4483 0
M  V30 2544 C 229.936 2.56354 -3.5773 0
M  V30 2545 H 227.055 0.305081 -0.670891 0
M  V30 2546 H 229.697 0.107839 -1.89694 0
M  V30 2547 H 227.847 2.23128 -3.18035 0
M  V30 2548 H 229.519 0.0497646 -4.61273 0
M  V30 2549 H 227.762 -0.022609 -4.33794 0
M  V30 2550 H 228.433 1.23579 -5.37989 0
M  V30 2551 H 230.909 2.0378 -3.62785 0
M  V30 2552 H 229.785 3.06657 -4.5525 0
M  V30 2553 H 230.046 3.38419 -2.84473 0
M  V30 2554 N 229.106 1.52395 0.401703 0
M  V30 2555 C 230.016 1.7917 1.51444 0
M  V30 2556 C 231.032 0.677691 1.6026 0
M  V30 2557 O 232.208 0.963909 1.76835 0
M  V30 2558 C 229.273 1.94347 2.87107 0
M  V30 2559 C 228.334 3.18257 2.88116 0
M  V30 2560 C 227.567 3.32701 4.17308 0
M  V30 2561 O 227.79 2.52238 5.11598 0
M  V30 2562 O 226.724 4.25891 4.25324 0
M  V30 2563 H 230.55 2.73633 1.31752 0
M  V30 2564 H 228.135 1.3733 0.588296 0
M  V30 2565 H 230.017 2.06109 3.67555 0
M  V30 2566 H 228.692 1.03073 3.06851 0
M  V30 2567 H 227.599 3.11947 2.06494 0
M  V30 2568 H 228.932 4.09336 2.73322 0
M  V30 2569 N 230.584 -0.659388 1.43143 0
M  V30 2570 C 232 -0.974337 1.26407 0
M  V30 2571 C 232.2 -2.007 0.179341 0
M  V30 2572 O 231.256 -2.4856 -0.444295 0
M  V30 2573 C 232.569 -1.46447 2.62628 0
M  V30 2574 C 234.117 -1.58144 2.7011 0
M  V30 2575 C 234.592 -2.1055 4.06734 0
M  V30 2576 N 236.083 -2.17861 4.08767 0
M  V30 2577 C 236.818 -2.59519 5.1131 0
M  V30 2578 N 236.314 -3.00518 6.24228 0
M  V30 2579 N 238.107 -2.59404 4.98664 0
M  V30 2580 H 230.258 0.0240528 2.12386 0
M  V30 2581 H 232.521 -0.0518065 0.946583 0
M  V30 2582 H 232.227 -0.780123 3.42939 0
M  V30 2583 H 232.101 -2.44058 2.87603 0
M  V30 2584 H 234.488 -2.25682 1.90136 0
M  V30 2585 H 234.569 -0.589828 2.48907 0
M  V30 2586 H 234.213 -1.43616 4.87172 0
M  V30 2587 H 234.143 -3.10531 4.25298 0
M  V30 2588 H 236.634 -1.88975 3.27257 0
M  V30 2589 H 236.947 -3.31036 6.98309 0
M  V30 2590 H 235.292 -2.98337 6.2771 0
M  V30 2591 H 238.483 -2.26747 4.09516 0
M  V30 2592 H 238.656 -2.91548 5.78709 0
M  V30 2593 N 232.062 -1.29571 -0.897171 0
M  V30 2594 C 233.025 -1.14913 -1.98312 0
M  V30 2595 C 234.025 -0.0838629 -1.60581 0
M  V30 2596 O 235.215 -0.331006 -1.71026 0
M  V30 2597 C 232.347 -0.757835 -3.3237 0
M  V30 2598 H 233.54 -2.11377 -2.12743 0
M  V30 2599 H 231.093 -1.12793 -1.08201 0
M  V30 2600 H 231.828 0.206837 -3.2364 0
M  V30 2601 H 231.613 -1.52755 -3.61121 0
M  V30 2602 H 233.103 -0.678408 -4.12053 0
M  V30 2603 N 233.54 1.10788 -1.12088 0
M  V30 2604 C 234.47 2.19083 -0.807755 0
M  V30 2605 C 235.451 1.6858 0.226859 0
M  V30 2606 O 236.636 1.93997 0.0888475 0
M  V30 2607 C 233.766 3.46344 -0.257576 0
M  V30 2608 C 232.72 4.101 -1.22483 0
M  V30 2609 C 232.046 5.32016 -0.535052 0
M  V30 2610 C 233.346 4.54236 -2.57811 0
M  V30 2611 H 235.04 2.45534 -1.71328 0
M  V30 2612 H 232.586 1.1801 -0.825205 0
M  V30 2613 H 234.539 4.21392 -0.0262679 0
M  V30 2614 H 233.263 3.19373 0.683278 0
M  V30 2615 H 231.922 3.37054 -1.44189 0
M  V30 2616 H 231.57 5.01319 0.410827 0
M  V30 2617 H 231.27 5.75625 -1.18024 0
M  V30 2618 H 232.794 6.09799 -0.312695 0
M  V30 2619 H 234.208 5.20575 -2.40155 0
M  V30 2620 H 232.605 5.08682 -3.18375 0
M  V30 2621 H 233.675 3.6734 -3.16528 0
M  V30 2622 N 235.018 0.912232 1.28515 0
M  V30 2623 C 236.248 0.559604 1.98877 0
M  V30 2624 C 236.656 -0.863113 1.68366 0
M  V30 2625 O 235.999 -1.58304 0.931969 0
M  V30 2626 C 236.061 0.68703 3.52874 0
M  V30 2627 C 235.725 2.07901 4.06972 0
M  V30 2628 C 236.722 3.05157 4.20922 0
M  V30 2629 C 234.407 2.39178 4.417 0
M  V30 2630 C 236.401 4.31806 4.68852 0
M  V30 2631 C 234.088 3.66068 4.89324 0
M  V30 2632 C 235.086 4.62195 5.02856 0
M  V30 2633 O 234.774 5.86829 5.49442 0
M  V30 2634 H 234.506 0.212191 0.641834 0
M  V30 2635 H 237.06 1.22712 1.64715 0
M  V30 2636 H 235.29 -0.0375486 3.86682 0
M  V30 2637 H 236.979 0.341727 4.04459 0
M  V30 2638 H 237.745 2.82311 3.94367 0
M  V30 2639 H 233.624 1.65109 4.30418 0
M  V30 2640 H 237.168 5.06842 4.79329 0
M  V30 2641 H 233.065 3.88739 5.15318 0
M  V30 2642 H 233.833 5.89597 5.6773 0
M  V30 2643 N 236.496 -1.42363 0.676048 0
M  V30 2644 C 237.426 -2.33497 0.0124832 0
M  V30 2645 C 238.407 -1.50748 -0.787981 0
M  V30 2646 O 239.592 -1.79346 -0.744884 0
M  V30 2647 C 236.722 -3.34377 -0.938582 0
M  V30 2648 C 235.676 -4.27289 -0.246622 0
M  V30 2649 C 235.002 -5.18386 -1.31071 0
M  V30 2650 C 236.302 -5.14916 0.875125 0
M  V30 2651 H 237.996 -2.89233 0.773593 0
M  V30 2652 H 235.542 -1.39073 0.37346 0
M  V30 2653 H 237.495 -3.97044 -1.41188 0
M  V30 2654 H 236.219 -2.76947 -1.73113 0
M  V30 2655 H 234.878 -3.66018 0.206456 0
M  V30 2656 H 234.526 -4.57282 -2.09528 0
M  V30 2657 H 234.226 -5.81378 -0.852839 0
M  V30 2658 H 235.75 -5.83929 -1.78492 0
M  V30 2659 H 237.164 -5.71262 0.482983 0
M  V30 2660 H 235.561 -5.86747 1.25887 0
M  V30 2661 H 236.631 -4.53242 1.72335 0
M  V30 2662 N 237.974 -0.419461 -1.51915 0
M  V30 2663 C 238.904 0.391813 -2.30189 0
M  V30 2664 C 239.885 1.03699 -1.34836 0
M  V30 2665 O 241.07 1.04403 -1.63748 0
M  V30 2666 C 238.2 1.50312 -3.13087 0
M  V30 2667 C 237.154 0.9824 -4.16573 0
M  V30 2668 C 236.48 2.18809 -4.8788 0
M  V30 2669 C 237.78 0.0292356 -5.22292 0
M  V30 2670 H 239.474 -0.26135 -2.98257 0
M  V30 2671 H 237.02 -0.127134 -1.43438 0
M  V30 2672 H 238.973 2.07773 -3.66617 0
M  V30 2673 H 237.697 2.18431 -2.42807 0
M  V30 2674 H 236.356 0.430119 -3.64068 0
M  V30 2675 H 236.004 2.85507 -4.14119 0
M  V30 2676 H 235.704 1.84615 -5.57845 0
M  V30 2677 H 237.228 2.76858 -5.44226 0
M  V30 2678 H 238.642 0.512976 -5.71 0
M  V30 2679 H 237.039 -0.2244 -5.9968 0
M  V30 2680 H 238.109 -0.912931 -4.76228 0
M  V30 2681 N 239.452 1.56882 -0.150215 0
M  V30 2682 C 240.399 2.16922 0.788244 0
M  V30 2683 C 241.369 1.10303 1.24187 0
M  V30 2684 O 242.554 1.38359 1.31383 0
M  V30 2685 C 239.694 2.79754 2.02068 0
M  V30 2686 C 238.807 4.00775 1.61257 0
M  V30 2687 C 237.942 4.51595 2.79705 0
M  V30 2688 C 236.981 5.65074 2.35282 0
M  V30 2689 N 236.118 6.10499 3.4675 0
M  V30 2690 H 240.958 2.96779 0.269444 0
M  V30 2691 H 238.495 1.46599 0.12128 0
M  V30 2692 H 240.453 3.14329 2.74323 0
M  V30 2693 H 239.083 2.02536 2.51354 0
M  V30 2694 H 238.135 3.72158 0.787553 0
M  V30 2695 H 239.447 4.82978 1.24633 0
M  V30 2696 H 238.601 4.88242 3.60145 0
M  V30 2697 H 237.34 3.68406 3.19576 0
M  V30 2698 H 236.345 5.28 1.53283 0
M  V30 2699 H 237.57 6.50052 1.96493 0
M  V30 2700 H 235.516 5.30243 3.86236 0
M  V30 2701 H 235.433 6.87637 3.14152 0
M  V30 2702 H 236.701 6.51791 4.27537 0
M  V30 2703 N 240.93 -0.123565 1.57115 0
M  V30 2704 C 241.863 -1.18202 1.95201 0
M  V30 2705 C 242.841 -1.40349 0.821031 0
M  V30 2706 O 244.025 -1.54578 1.07879 0
M  V30 2707 C 241.152 -2.53671 2.24429 0
M  V30 2708 C 240.198 -2.4798 3.46999 0
M  V30 2709 S 241.031 -1.92389 4.99747 0
M  V30 2710 C 242.187 -3.2954 5.32123 0
M  V30 2711 H 242.42 -0.857212 2.84674 0
M  V30 2712 H 239.953 -0.33014 1.50829 0
M  V30 2713 H 241.911 -3.3162 2.41947 0
M  V30 2714 H 240.572 -2.83332 1.35579 0
M  V30 2715 H 239.765 -3.47758 3.64801 0
M  V30 2716 H 239.367 -1.7815 3.28844 0
M  V30 2717 H 241.659 -4.25736 5.27025 0
M  V30 2718 H 242.602 -3.16569 6.33395 0
M  V30 2719 H 243.01 -3.27758 4.59603 0
M  V30 2720 N 242.408 -1.52605 -0.393616 0
M  V30 2721 C 243.318 -1.79971 -1.50492 0
M  V30 2722 C 244.334 -0.686181 -1.59899 0
M  V30 2723 O 245.51 -0.973274 -1.76322 0
M  V30 2724 C 242.575 -1.95867 -2.86072 0
M  V30 2725 C 241.636 -3.19781 -2.86424 0
M  V30 2726 C 240.869 -3.34909 -4.15538 0
M  V30 2727 O 241.092 -2.54948 -5.10253 0
M  V30 2728 O 240.026 -4.28141 -4.23059 0
M  V30 2729 H 243.852 -2.74328 -1.30299 0
M  V30 2730 H 241.437 -1.3764 -0.581005 0
M  V30 2731 H 243.319 -2.08056 -3.66457 0
M  V30 2732 H 241.994 -1.04699 -3.063 0
M  V30 2733 H 240.901 -3.13038 -2.04837 0
M  V30 2734 H 242.234 -4.1078 -2.71147 0
M  V30 2735 N 243.887 0.651787 -1.4349 0
M  V30 2736 C 245.117 1.43728 -1.48411 0
M  V30 2737 C 245.525 1.8893 -0.10103 0
M  V30 2738 O 244.868 1.60182 0.899307 0
M  V30 2739 C 244.93 2.70411 -2.36893 0
M  V30 2740 C 244.594 2.4714 -3.8441 0
M  V30 2741 C 245.591 2.10271 -4.75481 0
M  V30 2742 C 243.276 2.6142 -4.28912 0
M  V30 2743 C 245.27 1.87982 -6.0905 0
M  V30 2744 C 242.957 2.38746 -5.62533 0
M  V30 2745 C 243.955 2.02083 -6.5242 0
M  V30 2746 O 243.643 1.79647 -7.8357 0
M  V30 2747 H 243.375 0.447962 -0.506267 0
M  V30 2748 H 245.929 0.80624 -1.88915 0
M  V30 2749 H 244.159 3.36079 -1.91278 0
M  V30 2750 H 245.848 3.32364 -2.33 0
M  V30 2751 H 246.614 1.98814 -4.42378 0
M  V30 2752 H 242.493 2.88931 -3.59222 0
M  V30 2753 H 246.037 1.5929 -6.7917 0
M  V30 2754 H 241.934 2.49806 -5.95203 0
M  V30 2755 H 242.702 1.9406 -7.95162 0
M  V30 2756 N 245.365 1.30045 0.890287 0
M  V30 2757 C 246.313 1.15873 2.01683 0
M  V30 2758 C 247.307 0.0719403 1.69247 0
M  V30 2759 O 248.513 0.232414 1.78493 0
M  V30 2760 H 244.888 0.358203 0.661207 0
M  V30 2761 H 246.859 2.11229 2.10772 0
M  V30 2762 C 245.608 0.861842 3.36849 0
M  V30 2763 H 244.931 1.69016 3.62317 0
M  V30 2764 H 246.371 0.802762 4.16331 0
M  V30 2765 C 244.83 -0.435132 3.34078 0
M  V30 2766 O 245.36 -1.4583 3.74295 0
M  V30 2767 N 243.566 -0.444377 2.87182 0
M  V30 2768 H 243.113 0.388723 2.5465 0
M  V30 2769 H 243.071 -1.31213 2.85711 0
M  V30 2770 N 246.843 -1.10192 1.12674 0
M  V30 2771 C 248.073 -1.85713 0.905213 0
M  V30 2772 C 248.481 -1.81056 -0.549108 0
M  V30 2773 O 247.824 -1.19927 -1.39151 0
M  V30 2774 C 247.886 -3.34972 1.30516 0
M  V30 2775 C 247.55 -3.63385 2.77129 0
M  V30 2776 C 248.547 -3.59772 3.75313 0
M  V30 2777 C 246.232 -3.91981 3.14096 0
M  V30 2778 C 248.226 -3.84354 5.08479 0
M  V30 2779 C 245.913 -4.16218 4.47443 0
M  V30 2780 C 246.911 -4.12395 5.44444 0
M  V30 2781 O 246.599 -4.36014 6.75387 0
M  V30 2782 H 246.331 -0.593719 0.323223 0
M  V30 2783 H 248.885 -1.40198 1.50112 0
M  V30 2784 H 247.115 -3.81156 0.652463 0
M  V30 2785 H 248.804 -3.91886 1.05736 0
M  V30 2786 H 249.57 -3.37716 3.48099 0
M  V30 2787 H 245.449 -3.94085 2.39202 0
M  V30 2788 H 248.993 -3.81285 5.84181 0
M  V30 2789 H 244.89 -4.37754 4.74386 0
M  V30 2790 H 245.658 -4.53516 6.8137 0
M  V30 2791 N 248.321 -0.919034 -1.28029 0
M  V30 2792 C 249.254 -0.355887 -2.25408 0
M  V30 2793 C 250.232 0.542874 -1.5327 0
M  V30 2794 O 251.416 0.485338 -1.82145 0
M  V30 2795 C 248.543 0.490759 -3.35126 0
M  V30 2796 C 247.589 -0.343358 -4.25116 0
M  V30 2797 S 248.422 -1.75344 -5.05979 0
M  V30 2798 C 249.578 -0.914244 -6.19187 0
M  V30 2799 H 249.811 -1.18123 -2.72826 0
M  V30 2800 H 247.344 -0.720636 -1.36551 0
M  V30 2801 H 249.302 0.973404 -3.98792 0
M  V30 2802 H 247.963 1.29054 -2.86363 0
M  V30 2803 H 247.156 0.304266 -5.03081 0
M  V30 2804 H 246.758 -0.759851 -3.662 0
M  V30 2805 H 249.05 -0.146282 -6.77342 0
M  V30 2806 H 249.993 -1.66661 -6.88208 0
M  V30 2807 H 250.401 -0.460082 -5.62622 0
M  V30 2808 N 249.799 1.42003 -0.683588 0
M  V30 2809 C 251.048 2.00638 -0.206681 0
M  V30 2810 C 251.361 1.5472 1.19671 0
M  V30 2811 O 252.567 2.05833 1.77045 0
M  V30 2812 C 251.023 3.58487 -0.318632 0
M  V30 2813 C 250.631 4.1339 -1.72663 0
M  V30 2814 C 252.375 4.24384 0.0991141 0
M  V30 2815 C 250.282 5.63633 -1.79087 0
M  V30 2816 H 249.212 0.750408 -0.0735107 0
M  V30 2817 H 251.863 1.62624 -0.850048 0
M  V30 2818 H 250.245 3.94047 0.392781 0
M  V30 2819 H 251.419 3.89273 -2.46583 0
M  V30 2820 H 249.734 3.59976 -2.09299 0
M  V30 2821 H 252.331 5.34652 0.0713833 0
M  V30 2822 H 252.674 4.00505 1.13586 0
M  V30 2823 H 253.207 3.93816 -0.561599 0
M  V30 2824 H 249.946 5.92323 -2.80774 0
M  V30 2825 H 249.466 5.89714 -1.09535 0
M  V30 2826 H 251.145 6.28201 -1.5483 0
M  V30 2827 N 251.277 0.427512 1.51691 0
M  V30 2828 C 252.502 -0.143601 2.06902 0
M  V30 2829 C 252.927 -1.36536 1.29382 0
M  V30 2830 O 252.285 -1.78289 0.329043 0
M  V30 2831 C 252.333 -0.454207 3.57728 0
M  V30 2832 O 251.437 -1.54228 3.82475 0
M  V30 2833 H 250.778 -0.00617128 0.663971 0
M  V30 2834 H 253.308 0.606014 1.95419 0
M  V30 2835 H 253.318 -0.707525 4.01818 0
M  V30 2836 H 251.993 0.438812 4.13579 0
M  V30 2837 H 250.57 -1.2797 3.50254 0
M  V30 2838 N 252.755 -1.56801 0.158532 0
M  V30 2839 C 253.665 -2.20916 -0.789518 0
M  V30 2840 C 254.681 -1.1969 -1.26294 0
M  V30 2841 O 255.857 -1.52308 -1.31773 0
M  V30 2842 C 252.922 -2.82727 -2.00665 0
M  V30 2843 C 251.983 -3.99114 -1.58134 0
M  V30 2844 C 251.216 -4.57968 -2.74045 0
M  V30 2845 O 251.439 -4.15704 -3.90572 0
M  V30 2846 O 250.373 -5.48047 -2.48855 0
M  V30 2847 H 254.199 -3.02464 -0.273681 0
M  V30 2848 H 251.784 -1.4924 -0.0690548 0
M  V30 2849 H 253.666 -3.21968 -2.71872 0
M  V30 2850 H 252.341 -2.04184 -2.51179 0
M  V30 2851 H 251.248 -3.64567 -0.839155 0
M  V30 2852 H 252.581 -4.79212 -1.12325 0
M  V30 2853 N 254.233 0.115231 -1.57178 0
M  V30 2854 C 255.51 0.852873 -1.76027 0
M  V30 2855 C 255.89 1.97892 -0.73498 0
M  V30 2856 O 255.238 2.27232 0.24036 0
M  V30 2857 C 255.448 1.36608 -3.21153 0
M  V30 2858 C 256.796 1.81692 -3.83762 0
M  V30 2859 O 257.82 1.46278 -3.24779 0
M  V30 2860 O 256.679 2.47104 -4.87444 0
M  V30 2861 H 253.773 0.405296 -0.720877 0
M  V30 2862 H 256.319 0.0986785 -1.69413 0
M  V30 2863 H 255.091 0.558357 -3.87296 0
M  V30 2864 H 254.714 2.18287 -3.3232 0
M  V30 2865 N 255.711 1.52812 0.385517 0
M  V30 2866 C 256.621 1.80766 1.49535 0
M  V30 2867 C 257.637 0.694651 1.59532 0
M  V30 2868 O 258.813 0.982611 1.75803 0
M  V30 2869 C 255.878 1.97381 2.85029 0
M  V30 2870 C 254.939 3.21295 2.84724 0
M  V30 2871 C 254.172 3.37108 4.13756 0
M  V30 2872 O 254.395 2.5765 5.08893 0
M  V30 2873 O 253.329 4.30378 4.20783 0
M  V30 2874 H 257.155 2.75015 1.28842 0
M  V30 2875 H 254.74 1.37946 0.573697 0
M  V30 2876 H 256.622 2.09996 3.65349 0
M  V30 2877 H 255.297 1.06322 3.05741 0
M  V30 2878 H 254.204 3.1412 2.03174 0
M  V30 2879 H 255.537 4.12212 2.68965 0
M  V30 2880 N 257.189 -0.644168 1.43834 0
M  V30 2881 C 258.429 -1.41565 1.47441 0
M  V30 2882 C 258.793 -1.91743 0.0992723 0
M  V30 2883 O 259.994 -2.68798 0.0100192 0
M  V30 2884 C 258.265 -2.55902 2.49498 0
M  V30 2885 S 259.824 -3.44287 2.72051 0
M  V30 2886 H 256.642 -0.483118 0.521649 0
M  V30 2887 H 259.244 -0.747008 1.80666 0
M  V30 2888 H 257.948 -2.17327 3.48134 0
M  V30 2889 H 257.479 -3.27607 2.17801 0
M  V30 2890 H 259.494 -4.52927 2.0266 0
M  V30 2891 N 258.668 -1.30515 -0.883378 0
M  V30 2892 C 259.601 -1.11359 -1.99184 0
M  V30 2893 C 260.579 -0.0207858 -1.62587 0
M  V30 2894 O 261.763 -0.174646 -1.87689 0
M  V30 2895 C 258.89 -0.69871 -3.31415 0
M  V30 2896 C 257.936 -1.79261 -3.86998 0
M  V30 2897 S 258.769 -3.39536 -4.14096 0
M  V30 2898 C 259.925 -2.99954 -5.49344 0
M  V30 2899 H 260.158 -2.052 -2.15128 0
M  V30 2900 H 257.691 -1.14847 -1.03196 0
M  V30 2901 H 259.649 -0.466075 -4.07846 0
M  V30 2902 H 258.31 0.220368 -3.13326 0
M  V30 2903 H 257.503 -1.45464 -4.82552 0
M  V30 2904 H 257.105 -1.97961 -3.17313 0
M  V30 2905 H 259.397 -2.48013 -6.30473 0
M  V30 2906 H 260.34 -3.9442 -5.8808 0
M  V30 2907 H 260.748 -2.37775 -5.1198 0
M  V30 2908 N 260.146 1.09593 -1.13257 0
M  V30 2909 C 261.423 1.78293 -0.804432 0
M  V30 2910 C 261.803 1.99004 0.70431 0
M  V30 2911 O 261.151 1.59007 1.641 0
M  V30 2912 C 261.361 3.10707 -1.5894 0
M  V30 2913 C 262.709 3.85443 -1.78099 0
M  V30 2914 O 263.733 3.20454 -1.55525 0
M  V30 2915 O 262.592 5.02108 -2.15753 0
M  V30 2916 H 259.686 0.773156 -0.293528 0
M  V30 2917 H 262.232 1.16164 -1.23709 0
M  V30 2918 H 261.004 2.91106 -2.61482 0
M  V30 2919 H 260.627 3.80558 -1.15157 0
M  V30 2920 N 261.624 0.925811 1.2754 0
M  V30 2921 C 262.901 0.483726 1.89524 0
M  V30 2922 C 263.281 -1.03809 1.83812 0
M  V30 2923 O 262.629 -1.89143 1.28207 0
M  V30 2924 C 262.839 1.02769 3.33526 0
M  V30 2925 C 264.187 1.08703 4.10449 0
M  V30 2926 O 265.211 0.977175 3.42534 0
M  V30 2927 O 264.07 1.25599 5.31871 0
M  V30 2928 H 261.164 0.15529 0.812289 0
M  V30 2929 H 263.71 1.01738 1.35822 0
M  V30 2930 H 262.482 2.07155 3.31967 0
M  V30 2931 H 262.105 0.475567 3.94746 0
M  V30 2932 N 263.102 -1.41638 0.69111 0
M  V30 2933 C 264.379 -1.95036 0.148421 0
M  V30 2934 C 264.759 -1.63072 -1.34055 0
M  V30 2935 O 264.107 -0.93538 -2.08478 0
M  V30 2936 C 264.317 -3.46279 0.434951 0
M  V30 2937 C 265.665 -4.23069 0.360275 0
M  V30 2938 O 266.689 -3.54277 0.369613 0
M  V30 2939 O 265.548 -5.45583 0.316534 0
M  V30 2940 H 262.642 -0.826908 0.0123654 0
M  V30 2941 H 265.188 -1.5138 0.766963 0
M  V30 2942 H 263.96 -3.6281 1.46576 0
M  V30 2943 H 263.583 -3.97019 -0.214787 0
M  V30 2944 N 264.58 -0.43555 -1.51462 0
M  V30 2945 C 265.49 0.383001 -2.31453 0
M  V30 2946 C 266.506 1.02931 -1.4029 0
M  V30 2947 O 267.682 1.02507 -1.73362 0
M  V30 2948 C 264.747 1.47043 -3.13973 0
M  V30 2949 C 263.808 0.844433 -4.20913 0
M  V30 2950 C 263.041 1.88004 -4.9949 0
M  V30 2951 O 263.264 3.10199 -4.78678 0
M  V30 2952 O 262.198 1.47157 -5.83634 0
M  V30 2953 H 266.024 -0.269964 -3.02498 0
M  V30 2954 H 263.609 -0.19813 -1.4808 0
M  V30 2955 H 265.491 2.10113 -3.65281 0
M  V30 2956 H 264.166 2.10751 -2.45695 0
M  V30 2957 H 263.073 0.175729 -3.73687 0
M  V30 2958 H 264.406 0.250869 -4.9156 0
M  V30 2959 N 266.058 1.56714 -0.166846 0
M  V30 2960 C 267.305 1.96747 0.479252 0
M  V30 2961 C 267.633 1.05263 1.63554 0
M  V30 2962 O 266.888 0.0858098 1.95512 0
M  V30 2963 C 267.187 3.42889 1.00806 0
M  V30 2964 C 266.853 4.50889 -0.0318574 0
M  V30 2965 C 265.515 4.8015 -0.317675 0
M  V30 2966 C 267.867 5.15949 -0.737956 0
M  V30 2967 C 265.195 5.71772 -1.31506 0
M  V30 2968 C 267.547 6.08647 -1.72429 0
M  V30 2969 C 266.211 6.36277 -2.0176 0
M  V30 2970 H 265.481 0.719949 0.175371 0
M  V30 2971 H 268.128 1.89756 -0.257864 0
M  V30 2972 H 266.433 3.4681 1.82291 0
M  V30 2973 H 268.13 3.71203 1.51689 0
M  V30 2974 H 264.72 4.28128 0.201088 0
M  V30 2975 H 268.904 4.93458 -0.530351 0
M  V30 2976 H 264.16 5.91465 -1.54853 0
M  V30 2977 H 268.334 6.58129 -2.27682 0
M  V30 2978 H 265.961 7.07075 -2.79194 0
M  V30 2979 N 267.536 -0.106894 1.57237 0
M  V30 2980 C 268.466 -1.13148 2.04254 0
M  V30 2981 C 269.447 -1.42476 0.929224 0
M  V30 2982 O 270.632 -1.52709 1.19973 0
M  V30 2983 C 267.762 -2.4545 2.45706 0
M  V30 2984 C 266.716 -2.30558 3.60592 0
M  V30 2985 C 266.042 -3.67931 3.87983 0
M  V30 2986 C 267.342 -1.75597 4.91897 0
M  V30 2987 H 269.036 -0.740374 2.90101 0
M  V30 2988 H 266.582 -0.354696 1.39563 0
M  V30 2989 H 268.535 -3.17389 2.77205 0
M  V30 2990 H 267.259 -2.86475 1.56843 0
M  V30 2991 H 265.918 -1.61067 3.29322 0
M  V30 2992 H 265.566 -4.06462 2.96306 0
M  V30 2993 H 265.266 -3.58817 4.65322 0
M  V30 2994 H 266.79 -4.41356 4.21945 0
M  V30 2995 H 268.204 -2.37364 5.21854 0
M  V30 2996 H 266.601 -1.77272 5.73319 0
M  V30 2997 H 267.671 -0.714451 4.79608 0
M  V30 2998 N 269.014 -1.53014 -0.377408 0
M  V30 2999 C 270.239 -1.72818 -1.14668 0
M  V30 3000 C 270.664 -0.450725 -1.8262 0
M  V30 3001 O 270.022 0.59439 -1.7128 0
M  V30 3002 C 270.07 -2.88627 -2.16164 0
M  V30 3003 O 269.174 -2.56409 -3.22998 0
M  V30 3004 H 268.515 -0.574301 -0.333278 0
M  V30 3005 H 271.045 -1.99853 -0.438152 0
M  V30 3006 H 271.055 -3.14455 -2.59966 0
M  V30 3007 H 269.73 -3.81294 -1.66095 0
M  V30 3008 H 268.307 -2.4136 -2.84253 0
M  V30 3009 N 270.492 0.636531 -1.44174 0
M  V30 3010 C 271.402 1.77754 -1.53103 0
M  V30 3011 C 272.418 1.68928 -0.417034 0
M  V30 3012 O 273.594 1.89801 -0.6736 0
M  V30 3013 C 270.659 3.14115 -1.46741 0
M  V30 3014 C 269.72 3.34612 -2.68948 0
M  V30 3015 C 268.953 4.64467 -2.6288 0
M  V30 3016 O 269.176 5.44919 -1.68581 0
M  V30 3017 O 268.11 4.87049 -3.53648 0
M  V30 3018 H 271.936 1.73174 -2.49489 0
M  V30 3019 H 269.521 0.79709 -1.2636 0
M  V30 3020 H 271.403 3.95412 -1.45696 0
M  V30 3021 H 270.078 3.19249 -0.534975 0
M  V30 3022 H 268.985 2.53014 -2.75562 0
M  V30 3023 H 270.318 3.34336 -3.61221 0
M  V30 3024 N 271.97 1.30982 0.876444 0
M  V30 3025 C 273.219 1.19658 1.62373 0
M  V30 3026 C 273.532 -0.245636 1.94052 0
M  V30 3027 O 274.738 -0.48049 2.67214 0
M  V30 3028 C 273.194 2.09433 2.92687 0
M  V30 3029 C 272.802 3.58613 2.68516 0
M  V30 3030 C 274.546 2.06893 3.70669 0
M  V30 3031 C 272.453 4.40416 3.94699 0
M  V30 3032 H 271.383 0.444268 0.609214 0
M  V30 3033 H 274.034 1.55791 0.969605 0
M  V30 3034 H 272.416 1.66191 3.59439 0
M  V30 3035 H 273.59 4.10058 2.10212 0
M  V30 3036 H 271.905 3.63063 2.03898 0
M  V30 3037 H 274.502 2.65258 4.64265 0
M  V30 3038 H 274.845 1.05448 4.02724 0
M  V30 3039 H 275.378 2.48301 3.10792 0
M  V30 3040 H 272.117 5.42591 3.67798 0
M  V30 3041 H 271.637 3.93731 4.52477 0
M  V30 3042 H 273.316 4.52294 4.62644 0
M  V30 3043 N 273.449 -1.08991 1.13837 0
M  V30 3044 C 274.698 -1.80631 0.897509 0
M  V30 3045 C 275.011 -1.86872 -0.57777 0
M  V30 3046 O 276.217 -2.54866 -0.935701 0
M  V30 3047 C 274.673 -3.24517 1.55618 0
M  V30 3048 C 274.281 -3.26529 3.0673 0
M  V30 3049 C 276.025 -4.00882 1.3962 0
M  V30 3050 C 273.932 -4.64965 3.65461 0
M  V30 3051 H 272.862 -0.67691 0.332129 0
M  V30 3052 H 275.513 -1.2246 1.3666 0
M  V30 3053 H 273.895 -3.82778 1.01476 0
M  V30 3054 H 275.069 -2.78008 3.67489 0
M  V30 3055 H 273.384 -2.63656 3.22296 0
M  V30 3056 H 275.981 -5.03167 1.80906 0
M  V30 3057 H 276.324 -4.14896 0.341578 0
M  V30 3058 H 276.857 -3.49075 1.90766 0
M  V30 3059 H 273.596 -4.56153 4.70749 0
M  V30 3060 H 273.116 -5.13792 3.09481 0
M  V30 3061 H 274.795 -5.3394 3.654 0
M  V30 3062 N 274.927 -0.932562 -1.27047 0
M  V30 3063 C 275.874 -0.434072 -2.26681 0
M  V30 3064 C 276.844 0.501639 -1.58344 0
M  V30 3065 O 278.029 0.419734 -1.86126 0
M  V30 3066 C 275.169 0.30261 -3.43771 0
M  V30 3067 C 274.282 -0.667774 -4.26808 0
M  V30 3068 C 273.417 0.0892393 -5.31125 0
M  V30 3069 C 272.456 -0.873532 -6.05835 0
M  V30 3070 N 271.593 -0.148832 -7.01942 0
M  V30 3071 H 276.433 -1.28868 -2.68695 0
M  V30 3072 H 273.97 -0.646713 -1.32121 0
M  V30 3073 H 275.928 0.746092 -4.10474 0
M  V30 3074 H 274.558 1.12142 -3.02695 0
M  V30 3075 H 273.61 -1.22978 -3.59973 0
M  V30 3076 H 274.922 -1.40337 -4.78651 0
M  V30 3077 H 274.076 0.592409 -6.03801 0
M  V30 3078 H 272.815 0.85777 -4.80097 0
M  V30 3079 H 271.82 -1.38791 -5.31994 0
M  V30 3080 H 273.045 -1.64193 -6.58952 0
M  V30 3081 H 270.991 0.601365 -6.53238 0
M  V30 3082 H 270.908 -0.82391 -7.51497 0
M  V30 3083 H 272.176 0.333527 -7.78786 0
M  V30 3084 N 276.405 1.4127 -0.698611 0
M  V30 3085 C 277.654 2.00408 -0.227949 0
M  V30 3086 C 277.967 1.55981 1.18023 0
M  V30 3087 O 279.173 2.07699 1.74852 0
M  V30 3088 C 277.629 3.58129 -0.356636 0
M  V30 3089 C 277.237 4.11536 -1.77037 0
M  V30 3090 C 278.981 4.24466 0.0540969 0
M  V30 3091 C 276.888 5.61701 -1.85055 0
M  V30 3092 H 275.818 0.749586 -0.0814657 0
M  V30 3093 H 278.469 1.61713 -0.867249 0
M  V30 3094 H 276.851 3.94442 0.350965 0
M  V30 3095 H 278.025 3.86636 -2.50698 0
M  V30 3096 H 276.34 3.57736 -2.13105 0
M  V30 3097 H 278.937 5.34698 0.0146723 0
M  V30 3098 H 279.28 4.01687 1.09332 0
M  V30 3099 H 279.813 3.93198 -0.603337 0
M  V30 3100 H 276.552 5.89312 -2.8704 0
M  V30 3101 H 276.072 5.88519 -1.15783 0
M  V30 3102 H 277.751 6.26524 -1.61484 0
M  V30 3103 N 277.883 0.443576 1.51229 0
M  V30 3104 C 278.831 -0.37904 2.29491 0
M  V30 3105 C 279.825 -1.0153 1.35603 0
M  V30 3106 O 281.031 -0.94955 1.52917 0
M  V30 3107 H 277.406 -0.141053 0.738653 0
M  V30 3108 H 279.377 0.301799 2.9687 0
M  V30 3109 C 278.126 -1.46426 3.15364 0
M  V30 3110 H 277.449 -0.984037 3.87501 0
M  V30 3111 H 278.889 -2.01297 3.7317 0
M  V30 3112 C 277.348 -2.45099 2.31146 0
M  V30 3113 O 277.878 -3.49773 1.9754 0
M  V30 3114 N 276.084 -2.16139 1.94249 0
M  V30 3115 H 275.631 -1.31044 2.21777 0
M  V30 3116 H 275.589 -2.82398 1.38198 0
M  V30 3117 N 279.361 -1.56624 0.175154 0
M  V30 3118 C 280.607 -1.9729 -0.469506 0
M  V30 3119 C 280.94 -1.06128 -1.62636 0
M  V30 3120 O 280.215 -0.109183 -1.94193 0
M  V30 3121 C 280.498 -3.47375 -0.948804 0
M  V30 3122 C 280.351 -4.49317 0.208491 0
M  V30 3123 C 281.67 -4.00652 -1.82116 0
M  V30 3124 H 278.789 -0.717317 -0.16919 0
M  V30 3125 H 281.431 -1.88184 0.262062 0
M  V30 3126 H 279.581 -3.55267 -1.57219 0
M  V30 3127 H 281.253 -4.53482 0.845682 0
M  V30 3128 H 279.496 -4.25121 0.863395 0
M  V30 3129 H 280.167 -5.51741 -0.169059 0
M  V30 3130 H 282.643 -3.95416 -1.2956 0
M  V30 3131 H 281.519 -5.06075 -2.12554 0
M  V30 3132 H 281.78 -3.44699 -2.7683 0
M  V30 3133 N 280.839 0.0985539 -1.57292 0
M  V30 3134 C 281.749 1.13824 -2.05137 0
M  V30 3135 C 282.765 1.44076 -0.975604 0
M  V30 3136 O 283.941 1.54786 -1.28853 0
M  V30 3137 C 281.006 2.43969 -2.46333 0
M  V30 3138 C 280.067 2.2093 -3.68087 0
M  V30 3139 C 279.3 3.44869 -4.0731 0
M  V30 3140 O 279.523 4.52972 -3.46659 0
M  V30 3141 O 278.457 3.34661 -5.00285 0
M  V30 3142 H 282.283 0.761881 -2.93988 0
M  V30 3143 H 279.868 0.310818 -1.46131 0
M  V30 3144 H 281.75 3.20609 -2.73473 0
M  V30 3145 H 280.425 2.81038 -1.60621 0
M  V30 3146 H 279.332 1.42081 -3.46069 0
M  V30 3147 H 280.665 1.88755 -4.54568 0
M  V30 3148 N 282.317 1.53212 0.369288 0
M  V30 3149 C 283.566 1.68436 1.10961 0
M  V30 3150 C 283.879 0.440738 1.9057 0
M  V30 3151 O 285.085 0.473446 2.6734 0
M  V30 3152 C 283.541 2.97744 2.0218 0
M  V30 3153 C 283.149 4.29355 1.279 0
M  V30 3154 C 284.893 3.22334 2.76226 0
M  V30 3155 C 282.8 5.49755 2.17999 0
M  V30 3156 H 281.73 0.627568 0.41794 0
M  V30 3157 H 284.381 1.79713 0.370884 0
M  V30 3158 H 282.763 2.8026 2.79768 0
M  V30 3159 H 283.937 4.57458 0.554007 0
M  V30 3160 H 282.252 4.11179 0.657311 0
M  V30 3161 H 284.849 4.09471 3.43857 0
M  V30 3162 H 285.192 2.38238 3.41392 0
M  V30 3163 H 285.725 3.40475 2.05723 0
M  V30 3164 H 282.464 6.36318 1.57417 0
M  V30 3165 H 281.984 5.25937 2.88359 0
M  V30 3166 H 283.663 5.84401 2.77641 0
M  V30 3167 N 283.795 -0.628877 1.44509 0
M  V30 3168 C 285.02 -1.42048 1.5112 0
M  V30 3169 C 285.445 -1.87594 0.137818 0
M  V30 3170 O 284.803 -1.58873 -0.873437 0
M  V30 3171 C 284.851 -2.61541 2.48251 0
M  V30 3172 O 283.955 -3.61453 1.98559 0
M  V30 3173 H 283.296 -0.424942 0.510216 0
M  V30 3174 H 285.826 -0.767374 1.89664 0
M  V30 3175 H 285.836 -3.09057 2.66361 0
M  V30 3176 H 284.511 -2.27736 3.48007 0
M  V30 3177 H 283.088 -3.20731 1.90227 0
M  V30 3178 N 285.273 -1.31445 -0.869486 0
M  V30 3179 C 286.22 -1.19135 -1.97675 0
M  V30 3180 C 287.19 -0.0770266 -1.65921 0
M  V30 3181 O 288.375 -0.249972 -1.89155 0
M  V30 3182 C 285.515 -0.905149 -3.33018 0
M  V30 3183 C 284.628 -2.10285 -3.77365 0
M  V30 3184 C 283.763 -1.75339 -5.01427 0
M  V30 3185 C 282.802 -2.91515 -5.38224 0
M  V30 3186 N 281.939 -2.56762 -6.53466 0
M  V30 3187 H 286.779 -2.13853 -2.07535 0
M  V30 3188 H 284.316 -1.06379 -1.01597 0
M  V30 3189 H 286.274 -0.719765 -4.10944 0
M  V30 3190 H 284.904 0.00519624 -3.228 0
M  V30 3191 H 283.956 -2.39899 -2.95216 0
M  V30 3192 H 285.268 -2.97237 -4.00564 0
M  V30 3193 H 284.422 -1.53266 -5.87022 0
M  V30 3194 H 283.161 -0.855801 -4.80133 0
M  V30 3195 H 282.166 -3.14237 -4.51149 0
M  V30 3196 H 283.391 -3.81985 -5.61484 0
M  V30 3197 H 281.337 -1.69526 -6.33717 0
M  V30 3198 H 281.254 -3.37243 -6.76612 0
M  V30 3199 H 282.522 -2.38083 -7.42251 0
M  V30 3200 N 286.751 1.08385 -1.14413 0
M  V30 3201 C 288.162 1.62258 -0.923535 0
M  V30 3202 C 288.513 1.88691 0.537595 0
M  V30 3203 O 287.638 1.64454 1.40655 0
M  V30 3204 C 288.233 2.94781 -1.67002 0
M  V30 3205 C 286.792 3.45437 -1.495 0
M  V30 3206 C 285.939 2.19668 -1.69238 0
M  V30 3207 H 288.89 0.916086 -1.2959 0
M  V30 3208 H 288.911 3.63229 -1.13334 0
M  V30 3209 H 288.423 2.7551 -2.73342 0
M  V30 3210 H 286.524 3.6981 -0.455097 0
M  V30 3211 H 286.637 4.22173 -2.2651 0
M  V30 3212 H 285.001 2.28849 -1.11804 0
M  V30 3213 H 285.784 2.02905 -2.7692 0
M  V30 3214 N 288.23 0.939286 1.26551 0
M  V30 3215 C 289.507 0.5038 1.89001 0
M  V30 3216 C 289.887 -1.01854 1.84903 0
M  V30 3217 O 289.235 -1.87773 1.30206 0
M  V30 3218 C 289.445 1.063 3.32417 0
M  V30 3219 C 290.793 1.13051 4.09273 0
M  V30 3220 O 291.817 1.01345 3.41479 0
M  V30 3221 O 290.676 1.31233 5.30509 0
M  V30 3222 H 287.77 0.163897 0.810597 0
M  V30 3223 H 290.316 1.03173 1.34735 0
M  V30 3224 H 289.088 2.10665 3.29752 0
M  V30 3225 H 288.711 0.517408 3.94219 0
M  V30 3226 N 289.708 -1.40897 0.706093 0
M  V30 3227 C 290.671 -2.29131 0.0562841 0
M  V30 3228 C 291.671 -1.44901 -0.697166 0
M  V30 3229 O 292.861 -1.65926 -0.530484 0
M  V30 3230 C 289.993 -3.27957 -0.93043 0
M  V30 3231 H 291.186 -2.88091 0.833284 0
M  V30 3232 H 288.739 -1.4906 0.470192 0
M  V30 3233 H 289.474 -2.73997 -1.73482 0
M  V30 3234 H 289.259 -3.90124 -0.393166 0
M  V30 3235 H 290.749 -3.94049 -1.38256 0
M  V30 3236 N 291.186 -0.45159 -1.50991 0
M  V30 3237 C 292.134 0.366864 -2.29689 0
M  V30 3238 C 293.128 1.00809 -1.36139 0
M  V30 3239 O 294.334 0.941427 -1.53418 0
M  V30 3240 H 290.709 0.137133 -0.739391 0
M  V30 3241 H 292.68 -0.317538 -2.96706 0
M  V30 3242 C 291.429 1.44751 -3.16137 0
M  V30 3243 H 290.752 0.963473 -3.88017 0
M  V30 3244 H 292.192 1.99315 -3.74232 0
M  V30 3245 C 290.651 2.43869 -2.32442 0
M  V30 3246 O 291.181 3.4872 -1.99392 0
M  V30 3247 N 289.387 2.15105 -1.95392 0
M  V30 3248 H 288.934 1.29866 -2.22469 0
M  V30 3249 H 288.892 2.81661 -1.39693 0
M  V30 3250 N 292.664 1.56529 -0.183458 0
M  V30 3251 C 293.913 1.96419 0.458511 0
M  V30 3252 C 294.226 1.0727 1.63562 0
M  V30 3253 O 295.432 1.36893 2.34462 0
M  V30 3254 C 293.888 3.49298 0.867122 0
M  V30 3255 C 293.496 4.47092 -0.285057 0
M  V30 3256 C 295.24 3.97983 1.47683 0
M  V30 3257 C 293.147 5.91225 0.143862 0
M  V30 3258 H 292.077 0.733394 0.175071 0
M  V30 3259 H 294.728 1.81448 -0.273624 0
M  V30 3260 H 293.11 3.59731 1.65559 0
M  V30 3261 H 294.284 4.48383 -1.0625 0
M  V30 3262 H 292.599 4.08535 -0.805503 0
M  V30 3263 H 295.196 5.03134 1.80999 0
M  V30 3264 H 295.539 3.41618 2.37914 0
M  V30 3265 H 296.072 3.90617 0.752562 0
M  V30 3266 H 292.811 6.5149 -0.723974 0
M  V30 3267 H 292.331 5.93214 0.886413 0
M  V30 3268 H 294.01 6.44362 0.583628 0
M  V30 3269 N 294.142 -0.090211 1.57342 0
M  V30 3270 C 295.052 -1.12735 2.05738 0
M  V30 3271 C 296.068 -1.43557 0.983231 0
M  V30 3272 O 297.244 -1.54101 1.29672 0
M  V30 3273 C 294.309 -2.42659 2.47624 0
M  V30 3274 C 293.37 -2.18975 3.69254 0
M  V30 3275 C 292.603 -3.42704 4.09133 0
M  V30 3276 O 292.826 -4.51127 3.49057 0
M  V30 3277 O 291.76 -3.32003 5.02053 0
M  V30 3278 H 295.586 -0.746279 2.94388 0
M  V30 3279 H 293.171 -0.303064 1.46294 0
M  V30 3280 H 295.053 -3.19155 2.7517 0
M  V30 3281 H 293.728 -2.80182 1.62109 0
M  V30 3282 H 292.635 -1.40244 3.46818 0
M  V30 3283 H 293.968 -1.86342 4.55563 0
M  V30 3284 N 295.62 -1.53406 -0.361157 0
M  V30 3285 C 296.55 -1.83136 -1.44857 0
M  V30 3286 C 297.531 -0.685174 -1.5569 0
M  V30 3287 O 298.716 -0.93544 -1.70186 0
M  V30 3288 C 295.846 -2.02522 -2.82138 0
M  V30 3289 C 294.8 -3.18302 -2.86126 0
M  V30 3290 C 294.126 -3.22989 -4.26125 0
M  V30 3291 C 295.426 -4.56796 -2.53248 0
M  V30 3292 H 297.12 -2.74201 -1.20226 0
M  V30 3293 H 294.666 -1.31938 -0.576922 0
M  V30 3294 H 296.619 -2.21904 -3.58241 0
M  V30 3295 H 295.343 -1.08172 -3.08166 0
M  V30 3296 H 294.002 -2.98747 -2.12475 0
M  V30 3297 H 293.65 -2.26267 -4.49235 0
M  V30 3298 H 293.35 -4.00781 -4.29708 0
M  V30 3299 H 294.874 -3.44559 -5.04094 0
M  V30 3300 H 296.288 -4.7631 -3.19064 0
M  V30 3301 H 294.685 -5.36862 -2.68141 0
M  V30 3302 H 295.755 -4.61606 -1.48484 0
M  V30 3303 N 297.098 0.621204 -1.44841 0
M  V30 3304 C 298.028 1.74366 -1.55303 0
M  V30 3305 C 299.009 1.65199 -0.405385 0
M  V30 3306 O 300.194 1.83807 -0.626787 0
M  V30 3307 C 297.324 3.12931 -1.50637 0
M  V30 3308 C 296.278 3.36896 -2.63979 0
M  V30 3309 C 295.604 4.75594 -2.44366 0
M  V30 3310 C 296.904 3.28483 -4.06074 0
M  V30 3311 H 298.598 1.65867 -2.49256 0
M  V30 3312 H 296.144 0.796558 -1.19962 0
M  V30 3313 H 298.097 3.9124 -1.56555 0
M  V30 3314 H 296.821 3.22237 -0.532057 0
M  V30 3315 H 295.48 2.60972 -2.57467 0
M  V30 3316 H 295.128 4.81616 -1.45105 0
M  V30 3317 H 294.828 4.92586 -3.20364 0
M  V30 3318 H 296.352 5.5612 -2.52117 0
M  V30 3319 H 297.766 3.96684 -4.13902 0
M  V30 3320 H 296.163 3.57008 -4.82354 0
M  V30 3321 H 297.233 2.26133 -4.28943 0
M  V30 3322 N 298.576 1.31904 0.862503 0
M  V30 3323 C 299.804 1.24998 1.64873 0
M  V30 3324 C 300.219 -0.183425 1.87907 0
M  V30 3325 O 299.576 -1.11794 1.44251 0
M  V30 3326 C 299.627 1.99829 3.01248 0
M  V30 3327 O 299.348 3.37575 2.79239 0
M  V30 3328 C 300.849 1.99852 3.95694 0
M  V30 3329 H 298.069 0.431599 0.513773 0
M  V30 3330 H 300.613 1.73901 1.07604 0
M  V30 3331 H 298.768 1.54668 3.55185 0
M  V30 3332 H 299.182 3.75776 3.65914 0
M  V30 3333 H 300.656 2.56709 4.88676 0
M  V30 3334 H 301.133 0.982852 4.28062 0
M  V30 3335 H 301.739 2.44926 3.47694 0
M  V30 3336 N 300.054 -1.07777 1.14986 0
M  V30 3337 C 301.001 -2.14867 0.842672 0
M  V30 3338 C 301.971 -1.6486 -0.202552 0
M  V30 3339 O 303.156 -1.90668 -0.0710568 0
M  V30 3340 C 300.296 -3.43486 0.333363 0
M  V30 3341 C 299.409 -4.07306 1.43965 0
M  V30 3342 C 298.544 -5.23744 0.886914 0
M  V30 3343 C 297.583 -5.79517 1.97043 0
M  V30 3344 N 296.72 -6.87291 1.4344 0
M  V30 3345 H 301.56 -2.40485 1.75986 0
M  V30 3346 H 299.097 -1.1801 0.878179 0
M  V30 3347 H 301.055 -4.17195 0.0198163 0
M  V30 3348 H 299.685 -3.18133 -0.546916 0
M  V30 3349 H 298.737 -3.31293 1.86946 0
M  V30 3350 H 300.049 -4.44771 2.25788 0
M  V30 3351 H 299.203 -6.04419 0.525651 0
M  V30 3352 H 297.942 -4.87685 0.0377957 0
M  V30 3353 H 296.947 -4.97491 2.34057 0
M  V30 3354 H 298.172 -6.17632 2.82325 0
M  V30 3355 H 296.118 -6.5318 0.607567 0
M  V30 3356 H 296.035 -7.23617 2.18895 0
M  V30 3357 H 297.303 -7.71682 1.10124 0
M  V30 3358 N 301.532 -0.945985 -1.26051 0
M  V30 3359 C 302.442 -0.465633 -2.29933 0
M  V30 3360 C 303.458 0.462761 -1.67733 0
M  V30 3361 O 304.634 0.341118 -1.9849 0
M  V30 3362 C 301.699 0.256994 -3.45746 0
M  V30 3363 C 300.76 -0.708549 -4.23412 0
M  V30 3364 C 299.993 -0.0203135 -5.33696 0
M  V30 3365 O 300.216 1.19571 -5.57726 0
M  V30 3366 O 299.15 -0.701459 -5.97799 0
M  V30 3367 H 302.976 -1.32866 -2.73094 0
M  V30 3368 H 300.561 -0.712071 -1.31339 0
M  V30 3369 H 302.443 0.663852 -4.16138 0
M  V30 3370 H 301.118 1.09533 -3.04605 0
M  V30 3371 H 300.025 -1.16545 -3.55483 0
M  V30 3372 H 301.358 -1.51465 -4.68315 0
M  V30 3373 N 303.011 1.40521 -0.713556 0
M  V30 3374 C 304.241 2.0494 -0.261395 0
M  V30 3375 C 304.649 1.53861 1.10107 0
M  V30 3376 O 303.992 0.689321 1.70276 0
M  V30 3377 C 304.054 3.59138 -0.161227 0
M  V30 3378 C 303.718 4.33096 -1.45865 0
M  V30 3379 C 304.715 4.61182 -2.40016 0
M  V30 3380 C 302.4 4.72043 -1.71701 0
M  V30 3381 C 304.394 5.27196 -3.58251 0
M  V30 3382 C 302.081 5.37789 -2.90218 0
M  V30 3383 C 303.079 5.65295 -3.83315 0
M  V30 3384 O 302.767 6.29683 -4.99754 0
M  V30 3385 H 302.499 0.666041 -0.115608 0
M  V30 3386 H 305.053 1.80954 -0.971849 0
M  V30 3387 H 303.283 3.81936 0.605153 0
M  V30 3388 H 304.972 4.05091 0.256105 0
M  V30 3389 H 305.738 4.31559 -2.21318 0
M  V30 3390 H 301.617 4.50003 -1.00092 0
M  V30 3391 H 305.161 5.48582 -4.30934 0
M  V30 3392 H 301.058 5.66831 -3.08825 0
M  V30 3393 H 301.826 6.4818 -4.99805 0
M  V30 3394 N 304.489 0.459591 1.5075 0
M  V30 3395 C 305.436 -0.340524 2.28274 0
M  V30 3396 C 306.406 -0.997371 1.32822 0
M  V30 3397 O 307.591 -1.01202 1.61749 0
M  V30 3398 C 304.731 -1.42317 3.14388 0
M  V30 3399 C 303.844 -0.782251 4.24859 0
M  V30 3400 C 302.979 -1.84182 4.98247 0
M  V30 3401 C 302.018 -1.18053 6.00608 0
M  V30 3402 N 301.155 -2.18244 6.67319 0
M  V30 3403 H 305.995 0.326899 2.96202 0
M  V30 3404 H 303.532 0.173057 1.46078 0
M  V30 3405 H 305.49 -2.06241 3.62658 0
M  V30 3406 H 304.12 -2.05992 2.4853 0
M  V30 3407 H 303.172 -0.0307404 3.80388 0
M  V30 3408 H 304.484 -0.259663 4.98124 0
M  V30 3409 H 303.638 -2.55714 5.50177 0
M  V30 3410 H 302.377 -2.39819 4.24662 0
M  V30 3411 H 301.382 -0.450776 5.47949 0
M  V30 3412 H 302.607 -0.631202 6.7616 0
M  V30 3413 H 300.553 -2.72919 5.96533 0
M  V30 3414 H 300.47 -1.70938 7.36421 0
M  V30 3415 H 301.738 -2.89191 7.23871 0
M  V30 3416 N 305.967 -1.56429 0.191757 0
M  V30 3417 C 306.899 -2.16154 -0.762245 0
M  V30 3418 C 307.912 -1.12247 -1.17917 0
M  V30 3419 O 309.101 -1.39353 -1.11548 0
M  V30 3420 C 306.201 -2.70606 -2.04024 0
M  V30 3421 C 305.374 -3.99381 -1.78364 0
M  V30 3422 C 304.433 -4.38692 -2.90578 0
M  V30 3423 O 303.459 -5.06179 -2.6033 0
M  V30 3424 N 304.661 -4.01922 -4.18854 0
M  V30 3425 H 307.426 -2.98643 -0.251526 0
M  V30 3426 H 304.987 -1.61897 0.00967373 0
M  V30 3427 H 306.979 -2.93891 -2.78227 0
M  V30 3428 H 305.549 -1.9259 -2.46227 0
M  V30 3429 H 304.769 -3.84262 -0.879581 0
M  V30 3430 H 306.057 -4.83445 -1.58614 0
M  V30 3431 H 305.455 -3.47631 -4.46283 0
M  V30 3432 H 304.012 -4.30165 -4.89695 0
M  V30 3433 N 307.445 0.0818655 -1.57387 0
M  V30 3434 C 308.392 1.09834 -2.0299 0
M  V30 3435 C 309.362 1.39043 -0.908639 0
M  V30 3436 O 310.547 1.50282 -1.17559 0
M  V30 3437 C 307.687 2.40971 -2.47037 0
M  V30 3438 C 306.8 2.18379 -3.7274 0
M  V30 3439 C 305.935 3.43008 -4.0561 0
M  V30 3440 C 304.974 3.15736 -5.24383 0
M  V30 3441 N 304.111 4.32667 -5.52941 0
M  V30 3442 H 308.951 0.702472 -2.89602 0
M  V30 3443 H 306.488 0.33531 -1.43227 0
M  V30 3444 H 308.446 3.1752 -2.70623 0
M  V30 3445 H 307.076 2.78379 -1.63417 0
M  V30 3446 H 306.128 1.32569 -3.56552 0
M  V30 3447 H 307.44 1.94227 -4.59431 0
M  V30 3448 H 306.594 4.27958 -4.30043 0
M  V30 3449 H 305.333 3.70225 -3.17466 0
M  V30 3450 H 304.338 2.2918 -4.99757 0
M  V30 3451 H 305.563 2.8985 -6.14136 0
M  V30 3452 H 303.509 4.59935 -4.67756 0
M  V30 3453 H 303.426 4.11753 -6.34031 0
M  V30 3454 H 304.694 5.18644 -5.81918 0
M  V30 3455 N 308.923 1.53595 0.353017 0
M  V30 3456 C 310.153 1.74058 1.11299 0
M  V30 3457 C 310.561 0.475205 1.83135 0
M  V30 3458 O 309.904 -0.562344 1.74881 0
M  V30 3459 C 309.966 2.85994 2.17825 0
M  V30 3460 C 309.63 4.25923 1.65647 0
M  V30 3461 C 310.627 5.07829 1.11383 0
M  V30 3462 C 308.312 4.72377 1.7078 0
M  V30 3463 C 310.306 6.34285 0.629439 0
M  V30 3464 C 307.993 5.98808 1.21953 0
M  V30 3465 C 308.991 6.79594 0.681265 0
M  V30 3466 O 308.679 8.03651 0.200248 0
M  V30 3467 H 308.411 0.585327 0.338183 0
M  V30 3468 H 310.965 2.01186 0.413927 0
M  V30 3469 H 309.195 2.54368 2.91262 0
M  V30 3470 H 310.884 2.94515 2.79313 0
M  V30 3471 H 311.65 4.73107 1.06746 0
M  V30 3472 H 307.529 4.0956 2.11617 0
M  V30 3473 H 311.073 6.97288 0.208636 0
M  V30 3474 H 306.97 6.33026 1.26287 0
M  V30 3475 H 307.738 8.1788 0.318416 0
M  V30 3476 N 310.401 -0.613514 1.45168 0
M  V30 3477 C 311.311 -1.75296 1.55912 0
M  V30 3478 C 312.327 -1.68244 0.443856 0
M  V30 3479 O 313.503 -1.88706 0.70371 0
M  V30 3480 C 310.568 -3.1174 1.5172 0
M  V30 3481 C 309.629 -3.30291 2.74238 0
M  V30 3482 C 308.862 -4.60226 2.70236 0
M  V30 3483 O 309.085 -5.42168 1.77229 0
M  V30 3484 O 308.019 -4.81361 3.61352 0
M  V30 3485 H 311.845 -1.69183 2.52212 0
M  V30 3486 H 309.43 -0.776886 1.27612 0
M  V30 3487 H 311.312 -3.93044 1.51968 0
M  V30 3488 H 309.987 -3.18357 0.585697 0
M  V30 3489 H 308.894 -2.48598 2.79553 0
M  V30 3490 H 310.227 -3.28547 3.66494 0
M  V30 3491 N 311.879 -1.3236 -0.855495 0
M  V30 3492 C 313.156 -1.13491 -1.59309 0
M  V30 3493 C 313.536 0.30503 -2.08885 0
M  V30 3494 O 312.884 1.30151 -1.87811 0
M  V30 3495 C 313.094 -2.16176 -2.73987 0
M  V30 3496 C 314.442 -2.49463 -3.43589 0
M  V30 3497 O 315.466 -2.14715 -2.84211 0
M  V30 3498 O 314.325 -3.09027 -4.50738 0
M  V30 3499 H 311.419 -0.437887 -0.701559 0
M  V30 3500 H 313.965 -1.43887 -0.899696 0
M  V30 3501 H 312.737 -3.1297 -2.34873 0
M  V30 3502 H 312.36 -1.86769 -3.51003 0
M  V30 3503 N 313.357 1.07166 -1.15556 0
M  V30 3504 C 314.587 1.83248 -0.954133 0
M  V30 3505 C 314.995 1.82449 0.500911 0
M  V30 3506 O 314.338 1.23575 1.35923 0
M  V30 3507 C 314.4 3.31393 -1.39351 0
M  V30 3508 C 314.064 3.5591 -2.86666 0
M  V30 3509 C 315.061 3.49695 -3.8472 0
M  V30 3510 C 312.746 3.83515 -3.24379 0
M  V30 3511 C 314.74 3.70737 -5.18491 0
M  V30 3512 C 312.427 4.04209 -4.58321 0
M  V30 3513 C 313.425 3.97815 -5.55186 0
M  V30 3514 O 313.113 4.17954 -6.86709 0
M  V30 3515 H 312.845 0.584941 -0.338851 0
M  V30 3516 H 315.399 1.36169 -1.53777 0
M  V30 3517 H 313.629 3.79292 -0.75329 0
M  V30 3518 H 315.318 3.88945 -1.16089 0
M  V30 3519 H 316.084 3.28368 -3.56931 0
M  V30 3520 H 311.963 3.87605 -2.49567 0
M  V30 3521 H 315.507 3.65663 -5.94085 0
M  V30 3522 H 311.404 4.25023 -4.85825 0
M  V30 3523 H 312.172 4.35291 -6.93155 0
M  V30 3524 N 314.835 0.952656 1.25548 0
M  V30 3525 C 316.06 0.623025 1.97821 0
M  V30 3526 C 316.485 -0.7976 1.70352 0
M  V30 3527 O 315.843 -1.53905 0.958283 0
M  V30 3528 C 315.891 0.885532 3.49558 0
M  V30 3529 O 314.995 -0.0366641 4.12384 0
M  V30 3530 H 314.336 0.237082 0.620232 0
M  V30 3531 H 316.866 1.27871 1.59719 0
M  V30 3532 H 316.876 0.811009 3.99858 0
M  V30 3533 H 315.551 1.92094 3.6888 0
M  V30 3534 H 314.128 0.0898954 3.72792 0
M  V30 3535 N 316.313 -1.40141 0.720998 0
M  V30 3536 C 317.26 -2.30688 0.071919 0
M  V30 3537 C 318.23 -1.48476 -0.744584 0
M  V30 3538 O 319.415 -1.77201 -0.707423 0
M  V30 3539 C 316.555 -3.34724 -0.839855 0
M  V30 3540 C 315.668 -4.31998 -0.0122438 0
M  V30 3541 C 314.803 -5.23102 -0.923995 0
M  V30 3542 C 313.842 -6.12033 -0.0907969 0
M  V30 3543 N 312.979 -6.95537 -0.957718 0
M  V30 3544 H 317.819 -2.85628 0.849755 0
M  V30 3545 H 315.356 -1.40653 0.430726 0
M  V30 3546 H 317.314 -3.93618 -1.38279 0
M  V30 3547 H 315.944 -2.81274 -1.58381 0
M  V30 3548 H 314.996 -3.74841 0.64794 0
M  V30 3549 H 316.308 -4.94772 0.632595 0
M  V30 3550 H 315.462 -5.86953 -1.53527 0
M  V30 3551 H 314.201 -4.60615 -1.60264 0
M  V30 3552 H 313.206 -5.47207 0.533377 0
M  V30 3553 H 314.431 -6.76581 0.584428 0
M  V30 3554 H 312.377 -6.35633 -1.62192 0
M  V30 3555 H 312.294 -7.55099 -0.36904 0
M  V30 3556 H 313.562 -7.63832 -1.555 0
M  V30 3557 N 317.792 -0.46758 -1.50504 0
M  V30 3558 C 318.702 0.33382 -2.32213 0
M  V30 3559 C 319.718 0.999323 -1.42441 0
M  V30 3560 O 320.894 0.988068 -1.75497 0
M  V30 3561 C 317.959 1.4035 -3.17022 0
M  V30 3562 C 317.02 0.754961 -4.2261 0
M  V30 3563 C 316.253 1.77367 -5.03365 0
M  V30 3564 O 316.476 2.99976 -4.8515 0
M  V30 3565 O 315.41 1.34744 -5.86624 0
M  V30 3566 H 319.236 -0.334067 -3.01857 0
M  V30 3567 H 316.821 -0.229496 -1.47627 0
M  V30 3568 H 318.703 2.02318 -3.69656 0
M  V30 3569 H 317.378 2.05492 -2.5011 0
M  V30 3570 H 316.285 0.0964244 -3.73976 0
M  V30 3571 H 317.618 0.146545 -4.91982 0
M  V30 3572 N 319.27 1.56325 -0.20005 0
M  V30 3573 C 320.519 1.96895 0.437652 0
M  V30 3574 C 320.832 1.08999 1.62415 0
M  V30 3575 O 322.038 1.39372 2.32997 0
M  V30 3576 C 320.494 3.50198 0.830025 0
M  V30 3577 C 320.102 4.46765 -0.332461 0
M  V30 3578 C 321.846 3.99526 1.43453 0
M  V30 3579 C 319.753 5.91344 0.0811468 0
M  V30 3580 H 318.683 0.735209 0.167282 0
M  V30 3581 H 321.334 1.81148 -0.292853 0
M  V30 3582 H 319.716 3.61467 1.61734 0
M  V30 3583 H 320.89 4.47231 -1.11 0
M  V30 3584 H 319.205 4.07657 -0.848789 0
M  V30 3585 H 321.802 5.05025 1.75652 0
M  V30 3586 H 322.145 3.44122 2.34277 0
M  V30 3587 H 322.678 3.91393 0.71109 0
M  V30 3588 H 319.417 6.50685 -0.793033 0
M  V30 3589 H 318.937 5.94121 0.823445 0
M  V30 3590 H 320.616 6.44945 0.515252 0
M  V30 3591 N 320.748 -0.0735177 1.57428 0
M  V30 3592 C 321.695 -1.08756 2.0357 0
M  V30 3593 C 322.665 -1.38559 0.916 0
M  V30 3594 O 323.85 -1.49656 1.18354 0
M  V30 3595 C 320.99 -2.39657 2.48311 0
M  V30 3596 C 320.103 -2.16399 3.73892 0
M  V30 3597 C 319.238 -3.40852 4.07423 0
M  V30 3598 C 318.277 -3.1295 5.2605 0
M  V30 3599 N 317.414 -4.29729 5.55228 0
M  V30 3600 H 322.254 -0.687104 2.8997 0
M  V30 3601 H 319.791 -0.327709 1.43403 0
M  V30 3602 H 321.749 -3.16081 2.72303 0
M  V30 3603 H 320.379 -2.77508 1.64891 0
M  V30 3604 H 319.431 -1.30676 3.57251 0
M  V30 3605 H 320.743 -1.91788 4.60455 0
M  V30 3606 H 319.897 -4.25671 4.32306 0
M  V30 3607 H 318.636 -3.68537 3.19425 0
M  V30 3608 H 317.641 -2.26526 5.00965 0
M  V30 3609 H 318.866 -2.86589 6.15665 0
M  V30 3610 H 316.812 -4.57448 4.70188 0
M  V30 3611 H 316.729 -4.08385 6.36206 0
M  V30 3612 H 317.997 -5.1555 5.84661 0
M  V30 3613 N 322.226 -1.5378 -0.344866 0
M  V30 3614 C 323.156 -1.84662 -1.42906 0
M  V30 3615 C 324.137 -0.701648 -1.54955 0
M  V30 3616 O 325.322 -0.953438 -1.69184 0
M  V30 3617 C 322.452 -2.05503 -2.79974 0
M  V30 3618 C 321.406 -3.21318 -2.82734 0
M  V30 3619 C 320.732 -3.2749 -4.22675 0
M  V30 3620 C 322.032 -4.59456 -2.48389 0
M  V30 3621 H 323.726 -2.75461 -1.17311 0
M  V30 3622 H 321.272 -1.32542 -0.562896 0
M  V30 3623 H 323.225 -2.25691 -3.55867 0
M  V30 3624 H 321.949 -1.11434 -3.07002 0
M  V30 3625 H 320.608 -3.00984 -2.09294 0
M  V30 3626 H 320.256 -2.31019 -4.4681 0
M  V30 3627 H 319.956 -4.05316 -4.25433 0
M  V30 3628 H 321.48 -3.49887 -5.00412 0
M  V30 3629 H 322.894 -4.79667 -3.13995 0
M  V30 3630 H 321.291 -5.39675 -2.62432 0
M  V30 3631 H 322.361 -4.63155 -1.4358 0
M  V30 3632 N 323.704 0.605807 -1.45491 0
M  V30 3633 C 324.654 1.71074 -1.50724 0
M  V30 3634 C 325.638 1.5658 -0.37033 0
M  V30 3635 O 326.83 1.65887 -0.617299 0
M  V30 3636 C 323.959 3.0983 -1.47852 0
M  V30 3637 C 323.045 3.29704 -2.66751 0
M  V30 3638 N 323.436 3.19831 -3.91844 0
M  V30 3639 C 321.734 3.60579 -2.62486 0
M  V30 3640 C 322.435 3.41083 -4.71208 0
M  V30 3641 N 321.411 3.65157 -4.02693 0
M  V30 3642 H 325.213 1.61937 -2.45263 0
M  V30 3643 H 322.727 0.80912 -1.40808 0
M  V30 3644 H 324.724 3.89101 -1.49686 0
M  V30 3645 H 323.384 3.20115 -0.543714 0
M  V30 3646 H 324.395 2.98194 -4.23439 0
M  V30 3647 H 321.072 3.7769 -1.77922 0
M  V30 3648 H 322.462 3.38828 -5.80211 0
M  V30 3649 N 325.182 1.32811 0.848464 0
M  V30 3650 C 326.429 1.23724 1.60308 0
M  V30 3651 C 326.757 -0.1994 1.93475 0
M  V30 3652 O 326.012 -1.15406 1.5805 0
M  V30 3653 C 326.311 2.04831 2.92881 0
M  V30 3654 C 325.977 3.54125 2.79117 0
M  V30 3655 C 324.639 3.94829 2.7507 0
M  V30 3656 C 326.991 4.49036 2.64606 0
M  V30 3657 C 324.319 5.28675 2.544 0
M  V30 3658 C 326.671 5.83033 2.4547 0
M  V30 3659 C 325.335 6.22931 2.39819 0
M  V30 3660 H 324.605 0.452737 0.586609 0
M  V30 3661 H 327.252 1.64301 0.983743 0
M  V30 3662 H 325.557 1.57001 3.58968 0
M  V30 3663 H 327.254 1.95164 3.50303 0
M  V30 3664 H 323.844 3.21801 2.83094 0
M  V30 3665 H 328.028 4.18505 2.66772 0
M  V30 3666 H 323.284 5.58637 2.48465 0
M  V30 3667 H 327.458 6.56186 2.33222 0
M  V30 3668 H 325.085 7.26584 2.23562 0
M  V30 3669 N 326.66 -1.06551 1.16123 0
M  V30 3670 C 327.607 -2.13961 0.865414 0
M  V30 3671 C 328.577 -1.65066 -0.185055 0
M  V30 3672 O 329.762 -1.90732 -0.05083 0
M  V30 3673 C 326.902 -3.43113 0.369776 0
M  V30 3674 C 326.015 -4.05756 1.48276 0
M  V30 3675 C 325.15 -5.22773 0.942414 0
M  V30 3676 C 324.189 -5.77395 2.03179 0
M  V30 3677 N 323.326 -6.85731 1.50721 0
M  V30 3678 H 328.166 -2.38605 1.78527 0
M  V30 3679 H 325.703 -1.17072 0.890646 0
M  V30 3680 H 327.661 -4.17151 0.0640643 0
M  V30 3681 H 326.291 -3.18695 -0.513143 0
M  V30 3682 H 325.343 -3.29292 1.9045 0
M  V30 3683 H 326.655 -4.42351 2.30493 0
M  V30 3684 H 325.809 -6.03827 0.589729 0
M  V30 3685 H 324.548 -4.87618 0.0895191 0
M  V30 3686 H 323.553 -4.94981 2.3932 0
M  V30 3687 H 324.778 -6.14603 2.8886 0
M  V30 3688 H 322.724 -6.52499 0.676811 0
M  V30 3689 H 322.641 -7.21254 2.26557 0
M  V30 3690 H 323.909 -7.7047 1.18303 0
M  V30 3691 N 328.138 -0.959301 -1.25041 0
M  V30 3692 C 329.048 -0.489994 -2.29426 0
M  V30 3693 C 330.064 0.444944 -1.68215 0
M  V30 3694 O 331.24 0.320046 -1.98841 0
M  V30 3695 C 328.305 0.220309 -3.45999 0
M  V30 3696 C 327.366 -0.753418 -4.22637 0
M  V30 3697 C 326.599 -0.076918 -5.33645 0
M  V30 3698 O 326.822 1.13649 -5.58963 0
M  V30 3699 O 325.756 -0.764824 -5.97021 0
M  V30 3700 H 329.582 -1.35755 -2.71669 0
M  V30 3701 H 327.167 -0.725961 -1.30576 0
M  V30 3702 H 329.049 0.619677 -4.16819 0
M  V30 3703 H 327.724 1.06296 -3.0575 0
M  V30 3704 H 326.631 -1.20308 -3.54227 0
M  V30 3705 H 327.964 -1.56423 -4.66683 0
M  V30 3706 N 329.616 1.39756 -0.72842 0
M  V30 3707 C 330.563 2.30647 -0.0841519 0
M  V30 3708 C 331.533 1.48869 0.7367 0
M  V30 3709 O 332.718 1.77574 0.698015 0
M  V30 3710 C 329.858 3.35165 0.822091 0
M  V30 3711 C 328.971 4.31999 -0.0106663 0
M  V30 3712 C 328.106 5.23585 0.896241 0
M  V30 3713 C 327.145 6.12072 0.0583381 0
M  V30 3714 N 326.282 6.96035 0.920818 0
M  V30 3715 H 331.122 2.85173 -0.864891 0
M  V30 3716 H 328.659 1.40422 -0.438179 0
M  V30 3717 H 330.617 3.94345 1.36189 0
M  V30 3718 H 329.247 2.8211 1.56888 0
M  V30 3719 H 328.299 3.74492 -0.66781 0
M  V30 3720 H 329.611 4.9443 -0.658825 0
M  V30 3721 H 328.765 5.87759 1.50412 0
M  V30 3722 H 327.504 4.61459 1.57819 0
M  V30 3723 H 326.509 5.46916 -0.562389 0
M  V30 3724 H 327.734 6.76261 -0.6203 0
M  V30 3725 H 325.68 6.36485 1.58818 0
M  V30 3726 H 325.597 7.55284 0.32899 0
M  V30 3727 H 326.865 7.64646 1.51447 0
M  V30 3728 N 331.094 0.475555 1.50254 0
M  V30 3729 C 332.042 -0.330276 2.30243 0
M  V30 3730 C 333.036 -0.986306 1.37726 0
M  V30 3731 O 334.242 -0.9169 1.54897 0
M  V30 3732 H 330.617 -0.125353 0.741479 0
M  V30 3733 H 332.588 0.364702 2.96163 0
M  V30 3734 C 331.337 -1.39704 3.18399 0
M  V30 3735 H 330.66 -0.901621 3.89501 0
M  V30 3736 H 332.1 -1.93336 3.77355 0
M  V30 3737 C 330.559 -2.4014 2.36293 0
M  V30 3738 O 331.089 -3.45504 2.04914 0
M  V30 3739 N 329.295 -2.1197 1.98789 0
M  V30 3740 H 328.842 -1.2631 2.24507 0
M  V30 3741 H 328.8 -2.79403 1.44157 0
M  V30 3742 N 332.573 -1.56217 0.208337 0
M  V30 3743 C 333.82 -1.97949 -0.42692 0
M  V30 3744 C 334.148 -1.09562 -1.60706 0
M  V30 3745 O 333.403 -0.137616 -1.95216 0
M  V30 3746 C 333.702 -3.45441 -0.916797 0
M  V30 3747 C 333.368 -4.50646 0.151391 0
M  V30 3748 C 332.03 -4.79139 0.444867 0
M  V30 3749 C 334.382 -5.13811 0.874492 0
M  V30 3750 C 331.71 -5.68084 1.46619 0
M  V30 3751 C 334.062 -6.03861 1.88506 0
M  V30 3752 C 332.726 -6.30704 2.18559 0
M  V30 3753 H 331.996 -0.724345 -0.156221 0
M  V30 3754 H 334.643 -1.89006 0.308084 0
M  V30 3755 H 332.948 -3.51521 -1.73032 0
M  V30 3756 H 334.645 -3.75094 -1.41794 0
M  V30 3757 H 331.235 -4.28511 -0.0875068 0
M  V30 3758 H 335.419 -4.91879 0.660996 0
M  V30 3759 H 330.675 -5.87151 1.7048 0
M  V30 3760 H 334.849 -6.51861 2.45051 0
M  V30 3761 H 332.476 -6.99424 2.97843 0
M  V30 3762 N 334.051 0.0651679 -1.57465 0
M  V30 3763 C 334.999 1.09542 -2.05191 0
M  V30 3764 C 335.993 1.39675 -0.958509 0
M  V30 3765 O 337.199 1.39003 -1.14359 0
M  V30 3766 H 333.574 0.370623 -0.654326 0
M  V30 3767 H 335.545 0.666802 -2.90854 0
M  V30 3768 C 334.294 2.39881 -2.51699 0
M  V30 3769 H 333.617 2.17547 -3.3543 0
M  V30 3770 H 335.057 3.104 -2.88839 0
M  V30 3771 C 333.516 3.0631 -1.40271 0
M  V30 3772 O 334.046 3.94664 -0.748523 0
M  V30 3773 N 332.252 2.67041 -1.14618 0
M  V30 3774 H 331.799 1.95281 -1.67997 0
M  V30 3775 H 331.757 3.1181 -0.402688 0
M  V30 3776 N 335.529 1.53961 0.336706 0
M  V30 3777 C 336.477 1.83136 1.43401 0
M  V30 3778 C 337.471 0.702313 1.54156 0
M  V30 3779 O 338.677 0.885765 1.56698 0
M  V30 3780 H 335.052 0.580309 0.478273 0
M  V30 3781 H 337.023 2.74925 1.16012 0
M  V30 3782 C 335.772 2.06385 2.79822 0
M  V30 3783 H 335.095 2.92718 2.72316 0
M  V30 3784 H 336.535 2.30761 3.55704 0
M  V30 3785 C 334.994 0.851414 3.25964 0
M  V30 3786 O 335.524 0.0541904 4.01663 0
M  V30 3787 N 333.73 0.66672 2.82848 0
M  V30 3788 H 333.277 1.31665 2.21409 0
M  V30 3789 H 333.235 -0.143032 3.14074 0
M  V30 3790 N 337.007 -0.598083 1.45811 0
M  V30 3791 C 338.256 -1.35295 1.49594 0
M  V30 3792 C 338.569 -1.95057 0.145679 0
M  V30 3793 O 339.775 -2.71431 0.0612099 0
M  V30 3794 C 338.231 -2.45124 2.63519 0
M  V30 3795 C 337.839 -1.91732 4.04899 0
M  V30 3796 C 339.583 -3.2205 2.76558 0
M  V30 3797 C 337.49 -2.991 5.1019 0
M  V30 3798 H 336.42 -0.508552 0.556679 0
M  V30 3799 H 339.071 -0.639977 1.71978 0
M  V30 3800 H 337.453 -3.19149 2.34435 0
M  V30 3801 H 338.627 -1.24352 4.43704 0
M  V30 3802 H 336.942 -1.27522 3.96393 0
M  V30 3803 H 339.539 -4.0215 3.52391 0
M  V30 3804 H 339.882 -3.73663 1.83526 0
M  V30 3805 H 340.415 -2.55127 3.05213 0
M  V30 3806 H 337.154 -2.52393 6.04961 0
M  V30 3807 H 336.674 -3.65017 4.75944 0
M  V30 3808 H 338.353 -3.63318 5.35359 0
M  V30 3809 N 338.485 -1.33259 -0.841409 0
M  V30 3810 C 339.415 -1.25926 -1.96634 0
M  V30 3811 C 340.396 -0.140349 -1.6952 0
M  V30 3812 O 341.581 -0.329707 -1.91381 0
M  V30 3813 C 338.711 -0.99512 -3.32738 0
M  V30 3814 C 337.665 -2.0767 -3.74242 0
M  V30 3815 C 336.991 -1.66474 -5.08125 0
M  V30 3816 C 338.291 -3.49318 -3.88297 0
M  V30 3817 H 339.985 -2.20046 -2.03027 0
M  V30 3818 H 337.531 -1.05931 -0.975425 0
M  V30 3819 H 339.484 -0.930323 -4.11002 0
M  V30 3820 H 338.208 -0.0183004 -3.26595 0
M  V30 3821 H 336.867 -2.13187 -2.98239 0
M  V30 3822 H 336.515 -0.675012 -4.9845 0
M  V30 3823 H 336.215 -2.3885 -5.36865 0
M  V30 3824 H 337.739 -1.61455 -5.88867 0
M  V30 3825 H 339.153 -3.46316 -4.56879 0
M  V30 3826 H 337.55 -4.20158 -4.28471 0
M  V30 3827 H 338.62 -3.8801 -2.9082 0
M  V30 3828 N 339.963 1.05934 -1.16686 0
M  V30 3829 C 340.911 2.15603 -0.872817 0
M  V30 3830 C 341.905 1.68647 0.159576 0
M  V30 3831 O 343.111 1.79995 0.0132125 0
M  V30 3832 H 339.486 0.703885 -0.264671 0
M  V30 3833 H 341.457 2.37613 -1.80507 0
M  V30 3834 C 340.206 3.45457 -0.394344 0
M  V30 3835 H 339.529 3.81984 -1.18019 0
M  V30 3836 H 340.969 4.2339 -0.227408 0
M  V30 3837 C 339.428 3.25021 0.88673 0
M  V30 3838 O 339.958 3.50906 1.95519 0
M  V30 3839 N 338.164 2.78437 0.831925 0
M  V30 3840 H 337.711 2.57572 -0.0377619 0
M  V30 3841 H 337.669 2.65144 1.68956 0
M  V30 3842 N 341.441 0.965919 1.2453 0
M  V30 3843 C 342.687 0.62776 1.92839 0
M  V30 3844 C 343.02 -0.834694 1.75347 0
M  V30 3845 O 342.295 -1.60031 1.10546 0
M  V30 3846 C 342.578 1.00109 3.45905 0
M  V30 3847 C 342.431 2.52011 3.72573 0
M  V30 3848 C 343.75 0.53435 4.36844 0
M  V30 3849 H 340.869 0.229537 0.700344 0
M  V30 3850 H 343.511 1.2046 1.46933 0
M  V30 3851 H 341.661 0.510238 3.85135 0
M  V30 3852 H 343.333 3.08559 3.42912 0
M  V30 3853 H 341.576 2.95287 3.17786 0
M  V30 3854 H 342.247 2.73183 4.79661 0
M  V30 3855 H 344.723 0.955565 4.04979 0
M  V30 3856 H 343.599 0.824152 5.42678 0
M  V30 3857 H 343.86 -0.565589 4.38467 0
M  V30 3858 N 342.919 -1.39368 0.735821 0
M  V30 3859 C 343.849 -2.33234 0.111506 0
M  V30 3860 C 344.83 -1.53954 -0.723334 0
M  V30 3861 O 346.015 -1.82344 -0.668147 0
M  V30 3862 C 343.145 -3.38057 -0.795917 0
M  V30 3863 C 342.099 -4.2795 -0.065172 0
M  V30 3864 C 341.425 -5.23479 -1.08967 0
M  V30 3865 C 342.725 -5.10741 1.09273 0
M  V30 3866 H 344.419 -2.85692 0.895571 0
M  V30 3867 H 341.965 -1.37364 0.432109 0
M  V30 3868 H 343.918 -4.02675 -1.24221 0
M  V30 3869 H 342.642 -2.8404 -1.61211 0
M  V30 3870 H 341.301 -3.64813 0.361511 0
M  V30 3871 H 340.949 -4.65758 -1.89944 0
M  V30 3872 H 340.649 -5.84472 -0.605489 0
M  V30 3873 H 342.173 -5.90974 -1.53565 0
M  V30 3874 H 343.587 -5.68699 0.724841 0
M  V30 3875 H 341.984 -5.8088 1.50659 0
M  V30 3876 H 343.054 -4.45525 1.91404 0
M  V30 3877 N 344.397 -0.483516 -1.5 0
M  V30 3878 C 345.344 0.304164 -2.28787 0
M  V30 3879 C 346.314 0.976114 -1.34392 0
M  V30 3880 O 347.499 0.986156 -1.63339 0
M  V30 3881 C 344.639 1.37298 -3.16612 0
M  V30 3882 C 343.752 0.714561 -4.26049 0
M  V30 3883 C 342.887 1.76232 -5.01114 0
M  V30 3884 C 341.926 1.08483 -6.0241 0
M  V30 3885 N 341.063 2.076 -6.70706 0
M  V30 3886 H 345.903 -0.373981 -2.95644 0
M  V30 3887 H 343.44 -0.196275 -1.45785 0
M  V30 3888 H 345.398 2.00445 -3.65893 0
M  V30 3889 H 344.028 2.02012 -2.51776 0
M  V30 3890 H 343.08 -0.0297798 -3.80388 0
M  V30 3891 H 344.392 0.180383 -4.98474 0
M  V30 3892 H 343.546 2.46929 -5.54176 0
M  V30 3893 H 342.285 2.33033 -4.28424 0
M  V30 3894 H 341.29 0.363545 -5.48597 0
M  V30 3895 H 342.515 0.523551 -6.77079 0
M  V30 3896 H 340.461 2.63394 -6.00799 0
M  V30 3897 H 340.378 1.59201 -7.39047 0
M  V30 3898 H 341.646 2.77639 -7.2838 0
M  V30 3899 N 345.875 1.56104 -0.216619 0
M  V30 3900 C 346.822 2.2007 0.695531 0
M  V30 3901 C 347.792 1.15471 1.19397 0
M  V30 3902 O 348.977 1.43807 1.25396 0
M  V30 3903 C 346.117 2.88073 1.90021 0
M  V30 3904 C 345.23 4.07253 1.44113 0
M  V30 3905 C 344.365 4.63052 2.603 0
M  V30 3906 C 343.404 5.74545 2.11103 0
M  V30 3907 N 342.541 6.24656 3.20545 0
M  V30 3908 H 347.381 2.97655 0.143327 0
M  V30 3909 H 344.918 1.46982 0.0589934 0
M  V30 3910 H 346.876 3.25681 2.60745 0
M  V30 3911 H 345.506 2.13015 2.42538 0
M  V30 3912 H 344.558 3.75164 0.628999 0
M  V30 3913 H 345.87 4.8783 1.04036 0
M  V30 3914 H 345.024 5.03078 3.39113 0
M  V30 3915 H 343.763 3.81628 3.03663 0
M  V30 3916 H 342.768 5.34027 1.3075 0
M  V30 3917 H 343.993 6.57801 1.68746 0
M  V30 3918 H 341.939 5.46148 3.63399 0
M  V30 3919 H 341.856 7.00343 2.84704 0
M  V30 3920 H 343.124 6.69338 3.99508 0
M  V30 3921 N 347.353 -0.0568162 1.57498 0
M  V30 3922 C 348.283 -1.06593 2.0775 0
M  V30 3923 C 349.264 -1.39448 0.974082 0
M  V30 3924 O 350.449 -1.48815 1.24771 0
M  V30 3925 C 347.579 -2.37509 2.5339 0
M  V30 3926 C 346.533 -2.1897 3.67745 0
M  V30 3927 C 345.859 -3.55402 3.99492 0
M  V30 3928 C 347.159 -1.59859 4.97235 0
M  V30 3929 H 348.853 -0.647706 2.9231 0
M  V30 3930 H 346.399 -0.310116 1.40621 0
M  V30 3931 H 348.352 -3.08409 2.87162 0
M  V30 3932 H 347.076 -2.8134 1.65878 0
M  V30 3933 H 345.735 -1.50508 3.3428 0
M  V30 3934 H 345.383 -3.9683 3.09088 0
M  V30 3935 H 345.083 -3.43831 4.76502 0
M  V30 3936 H 346.607 -4.27708 4.35773 0
M  V30 3937 H 348.021 -2.20642 5.29141 0
M  V30 3938 H 346.418 -1.58942 5.78669 0
M  V30 3939 H 347.488 -0.561506 4.81638 0
M  V30 3940 N 348.832 -1.54138 -0.328536 0
M  V30 3941 C 349.779 -1.83176 -1.40411 0
M  V30 3942 C 350.749 -0.678494 -1.5161 0
M  V30 3943 O 351.934 -0.92443 -1.6691 0
M  V30 3944 C 349.074 -2.06035 -2.76846 0
M  V30 3945 C 348.187 -3.33727 -2.74318 0
M  V30 3946 C 347.322 -3.46574 -4.02567 0
M  V30 3947 C 346.361 -4.68159 -3.94327 0
M  V30 3948 N 345.498 -4.77959 -5.14296 0
M  V30 3949 H 350.338 -2.74938 -1.14948 0
M  V30 3950 H 347.875 -1.36166 -0.556538 0
M  V30 3951 H 349.833 -2.1728 -3.56153 0
M  V30 3952 H 348.463 -1.1757 -3.00628 0
M  V30 3953 H 347.515 -3.31246 -1.8703 0
M  V30 3954 H 348.827 -4.23139 -2.64111 0
M  V30 3955 H 347.981 -3.57333 -4.90304 0
M  V30 3956 H 346.72 -2.55245 -4.15574 0
M  V30 3957 H 345.725 -4.57461 -3.04974 0
M  V30 3958 H 346.95 -5.60868 -3.82889 0
M  V30 3959 H 344.896 -3.89544 -5.27818 0
M  V30 3960 H 344.813 -5.6133 -5.06404 0
M  V30 3961 H 346.081 -4.93044 -6.03761 0
M  V30 3962 N 350.31 0.590341 -1.46126 0
M  V30 3963 C 351.557 1.34882 -1.5104 0
M  V30 3964 C 351.885 1.93849 -0.159021 0
M  V30 3965 O 351.14 1.76544 0.844436 0
M  V30 3966 C 351.439 2.5032 -2.55097 0
M  V30 3967 C 351.105 2.09394 -3.99331 0
M  V30 3968 C 349.767 1.97947 -4.38601 0
M  V30 3969 C 352.119 1.77712 -4.89967 0
M  V30 3970 C 349.447 1.53065 -5.66381 0
M  V30 3971 C 351.799 1.34312 -6.18177 0
M  V30 3972 C 350.463 1.21436 -6.56361 0
M  V30 3973 H 349.733 0.493568 -0.552695 0
M  V30 3974 H 352.38 0.665539 -1.79563 0
M  V30 3975 H 350.685 3.24062 -2.20207 0
M  V30 3976 H 352.382 3.08541 -2.56132 0
M  V30 3977 H 348.972 2.19235 -3.68285 0
M  V30 3978 H 353.156 1.85445 -4.60352 0
M  V30 3979 H 348.412 1.41733 -5.94745 0
M  V30 3980 H 352.586 1.08849 -6.87841 0
M  V30 3981 H 350.213 0.864345 -7.5527 0
M  V30 3982 N 351.788 1.33704 0.83433 0
M  V30 3983 C 353.037 1.24763 1.58484 0
M  V30 3984 C 353.35 -0.183775 1.94735 0
M  V30 3985 O 354.556 -0.395234 2.68608 0
M  V30 3986 C 353.012 2.18638 2.85876 0
M  V30 3987 C 352.62 3.66974 2.56971 0
M  V30 3988 C 354.364 2.18581 3.63899 0
M  V30 3989 C 352.271 4.5275 3.80488 0
M  V30 3990 H 351.201 0.463425 0.594772 0
M  V30 3991 H 353.852 1.58797 0.919551 0
M  V30 3992 H 352.234 1.77542 3.5397 0
M  V30 3993 H 353.408 4.16538 1.9706 0
M  V30 3994 H 351.723 3.69366 1.92244 0
M  V30 3995 H 354.32 2.79894 4.55591 0
M  V30 3996 H 354.663 1.18207 3.99165 0
M  V30 3997 H 355.196 2.58062 3.02735 0
M  V30 3998 H 351.935 5.54017 3.5035 0
M  V30 3999 H 351.455 4.07927 4.39722 0
M  V30 4000 H 353.134 4.66784 4.4802 0
M  V30 4001 N 353.266 -1.05314 1.17247 0
M  V30 4002 C 354.214 -2.15137 0.884238 0
M  V30 4003 C 355.208 -1.68729 -0.15063 0
M  V30 4004 O 356.414 -1.8 -0.00366673 0
M  V30 4005 H 352.789 -0.702471 0.2684 0
M  V30 4006 H 354.76 -2.36652 1.81764 0
M  V30 4007 C 353.509 -3.45243 0.412659 0
M  V30 4008 H 352.832 -3.81352 1.20043 0
M  V30 4009 H 354.272 -4.23263 0.249858 0
M  V30 4010 C 352.731 -3.25487 -0.86948 0
M  V30 4011 O 353.261 -3.51938 -1.93655 0
M  V30 4012 N 351.467 -2.78875 -0.817147 0
M  V30 4013 H 351.014 -2.57549 0.0514211 0
M  V30 4014 H 350.972 -2.66036 -1.67547 0
M  V30 4015 N 354.744 -0.972509 -1.24016 0
M  V30 4016 C 356.16 -0.679827 -1.44397 0
M  V30 4017 C 356.36 0.756716 -1.86751 0
M  V30 4018 O 355.416 1.53007 -2.00861 0
M  V30 4019 C 356.729 -1.66803 -2.50195 0
M  V30 4020 C 358.277 -1.68119 -2.64017 0
M  V30 4021 C 358.752 -2.65748 -3.73017 0
M  V30 4022 N 360.243 -2.64219 -3.8045 0
M  V30 4023 C 360.978 -3.36433 -4.64328 0
M  V30 4024 N 360.474 -4.1818 -5.52356 0
M  V30 4025 N 362.267 -3.25235 -4.58453 0
M  V30 4026 H 354.418 -1.90059 -0.948228 0
M  V30 4027 H 356.681 -0.818527 -0.478245 0
M  V30 4028 H 356.387 -2.69498 -2.25973 0
M  V30 4029 H 356.261 -1.4446 -3.48441 0
M  V30 4030 H 358.648 -0.661319 -2.87594 0
M  V30 4031 H 358.729 -1.94525 -1.66113 0
M  V30 4032 H 358.373 -3.67872 -3.50189 0
M  V30 4033 H 358.303 -2.36619 -4.70446 0
M  V30 4034 H 360.794 -2.04887 -3.17537 0
M  V30 4035 H 361.107 -4.70157 -6.13329 0
M  V30 4036 H 359.452 -4.22273 -5.52006 0
M  V30 4037 H 362.643 -2.60829 -3.88698 0
M  V30 4038 H 362.816 -3.81776 -5.23594 0
M  V30 4039 N 356.222 1.38976 -0.743202 0
M  V30 4040 C 357.468 2.0064 -0.295189 0
M  V30 4041 C 357.801 1.5885 1.11716 0
M  V30 4042 O 357.076 0.821181 1.76315 0
M  V30 4043 C 357.359 3.578 -0.406318 0
M  V30 4044 C 357.212 4.09586 -1.85903 0
M  V30 4045 C 358.531 4.39616 0.206439 0
M  V30 4046 H 355.65 0.728935 -0.108733 0
M  V30 4047 H 358.292 1.65067 -0.940897 0
M  V30 4048 H 356.442 3.88235 0.143419 0
M  V30 4049 H 358.114 3.89837 -2.46627 0
M  V30 4050 H 356.357 3.6284 -2.3776 0
M  V30 4051 H 357.028 5.18708 -1.888 0
M  V30 4052 H 359.504 4.15273 -0.262283 0
M  V30 4053 H 358.38 5.48812 0.0983819 0
M  V30 4054 H 358.641 4.22754 1.2935 0
M  V30 4055 N 357.7 0.491464 1.49741 0
M  V30 4056 C 358.63 -0.28154 2.31796 0
M  V30 4057 C 359.611 -0.971473 1.3963 0
M  V30 4058 O 360.796 -0.964719 1.68543 0
M  V30 4059 C 357.926 -1.35203 3.19902 0
M  V30 4060 C 356.88 -0.782529 4.20786 0
M  V30 4061 C 356.206 -1.95283 4.97764 0
M  V30 4062 C 357.506 0.21999 5.21837 0
M  V30 4063 H 359.2 0.403355 2.96671 0
M  V30 4064 H 356.746 0.195425 1.42668 0
M  V30 4065 H 358.699 -1.90045 3.76113 0
M  V30 4066 H 357.423 -2.06598 2.52953 0
M  V30 4067 H 356.082 -0.255928 3.65706 0
M  V30 4068 H 355.73 -2.65423 4.2727 0
M  V30 4069 H 355.43 -1.57789 5.66018 0
M  V30 4070 H 356.954 -2.50577 5.56816 0
M  V30 4071 H 358.368 -0.23996 5.72798 0
M  V30 4072 H 356.765 0.51026 5.97927 0
M  V30 4073 H 357.835 1.13911 4.7133 0
M  V30 4074 N 359.178 -1.55987 0.224894 0
M  V30 4075 C 360.088 -2.24066 -0.69511 0
M  V30 4076 C 361.104 -1.24939 -1.21104 0
M  V30 4077 O 362.28 -1.5776 -1.25195 0
M  V30 4078 C 359.345 -2.90983 -1.88493 0
M  V30 4079 C 358.406 -4.05462 -1.41064 0
M  V30 4080 C 357.639 -4.69179 -2.54375 0
M  V30 4081 O 357.862 -4.31895 -3.72589 0
M  V30 4082 O 356.796 -5.58108 -2.25386 0
M  V30 4083 H 360.622 -3.03353 -0.145149 0
M  V30 4084 H 358.207 -1.49399 -0.00569476 0
M  V30 4085 H 360.089 -3.33209 -2.57972 0
M  V30 4086 H 358.764 -2.14653 -2.42293 0
M  V30 4087 H 357.671 -3.67798 -0.683774 0
M  V30 4088 H 359.004 -4.83545 -0.918985 0
M  V30 4089 N 360.656 0.0484629 -1.57525 0
M  V30 4090 C 362.072 0.40375 -1.54409 0
M  V30 4091 C 362.272 1.77786 -0.948384 0
M  V30 4092 O 361.328 2.46189 -0.560983 0
M  V30 4093 C 362.641 0.323394 -2.98956 0
M  V30 4094 C 364.189 0.401892 -3.10409 0
M  V30 4095 C 364.664 0.351195 -4.56652 0
M  V30 4096 N 366.155 0.410576 -4.61377 0
M  V30 4097 C 366.89 0.393933 -5.72045 0
M  V30 4098 N 366.386 0.330724 -6.9201 0
M  V30 4099 N 368.179 0.442227 -5.60358 0
M  V30 4100 H 360.33 -0.851016 -1.94606 0
M  V30 4101 H 362.593 -0.321721 -0.89174 0
M  V30 4102 H 362.299 -0.62011 -3.4619 0
M  V30 4103 H 362.173 1.12463 -3.60044 0
M  V30 4104 H 364.56 1.33582 -2.63134 0
M  V30 4105 H 364.641 -0.428342 -2.52188 0
M  V30 4106 H 364.285 -0.578987 -5.04589 0
M  V30 4107 H 364.215 1.19928 -5.12762 0
M  V30 4108 H 366.706 0.462729 -3.75056 0
M  V30 4109 H 367.019 0.322592 -7.72126 0
M  V30 4110 H 365.364 0.29706 -6.94365 0
M  V30 4111 H 368.555 0.489464 -4.65534 0
M  V30 4112 H 368.728 0.425788 -6.466 0
M  V30 4113 N 362.134 1.5431 0.320358 0
M  V30 4114 C 363.064 1.86912 1.3995 0
M  V30 4115 C 364.045 0.726211 1.53819 0
M  V30 4116 O 365.23 0.980233 1.67646 0
M  V30 4117 C 362.36 2.09932 2.7667 0
M  V30 4118 C 361.314 3.25776 2.77586 0
M  V30 4119 C 360.64 3.34173 4.17412 0
M  V30 4120 C 361.94 4.6335 2.41048 0
M  V30 4121 H 363.634 2.77292 1.12914 0
M  V30 4122 H 361.18 1.33421 0.541738 0
M  V30 4123 H 363.133 2.31324 3.52232 0
M  V30 4124 H 361.857 1.16304 3.0519 0
M  V30 4125 H 360.516 3.04276 2.04479 0
M  V30 4126 H 360.164 2.38098 4.43078 0
M  V30 4127 H 359.864 4.12033 4.18931 0
M  V30 4128 H 361.388 3.57803 4.94782 0
M  V30 4129 H 362.802 4.84602 3.06324 0
M  V30 4130 H 361.199 5.43782 2.53813 0
M  V30 4131 H 362.269 4.65381 1.36193 0
M  V30 4132 N 363.613 -0.582584 1.46437 0
M  V30 4133 C 364.545 -1.70618 1.53043 0
M  V30 4134 C 365.558 -1.57322 0.418769 0
M  V30 4135 O 366.747 -1.64744 0.687136 0
M  V30 4136 C 363.847 -3.08869 1.39474 0
M  V30 4137 C 363.02 -3.48166 2.64762 0
M  V30 4138 C 362.079 -4.65478 2.4539 0
M  V30 4139 O 361.105 -4.71333 3.19114 0
M  V30 4140 N 362.307 -5.60365 1.51564 0
M  V30 4141 H 365.072 -1.65405 2.49923 0
M  V30 4142 H 362.633 -0.768567 1.42494 0
M  V30 4143 H 364.625 -3.85143 1.24287 0
M  V30 4144 H 363.195 -3.08449 0.507758 0
M  V30 4145 H 362.415 -2.61598 2.9489 0
M  V30 4146 H 363.703 -3.71188 3.4799 0
M  V30 4147 H 363.101 -5.5837 0.907705 0
M  V30 4148 H 361.658 -6.36068 1.4234 0
M  V30 4149 N 365.091 -1.34144 -0.827227 0
M  V30 4150 C 366.039 -1.25364 -1.95925 0
M  V30 4151 C 367.033 -0.152608 -1.68711 0
M  V30 4152 O 368.239 -0.317311 -1.77181 0
M  V30 4153 H 364.614 -0.389342 -0.643364 0
M  V30 4154 H 366.585 -2.21045 -2.00454 0
M  V30 4155 C 365.334 -1.02158 -3.32354 0
M  V30 4156 H 364.657 -1.86111 -3.5384 0
M  V30 4157 H 366.097 -1.00048 -4.12027 0
M  V30 4158 C 364.556 0.275244 -3.35774 0
M  V30 4159 O 365.086 1.27806 -3.80826 0
M  V30 4160 N 363.292 0.306853 -2.88975 0
M  V30 4161 H 362.839 -0.509777 -2.52506 0
M  V30 4162 H 362.797 1.17432 -2.91646 0
M  V30 4163 N 366.569 1.04691 -1.17803 0
M  V30 4164 C 367.818 1.77176 -0.963931 0
M  V30 4165 C 368.131 1.88888 0.508015 0
M  V30 4166 O 369.337 2.58164 0.840465 0
M  V30 4167 C 367.793 3.18518 -1.67555 0
M  V30 4168 C 367.401 3.14919 -3.18637 0
M  V30 4169 C 369.145 3.95424 -1.54402 0
M  V30 4170 C 367.052 4.51081 -3.82466 0
M  V30 4171 H 365.982 0.664116 -0.357023 0
M  V30 4172 H 368.633 1.17303 -1.4111 0
M  V30 4173 H 367.015 3.78748 -1.15613 0
M  V30 4174 H 368.189 2.64178 -3.77554 0
M  V30 4175 H 366.504 2.51512 -3.31859 0
M  V30 4176 H 369.101 4.96106 -1.99456 0
M  V30 4177 H 369.444 4.13343 -0.495329 0
M  V30 4178 H 369.977 3.41754 -2.0359 0
M  V30 4179 H 366.716 4.38368 -4.87354 0
M  V30 4180 H 366.236 5.01951 -3.28337 0
M  V30 4181 H 367.915 5.2001 -3.84965 0
M  V30 4182 O 368.086 1.10799 1.17498 0
M  V30 4183 H 368.777 0.811108 1.759 0
M  V30 END ATOM
M  V30 BEGIN BOND
M  V30 END BOND
M  V30 END CTAB
M  END
$$$$
