drugbank_target|C0H571 High molecular weight rhoptry protein 2 (DB11638)
 OpenBabel12092121103D

  0  0  0     0  0            999 V3000
M  V30 BEGIN CTAB
M  V30 COUNTS 22940 23196 0 0 0
M  V30 BEGIN ATOM
M  V30 1 H -0.908 1.98254 -0.117106 0
M  V30 2 N 0 1.576 0 0
M  V30 3 C 0.933 2.03868 1.02534 0
M  V30 4 C 1.911 0.928543 1.3348 0
M  V30 5 O 3.095 1.19667 1.45644 0
M  V30 6 C 0.222 2.43627 2.35294 0
M  V30 7 C -0.732 3.65373 2.2001 0
M  V30 8 S 0.101 5.13292 1.52614 0
M  V30 9 C 1.257 5.56322 2.86805 0
M  V30 10 H 1.49 2.90518 0.631377 0
M  V30 11 H -0.977 1.52953 0.210867 0
M  V30 12 H 0.981 2.67203 3.11629 0
M  V30 13 H -0.358 1.57376 2.7183 0
M  V30 14 H -1.165 3.90944 3.18086 0
M  V30 15 H -1.563 3.418 1.51819 0
M  V30 16 H 0.729 5.58782 3.83104 0
M  V30 17 H 1.672 6.56266 2.65933 0
M  V30 18 H 2.08 4.83886 2.90714 0
M  V30 19 N 1.4781 -0.272755 1.55222 0
M  V30 20 C 2.7271 -1.00211 1.75045 0
M  V30 21 C 3.0401 -1.87441 0.559046 0
M  V30 22 O 4.2461 -2.63856 0.639698 0
M  V30 23 C 2.7021 -1.83165 3.09804 0
M  V30 24 C 2.3101 -1.008 4.36513 0
M  V30 25 C 4.0541 -2.55529 3.38977 0
M  V30 26 C 1.9611 -1.83194 5.62311 0
M  V30 27 H 0.8911 -0.377878 0.652476 0
M  V30 28 H 3.5421 -0.257776 1.8168 0
M  V30 29 H 1.9241 -2.61694 2.97207 0
M  V30 30 H 3.0981 -0.266855 4.60027 0
M  V30 31 H 1.4131 -0.398897 4.14485 0
M  V30 32 H 4.0101 -3.17578 4.30172 0
M  V30 33 H 4.3531 -3.25825 2.59121 0
M  V30 34 H 4.8861 -1.84029 3.52673 0
M  V30 35 H 1.6251 -1.17318 6.44916 0
M  V30 36 H 1.1451 -2.54905 5.4294 0
M  V30 37 H 2.8241 -2.40552 6.00619 0
M  V30 38 N 2.9562 -1.48159 -0.537278 0
M  V30 39 C 3.9032 -1.62138 -1.64256 0
M  V30 40 C 4.8732 -0.463668 -1.59497 0
M  V30 41 O 6.0582 -0.686241 -1.78032 0
M  V30 42 C 3.1982 -1.66028 -3.02537 0
M  V30 43 C 2.3112 -2.92855 -3.17585 0
M  V30 44 C 1.4462 -2.87952 -4.46382 0
M  V30 45 C 0.4852 -4.09516 -4.54932 0
M  V30 46 N -0.3778 -4.02733 -5.75109 0
M  V30 47 H 4.4622 -2.56529 -1.51647 0
M  V30 48 H 1.9992 -1.27224 -0.738414 0
M  V30 49 H 3.9572 -1.66265 -3.82638 0
M  V30 50 H 2.5872 -0.751331 -3.13934 0
M  V30 51 H 1.6392 -3.02395 -2.30784 0
M  V30 52 H 2.9512 -3.82822 -3.19764 0
M  V30 53 H 2.1052 -2.8655 -5.34765 0
M  V30 54 H 0.8442 -1.95702 -4.46712 0
M  V30 55 H -0.1508 -4.11201 -3.64957 0
M  V30 56 H 1.0742 -5.02917 -4.56346 0
M  V30 57 H -0.9798 -3.13299 -5.76351 0
M  V30 58 H -1.0628 -4.86397 -5.78752 0
M  V30 59 H 0.2052 -4.05379 -6.65799 0
M  V30 60 N 4.4343 0.785586 -1.36625 0
M  V30 61 C 5.6803 1.54591 -1.31261 0
M  V30 62 C 6.0133 1.93906 0.106823 0
M  V30 63 O 5.2883 1.63007 1.06108 0
M  V30 64 C 5.5713 2.82038 -2.23889 0
M  V30 65 C 5.4243 2.49066 -3.74548 0
M  V30 66 C 6.7433 3.83887 -2.15217 0
M  V30 67 H 3.8623 0.560846 -0.478143 0
M  V30 68 H 6.5043 0.902278 -1.67209 0
M  V30 69 H 4.6543 3.36961 -1.93363 0
M  V30 70 H 6.3263 2.00164 -4.15611 0
M  V30 71 H 4.5693 1.81954 -3.93796 0
M  V30 72 H 5.2403 3.40109 -4.34776 0
M  V30 73 H 7.7163 3.38421 -2.42096 0
M  V30 74 H 6.5923 4.70806 -2.82193 0
M  V30 75 H 6.8533 4.27131 -1.14068 0
M  V30 76 N 5.9124 1.20967 1.01018 0
M  V30 77 C 7.1404 1.04956 1.78303 0
M  V30 78 C 7.5554 -0.400915 1.84494 0
M  V30 79 O 6.9124 -1.27826 1.30257 0
M  V30 80 C 6.9634 1.63403 3.22462 0
M  V30 81 O 6.6844 3.02775 3.16637 0
M  V30 82 C 8.1854 1.52432 4.16268 0
M  V30 83 H 5.4054 0.368858 0.560522 0
M  V30 84 H 7.9494 1.60193 1.27116 0
M  V30 85 H 6.1044 1.1227 3.70775 0
M  V30 86 H 6.5184 3.30626 4.07169 0
M  V30 87 H 7.9924 1.98078 5.15237 0
M  V30 88 H 8.4694 0.477875 4.36592 0
M  V30 89 H 9.0754 2.02787 3.73841 0
M  V30 90 N 7.3905 -1.2043 1.01659 0
M  V30 91 C 8.6395 -1.89118 0.701237 0
M  V30 92 C 8.9525 -1.79705 -0.772358 0
M  V30 93 O 10.1585 -2.43528 -1.20026 0
M  V30 94 C 8.6145 -3.39168 1.20388 0
M  V30 95 C 8.2225 -3.57166 2.70438 0
M  V30 96 C 9.9665 -4.1341 0.963953 0
M  V30 97 C 7.8735 -5.01042 3.14183 0
M  V30 98 H 6.8035 -0.708267 0.2586 0
M  V30 99 H 9.4545 -1.36239 1.22927 0
M  V30 100 H 7.8365 -3.91369 0.603824 0
M  V30 101 H 9.0105 -3.15351 3.35992 0
M  V30 102 H 7.3255 -2.96294 2.92572 0
M  V30 103 H 9.9225 -5.19491 1.26621 0
M  V30 104 H 10.2655 -4.16181 -0.099578 0
M  V30 105 H 10.7985 -3.67309 1.52738 0
M  V30 106 H 7.5375 -5.03426 4.19812 0
M  V30 107 H 7.0575 -5.43668 2.53348 0
M  V30 108 H 8.7365 -5.69623 3.0682 0
M  V30 109 N 8.8686 -0.792821 -1.36206 0
M  V30 110 C 10.1156 -0.366786 -1.99151 0
M  V30 111 C 10.4436 1.06243 -1.62919 0
M  V30 112 O 9.6986 1.74927 -0.877442 0
M  V30 113 C 9.9976 -0.481501 -3.54142 0
M  V30 114 C 9.6636 -1.87202 -4.10203 0
M  V30 115 C 8.3256 -2.25248 -4.25226 0
M  V30 116 C 10.6776 -2.78237 -4.40719 0
M  V30 117 C 8.0056 -3.53723 -4.68078 0
M  V30 118 C 10.3576 -4.06144 -4.85005 0
M  V30 119 C 9.0216 -4.44207 -4.98234 0
M  V30 120 H 8.2916 -0.134217 -0.728743 0
M  V30 121 H 10.9386 -1.01094 -1.62641 0
M  V30 122 H 9.2436 0.246146 -3.91026 0
M  V30 123 H 10.9406 -0.132844 -4.0078 0
M  V30 124 H 7.5306 -1.56639 -3.98951 0
M  V30 125 H 11.7146 -2.50097 -4.28679 0
M  V30 126 H 6.9706 -3.8308 -4.76508 0
M  V30 127 H 11.1446 -4.76796 -5.07581 0
M  V30 128 H 8.7716 -5.43814 -5.31197 0
M  V30 129 N 10.3467 1.47872 -0.545128 0
M  V30 130 C 11.2767 2.32661 0.197793 0
M  V30 131 C 12.2577 1.43041 0.920504 0
M  V30 132 O 13.4427 1.71912 0.90333 0
M  V30 133 C 10.5727 3.24569 1.23582 0
M  V30 134 C 9.5267 4.23333 0.630323 0
M  V30 135 C 8.8527 5.0448 1.77211 0
M  V30 136 C 10.1527 5.20704 -0.407974 0
M  V30 137 H 11.8467 2.95024 -0.510045 0
M  V30 138 H 9.3927 1.4187 -0.246731 0
M  V30 139 H 11.3457 3.8272 1.76362 0
M  V30 140 H 10.0697 2.60236 1.97344 0
M  V30 141 H 8.7287 3.6639 0.123922 0
M  V30 142 H 8.3767 4.36561 2.49847 0
M  V30 143 H 8.0767 5.71339 1.37281 0
M  V30 144 H 9.6007 5.65487 2.3034 0
M  V30 145 H 11.0147 5.7329 0.033305 0
M  V30 146 H 9.4117 5.95699 -0.725486 0
M  V30 147 H 10.4817 4.66917 -1.30828 0
M  V30 148 N 11.8248 0.280983 1.55075 0
M  V30 149 C 12.7548 -0.597469 2.25727 0
M  V30 150 C 13.7358 -1.15417 1.24952 0
M  V30 151 O 14.9208 -1.18722 1.53684 0
M  V30 152 C 12.0508 -1.7789 2.98283 0
M  V30 153 C 11.0048 -1.35347 4.06036 0
M  V30 154 C 10.3308 -2.61846 4.66198 0
M  V30 155 C 11.6308 -0.499354 5.19907 0
M  V30 156 H 13.3248 -0.00824265 2.99399 0
M  V30 157 H 10.8708 -0.0025244 1.44 0
M  V30 158 H 12.8238 -2.39937 3.46422 0
M  V30 159 H 11.5478 -2.39405 2.22155 0
M  V30 160 H 10.2068 -0.756156 3.58717 0
M  V30 161 H 9.8548 -3.21632 3.86732 0
M  V30 162 H 9.5548 -2.3409 5.38958 0
M  V30 163 H 11.0788 -3.24732 5.1709 0
M  V30 164 H 12.4928 -1.02498 5.64063 0
M  V30 165 H 10.8898 -0.316424 5.99265 0
M  V30 166 H 11.9598 0.480459 4.82514 0
M  V30 167 N 13.3029 -1.57598 0.00835791 0
M  V30 168 C 14.2329 -2.1198 -0.979113 0
M  V30 169 C 15.2139 -1.03091 -1.35301 0
M  V30 170 O 16.3989 -1.30818 -1.43528 0
M  V30 171 C 13.5289 -2.62995 -2.26828 0
M  V30 172 C 12.4829 -3.76485 -2.03576 0
M  V30 173 C 11.8089 -4.13846 -3.38579 0
M  V30 174 C 13.1089 -5.0342 -1.39161 0
M  V30 175 H 14.8029 -2.94738 -0.526281 0
M  V30 176 H 12.3489 -1.41783 -0.251704 0
M  V30 177 H 14.3019 -2.99669 -2.96271 0
M  V30 178 H 13.0259 -1.7737 -2.7424 0
M  V30 179 H 11.6849 -3.40217 -1.36557 0
M  V30 180 H 11.3329 -3.25232 -3.83709 0
M  V30 181 H 11.0329 -4.90312 -3.23834 0
M  V30 182 H 12.5569 -4.53086 -4.09323 0
M  V30 183 H 13.9709 -5.37812 -1.98573 0
M  V30 184 H 12.3679 -5.84746 -1.34878 0
M  V30 185 H 13.4379 -4.83548 -0.361868 0
M  V30 186 N 14.781 0.264519 -1.55364 0
M  V30 187 C 16.006 1.01726 -1.80739 0
M  V30 188 C 16.431 1.78836 -0.583044 0
M  V30 189 O 15.789 1.75167 0.467566 0
M  V30 190 C 15.837 1.94482 -3.03659 0
M  V30 191 O 14.941 3.03386 -2.7934 0
M  V30 192 H 14.282 0.290395 -0.597132 0
M  V30 193 H 16.812 0.290854 -2.02522 0
M  V30 194 H 16.822 2.36278 -3.32621 0
M  V30 195 H 15.497 1.37772 -3.92418 0
M  V30 196 H 14.074 2.65844 -2.61498 0
M  V30 197 N 16.2591 1.48442 0.529413 0
M  V30 198 C 17.5081 1.55742 1.28169 0
M  V30 199 C 17.8211 0.236511 1.94165 0
M  V30 200 O 19.0271 0.187761 2.7085 0
M  V30 201 C 17.4831 2.74667 2.32564 0
M  V30 202 C 17.0911 4.13402 1.72636 0
M  V30 203 C 18.8351 2.9128 3.08798 0
M  V30 204 C 16.7421 5.23587 2.74975 0
M  V30 205 H 15.6721 0.579796 0.48203 0
M  V30 206 H 18.3231 1.74776 0.559056 0
M  V30 207 H 16.7051 2.49067 3.07866 0
M  V30 208 H 17.8791 4.49022 1.03519 0
M  V30 209 H 16.1941 4.0191 1.08892 0
M  V30 210 H 18.7911 3.70767 3.85274 0
M  V30 211 H 19.1341 2.00757 3.64695 0
M  V30 212 H 19.6671 3.16782 2.40611 0
M  V30 213 H 16.4061 6.16076 2.23897 0
M  V30 214 H 15.9261 4.92454 3.42417 0
M  V30 215 H 17.6051 5.51724 3.37949 0
M  V30 216 N 17.7372 -0.778329 1.37039 0
M  V30 217 C 18.9842 -1.53665 1.31884 0
M  V30 218 C 19.3122 -1.9425 -0.0986303 0
M  V30 219 O 18.5672 -1.63832 -1.07041 0
M  V30 220 C 18.8662 -2.81845 2.19768 0
M  V30 221 C 18.5322 -2.60345 3.68146 0
M  V30 222 C 17.1942 -2.5419 4.08584 0
M  V30 223 C 19.5462 -2.40923 4.62175 0
M  V30 224 C 16.8742 -2.26594 5.41177 0
M  V30 225 C 19.2262 -2.14852 5.94997 0
M  V30 226 C 17.8902 -2.07137 6.34547 0
M  V30 227 H 17.1602 -0.562299 0.482598 0
M  V30 228 H 19.8072 -0.897069 1.69189 0
M  V30 229 H 18.1122 -3.50328 1.75436 0
M  V30 230 H 19.8092 -3.39692 2.13097 0
M  V30 231 H 16.3992 -2.65996 3.36072 0
M  V30 232 H 20.5832 -2.44673 4.31797 0
M  V30 233 H 15.8392 -2.19111 5.70789 0
M  V30 234 H 20.0132 -1.98822 6.67415 0
M  V30 235 H 17.6402 -1.85518 7.37216 0
M  V30 236 N 19.2153 -1.21501 -1.00376 0
M  V30 237 C 20.4403 -1.05977 -1.78279 0
M  V30 238 C 20.8653 0.385994 -1.84097 0
M  V30 239 O 20.2233 1.27849 -1.28547 0
M  V30 240 C 20.2713 -1.66302 -3.19963 0
M  V30 241 O 19.3753 -0.909333 -4.0225 0
M  V30 242 H 18.7163 -0.372906 -0.549397 0
M  V30 243 H 21.2463 -1.6107 -1.26165 0
M  V30 244 H 21.2563 -1.70574 -3.70632 0
M  V30 245 H 19.9313 -2.71515 -3.15043 0
M  V30 246 H 18.5083 -0.941795 -3.60811 0
M  V30 247 N 20.6934 1.19889 -1.02296 0
M  V30 248 C 21.9404 1.8942 -0.715972 0
M  V30 249 C 22.2684 1.79251 0.754944 0
M  V30 250 O 21.5234 1.17526 1.56481 0
M  V30 251 C 21.8224 3.39883 -1.10518 0
M  V30 252 C 21.4884 3.70254 -2.57337 0
M  V30 253 C 20.1504 3.78254 -2.97452 0
M  V30 254 C 22.5024 3.84052 -3.52354 0
M  V30 255 C 19.8304 3.97514 -4.31509 0
M  V30 256 C 22.1824 4.04824 -4.86108 0
M  V30 257 C 20.8464 4.11054 -5.25919 0
M  V30 258 H 20.1164 0.693138 -0.261993 0
M  V30 259 H 22.7634 1.42012 -1.28472 0
M  V30 260 H 21.0684 3.8915 -0.454953 0
M  V30 261 H 22.7654 3.9199 -0.845261 0
M  V30 262 H 19.3554 3.64632 -2.25258 0
M  V30 263 H 23.5394 3.77221 -3.22518 0
M  V30 264 H 18.7954 4.00574 -4.61898 0
M  V30 265 H 22.9694 4.14442 -5.59653 0
M  V30 266 H 20.5964 4.2573 -6.29808 0
M  V30 267 N 22.1715 0.800033 1.35784 0
M  V30 268 C 23.1195 0.193851 2.31791 0
M  V30 269 C 24.1135 -0.652744 1.56319 0
M  V30 270 O 25.3195 -0.546641 1.71499 0
M  V30 271 H 21.6945 0.04392 0.750716 0
M  V30 272 H 23.6655 1.01883 2.80468 0
M  V30 273 C 22.4145 -0.648338 3.41602 0
M  V30 274 H 21.7375 -0.00624665 3.998 0
M  V30 275 H 23.1775 -1.03898 4.11073 0
M  V30 276 C 21.6365 -1.8111 2.84079 0
M  V30 277 O 22.1665 -2.90825 2.77099 0
M  V30 278 N 20.3725 -1.62056 2.41218 0
M  V30 279 H 19.9195 -0.728123 2.47095 0
M  V30 280 H 19.8775 -2.40013 2.03079 0
M  V30 281 N 23.6496 -1.47581 0.552962 0
M  V30 282 C 24.5796 -2.32762 -0.185451 0
M  V30 283 C 25.5606 -1.43527 -0.912905 0
M  V30 284 O 26.7456 -1.72388 -0.894201 0
M  V30 285 C 23.8756 -3.25219 -1.21859 0
M  V30 286 C 22.8296 -4.23661 -0.607864 0
M  V30 287 C 22.1556 -5.05413 -1.74533 0
M  V30 288 C 23.4556 -5.20481 0.435582 0
M  V30 289 H 25.1496 -2.94749 0.525684 0
M  V30 290 H 22.6956 -1.41738 0.254251 0
M  V30 291 H 24.6486 -3.8365 -1.7433 0
M  V30 292 H 23.3726 -2.61279 -1.95961 0
M  V30 293 H 22.0316 -3.66451 -0.104489 0
M  V30 294 H 21.6796 -4.3788 -2.47529 0
M  V30 295 H 21.3796 -5.72059 -1.34249 0
M  V30 296 H 22.9036 -5.66701 -2.27338 0
M  V30 297 H 24.3176 -5.733 -0.00290157 0
M  V30 298 H 22.7146 -5.95305 0.757067 0
M  V30 299 H 23.7846 -4.66217 1.33303 0
M  V30 300 N 25.1277 -0.289203 -1.54924 0
M  V30 301 C 26.3577 0.325989 -2.04012 0
M  V30 302 C 26.7657 1.48961 -1.1665 0
M  V30 303 O 26.1087 1.82794 -0.1822 0
M  V30 304 C 26.1707 0.856112 -3.49158 0
M  V30 305 C 25.8347 -0.180697 -4.56643 0
M  V30 306 C 26.8317 -1.0051 -5.10092 0
M  V30 307 C 24.5167 -0.318998 -5.01286 0
M  V30 308 C 26.5107 -1.95385 -6.06715 0
M  V30 309 C 24.1977 -1.27121 -5.97732 0
M  V30 310 C 25.1957 -2.08713 -6.50329 0
M  V30 311 O 24.8837 -3.02322 -7.44887 0
M  V30 312 H 24.6157 0.0765276 -0.671654 0
M  V30 313 H 27.1697 -0.423254 -2.00992 0
M  V30 314 H 25.3997 1.65567 -3.49463 0
M  V30 315 H 27.0887 1.38591 -3.81507 0
M  V30 316 H 27.8547 -0.90906 -4.76404 0
M  V30 317 H 23.7337 0.306108 -4.59983 0
M  V30 318 H 27.2777 -2.59111 -6.47694 0
M  V30 319 H 23.1747 -1.36801 -6.30837 0
M  V30 320 H 23.9427 -2.97165 -7.6265 0
M  V30 321 N 26.6058 1.57591 -0.0167156 0
M  V30 322 C 27.8538 1.90906 0.663285 0
M  V30 323 C 28.1748 0.892509 1.73376 0
M  V30 324 O 27.4448 -0.0677623 1.95783 0
M  V30 325 H 26.0248 0.704637 0.247983 0
M  V30 326 H 28.6868 1.94803 -0.0615909 0
M  V30 327 H 27.7828 2.9116 1.12393 0
M  V30 328 N 28.0839 -0.256276 1.55502 0
M  V30 329 C 29.0139 -1.32102 1.92539 0
M  V30 330 C 29.9949 -1.50684 0.789194 0
M  V30 331 O 31.1799 -1.63449 1.04872 0
M  V30 332 C 28.3099 -2.67752 2.21192 0
M  V30 333 C 27.2639 -2.63878 3.36975 0
M  V30 334 C 26.5899 -4.03236 3.51147 0
M  V30 335 C 27.8899 -2.21682 4.72921 0
M  V30 336 H 29.5839 -1.01351 2.81724 0
M  V30 337 H 27.1299 -0.486105 1.35547 0
M  V30 338 H 29.0829 -3.42365 2.45691 0
M  V30 339 H 27.8069 -3.0012 1.28824 0
M  V30 340 H 26.4659 -1.91722 3.12471 0
M  V30 341 H 26.1139 -4.32854 2.56216 0
M  V30 342 H 25.8139 -4.01535 4.29003 0
M  V30 343 H 27.3379 -4.79563 3.77957 0
M  V30 344 H 28.7519 -2.86023 4.96854 0
M  V30 345 H 27.1489 -2.3111 5.53812 0
M  V30 346 H 28.2189 -1.16833 4.70615 0
M  V30 347 N 29.562 -1.4872 -0.521534 0
M  V30 348 C 30.472 -1.66569 -1.65203 0
M  V30 349 C 31.488 -0.548197 -1.65139 0
M  V30 350 O 32.664 -0.820339 -1.83936 0
M  V30 351 C 29.729 -1.70917 -3.01642 0
M  V30 352 C 28.79 -2.94356 -3.12495 0
M  V30 353 C 28.023 -2.98487 -4.42426 0
M  V30 354 O 28.246 -2.10786 -5.30024 0
M  V30 355 O 27.18 -3.90746 -4.57822 0
M  V30 356 H 31.006 -2.62298 -1.5308 0
M  V30 357 H 28.591 -1.3222 -0.695565 0
M  V30 358 H 30.473 -1.7625 -3.82771 0
M  V30 359 H 29.148 -0.783633 -3.14071 0
M  V30 360 H 28.055 -2.94552 -2.3063 0
M  V30 361 H 29.388 -3.86322 -3.04986 0
M  V30 362 N 31.0401 0.771051 -1.3745 0
M  V30 363 C 31.9701 1.89827 -1.3597 0
M  V30 364 C 32.9511 1.68562 -0.228216 0
M  V30 365 O 34.1361 1.8941 -0.428675 0
M  V30 366 C 31.2661 3.2712 -1.16662 0
M  V30 367 C 30.2201 3.6295 -2.2683 0
M  V30 368 C 29.5461 4.98791 -1.92644 0
M  V30 369 C 30.8461 3.69627 -3.69017 0
M  V30 370 H 32.5401 1.91323 -2.30295 0
M  V30 371 H 30.0861 0.919082 -1.10855 0
M  V30 372 H 32.0391 4.05615 -1.14256 0
M  V30 373 H 30.7631 3.26059 -0.187926 0
M  V30 374 H 29.4221 2.86763 -2.28392 0
M  V30 375 H 29.0701 4.94271 -0.933021 0
M  V30 376 H 28.7701 5.23733 -2.66416 0
M  V30 377 H 30.2941 5.79685 -1.91826 0
M  V30 378 H 31.7081 4.38273 -3.69581 0
M  V30 379 H 30.1051 4.06067 -4.41848 0
M  V30 380 H 31.1751 2.70273 -4.02592 0
M  V30 381 N 32.5182 1.22032 0.997298 0
M  V30 382 C 33.4662 0.983634 2.10778 0
M  V30 383 C 34.4602 -0.0717564 1.69248 0
M  V30 384 O 35.6662 0.080304 1.79821 0
M  V30 385 H 32.0412 0.300877 0.689186 0
M  V30 386 H 34.0122 1.92606 2.27916 0
M  V30 387 C 32.7612 0.57326 3.42942 0
M  V30 388 H 32.0842 1.37702 3.75338 0
M  V30 389 H 33.5242 0.447031 4.21637 0
M  V30 390 C 31.9832 -0.7167 3.29188 0
M  V30 391 O 32.5132 -1.77027 3.60589 0
M  V30 392 N 30.7192 -0.686167 2.82383 0
M  V30 393 H 30.2662 0.171507 2.57028 0
M  V30 394 H 30.2242 -1.54955 2.73562 0
M  V30 395 N 33.9963 -1.19345 1.0293 0
M  V30 396 C 34.9063 -2.26245 0.620515 0
M  V30 397 C 35.9223 -1.70486 -0.347928 0
M  V30 398 O 37.0983 -2.00347 -0.205704 0
M  V30 399 C 34.1633 -3.46693 -0.0218957 0
M  V30 400 C 33.2243 -4.17632 0.994102 0
M  V30 401 C 32.4573 -5.32329 0.382253 0
M  V30 402 O 32.6803 -5.64552 -0.814676 0
M  V30 403 O 31.6143 -5.91664 1.10531 0
M  V30 404 H 35.4403 -2.63453 1.51083 0
M  V30 405 H 33.0253 -1.26207 0.799513 0
M  V30 406 H 34.9073 -4.19683 -0.380072 0
M  V30 407 H 33.5823 -3.11333 -0.886209 0
M  V30 408 H 32.4893 -3.4676 1.40387 0
M  V30 409 H 33.8223 -4.56964 1.8288 0
M  V30 410 N 35.4744 -0.807222 -1.35358 0
M  V30 411 C 36.4214 -0.216037 -2.29787 0
M  V30 412 C 37.3914 0.650278 -1.52842 0
M  V30 413 O 38.5764 0.595227 -1.81278 0
M  V30 414 C 35.7164 0.628893 -3.39321 0
M  V30 415 C 34.8294 -0.257927 -4.31229 0
M  V30 416 C 33.9644 0.595069 -5.27856 0
M  V30 417 C 33.0034 -0.292111 -6.11403 0
M  V30 418 N 32.1404 0.520895 -7.00165 0
M  V30 419 H 36.9804 -1.02671 -2.79755 0
M  V30 420 H 34.5174 -0.517839 -1.37684 0
M  V30 421 H 36.4754 1.13393 -4.01494 0
M  V30 422 H 35.1054 1.40482 -2.90628 0
M  V30 423 H 34.1574 -0.881076 -3.70056 0
M  V30 424 H 35.4694 -0.940759 -4.89848 0
M  V30 425 H 34.6234 1.16522 -5.95405 0
M  V30 426 H 33.3624 1.31146 -4.69736 0
M  V30 427 H 32.3674 -0.874525 -5.428 0
M  V30 428 H 33.5924 -1.00638 -6.71602 0
M  V30 429 H 31.5384 1.22125 -6.44532 0
M  V30 430 H 31.4554 -0.103877 -7.55929 0
M  V30 431 H 32.7234 1.0743 -7.72062 0
M  V30 432 N 36.9525 1.47285 -0.560781 0
M  V30 433 C 38.1985 2.02764 -0.0381184 0
M  V30 434 C 38.5315 1.43384 1.30976 0
M  V30 435 O 37.8065 0.590733 1.85312 0
M  V30 436 C 38.0895 3.60064 0.0511427 0
M  V30 437 C 37.9425 4.2987 -1.32408 0
M  V30 438 C 39.2615 4.33439 0.762795 0
M  V30 439 H 36.3805 0.736841 -0.0153264 0
M  V30 440 H 39.0225 1.75675 -0.723759 0
M  V30 441 H 37.1725 3.83274 0.635065 0
M  V30 442 H 38.8445 4.17989 -1.95148 0
M  V30 443 H 37.0875 3.90085 -1.8978 0
M  V30 444 H 37.7585 5.38478 -1.21431 0
M  V30 445 H 40.2345 4.15243 0.266965 0
M  V30 446 H 39.1105 5.43124 0.794221 0
M  V30 447 H 39.3715 4.02915 1.81966 0
M  V30 448 N 38.4306 0.297415 1.54768 0
M  V30 449 C 39.6556 -0.318435 2.04941 0
M  V30 450 C 40.0806 -1.4701 1.17345 0
M  V30 451 O 39.4386 -1.80436 0.176758 0
M  V30 452 C 39.4866 -0.755749 3.52592 0
M  V30 453 O 38.5906 -1.86088 3.68028 0
M  V30 454 H 37.9316 -0.062421 0.661059 0
M  V30 455 H 40.4616 0.438215 1.99852 0
M  V30 456 H 40.4716 -1.04552 3.94376 0
M  V30 457 H 39.1466 0.0867233 4.1581 0
M  V30 458 H 37.7236 -1.57193 3.38149 0
M  V30 459 N 39.9087 -1.5758 0.0250728 0
M  V30 460 C 41.1577 -1.90811 -0.653767 0
M  V30 461 C 41.4707 -0.90273 -1.73523 0
M  V30 462 O 42.6767 -1.12614 -2.47043 0
M  V30 463 C 41.1327 -3.38804 -1.21409 0
M  V30 464 C 40.7407 -4.47692 -0.166126 0
M  V30 465 C 42.4847 -3.81108 -1.86967 0
M  V30 466 C 40.3917 -5.86779 -0.737856 0
M  V30 467 H 39.3217 -0.712063 -0.247956 0
M  V30 468 H 41.9727 -1.83281 0.0897137 0
M  V30 469 H 40.3547 -3.41252 -2.00905 0
M  V30 470 H 41.5287 -4.56797 0.606079 0
M  V30 471 H 39.8437 -4.14565 0.390466 0
M  V30 472 H 42.4407 -4.82375 -2.30692 0
M  V30 473 H 42.7837 -3.15953 -2.71071 0
M  V30 474 H 43.3167 -3.81065 -1.14167 0
M  V30 475 H 40.0557 -6.55468 0.0649577 0
M  V30 476 H 39.5757 -5.81288 -1.47864 0
M  V30 477 H 41.2547 -6.35223 -1.22884 0
M  V30 478 N 41.3868 0.248026 -1.55636 0
M  V30 479 C 42.3338 1.30707 -1.90222 0
M  V30 480 C 43.3038 1.47881 -0.756332 0
M  V30 481 O 44.4888 1.61883 -1.00988 0
M  V30 482 C 41.6288 2.65769 -2.20138 0
M  V30 483 C 40.7418 2.56612 -3.47526 0
M  V30 484 C 39.8768 3.8402 -3.67017 0
M  V30 485 C 38.9158 3.69476 -4.8801 0
M  V30 486 N 38.0528 4.88774 -5.04029 0
M  V30 487 H 42.8928 1.00512 -2.80538 0
M  V30 488 H 40.4298 0.485055 -1.38873 0
M  V30 489 H 42.3878 3.44386 -2.35487 0
M  V30 490 H 41.0178 2.94115 -1.33027 0
M  V30 491 H 40.0698 1.69571 -3.40514 0
M  V30 492 H 41.3818 2.41774 -4.36287 0
M  V30 493 H 40.5358 4.7108 -3.8232 0
M  V30 494 H 39.2748 4.01754 -2.76487 0
M  V30 495 H 38.2798 2.80799 -4.72686 0
M  V30 496 H 39.5048 3.53238 -5.8 0
M  V30 497 H 37.4508 5.0687 -4.16435 0
M  V30 498 H 37.3678 4.76562 -5.86877 0
M  V30 499 H 38.6358 5.77335 -5.23741 0
M  V30 500 N 42.8649 1.48995 0.513639 0
M  V30 501 C 44.0949 1.61297 1.291 0
M  V30 502 C 44.5029 0.278656 1.87137 0
M  V30 503 O 43.8459 -0.744325 1.67945 0
M  V30 504 C 43.9079 2.61326 2.46879 0
M  V30 505 C 43.5719 4.05993 2.09807 0
M  V30 506 C 44.5689 4.93183 1.64519 0
M  V30 507 C 42.2539 4.51642 2.19829 0
M  V30 508 C 44.2479 6.24056 1.2974 0
M  V30 509 C 41.9349 5.82532 1.84662 0
M  V30 510 C 42.9329 6.68562 1.3969 0
M  V30 511 O 42.6209 7.97014 1.04992 0
M  V30 512 H 42.3529 0.546236 0.39825 0
M  V30 513 H 44.9069 1.95673 0.62459 0
M  V30 514 H 43.1369 2.22104 3.16554 0
M  V30 515 H 44.8259 2.6329 3.08923 0
M  V30 516 H 45.5919 4.59147 1.56233 0
M  V30 517 H 41.4709 3.84855 2.53786 0
M  V30 518 H 45.0149 6.91161 0.945659 0
M  V30 519 H 40.9119 6.16099 1.92594 0
M  V30 520 H 41.6799 8.09913 1.18249 0
M  V30 521 N 44.343 -0.763751 1.37857 0
M  V30 522 C 45.591 -1.51957 1.33243 0
M  V30 523 C 45.912 -1.94835 -0.0801709 0
M  V30 524 O 45.182 -1.66894 -1.02582 0
M  V30 525 H 43.762 -0.563626 0.49024 0
M  V30 526 H 46.424 -0.908504 1.7243 0
M  V30 527 H 45.52 -2.41523 1.97669 0
M  V30 528 N 45.8211 -1.22559 -0.990812 0
M  V30 529 C 46.7841 -0.998863 -2.0629 0
M  V30 530 C 47.7841 0.0354834 -1.60761 0
M  V30 531 O 48.9741 -0.203231 -1.7301 0
M  V30 532 C 46.1061 -0.509203 -3.37076 0
M  V30 533 H 47.2991 -1.95014 -2.27837 0
M  V30 534 H 44.8521 -1.04456 -1.16269 0
M  V30 535 H 45.5871 0.446335 -3.21214 0
M  V30 536 H 45.3721 -1.25547 -3.71457 0
M  V30 537 H 46.8621 -0.370888 -4.1595 0
M  V30 538 N 47.2992 1.18797 -1.03562 0
M  V30 539 C 48.2092 2.25913 -0.632505 0
M  V30 540 C 49.2252 1.70668 0.338882 0
M  V30 541 O 50.4012 2.00453 0.195076 0
M  V30 542 C 47.4662 3.467 0.00350942 0
M  V30 543 C 46.5272 4.17098 -1.01624 0
M  V30 544 C 45.7602 5.32119 -0.410478 0
M  V30 545 O 45.9832 5.64976 0.784725 0
M  V30 546 O 44.9172 5.9107 -1.13667 0
M  V30 547 H 48.7432 2.62648 -1.52478 0
M  V30 548 H 46.3282 1.25781 -0.806195 0
M  V30 549 H 48.2102 4.19878 0.35781 0
M  V30 550 H 46.8852 3.11798 0.869686 0
M  V30 551 H 45.7922 3.4601 -1.42224 0
M  V30 552 H 47.1252 4.55987 -1.85301 0
M  V30 553 N 48.7773 0.814389 1.34928 0
M  V30 554 C 49.7093 0.187834 2.28429 0
M  V30 555 C 50.7223 -0.617374 1.5064 0
M  V30 556 O 51.9113 -0.448454 1.72775 0
M  V30 557 C 49.0113 -0.755962 3.30361 0
M  V30 558 C 48.1843 0.00456686 4.374 0
M  V30 559 C 47.2433 -0.858876 5.19143 0
M  V30 560 O 46.2693 -0.306968 5.68372 0
M  V30 561 N 47.4713 -2.17988 5.38016 0
M  V30 562 H 50.2363 0.991105 2.82838 0
M  V30 563 H 47.7973 0.670561 1.4736 0
M  V30 564 H 49.7893 -1.338 3.81942 0
M  V30 565 H 48.3593 -1.46001 2.7641 0
M  V30 566 H 47.5793 0.767865 3.86649 0
M  V30 567 H 48.8673 0.528422 5.06049 0
M  V30 568 H 48.2653 -2.65212 4.99679 0
M  V30 569 H 46.8223 -2.71098 5.92747 0
M  V30 570 N 50.2554 -1.46986 0.568584 0
M  V30 571 C 51.5034 -2.02041 0.0487022 0
M  V30 572 C 51.8244 -1.44408 -1.31039 0
M  V30 573 O 51.0944 -0.623477 -1.85714 0
M  V30 574 H 49.6744 -0.746849 0.015014 0
M  V30 575 H 52.3364 -1.80257 0.741168 0
M  V30 576 H 51.4324 -3.12085 -0.0308961 0
M  V30 577 N 51.7335 -0.305618 -1.54608 0
M  V30 578 C 52.9795 0.302746 -2.00528 0
M  V30 579 C 53.3125 1.53184 -1.19367 0
M  V30 580 O 52.5875 1.92598 -0.271321 0
M  V30 581 C 52.8705 0.654756 -3.54097 0
M  V30 582 C 52.7235 -0.583793 -4.45995 0
M  V30 583 C 54.0425 1.47947 -4.14487 0
M  V30 584 H 51.1615 0.108564 -0.72896 0
M  V30 585 H 53.8035 -0.418634 -1.85331 0
M  V30 586 H 51.9535 1.26935 -3.67178 0
M  V30 587 H 53.6255 -1.22224 -4.44814 0
M  V30 588 H 51.8685 -1.21615 -4.16404 0
M  V30 589 H 52.5395 -0.293287 -5.5122 0
M  V30 590 H 55.0155 0.96013 -4.04871 0
M  V30 591 H 53.8915 1.69454 -5.22088 0
M  V30 592 H 54.1525 2.47011 -3.66658 0
M  V30 593 N 53.2116 1.57565 -0.0334293 0
M  V30 594 C 54.4596 1.91598 0.642999 0
M  V30 595 C 54.7806 0.910847 1.7242 0
M  V30 596 O 54.0506 -0.0469931 1.95844 0
M  V30 597 H 52.6306 0.707228 0.240496 0
M  V30 598 H 55.2926 1.94726 -0.0822488 0
M  V30 599 H 54.3886 2.92336 1.09298 0
M  V30 600 N 54.6897 -0.239769 1.55765 0
M  V30 601 C 55.9147 -0.988373 1.82335 0
M  V30 602 C 56.3397 -1.77886 0.611421 0
M  V30 603 O 55.6977 -1.75889 -0.439639 0
M  V30 604 C 55.7457 -1.89627 3.06715 0
M  V30 605 O 54.8497 -2.98904 2.84131 0
M  V30 606 H 54.1907 -0.280858 0.601677 0
M  V30 607 H 56.7207 -0.258597 2.02959 0
M  V30 608 H 56.7307 -2.30957 3.36338 0
M  V30 609 H 55.4057 -1.31511 3.9456 0
M  V30 610 H 53.9827 -2.61651 2.65694 0
M  V30 611 N 56.1678 -1.49265 -0.50573 0
M  V30 612 C 57.1308 -1.65075 -1.59006 0
M  V30 613 C 58.1308 -0.522768 -1.52065 0
M  V30 614 O 59.3208 -0.789117 -1.55302 0
M  V30 615 C 56.4528 -1.64369 -2.98656 0
M  V30 616 H 57.6458 -2.61784 -1.46319 0
M  V30 617 H 55.1988 -1.38226 -0.729616 0
M  V30 618 H 55.9338 -0.692272 -3.16825 0
M  V30 619 H 55.7188 -2.46282 -3.05103 0
M  V30 620 H 57.2088 -1.78674 -3.77446 0
M  V30 621 N 57.6459 0.756429 -1.3826 0
M  V30 622 C 58.9229 1.50584 -1.24835 0
M  V30 623 C 59.3029 2.10556 0.151485 0
M  V30 624 O 58.6509 1.96825 1.1607 0
M  V30 625 C 58.8609 2.57448 -2.3563 0
M  V30 626 C 60.2089 3.24429 -2.73917 0
M  V30 627 O 61.2329 2.67751 -2.34921 0
M  V30 628 O 60.0919 4.26937 -3.41156 0
M  V30 629 H 57.1859 0.667664 -0.48801 0
M  V30 630 H 59.7319 0.792083 -1.5008 0
M  V30 631 H 58.5039 2.11362 -3.29305 0
M  V30 632 H 58.1269 3.36408 -2.11933 0
M  V30 633 N 59.124 1.23083 0.984299 0
M  V30 634 C 60.349 1.088 1.76571 0
M  V30 635 C 60.774 -0.356657 1.84688 0
M  V30 636 O 60.132 -1.25788 1.30565 0
M  V30 637 C 60.18 1.71371 3.17277 0
M  V30 638 O 59.284 0.973213 4.00752 0
M  V30 639 H 58.625 0.381599 0.543395 0
M  V30 640 H 61.155 1.63057 1.23587 0
M  V30 641 H 61.165 1.76449 3.67872 0
M  V30 642 H 59.84 2.76493 3.10684 0
M  V30 643 H 58.417 0.999078 3.59267 0
M  V30 644 N 60.6021 -1.18246 1.0419 0
M  V30 645 C 61.5501 -2.23968 0.627792 0
M  V30 646 C 62.5441 -1.65828 -0.346019 0
M  V30 647 O 63.7501 -1.78733 -0.213175 0
M  V30 648 H 60.1251 -0.728939 0.184802 0
M  V30 649 H 62.0961 -2.56202 1.52981 0
M  V30 650 C 60.8451 -3.47699 0.00796591 0
M  V30 651 H 60.1681 -3.92734 0.748347 0
M  V30 652 H 61.6081 -4.23294 -0.24455 0
M  V30 653 C 60.0671 -3.13153 -1.24246 0
M  V30 654 O 60.5971 -3.27003 -2.33307 0
M  V30 655 N 58.8031 -2.67467 -1.13622 0
M  V30 656 H 58.3501 -2.56396 -0.248734 0
M  V30 657 H 58.3081 -2.44724 -1.97377 0
M  V30 658 N 62.0802 -0.821533 -1.34494 0
M  V30 659 C 63.3082 -0.421884 -2.02553 0
M  V30 660 C 63.7232 0.971745 -1.61872 0
M  V30 661 O 63.0802 1.62864 -0.823496 0
M  V30 662 C 63.1312 -0.51285 -3.57844 0
M  V30 663 O 62.8522 -1.85155 -3.97051 0
M  V30 664 C 64.3532 -0.107921 -4.43169 0
M  V30 665 H 61.5732 -0.169482 -0.649243 0
M  V30 666 H 64.1172 -1.1093 -1.71798 0
M  V30 667 H 62.2722 0.126474 -3.87193 0
M  V30 668 H 62.6862 -1.82482 -4.91732 0
M  V30 669 H 64.1602 -0.222657 -5.51551 0
M  V30 670 H 64.6372 0.948401 -4.28838 0
M  V30 671 H 65.2432 -0.720989 -4.19144 0
M  V30 672 N 63.5583 1.46682 -0.576371 0
M  V30 673 C 64.5053 2.30241 0.160499 0
M  V30 674 C 65.4753 1.40233 0.890162 0
M  V30 675 O 66.6603 1.69186 0.882084 0
M  V30 676 C 63.8003 3.24578 1.1723 0
M  V30 677 C 62.9133 4.29684 0.446736 0
M  V30 678 C 62.0483 5.11154 1.44551 0
M  V30 679 C 61.0873 6.08015 0.70599 0
M  V30 680 N 60.2243 6.82376 1.65251 0
M  V30 681 H 65.0643 2.92727 -0.558127 0
M  V30 682 H 62.6013 1.44272 -0.287056 0
M  V30 683 H 64.5593 3.77711 1.77172 0
M  V30 684 H 63.1893 2.63916 1.85872 0
M  V30 685 H 62.2413 3.79458 -0.267594 0
M  V30 686 H 63.5533 4.98626 -0.131686 0
M  V30 687 H 62.7073 5.68533 2.11791 0
M  V30 688 H 61.4463 4.42158 2.05786 0
M  V30 689 H 60.4513 5.49796 0.0197725 0
M  V30 690 H 61.6763 6.79028 0.09912 0
M  V30 691 H 59.6223 6.16094 2.25308 0
M  V30 692 H 59.5393 7.47556 1.12673 0
M  V30 693 H 60.8073 7.44316 2.31546 0
M  V30 694 N 65.0364 0.313813 1.54444 0
M  V30 695 C 65.9664 -0.549454 2.26943 0
M  V30 696 C 66.9474 -1.12741 1.27372 0
M  V30 697 O 68.1324 -1.15436 1.56167 0
M  V30 698 C 65.2624 -1.71523 3.01989 0
M  V30 699 C 64.2164 -1.26703 4.08816 0
M  V30 700 C 63.5424 -2.51898 4.71647 0
M  V30 701 C 64.8424 -0.388962 5.2085 0
M  V30 702 H 66.5364 0.0552661 2.99349 0
M  V30 703 H 64.0824 0.0280207 1.43973 0
M  V30 704 H 66.0354 -2.32535 3.51433 0
M  V30 705 H 64.7594 -2.34639 2.27183 0
M  V30 706 H 63.4184 -0.679896 3.6024 0
M  V30 707 H 63.0664 -3.13356 3.93468 0
M  V30 708 H 62.7664 -2.22605 5.43802 0
M  V30 709 H 64.2904 -3.1369 5.23861 0
M  V30 710 H 65.7044 -0.905107 5.6611 0
M  V30 711 H 64.1014 -0.18924 5.99802 0
M  V30 712 H 65.1714 0.582699 4.81386 0
M  V30 713 N 66.5145 -1.57545 0.0417849 0
M  V30 714 C 67.7545 -1.94185 -0.63809 0
M  V30 715 C 68.1185 -0.919339 -1.68559 0
M  V30 716 O 69.3195 -1.17236 -2.41886 0
M  V30 717 C 67.5905 -3.35672 -1.22714 0
M  V30 718 S 69.1495 -3.94256 -1.92633 0
M  V30 719 H 65.9675 -0.679353 -0.209764 0
M  V30 720 H 68.5695 -1.95199 0.108479 0
M  V30 721 H 67.2735 -4.07898 -0.452503 0
M  V30 722 H 66.8045 -3.38132 -2.01073 0
M  V30 723 H 68.8195 -3.7872 -3.20602 0
M  V30 724 N 67.9926 0.231505 -1.5589 0
M  V30 725 C 69.2176 0.978689 -1.82856 0
M  V30 726 C 69.6426 1.77559 -0.620846 0
M  V30 727 O 69.0006 1.76119 0.430305 0
M  V30 728 C 69.0486 1.87997 -3.07716 0
M  V30 729 O 68.1526 2.97393 -2.85712 0
M  V30 730 H 67.4936 0.277663 -0.603158 0
M  V30 731 H 70.0236 0.24783 -2.03093 0
M  V30 732 H 70.0336 2.2917 -3.37558 0
M  V30 733 H 68.7086 1.29417 -3.95252 0
M  V30 734 H 67.2856 2.60238 -2.67078 0
M  V30 735 N 69.4707 1.49531 0.497807 0
M  V30 736 C 70.7477 1.49682 1.25915 0
M  V30 737 C 71.1277 0.226339 2.09883 0
M  V30 738 O 70.4757 -0.791189 2.14365 0
M  V30 739 C 70.6857 2.77755 2.11313 0
M  V30 740 C 72.0337 3.27371 2.70395 0
M  V30 741 O 73.0577 2.78894 2.21578 0
M  V30 742 O 71.9167 4.11808 3.59272 0
M  V30 743 H 69.0107 0.599228 0.56996 0
M  V30 744 H 71.5567 1.61798 0.511816 0
M  V30 745 H 70.3287 3.61713 1.49264 0
M  V30 746 H 69.9517 2.68515 2.93233 0
M  V30 747 N 70.9488 -0.749086 1.3866 0
M  V30 748 C 72.1978 -1.50371 1.3443 0
M  V30 749 C 72.5108 -1.95503 -0.0616397 0
M  V30 750 O 73.7168 -2.70554 -0.226489 0
M  V30 751 C 72.1728 -2.71644 2.36088 0
M  V30 752 C 71.7808 -2.3352 3.82325 0
M  V30 753 C 73.5248 -3.49518 2.40909 0
M  V30 754 C 71.4318 -3.51431 4.75658 0
M  V30 755 H 70.3618 -0.564628 0.499712 0
M  V30 756 H 73.0128 -0.818449 1.64237 0
M  V30 757 H 71.3948 -3.42175 1.9933 0
M  V30 758 H 72.5688 -1.70627 4.28046 0
M  V30 759 H 70.8838 -1.6877 3.80665 0
M  V30 760 H 73.4808 -4.37197 3.07836 0
M  V30 761 H 73.8238 -3.90992 1.42937 0
M  V30 762 H 74.3568 -2.86005 2.76489 0
M  V30 763 H 71.0958 -3.15019 5.74842 0
M  V30 764 H 70.6158 -4.13352 4.34627 0
M  V30 765 H 72.2948 -4.17953 4.93887 0
M  V30 766 N 72.4269 -1.23603 -0.977757 0
M  V30 767 C 73.3569 -1.04401 -2.0886 0
M  V30 768 C 74.3379 0.0399052 -1.70053 0
M  V30 769 O 75.5229 -0.125246 -1.93796 0
M  V30 770 C 72.6529 -0.637269 -3.41403 0
M  V30 771 C 71.6069 -1.66883 -3.94124 0
M  V30 772 C 70.9329 -1.11745 -5.22893 0
M  V30 773 C 72.2329 -3.06247 -4.23096 0
M  V30 774 H 73.9269 -1.97316 -2.25182 0
M  V30 775 H 71.4729 -0.950096 -1.08209 0
M  V30 776 H 73.4259 -0.48998 -4.18542 0
M  V30 777 H 72.1499 0.327557 -3.24953 0
M  V30 778 H 70.8089 -1.80416 -3.19133 0
M  V30 779 H 70.4569 -0.143527 -5.02795 0
M  V30 780 H 70.1569 -1.80672 -5.59134 0
M  V30 781 H 71.6809 -0.982067 -6.02651 0
M  V30 782 H 73.0949 -2.96001 -4.90975 0
M  V30 783 H 71.4919 -3.72436 -4.70544 0
M  V30 784 H 72.5619 -3.55041 -3.30263 0
M  V30 785 N 73.905 1.17692 -1.04816 0
M  V30 786 C 74.852 2.21581 -0.645797 0
M  V30 787 C 75.822 1.62367 0.350159 0
M  V30 788 O 77.007 1.89254 0.242433 0
M  V30 789 C 74.147 3.45092 -0.0227568 0
M  V30 790 C 73.26 4.18613 -1.06709 0
M  V30 791 C 72.395 5.29602 -0.411767 0
M  V30 792 C 71.434 5.94904 -1.44067 0
M  V30 793 N 70.571 6.97414 -0.809781 0
M  V30 794 H 75.411 2.55353 -1.5362 0
M  V30 795 H 72.948 1.25438 -0.768364 0
M  V30 796 H 74.906 4.15679 0.35588 0
M  V30 797 H 73.536 3.11917 0.831122 0
M  V30 798 H 72.588 3.46779 -1.5636 0
M  V30 799 H 73.9 4.63293 -1.84827 0
M  V30 800 H 73.054 6.06696 0.0206623 0
M  V30 801 H 71.793 4.86045 0.401438 0
M  V30 802 H 70.798 5.16544 -1.88316 0
M  V30 803 H 72.023 6.40542 -2.25571 0
M  V30 804 H 69.969 6.55998 -0.0170186 0
M  V30 805 H 69.886 7.40386 -1.52856 0
M  V30 806 H 71.154 7.78463 -0.401999 0
M  V30 807 N 75.3831 0.828654 1.34056 0
M  V30 808 C 76.6131 0.431993 2.02033 0
M  V30 809 C 77.0211 -0.96844 1.62536 0
M  V30 810 O 76.3641 -1.6391 0.829408 0
M  V30 811 C 76.4261 0.461224 3.56529 0
M  V30 812 C 76.0901 1.81599 4.1937 0
M  V30 813 C 77.0871 2.7777 4.39477 0
M  V30 814 C 74.7721 2.10604 4.56017 0
M  V30 815 C 76.7661 4.01115 4.95364 0
M  V30 816 C 74.4531 3.34207 5.11614 0
M  V30 817 C 75.4511 4.2928 5.31232 0
M  V30 818 O 75.1391 5.50699 5.8565 0
M  V30 819 H 74.8711 0.170943 0.654029 0
M  V30 820 H 77.4251 1.11988 1.72185 0
M  V30 821 H 75.6551 -0.283388 3.8566 0
M  V30 822 H 77.3441 0.0838149 4.05813 0
M  V30 823 H 78.1101 2.56659 4.11523 0
M  V30 824 H 73.9891 1.37402 4.40047 0
M  V30 825 H 77.5331 4.75333 5.10592 0
M  V30 826 H 73.4301 3.55179 5.38997 0
M  V30 827 H 74.1981 5.52298 6.04077 0
M  V30 828 N 76.8612 -1.46375 0.584142 0
M  V30 829 C 77.7912 -2.33103 -0.136037 0
M  V30 830 C 78.7722 -1.45431 -0.882255 0
M  V30 831 O 79.9572 -1.74246 -0.857434 0
M  V30 832 C 77.0872 -3.27731 -1.14933 0
M  V30 833 C 76.0412 -4.24855 -0.517862 0
M  V30 834 C 75.3672 -5.09001 -1.63773 0
M  V30 835 C 76.6672 -5.19439 0.545886 0
M  V30 836 H 78.3612 -2.93568 0.588086 0
M  V30 837 H 75.9072 -1.41166 0.284259 0
M  V30 838 H 77.8602 -3.87261 -1.66153 0
M  V30 839 H 76.5842 -2.65377 -1.90375 0
M  V30 840 H 75.2432 -3.6659 -0.0267361 0
M  V30 841 H 74.8912 -4.43031 -2.38185 0
M  V30 842 H 74.5912 -5.74777 -1.22085 0
M  V30 843 H 76.1152 -5.71396 -2.15266 0
M  V30 844 H 77.5292 -5.73177 0.118704 0
M  V30 845 H 75.9262 -5.93566 0.88317 0
M  V30 846 H 76.9962 -4.63285 1.43162 0
M  V30 847 N 78.3393 -0.321999 -1.54275 0
M  V30 848 C 79.5693 0.282642 -2.04658 0
M  V30 849 C 79.9773 1.46453 -1.19784 0
M  V30 850 O 79.3203 1.82367 -0.220932 0
M  V30 851 C 79.3823 0.781857 -3.50895 0
M  V30 852 C 79.0463 -0.277517 -4.56157 0
M  V30 853 C 80.0433 -1.11307 -5.07845 0
M  V30 854 C 77.7283 -0.425256 -5.00497 0
M  V30 855 C 79.7223 -2.08211 -6.02434 0
M  V30 856 C 77.4093 -1.39771 -5.94901 0
M  V30 857 C 78.4073 -2.2246 -6.45756 0
M  V30 858 O 78.0953 -3.18054 -7.38307 0
M  V30 859 H 77.8273 0.0622636 -0.673126 0
M  V30 860 H 80.3813 -0.465792 -2.00049 0
M  V30 861 H 78.6113 1.58118 -3.52896 0
M  V30 862 H 80.3003 1.30467 -3.84361 0
M  V30 863 H 81.0663 -1.00991 -4.74369 0
M  V30 864 H 76.9453 0.20847 -4.60528 0
M  V30 865 H 80.4893 -2.72791 -6.42052 0
M  V30 866 H 76.3863 -1.50152 -6.27794 0
M  V30 867 H 77.1543 -3.13275 -7.56175 0
M  V30 868 N 79.8174 1.5752 -0.0501392 0
M  V30 869 C 80.7504 2.07026 0.959962 0
M  V30 870 C 81.7284 0.970539 1.30458 0
M  V30 871 O 82.9124 1.2424 1.41763 0
M  V30 872 C 80.0394 2.5099 2.27424 0
M  V30 873 C 79.0854 3.72188 2.08275 0
M  V30 874 S 79.9184 5.17888 1.36207 0
M  V30 875 C 81.0744 5.65165 2.6896 0
M  V30 876 H 81.3074 2.9238 0.538631 0
M  V30 877 H 78.8404 1.53547 0.162099 0
M  V30 878 H 80.7984 2.76982 3.02971 0
M  V30 879 H 79.4594 1.65944 2.66686 0
M  V30 880 H 78.6524 4.00866 3.05487 0
M  V30 881 H 78.2544 3.46457 1.40868 0
M  V30 882 H 80.5464 5.70687 3.65133 0
M  V30 883 H 81.4894 6.64394 2.4492 0
M  V30 884 H 81.8974 4.9289 2.75172 0
M  V30 885 N 81.2955 -0.223234 1.56011 0
M  V30 886 C 82.5725 -0.972108 1.69733 0
M  V30 887 C 82.9525 -2.02485 0.59691 0
M  V30 888 O 82.3005 -2.25037 -0.396324 0
M  V30 889 C 82.5105 -1.58407 3.10979 0
M  V30 890 C 83.8585 -2.07696 3.70334 0
M  V30 891 O 84.8825 -1.68304 3.1393 0
M  V30 892 O 83.7415 -2.80096 4.69264 0
M  V30 893 H 80.8355 -0.453993 0.691245 0
M  V30 894 H 83.3815 -0.215149 1.68331 0
M  V30 895 H 82.1535 -0.823831 3.82529 0
M  V30 896 H 81.7765 -2.40661 3.16493 0
M  V30 897 N 82.7736 -1.49793 -0.48987 0
M  V30 898 C 83.6836 -1.70036 -1.61632 0
M  V30 899 C 84.6996 -0.583102 -1.63939 0
M  V30 900 O 85.8756 -0.859169 -1.82154 0
M  V30 901 C 82.9406 -1.77277 -2.97949 0
M  V30 902 C 82.0016 -3.00918 -3.06181 0
M  V30 903 C 81.2346 -3.07804 -4.35996 0
M  V30 904 O 81.4576 -2.21982 -5.25433 0
M  V30 905 O 80.3916 -4.00369 -4.49431 0
M  V30 906 H 84.2176 -2.65486 -1.47482 0
M  V30 907 H 81.8026 -1.33666 -0.667362 0
M  V30 908 H 83.6846 -1.84329 -3.78947 0
M  V30 909 H 82.3596 -0.850076 -3.12339 0
M  V30 910 H 81.2666 -2.99377 -2.2433 0
M  V30 911 H 82.5996 -3.92704 -2.96723 0
M  V30 912 N 84.2517 0.741722 -1.39055 0
M  V30 913 C 85.4817 1.52876 -1.3897 0
M  V30 914 C 85.8897 1.8919 0.0193266 0
M  V30 915 O 85.2327 1.54138 0.999356 0
M  V30 916 C 85.2947 2.84929 -2.19216 0
M  V30 917 C 84.9587 2.71086 -3.67915 0
M  V30 918 C 85.9557 2.40084 -4.61146 0
M  V30 919 C 83.6407 2.88168 -4.11418 0
M  V30 920 C 85.6347 2.26335 -5.95862 0
M  V30 921 C 83.3217 2.74037 -5.46211 0
M  V30 922 C 84.3197 2.43166 -6.38247 0
M  V30 923 O 84.0077 2.29115 -7.70559 0
M  V30 924 H 83.7397 0.479252 -0.476753 0
M  V30 925 H 86.2937 0.924751 -1.83405 0
M  V30 926 H 84.5237 3.47564 -1.69518 0
M  V30 927 H 86.2127 3.46509 -2.11392 0
M  V30 928 H 86.9787 2.26545 -4.28838 0
M  V30 929 H 82.8577 3.11191 -3.40119 0
M  V30 930 H 86.4017 2.0216 -6.67665 0
M  V30 931 H 82.2987 2.87153 -5.78112 0
M  V30 932 H 83.0667 2.44237 -7.81211 0
M  V30 933 N 85.7298 1.2412 0.971189 0
M  V30 934 C 86.6598 1.05508 2.08304 0
M  V30 935 C 87.6408 -0.0308864 1.70072 0
M  V30 936 O 88.8258 0.135521 1.93727 0
M  V30 937 C 85.9558 0.655365 3.4106 0
M  V30 938 C 84.9098 1.68971 3.93234 0
M  V30 939 C 84.2358 1.14516 5.22293 0
M  V30 940 C 85.5358 3.08487 4.21465 0
M  V30 941 H 87.2298 1.98507 2.24132 0
M  V30 942 H 84.7758 0.955821 1.07704 0
M  V30 943 H 86.7288 0.51217 4.18276 0
M  V30 944 H 85.4528 -0.31032 3.25122 0
M  V30 945 H 84.1118 1.82106 3.18171 0
M  V30 946 H 83.7598 0.170189 5.02712 0
M  V30 947 H 83.4598 1.83635 5.58168 0
M  V30 948 H 84.9838 1.01401 6.02121 0
M  V30 949 H 86.3978 2.98601 4.89398 0
M  V30 950 H 84.7948 3.74926 4.68562 0
M  V30 951 H 85.8648 3.56787 3.28376 0
M  V30 952 N 87.2079 -1.17134 1.05439 0
M  V30 953 C 88.4329 -1.91913 0.786396 0
M  V30 954 C 88.8579 -1.7643 -0.652234 0
M  V30 955 O 88.2159 -1.08372 -1.45345 0
M  V30 956 C 88.2639 -3.40921 1.17497 0
M  V30 957 O 87.3679 -4.11244 0.308589 0
M  V30 958 H 86.7089 -0.598215 0.288158 0
M  V30 959 H 89.2389 -1.48457 1.4079 0
M  V30 960 H 89.2489 -3.91668 1.14281 0
M  V30 961 H 87.9239 -3.5151 2.22292 0
M  V30 962 H 86.5009 -3.70731 0.40157 0
M  V30 963 N 88.686 -0.835752 -1.33615 0
M  V30 964 C 89.596 -0.269088 -2.33052 0
M  V30 965 C 90.612 0.603251 -1.63208 0
M  V30 966 O 91.788 0.508112 -1.94885 0
M  V30 967 C 88.853 0.549091 -3.42324 0
M  V30 968 C 87.914 -0.347156 -4.27894 0
M  V30 969 C 87.147 0.43207 -5.31948 0
M  V30 970 O 87.37 1.66409 -5.45586 0
M  V30 971 O 86.304 -0.192298 -6.01593 0
M  V30 972 H 90.13 -1.09243 -2.83372 0
M  V30 973 H 87.715 -0.598198 -1.36901 0
M  V30 974 H 89.597 1.01414 -4.09015 0
M  V30 975 H 88.272 1.34955 -2.94226 0
M  V30 976 H 87.179 -0.859979 -3.64081 0
M  V30 977 H 88.512 -1.1123 -4.79467 0
M  V30 978 N 90.1641 1.46063 -0.591896 0
M  V30 979 C 91.4121 2.01938 -0.0808391 0
M  V30 980 C 91.7331 1.46475 1.28725 0
M  V30 981 O 91.0031 0.652944 1.84698 0
M  V30 982 H 89.5831 0.746516 -0.0268938 0
M  V30 983 H 92.2451 1.79055 -0.769752 0
M  V30 984 H 91.3411 3.12094 -0.0187578 0
M  V30 985 N 91.6422 0.330177 1.54103 0
M  V30 986 C 92.9192 -0.325007 1.92881 0
M  V30 987 C 93.2992 -1.6934 1.26045 0
M  V30 988 O 92.6472 -2.24855 0.406526 0
M  V30 989 C 92.8572 -0.410634 3.46576 0
M  V30 990 C 94.2052 -0.667801 4.19316 0
M  V30 991 O 95.2292 -0.49329 3.52768 0
M  V30 992 O 94.0882 -1.00491 5.37181 0
M  V30 993 H 91.1822 -0.186873 0.80561 0
M  V30 994 H 93.7282 0.380376 1.65382 0
M  V30 995 H 92.5002 0.550164 3.87413 0
M  V30 996 H 92.1232 -1.16333 3.802 0
M  V30 997 N 93.1203 -1.57491 0.0584922 0
M  V30 998 C 94.0673 -2.11958 -0.913376 0
M  V30 999 C 95.0373 -1.02875 -1.30407 0
M  V30 1000 O 96.2223 -1.30464 -1.39226 0
M  V30 1001 C 93.3623 -2.67497 -2.18035 0
M  V30 1002 C 92.4753 -3.90691 -1.84349 0
M  V30 1003 C 91.6103 -4.3452 -3.05559 0
M  V30 1004 C 90.6493 -5.50395 -2.67827 0
M  V30 1005 N 89.7863 -5.89244 -3.81754 0
M  V30 1006 H 94.6263 -2.94704 -0.442017 0
M  V30 1007 H 92.1633 -1.45643 -0.206545 0
M  V30 1008 H 94.1213 -2.978 -2.92183 0
M  V30 1009 H 92.7513 -1.87537 -2.62735 0
M  V30 1010 H 91.8033 -3.66934 -1.00319 0
M  V30 1011 H 93.1153 -4.7489 -1.5258 0
M  V30 1012 H 92.2693 -4.66414 -3.87998 0
M  V30 1013 H 91.0083 -3.49147 -3.40511 0
M  V30 1014 H 90.0133 -5.18165 -1.83806 0
M  V30 1015 H 91.2383 -6.3749 -2.34059 0
M  V30 1016 H 89.1843 -5.06823 -4.16493 0
M  V30 1017 H 89.1013 -6.68151 -3.53708 0
M  V30 1018 H 90.3693 -6.25756 -4.64811 0
M  V30 1019 N 94.5984 0.214957 -1.56127 0
M  V30 1020 C 95.5614 1.24997 -1.92116 0
M  V30 1021 C 96.5614 1.39467 -0.800344 0
M  V30 1022 O 97.7514 1.37619 -1.06802 0
M  V30 1023 C 94.8834 2.62271 -2.17777 0
M  V30 1024 H 96.0764 0.942875 -2.84693 0
M  V30 1025 H 93.6294 0.455654 -1.49511 0
M  V30 1026 H 94.3644 2.98068 -1.27773 0
M  V30 1027 H 94.1494 2.53143 -2.99434 0
M  V30 1028 H 95.6394 3.36946 -2.46693 0
M  V30 1029 N 96.0765 1.50051 0.48192 0
M  V30 1030 C 97.3045 1.64237 1.25832 0
M  V30 1031 C 97.7195 0.321336 1.86045 0
M  V30 1032 O 97.0765 -0.695478 1.68729 0
M  V30 1033 C 97.1275 2.72548 2.37487 0
M  V30 1034 O 96.8485 3.99529 1.79745 0
M  V30 1035 C 98.3495 2.9761 3.28547 0
M  V30 1036 H 95.5695 0.55237 0.380957 0
M  V30 1037 H 98.1135 1.96207 0.576467 0
M  V30 1038 H 96.2685 2.43303 3.01467 0
M  V30 1039 H 96.6825 4.59342 2.5319 0
M  V30 1040 H 98.1565 3.77084 4.03127 0
M  V30 1041 H 98.6335 2.0826 3.86684 0
M  V30 1042 H 99.2395 3.28345 2.70314 0
M  V30 1043 N 97.5546 -0.734337 1.39446 0
M  V30 1044 C 98.8016 -1.49391 1.36706 0
M  V30 1045 C 99.1296 -1.94465 -0.0367813 0
M  V30 1046 O 98.3846 -1.67154 -1.01774 0
M  V30 1047 C 98.6836 -2.74711 2.28623 0
M  V30 1048 C 98.3496 -2.48501 3.76242 0
M  V30 1049 C 97.0116 -2.41062 4.16464 0
M  V30 1050 C 99.3636 -2.26098 4.69606 0
M  V30 1051 C 96.6916 -2.09262 5.48112 0
M  V30 1052 C 99.0436 -1.95814 6.01531 0
M  V30 1053 C 97.7076 -1.86845 6.40816 0
M  V30 1054 H 96.9776 -0.546661 0.500243 0
M  V30 1055 H 99.6246 -0.842788 1.71957 0
M  V30 1056 H 97.9296 -3.44569 1.86492 0
M  V30 1057 H 99.6266 -3.32741 2.23796 0
M  V30 1058 H 96.2166 -2.55169 3.44364 0
M  V30 1059 H 100.401 -2.30812 4.39363 0
M  V30 1060 H 95.6566 -2.00841 5.77471 0
M  V30 1061 H 99.8306 -1.77488 6.73403 0
M  V30 1062 H 97.4576 -1.6197 7.42745 0
M  V30 1063 N 99.0327 -1.24633 -0.964593 0
M  V30 1064 C 99.9427 -1.05859 -2.09359 0
M  V30 1065 C 100.959 0.00148855 -1.74 0
M  V30 1066 O 102.135 -0.197346 -2.00431 0
M  V30 1067 C 99.1997 -0.668879 -3.40187 0
M  V30 1068 C 98.2607 -1.80578 -3.89474 0
M  V30 1069 C 97.4937 -1.43457 -5.14058 0
M  V30 1070 O 97.7167 -0.325775 -5.69469 0
M  V30 1071 O 96.6507 -2.2613 -5.57807 0
M  V30 1072 H 100.477 -2.00516 -2.28094 0
M  V30 1073 H 98.0617 -1.03481 -1.0776 0
M  V30 1074 H 99.9437 -0.463211 -4.18846 0
M  V30 1075 H 98.6187 0.248536 -3.22744 0
M  V30 1076 H 97.5257 -2.06623 -3.11862 0
M  V30 1077 H 98.8587 -2.70208 -4.11398 0
M  V30 1078 N 100.511 1.16574 -1.06058 0
M  V30 1079 C 101.458 2.20883 -0.669263 0
M  V30 1080 C 102.428 1.62729 0.332918 0
M  V30 1081 O 103.613 1.895 0.222346 0
M  V30 1082 C 100.753 3.45049 -0.0593572 0
M  V30 1083 C 99.8658 4.17458 -1.11143 0
M  V30 1084 C 99.0008 5.29135 -0.467916 0
M  V30 1085 C 98.0398 5.93343 -1.50369 0
M  V30 1086 N 97.1768 6.96516 -0.883706 0
M  V30 1087 H 102.017 2.53709 -1.5632 0
M  V30 1088 H 99.5538 1.24616 -0.781625 0
M  V30 1089 H 101.512 4.16033 0.311771 0
M  V30 1090 H 100.142 3.12781 0.797992 0
M  V30 1091 H 99.1938 3.45101 -1.60029 0
M  V30 1092 H 100.506 4.61307 -1.89731 0
M  V30 1093 H 99.6598 6.06684 -0.0436871 0
M  V30 1094 H 98.3988 4.86443 0.349864 0
M  V30 1095 H 97.4038 5.14517 -1.93784 0
M  V30 1096 H 98.6288 6.38114 -2.32352 0
M  V30 1097 H 96.5748 6.55943 -0.086595 0
M  V30 1098 H 96.4918 7.38723 -1.607 0
M  V30 1099 H 97.7598 7.77993 -0.484543 0
M  V30 1100 N 101.989 0.842826 1.3317 0
M  V30 1101 C 102.936 0.276885 2.29133 0
M  V30 1102 C 103.906 -0.609527 1.54512 0
M  V30 1103 O 105.091 -0.546955 1.82792 0
M  V30 1104 C 102.231 -0.538707 3.40869 0
M  V30 1105 C 101.344 0.372169 4.30394 0
M  V30 1106 C 100.479 -0.454908 5.29249 0
M  V30 1107 C 99.5179 0.45411 6.10413 0
M  V30 1108 N 98.6549 -0.335075 7.013 0
M  V30 1109 H 103.495 1.10052 2.76934 0
M  V30 1110 H 101.032 0.554161 1.36262 0
M  V30 1111 H 102.99 -1.02709 4.0436 0
M  V30 1112 H 101.62 -1.32727 2.9425 0
M  V30 1113 H 100.672 0.97888 3.6759 0
M  V30 1114 H 101.984 1.0703 4.87182 0
M  V30 1115 H 101.138 -1.00695 5.98285 0
M  V30 1116 H 99.8769 -1.18646 4.73048 0
M  V30 1117 H 98.8819 1.01813 5.40291 0
M  V30 1118 H 100.107 1.18409 6.68697 0
M  V30 1119 H 98.0529 -1.04994 6.47543 0
M  V30 1120 H 97.9699 0.304262 7.55387 0
M  V30 1121 H 99.2379 -0.869224 7.74638 0
M  V30 1122 N 103.467 -1.45747 0.599634 0
M  V30 1123 C 104.707 -2.04181 0.0946309 0
M  V30 1124 C 105.071 -1.45895 -1.24815 0
M  V30 1125 O 106.272 -1.95633 -1.8434 0
M  V30 1126 C 104.543 -3.57368 0.047581 0
M  V30 1127 S 106.102 -4.36997 -0.397387 0
M  V30 1128 H 102.92 -0.70953 0.0456954 0
M  V30 1129 H 105.522 -1.78564 0.795946 0
M  V30 1130 H 104.226 -3.97303 1.02852 0
M  V30 1131 H 103.757 -3.87549 -0.675977 0
M  V30 1132 H 105.772 -4.68012 -1.64862 0
M  V30 1133 N 104.945 -0.338344 -1.53925 0
M  V30 1134 C 105.895 0.536712 -2.21593 0
M  V30 1135 C 106.879 1.07015 -1.20153 0
M  V30 1136 O 108.071 1.00471 -1.45721 0
M  V30 1137 C 105.2 1.68977 -2.98834 0
M  V30 1138 C 104.286 1.17052 -4.07627 0
M  V30 1139 N 104.677 0.372085 -5.0443 0
M  V30 1140 C 102.975 1.44789 -4.21844 0
M  V30 1141 C 103.676 0.0909171 -5.81629 0
M  V30 1142 N 102.652 0.681131 -5.39316 0
M  V30 1143 H 106.454 -0.0804298 -2.9379 0
M  V30 1144 H 103.968 -0.144943 -1.61752 0
M  V30 1145 H 105.965 2.32857 -3.45808 0
M  V30 1146 H 104.625 2.31024 -2.28162 0
M  V30 1147 H 105.636 0.0136217 -5.17898 0
M  V30 1148 H 102.313 2.07313 -3.62391 0
M  V30 1149 H 103.703 -0.552817 -6.69622 0
M  V30 1150 N 106.423 1.57458 -0.0668435 0
M  V30 1151 C 107.371 2.13639 0.919851 0
M  V30 1152 C 108.365 1.07204 1.31163 0
M  V30 1153 O 109.571 1.25591 1.28945 0
M  V30 1154 H 105.946 0.683048 0.314562 0
M  V30 1155 H 107.917 2.95415 0.421047 0
M  V30 1156 C 106.666 2.70892 2.17975 0
M  V30 1157 H 105.989 3.5246 1.88711 0
M  V30 1158 H 107.429 3.13803 2.85138 0
M  V30 1159 C 105.888 1.65414 2.93496 0
M  V30 1160 O 106.418 1.07619 3.87015 0
M  V30 1161 N 104.624 1.36564 2.56512 0
M  V30 1162 H 104.171 1.83751 1.80536 0
M  V30 1163 H 104.129 0.66223 3.07347 0
M  V30 1164 N 107.901 -0.206675 1.56239 0
M  V30 1165 C 109.147 -0.930218 1.80208 0
M  V30 1166 C 109.48 -1.83387 0.638981 0
M  V30 1167 O 108.755 -1.91119 -0.361066 0
M  V30 1168 C 109.038 -1.75641 3.1436 0
M  V30 1169 C 108.891 -0.878257 4.41142 0
M  V30 1170 C 110.21 -2.73129 3.45092 0
M  V30 1171 H 107.329 -0.336742 0.655571 0
M  V30 1172 H 109.971 -0.198222 1.88963 0
M  V30 1173 H 108.121 -2.38048 3.07027 0
M  V30 1174 H 109.793 -0.269787 4.6051 0
M  V30 1175 H 108.036 -0.184385 4.33408 0
M  V30 1176 H 108.707 -1.49106 5.3148 0
M  V30 1177 H 111.183 -2.20856 3.52649 0
M  V30 1178 H 110.059 -3.28028 4.40101 0
M  V30 1179 H 110.32 -3.51606 2.68003 0
M  V30 1180 N 109.379 -1.50304 -0.473955 0
M  V30 1181 C 110.628 -1.60392 -1.22301 0
M  V30 1182 C 110.941 -0.308411 -1.93153 0
M  V30 1183 O 112.147 -0.288156 -2.69966 0
M  V30 1184 C 110.603 -2.83109 -2.2221 0
M  V30 1185 C 110.211 -4.19524 -1.57173 0
M  V30 1186 C 111.955 -3.0254 -2.97775 0
M  V30 1187 C 109.862 -5.33431 -2.55353 0
M  V30 1188 H 108.792 -0.597286 -0.460179 0
M  V30 1189 H 111.443 -1.76731 -0.493803 0
M  V30 1190 H 109.825 -2.60322 -2.9841 0
M  V30 1191 H 110.999 -4.52554 -0.867824 0
M  V30 1192 H 109.314 -4.05674 -0.939002 0
M  V30 1193 H 111.911 -3.84811 -3.71248 0
M  V30 1194 H 112.254 -2.14154 -3.56992 0
M  V30 1195 H 112.787 -3.25494 -2.28688 0
M  V30 1196 H 109.526 -6.23962 -2.00878 0
M  V30 1197 H 109.046 -5.04823 -3.23904 0
M  V30 1198 H 110.725 -5.63887 -3.17239 0
M  V30 1199 N 110.857 0.726932 -1.39834 0
M  V30 1200 C 112.105 1.4837 -1.37225 0
M  V30 1201 C 112.426 1.94979 0.0284857 0
M  V30 1202 O 111.696 1.69555 0.981213 0
M  V30 1203 H 110.276 0.55043 -0.505011 0
M  V30 1204 H 112.938 0.862468 -1.74778 0
M  V30 1205 H 112.034 2.36198 -2.04003 0
M  V30 1206 N 112.336 1.25143 0.95797 0
M  V30 1207 C 113.284 1.05019 2.07542 0
M  V30 1208 C 114.278 -0.0178751 1.69391 0
M  V30 1209 O 115.484 0.137472 1.79474 0
M  V30 1210 H 111.859 0.32265 0.679265 0
M  V30 1211 H 113.83 1.99759 2.21673 0
M  V30 1212 C 112.579 0.682074 3.40944 0
M  V30 1213 H 111.902 1.49573 3.70767 0
M  V30 1214 H 113.342 0.580945 4.20001 0
M  V30 1215 C 111.801 -0.611608 3.31302 0
M  V30 1216 O 112.331 -1.65465 3.66038 0
M  V30 1217 N 110.537 -0.595982 2.84423 0
M  V30 1218 H 110.084 0.253192 2.56353 0
M  V30 1219 H 110.042 -1.46173 2.78354 0
M  V30 1220 N 113.814 -1.1601 1.06675 0
M  V30 1221 C 115.063 -1.85973 0.780818 0
M  V30 1222 C 115.376 -1.82819 -0.695444 0
M  V30 1223 O 116.582 -2.484 -1.09589 0
M  V30 1224 C 115.038 -3.33757 1.34665 0
M  V30 1225 C 114.646 -3.45374 2.85343 0
M  V30 1226 C 116.39 -4.0895 1.13843 0
M  V30 1227 C 114.297 -4.87266 3.35151 0
M  V30 1228 H 113.227 -0.696661 0.288407 0
M  V30 1229 H 115.878 -1.30903 1.28595 0
M  V30 1230 H 114.26 -3.88456 0.769274 0
M  V30 1231 H 115.434 -3.00816 3.49065 0
M  V30 1232 H 113.749 -2.83619 3.04876 0
M  V30 1233 H 116.346 -5.13654 1.4854 0
M  V30 1234 H 116.689 -4.16229 0.0770282 0
M  V30 1235 H 117.222 -3.605 1.68179 0
M  V30 1236 H 113.961 -4.85168 4.40786 0
M  V30 1237 H 113.481 -5.32433 2.76179 0
M  V30 1238 H 115.16 -5.56097 3.30704 0
M  V30 1239 N 115.292 -0.849877 -1.32721 0
M  V30 1240 C 116.708 -0.539102 -1.50219 0
M  V30 1241 C 116.908 0.931271 -1.78689 0
M  V30 1242 O 115.964 1.71455 -1.85363 0
M  V30 1243 C 117.277 -1.42196 -2.64954 0
M  V30 1244 C 118.825 -1.42189 -2.78839 0
M  V30 1245 C 119.3 -2.28985 -3.96648 0
M  V30 1246 N 120.791 -2.26754 -4.03902 0
M  V30 1247 C 121.526 -2.90644 -4.94281 0
M  V30 1248 N 121.022 -3.63629 -5.897 0
M  V30 1249 N 122.815 -2.80057 -4.87365 0
M  V30 1250 H 114.966 -1.80156 -1.12506 0
M  V30 1251 H 117.229 -0.769217 -0.554085 0
M  V30 1252 H 116.935 -2.46733 -2.50631 0
M  V30 1253 H 116.809 -1.10591 -3.60624 0
M  V30 1254 H 119.196 -0.38419 -2.92588 0
M  V30 1255 H 119.277 -1.77807 -1.83898 0
M  V30 1256 H 118.921 -3.32819 -3.83658 0
M  V30 1257 H 118.851 -1.90702 -4.90857 0
M  V30 1258 H 121.342 -1.73688 -3.3562 0
M  V30 1259 H 121.655 -4.09558 -6.55349 0
M  V30 1260 H 120 -3.67737 -5.89741 0
M  V30 1261 H 123.191 -2.22593 -4.11789 0
M  V30 1262 H 123.364 -3.30132 -5.57599 0
M  V30 1263 N 116.77 1.45427 -0.607355 0
M  V30 1264 C 117.718 2.32269 0.12411 0
M  V30 1265 C 118.712 1.45955 0.859854 0
M  V30 1266 O 119.918 1.6244 0.775447 0
M  V30 1267 H 116.293 0.749691 0.0588839 0
M  V30 1268 H 118.264 2.91743 -0.626762 0
M  V30 1269 C 117.013 3.29567 1.1082 0
M  V30 1270 H 116.336 3.95978 0.551492 0
M  V30 1271 H 117.776 3.93061 1.58995 0
M  V30 1272 C 116.235 2.56722 2.18164 0
M  V30 1273 O 116.765 2.34842 3.25902 0
M  V30 1274 N 114.971 2.16861 1.93442 0
M  V30 1275 H 114.518 2.34855 1.05834 0
M  V30 1276 H 114.476 1.68444 2.65469 0
M  V30 1277 N 118.248 0.346503 1.53744 0
M  V30 1278 C 119.476 -0.25041 2.05379 0
M  V30 1279 C 119.891 -1.43979 1.22129 0
M  V30 1280 O 119.248 -1.80677 0.257321 0
M  V30 1281 C 119.299 -0.662575 3.55376 0
M  V30 1282 O 119.02 0.479515 4.35468 0
M  V30 1283 C 120.521 -1.31989 4.23195 0
M  V30 1284 H 117.741 -0.0478198 0.669294 0
M  V30 1285 H 120.285 0.499346 1.9831 0
M  V30 1286 H 118.44 -1.36227 3.62658 0
M  V30 1287 H 118.854 0.15037 5.24284 0
M  V30 1288 H 120.328 -1.55902 5.29527 0
M  V30 1289 H 120.805 -2.27436 3.75725 0
M  V30 1290 H 121.411 -0.662154 4.20114 0
M  V30 1291 N 119.726 -1.57421 0.075193 0
M  V30 1292 C 120.973 -1.93618 -0.593146 0
M  V30 1293 C 121.301 -0.955484 -1.69413 0
M  V30 1294 O 120.556 0.0283251 -1.9568 0
M  V30 1295 C 120.855 -3.36428 -1.20626 0
M  V30 1296 C 120.521 -4.50307 -0.231078 0
M  V30 1297 C 119.183 -4.81186 0.0371936 0
M  V30 1298 C 121.535 -5.19374 0.435888 0
M  V30 1299 C 118.863 -5.78466 0.979461 0
M  V30 1300 C 121.215 -6.17665 1.3665 0
M  V30 1301 C 119.879 -6.46958 1.6432 0
M  V30 1302 H 119.149 -0.708499 -0.217047 0
M  V30 1303 H 121.796 -1.90937 0.146793 0
M  V30 1304 H 120.101 -3.35592 -2.02201 0
M  V30 1305 H 121.798 -3.61727 -1.73073 0
M  V30 1306 H 118.388 -4.26227 -0.450357 0
M  V30 1307 H 122.572 -4.95711 0.241748 0
M  V30 1308 H 117.828 -5.99487 1.20106 0
M  V30 1309 H 122.002 -6.70284 1.88924 0
M  V30 1310 H 119.629 -7.2215 2.37494 0
M  V30 1311 N 121.204 0.198386 -1.56346 0
M  V30 1312 C 122.429 0.939682 -1.84891 0
M  V30 1313 C 122.854 1.76202 -0.658369 0
M  V30 1314 O 122.212 1.76993 0.392851 0
M  V30 1315 C 122.26 1.81428 -3.11635 0
M  V30 1316 O 121.364 2.91265 -2.91956 0
M  V30 1317 H 120.705 0.264807 -0.608912 0
M  V30 1318 H 123.235 0.204695 -2.03573 0
M  V30 1319 H 123.245 2.21958 -3.42343 0
M  V30 1320 H 121.92 1.21004 -3.97908 0
M  V30 1321 H 120.497 2.54514 -2.72538 0
M  V30 1322 N 122.682 1.50554 0.465978 0
M  V30 1323 C 123.63 1.70324 1.58406 0
M  V30 1324 C 124.624 0.569139 1.59553 0
M  V30 1325 O 125.83 0.749776 1.63641 0
M  V30 1326 H 122.205 0.537688 0.525734 0
M  V30 1327 H 124.176 2.64104 1.38894 0
M  V30 1328 C 122.925 1.81928 2.96307 0
M  V30 1329 H 122.248 2.68586 2.96144 0
M  V30 1330 H 123.688 1.99784 3.73982 0
M  V30 1331 C 122.147 0.572095 3.32007 0
M  V30 1332 O 122.677 -0.286416 4.00678 0
M  V30 1333 N 120.883 0.424606 2.87481 0
M  V30 1334 H 120.43 1.12427 2.31771 0
M  V30 1335 H 120.388 -0.408697 3.11732 0
M  V30 1336 N 124.16 -0.719506 1.40217 0
M  V30 1337 C 125.107 -1.83359 1.40172 0
M  V30 1338 C 126.077 -1.64065 0.259206 0
M  V30 1339 O 127.262 -1.85254 0.456677 0
M  V30 1340 C 124.402 -3.2103 1.26624 0
M  V30 1341 C 123.515 -3.51923 2.50548 0
M  V30 1342 C 122.65 -4.79079 2.29471 0
M  V30 1343 C 121.689 -5.02863 3.48992 0
M  V30 1344 N 120.826 -6.2123 3.27135 0
M  V30 1345 H 125.666 -1.82733 2.35399 0
M  V30 1346 H 123.203 -0.892688 1.16917 0
M  V30 1347 H 125.161 -4.00524 1.16776 0
M  V30 1348 H 123.791 -3.20895 0.350176 0
M  V30 1349 H 122.843 -2.67014 2.70939 0
M  V30 1350 H 124.155 -3.6541 3.39525 0
M  V30 1351 H 123.309 -5.66582 2.16955 0
M  V30 1352 H 122.048 -4.67794 1.37913 0
M  V30 1353 H 121.053 -4.13816 3.6199 0
M  V30 1354 H 122.278 -5.16023 4.41472 0
M  V30 1355 H 120.224 -6.11204 2.38256 0
M  V30 1356 H 120.141 -6.35375 4.09675 0
M  V30 1357 H 121.409 -7.11532 3.18344 0
M  V30 1358 N 125.638 -1.25649 -0.95132 0
M  V30 1359 C 126.586 -1.06118 -2.06982 0
M  V30 1360 C 127.58 0.00889169 -1.69398 0
M  V30 1361 O 128.786 -0.146988 -1.79399 0
M  V30 1362 H 125.161 -0.326248 -0.677544 0
M  V30 1363 H 127.132 -2.00932 -2.2061 0
M  V30 1364 C 125.881 -0.700145 -3.40578 0
M  V30 1365 H 125.204 -1.51537 -3.69968 0
M  V30 1366 H 126.644 -0.603211 -4.19687 0
M  V30 1367 C 125.103 0.59403 -3.31622 0
M  V30 1368 O 125.633 1.63522 -3.66911 0
M  V30 1369 N 123.839 0.58089 -2.84735 0
M  V30 1370 H 123.386 -0.266783 -2.56215 0
M  V30 1371 H 123.344 1.44695 -2.79125 0
M  V30 1372 N 127.117 1.15442 -1.07289 0
M  V30 1373 C 128.345 1.90096 -0.81676 0
M  V30 1374 C 128.76 1.7798 0.629966 0
M  V30 1375 O 128.117 1.1313 1.43206 0
M  V30 1376 C 128.168 3.40466 -1.21512 0
M  V30 1377 O 127.889 3.52232 -2.60508 0
M  V30 1378 C 129.39 4.32145 -0.988198 0
M  V30 1379 H 126.61 0.602495 -0.295366 0
M  V30 1380 H 129.154 1.4627 -1.42918 0
M  V30 1381 H 127.309 3.81958 -0.647039 0
M  V30 1382 H 127.723 4.45549 -2.76742 0
M  V30 1383 H 129.197 5.36072 -1.31645 0
M  V30 1384 H 129.674 4.39135 0.0755063 0
M  V30 1385 H 130.28 3.96395 -1.54115 0
M  V30 1386 N 128.595 0.856903 1.32268 0
M  V30 1387 C 129.844 0.457599 1.96441 0
M  V30 1388 C 130.157 -0.992426 1.68553 0
M  V30 1389 O 131.363 -1.49727 2.26482 0
M  V30 1390 C 129.819 0.767358 3.51624 0
M  V30 1391 C 129.427 2.23326 3.88367 0
M  V30 1392 C 131.171 0.435887 4.22256 0
M  V30 1393 C 129.078 2.48613 5.36606 0
M  V30 1394 H 128.008 0.167387 0.735185 0
M  V30 1395 H 130.659 1.048 1.5063 0
M  V30 1396 H 129.041 0.106367 3.95857 0
M  V30 1397 H 130.215 2.93623 3.55137 0
M  V30 1398 H 128.53 2.52948 3.30766 0
M  V30 1399 H 131.127 0.602202 5.31298 0
M  V30 1400 H 131.47 -0.622672 4.11617 0
M  V30 1401 H 132.003 1.05286 3.83614 0
M  V30 1402 H 128.742 3.53101 5.52268 0
M  V30 1403 H 128.262 1.82896 5.71235 0
M  V30 1404 H 129.941 2.32676 6.03714 0
M  V30 1405 N 130.073 -1.45103 0.615059 0
M  V30 1406 C 131.02 -2.30586 -0.0993978 0
M  V30 1407 C 131.99 -1.42544 -0.852669 0
M  V30 1408 O 133.175 -1.71465 -0.836917 0
M  V30 1409 C 130.315 -3.27572 -1.08583 0
M  V30 1410 C 129.428 -4.30717 -0.332656 0
M  V30 1411 C 128.563 -5.14807 -1.30947 0
M  V30 1412 C 127.602 -6.09673 -0.544538 0
M  V30 1413 N 126.739 -6.86517 -1.47101 0
M  V30 1414 H 131.579 -2.91144 0.635542 0
M  V30 1415 H 129.116 -1.4346 0.325206 0
M  V30 1416 H 131.074 -3.82276 -1.67095 0
M  V30 1417 H 129.704 -2.68751 -1.78809 0
M  V30 1418 H 128.756 -3.78615 0.368107 0
M  V30 1419 H 130.068 -4.98102 0.263842 0
M  V30 1420 H 129.222 -5.73948 -1.96643 0
M  V30 1421 H 127.961 -4.47458 -1.9399 0
M  V30 1422 H 126.966 -5.49656 0.126003 0
M  V30 1423 H 128.191 -6.79052 0.080947 0
M  V30 1424 H 126.137 -6.21851 -2.08895 0
M  V30 1425 H 126.054 -7.50281 -0.928137 0
M  V30 1426 H 127.322 -7.50194 -2.11731 0
M  V30 1427 N 131.551 -0.354651 -1.53558 0
M  V30 1428 C 132.461 0.50515 -2.29097 0
M  V30 1429 C 133.477 1.10223 -1.34636 0
M  V30 1430 O 134.653 1.11553 -1.67684 0
M  V30 1431 C 131.718 1.63479 -3.05738 0
M  V30 1432 C 130.779 1.06636 -4.15845 0
M  V30 1433 C 130.012 2.14217 -4.88822 0
M  V30 1434 O 130.235 3.35137 -4.61562 0
M  V30 1435 O 129.169 1.77887 -5.75013 0
M  V30 1436 H 132.995 -0.109237 -3.03503 0
M  V30 1437 H 130.58 -0.119357 -1.48922 0
M  V30 1438 H 132.462 2.2918 -3.5363 0
M  V30 1439 H 131.137 2.23478 -2.34178 0
M  V30 1440 H 130.044 0.373565 -3.7223 0
M  V30 1441 H 131.377 0.511081 -4.89539 0
M  V30 1442 N 133.029 1.57378 -0.0835403 0
M  V30 1443 C 134.277 1.93547 0.581718 0
M  V30 1444 C 134.598 0.96524 1.69435 0
M  V30 1445 O 133.868 0.0153369 1.95894 0
M  V30 1446 H 132.448 0.714521 0.217874 0
M  V30 1447 H 135.11 1.94366 -0.144158 0
M  V30 1448 H 134.206 2.95665 0.999423 0
M  V30 1449 N 134.507 -0.190092 1.56449 0
M  V30 1450 C 135.455 -1.25501 1.95837 0
M  V30 1451 C 136.449 -1.4685 0.844485 0
M  V30 1452 O 137.655 -1.47651 1.02952 0
M  V30 1453 H 134.03 -0.421447 0.622805 0
M  V30 1454 H 136.001 -0.895821 2.84636 0
M  V30 1455 C 134.75 -2.59124 2.31841 0
M  V30 1456 H 134.073 -2.43514 3.17082 0
M  V30 1457 H 135.513 -3.32371 2.6326 0
M  V30 1458 C 133.972 -3.16488 1.15486 0
M  V30 1459 O 134.502 -3.99365 0.432535 0
M  V30 1460 N 132.708 -2.75305 0.930349 0
M  V30 1461 H 132.255 -2.08013 1.51948 0
M  V30 1462 H 132.213 -3.14024 0.153634 0
M  V30 1463 N 135.985 -1.50799 -0.457987 0
M  V30 1464 C 136.895 -1.73426 -1.57989 0
M  V30 1465 C 137.911 -0.617745 -1.62665 0
M  V30 1466 O 139.087 -0.897614 -1.80291 0
M  V30 1467 C 136.152 -1.83557 -2.94122 0
M  V30 1468 C 135.213 -3.07345 -2.99729 0
M  V30 1469 C 134.446 -3.16983 -4.29368 0
M  V30 1470 O 134.669 -2.33077 -5.20607 0
M  V30 1471 O 133.603 -4.09812 -4.40837 0
M  V30 1472 H 137.429 -2.68555 -1.41817 0
M  V30 1473 H 135.014 -1.35052 -0.638859 0
M  V30 1474 H 136.896 -1.92326 -3.74952 0
M  V30 1475 H 135.571 -0.916137 -3.10465 0
M  V30 1476 H 134.478 -3.04068 -2.1793 0
M  V30 1477 H 135.811 -3.9891 -2.88326 0
M  V30 1478 N 137.463 0.71206 -1.40597 0
M  V30 1479 C 138.71 1.47197 -1.39065 0
M  V30 1480 C 139.038 1.94499 0.00583891 0
M  V30 1481 O 138.293 1.68752 0.99102 0
M  V30 1482 C 138.592 2.71039 -2.32965 0
M  V30 1483 C 138.258 2.42484 -3.80148 0
M  V30 1484 C 136.92 2.34406 -4.20247 0
M  V30 1485 C 139.272 2.18598 -4.73143 0
M  V30 1486 C 136.6 2.00516 -5.51371 0
M  V30 1487 C 138.952 1.8622 -6.0457 0
M  V30 1488 C 137.616 1.76626 -6.43708 0
M  V30 1489 H 136.886 0.538634 -0.508876 0
M  V30 1490 H 139.533 0.815325 -1.73276 0
M  V30 1491 H 137.838 3.41558 -1.91951 0
M  V30 1492 H 139.535 3.29138 -2.29061 0
M  V30 1493 H 136.125 2.49659 -3.4838 0
M  V30 1494 H 140.309 2.23793 -4.42979 0
M  V30 1495 H 135.565 1.91628 -5.80593 0
M  V30 1496 H 139.739 1.66752 -6.76141 0
M  V30 1497 H 137.366 1.50133 -7.45228 0
M  V30 1498 N 138.941 1.26152 0.944643 0
M  V30 1499 C 139.871 1.09902 2.06019 0
M  V30 1500 C 140.852 0.00519538 1.70099 0
M  V30 1501 O 142.037 0.176583 1.93396 0
M  V30 1502 C 139.167 0.727562 3.39594 0
M  V30 1503 C 138.121 1.77274 3.89561 0
M  V30 1504 C 137.447 1.25569 5.19747 0
M  V30 1505 C 138.747 3.17357 4.14827 0
M  V30 1506 H 140.441 2.03217 2.19871 0
M  V30 1507 H 137.987 0.978452 1.05652 0
M  V30 1508 H 139.94 0.600777 4.17095 0
M  V30 1509 H 138.664 -0.241287 3.25707 0
M  V30 1510 H 137.323 1.88814 3.14237 0
M  V30 1511 H 136.971 0.276783 5.02238 0
M  V30 1512 H 136.671 1.95433 5.54148 0
M  V30 1513 H 138.195 1.1415 5.99835 0
M  V30 1514 H 139.609 3.08914 4.82954 0
M  V30 1515 H 138.006 3.84781 4.60504 0
M  V30 1516 H 139.076 3.63673 3.20734 0
M  V30 1517 N 140.419 -1.14872 1.07899 0
M  V30 1518 C 141.352 -2.18794 0.64841 0
M  V30 1519 C 142.33 -1.59065 -0.337189 0
M  V30 1520 O 143.514 -1.86936 -0.242284 0
M  V30 1521 C 140.641 -3.38667 -0.0470417 0
M  V30 1522 C 139.687 -4.16942 0.897884 0
M  V30 1523 S 140.52 -4.78615 2.40183 0
M  V30 1524 C 141.676 -6.0185 1.71834 0
M  V30 1525 H 141.909 -2.5498 1.52881 0
M  V30 1526 H 139.442 -1.25922 0.893484 0
M  V30 1527 H 141.4 -4.08113 -0.442027 0
M  V30 1528 H 140.061 -3.00814 -0.903861 0
M  V30 1529 H 139.254 -5.02726 0.358096 0
M  V30 1530 H 138.856 -3.53073 1.23352 0
M  V30 1531 H 141.148 -6.69574 1.03328 0
M  V30 1532 H 142.091 -6.60408 2.55473 0
M  V30 1533 H 142.499 -5.5173 1.19392 0
M  V30 1534 N 141.898 -0.863906 -1.31812 0
M  V30 1535 C 143.123 -0.48527 -2.01643 0
M  V30 1536 C 143.548 0.913058 -1.64453 0
M  V30 1537 O 142.906 1.6014 -0.849985 0
M  V30 1538 C 142.954 -0.642625 -3.54828 0
M  V30 1539 O 142.058 0.320659 -4.11151 0
M  V30 1540 H 141.399 -0.193793 -0.635091 0
M  V30 1541 H 143.929 -1.16565 -1.68148 0
M  V30 1542 H 143.939 -0.533628 -4.04495 0
M  V30 1543 H 142.614 -1.66227 -3.81237 0
M  V30 1544 H 141.191 0.167126 -3.72525 0
M  V30 1545 N 143.376 1.44774 -0.622745 0
M  V30 1546 C 144.625 2.01334 -0.121397 0
M  V30 1547 C 144.938 1.49505 1.26125 0
M  V30 1548 O 146.144 1.98139 1.85616 0
M  V30 1549 C 144.6 3.59516 -0.166298 0
M  V30 1550 C 144.208 4.20342 -1.54974 0
M  V30 1551 C 145.952 4.23582 0.279021 0
M  V30 1552 C 143.859 5.70721 -1.55021 0
M  V30 1553 H 142.789 0.752851 -0.0416172 0
M  V30 1554 H 145.44 1.66083 -0.780309 0
M  V30 1555 H 143.822 3.92027 0.559557 0
M  V30 1556 H 144.996 3.99381 -2.29851 0
M  V30 1557 H 143.311 3.68529 -1.93843 0
M  V30 1558 H 145.908 5.33868 0.298083 0
M  V30 1559 H 146.251 3.95327 1.30471 0
M  V30 1560 H 146.784 3.95843 -0.394063 0
M  V30 1561 H 143.523 6.03698 -2.55399 0
M  V30 1562 H 143.043 5.93829 -0.844245 0
M  V30 1563 H 144.722 6.34203 -1.28047 0
M  V30 1564 N 144.854 0.36279 1.53368 0
M  V30 1565 C 145.784 -0.476976 2.28576 0
M  V30 1566 C 146.765 -1.08631 1.30894 0
M  V30 1567 O 147.95 -1.10409 1.59761 0
M  V30 1568 C 145.08 -1.61828 3.07293 0
M  V30 1569 C 144.034 -1.13633 4.1264 0
M  V30 1570 C 143.36 -2.36766 4.79423 0
M  V30 1571 C 144.66 -0.223061 5.21823 0
M  V30 1572 H 146.354 0.150474 2.99022 0
M  V30 1573 H 143.9 0.0738103 1.43811 0
M  V30 1574 H 145.853 -2.21237 3.58653 0
M  V30 1575 H 144.577 -2.27292 2.34533 0
M  V30 1576 H 143.236 -0.564945 3.62221 0
M  V30 1577 H 142.884 -3.0068 4.03238 0
M  V30 1578 H 142.584 -2.05192 5.50609 0
M  V30 1579 H 144.108 -2.96865 5.33576 0
M  V30 1580 H 145.522 -0.724545 5.68703 0
M  V30 1581 H 143.919 0.001678 6.001 0
M  V30 1582 H 144.989 0.735553 4.79289 0
M  V30 1583 N 146.332 -1.57332 0.0918853 0
M  V30 1584 C 147.282 -2.10385 -0.87876 0
M  V30 1585 C 148.266 -1.01814 -1.24591 0
M  V30 1586 O 149.458 -1.28093 -1.22152 0
M  V30 1587 C 146.587 -2.68517 -2.13901 0
M  V30 1588 C 145.673 -3.84126 -1.79744 0
M  V30 1589 N 146.064 -4.92288 -1.1613 0
M  V30 1590 C 144.362 -3.93801 -2.09373 0
M  V30 1591 C 145.063 -5.7295 -1.00513 0
M  V30 1592 N 144.039 -5.21876 -1.5214 0
M  V30 1593 H 147.841 -2.91395 -0.38293 0
M  V30 1594 H 145.355 -1.62017 -0.111423 0
M  V30 1595 H 147.352 -3.04852 -2.84378 0
M  V30 1596 H 146.012 -1.88961 -2.64053 0
M  V30 1597 H 147.023 -5.1123 -0.828504 0
M  V30 1598 H 143.7 -3.25249 -2.61762 0
M  V30 1599 H 145.09 -6.69978 -0.507902 0
M  V30 1600 N 147.81 0.181792 -1.56548 0
M  V30 1601 C 148.743 1.25366 -1.90679 0
M  V30 1602 C 149.721 1.43299 -0.768376 0
M  V30 1603 O 150.905 1.58475 -1.02068 0
M  V30 1604 C 148.032 2.61826 -2.1486 0
M  V30 1605 C 147.078 2.60688 -3.37556 0
M  V30 1606 S 147.911 2.10804 -4.92262 0
M  V30 1607 C 149.067 3.49062 -5.19525 0
M  V30 1608 H 149.3 0.962277 -2.81296 0
M  V30 1609 H 146.833 0.385892 -1.495 0
M  V30 1610 H 148.791 3.40371 -2.29473 0
M  V30 1611 H 147.452 2.88169 -1.24969 0
M  V30 1612 H 146.645 3.61058 -3.51643 0
M  V30 1613 H 146.247 1.90232 -3.22006 0
M  V30 1614 H 148.539 4.45003 -5.10861 0
M  V30 1615 H 149.482 3.39859 -6.2121 0
M  V30 1616 H 149.89 3.4459 -4.47122 0
M  V30 1617 N 149.288 1.51039 0.449983 0
M  V30 1618 C 150.235 1.71439 1.54523 0
M  V30 1619 C 151.205 0.555871 1.56522 0
M  V30 1620 O 152.39 0.788871 1.73728 0
M  V30 1621 C 149.53 1.83384 2.92343 0
M  V30 1622 C 148.643 3.10873 2.9997 0
M  V30 1623 C 147.778 3.13488 4.28834 0
M  V30 1624 C 146.817 4.35343 4.30282 0
M  V30 1625 N 145.954 4.35579 5.5065 0
M  V30 1626 H 150.794 2.64934 1.36433 0
M  V30 1627 H 148.331 1.31312 0.662982 0
M  V30 1628 H 150.289 1.88291 3.72293 0
M  V30 1629 H 148.919 0.933086 3.0902 0
M  V30 1630 H 147.971 3.15336 2.12761 0
M  V30 1631 H 149.283 4.00814 2.96901 0
M  V30 1632 H 148.437 3.17241 5.17149 0
M  V30 1633 H 147.176 2.21414 4.34543 0
M  V30 1634 H 146.181 4.3178 3.40362 0
M  V30 1635 H 147.406 5.28668 4.26248 0
M  V30 1636 H 145.352 3.46369 5.57104 0
M  V30 1637 H 145.269 5.19313 5.49409 0
M  V30 1638 H 146.537 4.43507 6.41032 0
M  V30 1639 N 150.766 -0.704594 1.40972 0
M  V30 1640 C 151.991 -1.49858 1.43378 0
M  V30 1641 C 152.416 -1.88061 0.038184 0
M  V30 1642 O 151.774 -1.5402 -0.956425 0
M  V30 1643 C 151.822 -2.74333 2.34038 0
M  V30 1644 O 150.926 -3.7147 1.7912 0
M  V30 1645 H 150.267 -0.45139 0.486974 0
M  V30 1646 H 152.797 -0.866832 1.8533 0
M  V30 1647 H 152.807 -3.22741 2.49604 0
M  V30 1648 H 151.482 -2.45863 3.35446 0
M  V30 1649 H 150.059 -3.30363 1.72958 0
M  V30 1650 N 152.244 -1.26651 -0.937939 0
M  V30 1651 C 153.174 -1.10993 -2.05433 0
M  V30 1652 C 154.155 -0.0142161 -1.70094 0
M  V30 1653 O 155.34 -0.186837 -1.93299 0
M  V30 1654 C 152.47 -0.745561 -3.39203 0
M  V30 1655 C 151.424 -1.79337 -3.88616 0
M  V30 1656 C 150.75 -1.28324 -5.19073 0
M  V30 1657 C 152.05 -3.19553 -4.13138 0
M  V30 1658 H 153.744 -2.0438 -2.1879 0
M  V30 1659 H 151.29 -0.984041 -1.05131 0
M  V30 1660 H 153.243 -0.622888 -4.16771 0
M  V30 1661 H 151.967 0.22401 -3.25831 0
M  V30 1662 H 150.626 -1.90477 -3.13231 0
M  V30 1663 H 150.274 -0.303414 -5.02084 0
M  V30 1664 H 149.974 -1.98369 -5.53103 0
M  V30 1665 H 151.498 -1.1733 -5.99221 0
M  V30 1666 H 152.912 -3.11471 -4.81309 0
M  V30 1667 H 151.309 -3.87218 -4.58457 0
M  V30 1668 H 152.379 -3.65368 -3.18801 0
M  V30 1669 N 153.722 1.14298 -1.08507 0
M  V30 1670 C 154.952 1.88945 -0.835663 0
M  V30 1671 C 155.36 1.78894 0.615928 0
M  V30 1672 O 154.703 1.1468 1.43506 0
M  V30 1673 C 154.765 3.39585 -1.17994 0
M  V30 1674 C 154.429 3.7342 -2.63451 0
M  V30 1675 C 155.426 3.73454 -3.61702 0
M  V30 1676 C 153.111 4.03368 -2.99332 0
M  V30 1677 C 155.105 4.02961 -4.93864 0
M  V30 1678 C 152.792 4.32538 -4.31687 0
M  V30 1679 C 153.79 4.32318 -5.28763 0
M  V30 1680 O 153.478 4.6078 -6.58739 0
M  V30 1681 H 153.21 0.605307 -0.300965 0
M  V30 1682 H 155.764 1.45673 -1.44806 0
M  V30 1683 H 153.994 3.83315 -0.51055 0
M  V30 1684 H 155.683 3.9554 -0.911182 0
M  V30 1685 H 156.449 3.50403 -3.35325 0
M  V30 1686 H 152.328 4.02692 -2.24411 0
M  V30 1687 H 155.872 4.02704 -5.69627 0
M  V30 1688 H 151.769 4.55059 -4.57812 0
M  V30 1689 H 152.537 4.78492 -6.64069 0
M  V30 1690 N 155.201 0.870884 1.31352 0
M  V30 1691 C 156.449 0.48132 1.96285 0
M  V30 1692 C 156.77 -0.969813 1.69173 0
M  V30 1693 O 156.04 -1.67998 1.00764 0
M  V30 1694 H 154.62 0.175002 0.726212 0
M  V30 1695 H 157.282 1.11087 1.60143 0
M  V30 1696 H 156.378 0.639825 3.05471 0
M  V30 1697 N 156.679 -1.44442 0.630414 0
M  V30 1698 C 157.627 -2.32437 -0.0871428 0
M  V30 1699 C 158.621 -1.47304 -0.836525 0
M  V30 1700 O 159.827 -1.63653 -0.749506 0
M  V30 1701 H 156.202 -0.750533 -0.0469495 0
M  V30 1702 H 158.173 -2.90709 0.673096 0
M  V30 1703 C 156.922 -3.31288 -1.05563 0
M  V30 1704 H 156.245 -3.96805 -0.488426 0
M  V30 1705 H 157.685 -3.9554 -1.52721 0
M  V30 1706 C 156.144 -2.6016 -2.14052 0
M  V30 1707 O 156.674 -2.39997 -3.22124 0
M  V30 1708 N 154.88 -2.19911 -1.89967 0
M  V30 1709 H 154.427 -2.36509 -1.02085 0
M  V30 1710 H 154.385 -1.72646 -2.62756 0
M  V30 1711 N 158.157 -0.370918 -1.53173 0
M  V30 1712 C 159.105 0.488101 -2.27421 0
M  V30 1713 C 160.099 1.07884 -1.30604 0
M  V30 1714 O 161.305 1.02143 -1.48212 0
M  V30 1715 H 157.68 0.176134 -0.731082 0
M  V30 1716 H 159.651 -0.159815 -2.97972 0
M  V30 1717 C 158.4 1.61306 -3.08019 0
M  V30 1718 H 157.723 1.1678 -3.82364 0
M  V30 1719 H 159.163 2.18872 -3.63141 0
M  V30 1720 C 157.622 2.55848 -2.19188 0
M  V30 1721 O 158.152 3.58799 -1.80626 0
M  V30 1722 N 156.358 2.2516 -1.83715 0
M  V30 1723 H 155.905 1.41476 -2.15273 0
M  V30 1724 H 155.863 2.8867 -1.24567 0
M  V30 1725 N 159.635 1.57281 -0.100228 0
M  V30 1726 C 160.583 2.15542 0.874328 0
M  V30 1727 C 161.577 1.09962 1.28859 0
M  V30 1728 O 162.783 1.28298 1.26252 0
M  V30 1729 H 159.158 0.689567 0.300003 0
M  V30 1730 H 161.129 2.96241 0.35829 0
M  V30 1731 C 159.878 2.75454 2.1218 0
M  V30 1732 H 159.201 3.56384 1.81193 0
M  V30 1733 H 160.641 3.19781 2.78417 0
M  V30 1734 C 159.1 1.71602 2.89921 0
M  V30 1735 O 159.63 1.15804 3.84646 0
M  V30 1736 N 157.836 1.41975 2.53558 0
M  V30 1737 H 157.383 1.87539 1.76598 0
M  V30 1738 H 157.341 0.727274 3.05873 0
M  V30 1739 N 161.113 -0.173488 1.56642 0
M  V30 1740 C 162.061 -1.23417 1.97157 0
M  V30 1741 C 163.055 -1.45946 0.860013 0
M  V30 1742 O 164.261 -1.46551 1.04512 0
M  V30 1743 H 160.636 -0.414818 0.62724 0
M  V30 1744 H 162.607 -0.865582 2.8557 0
M  V30 1745 C 161.356 -2.5665 2.34576 0
M  V30 1746 H 160.679 -2.40137 3.19647 0
M  V30 1747 H 162.119 -3.2956 2.6677 0
M  V30 1748 C 160.578 -3.15245 1.18836 0
M  V30 1749 O 161.108 -3.98883 0.474869 0
M  V30 1750 N 159.314 -2.74303 0.959497 0
M  V30 1751 H 158.861 -2.0639 1.54146 0
M  V30 1752 H 158.819 -3.13844 0.186932 0
M  V30 1753 N 162.591 -1.51276 -0.441967 0
M  V30 1754 C 163.539 -1.72823 -1.55676 0
M  V30 1755 C 164.533 -0.59445 -1.58627 0
M  V30 1756 O 165.739 -0.775715 -1.62427 0
M  V30 1757 H 162.114 -0.545983 -0.517113 0
M  V30 1758 H 164.085 -2.6628 -1.34675 0
M  V30 1759 C 162.834 -1.86619 -2.93375 0
M  V30 1760 H 162.157 -2.73264 -2.91834 0
M  V30 1761 H 163.597 -2.05709 -3.70756 0
M  V30 1762 C 162.056 -0.624842 -3.31055 0
M  V30 1763 O 162.586 0.222636 -4.01083 0
M  V30 1764 N 160.792 -0.470288 -2.86769 0
M  V30 1765 H 160.339 -1.161 -2.29953 0
M  V30 1766 H 160.297 0.359051 -3.12343 0
M  V30 1767 N 164.069 0.697108 -1.41344 0
M  V30 1768 C 165.017 1.83237 -1.43272 0
M  V30 1769 C 166.011 1.66522 -0.310947 0
M  V30 1770 O 167.217 1.73402 -0.482899 0
M  V30 1771 H 163.592 0.603802 -0.448249 0
M  V30 1772 H 165.563 1.78727 -2.38954 0
M  V30 1773 C 164.312 3.21245 -1.33029 0
M  V30 1774 H 163.635 3.34723 -2.18633 0
M  V30 1775 H 165.075 4.00763 -1.38439 0
M  V30 1776 C 163.534 3.36873 -0.0424635 0
M  V30 1777 O 164.064 3.91177 0.913421 0
M  V30 1778 N 162.27 2.90581 0.0331145 0
M  V30 1779 H 161.817 2.46577 -0.745506 0
M  V30 1780 H 161.775 3.01416 0.894199 0
M  V30 1781 N 165.547 1.27147 0.931209 0
M  V30 1782 C 166.51 1.09615 2.01289 0
M  V30 1783 C 167.51 0.0412581 1.60747 0
M  V30 1784 O 168.7 0.285545 1.71844 0
M  V30 1785 C 165.832 0.669447 3.34262 0
M  V30 1786 H 167.025 2.05662 2.18273 0
M  V30 1787 H 164.578 1.09885 1.11153 0
M  V30 1788 H 165.313 -0.292572 3.22978 0
M  V30 1789 H 165.098 1.43127 3.65044 0
M  V30 1790 H 166.588 0.568921 4.13706 0
M  V30 1791 N 167.025 -1.13721 1.09112 0
M  V30 1792 C 168.273 -1.84559 0.823562 0
M  V30 1793 C 168.594 -1.83754 -0.652658 0
M  V30 1794 O 167.864 -1.29102 -1.47342 0
M  V30 1795 H 166.444 -0.683376 0.301673 0
M  V30 1796 H 169.106 -1.37771 1.37859 0
M  V30 1797 H 168.202 -2.8917 1.17419 0
M  V30 1798 N 168.503 -0.877838 -1.30888 0
M  V30 1799 C 169.728 -0.506629 -2.01117 0
M  V30 1800 C 170.153 0.895564 -1.65412 0
M  V30 1801 O 169.511 1.5923 -0.866922 0
M  V30 1802 C 169.559 -0.680223 -3.54126 0
M  V30 1803 O 168.663 0.277033 -4.11468 0
M  V30 1804 H 168.004 -0.200518 -0.633 0
M  V30 1805 H 170.534 -1.18342 -1.66902 0
M  V30 1806 H 170.544 -0.5765 -4.03907 0
M  V30 1807 H 169.219 -1.70261 -3.79452 0
M  V30 1808 H 167.796 0.127606 -3.72682 0
M  V30 1809 N 169.982 1.44106 -0.638065 0
M  V30 1810 C 170.892 2.34513 0.0637334 0
M  V30 1811 C 171.908 1.53018 0.828346 0
M  V30 1812 O 173.084 1.85723 0.779036 0
M  V30 1813 C 170.149 3.31095 1.02844 0
M  V30 1814 C 169.21 4.28497 0.26244 0
M  V30 1815 C 168.443 5.20465 1.1812 0
M  V30 1816 O 168.666 5.16514 2.42011 0
M  V30 1817 O 167.6 5.98251 0.661774 0
M  V30 1818 H 171.426 2.95989 -0.68003 0
M  V30 1819 H 169.011 1.43994 -0.398252 0
M  V30 1820 H 170.893 3.90526 1.58327 0
M  V30 1821 H 169.568 2.72144 1.7527 0
M  V30 1822 H 168.475 3.72592 -0.335602 0
M  V30 1823 H 169.808 4.90388 -0.421936 0
M  V30 1824 N 171.46 0.379036 1.52974 0
M  V30 1825 C 172.685 -0.209353 2.06341 0
M  V30 1826 C 173.11 -1.40583 1.24972 0
M  V30 1827 O 172.468 -1.79246 0.272155 0
M  V30 1828 C 172.516 -0.567786 3.56102 0
M  V30 1829 O 171.62 -1.66318 3.77375 0
M  V30 1830 H 170.961 -0.0272919 0.663439 0
M  V30 1831 H 173.491 0.543536 1.97248 0
M  V30 1832 H 173.501 -0.835003 3.99364 0
M  V30 1833 H 172.176 0.307013 4.14765 0
M  V30 1834 H 170.753 -1.39048 3.46006 0
M  V30 1835 N 172.938 -1.57226 0.108567 0
M  V30 1836 C 174.215 -1.86333 -0.594939 0
M  V30 1837 C 174.595 -1.00788 -1.85486 0
M  V30 1838 O 173.943 -0.0839293 -2.28346 0
M  V30 1839 C 174.153 -3.37265 -0.897405 0
M  V30 1840 C 175.501 -4.05629 -1.25501 0
M  V30 1841 O 176.525 -3.42224 -0.987998 0
M  V30 1842 O 175.384 -5.17531 -1.75567 0
M  V30 1843 H 172.478 -0.771018 -0.2991 0
M  V30 1844 H 175.024 -1.69102 0.142283 0
M  V30 1845 H 173.796 -3.913 -0.00413806 0
M  V30 1846 H 173.419 -3.59889 -1.69014 0
M  V30 1847 N 174.416 0.165178 -1.56732 0
M  V30 1848 C 175.662 0.882112 -1.82611 0
M  V30 1849 C 175.995 1.81628 -0.687378 0
M  V30 1850 O 175.27 1.92009 0.310267 0
M  V30 1851 C 175.553 1.67245 -3.18906 0
M  V30 1852 C 175.406 0.760987 -4.43316 0
M  V30 1853 C 176.725 2.63884 -3.52212 0
M  V30 1854 H 173.844 0.319242 -0.664269 0
M  V30 1855 H 176.486 0.148052 -1.89422 0
M  V30 1856 H 174.636 2.29824 -3.1323 0
M  V30 1857 H 176.308 0.147596 -4.61064 0
M  V30 1858 H 174.551 0.0694102 -4.33744 0
M  V30 1859 H 175.222 1.34962 -5.35247 0
M  V30 1860 H 177.698 2.11429 -3.58381 0
M  V30 1861 H 176.574 3.16245 -4.48643 0
M  V30 1862 H 176.835 3.44377 -2.77231 0
M  V30 1863 N 175.894 1.51508 0.433938 0
M  V30 1864 C 177.122 1.68157 1.20543 0
M  V30 1865 C 177.537 0.380362 1.84929 0
M  V30 1866 O 176.894 -0.641446 1.70856 0
M  V30 1867 C 176.945 2.79965 2.28696 0
M  V30 1868 O 176.666 4.05045 1.66943 0
M  V30 1869 C 178.167 3.07912 3.18912 0
M  V30 1870 H 175.387 0.56421 0.363191 0
M  V30 1871 H 177.931 1.97941 0.513754 0
M  V30 1872 H 176.086 2.5277 2.93574 0
M  V30 1873 H 176.5 4.67165 2.38448 0
M  V30 1874 H 177.974 3.89719 3.90926 0
M  V30 1875 H 178.451 2.20456 3.79863 0
M  V30 1876 H 179.057 3.36779 2.59731 0
M  V30 1877 N 177.372 -0.689602 1.41712 0
M  V30 1878 C 178.302 -1.81577 1.46806 0
M  V30 1879 C 179.283 -1.66945 0.326105 0
M  V30 1880 O 180.468 -1.86588 0.538377 0
M  V30 1881 C 177.598 -3.19762 1.35535 0
M  V30 1882 C 176.552 -3.49107 2.47605 0
M  V30 1883 C 175.878 -4.86711 2.21397 0
M  V30 1884 C 177.178 -3.47483 3.89939 0
M  V30 1885 H 178.872 -1.7757 2.41058 0
M  V30 1886 H 176.418 -0.852887 1.16025 0
M  V30 1887 H 178.371 -3.98263 1.3771 0
M  V30 1888 H 177.095 -3.24409 0.377708 0
M  V30 1889 H 175.754 -2.72959 2.44722 0
M  V30 1890 H 175.402 -4.8799 1.21961 0
M  V30 1891 H 175.102 -5.0731 2.96497 0
M  V30 1892 H 176.626 -5.67515 2.25297 0
M  V30 1893 H 178.04 -4.1598 3.94505 0
M  V30 1894 H 176.437 -3.79615 4.64771 0
M  V30 1895 H 177.507 -2.46341 4.17665 0
M  V30 1896 N 178.85 -1.27639 -0.924453 0
M  V30 1897 C 179.797 -1.10644 -2.0255 0
M  V30 1898 C 180.767 -0.00658438 -1.66099 0
M  V30 1899 O 181.952 -0.16952 -1.90045 0
M  V30 1900 C 179.092 -0.76309 -3.36557 0
M  V30 1901 C 178.205 -1.94091 -3.85944 0
M  V30 1902 C 177.34 -1.53914 -5.08413 0
M  V30 1903 C 176.379 -2.68425 -5.50104 0
M  V30 1904 N 175.516 -2.28815 -6.63768 0
M  V30 1905 H 180.356 -2.04858 -2.16419 0
M  V30 1906 H 177.893 -1.01974 -1.06017 0
M  V30 1907 H 179.851 -0.544822 -4.13627 0
M  V30 1908 H 178.481 0.142102 -3.22487 0
M  V30 1909 H 177.533 -2.27162 -3.05125 0
M  V30 1910 H 178.845 -2.7998 -4.12811 0
M  V30 1911 H 177.999 -1.28231 -5.92994 0
M  V30 1912 H 176.738 -0.651391 -4.8333 0
M  V30 1913 H 175.743 -2.94819 -4.64071 0
M  V30 1914 H 176.968 -3.57826 -5.7718 0
M  V30 1915 H 174.914 -1.42495 -6.40337 0
M  V30 1916 H 174.831 -3.08242 -6.90306 0
M  V30 1917 H 176.099 -2.06387 -7.51681 0
M  V30 1918 N 180.328 1.1314 -1.09713 0
M  V30 1919 C 181.553 1.88862 -0.857081 0
M  V30 1920 C 181.978 1.78729 0.586304 0
M  V30 1921 O 181.336 1.13692 1.41222 0
M  V30 1922 C 181.384 3.36325 -1.30069 0
M  V30 1923 O 180.488 4.09815 -0.461007 0
M  V30 1924 H 179.829 0.587108 -0.310162 0
M  V30 1925 H 182.359 1.43129 -1.46203 0
M  V30 1926 H 182.369 3.87157 -1.28738 0
M  V30 1927 H 181.044 3.43017 -2.35185 0
M  V30 1928 H 179.621 3.68986 -0.538888 0
M  V30 1929 N 181.806 0.884767 1.30421 0
M  V30 1930 C 182.736 0.367574 2.30589 0
M  V30 1931 C 183.717 -0.549464 1.60981 0
M  V30 1932 O 184.902 -0.46336 1.88591 0
M  V30 1933 C 182.032 -0.418944 3.44764 0
M  V30 1934 C 180.986 0.406316 4.26067 0
M  V30 1935 C 180.312 -0.506793 5.32293 0
M  V30 1936 C 181.612 1.64832 4.95608 0
M  V30 1937 H 183.306 1.20462 2.74097 0
M  V30 1938 H 180.852 0.580695 1.31772 0
M  V30 1939 H 182.805 -0.791395 4.13902 0
M  V30 1940 H 181.529 -1.28964 3.0006 0
M  V30 1941 H 180.188 0.760903 3.58617 0
M  V30 1942 H 179.836 -1.37519 4.83836 0
M  V30 1943 H 179.536 0.0415828 5.87585 0
M  V30 1944 H 181.06 -0.875764 6.04287 0
M  V30 1945 H 182.474 1.34646 5.57264 0
M  V30 1946 H 180.871 2.13688 5.60765 0
M  V30 1947 H 181.941 2.39284 4.21748 0
M  V30 1948 N 183.284 -1.43765 0.645699 0
M  V30 1949 C 184.514 -2.05953 0.163318 0
M  V30 1950 C 184.922 -1.48432 -1.17322 0
M  V30 1951 O 184.265 -0.607295 -1.73371 0
M  V30 1952 C 184.327 -3.59499 -0.0103065 0
M  V30 1953 C 183.991 -4.39563 1.25035 0
M  V30 1954 C 184.988 -4.72108 2.17739 0
M  V30 1955 C 182.673 -4.79697 1.48983 0
M  V30 1956 C 184.667 -5.43688 3.3269 0
M  V30 1957 C 182.354 -5.51023 2.64229 0
M  V30 1958 C 183.352 -5.8294 3.55908 0
M  V30 1959 O 183.04 -6.5281 4.69142 0
M  V30 1960 H 182.772 -0.670798 0.0836986 0
M  V30 1961 H 185.326 -1.85384 0.884407 0
M  V30 1962 H 183.556 -3.78613 -0.78669 0
M  V30 1963 H 185.245 -4.03408 -0.449087 0
M  V30 1964 H 186.011 -4.41627 2.00476 0
M  V30 1965 H 181.89 -4.54266 0.785078 0
M  V30 1966 H 185.434 -5.68517 4.04269 0
M  V30 1967 H 181.331 -5.8092 2.81429 0
M  V30 1968 H 182.099 -6.71288 4.6831 0
M  V30 1969 N 184.763 -0.387143 -1.52771 0
M  V30 1970 C 185.693 0.440551 -2.29306 0
M  V30 1971 C 186.674 1.06535 -1.32606 0
M  V30 1972 O 187.859 1.07853 -1.61497 0
M  V30 1973 C 184.989 1.56919 -3.09829 0
M  V30 1974 C 183.943 1.07054 -4.14395 0
M  V30 1975 C 183.269 2.29109 -4.83129 0
M  V30 1976 C 184.569 0.140015 -5.22112 0
M  V30 1977 H 186.263 -0.198026 -2.98744 0
M  V30 1978 H 183.809 -0.09668 -1.43675 0
M  V30 1979 H 185.762 2.15503 -3.62128 0
M  V30 1980 H 184.486 2.23532 -2.3812 0
M  V30 1981 H 183.145 0.507247 -3.63074 0
M  V30 1982 H 182.793 2.94227 -4.0797 0
M  V30 1983 H 182.493 1.96406 -5.53804 0
M  V30 1984 H 184.017 2.88339 -5.38231 0
M  V30 1985 H 185.431 0.633978 -5.69784 0
M  V30 1986 H 183.828 -0.0971485 -6.00021 0
M  V30 1987 H 184.898 -0.811711 -4.78058 0
M  V30 1988 N 186.241 1.57166 -0.116904 0
M  V30 1989 C 187.466 1.999 0.55271 0
M  V30 1990 C 187.891 0.996039 1.59564 0
M  V30 1991 O 187.249 -0.032556 1.81271 0
M  V30 1992 C 187.297 3.4152 1.15742 0
M  V30 1993 O 186.401 3.44106 2.27299 0
M  V30 1994 H 185.742 0.649447 0.138258 0
M  V30 1995 H 188.272 2.03573 -0.204759 0
M  V30 1996 H 188.282 3.79684 1.49346 0
M  V30 1997 H 186.957 4.14034 0.393493 0
M  V30 1998 H 185.534 3.17759 1.9515 0
M  V30 1999 N 187.719 -0.156864 1.56817 0
M  V30 2000 C 188.649 -1.19589 2.00551 0
M  V30 2001 C 189.63 -1.4536 0.883426 0
M  V30 2002 O 190.815 -1.56449 1.15054 0
M  V30 2003 C 187.945 -2.53143 2.37773 0
M  V30 2004 C 186.899 -2.41913 3.53075 0
M  V30 2005 C 186.225 -3.80088 3.76081 0
M  V30 2006 C 187.525 -1.91157 4.86062 0
M  V30 2007 H 189.219 -0.832293 2.87599 0
M  V30 2008 H 186.765 -0.398918 1.38364 0
M  V30 2009 H 188.718 -3.26047 2.66967 0
M  V30 2010 H 187.442 -2.91319 1.4765 0
M  V30 2011 H 186.101 -1.71462 3.24031 0
M  V30 2012 H 185.749 -4.15683 2.83225 0
M  V30 2013 H 185.449 -3.73439 4.53671 0
M  V30 2014 H 186.973 -4.54556 4.0769 0
M  V30 2015 H 188.387 -2.53846 5.14038 0
M  V30 2016 H 186.784 -1.95422 5.67389 0
M  V30 2017 H 187.854 -0.866673 4.77092 0
M  V30 2018 N 189.197 -1.51736 -0.425897 0
M  V30 2019 C 190.144 -1.73875 -1.51776 0
M  V30 2020 C 191.114 -0.580702 -1.55618 0
M  V30 2021 O 192.299 -0.81641 -1.72451 0
M  V30 2022 C 189.439 -1.88012 -2.89388 0
M  V30 2023 C 188.552 -3.15606 -2.94986 0
M  V30 2024 C 187.687 -3.20271 -4.23793 0
M  V30 2025 C 186.726 -4.42134 -4.23302 0
M  V30 2026 N 185.863 -4.44284 -5.43651 0
M  V30 2027 H 190.703 -2.67071 -1.32201 0
M  V30 2028 H 188.24 -1.32351 -0.642008 0
M  V30 2029 H 190.198 -1.9419 -3.69251 0
M  V30 2030 H 188.828 -0.98213 -3.07496 0
M  V30 2031 H 187.88 -3.18681 -2.07717 0
M  V30 2032 H 189.192 -4.05486 -2.90486 0
M  V30 2033 H 188.346 -3.25428 -5.12036 0
M  V30 2034 H 187.085 -2.28299 -4.30965 0
M  V30 2035 H 186.09 -4.3714 -3.3345 0
M  V30 2036 H 187.315 -5.35382 -4.17783 0
M  V30 2037 H 185.261 -3.55188 -5.51523 0
M  V30 2038 H 185.178 -5.27988 -5.41078 0
M  V30 2039 H 186.446 -4.53649 -6.33895 0
M  V30 2040 N 190.675 0.682077 -1.42076 0
M  V30 2041 C 191.923 1.4393 -1.41876 0
M  V30 2042 C 192.244 1.94971 -0.0335599 0
M  V30 2043 O 191.514 1.72591 0.926773 0
M  V30 2044 H 190.094 0.534085 -0.522267 0
M  V30 2045 H 192.756 0.806427 -1.77434 0
M  V30 2046 H 191.852 2.29588 -2.11414 0
M  V30 2047 N 192.153 1.28127 0.917671 0
M  V30 2048 C 193.378 1.18007 1.70555 0
M  V30 2049 C 193.803 -0.258257 1.86319 0
M  V30 2050 O 193.161 -1.1869 1.37049 0
M  V30 2051 C 193.209 1.87948 3.07746 0
M  V30 2052 O 192.313 1.18427 3.9503 0
M  V30 2053 H 191.654 0.409867 0.522403 0
M  V30 2054 H 194.184 1.69379 1.1477 0
M  V30 2055 H 194.194 1.95701 3.58001 0
M  V30 2056 H 192.869 2.92573 2.95591 0
M  V30 2057 H 191.446 1.18811 3.53466 0
M  V30 2058 N 193.631 -1.12557 1.10312 0
M  V30 2059 C 194.563 -2.17971 0.708625 0
M  V30 2060 C 195.576 -1.60806 -0.254027 0
M  V30 2061 O 196.765 -1.78458 -0.0386891 0
M  V30 2062 C 193.865 -3.38891 0.0248198 0
M  V30 2063 C 193.038 -4.25548 1.01132 0
M  V30 2064 C 192.097 -5.24972 0.35924 0
M  V30 2065 O 191.123 -5.60174 1.00965 0
M  V30 2066 N 192.325 -5.73747 -0.882847 0
M  V30 2067 H 195.09 -2.52427 1.61557 0
M  V30 2068 H 192.651 -1.27967 0.991771 0
M  V30 2069 H 194.643 -4.02485 -0.422852 0
M  V30 2070 H 193.213 -3.02596 -0.784514 0
M  V30 2071 H 192.433 -3.58589 1.6373 0
M  V30 2072 H 193.721 -4.80294 1.67914 0
M  V30 2073 H 193.119 -5.4731 -1.43065 0
M  V30 2074 H 191.676 -6.39234 -1.27369 0
M  V30 2075 N 195.109 -0.891671 -1.2995 0
M  V30 2076 C 196.057 -0.353066 -2.29905 0
M  V30 2077 C 197.051 0.543509 -1.60444 0
M  V30 2078 O 198.257 0.4272 -1.74857 0
M  V30 2079 H 194.632 -0.095531 -0.745907 0
M  V30 2080 H 196.603 -1.20961 -2.72784 0
M  V30 2081 C 195.352 0.411475 -3.45257 0
M  V30 2082 H 194.675 -0.269182 -3.98893 0
M  V30 2083 H 196.115 0.753328 -4.17254 0
M  V30 2084 C 194.574 1.6111 -2.9588 0
M  V30 2085 O 195.104 2.71045 -2.96475 0
M  V30 2086 N 193.31 1.45054 -2.51809 0
M  V30 2087 H 192.857 0.556175 -2.51524 0
M  V30 2088 H 192.815 2.25453 -2.1913 0
M  V30 2089 N 196.587 1.43421 -0.653314 0
M  V30 2090 C 197.815 2.06163 -0.174491 0
M  V30 2091 C 198.23 1.48969 1.1599 0
M  V30 2092 O 197.587 0.621042 1.71608 0
M  V30 2093 C 197.638 3.61417 -0.0774865 0
M  V30 2094 O 197.359 4.16485 -1.35912 0
M  V30 2095 C 198.86 4.41235 0.427402 0
M  V30 2096 H 196.08 0.664946 -0.0899353 0
M  V30 2097 H 198.624 1.83924 -0.893988 0
M  V30 2098 H 196.779 3.82841 0.59257 0
M  V30 2099 H 197.193 5.10153 -1.21839 0
M  V30 2100 H 198.667 5.5021 0.44423 0
M  V30 2101 H 199.144 4.14268 1.45873 0
M  V30 2102 H 199.75 4.2478 -0.210167 0
M  V30 2103 N 198.065 0.39524 1.52563 0
M  V30 2104 C 198.975 -0.444232 2.30356 0
M  V30 2105 C 199.991 -1.06615 1.37511 0
M  V30 2106 O 201.167 -1.07067 1.70583 0
M  V30 2107 C 198.232 -1.55315 3.09964 0
M  V30 2108 C 197.293 -0.955734 4.18526 0
M  V30 2109 C 196.526 -2.01181 4.9433 0
M  V30 2110 O 196.749 -3.22781 4.70285 0
M  V30 2111 O 195.683 -1.62579 5.79527 0
M  V30 2112 H 199.509 0.189667 3.03107 0
M  V30 2113 H 197.094 0.1588 1.48554 0
M  V30 2114 H 198.976 -2.19724 3.59582 0
M  V30 2115 H 197.651 -2.17191 2.4002 0
M  V30 2116 H 196.558 -0.274743 3.7309 0
M  V30 2117 H 197.891 -0.381109 4.90722 0
M  V30 2118 N 199.544 -1.57102 0.125237 0
M  V30 2119 C 200.792 -1.95021 -0.530198 0
M  V30 2120 C 201.113 -1.00982 -1.66816 0
M  V30 2121 O 200.383 -0.0672693 -1.95784 0
M  V30 2122 H 198.963 -0.720046 -0.198853 0
M  V30 2123 H 201.625 -1.93916 0.19564 0
M  V30 2124 H 200.721 -2.98211 -0.920681 0
M  V30 2125 N 201.022 0.148545 -1.56898 0
M  V30 2126 C 201.932 1.20293 -2.01412 0
M  V30 2127 C 202.948 1.47107 -0.929273 0
M  V30 2128 O 204.124 1.58807 -1.23863 0
M  V30 2129 C 201.189 2.51682 -2.38447 0
M  V30 2130 C 200.25 2.32529 -3.60872 0
M  V30 2131 C 199.483 3.57653 -3.96132 0
M  V30 2132 O 199.706 4.63771 -3.32073 0
M  V30 2133 O 198.64 3.50408 -4.89385 0
M  V30 2134 H 202.466 0.855025 -2.91416 0
M  V30 2135 H 200.051 0.357151 -1.45068 0
M  V30 2136 H 201.933 3.29147 -2.63135 0
M  V30 2137 H 200.608 2.86006 -1.51599 0
M  V30 2138 H 199.515 1.53019 -3.41373 0
M  V30 2139 H 200.848 2.03121 -4.48333 0
M  V30 2140 N 202.5 1.5196 0.417844 0
M  V30 2141 C 203.725 1.69717 1.1921 0
M  V30 2142 C 204.15 0.402148 1.83751 0
M  V30 2143 O 203.508 -0.639593 1.69643 0
M  V30 2144 C 203.556 2.82794 2.2374 0
M  V30 2145 O 202.66 2.47756 3.29683 0
M  V30 2146 H 202.001 0.565263 0.348387 0
M  V30 2147 H 204.531 1.98621 0.490985 0
M  V30 2148 H 204.541 3.07452 2.68212 0
M  V30 2149 H 203.216 3.76756 1.76146 0
M  V30 2150 H 201.793 2.33739 2.90552 0
M  V30 2151 N 203.978 -0.674533 1.42435 0
M  V30 2152 C 204.888 -1.81751 1.48337 0
M  V30 2153 C 205.904 -1.69975 0.372099 0
M  V30 2154 O 207.08 -1.91521 0.62304 0
M  V30 2155 C 204.145 -3.17895 1.38361 0
M  V30 2156 C 203.206 -3.41625 2.59982 0
M  V30 2157 C 202.439 -4.71274 2.50473 0
M  V30 2158 O 202.662 -5.49197 1.54075 0
M  V30 2159 O 201.596 -4.96254 3.4061 0
M  V30 2160 H 205.422 -1.79728 2.44809 0
M  V30 2161 H 203.007 -0.830312 1.24202 0
M  V30 2162 H 204.889 -3.99136 1.35161 0
M  V30 2163 H 203.564 -3.20555 0.450144 0
M  V30 2164 H 202.471 -2.60231 2.68757 0
M  V30 2165 H 203.804 -3.43796 3.52229 0
M  V30 2166 N 205.456 -1.28612 -0.910864 0
M  V30 2167 C 206.702 -1.16106 -1.66274 0
M  V30 2168 C 207.035 0.289113 -1.92036 0
M  V30 2169 O 206.31 1.21 -1.52281 0
M  V30 2170 C 206.593 -1.96309 -3.01885 0
M  V30 2171 C 206.446 -3.49405 -2.8326 0
M  V30 2172 C 207.765 -1.78076 -4.02463 0
M  V30 2173 H 204.884 -0.423152 -0.603417 0
M  V30 2174 H 207.526 -1.57961 -1.05586 0
M  V30 2175 H 205.676 -1.60742 -3.53687 0
M  V30 2176 H 207.348 -3.94894 -2.38446 0
M  V30 2177 H 205.591 -3.74893 -2.18261 0
M  V30 2178 H 206.262 -4.00784 -3.79574 0
M  V30 2179 H 208.738 -2.0912 -3.59733 0
M  V30 2180 H 207.614 -2.36561 -4.95308 0
M  V30 2181 H 207.875 -0.733008 -4.35981 0
M  V30 2182 N 206.934 1.1197 -1.10907 0
M  V30 2183 C 208.345 1.65114 -0.871446 0
M  V30 2184 C 208.696 1.86885 0.597353 0
M  V30 2185 O 207.821 1.59896 1.45816 0
M  V30 2186 C 208.416 2.99944 -1.5754 0
M  V30 2187 C 206.975 3.50018 -1.38435 0
M  V30 2188 C 206.122 2.24941 -1.62164 0
M  V30 2189 H 209.073 0.956851 -1.2661 0
M  V30 2190 H 209.094 3.66651 -1.01721 0
M  V30 2191 H 208.606 2.84067 -2.64438 0
M  V30 2192 H 206.707 3.71071 -0.337214 0
M  V30 2193 H 206.82 4.29165 -2.12965 0
M  V30 2194 H 205.184 2.3229 -1.04467 0
M  V30 2195 H 205.967 2.11612 -2.70324 0
M  V30 2196 N 208.412 0.89855 1.29475 0
M  V30 2197 C 209.637 0.538561 2.00285 0
M  V30 2198 C 210.062 -0.869135 1.66816 0
M  V30 2199 O 209.42 -1.57831 0.892145 0
M  V30 2200 C 209.468 0.736475 3.52999 0
M  V30 2201 O 208.572 -0.211537 4.11857 0
M  V30 2202 H 207.913 0.210563 0.62973 0
M  V30 2203 H 210.443 1.20982 1.64998 0
M  V30 2204 H 210.453 0.640685 4.02938 0
M  V30 2205 H 209.128 1.76276 3.76696 0
M  V30 2206 H 207.705 -0.0682991 3.72837 0
M  V30 2207 N 209.89 -1.43072 0.660911 0
M  V30 2208 C 211.167 -1.95307 0.107017 0
M  V30 2209 C 211.547 -1.60192 -1.37484 0
M  V30 2210 O 210.895 -0.890949 -2.10415 0
M  V30 2211 C 211.105 -3.47124 0.361402 0
M  V30 2212 C 212.453 -4.23738 0.270455 0
M  V30 2213 O 213.477 -3.54981 0.294382 0
M  V30 2214 O 212.336 -5.46131 0.200737 0
M  V30 2215 H 209.43 -0.826984 -0.00517729 0
M  V30 2216 H 211.976 -1.52972 0.734681 0
M  V30 2217 H 210.748 -3.65837 1.38848 0
M  V30 2218 H 210.371 -3.96475 -0.298953 0
M  V30 2219 N 211.368 -0.403325 -1.52352 0
M  V30 2220 C 212.645 0.232611 -1.94212 0
M  V30 2221 C 213.025 1.63133 -1.33981 0
M  V30 2222 O 212.373 2.22659 -0.513344 0
M  V30 2223 C 212.583 0.244811 -3.4814 0
M  V30 2224 C 213.931 0.46698 -4.22024 0
M  V30 2225 O 214.955 0.324419 -3.5472 0
M  V30 2226 O 213.814 0.74747 -5.41364 0
M  V30 2227 H 210.908 0.148223 -0.813609 0
M  V30 2228 H 213.454 -0.458848 -1.63379 0
M  V30 2229 H 212.226 -0.734378 -3.84347 0
M  V30 2230 H 211.849 0.980611 -3.85318 0
M  V30 2231 N 212.846 1.57033 -0.133567 0
M  V30 2232 C 213.756 2.19632 0.824564 0
M  V30 2233 C 214.772 1.17666 1.28182 0
M  V30 2234 O 215.948 1.50193 1.3418 0
M  V30 2235 C 213.013 2.79499 2.05137 0
M  V30 2236 C 212.074 3.96548 1.64464 0
M  V30 2237 C 211.307 4.5355 2.81297 0
M  V30 2238 O 211.53 4.09438 3.97136 0
M  V30 2239 O 210.464 5.44018 2.57542 0
M  V30 2240 H 214.29 3.01991 0.321766 0
M  V30 2241 H 211.875 1.49112 0.0927889 0
M  V30 2242 H 213.757 3.17602 2.7696 0
M  V30 2243 H 212.432 2.00162 2.54395 0
M  V30 2244 H 211.339 3.63186 0.897048 0
M  V30 2245 H 212.672 4.77364 1.19934 0
M  V30 2246 N 214.325 -0.140222 1.56975 0
M  V30 2247 C 215.574 -0.850152 1.82908 0
M  V30 2248 C 215.887 -1.82028 0.715892 0
M  V30 2249 O 217.093 -2.57485 0.861016 0
M  V30 2250 C 215.549 -1.5625 3.24213 0
M  V30 2251 C 215.157 -0.63443 4.43485 0
M  V30 2252 C 216.901 -2.25881 3.59413 0
M  V30 2253 C 214.808 -1.34879 5.75814 0
M  V30 2254 H 213.738 -0.321221 0.682153 0
M  V30 2255 H 216.389 -0.102874 1.83211 0
M  V30 2256 H 214.771 -2.35565 3.18316 0
M  V30 2257 H 215.945 0.12398 4.60633 0
M  V30 2258 H 214.26 -0.0461836 4.16374 0
M  V30 2259 H 216.857 -2.79978 4.5554 0
M  V30 2260 H 217.2 -3.02693 2.85802 0
M  V30 2261 H 217.733 -1.53477 3.67001 0
M  V30 2262 H 214.472 -0.622385 6.52539 0
M  V30 2263 H 213.992 -2.07974 5.6259 0
M  V30 2264 H 215.671 -1.88784 6.18845 0
M  V30 2265 N 215.803 -1.52179 -0.40978 0
M  V30 2266 C 216.751 -1.76086 -1.51975 0
M  V30 2267 C 217.745 -0.627964 -1.57331 0
M  V30 2268 O 218.951 -0.809993 -1.60745 0
M  V30 2269 H 215.326 -0.556829 -0.505416 0
M  V30 2270 H 217.297 -2.69077 -1.28996 0
M  V30 2271 C 216.046 -1.92799 -2.8935 0
M  V30 2272 H 215.369 -2.79392 -2.85972 0
M  V30 2273 H 216.809 -2.13527 -3.66309 0
M  V30 2274 C 215.268 -0.694923 -3.29655 0
M  V30 2275 O 215.798 0.13751 -4.01465 0
M  V30 2276 N 214.004 -0.53101 -2.85707 0
M  V30 2277 H 213.551 -1.20952 -2.27439 0
M  V30 2278 H 213.509 0.292718 -3.13034 0
M  V30 2279 N 217.281 0.66697 -1.42791 0
M  V30 2280 C 218.228 1.7803 -1.4688 0
M  V30 2281 C 219.198 1.6299 -0.319919 0
M  V30 2282 O 220.383 1.83432 -0.525118 0
M  V30 2283 C 217.523 3.1611 -1.38451 0
M  V30 2284 C 216.636 3.42381 -2.63437 0
M  V30 2285 C 215.771 4.70232 -2.47094 0
M  V30 2286 C 214.81 4.89564 -3.67415 0
M  V30 2287 N 213.947 6.08661 -3.49966 0
M  V30 2288 H 218.787 1.7387 -2.42019 0
M  V30 2289 H 216.324 0.84868 -1.20149 0
M  V30 2290 H 218.282 3.95914 -1.31561 0
M  V30 2291 H 216.912 3.19374 -0.469033 0
M  V30 2292 H 215.964 2.56774 -2.80662 0
M  V30 2293 H 217.276 3.52557 -3.52853 0
M  V30 2294 H 216.43 5.5814 -2.37834 0
M  V30 2295 H 215.169 4.62353 -1.5518 0
M  V30 2296 H 214.174 4.00096 -3.77099 0
M  V30 2297 H 215.399 4.99282 -4.6032 0
M  V30 2298 H 213.345 6.0194 -2.60776 0
M  V30 2299 H 213.262 6.19733 -4.32975 0
M  V30 2300 H 214.53 6.99226 -3.44532 0
M  V30 2301 N 218.759 1.29093 0.90403 0
M  V30 2302 C 219.987 1.19689 1.68766 0
M  V30 2303 C 220.402 -0.243113 1.87228 0
M  V30 2304 O 219.759 -1.16326 1.40621 0
M  V30 2305 C 219.81 1.90144 3.07453 0
M  V30 2306 O 219.531 3.2852 2.89838 0
M  V30 2307 C 221.032 1.87162 4.01852 0
M  V30 2308 H 218.252 0.415035 0.527244 0
M  V30 2309 H 220.796 1.7039 1.13082 0
M  V30 2310 H 218.951 1.43289 3.59926 0
M  V30 2311 H 219.365 3.63944 3.77684 0
M  V30 2312 H 220.839 2.41032 4.96596 0
M  V30 2313 H 221.316 0.84617 4.30972 0
M  V30 2314 H 221.922 2.33741 3.5531 0
M  V30 2315 N 220.237 -1.11381 1.11499 0
M  V30 2316 C 221.486 -1.82494 0.858993 0
M  V30 2317 C 221.799 -1.85605 -0.617278 0
M  V30 2318 O 223.005 -2.52824 -0.989552 0
M  V30 2319 C 221.461 -3.27745 1.48699 0
M  V30 2320 C 221.069 -3.32961 2.99735 0
M  V30 2321 C 222.813 -4.03754 1.31085 0
M  V30 2322 C 220.72 -4.72612 3.55516 0
M  V30 2323 H 219.65 -0.683802 0.317696 0
M  V30 2324 H 222.301 -1.25331 1.34031 0
M  V30 2325 H 220.683 -3.84844 0.933339 0
M  V30 2326 H 221.857 -2.85741 3.61509 0
M  V30 2327 H 220.172 -2.70433 3.16631 0
M  V30 2328 H 222.769 -5.06891 1.70192 0
M  V30 2329 H 223.112 -4.15527 0.253496 0
M  V30 2330 H 223.645 -3.53043 1.83318 0
M  V30 2331 H 220.384 -4.66036 4.60967 0
M  V30 2332 H 219.904 -5.2024 2.98513 0
M  V30 2333 H 221.583 -5.4157 3.53992 0
M  V30 2334 N 221.715 -0.905404 -1.28997 0
M  V30 2335 C 222.648 -0.331959 -2.25773 0
M  V30 2336 C 223.626 0.559099 -1.52685 0
M  V30 2337 O 224.81 0.50463 -1.8162 0
M  V30 2338 C 221.937 0.526276 -3.34586 0
M  V30 2339 C 220.983 -0.298249 -4.25456 0
M  V30 2340 S 221.816 -1.69968 -5.0781 0
M  V30 2341 C 222.972 -0.848519 -6.20122 0
M  V30 2342 H 223.205 -1.15222 -2.74064 0
M  V30 2343 H 220.738 -0.706112 -1.37308 0
M  V30 2344 H 222.696 1.01565 -3.97737 0
M  V30 2345 H 221.357 1.32084 -2.84978 0
M  V30 2346 H 220.55 0.357607 -5.0273 0
M  V30 2347 H 220.152 -0.720968 -3.66985 0
M  V30 2348 H 222.444 -0.0744325 -6.77459 0
M  V30 2349 H 223.387 -1.59353 -6.89937 0
M  V30 2350 H 223.795 -0.400383 -5.63078 0
M  V30 2351 N 223.193 1.4272 -0.668489 0
M  V30 2352 C 224.141 2.32586 0.0254857 0
M  V30 2353 C 225.135 1.49471 0.797176 0
M  V30 2354 O 226.341 1.65583 0.705853 0
M  V30 2355 H 222.716 0.751514 0.0270339 0
M  V30 2356 H 224.687 2.88823 -0.749936 0
M  V30 2357 C 223.436 3.3397 0.967427 0
M  V30 2358 H 222.759 3.97961 0.383048 0
M  V30 2359 H 224.199 3.9945 1.42181 0
M  V30 2360 C 222.658 2.65744 2.0708 0
M  V30 2361 O 223.188 2.48454 3.15648 0
M  V30 2362 N 221.394 2.2487 1.8407 0
M  V30 2363 H 220.941 2.39132 0.95778 0
M  V30 2364 H 220.899 1.79552 2.58086 0
M  V30 2365 N 224.671 0.411399 1.52136 0
M  V30 2366 C 225.918 -0.163645 2.01838 0
M  V30 2367 C 226.246 -1.4495 1.29691 0
M  V30 2368 O 225.501 -1.91725 0.392431 0
M  V30 2369 C 225.8 -0.455872 3.54481 0
M  V30 2370 C 225.466 0.741055 4.44769 0
M  V30 2371 C 224.128 1.06936 4.69167 0
M  V30 2372 C 226.48 1.54075 4.97906 0
M  V30 2373 C 223.808 2.19851 5.43951 0
M  V30 2374 C 226.16 2.66067 5.73926 0
M  V30 2375 C 224.824 2.99381 5.96596 0
M  V30 2376 H 224.094 -0.0598821 0.738576 0
M  V30 2377 H 226.741 0.553283 1.83333 0
M  V30 2378 H 225.046 -1.2544 3.71177 0
M  V30 2379 H 226.743 -0.913802 3.90449 0
M  V30 2380 H 223.333 0.475192 4.25958 0
M  V30 2381 H 227.517 1.30033 4.78963 0
M  V30 2382 H 222.773 2.46006 5.59724 0
M  V30 2383 H 226.947 3.28419 6.14096 0
M  V30 2384 H 224.574 3.86992 6.54325 0
M  V30 2385 N 226.149 -1.5696 0.141893 0
M  V30 2386 C 227.395 -1.9625 -0.511248 0
M  V30 2387 C 227.728 -1.02654 -1.64851 0
M  V30 2388 O 227.003 -0.0679676 -1.94381 0
M  V30 2389 C 227.286 -3.45285 -1.02227 0
M  V30 2390 C 227.139 -4.49658 0.113138 0
M  V30 2391 C 228.458 -3.96698 -1.90574 0
M  V30 2392 H 225.577 -0.713567 -0.184367 0
M  V30 2393 H 228.219 -1.88698 0.222087 0
M  V30 2394 H 226.369 -3.51852 -1.64719 0
M  V30 2395 H 228.041 -4.55174 0.749302 0
M  V30 2396 H 226.284 -4.26857 0.773026 0
M  V30 2397 H 226.955 -5.51258 -0.286053 0
M  V30 2398 H 229.431 -3.92578 -1.37918 0
M  V30 2399 H 228.307 -5.01453 -2.2324 0
M  V30 2400 H 228.568 -3.3875 -2.84079 0
M  V30 2401 N 227.627 0.131896 -1.57047 0
M  V30 2402 C 228.574 1.16236 -1.99393 0
M  V30 2403 C 229.544 1.41863 -0.863943 0
M  V30 2404 O 230.729 1.53946 -1.12718 0
M  V30 2405 C 227.869 2.48708 -2.39245 0
M  V30 2406 C 226.982 2.30127 -3.65603 0
M  V30 2407 C 226.117 3.55738 -3.94492 0
M  V30 2408 C 225.156 3.32259 -5.14073 0
M  V30 2409 N 224.293 4.50039 -5.38896 0
M  V30 2410 H 229.133 0.794251 -2.87221 0
M  V30 2411 H 226.67 0.380707 -1.42088 0
M  V30 2412 H 228.628 3.25969 -2.60384 0
M  V30 2413 H 227.258 2.83437 -1.54478 0
M  V30 2414 H 226.31 1.43845 -3.52154 0
M  V30 2415 H 227.622 2.08746 -4.5302 0
M  V30 2416 H 226.776 4.41423 -4.1621 0
M  V30 2417 H 225.515 3.80138 -3.05526 0
M  V30 2418 H 224.52 2.44963 -4.92212 0
M  V30 2419 H 225.745 3.09242 -6.04604 0
M  V30 2420 H 223.691 4.74584 -4.52886 0
M  V30 2421 H 223.608 4.31716 -6.2061 0
M  V30 2422 H 224.876 5.36895 -5.65123 0
M  V30 2423 N 229.106 1.52395 0.401703 0
M  V30 2424 C 230.353 1.66817 1.14796 0
M  V30 2425 C 230.681 0.401772 1.90305 0
M  V30 2426 O 229.936 -0.615487 1.85769 0
M  V30 2427 C 230.235 2.84578 2.16217 0
M  V30 2428 C 229.901 4.22513 1.5746 0
M  V30 2429 C 228.563 4.60029 1.41161 0
M  V30 2430 C 230.915 5.0844 1.14622 0
M  V30 2431 C 228.243 5.81144 0.80552 0
M  V30 2432 C 230.595 6.30167 0.55428 0
M  V30 2433 C 229.259 6.66426 0.378482 0
M  V30 2434 H 228.529 0.610428 0.420069 0
M  V30 2435 H 231.176 1.86512 0.434212 0
M  V30 2436 H 229.481 2.59248 2.93764 0
M  V30 2437 H 231.178 2.92933 2.73845 0
M  V30 2438 H 227.768 3.92953 1.71132 0
M  V30 2439 H 231.952 4.80034 1.26021 0
M  V30 2440 H 227.208 6.07855 0.657399 0
M  V30 2441 H 231.382 6.96071 0.213983 0
M  V30 2442 H 229.009 7.60143 -0.0932606 0
M  V30 2443 N 230.584 -0.659388 1.43143 0
M  V30 2444 C 231.532 -1.79374 1.4808 0
M  V30 2445 C 232.526 -1.65639 0.354988 0
M  V30 2446 O 233.732 -1.7206 0.528704 0
M  V30 2447 H 230.107 -0.591705 0.4641 0
M  V30 2448 H 232.078 -1.72329 2.43609 0
M  V30 2449 C 230.827 -3.17606 1.41499 0
M  V30 2450 H 230.15 -3.28809 2.27431 0
M  V30 2451 H 231.59 -3.96951 1.49015 0
M  V30 2452 C 230.049 -3.36642 0.131765 0
M  V30 2453 O 230.579 -3.93461 -0.809386 0
M  V30 2454 N 228.785 -2.90567 0.0439396 0
M  V30 2455 H 228.332 -2.44513 0.810619 0
M  V30 2456 H 228.29 -3.03681 -0.813969 0
M  V30 2457 N 232.062 -1.29571 -0.897171 0
M  V30 2458 C 233.009 -1.14916 -2.00158 0
M  V30 2459 C 233.979 -0.0418149 -1.66047 0
M  V30 2460 O 235.164 -0.209793 -1.89643 0
M  V30 2461 C 232.304 -0.834307 -3.34863 0
M  V30 2462 C 231.417 -2.02234 -3.8174 0
M  V30 2463 C 230.552 -1.64664 -5.05034 0
M  V30 2464 C 229.591 -2.80033 -5.44286 0
M  V30 2465 N 228.728 -2.42843 -6.58765 0
M  V30 2466 H 233.568 -2.09403 -2.12025 0
M  V30 2467 H 231.105 -1.042 -1.0383 0
M  V30 2468 H 233.063 -0.632436 -4.12379 0
M  V30 2469 H 231.693 0.0736656 -3.22716 0
M  V30 2470 H 230.745 -2.33583 -3.00238 0
M  V30 2471 H 232.057 -2.88673 -4.06779 0
M  V30 2472 H 231.211 -1.4078 -5.9014 0
M  V30 2473 H 229.95 -0.753766 -4.8184 0
M  V30 2474 H 228.955 -3.04596 -4.57713 0
M  V30 2475 H 230.18 -3.69989 -5.6946 0
M  V30 2476 H 228.126 -1.56046 -6.3717 0
M  V30 2477 H 228.043 -3.22815 -6.83613 0
M  V30 2478 H 229.311 -2.22285 -7.47134 0
M  V30 2479 N 233.54 1.10788 -1.12088 0
M  V30 2480 C 234.77 1.86191 -0.895351 0
M  V30 2481 C 235.178 1.80763 0.558702 0
M  V30 2482 O 234.521 1.19188 1.39785 0
M  V30 2483 C 234.583 3.35659 -1.28737 0
M  V30 2484 C 234.247 3.64849 -2.75198 0
M  V30 2485 C 235.244 3.61757 -3.734 0
M  V30 2486 C 232.929 3.93641 -3.12013 0
M  V30 2487 C 234.923 3.87045 -5.06434 0
M  V30 2488 C 232.61 4.18585 -4.4523 0
M  V30 2489 C 233.608 4.15277 -5.42249 0
M  V30 2490 O 233.296 4.3959 -6.73065 0
M  V30 2491 H 233.028 0.595425 -0.32007 0
M  V30 2492 H 235.582 1.40992 -1.49367 0
M  V30 2493 H 233.812 3.81497 -0.63224 0
M  V30 2494 H 235.501 3.92441 -1.03656 0
M  V30 2495 H 236.267 3.39557 -3.46303 0
M  V30 2496 H 232.146 3.95348 -2.37109 0
M  V30 2497 H 235.69 3.84378 -5.82151 0
M  V30 2498 H 231.587 4.40264 -4.72057 0
M  V30 2499 H 232.355 4.57123 -6.78956 0
M  V30 2500 N 235.018 0.912232 1.28515 0
M  V30 2501 C 235.948 0.416403 2.29757 0
M  V30 2502 C 236.929 -0.515194 1.6211 0
M  V30 2503 O 238.114 -0.423253 1.89532 0
M  V30 2504 C 235.244 -0.34572 3.45575 0
M  V30 2505 C 234.198 0.496599 4.25109 0
M  V30 2506 C 233.524 -0.393771 5.33248 0
M  V30 2507 C 234.824 1.75307 4.92001 0
M  V30 2508 H 236.518 1.26249 2.7148 0
M  V30 2509 H 234.064 0.608515 1.30511 0
M  V30 2510 H 236.017 -0.703422 4.15488 0
M  V30 2511 H 234.741 -1.2257 3.02728 0
M  V30 2512 H 233.4 0.8368 3.56922 0
M  V30 2513 H 233.048 -1.27225 4.86644 0
M  V30 2514 H 232.748 0.166209 5.87365 0
M  V30 2515 H 234.272 -0.747389 6.06009 0
M  V30 2516 H 235.686 1.46437 5.54283 0
M  V30 2517 H 234.083 2.25534 5.56106 0
M  V30 2518 H 235.153 2.48176 4.16577 0
M  V30 2519 N 236.496 -1.42363 0.676048 0
M  V30 2520 C 237.426 -2.33497 0.0124832 0
M  V30 2521 C 238.407 -1.50748 -0.787981 0
M  V30 2522 O 239.592 -1.79346 -0.744884 0
M  V30 2523 C 236.722 -3.34377 -0.938582 0
M  V30 2524 C 235.676 -4.27289 -0.246622 0
M  V30 2525 C 235.002 -5.18386 -1.31071 0
M  V30 2526 C 236.302 -5.14916 0.875125 0
M  V30 2527 H 237.996 -2.89233 0.773593 0
M  V30 2528 H 235.542 -1.39073 0.37346 0
M  V30 2529 H 237.495 -3.97044 -1.41188 0
M  V30 2530 H 236.219 -2.76947 -1.73113 0
M  V30 2531 H 234.878 -3.66018 0.206456 0
M  V30 2532 H 234.526 -4.57282 -2.09528 0
M  V30 2533 H 234.226 -5.81378 -0.852839 0
M  V30 2534 H 235.75 -5.83929 -1.78492 0
M  V30 2535 H 237.164 -5.71262 0.482983 0
M  V30 2536 H 235.561 -5.86747 1.25887 0
M  V30 2537 H 236.631 -4.53242 1.72335 0
M  V30 2538 N 237.974 -0.419461 -1.51915 0
M  V30 2539 C 239.251 0.211999 -1.94448 0
M  V30 2540 C 239.631 1.61703 -1.35703 0
M  V30 2541 O 238.979 2.22102 -0.536931 0
M  V30 2542 C 239.189 0.207872 -3.4838 0
M  V30 2543 C 240.537 0.422192 -4.22496 0
M  V30 2544 O 241.561 0.286778 -3.55044 0
M  V30 2545 O 240.42 0.690009 -5.42126 0
M  V30 2546 H 237.514 0.139586 -0.815135 0
M  V30 2547 H 240.06 -0.476151 -1.62883 0
M  V30 2548 H 238.832 -0.775102 -3.83546 0
M  V30 2549 H 238.455 0.939688 -3.86336 0
M  V30 2550 N 239.452 1.56882 -0.150215 0
M  V30 2551 C 240.4 2.18214 0.805313 0
M  V30 2552 C 241.394 1.14006 1.25296 0
M  V30 2553 O 242.6 1.3225 1.22107 0
M  V30 2554 H 238.975 0.698762 0.277913 0
M  V30 2555 H 240.946 2.97231 0.263862 0
M  V30 2556 C 239.695 2.82065 2.03309 0
M  V30 2557 H 239.018 3.61968 1.69763 0
M  V30 2558 H 240.458 3.28477 2.68103 0
M  V30 2559 C 238.917 1.80739 2.84315 0
M  V30 2560 O 239.447 1.27983 3.80767 0
M  V30 2561 N 237.653 1.4997 2.48913 0
M  V30 2562 H 237.2 1.93062 1.70542 0
M  V30 2563 H 237.158 0.824217 3.03404 0
M  V30 2564 N 240.93 -0.123565 1.57115 0
M  V30 2565 C 242.155 -0.850398 1.89164 0
M  V30 2566 C 242.58 -1.7286 0.741688 0
M  V30 2567 O 241.938 -1.78665 -0.307958 0
M  V30 2568 C 241.986 -1.66353 3.19936 0
M  V30 2569 O 241.09 -2.77004 3.0552 0
M  V30 2570 H 240.431 -0.235454 0.620852 0
M  V30 2571 H 242.961 -0.107335 2.04318 0
M  V30 2572 H 242.971 -2.05372 3.52543 0
M  V30 2573 H 241.646 -1.01881 4.03228 0
M  V30 2574 H 240.223 -2.41221 2.84371 0
M  V30 2575 N 242.408 -1.52605 -0.393616 0
M  V30 2576 C 243.356 -1.77688 -1.50099 0
M  V30 2577 C 244.35 -0.644615 -1.56656 0
M  V30 2578 O 245.556 -0.826997 -1.59877 0
M  V30 2579 H 241.931 -0.562159 -0.499481 0
M  V30 2580 H 243.902 -2.7043 -1.26135 0
M  V30 2581 C 242.651 -1.95858 -2.87289 0
M  V30 2582 H 241.974 -2.8241 -2.82992 0
M  V30 2583 H 243.414 -2.174 -3.64024 0
M  V30 2584 C 241.873 -0.729848 -3.28899 0
M  V30 2585 O 242.403 0.0949217 -4.01588 0
M  V30 2586 N 240.609 -0.561283 -2.85128 0
M  V30 2587 H 240.156 -1.23357 -2.26143 0
M  V30 2588 H 240.114 0.2595 -3.13327 0
M  V30 2589 N 243.887 0.651787 -1.4349 0
M  V30 2590 C 245.164 1.40909 -1.35661 0
M  V30 2591 C 245.544 2.11099 -0.00511733 0
M  V30 2592 O 244.892 2.04892 1.0115 0
M  V30 2593 C 245.102 2.3926 -2.54078 0
M  V30 2594 C 246.45 3.03217 -2.97228 0
M  V30 2595 O 247.474 2.49588 -2.54135 0
M  V30 2596 O 246.333 4.00455 -3.71885 0
M  V30 2597 H 243.427 0.629625 -0.536191 0
M  V30 2598 H 245.973 0.678575 -1.55542 0
M  V30 2599 H 244.745 1.86352 -3.44076 0
M  V30 2600 H 244.368 3.1976 -2.36303 0
M  V30 2601 N 245.365 1.30045 0.890287 0
M  V30 2602 C 246.614 1.17929 1.63633 0
M  V30 2603 C 246.927 -0.266204 1.9378 0
M  V30 2604 O 248.133 -0.508804 2.6669 0
M  V30 2605 C 246.589 2.06317 2.94892 0
M  V30 2606 C 246.197 3.55745 2.72305 0
M  V30 2607 C 247.941 2.0295 3.72843 0
M  V30 2608 C 245.848 4.36205 3.99348 0
M  V30 2609 H 244.778 0.437782 0.613892 0
M  V30 2610 H 247.429 1.54754 0.986075 0
M  V30 2611 H 245.811 1.6237 3.61182 0
M  V30 2612 H 246.985 4.07805 2.1455 0
M  V30 2613 H 245.3 3.6088 2.07737 0
M  V30 2614 H 247.897 2.60319 4.67053 0
M  V30 2615 H 248.24 1.0117 4.0382 0
M  V30 2616 H 248.773 2.4499 3.13408 0
M  V30 2617 H 245.512 5.38659 3.73533 0
M  V30 2618 H 245.032 3.8891 4.56628 0
M  V30 2619 H 246.711 4.47362 4.67415 0
M  V30 2620 N 246.843 -1.10192 1.12674 0
M  V30 2621 C 247.79 -2.16606 0.796906 0
M  V30 2622 C 248.76 -1.64394 -0.237476 0
M  V30 2623 O 249.945 -1.90474 -0.111484 0
M  V30 2624 C 247.085 -3.44116 0.26043 0
M  V30 2625 C 246.198 -4.10268 1.35293 0
M  V30 2626 C 245.333 -5.25507 0.775621 0
M  V30 2627 C 244.372 -5.83567 1.84706 0
M  V30 2628 N 243.509 -6.90179 1.28829 0
M  V30 2629 H 248.349 -2.44163 1.70846 0
M  V30 2630 H 245.886 -1.19846 0.85295 0
M  V30 2631 H 247.844 -4.17143 -0.0686814 0
M  V30 2632 H 246.474 -3.16901 -0.614274 0
M  V30 2633 H 245.526 -3.35184 1.79877 0
M  V30 2634 H 246.838 -4.4946 2.16303 0
M  V30 2635 H 245.992 -6.05398 0.397327 0
M  V30 2636 H 244.731 -4.87656 -0.0656581 0
M  V30 2637 H 243.736 -5.02344 2.23452 0
M  V30 2638 H 244.961 -6.23482 2.69161 0
M  V30 2639 H 242.907 -6.54322 0.468881 0
M  V30 2640 H 242.824 -7.28097 2.03497 0
M  V30 2641 H 244.092 -7.73844 0.937311 0
M  V30 2642 N 248.321 -0.919034 -1.28029 0
M  V30 2643 C 249.268 -0.410005 -2.27129 0
M  V30 2644 C 250.238 0.518405 -1.57803 0
M  V30 2645 O 251.423 0.439451 -1.8567 0
M  V30 2646 C 248.563 0.339054 -3.4343 0
M  V30 2647 C 247.676 -0.622468 -4.27492 0
M  V30 2648 C 246.811 0.145567 -5.31001 0
M  V30 2649 C 245.85 -0.809226 -6.06727 0
M  V30 2650 N 244.987 -0.0743728 -7.02061 0
M  V30 2651 H 249.827 -1.26011 -2.70047 0
M  V30 2652 H 247.364 -0.632663 -1.328 0
M  V30 2653 H 249.322 0.789586 -4.0966 0
M  V30 2654 H 247.952 1.15346 -3.01488 0
M  V30 2655 H 247.004 -1.19153 -3.61257 0
M  V30 2656 H 248.316 -1.35252 -4.80113 0
M  V30 2657 H 247.47 0.656417 -6.03139 0
M  V30 2658 H 246.209 0.908643 -4.79161 0
M  V30 2659 H 245.214 -1.3314 -5.33436 0
M  V30 2660 H 246.439 -1.57194 -6.60656 0
M  V30 2661 H 244.385 0.670616 -6.52563 0
M  V30 2662 H 244.302 -0.744157 -7.52329 0
M  V30 2663 H 245.57 0.416109 -7.78389 0
M  V30 2664 N 249.799 1.42003 -0.683588 0
M  V30 2665 C 251.045 2.01712 -0.209825 0
M  V30 2666 C 251.378 1.53968 1.18353 0
M  V30 2667 O 250.653 0.745661 1.79639 0
M  V30 2668 C 250.936 3.59202 -0.254197 0
M  V30 2669 C 250.789 4.17102 -1.68363 0
M  V30 2670 C 252.108 4.38344 0.392709 0
M  V30 2671 H 249.227 0.732891 -0.0777189 0
M  V30 2672 H 251.869 1.68909 -0.87004 0
M  V30 2673 H 250.019 3.87278 0.307954 0
M  V30 2674 H 251.691 3.99946 -2.29871 0
M  V30 2675 H 249.934 3.72597 -2.22157 0
M  V30 2676 H 250.605 5.26249 -1.6663 0
M  V30 2677 H 253.081 4.16011 -0.0859162 0
M  V30 2678 H 251.957 5.47901 0.331063 0
M  V30 2679 H 252.218 4.16887 1.47164 0
M  V30 2680 N 251.277 0.427512 1.51691 0
M  V30 2681 C 252.227 -0.406604 2.24345 0
M  V30 2682 C 253.211 -0.998276 1.26187 0
M  V30 2683 O 254.403 -0.918045 1.51331 0
M  V30 2684 C 251.532 -1.51266 3.08177 0
M  V30 2685 C 250.618 -0.930868 4.13758 0
M  V30 2686 N 251.009 -0.0773552 5.05741 0
M  V30 2687 C 249.307 -1.19948 4.29568 0
M  V30 2688 C 250.008 0.248344 5.8117 0
M  V30 2689 N 248.984 -0.365535 5.4237 0
M  V30 2690 H 252.786 0.251581 2.92821 0
M  V30 2691 H 250.3 0.239003 1.60632 0
M  V30 2692 H 252.297 -2.123 3.58796 0
M  V30 2693 H 250.957 -2.17328 2.41244 0
M  V30 2694 H 251.968 0.288351 5.17097 0
M  V30 2695 H 248.645 -1.85832 3.73862 0
M  V30 2696 H 250.035 0.942286 6.6526 0
M  V30 2697 N 252.755 -1.56801 0.158532 0
M  V30 2698 C 254.032 -1.88131 -0.535357 0
M  V30 2699 C 254.412 -1.06638 -1.82186 0
M  V30 2700 O 253.76 -0.156533 -2.27963 0
M  V30 2701 C 253.97 -3.39949 -0.789653 0
M  V30 2702 C 255.318 -4.09416 -1.12533 0
M  V30 2703 O 256.342 -3.45194 -0.878622 0
M  V30 2704 O 255.201 -5.22855 -1.59014 0
M  V30 2705 H 252.295 -0.780143 -0.27442 0
M  V30 2706 H 254.841 -1.68564 0.19601 0
M  V30 2707 H 253.613 -3.91115 0.120353 0
M  V30 2708 H 253.236 -3.65084 -1.57479 0
M  V30 2709 N 254.233 0.115231 -1.57178 0
M  V30 2710 C 255.48 0.822351 -1.8505 0
M  V30 2711 C 255.808 1.79701 -0.744168 0
M  V30 2712 O 255.063 1.93909 0.26414 0
M  V30 2713 C 255.362 1.60324 -3.19423 0
M  V30 2714 C 255.028 0.772536 -4.44233 0
M  V30 2715 C 253.69 0.543468 -4.78121 0
M  V30 2716 C 256.042 0.193746 -5.2084 0
M  V30 2717 C 253.37 -0.274583 -5.86057 0
M  V30 2718 C 255.722 -0.611517 -6.29637 0
M  V30 2719 C 254.386 -0.850867 -6.62055 0
M  V30 2720 H 253.656 0.30092 -0.677147 0
M  V30 2721 H 256.303 0.0845802 -1.91313 0
M  V30 2722 H 254.608 2.41203 -3.08753 0
M  V30 2723 H 256.305 2.1544 -3.38211 0
M  V30 2724 H 252.895 0.96117 -4.17683 0
M  V30 2725 H 257.079 0.357926 -4.95008 0
M  V30 2726 H 252.335 -0.469206 -6.09597 0
M  V30 2727 H 256.509 -1.06697 -6.88178 0
M  V30 2728 H 254.136 -1.48657 -7.45523 0
M  V30 2729 N 255.711 1.52812 0.385517 0
M  V30 2730 C 256.641 1.80808 1.47752 0
M  V30 2731 C 257.622 0.660318 1.5676 0
M  V30 2732 O 258.807 0.908246 1.71652 0
M  V30 2733 C 255.937 1.98008 2.85324 0
M  V30 2734 C 254.891 3.13709 2.91154 0
M  V30 2735 C 254.217 3.16169 4.31209 0
M  V30 2736 C 255.517 4.52709 2.60483 0
M  V30 2737 H 257.211 2.72253 1.24573 0
M  V30 2738 H 254.757 1.31003 0.597839 0
M  V30 2739 H 256.71 2.16176 3.61726 0
M  V30 2740 H 255.434 1.03255 3.09848 0
M  V30 2741 H 254.093 2.95329 2.17201 0
M  V30 2742 H 253.741 2.19092 4.52778 0
M  V30 2743 H 253.441 3.93894 4.36029 0
M  V30 2744 H 254.965 3.36496 5.09512 0
M  V30 2745 H 256.379 4.71173 3.26602 0
M  V30 2746 H 254.776 5.32528 2.76648 0
M  V30 2747 H 255.846 4.59186 1.55809 0
M  V30 2748 N 257.189 -0.644168 1.43834 0
M  V30 2749 C 258.435 -1.40603 1.46146 0
M  V30 2750 C 258.768 -1.93997 0.0887717 0
M  V30 2751 O 258.043 -1.72854 -0.891724 0
M  V30 2752 C 258.326 -2.58086 2.51124 0
M  V30 2753 C 258.179 -2.10126 3.97702 0
M  V30 2754 C 259.498 -3.60291 2.52742 0
M  V30 2755 H 256.617 -0.509905 0.532134 0
M  V30 2756 H 259.259 -0.729502 1.75437 0
M  V30 2757 H 257.409 -3.15801 2.26278 0
M  V30 2758 H 259.081 -1.57342 4.33637 0
M  V30 2759 H 257.324 -1.41419 4.10101 0
M  V30 2760 H 257.995 -2.94649 4.66783 0
M  V30 2761 H 260.471 -3.12352 2.7491 0
M  V30 2762 H 259.347 -4.40032 3.28121 0
M  V30 2763 H 259.608 -4.1349 1.56455 0
M  V30 2764 N 258.668 -1.30515 -0.883378 0
M  V30 2765 C 259.598 -1.19607 -2.00541 0
M  V30 2766 C 260.579 -0.086346 -1.69881 0
M  V30 2767 O 261.764 -0.268654 -1.92333 0
M  V30 2768 C 258.894 -0.888758 -3.35736 0
M  V30 2769 C 257.848 -1.95659 -3.8066 0
M  V30 2770 C 257.174 -1.50224 -5.13164 0
M  V30 2771 C 258.474 -3.36788 -3.99213 0
M  V30 2772 H 260.168 -2.13476 -2.09925 0
M  V30 2773 H 257.714 -1.02775 -1.00863 0
M  V30 2774 H 259.667 -0.799094 -4.13754 0
M  V30 2775 H 258.391 0.0856125 -3.26488 0
M  V30 2776 H 257.05 -2.03591 -3.04871 0
M  V30 2777 H 256.698 -0.516092 -5.00345 0
M  V30 2778 H 256.398 -2.2165 -5.44192 0
M  V30 2779 H 257.922 -1.42639 -5.93706 0
M  V30 2780 H 259.336 -3.31605 -4.67665 0
M  V30 2781 H 257.733 -4.06314 -4.41621 0
M  V30 2782 H 258.803 -3.78561 -3.03017 0
M  V30 2783 N 260.146 1.09593 -1.13257 0
M  V30 2784 C 261.374 1.855 -0.916378 0
M  V30 2785 C 261.789 1.81069 0.534738 0
M  V30 2786 O 261.146 1.20562 1.37007 0
M  V30 2787 C 261.197 3.33546 -1.39388 0
M  V30 2788 O 260.918 3.37927 -2.78813 0
M  V30 2789 C 262.419 4.26299 -1.21588 0
M  V30 2790 H 259.639 0.585991 -0.326887 0
M  V30 2791 H 262.183 1.38488 -1.5047 0
M  V30 2792 H 260.338 3.77992 -0.848597 0
M  V30 2793 H 260.752 4.30254 -2.9997 0
M  V30 2794 H 262.226 5.28341 -1.59876 0
M  V30 2795 H 262.703 4.38918 -0.157376 0
M  V30 2796 H 263.309 3.87668 -1.7491 0
M  V30 2797 N 261.624 0.925811 1.2754 0
M  V30 2798 C 262.849 0.580924 1.99098 0
M  V30 2799 C 263.274 -0.833555 1.68622 0
M  V30 2800 O 262.632 -1.55903 0.925422 0
M  V30 2801 C 262.68 0.811186 3.51358 0
M  V30 2802 O 261.784 -0.124129 4.12213 0
M  V30 2803 H 261.125 0.223873 0.625122 0
M  V30 2804 H 263.655 1.24455 1.62395 0
M  V30 2805 H 263.665 0.72601 4.01489 0
M  V30 2806 H 262.34 1.84227 3.72872 0
M  V30 2807 H 260.917 0.0108006 3.72898 0
M  V30 2808 N 263.102 -1.41638 0.69111 0
M  V30 2809 C 264.034 -2.29194 -0.0161523 0
M  V30 2810 C 265.047 -1.44549 -0.748955 0
M  V30 2811 O 266.236 -1.681 -0.6004 0
M  V30 2812 C 263.336 -3.22325 -1.0469 0
M  V30 2813 C 262.509 -4.35706 -0.384621 0
M  V30 2814 C 261.568 -5.09443 -1.31737 0
M  V30 2815 O 260.594 -5.63386 -0.811451 0
M  V30 2816 N 261.796 -5.16487 -2.64993 0
M  V30 2817 H 264.561 -2.90534 0.735523 0
M  V30 2818 H 262.122 -1.52742 0.53679 0
M  V30 2819 H 264.114 -3.68522 -1.67252 0
M  V30 2820 H 262.684 -2.62323 -1.70015 0
M  V30 2821 H 261.904 -3.91948 0.420804 0
M  V30 2822 H 263.192 -5.08743 0.0760765 0
M  V30 2823 H 262.59 -4.741 -3.08619 0
M  V30 2824 H 261.147 -5.66276 -3.22761 0
M  V30 2825 N 264.58 -0.43555 -1.51462 0
M  V30 2826 C 265.805 0.132627 -2.06976 0
M  V30 2827 C 266.23 1.35848 -1.30104 0
M  V30 2828 O 265.588 1.78112 -0.338493 0
M  V30 2829 C 265.636 0.43523 -3.57964 0
M  V30 2830 O 264.74 1.52198 -3.83288 0
M  V30 2831 H 264.081 0.00265 -0.663995 0
M  V30 2832 H 266.611 -0.616369 -1.95095 0
M  V30 2833 H 266.621 0.686206 -4.02188 0
M  V30 2834 H 265.296 -0.460739 -4.1334 0
M  V30 2835 H 263.873 1.2611 -3.50928 0
M  V30 2836 N 266.058 1.56714 -0.166846 0
M  V30 2837 C 267.006 2.19056 0.782123 0
M  V30 2838 C 268 1.15328 1.24079 0
M  V30 2839 O 269.206 1.33537 1.20697 0
M  V30 2840 H 265.581 0.70167 0.270486 0
M  V30 2841 H 267.552 2.97494 0.232322 0
M  V30 2842 C 266.301 2.84206 2.00306 0
M  V30 2843 H 265.624 3.63748 1.65914 0
M  V30 2844 H 267.064 3.31302 2.64604 0
M  V30 2845 C 265.523 1.83744 2.82382 0
M  V30 2846 O 266.053 1.32014 3.79388 0
M  V30 2847 N 264.259 1.52601 2.47308 0
M  V30 2848 H 263.806 1.9486 1.68485 0
M  V30 2849 H 263.764 0.856351 3.02513 0
M  V30 2850 N 267.536 -0.106894 1.57237 0
M  V30 2851 C 268.446 -1.14911 2.0453 0
M  V30 2852 C 269.462 -1.44592 0.96795 0
M  V30 2853 O 270.638 -1.55468 1.2803 0
M  V30 2854 C 267.703 -2.45272 2.45036 0
M  V30 2855 C 266.764 -2.22879 3.66911 0
M  V30 2856 C 265.997 -3.47024 4.05475 0
M  V30 2857 O 266.22 -4.54804 3.44252 0
M  V30 2858 O 265.154 -3.3731 4.98504 0
M  V30 2859 H 268.98 -0.777461 2.9358 0
M  V30 2860 H 266.565 -0.318563 1.45964 0
M  V30 2861 H 268.447 -3.22055 2.71769 0
M  V30 2862 H 267.122 -2.81886 1.59129 0
M  V30 2863 H 266.029 -1.43915 3.45311 0
M  V30 2864 H 267.362 -1.91163 4.53561 0
M  V30 2865 N 269.014 -1.53014 -0.377408 0
M  V30 2866 C 269.962 -1.7927 -1.48206 0
M  V30 2867 C 270.956 -0.661195 -1.55963 0
M  V30 2868 O 272.162 -0.843908 -1.58991 0
M  V30 2869 H 268.537 -0.567425 -0.493491 0
M  V30 2870 H 270.508 -2.71753 -1.2326 0
M  V30 2871 C 269.257 -1.98894 -2.85196 0
M  V30 2872 H 268.58 -2.85395 -2.79981 0
M  V30 2873 H 270.02 -2.21249 -3.61698 0
M  V30 2874 C 268.479 -0.764691 -3.28107 0
M  V30 2875 O 269.009 0.0523226 -4.01666 0
M  V30 2876 N 267.215 -0.591493 -2.84517 0
M  V30 2877 H 266.762 -1.25749 -2.24822 0
M  V30 2878 H 266.72 0.226253 -3.13585 0
M  V30 2879 N 270.492 0.636531 -1.44174 0
M  V30 2880 C 271.422 1.76003 -1.53444 0
M  V30 2881 C 272.403 1.65619 -0.387841 0
M  V30 2882 O 273.588 1.84461 -0.607257 0
M  V30 2883 C 270.718 3.14511 -1.4731 0
M  V30 2884 C 269.672 3.39677 -2.60391 0
M  V30 2885 C 268.998 4.78159 -2.39308 0
M  V30 2886 C 270.298 3.32772 -4.02567 0
M  V30 2887 H 271.992 1.68501 -2.47483 0
M  V30 2888 H 269.538 0.809237 -1.19111 0
M  V30 2889 H 271.491 3.92878 -1.52397 0
M  V30 2890 H 270.215 3.22783 -0.49785 0
M  V30 2891 H 268.874 2.63688 -2.54684 0
M  V30 2892 H 268.522 4.83128 -1.39988 0
M  V30 2893 H 268.222 4.95956 -3.15122 0
M  V30 2894 H 269.746 5.58762 -2.46205 0
M  V30 2895 H 271.16 4.01051 -4.09672 0
M  V30 2896 H 269.557 3.62104 -4.7854 0
M  V30 2897 H 270.627 2.30669 -4.2652 0
M  V30 2898 N 271.97 1.30982 0.876444 0
M  V30 2899 C 272.9 1.20668 1.99903 0
M  V30 2900 C 273.881 0.095354 1.69833 0
M  V30 2901 O 275.066 0.27885 1.92188 0
M  V30 2902 C 272.196 0.90655 3.3526 0
M  V30 2903 C 271.15 1.97675 3.79617 0
M  V30 2904 C 270.476 1.52943 5.1236 0
M  V30 2905 C 271.776 3.389 3.97422 0
M  V30 2906 H 273.47 2.14586 2.0879 0
M  V30 2907 H 271.016 1.03308 1.00317 0
M  V30 2908 H 272.969 0.821025 4.13324 0
M  V30 2909 H 271.693 -0.0682969 3.26529 0
M  V30 2910 H 270.352 2.05205 3.03787 0
M  V30 2911 H 270 0.54262 5.00065 0
M  V30 2912 H 269.7 2.24532 5.43009 0
M  V30 2913 H 271.224 1.45786 5.92941 0
M  V30 2914 H 272.638 3.34081 4.659 0
M  V30 2915 H 271.035 4.0865 4.3946 0
M  V30 2916 H 272.105 3.80163 3.01006 0
M  V30 2917 N 273.449 -1.08991 1.13837 0
M  V30 2918 C 274.86 -1.62746 0.914917 0
M  V30 2919 C 275.211 -1.88403 -0.547594 0
M  V30 2920 O 274.336 -1.63706 -1.41525 0
M  V30 2921 C 274.931 -2.95662 1.65437 0
M  V30 2922 C 273.49 -3.46225 1.47666 0
M  V30 2923 C 272.637 -2.20562 1.6807 0
M  V30 2924 H 275.588 -0.922946 1.29102 0
M  V30 2925 H 275.609 -3.63825 1.11407 0
M  V30 2926 H 275.121 -2.76956 2.71877 0
M  V30 2927 H 273.222 -3.70046 0.435478 0
M  V30 2928 H 273.335 -4.23368 2.24268 0
M  V30 2929 H 271.699 -2.29439 1.10589 0
M  V30 2930 H 272.482 -2.0437 2.7584 0
M  V30 2931 N 274.927 -0.932562 -1.27047 0
M  V30 2932 C 275.875 -0.42603 -2.28665 0
M  V30 2933 C 276.869 0.49219 -1.62092 0
M  V30 2934 O 278.075 0.371355 -1.76128 0
M  V30 2935 H 274.45 -0.119213 -0.742491 0
M  V30 2936 H 276.421 -1.29579 -2.68797 0
M  V30 2937 C 275.17 0.301426 -3.46391 0
M  V30 2938 H 274.493 -0.39595 -3.97834 0
M  V30 2939 H 275.933 0.6202 -4.1944 0
M  V30 2940 C 274.392 1.51616 -3.00856 0
M  V30 2941 O 274.922 2.61476 -3.04948 0
M  V30 2942 N 273.128 1.36969 -2.56296 0
M  V30 2943 H 272.675 0.475873 -2.53166 0
M  V30 2944 H 272.633 2.18368 -2.26192 0
M  V30 2945 N 276.405 1.4127 -0.698611 0
M  V30 2946 C 277.352 2.30773 -0.0352094 0
M  V30 2947 C 278.322 1.47273 0.768111 0
M  V30 2948 O 279.507 1.76053 0.735524 0
M  V30 2949 C 276.647 3.33346 0.893 0
M  V30 2950 C 275.76 4.31924 0.0809695 0
M  V30 2951 C 274.895 5.21566 1.0071 0
M  V30 2952 C 273.934 6.11811 0.188155 0
M  V30 2953 N 273.071 6.93926 1.06825 0
M  V30 2954 H 277.911 2.86943 -0.804207 0
M  V30 2955 H 275.448 1.4132 -0.408294 0
M  V30 2956 H 277.406 3.91368 1.44523 0
M  V30 2957 H 276.036 2.78719 1.62836 0
M  V30 2958 H 275.088 3.75825 -0.588224 0
M  V30 2959 H 276.4 4.95716 -0.553801 0
M  V30 2960 H 275.554 5.84437 1.62845 0
M  V30 2961 H 274.293 4.58008 1.67572 0
M  V30 2962 H 273.298 5.47986 -0.446254 0
M  V30 2963 H 274.523 6.77425 -0.476716 0
M  V30 2964 H 272.469 6.32973 1.72283 0
M  V30 2965 H 272.386 7.54416 0.489123 0
M  V30 2966 H 273.654 7.61262 1.67632 0
M  V30 2967 N 277.883 0.443576 1.51229 0
M  V30 2968 C 278.793 -0.370721 2.31652 0
M  V30 2969 C 279.809 -1.02186 1.40833 0
M  V30 2970 O 280.985 -1.01586 1.73903 0
M  V30 2971 C 278.05 -1.45376 3.14749 0
M  V30 2972 C 277.111 -0.822099 4.21355 0
M  V30 2973 C 276.344 -1.85353 5.0048 0
M  V30 2974 O 276.567 -3.07656 4.80316 0
M  V30 2975 O 275.501 -1.4406 5.84406 0
M  V30 2976 H 279.327 0.286002 3.0235 0
M  V30 2977 H 276.912 0.20598 1.47973 0
M  V30 2978 H 278.794 -2.08173 3.66391 0
M  V30 2979 H 277.469 -2.09445 2.46809 0
M  V30 2980 H 276.376 -0.155909 3.73775 0
M  V30 2981 H 277.709 -0.224797 4.91686 0
M  V30 2982 N 279.361 -1.56624 0.175154 0
M  V30 2983 C 280.308 -2.18149 -0.753634 0
M  V30 2984 C 281.278 -1.12265 -1.22417 0
M  V30 2985 O 282.463 -1.40432 -1.29165 0
M  V30 2986 C 279.603 -2.82933 -1.97592 0
M  V30 2987 C 278.716 -4.03289 -1.5486 0
M  V30 2988 C 277.851 -4.55988 -2.72485 0
M  V30 2989 C 276.89 -5.68746 -2.26262 0
M  V30 2990 N 276.027 -6.15938 -3.36994 0
M  V30 2991 H 280.867 -2.9717 -0.222195 0
M  V30 2992 H 278.404 -1.46774 -0.0979422 0
M  V30 2993 H 280.362 -3.18653 -2.69288 0
M  V30 2994 H 278.992 -2.06509 -2.481 0
M  V30 2995 H 278.044 -3.73364 -0.728246 0
M  V30 2996 H 279.356 -4.849 -1.16933 0
M  V30 2997 H 278.51 -4.9391 -3.52332 0
M  V30 2998 H 277.249 -3.73443 -3.13674 0
M  V30 2999 H 276.254 -5.30372 -1.44863 0
M  V30 3000 H 277.479 -6.53095 -1.86127 0
M  V30 3001 H 275.425 -5.36321 -3.77751 0
M  V30 3002 H 275.342 -6.92548 -3.03172 0
M  V30 3003 H 276.61 -6.58511 -4.17114 0
M  V30 3004 N 280.839 0.0985539 -1.57292 0
M  V30 3005 C 281.769 1.12064 -2.04851 0
M  V30 3006 C 282.75 1.41981 -0.936767 0
M  V30 3007 O 283.935 1.52071 -1.20781 0
M  V30 3008 C 281.065 2.44144 -2.47004 0
M  V30 3009 C 280.019 2.28643 -3.6181 0
M  V30 3010 C 279.345 3.65869 -3.89929 0
M  V30 3011 C 280.645 1.72986 -4.92822 0
M  V30 3012 H 282.339 0.724979 -2.9049 0
M  V30 3013 H 279.885 0.34729 -1.39749 0
M  V30 3014 H 281.838 3.15914 -2.78884 0
M  V30 3015 H 280.562 2.85639 -1.5836 0
M  V30 3016 H 279.221 1.59318 -3.30172 0
M  V30 3017 H 278.869 4.04885 -2.98458 0
M  V30 3018 H 278.569 3.56344 -4.67218 0
M  V30 3019 H 280.093 4.39112 -4.2428 0
M  V30 3020 H 281.507 2.34593 -5.23105 0
M  V30 3021 H 279.904 1.74229 -5.74251 0
M  V30 3022 H 280.974 0.689007 -4.7998 0
M  V30 3023 N 282.317 1.53212 0.369288 0
M  V30 3024 C 283.564 1.69215 1.11232 0
M  V30 3025 C 283.892 0.442048 1.8941 0
M  V30 3026 O 283.147 -0.575944 1.87033 0
M  V30 3027 C 283.446 2.89101 2.10132 0
M  V30 3028 C 283.112 4.25758 1.48463 0
M  V30 3029 C 281.774 4.6292 1.31372 0
M  V30 3030 C 284.126 5.10757 1.03811 0
M  V30 3031 C 281.454 5.82722 0.68207 0
M  V30 3032 C 283.806 6.31201 0.420487 0
M  V30 3033 C 282.47 6.67079 0.237038 0
M  V30 3034 H 281.74 0.619201 0.407027 0
M  V30 3035 H 284.387 1.87391 0.394552 0
M  V30 3036 H 282.692 2.65421 2.88199 0
M  V30 3037 H 284.389 2.98676 2.6757 0
M  V30 3038 H 280.979 3.96494 1.62758 0
M  V30 3039 H 285.163 4.82599 1.1581 0
M  V30 3040 H 280.419 6.09113 0.528316 0
M  V30 3041 H 284.593 6.96368 0.0662874 0
M  V30 3042 H 282.22 7.59774 -0.254477 0
M  V30 3043 N 283.795 -0.628877 1.44509 0
M  V30 3044 C 284.705 -1.7694 1.54044 0
M  V30 3045 C 285.721 -1.68705 0.425987 0
M  V30 3046 O 286.897 -1.89442 0.683656 0
M  V30 3047 C 283.962 -3.13332 1.48405 0
M  V30 3048 C 283.023 -3.33181 2.70719 0
M  V30 3049 C 282.256 -4.63067 2.6534 0
M  V30 3050 O 282.479 -5.44017 1.71469 0
M  V30 3051 O 281.413 -4.85167 3.56226 0
M  V30 3052 H 285.239 -1.71848 2.50403 0
M  V30 3053 H 282.824 -0.790378 1.26781 0
M  V30 3054 H 284.706 -3.94634 1.47791 0
M  V30 3055 H 283.381 -3.1896 0.551898 0
M  V30 3056 H 282.288 -2.51549 2.769 0
M  V30 3057 H 283.621 -3.32416 3.62988 0
M  V30 3058 N 285.273 -1.31445 -0.869486 0
M  V30 3059 C 286.205 -1.14955 -1.98287 0
M  V30 3060 C 287.218 -0.0885037 -1.62559 0
M  V30 3061 O 288.407 -0.336044 -1.75308 0
M  V30 3062 C 285.507 -0.734255 -3.3085 0
M  V30 3063 C 284.68 -1.88042 -3.94917 0
M  V30 3064 C 283.739 -1.4511 -5.05796 0
M  V30 3065 O 282.765 -2.16082 -5.2659 0
M  V30 3066 N 283.967 -0.338763 -5.79511 0
M  V30 3067 H 286.732 -2.10856 -2.12979 0
M  V30 3068 H 284.293 -1.23786 -1.04349 0
M  V30 3069 H 286.285 -0.42975 -4.02412 0
M  V30 3070 H 284.855 0.133158 -3.12316 0
M  V30 3071 H 284.075 -2.35222 -3.1633 0
M  V30 3072 H 285.363 -2.6481 -4.34457 0
M  V30 3073 H 284.761 0.252274 -5.65137 0
M  V30 3074 H 283.318 -0.0937925 -6.51733 0
M  V30 3075 N 286.751 1.08385 -1.14413 0
M  V30 3076 C 288 1.80153 -0.907076 0
M  V30 3077 C 288.313 1.87176 0.567851 0
M  V30 3078 O 289.519 2.55359 0.922172 0
M  V30 3079 C 287.975 3.23687 -1.57336 0
M  V30 3080 C 287.583 3.24897 -3.08457 0
M  V30 3081 C 289.327 4.00136 -1.41744 0
M  V30 3082 C 287.234 4.6302 -3.67921 0
M  V30 3083 H 286.164 0.675139 -0.335714 0
M  V30 3084 H 288.815 1.21733 -1.37307 0
M  V30 3085 H 287.197 3.82234 -1.03505 0
M  V30 3086 H 288.371 2.76055 -3.68958 0
M  V30 3087 H 286.686 2.61943 -3.2369 0
M  V30 3088 H 289.283 5.02201 -1.83572 0
M  V30 3089 H 289.626 4.14709 -0.363576 0
M  V30 3090 H 290.159 3.48058 -1.92614 0
M  V30 3091 H 286.898 4.5365 -4.73161 0
M  V30 3092 H 286.418 5.12143 -3.12201 0
M  V30 3093 H 288.097 5.31994 -3.68227 0
M  V30 3094 N 288.23 0.939286 1.26551 0
M  V30 3095 C 289.476 0.586715 1.94128 0
M  V30 3096 C 289.809 -0.8717 1.73537 0
M  V30 3097 O 289.084 -1.62339 1.07127 0
M  V30 3098 C 289.367 0.927497 3.4795 0
M  V30 3099 C 289.22 2.44052 3.77834 0
M  V30 3100 C 290.539 0.441569 4.37879 0
M  V30 3101 H 287.658 0.21463 0.705055 0
M  V30 3102 H 290.3 1.17316 1.49455 0
M  V30 3103 H 288.45 0.428431 3.8613 0
M  V30 3104 H 290.122 3.01216 3.4938 0
M  V30 3105 H 288.365 2.8848 3.23978 0
M  V30 3106 H 289.036 2.62947 4.85348 0
M  V30 3107 H 291.512 0.869448 4.06915 0
M  V30 3108 H 290.388 0.708856 5.44304 0
M  V30 3109 H 290.649 -0.658467 4.37169 0
M  V30 3110 N 289.708 -1.40897 0.706093 0
M  V30 3111 C 290.985 -1.94868 0.169099 0
M  V30 3112 C 291.365 -1.64485 -1.32318 0
M  V30 3113 O 290.713 -0.95744 -2.07474 0
M  V30 3114 C 290.923 -3.45798 0.471654 0
M  V30 3115 C 292.271 -4.22663 0.405127 0
M  V30 3116 O 293.295 -3.53865 0.407168 0
M  V30 3117 O 292.154 -5.45216 0.374383 0
M  V30 3118 H 289.248 -0.82673 0.0211352 0
M  V30 3119 H 291.794 -1.50558 0.782976 0
M  V30 3120 H 290.566 -3.61235 1.50416 0
M  V30 3121 H 290.189 -3.97225 -0.172666 0
M  V30 3122 N 291.186 -0.45159 -1.50991 0
M  V30 3123 C 292.118 0.388634 -2.25881 0
M  V30 3124 C 293.131 0.974041 -1.30446 0
M  V30 3125 O 294.32 0.865758 -1.56099 0
M  V30 3126 C 291.42 1.5571 -3.01011 0
M  V30 3127 C 290.593 1.08801 -4.23652 0
M  V30 3128 C 289.652 2.12825 -4.8124 0
M  V30 3129 O 288.678 1.71678 -5.42693 0
M  V30 3130 N 289.88 3.45453 -4.66522 0
M  V30 3131 H 292.645 -0.25329 -2.98628 0
M  V30 3132 H 290.206 -0.281268 -1.59438 0
M  V30 3133 H 292.198 2.24952 -3.3642 0
M  V30 3134 H 290.768 2.10409 -2.31186 0
M  V30 3135 H 289.988 0.22215 -3.93574 0
M  V30 3136 H 291.276 0.752213 -5.03209 0
M  V30 3137 H 290.674 3.81605 -4.17605 0
M  V30 3138 H 289.231 4.10549 -5.06254 0
M  V30 3139 N 292.664 1.56529 -0.183458 0
M  V30 3140 C 293.913 1.96419 0.458511 0
M  V30 3141 C 294.226 1.0727 1.63562 0
M  V30 3142 O 295.432 1.36893 2.34462 0
M  V30 3143 C 293.888 3.49298 0.867122 0
M  V30 3144 C 293.496 4.47092 -0.285057 0
M  V30 3145 C 295.24 3.97983 1.47683 0
M  V30 3146 C 293.147 5.91225 0.143862 0
M  V30 3147 H 292.077 0.733394 0.175071 0
M  V30 3148 H 294.728 1.81448 -0.273624 0
M  V30 3149 H 293.11 3.59731 1.65559 0
M  V30 3150 H 294.284 4.48383 -1.0625 0
M  V30 3151 H 292.599 4.08535 -0.805503 0
M  V30 3152 H 295.196 5.03134 1.80999 0
M  V30 3153 H 295.539 3.41618 2.37914 0
M  V30 3154 H 296.072 3.90617 0.752562 0
M  V30 3155 H 292.811 6.5149 -0.723974 0
M  V30 3156 H 292.331 5.93214 0.886413 0
M  V30 3157 H 294.01 6.44362 0.583628 0
M  V30 3158 N 294.142 -0.090211 1.57342 0
M  V30 3159 C 295.089 -1.10909 2.02405 0
M  V30 3160 C 296.059 -1.39523 0.901252 0
M  V30 3161 O 297.244 -1.50903 1.1676 0
M  V30 3162 C 294.384 -2.42277 2.45755 0
M  V30 3163 C 293.497 -2.20352 3.71576 0
M  V30 3164 C 292.632 -3.45154 4.03785 0
M  V30 3165 C 291.671 -3.18512 5.22701 0
M  V30 3166 N 290.808 -4.35593 5.50639 0
M  V30 3167 H 295.648 -0.71782 2.89225 0
M  V30 3168 H 293.185 -0.342901 1.43048 0
M  V30 3169 H 295.143 -3.18951 2.68935 0
M  V30 3170 H 293.773 -2.79242 1.61938 0
M  V30 3171 H 292.825 -1.34458 3.55844 0
M  V30 3172 H 294.137 -1.96661 4.58395 0
M  V30 3173 H 293.291 -4.30233 4.27767 0
M  V30 3174 H 292.03 -3.71904 3.15498 0
M  V30 3175 H 291.035 -2.31827 4.98534 0
M  V30 3176 H 292.26 -2.93103 6.12591 0
M  V30 3177 H 290.206 -4.6241 4.6531 0
M  V30 3178 H 290.123 -4.1511 6.31838 0
M  V30 3179 H 291.391 -5.21723 5.7916 0
M  V30 3180 N 295.62 -1.53406 -0.361157 0
M  V30 3181 C 296.85 -1.73465 -1.1222 0
M  V30 3182 C 297.258 -0.465486 -1.83384 0
M  V30 3183 O 296.601 0.571611 -1.7458 0
M  V30 3184 C 296.663 -2.84834 -2.19339 0
M  V30 3185 C 296.327 -4.25038 -1.67903 0
M  V30 3186 C 297.324 -5.07231 -1.14074 0
M  V30 3187 C 295.009 -4.71464 -1.73282 0
M  V30 3188 C 297.003 -6.33942 -0.663068 0
M  V30 3189 C 294.69 -5.98153 -1.25127 0
M  V30 3190 C 295.688 -6.79223 -0.717296 0
M  V30 3191 O 295.376 -8.03533 -0.242865 0
M  V30 3192 H 295.108 -0.583526 -0.341283 0
M  V30 3193 H 297.662 -2.00964 -0.424591 0
M  V30 3194 H 295.892 -2.5282 -2.92607 0
M  V30 3195 H 297.581 -2.9303 -2.80871 0
M  V30 3196 H 298.347 -4.72534 -1.09254 0
M  V30 3197 H 294.226 -4.08432 -2.13786 0
M  V30 3198 H 297.77 -6.97167 -0.245612 0
M  V30 3199 H 293.667 -6.32347 -1.29642 0
M  V30 3200 H 294.435 -8.177 -0.361786 0
M  V30 3201 N 297.098 0.621204 -1.44841 0
M  V30 3202 C 298.345 1.38055 -1.48145 0
M  V30 3203 C 298.673 1.94143 -0.117867 0
M  V30 3204 O 297.928 1.74713 0.881694 0
M  V30 3205 C 298.227 2.55675 -2.4973 0
M  V30 3206 C 297.893 2.17817 -3.94799 0
M  V30 3207 C 296.555 2.07205 -4.34303 0
M  V30 3208 C 298.907 1.88065 -4.86087 0
M  V30 3209 C 296.235 1.65045 -5.63007 0
M  V30 3210 C 298.587 1.47394 -6.15189 0
M  V30 3211 C 297.251 1.35331 -6.53637 0
M  V30 3212 H 296.521 0.505181 -0.542101 0
M  V30 3213 H 299.168 0.703477 -1.78111 0
M  V30 3214 H 297.473 3.2866 -2.13284 0
M  V30 3215 H 299.17 3.13904 -2.4953 0
M  V30 3216 H 295.76 2.26998 -3.63552 0
M  V30 3217 H 299.944 1.95168 -4.56315 0
M  V30 3218 H 295.2 1.54317 -5.91605 0
M  V30 3219 H 299.374 1.23415 -6.85377 0
M  V30 3220 H 297.001 1.02435 -7.53267 0
M  V30 3221 N 298.576 1.31904 0.862503 0
M  V30 3222 C 299.853 1.12644 1.59908 0
M  V30 3223 C 300.233 -0.316104 2.0872 0
M  V30 3224 O 299.581 -1.31145 1.87118 0
M  V30 3225 C 299.791 2.1472 2.7513 0
M  V30 3226 C 301.139 2.47637 3.44907 0
M  V30 3227 O 302.163 2.13205 2.85346 0
M  V30 3228 O 301.022 3.06632 4.52371 0
M  V30 3229 H 298.116 0.43416 0.703871 0
M  V30 3230 H 300.662 1.43408 0.907314 0
M  V30 3231 H 299.434 3.1172 2.3653 0
M  V30 3232 H 299.057 1.84905 3.51989 0
M  V30 3233 N 300.054 -1.07777 1.14986 0
M  V30 3234 C 300.964 -2.18404 0.856546 0
M  V30 3235 C 301.98 -1.73211 -0.165485 0
M  V30 3236 O 303.156 -2.01399 0.00755219 0
M  V30 3237 C 300.221 -3.44977 0.34526 0
M  V30 3238 C 299.282 -4.0476 1.43065 0
M  V30 3239 C 298.515 -5.25291 0.943663 0
M  V30 3240 O 298.738 -5.70004 -0.212426 0
M  V30 3241 O 297.672 -5.76638 1.72547 0
M  V30 3242 H 301.498 -2.45978 1.78125 0
M  V30 3243 H 299.083 -1.17033 0.928631 0
M  V30 3244 H 300.965 -4.21348 0.0663671 0
M  V30 3245 H 299.64 -3.18965 -0.551631 0
M  V30 3246 H 298.547 -3.29949 1.76309 0
M  V30 3247 H 299.88 -4.35035 2.30229 0
M  V30 3248 N 301.532 -0.945985 -1.26051 0
M  V30 3249 C 302.762 -0.612136 -1.97323 0
M  V30 3250 C 303.17 0.818171 -1.70595 0
M  V30 3251 O 302.513 1.55777 -0.973613 0
M  V30 3252 C 302.575 -0.780347 -3.50929 0
M  V30 3253 C 302.239 -2.18619 -4.01317 0
M  V30 3254 C 303.236 -3.16209 -4.12683 0
M  V30 3255 C 300.921 -2.50805 -4.35203 0
M  V30 3256 C 302.915 -4.44085 -4.57238 0
M  V30 3257 C 300.602 -3.78912 -4.79446 0
M  V30 3258 C 301.6 -4.75365 -4.90425 0
M  V30 3259 O 301.288 -6.01191 -5.3369 0
M  V30 3260 H 301.02 -0.229134 -0.635982 0
M  V30 3261 H 303.574 -1.27036 -1.61404 0
M  V30 3262 H 301.804 -0.0649864 -3.86645 0
M  V30 3263 H 303.493 -0.448842 -4.03411 0
M  V30 3264 H 304.259 -2.92668 -3.86744 0
M  V30 3265 H 300.138 -1.76463 -4.2589 0
M  V30 3266 H 303.682 -5.19373 -4.65723 0
M  V30 3267 H 299.579 -4.02265 -5.0483 0
M  V30 3268 H 300.347 -6.04442 -5.51899 0
M  V30 3269 N 303.011 1.40521 -0.713556 0
M  V30 3270 C 304.258 2.00923 -0.25219 0
M  V30 3271 C 304.586 1.56571 1.15395 0
M  V30 3272 O 303.841 0.775874 1.79663 0
M  V30 3273 C 304.14 3.56317 -0.278 0
M  V30 3274 C 303.806 4.20246 -1.63415 0
M  V30 3275 C 302.468 4.37422 -2.00538 0
M  V30 3276 C 304.82 4.55923 -2.52554 0
M  V30 3277 C 302.148 4.87558 -3.2635 0
M  V30 3278 C 304.5 5.07458 -3.77716 0
M  V30 3279 C 303.164 5.22843 -4.14959 0
M  V30 3280 H 302.434 0.735231 -0.0922829 0
M  V30 3281 H 305.081 1.68161 -0.916188 0
M  V30 3282 H 303.386 3.88976 0.469567 0
M  V30 3283 H 305.083 4.00883 0.0967819 0
M  V30 3284 H 301.673 4.07263 -1.33546 0
M  V30 3285 H 305.857 4.42291 -2.25149 0
M  V30 3286 H 301.113 4.97654 -3.55176 0
M  V30 3287 H 305.287 5.34041 -4.4696 0
M  V30 3288 H 302.914 5.61454 -5.12516 0
M  V30 3289 N 304.489 0.459591 1.5075 0
M  V30 3290 C 305.736 -0.0993495 2.02256 0
M  V30 3291 C 306.064 -1.40751 1.34237 0
M  V30 3292 O 305.319 -1.90379 0.453228 0
M  V30 3293 C 305.618 -0.342866 3.55752 0
M  V30 3294 C 305.284 0.88218 4.42186 0
M  V30 3295 C 303.946 1.21808 4.65528 0
M  V30 3296 C 306.298 1.69837 4.92752 0
M  V30 3297 C 303.626 2.37045 5.36681 0
M  V30 3298 C 305.978 2.84192 5.65171 0
M  V30 3299 C 304.642 3.1821 5.8677 0
M  V30 3300 H 303.912 -0.0363545 0.740108 0
M  V30 3301 H 306.559 0.611329 1.8148 0
M  V30 3302 H 304.864 -1.13567 3.7498 0
M  V30 3303 H 306.561 -0.789121 3.93159 0
M  V30 3304 H 303.151 0.610467 4.2423 0
M  V30 3305 H 307.335 1.45205 4.74583 0
M  V30 3306 H 302.591 2.63689 5.51614 0
M  V30 3307 H 306.765 3.4779 6.03337 0
M  V30 3308 H 304.392 4.07613 6.41682 0
M  V30 3309 N 305.967 -1.56429 0.191757 0
M  V30 3310 C 306.93 -2.17707 -0.716688 0
M  V30 3311 C 307.93 -1.13061 -1.14341 0
M  V30 3312 O 309.12 -1.38464 -1.05704 0
M  V30 3313 C 306.252 -2.77644 -1.97804 0
M  V30 3314 H 307.445 -2.99342 -0.1829 0
M  V30 3315 H 304.998 -1.56193 -0.0578566 0
M  V30 3316 H 305.733 -1.99799 -2.55443 0
M  V30 3317 H 305.518 -3.54246 -1.68083 0
M  V30 3318 H 307.008 -3.24708 -2.62592 0
M  V30 3319 N 307.445 0.0818655 -1.57387 0
M  V30 3320 C 308.67 0.799946 -1.91352 0
M  V30 3321 C 309.095 1.70833 -0.787258 0
M  V30 3322 O 308.453 1.79419 0.26048 0
M  V30 3323 C 308.501 1.57812 -3.24234 0
M  V30 3324 O 307.605 2.68806 -3.12757 0
M  V30 3325 H 306.946 0.21891 -0.626877 0
M  V30 3326 H 309.476 0.0531256 -2.04531 0
M  V30 3327 H 309.486 1.95952 -3.57864 0
M  V30 3328 H 308.161 0.911548 -4.05788 0
M  V30 3329 H 306.738 2.33597 -2.90666 0
M  V30 3330 N 308.923 1.53595 0.353017 0
M  V30 3331 C 310.171 1.70049 1.09215 0
M  V30 3332 C 310.492 0.461406 1.89463 0
M  V30 3333 O 309.762 -0.524633 1.88744 0
M  V30 3334 H 308.342 0.626912 0.40619 0
M  V30 3335 H 311.004 1.90822 0.396585 0
M  V30 3336 H 310.1 2.56718 1.77488 0
M  V30 3337 N 310.401 -0.613514 1.45168 0
M  V30 3338 C 311.649 -1.36997 1.48581 0
M  V30 3339 C 311.97 -1.94589 0.126545 0
M  V30 3340 O 311.24 -1.76816 -0.843372 0
M  V30 3341 H 309.82 -0.508558 0.547154 0
M  V30 3342 H 312.482 -0.720853 1.81079 0
M  V30 3343 H 311.578 -2.1924 2.22127 0
M  V30 3344 N 311.879 -1.3236 -0.855495 0
M  V30 3345 C 312.826 -1.21225 -1.964 0
M  V30 3346 C 313.796 -0.0946204 -1.6583 0
M  V30 3347 O 314.981 -0.27002 -1.8888 0
M  V30 3348 C 312.121 -0.940419 -3.32039 0
M  V30 3349 C 311.234 -2.14276 -3.75113 0
M  V30 3350 C 310.369 -1.80648 -4.9954 0
M  V30 3351 C 309.408 -2.97208 -5.35102 0
M  V30 3352 N 308.545 -2.63678 -6.50706 0
M  V30 3353 H 313.385 -2.16042 -2.05255 0
M  V30 3354 H 310.922 -1.07451 -1.00463 0
M  V30 3355 H 312.88 -0.763311 -4.10158 0
M  V30 3356 H 311.51 -0.0290413 -3.22787 0
M  V30 3357 H 310.562 -2.43017 -2.92655 0
M  V30 3358 H 311.874 -3.01468 -3.97389 0
M  V30 3359 H 311.028 -1.59484 -5.85363 0
M  V30 3360 H 309.767 -0.906678 -4.79198 0
M  V30 3361 H 308.772 -3.19004 -4.47791 0
M  V30 3362 H 309.997 -3.87918 -5.57401 0
M  V30 3363 H 307.943 -1.76238 -6.31883 0
M  V30 3364 H 307.86 -3.444 -6.72997 0
M  V30 3365 H 309.128 -2.45942 -7.39684 0
M  V30 3366 N 313.357 1.07166 -1.15556 0
M  V30 3367 C 314.606 1.79181 -0.926132 0
M  V30 3368 C 314.919 1.87768 0.547967 0
M  V30 3369 O 316.125 2.56323 0.895036 0
M  V30 3370 C 314.581 3.22 -1.60761 0
M  V30 3371 C 314.189 3.21607 -3.11886 0
M  V30 3372 C 315.933 3.9861 -1.4598 0
M  V30 3373 C 313.84 4.59092 -3.72812 0
M  V30 3374 H 312.77 0.67154 -0.342856 0
M  V30 3375 H 315.421 1.2027 -1.3859 0
M  V30 3376 H 313.803 3.81115 -1.07553 0
M  V30 3377 H 314.977 2.72127 -3.71865 0
M  V30 3378 H 313.292 2.58495 -3.2645 0
M  V30 3379 H 315.889 5.00225 -1.88888 0
M  V30 3380 H 316.232 4.143 -0.407541 0
M  V30 3381 H 316.765 3.45996 -1.96295 0
M  V30 3382 H 313.504 4.48606 -4.77946 0
M  V30 3383 H 313.024 5.08803 -3.17616 0
M  V30 3384 H 314.703 5.28059 -3.73848 0
M  V30 3385 N 314.835 0.952656 1.25548 0
M  V30 3386 C 315.782 0.47008 2.25962 0
M  V30 3387 C 316.752 -0.476384 1.59122 0
M  V30 3388 O 317.937 -0.39007 1.8677 0
M  V30 3389 C 315.077 -0.247881 3.44209 0
M  V30 3390 C 314.19 0.735591 4.25691 0
M  V30 3391 C 313.325 -0.0047306 5.312 0
M  V30 3392 C 312.364 0.969805 6.04368 0
M  V30 3393 N 311.501 0.260486 7.01617 0
M  V30 3394 H 316.341 1.33126 2.66611 0
M  V30 3395 H 313.878 0.66765 1.31076 0
M  V30 3396 H 315.836 -0.680695 4.1161 0
M  V30 3397 H 314.466 -1.07312 3.0444 0
M  V30 3398 H 313.518 1.28689 3.57971 0
M  V30 3399 H 314.83 1.47934 4.76358 0
M  V30 3400 H 313.984 -0.496275 6.04667 0
M  V30 3401 H 312.723 -0.781282 4.81401 0
M  V30 3402 H 311.728 1.47237 5.29718 0
M  V30 3403 H 312.953 1.74655 6.56256 0
M  V30 3404 H 310.899 -0.497364 6.54112 0
M  V30 3405 H 310.816 0.943362 7.50091 0
M  V30 3406 H 312.084 -0.209587 7.79218 0
M  V30 3407 N 316.313 -1.40141 0.720998 0
M  V30 3408 C 317.559 -2.01084 0.263231 0
M  V30 3409 C 317.892 -1.57052 -1.14229 0
M  V30 3410 O 317.167 -0.793027 -1.77599 0
M  V30 3411 C 317.45 -3.58401 0.349344 0
M  V30 3412 C 317.303 -4.12491 1.79363 0
M  V30 3413 C 318.622 -4.39231 -0.276351 0
M  V30 3414 H 315.741 -0.730572 0.0971228 0
M  V30 3415 H 318.383 -1.66543 0.914518 0
M  V30 3416 H 316.533 -3.87958 -0.205165 0
M  V30 3417 H 318.205 -3.93711 2.40394 0
M  V30 3418 H 316.448 -3.66576 2.31958 0
M  V30 3419 H 317.119 -5.21646 1.80524 0
M  V30 3420 H 319.595 -4.15637 0.196184 0
M  V30 3421 H 318.471 -5.48586 -0.185681 0
M  V30 3422 H 318.732 -4.20643 -1.36059 0
M  V30 3423 N 317.792 -0.46758 -1.50504 0
M  V30 3424 C 318.739 0.328413 -2.28452 0
M  V30 3425 C 319.709 0.990313 -1.33349 0
M  V30 3426 O 320.894 1.00343 -1.62284 0
M  V30 3427 C 318.034 1.40648 -3.15138 0
M  V30 3428 C 317.147 0.759709 -4.25267 0
M  V30 3429 C 316.282 1.81537 -4.99217 0
M  V30 3430 C 315.321 1.14866 -6.01226 0
M  V30 3431 N 314.458 2.14702 -6.68467 0
M  V30 3432 H 319.298 -0.342603 -2.96024 0
M  V30 3433 H 316.835 -0.180801 -1.45985 0
M  V30 3434 H 318.793 2.04315 -3.63746 0
M  V30 3435 H 317.423 2.04671 -2.49619 0
M  V30 3436 H 316.475 0.0105671 -3.80399 0
M  V30 3437 H 317.787 0.233243 -4.98254 0
M  V30 3438 H 316.941 2.52793 -5.51526 0
M  V30 3439 H 315.68 2.37564 -4.25928 0
M  V30 3440 H 314.685 0.42171 -5.4818 0
M  V30 3441 H 315.91 0.595334 -6.76485 0
M  V30 3442 H 313.856 2.69752 -5.97972 0
M  V30 3443 H 313.773 1.6703 -7.37317 0
M  V30 3444 H 315.041 2.85348 -7.25394 0
M  V30 3445 N 319.27 1.56325 -0.20005 0
M  V30 3446 C 320.217 2.1932 0.718833 0
M  V30 3447 C 321.187 1.14198 1.20615 0
M  V30 3448 O 322.372 1.42469 1.26914 0
M  V30 3449 C 319.512 2.86041 1.93066 0
M  V30 3450 C 318.625 4.05702 1.48425 0
M  V30 3451 C 317.76 4.60266 2.65196 0
M  V30 3452 C 316.799 5.72273 2.17185 0
M  V30 3453 N 315.936 6.21221 3.27152 0
M  V30 3454 H 320.776 2.97486 0.17489 0
M  V30 3455 H 318.313 1.46911 0.0745794 0
M  V30 3456 H 320.271 3.22897 2.64184 0
M  V30 3457 H 318.901 2.1043 2.44783 0
M  V30 3458 H 317.953 3.74475 0.668755 0
M  V30 3459 H 319.265 4.86699 1.09204 0
M  V30 3460 H 318.419 4.99453 3.4443 0
M  V30 3461 H 317.158 3.78386 3.07693 0
M  V30 3462 H 316.163 5.3261 1.36407 0
M  V30 3463 H 317.388 6.55974 1.75713 0
M  V30 3464 H 315.334 5.42263 3.69171 0
M  V30 3465 H 315.251 6.97284 2.92116 0
M  V30 3466 H 316.519 6.65063 4.06585 0
M  V30 3467 N 320.748 -0.0735177 1.57428 0
M  V30 3468 C 321.996 -0.771472 1.86796 0
M  V30 3469 C 322.317 -1.78201 0.791804 0
M  V30 3470 O 321.587 -1.95074 -0.179718 0
M  V30 3471 H 320.167 -0.28791 0.689287 0
M  V30 3472 H 322.829 -0.0500161 1.94836 0
M  V30 3473 H 321.925 -1.28874 2.8425 0
M  V30 3474 N 322.226 -1.5378 -0.344866 0
M  V30 3475 C 323.456 -1.74646 -1.10374 0
M  V30 3476 C 323.864 -0.48491 -1.8288 0
M  V30 3477 O 323.207 0.553062 -1.75177 0
M  V30 3478 C 323.269 -2.87145 -2.16306 0
M  V30 3479 C 322.933 -4.26795 -1.63386 0
M  V30 3480 C 323.93 -5.08412 -1.08688 0
M  V30 3481 C 321.615 -4.73276 -1.68272 0
M  V30 3482 C 323.609 -6.34609 -0.595792 0
M  V30 3483 C 321.296 -5.99446 -1.18776 0
M  V30 3484 C 322.294 -6.79946 -0.645215 0
M  V30 3485 O 321.982 -8.03745 -0.157626 0
M  V30 3486 H 321.714 -0.587112 -0.335075 0
M  V30 3487 H 324.268 -2.01403 -0.403252 0
M  V30 3488 H 322.498 -2.55909 -2.89909 0
M  V30 3489 H 324.187 -2.95992 -2.77747 0
M  V30 3490 H 324.953 -4.73666 -1.04236 0
M  V30 3491 H 320.832 -4.10677 -2.09442 0
M  V30 3492 H 324.376 -6.97389 -0.171654 0
M  V30 3493 H 320.273 -6.33687 -1.22928 0
M  V30 3494 H 321.041 -8.18038 -0.275037 0
M  V30 3495 N 323.704 0.605807 -1.45491 0
M  V30 3496 C 324.634 1.72709 -1.57143 0
M  V30 3497 C 325.615 1.6476 -0.422884 0
M  V30 3498 O 326.8 1.83132 -0.646247 0
M  V30 3499 C 323.93 3.11316 -1.53948 0
M  V30 3500 C 322.884 3.34077 -2.67537 0
M  V30 3501 C 322.21 4.72975 -2.49397 0
M  V30 3502 C 323.51 3.24158 -4.09535 0
M  V30 3503 H 325.204 1.63214 -2.51001 0
M  V30 3504 H 322.75 0.78379 -1.208 0
M  V30 3505 H 324.703 3.89557 -1.60696 0
M  V30 3506 H 323.427 3.21655 -0.566205 0
M  V30 3507 H 322.086 2.58227 -2.6022 0
M  V30 3508 H 321.734 4.8005 -1.50205 0
M  V30 3509 H 321.434 4.8916 -3.25571 0
M  V30 3510 H 322.958 5.53414 -2.58002 0
M  V30 3511 H 324.372 3.92271 -4.18086 0
M  V30 3512 H 322.769 3.51872 -4.86113 0
M  V30 3513 H 323.839 2.2157 -4.31317 0
M  V30 3514 N 325.182 1.32811 0.848464 0
M  V30 3515 C 326.129 1.22265 1.95755 0
M  V30 3516 C 327.099 0.103413 1.65778 0
M  V30 3517 O 328.284 0.280033 1.88734 0
M  V30 3518 C 325.424 0.958014 3.31536 0
M  V30 3519 C 324.537 2.16262 3.73971 0
M  V30 3520 C 323.672 1.83295 4.98575 0
M  V30 3521 C 322.711 3.00041 5.33518 0
M  V30 3522 N 321.848 2.67125 6.49299 0
M  V30 3523 H 326.688 2.17128 2.04107 0
M  V30 3524 H 324.225 1.07982 0.998913 0
M  V30 3525 H 326.183 0.785052 4.09747 0
M  V30 3526 H 324.813 0.046159 3.22767 0
M  V30 3527 H 323.865 2.44565 2.91362 0
M  V30 3528 H 325.177 3.03572 3.95785 0
M  V30 3529 H 324.331 1.62586 5.84509 0
M  V30 3530 H 323.07 0.932078 4.7871 0
M  V30 3531 H 322.075 3.21374 4.46093 0
M  V30 3532 H 323.3 3.90869 5.55336 0
M  V30 3533 H 321.246 1.79586 6.3094 0
M  V30 3534 H 321.163 3.47965 6.71161 0
M  V30 3535 H 322.431 2.49861 7.3837 0
M  V30 3536 N 326.66 -1.06551 1.16123 0
M  V30 3537 C 327.89 -1.8274 0.963838 0
M  V30 3538 C 328.298 -1.82712 -0.491228 0
M  V30 3539 O 327.641 -1.24294 -1.35265 0
M  V30 3540 C 327.703 -3.3065 1.41106 0
M  V30 3541 C 327.367 -3.54384 2.88549 0
M  V30 3542 C 328.364 -3.4765 3.86569 0
M  V30 3543 C 326.049 -3.81789 3.26408 0
M  V30 3544 C 328.043 -3.67982 5.2045 0
M  V30 3545 C 325.73 -4.01772 4.60459 0
M  V30 3546 C 326.728 -3.94866 5.57288 0
M  V30 3547 O 326.416 -4.14306 6.88916 0
M  V30 3548 H 326.148 -0.583136 0.341948 0
M  V30 3549 H 328.702 -1.35351 1.54497 0
M  V30 3550 H 326.932 -3.78887 0.773394 0
M  V30 3551 H 328.621 -3.88324 1.1815 0
M  V30 3552 H 329.387 -3.2647 3.58667 0
M  V30 3553 H 325.266 -3.86276 2.51619 0
M  V30 3554 H 328.81 -3.62507 5.96015 0
M  V30 3555 H 324.707 -4.2244 4.88072 0
M  V30 3556 H 325.475 -4.31609 6.95454 0
M  V30 3557 N 328.138 -0.959301 -1.25041 0
M  V30 3558 C 329.086 -0.474437 -2.2771 0
M  V30 3559 C 330.08 0.457697 -1.631 0
M  V30 3560 O 331.286 0.333912 -1.76876 0
M  V30 3561 H 327.661 -0.134936 -0.739795 0
M  V30 3562 H 329.632 -1.35251 -2.65988 0
M  V30 3563 C 328.381 0.227884 -3.46952 0
M  V30 3564 H 327.704 -0.480248 -3.96905 0
M  V30 3565 H 329.144 0.531091 -4.20661 0
M  V30 3566 C 327.603 1.452 -3.04004 0
M  V30 3567 O 328.133 2.54949 -3.10426 0
M  V30 3568 N 326.339 1.31502 -2.59144 0
M  V30 3569 H 325.886 0.422065 -2.54119 0
M  V30 3570 H 325.844 2.13521 -2.30773 0
M  V30 3571 N 329.616 1.39756 -0.72842 0
M  V30 3572 C 330.863 2.00645 -0.273487 0
M  V30 3573 C 331.191 1.57786 1.13727 0
M  V30 3574 O 330.446 0.794886 1.7883 0
M  V30 3575 C 330.745 3.56002 -0.315776 0
M  V30 3576 C 330.411 4.18489 -1.67863 0
M  V30 3577 C 329.073 4.3527 -2.05166 0
M  V30 3578 C 331.425 4.53219 -2.57375 0
M  V30 3579 C 328.753 4.84069 -3.31503 0
M  V30 3580 C 331.105 5.03423 -3.83077 0
M  V30 3581 C 329.769 5.18413 -4.20481 0
M  V30 3582 H 329.039 0.734211 -0.100076 0
M  V30 3583 H 331.686 1.6718 -0.933972 0
M  V30 3584 H 329.991 3.89452 0.428285 0
M  V30 3585 H 331.688 4.00963 0.0542575 0
M  V30 3586 H 328.278 4.05824 -1.37858 0
M  V30 3587 H 332.462 4.39878 -2.29827 0
M  V30 3588 H 327.718 4.93859 -3.60435 0
M  V30 3589 H 331.892 5.2927 -4.52599 0
M  V30 3590 H 329.519 5.55987 -5.18443 0
M  V30 3591 N 331.094 0.475555 1.50254 0
M  V30 3592 C 332.024 -0.30611 2.31485 0
M  V30 3593 C 333.005 -0.986228 1.38591 0
M  V30 3594 O 334.19 -0.982541 1.67511 0
M  V30 3595 C 331.32 -1.38588 3.1845 0
M  V30 3596 C 330.274 -0.827115 4.19932 0
M  V30 3597 C 329.6 -2.00551 4.95665 0
M  V30 3598 C 330.9 0.16463 5.2204 0
M  V30 3599 H 332.594 0.371866 2.97082 0
M  V30 3600 H 330.14 0.180282 1.42867 0
M  V30 3601 H 332.093 -1.94023 3.74076 0
M  V30 3602 H 330.817 -2.09269 2.50747 0
M  V30 3603 H 329.476 -0.294702 3.65414 0
M  V30 3604 H 329.124 -2.6994 4.2443 0
M  V30 3605 H 328.824 -1.63784 5.64313 0
M  V30 3606 H 330.348 -2.56468 5.54127 0
M  V30 3607 H 331.762 -0.300699 5.72511 0
M  V30 3608 H 330.159 0.446813 5.98434 0
M  V30 3609 H 331.229 1.08905 4.72512 0
M  V30 3610 N 332.573 -1.56217 0.208337 0
M  V30 3611 C 333.85 -1.89739 -0.475234 0
M  V30 3612 C 334.23 -1.1238 -1.78701 0
M  V30 3613 O 333.578 -0.228979 -2.2735 0
M  V30 3614 C 333.788 -3.42289 -0.681101 0
M  V30 3615 C 335.136 -4.12789 -0.994507 0
M  V30 3616 O 336.16 -3.47814 -0.768357 0
M  V30 3617 O 335.019 -5.27649 -1.42299 0
M  V30 3618 H 332.113 -0.788478 -0.249461 0
M  V30 3619 H 334.659 -1.67855 0.249538 0
M  V30 3620 H 333.431 -3.90534 0.244722 0
M  V30 3621 H 333.054 -3.69909 -1.45785 0
M  V30 3622 N 334.051 0.0651679 -1.57465 0
M  V30 3623 C 335.3 0.761916 -1.86756 0
M  V30 3624 C 335.613 1.78406 -0.801925 0
M  V30 3625 O 336.819 2.53084 -0.982885 0
M  V30 3626 C 335.275 1.40603 -3.31299 0
M  V30 3627 C 334.883 0.422115 -4.46007 0
M  V30 3628 C 336.627 2.08476 -3.69781 0
M  V30 3629 C 334.534 1.07252 -5.81593 0
M  V30 3630 H 333.464 0.288308 -0.696702 0
M  V30 3631 H 336.115 0.015344 -1.83494 0
M  V30 3632 H 334.497 2.20109 -3.29193 0
M  V30 3633 H 335.671 -0.343613 -4.59517 0
M  V30 3634 H 333.986 -0.152527 -4.16121 0
M  V30 3635 H 336.583 2.57925 -4.68379 0
M  V30 3636 H 336.926 2.88712 -2.99919 0
M  V30 3637 H 337.459 1.35792 -3.73905 0
M  V30 3638 H 334.198 0.310342 -6.54765 0
M  V30 3639 H 333.718 1.80895 -5.71872 0
M  V30 3640 H 335.397 1.59043 -6.27148 0
M  V30 3641 N 335.529 1.53961 0.336706 0
M  V30 3642 C 336.759 1.75229 1.09446 0
M  V30 3643 C 337.167 0.494602 1.82621 0
M  V30 3644 O 336.51 -0.543764 1.75468 0
M  V30 3645 C 336.572 2.88288 2.1478 0
M  V30 3646 C 336.236 4.27656 1.6112 0
M  V30 3647 C 337.233 5.08981 1.0599 0
M  V30 3648 C 334.918 4.74161 1.6576 0
M  V30 3649 C 336.912 6.34916 0.562129 0
M  V30 3650 C 334.599 6.00067 1.15595 0
M  V30 3651 C 335.597 6.80278 0.609147 0
M  V30 3652 O 335.285 8.03818 0.114999 0
M  V30 3653 H 335.017 0.588881 0.331956 0
M  V30 3654 H 337.571 2.01614 0.392566 0
M  V30 3655 H 335.801 2.57443 2.88548 0
M  V30 3656 H 337.49 2.97461 2.76174 0
M  V30 3657 H 338.256 4.74213 1.01722 0
M  V30 3658 H 334.135 4.11781 2.07261 0
M  V30 3659 H 337.679 6.9747 0.134668 0
M  V30 3660 H 333.576 6.3433 1.19566 0
M  V30 3661 H 334.344 8.18172 0.231651 0
M  V30 3662 N 337.007 -0.598083 1.45811 0
M  V30 3663 C 337.954 -1.7082 1.55207 0
M  V30 3664 C 338.924 -1.61278 0.39732 0
M  V30 3665 O 340.109 -1.80717 0.612038 0
M  V30 3666 C 337.249 -3.09144 1.53376 0
M  V30 3667 C 336.362 -3.29423 2.79472 0
M  V30 3668 C 335.497 -4.57907 2.69248 0
M  V30 3669 C 334.536 -4.71476 3.90354 0
M  V30 3670 N 333.673 -5.9127 3.78608 0
M  V30 3671 H 338.513 -1.62125 2.50039 0
M  V30 3672 H 336.05 -0.790389 1.24062 0
M  V30 3673 H 338.008 -3.89186 1.50301 0
M  V30 3674 H 336.638 -3.16773 0.620876 0
M  V30 3675 H 335.69 -2.43091 2.92594 0
M  V30 3676 H 337.002 -3.3532 3.69272 0
M  V30 3677 H 336.156 -5.46157 2.64192 0
M  V30 3678 H 334.895 -4.54423 1.77063 0
M  V30 3679 H 333.9 -3.81648 3.95759 0
M  V30 3680 H 335.125 -4.76751 4.83617 0
M  V30 3681 H 333.071 -5.88813 2.89199 0
M  V30 3682 H 332.988 -5.98369 4.6205 0
M  V30 3683 H 334.256 -6.81992 3.77501 0
M  V30 3684 N 338.485 -1.33259 -0.841409 0
M  V30 3685 C 339.417 -1.19136 -1.95804 0
M  V30 3686 C 340.43 -0.122965 -1.62335 0
M  V30 3687 O 341.619 -0.373154 -1.74556 0
M  V30 3688 C 338.719 -0.804268 -3.29218 0
M  V30 3689 C 337.892 -1.96376 -3.90839 0
M  V30 3690 C 336.951 -1.55806 -5.02604 0
M  V30 3691 O 335.977 -2.27203 -5.21888 0
M  V30 3692 N 337.179 -0.461609 -5.78662 0
M  V30 3693 H 339.944 -2.15326 -2.08458 0
M  V30 3694 H 337.505 -1.25971 -1.017 0
M  V30 3695 H 339.497 -0.51501 -4.0141 0
M  V30 3696 H 338.067 0.0668809 -3.12528 0
M  V30 3697 H 337.287 -2.41879 -3.11269 0
M  V30 3698 H 338.575 -2.73966 -4.28742 0
M  V30 3699 H 337.973 0.132343 -5.65545 0
M  V30 3700 H 336.53 -0.232013 -6.51387 0
M  V30 3701 N 339.963 1.05934 -1.16686 0
M  V30 3702 C 341.374 1.60263 -0.957745 0
M  V30 3703 C 341.725 1.89789 0.49745 0
M  V30 3704 O 340.85 1.67401 1.37135 0
M  V30 3705 C 341.445 2.91172 -1.73218 0
M  V30 3706 C 340.004 3.42188 -1.56794 0
M  V30 3707 C 339.151 2.16028 -1.73859 0
M  V30 3708 H 342.102 0.888392 -1.31504 0
M  V30 3709 H 342.123 3.60744 -1.21014 0
M  V30 3710 H 341.635 2.6965 -2.79124 0
M  V30 3711 H 339.736 3.68762 -0.533437 0
M  V30 3712 H 339.849 4.17273 -2.35414 0
M  V30 3713 H 338.213 2.26426 -1.16633 0
M  V30 3714 H 338.996 1.96985 -2.81161 0
M  V30 3715 N 341.441 0.965919 1.2453 0
M  V30 3716 C 342.687 0.62776 1.92839 0
M  V30 3717 C 343.02 -0.834694 1.75347 0
M  V30 3718 O 342.295 -1.60031 1.10546 0
M  V30 3719 C 342.578 1.00109 3.45905 0
M  V30 3720 C 342.431 2.52011 3.72573 0
M  V30 3721 C 343.75 0.53435 4.36844 0
M  V30 3722 H 340.869 0.229537 0.700344 0
M  V30 3723 H 343.511 1.2046 1.46933 0
M  V30 3724 H 341.661 0.510238 3.85135 0
M  V30 3725 H 343.333 3.08559 3.42912 0
M  V30 3726 H 341.576 2.95287 3.17786 0
M  V30 3727 H 342.247 2.73183 4.79661 0
M  V30 3728 H 344.723 0.955565 4.04979 0
M  V30 3729 H 343.599 0.824152 5.42678 0
M  V30 3730 H 343.86 -0.565589 4.38467 0
M  V30 3731 N 342.919 -1.39368 0.735821 0
M  V30 3732 C 344.159 -2.02349 0.288813 0
M  V30 3733 C 344.523 -1.57127 -1.10341 0
M  V30 3734 O 345.724 -2.12312 -1.64854 0
M  V30 3735 C 343.995 -3.55288 0.387986 0
M  V30 3736 S 345.554 -4.38795 0.0209408 0
M  V30 3737 H 342.372 -0.701944 0.113115 0
M  V30 3738 H 344.974 -1.70164 0.962518 0
M  V30 3739 H 343.678 -3.85691 1.40252 0
M  V30 3740 H 343.209 -3.92227 -0.303512 0
M  V30 3741 H 345.224 -4.81595 -1.19503 0
M  V30 3742 N 344.397 -0.483516 -1.5 0
M  V30 3743 C 345.622 0.0667119 -2.07293 0
M  V30 3744 C 346.047 1.3164 -1.3436 0
M  V30 3745 O 345.405 1.76945 -0.394987 0
M  V30 3746 C 345.453 0.321126 -3.59167 0
M  V30 3747 O 344.557 1.39927 -3.87936 0
M  V30 3748 H 343.898 -0.0184758 -0.663743 0
M  V30 3749 H 346.428 -0.678125 -1.93035 0
M  V30 3750 H 346.438 0.557906 -4.04168 0
M  V30 3751 H 345.113 -0.592007 -4.11665 0
M  V30 3752 H 343.69 1.14882 -3.54763 0
M  V30 3753 N 345.875 1.56104 -0.216619 0
M  V30 3754 C 346.838 2.18819 0.681962 0
M  V30 3755 C 347.838 1.14866 1.12528 0
M  V30 3756 O 349.028 1.40128 1.03488 0
M  V30 3757 C 346.16 2.80756 1.93362 0
M  V30 3758 H 347.353 2.99595 0.135254 0
M  V30 3759 H 344.906 1.56265 0.0330003 0
M  V30 3760 H 345.641 2.03837 2.52232 0
M  V30 3761 H 345.426 3.56876 1.62426 0
M  V30 3762 H 346.916 3.28844 2.57393 0
M  V30 3763 N 347.353 -0.0568162 1.57498 0
M  V30 3764 C 348.583 -0.764515 1.91934 0
M  V30 3765 C 348.991 -1.70877 0.81227 0
M  V30 3766 O 348.334 -1.82351 -0.222213 0
M  V30 3767 C 348.396 -1.5994 3.21962 0
M  V30 3768 C 348.06 -0.822925 4.4953 0
M  V30 3769 C 349.057 -0.135464 5.19723 0
M  V30 3770 C 346.742 -0.785666 4.96117 0
M  V30 3771 C 348.736 0.578861 6.34766 0
M  V30 3772 C 346.423 -0.0675784 6.11063 0
M  V30 3773 C 347.421 0.613471 6.80239 0
M  V30 3774 O 347.109 1.31996 7.92989 0
M  V30 3775 H 346.841 -0.221647 0.63863 0
M  V30 3776 H 349.395 -0.0268218 2.05382 0
M  V30 3777 H 347.625 -2.38026 3.04763 0
M  V30 3778 H 349.314 -2.18715 3.41934 0
M  V30 3779 H 350.08 -0.155458 4.84751 0
M  V30 3780 H 345.959 -1.30524 4.42136 0
M  V30 3781 H 349.503 1.111 6.88696 0
M  V30 3782 H 345.4 -0.0455636 6.45484 0
M  V30 3783 H 346.168 1.23077 8.09194 0
M  V30 3784 N 348.832 -1.54138 -0.328536 0
M  V30 3785 C 349.762 -1.86167 -1.40939 0
M  V30 3786 C 350.743 -0.718044 -1.54202 0
M  V30 3787 O 351.928 -0.971328 -1.68163 0
M  V30 3788 C 349.058 -2.08461 -2.77779 0
M  V30 3789 C 348.012 -3.24299 -2.7931 0
M  V30 3790 C 347.338 -3.31955 -4.19178 0
M  V30 3791 C 348.638 -4.62065 -2.43502 0
M  V30 3792 H 350.332 -2.76689 -1.14383 0
M  V30 3793 H 347.878 -1.33132 -0.548806 0
M  V30 3794 H 349.831 -2.29453 -3.53454 0
M  V30 3795 H 348.555 -1.14684 -3.05802 0
M  V30 3796 H 347.214 -3.03187 -2.0609 0
M  V30 3797 H 346.862 -2.35745 -4.44335 0
M  V30 3798 H 346.562 -4.09805 -4.2111 0
M  V30 3799 H 348.086 -3.55175 -4.96672 0
M  V30 3800 H 349.5 -4.8297 -3.08889 0
M  V30 3801 H 347.897 -5.42429 -2.56693 0
M  V30 3802 H 348.967 -4.64652 -1.38659 0
M  V30 3803 N 350.31 0.590341 -1.46126 0
M  V30 3804 C 351.26 1.69466 -1.5253 0
M  V30 3805 C 352.244 1.56179 -0.386917 0
M  V30 3806 O 353.436 1.65223 -0.634858 0
M  V30 3807 C 350.565 3.08245 -1.5113 0
M  V30 3808 C 349.651 3.26856 -2.70233 0
M  V30 3809 N 350.042 3.15657 -3.95214 0
M  V30 3810 C 348.34 3.57775 -2.66296 0
M  V30 3811 C 349.041 3.36066 -4.74799 0
M  V30 3812 N 348.017 3.60865 -4.06543 0
M  V30 3813 H 351.819 1.59326 -2.46966 0
M  V30 3814 H 349.333 0.79414 -1.41659 0
M  V30 3815 H 351.33 3.87492 -1.53804 0
M  V30 3816 H 349.99 3.19521 -0.577636 0
M  V30 3817 H 351.001 2.93686 -4.26578 0
M  V30 3818 H 347.678 3.75782 -1.81918 0
M  V30 3819 H 349.068 3.32655 -5.83772 0
M  V30 3820 N 351.788 1.33704 0.83433 0
M  V30 3821 C 352.718 1.26967 1.95963 0
M  V30 3822 C 353.699 0.149337 1.69443 0
M  V30 3823 O 354.884 0.339852 1.91203 0
M  V30 3824 C 352.014 1.01275 3.32206 0
M  V30 3825 C 350.968 2.09652 3.73136 0
M  V30 3826 C 350.294 1.69166 5.07235 0
M  V30 3827 C 351.594 3.51372 3.86439 0
M  V30 3828 H 353.288 2.2112 2.01857 0
M  V30 3829 H 350.834 1.06447 0.969793 0
M  V30 3830 H 352.787 0.952106 4.10503 0
M  V30 3831 H 351.511 0.0356203 3.26581 0
M  V30 3832 H 350.17 2.14766 2.97104 0
M  V30 3833 H 349.818 0.701437 4.98085 0
M  V30 3834 H 349.518 2.41694 5.35591 0
M  V30 3835 H 351.042 1.64576 5.88003 0
M  V30 3836 H 352.456 3.48734 4.55036 0
M  V30 3837 H 350.853 4.22425 4.26236 0
M  V30 3838 H 351.923 3.89546 2.88759 0
M  V30 3839 N 353.266 -1.05314 1.17247 0
M  V30 3840 C 354.506 -1.79869 0.970898 0
M  V30 3841 C 354.87 -1.85594 -0.491808 0
M  V30 3842 O 356.071 -2.56229 -0.812409 0
M  V30 3843 C 354.342 -3.19937 1.59295 0
M  V30 3844 S 355.901 -4.10986 1.53741 0
M  V30 3845 H 352.719 -0.61949 0.348931 0
M  V30 3846 H 355.321 -1.26368 1.49169 0
M  V30 3847 H 354.025 -3.13372 2.65003 0
M  V30 3848 H 353.556 -3.78515 1.07191 0
M  V30 3849 H 355.571 -4.93203 0.544537 0
M  V30 3850 N 354.744 -0.972509 -1.24016 0
M  V30 3851 C 355.969 -0.654417 -1.96805 0
M  V30 3852 C 356.394 0.770398 -1.716 0
M  V30 3853 O 355.752 1.52361 -0.982647 0
M  V30 3854 C 355.8 -0.941031 -3.48105 0
M  V30 3855 O 354.904 -0.0289472 -4.1239 0
M  V30 3856 H 354.245 -0.24692 -0.616382 0
M  V30 3857 H 356.775 -1.30396 -1.57664 0
M  V30 3858 H 356.785 -0.87452 -3.98517 0
M  V30 3859 H 355.46 -1.97939 -3.65777 0
M  V30 3860 H 354.037 -0.149192 -3.72601 0
M  V30 3861 N 356.222 1.38976 -0.743202 0
M  V30 3862 C 357.638 1.53984 -0.419664 0
M  V30 3863 C 357.838 1.70837 1.0685 0
M  V30 3864 O 356.894 1.7135 1.8546 0
M  V30 3865 C 358.207 2.75287 -1.20985 0
M  V30 3866 C 359.755 2.89129 -1.19889 0
M  V30 3867 C 360.23 4.13381 -1.97181 0
M  V30 3868 N 361.721 4.20437 -1.94389 0
M  V30 3869 C 362.456 5.15547 -2.50996 0
M  V30 3870 N 361.952 6.16395 -3.16274 0
M  V30 3871 N 363.745 5.07822 -2.40984 0
M  V30 3872 H 355.896 1.26285 -1.7078 0
M  V30 3873 H 358.159 0.612689 -0.723406 0
M  V30 3874 H 357.865 2.69204 -2.26323 0
M  V30 3875 H 357.739 3.68184 -0.819759 0
M  V30 3876 H 360.126 2.947 -0.153606 0
M  V30 3877 H 360.207 1.97272 -1.62841 0
M  V30 3878 H 359.851 4.08572 -3.01714 0
M  V30 3879 H 359.781 5.04298 -1.51629 0
M  V30 3880 H 362.272 3.48205 -1.46839 0
M  V30 3881 H 362.585 6.85443 -3.56915 0
M  V30 3882 H 360.93 6.16758 -3.20367 0
M  V30 3883 H 364.121 4.27973 -1.89622 0
M  V30 3884 H 364.294 5.81767 -2.85397 0
M  V30 3885 N 357.7 0.491464 1.49741 0
M  V30 3886 C 358.93 -0.0534375 2.06531 0
M  V30 3887 C 359.338 -1.32233 1.35318 0
M  V30 3888 O 358.681 -1.78781 0.422243 0
M  V30 3889 C 358.743 -0.387034 3.57411 0
M  V30 3890 C 358.407 0.782764 4.50246 0
M  V30 3891 C 359.404 1.67059 4.92329 0
M  V30 3892 C 357.089 0.978866 4.9267 0
M  V30 3893 C 359.083 2.73874 5.75562 0
M  V30 3894 C 356.77 2.05022 5.75682 0
M  V30 3895 C 357.768 2.92851 6.17031 0
M  V30 3896 O 357.456 3.98138 6.98385 0
M  V30 3897 H 357.188 0.0129324 0.675876 0
M  V30 3898 H 359.742 0.685238 1.93633 0
M  V30 3899 H 357.972 -1.17918 3.68283 0
M  V30 3900 H 359.661 -0.869419 3.96479 0
M  V30 3901 H 360.427 1.53086 4.60206 0
M  V30 3902 H 356.306 0.304646 4.59992 0
M  V30 3903 H 359.85 3.42458 6.07757 0
M  V30 3904 H 355.747 2.18993 6.07217 0
M  V30 3905 H 356.515 3.95374 7.16674 0
M  V30 3906 N 359.178 -1.55987 0.224894 0
M  V30 3907 C 360.408 -2.02489 -0.41007 0
M  V30 3908 C 360.816 -1.10391 -1.53657 0
M  V30 3909 O 360.159 -0.106458 -1.83391 0
M  V30 3910 C 360.221 -3.45319 -0.999757 0
M  V30 3911 C 359.885 -4.56999 -0.00827976 0
M  V30 3912 C 360.882 -5.13812 0.793314 0
M  V30 3913 C 358.567 -5.02176 0.111442 0
M  V30 3914 C 360.561 -6.14276 1.7013 0
M  V30 3915 C 358.248 -6.02477 1.02296 0
M  V30 3916 C 359.246 -6.58403 1.81643 0
M  V30 3917 O 358.934 -7.56751 2.71262 0
M  V30 3918 H 358.666 -0.667915 -0.104235 0
M  V30 3919 H 361.22 -2.0257 0.339782 0
M  V30 3920 H 359.45 -3.42318 -1.79876 0
M  V30 3921 H 361.139 -3.7545 -1.54248 0
M  V30 3922 H 361.905 -4.79756 0.711288 0
M  V30 3923 H 357.784 -4.58323 -0.49605 0
M  V30 3924 H 361.328 -6.57854 2.32107 0
M  V30 3925 H 357.225 -6.35954 1.10599 0
M  V30 3926 H 357.993 -7.74286 2.65375 0
M  V30 3927 N 360.656 0.0484629 -1.57525 0
M  V30 3928 C 361.566 1.07241 -2.08654 0
M  V30 3929 C 362.582 1.409 -1.02095 0
M  V30 3930 O 363.758 1.50609 -1.33712 0
M  V30 3931 C 360.823 2.36008 -2.5397 0
M  V30 3932 C 359.884 2.09108 -3.7493 0
M  V30 3933 C 359.117 3.31736 -4.18075 0
M  V30 3934 O 359.34 4.41714 -3.60895 0
M  V30 3935 O 358.274 3.18576 -5.10679 0
M  V30 3936 H 362.1 0.667965 -2.96263 0
M  V30 3937 H 359.685 0.26417 -1.47046 0
M  V30 3938 H 361.567 3.11747 -2.83535 0
M  V30 3939 H 360.242 2.75786 -1.69481 0
M  V30 3940 H 359.149 1.31 -3.50414 0
M  V30 3941 H 360.482 1.74198 -4.60343 0
M  V30 3942 N 362.134 1.5431 0.320358 0
M  V30 3943 C 363.359 1.76954 1.08175 0
M  V30 3944 C 363.784 0.518193 1.80821 0
M  V30 3945 O 363.142 -0.530411 1.73368 0
M  V30 3946 C 363.19 2.96451 2.05303 0
M  V30 3947 O 362.294 2.68221 3.13259 0
M  V30 3948 H 361.635 0.586275 0.311733 0
M  V30 3949 H 364.165 2.01342 0.363676 0
M  V30 3950 H 364.175 3.23887 2.48116 0
M  V30 3951 H 362.85 3.87196 1.51829 0
M  V30 3952 H 361.427 2.51744 2.75099 0
M  V30 3953 N 363.613 -0.582584 1.46437 0
M  V30 3954 C 364.859 -1.34278 1.51978 0
M  V30 3955 C 365.192 -1.93446 0.170973 0
M  V30 3956 O 364.467 -1.76481 -0.817608 0
M  V30 3957 C 364.75 -2.47203 2.61845 0
M  V30 3958 C 364.603 -1.93069 4.06257 0
M  V30 3959 C 365.922 -3.49247 2.67795 0
M  V30 3960 H 363.041 -0.486876 0.553282 0
M  V30 3961 H 365.683 -0.654437 1.78374 0
M  V30 3962 H 363.833 -3.0592 2.39469 0
M  V30 3963 H 365.505 -1.38808 4.3992 0
M  V30 3964 H 363.748 -1.23898 4.1573 0
M  V30 3965 H 364.419 -2.74586 4.7886 0
M  V30 3966 H 366.895 -3.00411 2.8791 0
M  V30 3967 H 365.771 -4.25719 3.46489 0
M  V30 3968 H 366.032 -4.06482 1.73852 0
M  V30 3969 N 365.091 -1.34144 -0.827227 0
M  V30 3970 C 366.316 -1.29476 -1.62021 0
M  V30 3971 C 366.741 0.129292 -1.87655 0
M  V30 3972 O 366.099 1.08967 -1.449 0
M  V30 3973 C 366.147 -2.08702 -2.94068 0
M  V30 3974 O 365.251 -1.45359 -3.85933 0
M  V30 3975 H 364.592 -0.444881 -0.492927 0
M  V30 3976 H 367.122 -1.76882 -1.02829 0
M  V30 3977 H 367.132 -2.19898 -3.43669 0
M  V30 3978 H 365.807 -3.12241 -2.74734 0
M  V30 3979 H 364.384 -1.42879 -3.44442 0
M  V30 3980 N 366.569 1.04691 -1.17803 0
M  V30 3981 C 367.818 1.77176 -0.963931 0
M  V30 3982 C 368.131 1.88888 0.508015 0
M  V30 3983 O 369.337 2.58164 0.840465 0
M  V30 3984 C 367.793 3.18518 -1.67555 0
M  V30 3985 C 367.401 3.14919 -3.18637 0
M  V30 3986 C 369.145 3.95424 -1.54402 0
M  V30 3987 C 367.052 4.51081 -3.82466 0
M  V30 3988 H 365.982 0.664116 -0.357023 0
M  V30 3989 H 368.633 1.17303 -1.4111 0
M  V30 3990 H 367.015 3.78748 -1.15613 0
M  V30 3991 H 368.189 2.64178 -3.77554 0
M  V30 3992 H 366.504 2.51512 -3.31859 0
M  V30 3993 H 369.101 4.96106 -1.99456 0
M  V30 3994 H 369.444 4.13343 -0.495329 0
M  V30 3995 H 369.977 3.41754 -2.0359 0
M  V30 3996 H 366.716 4.38368 -4.87354 0
M  V30 3997 H 366.236 5.01951 -3.28337 0
M  V30 3998 H 367.915 5.2001 -3.84965 0
M  V30 3999 N 368.047 0.979072 1.23499 0
M  V30 4000 C 369.277 0.664237 1.95631 0
M  V30 4001 C 369.685 -0.772653 1.72704 0
M  V30 4002 O 369.028 -1.53141 1.01457 0
M  V30 4003 C 369.09 0.873115 3.48736 0
M  V30 4004 C 368.754 2.29182 3.95379 0
M  V30 4005 C 369.751 3.2704 4.04155 0
M  V30 4006 C 367.436 2.62256 4.28401 0
M  V30 4007 C 369.43 4.56052 4.45304 0
M  V30 4008 C 367.117 3.91491 4.69231 0
M  V30 4009 C 368.115 4.88201 4.77649 0
M  V30 4010 O 367.803 6.15129 5.17563 0
M  V30 4011 H 367.535 0.245915 0.629684 0
M  V30 4012 H 370.089 1.3127 1.57979 0
M  V30 4013 H 368.319 0.167476 3.86337 0
M  V30 4014 H 370.008 0.555642 4.02079 0
M  V30 4015 H 370.774 3.02819 3.78848 0
M  V30 4016 H 366.653 1.87692 4.21061 0
M  V30 4017 H 370.197 5.31538 4.51789 0
M  V30 4018 H 366.094 4.15508 4.93987 0
M  V30 4019 H 366.862 6.18862 5.35679 0
M  V30 4020 N 369.525 -1.3858 0.750561 0
M  V30 4021 C 370.774 -1.99424 0.302172 0
M  V30 4022 C 371.087 -1.60254 -1.12152 0
M  V30 4023 O 372.293 -2.14046 -1.67023 0
M  V30 4024 C 370.749 -3.56558 0.489307 0
M  V30 4025 C 370.357 -4.04682 1.92189 0
M  V30 4026 C 372.101 -4.24374 0.103478 0
M  V30 4027 C 370.008 -5.54446 2.05775 0
M  V30 4028 H 368.938 -0.746046 0.10923 0
M  V30 4029 H 371.589 -1.58383 0.92667 0
M  V30 4030 H 369.971 -3.95472 -0.204329 0
M  V30 4031 H 371.145 -3.77065 2.64875 0
M  V30 4032 H 369.46 -3.4958 2.26236 0
M  V30 4033 H 372.057 -5.34384 0.183787 0
M  V30 4034 H 372.4 -4.05468 -0.943481 0
M  V30 4035 H 372.933 -3.90688 0.748854 0
M  V30 4036 H 369.672 -5.78252 3.08714 0
M  V30 4037 H 369.192 -5.83816 1.37546 0
M  V30 4038 H 370.871 -6.20099 1.84626 0
M  V30 4039 N 371.003 -0.499398 -1.49478 0
M  V30 4040 C 372.419 -0.155261 -1.58843 0
M  V30 4041 C 372.619 1.34008 -1.50479 0
M  V30 4042 O 371.675 2.11589 -1.37791 0
M  V30 4043 C 372.988 -0.730636 -2.91689 0
M  V30 4044 C 374.536 -0.696599 -3.0515 0
M  V30 4045 C 375.011 -1.25001 -4.40612 0
M  V30 4046 N 376.502 -1.21064 -4.47099 0
M  V30 4047 C 377.237 -1.60905 -5.50361 0
M  V30 4048 N 376.733 -2.08331 -6.60735 0
M  V30 4049 N 378.526 -1.52331 -5.41065 0
M  V30 4050 H 370.677 -1.47162 -1.53158 0
M  V30 4051 H 372.94 -0.610309 -0.725415 0
M  V30 4052 H 372.646 -1.77928 -3.03372 0
M  V30 4053 H 372.52 -0.190161 -3.7672 0
M  V30 4054 H 374.907 0.343204 -2.93097 0
M  V30 4055 H 374.988 -1.2742 -2.21806 0
M  V30 4056 H 374.632 -2.28859 -4.53416 0
M  V30 4057 H 374.562 -0.64836 -5.22593 0
M  V30 4058 H 377.053 -0.863128 -3.67911 0
M  V30 4059 H 377.366 -2.36805 -7.35624 0
M  V30 4060 H 375.711 -2.12304 -6.6178 0
M  V30 4061 H 378.902 -1.151 -4.53729 0
M  V30 4062 H 379.075 -1.83704 -6.21415 0
M  V30 4063 N 372.481 1.55866 -0.233164 0
M  V30 4064 C 373.411 2.23783 0.666599 0
M  V30 4065 C 374.392 1.21343 1.19205 0
M  V30 4066 O 375.577 1.4996 1.23392 0
M  V30 4067 C 372.707 2.92671 1.86978 0
M  V30 4068 C 371.661 4.01682 1.47768 0
M  V30 4069 C 370.987 4.57926 2.76058 0
M  V30 4070 C 372.287 5.18126 0.658993 0
M  V30 4071 H 373.981 2.99232 0.100306 0
M  V30 4072 H 371.527 1.43924 0.046804 0
M  V30 4073 H 373.48 3.3888 2.50476 0
M  V30 4074 H 372.204 2.14688 2.46123 0
M  V30 4075 H 370.863 3.56222 0.866106 0
M  V30 4076 H 370.511 3.76659 3.33372 0
M  V30 4077 H 370.211 5.31505 2.50552 0
M  V30 4078 H 371.735 5.06859 3.40479 0
M  V30 4079 H 373.149 5.60644 1.19795 0
M  V30 4080 H 371.546 5.98009 0.500552 0
M  V30 4081 H 372.616 4.83763 -0.331856 0
M  V30 4082 N 373.959 -0.0401083 1.57549 0
M  V30 4083 C 374.906 -1.04413 2.05831 0
M  V30 4084 C 375.876 -1.36585 0.945184 0
M  V30 4085 O 377.061 -1.47112 1.21502 0
M  V30 4086 C 374.201 -2.34336 2.53339 0
M  V30 4087 C 373.314 -2.08419 3.78398 0
M  V30 4088 C 372.449 -3.32133 4.14561 0
M  V30 4089 C 371.488 -3.01721 5.3257 0
M  V30 4090 N 370.625 -4.17855 5.64218 0
M  V30 4091 H 375.465 -0.625442 2.91363 0
M  V30 4092 H 373.002 -0.297218 1.44066 0
M  V30 4093 H 374.96 -3.10234 2.78946 0
M  V30 4094 H 373.59 -2.73948 1.7074 0
M  V30 4095 H 372.642 -1.23069 3.59942 0
M  V30 4096 H 373.954 -1.81978 4.64419 0
M  V30 4097 H 373.108 -4.16406 4.41238 0
M  V30 4098 H 371.847 -3.61678 3.2717 0
M  V30 4099 H 370.852 -2.15849 5.05657 0
M  V30 4100 H 372.077 -2.73466 6.21605 0
M  V30 4101 H 370.023 -4.47372 4.79786 0
M  V30 4102 H 369.94 -3.94798 6.44725 0
M  V30 4103 H 371.208 -5.03033 5.95465 0
M  V30 4104 N 375.437 -1.54477 -0.31217 0
M  V30 4105 C 376.384 -1.84655 -1.38461 0
M  V30 4106 C 377.354 -0.694536 -1.50882 0
M  V30 4107 O 378.539 -0.942081 -1.6592 0
M  V30 4108 C 375.679 -2.0896 -2.74645 0
M  V30 4109 C 374.792 -3.36618 -2.70763 0
M  V30 4110 C 373.927 -3.50824 -3.98868 0
M  V30 4111 C 372.966 -4.72315 -3.89339 0
M  V30 4112 N 372.103 -4.83387 -5.09197 0
M  V30 4113 H 376.943 -2.76142 -1.12026 0
M  V30 4114 H 374.48 -1.36748 -0.542065 0
M  V30 4115 H 376.438 -2.21045 -3.53829 0
M  V30 4116 H 375.068 -1.20752 -2.99364 0
M  V30 4117 H 374.12 -3.33211 -1.83506 0
M  V30 4118 H 375.432 -4.25917 -2.59608 0
M  V30 4119 H 374.586 -3.62513 -4.86486 0
M  V30 4120 H 373.325 -2.59638 -4.12843 0
M  V30 4121 H 372.33 -4.6067 -3.00105 0
M  V30 4122 H 373.555 -5.64897 -3.76919 0
M  V30 4123 H 371.501 -3.9512 -5.23657 0
M  V30 4124 H 371.418 -5.66669 -5.00422 0
M  V30 4125 H 372.686 -4.9942 -5.98498 0
M  V30 4126 N 376.915 0.57481 -1.46744 0
M  V30 4127 C 378.161 1.3347 -1.52688 0
M  V30 4128 C 378.494 1.93353 -0.181229 0
M  V30 4129 O 377.769 1.76912 0.808237 0
M  V30 4130 C 378.052 2.45811 -2.63152 0
M  V30 4131 C 377.905 1.90912 -4.07275 0
M  V30 4132 C 379.224 3.47822 -2.69644 0
M  V30 4133 H 376.343 0.483935 -0.555856 0
M  V30 4134 H 378.985 0.644968 -1.78718 0
M  V30 4135 H 377.135 3.04646 -2.41088 0
M  V30 4136 H 378.807 1.36473 -4.4065 0
M  V30 4137 H 377.05 1.21691 -4.16382 0
M  V30 4138 H 377.721 2.72042 -4.80309 0
M  V30 4139 H 380.197 2.9888 -2.895 0
M  V30 4140 H 379.073 4.23876 -3.48742 0
M  V30 4141 H 379.334 4.05555 -1.76005 0
M  V30 4142 N 378.394 1.34581 0.820102 0
M  V30 4143 C 379.641 1.27096 1.57648 0
M  V30 4144 C 379.969 -0.158317 1.93855 0
M  V30 4145 O 379.224 -1.12028 1.60463 0
M  V30 4146 C 379.523 2.10997 2.8847 0
M  V30 4147 C 379.189 3.59966 2.71543 0
M  V30 4148 C 377.851 4.00575 2.66634 0
M  V30 4149 C 380.203 4.54548 2.55021 0
M  V30 4150 C 377.531 5.33953 2.43128 0
M  V30 4151 C 379.883 5.88109 2.33047 0
M  V30 4152 C 378.547 6.27878 2.26552 0
M  V30 4153 H 377.817 0.465078 0.576874 0
M  V30 4154 H 380.464 1.6635 0.948671 0
M  V30 4155 H 378.769 1.6458 3.55557 0
M  V30 4156 H 380.466 2.0255 3.46084 0
M  V30 4157 H 377.056 3.27733 2.76205 0
M  V30 4158 H 381.24 4.24069 2.57835 0
M  V30 4159 H 376.496 5.63781 2.3656 0
M  V30 4160 H 380.67 6.60985 2.19251 0
M  V30 4161 H 378.297 7.31162 2.081 0
M  V30 4162 N 379.872 -1.04064 1.18357 0
M  V30 4163 C 380.82 -2.14187 0.907007 0
M  V30 4164 C 381.814 -1.68879 -0.132725 0
M  V30 4165 O 383.02 -1.79993 0.0154248 0
M  V30 4166 H 379.395 -0.699585 0.275835 0
M  V30 4167 H 381.366 -2.34711 1.84264 0
M  V30 4168 C 380.115 -3.44785 0.449254 0
M  V30 4169 H 379.438 -3.80058 1.24081 0
M  V30 4170 H 380.878 -4.22974 0.294737 0
M  V30 4171 C 379.337 -3.26391 -0.834909 0
M  V30 4172 O 379.867 -3.53973 -1.89911 0
M  V30 4173 N 378.073 -2.79726 -0.787523 0
M  V30 4174 H 377.62 -2.5748 0.0787347 0
M  V30 4175 H 377.578 -2.67798 -1.64716 0
M  V30 4176 N 381.35 -0.985608 -1.22978 0
M  V30 4177 C 382.598 -0.656087 -1.91154 0
M  V30 4178 C 382.919 0.813561 -1.77218 0
M  V30 4179 O 382.189 1.58244 -1.1548 0
M  V30 4180 H 380.769 -0.239674 -0.707506 0
M  V30 4181 H 383.431 -1.25054 -1.49491 0
M  V30 4182 H 382.527 -0.912253 -2.9847 0
M  V30 4183 N 382.828 1.3818 -0.7579 0
M  V30 4184 C 384.077 1.99261 -0.312744 0
M  V30 4185 C 384.39 1.60846 1.11301 0
M  V30 4186 O 385.596 2.14929 1.65885 0
M  V30 4187 C 384.052 3.56294 -0.50821 0
M  V30 4188 C 383.66 4.03657 -1.94333 0
M  V30 4189 C 385.404 4.24313 -0.125982 0
M  V30 4190 C 383.311 5.53347 -2.08712 0
M  V30 4191 H 382.241 0.745456 -0.113185 0
M  V30 4192 H 384.892 1.57889 -0.935056 0
M  V30 4193 H 383.274 3.95575 0.183353 0
M  V30 4194 H 384.448 3.75655 -2.66871 0
M  V30 4195 H 382.763 3.48376 -2.28086 0
M  V30 4196 H 385.36 5.34279 -0.212125 0
M  V30 4197 H 385.703 4.05962 0.921964 0
M  V30 4198 H 386.236 3.90285 -0.769563 0
M  V30 4199 H 382.975 5.76607 -3.11777 0
M  V30 4200 H 382.495 5.83078 -1.4064 0
M  V30 4201 H 384.174 6.19111 -1.87912 0
M  V30 4202 N 384.306 0.507319 1.49211 0
M  V30 4203 C 385.717 0.0611118 1.866 0
M  V30 4204 C 386.068 -1.35488 1.41907 0
M  V30 4205 O 385.193 -2.0108 0.799726 0
M  V30 4206 C 385.788 0.104125 3.3864 0
M  V30 4207 C 384.347 -0.28677 3.75306 0
M  V30 4208 C 383.494 0.473893 2.73221 0
M  V30 4209 H 386.445 0.719775 1.41439 0
M  V30 4210 H 386.466 -0.689672 3.74198 0
M  V30 4211 H 385.978 1.13482 3.71138 0
M  V30 4212 H 384.079 -1.32046 3.48417 0
M  V30 4213 H 384.192 0.0370745 4.79086 0
M  V30 4214 H 382.556 -0.0770644 2.54583 0
M  V30 4215 H 383.339 1.50478 3.08563 0
M  V30 4216 N 385.784 -1.5574 0.241426 0
M  V30 4217 C 386.747 -2.19877 -0.647063 0
M  V30 4218 C 387.747 -1.16642 -1.10686 0
M  V30 4219 O 388.937 -1.41757 -1.01245 0
M  V30 4220 C 386.069 -2.83797 -1.88871 0
M  V30 4221 H 387.262 -2.99772 -0.087574 0
M  V30 4222 H 384.815 -1.56298 -0.00813574 0
M  V30 4223 H 385.55 -2.07824 -2.48957 0
M  V30 4224 H 385.335 -3.59414 -1.56728 0
M  V30 4225 H 386.825 -3.32898 -2.52129 0
M  V30 4226 N 387.262 0.0317525 -1.57568 0
M  V30 4227 C 388.509 0.723104 -1.89149 0
M  V30 4228 C 388.837 1.75504 -0.838377 0
M  V30 4229 O 388.092 1.95037 0.160982 0
M  V30 4230 C 388.391 1.43167 -3.27472 0
M  V30 4231 C 388.057 0.535972 -4.47703 0
M  V30 4232 C 386.719 0.289262 -4.8033 0
M  V30 4233 C 389.071 -0.0826125 -5.21135 0
M  V30 4234 C 386.399 -0.584853 -5.83778 0
M  V30 4235 C 388.751 -0.944414 -6.25511 0
M  V30 4236 C 387.415 -1.20061 -6.56614 0
M  V30 4237 H 386.685 0.264602 -0.692146 0
M  V30 4238 H 389.332 -0.0169496 -1.91492 0
M  V30 4239 H 387.637 2.24497 -3.21105 0
M  V30 4240 H 389.334 1.97209 -3.49155 0
M  V30 4241 H 385.924 0.738414 -4.22191 0
M  V30 4242 H 390.108 0.0950302 -4.96209 0
M  V30 4243 H 385.364 -0.79168 -6.06253 0
M  V30 4244 H 389.538 -1.43026 -6.81554 0
M  V30 4245 H 387.165 -1.87967 -7.36595 0
M  V30 4246 N 388.74 1.54641 0.303973 0
M  V30 4247 C 389.67 1.88386 1.3796 0
M  V30 4248 C 390.651 0.742485 1.5304 0
M  V30 4249 O 391.836 0.997959 1.66597 0
M  V30 4250 C 388.966 2.12854 2.74427 0
M  V30 4251 C 387.92 3.28702 2.74115 0
M  V30 4252 C 387.246 3.38582 4.13844 0
M  V30 4253 C 388.546 4.65881 2.3612 0
M  V30 4254 H 390.24 2.78474 1.09966 0
M  V30 4255 H 387.786 1.33988 0.527556 0
M  V30 4256 H 389.739 2.35047 3.49758 0
M  V30 4257 H 388.463 1.19535 3.03939 0
M  V30 4258 H 387.122 3.06428 2.0124 0
M  V30 4259 H 386.77 2.42784 4.40528 0
M  V30 4260 H 386.47 4.16453 4.14537 0
M  V30 4261 H 387.994 3.63031 4.90959 0
M  V30 4262 H 389.408 4.87823 3.01167 0
M  V30 4263 H 387.805 5.46444 2.48031 0
M  V30 4264 H 388.875 4.66799 1.3125 0
M  V30 4265 N 390.218 -0.567019 1.47046 0
M  V30 4266 C 391.495 -1.3276 1.43646 0
M  V30 4267 C 391.875 -2.1071 0.128186 0
M  V30 4268 O 391.223 -2.10441 -0.890326 0
M  V30 4269 C 391.433 -2.2404 2.67595 0
M  V30 4270 C 392.781 -2.85372 3.14401 0
M  V30 4271 O 393.805 -2.34346 2.68254 0
M  V30 4272 O 392.664 -3.78091 3.946 0
M  V30 4273 H 389.758 -0.597293 0.571988 0
M  V30 4274 H 392.304 -0.586735 1.59234 0
M  V30 4275 H 391.076 -1.65975 3.54356 0
M  V30 4276 H 390.699 -3.05439 2.54544 0
M  V30 4277 N 391.696 -1.35014 -0.812953 0
M  V30 4278 C 392.643 -1.27412 -1.92444 0
M  V30 4279 C 393.613 -0.14733 -1.65445 0
M  V30 4280 O 394.798 -0.329974 -1.87925 0
M  V30 4281 C 391.938 -1.04558 -3.28879 0
M  V30 4282 C 391.051 -2.26101 -3.68106 0
M  V30 4283 C 390.186 -1.96449 -4.9354 0
M  V30 4284 C 389.225 -3.14081 -5.25376 0
M  V30 4285 N 388.362 -2.84246 -6.41988 0
M  V30 4286 H 393.202 -2.22463 -1.98278 0
M  V30 4287 H 390.739 -1.10593 -0.969933 0
M  V30 4288 H 392.697 -0.893413 -4.07522 0
M  V30 4289 H 391.327 -0.131719 -3.22531 0
M  V30 4290 H 390.379 -2.52204 -2.84775 0
M  V30 4291 H 391.691 -3.13959 -3.87597 0
M  V30 4292 H 390.845 -1.78026 -5.79993 0
M  V30 4293 H 389.584 -1.05867 -4.76071 0
M  V30 4294 H 388.589 -3.33089 -4.37415 0
M  V30 4295 H 389.814 -4.05455 -5.44778 0
M  V30 4296 H 387.76 -1.96252 -6.25956 0
M  V30 4297 H 387.677 -3.65637 -6.61699 0
M  V30 4298 H 388.945 -2.6935 -7.31485 0
M  V30 4299 N 393.175 1.03435 -1.18907 0
M  V30 4300 C 394.123 2.13703 -0.918353 0
M  V30 4301 C 395.117 1.68947 0.123767 0
M  V30 4302 O 396.323 1.79983 -0.0249701 0
M  V30 4303 H 392.698 0.698112 -0.279542 0
M  V30 4304 H 394.669 2.33731 -1.85506 0
M  V30 4305 C 393.418 3.44542 -0.467532 0
M  V30 4306 H 392.741 3.79394 -1.26095 0
M  V30 4307 H 394.181 4.22812 -0.317164 0
M  V30 4308 C 392.64 3.26829 0.817588 0
M  V30 4309 O 393.17 3.54975 1.88031 0
M  V30 4310 N 391.376 2.80139 0.772677 0
M  V30 4311 H 390.923 2.57434 -0.0923883 0
M  V30 4312 H 390.881 2.68668 1.63294 0
M  V30 4313 N 394.653 0.992116 1.22453 0
M  V30 4314 C 395.893 0.675727 1.92907 0
M  V30 4315 C 396.257 -0.777762 1.75542 0
M  V30 4316 O 397.458 -1.20553 2.40251 0
M  V30 4317 C 395.729 1.0696 3.4102 0
M  V30 4318 S 397.288 0.871456 4.30059 0
M  V30 4319 H 394.106 0.247089 0.666684 0
M  V30 4320 H 396.708 1.27423 1.48269 0
M  V30 4321 H 395.412 2.12383 3.51172 0
M  V30 4322 H 394.943 0.462858 3.90668 0
M  V30 4323 H 396.958 -0.238436 4.95627 0
M  V30 4324 N 396.131 -1.37776 0.765217 0
M  V30 4325 C 397.547 -1.53297 0.444108 0
M  V30 4326 C 397.747 -1.72515 -1.04119 0
M  V30 4327 O 396.803 -1.74278 -1.82711 0
M  V30 4328 C 398.116 -2.73328 1.25349 0
M  V30 4329 C 399.664 -2.87185 1.24473 0
M  V30 4330 C 400.139 -4.10191 2.03733 0
M  V30 4331 N 401.63 -4.17291 2.01053 0
M  V30 4332 C 402.365 -5.11488 2.59166 0
M  V30 4333 N 401.861 -6.11285 3.26041 0
M  V30 4334 N 403.654 -5.03924 2.49032 0
M  V30 4335 H 395.805 -1.23552 1.72768 0
M  V30 4336 H 398.068 -0.601103 0.733062 0
M  V30 4337 H 397.774 -2.6557 2.30577 0
M  V30 4338 H 397.648 -3.66834 0.87823 0
M  V30 4339 H 400.035 -2.94418 0.20047 0
M  V30 4340 H 400.116 -1.94657 1.65959 0
M  V30 4341 H 399.76 -4.0372 3.08176 0
M  V30 4342 H 399.69 -5.01821 1.59633 0
M  V30 4343 H 402.181 -3.45825 1.5236 0
M  V30 4344 H 402.494 -6.79678 3.67774 0
M  V30 4345 H 400.839 -6.11583 3.30138 0
M  V30 4346 H 404.03 -4.24902 1.96407 0
M  V30 4347 H 404.203 -5.77152 2.94617 0
M  V30 4348 N 397.609 -0.515225 -1.4894 0
M  V30 4349 C 398.556 0.255567 -2.29381 0
M  V30 4350 C 399.526 0.947387 -1.36432 0
M  V30 4351 O 400.711 0.951288 -1.65394 0
M  V30 4352 C 397.851 1.30551 -3.19453 0
M  V30 4353 C 396.964 0.624029 -4.27469 0
M  V30 4354 C 396.099 1.65563 -5.0474 0
M  V30 4355 C 395.138 0.956802 -6.04576 0
M  V30 4356 N 394.275 1.93326 -6.74959 0
M  V30 4357 H 399.115 -0.436607 -2.94784 0
M  V30 4358 H 396.652 -0.227154 -1.45336 0
M  V30 4359 H 398.61 1.92639 -3.70062 0
M  V30 4360 H 397.24 1.96626 -2.56004 0
M  V30 4361 H 396.292 -0.110459 -3.8024 0
M  V30 4362 H 397.604 0.0746092 -4.98744 0
M  V30 4363 H 396.758 2.35119 -5.59289 0
M  V30 4364 H 395.497 2.23893 -4.3327 0
M  V30 4365 H 394.502 0.247097 -5.49244 0
M  V30 4366 H 395.727 0.379814 -6.78037 0
M  V30 4367 H 393.673 2.50591 -6.06251 0
M  V30 4368 H 393.59 1.43489 -7.42258 0
M  V30 4369 H 394.858 2.62126 -7.34105 0
M  V30 4370 N 399.087 1.5561 -0.249682 0
M  V30 4371 C 400.333 1.99306 0.374841 0
M  V30 4372 C 400.666 1.13767 1.57387 0
M  V30 4373 O 399.941 0.201711 1.93451 0
M  V30 4374 C 400.224 3.51507 0.781986 0
M  V30 4375 C 400.077 4.4781 -0.422629 0
M  V30 4376 C 401.396 4.08884 1.62793 0
M  V30 4377 H 398.515 0.724572 0.134773 0
M  V30 4378 H 401.157 1.86719 -0.351549 0
M  V30 4379 H 399.307 3.62363 1.4009 0
M  V30 4380 H 400.979 4.48931 -1.06108 0
M  V30 4381 H 399.222 4.20518 -1.06524 0
M  V30 4382 H 399.893 5.51919 -0.0943766 0
M  V30 4383 H 402.369 4.01147 1.10547 0
M  V30 4384 H 401.245 5.1564 1.88166 0
M  V30 4385 H 401.506 3.57515 2.60068 0
M  V30 4386 N 400.565 -0.0233959 1.57583 0
M  V30 4387 C 401.512 -1.02224 2.06927 0
M  V30 4388 C 402.482 -1.35575 0.959617 0
M  V30 4389 O 403.667 -1.45815 1.23055 0
M  V30 4390 C 400.807 -2.31636 2.5581 0
M  V30 4391 C 399.92 -2.04394 3.80588 0
M  V30 4392 C 399.055 -3.27717 4.18061 0
M  V30 4393 C 398.094 -2.96056 5.3574 0
M  V30 4394 N 397.231 -4.11847 5.68618 0
M  V30 4395 H 402.071 -0.594504 2.9201 0
M  V30 4396 H 399.608 -0.281921 1.44373 0
M  V30 4397 H 401.566 -3.07258 2.82221 0
M  V30 4398 H 400.196 -2.72122 1.73636 0
M  V30 4399 H 399.248 -1.19244 3.61227 0
M  V30 4400 H 400.56 -1.77042 4.66323 0
M  V30 4401 H 399.714 -4.11702 4.4563 0
M  V30 4402 H 398.453 -3.58188 3.30988 0
M  V30 4403 H 397.458 -2.10474 5.07918 0
M  V30 4404 H 398.683 -2.66857 6.24471 0
M  V30 4405 H 396.629 -4.42258 4.84504 0
M  V30 4406 H 396.546 -3.87938 6.48876 0
M  V30 4407 H 397.814 -4.96689 6.00766 0
M  V30 4408 N 402.043 -1.548 -0.295768 0
M  V30 4409 C 403.291 -1.73985 -1.02828 0
M  V30 4410 C 403.612 -0.531406 -1.87619 0
M  V30 4411 O 402.882 0.454221 -1.90561 0
M  V30 4412 H 401.462 -0.641556 -0.382642 0
M  V30 4413 H 404.124 -1.92163 -0.325489 0
M  V30 4414 H 403.22 -2.63129 -1.67838 0
M  V30 4415 N 403.521 0.559213 -1.47345 0
M  V30 4416 C 404.431 1.69388 -1.62311 0
M  V30 4417 C 405.447 1.6648 -0.505993 0
M  V30 4418 O 406.623 1.85964 -0.773262 0
M  V30 4419 C 403.688 3.05894 -1.63185 0
M  V30 4420 C 402.749 3.19885 -2.86307 0
M  V30 4421 C 401.982 4.49879 -2.87131 0
M  V30 4422 O 402.205 5.35217 -1.97229 0
M  V30 4423 O 401.139 4.67618 -3.78968 0
M  V30 4424 H 404.965 1.59706 -2.58317 0
M  V30 4425 H 402.55 0.728989 -1.30407 0
M  V30 4426 H 404.432 3.87133 -1.66451 0
M  V30 4427 H 403.107 3.15964 -0.70345 0
M  V30 4428 H 402.014 2.38052 -2.88587 0
M  V30 4429 H 403.347 3.14718 -3.78435 0
M  V30 4430 N 404.999 1.35443 0.805782 0
M  V30 4431 C 405.909 1.30546 1.94923 0
M  V30 4432 C 406.925 0.210233 1.72725 0
M  V30 4433 O 408.101 0.43975 1.9654 0
M  V30 4434 C 405.166 1.07782 3.29521 0
M  V30 4435 C 404.227 2.26625 3.64609 0
M  V30 4436 C 403.46 2.04938 4.92784 0
M  V30 4437 O 403.683 1.01624 5.61274 0
M  V30 4438 O 402.617 2.9232 5.26149 0
M  V30 4439 H 406.443 2.26779 2.02002 0
M  V30 4440 H 404.028 1.15823 0.943682 0
M  V30 4441 H 405.91 0.969392 4.10098 0
M  V30 4442 H 404.585 0.146003 3.23371 0
M  V30 4443 H 403.492 2.43033 2.84404 0
M  V30 4444 H 404.825 3.18257 3.75464 0
M  V30 4445 N 406.477 -1.02803 1.19454 0
M  V30 4446 C 407.724 -1.76217 0.997693 0
M  V30 4447 C 408.052 -1.887 -0.47144 0
M  V30 4448 O 407.307 -1.4011 -1.3663 0
M  V30 4449 C 407.606 -3.18941 1.6128 0
M  V30 4450 C 407.272 -3.26463 3.11019 0
M  V30 4451 C 405.934 -3.28223 3.51885 0
M  V30 4452 C 408.286 -3.25542 4.07028 0
M  V30 4453 C 405.614 -3.26719 4.8731 0
M  V30 4454 C 407.966 -3.25579 5.42385 0
M  V30 4455 C 406.63 -3.25637 5.82681 0
M  V30 4456 H 405.9 -0.644823 0.365082 0
M  V30 4457 H 408.547 -1.20655 1.4871 0
M  V30 4458 H 406.852 -3.77587 1.04572 0
M  V30 4459 H 408.549 -3.74415 1.43577 0
M  V30 4460 H 405.139 -3.25822 2.78457 0
M  V30 4461 H 409.323 -3.23362 3.76498 0
M  V30 4462 H 404.579 -3.25089 5.1781 0
M  V30 4463 H 408.753 -3.23817 6.16535 0
M  V30 4464 H 406.38 -3.24226 6.87591 0
M  V30 4465 N 407.956 -0.998596 -1.21925 0
M  V30 4466 C 408.903 -0.553621 -2.24062 0
M  V30 4467 C 409.873 0.416999 -1.6078 0
M  V30 4468 O 411.058 0.320482 -1.88089 0
M  V30 4469 C 408.198 0.119959 -3.44891 0
M  V30 4470 C 407.311 -0.893077 -4.22668 0
M  V30 4471 C 406.446 -0.192424 -5.30851 0
M  V30 4472 C 405.485 -1.19344 -6.00353 0
M  V30 4473 N 404.622 -0.520707 -7.00166 0
M  V30 4474 H 409.462 -1.4293 -2.61486 0
M  V30 4475 H 406.999 -0.715838 -1.28507 0
M  V30 4476 H 408.957 0.527459 -4.13852 0
M  V30 4477 H 407.587 0.959389 -3.08214 0
M  V30 4478 H 406.639 -1.41886 -3.52948 0
M  V30 4479 H 407.951 -1.65512 -4.70539 0
M  V30 4480 H 407.105 0.271515 -6.06092 0
M  V30 4481 H 405.844 0.602075 -4.83969 0
M  V30 4482 H 404.849 -1.66795 -5.23889 0
M  V30 4483 H 406.074 -1.98891 -6.49322 0
M  V30 4484 H 404.02 0.254252 -6.55507 0
M  V30 4485 H 403.937 -1.2211 -7.46073 0
M  V30 4486 H 405.205 -0.0797596 -7.79459 0
M  V30 4487 N 409.434 1.37368 -0.772513 0
M  V30 4488 C 410.381 2.30262 -0.157488 0
M  V30 4489 C 411.351 1.51137 0.688965 0
M  V30 4490 O 412.536 1.79704 0.641168 0
M  V30 4491 C 409.676 3.37611 0.715045 0
M  V30 4492 C 408.789 4.31746 -0.148098 0
M  V30 4493 C 407.924 5.26171 0.729213 0
M  V30 4494 C 406.963 6.11948 -0.136418 0
M  V30 4495 N 406.1 6.98613 0.698914 0
M  V30 4496 H 410.94 2.82277 -0.955179 0
M  V30 4497 H 408.477 1.38957 -0.482631 0
M  V30 4498 H 410.435 3.98479 1.23575 0
M  V30 4499 H 409.065 2.86959 1.47833 0
M  V30 4500 H 408.117 3.72178 -0.786613 0
M  V30 4501 H 409.429 4.92084 -0.81579 0
M  V30 4502 H 408.583 5.92247 1.31637 0
M  V30 4503 H 407.322 4.66246 1.43059 0
M  V30 4504 H 406.327 5.4485 -0.736102 0
M  V30 4505 H 407.552 6.73945 -0.835134 0
M  V30 4506 H 405.498 6.41215 1.38489 0
M  V30 4507 H 405.415 7.55948 0.0885358 0
M  V30 4508 H 406.683 7.69077 1.27044 0
M  V30 4509 N 410.912 0.523116 1.48665 0
M  V30 4510 C 411.842 -0.23231 2.32342 0
M  V30 4511 C 412.823 -0.941637 1.41659 0
M  V30 4512 O 414.008 -0.928751 1.70552 0
M  V30 4513 C 411.138 -1.28387 3.22698 0
M  V30 4514 C 410.092 -0.693098 4.22351 0
M  V30 4515 C 409.418 -1.8468 5.01794 0
M  V30 4516 C 410.718 0.33063 5.21252 0
M  V30 4517 H 412.412 0.466192 2.95748 0
M  V30 4518 H 409.958 0.225643 1.42221 0
M  V30 4519 H 411.911 -1.82024 3.80059 0
M  V30 4520 H 410.635 -2.01186 2.57278 0
M  V30 4521 H 409.294 -0.178299 3.66166 0
M  V30 4522 H 408.942 -2.56301 4.32804 0
M  V30 4523 H 408.642 -1.45747 5.69238 0
M  V30 4524 H 410.166 -2.38709 5.62006 0
M  V30 4525 H 411.58 -0.118407 5.73178 0
M  V30 4526 H 409.977 0.636974 5.9671 0
M  V30 4527 H 411.047 1.23883 4.68808 0
M  V30 4528 N 412.39 -1.55475 0.257931 0
M  V30 4529 C 413.323 -2.179 -0.677862 0
M  V30 4530 C 414.301 -1.13448 -1.16483 0
M  V30 4531 O 415.485 -1.41889 -1.24095 0
M  V30 4532 C 412.612 -2.78851 -1.92249 0
M  V30 4533 C 411.658 -3.96454 -1.57246 0
M  V30 4534 S 412.491 -5.31349 -0.665501 0
M  V30 4535 C 413.647 -5.9576 -1.91889 0
M  V30 4536 H 413.88 -2.96934 -0.147396 0
M  V30 4537 H 411.413 -1.54342 0.0423023 0
M  V30 4538 H 413.371 -3.14602 -2.63697 0
M  V30 4539 H 412.032 -1.99742 -2.42409 0
M  V30 4540 H 411.225 -4.37731 -2.49814 0
M  V30 4541 H 410.827 -3.62038 -0.938325 0
M  V30 4542 H 413.119 -6.13947 -2.86487 0
M  V30 4543 H 414.062 -6.9094 -1.54942 0
M  V30 4544 H 414.47 -5.2494 -2.076 0
M  V30 4545 N 413.868 0.0150385 -1.57593 0
M  V30 4546 C 415.145 0.7392 -1.81094 0
M  V30 4547 C 415.525 1.92817 -0.859344 0
M  V30 4548 O 414.873 2.28301 0.095362 0
M  V30 4549 C 415.083 1.15907 -3.29191 0
M  V30 4550 C 416.431 1.56918 -3.9454 0
M  V30 4551 O 417.455 1.25328 -3.33424 0
M  V30 4552 O 416.314 2.15604 -5.02173 0
M  V30 4553 H 413.408 0.358631 -0.745193 0
M  V30 4554 H 415.954 -0.00926156 -1.69697 0
M  V30 4555 H 414.726 0.310921 -3.90063 0
M  V30 4556 H 414.349 1.96711 -3.45529 0
M  V30 4557 N 415.346 1.54954 0.287554 0
M  V30 4558 C 416.279 1.81737 1.3801 0
M  V30 4559 C 417.257 0.669412 1.48181 0
M  V30 4560 O 418.441 0.910839 1.65033 0
M  V30 4561 C 415.568 1.96606 2.75796 0
M  V30 4562 C 414.614 3.19098 2.82982 0
M  V30 4563 S 415.447 4.7683 2.43707 0
M  V30 4564 C 416.603 4.94653 3.83496 0
M  V30 4565 H 416.836 2.74122 1.15085 0
M  V30 4566 H 414.369 1.46538 0.486403 0
M  V30 4567 H 416.327 2.05858 3.55152 0
M  V30 4568 H 414.988 1.05136 2.95982 0
M  V30 4569 H 414.181 3.26344 3.84077 0
M  V30 4570 H 413.783 3.08361 2.11635 0
M  V30 4571 H 416.075 4.79502 4.78628 0
M  V30 4572 H 417.018 5.96728 3.8121 0
M  V30 4573 H 417.426 4.2272 3.74123 0
M  V30 4574 N 416.824 -0.551391 1.4764 0
M  V30 4575 C 417.734 -1.68525 1.63207 0
M  V30 4576 C 418.75 -1.6621 0.514815 0
M  V30 4577 O 419.926 -1.85551 0.783113 0
M  V30 4578 C 416.991 -3.05025 1.64805 0
M  V30 4579 C 416.052 -3.18362 2.88 0
M  V30 4580 C 415.285 -4.4835 2.89513 0
M  V30 4581 O 415.508 -5.34163 2.00065 0
M  V30 4582 O 414.442 -4.65602 3.81443 0
M  V30 4583 H 418.268 -1.58333 2.59161 0
M  V30 4584 H 415.853 -0.722063 1.30792 0
M  V30 4585 H 417.735 -3.86245 1.68502 0
M  V30 4586 H 416.41 -3.15587 0.720197 0
M  V30 4587 H 415.317 -2.36518 2.89845 0
M  V30 4588 H 416.65 -3.12707 3.80099 0
M  V30 4589 N 418.302 -1.35869 -0.798587 0
M  V30 4590 C 419.232 -1.32118 -1.92528 0
M  V30 4591 C 420.213 -0.194209 -1.68988 0
M  V30 4592 O 421.398 -0.390426 -1.90235 0
M  V30 4593 C 418.528 -1.10047 -3.29404 0
M  V30 4594 C 417.482 -2.19471 -3.67446 0
M  V30 4595 C 416.808 -1.82555 -5.02571 0
M  V30 4596 C 418.108 -3.61495 -3.76987 0
M  V30 4597 H 419.802 -2.26394 -1.95924 0
M  V30 4598 H 417.348 -1.08981 -0.94123 0
M  V30 4599 H 419.301 -1.06061 -4.07835 0
M  V30 4600 H 418.025 -0.122195 -3.26371 0
M  V30 4601 H 416.684 -2.22568 -2.91306 0
M  V30 4602 H 416.332 -0.833249 -4.9605 0
M  V30 4603 H 416.032 -2.5581 -5.28995 0
M  V30 4604 H 417.556 -1.80108 -5.83432 0
M  V30 4605 H 418.97 -3.60676 -4.4563 0
M  V30 4606 H 417.367 -4.33577 -4.14887 0
M  V30 4607 H 418.437 -3.97065 -2.78329 0
M  V30 4608 N 419.78 1.02168 -1.19998 0
M  V30 4609 C 420.727 2.10601 -0.944228 0
M  V30 4610 C 421.697 1.65639 0.123664 0
M  V30 4611 O 422.882 1.9079 -0.0199941 0
M  V30 4612 C 420.022 3.41504 -0.496865 0
M  V30 4613 C 419.135 3.99973 -1.63234 0
M  V30 4614 C 418.27 5.18915 -1.13579 0
M  V30 4615 C 417.309 5.69456 -2.24468 0
M  V30 4616 N 416.446 6.79665 -1.76068 0
M  V30 4617 H 421.286 2.31814 -1.8726 0
M  V30 4618 H 418.823 1.13686 -0.933483 0
M  V30 4619 H 420.781 4.16626 -0.218843 0
M  V30 4620 H 419.411 3.2038 0.394508 0
M  V30 4621 H 418.463 3.21997 -2.0254 0
M  V30 4622 H 419.775 4.33492 -2.46752 0
M  V30 4623 H 418.929 6.01222 -0.813429 0
M  V30 4624 H 417.668 4.8695 -0.270434 0
M  V30 4625 H 416.673 4.85757 -2.57526 0
M  V30 4626 H 417.898 6.03459 -3.11472 0
M  V30 4627 H 415.844 6.49538 -0.918516 0
M  V30 4628 H 415.761 7.12349 -2.5317 0
M  V30 4629 H 417.029 7.65549 -1.46817 0
M  V30 4630 N 421.258 1.00505 1.21394 0
M  V30 4631 C 422.208 0.536503 2.21598 0
M  V30 4632 C 423.192 -0.401914 1.55799 0
M  V30 4633 O 424.384 -0.226757 1.75541 0
M  V30 4634 C 421.513 -0.135446 3.43033 0
M  V30 4635 C 420.599 0.823992 4.16018 0
M  V30 4636 N 420.99 1.97683 4.6557 0
M  V30 4637 C 419.288 0.642387 4.4135 0
M  V30 4638 C 419.989 2.58003 5.21354 0
M  V30 4639 N 418.965 1.86162 5.1073 0
M  V30 4640 H 422.767 1.41557 2.57563 0
M  V30 4641 H 420.281 0.868878 1.37202 0
M  V30 4642 H 422.278 -0.488584 4.14027 0
M  V30 4643 H 420.938 -1.01049 3.08576 0
M  V30 4644 H 421.949 2.3572 4.61147 0
M  V30 4645 H 418.626 -0.185578 4.17087 0
M  V30 4646 H 420.016 3.555 5.70149 0
M  V30 4647 N 422.737 -1.36956 0.779787 0
M  V30 4648 C 423.685 -2.32053 0.15942 0
M  V30 4649 C 424.679 -1.55333 -0.675878 0
M  V30 4650 O 425.885 -1.70668 -0.57204 0
M  V30 4651 H 422.26 -0.751286 0.0327707 0
M  V30 4652 H 424.231 -2.8195 0.977078 0
M  V30 4653 C 422.98 -3.40602 -0.698977 0
M  V30 4654 H 422.303 -3.99746 -0.0655966 0
M  V30 4655 H 423.743 -4.09486 -1.09989 0
M  V30 4656 C 422.202 -2.81359 -1.85307 0
M  V30 4657 O 422.732 -2.72751 -2.94906 0
M  V30 4658 N 420.938 -2.38786 -1.65619 0
M  V30 4659 H 420.485 -2.45987 -0.764725 0
M  V30 4660 H 420.443 -1.99493 -2.43002 0
M  V30 4661 N 424.215 -0.530993 -1.48385 0
M  V30 4662 C 425.165 0.251092 -2.26613 0
M  V30 4663 C 426.149 0.908977 -1.32765 0
M  V30 4664 O 427.341 0.811616 -1.57295 0
M  V30 4665 C 424.47 1.29677 -3.17866 0
M  V30 4666 C 423.556 0.643627 -4.19188 0
M  V30 4667 N 423.947 -0.271223 -5.05072 0
M  V30 4668 C 422.245 0.900711 -4.3681 0
M  V30 4669 C 422.946 -0.648109 -5.78078 0
M  V30 4670 N 421.922 -0.00895987 -5.43599 0
M  V30 4671 H 425.724 -0.452702 -2.90393 0
M  V30 4672 H 423.238 -0.349091 -1.58604 0
M  V30 4673 H 425.235 1.87079 -3.72568 0
M  V30 4674 H 423.895 2.00193 -2.55642 0
M  V30 4675 H 424.906 -0.643883 -5.13882 0
M  V30 4676 H 421.583 1.59636 -3.85775 0
M  V30 4677 H 422.973 -1.39833 -6.57188 0
M  V30 4678 N 425.693 1.55336 -0.266172 0
M  V30 4679 C 426.942 1.98574 0.353749 0
M  V30 4680 C 427.255 1.15789 1.57646 0
M  V30 4681 O 428.461 1.49129 2.26876 0
M  V30 4682 C 426.917 3.53403 0.680747 0
M  V30 4683 C 426.525 4.44953 -0.52165 0
M  V30 4684 C 428.269 4.05251 1.26379 0
M  V30 4685 C 426.176 5.91156 -0.169736 0
M  V30 4686 H 425.106 0.741643 0.135949 0
M  V30 4687 H 427.757 1.79743 -0.369421 0
M  V30 4688 H 426.139 3.68001 1.46257 0
M  V30 4689 H 427.313 4.42121 -1.29869 0
M  V30 4690 H 425.628 4.03691 -1.02093 0
M  V30 4691 H 428.225 5.12021 1.54074 0
M  V30 4692 H 428.568 3.53749 2.19471 0
M  V30 4693 H 429.101 3.94057 0.544447 0
M  V30 4694 H 425.84 6.46736 -1.0683 0
M  V30 4695 H 425.36 5.97079 0.570717 0
M  V30 4696 H 427.039 6.4655 0.241245 0
M  V30 4697 N 427.171 -0.0066808 1.57599 0
M  V30 4698 C 428.417 -0.693947 1.90558 0
M  V30 4699 C 428.75 -1.73792 0.866594 0
M  V30 4700 O 428.025 -1.94156 -0.115548 0
M  V30 4701 C 428.308 -1.34317 3.34112 0
M  V30 4702 C 428.161 -0.311189 4.48722 0
M  V30 4703 C 429.48 -2.27116 3.7697 0
M  V30 4704 H 426.599 -0.250803 0.693013 0
M  V30 4705 H 429.241 0.043242 1.89951 0
M  V30 4706 H 427.391 -1.9715 3.3476 0
M  V30 4707 H 429.063 0.316944 4.6021 0
M  V30 4708 H 427.306 0.367253 4.32243 0
M  V30 4709 H 427.977 -0.804366 5.46108 0
M  V30 4710 H 430.453 -1.74306 3.77831 0
M  V30 4711 H 429.329 -2.69511 4.78179 0
M  V30 4712 H 429.59 -3.14743 3.10466 0
M  V30 4713 N 428.649 -1.55105 -0.279332 0
M  V30 4714 C 429.559 -1.90638 -1.36727 0
M  V30 4715 C 430.575 -0.802899 -1.54368 0
M  V30 4716 O 431.751 -1.10138 -1.68616 0
M  V30 4717 C 428.816 -2.16547 -2.70755 0
M  V30 4718 C 427.877 -3.40146 -2.61915 0
M  V30 4719 C 427.11 -3.6481 -3.8955 0
M  V30 4720 O 427.333 -2.92095 -4.89935 0
M  V30 4721 O 426.267 -4.58343 -3.90135 0
M  V30 4722 H 430.093 -2.83237 -1.09591 0
M  V30 4723 H 427.678 -1.4157 -0.477306 0
M  V30 4724 H 429.56 -2.34665 -3.50014 0
M  V30 4725 H 428.235 -1.27131 -2.9769 0
M  V30 4726 H 427.142 -3.2737 -1.81052 0
M  V30 4727 H 428.475 -4.29761 -2.3993 0
M  V30 4728 N 430.127 0.543554 -1.4793 0
M  V30 4729 C 431.543 0.870806 -1.3375 0
M  V30 4730 C 431.743 1.9864 -0.338261 0
M  V30 4731 O 430.799 2.51305 0.245371 0
M  V30 4732 C 432.112 1.25114 -2.73435 0
M  V30 4733 C 433.66 1.3618 -2.81823 0
M  V30 4734 C 434.135 1.77563 -4.22179 0
M  V30 4735 N 435.626 1.8469 -4.24787 0
M  V30 4736 C 436.361 2.18067 -5.30315 0
M  V30 4737 N 435.857 2.49963 -6.46135 0
M  V30 4738 N 437.65 2.18958 -5.17701 0
M  V30 4739 H 429.801 -0.19275 -2.11524 0
M  V30 4740 H 432.064 -0.0235777 -0.947707 0
M  V30 4741 H 431.77 0.50514 -3.48053 0
M  V30 4742 H 431.644 2.20431 -3.06088 0
M  V30 4743 H 434.031 2.09859 -2.07468 0
M  V30 4744 H 434.112 0.390169 -2.52807 0
M  V30 4745 H 433.756 1.04449 -4.97044 0
M  V30 4746 H 433.686 2.75753 -4.48629 0
M  V30 4747 H 436.177 1.62372 -3.41239 0
M  V30 4748 H 436.49 2.74497 -7.22406 0
M  V30 4749 H 434.835 2.47513 -6.49432 0
M  V30 4750 H 438.026 1.93488 -4.2624 0
M  V30 4751 H 438.199 2.44639 -6.00047 0
M  V30 4752 N 431.605 1.3629 0.791371 0
M  V30 4753 C 432.852 1.30412 1.54916 0
M  V30 4754 C 433.18 -0.117162 1.94147 0
M  V30 4755 O 432.435 -1.08599 1.62803 0
M  V30 4756 C 432.734 2.17068 2.8393 0
M  V30 4757 C 432.4 3.65645 2.63846 0
M  V30 4758 C 431.062 4.0614 2.58077 0
M  V30 4759 C 433.414 4.59855 2.45322 0
M  V30 4760 C 430.742 5.3899 2.31748 0
M  V30 4761 C 433.094 5.9292 2.2052 0
M  V30 4762 C 431.758 6.32542 2.13183 0
M  V30 4763 H 431.028 0.47721 0.566879 0
M  V30 4764 H 433.675 1.68325 0.913172 0
M  V30 4765 H 431.98 1.72085 3.51986 0
M  V30 4766 H 433.677 2.09846 3.4171 0
M  V30 4767 H 430.267 3.33518 2.69191 0
M  V30 4768 H 434.451 4.29443 2.48782 0
M  V30 4769 H 429.707 5.68672 2.24548 0
M  V30 4770 H 433.881 6.65487 2.05182 0
M  V30 4771 H 431.508 7.35412 1.92544 0
M  V30 4772 N 433.083 -1.0153 1.20538 0
M  V30 4773 C 434.36 -1.72327 0.925343 0
M  V30 4774 C 434.74 -2.03383 -0.565547 0
M  V30 4775 O 434.088 -1.69934 -1.52757 0
M  V30 4776 C 434.298 -2.9902 1.79967 0
M  V30 4777 C 435.646 -3.72258 2.04228 0
M  V30 4778 O 436.67 -3.08979 1.77231 0
M  V30 4779 O 435.529 -4.86053 2.4983 0
M  V30 4780 H 432.623 -0.751099 0.346092 0
M  V30 4781 H 435.169 -1.07366 1.31417 0
M  V30 4782 H 433.941 -2.72402 2.80915 0
M  V30 4783 H 433.564 -3.71721 1.41099 0
M  V30 4784 N 434.561 -1.01147 -1.20859 0
M  V30 4785 C 435.508 -0.577354 -2.23462 0
M  V30 4786 C 436.478 0.399922 -1.61214 0
M  V30 4787 O 437.663 0.300515 -1.88419 0
M  V30 4788 C 434.803 0.083372 -3.44999 0
M  V30 4789 C 433.916 -0.937856 -4.21697 0
M  V30 4790 C 433.051 -0.248717 -5.30617 0
M  V30 4791 C 432.09 -1.25705 -5.99053 0
M  V30 4792 N 431.227 -0.594939 -6.99575 0
M  V30 4793 H 436.067 -1.45695 -2.59956 0
M  V30 4794 H 433.604 -0.729428 -1.27741 0
M  V30 4795 H 435.562 0.483535 -4.14388 0
M  V30 4796 H 434.192 0.926645 -3.09214 0
M  V30 4797 H 433.244 -1.45622 -3.51423 0
M  V30 4798 H 434.556 -1.70493 -4.68757 0
M  V30 4799 H 433.71 0.207215 -6.06346 0
M  V30 4800 H 432.449 0.55071 -4.84581 0
M  V30 4801 H 431.454 -1.72343 -5.2209 0
M  V30 4802 H 432.679 -2.05767 -6.47176 0
M  V30 4803 H 430.625 0.184713 -6.5574 0
M  V30 4804 H 430.542 -1.30017 -7.44736 0
M  V30 4805 H 431.81 -0.162427 -7.79331 0
M  V30 4806 N 436.039 1.36541 -0.78704 0
M  V30 4807 C 437.269 2.03266 -0.369662 0
M  V30 4808 C 437.677 1.59481 1.01796 0
M  V30 4809 O 437.02 0.778612 1.66383 0
M  V30 4810 C 437.082 3.57779 -0.351371 0
M  V30 4811 C 436.746 4.24756 -1.68617 0
M  V30 4812 C 437.743 4.47811 -2.64124 0
M  V30 4813 C 435.428 4.62277 -1.96481 0
M  V30 4814 C 437.422 5.07464 -3.85693 0
M  V30 4815 C 435.109 5.21649 -3.18317 0
M  V30 4816 C 436.107 5.44182 -4.12741 0
M  V30 4817 O 435.795 6.02307 -5.32429 0
M  V30 4818 H 435.527 0.658977 -0.150751 0
M  V30 4819 H 438.081 1.75548 -1.0664 0
M  V30 4820 H 436.311 3.84606 0.401847 0
M  V30 4821 H 438 4.05879 0.0410147 0
M  V30 4822 H 438.766 4.19221 -2.43883 0
M  V30 4823 H 434.645 4.44065 -1.23805 0
M  V30 4824 H 438.189 5.24968 -4.59407 0
M  V30 4825 H 434.086 5.49664 -3.38437 0
M  V30 4826 H 434.854 6.20775 -5.33461 0
M  V30 4827 N 437.518 0.538854 1.48102 0
M  V30 4828 C 438.767 0.0059532 2.01699 0
M  V30 4829 C 439.08 -1.34476 1.42041 0
M  V30 4830 O 440.286 -1.96653 1.87189 0
M  V30 4831 C 438.742 -0.0397627 3.59878 0
M  V30 4832 C 438.35 1.30659 4.28523 0
M  V30 4833 C 440.094 -0.521024 4.2129 0
M  V30 4834 C 438.001 1.22098 5.78659 0
M  V30 4835 H 436.931 -0.00154456 0.753998 0
M  V30 4836 H 439.582 0.683963 1.70277 0
M  V30 4837 H 437.964 -0.783037 3.88181 0
M  V30 4838 H 439.138 2.06613 4.11883 0
M  V30 4839 H 437.453 1.7243 3.79021 0
M  V30 4840 H 440.05 -0.603184 5.31287 0
M  V30 4841 H 440.393 -1.52885 3.8721 0
M  V30 4842 H 440.926 0.166834 3.9745 0
M  V30 4843 H 437.665 2.20424 6.17328 0
M  V30 4844 H 437.185 0.50295 5.97688 0
M  V30 4845 H 438.864 0.915345 6.40492 0
M  V30 4846 N 438.996 -1.55193 0.274407 0
M  V30 4847 C 440.245 -1.98758 -0.343213 0
M  V30 4848 C 440.558 -1.16624 -1.5703 0
M  V30 4849 O 441.764 -1.5033 -2.26082 0
M  V30 4850 C 440.22 -3.53759 -0.661996 0
M  V30 4851 C 439.828 -4.4467 0.54524 0
M  V30 4852 C 441.572 -4.05916 -1.24228 0
M  V30 4853 C 439.479 -5.91058 0.201084 0
M  V30 4854 H 438.409 -0.742353 -0.132014 0
M  V30 4855 H 441.06 -1.79545 0.378948 0
M  V30 4856 H 439.442 -3.68772 -1.44304 0
M  V30 4857 H 440.616 -4.41426 1.32212 0
M  V30 4858 H 438.931 -4.03143 1.04232 0
M  V30 4859 H 441.528 -5.12831 -1.51357 0
M  V30 4860 H 441.871 -3.54908 -2.17592 0
M  V30 4861 H 442.404 -3.9434 -0.523542 0
M  V30 4862 H 439.143 -6.46161 1.10258 0
M  V30 4863 H 438.663 -5.97373 -0.539045 0
M  V30 4864 H 440.342 -6.46669 -0.206954 0
M  V30 4865 N 440.474 -0.00167713 -1.576 0
M  V30 4866 C 441.699 0.69739 -1.95323 0
M  V30 4867 C 442.124 1.6642 -0.876706 0
M  V30 4868 O 441.482 1.80548 0.165007 0
M  V30 4869 C 441.53 1.40403 -3.32144 0
M  V30 4870 O 440.634 2.5185 -3.26566 0
M  V30 4871 H 439.975 0.185373 -0.637599 0
M  V30 4872 H 442.505 -0.0553665 -2.04525 0
M  V30 4873 H 442.515 1.76707 -3.67748 0
M  V30 4874 H 441.19 0.695167 -4.10049 0
M  V30 4875 H 439.767 2.17861 -3.0264 0
M  V30 4876 N 441.952 1.55251 0.271103 0
M  V30 4877 C 443.229 1.66664 1.02384 0
M  V30 4878 C 443.609 0.534363 2.04225 0
M  V30 4879 O 442.957 -0.465337 2.23712 0
M  V30 4880 C 443.167 3.05961 1.67895 0
M  V30 4881 C 444.515 3.63772 2.18986 0
M  V30 4882 O 445.539 3.08606 1.77878 0
M  V30 4883 O 444.398 4.60429 2.94393 0
M  V30 4884 H 441.492 0.676957 0.475035 0
M  V30 4885 H 444.038 1.67589 0.26681 0
M  V30 4886 H 442.81 3.79815 0.941071 0
M  V30 4887 H 442.433 3.08943 2.5028 0
M  V30 4888 N 443.43 -0.535701 1.48216 0
M  V30 4889 C 444.707 -1.29683 1.46429 0
M  V30 4890 C 445.087 -2.10391 0.172852 0
M  V30 4891 O 444.435 -2.12282 -0.845488 0
M  V30 4892 C 444.645 -2.18313 2.72287 0
M  V30 4893 C 445.993 -2.78639 3.20383 0
M  V30 4894 O 447.017 -2.28604 2.73164 0
M  V30 4895 O 445.876 -3.69636 4.02531 0
M  V30 4896 H 442.97 -0.585026 0.584529 0
M  V30 4897 H 445.516 -0.552827 1.60443 0
M  V30 4898 H 444.288 -1.58421 3.57797 0
M  V30 4899 H 443.911 -2.99971 2.60966 0
M  V30 4900 N 444.908 -1.36708 -0.784132 0
M  V30 4901 C 445.838 -1.34153 -1.91116 0
M  V30 4902 C 446.819 -0.212121 -1.68772 0
M  V30 4903 O 448.004 -0.410581 -1.8981 0
M  V30 4904 C 445.134 -1.13535 -3.28218 0
M  V30 4905 C 444.088 -2.23356 -3.65097 0
M  V30 4906 C 443.414 -1.87875 -5.00607 0
M  V30 4907 C 444.714 -3.65473 -3.73131 0
M  V30 4908 H 446.408 -2.28459 -1.93512 0
M  V30 4909 H 443.954 -1.09973 -0.929618 0
M  V30 4910 H 445.907 -1.10381 -4.06687 0
M  V30 4911 H 444.631 -0.156804 -3.26223 0
M  V30 4912 H 443.29 -2.25645 -2.88929 0
M  V30 4913 H 442.938 -0.885814 -4.95139 0
M  V30 4914 H 442.638 -2.61406 -5.26252 0
M  V30 4915 H 444.162 -1.86286 -5.81489 0
M  V30 4916 H 445.576 -3.65382 -4.41779 0
M  V30 4917 H 443.973 -4.37953 -4.10265 0
M  V30 4918 H 445.043 -3.99995 -2.74102 0
M  V30 4919 N 446.386 1.0089 -1.21074 0
M  V30 4920 C 447.616 1.77933 -1.04993 0
M  V30 4921 C 448.024 1.84847 0.403495 0
M  V30 4922 O 447.367 1.30606 1.29181 0
M  V30 4923 C 447.429 3.23541 -1.56722 0
M  V30 4924 C 447.093 3.40214 -3.05129 0
M  V30 4925 C 448.09 3.2881 -4.02716 0
M  V30 4926 C 445.775 3.65781 -3.44252 0
M  V30 4927 C 447.769 3.42732 -5.37414 0
M  V30 4928 C 445.456 3.79346 -4.79103 0
M  V30 4929 C 446.454 3.67827 -5.75493 0
M  V30 4930 O 446.142 3.80965 -7.07899 0
M  V30 4931 H 445.874 0.566157 -0.369381 0
M  V30 4932 H 448.428 1.27826 -1.60779 0
M  V30 4933 H 446.658 3.74766 -0.953285 0
M  V30 4934 H 448.347 3.82245 -1.36543 0
M  V30 4935 H 449.113 3.08986 -3.73835 0
M  V30 4936 H 444.992 3.73831 -2.69762 0
M  V30 4937 H 448.536 3.33658 -6.12632 0
M  V30 4938 H 444.433 3.98672 -5.07672 0
M  V30 4939 H 445.201 3.97937 -7.15254 0
M  V30 4940 N 447.864 1.01787 1.20321 0
M  V30 4941 C 449.094 0.72614 1.93419 0
M  V30 4942 C 449.502 -0.717317 1.75075 0
M  V30 4943 O 448.845 -1.49836 1.06278 0
M  V30 4944 C 448.907 0.983621 3.45782 0
M  V30 4945 C 448.571 2.41645 3.87888 0
M  V30 4946 C 449.568 3.39732 3.93545 0
M  V30 4947 C 447.253 2.75752 4.19841 0
M  V30 4948 C 449.247 4.69988 4.30569 0
M  V30 4949 C 446.934 4.06221 4.56539 0
M  V30 4950 C 447.932 5.0315 4.61876 0
M  V30 4951 O 447.62 6.31284 4.97731 0
M  V30 4952 H 447.352 0.265824 0.621541 0
M  V30 4953 H 449.906 1.3623 1.53722 0
M  V30 4954 H 448.136 0.290301 3.85609 0
M  V30 4955 H 449.825 0.683279 4.00108 0
M  V30 4956 H 450.591 3.14718 3.69022 0
M  V30 4957 H 446.47 2.00993 4.14877 0
M  V30 4958 H 450.014 5.45642 4.3465 0
M  V30 4959 H 445.911 4.31013 4.80518 0
M  V30 4960 H 446.679 6.35591 5.15719 0
M  V30 4961 N 449.342 -1.36122 0.79427 0
M  V30 4962 C 450.588 -1.99406 0.369452 0
M  V30 4963 C 450.921 -1.62886 -1.05743 0
M  V30 4964 O 450.196 -0.886053 -1.73145 0
M  V30 4965 C 450.479 -3.56046 0.538833 0
M  V30 4966 C 450.332 -4.02404 2.00976 0
M  V30 4967 C 451.651 -4.40079 -0.0431359 0
M  V30 4968 H 448.77 -0.724397 0.135712 0
M  V30 4969 H 451.412 -1.61461 1.00151 0
M  V30 4970 H 449.562 -3.885 0.000771004 0
M  V30 4971 H 451.234 -3.80415 2.60926 0
M  V30 4972 H 449.477 -3.53765 2.51063 0
M  V30 4973 H 450.148 -5.11344 2.07922 0
M  V30 4974 H 452.624 -4.14013 0.416228 0
M  V30 4975 H 451.5 -5.48799 0.105374 0
M  V30 4976 H 451.761 -4.27264 -1.13571 0
M  V30 4977 N 450.82 -0.546701 -1.47814 0
M  V30 4978 C 451.768 0.220048 -2.31557 0
M  V30 4979 C 452.762 0.919472 -1.42275 0
M  V30 4980 O 453.968 0.841953 -1.59095 0
M  V30 4981 H 450.343 0.0898334 -0.746615 0
M  V30 4982 H 452.314 -0.505589 -2.94086 0
M  V30 4983 C 451.063 1.24353 -3.24702 0
M  V30 4984 H 450.386 0.714758 -3.93359 0
M  V30 4985 H 451.826 1.75112 -3.8615 0
M  V30 4986 C 450.285 2.28593 -2.47481 0
M  V30 4987 O 450.815 3.35334 -2.21165 0
M  V30 4988 N 449.021 2.02244 -2.08676 0
M  V30 4989 H 448.568 1.15455 -2.30278 0
M  V30 4990 H 448.526 2.72207 -1.57323 0
M  V30 4991 N 452.299 1.55045 -0.282633 0
M  V30 4992 C 453.232 2.18951 0.64311 0
M  V30 4993 C 454.21 1.15287 1.14664 0
M  V30 4994 O 455.394 1.43846 1.21822 0
M  V30 4995 C 452.521 2.81874 1.87789 0
M  V30 4996 C 451.567 3.98906 1.50919 0
M  V30 4997 S 452.4 5.3234 0.580884 0
M  V30 4998 C 453.556 5.98737 1.82387 0
M  V30 4999 H 453.789 2.97131 0.100138 0
M  V30 5000 H 451.322 1.54255 -0.0668514 0
M  V30 5001 H 453.28 3.18757 2.58658 0
M  V30 5002 H 451.941 2.03573 2.392 0
M  V30 5003 H 451.134 4.4165 2.42819 0
M  V30 5004 H 450.736 3.63485 0.88061 0
M  V30 5005 H 453.028 6.18427 2.76684 0
M  V30 5006 H 453.971 6.93318 1.4393 0
M  V30 5007 H 454.379 5.28177 1.99223 0
M  V30 5008 N 453.777 0.010035 1.57597 0
M  V30 5009 C 454.724 -0.978122 2.09049 0
M  V30 5010 C 455.694 -1.33509 0.988159 0
M  V30 5011 O 456.879 -1.43172 1.26121 0
M  V30 5012 C 454.019 -2.26158 2.60666 0
M  V30 5013 C 453.132 -1.96275 3.84838 0
M  V30 5014 C 452.267 -3.18776 4.24918 0
M  V30 5015 C 451.306 -2.84625 5.41899 0
M  V30 5016 N 450.443 -3.99693 5.77226 0
M  V30 5017 H 455.283 -0.532431 2.93205 0
M  V30 5018 H 452.82 -0.251234 1.44939 0
M  V30 5019 H 454.778 -3.01202 2.88675 0
M  V30 5020 H 453.408 -2.68378 1.79369 0
M  V30 5021 H 452.46 -1.11555 3.63675 0
M  V30 5022 H 453.772 -1.67111 4.69974 0
M  V30 5023 H 452.926 -4.02157 4.54262 0
M  V30 5024 H 451.665 -3.51087 3.38511 0
M  V30 5025 H 450.67 -1.99653 5.12268 0
M  V30 5026 H 451.895 -2.53551 6.29991 0
M  V30 5027 H 449.841 -4.31882 4.93776 0
M  V30 5028 H 449.758 -3.74087 6.56959 0
M  V30 5029 H 451.026 -4.83834 6.11167 0
M  V30 5030 N 455.255 -1.55392 -0.262866 0
M  V30 5031 C 456.501 -1.76737 -0.99458 0
M  V30 5032 C 456.834 -0.572453 -1.85571 0
M  V30 5033 O 456.109 0.429732 -1.89693 0
M  V30 5034 C 456.392 -3.07824 -1.8686 0
M  V30 5035 C 456.245 -4.3769 -1.03672 0
M  V30 5036 C 457.564 -3.35021 -2.85393 0
M  V30 5037 H 454.683 -0.643005 -0.360157 0
M  V30 5038 H 457.325 -1.88126 -0.266216 0
M  V30 5039 H 455.475 -2.98245 -2.48962 0
M  V30 5040 H 457.147 -4.59238 -0.43563 0
M  V30 5041 H 455.39 -4.32461 -0.340513 0
M  V30 5042 H 456.061 -5.25759 -1.6817 0
M  V30 5043 H 458.537 -3.44458 -2.33426 0
M  V30 5044 H 457.413 -4.27989 -3.43681 0
M  V30 5045 H 457.674 -2.55153 -3.61039 0
M  V30 5046 N 456.733 0.527833 -1.48498 0
M  V30 5047 C 457.98 1.28354 -1.56625 0
M  V30 5048 C 458.308 1.93 -0.241096 0
M  V30 5049 O 457.563 1.79967 0.768798 0
M  V30 5050 C 457.862 2.39275 -2.65485 0
M  V30 5051 C 457.528 1.92268 -4.07853 0
M  V30 5052 C 456.19 1.79166 -4.46602 0
M  V30 5053 C 458.542 1.56771 -4.97064 0
M  V30 5054 C 455.87 1.28905 -5.72364 0
M  V30 5055 C 458.222 1.07972 -6.23318 0
M  V30 5056 C 456.886 0.934887 -6.60921 0
M  V30 5057 H 456.156 0.469682 -0.573131 0
M  V30 5058 H 458.803 0.588781 -1.82224 0
M  V30 5059 H 457.108 3.1443 -2.33754 0
M  V30 5060 H 458.805 2.974 -2.68988 0
M  V30 5061 H 455.395 2.03417 -3.77252 0
M  V30 5062 H 459.579 1.65753 -4.67803 0
M  V30 5063 H 454.835 1.16381 -6.00221 0
M  V30 5064 H 459.009 0.795775 -6.91838 0
M  V30 5065 H 456.636 0.543231 -7.58257 0
M  V30 5066 N 458.211 1.37122 0.776871 0
M  V30 5067 C 459.488 1.22586 1.52421 0
M  V30 5068 C 459.868 -0.182726 2.10308 0
M  V30 5069 O 459.216 -1.18979 1.9508 0
M  V30 5070 C 459.426 2.31782 2.60918 0
M  V30 5071 C 460.774 2.69071 3.2846 0
M  V30 5072 O 461.798 2.3092 2.71209 0
M  V30 5073 O 460.657 3.3478 4.31954 0
M  V30 5074 H 457.751 0.478045 0.674835 0
M  V30 5075 H 460.297 1.48888 0.814275 0
M  V30 5076 H 459.069 3.26131 2.16227 0
M  V30 5077 H 458.692 2.06916 3.39517 0
M  V30 5078 N 459.689 -1.00246 1.21608 0
M  V30 5079 C 460.619 -2.10921 1.00172 0
M  V30 5080 C 461.6 -1.69938 -0.0741587 0
M  V30 5081 O 462.785 -1.94009 0.0861753 0
M  V30 5082 C 459.915 -3.42618 0.568355 0
M  V30 5083 C 458.869 -3.97407 1.58909 0
M  V30 5084 C 458.195 -5.25038 1.01187 0
M  V30 5085 C 459.495 -4.2918 2.97661 0
M  V30 5086 H 461.189 -2.29112 1.92739 0
M  V30 5087 H 458.735 -1.10101 0.928102 0
M  V30 5088 H 460.688 -4.19444 0.405555 0
M  V30 5089 H 459.412 -3.24227 -0.392961 0
M  V30 5090 H 458.071 -3.22703 1.73949 0
M  V30 5091 H 457.719 -5.02982 0.0421965 0
M  V30 5092 H 457.419 -5.62661 1.6937 0
M  V30 5093 H 458.943 -6.04507 0.860448 0
M  V30 5094 H 460.357 -4.96839 2.86049 0
M  V30 5095 H 458.754 -4.77952 3.6288 0
M  V30 5096 H 459.824 -3.3735 3.48315 0
M  V30 5097 N 461.167 -1.02423 -1.1978 0
M  V30 5098 C 462.114 -0.601023 -2.22837 0
M  V30 5099 C 463.084 0.382801 -1.61629 0
M  V30 5100 O 464.269 0.280514 -1.88727 0
M  V30 5101 C 461.409 0.0467755 -3.45068 0
M  V30 5102 C 460.522 -0.98253 -4.20678 0
M  V30 5103 C 459.657 -0.304982 -5.30324 0
M  V30 5104 C 458.696 -1.32052 -5.97686 0
M  V30 5105 N 457.833 -0.669105 -6.98904 0
M  V30 5106 H 462.673 -1.48444 -2.58396 0
M  V30 5107 H 460.21 -0.742936 -1.2696 0
M  V30 5108 H 462.168 0.439556 -4.14878 0
M  V30 5109 H 460.798 0.893796 -3.10179 0
M  V30 5110 H 459.85 -1.49341 -3.49859 0
M  V30 5111 H 461.162 -1.75455 -4.66923 0
M  V30 5112 H 460.316 0.142893 -6.06532 0
M  V30 5113 H 459.055 0.499283 -4.85138 0
M  V30 5114 H 458.06 -1.7787 -5.20233 0
M  V30 5115 H 459.285 -2.1262 -6.44957 0
M  V30 5116 H 457.231 0.115152 -6.55899 0
M  V30 5117 H 457.148 -1.37908 -7.43315 0
M  V30 5118 H 458.416 -0.245076 -7.79115 0
M  V30 5119 N 462.645 1.35699 -0.801477 0
M  V30 5120 C 463.593 2.3177 -0.196317 0
M  V30 5121 C 464.587 1.56388 0.651081 0
M  V30 5122 O 465.793 1.71557 0.544815 0
M  V30 5123 H 462.168 0.750669 -0.0447189 0
M  V30 5124 H 464.139 2.8036 -1.02181 0
M  V30 5125 C 462.888 3.41671 0.644702 0
M  V30 5126 H 462.211 3.998 0.0019921 0
M  V30 5127 H 463.651 4.11184 1.0346 0
M  V30 5128 C 462.11 2.84271 1.80808 0
M  V30 5129 O 462.64 2.77408 2.9053 0
M  V30 5130 N 460.846 2.41391 1.61799 0
M  V30 5131 H 460.393 2.47173 0.725493 0
M  V30 5132 H 460.351 2.03334 2.39797 0
M  V30 5133 N 464.123 0.554532 1.47522 0
M  V30 5134 C 465.369 0.0295227 2.02779 0
M  V30 5135 C 465.702 -1.31582 1.42828 0
M  V30 5136 O 464.977 -1.85561 0.582872 0
M  V30 5137 C 465.26 -0.0664057 3.60039 0
M  V30 5138 C 465.113 1.30585 4.30427 0
M  V30 5139 C 466.432 -0.781162 4.33112 0
M  V30 5140 H 463.551 0.0122027 0.736899 0
M  V30 5141 H 466.193 0.716305 1.7598 0
M  V30 5142 H 464.343 -0.651307 3.83002 0
M  V30 5143 H 466.015 1.93374 4.18813 0
M  V30 5144 H 464.258 1.88125 3.90886 0
M  V30 5145 H 464.929 1.19147 5.38988 0
M  V30 5146 H 467.405 -0.284565 4.15126 0
M  V30 5147 H 466.281 -0.817237 5.42782 0
M  V30 5148 H 466.542 -1.83672 4.0214 0
M  V30 5149 N 465.601 -1.54893 0.290851 0
M  V30 5150 C 466.878 -1.91991 -0.373989 0
M  V30 5151 C 467.258 -1.21694 -1.72493 0
M  V30 5152 O 466.606 -0.34917 -2.25816 0
M  V30 5153 C 466.816 -3.45419 -0.498703 0
M  V30 5154 C 468.164 -4.1748 -0.774298 0
M  V30 5155 O 469.188 -3.51398 -0.582908 0
M  V30 5156 O 468.047 -5.3445 -1.14129 0
M  V30 5157 H 465.141 -0.800593 -0.207315 0
M  V30 5158 H 467.687 -1.66297 0.338164 0
M  V30 5159 H 466.459 -3.88688 0.451392 0
M  V30 5160 H 466.082 -3.77117 -1.25972 0
M  V30 5161 N 467.08 -0.0183926 -1.57589 0
M  V30 5162 C 468.027 0.967022 -2.09565 0
M  V30 5163 C 468.997 1.32983 -0.995225 0
M  V30 5164 O 470.182 1.42501 -1.26878 0
M  V30 5165 C 467.322 2.24772 -2.61861 0
M  V30 5166 C 466.435 1.94232 -3.85873 0
M  V30 5167 C 465.57 3.16518 -4.26603 0
M  V30 5168 C 464.609 2.81748 -5.43401 0
M  V30 5169 N 463.746 3.96626 -5.79338 0
M  V30 5170 H 468.586 0.516874 -2.93483 0
M  V30 5171 H 466.123 0.243544 -1.4507 0
M  V30 5172 H 468.081 2.99667 -2.90268 0
M  V30 5173 H 466.711 2.67423 -1.8079 0
M  V30 5174 H 465.763 1.09625 -3.64262 0
M  V30 5175 H 467.075 1.64616 -4.70853 0
M  V30 5176 H 466.229 3.99743 -4.56389 0
M  V30 5177 H 464.968 3.49286 -3.40368 0
M  V30 5178 H 463.973 1.96933 -5.1332 0
M  V30 5179 H 465.198 2.50207 -6.31327 0
M  V30 5180 H 463.144 4.29257 -4.96059 0
M  V30 5181 H 463.061 3.70598 -6.58933 0
M  V30 5182 H 464.329 4.80586 -6.13724 0
M  V30 5183 N 468.558 1.5553 0.254621 0
M  V30 5184 C 469.807 1.76202 0.981612 0
M  V30 5185 C 470.12 0.580883 1.86776 0
M  V30 5186 O 471.326 0.670448 2.63092 0
M  V30 5187 C 469.782 3.11921 1.79537 0
M  V30 5188 C 469.39 4.37659 0.956991 0
M  V30 5189 C 471.134 3.41936 2.51555 0
M  V30 5190 C 469.041 5.64411 1.76619 0
M  V30 5191 H 467.971 0.656841 0.370237 0
M  V30 5192 H 470.622 1.81969 0.236556 0
M  V30 5193 H 469.004 3.00241 2.58208 0
M  V30 5194 H 470.178 4.60307 0.21315 0
M  V30 5195 H 468.493 4.14922 0.350497 0
M  V30 5196 H 471.09 4.33849 3.12536 0
M  V30 5197 H 471.433 2.62905 3.22779 0
M  V30 5198 H 471.966 3.54797 1.799 0
M  V30 5199 H 468.705 6.46241 1.09783 0
M  V30 5200 H 468.225 5.45877 2.48551 0
M  V30 5201 H 469.904 6.03386 2.33527 0
M  V30 5202 N 470.036 -0.519951 1.48776 0
M  V30 5203 C 470.968 -1.63973 1.60142 0
M  V30 5204 C 471.981 -1.55404 0.485117 0
M  V30 5205 O 473.17 -1.61682 0.756391 0
M  V30 5206 C 470.27 -3.02676 1.52449 0
M  V30 5207 C 469.443 -3.36624 2.79291 0
M  V30 5208 C 468.502 -4.54652 2.64912 0
M  V30 5209 O 467.528 -4.57374 3.38818 0
M  V30 5210 N 468.73 -5.53432 1.75195 0
M  V30 5211 H 471.495 -1.54656 2.56713 0
M  V30 5212 H 469.056 -0.707439 1.45626 0
M  V30 5213 H 471.048 -3.79525 1.4051 0
M  V30 5214 H 469.618 -3.06018 0.638125 0
M  V30 5215 H 468.838 -2.48855 3.0572 0
M  V30 5216 H 470.126 -3.56094 3.6342 0
M  V30 5217 H 469.524 -5.54018 1.14371 0
M  V30 5218 H 468.081 -6.29459 1.69189 0
M  V30 5219 N 471.514 -1.37532 -0.769588 0
M  V30 5220 C 472.76 -1.33057 -1.53048 0
M  V30 5221 C 473.093 0.0841865 -1.94017 0
M  V30 5222 O 472.368 1.04198 -1.64235 0
M  V30 5223 C 472.651 -2.27166 -2.79406 0
M  V30 5224 C 472.504 -3.77429 -2.44677 0
M  V30 5225 C 473.823 -2.19683 -3.81349 0
M  V30 5226 H 470.942 -0.484655 -0.555228 0
M  V30 5227 H 473.584 -1.68251 -0.882702 0
M  V30 5228 H 471.734 -1.97283 -3.34682 0
M  V30 5229 H 473.406 -4.17918 -1.953 0
M  V30 5230 H 471.649 -3.95892 -1.77346 0
M  V30 5231 H 472.32 -4.38716 -3.35011 0
M  V30 5232 H 474.796 -2.46029 -3.35573 0
M  V30 5233 H 473.672 -2.87668 -4.67481 0
M  V30 5234 H 473.933 -1.19045 -4.25771 0
M  V30 5235 N 472.992 0.995999 -1.22138 0
M  V30 5236 C 474.217 1.77601 -1.0711 0
M  V30 5237 C 474.642 1.84339 0.374264 0
M  V30 5238 O 474 1.29359 1.27028 0
M  V30 5239 C 474.048 3.18897 -1.68336 0
M  V30 5240 O 473.152 4.01663 -0.934928 0
M  V30 5241 H 472.493 0.547011 -0.376397 0
M  V30 5242 H 475.023 1.25137 -1.6187 0
M  V30 5243 H 475.033 3.69539 -1.72931 0
M  V30 5244 H 473.708 3.13308 -2.73516 0
M  V30 5245 H 472.285 3.60204 -0.964751 0
M  V30 5246 N 474.47 1.03057 1.19235 0
M  V30 5247 C 475.417 0.612832 2.22515 0
M  V30 5248 C 476.387 -0.374224 1.61829 0
M  V30 5249 O 477.572 -0.270501 1.88873 0
M  V30 5250 C 474.712 -0.028475 3.45088 0
M  V30 5251 C 473.825 1.00483 4.20151 0
M  V30 5252 C 472.96 0.333102 5.30155 0
M  V30 5253 C 471.999 1.3522 5.96977 0
M  V30 5254 N 471.136 0.70616 6.9854 0
M  V30 5255 H 475.976 1.49812 2.57605 0
M  V30 5256 H 473.513 0.749658 1.26564 0
M  V30 5257 H 475.471 -0.417548 4.15105 0
M  V30 5258 H 474.101 -0.877334 3.10649 0
M  V30 5259 H 473.153 1.51194 3.49062 0
M  V30 5260 H 474.465 1.77929 4.65986 0
M  V30 5261 H 473.619 -0.110725 6.06599 0
M  V30 5262 H 472.358 -0.473547 4.85396 0
M  V30 5263 H 471.363 1.80627 5.19282 0
M  V30 5264 H 472.588 2.16037 6.4382 0
M  V30 5265 H 470.534 -0.0803667 6.55951 0
M  V30 5266 H 470.451 1.41848 7.42573 0
M  V30 5267 H 471.719 0.286391 7.78974 0
M  V30 5268 N 475.948 -1.35272 0.808662 0
M  V30 5269 C 477.197 -1.97963 0.386483 0
M  V30 5270 C 477.51 -1.64866 -1.05255 0
M  V30 5271 O 478.716 -2.20937 -1.57794 0
M  V30 5272 C 477.172 -3.54162 0.640096 0
M  V30 5273 C 476.78 -3.96166 2.0918 0
M  V30 5274 C 478.524 -4.23553 0.283376 0
M  V30 5275 C 476.431 -5.4522 2.29106 0
M  V30 5276 H 475.361 -0.740742 0.140774 0
M  V30 5277 H 478.012 -1.5431 0.993012 0
M  V30 5278 H 476.394 -3.95983 -0.0364117 0
M  V30 5279 H 477.568 -3.65491 2.80629 0
M  V30 5280 H 475.883 -3.3967 2.40859 0
M  V30 5281 H 478.48 -5.33124 0.410273 0
M  V30 5282 H 478.823 -4.09105 -0.770659 0
M  V30 5283 H 479.356 -3.8716 0.913884 0
M  V30 5284 H 476.095 -5.64638 3.32962 0
M  V30 5285 H 475.615 -5.77457 1.62184 0
M  V30 5286 H 477.294 -6.1171 2.1076 0
M  V30 5287 N 477.426 -0.562348 -1.47226 0
M  V30 5288 C 478.703 0.0256985 -1.95583 0
M  V30 5289 C 479.083 1.48032 -1.50498 0
M  V30 5290 O 478.431 2.15973 -0.746181 0
M  V30 5291 C 478.641 -0.125129 -3.48776 0
M  V30 5292 C 479.989 0.0175728 -4.24596 0
M  V30 5293 O 481.013 -0.0529341 -3.56161 0
M  V30 5294 O 479.872 0.170145 -5.46235 0
M  V30 5295 H 476.966 0.0612565 -0.824728 0
M  V30 5296 H 479.512 -0.629233 -1.57603 0
M  V30 5297 H 478.284 -1.13715 -3.74412 0
M  V30 5298 H 477.907 0.567178 -3.93534 0
M  V30 5299 N 478.904 1.54736 -0.299062 0
M  V30 5300 C 480.181 1.92187 0.363802 0
M  V30 5301 C 480.561 1.22607 1.71845 0
M  V30 5302 O 479.909 0.361141 2.25628 0
M  V30 5303 C 480.119 3.45678 0.480377 0
M  V30 5304 C 481.467 4.17885 0.752147 0
M  V30 5305 O 482.491 3.51702 0.564264 0
M  V30 5306 O 481.35 5.35048 1.11294 0
M  V30 5307 H 478.444 0.801681 0.203066 0
M  V30 5308 H 480.99 1.66115 -0.346978 0
M  V30 5309 H 479.762 3.88443 -0.471999 0
M  V30 5310 H 479.385 3.77779 1.2397 0
M  V30 5311 N 480.382 0.0267497 1.57577 0
M  V30 5312 C 481.631 -0.651736 1.9088 0
M  V30 5313 C 481.944 -1.73427 0.904576 0
M  V30 5314 O 483.15 -2.46923 1.12877 0
M  V30 5315 C 481.606 -1.21048 3.38933 0
M  V30 5316 C 481.214 -0.161362 4.47709 0
M  V30 5317 C 482.958 -1.86562 3.81307 0
M  V30 5318 C 480.865 -0.731611 5.86857 0
M  V30 5319 H 479.795 -0.247198 0.712326 0
M  V30 5320 H 482.446 0.0916641 1.83271 0
M  V30 5321 H 480.828 -2.00542 3.41466 0
M  V30 5322 H 482.002 0.61094 4.56732 0
M  V30 5323 H 480.317 0.394877 4.14523 0
M  V30 5324 H 482.914 -2.30178 4.8262 0
M  V30 5325 H 483.257 -2.70735 3.16241 0
M  V30 5326 H 483.79 -1.13762 3.81186 0
M  V30 5327 H 480.529 0.0719329 6.55461 0
M  V30 5328 H 480.049 -1.47245 5.81445 0
M  V30 5329 H 481.728 -1.22208 6.35354 0
M  V30 5330 N 481.861 -1.55662 -0.24637 0
M  V30 5331 C 482.809 -1.91186 -1.3248 0
M  V30 5332 C 483.803 -0.790996 -1.49799 0
M  V30 5333 O 485.009 -0.975617 -1.51267 0
M  V30 5334 H 481.384 -0.607207 -0.443626 0
M  V30 5335 H 483.355 -2.81221 -0.997853 0
M  V30 5336 C 482.104 -2.22349 -2.67313 0
M  V30 5337 H 481.427 -3.08097 -2.54786 0
M  V30 5338 H 482.867 -2.51107 -3.41645 0
M  V30 5339 C 481.326 -1.04001 -3.20446 0
M  V30 5340 O 481.856 -0.28828 -4.00664 0
M  V30 5341 N 480.062 -0.830494 -2.7848 0
M  V30 5342 H 479.609 -1.4435 -2.13356 0
M  V30 5343 H 479.567 -0.0403258 -3.14374 0
M  V30 5344 N 483.339 0.512053 -1.4905 0
M  V30 5345 C 484.287 1.63568 -1.65373 0
M  V30 5346 C 485.281 1.61228 -0.519806 0
M  V30 5347 O 486.487 1.65869 -0.699101 0
M  V30 5348 H 482.862 0.542019 -0.521267 0
M  V30 5349 H 484.833 1.4695 -2.59708 0
M  V30 5350 C 483.582 3.01761 -1.7273 0
M  V30 5351 H 482.905 3.04263 -2.59353 0
M  V30 5352 H 484.345 3.79948 -1.8819 0
M  V30 5353 C 482.804 3.33609 -0.46973 0
M  V30 5354 O 483.334 3.99607 0.409492 0
M  V30 5355 N 481.54 2.88651 -0.336003 0
M  V30 5356 H 481.087 2.35119 -1.05247 0
M  V30 5357 H 481.045 3.10328 0.504363 0
M  V30 5358 N 484.817 1.37938 0.762283 0
M  V30 5359 C 485.747 1.37176 1.88958 0
M  V30 5360 C 486.728 0.238945 1.68413 0
M  V30 5361 O 487.913 0.440726 1.89133 0
M  V30 5362 C 485.043 1.18742 3.2637 0
M  V30 5363 C 483.997 2.29136 3.61498 0
M  V30 5364 C 483.323 1.95816 4.97554 0
M  V30 5365 C 484.623 3.71363 3.6727 0
M  V30 5366 H 486.317 2.31509 1.89853 0
M  V30 5367 H 483.863 1.11438 0.912005 0
M  V30 5368 H 485.816 1.16837 4.04879 0
M  V30 5369 H 484.54 0.208683 3.25933 0
M  V30 5370 H 483.199 2.30213 2.85303 0
M  V30 5371 H 482.847 0.964475 4.93667 0
M  V30 5372 H 482.547 2.69745 5.22026 0
M  V30 5373 H 484.071 1.95513 5.78452 0
M  V30 5374 H 485.485 3.72364 4.35911 0
M  V30 5375 H 483.882 4.44425 4.03245 0
M  V30 5376 H 484.952 4.04305 2.67704 0
M  V30 5377 N 486.295 -0.989507 1.22664 0
M  V30 5378 C 487.243 -2.10148 0.997035 0
M  V30 5379 C 488.237 -1.6929 -0.0609783 0
M  V30 5380 O 489.443 -1.79766 0.0917523 0
M  V30 5381 H 485.818 -0.687256 0.305259 0
M  V30 5382 H 487.789 -2.26685 1.94053 0
M  V30 5383 C 486.538 -3.4257 0.595085 0
M  V30 5384 H 485.861 -3.74453 1.40089 0
M  V30 5385 H 487.301 -4.21344 0.473869 0
M  V30 5386 C 485.76 -3.29638 -0.695725 0
M  V30 5387 O 486.29 -3.61709 -1.74727 0
M  V30 5388 N 484.496 -2.82814 -0.668173 0
M  V30 5389 H 484.043 -2.56914 0.18787 0
M  V30 5390 H 484.001 -2.74544 -1.5321 0
M  V30 5391 N 487.773 -1.03688 -1.18687 0
M  V30 5392 C 489.022 -0.733235 -1.879 0
M  V30 5393 C 489.335 0.741745 -1.8099 0
M  V30 5394 O 490.541 1.15875 -2.4553 0
M  V30 5395 C 488.997 -1.26127 -3.37076 0
M  V30 5396 C 488.605 -2.76461 -3.52524 0
M  V30 5397 C 490.349 -1.03398 -4.11715 0
M  V30 5398 C 488.256 -3.22642 -4.95637 0
M  V30 5399 H 487.186 -0.270584 -0.703776 0
M  V30 5400 H 489.837 -1.25222 -1.34133 0
M  V30 5401 H 488.219 -0.670165 -3.90288 0
M  V30 5402 H 489.393 -3.41296 -3.09602 0
M  V30 5403 H 487.708 -2.97559 -2.91286 0
M  V30 5404 H 490.305 -1.3542 -5.17267 0
M  V30 5405 H 490.648 0.0289246 -4.1629 0
M  V30 5406 H 491.181 -1.5895 -3.64664 0
M  V30 5407 H 487.92 -4.28296 -4.96228 0
M  V30 5408 H 487.44 -2.62539 -5.39289 0
M  V30 5409 H 489.119 -3.16444 -5.64333 0
M  V30 5410 N 489.251 1.34841 -0.815825 0
M  V30 5411 C 490.481 2.02436 -0.412695 0
M  V30 5412 C 490.889 1.61604 0.983906 0
M  V30 5413 O 490.232 0.813729 1.64694 0
M  V30 5414 C 490.294 3.56953 -0.427182 0
M  V30 5415 C 489.958 4.21083 -1.77589 0
M  V30 5416 C 490.955 4.42107 -2.73564 0
M  V30 5417 C 488.64 4.58006 -2.06243 0
M  V30 5418 C 490.634 4.99169 -3.9637 0
M  V30 5419 C 488.321 5.1478 -3.2931 0
M  V30 5420 C 489.319 5.35304 -4.24191 0
M  V30 5421 O 489.007 5.90878 -5.45086 0
M  V30 5422 H 488.739 0.655631 -0.164695 0
M  V30 5423 H 491.293 1.73246 -1.1034 0
M  V30 5424 H 489.523 3.85372 0.320175 0
M  V30 5425 H 491.212 4.05875 -0.0450875 0
M  V30 5426 H 491.978 4.13953 -2.52721 0
M  V30 5427 H 487.857 4.41339 -1.33196 0
M  V30 5428 H 491.401 5.15105 -4.70439 0
M  V30 5429 H 487.298 5.42362 -3.5002 0
M  V30 5430 H 488.066 6.0932 -5.46508 0
M  V30 5431 N 490.729 0.570148 1.46925 0
M  V30 5432 C 491.639 -0.173061 2.33961 0
M  V30 5433 C 492.655 -0.898825 1.48987 0
M  V30 5434 O 493.831 -0.864825 1.81887 0
M  V30 5435 C 490.896 -1.18177 3.25937 0
M  V30 5436 C 489.957 -0.462041 4.26806 0
M  V30 5437 C 489.19 -1.4227 5.14388 0
M  V30 5438 O 489.413 -2.65842 5.04662 0
M  V30 5439 O 488.347 -0.940127 5.94513 0
M  V30 5440 H 492.173 0.541216 2.98839 0
M  V30 5441 H 489.758 0.330647 1.45695 0
M  V30 5442 H 491.64 -1.76372 3.82715 0
M  V30 5443 H 490.315 -1.87774 2.63671 0
M  V30 5444 H 489.222 0.161429 3.73752 0
M  V30 5445 H 490.555 0.192719 4.91823 0
M  V30 5446 N 492.207 -1.54576 0.307264 0
M  V30 5447 C 493.157 -2.20467 -0.581249 0
M  V30 5448 C 494.141 -1.17972 -1.09414 0
M  V30 5449 O 495.333 -1.43667 -1.03387 0
M  V30 5450 C 492.462 -2.95369 -1.74963 0
M  V30 5451 C 491.548 -4.05186 -1.25241 0
M  V30 5452 N 491.939 -5.03577 -0.47364 0
M  V30 5453 C 490.237 -4.18841 -1.53259 0
M  V30 5454 C 490.938 -5.81328 -0.208083 0
M  V30 5455 N 489.914 -5.37834 -0.789651 0
M  V30 5456 H 493.716 -2.93892 0.0212221 0
M  V30 5457 H 491.23 -1.62011 0.112325 0
M  V30 5458 H 493.227 -3.41046 -2.39777 0
M  V30 5459 H 491.887 -2.23461 -2.35574 0
M  V30 5460 H 492.898 -5.17766 -0.117963 0
M  V30 5461 H 489.575 -3.58141 -2.14573 0
M  V30 5462 H 490.965 -6.706 0.417793 0
M  V30 5463 N 493.685 -0.035106 -1.57561 0
M  V30 5464 C 494.632 0.94474 -2.10578 0
M  V30 5465 C 495.602 1.3192 -1.00927 0
M  V30 5466 O 496.787 1.41147 -1.28382 0
M  V30 5467 C 493.927 2.21982 -2.64231 0
M  V30 5468 C 493.04 1.90128 -3.87911 0
M  V30 5469 C 492.175 3.11975 -4.29936 0
M  V30 5470 C 491.214 2.75968 -5.46359 0
M  V30 5471 N 490.351 3.90459 -5.83512 0
M  V30 5472 H 495.191 0.485717 -2.94015 0
M  V30 5473 H 492.728 0.228143 -1.4532 0
M  V30 5474 H 494.686 2.96572 -2.9343 0
M  V30 5475 H 493.316 2.6549 -1.83616 0
M  V30 5476 H 492.368 1.05755 -3.65404 0
M  V30 5477 H 493.68 1.59613 -4.72573 0
M  V30 5478 H 492.834 3.9488 -4.60603 0
M  V30 5479 H 491.573 3.45657 -3.44053 0
M  V30 5480 H 490.578 1.91478 -5.1538 0
M  V30 5481 H 491.803 2.43497 -6.33945 0
M  V30 5482 H 489.749 4.23971 -5.00584 0
M  V30 5483 H 489.666 3.63588 -6.62827 0
M  V30 5484 H 490.934 4.7405 -6.18787 0
M  V30 5485 N 495.163 1.55791 0.238111 0
M  V30 5486 C 496.073 1.94196 1.31625 0
M  V30 5487 C 497.089 0.843545 1.52185 0
M  V30 5488 O 498.265 1.1457 1.65637 0
M  V30 5489 C 495.33 2.2365 2.64918 0
M  V30 5490 C 494.391 3.46971 2.52804 0
M  V30 5491 C 493.624 3.7501 3.79741 0
M  V30 5492 O 493.847 3.04982 4.82019 0
M  V30 5493 O 492.781 4.68525 3.77846 0
M  V30 5494 H 496.607 2.86044 1.02043 0
M  V30 5495 H 494.192 1.42786 0.439603 0
M  V30 5496 H 496.074 2.43863 3.4367 0
M  V30 5497 H 494.749 1.34979 2.94215 0
M  V30 5498 H 493.656 3.32055 1.72309 0
M  V30 5499 H 494.989 4.35971 2.28451 0
M  V30 5500 N 496.642 -0.504142 1.49319 0
M  V30 5501 C 497.87 -1.28256 1.62351 0
M  V30 5502 C 498.285 -1.86502 0.293682 0
M  V30 5503 O 497.642 -1.67678 -0.720449 0
M  V30 5504 C 497.693 -2.41507 2.68992 0
M  V30 5505 O 497.414 -1.85656 3.96817 0
M  V30 5506 C 498.915 -3.32929 2.927 0
M  V30 5507 H 496.135 -0.389115 0.546654 0
M  V30 5508 H 498.679 -0.605531 1.95329 0
M  V30 5509 H 496.834 -3.05046 2.38801 0
M  V30 5510 H 497.248 -2.59981 4.55533 0
M  V30 5511 H 498.722 -4.0868 3.71058 0
M  V30 5512 H 499.199 -3.89733 2.02496 0
M  V30 5513 H 499.805 -2.75158 3.24296 0
M  V30 5514 N 498.12 -1.38341 -0.754957 0
M  V30 5515 C 499.053 -1.29837 -1.87663 0
M  V30 5516 C 500.031 -0.175659 -1.61648 0
M  V30 5517 O 501.215 -0.352745 -1.8517 0
M  V30 5518 C 498.342 -1.01141 -3.23246 0
M  V30 5519 C 497.388 -2.15331 -3.6815 0
M  V30 5520 S 498.221 -3.77459 -3.79849 0
M  V30 5521 C 499.377 -3.50948 -5.18253 0
M  V30 5522 H 499.61 -2.24771 -1.9459 0
M  V30 5523 H 497.143 -1.24161 -0.917796 0
M  V30 5524 H 499.101 -0.852687 -4.01546 0
M  V30 5525 H 497.762 -0.0792784 -3.14 0
M  V30 5526 H 496.955 -1.90795 -4.6649 0
M  V30 5527 H 496.557 -2.27304 -2.97 0
M  V30 5528 H 498.849 -3.06977 -6.03963 0
M  V30 5529 H 499.792 -4.48677 -5.47809 0
M  V30 5530 H 500.2 -2.85492 -4.86985 0
M  V30 5531 N 499.598 0.982988 -1.23187 0
M  V30 5532 C 500.548 2.05962 -0.977942 0
M  V30 5533 C 501.532 1.60725 0.0751148 0
M  V30 5534 O 502.724 1.76471 -0.136683 0
M  V30 5535 C 499.853 3.38564 -0.568276 0
M  V30 5536 C 498.939 3.90407 -1.6566 0
M  V30 5537 N 499.33 4.15359 -2.88635 0
M  V30 5538 C 497.628 4.18915 -1.53058 0
M  V30 5539 C 498.329 4.57642 -3.5908 0
M  V30 5540 N 497.305 4.6192 -2.86584 0
M  V30 5541 H 501.107 2.23208 -1.91195 0
M  V30 5542 H 498.621 1.16555 -1.13087 0
M  V30 5543 H 500.618 4.15276 -0.36764 0
M  V30 5544 H 499.278 3.22712 0.358713 0
M  V30 5545 H 500.289 4.03258 -3.24966 0
M  V30 5546 H 496.966 4.12081 -0.670506 0
M  V30 5547 H 498.356 4.85488 -4.6449 0
M  V30 5548 N 501.076 1.04316 1.18135 0
M  V30 5549 C 502.006 0.657299 2.24058 0
M  V30 5550 C 502.987 -0.340678 1.66654 0
M  V30 5551 O 504.172 -0.220223 1.92947 0
M  V30 5552 C 501.302 0.0220715 3.47293 0
M  V30 5553 C 500.256 0.943857 4.17463 0
M  V30 5554 C 499.582 0.172973 5.3442 0
M  V30 5555 C 500.882 2.26409 4.70677 0
M  V30 5556 H 502.576 1.5428 2.56589 0
M  V30 5557 H 500.122 0.743263 1.23335 0
M  V30 5558 H 502.075 -0.259607 4.206 0
M  V30 5559 H 500.799 -0.898323 3.14003 0
M  V30 5560 H 499.458 1.20996 3.46057 0
M  V30 5561 H 499.106 -0.749907 4.97379 0
M  V30 5562 H 498.806 0.787098 5.82304 0
M  V30 5563 H 500.33 -0.101628 6.10515 0
M  V30 5564 H 501.744 2.04294 5.35665 0
M  V30 5565 H 500.141 2.8314 5.29105 0
M  V30 5566 H 501.211 2.90883 3.87962 0
M  V30 5567 N 502.554 -1.34406 0.822964 0
M  V30 5568 C 503.779 -2.0304 0.423034 0
M  V30 5569 C 504.204 -1.61568 -0.963196 0
M  V30 5570 O 503.562 -0.800339 -1.62678 0
M  V30 5571 C 503.61 -3.56636 0.53321 0
M  V30 5572 O 502.714 -4.09971 -0.446939 0
M  V30 5573 H 502.055 -0.64075 0.174171 0
M  V30 5574 H 504.585 -1.71653 1.11339 0
M  V30 5575 H 504.595 -4.05945 0.408991 0
M  V30 5576 H 503.27 -3.86168 1.54425 0
M  V30 5577 H 501.847 -3.71835 -0.281601 0
M  V30 5578 N 504.032 -0.577932 -1.46621 0
M  V30 5579 C 504.995 0.147805 -2.28723 0
M  V30 5580 C 505.995 0.823325 -1.38123 0
M  V30 5581 O 507.185 0.676011 -1.60548 0
M  V30 5582 C 504.317 1.21853 -3.18378 0
M  V30 5583 H 505.51 -0.573654 -2.94362 0
M  V30 5584 H 503.063 -0.335703 -1.52652 0
M  V30 5585 H 503.798 1.97173 -2.57475 0
M  V30 5586 H 503.583 0.738714 -3.85078 0
M  V30 5587 H 505.073 1.72768 -3.80186 0
M  V30 5588 N 505.51 1.54411 -0.315457 0
M  V30 5589 C 506.457 2.24048 0.554166 0
M  V30 5590 C 507.427 1.2283 1.11812 0
M  V30 5591 O 508.612 1.51491 1.15997 0
M  V30 5592 C 505.752 2.99574 1.71316 0
M  V30 5593 C 504.865 4.15594 1.17922 0
M  V30 5594 C 504 4.78669 2.30324 0
M  V30 5595 C 503.039 5.86807 1.74137 0
M  V30 5596 N 502.176 6.43777 2.8017 0
M  V30 5597 H 507.016 2.97964 -0.0462602 0
M  V30 5598 H 504.553 1.47059 -0.0346009 0
M  V30 5599 H 506.511 3.41604 2.39505 0
M  V30 5600 H 505.141 2.28008 2.285 0
M  V30 5601 H 504.193 3.78404 0.389136 0
M  V30 5602 H 505.505 4.93459 0.728012 0
M  V30 5603 H 504.659 5.23626 3.06433 0
M  V30 5604 H 503.398 4.00168 2.78778 0
M  V30 5605 H 502.403 5.41261 0.965236 0
M  V30 5606 H 503.628 6.67201 1.2657 0
M  V30 5607 H 501.574 5.68153 3.2793 0
M  V30 5608 H 501.491 7.17031 2.39588 0
M  V30 5609 H 502.759 6.9339 3.56132 0
M  V30 5610 N 506.988 0.0434614 1.5754 0
M  V30 5611 C 507.936 -0.951465 2.1225 0
M  V30 5612 C 508.93 -1.3274 1.05245 0
M  V30 5613 O 510.136 -1.30795 1.23663 0
M  V30 5614 H 506.511 -0.324667 0.678303 0
M  V30 5615 H 508.482 -0.464855 2.94757 0
M  V30 5616 C 507.231 -2.21972 2.67626 0
M  V30 5617 H 506.554 -1.93923 3.4962 0
M  V30 5618 H 507.994 -2.89765 3.09536 0
M  V30 5619 C 506.453 -2.95919 1.61038 0
M  V30 5620 O 506.983 -3.8857 1.01862 0
M  V30 5621 N 505.189 -2.58511 1.32741 0
M  V30 5622 H 504.736 -1.83244 1.81051 0
M  V30 5623 H 504.694 -3.08296 0.616531 0
M  V30 5624 N 508.466 -1.55915 -0.229846 0
M  V30 5625 C 509.396 -1.94754 -1.28815 0
M  V30 5626 C 510.377 -0.814657 -1.49323 0
M  V30 5627 O 511.562 -1.07631 -1.61645 0
M  V30 5628 C 508.692 -2.25705 -2.63959 0
M  V30 5629 C 507.646 -3.41406 -2.5812 0
M  V30 5630 C 506.972 -3.57941 -3.97218 0
M  V30 5631 C 508.272 -4.76616 -2.13623 0
M  V30 5632 H 509.966 -2.83404 -0.965547 0
M  V30 5633 H 507.512 -1.36353 -0.463028 0
M  V30 5634 H 509.465 -2.51467 -3.38146 0
M  V30 5635 H 508.189 -1.339 -2.9789 0
M  V30 5636 H 506.848 -3.1568 -1.86391 0
M  V30 5637 H 506.496 -2.63526 -4.28443 0
M  V30 5638 H 506.196 -4.35757 -3.94195 0
M  V30 5639 H 507.72 -3.86042 -4.73079 0
M  V30 5640 H 509.134 -5.01637 -2.77549 0
M  V30 5641 H 507.531 -5.57655 -2.21677 0
M  V30 5642 H 508.601 -4.7253 -1.08829 0
M  V30 5643 N 509.944 0.496216 -1.49584 0
M  V30 5644 C 511.169 1.27865 -1.63295 0
M  V30 5645 C 511.594 1.85592 -0.306156 0
M  V30 5646 O 510.952 1.66092 0.726851 0
M  V30 5647 C 511 2.38128 -2.7079 0
M  V30 5648 O 510.104 3.42108 -2.30296 0
M  V30 5649 H 509.445 0.377279 -0.546403 0
M  V30 5650 H 511.975 0.593497 -1.95803 0
M  V30 5651 H 511.985 2.8382 -2.93104 0
M  V30 5652 H 510.66 1.95479 -3.67098 0
M  V30 5653 H 509.237 3.02301 -2.18331 0
M  V30 5654 N 511.423 1.38739 0.74761 0
M  V30 5655 C 512.839 1.20067 1.05148 0
M  V30 5656 C 513.039 0.0534835 2.01429 0
M  V30 5657 O 512.095 -0.59886 2.45296 0
M  V30 5658 C 513.408 2.52957 1.62584 0
M  V30 5659 C 514.956 2.59692 1.74726 0
M  V30 5660 C 515.431 3.92772 2.35573 0
M  V30 5661 N 516.922 3.94343 2.42997 0
M  V30 5662 C 517.657 4.9408 2.90985 0
M  V30 5663 N 517.153 6.04214 3.38965 0
M  V30 5664 N 518.946 4.81466 2.9008 0
M  V30 5665 H 511.097 2.12121 0.108808 0
M  V30 5666 H 513.36 0.941491 0.110899 0
M  V30 5667 H 513.066 3.37389 0.993051 0
M  V30 5668 H 512.94 2.71779 2.61565 0
M  V30 5669 H 515.327 1.75651 2.3713 0
M  V30 5670 H 515.408 2.44731 0.744326 0
M  V30 5671 H 515.052 4.77238 1.738 0
M  V30 5672 H 514.982 4.05046 3.36519 0
M  V30 5673 H 517.473 3.14799 2.0907 0
M  V30 5674 H 517.786 6.76241 3.74056 0
M  V30 5675 H 516.131 6.07825 3.37007 0
M  V30 5676 H 519.322 3.94535 2.51912 0
M  V30 5677 H 519.495 5.59344 3.27166 0
M  V30 5678 N 512.901 -0.976442 1.23707 0
M  V30 5679 C 514.131 -1.75087 1.09673 0
M  V30 5680 C 514.539 -1.85852 -0.354344 0
M  V30 5681 O 513.882 -1.33985 -1.25673 0
M  V30 5682 C 513.944 -3.19272 1.65245 0
M  V30 5683 C 513.608 -3.32004 3.14042 0
M  V30 5684 C 514.605 -3.18017 4.11292 0
M  V30 5685 C 512.29 -3.56525 3.53829 0
M  V30 5686 C 514.284 -3.28363 5.46312 0
M  V30 5687 C 511.971 -3.6651 4.88993 0
M  V30 5688 C 512.969 -3.52439 5.85043 0
M  V30 5689 O 512.657 -3.62063 7.1775 0
M  V30 5690 H 512.389 -0.556164 0.384262 0
M  V30 5691 H 514.943 -1.23518 1.64111 0
M  V30 5692 H 513.173 -3.72107 1.05231 0
M  V30 5693 H 514.862 -3.7849 1.46629 0
M  V30 5694 H 515.628 -2.98966 3.81896 0
M  V30 5695 H 511.507 -3.66547 2.79579 0
M  V30 5696 H 515.051 -3.17297 6.21263 0
M  V30 5697 H 510.948 -3.85072 5.18063 0
M  V30 5698 H 511.716 -3.78833 7.25553 0
M  V30 5699 N 514.379 -1.04941 -1.1758 0
M  V30 5700 C 515.628 -0.753124 -1.87112 0
M  V30 5701 C 515.941 0.722507 -1.81767 0
M  V30 5702 O 517.147 1.13265 -2.46746 0
M  V30 5703 C 515.603 -1.29695 -3.35719 0
M  V30 5704 C 515.211 -2.80184 -3.49572 0
M  V30 5705 C 516.955 -1.07759 -4.10595 0
M  V30 5706 C 514.862 -3.2788 -4.92187 0
M  V30 5707 H 513.792 -0.278034 -0.700866 0
M  V30 5708 H 516.443 -1.26637 -1.32798 0
M  V30 5709 H 514.825 -0.711522 -3.89555 0
M  V30 5710 H 515.999 -3.44561 -3.05965 0
M  V30 5711 H 514.314 -3.00632 -2.88113 0
M  V30 5712 H 516.911 -1.40899 -5.15802 0
M  V30 5713 H 517.254 -0.0152302 -4.16297 0
M  V30 5714 H 517.787 -1.62809 -3.62957 0
M  V30 5715 H 514.526 -4.33535 -4.91658 0
M  V30 5716 H 514.046 -2.68245 -5.36475 0
M  V30 5717 H 515.725 -3.22412 -5.60945 0
M  V30 5718 N 515.857 1.33968 -0.830081 0
M  V30 5719 C 517.134 1.92554 -0.343858 0
M  V30 5720 C 517.514 1.7573 1.16971 0
M  V30 5721 O 516.862 1.14035 1.98011 0
M  V30 5722 C 517.072 3.40147 -0.781073 0
M  V30 5723 C 518.42 4.17299 -0.78402 0
M  V30 5724 O 519.444 3.48762 -0.724112 0
M  V30 5725 O 518.303 5.39631 -0.863739 0
M  V30 5726 H 515.397 0.821469 -0.0954827 0
M  V30 5727 H 517.943 1.42897 -0.915348 0
M  V30 5728 H 516.715 3.46225 -1.82329 0
M  V30 5729 H 516.338 3.97166 -0.18567 0
M  V30 5730 N 517.335 0.585699 1.46312 0
M  V30 5731 C 518.584 0.0701192 2.01578 0
M  V30 5732 C 518.897 -1.29889 1.46247 0
M  V30 5733 O 520.103 -1.90598 1.93351 0
M  V30 5734 C 518.559 0.0747499 3.59822 0
M  V30 5735 C 518.167 1.44226 4.24149 0
M  V30 5736 C 519.911 -0.38673 4.22735 0
M  V30 5737 C 517.818 1.40446 5.74481 0
M  V30 5738 H 516.748 0.0224441 0.753666 0
M  V30 5739 H 519.399 0.737789 1.68015 0
M  V30 5740 H 517.781 -0.659144 3.90476 0
M  V30 5741 H 518.955 2.19612 4.05101 0
M  V30 5742 H 517.27 1.84401 3.73343 0
M  V30 5743 H 519.867 -0.433853 5.32937 0
M  V30 5744 H 520.21 -1.40489 3.91878 0
M  V30 5745 H 520.743 0.293195 3.96718 0
M  V30 5746 H 517.482 2.39952 6.10003 0
M  V30 5747 H 517.002 0.692845 5.95785 0
M  V30 5748 H 518.681 1.11865 6.37256 0
M  V30 5749 N 518.813 -1.54241 0.323641 0
M  V30 5750 C 519.76 -2.24339 -0.542277 0
M  V30 5751 C 520.73 -1.23421 -1.11159 0
M  V30 5752 O 521.915 -1.52104 -1.15192 0
M  V30 5753 C 519.055 -3.00479 -1.69725 0
M  V30 5754 C 518.168 -4.16214 -1.15716 0
M  V30 5755 C 517.303 -4.79884 -2.27783 0
M  V30 5756 C 516.342 -5.87722 -1.71023 0
M  V30 5757 N 515.479 -6.45254 -2.76752 0
M  V30 5758 H 520.319 -2.97935 0.0620613 0
M  V30 5759 H 517.856 -1.47039 0.0423993 0
M  V30 5760 H 519.814 -3.42869 -2.3769 0
M  V30 5761 H 518.444 -2.29217 -2.27288 0
M  V30 5762 H 517.496 -3.78605 -0.369063 0
M  V30 5763 H 518.808 -4.93838 -0.701832 0
M  V30 5764 H 517.962 -5.25243 -3.03651 0
M  V30 5765 H 516.701 -4.01641 -2.76652 0
M  V30 5766 H 515.706 -5.41765 -0.936518 0
M  V30 5767 H 516.931 -6.67863 -1.2303 0
M  V30 5768 H 514.877 -5.69884 -3.24912 0
M  V30 5769 H 514.794 -7.18292 -2.35782 0
M  V30 5770 H 516.062 -6.95269 -3.5245 0
M  V30 5771 N 520.291 -0.0518155 -1.57515 0
M  V30 5772 C 521.238 0.922352 -2.11569 0
M  V30 5773 C 522.208 1.30842 -1.02321 0
M  V30 5774 O 523.393 1.39778 -1.29872 0
M  V30 5775 C 520.533 2.19167 -2.6657 0
M  V30 5776 C 519.646 1.86003 -3.89906 0
M  V30 5777 C 518.781 3.07398 -4.33221 0
M  V30 5778 C 517.82 2.70158 -5.49255 0
M  V30 5779 N 516.957 3.84248 -5.8762 0
M  V30 5780 H 521.797 0.454506 -2.94514 0
M  V30 5781 H 519.334 0.212718 -1.45554 0
M  V30 5782 H 521.292 2.93443 -2.96559 0
M  V30 5783 H 519.922 2.63528 -1.86421 0
M  V30 5784 H 518.974 1.01874 -3.66505 0
M  V30 5785 H 520.286 1.54592 -4.74239 0
M  V30 5786 H 519.44 3.89972 -4.64765 0
M  V30 5787 H 518.179 3.41988 -3.477 0
M  V30 5788 H 517.184 1.86001 -5.17382 0
M  V30 5789 H 518.409 2.36759 -6.36492 0
M  V30 5790 H 516.355 4.18638 -5.05053 0
M  V30 5791 H 516.272 3.56538 -6.66646 0
M  V30 5792 H 517.54 4.6746 -6.2378 0
M  V30 5793 N 521.769 1.56035 0.221574 0
M  V30 5794 C 522.679 1.95581 1.29558 0
M  V30 5795 C 523.695 0.859639 1.51282 0
M  V30 5796 O 524.871 1.16321 1.64413 0
M  V30 5797 C 521.936 2.26447 2.62531 0
M  V30 5798 C 520.997 3.49632 2.4911 0
M  V30 5799 C 520.23 3.79017 3.75742 0
M  V30 5800 O 520.453 3.10077 4.78757 0
M  V30 5801 O 519.387 4.72507 3.72855 0
M  V30 5802 H 523.213 2.8711 0.990035 0
M  V30 5803 H 520.798 1.43244 0.424434 0
M  V30 5804 H 522.68 2.47494 3.41064 0
M  V30 5805 H 521.355 1.38092 2.92766 0
M  V30 5806 H 520.262 3.33864 1.68777 0
M  V30 5807 H 521.595 4.3837 2.23814 0
M  V30 5808 N 523.247 -0.488276 1.49845 0
M  V30 5809 C 524.177 -1.59675 1.70371 0
M  V30 5810 C 525.158 -1.60878 0.552473 0
M  V30 5811 O 526.343 -1.77417 0.78973 0
M  V30 5812 C 523.473 -2.98098 1.782 0
M  V30 5813 C 522.427 -3.11761 2.93239 0
M  V30 5814 C 521.753 -4.51661 2.86193 0
M  V30 5815 C 523.053 -2.90589 4.33999 0
M  V30 5816 H 524.747 -1.42752 2.63177 0
M  V30 5817 H 522.293 -0.685317 1.26647 0
M  V30 5818 H 524.246 -3.75555 1.91144 0
M  V30 5819 H 522.97 -3.16138 0.820018 0
M  V30 5820 H 521.629 -2.36732 2.79917 0
M  V30 5821 H 521.277 -4.66595 1.87877 0
M  V30 5822 H 520.977 -4.61742 3.63412 0
M  V30 5823 H 522.501 -5.31162 3.01163 0
M  V30 5824 H 523.915 -3.57807 4.47936 0
M  V30 5825 H 522.312 -3.1213 5.12538 0
M  V30 5826 H 523.382 -1.86595 4.4756 0
M  V30 5827 N 524.725 -1.39134 -0.740242 0
M  V30 5828 C 525.673 -1.3757 -1.87556 0
M  V30 5829 C 526.667 -0.259593 -1.67399 0
M  V30 5830 O 527.873 -0.429349 -1.74804 0
M  V30 5831 H 524.248 -0.42947 -0.6173 0
M  V30 5832 H 526.219 -2.33345 -1.85991 0
M  V30 5833 C 524.968 -1.23087 -3.25184 0
M  V30 5834 H 524.291 -2.08237 -3.41288 0
M  V30 5835 H 525.731 -1.26049 -4.0483 0
M  V30 5836 C 524.19 0.0611471 -3.36845 0
M  V30 5837 O 524.72 1.03328 -3.88183 0
M  V30 5838 N 522.926 0.122454 -2.90342 0
M  V30 5839 H 522.473 -0.669329 -2.48752 0
M  V30 5840 H 522.431 0.986463 -2.98523 0
M  V30 5841 N 526.204 0.969867 -1.24223 0
M  V30 5842 C 527.481 1.68774 -0.988664 0
M  V30 5843 C 527.861 2.05342 0.489673 0
M  V30 5844 O 527.209 1.75486 1.46345 0
M  V30 5845 C 527.419 2.92135 -1.90941 0
M  V30 5846 C 528.767 3.64422 -2.17903 0
M  V30 5847 O 529.791 3.02188 -1.88576 0
M  V30 5848 O 528.65 4.76446 -2.67697 0
M  V30 5849 H 525.744 0.737736 -0.37373 0
M  V30 5850 H 528.29 1.02415 -1.35312 0
M  V30 5851 H 527.062 2.61788 -2.90831 0
M  V30 5852 H 526.685 3.66228 -1.54798 0
M  V30 5853 N 527.682 1.05563 1.17022 0
M  V30 5854 C 528.592 0.670758 2.24807 0
M  V30 5855 C 529.608 -0.309865 1.71219 0
M  V30 5856 O 530.784 -0.161025 2.00755 0
M  V30 5857 C 527.849 0.055337 3.46656 0
M  V30 5858 C 526.91 1.08688 4.15314 0
M  V30 5859 C 526.143 0.500736 5.31346 0
M  V30 5860 O 526.366 -0.688718 5.66227 0
M  V30 5861 O 525.3 1.23683 5.89055 0
M  V30 5862 H 529.126 1.56914 2.60023 0
M  V30 5863 H 526.711 0.827428 1.24395 0
M  V30 5864 H 528.593 -0.286492 4.20425 0
M  V30 5865 H 527.268 -0.816638 3.13229 0
M  V30 5866 H 526.175 1.48077 3.43546 0
M  V30 5867 H 527.508 1.93014 4.52777 0
M  V30 5868 N 529.16 -1.33526 0.837174 0
M  V30 5869 C 530.107 -2.29248 0.267169 0
M  V30 5870 C 531.077 -1.54252 -0.616071 0
M  V30 5871 O 532.262 -1.82559 -0.554699 0
M  V30 5872 C 529.402 -3.40638 -0.553152 0
M  V30 5873 C 528.515 -4.30548 0.353921 0
M  V30 5874 C 527.65 -5.29051 -0.477339 0
M  V30 5875 C 526.689 -6.106 0.42823 0
M  V30 5876 N 525.826 -7.01152 -0.364801 0
M  V30 5877 H 530.666 -2.77398 1.08877 0
M  V30 5878 H 528.203 -1.36496 0.54838 0
M  V30 5879 H 530.161 -4.03921 -1.04422 0
M  V30 5880 H 528.791 -2.93685 -1.33973 0
M  V30 5881 H 527.843 -3.68001 0.963289 0
M  V30 5882 H 529.155 -4.87631 1.04964 0
M  V30 5883 H 528.309 -5.97853 -1.0323 0
M  V30 5884 H 527.048 -4.72541 -1.2065 0
M  V30 5885 H 526.053 -5.40718 0.995219 0
M  V30 5886 H 527.278 -6.69193 1.15573 0
M  V30 5887 H 525.224 -6.47092 -1.07738 0
M  V30 5888 H 525.141 -7.5551 0.272238 0
M  V30 5889 H 526.409 -7.74263 -0.902054 0
M  V30 5890 N 530.638 -0.59345 -1.46 0
M  V30 5891 C 531.601 0.123538 -2.28867 0
M  V30 5892 C 532.601 0.808628 -1.38989 0
M  V30 5893 O 533.791 0.658945 -1.61256 0
M  V30 5894 C 530.923 1.1847 -3.19653 0
M  V30 5895 H 532.116 -0.604843 -2.93737 0
M  V30 5896 H 529.669 -0.351875 -1.52288 0
M  V30 5897 H 530.404 1.94431 -2.59552 0
M  V30 5898 H 530.189 0.69783 -3.8584 0
M  V30 5899 H 531.679 1.68726 -3.81997 0
M  V30 5900 N 532.116 1.54067 -0.331816 0
M  V30 5901 C 533.346 2.04833 0.269605 0
M  V30 5902 C 533.754 1.20714 1.45687 0
M  V30 5903 O 533.097 0.232539 1.82222 0
M  V30 5904 C 533.159 3.51386 0.759499 0
M  V30 5905 C 532.823 4.55971 -0.306557 0
M  V30 5906 C 533.82 5.07126 -1.14538 0
M  V30 5907 C 531.505 5.00216 -0.457116 0
M  V30 5908 C 533.499 6.01096 -2.12042 0
M  V30 5909 C 531.186 5.93999 -1.43556 0
M  V30 5910 C 532.184 6.44326 -2.26568 0
M  V30 5911 O 531.872 7.36267 -3.22749 0
M  V30 5912 H 531.604 0.673509 0.0579763 0
M  V30 5913 H 534.158 1.99748 -0.478521 0
M  V30 5914 H 532.388 3.53896 1.55867 0
M  V30 5915 H 534.077 3.85184 1.28017 0
M  V30 5916 H 534.843 4.73716 -1.04009 0
M  V30 5917 H 530.722 4.60652 0.179142 0
M  V30 5918 H 534.266 6.40302 -2.76873 0
M  V30 5919 H 530.163 6.26825 -1.54146 0
M  V30 5920 H 530.931 7.54165 -3.18083 0
M  V30 5921 N 533.594 0.0601682 1.57485 0
M  V30 5922 C 534.541 -0.91112 2.12055 0
M  V30 5923 C 535.511 -1.30298 1.03013 0
M  V30 5924 O 536.696 -1.39087 1.30612 0
M  V30 5925 C 533.836 -2.1775 2.67729 0
M  V30 5926 C 532.949 -1.83933 3.90887 0
M  V30 5927 C 532.084 -3.05096 4.34845 0
M  V30 5928 C 531.123 -2.67241 5.5068 0
M  V30 5929 N 530.26 -3.81127 5.8965 0
M  V30 5930 H 535.1 -0.43888 2.9475 0
M  V30 5931 H 532.637 -0.204995 1.45665 0
M  V30 5932 H 534.595 -2.91866 2.98111 0
M  V30 5933 H 533.225 -2.62535 1.87816 0
M  V30 5934 H 532.277 -0.999287 3.6704 0
M  V30 5935 H 533.589 -1.52074 4.75052 0
M  V30 5936 H 532.743 -3.87502 4.66827 0
M  V30 5937 H 531.482 -3.40139 3.49509 0
M  V30 5938 H 530.487 -1.83254 5.18361 0
M  V30 5939 H 531.712 -2.3338 6.37738 0
M  V30 5940 H 529.658 -4.15954 5.07266 0
M  V30 5941 H 529.575 -3.52997 6.68528 0
M  V30 5942 H 530.843 -4.64145 6.2625 0
M  V30 5943 N 535.072 -1.5615 -0.213296 0
M  V30 5944 C 536.004 -1.89586 -1.28802 0
M  V30 5945 C 537.017 -0.784844 -1.42633 0
M  V30 5946 O 538.206 -1.06319 -1.43383 0
M  V30 5947 C 535.306 -2.09665 -2.66259 0
M  V30 5948 C 534.479 -3.40726 -2.7427 0
M  V30 5949 C 533.538 -3.50137 -3.92798 0
M  V30 5950 O 532.564 -4.23105 -3.8075 0
M  V30 5951 N 533.766 -2.81886 -5.07465 0
M  V30 5952 H 536.531 -2.82368 -1.00442 0
M  V30 5953 H 534.092 -1.56796 -0.403302 0
M  V30 5954 H 536.084 -2.13268 -3.43946 0
M  V30 5955 H 534.654 -1.23469 -2.87183 0
M  V30 5956 H 533.874 -3.4915 -1.82997 0
M  V30 5957 H 535.162 -4.27048 -2.76599 0
M  V30 5958 H 534.56 -2.22397 -5.2015 0
M  V30 5959 H 533.117 -2.91139 -5.83165 0
M  V30 5960 N 536.55 0.480323 -1.50102 0
M  V30 5961 C 537.48 1.58769 -1.71215 0
M  V30 5962 C 538.461 1.60583 -0.560997 0
M  V30 5963 O 539.646 1.76996 -0.799127 0
M  V30 5964 C 536.776 2.97148 -1.79778 0
M  V30 5965 C 535.73 3.10201 -2.94888 0
M  V30 5966 C 535.056 4.50137 -2.88584 0
M  V30 5967 C 536.356 2.88283 -4.35534 0
M  V30 5968 H 538.05 1.41354 -2.6393 0
M  V30 5969 H 535.596 0.678591 -1.27008 0
M  V30 5970 H 537.549 3.74536 -1.93133 0
M  V30 5971 H 536.273 3.15699 -0.836772 0
M  V30 5972 H 534.932 2.35244 -2.81169 0
M  V30 5973 H 534.58 4.65593 -1.90349 0
M  V30 5974 H 534.28 4.59808 -3.65856 0
M  V30 5975 H 535.804 5.29558 -3.03976 0
M  V30 5976 H 537.218 3.55427 -4.49827 0
M  V30 5977 H 535.615 3.09408 -5.14186 0
M  V30 5978 H 536.685 1.84219 -4.48544 0
M  V30 5979 N 538.028 1.39524 0.732853 0
M  V30 5980 C 538.961 1.32806 1.85574 0
M  V30 5981 C 539.939 0.201354 1.61348 0
M  V30 5982 O 541.123 0.38216 1.84585 0
M  V30 5983 C 538.25 1.06271 3.21596 0
M  V30 5984 C 537.296 2.21161 3.64678 0
M  V30 5985 S 538.129 3.83454 3.73796 0
M  V30 5986 C 539.285 3.59149 5.12604 0
M  V30 5987 H 539.518 2.27838 1.9099 0
M  V30 5988 H 537.051 1.25605 0.897927 0
M  V30 5989 H 539.009 0.916461 4.00139 0
M  V30 5990 H 537.67 0.129223 3.13834 0
M  V30 5991 H 536.863 1.98193 4.63396 0
M  V30 5992 H 536.465 2.32 2.93346 0
M  V30 5993 H 538.757 3.16547 5.99003 0
M  V30 5994 H 539.7 4.57335 5.40602 0
M  V30 5995 H 540.108 2.93203 4.82382 0
M  V30 5996 N 539.506 -0.963266 1.24736 0
M  V30 5997 C 540.731 -1.74699 1.11781 0
M  V30 5998 C 541.156 -1.85267 -0.325258 0
M  V30 5999 O 540.514 -1.32681 -1.23553 0
M  V30 6000 C 540.562 -3.14322 1.76731 0
M  V30 6001 O 539.666 -3.99043 1.04109 0
M  V30 6002 H 539.007 -0.53684 0.390767 0
M  V30 6003 H 541.537 -1.20801 1.65131 0
M  V30 6004 H 541.547 -3.64824 1.82668 0
M  V30 6005 H 540.222 -3.05946 2.81726 0
M  V30 6006 H 538.799 -3.5752 1.05991 0
M  V30 6007 N 540.985 -1.06182 -1.16461 0
M  V30 6008 C 541.948 -0.675723 -2.19013 0
M  V30 6009 C 542.948 0.277963 -1.58379 0
M  V30 6010 O 544.138 0.0604962 -1.74095 0
M  V30 6011 C 541.27 0.00591459 -3.40899 0
M  V30 6012 H 542.463 -1.58353 -2.54685 0
M  V30 6013 H 540.016 -0.856908 -1.30716 0
M  V30 6014 H 540.751 0.92652 -3.10783 0
M  V30 6015 H 540.536 -0.67984 -3.86161 0
M  V30 6016 H 542.026 0.26181 -4.16778 0
M  V30 6017 N 542.463 1.3308 -0.844243 0
M  V30 6018 C 543.712 1.96868 -0.438833 0
M  V30 6019 C 544.025 1.67599 1.00846 0
M  V30 6020 O 545.231 2.25043 1.51881 0
M  V30 6021 C 543.687 3.5234 -0.73377 0
M  V30 6022 C 543.295 3.90481 -2.1961 0
M  V30 6023 C 545.039 4.22653 -0.395574 0
M  V30 6024 C 542.946 5.38954 -2.43481 0
M  V30 6025 H 541.876 0.736749 -0.160364 0
M  V30 6026 H 544.527 1.51623 -1.03358 0
M  V30 6027 H 542.909 3.95941 -0.068589 0
M  V30 6028 H 544.083 3.57922 -2.90221 0
M  V30 6029 H 542.398 3.33165 -2.4978 0
M  V30 6030 H 544.995 5.31848 -0.551477 0
M  V30 6031 H 545.338 4.11004 0.661921 0
M  V30 6032 H 545.871 3.84601 -1.01621 0
M  V30 6033 H 542.61 5.55612 -3.47816 0
M  V30 6034 H 542.13 5.72954 -1.77437 0
M  V30 6035 H 543.809 6.05907 -2.26905 0
M  V30 6036 N 543.941 0.601185 1.45683 0
M  V30 6037 C 545.357 0.264315 1.57396 0
M  V30 6038 C 545.557 -1.23324 1.59353 0
M  V30 6039 O 544.613 -2.01594 1.52039 0
M  V30 6040 C 545.926 0.929839 2.85962 0
M  V30 6041 C 547.474 0.905156 2.99626 0
M  V30 6042 C 547.949 1.55057 4.30954 0
M  V30 6043 N 549.44 1.51576 4.37697 0
M  V30 6044 C 550.175 1.98436 5.37969 0
M  V30 6045 N 549.671 2.53352 6.44813 0
M  V30 6046 N 551.464 1.89242 5.29286 0
M  V30 6047 H 543.615 1.57363 1.42656 0
M  V30 6048 H 545.878 0.658831 0.681649 0
M  V30 6049 H 545.584 1.98404 2.90394 0
M  V30 6050 H 545.458 0.449224 3.74515 0
M  V30 6051 H 547.845 -0.14048 2.94765 0
M  V30 6052 H 547.926 1.42397 2.12501 0
M  V30 6053 H 547.57 2.5955 4.36573 0
M  V30 6054 H 547.5 1.00682 5.16886 0
M  V30 6055 H 549.991 1.11452 3.61091 0
M  V30 6056 H 550.304 2.86918 7.17564 0
M  V30 6057 H 548.649 2.57388 6.45582 0
M  V30 6058 H 551.84 1.46083 4.44722 0
M  V30 6059 H 552.013 2.26075 6.07284 0
M  V30 6060 N 545.419 -1.53889 0.339982 0
M  V30 6061 C 546.366 -2.24902 -0.518452 0
M  V30 6062 C 547.336 -1.24593 -1.09844 0
M  V30 6063 O 548.521 -1.53317 -1.13572 0
M  V30 6064 C 545.661 -3.02262 -1.66529 0
M  V30 6065 C 544.774 -4.17418 -1.11295 0
M  V30 6066 C 543.909 -4.82273 -2.2268 0
M  V30 6067 C 542.948 -5.89503 -1.6478 0
M  V30 6068 N 542.085 -6.48153 -2.69893 0
M  V30 6069 H 546.925 -2.97853 0.0936579 0
M  V30 6070 H 544.462 -1.46986 0.0579924 0
M  V30 6071 H 546.42 -3.45371 -2.3404 0
M  V30 6072 H 545.05 -2.31614 -2.24844 0
M  V30 6073 H 544.102 -3.78976 -0.328886 0
M  V30 6074 H 545.414 -4.94554 -0.649414 0
M  V30 6075 H 544.568 -5.28435 -2.98063 0
M  V30 6076 H 543.307 -4.04552 -2.72376 0
M  V30 6077 H 542.312 -5.42728 -0.879004 0
M  V30 6078 H 543.537 -6.6913 -1.1594 0
M  V30 6079 H 541.483 -5.73298 -3.1885 0
M  V30 6080 H 541.4 -7.20752 -2.28151 0
M  V30 6081 H 542.668 -6.98968 -3.45056 0
M  V30 6082 N 546.897 -0.0685191 -1.57451 0
M  V30 6083 C 548.127 0.609577 -1.97402 0
M  V30 6084 C 548.535 1.63882 -0.945489 0
M  V30 6085 O 547.878 1.8354 0.0766052 0
M  V30 6086 C 547.94 1.3385 -3.33653 0
M  V30 6087 C 547.604 0.463103 -4.54648 0
M  V30 6088 C 548.601 -0.277964 -5.19156 0
M  V30 6089 C 546.286 0.388941 -5.00792 0
M  V30 6090 C 548.28 -1.08145 -6.28159 0
M  V30 6091 C 545.967 -0.418217 -6.09667 0
M  V30 6092 C 546.965 -1.15208 -6.73213 0
M  V30 6093 O 546.653 -1.94594 -7.79993 0
M  V30 6094 H 546.385 0.170197 -0.654224 0
M  V30 6095 H 548.939 -0.13647 -2.04946 0
M  V30 6096 H 547.169 2.13055 -3.22714 0
M  V30 6097 H 548.858 1.90851 -3.58233 0
M  V30 6098 H 549.624 -0.230241 -4.84453 0
M  V30 6099 H 545.503 0.949769 -4.5111 0
M  V30 6100 H 549.047 -1.65476 -6.7769 0
M  V30 6101 H 544.944 -0.467515 -6.43805 0
M  V30 6102 H 545.712 -1.8699 -7.96854 0
M  V30 6103 N 548.375 1.56261 0.205012 0
M  V30 6104 C 549.621 1.80306 0.9283 0
M  V30 6105 C 549.954 0.640932 1.83319 0
M  V30 6106 O 549.229 -0.359032 1.91158 0
M  V30 6107 C 549.512 3.14547 1.75306 0
M  V30 6108 C 549.365 4.41236 0.873562 0
M  V30 6109 C 550.684 3.45382 2.72762 0
M  V30 6110 H 547.803 0.655929 0.336044 0
M  V30 6111 H 550.445 1.88984 0.196211 0
M  V30 6112 H 548.595 3.0728 2.37721 0
M  V30 6113 H 550.267 4.60539 0.264887 0
M  V30 6114 H 548.51 4.33427 0.179773 0
M  V30 6115 H 549.181 5.31639 1.48541 0
M  V30 6116 H 551.657 3.52884 2.20481 0
M  V30 6117 H 550.533 4.40449 3.2756 0
M  V30 6118 H 550.794 2.68377 3.51321 0
M  V30 6119 N 549.853 -0.472356 1.50355 0
M  V30 6120 C 551.081 -1.24784 1.65035 0
M  V30 6121 C 551.496 -1.85837 0.333176 0
M  V30 6122 O 550.853 -1.69168 -0.68472 0
M  V30 6123 C 550.904 -2.35747 2.74054 0
M  V30 6124 O 550.625 -1.77197 4.00665 0
M  V30 6125 C 552.126 -3.26645 2.99696 0
M  V30 6126 H 549.346 -0.377432 0.554785 0
M  V30 6127 H 551.89 -0.563962 1.9657 0
M  V30 6128 H 550.045 -2.99912 2.45217 0
M  V30 6129 H 550.459 -2.5026 4.60945 0
M  V30 6130 H 551.933 -4.00718 3.79644 0
M  V30 6131 H 552.41 -3.8535 2.10718 0
M  V30 6132 H 553.016 -2.68218 3.3006 0
M  V30 6133 N 551.331 -1.39911 -0.725443 0
M  V30 6134 C 552.559 -1.40949 -1.51463 0
M  V30 6135 C 552.974 -0.0065242 -1.88799 0
M  V30 6136 O 552.331 0.967163 -1.54765 0
M  V30 6137 C 552.382 -2.29119 -2.79619 0
M  V30 6138 O 552.103 -3.63952 -2.43866 0
M  V30 6139 C 553.604 -2.38642 -3.73584 0
M  V30 6140 H 550.824 -0.481091 -0.467752 0
M  V30 6141 H 553.368 -1.83843 -0.895651 0
M  V30 6142 H 551.523 -1.89612 -3.37826 0
M  V30 6143 H 551.937 -4.10677 -3.26258 0
M  V30 6144 H 553.411 -3.04563 -4.60375 0
M  V30 6145 H 553.888 -1.40846 -4.16004 0
M  V30 6146 H 554.494 -2.78659 -3.21293 0
M  V30 6147 N 552.809 0.956637 -1.25245 0
M  V30 6148 C 553.739 2.07058 -1.07931 0
M  V30 6149 C 554.72 1.70096 0.0110361 0
M  V30 6150 O 555.905 1.93555 -0.158121 0
M  V30 6151 C 553.035 3.40272 -0.695124 0
M  V30 6152 C 551.989 3.91235 -1.73549 0
M  V30 6153 C 551.315 5.20921 -1.20604 0
M  V30 6154 C 552.615 4.17837 -3.13385 0
M  V30 6155 H 554.309 2.218 -2.01109 0
M  V30 6156 H 551.855 1.06581 -0.968326 0
M  V30 6157 H 553.808 4.1765 -0.560949 0
M  V30 6158 H 552.532 3.25462 0.272355 0
M  V30 6159 H 551.191 3.16025 -1.85807 0
M  V30 6160 H 550.839 5.02479 -0.228846 0
M  V30 6161 H 550.539 5.55987 -1.90136 0
M  V30 6162 H 552.063 6.00897 -1.08421 0
M  V30 6163 H 553.477 4.8588 -3.04292 0
M  V30 6164 H 551.874 4.64154 -3.80369 0
M  V30 6165 H 552.944 3.2419 -3.60595 0
M  V30 6166 N 554.287 1.06798 1.15896 0
M  V30 6167 C 555.515 0.808694 1.90441 0
M  V30 6168 C 555.93 -0.637506 1.77711 0
M  V30 6169 O 555.287 -1.43684 1.12522 0
M  V30 6170 C 555.338 1.20068 3.40978 0
M  V30 6171 O 555.059 2.59013 3.53333 0
M  V30 6172 C 556.56 0.96987 4.3256 0
M  V30 6173 H 553.78 0.292809 0.603742 0
M  V30 6174 H 556.324 1.42296 1.46874 0
M  V30 6175 H 554.479 0.630842 3.82229 0
M  V30 6176 H 554.893 2.7485 4.46719 0
M  V30 6177 H 556.367 1.29371 5.36626 0
M  V30 6178 H 556.844 -0.0941209 4.39099 0
M  V30 6179 H 557.45 1.52433 3.97044 0
M  V30 6180 N 555.766 -1.3263 0.851289 0
M  V30 6181 C 556.713 -2.28952 0.291469 0
M  V30 6182 C 557.683 -1.54897 -0.599676 0
M  V30 6183 O 558.868 -1.83137 -0.535305 0
M  V30 6184 C 556.008 -3.41206 -0.516992 0
M  V30 6185 C 555.121 -4.30148 0.399566 0
M  V30 6186 C 554.256 -5.29527 -0.4212 0
M  V30 6187 C 553.295 -6.10112 0.492969 0
M  V30 6188 N 552.432 -7.01499 -0.290414 0
M  V30 6189 H 557.272 -2.76228 1.11813 0
M  V30 6190 H 554.809 -1.35907 0.562826 0
M  V30 6191 H 556.767 -4.05005 -1.00132 0
M  V30 6192 H 555.397 -2.9509 -1.30851 0
M  V30 6193 H 554.449 -3.66959 1.00227 0
M  V30 6194 H 555.761 -4.8649 1.1013 0
M  V30 6195 H 554.915 -5.98914 -0.968832 0
M  V30 6196 H 553.654 -4.73794 -1.15632 0
M  V30 6197 H 552.659 -5.39632 1.05251 0
M  V30 6198 H 553.884 -6.6793 1.22664 0
M  V30 6199 H 551.83 -6.48199 -1.00868 0
M  V30 6200 H 551.747 -7.55178 0.352354 0
M  V30 6201 H 553.015 -7.75176 -0.819882 0
M  V30 6202 N 557.244 -0.608902 -1.45362 0
M  V30 6203 C 558.207 0.0992563 -2.28985 0
M  V30 6204 C 559.207 0.793841 -1.39838 0
M  V30 6205 O 560.397 0.641804 -1.61946 0
M  V30 6206 C 557.529 1.15073 -3.20891 0
M  V30 6207 H 558.722 -0.635964 -2.93079 0
M  V30 6208 H 556.275 -0.368007 -1.51906 0
M  V30 6209 H 557.01 1.91667 -2.616 0
M  V30 6210 H 556.795 0.656867 -3.86559 0
M  V30 6211 H 558.285 1.64665 -3.83765 0
M  V30 6212 N 558.722 1.53707 -0.348139 0
M  V30 6213 C 559.999 1.93247 0.302475 0
M  V30 6214 C 560.379 1.28012 1.67857 0
M  V30 6215 O 559.727 0.43274 2.24365 0
M  V30 6216 C 559.937 3.47031 0.370159 0
M  V30 6217 C 561.285 4.20066 0.61882 0
M  V30 6218 O 562.309 3.53319 0.452087 0
M  V30 6219 O 561.168 5.38318 0.94215 0
M  V30 6220 H 558.262 0.807736 0.177458 0
M  V30 6221 H 560.808 1.64927 -0.399651 0
M  V30 6222 H 559.58 3.86745 -0.59534 0
M  V30 6223 H 559.203 3.81532 1.11888 0
M  V30 6224 N 560.2 0.0768682 1.57412 0
M  V30 6225 C 561.425 -0.603404 1.98428 0
M  V30 6226 C 561.85 -1.62047 0.955108 0
M  V30 6227 O 561.208 -1.81129 -0.0786778 0
M  V30 6228 C 561.256 -1.24396 3.38464 0
M  V30 6229 O 560.36 -2.35982 3.3821 0
M  V30 6230 H 559.701 -0.154741 0.645718 0
M  V30 6231 H 562.231 0.152885 2.04028 0
M  V30 6232 H 562.241 -1.5896 3.7576 0
M  V30 6233 H 560.916 -0.498735 4.12899 0
M  V30 6234 H 559.493 -2.03173 3.1269 0
M  V30 6235 N 561.678 -1.56367 -0.196722 0
M  V30 6236 C 562.955 -1.71359 -0.943159 0
M  V30 6237 C 563.335 -0.631192 -2.01443 0
M  V30 6238 O 562.683 0.358071 -2.25677 0
M  V30 6239 C 562.893 -3.13623 -1.53106 0
M  V30 6240 C 564.241 -3.73806 -2.01381 0
M  V30 6241 O 565.265 -3.16742 -1.62951 0
M  V30 6242 O 564.124 -4.73951 -2.7209 0
M  V30 6243 H 561.218 -0.698851 -0.442195 0
M  V30 6244 H 563.764 -1.68672 -0.186547 0
M  V30 6245 H 562.536 -3.83873 -0.758785 0
M  V30 6246 H 562.159 -3.20532 -2.35255 0
M  V30 6247 N 563.156 0.464375 -1.50603 0
M  V30 6248 C 564.405 1.21277 -1.61167 0
M  V30 6249 C 564.718 1.92953 -0.320704 0
M  V30 6250 O 565.924 2.69778 -0.30534 0
M  V30 6251 C 564.38 2.20403 -2.84518 0
M  V30 6252 C 563.988 1.54499 -4.20516 0
M  V30 6253 C 565.732 2.95843 -3.0443 0
M  V30 6254 C 563.639 2.51951 -5.35047 0
M  V30 6255 H 562.569 0.456367 -0.600204 0
M  V30 6256 H 565.22 0.48254 -1.77042 0
M  V30 6257 H 563.602 2.96746 -2.62217 0
M  V30 6258 H 564.776 0.83899 -4.53098 0
M  V30 6259 H 563.091 0.913152 -4.06264 0
M  V30 6260 H 565.688 3.6879 -3.87167 0
M  V30 6261 H 566.031 3.55622 -2.16423 0
M  V30 6262 H 566.564 2.26611 -3.26944 0
M  V30 6263 H 563.303 1.96901 -6.25228 0
M  V30 6264 H 562.823 3.20683 -5.06875 0
M  V30 6265 H 564.502 3.13643 -5.65895 0
M  V30 6266 N 564.634 1.40294 0.718013 0
M  V30 6267 C 565.862 1.4175 1.50714 0
M  V30 6268 C 566.277 0.0165366 1.88793 0
M  V30 6269 O 565.634 -0.958942 1.55276 0
M  V30 6270 C 565.685 2.30598 2.784 0
M  V30 6271 O 565.406 3.6524 2.41932 0
M  V30 6272 C 566.907 2.4062 3.72313 0
M  V30 6273 H 564.127 0.483565 0.465194 0
M  V30 6274 H 566.671 1.84316 0.885889 0
M  V30 6275 H 564.826 1.91401 3.36815 0
M  V30 6276 H 565.24 4.12402 3.24076 0
M  V30 6277 H 566.714 3.07001 4.58753 0
M  V30 6278 H 567.191 1.4305 4.15251 0
M  V30 6279 H 567.797 2.80359 3.19811 0
M  V30 6280 N 566.112 -0.949982 1.2575 0
M  V30 6281 C 567.342 -1.72721 1.13363 0
M  V30 6282 C 567.75 -1.86562 -0.314842 0
M  V30 6283 O 567.093 -1.36621 -1.22803 0
M  V30 6284 C 567.155 -3.15695 1.7198 0
M  V30 6285 C 566.819 -3.25268 3.21014 0
M  V30 6286 C 567.816 -3.09222 4.17945 0
M  V30 6287 C 565.501 -3.4894 3.61312 0
M  V30 6288 C 567.495 -3.16701 5.53154 0
M  V30 6289 C 565.182 -3.56055 4.96657 0
M  V30 6290 C 566.18 -3.3995 5.92387 0
M  V30 6291 O 565.868 -3.46757 7.25269 0
M  V30 6292 H 565.6 -0.547888 0.395973 0
M  V30 6293 H 568.154 -1.20009 1.66694 0
M  V30 6294 H 566.384 -3.69791 1.13101 0
M  V30 6295 H 568.073 -3.75295 1.54624 0
M  V30 6296 H 568.839 -2.90798 3.88151 0
M  V30 6297 H 564.718 -3.60534 2.87291 0
M  V30 6298 H 568.262 -3.04048 6.27854 0
M  V30 6299 H 564.159 -3.73997 5.26115 0
M  V30 6300 H 564.927 -3.63358 7.33426 0
M  V30 6301 N 567.59 -1.07411 -1.15328 0
M  V30 6302 C 568.837 -0.797649 -1.86128 0
M  V30 6303 C 569.165 0.676298 -1.82364 0
M  V30 6304 O 568.42 1.51223 -1.24218 0
M  V30 6305 C 568.719 -1.25191 -3.34757 0
M  V30 6306 C 568.385 -2.73191 -3.58716 0
M  V30 6307 C 567.047 -3.13616 -3.64964 0
M  V30 6308 C 569.399 -3.68718 -3.6837 0
M  V30 6309 C 566.727 -4.48383 -3.78377 0
M  V30 6310 C 569.079 -5.03248 -3.83306 0
M  V30 6311 C 567.743 -5.43293 -3.878 0
M  V30 6312 H 567.013 -0.29188 -0.681092 0
M  V30 6313 H 569.66 -1.34524 -1.36292 0
M  V30 6314 H 567.965 -0.623712 -3.86804 0
M  V30 6315 H 569.662 -1.01489 -3.87945 0
M  V30 6316 H 566.252 -2.40898 -3.54494 0
M  V30 6317 H 570.436 -3.38614 -3.62842 0
M  V30 6318 H 565.692 -4.78877 -3.80114 0
M  V30 6319 H 569.866 -5.77142 -3.89718 0
M  V30 6320 H 567.493 -6.47721 -3.97946 0
M  V30 6321 N 569.068 1.32177 -0.85831 0
M  V30 6322 C 570.314 1.97417 -0.46417 0
M  V30 6323 C 570.647 1.67746 0.978514 0
M  V30 6324 O 569.922 0.967654 1.68721 0
M  V30 6325 C 570.205 3.53069 -0.708094 0
M  V30 6326 C 570.058 3.92357 -2.19946 0
M  V30 6327 C 571.377 4.39783 -0.166881 0
M  V30 6328 H 568.496 0.717097 -0.17012 0
M  V30 6329 H 571.138 1.56499 -1.07741 0
M  V30 6330 H 569.288 3.88054 -0.186128 0
M  V30 6331 H 570.96 3.67533 -2.78779 0
M  V30 6332 H 569.203 3.41384 -2.67656 0
M  V30 6333 H 569.874 5.00841 -2.32082 0
M  V30 6334 H 572.35 4.11556 -0.613285 0
M  V30 6335 H 571.226 5.47671 -0.367093 0
M  V30 6336 H 571.487 4.32196 0.930559 0
M  V30 6337 N 570.547 0.616602 1.45037 0
M  V30 6338 C 571.494 -0.0969439 2.30596 0
M  V30 6339 C 572.464 -0.851151 1.42635 0
M  V30 6340 O 573.649 -0.835092 1.71554 0
M  V30 6341 C 570.789 -1.08234 3.27688 0
M  V30 6342 C 569.902 -0.328072 4.30752 0
M  V30 6343 C 569.037 -1.30399 5.14946 0
M  V30 6344 C 568.076 -0.538049 6.09731 0
M  V30 6345 N 567.213 -1.46371 6.86673 0
M  V30 6346 H 572.053 0.63864 2.91076 0
M  V30 6347 H 569.59 0.326733 1.43425 0
M  V30 6348 H 571.548 -1.66688 3.82454 0
M  V30 6349 H 570.178 -1.78523 2.68941 0
M  V30 6350 H 569.23 0.372136 3.78575 0
M  V30 6351 H 570.542 0.269142 4.98073 0
M  V30 6352 H 569.696 -1.96032 5.74157 0
M  V30 6353 H 568.435 -1.93514 4.47665 0
M  V30 6354 H 567.44 0.131852 5.49642 0
M  V30 6355 H 568.665 0.0881732 6.79043 0
M  V30 6356 H 566.611 -2.08233 6.22073 0
M  V30 6357 H 566.528 -0.920152 7.50379 0
M  V30 6358 H 567.796 -2.10932 7.50418 0
M  V30 6359 N 572.025 -1.5352 0.356285 0
M  V30 6360 C 572.957 -2.23009 -0.529127 0
M  V30 6361 C 573.97 -1.241 -1.05371 0
M  V30 6362 O 575.159 -1.50379 -0.961679 0
M  V30 6363 C 572.259 -2.90685 -1.74229 0
M  V30 6364 C 571.432 -4.16019 -1.35081 0
M  V30 6365 C 570.491 -4.66989 -2.42502 0
M  V30 6366 O 569.517 -5.30895 -2.05279 0
M  V30 6367 N 570.719 -4.44006 -3.7395 0
M  V30 6368 H 573.484 -2.99627 0.0660501 0
M  V30 6369 H 571.045 -1.60885 0.181014 0
M  V30 6370 H 573.037 -3.21695 -2.4555 0
M  V30 6371 H 571.607 -2.17575 -2.24454 0
M  V30 6372 H 570.827 -3.91414 -0.467833 0
M  V30 6373 H 572.115 -4.9752 -1.06542 0
M  V30 6374 H 571.513 -3.92924 -4.06973 0
M  V30 6375 H 570.07 -4.7959 -4.41403 0
M  V30 6376 N 573.503 -0.0852151 -1.57369 0
M  V30 6377 C 574.433 0.874556 -2.16503 0
M  V30 6378 C 575.414 1.30111 -1.09568 0
M  V30 6379 O 576.599 1.36977 -1.37662 0
M  V30 6380 C 573.729 2.13731 -2.73745 0
M  V30 6381 C 572.683 1.84971 -3.85966 0
M  V30 6382 C 572.009 3.17991 -4.29867 0
M  V30 6383 C 573.309 1.14442 -5.09608 0
M  V30 6384 H 575.003 0.381899 -2.96954 0
M  V30 6385 H 572.549 0.18225 -1.42842 0
M  V30 6386 H 574.502 2.81302 -3.13763 0
M  V30 6387 H 573.226 2.65263 -1.90534 0
M  V30 6388 H 571.885 1.19801 -3.46473 0
M  V30 6389 H 571.533 3.6739 -3.4356 0
M  V30 6390 H 571.233 2.99534 -5.05523 0
M  V30 6391 H 572.757 3.86737 -4.72511 0
M  V30 6392 H 574.171 1.72105 -5.46857 0
M  V30 6393 H 572.568 1.06197 -5.90629 0
M  V30 6394 H 573.638 0.12559 -4.84737 0
M  V30 6395 N 574.981 1.5647 0.188427 0
M  V30 6396 C 576.258 1.71857 0.934058 0
M  V30 6397 C 576.638 0.641867 2.01105 0
M  V30 6398 O 575.986 -0.346098 2.25864 0
M  V30 6399 C 576.196 3.14431 1.5144 0
M  V30 6400 C 577.544 3.74869 1.99396 0
M  V30 6401 O 578.568 3.17601 1.61269 0
M  V30 6402 O 577.427 4.75387 2.69573 0
M  V30 6403 H 574.521 0.701186 0.438483 0
M  V30 6404 H 577.067 1.68768 0.177599 0
M  V30 6405 H 575.839 3.8427 0.738416 0
M  V30 6406 H 575.462 3.21775 2.33552 0
M  V30 6407 N 576.459 -0.456382 1.50847 0
M  V30 6408 C 577.736 -1.21739 1.53098 0
M  V30 6409 C 578.116 -2.09179 0.284132 0
M  V30 6410 O 577.464 -2.16466 -0.731773 0
M  V30 6411 C 577.674 -2.03573 2.83477 0
M  V30 6412 C 579.022 -2.61264 3.34703 0
M  V30 6413 O 580.046 -2.13802 2.84898 0
M  V30 6414 O 578.905 -3.47779 4.21559 0
M  V30 6415 H 575.999 -0.553219 0.614718 0
M  V30 6416 H 578.545 -0.467003 1.63148 0
M  V30 6417 H 577.317 -1.39232 3.65691 0
M  V30 6418 H 576.94 -2.85716 2.76499 0
M  V30 6419 N 577.937 -1.40673 -0.710563 0
M  V30 6420 C 578.847 -1.43663 -1.85467 0
M  V30 6421 C 579.863 -0.328721 -1.70867 0
M  V30 6422 O 581.039 -0.574098 -1.93044 0
M  V30 6423 C 578.104 -1.30226 -3.21313 0
M  V30 6424 C 577.165 -2.51204 -3.48131 0
M  V30 6425 C 576.398 -2.38398 -4.77495 0
M  V30 6426 O 576.621 -1.40048 -5.5294 0
M  V30 6427 O 575.555 -3.2787 -5.04762 0
M  V30 6428 H 579.381 -2.40156 -1.859 0
M  V30 6429 H 576.966 -1.22049 -0.861652 0
M  V30 6430 H 578.848 -1.2496 -4.02446 0
M  V30 6431 H 577.523 -0.368419 -3.21597 0
M  V30 6432 H 576.43 -2.62048 -2.66987 0
M  V30 6433 H 577.763 -3.43366 -3.52648 0
M  V30 6434 N 579.415 0.9433 -1.26252 0
M  V30 6435 C 580.325 2.07532 -1.09397 0
M  V30 6436 C 581.341 1.73977 -0.0280449 0
M  V30 6437 O 582.517 2.00067 -0.231337 0
M  V30 6438 C 579.582 3.39002 -0.726523 0
M  V30 6439 C 578.643 3.86353 -1.87163 0
M  V30 6440 C 577.876 5.11549 -1.52162 0
M  V30 6441 O 578.099 5.68834 -0.422385 0
M  V30 6442 O 577.033 5.53889 -2.35565 0
M  V30 6443 H 580.859 2.24658 -2.04359 0
M  V30 6444 H 578.444 1.05988 -1.05295 0
M  V30 6445 H 580.326 4.18 -0.534236 0
M  V30 6446 H 579.001 3.2312 0.193721 0
M  V30 6447 H 577.908 3.0831 -2.11886 0
M  V30 6448 H 579.241 4.06752 -2.77152 0
M  V30 6449 N 580.893 1.08022 1.14757 0
M  V30 6450 C 582.142 0.802468 1.8505 0
M  V30 6451 C 582.455 -0.674061 1.83619 0
M  V30 6452 O 583.661 -1.06683 2.49662 0
M  V30 6453 C 582.117 1.38551 3.32162 0
M  V30 6454 C 581.725 2.89354 3.42021 0
M  V30 6455 C 583.469 1.18608 4.07594 0
M  V30 6456 C 581.376 3.40815 4.83321 0
M  V30 6457 H 580.306 0.296518 0.693248 0
M  V30 6458 H 582.957 1.30114 1.29393 0
M  V30 6459 H 581.339 0.814556 3.87532 0
M  V30 6460 H 582.513 3.52552 2.96722 0
M  V30 6461 H 580.828 3.08165 2.80041 0
M  V30 6462 H 583.425 1.54525 5.11885 0
M  V30 6463 H 583.768 0.125599 4.1611 0
M  V30 6464 H 584.301 1.72375 3.58513 0
M  V30 6465 H 581.04 4.46418 4.79991 0
M  V30 6466 H 580.56 2.82374 5.29174 0
M  V30 6467 H 582.239 3.37171 5.522 0
M  V30 6468 N 582.371 -1.3172 0.865308 0
M  V30 6469 C 583.281 -2.32394 0.320935 0
M  V30 6470 C 584.297 -1.64511 -0.566746 0
M  V30 6471 O 585.473 -1.95969 -0.464575 0
M  V30 6472 C 582.538 -3.43462 -0.472701 0
M  V30 6473 C 581.599 -4.27015 0.442385 0
M  V30 6474 C 580.832 -5.32779 -0.313469 0
M  V30 6475 O 581.055 -5.49158 -1.54214 0
M  V30 6476 O 579.989 -6.01015 0.326257 0
M  V30 6477 H 583.815 -2.80868 1.15528 0
M  V30 6478 H 581.4 -1.35535 0.628545 0
M  V30 6479 H 583.282 -4.11172 -0.922781 0
M  V30 6480 H 581.957 -2.97159 -1.28367 0
M  V30 6481 H 580.864 -3.62075 0.940866 0
M  V30 6482 H 582.197 -4.76871 1.21882 0
M  V30 6483 N 583.85 -0.624285 -1.44708 0
M  V30 6484 C 585.266 -0.289322 -1.56956 0
M  V30 6485 C 585.466 1.20773 -1.61295 0
M  V30 6486 O 584.522 1.9915 -1.55227 0
M  V30 6487 C 585.835 -0.975215 -2.84447 0
M  V30 6488 C 587.383 -0.952709 -2.98148 0
M  V30 6489 C 587.858 -1.61893 -4.28433 0
M  V30 6490 N 589.349 -1.5852 -4.35231 0
M  V30 6491 C 590.084 -2.06969 -5.34744 0
M  V30 6492 N 589.58 -2.63579 -6.40701 0
M  V30 6493 N 591.373 -1.97638 -5.26209 0
M  V30 6494 H 583.524 -1.59612 -1.40135 0
M  V30 6495 H 585.787 -0.669592 -0.671081 0
M  V30 6496 H 585.493 -2.02999 -2.87201 0
M  V30 6497 H 585.367 -0.508749 -3.73753 0
M  V30 6498 H 587.754 0.093568 -2.94952 0
M  V30 6499 H 587.835 -1.4576 -2.10209 0
M  V30 6500 H 587.479 -2.66463 -4.32389 0
M  V30 6501 H 587.409 -1.08893 -5.15218 0
M  V30 6502 H 589.899 -1.17183 -3.59272 0
M  V30 6503 H 590.213 -2.98298 -7.12908 0
M  V30 6504 H 588.558 -2.67626 -6.41406 0
M  V30 6505 H 591.749 -1.5314 -4.42341 0
M  V30 6506 H 591.922 -2.35708 -6.03611 0
M  V30 6507 N 585.328 1.53329 -0.364422 0
M  V30 6508 C 586.575 2.01239 0.225634 0
M  V30 6509 C 586.903 1.25172 1.48869 0
M  V30 6510 O 586.158 0.333289 1.92841 0
M  V30 6511 C 586.457 3.52911 0.564661 0
M  V30 6512 C 586.123 4.46837 -0.603936 0
M  V30 6513 C 584.785 4.72234 -0.924585 0
M  V30 6514 C 587.137 5.02409 -1.38691 0
M  V30 6515 C 584.465 5.50454 -2.0302 0
M  V30 6516 C 586.817 5.81836 -2.48293 0
M  V30 6517 C 585.481 6.0552 -2.80894 0
M  V30 6518 H 584.751 0.736386 0.0825654 0
M  V30 6519 H 587.398 1.84948 -0.496645 0
M  V30 6520 H 585.703 3.67144 1.36794 0
M  V30 6521 H 587.4 3.87455 1.03344 0
M  V30 6522 H 583.99 4.27217 -0.343983 0
M  V30 6523 H 588.174 4.82735 -1.15243 0
M  V30 6524 H 583.43 5.67024 -2.28678 0
M  V30 6525 H 587.604 6.23905 -3.0938 0
M  V30 6526 H 585.231 6.65916 -3.66688 0
M  V30 6527 N 586.806 0.0935595 1.57322 0
M  V30 6528 C 587.736 -0.863062 2.16964 0
M  V30 6529 C 588.717 -1.29528 1.10256 0
M  V30 6530 O 589.902 -1.36245 1.38387 0
M  V30 6531 C 587.032 -2.12276 2.74875 0
M  V30 6532 C 585.986 -1.82921 3.86942 0
M  V30 6533 C 585.312 -3.15707 4.31548 0
M  V30 6534 C 586.612 -1.11737 5.10208 0
M  V30 6535 H 588.306 -0.366145 2.97153 0
M  V30 6536 H 585.852 -0.174673 1.42937 0
M  V30 6537 H 587.805 -2.79634 3.1525 0
M  V30 6538 H 586.529 -2.64248 1.91938 0
M  V30 6539 H 585.188 -1.17961 3.47103 0
M  V30 6540 H 584.836 -3.65563 3.45504 0
M  V30 6541 H 584.536 -2.96849 5.07104 0
M  V30 6542 H 586.06 -3.84226 4.74555 0
M  V30 6543 H 587.474 -1.69203 5.47762 0
M  V30 6544 H 585.871 -1.03064 5.91183 0
M  V30 6545 H 586.941 -0.0998818 4.84797 0
M  V30 6546 N 588.284 -1.56567 -0.180126 0
M  V30 6547 C 589.533 -1.80685 -0.896426 0
M  V30 6548 C 589.846 -0.669335 -1.83791 0
M  V30 6549 O 591.052 -0.795209 -2.59593 0
M  V30 6550 C 589.508 -3.20132 -1.6445 0
M  V30 6551 C 589.116 -4.41727 -0.747088 0
M  V30 6552 C 590.86 -3.53549 -2.34955 0
M  V30 6553 C 588.767 -5.72195 -1.49489 0
M  V30 6554 H 587.697 -0.673758 -0.338477 0
M  V30 6555 H 590.348 -1.8289 -0.149467 0
M  V30 6556 H 588.73 -3.12218 -2.43589 0
M  V30 6557 H 589.904 -4.608 0.00671129 0
M  V30 6558 H 588.219 -4.16122 -0.152134 0
M  V30 6559 H 590.816 -4.48267 -2.91481 0
M  V30 6560 H 591.159 -2.78006 -3.09868 0
M  V30 6561 H 591.692 -3.62976 -1.62768 0
M  V30 6562 H 588.431 -6.50743 -0.788251 0
M  V30 6563 H 587.951 -5.57115 -2.22224 0
M  V30 6564 H 589.63 -6.1384 -2.04472 0
M  V30 6565 N 589.762 0.448376 -1.51087 0
M  V30 6566 C 591.039 1.20926 -1.53741 0
M  V30 6567 C 591.419 2.09025 -0.295222 0
M  V30 6568 O 590.767 2.16851 0.720283 0
M  V30 6569 C 590.977 2.02067 -2.84552 0
M  V30 6570 C 592.325 2.59486 -3.36084 0
M  V30 6571 O 593.349 2.12289 -2.86028 0
M  V30 6572 O 592.208 3.45539 -4.23397 0
M  V30 6573 H 589.302 0.549951 -0.617643 0
M  V30 6574 H 591.848 0.458344 -1.63393 0
M  V30 6575 H 590.62 1.37291 -3.66425 0
M  V30 6576 H 590.243 2.84246 -2.78011 0
M  V30 6577 N 591.24 1.41047 0.703093 0
M  V30 6578 C 592.17 1.45067 1.82969 0
M  V30 6579 C 593.151 0.31016 1.67248 0
M  V30 6580 O 594.336 0.520548 1.87093 0
M  V30 6581 C 591.466 1.32478 3.2104 0
M  V30 6582 C 590.42 2.44262 3.51454 0
M  V30 6583 C 589.746 2.16742 4.88801 0
M  V30 6584 C 591.046 3.86606 3.51189 0
M  V30 6585 H 592.74 2.39353 1.79863 0
M  V30 6586 H 590.286 1.15206 0.863919 0
M  V30 6587 H 592.239 1.33904 3.99559 0
M  V30 6588 H 590.963 0.346735 3.24754 0
M  V30 6589 H 589.622 2.42107 2.75282 0
M  V30 6590 H 589.27 1.17299 4.89132 0
M  V30 6591 H 588.97 2.91643 5.10116 0
M  V30 6592 H 590.494 2.19872 5.69639 0
M  V30 6593 H 591.908 3.90517 4.19725 0
M  V30 6594 H 590.305 4.61128 3.84033 0
M  V30 6595 H 591.375 4.15296 2.50315 0
M  V30 6596 N 592.718 -0.936591 1.26751 0
M  V30 6597 C 593.666 -2.0573 1.08527 0
M  V30 6598 C 594.66 -1.69397 0.0108784 0
M  V30 6599 O 595.866 -1.79215 0.167915 0
M  V30 6600 H 592.241 -0.673691 0.334133 0
M  V30 6601 H 594.212 -2.1825 2.03493 0
M  V30 6602 C 592.961 -3.39738 0.739845 0
M  V30 6603 H 592.284 -3.68174 1.55845 0
M  V30 6604 H 593.724 -4.18955 0.652149 0
M  V30 6605 C 592.183 -3.32292 -0.555288 0
M  V30 6606 O 592.713 -3.68794 -1.59229 0
M  V30 6607 N 590.919 -2.85394 -0.54762 0
M  V30 6608 H 590.466 -2.55886 0.296667 0
M  V30 6609 H 590.424 -2.80795 -1.41427 0
M  V30 6610 N 594.196 -1.08629 -1.14182 0
M  V30 6611 C 595.443 -0.817345 -1.85272 0
M  V30 6612 C 595.771 0.656917 -1.83071 0
M  V30 6613 O 595.026 1.49897 -1.25815 0
M  V30 6614 C 595.325 -1.28734 -3.3341 0
M  V30 6615 C 594.991 -2.76981 -3.55798 0
M  V30 6616 C 593.653 -3.17469 -3.61617 0
M  V30 6617 C 596.005 -3.72605 -3.64438 0
M  V30 6618 C 593.333 -4.52371 -3.736 0
M  V30 6619 C 595.685 -5.07286 -3.77947 0
M  V30 6620 C 594.349 -5.47376 -3.82016 0
M  V30 6621 H 593.619 -0.299088 -0.677958 0
M  V30 6622 H 596.266 -1.35962 -1.34857 0
M  V30 6623 H 594.571 -0.664702 -3.8612 0
M  V30 6624 H 596.268 -1.05598 -3.86846 0
M  V30 6625 H 592.858 -2.44644 -3.51919 0
M  V30 6626 H 597.042 -3.42443 -3.5923 0
M  V30 6627 H 592.298 -4.82882 -3.75013 0
M  V30 6628 H 596.472 -5.81243 -3.83575 0
M  V30 6629 H 594.099 -6.51906 -3.91054 0
M  V30 6630 N 595.674 1.31259 -0.872281 0
M  V30 6631 C 596.921 1.96622 -0.484365 0
M  V30 6632 C 597.249 1.68939 0.963841 0
M  V30 6633 O 596.504 0.97974 1.6941 0
M  V30 6634 C 596.803 3.50659 -0.690889 0
M  V30 6635 C 596.469 3.98366 -2.11224 0
M  V30 6636 C 595.131 4.11104 -2.50094 0
M  V30 6637 C 597.483 4.23425 -3.0391 0
M  V30 6638 C 594.811 4.46254 -3.80887 0
M  V30 6639 C 597.163 4.60039 -4.3422 0
M  V30 6640 C 595.827 4.70984 -4.73001 0
M  V30 6641 H 595.097 0.71949 -0.177242 0
M  V30 6642 H 597.744 1.56353 -1.10571 0
M  V30 6643 H 596.049 3.91798 0.0135782 0
M  V30 6644 H 597.746 3.99284 -0.370534 0
M  V30 6645 H 594.336 3.88949 -1.80047 0
M  V30 6646 H 598.52 4.13075 -2.75104 0
M  V30 6647 H 593.776 4.52926 -4.10692 0
M  V30 6648 H 597.95 4.78381 -5.06088 0
M  V30 6649 H 595.577 4.97977 -5.7439 0
M  V30 6650 N 597.152 0.631951 1.44375 0
M  V30 6651 C 598.082 -0.0593243 2.33425 0
M  V30 6652 C 599.063 -0.833964 1.48253 0
M  V30 6653 O 600.248 -0.799682 1.76971 0
M  V30 6654 C 597.378 -1.04096 3.31333 0
M  V30 6655 C 596.332 -0.377899 4.26328 0
M  V30 6656 C 595.658 -1.4695 5.14111 0
M  V30 6657 C 596.958 0.716371 5.17364 0
M  V30 6658 H 598.652 0.684287 2.91475 0
M  V30 6659 H 596.198 0.330518 1.40156 0
M  V30 6660 H 598.151 -1.53331 3.92514 0
M  V30 6661 H 596.875 -1.81547 2.71493 0
M  V30 6662 H 595.534 0.0938054 3.6648 0
M  V30 6663 H 595.182 -2.2349 4.50623 0
M  V30 6664 H 594.882 -1.03121 5.78481 0
M  V30 6665 H 596.406 -1.96363 5.78164 0
M  V30 6666 H 597.82 0.307089 5.72477 0
M  V30 6667 H 596.217 1.07784 5.90341 0
M  V30 6668 H 597.287 1.58316 4.58327 0
M  V30 6669 N 598.631 -1.53133 0.372548 0
M  V30 6670 C 599.861 -2.05476 -0.215202 0
M  V30 6671 C 600.269 -1.24534 -1.42436 0
M  V30 6672 O 599.612 -0.280771 -1.81542 0
M  V30 6673 C 599.674 -3.53276 -0.666068 0
M  V30 6674 C 599.338 -4.54998 0.427342 0
M  V30 6675 C 600.335 -5.03911 1.27944 0
M  V30 6676 C 598.02 -4.98828 0.589579 0
M  V30 6677 C 600.014 -5.95263 2.27905 0
M  V30 6678 C 597.701 -5.89984 1.59255 0
M  V30 6679 C 598.699 -6.38093 2.43571 0
M  V30 6680 O 598.387 -7.27451 3.42156 0
M  V30 6681 H 598.119 -0.67481 -0.040099 0
M  V30 6682 H 600.673 -1.98409 0.531312 0
M  V30 6683 H 598.903 -3.57904 -1.4643 0
M  V30 6684 H 600.592 -3.88442 -1.1776 0
M  V30 6685 H 601.358 -4.70792 1.16532 0
M  V30 6686 H 597.237 -4.60965 -0.0569456 0
M  V30 6687 H 600.781 -6.32736 2.93753 0
M  V30 6688 H 596.678 -6.22518 1.70711 0
M  V30 6689 H 597.446 -7.45467 3.37967 0
M  V30 6690 N 600.109 -0.101901 -1.5727 0
M  V30 6691 C 601.057 0.872034 -2.15635 0
M  V30 6692 C 602.051 1.28742 -1.10099 0
M  V30 6693 O 603.257 1.26116 -1.28432 0
M  V30 6694 H 599.632 0.299269 -0.689886 0
M  V30 6695 H 601.603 0.355137 -2.96279 0
M  V30 6696 C 600.352 2.11886 -2.7568 0
M  V30 6697 H 599.675 1.80813 -3.56576 0
M  V30 6698 H 601.115 2.78077 -3.20077 0
M  V30 6699 C 599.574 2.89739 -1.7191 0
M  V30 6700 O 600.104 3.84522 -1.16213 0
M  V30 6701 N 598.31 2.53407 -1.42245 0
M  V30 6702 H 597.857 1.76398 -1.87727 0
M  V30 6703 H 597.815 3.05795 -0.730529 0
M  V30 6704 N 601.587 1.56661 0.17182 0
M  V30 6705 C 602.835 1.81606 0.886774 0
M  V30 6706 C 603.156 0.678818 1.82803 0
M  V30 6707 O 602.426 -0.301354 1.93568 0
M  V30 6708 H 601.006 0.669934 0.330451 0
M  V30 6709 H 603.668 1.94142 0.171757 0
M  V30 6710 H 602.764 2.75634 1.46398 0
M  V30 6711 N 603.065 -0.440357 1.51323 0
M  V30 6712 C 604.312 -1.19004 1.63842 0
M  V30 6713 C 604.64 -1.91266 0.35321 0
M  V30 6714 O 603.895 -1.84143 -0.662565 0
M  V30 6715 C 604.194 -2.2339 2.78984 0
M  V30 6716 C 603.86 -1.68162 4.18369 0
M  V30 6717 C 602.522 -1.52823 4.56288 0
M  V30 6718 C 604.874 -1.27524 5.05358 0
M  V30 6719 C 602.202 -0.953157 5.78906 0
M  V30 6720 C 604.554 -0.714474 6.28552 0
M  V30 6721 C 603.218 -0.547961 6.65247 0
M  V30 6722 H 602.488 -0.435468 0.59954 0
M  V30 6723 H 605.135 -0.481538 1.85347 0
M  V30 6724 H 603.44 -3.00267 2.51688 0
M  V30 6725 H 605.137 -2.81211 2.85869 0
M  V30 6726 H 601.727 -1.81077 3.8847 0
M  V30 6727 H 605.911 -1.38197 4.76671 0
M  V30 6728 H 601.167 -0.811882 6.05986 0
M  V30 6729 H 605.341 -0.391059 6.95301 0
M  V30 6730 H 602.968 -0.100222 7.60134 0
M  V30 6731 N 604.543 -1.41418 -0.695603 0
M  V30 6732 C 605.473 -1.46035 -1.82197 0
M  V30 6733 C 606.454 -0.319025 -1.67082 0
M  V30 6734 O 607.639 -0.530462 -1.86815 0
M  V30 6735 C 604.769 -1.34179 -3.20333 0
M  V30 6736 C 603.723 -2.46123 -3.50154 0
M  V30 6737 C 603.049 -2.19332 -4.87645 0
M  V30 6738 C 604.349 -3.88463 -3.49133 0
M  V30 6739 H 606.043 -2.40303 -1.78591 0
M  V30 6740 H 603.589 -1.15663 -0.857797 0
M  V30 6741 H 605.542 -1.36021 -3.98844 0
M  V30 6742 H 604.266 -0.363952 -3.24566 0
M  V30 6743 H 602.925 -2.43563 -2.73994 0
M  V30 6744 H 602.573 -1.19891 -4.88503 0
M  V30 6745 H 602.273 -2.94344 -5.08562 0
M  V30 6746 H 603.797 -2.22889 -5.68465 0
M  V30 6747 H 605.211 -3.92738 -4.17648 0
M  V30 6748 H 603.608 -4.63158 -3.81582 0
M  V30 6749 H 604.678 -4.16617 -2.48109 0
M  V30 6750 N 606.021 0.929856 -1.27246 0
M  V30 6751 C 607.437 1.20542 -1.04603 0
M  V30 6752 C 607.637 2.00276 0.221754 0
M  V30 6753 O 606.693 2.34835 0.927833 0
M  V30 6754 C 608.006 1.95566 -2.28417 0
M  V30 6755 C 609.554 2.08513 -2.33433 0
M  V30 6756 C 610.029 2.86943 -3.5697 0
M  V30 6757 N 611.52 2.94512 -3.57515 0
M  V30 6758 C 612.255 3.55656 -4.49774 0
M  V30 6759 N 611.751 4.18209 -5.52334 0
M  V30 6760 N 613.544 3.53038 -4.37402 0
M  V30 6761 H 605.695 0.397113 -2.08655 0
M  V30 6762 H 607.958 0.238277 -0.917566 0
M  V30 6763 H 607.664 1.44395 -3.20691 0
M  V30 6764 H 607.538 2.9619 -2.33563 0
M  V30 6765 H 609.925 2.58872 -1.41666 0
M  V30 6766 H 610.006 1.07117 -2.32292 0
M  V30 6767 H 609.65 2.37268 -4.49072 0
M  V30 6768 H 609.58 3.8862 -3.55362 0
M  V30 6769 H 612.071 2.50053 -2.83341 0
M  V30 6770 H 612.384 4.62796 -6.18902 0
M  V30 6771 H 610.729 4.16761 -5.56179 0
M  V30 6772 H 613.92 3.0337 -3.56489 0
M  V30 6773 H 614.093 4.004 -5.09493 0
M  V30 6774 N 607.499 1.09233 1.13605 0
M  V30 6775 C 608.748 0.82205 1.84188 0
M  V30 6776 C 609.061 -0.654548 1.84323 0
M  V30 6777 O 610.267 -1.04029 2.50779 0
M  V30 6778 C 608.723 1.42066 3.30674 0
M  V30 6779 C 608.331 2.92965 3.38933 0
M  V30 6780 C 610.075 1.22924 4.06313 0
M  V30 6781 C 607.982 3.45922 4.79679 0
M  V30 6782 H 606.912 0.303854 0.690064 0
M  V30 6783 H 609.563 1.31479 1.28006 0
M  V30 6784 H 607.945 0.855613 3.86646 0
M  V30 6785 H 609.119 3.55679 2.92966 0
M  V30 6786 H 607.434 3.11118 2.76757 0
M  V30 6787 H 610.031 1.59945 5.10217 0
M  V30 6788 H 610.374 0.169726 4.15954 0
M  V30 6789 H 610.907 1.76168 3.56665 0
M  V30 6790 H 607.646 4.51484 4.75229 0
M  V30 6791 H 607.166 2.87971 5.26149 0
M  V30 6792 H 608.845 3.43009 5.48592 0
M  V30 6793 N 608.977 -1.30795 0.87923 0
M  V30 6794 C 610.205 -2.00527 0.509548 0
M  V30 6795 C 610.62 -1.65944 -0.90045 0
M  V30 6796 O 609.977 -0.893525 -1.5913 0
M  V30 6797 C 610.028 -3.55276 0.667943 0
M  V30 6798 O 609.749 -3.88625 2.02242 0
M  V30 6799 C 611.25 -4.4228 0.300494 0
M  V30 6800 H 608.47 -0.641261 0.197549 0
M  V30 6801 H 611.014 -1.66813 1.18295 0
M  V30 6802 H 609.169 -3.87377 0.0419843 0
M  V30 6803 H 609.583 -4.83334 2.03688 0
M  V30 6804 H 611.057 -5.50061 0.462242 0
M  V30 6805 H 611.534 -4.32556 -0.76106 0
M  V30 6806 H 612.14 -4.15613 0.902536 0
M  V30 6807 N 610.455 -0.639598 -1.44038 0
M  V30 6808 C 611.365 0.0612377 -2.3452 0
M  V30 6809 C 612.381 0.826717 -1.53106 0
M  V30 6810 O 613.557 0.777059 -1.85806 0
M  V30 6811 C 610.622 1.02492 -3.31204 0
M  V30 6812 C 609.683 0.25788 -4.28525 0
M  V30 6813 C 608.916 1.17566 -5.2059 0
M  V30 6814 O 609.139 2.41461 -5.16771 0
M  V30 6815 O 608.073 0.655407 -5.98321 0
M  V30 6816 H 611.899 -0.68318 -2.95916 0
M  V30 6817 H 609.484 -0.399784 -1.43952 0
M  V30 6818 H 611.366 1.57911 -3.90694 0
M  V30 6819 H 610.041 1.7498 -2.7233 0
M  V30 6820 H 608.948 -0.339566 -3.72556 0
M  V30 6821 H 610.281 -0.427154 -4.90343 0
M  V30 6822 N 611.933 1.52934 -0.380664 0
M  V30 6823 C 613.21 1.93845 0.261417 0
M  V30 6824 C 613.59 1.31544 1.65104 0
M  V30 6825 O 612.938 0.480234 2.23397 0
M  V30 6826 C 613.148 3.47739 0.296466 0
M  V30 6827 C 614.496 4.21284 0.529578 0
M  V30 6828 O 615.52 3.54199 0.377041 0
M  V30 6829 O 614.379 5.40195 0.827753 0
M  V30 6830 H 611.473 0.811318 0.160285 0
M  V30 6831 H 614.019 1.64042 -0.434544 0
M  V30 6832 H 612.791 3.85395 -0.67724 0
M  V30 6833 H 612.414 3.8382 1.0377 0
M  V30 6834 N 613.412 0.11024 1.57214 0
M  V30 6835 C 614.359 -0.843195 2.14846 0
M  V30 6836 C 615.329 -1.26954 1.07107 0
M  V30 6837 O 616.514 -1.34861 1.34971 0
M  V30 6838 C 613.654 -2.09123 2.74521 0
M  V30 6839 C 612.767 -1.71404 3.96541 0
M  V30 6840 C 611.902 -2.91107 4.44331 0
M  V30 6841 C 610.941 -2.49586 5.58903 0
M  V30 6842 N 610.078 -3.62175 6.01477 0
M  V30 6843 H 614.918 -0.344886 2.95998 0
M  V30 6844 H 612.455 -0.15855 1.46243 0
M  V30 6845 H 614.413 -2.82234 3.07246 0
M  V30 6846 H 613.043 -2.56427 1.96074 0
M  V30 6847 H 612.095 -0.88201 3.70033 0
M  V30 6848 H 613.407 -1.36884 4.7965 0
M  V30 6849 H 612.561 -3.72454 4.78919 0
M  V30 6850 H 611.3 -3.28848 3.60153 0
M  V30 6851 H 610.305 -1.6667 5.23929 0
M  V30 6852 H 611.53 -2.12973 6.4484 0
M  V30 6853 H 609.476 -3.99605 5.20242 0
M  V30 6854 H 609.393 -3.3155 6.79419 0
M  V30 6855 H 610.661 -4.43987 6.407 0
M  V30 6856 N 614.89 -1.56749 -0.16351 0
M  V30 6857 C 615.84 -1.93424 -1.20712 0
M  V30 6858 C 616.824 -0.803469 -1.39403 0
M  V30 6859 O 618.016 -1.06675 -1.41243 0
M  V30 6860 C 615.145 -2.30431 -2.54473 0
M  V30 6861 C 614.231 -3.5004 -2.39443 0
M  V30 6862 N 614.622 -4.67058 -1.9414 0
M  V30 6863 C 612.92 -3.548 -2.70246 0
M  V30 6864 C 613.621 -5.49184 -1.9176 0
M  V30 6865 N 612.597 -4.9044 -2.34457 0
M  V30 6866 H 616.399 -2.8138 -0.848681 0
M  V30 6867 H 613.913 -1.58089 -0.371717 0
M  V30 6868 H 615.91 -2.54903 -3.29894 0
M  V30 6869 H 614.57 -1.43818 -2.91112 0
M  V30 6870 H 615.581 -4.91128 -1.64357 0
M  V30 6871 H 612.258 -2.78685 -3.10871 0
M  V30 6872 H 613.648 -6.5297 -1.58366 0
M  V30 6873 N 616.368 0.432326 -1.51554 0
M  V30 6874 C 617.298 1.53242 -1.76179 0
M  V30 6875 C 618.279 1.58717 -0.611801 0
M  V30 6876 O 619.464 1.74364 -0.855033 0
M  V30 6877 C 616.594 2.91278 -1.89141 0
M  V30 6878 C 615.548 3.00663 -3.04608 0
M  V30 6879 C 614.874 4.40728 -3.02759 0
M  V30 6880 C 616.174 2.74281 -4.44485 0
M  V30 6881 H 617.868 1.32886 -2.68294 0
M  V30 6882 H 615.414 0.637841 -1.29103 0
M  V30 6883 H 617.367 3.68203 -2.04951 0
M  V30 6884 H 616.091 3.12877 -0.936785 0
M  V30 6885 H 614.75 2.26179 -2.88511 0
M  V30 6886 H 614.398 4.59301 -2.05065 0
M  V30 6887 H 614.098 4.47936 -3.80299 0
M  V30 6888 H 615.622 5.19619 -3.20669 0
M  V30 6889 H 617.036 3.40936 -4.60907 0
M  V30 6890 H 615.433 2.92893 -5.23769 0
M  V30 6891 H 616.503 1.69856 -4.54177 0
M  V30 6892 N 617.846 1.41785 0.688094 0
M  V30 6893 C 619.095 1.4084 1.44385 0
M  V30 6894 C 619.408 0.0234166 1.95586 0
M  V30 6895 O 620.614 -0.108647 2.71283 0
M  V30 6896 C 619.07 2.47675 2.61123 0
M  V30 6897 C 618.678 3.92116 2.16677 0
M  V30 6898 C 620.422 2.55877 3.38714 0
M  V30 6899 C 618.329 4.90487 3.30419 0
M  V30 6900 H 617.259 0.523787 0.542368 0
M  V30 6901 H 619.91 1.6764 0.74627 0
M  V30 6902 H 618.292 2.14018 3.33185 0
M  V30 6903 H 619.466 4.35059 1.51856 0
M  V30 6904 H 617.781 3.87642 1.5206 0
M  V30 6905 H 620.378 3.26553 4.234 0
M  V30 6906 H 620.721 1.59801 3.84408 0
M  V30 6907 H 621.254 2.88662 2.73714 0
M  V30 6908 H 617.993 5.87994 2.89729 0
M  V30 6909 H 617.513 4.52187 3.94065 0
M  V30 6910 H 619.192 5.11591 3.96085 0
M  V30 6911 N 619.324 -0.923095 1.27737 0
M  V30 6912 C 620.272 -2.04567 1.10703 0
M  V30 6913 C 621.266 -1.69375 0.0288445 0
M  V30 6914 O 622.472 -1.79027 0.186913 0
M  V30 6915 H 618.847 -0.670109 0.34126 0
M  V30 6916 H 620.818 -2.1608 2.05796 0
M  V30 6917 C 619.567 -3.38934 0.775837 0
M  V30 6918 H 618.89 -3.66501 1.59741 0
M  V30 6919 H 620.33 -4.18239 0.696548 0
M  V30 6920 C 618.789 -3.32863 -0.520012 0
M  V30 6921 O 619.319 -3.70462 -1.55308 0
M  V30 6922 N 617.525 -2.85958 -0.51732 0
M  V30 6923 H 617.072 -2.55557 0.32379 0
M  V30 6924 H 617.03 -2.82279 -1.38441 0
M  V30 6925 N 620.802 -1.09834 -1.13024 0
M  V30 6926 C 621.765 -0.745058 -2.16752 0
M  V30 6927 C 622.765 0.227435 -1.59183 0
M  V30 6928 O 623.955 0.0050786 -1.74199 0
M  V30 6929 C 621.087 -0.102543 -3.40746 0
M  V30 6930 H 622.28 -1.66375 -2.49518 0
M  V30 6931 H 619.833 -0.898061 -1.27924 0
M  V30 6932 H 620.568 0.827177 -3.13573 0
M  V30 6933 H 620.353 -0.80235 -3.83803 0
M  V30 6934 H 621.843 0.129082 -4.174 0
M  V30 6935 N 622.28 1.30327 -0.886154 0
M  V30 6936 C 623.557 1.90922 -0.425217 0
M  V30 6937 C 623.937 1.80533 1.09413 0
M  V30 6938 O 623.285 1.2233 1.92996 0
M  V30 6939 C 623.495 3.36529 -0.924638 0
M  V30 6940 C 624.843 4.13598 -0.960305 0
M  V30 6941 O 625.867 3.45377 -0.871382 0
M  V30 6942 O 624.726 5.35482 -1.09184 0
M  V30 6943 H 621.82 0.81668 -0.130238 0
M  V30 6944 H 624.366 1.38886 -0.975132 0
M  V30 6945 H 623.138 3.38181 -1.96849 0
M  V30 6946 H 622.761 3.96021 -0.353955 0
M  V30 6947 N 623.758 0.647228 1.43697 0
M  V30 6948 C 625.035 0.0883758 1.954 0
M  V30 6949 C 625.415 -1.39006 1.58873 0
M  V30 6950 O 624.763 -2.11255 0.87083 0
M  V30 6951 C 624.973 0.328263 3.47453 0
M  V30 6952 C 626.321 0.230009 4.23977 0
M  V30 6953 O 627.345 0.260496 3.55246 0
M  V30 6954 O 626.204 0.148615 5.46298 0
M  V30 6955 H 623.298 -0.0130683 0.826897 0
M  V30 6956 H 625.844 0.72005 1.53666 0
M  V30 6957 H 624.616 1.3535 3.67146 0
M  V30 6958 H 624.239 -0.336772 3.96171 0
M  V30 6959 N 625.236 -1.5273 0.388769 0
M  V30 6960 C 626.482 -2.01871 -0.193877 0
M  V30 6961 C 626.815 -1.27475 -1.46505 0
M  V30 6962 O 626.09 -0.375063 -1.90849 0
M  V30 6963 C 626.373 -3.5712 -0.462336 0
M  V30 6964 C 626.226 -4.42186 0.824091 0
M  V30 6965 C 627.545 -4.21881 -1.25319 0
M  V30 6966 H 624.664 -0.733764 -0.0689899 0
M  V30 6967 H 627.306 -1.82796 0.518231 0
M  V30 6968 H 625.456 -3.73504 -1.06896 0
M  V30 6969 H 627.128 -4.37554 1.46096 0
M  V30 6970 H 625.371 -4.09219 1.43952 0
M  V30 6971 H 626.042 -5.48828 0.590905 0
M  V30 6972 H 628.518 -4.0947 -0.73981 0
M  V30 6973 H 627.394 -5.30487 -1.40977 0
M  V30 6974 H 627.655 -3.79478 -2.26824 0
M  V30 6975 N 626.714 -0.118576 -1.57153 0
M  V30 6976 C 627.939 0.550582 -1.99958 0
M  V30 6977 C 628.364 1.59458 -0.997736 0
M  V30 6978 O 627.722 1.81274 0.0306269 0
M  V30 6979 C 627.77 1.15379 -3.41643 0
M  V30 6980 O 626.874 2.26932 -3.44348 0
M  V30 6981 H 626.215 0.137567 -0.649593 0
M  V30 6982 H 628.745 -0.206926 -2.03551 0
M  V30 6983 H 628.755 1.48942 -3.79843 0
M  V30 6984 H 627.43 0.389087 -4.14076 0
M  V30 6985 H 626.007 1.94812 -3.17967 0
M  V30 6986 N 628.193 1.56834 0.155195 0
M  V30 6987 C 629.604 1.72421 0.716082 0
M  V30 6988 C 629.955 0.731685 1.82046 0
M  V30 6989 O 629.08 -0.103481 2.16152 0
M  V30 6990 C 629.675 3.12629 1.30571 0
M  V30 6991 C 628.234 3.29846 1.81325 0
M  V30 6992 C 627.381 2.68359 0.698494 0
M  V30 6993 H 630.332 1.58544 -0.0703861 0
M  V30 6994 H 630.353 3.12174 2.1755 0
M  V30 6995 H 629.865 3.84844 0.501701 0
M  V30 6996 H 627.966 2.62614 2.64319 0
M  V30 6997 H 628.079 4.37727 1.9476 0
M  V30 6998 H 626.443 2.28604 1.12305 0
M  V30 6999 H 627.226 3.43171 -0.0939366 0
M  V30 7000 N 629.671 -0.424282 1.51781 0
M  V30 7001 C 630.896 -1.19928 1.6921 0
M  V30 7002 C 631.321 -1.8392 0.394355 0
M  V30 7003 O 630.679 -1.69371 -0.646778 0
M  V30 7004 C 630.727 -2.24937 2.81843 0
M  V30 7005 O 629.831 -3.3073 2.46356 0
M  V30 7006 H 629.172 -0.35078 0.563781 0
M  V30 7007 H 631.702 -0.499401 1.98412 0
M  V30 7008 H 631.712 -2.69512 3.06312 0
M  V30 7009 H 630.387 -1.77742 3.76006 0
M  V30 7010 H 628.964 -2.9154 2.32505 0
M  V30 7011 N 631.149 -1.42148 -0.680565 0
M  V30 7012 C 632.379 -1.45485 -1.46689 0
M  V30 7013 C 632.787 -0.0629451 -1.89095 0
M  V30 7014 O 632.13 0.931397 -1.58337 0
M  V30 7015 C 632.192 -2.31397 -2.75129 0
M  V30 7016 C 631.856 -3.79353 -2.54834 0
M  V30 7017 C 632.853 -4.71148 -2.19808 0
M  V30 7018 C 630.538 -4.23557 -2.70008 0
M  V30 7019 C 632.532 -6.05139 -2.00215 0
M  V30 7020 C 630.219 -5.57609 -2.50031 0
M  V30 7021 C 631.217 -6.48216 -2.15187 0
M  V30 7022 O 630.905 -7.79792 -1.95397 0
M  V30 7023 H 630.637 -0.497139 -0.458071 0
M  V30 7024 H 633.191 -1.87252 -0.844139 0
M  V30 7025 H 631.421 -1.84468 -3.39865 0
M  V30 7026 H 633.11 -2.26257 -3.36991 0
M  V30 7027 H 633.876 -4.38282 -2.07686 0
M  V30 7028 H 629.755 -3.53327 -2.96109 0
M  V30 7029 H 633.299 -6.75823 -1.72941 0
M  V30 7030 H 629.196 -5.9005 -2.61748 0
M  V30 7031 H 629.964 -7.91091 -2.10042 0
M  V30 7032 N 632.627 0.916307 -1.28225 0
M  V30 7033 C 633.876 1.65975 -1.14608 0
M  V30 7034 C 634.189 1.93204 0.305191 0
M  V30 7035 O 635.395 2.65611 0.562432 0
M  V30 7036 C 633.851 2.98989 -2.00333 0
M  V30 7037 C 633.459 2.79417 -3.50186 0
M  V30 7038 C 635.203 3.76856 -1.95397 0
M  V30 7039 C 633.11 4.08056 -4.28071 0
M  V30 7040 H 632.04 0.622587 -0.425324 0
M  V30 7041 H 634.691 1.01705 -1.52736 0
M  V30 7042 H 633.073 3.6438 -1.5506 0
M  V30 7043 H 634.247 2.22723 -4.034 0
M  V30 7044 H 632.562 2.14966 -3.56621 0
M  V30 7045 H 635.159 4.72203 -2.50856 0
M  V30 7046 H 635.502 4.05776 -0.930137 0
M  V30 7047 H 636.035 3.1828 -2.38626 0
M  V30 7048 H 632.774 3.8431 -5.31024 0
M  V30 7049 H 632.294 4.64371 -3.79631 0
M  V30 7050 H 633.973 4.76333 -4.37854 0
M  V30 7051 N 634.105 1.10431 1.1244 0
M  V30 7052 C 635.053 0.747974 2.20246 0
M  V30 7053 C 636.047 -0.255848 1.67457 0
M  V30 7054 O 637.253 -0.116221 1.79624 0
M  V30 7055 H 633.628 0.223946 0.71788 0
M  V30 7056 H 635.599 1.6661 2.47556 0
M  V30 7057 C 634.348 0.195957 3.47147 0
M  V30 7058 H 633.671 0.959606 3.88113 0
M  V30 7059 H 635.111 -0.0153154 4.23997 0
M  V30 7060 C 633.57 -1.07132 3.19413 0
M  V30 7061 O 634.1 -2.15284 3.3914 0
M  V30 7062 N 632.306 -0.98994 2.73219 0
M  V30 7063 H 631.853 -0.109736 2.57366 0
M  V30 7064 H 631.811 -1.83856 2.55038 0
M  V30 7065 N 635.583 -1.29855 0.893053 0
M  V30 7066 C 636.513 -2.3035 0.382249 0
M  V30 7067 C 637.494 -1.61328 -0.539203 0
M  V30 7068 O 638.679 -1.88882 -0.451342 0
M  V30 7069 C 635.809 -3.45024 -0.396983 0
M  V30 7070 C 634.763 -4.258 0.433437 0
M  V30 7071 C 634.089 -5.32605 -0.472889 0
M  V30 7072 C 635.389 -4.94549 1.67984 0
M  V30 7073 H 637.083 -2.73325 1.22205 0
M  V30 7074 H 634.629 -1.314 0.589073 0
M  V30 7075 H 636.582 -4.14398 -0.765024 0
M  V30 7076 H 635.306 -3.00875 -1.2705 0
M  V30 7077 H 633.965 -3.58125 0.783723 0
M  V30 7078 H 633.613 -4.84702 -1.34435 0
M  V30 7079 H 633.313 -5.87547 0.0789958 0
M  V30 7080 H 634.837 -6.04832 -0.837269 0
M  V30 7081 H 636.251 -5.56395 1.38192 0
M  V30 7082 H 634.648 -5.59393 2.17254 0
M  V30 7083 H 635.718 -4.20215 2.41965 0
M  V30 7084 N 637.061 -0.65484 -1.43351 0
M  V30 7085 C 638.291 -0.176429 -2.05845 0
M  V30 7086 C 638.699 1.16375 -1.49176 0
M  V30 7087 O 638.042 1.72981 -0.618322 0
M  V30 7088 C 638.104 -0.0125844 -3.59498 0
M  V30 7089 C 637.768 -1.27831 -4.38758 0
M  V30 7090 C 638.765 -2.2074 -4.70712 0
M  V30 7091 C 636.45 -1.52035 -4.78739 0
M  V30 7092 C 638.444 -3.36145 -5.41558 0
M  V30 7093 C 636.131 -2.67732 -5.49329 0
M  V30 7094 C 637.129 -3.59612 -5.80662 0
M  V30 7095 O 636.817 -4.73289 -6.4981 0
M  V30 7096 H 636.549 -0.0879682 -0.670252 0
M  V30 7097 H 639.103 -0.896193 -1.84818 0
M  V30 7098 H 637.333 0.762567 -3.79107 0
M  V30 7099 H 639.022 0.423392 -4.03686 0
M  V30 7100 H 639.788 -2.03284 -4.40341 0
M  V30 7101 H 635.667 -0.813987 -4.53757 0
M  V30 7102 H 639.211 -4.07881 -5.65932 0
M  V30 7103 H 635.108 -2.85122 -5.79116 0
M  V30 7104 H 635.876 -4.72575 -6.68293 0
M  V30 7105 N 638.539 1.52521 -0.396863 0
M  V30 7106 C 639.955 1.5953 -0.0471659 0
M  V30 7107 C 640.155 1.41044 1.43906 0
M  V30 7108 O 639.211 1.23122 2.20448 0
M  V30 7109 C 640.524 2.95972 -0.531113 0
M  V30 7110 C 642.072 3.09172 -0.488024 0
M  V30 7111 C 642.547 4.48075 -0.948281 0
M  V30 7112 N 644.038 4.54281 -0.9046 0
M  V30 7113 C 644.773 5.60007 -1.23205 0
M  V30 7114 N 644.269 6.73343 -1.63036 0
M  V30 7115 N 646.062 5.50151 -1.15282 0
M  V30 7116 H 638.213 1.62786 -1.36435 0
M  V30 7117 H 640.476 0.76514 -0.559701 0
M  V30 7118 H 640.182 3.14741 -1.56942 0
M  V30 7119 H 640.056 3.77143 0.0657922 0
M  V30 7120 H 642.443 2.90095 0.541211 0
M  V30 7121 H 642.524 2.29937 -1.12083 0
M  V30 7122 H 642.168 4.67894 -1.97578 0
M  V30 7123 H 642.098 5.25788 -0.292412 0
M  V30 7124 H 644.589 3.72918 -0.6116 0
M  V30 7125 H 644.902 7.49992 -1.86365 0
M  V30 7126 H 643.247 6.74655 -1.66929 0
M  V30 7127 H 646.438 4.6049 -0.840602 0
M  V30 7128 H 646.611 6.32444 -1.41133 0
M  V30 7129 N 640.017 0.126909 1.57088 0
M  V30 7130 C 641.242 -0.53997 2.00248 0
M  V30 7131 C 641.667 -1.58927 1.00618 0
M  V30 7132 O 641.025 -1.81288 -0.0210131 0
M  V30 7133 C 641.073 -1.13565 3.4225 0
M  V30 7134 O 640.177 -2.25103 3.45547 0
M  V30 7135 H 639.518 -0.13412 0.650314 0
M  V30 7136 H 642.048 0.217718 2.03438 0
M  V30 7137 H 642.058 -1.46925 3.80627 0
M  V30 7138 H 640.733 -0.367122 4.14277 0
M  V30 7139 H 639.31 -1.93123 3.18995 0
M  V30 7140 N 641.495 -1.56914 -0.146875 0
M  V30 7141 C 642.443 -1.99224 -1.20053 0
M  V30 7142 C 643.437 -0.884661 -1.44465 0
M  V30 7143 O 644.643 -1.06984 -1.44756 0
M  V30 7144 H 641.018 -0.634191 -0.404112 0
M  V30 7145 H 642.989 -2.86998 -0.816987 0
M  V30 7146 C 641.738 -2.38899 -2.52632 0
M  V30 7147 H 641.061 -3.23677 -2.34677 0
M  V30 7148 H 642.501 -2.72326 -3.24984 0
M  V30 7149 C 640.96 -1.2417 -3.13183 0
M  V30 7150 O 641.49 -0.542503 -3.9802 0
M  V30 7151 N 639.696 -1.00592 -2.72635 0
M  V30 7152 H 639.243 -1.57627 -2.03744 0
M  V30 7153 H 639.201 -0.240174 -3.13481 0
M  V30 7154 N 642.974 0.416227 -1.52004 0
M  V30 7155 C 643.922 1.5272 -1.7544 0
M  V30 7156 C 644.916 1.57596 -0.621289 0
M  V30 7157 O 646.122 1.61087 -0.803172 0
M  V30 7158 H 642.497 0.507772 -0.554682 0
M  V30 7159 H 644.468 1.30136 -2.68528 0
M  V30 7160 C 643.217 2.90165 -1.91571 0
M  V30 7161 H 642.54 2.87154 -2.78178 0
M  V30 7162 H 643.98 3.67211 -2.11972 0
M  V30 7163 C 642.439 3.29947 -0.680942 0
M  V30 7164 O 642.969 4.01403 0.154527 0
M  V30 7165 N 641.175 2.8593 -0.518894 0
M  V30 7166 H 640.722 2.2795 -1.19986 0
M  V30 7167 H 640.68 3.12907 0.305985 0
M  V30 7168 N 644.452 1.42507 0.673017 0
M  V30 7169 C 645.701 1.42364 1.42883 0
M  V30 7170 C 646.014 0.0441598 1.9555 0
M  V30 7171 O 647.22 -0.0798679 2.71382 0
M  V30 7172 C 645.676 2.5043 2.58482 0
M  V30 7173 C 645.284 3.94392 2.12506 0
M  V30 7174 C 647.028 2.59455 3.35981 0
M  V30 7175 C 644.935 4.93964 3.25198 0
M  V30 7176 H 643.865 0.52951 0.536782 0
M  V30 7177 H 646.516 1.68422 0.728448 0
M  V30 7178 H 644.898 2.1754 3.30896 0
M  V30 7179 H 646.072 4.36645 1.47233 0
M  V30 7180 H 644.387 3.89233 1.4794 0
M  V30 7181 H 646.984 3.31025 4.19912 0
M  V30 7182 H 647.327 1.63869 3.82691 0
M  V30 7183 H 647.86 2.91549 2.70637 0
M  V30 7184 H 644.599 5.91034 2.83477 0
M  V30 7185 H 644.119 4.56341 3.89247 0
M  V30 7186 H 645.798 5.15763 3.90637 0
M  V30 7187 N 645.93 -0.909495 1.28709 0
M  V30 7188 C 647.176 -1.66151 1.16283 0
M  V30 7189 C 647.509 -1.92067 -0.287069 0
M  V30 7190 O 646.784 -1.52409 -1.20837 0
M  V30 7191 C 647.067 -3.01676 1.9663 0
M  V30 7192 C 646.92 -2.82888 3.49707 0
M  V30 7193 C 648.239 -4.02274 1.78504 0
M  V30 7194 H 645.358 -0.602966 0.423793 0
M  V30 7195 H 648 -1.05418 1.58073 0
M  V30 7196 H 646.15 -3.53515 1.61119 0
M  V30 7197 H 647.822 -2.38026 3.95147 0
M  V30 7198 H 646.065 -2.17862 3.75125 0
M  V30 7199 H 646.736 -3.79147 4.01187 0
M  V30 7200 H 649.212 -3.59511 2.09503 0
M  V30 7201 H 648.088 -4.95056 2.37088 0
M  V30 7202 H 648.349 -4.35903 0.737647 0
M  V30 7203 N 647.408 -1.11026 -1.11852 0
M  V30 7204 C 648.371 -0.768006 -2.1595 0
M  V30 7205 C 649.371 0.210538 -1.59416 0
M  V30 7206 O 650.561 -0.0133978 -1.74195 0
M  V30 7207 C 647.693 -0.138678 -3.40618 0
M  V30 7208 H 648.886 -1.69012 -2.4774 0
M  V30 7209 H 646.439 -0.911578 -1.26964 0
M  V30 7210 H 647.174 0.793872 -3.14433 0
M  V30 7211 H 646.959 -0.843012 -3.8293 0
M  V30 7212 H 648.449 0.0848039 -4.17514 0
M  V30 7213 N 648.886 1.2938 -0.899927 0
M  V30 7214 C 649.816 2.30144 -0.39446 0
M  V30 7215 C 650.797 1.61611 0.530639 0
M  V30 7216 O 651.982 1.89119 0.441319 0
M  V30 7217 C 649.112 3.45229 0.37868 0
M  V30 7218 C 648.066 4.25564 -0.456012 0
M  V30 7219 C 647.392 5.32848 0.444637 0
M  V30 7220 C 648.692 4.93651 -1.70605 0
M  V30 7221 H 650.386 2.72673 -1.23653 0
M  V30 7222 H 647.932 1.31086 -0.596034 0
M  V30 7223 H 649.885 4.14797 0.743037 0
M  V30 7224 H 648.609 3.01545 1.25453 0
M  V30 7225 H 647.268 3.57704 -0.802704 0
M  V30 7226 H 646.916 4.85408 1.31863 0
M  V30 7227 H 646.616 5.87497 -0.110154 0
M  V30 7228 H 648.14 6.05268 0.805182 0
M  V30 7229 H 649.554 5.55655 -1.41141 0
M  V30 7230 H 647.951 5.58233 -2.20217 0
M  V30 7231 H 649.021 4.18926 -2.4419 0
M  V30 7232 N 650.364 0.662433 1.43002 0
M  V30 7233 C 651.594 0.187343 2.05749 0
M  V30 7234 C 652.002 -1.15582 1.49791 0
M  V30 7235 O 651.345 -1.72651 0.627487 0
M  V30 7236 C 651.407 0.0316493 3.59486 0
M  V30 7237 C 651.071 1.30156 4.38073 0
M  V30 7238 C 652.068 2.23234 4.69535 0
M  V30 7239 C 649.753 1.54572 4.77926 0
M  V30 7240 C 651.747 3.39012 5.39768 0
M  V30 7241 C 649.434 2.70641 5.47902 0
M  V30 7242 C 650.432 3.62687 5.78746 0
M  V30 7243 O 650.12 4.76728 6.47291 0
M  V30 7244 H 649.852 0.0915214 0.669776 0
M  V30 7245 H 652.406 0.905982 1.8434 0
M  V30 7246 H 650.636 -0.742451 3.79506 0
M  V30 7247 H 652.325 -0.401977 4.03905 0
M  V30 7248 H 653.091 2.05616 4.39257 0
M  V30 7249 H 648.97 0.83804 4.53319 0
M  V30 7250 H 652.514 4.10877 5.63761 0
M  V30 7251 H 648.411 2.88189 5.77596 0
M  V30 7252 H 649.179 4.76113 6.65777 0
M  V30 7253 N 651.842 -1.52309 0.404946 0
M  V30 7254 C 653.091 -2.00952 -0.173529 0
M  V30 7255 C 653.404 -1.29512 -1.46581 0
M  V30 7256 O 654.61 -1.6895 -2.12528 0
M  V30 7257 C 653.066 -3.58097 -0.359801 0
M  V30 7258 C 652.674 -4.38449 0.920138 0
M  V30 7259 C 654.418 -4.14984 -0.893794 0
M  V30 7260 C 652.325 -5.87227 0.701285 0
M  V30 7261 H 651.255 -0.750871 -0.0686244 0
M  V30 7262 H 653.906 -1.75687 0.529749 0
M  V30 7263 H 652.288 -3.79675 -1.12531 0
M  V30 7264 H 653.462 -4.28633 1.69147 0
M  V30 7265 H 651.777 -3.92859 1.38024 0
M  V30 7266 H 654.374 -5.23813 -1.0735 0
M  V30 7267 H 654.717 -3.72072 -1.8673 0
M  V30 7268 H 655.25 -3.97358 -0.187453 0
M  V30 7269 H 651.989 -6.34491 1.64624 0
M  V30 7270 H 651.509 -5.99792 -0.0308288 0
M  V30 7271 H 653.188 -6.46096 0.341846 0
M  V30 7272 N 653.32 -0.135238 -1.57019 0
M  V30 7273 C 654.25 0.805235 -2.19176 0
M  V30 7274 C 655.231 1.2656 -1.13651 0
M  V30 7275 O 656.416 1.32528 -1.4195 0
M  V30 7276 C 653.546 2.04914 -2.80406 0
M  V30 7277 C 652.5 1.72598 -3.91655 0
M  V30 7278 C 651.826 3.04154 -4.39766 0
M  V30 7279 C 653.126 0.981709 -5.12991 0
M  V30 7280 H 654.82 0.287232 -2.98019 0
M  V30 7281 H 652.366 0.136714 -1.4335 0
M  V30 7282 H 654.319 2.71178 -3.22553 0
M  V30 7283 H 653.043 2.59067 -1.98877 0
M  V30 7284 H 651.702 1.08717 -3.50109 0
M  V30 7285 H 651.35 3.56274 -3.55075 0
M  V30 7286 H 651.05 2.83299 -5.14796 0
M  V30 7287 H 652.574 3.71509 -4.84576 0
M  V30 7288 H 653.988 1.5462 -5.52056 0
M  V30 7289 H 652.385 0.873533 -5.93708 0
M  V30 7290 H 653.455 -0.0286887 -4.84892 0
M  V30 7291 N 654.798 1.5699 0.138552 0
M  V30 7292 C 655.745 1.98899 1.17081 0
M  V30 7293 C 656.715 0.857922 1.42228 0
M  V30 7294 O 657.9 1.12065 1.54422 0
M  V30 7295 C 655.04 2.38189 2.4972 0
M  V30 7296 C 654.153 3.64624 2.31674 0
M  V30 7297 C 653.288 3.9298 3.57407 0
M  V30 7298 C 652.327 5.1266 3.34435 0
M  V30 7299 N 651.464 5.36983 4.5232 0
M  V30 7300 H 656.304 2.86881 0.80642 0
M  V30 7301 H 653.841 1.41925 0.386727 0
M  V30 7302 H 655.799 2.59 3.2707 0
M  V30 7303 H 654.429 1.53275 2.84089 0
M  V30 7304 H 653.481 3.51542 1.45337 0
M  V30 7305 H 654.793 4.52131 2.10664 0
M  V30 7306 H 653.947 4.14335 4.43183 0
M  V30 7307 H 652.686 3.03912 3.8143 0
M  V30 7308 H 651.691 4.9117 2.47048 0
M  V30 7309 H 652.916 6.03288 3.11802 0
M  V30 7310 H 650.862 4.50871 4.76499 0
M  V30 7311 H 650.779 6.18775 4.34343 0
M  V30 7312 H 652.047 5.62842 5.39285 0
M  V30 7313 N 656.276 -0.40816 1.52223 0
M  V30 7314 C 657.504 -1.17672 1.70179 0
M  V30 7315 C 657.919 -1.84257 0.411696 0
M  V30 7316 O 657.276 -1.7192 -0.612354 0
M  V30 7317 C 657.327 -2.23911 2.83806 0
M  V30 7318 O 657.048 -1.60044 4.0782 0
M  V30 7319 C 658.549 -3.1364 3.13281 0
M  V30 7320 H 655.769 -0.353562 0.570293 0
M  V30 7321 H 658.313 -0.480083 1.98785 0
M  V30 7322 H 656.468 -2.89242 2.57717 0
M  V30 7323 H 656.882 -2.30484 4.71145 0
M  V30 7324 H 658.356 -3.84255 3.96298 0
M  V30 7325 H 658.833 -3.76066 2.26872 0
M  V30 7326 H 659.439 -2.53977 3.41139 0
M  V30 7327 N 657.755 -1.42862 -0.66545 0
M  V30 7328 C 658.687 -1.43026 -1.79098 0
M  V30 7329 C 659.7 -0.32803 -1.59461 0
M  V30 7330 O 660.889 -0.591709 -1.68407 0
M  V30 7331 C 657.989 -1.21566 -3.16346 0
M  V30 7332 C 657.162 -2.44399 -3.62751 0
M  V30 7333 C 656.221 -2.18344 -4.78761 0
M  V30 7334 O 655.247 -2.91611 -4.88827 0
M  V30 7335 N 656.449 -1.1924 -5.68122 0
M  V30 7336 H 659.214 -2.40045 -1.79439 0
M  V30 7337 H 656.775 -1.37861 -0.848872 0
M  V30 7338 H 658.767 -1.02037 -3.91625 0
M  V30 7339 H 657.337 -0.330368 -3.10849 0
M  V30 7340 H 656.557 -2.79433 -2.78048 0
M  V30 7341 H 657.845 -3.26173 -3.90498 0
M  V30 7342 H 657.243 -0.586603 -5.6265 0
M  V30 7343 H 655.8 -1.05698 -6.43173 0
M  V30 7344 N 659.233 0.902656 -1.29189 0
M  V30 7345 C 660.463 1.68394 -1.19695 0
M  V30 7346 C 660.871 1.87602 0.245384 0
M  V30 7347 O 660.214 1.41084 1.17648 0
M  V30 7348 C 660.276 3.09094 -1.83578 0
M  V30 7349 C 659.94 3.1313 -3.32864 0
M  V30 7350 C 660.937 2.93497 -4.29134 0
M  V30 7351 C 658.622 3.3529 -3.74013 0
M  V30 7352 C 660.616 2.95953 -5.64527 0
M  V30 7353 C 658.303 3.37377 -5.09529 0
M  V30 7354 C 659.301 3.1773 -6.04596 0
M  V30 7355 O 658.989 3.196 -7.37639 0
M  V30 7356 H 658.721 0.532815 -0.416034 0
M  V30 7357 H 661.275 1.1374 -1.71033 0
M  V30 7358 H 659.505 3.65338 -1.26747 0
M  V30 7359 H 661.194 3.69297 -1.68447 0
M  V30 7360 H 661.96 2.76192 -3.98677 0
M  V30 7361 H 657.839 3.49623 -3.00474 0
M  V30 7362 H 661.383 2.80536 -6.38706 0
M  V30 7363 H 657.28 3.54213 -5.39633 0
M  V30 7364 H 658.048 3.35887 -7.46406 0
M  V30 7365 N 660.711 1.11618 1.11262 0
M  V30 7366 C 661.621 0.78898 2.20935 0
M  V30 7367 C 662.637 -0.21867 1.7262 0
M  V30 7368 O 663.813 -0.0543826 2.01327 0
M  V30 7369 C 660.878 0.239014 3.45875 0
M  V30 7370 C 659.939 1.3055 4.08968 0
M  V30 7371 C 659.172 0.781687 5.27944 0
M  V30 7372 O 659.395 -0.387605 5.69082 0
M  V30 7373 O 658.329 1.54734 5.81671 0
M  V30 7374 H 662.155 1.70477 2.51339 0
M  V30 7375 H 659.74 0.892203 1.19834 0
M  V30 7376 H 661.622 -0.0632312 4.21353 0
M  V30 7377 H 660.297 -0.649454 3.17118 0
M  V30 7378 H 659.204 1.66079 3.35214 0
M  V30 7379 H 660.537 2.16743 4.41909 0
M  V30 7380 N 662.189 -1.289 0.906776 0
M  V30 7381 C 663.099 -2.31256 0.394707 0
M  V30 7382 C 664.115 -1.66231 -0.514121 0
M  V30 7383 O 665.291 -1.97347 -0.401994 0
M  V30 7384 C 662.356 -3.44792 -0.363191 0
M  V30 7385 C 661.417 -4.25391 0.578012 0
M  V30 7386 C 660.65 -5.33506 -0.143811 0
M  V30 7387 O 660.873 -5.53786 -1.36665 0
M  V30 7388 O 659.807 -5.99673 0.5173 0
M  V30 7389 H 663.633 -2.77051 1.24405 0
M  V30 7390 H 661.218 -1.33466 0.671346 0
M  V30 7391 H 663.1 -4.139 -0.791503 0
M  V30 7392 H 661.775 -3.01093 -1.18848 0
M  V30 7393 H 660.682 -3.58899 1.05558 0
M  V30 7394 H 662.015 -4.72752 1.36992 0
M  V30 7395 N 663.667 -0.670007 -1.42649 0
M  V30 7396 C 664.615 0.0230106 -2.32589 0
M  V30 7397 C 665.609 0.795585 -1.49555 0
M  V30 7398 O 666.815 0.70409 -1.65658 0
M  V30 7399 H 663.19 0.0262342 -0.751542 0
M  V30 7400 H 665.161 -0.753009 -2.88743 0
M  V30 7401 C 663.91 0.963872 -3.34073 0
M  V30 7402 H 663.233 0.378813 -3.98001 0
M  V30 7403 H 664.673 1.41755 -3.99602 0
M  V30 7404 C 663.132 2.06797 -2.65964 0
M  V30 7405 O 663.662 3.15383 -2.48789 0
M  V30 7406 N 661.868 1.83831 -2.25066 0
M  V30 7407 H 661.415 0.955235 -2.39234 0
M  V30 7408 H 661.373 2.57895 -1.79827 0
M  V30 7409 N 665.145 1.52092 -0.413018 0
M  V30 7410 C 666.092 2.27119 0.410558 0
M  V30 7411 C 667.062 1.29692 1.03774 0
M  V30 7412 O 668.247 1.58561 1.06128 0
M  V30 7413 C 665.387 3.09863 1.51918 0
M  V30 7414 C 664.5 4.22252 0.912528 0
M  V30 7415 C 663.635 4.92348 1.99417 0
M  V30 7416 C 662.674 5.96694 1.36466 0
M  V30 7417 N 661.811 6.60292 2.38661 0
M  V30 7418 H 666.651 2.97067 -0.235661 0
M  V30 7419 H 664.188 1.46542 -0.128055 0
M  V30 7420 H 666.146 3.56144 2.17295 0
M  V30 7421 H 664.776 2.42078 2.13537 0
M  V30 7422 H 663.828 3.80113 0.147697 0
M  V30 7423 H 665.14 4.9709 0.412717 0
M  V30 7424 H 664.294 5.42054 2.72512 0
M  V30 7425 H 663.033 4.17087 2.52764 0
M  V30 7426 H 662.038 5.46304 0.61906 0
M  V30 7427 H 663.263 6.73899 0.838827 0
M  V30 7428 H 661.209 5.87858 2.91134 0
M  V30 7429 H 661.126 7.30816 1.93503 0
M  V30 7430 H 662.394 7.14635 3.11314 0
M  V30 7431 N 666.623 0.143563 1.56945 0
M  V30 7432 C 667.553 -0.7936 2.196 0
M  V30 7433 C 668.534 -1.25955 1.14321 0
M  V30 7434 O 669.719 -1.31773 1.42651 0
M  V30 7435 C 666.849 -2.03424 2.81489 0
M  V30 7436 C 665.803 -1.70519 3.92565 0
M  V30 7437 C 665.129 -3.01817 4.41373 0
M  V30 7438 C 666.429 -0.95449 5.13504 0
M  V30 7439 H 668.123 -0.271423 2.98167 0
M  V30 7440 H 665.669 -0.12911 1.4342 0
M  V30 7441 H 667.622 -2.69463 3.23987 0
M  V30 7442 H 666.346 -2.58008 2.00248 0
M  V30 7443 H 665.005 -1.06859 3.5068 0
M  V30 7444 H 664.653 -3.54386 3.56959 0
M  V30 7445 H 664.353 -2.80565 5.16292 0
M  V30 7446 H 665.877 -3.68934 4.86539 0
M  V30 7447 H 667.291 -1.5169 5.52868 0
M  V30 7448 H 665.688 -0.842035 5.94163 0
M  V30 7449 H 666.758 0.0544033 4.84869 0
M  V30 7450 N 668.101 -1.57061 -0.130224 0
M  V30 7451 C 669.326 -1.88802 -0.858409 0
M  V30 7452 C 669.751 -0.734353 -1.73173 0
M  V30 7453 O 669.109 0.315529 -1.78533 0
M  V30 7454 C 669.157 -3.19228 -1.67708 0
M  V30 7455 O 668.261 -3.04343 -2.78297 0
M  V30 7456 H 667.602 -0.619849 -0.238083 0
M  V30 7457 H 670.132 -2.04271 -0.115995 0
M  V30 7458 H 670.142 -3.51669 -2.06864 0
M  V30 7459 H 668.817 -4.02793 -1.0359 0
M  V30 7460 H 667.394 -2.83346 -2.42425 0
M  V30 7461 N 669.579 0.400081 -1.52437 0
M  V30 7462 C 670.489 1.51253 -1.79331 0
M  V30 7463 C 671.505 1.60188 -0.679396 0
M  V30 7464 O 672.681 1.76733 -0.965791 0
M  V30 7465 C 669.746 2.869 -1.94652 0
M  V30 7466 C 668.807 2.87777 -3.18564 0
M  V30 7467 C 668.04 4.16954 -3.33145 0
M  V30 7468 O 668.263 5.11329 -2.52783 0
M  V30 7469 O 667.197 4.2487 -4.26343 0
M  V30 7470 H 671.023 1.31461 -2.73773 0
M  V30 7471 H 668.608 0.586834 -1.37392 0
M  V30 7472 H 670.49 3.67336 -2.065 0
M  V30 7473 H 669.165 3.06741 -1.034 0
M  V30 7474 H 668.072 2.06162 -3.12167 0
M  V30 7475 H 669.405 2.72886 -4.09627 0
M  V30 7476 N 671.057 1.43213 0.657864 0
M  V30 7477 C 672.287 1.478 1.44356 0
M  V30 7478 C 672.695 0.0930206 1.88971 0
M  V30 7479 O 672.038 -0.906089 1.59799 0
M  V30 7480 C 672.1 2.35745 2.71412 0
M  V30 7481 C 671.764 3.83359 2.48767 0
M  V30 7482 C 672.761 4.74585 2.12285 0
M  V30 7483 C 670.446 4.27799 2.63235 0
M  V30 7484 C 672.44 6.08247 1.90562 0
M  V30 7485 C 670.127 5.61516 2.41128 0
M  V30 7486 C 671.125 6.51557 2.04847 0
M  V30 7487 O 670.813 7.82802 1.82967 0
M  V30 7488 H 670.545 0.504363 0.450104 0
M  V30 7489 H 673.099 1.88572 0.814241 0
M  V30 7490 H 671.329 1.89852 3.36887 0
M  V30 7491 H 673.018 2.31589 3.33348 0
M  V30 7492 H 673.784 4.41531 2.00687 0
M  V30 7493 H 669.663 3.57993 2.90451 0
M  V30 7494 H 673.207 6.78489 1.62168 0
M  V30 7495 H 669.104 5.94139 2.52327 0
M  V30 7496 H 669.872 7.94332 1.97429 0
M  V30 7497 N 672.536 -0.895792 1.29666 0
M  V30 7498 C 673.952 -1.17726 1.07763 0
M  V30 7499 C 674.152 -2.00794 -0.168576 0
M  V30 7500 O 673.208 -2.37213 -0.865244 0
M  V30 7501 C 674.521 -1.89441 2.33522 0
M  V30 7502 C 676.069 -2.02251 2.3888 0
M  V30 7503 C 676.544 -2.77378 3.64452 0
M  V30 7504 N 678.035 -2.8493 3.65198 0
M  V30 7505 C 678.77 -3.43606 4.59045 0
M  V30 7506 N 678.266 -4.03417 5.63228 0
M  V30 7507 N 680.059 -3.41317 4.46608 0
M  V30 7508 H 672.21 -0.341652 2.09634 0
M  V30 7509 H 674.473 -0.213865 0.923561 0
M  V30 7510 H 674.179 -1.35842 3.24407 0
M  V30 7511 H 674.053 -2.89893 2.41334 0
M  V30 7512 H 676.44 -2.55025 1.4848 0
M  V30 7513 H 676.521 -1.0092 2.3505 0
M  V30 7514 H 676.165 -2.25279 4.55205 0
M  V30 7515 H 676.095 -3.79062 3.65541 0
M  V30 7516 H 678.586 -2.42453 2.89871 0
M  V30 7517 H 678.899 -4.46224 6.30955 0
M  V30 7518 H 677.244 -4.01868 5.67033 0
M  V30 7519 H 680.435 -2.93812 3.64407 0
M  V30 7520 H 680.608 -3.86751 5.1993 0
M  V30 7521 N 674.014 -1.12206 -1.10668 0
M  V30 7522 C 674.977 -0.790867 -2.15123 0
M  V30 7523 C 675.977 0.193618 -1.5963 0
M  V30 7524 O 677.167 -0.0318728 -1.74171 0
M  V30 7525 C 674.299 -0.174797 -3.40452 0
M  V30 7526 H 675.492 -1.7163 -2.45933 0
M  V30 7527 H 673.045 -0.924993 -1.2599 0
M  V30 7528 H 673.78 0.760478 -3.15257 0
M  V30 7529 H 673.565 -0.88358 -3.82015 0
M  V30 7530 H 675.055 0.0405162 -4.1758 0
M  V30 7531 N 675.492 1.28418 -0.913599 0
M  V30 7532 C 676.442 2.24928 -0.373042 0
M  V30 7533 C 677.426 1.52444 0.514753 0
M  V30 7534 O 678.618 1.73414 0.3545 0
M  V30 7535 C 675.747 3.41124 0.385896 0
M  V30 7536 C 674.833 4.20929 -0.51761 0
M  V30 7537 N 675.224 4.78777 -1.63113 0
M  V30 7538 C 673.522 4.44865 -0.317969 0
M  V30 7539 C 674.223 5.38822 -2.19193 0
M  V30 7540 N 673.199 5.22974 -1.48321 0
M  V30 7541 H 677.001 2.67224 -1.22346 0
M  V30 7542 H 674.515 1.43187 -0.766236 0
M  V30 7543 H 676.512 4.09347 0.789997 0
M  V30 7544 H 675.172 3.00362 1.23341 0
M  V30 7545 H 676.183 4.77148 -2.01372 0
M  V30 7546 H 672.86 4.14614 0.49004 0
M  V30 7547 H 674.25 5.94615 -3.12861 0
M  V30 7548 N 676.97 0.677563 1.42291 0
M  V30 7549 C 677.917 0.000947061 2.308 0
M  V30 7550 C 678.887 -0.789889 1.46116 0
M  V30 7551 O 680.072 -0.761578 1.74942 0
M  V30 7552 C 677.212 -0.942387 3.31984 0
M  V30 7553 C 676.325 -0.14508 4.31756 0
M  V30 7554 C 675.46 -1.08442 5.20013 0
M  V30 7555 C 674.499 -0.278958 6.11464 0
M  V30 7556 N 673.636 -1.17115 6.92263 0
M  V30 7557 H 678.476 0.761521 2.88106 0
M  V30 7558 H 676.013 0.38727 1.41911 0
M  V30 7559 H 677.971 -1.50317 3.89179 0
M  V30 7560 H 676.601 -1.66956 2.76271 0
M  V30 7561 H 675.653 0.532368 3.76656 0
M  V30 7562 H 676.965 0.48015 4.96484 0
M  V30 7563 H 676.119 -1.71504 5.81955 0
M  V30 7564 H 674.858 -1.74353 4.55469 0
M  V30 7565 H 673.863 0.364856 5.48588 0
M  V30 7566 H 675.088 0.376099 6.78058 0
M  V30 7567 H 673.034 -1.81661 6.30345 0
M  V30 7568 H 672.951 -0.601063 7.53607 0
M  V30 7569 H 674.219 -1.78915 7.58689 0
M  V30 7570 N 678.448 -1.51871 0.421078 0
M  V30 7571 C 679.695 -2.01938 -0.15079 0
M  V30 7572 C 680.023 -1.30611 -1.44121 0
M  V30 7573 O 679.278 -0.404631 -1.91471 0
M  V30 7574 C 679.577 -3.54764 -0.433292 0
M  V30 7575 C 679.243 -4.44288 0.76936 0
M  V30 7576 C 677.905 -4.68477 1.09921 0
M  V30 7577 C 680.257 -4.96915 1.57242 0
M  V30 7578 C 677.585 -5.4254 2.2331 0
M  V30 7579 C 679.937 -5.7222 2.69716 0
M  V30 7580 C 678.601 -5.94678 3.03174 0
M  V30 7581 H 677.871 -0.738943 -0.0551781 0
M  V30 7582 H 680.518 -1.82977 0.564945 0
M  V30 7583 H 678.823 -3.71968 -1.23074 0
M  V30 7584 H 680.52 -3.91023 -0.888922 0
M  V30 7585 H 677.11 -4.25646 0.502305 0
M  V30 7586 H 681.294 -4.78125 1.3308 0
M  V30 7587 H 676.55 -5.58146 2.49565 0
M  V30 7588 H 680.724 -6.11992 3.32323 0
M  V30 7589 H 678.351 -6.51848 3.9115 0
M  V30 7590 N 679.926 -0.151884 -1.56866 0
M  V30 7591 C 681.156 0.504081 -2.00356 0
M  V30 7592 C 681.564 1.58639 -1.03103 0
M  V30 7593 O 680.907 1.83688 -0.0207931 0
M  V30 7594 C 680.969 1.15975 -3.40279 0
M  V30 7595 C 680.633 0.221453 -4.56463 0
M  V30 7596 C 681.63 -0.552766 -5.16953 0
M  V30 7597 C 679.315 0.122936 -5.0215 0
M  V30 7598 C 681.309 -1.4129 -6.21543 0
M  V30 7599 C 678.996 -0.740801 -6.06593 0
M  V30 7600 C 679.994 -1.50732 -6.6616 0
M  V30 7601 O 679.682 -2.35666 -7.68581 0
M  V30 7602 H 679.414 0.135279 -0.662326 0
M  V30 7603 H 681.968 -0.244916 -2.03935 0
M  V30 7604 H 680.198 1.95649 -3.33554 0
M  V30 7605 H 681.887 1.71594 -3.67846 0
M  V30 7606 H 682.653 -0.486716 -4.82552 0
M  V30 7607 H 678.532 0.70931 -4.5551 0
M  V30 7608 H 682.076 -2.01166 -6.67966 0
M  V30 7609 H 677.973 -0.808125 -6.40421 0
M  V30 7610 H 678.741 -2.28967 -7.85822 0
M  V30 7611 N 681.404 1.57128 0.121893 0
M  V30 7612 C 682.82 1.52357 0.47534 0
M  V30 7613 C 683.02 0.864417 1.82017 0
M  V30 7614 O 682.076 0.445529 2.48538 0
M  V30 7615 C 683.389 2.97122 0.4625 0
M  V30 7616 C 684.937 3.08196 0.546255 0
M  V30 7617 C 685.412 4.54516 0.563833 0
M  V30 7618 N 686.903 4.58959 0.625353 0
M  V30 7619 C 687.638 5.69585 0.660354 0
M  V30 7620 N 687.134 6.89714 0.653175 0
M  V30 7621 N 688.927 5.57685 0.703143 0
M  V30 7622 H 681.078 1.98364 -0.75931 0
M  V30 7623 H 683.341 0.905777 -0.279772 0
M  V30 7624 H 683.047 3.48706 -0.457943 0
M  V30 7625 H 682.921 3.54406 1.29136 0
M  V30 7626 H 685.308 2.56617 1.45712 0
M  V30 7627 H 685.389 2.53912 -0.310234 0
M  V30 7628 H 685.033 5.06741 -0.342974 0
M  V30 7629 H 684.963 5.06609 1.43716 0
M  V30 7630 H 687.454 3.72489 0.637182 0
M  V30 7631 H 687.767 7.69781 0.682425 0
M  V30 7632 H 686.112 6.92223 0.620646 0
M  V30 7633 H 689.303 4.62744 0.706095 0
M  V30 7634 H 689.476 6.43909 0.726952 0
M  V30 7635 N 682.882 -0.391992 1.52647 0
M  V30 7636 C 684.298 -0.731848 1.41831 0
M  V30 7637 C 684.498 -1.9423 0.536361 0
M  V30 7638 O 683.554 -2.52499 0.00866571 0
M  V30 7639 C 684.867 -0.969743 2.84634 0
M  V30 7640 C 686.415 -1.0714 2.94092 0
M  V30 7641 C 686.89 -1.34195 4.37899 0
M  V30 7642 N 688.381 -1.41023 4.41211 0
M  V30 7643 C 689.116 -1.63616 5.49561 0
M  V30 7644 N 688.612 -1.83699 6.68002 0
M  V30 7645 N 690.405 -1.65771 5.371 0
M  V30 7646 H 682.556 0.404547 2.08512 0
M  V30 7647 H 684.819 0.11879 0.940528 0
M  V30 7648 H 684.525 -0.152465 3.51369 0
M  V30 7649 H 684.399 -1.88523 3.26709 0
M  V30 7650 H 686.786 -1.87925 2.27526 0
M  V30 7651 H 686.867 -0.133887 2.55449 0
M  V30 7652 H 686.511 -0.539207 5.0503 0
M  V30 7653 H 686.441 -2.29226 4.74092 0
M  V30 7654 H 688.932 -1.27223 3.55841 0
M  V30 7655 H 689.245 -2.00437 7.46354 0
M  V30 7656 H 687.59 -1.8093 6.71036 0
M  V30 7657 H 690.781 -1.4963 4.43541 0
M  V30 7658 H 690.954 -1.83038 6.21612 0
M  V30 7659 N 684.36 -1.4356 -0.65026 0
M  V30 7660 C 685.307 -1.48948 -1.76304 0
M  V30 7661 C 686.277 -0.338919 -1.62605 0
M  V30 7662 O 687.462 -0.54649 -1.82806 0
M  V30 7663 C 684.602 -1.42131 -3.14472 0
M  V30 7664 C 683.715 -2.67415 -3.39284 0
M  V30 7665 C 682.85 -2.52565 -4.67316 0
M  V30 7666 C 681.889 -3.73103 -4.85243 0
M  V30 7667 N 681.026 -3.57046 -6.04535 0
M  V30 7668 H 685.866 -2.44032 -1.71034 0
M  V30 7669 H 683.403 -1.21131 -0.834601 0
M  V30 7670 H 685.361 -1.36172 -3.94351 0
M  V30 7671 H 683.991 -0.506273 -3.18805 0
M  V30 7672 H 683.043 -2.8364 -2.53481 0
M  V30 7673 H 684.355 -3.56943 -3.48415 0
M  V30 7674 H 683.509 -2.44331 -5.55326 0
M  V30 7675 H 682.248 -1.60566 -4.60511 0
M  V30 7676 H 681.253 -3.81743 -3.95667 0
M  V30 7677 H 682.478 -4.66115 -4.93876 0
M  V30 7678 H 680.424 -2.67783 -5.98856 0
M  V30 7679 H 680.341 -4.40178 -6.14638 0
M  V30 7680 H 681.609 -3.52669 -6.95158 0
M  V30 7681 N 685.838 0.888903 -1.30139 0
M  V30 7682 C 687.254 1.17153 -1.08385 0
M  V30 7683 C 687.454 2.0088 0.157925 0
M  V30 7684 O 686.51 2.37668 0.852652 0
M  V30 7685 C 687.823 1.882 -2.34523 0
M  V30 7686 C 689.371 2.00981 -2.39949 0
M  V30 7687 C 689.846 2.75441 -3.65918 0
M  V30 7688 N 691.337 2.82989 -3.66704 0
M  V30 7689 C 692.072 3.41167 -4.60861 0
M  V30 7690 N 691.568 4.00425 -5.6536 0
M  V30 7691 N 693.361 3.38944 -4.48412 0
M  V30 7692 H 685.512 0.33053 -2.09812 0
M  V30 7693 H 687.775 0.208964 -0.924683 0
M  V30 7694 H 687.481 1.34119 -3.25123 0
M  V30 7695 H 687.355 2.88609 -2.42868 0
M  V30 7696 H 689.742 2.54234 -1.4983 0
M  V30 7697 H 689.823 0.996725 -2.35582 0
M  V30 7698 H 689.467 2.22861 -4.56394 0
M  V30 7699 H 689.397 3.77118 -3.67546 0
M  V30 7700 H 691.888 2.40912 -2.91153 0
M  V30 7701 H 692.201 4.42871 -6.33313 0
M  V30 7702 H 690.546 3.98856 -5.69157 0
M  V30 7703 H 693.737 2.91875 -3.6596 0
M  V30 7704 H 693.91 3.83989 -5.21974 0
M  V30 7705 N 687.317 1.12792 1.10072 0
M  V30 7706 C 688.563 0.886857 1.82381 0
M  V30 7707 C 688.896 -0.58576 1.85155 0
M  V30 7708 O 688.171 -1.43317 1.31493 0
M  V30 7709 C 688.454 1.46703 3.28862 0
M  V30 7710 C 688.307 3.00829 3.34398 0
M  V30 7711 C 689.626 1.12971 4.25353 0
M  V30 7712 H 686.745 0.32362 0.662148 0
M  V30 7713 H 689.387 1.39513 1.28982 0
M  V30 7714 H 687.537 1.03476 3.74466 0
M  V30 7715 H 689.209 3.52764 2.97247 0
M  V30 7716 H 687.452 3.36164 2.74183 0
M  V30 7717 H 688.123 3.36519 4.3756 0
M  V30 7718 H 690.599 1.50313 3.88001 0
M  V30 7719 H 689.475 1.56223 5.26199 0
M  V30 7720 H 689.736 0.0424452 4.4208 0
M  V30 7721 N 688.795 -1.27931 0.920396 0
M  V30 7722 C 690.02 -1.99343 0.572478 0
M  V30 7723 C 690.445 -1.68267 -0.840696 0
M  V30 7724 O 689.803 -0.918805 -1.56294 0
M  V30 7725 C 689.851 -3.51698 0.796284 0
M  V30 7726 O 688.955 -4.12157 -0.141602 0
M  V30 7727 H 688.296 -0.626065 0.221221 0
M  V30 7728 H 690.826 -1.62921 1.23765 0
M  V30 7729 H 690.836 -4.01793 0.708984 0
M  V30 7730 H 689.511 -3.73649 1.82644 0
M  V30 7731 H 688.088 -3.729 -0.005007 0
M  V30 7732 N 690.273 -0.685099 -1.4193 0
M  V30 7733 C 691.221 -0.00165985 -2.326 0
M  V30 7734 C 692.215 0.779678 -1.50391 0
M  V30 7735 O 693.421 0.68648 -1.66395 0
M  V30 7736 H 689.796 0.0182616 -0.751778 0
M  V30 7737 H 691.767 -0.783592 -2.87928 0
M  V30 7738 C 690.516 0.928385 -3.35077 0
M  V30 7739 H 689.839 0.336578 -3.98381 0
M  V30 7740 H 691.279 1.37509 -4.01083 0
M  V30 7741 C 689.738 2.03964 -2.68142 0
M  V30 7742 O 690.268 3.12727 -2.5212 0
M  V30 7743 N 688.474 1.81433 -2.27003 0
M  V30 7744 H 688.021 0.929807 -2.40234 0
M  V30 7745 H 687.979 2.55973 -1.82552 0
M  V30 7746 N 691.751 1.51645 -0.429126 0
M  V30 7747 C 693 2.01203 0.141538 0
M  V30 7748 C 693.313 1.31828 1.44502 0
M  V30 7749 O 694.519 1.7231 2.09813 0
M  V30 7750 C 692.975 3.58624 0.302786 0
M  V30 7751 C 692.583 4.3693 -0.989775 0
M  V30 7752 C 694.327 4.16353 0.827661 0
M  V30 7753 C 692.234 5.86037 -0.794619 0
M  V30 7754 H 691.164 0.751867 0.05667 0
M  V30 7755 H 693.815 1.74822 -0.557633 0
M  V30 7756 H 692.197 3.81417 1.06476 0
M  V30 7757 H 693.371 4.25887 -1.75945 0
M  V30 7758 H 691.686 3.90614 -1.44256 0
M  V30 7759 H 694.283 5.25455 0.990026 0
M  V30 7760 H 694.626 3.74995 1.80787 0
M  V30 7761 H 695.159 3.97606 0.124213 0
M  V30 7762 H 691.898 6.31792 -1.74697 0
M  V30 7763 H 691.418 5.99765 -0.0645968 0
M  V30 7764 H 693.097 6.45471 -0.444591 0
M  V30 7765 N 693.229 0.160201 1.56784 0
M  V30 7766 C 694.457 -0.494165 2.00912 0
M  V30 7767 C 694.872 -1.57548 1.04038 0
M  V30 7768 O 694.229 -1.82457 0.0394581 0
M  V30 7769 C 694.28 -1.08271 3.44905 0
M  V30 7770 O 694.001 -0.0445704 4.38077 0
M  V30 7771 C 695.502 -1.8164 4.04378 0
M  V30 7772 H 692.722 -0.127498 0.658776 0
M  V30 7773 H 695.266 0.258665 2.02858 0
M  V30 7774 H 693.421 -1.78609 3.4377 0
M  V30 7775 H 693.835 -0.477544 5.22322 0
M  V30 7776 H 695.309 -2.18094 5.07089 0
M  V30 7777 H 695.786 -2.70727 3.45838 0
M  V30 7778 H 696.392 -1.15969 4.09184 0
M  V30 7779 N 694.707 -1.5719 -0.113559 0
M  V30 7780 C 695.655 -2.01725 -1.158 0
M  V30 7781 C 696.649 -0.915105 -1.42556 0
M  V30 7782 O 697.855 -1.10031 -1.42454 0
M  V30 7783 H 694.23 -0.64262 -0.390569 0
M  V30 7784 H 696.201 -2.88666 -0.755926 0
M  V30 7785 C 694.95 -2.44203 -2.47507 0
M  V30 7786 H 694.273 -3.28582 -2.27758 0
M  V30 7787 H 695.713 -2.79158 -3.19135 0
M  V30 7788 C 694.172 -1.30785 -3.10478 0
M  V30 7789 O 694.702 -0.626807 -3.9678 0
M  V30 7790 N 692.908 -1.06352 -2.7044 0
M  V30 7791 H 692.455 -1.61913 -2.00355 0
M  V30 7792 H 692.413 -0.306614 -3.12901 0
M  V30 7793 N 696.185 0.383891 -1.52853 0
M  V30 7794 C 697.462 1.14296 -1.58732 0
M  V30 7795 C 697.842 2.07585 -0.383611 0
M  V30 7796 O 697.19 2.1971 0.627661 0
M  V30 7797 C 697.4 1.89816 -2.92867 0
M  V30 7798 C 698.748 2.44998 -3.46787 0
M  V30 7799 O 699.772 1.99966 -2.94774 0
M  V30 7800 O 698.631 3.2727 -4.37672 0
M  V30 7801 H 695.725 0.52326 -0.640413 0
M  V30 7802 H 698.271 0.388631 -1.6519 0
M  V30 7803 H 697.043 1.21626 -3.71918 0
M  V30 7804 H 696.666 2.72199 -2.89816 0
M  V30 7805 N 697.663 1.43903 0.642637 0
M  V30 7806 C 698.596 1.44339 1.76753 0
M  V30 7807 C 699.574 0.303558 1.59741 0
M  V30 7808 O 700.758 0.498775 1.81781 0
M  V30 7809 C 697.885 1.26508 3.14187 0
M  V30 7810 C 696.931 2.43905 3.49875 0
M  V30 7811 S 697.764 4.0645 3.48653 0
M  V30 7812 C 698.92 3.91021 4.88726 0
M  V30 7813 H 699.153 2.39523 1.76113 0
M  V30 7814 H 696.686 1.31061 0.81623 0
M  V30 7815 H 698.644 1.16908 3.93501 0
M  V30 7816 H 697.305 0.328548 3.12377 0
M  V30 7817 H 696.498 2.27262 4.49853 0
M  V30 7818 H 696.1 2.50186 2.77998 0
M  V30 7819 H 698.392 3.54 5.77659 0
M  V30 7820 H 699.335 4.9079 5.10423 0
M  V30 7821 H 699.743 3.23287 4.62759 0
M  V30 7822 N 699.141 -0.881989 1.30609 0
M  V30 7823 C 700.39 -1.62878 1.18969 0
M  V30 7824 C 700.703 -1.93946 -0.253859 0
M  V30 7825 O 701.909 -2.67008 -0.491813 0
M  V30 7826 C 700.365 -2.93573 2.0819 0
M  V30 7827 C 699.973 -2.70034 3.57471 0
M  V30 7828 C 701.717 -3.71543 2.0532 0
M  V30 7829 C 699.624 -3.96563 4.38739 0
M  V30 7830 H 698.554 -0.611092 0.441682 0
M  V30 7831 H 701.205 -0.976201 1.55379 0
M  V30 7832 H 699.587 -3.6014 1.64666 0
M  V30 7833 H 700.761 -2.11949 4.09163 0
M  V30 7834 H 699.076 -2.05435 3.62195 0
M  V30 7835 H 701.673 -4.65386 2.63288 0
M  V30 7836 H 702.016 -4.03167 1.03739 0
M  V30 7837 H 702.549 -3.11842 2.46981 0
M  V30 7838 H 699.288 -3.70095 5.41027 0
M  V30 7839 H 698.808 -4.54142 3.9181 0
M  V30 7840 H 700.487 -4.64557 4.50329 0
M  V30 7841 N 700.619 -1.13374 -1.09472 0
M  V30 7842 C 701.566 -0.810682 -2.16094 0
M  V30 7843 C 702.536 0.227003 -1.64541 0
M  V30 7844 O 703.721 0.0993538 -1.90541 0
M  V30 7845 C 700.861 -0.282336 -3.43943 0
M  V30 7846 C 699.974 -1.37902 -4.09398 0
M  V30 7847 C 699.109 -0.809066 -5.25002 0
M  V30 7848 C 698.148 -1.88419 -5.82379 0
M  V30 7849 N 697.285 -1.33221 -6.89345 0
M  V30 7850 H 702.125 -1.72397 -2.43071 0
M  V30 7851 H 699.662 -0.860564 -1.19301 0
M  V30 7852 H 701.62 0.0421189 -4.17179 0
M  V30 7853 H 700.25 0.594083 -3.17286 0
M  V30 7854 H 699.302 -1.82008 -3.34032 0
M  V30 7855 H 700.614 -2.19161 -4.48074 0
M  V30 7856 H 699.768 -0.435867 -6.05132 0
M  V30 7857 H 698.507 0.0346058 -4.87688 0
M  V30 7858 H 697.512 -2.26646 -5.00911 0
M  V30 7859 H 698.737 -2.73125 -6.21755 0
M  V30 7860 H 696.683 -0.510535 -6.5401 0
M  V30 7861 H 696.6 -2.08129 -7.26786 0
M  V30 7862 H 697.868 -0.986565 -7.73232 0
M  V30 7863 N 702.098 1.27442 -0.927168 0
M  V30 7864 C 703.045 2.26863 -0.424459 0
M  V30 7865 C 704.015 1.5813 0.508346 0
M  V30 7866 O 705.2 1.85946 0.42762 0
M  V30 7867 C 702.34 3.43639 0.31718 0
M  V30 7868 C 701.453 4.27087 -0.649675 0
M  V30 7869 C 700.588 5.31082 0.111753 0
M  V30 7870 C 699.627 6.062 -0.847843 0
M  V30 7871 N 698.764 7.01999 -0.119074 0
M  V30 7872 H 703.604 2.69239 -1.27728 0
M  V30 7873 H 701.141 1.32394 -0.641106 0
M  V30 7874 H 703.099 4.10155 0.763486 0
M  V30 7875 H 701.729 3.02217 1.13424 0
M  V30 7876 H 700.781 3.60491 -1.21451 0
M  V30 7877 H 702.093 4.79242 -1.38307 0
M  V30 7878 H 701.247 6.03544 0.618 0
M  V30 7879 H 699.986 4.7973 0.878114 0
M  V30 7880 H 698.991 5.32577 -1.36534 0
M  V30 7881 H 700.216 6.59642 -1.61398 0
M  V30 7882 H 698.162 6.52977 0.629051 0
M  V30 7883 H 698.079 7.5184 -0.792046 0
M  V30 7884 H 699.347 7.78638 0.366537 0
M  V30 7885 N 703.576 0.692616 1.41565 0
M  V30 7886 C 704.853 0.150496 1.9502 0
M  V30 7887 C 705.233 -1.33881 1.63215 0
M  V30 7888 O 704.581 -2.08378 0.937598 0
M  V30 7889 C 704.791 0.438636 3.46233 0
M  V30 7890 C 706.139 0.364777 4.2303 0
M  V30 7891 O 707.163 0.373383 3.54238 0
M  V30 7892 O 706.022 0.32234 5.45549 0
M  V30 7893 H 703.116 0.0132454 0.826894 0
M  V30 7894 H 705.662 0.768574 1.51298 0
M  V30 7895 H 704.434 1.46962 3.62654 0
M  V30 7896 H 704.057 -0.210562 3.97042 0
M  V30 7897 N 705.054 -1.51416 0.437162 0
M  V30 7898 C 706.301 -2.02086 -0.129364 0
M  V30 7899 C 706.629 -1.32133 -1.42728 0
M  V30 7900 O 705.884 -0.424916 -1.91031 0
M  V30 7901 C 706.183 -3.55203 -0.39564 0
M  V30 7902 C 705.849 -4.43447 0.81644 0
M  V30 7903 C 704.511 -4.67285 1.14884 0
M  V30 7904 C 706.863 -4.95219 1.62503 0
M  V30 7905 C 704.191 -5.40141 2.29052 0
M  V30 7906 C 706.543 -5.69327 2.7577 0
M  V30 7907 C 705.207 -5.91429 3.09464 0
M  V30 7908 H 704.477 -0.739486 -0.0473375 0
M  V30 7909 H 707.124 -1.82368 0.584321 0
M  V30 7910 H 705.429 -3.73252 -1.19121 0
M  V30 7911 H 707.126 -3.91944 -0.847399 0
M  V30 7912 H 703.716 -4.2509 0.547422 0
M  V30 7913 H 707.9 -4.76686 1.38144 0
M  V30 7914 H 703.156 -5.55468 2.55471 0
M  V30 7915 H 707.33 -6.08433 3.38795 0
M  V30 7916 H 704.957 -6.47662 3.98042 0
M  V30 7917 N 706.532 -0.168513 -1.56696 0
M  V30 7918 C 707.76 0.483503 -2.01171 0
M  V30 7919 C 708.175 1.56994 -1.04872 0
M  V30 7920 O 707.532 1.82434 -0.0491337 0
M  V30 7921 C 707.583 1.0644 -3.45475 0
M  V30 7922 O 707.304 0.0213375 -4.38095 0
M  V30 7923 C 708.805 1.79493 -4.05336 0
M  V30 7924 H 706.025 0.124002 -0.659443 0
M  V30 7925 H 708.569 -0.269419 -2.02717 0
M  V30 7926 H 706.724 1.76784 -3.44712 0
M  V30 7927 H 707.138 0.449837 -5.22567 0
M  V30 7928 H 708.612 2.15401 -5.08238 0
M  V30 7929 H 709.089 2.68889 -3.47269 0
M  V30 7930 H 709.695 1.13798 -4.09793 0
M  V30 7931 N 708.01 1.57248 0.105221 0
M  V30 7932 C 708.942 1.98008 1.15436 0
M  V30 7933 C 709.955 0.881236 1.36887 0
M  V30 7934 O 711.144 1.15943 1.35718 0
M  V30 7935 C 708.244 2.27509 2.51183 0
M  V30 7936 C 707.417 3.58811 2.50147 0
M  V30 7937 C 706.476 3.76365 3.67745 0
M  V30 7938 O 705.502 4.48329 3.50699 0
M  V30 7939 N 706.704 3.16174 4.86841 0
M  V30 7940 H 709.469 2.88616 0.807519 0
M  V30 7941 H 707.03 1.59202 0.29433 0
M  V30 7942 H 709.022 2.36455 3.28438 0
M  V30 7943 H 707.592 1.42959 2.77995 0
M  V30 7944 H 706.812 3.60927 1.5851 0
M  V30 7945 H 708.1 4.45088 2.46524 0
M  V30 7946 H 707.498 2.57701 5.03594 0
M  V30 7947 H 706.055 3.30621 5.61723 0
M  V30 7948 N 709.488 -0.375779 1.53054 0
M  V30 7949 C 710.716 -1.14036 1.72637 0
M  V30 7950 C 711.131 -1.83342 0.450687 0
M  V30 7951 O 710.488 -1.7318 -0.575749 0
M  V30 7952 C 710.539 -2.17841 2.88492 0
M  V30 7953 O 710.26 -1.51358 4.11123 0
M  V30 7954 C 711.761 -3.06924 3.19863 0
M  V30 7955 H 708.981 -0.341386 0.577665 0
M  V30 7956 H 711.525 -0.437809 1.99759 0
M  V30 7957 H 709.68 -2.8371 2.63794 0
M  V30 7958 H 710.094 -2.20439 4.75928 0
M  V30 7959 H 711.568 -3.75763 4.04359 0
M  V30 7960 H 712.045 -3.71169 2.34798 0
M  V30 7961 H 712.651 -2.46684 3.46449 0
M  V30 7962 N 710.966 -1.44241 -0.634997 0
M  V30 7963 C 711.914 -1.51103 -1.76835 0
M  V30 7964 C 712.908 -0.383051 -1.65012 0
M  V30 7965 O 714.114 -0.557832 -1.71138 0
M  V30 7966 H 710.489 -0.474076 -0.583743 0
M  V30 7967 H 712.46 -2.46499 -1.68169 0
M  V30 7968 C 711.209 -1.4687 -3.15158 0
M  V30 7969 H 710.532 -2.32979 -3.24901 0
M  V30 7970 H 711.972 -1.55731 -3.94365 0
M  V30 7971 C 710.431 -0.188884 -3.3637 0
M  V30 7972 O 710.961 0.742487 -3.94778 0
M  V30 7973 N 709.167 -0.0932516 -2.9045 0
M  V30 7974 H 708.714 -0.852004 -2.43102 0
M  V30 7975 H 708.672 0.762308 -3.05018 0
M  V30 7976 N 712.444 0.87505 -1.31075 0
M  V30 7977 C 713.407 1.96333 -1.18263 0
M  V30 7978 C 714.407 1.60416 -0.111106 0
M  V30 7979 O 715.597 1.7044 -0.359987 0
M  V30 7980 C 712.729 3.31036 -0.81414 0
M  V30 7981 H 713.922 2.09125 -2.14958 0
M  V30 7982 H 711.475 1.06271 -1.14614 0
M  V30 7983 H 712.21 3.23944 0.151875 0
M  V30 7984 H 711.995 3.58476 -1.58862 0
M  V30 7985 H 713.485 4.10842 -0.748249 0
M  V30 7986 N 713.922 1.13953 1.08869 0
M  V30 7987 C 714.852 0.844824 2.17681 0
M  V30 7988 C 715.833 -0.198213 1.68941 0
M  V30 7989 O 717.018 -0.0559073 1.9412 0
M  V30 7990 C 714.148 0.316325 3.45856 0
M  V30 7991 C 713.102 1.29426 4.07962 0
M  V30 7992 C 712.428 0.625275 5.31031 0
M  V30 7993 C 713.728 2.65484 4.49795 0
M  V30 7994 H 715.422 1.75471 2.42591 0
M  V30 7995 H 712.968 0.845116 1.16592 0
M  V30 7996 H 714.921 0.0977876 4.21287 0
M  V30 7997 H 713.645 -0.628972 3.20486 0
M  V30 7998 H 712.304 1.49889 3.34558 0
M  V30 7999 H 711.952 -0.325678 5.01945 0
M  V30 8000 H 711.652 1.27777 5.73539 0
M  V30 8001 H 713.176 0.416152 6.0918 0
M  V30 8002 H 714.59 2.48957 5.16424 0
M  V30 8003 H 712.987 3.26963 5.03205 0
M  V30 8004 H 714.057 3.22717 3.61914 0
M  V30 8005 N 715.4 -1.26948 0.933913 0
M  V30 8006 C 716.628 -1.98186 0.59414 0
M  V30 8007 C 717.043 -1.69614 -0.829257 0
M  V30 8008 O 716.4 -0.960213 -1.55197 0
M  V30 8009 C 716.451 -3.52123 0.818026 0
M  V30 8010 O 716.172 -3.79698 2.18543 0
M  V30 8011 C 717.673 -4.40608 0.48781 0
M  V30 8012 H 714.893 -0.632305 0.224569 0
M  V30 8013 H 717.437 -1.61646 1.25263 0
M  V30 8014 H 715.592 -3.86851 0.206246 0
M  V30 8015 H 716.006 -4.7426 2.24005 0
M  V30 8016 H 717.48 -5.47606 0.695126 0
M  V30 8017 H 717.957 -4.35394 -0.576913 0
M  V30 8018 H 718.563 -4.11411 1.078 0
M  V30 8019 N 716.879 -0.700114 -1.41195 0
M  V30 8020 C 717.827 -0.0263301 -2.32585 0
M  V30 8021 C 718.821 0.763683 -1.51209 0
M  V30 8022 O 720.027 0.668793 -1.67114 0
M  V30 8023 H 716.402 0.0102869 -0.75193 0
M  V30 8024 H 718.373 -0.814087 -2.8708 0
M  V30 8025 C 717.122 0.892793 -3.36042 0
M  V30 8026 H 716.445 0.294306 -3.98715 0
M  V30 8027 H 717.885 1.33247 -4.02518 0
M  V30 8028 C 716.344 2.01109 -2.7029 0
M  V30 8029 O 716.874 3.10035 -2.55423 0
M  V30 8030 N 715.08 1.79015 -2.28915 0
M  V30 8031 H 714.627 0.904275 -2.41207 0
M  V30 8032 H 714.585 2.54022 -1.85257 0
M  V30 8033 N 718.357 1.51182 -0.445186 0
M  V30 8034 C 719.287 2.30821 0.352686 0
M  V30 8035 C 720.268 1.36576 1.01395 0
M  V30 8036 O 721.453 1.65497 1.01609 0
M  V30 8037 C 718.583 3.15593 1.44976 0
M  V30 8038 C 717.537 4.1818 0.911553 0
M  V30 8039 C 716.863 4.91523 2.10497 0
M  V30 8040 C 718.163 5.22266 -0.059418 0
M  V30 8041 H 719.857 2.97771 -0.311936 0
M  V30 8042 H 717.403 1.43201 -0.151461 0
M  V30 8043 H 719.356 3.70091 2.01521 0
M  V30 8044 H 718.08 2.4648 2.14278 0
M  V30 8045 H 716.739 3.64746 0.368264 0
M  V30 8046 H 716.387 4.18906 2.78437 0
M  V30 8047 H 716.087 5.60898 1.7512 0
M  V30 8048 H 717.611 5.48847 2.6758 0
M  V30 8049 H 719.025 5.71789 0.415985 0
M  V30 8050 H 717.422 5.99213 -0.326152 0
M  V30 8051 H 718.492 4.7461 -0.993631 0
M  V30 8052 N 719.835 0.176821 1.56605 0
M  V30 8053 C 721.246 -0.338963 1.83597 0
M  V30 8054 C 721.597 -1.62677 1.09684 0
M  V30 8055 O 720.722 -2.13524 0.351661 0
M  V30 8056 C 721.317 -0.62177 3.33046 0
M  V30 8057 C 719.876 -1.08198 3.60514 0
M  V30 8058 C 719.023 -0.120774 2.77037 0
M  V30 8059 H 721.974 0.400978 1.53551 0
M  V30 8060 H 721.995 -1.47321 3.50823 0
M  V30 8061 H 721.507 0.315692 3.86814 0
M  V30 8062 H 719.608 -2.03435 3.12162 0
M  V30 8063 H 719.721 -0.987329 4.68816 0
M  V30 8064 H 718.085 -0.619192 2.47059 0
M  V30 8065 H 718.868 0.810806 3.33588 0
M  V30 8066 N 721.313 -1.57302 -0.09688 0
M  V30 8067 C 722.261 -2.02942 -1.13654 0
M  V30 8068 C 723.255 -0.930173 -1.41577 0
M  V30 8069 O 724.461 -1.11535 -1.41279 0
M  V30 8070 H 720.836 -0.646726 -0.383731 0
M  V30 8071 H 722.807 -2.89452 -0.725267 0
M  V30 8072 C 721.556 -2.46815 -2.44903 0
M  V30 8073 H 720.879 -3.30979 -2.24261 0
M  V30 8074 H 722.319 -2.82527 -3.16156 0
M  V30 8075 C 720.778 -1.34071 -3.09074 0
M  V30 8076 O 721.308 -0.668856 -3.96092 0
M  V30 8077 N 719.514 -1.09214 -2.69296 0
M  V30 8078 H 719.061 -1.64029 -1.98626 0
M  V30 8079 H 719.019 -0.339785 -3.12559 0
M  V30 8080 N 722.791 0.367657 -1.53252 0
M  V30 8081 C 723.721 1.45632 -1.8252 0
M  V30 8082 C 724.702 1.55979 -0.678568 0
M  V30 8083 O 725.887 1.70581 -0.928217 0
M  V30 8084 C 723.017 2.82994 -2.01325 0
M  V30 8085 C 721.971 2.87473 -3.17086 0
M  V30 8086 C 721.297 4.2749 -3.21179 0
M  V30 8087 C 722.597 2.55182 -4.55719 0
M  V30 8088 H 724.291 1.21387 -2.73689 0
M  V30 8089 H 721.837 0.58251 -1.31692 0
M  V30 8090 H 723.79 3.59179 -2.20383 0
M  V30 8091 H 722.514 3.08622 -1.06864 0
M  V30 8092 H 721.173 2.13739 -2.97844 0
M  V30 8093 H 720.821 4.5019 -2.24361 0
M  V30 8094 H 720.521 4.31403 -3.98955 0
M  V30 8095 H 722.045 5.0555 -3.42419 0
M  V30 8096 H 723.459 3.21081 -4.74953 0
M  V30 8097 H 721.856 2.70414 -5.3572 0
M  V30 8098 H 722.926 1.5044 -4.60973 0
M  V30 8099 N 724.269 1.44576 0.627338 0
M  V30 8100 C 725.546 1.38033 1.38586 0
M  V30 8101 C 725.926 0.0409468 2.1106 0
M  V30 8102 O 725.274 -0.976582 2.0658 0
M  V30 8103 C 725.484 2.58102 2.34913 0
M  V30 8104 C 726.832 3.02332 2.98129 0
M  V30 8105 O 727.856 2.58334 2.45238 0
M  V30 8106 O 726.715 3.78628 3.94085 0
M  V30 8107 H 723.809 0.546801 0.620434 0
M  V30 8108 H 726.355 1.56672 0.652077 0
M  V30 8109 H 725.127 3.4719 1.80485 0
M  V30 8110 H 724.75 2.41696 3.15703 0
M  V30 8111 N 725.747 -0.868086 1.31537 0
M  V30 8112 C 726.695 -1.99688 1.1928 0
M  V30 8113 C 727.689 -1.69101 0.100656 0
M  V30 8114 O 728.895 -1.78073 0.262677 0
M  V30 8115 H 725.27 -0.655032 0.369374 0
M  V30 8116 H 727.241 -2.07157 2.14776 0
M  V30 8117 C 725.99 -3.35338 0.918892 0
M  V30 8118 H 725.313 -3.59396 1.75142 0
M  V30 8119 H 726.753 -4.14909 0.873311 0
M  V30 8120 C 725.212 -3.34769 -0.378366 0
M  V30 8121 O 725.742 -3.76716 -1.39456 0
M  V30 8122 N 723.948 -2.87895 -0.39557 0
M  V30 8123 H 723.495 -2.53954 0.431889 0
M  V30 8124 H 723.453 -2.87897 -1.26344 0
M  V30 8125 N 727.225 -1.14528 -1.08264 0
M  V30 8126 C 728.172 -0.833556 -2.15222 0
M  V30 8127 C 729.142 0.209539 -1.64773 0
M  V30 8128 O 730.327 0.0791388 -1.90636 0
M  V30 8129 C 727.467 -0.318799 -3.43624 0
M  V30 8130 C 726.58 -1.42237 -4.07913 0
M  V30 8131 C 725.715 -0.864704 -5.24115 0
M  V30 8132 C 724.754 -1.94585 -5.80347 0
M  V30 8133 N 723.891 -1.40525 -6.87893 0
M  V30 8134 H 728.731 -1.74965 -2.41228 0
M  V30 8135 H 726.268 -0.873169 -1.18381 0
M  V30 8136 H 728.226 -0.00213088 -4.172 0
M  V30 8137 H 726.856 0.560397 -3.17898 0
M  V30 8138 H 725.908 -1.8554 -3.32083 0
M  V30 8139 H 727.22 -2.23901 -4.45724 0
M  V30 8140 H 726.374 -0.500025 -6.04636 0
M  V30 8141 H 725.113 -0.0171219 -4.87697 0
M  V30 8142 H 724.118 -2.31946 -4.98479 0
M  V30 8143 H 725.343 -2.79704 -6.18823 0
M  V30 8144 H 723.289 -0.579873 -6.53432 0
M  V30 8145 H 723.206 -2.15825 -7.24538 0
M  V30 8146 H 724.474 -1.06852 -7.72142 0
M  V30 8147 N 728.703 1.26451 -0.940633 0
M  V30 8148 C 729.65 2.264 -0.448497 0
M  V30 8149 C 730.62 1.5866 0.491546 0
M  V30 8150 O 731.805 1.86389 0.407874 0
M  V30 8151 C 728.945 3.43956 0.280715 0
M  V30 8152 C 728.058 4.26374 -0.694937 0
M  V30 8153 C 727.193 5.31171 0.0554186 0
M  V30 8154 C 726.232 6.05266 -0.912091 0
M  V30 8155 N 725.369 7.01833 -0.193524 0
M  V30 8156 H 730.209 2.67869 -1.30576 0
M  V30 8157 H 727.746 1.31707 -0.655112 0
M  V30 8158 H 729.704 4.10941 0.71994 0
M  V30 8159 H 728.334 3.03403 1.10212 0
M  V30 8160 H 727.386 3.59183 -1.25267 0
M  V30 8161 H 728.698 4.77748 -1.43382 0
M  V30 8162 H 727.852 6.04166 0.553951 0
M  V30 8163 H 726.591 4.80634 0.827183 0
M  V30 8164 H 725.596 5.31099 -1.42175 0
M  V30 8165 H 726.821 6.57893 -1.68385 0
M  V30 8166 H 724.767 6.53607 0.559758 0
M  V30 8167 H 724.684 7.50957 -0.871744 0
M  V30 8168 H 725.952 7.78983 0.283932 0
M  V30 8169 N 730.181 0.707592 1.40822 0
M  V30 8170 C 731.409 0.253073 2.05346 0
M  V30 8171 C 731.824 -1.10218 1.53289 0
M  V30 8172 O 731.181 -1.69112 0.686105 0
M  V30 8173 C 731.232 0.215411 3.60858 0
M  V30 8174 O 730.953 1.51714 4.10992 0
M  V30 8175 C 732.454 -0.258636 4.42545 0
M  V30 8176 H 729.674 0.115256 0.661027 0
M  V30 8177 H 732.218 0.963555 1.80377 0
M  V30 8178 H 730.373 -0.445978 3.84824 0
M  V30 8179 H 730.787 1.41226 5.05129 0
M  V30 8180 H 732.261 -0.233849 5.51504 0
M  V30 8181 H 732.738 -1.2995 4.19535 0
M  V30 8182 H 733.344 0.372186 4.23668 0
M  V30 8183 N 731.66 -1.50943 0.453197 0
M  V30 8184 C 732.888 -2.06628 -0.106135 0
M  V30 8185 C 733.303 -1.31901 -1.35084 0
M  V30 8186 O 732.66 -0.383074 -1.78434 0
M  V30 8187 C 732.711 -3.5914 -0.412368 0
M  V30 8188 O 732.432 -4.31047 0.782948 0
M  V30 8189 C 733.933 -4.31391 -1.02064 0
M  V30 8190 H 731.153 -0.670999 -0.000885896 0
M  V30 8191 H 733.697 -1.94331 0.63684 0
M  V30 8192 H 731.852 -3.71299 -1.10526 0
M  V30 8193 H 732.266 -5.21948 0.516736 0
M  V30 8194 H 733.74 -5.39135 -1.1848 0
M  V30 8195 H 734.217 -3.90714 -2.00598 0
M  V30 8196 H 734.823 -4.23716 -0.366664 0
M  V30 8197 N 733.138 -0.185124 -1.56509 0
M  V30 8198 C 734.048 0.751908 -2.22224 0
M  V30 8199 C 735.064 1.24244 -1.21817 0
M  V30 8200 O 736.24 1.29169 -1.54523 0
M  V30 8201 C 733.305 1.95837 -2.86092 0
M  V30 8202 C 732.366 1.51337 -4.01741 0
M  V30 8203 C 731.599 2.66233 -4.62554 0
M  V30 8204 O 731.822 3.8346 -4.22273 0
M  V30 8205 O 730.756 2.39517 -5.52191 0
M  V30 8206 H 734.582 0.222304 -3.02885 0
M  V30 8207 H 732.167 0.0437141 -1.49336 0
M  V30 8208 H 734.049 2.66368 -3.26536 0
M  V30 8209 H 732.724 2.47677 -2.08417 0
M  V30 8210 H 731.631 0.777155 -3.65939 0
M  V30 8211 H 732.964 1.04175 -4.81049 0
M  V30 8212 N 734.616 1.57351 0.0885366 0
M  V30 8213 C 735.846 1.90355 0.80303 0
M  V30 8214 C 736.254 0.777678 1.72478 0
M  V30 8215 O 735.597 -0.258908 1.81866 0
M  V30 8216 C 735.659 3.18674 1.66395 0
M  V30 8217 C 735.323 4.4778 0.913327 0
M  V30 8218 C 736.32 5.19345 0.240148 0
M  V30 8219 C 734.005 4.94434 0.885462 0
M  V30 8220 C 735.999 6.35803 -0.450854 0
M  V30 8221 C 733.686 6.10802 0.190679 0
M  V30 8222 C 734.684 6.81337 -0.476295 0
M  V30 8223 O 734.372 7.95488 -1.15992 0
M  V30 8224 H 734.104 0.634035 0.234469 0
M  V30 8225 H 736.658 2.05287 0.0681959 0
M  V30 8226 H 734.888 2.99906 2.44117 0
M  V30 8227 H 736.577 3.37458 2.2556 0
M  V30 8228 H 737.343 4.84339 0.253092 0
M  V30 8229 H 733.222 4.39417 1.39406 0
M  V30 8230 H 736.766 6.90795 -0.972019 0
M  V30 8231 H 732.663 6.45261 0.175603 0
M  V30 8232 H 733.431 8.11509 -1.06749 0
M  V30 8233 N 736.094 -0.359525 1.53444 0
M  V30 8234 C 737.324 -1.12036 1.73585 0
M  V30 8235 C 737.732 -1.83335 0.467438 0
M  V30 8236 O 737.075 -1.74641 -0.569753 0
M  V30 8237 C 737.137 -2.19036 2.85068 0
M  V30 8238 C 736.801 -1.67451 4.25217 0
M  V30 8239 C 737.798 -1.13534 5.07352 0
M  V30 8240 C 735.483 -1.72781 4.71648 0
M  V30 8241 C 737.477 -0.656321 6.34012 0
M  V30 8242 C 735.164 -1.2449 5.98285 0
M  V30 8243 C 736.162 -0.710068 6.79299 0
M  V30 8244 O 735.85 -0.234314 8.03558 0
M  V30 8245 H 735.582 -0.340662 0.583888 0
M  V30 8246 H 738.136 -0.422452 2.01009 0
M  V30 8247 H 736.366 -2.92338 2.53131 0
M  V30 8248 H 738.055 -2.80559 2.93328 0
M  V30 8249 H 738.821 -1.08751 4.7265 0
M  V30 8250 H 734.7 -2.13351 4.08659 0
M  V30 8251 H 738.244 -0.238193 6.97193 0
M  V30 8252 H 734.141 -1.28969 6.32485 0
M  V30 8253 H 734.909 -0.353084 8.17738 0
M  V30 8254 N 737.572 -1.44907 -0.619662 0
M  V30 8255 C 738.502 -1.55488 -1.742 0
M  V30 8256 C 739.483 -0.407143 -1.65156 0
M  V30 8257 O 740.668 -0.628743 -1.8374 0
M  V30 8258 C 737.798 -1.5097 -3.1277 0
M  V30 8259 C 736.752 -2.64337 -3.36615 0
M  V30 8260 C 736.078 -2.44872 -4.75333 0
M  V30 8261 C 737.378 -4.06423 -3.28051 0
M  V30 8262 H 739.072 -2.49432 -1.65602 0
M  V30 8263 H 736.618 -1.20047 -0.795281 0
M  V30 8264 H 738.571 -1.56971 -3.91073 0
M  V30 8265 H 737.295 -0.535486 -3.2218 0
M  V30 8266 H 735.954 -2.57744 -2.60698 0
M  V30 8267 H 735.602 -1.45617 -4.81461 0
M  V30 8268 H 735.302 -3.20888 -4.92244 0
M  V30 8269 H 736.826 -2.52709 -5.55851 0
M  V30 8270 H 738.24 -4.14324 -3.96243 0
M  V30 8271 H 736.637 -4.82733 -3.56495 0
M  V30 8272 H 737.707 -4.29183 -2.25676 0
M  V30 8273 N 739.05 0.861098 -1.31996 0
M  V30 8274 C 739.997 1.96912 -1.20392 0
M  V30 8275 C 740.967 1.65869 -0.0875899 0
M  V30 8276 O 742.152 1.88992 -0.262011 0
M  V30 8277 C 739.292 3.32435 -0.926335 0
M  V30 8278 C 738.405 3.76018 -2.12684 0
M  V30 8279 C 737.54 5.00301 -1.78529 0
M  V30 8280 C 736.579 5.36357 -2.94937 0
M  V30 8281 N 735.716 6.51818 -2.60917 0
M  V30 8282 H 740.556 2.06169 -2.1517 0
M  V30 8283 H 738.093 1.00917 -1.07024 0
M  V30 8284 H 740.051 4.10478 -0.745917 0
M  V30 8285 H 738.681 3.22796 -0.0153578 0
M  V30 8286 H 737.733 2.93683 -2.41774 0
M  V30 8287 H 739.045 3.98664 -2.99781 0
M  V30 8288 H 738.199 5.86034 -1.57001 0
M  V30 8289 H 736.938 4.79578 -0.886356 0
M  V30 8290 H 735.943 4.49139 -3.17103 0
M  V30 8291 H 737.168 5.59041 -3.85552 0
M  V30 8292 H 735.114 6.32624 -1.73558 0
M  V30 8293 H 735.031 6.7445 -3.41544 0
M  V30 8294 H 736.299 7.4072 -2.42804 0
M  V30 8295 N 740.528 1.15101 1.07655 0
M  V30 8296 C 741.438 0.858869 2.18313 0
M  V30 8297 C 742.454 -0.163641 1.73229 0
M  V30 8298 O 743.63 0.00969541 2.01398 0
M  V30 8299 C 740.695 0.34893 3.4494 0
M  V30 8300 C 739.756 1.43495 4.04608 0
M  V30 8301 C 738.989 0.949253 5.2519 0
M  V30 8302 O 739.212 -0.20636 5.70027 0
M  V30 8303 O 738.146 1.73161 5.76454 0
M  V30 8304 H 741.972 1.78386 2.45788 0
M  V30 8305 H 739.557 0.929876 1.16934 0
M  V30 8306 H 741.439 0.070851 4.2134 0
M  V30 8307 H 740.114 -0.548237 3.19024 0
M  V30 8308 H 739.021 1.7666 3.29761 0
M  V30 8309 H 740.354 2.30692 4.3479 0
M  V30 8310 N 742.006 -1.2595 0.947325 0
M  V30 8311 C 743.236 -1.97258 0.614235 0
M  V30 8312 C 743.644 -1.70682 -0.816355 0
M  V30 8313 O 742.987 -0.97527 -1.55673 0
M  V30 8314 C 743.049 -3.50845 0.784081 0
M  V30 8315 C 742.713 -4.01084 2.19045 0
M  V30 8316 C 743.71 -4.12347 3.16648 0
M  V30 8317 C 741.395 -4.34936 2.51268 0
M  V30 8318 C 743.389 -4.56766 4.44572 0
M  V30 8319 C 741.076 -4.79043 3.79422 0
M  V30 8320 C 742.074 -4.89919 4.75887 0
M  V30 8321 O 741.762 -5.3305 6.01758 0
M  V30 8322 H 741.494 -0.635738 0.22981 0
M  V30 8323 H 744.048 -1.61268 1.27207 0
M  V30 8324 H 742.278 -3.86638 0.069101 0
M  V30 8325 H 743.967 -4.03363 0.453135 0
M  V30 8326 H 744.733 -3.86432 2.93079 0
M  V30 8327 H 740.612 -4.25702 1.76916 0
M  V30 8328 H 744.156 -4.6517 5.19868 0
M  V30 8329 H 740.053 -5.04402 4.02802 0
M  V30 8330 H 740.821 -5.51255 6.05029 0
M  V30 8331 N 743.484 -0.715051 -1.40445 0
M  V30 8332 C 744.394 -0.0631624 -2.34515 0
M  V30 8333 C 745.41 0.744397 -1.57273 0
M  V30 8334 O 746.586 0.677475 -1.89663 0
M  V30 8335 C 743.651 0.847915 -3.36172 0
M  V30 8336 C 742.712 0.0303655 -4.29289 0
M  V30 8337 C 741.945 0.898051 -5.2609 0
M  V30 8338 O 742.168 2.13729 -5.28844 0
M  V30 8339 O 741.102 0.337328 -6.00954 0
M  V30 8340 H 744.928 -0.839078 -2.91879 0
M  V30 8341 H 742.513 -0.475527 -1.4163 0
M  V30 8342 H 744.395 1.3698 -3.98515 0
M  V30 8343 H 743.07 1.60299 -2.81222 0
M  V30 8344 H 741.977 -0.536573 -3.70232 0
M  V30 8345 H 743.31 -0.686474 -4.87389 0
M  V30 8346 N 744.962 1.50701 -0.461195 0
M  V30 8347 C 745.91 2.29918 0.352231 0
M  V30 8348 C 746.904 1.36778 0.999403 0
M  V30 8349 O 748.11 1.54015 0.931639 0
M  V30 8350 H 744.485 0.740249 0.132423 0
M  V30 8351 H 746.456 2.96497 -0.336424 0
M  V30 8352 C 745.205 3.17052 1.42736 0
M  V30 8353 H 744.528 3.88623 0.938747 0
M  V30 8354 H 745.968 3.75493 1.96928 0
M  V30 8355 C 744.427 2.3399 2.42384 0
M  V30 8356 O 744.957 2.01608 3.47444 0
M  V30 8357 N 743.163 1.96758 2.13857 0
M  V30 8358 H 742.71 2.23292 1.28447 0
M  V30 8359 H 742.668 1.41484 2.80766 0
M  V30 8360 N 746.441 0.193421 1.56409 0
M  V30 8361 C 747.688 -0.445789 1.97532 0
M  V30 8362 C 748.016 -1.61744 1.08024 0
M  V30 8363 O 747.271 -1.95338 0.118982 0
M  V30 8364 C 747.57 -0.949718 3.44551 0
M  V30 8365 C 747.236 0.108383 4.5077 0
M  V30 8366 C 745.898 0.399126 4.79542 0
M  V30 8367 C 748.25 0.825423 5.14622 0
M  V30 8368 C 745.578 1.41192 5.69457 0
M  V30 8369 C 747.93 1.82735 6.05632 0
M  V30 8370 C 746.594 2.12531 6.32761 0
M  V30 8371 H 745.864 -0.163126 0.722822 0
M  V30 8372 H 748.511 0.290035 1.89291 0
M  V30 8373 H 746.816 -1.76378 3.49854 0
M  V30 8374 H 748.513 -1.45367 3.73724 0
M  V30 8375 H 745.103 -0.128392 4.28408 0
M  V30 8376 H 749.287 0.61403 4.92487 0
M  V30 8377 H 744.543 1.6487 5.88751 0
M  V30 8378 H 748.717 2.3882 6.5417 0
M  V30 8379 H 746.344 2.91155 7.02234 0
M  V30 8380 N 747.919 -1.57396 -0.0801906 0
M  V30 8381 C 749.165 -1.87113 -0.782083 0
M  V30 8382 C 749.498 -0.78458 -1.77646 0
M  V30 8383 O 748.773 0.205993 -1.93406 0
M  V30 8384 C 749.056 -3.27483 -1.49756 0
M  V30 8385 C 748.909 -4.46782 -0.520171 0
M  V30 8386 C 750.228 -3.65965 -2.44454 0
M  V30 8387 H 747.347 -0.680559 -0.282858 0
M  V30 8388 H 749.989 -1.89946 -0.0454139 0
M  V30 8389 H 748.139 -3.25199 -2.12551 0
M  V30 8390 H 749.811 -4.61187 0.101919 0
M  V30 8391 H 748.054 -4.33485 0.165219 0
M  V30 8392 H 748.725 -5.41761 -1.05824 0
M  V30 8393 H 751.201 -3.69289 -1.91742 0
M  V30 8394 H 750.077 -4.65086 -2.91524 0
M  V30 8395 H 750.338 -2.95446 -3.28883 0
M  V30 8396 N 749.397 0.351382 -1.53633 0
M  V30 8397 C 750.307 1.45471 -1.84052 0
M  V30 8398 C 751.323 1.57945 -0.730015 0
M  V30 8399 O 752.499 1.73571 -1.02153 0
M  V30 8400 C 749.564 2.80562 -2.03681 0
M  V30 8401 C 748.625 2.77497 -3.27558 0
M  V30 8402 C 747.858 4.06144 -3.46241 0
M  V30 8403 O 748.081 5.03028 -2.68922 0
M  V30 8404 O 747.015 4.11092 -4.39645 0
M  V30 8405 H 750.841 1.22684 -2.77817 0
M  V30 8406 H 748.426 0.542827 -1.3919 0
M  V30 8407 H 750.308 3.6058 -2.18082 0
M  V30 8408 H 748.983 3.03296 -1.13106 0
M  V30 8409 H 747.89 1.96126 -3.18568 0
M  V30 8410 H 749.223 2.59716 -4.18101 0
M  V30 8411 N 750.875 1.45233 0.611969 0
M  V30 8412 C 751.823 1.53898 1.74408 0
M  V30 8413 C 752.817 0.409254 1.64382 0
M  V30 8414 O 754.023 0.584988 1.70229 0
M  V30 8415 H 750.398 0.483303 0.576127 0
M  V30 8416 H 752.369 2.49143 1.64227 0
M  V30 8417 C 751.118 1.51865 3.12782 0
M  V30 8418 H 750.441 2.38118 3.21154 0
M  V30 8419 H 751.881 1.61986 3.91838 0
M  V30 8420 C 750.34 0.242374 3.36027 0
M  V30 8421 O 750.87 -0.679587 3.9591 0
M  V30 8422 N 749.076 0.139448 2.90265 0
M  V30 8423 H 748.623 0.890571 2.41716 0
M  V30 8424 H 748.581 -0.713686 3.06193 0
M  V30 8425 N 752.353 -0.854086 1.3245 0
M  V30 8426 C 753.6 -1.60831 1.23043 0
M  V30 8427 C 753.928 -1.93389 -0.2076 0
M  V30 8428 O 753.183 -1.5756 -1.16075 0
M  V30 8429 C 753.482 -2.93746 2.03587 0
M  V30 8430 C 753.148 -2.80615 3.52939 0
M  V30 8431 C 751.81 -2.76742 3.93659 0
M  V30 8432 C 754.162 -2.66507 4.4791 0
M  V30 8433 C 751.49 -2.56638 5.27592 0
M  V30 8434 C 753.842 -2.47939 5.81987 0
M  V30 8435 C 752.506 -2.42458 6.21909 0
M  V30 8436 H 751.776 -0.588523 0.450247 0
M  V30 8437 H 754.423 -0.990699 1.63882 0
M  V30 8438 H 752.728 -3.5963 1.55478 0
M  V30 8439 H 754.425 -3.51127 1.93677 0
M  V30 8440 H 751.015 -2.84456 3.20598 0
M  V30 8441 H 755.199 -2.68544 4.1737 0
M  V30 8442 H 750.455 -2.50831 5.57579 0
M  V30 8443 H 754.629 -2.36002 6.55192 0
M  V30 8444 H 752.256 -2.2664 7.2563 0
M  V30 8445 N 753.831 -1.1567 -1.07043 0
M  V30 8446 C 754.763 -0.814095 -2.14255 0
M  V30 8447 C 755.776 0.175293 -1.61854 0
M  V30 8448 O 756.965 -0.0483984 -1.78434 0
M  V30 8449 C 754.065 -0.190082 -3.38367 0
M  V30 8450 C 753.238 -1.21768 -4.20109 0
M  V30 8451 C 752.297 -0.614863 -5.22595 0
M  V30 8452 O 751.323 -1.28167 -5.54583 0
M  V30 8453 N 752.525 0.601955 -5.77371 0
M  V30 8454 H 755.29 -1.73677 -2.44247 0
M  V30 8455 H 752.851 -1.05301 -1.22977 0
M  V30 8456 H 754.843 0.22604 -4.04068 0
M  V30 8457 H 753.413 0.635992 -3.06062 0
M  V30 8458 H 752.633 -1.81025 -3.50177 0
M  V30 8459 H 753.921 -1.9114 -4.71533 0
M  V30 8460 H 753.319 1.162 -5.53637 0
M  V30 8461 H 751.876 0.96039 -6.44686 0
M  V30 8462 N 755.309 1.25446 -0.953992 0
M  V30 8463 C 756.72 1.75047 -0.649255 0
M  V30 8464 C 757.071 1.77527 0.835385 0
M  V30 8465 O 756.196 1.39569 1.65377 0
M  V30 8466 C 756.791 3.17889 -1.17183 0
M  V30 8467 C 755.35 3.65052 -0.917267 0
M  V30 8468 C 754.497 2.44124 -1.31525 0
M  V30 8469 H 757.448 1.11342 -1.13087 0
M  V30 8470 H 757.469 3.76768 -0.531616 0
M  V30 8471 H 756.981 3.16052 -2.25239 0
M  V30 8472 H 755.082 3.72305 0.148354 0
M  V30 8473 H 755.195 4.53222 -1.55328 0
M  V30 8474 H 753.559 2.43906 -0.733624 0
M  V30 8475 H 754.342 2.44979 -2.405 0
M  V30 8476 N 756.787 0.722489 1.40064 0
M  V30 8477 C 758.064 0.191829 1.94657 0
M  V30 8478 C 758.444 -1.30389 1.66018 0
M  V30 8479 O 757.792 -2.06342 0.981588 0
M  V30 8480 C 758.002 0.511978 3.45224 0
M  V30 8481 C 759.35 0.454426 4.22161 0
M  V30 8482 O 760.374 0.448438 3.53366 0
M  V30 8483 O 759.233 0.437986 5.44742 0
M  V30 8484 H 756.327 0.0307821 0.826427 0
M  V30 8485 H 758.873 0.800493 1.49634 0
M  V30 8486 H 757.645 1.54622 3.59455 0
M  V30 8487 H 757.268 -0.126296 3.97399 0
M  V30 8488 N 758.265 -1.50454 0.469181 0
M  V30 8489 C 759.195 -2.31353 -0.31592 0
M  V30 8490 C 760.176 -1.38172 -0.992094 0
M  V30 8491 O 761.361 -1.67093 -0.989633 0
M  V30 8492 C 758.491 -3.1786 -1.39937 0
M  V30 8493 C 757.445 -4.19578 -0.844909 0
M  V30 8494 C 756.771 -4.9481 -2.0265 0
M  V30 8495 C 758.071 -5.22106 0.142499 0
M  V30 8496 H 759.765 -2.97237 0.359269 0
M  V30 8497 H 757.311 -1.42942 0.174224 0
M  V30 8498 H 759.264 -3.7325 -1.95607 0
M  V30 8499 H 757.988 -2.49858 -2.1033 0
M  V30 8500 H 756.647 -3.65285 -0.310189 0
M  V30 8501 H 756.295 -4.23282 -2.71737 0
M  V30 8502 H 755.995 -5.63613 -1.66174 0
M  V30 8503 H 757.519 -5.53035 -2.58815 0
M  V30 8504 H 758.933 -5.72378 -0.324966 0
M  V30 8505 H 757.33 -5.98618 0.421441 0
M  V30 8506 H 758.4 -4.7297 1.06901 0
M  V30 8507 N 759.743 -0.201713 -1.56304 0
M  V30 8508 C 760.693 0.729444 -2.16016 0
M  V30 8509 C 761.677 1.17164 -1.10279 0
M  V30 8510 O 762.869 1.12893 -1.36324 0
M  V30 8511 C 759.998 1.94594 -2.82822 0
M  V30 8512 C 759.084 1.52434 -3.95758 0
M  V30 8513 N 759.475 0.814106 -4.99205 0
M  V30 8514 C 757.773 1.81314 -4.07481 0
M  V30 8515 C 758.474 0.601896 -5.78578 0
M  V30 8516 N 757.45 1.15263 -5.3124 0
M  V30 8517 H 761.252 0.178163 -2.93359 0
M  V30 8518 H 758.766 -0.00218038 -1.624 0
M  V30 8519 H 760.763 2.62357 -3.23998 0
M  V30 8520 H 759.423 2.50188 -2.06969 0
M  V30 8521 H 760.434 0.468872 -5.15773 0
M  V30 8522 H 757.111 2.3837 -3.42762 0
M  V30 8523 H 758.501 0.0380119 -6.71889 0
M  V30 8524 N 761.222 1.57436 0.0718424 0
M  V30 8525 C 762.499 1.78312 0.804006 0
M  V30 8526 C 762.879 0.789273 1.9579 0
M  V30 8527 O 762.227 -0.177605 2.27809 0
M  V30 8528 C 762.437 3.24798 1.277 0
M  V30 8529 C 763.785 3.88627 1.71039 0
M  V30 8530 O 764.809 3.28689 1.37266 0
M  V30 8531 O 763.668 4.94073 2.33567 0
M  V30 8532 H 760.762 0.73178 0.385262 0
M  V30 8533 H 763.308 1.69621 0.0519219 0
M  V30 8534 H 762.08 3.88688 0.45134 0
M  V30 8535 H 761.703 3.38213 2.0904 0
M  V30 8536 N 762.7 -0.34323 1.53817 0
M  V30 8537 C 763.949 -1.08086 1.70295 0
M  V30 8538 C 764.262 -1.89794 0.47302 0
M  V30 8539 O 765.468 -2.66498 0.518754 0
M  V30 8540 C 763.924 -1.97097 3.01133 0
M  V30 8541 C 763.532 -1.20594 4.31464 0
M  V30 8542 C 765.276 -2.70715 3.26976 0
M  V30 8543 C 763.183 -2.08636 5.53376 0
M  V30 8544 H 762.113 -0.407228 0.634572 0
M  V30 8545 H 764.764 -0.340328 1.80316 0
M  V30 8546 H 763.146 -2.74971 2.84969 0
M  V30 8547 H 764.32 -0.476282 4.58332 0
M  V30 8548 H 762.635 -0.587426 4.12236 0
M  V30 8549 H 765.232 -3.36857 4.15248 0
M  V30 8550 H 765.575 -3.37299 2.43998 0
M  V30 8551 H 766.108 -1.99914 3.43917 0
M  V30 8552 H 762.847 -1.46594 6.38898 0
M  V30 8553 H 762.367 -2.7939 5.30755 0
M  V30 8554 H 764.046 -2.67682 5.89029 0
M  V30 8555 N 764.178 -1.45556 -0.604258 0
M  V30 8556 C 765.111 -1.48975 -1.72863 0
M  V30 8557 C 766.089 -0.345803 -1.5888 0
M  V30 8558 O 767.273 -0.546796 -1.80395 0
M  V30 8559 C 764.4 -1.34794 -3.10722 0
M  V30 8560 C 763.446 -2.53096 -3.43285 0
M  V30 8561 S 764.279 -4.15551 -3.37754 0
M  V30 8562 C 765.435 -4.03842 -4.78187 0
M  V30 8563 H 765.668 -2.44108 -1.69701 0
M  V30 8564 H 763.201 -1.33179 -0.781194 0
M  V30 8565 H 765.159 -1.273 -3.90263 0
M  V30 8566 H 763.82 -0.411254 -3.11396 0
M  V30 8567 H 763.013 -2.39109 -4.4367 0
M  V30 8568 H 762.615 -2.57469 -2.71267 0
M  V30 8569 H 764.907 -3.69191 -5.6807 0
M  V30 8570 H 765.85 -5.0415 -4.97231 0
M  V30 8571 H 766.258 -3.35443 -4.54025 0
M  V30 8572 N 765.656 0.84705 -1.32902 0
M  V30 8573 C 766.603 1.95624 -1.22473 0
M  V30 8574 C 767.573 1.65767 -0.105178 0
M  V30 8575 O 768.758 1.88704 -0.282042 0
M  V30 8576 C 765.898 3.31434 -0.961542 0
M  V30 8577 C 765.011 3.73741 -2.1666 0
M  V30 8578 C 764.146 4.98379 -1.83825 0
M  V30 8579 C 763.185 5.33199 -3.00609 0
M  V30 8580 N 762.322 6.49014 -2.67816 0
M  V30 8581 H 767.162 2.03875 -2.17345 0
M  V30 8582 H 764.699 0.997764 -1.08088 0
M  V30 8583 H 766.657 4.09663 -0.789411 0
M  V30 8584 H 765.287 3.22762 -0.0495938 0
M  V30 8585 H 764.339 2.91102 -2.44875 0
M  V30 8586 H 765.651 3.95462 -3.03993 0
M  V30 8587 H 764.805 5.84336 -1.63208 0
M  V30 8588 H 763.544 4.78611 -0.937172 0
M  V30 8589 H 762.549 4.4575 -3.21849 0
M  V30 8590 H 763.774 5.5492 -3.9146 0
M  V30 8591 H 761.72 6.30748 -1.80258 0
M  V30 8592 H 761.637 6.7079 -3.48679 0
M  V30 8593 H 762.905 7.38103 -2.50647 0
M  V30 8594 N 767.134 1.16236 1.06428 0
M  V30 8595 C 768.064 0.890807 2.1584 0
M  V30 8596 C 769.045 -0.162333 1.69324 0
M  V30 8597 O 770.23 -0.0147191 1.94194 0
M  V30 8598 C 767.36 0.389615 3.45108 0
M  V30 8599 C 766.314 1.38051 4.05125 0
M  V30 8600 C 765.64 0.737773 5.29586 0
M  V30 8601 C 766.94 2.74965 4.44062 0
M  V30 8602 H 768.634 1.80577 2.38814 0
M  V30 8603 H 766.18 0.869657 1.14774 0
M  V30 8604 H 768.133 0.187127 4.20984 0
M  V30 8605 H 766.857 -0.560851 3.21748 0
M  V30 8606 H 765.516 1.56952 3.31303 0
M  V30 8607 H 765.164 -0.219135 5.02522 0
M  V30 8608 H 764.864 1.39914 5.70699 0
M  V30 8609 H 766.388 0.545275 6.0816 0
M  V30 8610 H 767.802 2.59855 5.11027 0
M  V30 8611 H 766.199 3.37563 4.96156 0
M  V30 8612 H 767.269 3.30321 3.54987 0
M  V30 8613 N 768.612 -1.24939 0.960631 0
M  V30 8614 C 769.544 -2.24879 0.442937 0
M  V30 8615 C 770.557 -1.56615 -0.444464 0
M  V30 8616 O 771.746 -1.76715 -0.251776 0
M  V30 8617 C 768.846 -3.36757 -0.380537 0
M  V30 8618 C 768.019 -4.34587 0.495283 0
M  V30 8619 C 767.078 -5.25502 -0.270995 0
M  V30 8620 O 766.104 -5.68227 0.332661 0
M  V30 8621 N 767.306 -5.59077 -1.56249 0
M  V30 8622 H 770.071 -2.69932 1.30218 0
M  V30 8623 H 767.632 -1.38907 0.83166 0
M  V30 8624 H 769.624 -3.94542 -0.90103 0
M  V30 8625 H 768.194 -2.91045 -1.14067 0
M  V30 8626 H 767.414 -3.75593 1.19682 0
M  V30 8627 H 768.702 -4.96925 1.09285 0
M  V30 8628 H 768.1 -5.2628 -2.07476 0
M  V30 8629 H 766.657 -6.19421 -2.02882 0
M  V30 8630 N 770.09 -0.729906 -1.39679 0
M  V30 8631 C 771.02 -0.101618 -2.33279 0
M  V30 8632 C 772.001 0.729854 -1.53646 0
M  V30 8633 O 773.186 0.67587 -1.82059 0
M  V30 8634 C 770.316 0.81024 -3.37716 0
M  V30 8635 C 769.27 0.0833126 -4.27919 0
M  V30 8636 C 768.596 1.11185 -5.23012 0
M  V30 8637 C 769.896 -1.07107 -5.112 0
M  V30 8638 H 771.59 -0.883452 -2.86069 0
M  V30 8639 H 769.136 -0.426283 -1.37546 0
M  V30 8640 H 771.089 1.25927 -4.02145 0
M  V30 8641 H 769.813 1.62413 -2.83354 0
M  V30 8642 H 768.472 -0.346043 -3.64963 0
M  V30 8643 H 768.12 1.91917 -4.64948 0
M  V30 8644 H 767.82 0.63026 -5.8421 0
M  V30 8645 H 769.344 1.56068 -5.90318 0
M  V30 8646 H 770.758 -0.700726 -5.69002 0
M  V30 8647 H 769.155 -1.48196 -5.81514 0
M  V30 8648 H 770.225 -1.89513 -4.46332 0
M  V30 8649 N 771.568 1.50203 -0.477153 0
M  V30 8650 C 772.815 2.02358 0.0757385 0
M  V30 8651 C 773.143 1.3587 1.39174 0
M  V30 8652 O 772.398 0.475415 1.89838 0
M  V30 8653 C 772.697 3.56127 0.301325 0
M  V30 8654 C 772.363 4.41126 -0.933725 0
M  V30 8655 C 771.025 4.64075 -1.27233 0
M  V30 8656 C 773.377 4.90737 -1.75576 0
M  V30 8657 C 770.705 5.33878 -2.43292 0
M  V30 8658 C 773.057 5.61816 -2.90768 0
M  V30 8659 C 771.721 5.83016 -3.25036 0
M  V30 8660 H 770.991 0.740482 0.0277147 0
M  V30 8661 H 773.638 1.80754 -0.632467 0
M  V30 8662 H 771.943 3.76279 1.09183 0
M  V30 8663 H 773.64 3.94053 0.743184 0
M  V30 8664 H 770.23 4.23489 -0.659935 0
M  V30 8665 H 774.414 4.72856 -1.50734 0
M  V30 8666 H 769.67 5.48499 -2.70109 0
M  V30 8667 H 773.844 5.99237 -3.54807 0
M  V30 8668 H 771.471 6.36881 -4.15074 0
M  V30 8669 N 773.046 0.209999 1.56195 0
M  V30 8670 C 774.293 -0.424813 1.97994 0
M  V30 8671 C 774.621 -1.60589 1.09733 0
M  V30 8672 O 773.876 -1.95201 0.139693 0
M  V30 8673 C 774.175 -0.91312 3.45539 0
M  V30 8674 C 773.841 0.156187 4.50629 0
M  V30 8675 C 772.503 0.449966 4.79092 0
M  V30 8676 C 774.855 0.879959 5.13718 0
M  V30 8677 C 772.183 1.47223 5.67928 0
M  V30 8678 C 774.535 1.89148 6.0366 0
M  V30 8679 C 773.199 2.1923 6.30472 0
M  V30 8680 H 772.469 -0.15545 0.724511 0
M  V30 8681 H 775.116 0.310095 1.88973 0
M  V30 8682 H 773.421 -1.72658 3.51705 0
M  V30 8683 H 775.118 -1.41395 3.75245 0
M  V30 8684 H 771.708 -0.0829466 4.2852 0
M  V30 8685 H 775.892 0.66623 4.91808 0
M  V30 8686 H 771.148 1.71105 5.86969 0
M  V30 8687 H 775.322 2.45745 6.516 0
M  V30 8688 H 772.949 2.98587 6.99107 0
M  V30 8689 N 774.524 -1.57472 -0.0634922 0
M  V30 8690 C 775.752 -1.91887 -0.773767 0
M  V30 8691 C 776.167 -0.806733 -1.70696 0
M  V30 8692 O 775.524 0.219383 -1.81177 0
M  V30 8693 C 775.575 -3.26092 -1.56034 0
M  V30 8694 O 775.296 -4.33029 -0.66464 0
M  V30 8695 C 776.797 -3.74573 -2.37087 0
M  V30 8696 H 774.017 -0.634074 -0.219525 0
M  V30 8697 H 776.561 -2.04476 -0.0312828 0
M  V30 8698 H 774.716 -3.15004 -2.25502 0
M  V30 8699 H 775.13 -5.10291 -1.21258 0
M  V30 8700 H 776.604 -4.71084 -2.87722 0
M  V30 8701 H 777.081 -3.04003 -3.16984 0
M  V30 8702 H 777.687 -3.88631 -1.72759 0
M  V30 8703 N 776.003 0.335068 -1.53997 0
M  V30 8704 C 776.936 1.43533 -1.77407 0
M  V30 8705 C 777.914 1.5017 -0.623529 0
M  V30 8706 O 779.098 1.67756 -0.85966 0
M  V30 8707 C 776.225 2.81712 -1.88033 0
M  V30 8708 C 775.271 2.92661 -3.10245 0
M  V30 8709 S 776.104 2.58254 -4.69111 0
M  V30 8710 C 777.26 3.98525 -4.82627 0
M  V30 8711 H 777.493 1.2346 -2.70453 0
M  V30 8712 H 775.026 0.531234 -1.44973 0
M  V30 8713 H 776.984 3.61314 -1.9484 0
M  V30 8714 H 775.645 2.99075 -0.959849 0
M  V30 8715 H 774.838 3.93931 -3.14379 0
M  V30 8716 H 774.44 2.21017 -3.01708 0
M  V30 8717 H 776.732 4.93146 -4.64557 0
M  V30 8718 H 777.675 3.9938 -5.84723 0
M  V30 8719 H 778.083 3.86945 -4.11016 0
M  V30 8720 N 777.481 1.45874 0.596531 0
M  V30 8721 C 778.444 1.54988 1.68853 0
M  V30 8722 C 779.444 0.428302 1.54991 0
M  V30 8723 O 780.634 0.692158 1.59859 0
M  V30 8724 C 777.766 1.457 3.08195 0
M  V30 8725 H 778.959 2.52294 1.62135 0
M  V30 8726 H 776.512 1.33479 0.813206 0
M  V30 8727 H 777.247 0.496204 3.20481 0
M  V30 8728 H 777.032 2.27061 3.19665 0
M  V30 8729 H 778.522 1.55133 3.87716 0
M  V30 8730 N 778.959 -0.83999 1.33349 0
M  V30 8731 C 780.206 -1.59517 1.24742 0
M  V30 8732 C 780.534 -1.93598 -0.187077 0
M  V30 8733 O 779.789 -1.58782 -1.14398 0
M  V30 8734 C 780.088 -2.91571 2.06691 0
M  V30 8735 C 779.754 -2.76856 3.55895 0
M  V30 8736 C 778.416 -2.72551 3.96572 0
M  V30 8737 C 780.768 -2.61741 4.50712 0
M  V30 8738 C 778.096 -2.51028 5.30285 0
M  V30 8739 C 780.448 -2.41752 5.84584 0
M  V30 8740 C 779.112 -2.35848 6.24445 0
M  V30 8741 H 778.382 -0.583714 0.456463 0
M  V30 8742 H 781.029 -0.973261 1.64924 0
M  V30 8743 H 779.334 -3.57961 1.59284 0
M  V30 8744 H 781.031 -3.49053 1.9739 0
M  V30 8745 H 777.621 -2.81039 3.23597 0
M  V30 8746 H 781.805 -2.64102 4.20195 0
M  V30 8747 H 777.061 -2.44903 5.60208 0
M  V30 8748 H 781.235 -2.2904 6.57658 0
M  V30 8749 H 778.862 -2.18931 7.27993 0
M  V30 8750 N 780.437 -1.16799 -1.0581 0
M  V30 8751 C 781.384 -0.87902 -2.13405 0
M  V30 8752 C 782.354 0.174541 -1.6518 0
M  V30 8753 O 783.539 0.0386843 -1.90761 0
M  V30 8754 C 780.679 -0.391616 -3.42871 0
M  V30 8755 C 779.792 -1.50857 -4.04804 0
M  V30 8756 C 778.927 -0.975682 -5.22163 0
M  V30 8757 C 777.966 -2.06851 -5.76089 0
M  V30 8758 N 777.103 -1.55085 -6.84758 0
M  V30 8759 H 781.943 -1.80043 -2.37463 0
M  V30 8760 H 779.48 -0.898083 -1.16503 0
M  V30 8761 H 781.438 -0.0906247 -4.17102 0
M  V30 8762 H 780.068 0.49284 -3.19016 0
M  V30 8763 H 779.12 -1.92542 -3.28073 0
M  V30 8764 H 780.432 -2.33305 -4.40874 0
M  V30 8765 H 779.586 -0.628165 -6.03439 0
M  V30 8766 H 778.325 -0.120566 -4.87551 0
M  V30 8767 H 777.33 -2.42467 -4.93447 0
M  V30 8768 H 778.555 -2.92768 -6.12751 0
M  V30 8769 H 776.501 -0.718345 -6.52055 0
M  V30 8770 H 776.418 -2.31145 -7.19797 0
M  V30 8771 H 777.686 -1.23206 -7.69702 0
M  V30 8772 N 781.915 1.24427 -0.967243 0
M  V30 8773 C 783.192 1.87831 -0.545776 0
M  V30 8774 C 783.572 1.87126 0.977099 0
M  V30 8775 O 782.92 1.34357 1.84826 0
M  V30 8776 C 783.13 3.29967 -1.13679 0
M  V30 8777 C 784.478 4.06654 -1.22139 0
M  V30 8778 O 785.502 3.39136 -1.08926 0
M  V30 8779 O 784.361 5.27455 -1.43017 0
M  V30 8780 H 781.455 0.806745 -0.181912 0
M  V30 8781 H 784.001 1.32403 -1.06148 0
M  V30 8782 H 782.773 3.24977 -2.17958 0
M  V30 8783 H 782.396 3.92969 -0.605093 0
M  V30 8784 N 783.393 0.737304 1.3929 0
M  V30 8785 C 784.633 0.290966 2.02318 0
M  V30 8786 C 784.997 -1.10174 1.57244 0
M  V30 8787 O 786.198 -1.64628 2.12488 0
M  V30 8788 C 784.469 0.391767 3.55246 0
M  V30 8789 S 786.028 0.0256103 4.38793 0
M  V30 8790 H 782.846 0.113862 0.701824 0
M  V30 8791 H 785.448 0.964329 1.70062 0
M  V30 8792 H 784.152 1.40662 3.85542 0
M  V30 8793 H 783.683 -0.299338 3.9226 0
M  V30 8794 H 785.698 -1.18991 4.81722 0
M  V30 8795 N 784.871 -1.49948 0.485112 0
M  V30 8796 C 785.819 -2.30449 -0.315609 0
M  V30 8797 C 786.813 -1.38351 -0.977516 0
M  V30 8798 O 788.019 -1.55477 -0.907019 0
M  V30 8799 H 784.394 -0.742262 -0.120629 0
M  V30 8800 H 786.365 -2.95925 0.383552 0
M  V30 8801 C 785.114 -3.19283 -1.37673 0
M  V30 8802 H 784.437 -3.90067 -0.876801 0
M  V30 8803 H 785.877 -3.78579 -1.90929 0
M  V30 8804 C 784.336 -2.37817 -2.38631 0
M  V30 8805 O 784.866 -2.0711 -3.44192 0
M  V30 8806 N 783.072 -2.00135 -2.107 0
M  V30 8807 H 782.619 -2.25307 -1.24878 0
M  V30 8808 H 782.577 -1.45933 -2.7848 0
M  V30 8809 N 786.349 -0.21828 -1.56081 0
M  V30 8810 C 787.595 0.414921 -1.9851 0
M  V30 8811 C 787.928 1.59648 -1.10573 0
M  V30 8812 O 787.203 1.93818 -0.162695 0
M  V30 8813 C 787.486 0.852647 -3.4986 0
M  V30 8814 C 787.339 -0.33232 -4.48571 0
M  V30 8815 C 788.658 1.70998 -4.05521 0
M  V30 8816 H 785.777 0.149344 -0.72171 0
M  V30 8817 H 788.419 -0.313858 -1.8739 0
M  V30 8818 H 786.569 1.47362 -3.59467 0
M  V30 8819 H 788.241 -0.970418 -4.50977 0
M  V30 8820 H 786.484 -0.980302 -4.22578 0
M  V30 8821 H 787.155 0.0168407 -5.51997 0
M  V30 8822 H 789.631 1.18606 -3.98838 0
M  V30 8823 H 788.507 1.98517 -5.11744 0
M  V30 8824 H 788.768 2.67219 -3.52202 0
M  V30 8825 N 787.827 1.57504 0.0551401 0
M  V30 8826 C 788.775 2.05884 1.08233 0
M  V30 8827 C 789.769 0.967383 1.39061 0
M  V30 8828 O 790.975 1.15242 1.38273 0
M  V30 8829 H 787.35 0.656673 0.366449 0
M  V30 8830 H 789.321 2.91273 0.648269 0
M  V30 8831 C 788.07 2.53221 2.38273 0
M  V30 8832 H 787.393 3.36809 2.15406 0
M  V30 8833 H 788.833 2.9081 3.08554 0
M  V30 8834 C 787.292 1.42218 3.05411 0
M  V30 8835 O 787.822 0.773638 3.9418 0
M  V30 8836 N 786.028 1.16316 2.66306 0
M  V30 8837 H 785.575 1.69237 1.94207 0
M  V30 8838 H 785.533 0.422534 3.11548 0
M  V30 8839 N 789.305 -0.326896 1.54172 0
M  V30 8840 C 790.237 -1.42319 1.79661 0
M  V30 8841 C 791.25 -1.47989 0.678456 0
M  V30 8842 O 792.439 -1.50773 0.955503 0
M  V30 8843 C 789.539 -2.80876 1.89636 0
M  V30 8844 C 788.712 -2.98449 3.19761 0
M  V30 8845 C 787.771 -4.17347 3.2048 0
M  V30 8846 O 786.797 -4.10667 3.94134 0
M  V30 8847 N 787.999 -5.26717 2.44027 0
M  V30 8848 H 790.764 -1.20819 2.74268 0
M  V30 8849 H 788.325 -0.516866 1.53428 0
M  V30 8850 H 790.317 -3.58619 1.87549 0
M  V30 8851 H 788.887 -2.95442 1.02141 0
M  V30 8852 H 788.107 -2.08035 3.34836 0
M  V30 8853 H 789.395 -3.07083 4.05681 0
M  V30 8854 H 788.793 -5.35019 1.8377 0
M  V30 8855 H 787.35 -6.02891 2.47721 0
M  V30 8856 N 790.784 -1.46188 -0.588786 0
M  V30 8857 C 791.732 -1.56653 -1.71938 0
M  V30 8858 C 792.726 -0.435354 -1.6371 0
M  V30 8859 O 793.932 -0.611996 -1.69277 0
M  V30 8860 H 790.307 -0.492408 -0.568365 0
M  V30 8861 H 792.278 -2.51724 -1.60242 0
M  V30 8862 C 791.027 -1.56822 -3.10326 0
M  V30 8863 H 790.35 -2.43198 -3.17325 0
M  V30 8864 H 791.79 -1.68199 -3.89211 0
M  V30 8865 C 790.249 -0.295802 -3.35599 0
M  V30 8866 O 790.779 0.616515 -3.96941 0
M  V30 8867 N 788.985 -0.185609 -2.90007 0
M  V30 8868 H 788.532 -0.928914 -2.40269 0
M  V30 8869 H 788.49 0.664883 -3.07289 0
M  V30 8870 N 792.262 0.832906 -1.33792 0
M  V30 8871 C 793.509 1.58853 -1.25586 0
M  V30 8872 C 793.837 1.93695 0.176807 0
M  V30 8873 O 793.092 1.59386 1.13554 0
M  V30 8874 C 793.391 2.9047 -2.08235 0
M  V30 8875 C 793.057 2.74965 -3.57358 0
M  V30 8876 C 791.719 2.70444 -3.98012 0
M  V30 8877 C 794.071 2.59347 -4.52093 0
M  V30 8878 C 791.399 2.48212 -5.31608 0
M  V30 8879 C 793.751 2.38649 -5.85858 0
M  V30 8880 C 792.415 2.32533 -6.25687 0
M  V30 8881 H 791.685 0.581285 -0.459553 0
M  V30 8882 H 794.332 0.964501 -1.65438 0
M  V30 8883 H 792.637 3.57111 -1.6118 0
M  V30 8884 H 794.334 3.48001 -1.99239 0
M  V30 8885 H 790.924 2.79319 -3.25083 0
M  V30 8886 H 795.108 2.6187 -4.2159 0
M  V30 8887 H 790.364 2.41929 -5.61498 0
M  V30 8888 H 794.538 2.25549 -6.58863 0
M  V30 8889 H 792.165 2.15067 -7.29143 0
M  V30 8890 N 793.74 1.17359 1.05189 0
M  V30 8891 C 794.968 0.986529 1.81866 0
M  V30 8892 C 795.383 -0.46522 1.82979 0
M  V30 8893 O 794.74 -1.32305 1.25705 0
M  V30 8894 C 794.791 1.52021 3.27982 0
M  V30 8895 O 794.512 2.91511 3.27037 0
M  V30 8896 C 796.013 1.37774 4.21347 0
M  V30 8897 H 793.233 0.349021 0.573084 0
M  V30 8898 H 795.777 1.55648 1.32643 0
M  V30 8899 H 793.932 0.992287 3.74476 0
M  V30 8900 H 794.346 3.16178 4.18488 0
M  V30 8901 H 795.82 1.7993 5.21852 0
M  V30 8902 H 796.297 0.32483 4.37997 0
M  V30 8903 H 796.903 1.89583 3.80708 0
M  V30 8904 N 795.218 -1.23913 0.973828 0
M  V30 8905 C 796.128 -2.28838 0.516735 0
M  V30 8906 C 797.144 -1.68723 -0.425282 0
M  V30 8907 O 798.32 -1.99201 -0.296819 0
M  V30 8908 C 795.385 -3.46233 -0.179914 0
M  V30 8909 C 794.446 -4.21729 0.80269 0
M  V30 8910 C 793.679 -5.33518 0.139191 0
M  V30 8911 O 793.902 -5.60252 -1.07118 0
M  V30 8912 O 792.836 -5.96088 0.834447 0
M  V30 8913 H 796.662 -2.70067 1.38916 0
M  V30 8914 H 794.247 -1.2972 0.74115 0
M  V30 8915 H 796.129 -4.17514 -0.570991 0
M  V30 8916 H 794.804 -3.06969 -1.02721 0
M  V30 8917 H 793.711 -3.52799 1.24434 0
M  V30 8918 H 795.044 -4.64825 1.61859 0
M  V30 8919 N 796.696 -0.74468 -1.38897 0
M  V30 8920 C 797.924 -0.307428 -2.04603 0
M  V30 8921 C 798.339 1.06115 -1.56157 0
M  V30 8922 O 797.696 1.67233 -0.730701 0
M  V30 8923 C 797.747 -0.31101 -3.6016 0
M  V30 8924 O 797.468 -1.62557 -4.06825 0
M  V30 8925 C 798.969 0.141213 -4.43075 0
M  V30 8926 H 796.189 -0.132741 -0.657739 0
M  V30 8927 H 798.733 -1.01104 -1.77759 0
M  V30 8928 H 796.888 0.343792 -3.85872 0
M  V30 8929 H 797.302 -1.54569 -5.01207 0
M  V30 8930 H 798.776 0.0875449 -5.51931 0
M  V30 8931 H 799.253 1.18782 -4.22833 0
M  V30 8932 H 799.859 -0.484383 -4.22533 0
M  V30 8933 N 798.174 1.49689 -0.493057 0
M  V30 8934 C 799.399 2.07331 0.0535114 0
M  V30 8935 C 799.824 1.35196 1.30781 0
M  V30 8936 O 799.182 0.406246 1.7669 0
M  V30 8937 C 799.23 3.59364 0.29825 0
M  V30 8938 O 798.334 3.88819 1.37454 0
M  V30 8939 H 797.675 0.663612 -0.0227018 0
M  V30 8940 H 800.205 1.926 -0.690402 0
M  V30 8941 H 800.215 4.04515 0.532159 0
M  V30 8942 H 798.89 4.1128 -0.618207 0
M  V30 8943 H 797.467 3.55487 1.12621 0
M  V30 8944 N 799.652 0.226554 1.55963 0
M  V30 8945 C 800.599 -0.681504 2.20509 0
M  V30 8946 C 801.569 -1.1866 1.16229 0
M  V30 8947 O 802.754 -1.24478 1.44602 0
M  V30 8948 C 799.894 -1.88183 2.89277 0
M  V30 8949 C 799.007 -1.41517 4.08163 0
M  V30 8950 C 798.142 -2.57346 4.647 0
M  V30 8951 C 797.181 -2.07441 5.75877 0
M  V30 8952 N 796.318 -3.16561 6.26685 0
M  V30 8953 H 801.158 -0.124372 2.9774 0
M  V30 8954 H 798.695 -0.0496333 1.47016 0
M  V30 8955 H 800.653 -2.58666 3.27335 0
M  V30 8956 H 799.283 -2.41177 2.14555 0
M  V30 8957 H 798.335 -0.605099 3.75557 0
M  V30 8958 H 799.647 -1.00928 4.88482 0
M  V30 8959 H 798.801 -3.35903 5.05227 0
M  V30 8960 H 797.54 -3.01227 3.83554 0
M  V30 8961 H 796.545 -1.27347 5.34848 0
M  V30 8962 H 797.77 -1.64554 6.58862 0
M  V30 8963 H 795.716 -3.59914 5.48451 0
M  V30 8964 H 795.633 -2.80239 7.02141 0
M  V30 8965 H 796.901 -3.95238 6.71868 0
M  V30 8966 N 801.13 -1.57531 -0.0467866 0
M  V30 8967 C 802.077 -2.05387 -1.05285 0
M  V30 8968 C 803.047 -0.939385 -1.36985 0
M  V30 8969 O 804.232 -1.20877 -1.47626 0
M  V30 8970 C 801.372 -2.52343 -2.35408 0
M  V30 8971 C 800.485 -3.77512 -2.10022 0
M  V30 8972 C 799.62 -4.1315 -3.33887 0
M  V30 8973 C 798.659 -5.31286 -3.03976 0
M  V30 8974 N 797.796 -5.62441 -4.20243 0
M  V30 8975 H 802.636 -2.91095 -0.637788 0
M  V30 8976 H 800.173 -1.43939 -0.303322 0
M  V30 8977 H 802.131 -2.77628 -3.11413 0
M  V30 8978 H 800.761 -1.69577 -2.7467 0
M  V30 8979 H 799.813 -3.59417 -1.24594 0
M  V30 8980 H 801.125 -4.63644 -1.83945 0
M  V30 8981 H 800.279 -4.39469 -4.18273 0
M  V30 8982 H 799.018 -3.25634 -3.63062 0
M  V30 8983 H 798.023 -5.04738 -2.17991 0
M  V30 8984 H 799.248 -6.20441 -2.76098 0
M  V30 8985 H 797.194 -4.77885 -4.49402 0
M  V30 8986 H 797.111 -6.43046 -3.97528 0
M  V30 8987 H 798.379 -5.93327 -5.05553 0
M  V30 8988 N 802.608 0.318715 -1.54344 0
M  V30 8989 C 803.538 1.39751 -1.87061 0
M  V30 8990 C 804.519 1.53741 -0.727848 0
M  V30 8991 O 805.704 1.67541 -0.982016 0
M  V30 8992 C 802.834 2.76446 -2.10226 0
M  V30 8993 C 801.788 2.77239 -3.26071 0
M  V30 8994 C 801.114 4.17056 -3.34617 0
M  V30 8995 C 802.414 2.40555 -4.63606 0
M  V30 8996 H 804.108 1.12619 -2.77412 0
M  V30 8997 H 801.654 0.540318 -1.33479 0
M  V30 8998 H 803.607 3.51985 -2.31699 0
M  V30 8999 H 802.331 3.05066 -1.16629 0
M  V30 9000 H 800.99 2.04155 -3.04493 0
M  V30 9001 H 800.638 4.42824 -2.3857 0
M  V30 9002 H 800.338 4.18492 -4.12478 0
M  V30 9003 H 801.862 4.94401 -3.5833 0
M  V30 9004 H 803.276 3.05808 -4.84927 0
M  V30 9005 H 801.673 2.53234 -5.44052 0
M  V30 9006 H 802.743 1.35698 -4.65526 0
M  V30 9007 N 804.086 1.46499 0.581025 0
M  V30 9008 C 805.332 1.53108 1.33901 0
M  V30 9009 C 805.687 0.181007 1.91547 0
M  V30 9010 O 804.98 -0.810518 1.73612 0
M  V30 9011 C 805.174 2.56686 2.48691 0
M  V30 9012 C 805.003 4.01633 2.0229 0
M  V30 9013 C 803.773 4.69333 1.87228 0
M  V30 9014 C 805.971 4.89379 1.58154 0
M  V30 9015 N 803.953 5.98891 1.34917 0
M  V30 9016 C 805.324 6.08775 1.17445 0
M  V30 9017 C 807.379 4.76017 1.45987 0
M  V30 9018 C 806.082 7.16286 0.657805 0
M  V30 9019 C 808.108 5.83601 0.95726 0
M  V30 9020 C 807.47 7.02171 0.55996 0
M  V30 9021 H 803.569 0.61509 0.482896 0
M  V30 9022 H 806.153 1.83123 0.661361 0
M  V30 9023 H 804.324 2.28578 3.14017 0
M  V30 9024 H 806.056 2.5328 3.15644 0
M  V30 9025 H 802.811 4.24878 2.09226 0
M  V30 9026 H 803.235 6.67852 1.10917 0
M  V30 9027 H 807.877 3.84736 1.75322 0
M  V30 9028 H 805.595 8.07333 0.352047 0
M  V30 9029 H 809.181 5.75304 0.867007 0
M  V30 9030 H 808.061 7.84 0.177046 0
M  V30 9031 N 805.565 -0.825799 1.34232 0
M  V30 9032 C 806.812 -1.58185 1.26427 0
M  V30 9033 C 807.14 -1.93786 -0.166533 0
M  V30 9034 O 806.395 -1.59986 -1.12707 0
M  V30 9035 C 806.694 -2.89362 2.09772 0
M  V30 9036 C 806.36 -2.73066 3.58812 0
M  V30 9037 C 805.022 -2.68329 3.99441 0
M  V30 9038 C 807.374 -2.56946 4.53462 0
M  V30 9039 C 804.702 -2.4539 5.32917 0
M  V30 9040 C 807.054 -2.35538 5.87115 0
M  V30 9041 C 805.718 -2.29212 6.26912 0
M  V30 9042 H 804.988 -0.57884 0.462629 0
M  V30 9043 H 807.635 -0.955714 1.65947 0
M  V30 9044 H 805.94 -3.56251 1.63071 0
M  V30 9045 H 807.637 -3.4694 2.01081 0
M  V30 9046 H 804.227 -2.77591 3.26559 0
M  V30 9047 H 808.411 -2.59631 4.22972 0
M  V30 9048 H 803.667 -2.38947 5.62774 0
M  V30 9049 H 807.841 -2.22051 6.6005 0
M  V30 9050 H 805.468 -2.11197 7.30274 0
M  V30 9051 N 807.043 -1.17915 -1.04565 0
M  V30 9052 C 808.32 -0.881187 -1.74627 0
M  V30 9053 C 808.7 0.617123 -2.01878 0
M  V30 9054 O 808.048 1.57032 -1.65991 0
M  V30 9055 C 808.258 -1.72299 -3.03503 0
M  V30 9056 C 809.606 -1.94688 -3.77335 0
M  V30 9057 O 810.63 -1.6931 -3.13389 0
M  V30 9058 O 809.489 -2.37379 -4.92253 0
M  V30 9059 H 806.583 -0.326864 -0.759664 0
M  V30 9060 H 809.129 -1.28642 -1.10676 0
M  V30 9061 H 807.901 -2.73891 -2.79462 0
M  V30 9062 H 807.524 -1.31593 -3.75192 0
M  V30 9063 N 808.521 1.23394 -0.980386 0
M  V30 9064 C 809.451 2.2717 -0.540024 0
M  V30 9065 C 810.432 1.64659 0.426787 0
M  V30 9066 O 811.617 1.91543 0.320153 0
M  V30 9067 C 808.747 3.46939 0.15836 0
M  V30 9068 C 807.701 4.21802 -0.725732 0
M  V30 9069 C 807.027 5.34597 0.104866 0
M  V30 9070 C 808.327 4.81802 -2.01654 0
M  V30 9071 H 810.021 2.64257 -1.40743 0
M  V30 9072 H 807.567 1.2703 -0.678193 0
M  V30 9073 H 809.52 4.18683 0.477737 0
M  V30 9074 H 808.244 3.08912 1.06022 0
M  V30 9075 H 806.903 3.51875 -1.02857 0
M  V30 9076 H 806.551 4.92812 1.00726 0
M  V30 9077 H 806.251 5.85607 -0.483557 0
M  V30 9078 H 807.775 6.09163 0.418624 0
M  V30 9079 H 809.189 5.45554 -1.76193 0
M  V30 9080 H 807.586 5.43098 -2.55273 0
M  V30 9081 H 808.656 4.02549 -2.70338 0
M  V30 9082 N 809.999 0.752036 1.385 0
M  V30 9083 C 810.929 0.138718 2.33088 0
M  V30 9084 C 811.91 -0.705318 1.54788 0
M  V30 9085 O 813.095 -0.646821 1.83112 0
M  V30 9086 C 810.225 -0.75641 3.38963 0
M  V30 9087 C 809.179 -0.0152239 4.27997 0
M  V30 9088 C 808.505 -1.0285 5.24715 0
M  V30 9089 C 809.805 1.15226 5.09431 0
M  V30 9090 H 811.499 0.928852 2.84627 0
M  V30 9091 H 809.045 0.448111 1.3685 0
M  V30 9092 H 810.998 -1.19513 4.04097 0
M  V30 9093 H 809.722 -1.57885 2.85902 0
M  V30 9094 H 808.381 0.404061 3.64366 0
M  V30 9095 H 808.029 -1.84496 4.67943 0
M  V30 9096 H 807.729 -0.537238 5.85139 0
M  V30 9097 H 809.253 -1.46657 5.92726 0
M  V30 9098 H 810.667 0.791161 5.67815 0
M  V30 9099 H 809.064 1.57428 5.79082 0
M  V30 9100 H 810.134 1.9659 4.43261 0
M  V30 9101 N 811.477 -1.49425 0.500989 0
M  V30 9102 C 812.707 -2.06561 -0.0402858 0
M  V30 9103 C 813.115 -1.36157 -1.31369 0
M  V30 9104 O 812.458 -0.433618 -1.78509 0
M  V30 9105 C 812.52 -3.5765 -0.364269 0
M  V30 9106 C 812.184 -4.49739 0.811417 0
M  V30 9107 C 813.181 -4.91255 1.7019 0
M  V30 9108 C 810.866 -4.92036 1.01022 0
M  V30 9109 C 812.86 -5.73806 2.77534 0
M  V30 9110 C 810.547 -5.74364 2.08683 0
M  V30 9111 C 811.545 -6.15154 2.96774 0
M  V30 9112 O 811.233 -6.95836 4.02577 0
M  V30 9113 H 810.965 -0.67578 0.0172357 0
M  V30 9114 H 813.519 -1.93193 0.697553 0
M  V30 9115 H 811.749 -3.69026 -1.1557 0
M  V30 9116 H 813.438 -3.97025 -0.844156 0
M  V30 9117 H 814.204 -4.59222 1.56013 0
M  V30 9118 H 810.083 -4.59789 0.333929 0
M  V30 9119 H 813.627 -6.05564 3.4632 0
M  V30 9120 H 809.524 -6.0581 2.22855 0
M  V30 9121 H 810.292 -7.14142 3.9993 0
M  V30 9122 N 812.955 -0.234822 -1.55841 0
M  V30 9123 C 813.918 0.656378 -2.196 0
M  V30 9124 C 814.918 1.11179 -1.16171 0
M  V30 9125 O 816.108 1.01845 -1.41326 0
M  V30 9126 C 813.24 1.90072 -2.82993 0
M  V30 9127 H 814.433 0.100281 -2.99732 0
M  V30 9128 H 811.986 0.0147613 -1.56293 0
M  V30 9129 H 812.721 2.49836 -2.06767 0
M  V30 9130 H 812.506 1.5825 -3.58747 0
M  V30 9131 H 813.996 2.53538 -3.31826 0
M  V30 9132 N 814.433 1.57553 0.0384317 0
M  V30 9133 C 815.663 1.92813 0.742064 0
M  V30 9134 C 816.071 0.832157 1.69917 0
M  V30 9135 O 815.414 -0.200917 1.82598 0
M  V30 9136 C 815.476 3.23806 1.56172 0
M  V30 9137 C 815.14 4.50459 0.770407 0
M  V30 9138 C 816.137 5.19846 0.0748006 0
M  V30 9139 C 813.822 4.97001 0.727714 0
M  V30 9140 C 815.816 6.34047 -0.652902 0
M  V30 9141 C 813.503 6.111 -0.00373992 0
M  V30 9142 C 814.501 6.79477 -0.692816 0
M  V30 9143 O 814.189 7.91395 -1.41241 0
M  V30 9144 H 813.921 0.641174 0.214179 0
M  V30 9145 H 816.475 2.054 0.00285095 0
M  V30 9146 H 814.705 3.0752 2.34453 0
M  V30 9147 H 816.394 3.44463 2.14709 0
M  V30 9148 H 817.16 4.84899 0.098875 0
M  V30 9149 H 813.039 4.43629 1.25355 0
M  V30 9150 H 816.583 6.87353 -1.1913 0
M  V30 9151 H 812.48 6.45493 -0.0297703 0
M  V30 9152 H 813.248 8.07702 -1.32512 0
M  V30 9153 N 815.911 -0.310526 1.54511 0
M  V30 9154 C 817.188 -1.06593 1.64004 0
M  V30 9155 C 817.568 -2.05519 0.482216 0
M  V30 9156 O 816.916 -2.22455 -0.52212 0
M  V30 9157 C 817.126 -1.75627 3.01589 0
M  V30 9158 C 818.474 -2.28173 3.58081 0
M  V30 9159 O 819.498 -1.85674 3.03979 0
M  V30 9160 O 818.357 -3.06015 4.52788 0
M  V30 9161 H 815.451 -0.492109 0.664649 0
M  V30 9162 H 817.997 -0.309374 1.66856 0
M  V30 9163 H 816.769 -1.03743 3.77297 0
M  V30 9164 H 816.392 -2.58061 3.02473 0
M  V30 9165 N 817.389 -1.46805 -0.573248 0
M  V30 9166 C 818.336 -1.58084 -1.68161 0
M  V30 9167 C 819.306 -0.424636 -1.6058 0
M  V30 9168 O 820.491 -0.642623 -1.79652 0
M  V30 9169 C 817.631 -1.58601 -3.06496 0
M  V30 9170 C 816.744 -2.85023 -3.24632 0
M  V30 9171 C 815.879 -2.76981 -4.53271 0
M  V30 9172 C 814.918 -3.983 -4.64783 0
M  V30 9173 N 814.055 -3.88589 -5.84759 0
M  V30 9174 H 818.895 -2.52755 -1.57858 0
M  V30 9175 H 816.432 -1.25385 -0.769218 0
M  V30 9176 H 818.39 -1.56885 -3.86579 0
M  V30 9177 H 817.02 -0.674553 -3.15673 0
M  V30 9178 H 816.072 -2.96678 -2.38089 0
M  V30 9179 H 817.384 -3.7491 -3.29004 0
M  V30 9180 H 816.538 -2.73424 -5.41594 0
M  V30 9181 H 815.277 -1.84751 -4.51352 0
M  V30 9182 H 814.282 -4.02179 -3.74876 0
M  V30 9183 H 815.507 -4.91639 -4.68474 0
M  V30 9184 H 813.453 -2.99151 -5.83819 0
M  V30 9185 H 813.37 -4.7214 -5.90441 0
M  V30 9186 H 814.638 -3.89022 -6.75486 0
M  V30 9187 N 818.867 0.818669 -1.34668 0
M  V30 9188 C 820.114 1.57512 -1.27264 0
M  V30 9189 C 820.442 1.93871 0.156254 0
M  V30 9190 O 819.697 1.60582 1.11857 0
M  V30 9191 C 819.996 2.88245 -2.11304 0
M  V30 9192 C 819.662 2.71159 -3.60255 0
M  V30 9193 C 818.324 2.66207 -4.00858 0
M  V30 9194 C 820.676 2.54538 -4.54819 0
M  V30 9195 C 818.004 2.4256 -5.34211 0
M  V30 9196 C 820.356 2.32421 -5.88356 0
M  V30 9197 C 819.02 2.25884 -6.28118 0
M  V30 9198 H 818.29 0.576378 -0.465692 0
M  V30 9199 H 820.937 0.9469 -1.66451 0
M  V30 9200 H 819.242 3.55381 -1.64958 0
M  V30 9201 H 820.939 3.45869 -2.02919 0
M  V30 9202 H 817.529 2.75856 -3.28027 0
M  V30 9203 H 821.713 2.57384 -4.24343 0
M  V30 9204 H 816.969 2.35959 -5.64033 0
M  V30 9205 H 821.143 2.18548 -6.61218 0
M  V30 9206 H 818.77 2.07322 -7.31383 0
M  V30 9207 N 820.346 1.18468 1.03938 0
M  V30 9208 C 821.594 0.978895 1.76811 0
M  V30 9209 C 821.915 -0.49257 1.88676 0
M  V30 9210 O 821.185 -1.3572 1.41269 0
M  V30 9211 H 819.765 0.359201 0.654968 0
M  V30 9212 H 822.427 1.49173 1.25433 0
M  V30 9213 H 821.523 1.418 2.78027 0
M  V30 9214 N 821.824 -1.22873 0.986916 0
M  V30 9215 C 823.07 -1.92047 0.670042 0
M  V30 9216 C 823.425 -1.75497 -0.788587 0
M  V30 9217 O 822.718 -1.10934 -1.56218 0
M  V30 9218 C 822.912 -3.43014 1.00379 0
M  V30 9219 C 822.741 -3.74251 2.49332 0
M  V30 9220 C 821.511 -3.94589 3.15638 0
M  V30 9221 C 823.709 -3.79208 3.47428 0
M  V30 9222 N 821.691 -4.13086 4.54129 0
M  V30 9223 C 823.062 -4.02775 4.71352 0
M  V30 9224 C 825.117 -3.62029 3.41818 0
M  V30 9225 C 823.82 -4.10946 5.90352 0
M  V30 9226 C 825.846 -3.71457 4.60189 0
M  V30 9227 C 825.208 -3.95468 5.82911 0
M  V30 9228 H 821.307 -0.723668 0.29636 0
M  V30 9229 H 823.891 -1.47946 1.26571 0
M  V30 9230 H 822.062 -3.85936 0.436762 0
M  V30 9231 H 823.794 -3.99551 0.643522 0
M  V30 9232 H 820.549 -3.91762 2.66119 0
M  V30 9233 H 820.973 -4.26275 5.25945 0
M  V30 9234 H 825.615 -3.42457 2.47958 0
M  V30 9235 H 823.333 -4.29324 6.84621 0
M  V30 9236 H 826.919 -3.59511 4.57431 0
M  V30 9237 H 825.799 -4.02584 6.72975 0
M  V30 9238 N 823.302 -0.75937 -1.38099 0
M  V30 9239 C 824.549 -0.318113 -1.99986 0
M  V30 9240 C 824.877 1.10184 -1.6028 0
M  V30 9241 O 824.132 1.77015 -0.834524 0
M  V30 9242 C 824.431 -0.394999 -3.55211 0
M  V30 9243 C 824.097 -1.77143 -4.14646 0
M  V30 9244 C 822.759 -2.14811 -4.30592 0
M  V30 9245 C 825.111 -2.67407 -4.47373 0
M  V30 9246 C 822.439 -3.42203 -4.76565 0
M  V30 9247 C 824.791 -3.94196 -4.94765 0
M  V30 9248 C 823.455 -4.31925 -5.08918 0
M  V30 9249 H 822.725 -0.116406 -0.7318 0
M  V30 9250 H 825.372 -0.97098 -1.65058 0
M  V30 9251 H 823.677 0.341426 -3.9031 0
M  V30 9252 H 825.374 -0.0350722 -4.00985 0
M  V30 9253 H 821.964 -1.46864 -4.02652 0
M  V30 9254 H 826.148 -2.39569 -4.3465 0
M  V30 9255 H 821.404 -3.71346 -4.85708 0
M  V30 9256 H 825.578 -4.64276 -5.19057 0
M  V30 9257 H 823.205 -5.30699 -5.443 0
M  V30 9258 N 824.78 1.49157 -0.508906 0
M  V30 9259 C 826.01 2.06579 0.0293308 0
M  V30 9260 C 826.418 1.36852 1.30645 0
M  V30 9261 O 825.761 0.443079 1.78276 0
M  V30 9262 C 825.823 3.57838 0.345296 0
M  V30 9263 C 825.487 4.49302 -0.835256 0
M  V30 9264 C 826.484 4.90345 -1.72793 0
M  V30 9265 C 824.169 4.91494 -1.0363 0
M  V30 9266 C 826.163 5.72327 -2.80573 0
M  V30 9267 C 823.85 5.7325 -2.11726 0
M  V30 9268 C 824.848 6.13572 -3.00032 0
M  V30 9269 O 824.536 6.93691 -4.06261 0
M  V30 9270 H 824.268 0.675679 -0.0208193 0
M  V30 9271 H 826.822 1.9282 -0.707789 0
M  V30 9272 H 825.052 3.69634 1.13612 0
M  V30 9273 H 826.741 3.97467 0.823089 0
M  V30 9274 H 827.507 4.58388 -1.58446 0
M  V30 9275 H 823.386 4.59605 -0.358308 0
M  V30 9276 H 826.93 6.03719 -3.49527 0
M  V30 9277 H 822.827 6.0462 -2.26065 0
M  V30 9278 H 823.595 7.12011 -4.03711 0
M  V30 9279 N 826.258 0.243083 1.55714 0
M  V30 9280 C 827.507 -0.383188 1.98027 0
M  V30 9281 C 827.82 -1.59347 1.13436 0
M  V30 9282 O 829.026 -2.29065 1.45745 0
M  V30 9283 C 827.482 -0.733135 3.52354 0
M  V30 9284 C 827.09 0.455539 4.45678 0
M  V30 9285 C 828.834 -1.32381 4.03331 0
M  V30 9286 C 826.741 0.0819591 5.91343 0
M  V30 9287 H 825.671 -0.146944 0.739543 0
M  V30 9288 H 828.322 0.342697 1.80272 0
M  V30 9289 H 826.704 -1.51704 3.65789 0
M  V30 9290 H 827.878 1.23291 4.44 0
M  V30 9291 H 826.193 0.960886 4.05162 0
M  V30 9292 H 828.79 -1.61658 5.09677 0
M  V30 9293 H 829.133 -2.24698 3.50452 0
M  V30 9294 H 829.666 -0.602885 3.93205 0
M  V30 9295 H 826.405 0.972171 6.48251 0
M  V30 9296 H 825.925 -0.659291 5.96166 0
M  V30 9297 H 827.604 -0.3372 6.46121 0
M  V30 9298 N 827.736 -1.57571 -0.0300757 0
M  V30 9299 C 828.686 -2.02958 -1.03885 0
M  V30 9300 C 829.67 -0.918723 -1.32092 0
M  V30 9301 O 830.862 -1.18262 -1.31694 0
M  V30 9302 C 827.991 -2.51169 -2.34028 0
M  V30 9303 C 827.077 -3.69073 -2.08915 0
M  V30 9304 N 827.468 -4.81831 -1.53858 0
M  V30 9305 C 825.766 -3.76427 -2.39204 0
M  V30 9306 C 826.467 -5.6346 -1.44526 0
M  V30 9307 N 825.443 -5.08545 -1.92048 0
M  V30 9308 H 829.245 -2.8756 -0.607157 0
M  V30 9309 H 826.759 -1.6067 -0.236399 0
M  V30 9310 H 828.756 -2.81944 -3.07104 0
M  V30 9311 H 827.416 -1.67972 -2.77876 0
M  V30 9312 H 828.427 -5.03291 -1.22142 0
M  V30 9313 H 825.104 -3.04029 -2.86134 0
M  V30 9314 H 826.494 -6.64042 -1.02456 0
M  V30 9315 N 829.214 0.302327 -1.54673 0
M  V30 9316 C 830.625 0.875409 -1.64904 0
M  V30 9317 C 830.976 1.88132 -0.55684 0
M  V30 9318 O 830.101 2.14215 0.306754 0
M  V30 9319 C 830.696 1.59457 -2.9893 0
M  V30 9320 C 829.255 2.11607 -3.11287 0
M  V30 9321 C 828.402 0.948324 -2.6058 0
M  V30 9322 H 831.353 0.079362 -1.58501 0
M  V30 9323 H 831.374 2.46005 -2.90279 0
M  V30 9324 H 830.886 0.8622 -3.78402 0
M  V30 9325 H 828.987 2.87895 -2.36532 0
M  V30 9326 H 829.1 2.35151 -4.17422 0
M  V30 9327 H 827.464 1.33352 -2.17001 0
M  V30 9328 H 828.247 0.229936 -3.42529 0
M  V30 9329 N 830.692 1.47107 0.565454 0
M  V30 9330 C 831.64 1.59368 1.69424 0
M  V30 9331 C 832.634 0.461344 1.62997 0
M  V30 9332 O 833.84 0.638849 1.68282 0
M  V30 9333 H 830.215 0.501387 0.560459 0
M  V30 9334 H 832.186 2.54242 1.56217 0
M  V30 9335 C 830.935 1.61739 3.07792 0
M  V30 9336 H 830.258 2.48215 3.13416 0
M  V30 9337 H 831.698 1.7437 3.86486 0
M  V30 9338 C 830.157 0.349156 3.35086 0
M  V30 9339 O 830.687 -0.553287 3.97871 0
M  V30 9340 N 828.893 0.231723 2.89675 0
M  V30 9341 H 828.44 0.967021 2.3876 0
M  V30 9342 H 828.398 -0.615911 3.08308 0
M  V30 9343 N 832.17 -0.811516 1.35101 0
M  V30 9344 C 833.08 -1.95475 1.29718 0
M  V30 9345 C 834.096 -1.72813 0.202909 0
M  V30 9346 O 835.272 -1.96725 0.431414 0
M  V30 9347 C 832.337 -3.29975 1.06385 0
M  V30 9348 C 831.398 -3.65566 2.25077 0
M  V30 9349 C 830.631 -4.93648 2.02848 0
M  V30 9350 O 830.854 -5.617 0.992442 0
M  V30 9351 O 829.788 -5.27384 2.90087 0
M  V30 9352 H 833.614 -2.02961 2.25921 0
M  V30 9353 H 831.199 -0.948583 1.15422 0
M  V30 9354 H 833.081 -4.10506 0.951999 0
M  V30 9355 H 831.756 -3.2343 0.132294 0
M  V30 9356 H 830.663 -2.85432 2.41825 0
M  V30 9357 H 831.996 -3.7681 3.16662 0
M  V30 9358 N 833.648 -1.19017 -1.03309 0
M  V30 9359 C 834.894 -0.991681 -1.769 0
M  V30 9360 C 835.227 0.476813 -1.88255 0
M  V30 9361 O 834.502 1.35407 -1.39625 0
M  V30 9362 C 834.785 -1.65627 -3.19749 0
M  V30 9363 C 834.638 -3.19813 -3.1629 0
M  V30 9364 C 835.957 -1.37579 -4.18043 0
M  V30 9365 H 833.076 -0.361674 -0.642153 0
M  V30 9366 H 835.718 -1.46795 -1.20628 0
M  V30 9367 H 833.868 -1.25132 -3.67796 0
M  V30 9368 H 835.54 -3.69494 -2.76174 0
M  V30 9369 H 833.783 -3.51578 -2.54117 0
M  V30 9370 H 834.454 -3.61457 -4.17196 0
M  V30 9371 H 836.93 -1.72679 -3.78578 0
M  V30 9372 H 835.806 -1.86636 -5.16196 0
M  V30 9373 H 836.067 -0.300118 -4.4108 0
M  V30 9374 N 835.127 1.22348 -0.993418 0
M  V30 9375 C 836.376 1.90422 -0.665019 0
M  V30 9376 C 836.689 1.78199 0.806512 0
M  V30 9377 O 837.895 2.41193 1.24652 0
M  V30 9378 C 836.351 3.41403 -1.13893 0
M  V30 9379 C 835.959 3.62262 -2.63572 0
M  V30 9380 C 837.703 4.15175 -0.884884 0
M  V30 9381 C 835.61 5.06947 -3.04564 0
M  V30 9382 H 834.54 0.713073 -0.245037 0
M  V30 9383 H 837.191 1.3856 -1.20305 0
M  V30 9384 H 835.573 3.9245 -0.529027 0
M  V30 9385 H 836.747 3.21705 -3.29913 0
M  V30 9386 H 835.062 3.01824 -2.86865 0
M  V30 9387 H 837.659 5.21813 -1.16684 0
M  V30 9388 H 838.002 4.15915 0.178982 0
M  V30 9389 H 838.535 3.70157 -1.45701 0
M  V30 9390 H 835.274 5.11346 -4.10128 0
M  V30 9391 H 834.794 5.48404 -2.42927 0
M  V30 9392 H 836.473 5.75374 -2.95894 0
M  V30 9393 N 836.605 0.766683 1.37694 0
M  V30 9394 C 837.553 0.137269 2.32195 0
M  V30 9395 C 838.547 -0.69067 1.54681 0
M  V30 9396 O 839.753 -0.588299 1.70115 0
M  V30 9397 H 836.128 0.0256003 0.751564 0
M  V30 9398 H 838.099 0.950129 2.82869 0
M  V30 9399 C 836.848 -0.731446 3.39919 0
M  V30 9400 H 836.171 -0.103738 3.99665 0
M  V30 9401 H 837.611 -1.13891 4.08417 0
M  V30 9402 C 836.07 -1.87984 2.79578 0
M  V30 9403 O 836.6 -2.97496 2.69924 0
M  V30 9404 N 834.806 -1.6789 2.37195 0
M  V30 9405 H 834.353 -0.788162 2.45246 0
M  V30 9406 H 834.311 -2.44894 1.97165 0
M  V30 9407 N 838.083 -1.48885 0.516809 0
M  V30 9408 C 839.308 -2.0739 -0.0205201 0
M  V30 9409 C 839.733 -1.37259 -1.28614 0
M  V30 9410 O 839.091 -0.434304 -1.76021 0
M  V30 9411 C 839.139 -3.59793 -0.24104 0
M  V30 9412 O 838.243 -3.90957 -1.31251 0
M  V30 9413 H 837.584 -0.663167 0.0332564 0
M  V30 9414 H 840.114 -1.91477 0.720956 0
M  V30 9415 H 840.124 -4.0531 -0.467737 0
M  V30 9416 H 838.799 -4.10244 0.68356 0
M  V30 9417 H 837.376 -3.57234 -1.06951 0
M  V30 9418 N 839.561 -0.251338 -1.55583 0
M  V30 9419 C 840.81 0.372681 -1.98227 0
M  V30 9420 C 841.123 1.58743 -1.1428 0
M  V30 9421 O 842.329 2.28289 -1.46957 0
M  V30 9422 C 840.785 0.714439 -3.52738 0
M  V30 9423 C 840.393 -0.479168 -4.4543 0
M  V30 9424 C 842.137 1.3024 -4.04027 0
M  V30 9425 C 840.044 -0.113318 -5.91291 0
M  V30 9426 H 838.974 0.14302 -0.740312 0
M  V30 9427 H 841.625 -0.352253 -1.80087 0
M  V30 9428 H 840.007 1.49762 -3.66589 0
M  V30 9429 H 841.181 -1.25644 -4.4334 0
M  V30 9430 H 839.496 -0.982359 -4.04646 0
M  V30 9431 H 842.093 1.58953 -5.10527 0
M  V30 9432 H 842.436 2.22837 -3.51638 0
M  V30 9433 H 842.969 0.582024 -3.93519 0
M  V30 9434 H 839.708 -1.00654 -6.47726 0
M  V30 9435 H 839.228 0.627666 -5.96507 0
M  V30 9436 H 840.907 0.30293 -6.4629 0
M  V30 9437 N 841.039 1.57585 0.0217189 0
M  V30 9438 C 841.987 2.08134 1.03842 0
M  V30 9439 C 842.981 0.996662 1.36978 0
M  V30 9440 O 844.187 1.18149 1.35797 0
M  V30 9441 H 840.562 0.664298 0.352438 0
M  V30 9442 H 842.533 2.92583 0.58634 0
M  V30 9443 C 841.282 2.58218 2.32849 0
M  V30 9444 H 840.605 3.41302 2.08214 0
M  V30 9445 H 842.045 2.97289 3.02316 0
M  V30 9446 C 840.504 1.48664 3.02325 0
M  V30 9447 O 841.034 0.857075 3.9245 0
M  V30 9448 N 839.24 1.21938 2.63779 0
M  V30 9449 H 838.787 1.73319 1.90574 0
M  V30 9450 H 838.745 0.488523 3.10581 0
M  V30 9451 N 842.517 -0.29412 1.54831 0
M  V30 9452 C 843.464 -1.36296 1.86258 0
M  V30 9453 C 844.434 -1.50061 0.712097 0
M  V30 9454 O 845.619 -1.64809 0.961381 0
M  V30 9455 C 842.759 -2.72187 2.12151 0
M  V30 9456 C 841.872 -2.66816 3.39755 0
M  V30 9457 C 841.007 -3.94747 3.55455 0
M  V30 9458 C 840.046 -3.838 4.76827 0
M  V30 9459 N 839.183 -5.03521 4.89296 0
M  V30 9460 H 844.023 -1.08796 2.7743 0
M  V30 9461 H 841.56 -0.526069 1.37371 0
M  V30 9462 H 843.518 -3.51225 2.25159 0
M  V30 9463 H 842.148 -2.97934 1.24237 0
M  V30 9464 H 841.2 -1.79605 3.3533 0
M  V30 9465 H 842.512 -2.5462 4.28917 0
M  V30 9466 H 841.666 -4.82223 3.68166 0
M  V30 9467 H 840.405 -4.09785 2.64438 0
M  V30 9468 H 839.41 -2.94708 4.64141 0
M  V30 9469 H 840.635 -3.70301 5.69258 0
M  V30 9470 H 838.581 -5.1901 4.01204 0
M  V30 9471 H 838.498 -4.93775 5.72471 0
M  V30 9472 H 839.766 -5.92629 5.06371 0
M  V30 9473 N 843.995 -1.47404 -0.557645 0
M  V30 9474 C 845.223 -1.57622 -1.34026 0
M  V30 9475 C 845.638 -0.226256 -1.87439 0
M  V30 9476 O 844.995 0.78043 -1.64971 0
M  V30 9477 C 845.046 -2.60111 -2.51047 0
M  V30 9478 O 844.767 -3.89866 -1.99841 0
M  V30 9479 C 846.268 -2.80508 -3.43264 0
M  V30 9480 H 843.488 -0.532271 -0.40857 0
M  V30 9481 H 846.032 -1.93019 -0.675555 0
M  V30 9482 H 844.187 -2.27648 -3.13457 0
M  V30 9483 H 844.601 -4.45864 -2.76234 0
M  V30 9484 H 846.075 -3.56084 -4.21792 0
M  V30 9485 H 846.552 -1.88314 -3.9678 0
M  V30 9486 H 847.158 -3.14166 -2.86671 0
M  V30 9487 N 845.473 0.80434 -1.35529 0
M  V30 9488 C 846.75 1.5486 -1.1949 0
M  V30 9489 C 847.13 2.09897 0.22506 0
M  V30 9490 O 846.478 1.92643 1.22886 0
M  V30 9491 C 846.688 2.65535 -2.26478 0
M  V30 9492 C 848.036 3.33814 -2.62399 0
M  V30 9493 O 849.06 2.75807 -2.25409 0
M  V30 9494 O 847.919 4.38612 -3.26009 0
M  V30 9495 H 845.013 0.68433 -0.464351 0
M  V30 9496 H 847.559 0.844107 -1.47217 0
M  V30 9497 H 846.331 2.22754 -3.21709 0
M  V30 9498 H 845.954 3.43617 -2.00033 0
M  V30 9499 N 846.951 1.19563 1.02676 0
M  V30 9500 C 848.198 0.999568 1.7611 0
M  V30 9501 C 848.526 -0.469432 1.8875 0
M  V30 9502 O 847.781 -1.36481 1.40255 0
M  V30 9503 C 848.08 1.61619 3.18769 0
M  V30 9504 C 847.746 3.11366 3.26132 0
M  V30 9505 C 846.408 3.52234 3.27848 0
M  V30 9506 C 848.76 4.07374 3.25109 0
M  V30 9507 C 846.088 4.87658 3.26201 0
M  V30 9508 C 848.44 5.42731 3.25002 0
M  V30 9509 C 847.104 5.83027 3.25017 0
M  V30 9510 H 846.374 0.365768 0.644434 0
M  V30 9511 H 849.021 1.48838 1.20497 0
M  V30 9512 H 847.326 1.04974 3.77476 0
M  V30 9513 H 849.023 1.43975 3.74262 0
M  V30 9514 H 845.613 2.78804 3.25525 0
M  V30 9515 H 849.797 3.76842 3.22961 0
M  V30 9516 H 845.053 5.18156 3.24537 0
M  V30 9517 H 849.227 6.16879 3.23161 0
M  V30 9518 H 846.854 6.87936 3.23494 0
M  V30 9519 N 848.429 -1.21819 0.999893 0
M  V30 9520 C 849.675 -1.91035 0.680701 0
M  V30 9521 C 850.008 -1.77582 -0.786021 0
M  V30 9522 O 849.283 -1.14917 -1.56921 0
M  V30 9523 C 849.566 -3.43013 1.0961 0
M  V30 9524 C 849.419 -3.65481 2.6219 0
M  V30 9525 C 850.738 -4.35204 0.654616 0
M  V30 9526 H 847.857 -0.693748 0.248763 0
M  V30 9527 H 850.499 -1.43555 1.24466 0
M  V30 9528 H 848.649 -3.83581 0.616253 0
M  V30 9529 H 850.321 -3.34273 3.17899 0
M  V30 9530 H 848.564 -3.09522 3.03938 0
M  V30 9531 H 849.235 -4.71945 2.86307 0
M  V30 9532 H 851.711 -4.0219 1.06688 0
M  V30 9533 H 850.587 -5.40198 0.973492 0
M  V30 9534 H 850.848 -4.3986 -0.444458 0
M  V30 9535 N 849.908 -0.773975 -1.37286 0
M  V30 9536 C 851.324 -0.45386 -1.53011 0
M  V30 9537 C 851.524 1.03018 -1.73175 0
M  V30 9538 O 850.58 1.81597 -1.75438 0
M  V30 9539 C 851.893 -1.27087 -2.72524 0
M  V30 9540 C 853.441 -1.26299 -2.86387 0
M  V30 9541 C 853.916 -2.0634 -4.08886 0
M  V30 9542 N 855.407 -2.03706 -4.16003 0
M  V30 9543 C 856.142 -2.62418 -5.09828 0
M  V30 9544 N 855.638 -3.29926 -6.09197 0
M  V30 9545 N 857.431 -2.52236 -5.02328 0
M  V30 9546 H 849.582 -1.73551 -1.22449 0
M  V30 9547 H 851.845 -0.736874 -0.596423 0
M  V30 9548 H 851.551 -2.32263 -2.64096 0
M  V30 9549 H 851.425 -0.90157 -3.66267 0
M  V30 9550 H 853.812 -0.219213 -2.94285 0
M  V30 9551 H 853.893 -1.67195 -1.93596 0
M  V30 9552 H 853.537 -3.10741 -4.01749 0
M  V30 9553 H 853.467 -1.62825 -5.00795 0
M  V30 9554 H 855.958 -1.54559 -3.44848 0
M  V30 9555 H 856.271 -3.72095 -6.77322 0
M  V30 9556 H 854.616 -3.34026 -6.09469 0
M  V30 9557 H 857.807 -1.99108 -4.23643 0
M  V30 9558 H 857.98 -2.98286 -5.75265 0
M  V30 9559 N 851.386 1.48609 -0.524698 0
M  V30 9560 C 852.336 2.26505 0.260696 0
M  V30 9561 C 853.32 1.32378 0.914597 0
M  V30 9562 O 854.512 1.5695 0.818277 0
M  V30 9563 C 851.641 3.17313 1.31024 0
M  V30 9564 C 850.727 4.18911 0.661391 0
M  V30 9565 N 851.118 5.05183 -0.24981 0
M  V30 9566 C 849.416 4.36425 0.91922 0
M  V30 9567 C 850.117 5.78348 -0.623598 0
M  V30 9568 N 849.093 5.43598 0.0140839 0
M  V30 9569 H 852.895 2.90582 -0.440388 0
M  V30 9570 H 850.409 1.5875 -0.342364 0
M  V30 9571 H 852.406 3.71772 1.88656 0
M  V30 9572 H 851.066 2.54791 2.01275 0
M  V30 9573 H 852.077 5.1415 -0.622093 0
M  V30 9574 H 848.754 3.85095 1.6127 0
M  V30 9575 H 850.144 6.57775 -1.37046 0
M  V30 9576 N 852.864 0.259585 1.55447 0
M  V30 9577 C 854.11 -0.362143 1.9954 0
M  V30 9578 C 854.443 -1.5666 1.14767 0
M  V30 9579 O 853.718 -1.93319 0.214025 0
M  V30 9580 C 854.001 -0.759588 3.51998 0
M  V30 9581 C 853.854 0.451134 4.47532 0
M  V30 9582 C 855.173 -1.60186 4.09913 0
M  V30 9583 H 852.292 -0.130157 0.725416 0
M  V30 9584 H 854.934 0.363431 1.86492 0
M  V30 9585 H 853.084 -1.3778 3.63248 0
M  V30 9586 H 854.756 1.08965 4.48246 0
M  V30 9587 H 852.999 1.092 4.19831 0
M  V30 9588 H 853.67 0.129518 5.51848 0
M  V30 9589 H 856.146 -1.0799 4.01842 0
M  V30 9590 H 855.022 -1.84879 5.16828 0
M  V30 9591 H 855.283 -2.57787 3.59163 0
M  V30 9592 N 854.342 -1.57594 -0.0133615 0
M  V30 9593 C 855.272 -2.10611 -1.00823 0
M  V30 9594 C 856.253 -1.01217 -1.36708 0
M  V30 9595 O 857.438 -1.28827 -1.45318 0
M  V30 9596 C 854.568 -2.59844 -2.30431 0
M  V30 9597 C 853.522 -3.73644 -2.08745 0
M  V30 9598 C 852.848 -4.09141 -3.4425 0
M  V30 9599 C 854.148 -5.01454 -1.46086 0
M  V30 9600 H 855.842 -2.93985 -0.566849 0
M  V30 9601 H 853.388 -1.41423 -0.271219 0
M  V30 9602 H 855.341 -2.95557 -3.00373 0
M  V30 9603 H 854.065 -1.73573 -2.76658 0
M  V30 9604 H 852.724 -3.38303 -1.41232 0
M  V30 9605 H 852.372 -3.19914 -3.88155 0
M  V30 9606 H 852.072 -4.85802 -3.3056 0
M  V30 9607 H 853.596 -4.47402 -4.15528 0
M  V30 9608 H 855.01 -5.35024 -2.05966 0
M  V30 9609 H 853.407 -5.82832 -1.42924 0
M  V30 9610 H 854.477 -4.83003 -0.428471 0
M  V30 9611 N 855.82 0.285905 -1.54985 0
M  V30 9612 C 857.066 1.02071 -1.75241 0
M  V30 9613 C 857.399 1.864 -0.544842 0
M  V30 9614 O 856.674 1.89034 0.457844 0
M  V30 9615 C 856.957 1.91409 -3.05016 0
M  V30 9616 C 856.81 1.10158 -4.36102 0
M  V30 9617 C 858.129 2.90335 -3.30747 0
M  V30 9618 H 855.248 0.369663 -0.637588 0
M  V30 9619 H 857.89 0.294114 -1.8771 0
M  V30 9620 H 856.04 2.53362 -2.94517 0
M  V30 9621 H 857.712 0.503756 -4.58541 0
M  V30 9622 H 855.955 0.404675 -4.31908 0
M  V30 9623 H 856.626 1.75956 -5.23205 0
M  V30 9624 H 859.102 2.38514 -3.40955 0
M  V30 9625 H 857.978 3.49997 -4.2284 0
M  V30 9626 H 858.239 3.64787 -2.49765 0
M  V30 9627 N 857.298 1.47698 0.54982 0
M  V30 9628 C 858.523 1.58579 1.33669 0
M  V30 9629 C 858.948 0.239049 1.86575 0
M  V30 9630 O 858.306 -0.786256 1.63364 0
M  V30 9631 C 858.354 2.62029 2.47736 0
M  V30 9632 O 857.458 2.17813 3.50188 0
M  V30 9633 H 856.799 0.532447 0.396732 0
M  V30 9634 H 859.329 1.93536 0.6637 0
M  V30 9635 H 859.339 2.82682 2.94202 0
M  V30 9636 H 858.014 3.59812 2.08586 0
M  V30 9637 H 856.591 2.07291 3.09976 0
M  V30 9638 N 858.776 -0.797141 1.35954 0
M  V30 9639 C 860.192 -1.09408 1.16198 0
M  V30 9640 C 860.392 -2.01491 -0.0191682 0
M  V30 9641 O 859.448 -2.42977 -0.686902 0
M  V30 9642 C 860.761 -1.71597 2.46931 0
M  V30 9643 C 862.309 -1.83974 2.53224 0
M  V30 9644 C 862.784 -2.49579 3.84024 0
M  V30 9645 N 864.275 -2.57055 3.85327 0
M  V30 9646 C 865.01 -3.08608 4.83268 0
M  V30 9647 N 864.506 -3.60527 5.91601 0
M  V30 9648 N 866.299 -3.07249 4.70696 0
M  V30 9649 H 858.45 -0.185209 2.11591 0
M  V30 9650 H 860.713 -0.144768 0.936881 0
M  V30 9651 H 860.419 -1.11404 3.3359 0
M  V30 9652 H 860.293 -2.71193 2.62172 0
M  V30 9653 H 862.68 -2.43308 1.66988 0
M  V30 9654 H 862.761 -0.83207 2.41889 0
M  V30 9655 H 862.405 -1.90892 4.70662 0
M  V30 9656 H 862.335 -3.50902 3.92651 0
M  V30 9657 H 864.826 -2.20283 3.07057 0
M  V30 9658 H 865.139 -3.98192 6.62317 0
M  V30 9659 H 863.484 -3.587 5.95281 0
M  V30 9660 H 866.675 -2.65972 3.85197 0
M  V30 9661 H 866.848 -3.47119 5.47186 0
M  V30 9662 N 860.254 -1.20106 -1.0204 0
M  V30 9663 C 861.202 -0.943231 -2.12617 0
M  V30 9664 C 862.196 0.104042 -1.6908 0
M  V30 9665 O 863.402 -0.0459732 -1.79941 0
M  V30 9666 H 859.777 -0.28767 -0.694802 0
M  V30 9667 H 861.748 -1.88221 -2.3155 0
M  V30 9668 C 860.497 -0.50771 -3.43973 0
M  V30 9669 H 859.82 -1.30514 -3.77897 0
M  V30 9670 H 861.26 -0.366486 -4.22413 0
M  V30 9671 C 859.719 0.77939 -3.27761 0
M  V30 9672 O 860.249 1.83876 -3.57145 0
M  V30 9673 N 858.455 0.739931 -2.81022 0
M  V30 9674 H 858.002 -0.122426 -2.57309 0
M  V30 9675 H 857.96 1.60147 -2.70556 0
M  V30 9676 N 861.732 1.21287 -1.00634 0
M  V30 9677 C 862.979 1.90389 -0.6898 0
M  V30 9678 C 863.307 1.78193 0.779574 0
M  V30 9679 O 862.562 1.15358 1.58085 0
M  V30 9680 C 862.861 3.41374 -1.05824 0
M  V30 9681 C 862.527 3.73766 -2.5221 0
M  V30 9682 C 861.189 3.82317 -2.92211 0
M  V30 9683 C 863.541 3.88871 -3.47028 0
M  V30 9684 C 860.869 4.03423 -4.2599 0
M  V30 9685 C 863.221 4.11484 -4.80483 0
M  V30 9686 C 861.885 4.18263 -5.20204 0
M  V30 9687 H 861.155 0.696683 -0.252416 0
M  V30 9688 H 863.802 1.43769 -1.26502 0
M  V30 9689 H 862.107 3.8974 -0.401281 0
M  V30 9690 H 863.804 3.93118 -0.79116 0
M  V30 9691 H 860.394 3.67702 -2.20212 0
M  V30 9692 H 864.578 3.8163 -3.17289 0
M  V30 9693 H 859.834 4.06902 -4.56334 0
M  V30 9694 H 864.008 4.22115 -5.53888 0
M  V30 9695 H 861.635 4.34369 -6.23881 0
M  V30 9696 N 863.21 0.781244 1.36873 0
M  V30 9697 C 864.14 0.188128 2.32741 0
M  V30 9698 C 865.121 -0.672326 1.56249 0
M  V30 9699 O 866.306 -0.607835 1.84442 0
M  V30 9700 C 863.436 -0.684341 3.40491 0
M  V30 9701 C 862.39 0.0755641 4.27933 0
M  V30 9702 C 861.716 -0.916968 5.26779 0
M  V30 9703 C 863.016 1.26006 5.06873 0
M  V30 9704 H 864.71 0.989016 2.82593 0
M  V30 9705 H 862.256 0.477038 1.35869 0
M  V30 9706 H 864.209 -1.10915 4.06541 0
M  V30 9707 H 862.933 -1.51785 2.89187 0
M  V30 9708 H 861.592 0.481258 3.63427 0
M  V30 9709 H 861.24 -1.74528 4.71751 0
M  V30 9710 H 860.94 -0.413 5.86147 0
M  V30 9711 H 862.464 -1.34052 5.95703 0
M  V30 9712 H 863.878 0.911425 5.66009 0
M  V30 9713 H 862.275 1.69676 5.75613 0
M  V30 9714 H 863.345 2.05948 4.38991 0
M  V30 9715 N 864.689 -1.48329 0.532571 0
M  V30 9716 C 865.619 -2.32485 -0.217511 0
M  V30 9717 C 866.6 -1.42255 -0.932598 0
M  V30 9718 O 867.785 -1.7114 -0.917873 0
M  V30 9719 C 864.915 -3.23509 -1.26329 0
M  V30 9720 C 863.869 -4.22784 -0.666191 0
M  V30 9721 C 863.195 -5.0296 -1.81482 0
M  V30 9722 C 864.495 -5.21031 0.363813 0
M  V30 9723 H 866.189 -2.95445 0.485014 0
M  V30 9724 H 863.735 -1.42075 0.234694 0
M  V30 9725 H 865.688 -3.81211 -1.79601 0
M  V30 9726 H 864.412 -2.58554 -1.99543 0
M  V30 9727 H 863.071 -3.66272 -0.15498 0
M  V30 9728 H 862.719 -4.34427 -2.5354 0
M  V30 9729 H 862.419 -5.70154 -1.4212 0
M  V30 9730 H 863.943 -5.63514 -2.35126 0
M  V30 9731 H 865.357 -5.73241 -0.0819079 0
M  V30 9732 H 863.754 -5.96292 0.674956 0
M  V30 9733 H 864.824 -4.6801 1.26865 0
M  V30 9734 N 866.167 -0.267825 -1.55308 0
M  V30 9735 C 867.114 0.6228 -2.22238 0
M  V30 9736 C 868.084 1.15536 -1.19334 0
M  V30 9737 O 869.269 1.206 -1.47852 0
M  V30 9738 C 866.409 1.80447 -2.94164 0
M  V30 9739 C 865.522 1.30646 -4.11771 0
M  V30 9740 C 864.657 2.44935 -4.7136 0
M  V30 9741 C 863.696 1.92099 -5.81175 0
M  V30 9742 N 862.833 2.99834 -6.34857 0
M  V30 9743 H 867.673 0.0453874 -2.97965 0
M  V30 9744 H 865.21 0.0106371 -1.47096 0
M  V30 9745 H 867.168 2.49896 -3.34078 0
M  V30 9746 H 865.798 2.35403 -2.20874 0
M  V30 9747 H 864.85 0.505314 -3.77029 0
M  V30 9748 H 866.162 0.879409 -4.90987 0
M  V30 9749 H 865.316 3.2239 -5.13955 0
M  V30 9750 H 864.055 2.90951 -3.91406 0
M  V30 9751 H 863.06 1.13122 -5.38037 0
M  V30 9752 H 864.285 1.47027 -6.62993 0
M  V30 9753 H 862.231 3.45246 -5.578 0
M  V30 9754 H 862.148 2.61524 -7.09324 0
M  V30 9755 H 863.416 3.77286 -6.82111 0
M  V30 9756 N 867.645 1.57599 0.00500368 0
M  V30 9757 C 868.593 2.09223 1.01628 0
M  V30 9758 C 869.587 1.01113 1.35913 0
M  V30 9759 O 870.793 1.19583 1.34536 0
M  V30 9760 H 867.168 0.667999 0.345372 0
M  V30 9761 H 869.139 2.93188 0.555274 0
M  V30 9762 C 867.888 2.60674 2.30097 0
M  V30 9763 H 867.211 3.43491 2.04582 0
M  V30 9764 H 868.651 3.00479 2.99146 0
M  V30 9765 C 867.11 1.51862 3.00731 0
M  V30 9766 O 867.64 0.898651 3.91519 0
M  V30 9767 N 865.846 1.24729 2.62471 0
M  V30 9768 H 865.393 1.7533 1.88725 0
M  V30 9769 H 865.351 0.521437 3.10046 0
M  V30 9770 N 869.123 -0.277682 1.55134 0
M  V30 9771 C 870.071 -1.36305 1.88478 0
M  V30 9772 C 871.065 -1.51362 0.760654 0
M  V30 9773 O 872.271 -1.53202 0.944943 0
M  V30 9774 H 868.646 -0.45577 0.598146 0
M  V30 9775 H 870.617 -1.05431 2.79154 0
M  V30 9776 C 869.366 -2.71739 2.16918 0
M  V30 9777 H 868.689 -2.60942 3.02901 0
M  V30 9778 H 870.129 -3.46635 2.44172 0
M  V30 9779 C 868.588 -3.22476 0.975239 0
M  V30 9780 O 869.118 -4.01164 0.207497 0
M  V30 9781 N 867.324 -2.80097 0.774219 0
M  V30 9782 H 866.871 -2.16221 1.40022 0
M  V30 9783 H 866.829 -3.14392 -0.023021 0
M  V30 9784 N 870.601 -1.47988 -0.541979 0
M  V30 9785 C 871.878 -1.45878 -1.30303 0
M  V30 9786 C 872.258 -0.163931 -2.10463 0
M  V30 9787 O 871.606 0.854479 -2.11922 0
M  V30 9788 C 871.816 -2.71359 -2.19466 0
M  V30 9789 C 873.164 -3.19199 -2.79995 0
M  V30 9790 O 874.188 -2.72193 -2.2976 0
M  V30 9791 O 873.047 -4.00961 -3.71339 0
M  V30 9792 H 870.141 -0.582043 -0.587498 0
M  V30 9793 H 872.687 -1.60207 -0.559623 0
M  V30 9794 H 871.459 -3.57122 -1.59936 0
M  V30 9795 H 871.082 -2.59692 -3.01075 0
M  V30 9796 N 872.079 0.78992 -1.36375 0
M  V30 9797 C 873.011 1.91113 -1.26524 0
M  V30 9798 C 874.024 1.61747 -0.184851 0
M  V30 9799 O 875.213 1.73004 -0.439524 0
M  V30 9800 C 872.313 3.25908 -0.92937 0
M  V30 9801 C 871.486 3.83057 -2.11154 0
M  V30 9802 C 870.545 4.96289 -1.74881 0
M  V30 9803 O 869.571 5.12834 -2.46962 0
M  V30 9804 N 870.773 5.76478 -0.682193 0
M  V30 9805 H 873.538 2.00085 -2.23128 0
M  V30 9806 H 871.099 0.968165 -1.29762 0
M  V30 9807 H 873.091 3.99151 -0.667884 0
M  V30 9808 H 871.661 3.12556 -0.0524843 0
M  V30 9809 H 870.881 3.01808 -2.53586 0
M  V30 9810 H 872.169 4.1797 -2.90135 0
M  V30 9811 H 871.567 5.65638 -0.0836661 0
M  V30 9812 H 870.124 6.50026 -0.480529 0
M  V30 9813 N 873.557 1.20646 1.01402 0
M  V30 9814 C 874.487 0.98155 2.11867 0
M  V30 9815 C 875.468 -0.0903712 1.6986 0
M  V30 9816 O 876.653 0.0676586 1.94082 0
M  V30 9817 C 873.783 0.535636 3.43145 0
M  V30 9818 C 872.737 1.55109 3.98905 0
M  V30 9819 C 872.063 0.961725 5.2598 0
M  V30 9820 C 873.363 2.93552 4.32001 0
M  V30 9821 H 875.057 1.90544 2.3094 0
M  V30 9822 H 872.603 0.917554 1.10982 0
M  V30 9823 H 874.556 0.365512 4.19812 0
M  V30 9824 H 873.28 -0.423882 3.23838 0
M  V30 9825 H 871.939 1.70862 3.24348 0
M  V30 9826 H 871.587 -0.00580108 5.03 0
M  V30 9827 H 871.287 1.63993 5.64252 0
M  V30 9828 H 872.811 0.802726 6.053 0
M  V30 9829 H 874.225 2.81295 4.99546 0
M  V30 9830 H 872.622 3.58303 4.81393 0
M  V30 9831 H 873.692 3.4508 3.40658 0
M  V30 9832 N 875.035 -1.20752 1.01276 0
M  V30 9833 C 876.263 -1.94006 0.718976 0
M  V30 9834 C 876.678 -1.74544 -0.719711 0
M  V30 9835 O 876.035 -1.05697 -1.48776 0
M  V30 9836 C 876.086 -3.46208 1.04031 0
M  V30 9837 O 875.807 -3.65031 2.42248 0
M  V30 9838 C 877.308 -4.36614 0.767032 0
M  V30 9839 H 874.528 -0.616743 0.264327 0
M  V30 9840 H 877.072 -1.53352 1.3529 0
M  V30 9841 H 875.227 -3.84756 0.451852 0
M  V30 9842 H 875.641 -4.59054 2.53712 0
M  V30 9843 H 877.115 -5.42076 1.04198 0
M  V30 9844 H 877.592 -4.38182 -0.298851 0
M  V30 9845 H 878.198 -4.03723 1.33746 0
M  V30 9846 N 876.513 -0.788492 -1.36457 0
M  V30 9847 C 877.76 -0.360461 -1.99266 0
M  V30 9848 C 878.088 1.0676 -1.62581 0
M  V30 9849 O 877.343 1.75205 -0.871884 0
M  V30 9850 C 877.642 -0.470255 -3.54293 0
M  V30 9851 C 877.308 -1.85899 -4.10795 0
M  V30 9852 C 875.97 -2.23896 -4.25939 0
M  V30 9853 C 878.322 -2.76836 -4.41601 0
M  V30 9854 C 875.65 -3.52235 -4.69199 0
M  V30 9855 C 878.002 -4.04602 -4.86292 0
M  V30 9856 C 876.666 -4.42623 -4.99641 0
M  V30 9857 H 875.936 -0.131902 -0.729166 0
M  V30 9858 H 878.583 -1.00577 -1.62962 0
M  V30 9859 H 876.888 0.258559 -3.90946 0
M  V30 9860 H 878.585 -0.120119 -4.0082 0
M  V30 9861 H 875.175 -1.55372 -3.99447 0
M  V30 9862 H 879.359 -2.48735 -4.2947 0
M  V30 9863 H 874.615 -3.81565 -4.77722 0
M  V30 9864 H 878.789 -4.75182 -5.09092 0
M  V30 9865 H 876.416 -5.42125 -5.32921 0
M  V30 9866 N 877.991 1.48044 -0.54043 0
M  V30 9867 C 878.921 2.32597 0.205178 0
M  V30 9868 C 879.902 1.42748 0.925041 0
M  V30 9869 O 881.087 1.71624 0.908784 0
M  V30 9870 C 878.217 3.24175 1.24612 0
M  V30 9871 C 877.171 4.23131 0.64376 0
M  V30 9872 C 876.497 5.03915 1.78812 0
M  V30 9873 C 877.797 5.20831 -0.39144 0
M  V30 9874 H 879.491 2.95184 -0.500676 0
M  V30 9875 H 877.037 1.41948 -0.242225 0
M  V30 9876 H 878.99 3.82158 1.77576 0
M  V30 9877 H 877.714 2.59608 1.98169 0
M  V30 9878 H 876.373 3.66349 0.135554 0
M  V30 9879 H 876.021 4.35765 2.51232 0
M  V30 9880 H 875.721 5.709 1.39094 0
M  V30 9881 H 877.245 5.64753 2.32134 0
M  V30 9882 H 878.659 5.73277 0.0515064 0
M  V30 9883 H 877.056 5.95926 -0.706569 0
M  V30 9884 H 878.126 4.6733 -1.29345 0
M  V30 9885 N 879.47 0.276058 1.55163 0
M  V30 9886 C 880.38 -0.621066 2.2623 0
M  V30 9887 C 881.396 -1.16931 1.28853 0
M  V30 9888 O 882.572 -1.1994 1.61791 0
M  V30 9889 C 879.637 -1.78824 2.97023 0
M  V30 9890 C 878.698 -1.27657 4.09881 0
M  V30 9891 C 877.931 -2.38812 4.77289 0
M  V30 9892 O 878.154 -3.58188 4.43912 0
M  V30 9893 O 877.088 -2.06915 5.65217 0
M  V30 9894 H 880.914 -0.0453346 3.03666 0
M  V30 9895 H 878.499 0.0434275 1.49337 0
M  V30 9896 H 880.381 -2.46877 3.41511 0
M  V30 9897 H 879.056 -2.35104 2.22503 0
M  V30 9898 H 877.963 -0.56248 3.69847 0
M  V30 9899 H 879.296 -0.759509 4.86305 0
M  V30 9900 N 880.948 -1.576 0.00335426 0
M  V30 9901 C 882.176 -1.94996 -0.691685 0
M  V30 9902 C 882.591 -0.878405 -1.67121 0
M  V30 9903 O 881.948 0.142343 -1.81944 0
M  V30 9904 C 881.999 -3.32416 -1.42063 0
M  V30 9905 O 881.72 -4.35458 -0.48038 0
M  V30 9906 C 883.221 -3.84291 -2.20987 0
M  V30 9907 H 880.441 -0.642814 -0.192434 0
M  V30 9908 H 882.985 -2.04425 0.0554706 0
M  V30 9909 H 881.14 -3.24285 -2.11939 0
M  V30 9910 H 881.554 -5.14975 -0.995054 0
M  V30 9911 H 883.028 -4.82863 -2.67483 0
M  V30 9912 H 883.505 -3.17174 -3.03805 0
M  V30 9913 H 884.111 -3.95609 -1.56121 0
M  V30 9914 N 882.426 0.269451 -1.5528 0
M  V30 9915 C 883.358 1.35553 -1.84819 0
M  V30 9916 C 884.371 1.45369 -0.732914 0
M  V30 9917 O 885.56 1.47122 -1.0108 0
M  V30 9918 C 882.66 2.73645 -1.9993 0
M  V30 9919 C 881.833 2.86376 -3.30617 0
M  V30 9920 C 880.892 4.05165 -3.35749 0
M  V30 9921 O 879.918 3.95756 -4.09104 0
M  V30 9922 N 881.12 5.17297 -2.63408 0
M  V30 9923 H 883.885 1.10557 -2.78563 0
M  V30 9924 H 881.446 0.459566 -1.5524 0
M  V30 9925 H 883.438 3.51411 -2.00729 0
M  V30 9926 H 882.008 2.91448 -1.13035 0
M  V30 9927 H 881.228 1.95465 -3.42326 0
M  V30 9928 H 882.516 2.91815 -4.16799 0
M  V30 9929 H 881.914 5.2783 -2.03501 0
M  V30 9930 H 880.471 5.93281 -2.69927 0
M  V30 9931 N 883.904 1.48273 0.534124 0
M  V30 9932 C 885.15 1.56311 1.29208 0
M  V30 9933 C 885.483 0.234481 1.92779 0
M  V30 9934 O 884.758 -0.759143 1.79073 0
M  V30 9935 C 885.041 2.69831 2.3846 0
M  V30 9936 C 884.894 4.12385 1.79608 0
M  V30 9937 C 886.213 2.79133 3.40254 0
M  V30 9938 H 883.332 0.56899 0.468422 0
M  V30 9939 H 885.974 1.80429 0.595438 0
M  V30 9940 H 884.124 2.49397 2.97881 0
M  V30 9941 H 885.796 4.44246 1.24269 0
M  V30 9942 H 884.039 4.19579 1.10162 0
M  V30 9943 H 884.71 4.87629 2.58693 0
M  V30 9944 H 887.186 2.97632 2.90783 0
M  V30 9945 H 886.062 3.60298 4.14097 0
M  V30 9946 H 886.323 1.87122 4.00547 0
M  V30 9947 N 885.382 -0.782676 1.36792 0
M  V30 9948 C 886.345 -1.8772 1.31507 0
M  V30 9949 C 887.345 -1.59269 0.221349 0
M  V30 9950 O 888.535 -1.67555 0.476544 0
M  V30 9951 C 885.667 -3.24641 1.04025 0
M  V30 9952 H 886.86 -1.9382 2.28853 0
M  V30 9953 H 884.413 -0.981226 1.21662 0
M  V30 9954 H 885.148 -3.24221 0.0716439 0
M  V30 9955 H 884.933 -3.46681 1.8318 0
M  V30 9956 H 886.423 -4.04711 1.02949 0
M  V30 9957 N 886.86 -1.21182 -1.00761 0
M  V30 9958 C 887.807 -0.968741 -2.09485 0
M  V30 9959 C 888.777 0.104325 -1.65772 0
M  V30 9960 O 889.962 -0.0422587 -1.90753 0
M  V30 9961 C 887.102 -0.536686 -3.40901 0
M  V30 9962 C 886.215 -1.6789 -3.98041 0
M  V30 9963 C 885.35 -1.19627 -5.17555 0
M  V30 9964 C 884.389 -2.31099 -5.66798 0
M  V30 9965 N 883.526 -1.83988 -6.77564 0
M  V30 9966 H 888.366 -1.89952 -2.29613 0
M  V30 9967 H 885.903 -0.946688 -1.12589 0
M  V30 9968 H 887.861 -0.26745 -4.16342 0
M  V30 9969 H 886.491 0.357092 -3.20819 0
M  V30 9970 H 885.543 -2.06284 -3.19611 0
M  V30 9971 H 886.855 -2.51794 -4.30582 0
M  V30 9972 H 886.009 -0.883539 -6.00232 0
M  V30 9973 H 884.748 -0.327244 -4.86601 0
M  V30 9974 H 883.753 -2.63178 -4.82719 0
M  V30 9975 H 884.978 -3.18493 -5.99782 0
M  V30 9976 H 882.924 -0.994257 -6.48422 0
M  V30 9977 H 882.841 -2.61466 -7.09346 0
M  V30 9978 H 884.109 -1.55741 -7.63783 0
M  V30 9979 N 888.338 1.20213 -1.01915 0
M  V30 9980 C 889.587 1.88968 -0.705261 0
M  V30 9981 C 889.9 1.79869 0.768531 0
M  V30 9982 O 891.106 2.43783 1.19508 0
M  V30 9983 C 889.562 3.38911 -1.21109 0
M  V30 9984 C 889.17 3.5659 -2.71197 0
M  V30 9985 C 890.914 4.13204 -0.97275 0
M  V30 9986 C 888.821 5.00372 -3.15248 0
M  V30 9987 H 887.751 0.707715 -0.260107 0
M  V30 9988 H 890.402 1.35977 -1.23217 0
M  V30 9989 H 888.784 3.9124 -0.612152 0
M  V30 9990 H 889.958 3.14635 -3.36662 0
M  V30 9991 H 888.273 2.95671 -2.93202 0
M  V30 9992 H 890.87 5.19221 -1.27726 0
M  V30 9993 H 891.213 4.16201 0.09072 0
M  V30 9994 H 891.746 3.66983 -1.5352 0
M  V30 9995 H 888.485 5.02532 -4.20882 0
M  V30 9996 H 888.005 5.43127 -2.54505 0
M  V30 9997 H 889.684 5.68969 -3.08032 0
M  V30 9998 N 889.816 0.795718 1.36037 0
M  V30 9999 C 891.062 0.371574 1.99367 0
M  V30 10000 C 891.395 -1.0557 1.62999 0
M  V30 10001 O 890.67 -1.73051 0.887895 0
M  V30 10002 C 890.953 0.542622 3.55988 0
M  V30 10003 C 890.806 2.01404 4.0219 0
M  V30 10004 C 892.125 -0.0384527 4.40083 0
M  V30 10005 H 889.244 0.136483 0.724252 0
M  V30 10006 H 891.886 1.00323 1.61355 0
M  V30 10007 H 890.036 0.0049053 3.885 0
M  V30 10008 H 891.708 2.6133 3.80137 0
M  V30 10009 H 889.951 2.51439 3.53498 0
M  V30 10010 H 890.622 2.08466 5.11122 0
M  V30 10011 H 893.098 0.420634 4.13968 0
M  V30 10012 H 891.974 0.111214 5.48787 0
M  V30 10013 H 892.235 -1.13116 4.27384 0
M  V30 10014 N 891.294 -1.47756 0.548274 0
M  V30 10015 C 892.204 -2.33678 -0.207773 0
M  V30 10016 C 893.22 -1.47636 -0.920843 0
M  V30 10017 O 894.396 -1.80583 -0.89173 0
M  V30 10018 C 891.461 -3.24147 -1.23003 0
M  V30 10019 C 890.522 -4.26073 -0.52535 0
M  V30 10020 C 889.755 -5.12219 -1.4989 0
M  V30 10021 O 889.978 -5.0066 -2.73305 0
M  V30 10022 O 888.912 -5.93051 -1.02828 0
M  V30 10023 H 892.738 -2.99609 0.496794 0
M  V30 10024 H 890.323 -1.4617 0.308982 0
M  V30 10025 H 892.205 -3.80055 -1.82034 0
M  V30 10026 H 890.88 -2.60855 -1.91668 0
M  V30 10027 H 889.787 -3.7395 0.105927 0
M  V30 10028 H 891.12 -4.92054 0.119686 0
M  V30 10029 N 892.772 -0.284283 -1.55015 0
M  V30 10030 C 894.021 0.33055 -1.98973 0
M  V30 10031 C 894.334 1.56284 -1.17621 0
M  V30 10032 O 895.54 2.2512 -1.51767 0
M  V30 10033 C 893.996 0.639457 -3.54174 0
M  V30 10034 C 893.604 -0.573543 -4.44313 0
M  V30 10035 C 895.348 1.21641 -4.06699 0
M  V30 10036 C 893.255 -0.238715 -5.90918 0
M  V30 10037 H 892.185 0.127285 -0.743179 0
M  V30 10038 H 894.836 -0.390372 -1.793 0
M  V30 10039 H 893.218 1.41953 -3.69683 0
M  V30 10040 H 894.392 -1.3502 -4.40575 0
M  V30 10041 H 892.707 -1.06797 -4.02472 0
M  V30 10042 H 895.304 1.48088 -5.13784 0
M  V30 10043 H 895.647 2.15328 -3.56286 0
M  V30 10044 H 896.18 0.498422 -3.94665 0
M  V30 10045 H 892.919 -1.1437 -6.45445 0
M  V30 10046 H 892.439 0.500997 -5.97704 0
M  V30 10047 H 894.118 0.165774 -6.46788 0
M  V30 10048 N 894.251 1.57596 -0.0117121 0
M  V30 10049 C 895.5 1.9025 0.669921 0
M  V30 10050 C 895.813 0.887986 1.74282 0
M  V30 10051 O 897.019 1.10516 2.47989 0
M  V30 10052 C 895.475 3.37762 1.24277 0
M  V30 10053 C 895.083 4.47535 0.204076 0
M  V30 10054 C 896.827 3.79509 1.90192 0
M  V30 10055 C 894.734 5.86132 0.787577 0
M  V30 10056 H 893.664 0.709935 0.253984 0
M  V30 10057 H 896.315 1.8335 -0.0741718 0
M  V30 10058 H 894.697 3.39537 2.03791 0
M  V30 10059 H 895.871 4.57294 -0.56733 0
M  V30 10060 H 894.186 4.14881 -0.355305 0
M  V30 10061 H 896.783 4.80402 2.34773 0
M  V30 10062 H 897.126 3.13643 2.7374 0
M  V30 10063 H 897.659 3.80084 1.17394 0
M  V30 10064 H 894.398 6.55499 -0.00938418 0
M  V30 10065 H 893.918 5.80014 1.52787 0
M  V30 10066 H 895.597 6.34158 1.28265 0
M  V30 10067 N 895.729 -0.261212 1.5542 0
M  V30 10068 C 896.677 -1.34298 1.89913 0
M  V30 10069 C 897.671 -1.50547 0.776665 0
M  V30 10070 O 898.877 -1.52191 0.961139 0
M  V30 10071 H 895.252 -0.4494 0.602946 0
M  V30 10072 H 897.223 -1.02464 2.80256 0
M  V30 10073 C 895.972 -2.69423 2.19788 0
M  V30 10074 H 895.295 -2.57715 3.05652 0
M  V30 10075 H 896.735 -3.44026 2.47835 0
M  V30 10076 C 895.194 -3.21423 1.00939 0
M  V30 10077 O 895.724 -4.00921 0.250034 0
M  V30 10078 N 893.93 -2.7926 0.803883 0
M  V30 10079 H 893.477 -2.14724 1.42308 0
M  V30 10080 H 893.435 -3.14398 0.0103257 0
M  V30 10081 N 897.207 -1.48554 -0.526253 0
M  V30 10082 C 898.137 -1.66252 -1.63959 0
M  V30 10083 C 899.118 -0.511351 -1.62232 0
M  V30 10084 O 900.303 -0.744322 -1.7937 0
M  V30 10085 C 897.433 -1.70556 -3.02536 0
M  V30 10086 C 896.387 -2.8521 -3.19123 0
M  V30 10087 C 895.713 -2.74606 -4.58798 0
M  V30 10088 C 897.013 -4.26463 -3.0154 0
M  V30 10089 H 898.707 -2.59459 -1.49404 0
M  V30 10090 H 896.253 -1.24862 -0.717326 0
M  V30 10091 H 898.206 -1.81524 -3.80298 0
M  V30 10092 H 896.93 -0.739297 -3.18123 0
M  V30 10093 H 895.589 -2.73802 -2.43779 0
M  V30 10094 H 895.237 -1.75941 -4.71226 0
M  V30 10095 H 894.937 -3.51544 -4.70841 0
M  V30 10096 H 896.461 -2.87548 -5.38655 0
M  V30 10097 H 897.875 -4.38685 -3.69091 0
M  V30 10098 H 896.272 -5.04428 -3.25073 0
M  V30 10099 H 897.342 -4.42667 -1.97925 0
M  V30 10100 N 898.685 0.775411 -1.37205 0
M  V30 10101 C 899.91 1.5696 -1.35567 0
M  V30 10102 C 900.335 1.88012 0.0575554 0
M  V30 10103 O 899.693 1.48954 1.03355 0
M  V30 10104 C 899.741 2.85886 -2.19776 0
M  V30 10105 O 898.845 3.80103 -1.59987 0
M  V30 10106 H 898.186 0.475583 -0.463375 0
M  V30 10107 H 900.716 0.96001 -1.80679 0
M  V30 10108 H 900.726 3.35024 -2.32859 0
M  V30 10109 H 899.401 2.62613 -3.22502 0
M  V30 10110 H 897.978 3.38736 -1.55924 0
M  V30 10111 N 900.163 1.21714 1.00117 0
M  V30 10112 C 901.093 1.00397 2.10815 0
M  V30 10113 C 902.074 -0.0723502 1.69946 0
M  V30 10114 O 903.259 0.0882398 1.93999 0
M  V30 10115 C 900.389 0.572001 3.42557 0
M  V30 10116 C 899.343 1.59331 3.97237 0
M  V30 10117 C 898.669 1.01746 5.2493 0
M  V30 10118 C 899.969 2.98117 4.28863 0
M  V30 10119 H 901.663 1.92983 2.28906 0
M  V30 10120 H 899.209 0.929273 1.10002 0
M  V30 10121 H 901.162 0.410018 4.19401 0
M  V30 10122 H 899.886 -0.38951 3.24269 0
M  V30 10123 H 898.545 1.74293 3.22518 0
M  V30 10124 H 898.193 0.0475491 5.02978 0
M  V30 10125 H 897.893 1.69969 5.62481 0
M  V30 10126 H 899.417 0.866881 6.04415 0
M  V30 10127 H 900.831 2.86578 4.96534 0
M  V30 10128 H 899.228 3.63389 4.77565 0
M  V30 10129 H 900.298 3.48674 3.36979 0
M  V30 10130 N 901.641 -1.19671 1.02551 0
M  V30 10131 C 902.551 -2.26441 0.613329 0
M  V30 10132 C 903.567 -1.70375 -0.353339 0
M  V30 10133 O 904.743 -2.0028 -0.212064 0
M  V30 10134 C 901.808 -3.46684 -0.0329028 0
M  V30 10135 C 900.869 -4.17945 0.980837 0
M  V30 10136 C 900.102 -5.32448 0.36535 0
M  V30 10137 O 900.325 -5.64291 -0.832596 0
M  V30 10138 O 899.259 -5.92012 1.08652 0
M  V30 10139 H 903.085 -2.63932 1.50246 0
M  V30 10140 H 900.67 -1.2646 0.795502 0
M  V30 10141 H 902.552 -4.1956 -0.393395 0
M  V30 10142 H 901.227 -3.1105 -0.896089 0
M  V30 10143 H 900.134 -3.47204 1.39286 0
M  V30 10144 H 901.467 -4.57542 1.81428 0
M  V30 10145 N 903.119 -0.802921 -1.35613 0
M  V30 10146 C 904.365 -0.382141 -1.99167 0
M  V30 10147 C 904.698 1.04704 -1.63556 0
M  V30 10148 O 903.973 1.72578 -0.89706 0
M  V30 10149 C 904.256 -0.561493 -3.55695 0
M  V30 10150 C 904.109 -2.03534 -4.01116 0
M  V30 10151 C 905.428 0.0151135 -4.40097 0
M  V30 10152 H 902.547 -0.140322 -0.723518 0
M  V30 10153 H 905.189 -1.01177 -1.6082 0
M  V30 10154 H 903.339 -0.0255083 -3.88492 0
M  V30 10155 H 905.011 -2.63343 -3.78746 0
M  V30 10156 H 903.254 -2.5331 -3.52159 0
M  V30 10157 H 903.925 -2.11173 -5.1001 0
M  V30 10158 H 906.401 -0.442582 -4.1374 0
M  V30 10159 H 905.277 -0.140316 -5.48721 0
M  V30 10160 H 905.538 1.10848 -4.27978 0
M  V30 10161 N 904.597 1.47463 -0.556102 0
M  V30 10162 C 905.874 1.9557 0.0339892 0
M  V30 10163 C 906.254 1.49869 1.48669 0
M  V30 10164 O 905.602 0.737019 2.16288 0
M  V30 10165 C 905.812 3.48826 -0.110343 0
M  V30 10166 C 907.16 4.24585 0.0355716 0
M  V30 10167 O 908.184 3.5618 -0.0378356 0
M  V30 10168 O 907.043 5.46158 0.193299 0
M  V30 10169 H 904.137 0.824461 0.0647521 0
M  V30 10170 H 906.683 1.57868 -0.622547 0
M  V30 10171 H 905.455 3.74891 -1.12126 0
M  V30 10172 H 905.078 3.9329 0.583855 0
M  V30 10173 N 906.075 0.2925 1.54862 0
M  V30 10174 C 907.022 -0.587365 2.23201 0
M  V30 10175 C 907.992 -1.13623 1.21157 0
M  V30 10176 O 909.177 -1.18233 1.49752 0
M  V30 10177 C 906.317 -1.75745 2.96998 0
M  V30 10178 C 905.43 -1.24078 4.13798 0
M  V30 10179 C 904.565 -2.37405 4.75197 0
M  V30 10180 C 903.604 -1.82829 5.84157 0
M  V30 10181 N 902.741 -2.89696 6.39547 0
M  V30 10182 H 907.581 0.00202207 2.98 0
M  V30 10183 H 905.118 0.012766 1.47094 0
M  V30 10184 H 907.076 -2.44549 3.38011 0
M  V30 10185 H 905.706 -2.3186 2.24591 0
M  V30 10186 H 904.758 -0.445268 3.77785 0
M  V30 10187 H 906.07 -0.801186 4.92324 0
M  V30 10188 H 905.224 -3.14172 5.19019 0
M  V30 10189 H 903.963 -2.84688 3.95985 0
M  V30 10190 H 902.968 -1.04548 5.39768 0
M  V30 10191 H 904.193 -1.36461 6.65248 0
M  V30 10192 H 902.139 -3.36328 5.63222 0
M  V30 10193 H 902.056 -2.50206 7.13395 0
M  V30 10194 H 903.324 -3.66386 6.88027 0
M  V30 10195 N 907.553 -1.57587 0.0200696 0
M  V30 10196 C 908.778 -1.96124 -0.674547 0
M  V30 10197 C 909.203 -0.896068 -1.65385 0
M  V30 10198 O 908.561 0.143925 -1.80728 0
M  V30 10199 C 908.609 -3.3376 -1.36517 0
M  V30 10200 O 907.713 -3.29483 -2.48022 0
M  V30 10201 H 907.054 -0.639719 -0.177919 0
M  V30 10202 H 909.584 -2.04447 0.0792317 0
M  V30 10203 H 909.594 -3.69785 -1.72403 0
M  V30 10204 H 908.269 -4.10832 -0.647265 0
M  V30 10205 H 906.846 -3.05162 -2.14314 0
M  V30 10206 N 909.032 0.252966 -1.55557 0
M  V30 10207 C 910.443 0.822503 -1.67606 0
M  V30 10208 C 910.794 1.86265 -0.616411 0
M  V30 10209 O 909.919 2.15082 0.238447 0
M  V30 10210 C 910.514 1.49866 -3.03852 0
M  V30 10211 C 909.073 2.01597 -3.17861 0
M  V30 10212 C 908.22 0.864943 -2.63465 0
M  V30 10213 H 911.171 0.0288958 -1.58674 0
M  V30 10214 H 911.192 2.36646 -2.97958 0
M  V30 10215 H 910.704 0.741378 -3.80953 0
M  V30 10216 H 908.805 2.80224 -2.45571 0
M  V30 10217 H 908.918 2.21752 -4.24692 0
M  V30 10218 H 907.282 1.2638 -2.21134 0
M  V30 10219 H 908.065 0.120847 -3.43087 0
M  V30 10220 N 910.51 1.48831 0.518367 0
M  V30 10221 C 911.787 1.47933 1.27966 0
M  V30 10222 C 912.167 0.197393 2.10175 0
M  V30 10223 O 911.515 -0.820656 2.13255 0
M  V30 10224 C 911.725 2.74816 2.15121 0
M  V30 10225 C 913.073 3.23613 2.74881 0
M  V30 10226 O 914.097 2.75814 2.254 0
M  V30 10227 O 912.956 4.06818 3.64913 0
M  V30 10228 H 910.05 0.591316 0.578164 0
M  V30 10229 H 912.596 1.61077 0.534065 0
M  V30 10230 H 911.368 3.59621 1.54234 0
M  V30 10231 H 910.991 2.64449 2.96905 0
M  V30 10232 N 911.988 -0.768124 1.37614 0
M  V30 10233 C 913.213 -1.56239 1.36397 0
M  V30 10234 C 913.638 -1.8804 -0.0475839 0
M  V30 10235 O 912.996 -1.495 -1.02564 0
M  V30 10236 C 913.044 -2.84716 2.21289 0
M  V30 10237 O 912.148 -3.79249 1.62001 0
M  V30 10238 H 911.489 -0.473119 0.465891 0
M  V30 10239 H 914.019 -0.950415 1.81186 0
M  V30 10240 H 914.029 -3.33784 2.34632 0
M  V30 10241 H 912.704 -2.60899 3.2389 0
M  V30 10242 H 911.281 -3.37904 1.57719 0
M  V30 10243 N 913.466 -1.22244 -0.994698 0
M  V30 10244 C 914.396 -1.01513 -2.10279 0
M  V30 10245 C 915.377 0.0633365 -1.69982 0
M  V30 10246 O 916.562 -0.0985268 -1.9395 0
M  V30 10247 C 913.692 -0.59016 -3.42249 0
M  V30 10248 C 912.646 -1.61436 -3.96387 0
M  V30 10249 C 911.972 -1.04528 -5.24383 0
M  V30 10250 C 913.272 -3.00388 -4.27276 0
M  V30 10251 H 914.966 -1.94194 -2.2788 0
M  V30 10252 H 912.512 -0.935094 -1.09508 0
M  V30 10253 H 914.465 -0.432254 -4.19177 0
M  V30 10254 H 913.189 0.372308 -3.24471 0
M  V30 10255 H 911.848 -1.76001 -3.21589 0
M  V30 10256 H 911.496 -0.0742225 -5.02945 0
M  V30 10257 H 911.196 -1.72949 -5.61571 0
M  V30 10258 H 912.72 -0.898922 -6.03947 0
M  V30 10259 H 914.134 -2.89207 -4.95007 0
M  V30 10260 H 912.531 -3.65916 -4.75631 0
M  V30 10261 H 913.601 -3.50456 -3.35125 0
M  V30 10262 N 914.944 1.19125 -1.03184 0
M  V30 10263 C 916.221 1.84674 -0.644574 0
M  V30 10264 C 916.601 1.92042 0.876534 0
M  V30 10265 O 915.949 1.43965 1.77444 0
M  V30 10266 C 916.159 3.23477 -1.3101 0
M  V30 10267 C 917.507 3.99608 -1.43524 0
M  V30 10268 O 918.531 3.32886 -1.2675 0
M  V30 10269 O 917.39 5.19132 -1.70776 0
M  V30 10270 H 914.484 0.795968 -0.22442 0
M  V30 10271 H 917.03 1.2659 -1.13018 0
M  V30 10272 H 915.802 3.12967 -2.34878 0
M  V30 10273 H 915.425 3.89209 -0.812547 0
M  V30 10274 N 916.422 0.810101 1.35185 0
M  V30 10275 C 917.669 0.392117 1.98667 0
M  V30 10276 C 917.997 -1.0416 1.64259 0
M  V30 10277 O 917.252 -1.73795 0.899647 0
M  V30 10278 C 917.551 0.526561 3.535 0
M  V30 10279 C 917.217 1.92411 4.07785 0
M  V30 10280 C 915.879 2.30644 4.22323 0
M  V30 10281 C 918.231 2.83827 4.37141 0
M  V30 10282 C 915.559 3.59655 4.63536 0
M  V30 10283 C 917.911 4.12287 4.79794 0
M  V30 10284 C 916.575 4.50515 4.92536 0
M  V30 10285 H 915.845 0.143486 0.726975 0
M  V30 10286 H 918.492 1.03157 1.61341 0
M  V30 10287 H 916.797 -0.19633 3.91308 0
M  V30 10288 H 918.494 0.183871 4.00578 0
M  V30 10289 H 915.084 1.61707 3.96924 0
M  V30 10290 H 919.268 2.55536 4.25459 0
M  V30 10291 H 914.524 3.89117 4.71591 0
M  V30 10292 H 918.698 4.83221 5.01468 0
M  V30 10293 H 916.325 5.50535 5.24229 0
M  V30 10294 N 917.9 -1.47166 0.563914 0
M  V30 10295 C 919.125 -2.0735 0.0454698 0
M  V30 10296 C 919.55 -1.41281 -1.24182 0
M  V30 10297 O 918.908 -0.490084 -1.7455 0
M  V30 10298 C 918.956 -3.60378 -0.126453 0
M  V30 10299 O 918.06 -3.94934 -1.18746 0
M  V30 10300 H 917.401 -0.661773 0.0543377 0
M  V30 10301 H 919.931 -1.89086 0.781508 0
M  V30 10302 H 919.941 -4.06593 -0.338554 0
M  V30 10303 H 918.616 -4.07862 0.81373 0
M  V30 10304 H 917.193 -3.60455 -0.955318 0
M  V30 10305 N 919.378 -0.300708 -1.54705 0
M  V30 10306 C 920.627 0.309428 -1.99312 0
M  V30 10307 C 920.94 1.55027 -1.19272 0
M  V30 10308 O 922.146 2.23498 -1.54146 0
M  V30 10309 C 920.602 0.601856 -3.54832 0
M  V30 10310 C 920.21 -0.620636 -4.4368 0
M  V30 10311 C 921.954 1.1732 -4.07966 0
M  V30 10312 C 919.861 -0.301376 -5.90632 0
M  V30 10313 H 918.791 0.119395 -0.744487 0
M  V30 10314 H 921.442 -0.409368 -1.78875 0
M  V30 10315 H 919.824 1.38024 -3.71168 0
M  V30 10316 H 920.998 -1.39685 -4.39118 0
M  V30 10317 H 919.313 -1.1106 -4.01316 0
M  V30 10318 H 921.91 1.42631 -5.15326 0
M  V30 10319 H 922.253 2.11537 -3.5855 0
M  V30 10320 H 922.786 0.456534 -3.95172 0
M  V30 10321 H 919.525 -1.21209 -6.44196 0
M  V30 10322 H 919.045 0.437574 -5.98202 0
M  V30 10323 H 920.724 0.097164 -6.46927 0
M  V30 10324 N 920.856 1.57574 -0.0284266 0
M  V30 10325 C 922.267 1.79585 0.510502 0
M  V30 10326 C 922.618 0.938625 1.72291 0
M  V30 10327 O 921.743 0.14884 2.15888 0
M  V30 10328 C 922.338 3.25703 0.932912 0
M  V30 10329 C 920.897 3.48711 1.41696 0
M  V30 10330 C 920.044 2.74665 0.381356 0
M  V30 10331 H 922.995 1.56647 -0.254464 0
M  V30 10332 H 923.016 3.35376 1.79731 0
M  V30 10333 H 922.528 3.88067 0.0503036 0
M  V30 10334 H 920.629 2.91597 2.31952 0
M  V30 10335 H 920.742 4.57423 1.42481 0
M  V30 10336 H 919.106 2.40123 0.8493 0
M  V30 10337 H 919.889 3.39745 -0.492775 0
M  V30 10338 N 922.334 -0.244713 1.55689 0
M  V30 10339 C 923.267 -1.32946 1.85474 0
M  V30 10340 C 924.245 -1.46279 0.710021 0
M  V30 10341 O 925.429 -1.62459 0.956004 0
M  V30 10342 C 922.556 -2.7027 2.04137 0
M  V30 10343 C 921.602 -2.74075 3.2678 0
M  V30 10344 S 922.435 -2.30465 4.8337 0
M  V30 10345 C 923.591 -3.69709 5.05041 0
M  V30 10346 H 923.824 -1.07482 2.77191 0
M  V30 10347 H 921.357 -0.445807 1.47824 0
M  V30 10348 H 923.315 -3.4934 2.15574 0
M  V30 10349 H 921.976 -2.9297 1.13259 0
M  V30 10350 H 921.169 -3.74932 3.36812 0
M  V30 10351 H 920.771 -2.03051 3.1408 0
M  V30 10352 H 923.063 -4.65222 4.92518 0
M  V30 10353 H 924.006 -3.6461 6.07014 0
M  V30 10354 H 924.414 -3.62323 4.32877 0
M  V30 10355 N 923.813 -1.49104 -0.510467 0
M  V30 10356 C 924.761 -1.65547 -1.63392 0
M  V30 10357 C 925.755 -0.521522 -1.61172 0
M  V30 10358 O 926.961 -0.700865 -1.65795 0
M  V30 10359 H 923.336 -0.521843 -0.541464 0
M  V30 10360 H 925.307 -2.59864 -1.46673 0
M  V30 10361 C 924.056 -1.73051 -3.01577 0
M  V30 10362 H 923.379 -2.59676 -3.03987 0
M  V30 10363 H 924.819 -1.88594 -3.79748 0
M  V30 10364 C 923.278 -0.47328 -3.33559 0
M  V30 10365 O 923.808 0.405239 -3.99651 0
M  V30 10366 N 922.014 -0.339074 -2.88615 0
M  V30 10367 H 921.561 -1.05497 -2.35007 0
M  V30 10368 H 921.519 0.501061 -3.10382 0
M  V30 10369 N 925.291 0.760815 -1.38019 0
M  V30 10370 C 926.538 1.51973 -1.3383 0
M  V30 10371 C 926.866 1.9436 0.0738855 0
M  V30 10372 O 926.121 1.65181 1.04946 0
M  V30 10373 C 926.42 2.79024 -2.23339 0
M  V30 10374 C 926.086 2.55636 -3.71431 0
M  V30 10375 C 924.748 2.48966 -4.11788 0
M  V30 10376 C 927.1 2.35018 -4.65205 0
M  V30 10377 C 924.428 2.19684 -5.44018 0
M  V30 10378 C 926.78 2.07258 -5.97685 0
M  V30 10379 C 925.444 1.9904 -6.37134 0
M  V30 10380 H 924.714 0.556108 -0.489719 0
M  V30 10381 H 927.361 0.87545 -1.70318 0
M  V30 10382 H 925.666 3.48065 -1.79883 0
M  V30 10383 H 927.363 3.36951 -2.17405 0
M  V30 10384 H 923.953 2.61695 -3.39432 0
M  V30 10385 H 928.137 2.39154 -4.34878 0
M  V30 10386 H 923.393 2.11825 -5.73533 0
M  V30 10387 H 927.567 1.90307 -6.69893 0
M  V30 10388 H 925.194 1.76115 -7.39519 0
M  V30 10389 N 926.769 1.22769 0.988202 0
M  V30 10390 C 928.016 1.05509 1.72841 0
M  V30 10391 C 928.344 -0.409145 1.90148 0
M  V30 10392 O 927.599 -1.3195 1.44526 0
M  V30 10393 C 927.898 1.71679 3.13466 0
M  V30 10394 C 927.564 3.21584 3.16061 0
M  V30 10395 C 926.226 3.62486 3.16476 0
M  V30 10396 C 928.578 4.17511 3.11984 0
M  V30 10397 C 925.906 4.97789 3.10521 0
M  V30 10398 C 928.258 5.52796 3.0757 0
M  V30 10399 C 926.922 5.93072 3.06304 0
M  V30 10400 H 926.192 0.386085 0.632471 0
M  V30 10401 H 928.839 1.52596 1.157 0
M  V30 10402 H 927.144 1.1693 3.73945 0
M  V30 10403 H 928.841 1.55809 3.69492 0
M  V30 10404 H 925.431 2.89019 3.1649 0
M  V30 10405 H 929.615 3.86926 3.10809 0
M  V30 10406 H 924.871 5.28218 3.07888 0
M  V30 10407 H 929.045 6.26848 3.03372 0
M  V30 10408 H 926.672 6.97879 3.01444 0
M  V30 10409 N 928.247 -1.18576 1.03814 0
M  V30 10410 C 929.195 -2.24166 0.620678 0
M  V30 10411 C 930.189 -1.65718 -0.351282 0
M  V30 10412 O 931.395 -1.78665 -0.218848 0
M  V30 10413 H 927.77 -0.729522 0.182487 0
M  V30 10414 H 929.741 -2.56686 1.52166 0
M  V30 10415 C 928.49 -3.477 -0.00307331 0
M  V30 10416 H 927.813 -3.92969 0.735874 0
M  V30 10417 H 929.253 -4.23214 -0.257988 0
M  V30 10418 C 927.712 -3.12757 -1.2524 0
M  V30 10419 O 928.242 -3.26261 -2.34344 0
M  V30 10420 N 926.448 -2.67104 -1.14471 0
M  V30 10421 H 925.995 -2.56316 -0.256873 0
M  V30 10422 H 925.953 -2.44096 -1.98153 0
M  V30 10423 N 929.725 -0.817259 -1.34754 0
M  V30 10424 C 930.675 -0.207585 -2.27053 0
M  V30 10425 C 931.659 0.624836 -1.48272 0
M  V30 10426 O 932.851 0.480344 -1.70358 0
M  V30 10427 C 929.98 0.634281 -3.3739 0
M  V30 10428 C 929.066 -0.208456 -4.23587 0
M  V30 10429 N 929.457 -1.2767 -4.89422 0
M  V30 10430 C 927.755 0.00815096 -4.45999 0
M  V30 10431 C 928.456 -1.79209 -5.53407 0
M  V30 10432 N 927.432 -1.09686 -5.32419 0
M  V30 10433 H 931.234 -1.0248 -2.75454 0
M  V30 10434 H 928.748 -0.659492 -1.48406 0
M  V30 10435 H 930.745 1.08718 -4.02475 0
M  V30 10436 H 929.405 1.44972 -2.90539 0
M  V30 10437 H 930.416 -1.65945 -4.90594 0
M  V30 10438 H 927.093 0.791879 -4.09921 0
M  V30 10439 H 928.483 -2.68548 -6.15899 0
M  V30 10440 N 931.203 1.46865 -0.571711 0
M  V30 10441 C 932.15 2.30189 0.167808 0
M  V30 10442 C 933.12 1.3995 0.89461 0
M  V30 10443 O 934.305 1.68905 0.887451 0
M  V30 10444 C 931.445 3.24205 1.1826 0
M  V30 10445 C 930.558 4.2954 0.460376 0
M  V30 10446 C 929.693 5.10693 1.46173 0
M  V30 10447 C 928.732 6.07788 0.725291 0
M  V30 10448 N 927.869 6.81847 1.67417 0
M  V30 10449 H 932.709 2.92902 -0.548831 0
M  V30 10450 H 930.246 1.44362 -0.282474 0
M  V30 10451 H 932.204 3.77147 1.7837 0
M  V30 10452 H 930.834 2.63324 1.86709 0
M  V30 10453 H 929.886 3.79541 -0.255546 0
M  V30 10454 H 931.198 4.98665 -0.115855 0
M  V30 10455 H 930.352 5.67857 2.13595 0
M  V30 10456 H 929.091 4.41502 2.07188 0
M  V30 10457 H 928.096 5.49787 0.037228 0
M  V30 10458 H 929.321 6.78993 0.120678 0
M  V30 10459 H 927.267 6.15376 2.27263 0
M  V30 10460 H 927.184 7.47195 1.15046 0
M  V30 10461 H 928.452 7.43577 2.33908 0
M  V30 10462 N 932.681 0.308908 1.54543 0
M  V30 10463 C 933.629 -0.579326 2.2527 0
M  V30 10464 C 934.623 -1.13058 1.26152 0
M  V30 10465 O 935.829 -1.08031 1.43977 0
M  V30 10466 H 932.204 -0.205444 0.723392 0
M  V30 10467 H 934.175 0.0396415 2.98374 0
M  V30 10468 C 932.924 -1.73584 3.01271 0
M  V30 10469 H 932.247 -1.32089 3.77349 0
M  V30 10470 H 933.687 -2.33324 3.54028 0
M  V30 10471 C 932.146 -2.6447 2.08703 0
M  V30 10472 O 932.676 -3.65785 1.66025 0
M  V30 10473 N 930.882 -2.32379 1.74495 0
M  V30 10474 H 930.429 -1.50034 2.09398 0
M  V30 10475 H 930.387 -2.93454 1.12836 0
M  V30 10476 N 934.159 -1.57557 0.0367827 0
M  V30 10477 C 935.407 -1.91735 -0.63892 0
M  V30 10478 C 935.728 -0.914515 -1.72226 0
M  V30 10479 O 934.998 0.0428248 -1.95853 0
M  V30 10480 H 933.578 -0.707738 -0.23899 0
M  V30 10481 H 936.24 -1.94708 0.0863931 0
M  V30 10482 H 935.336 -2.92568 -1.08676 0
M  V30 10483 N 935.637 0.236453 -1.55816 0
M  V30 10484 C 936.867 0.978873 -1.81939 0
M  V30 10485 C 937.275 1.79041 -0.611647 0
M  V30 10486 O 936.618 1.78616 0.429172 0
M  V30 10487 C 936.68 1.9569 -3.01572 0
M  V30 10488 C 936.344 1.33131 -4.37178 0
M  V30 10489 C 937.341 0.728585 -5.1477 0
M  V30 10490 C 935.026 1.34755 -4.83887 0
M  V30 10491 C 937.02 0.150427 -6.37222 0
M  V30 10492 C 934.707 0.765539 -6.06286 0
M  V30 10493 C 935.705 0.168017 -6.82793 0
M  V30 10494 O 935.393 -0.404976 -8.02879 0
M  V30 10495 H 935.125 0.293186 -0.609113 0
M  V30 10496 H 937.679 0.261384 -2.0373 0
M  V30 10497 H 935.909 2.71298 -2.75562 0
M  V30 10498 H 937.598 2.56362 -3.14695 0
M  V30 10499 H 938.364 0.708477 -4.79797 0
M  V30 10500 H 934.243 1.80202 -4.24321 0
M  V30 10501 H 937.787 -0.316586 -6.96881 0
M  V30 10502 H 933.684 0.78301 -6.40733 0
M  V30 10503 H 934.452 -0.29785 -8.17958 0
M  V30 10504 N 937.115 1.49373 0.502552 0
M  V30 10505 C 938.065 1.62321 1.60112 0
M  V30 10506 C 939.049 0.47895 1.53606 0
M  V30 10507 O 940.241 0.731824 1.61162 0
M  V30 10508 C 937.37 1.69162 2.98729 0
M  V30 10509 C 936.456 2.89161 3.10237 0
M  V30 10510 N 936.847 4.13256 2.91638 0
M  V30 10511 C 935.145 2.87065 3.41335 0
M  V30 10512 C 935.846 4.93913 3.07287 0
M  V30 10513 N 934.822 4.27249 3.36094 0
M  V30 10514 H 938.624 2.55989 1.44384 0
M  V30 10515 H 936.138 1.46123 0.708644 0
M  V30 10516 H 938.135 1.76536 3.77678 0
M  V30 10517 H 936.795 0.766301 3.15528 0
M  V30 10518 H 937.806 4.4326 2.67844 0
M  V30 10519 H 934.483 2.03905 3.6432 0
M  V30 10520 H 935.873 6.02491 2.97413 0
M  V30 10521 N 938.594 -0.753485 1.38421 0
M  V30 10522 C 939.84 -1.51485 1.34834 0
M  V30 10523 C 940.173 -1.94102 -0.0615381 0
M  V30 10524 O 939.448 -1.65439 -1.02274 0
M  V30 10525 C 939.731 -2.76736 2.30411 0
M  V30 10526 C 939.584 -2.40256 3.80259 0
M  V30 10527 C 940.903 -3.7876 2.24119 0
M  V30 10528 H 938.022 -0.549534 0.491102 0
M  V30 10529 H 940.664 -0.863006 1.6927 0
M  V30 10530 H 938.814 -3.32357 2.01175 0
M  V30 10531 H 940.486 -1.90409 4.20169 0
M  V30 10532 H 938.729 -1.72714 3.97935 0
M  V30 10533 H 939.4 -3.29869 4.42595 0
M  V30 10534 H 941.876 -3.32679 2.49928 0
M  V30 10535 H 940.752 -4.64092 2.93104 0
M  V30 10536 H 941.013 -4.24352 1.24006 0
M  V30 10537 N 940.072 -1.23292 -0.981677 0
M  V30 10538 C 941.005 -0.956198 -2.07201 0
M  V30 10539 C 941.983 0.105027 -1.6226 0
M  V30 10540 O 943.167 -0.0289582 -1.88478 0
M  V30 10541 C 940.294 -0.44029 -3.35826 0
M  V30 10542 C 939.34 -1.48792 -3.99704 0
M  V30 10543 S 940.173 -3.06491 -4.39117 0
M  V30 10544 C 941.329 -2.56567 -5.70898 0
M  V30 10545 H 941.562 -1.87947 -2.30355 0
M  V30 10546 H 939.095 -1.06522 -1.1177 0
M  V30 10547 H 941.053 -0.149237 -4.10229 0
M  V30 10548 H 939.714 0.462045 -3.10683 0
M  V30 10549 H 938.907 -1.07706 -4.92357 0
M  V30 10550 H 938.509 -1.72826 -3.31673 0
M  V30 10551 H 940.801 -1.98508 -6.47766 0
M  V30 10552 H 941.744 -3.47755 -6.16824 0
M  V30 10553 H 942.152 -1.97465 -5.28836 0
M  V30 10554 N 941.55 1.18024 -1.04442 0
M  V30 10555 C 942.498 2.23834 -0.632557 0
M  V30 10556 C 943.492 1.65902 0.342488 0
M  V30 10557 O 944.698 1.78778 0.20937 0
M  V30 10558 H 941.073 0.728544 -0.186353 0
M  V30 10559 H 943.044 2.55876 -1.53526 0
M  V30 10560 C 941.793 3.47697 -0.0153661 0
M  V30 10561 H 941.116 3.92574 -0.756704 0
M  V30 10562 H 942.556 4.23345 0.235541 0
M  V30 10563 C 941.015 3.13416 1.23579 0
M  V30 10564 O 941.545 3.27499 2.3261 0
M  V30 10565 N 939.751 2.67708 1.13053 0
M  V30 10566 H 939.298 2.56449 0.243277 0
M  V30 10567 H 939.256 2.45143 1.96855 0
M  V30 10568 N 943.028 0.824394 1.34319 0
M  V30 10569 C 944.305 0.335692 1.92698 0
M  V30 10570 C 944.685 -1.17715 1.75232 0
M  V30 10571 O 944.033 -1.98493 1.13194 0
M  V30 10572 C 944.243 0.766647 3.40475 0
M  V30 10573 C 945.591 0.766323 4.17627 0
M  V30 10574 O 946.615 0.709321 3.49066 0
M  V30 10575 O 945.474 0.840856 5.39992 0
M  V30 10576 H 942.568 0.0919996 0.821867 0
M  V30 10577 H 945.114 0.909282 1.43283 0
M  V30 10578 H 943.886 1.80859 3.46995 0
M  V30 10579 H 943.509 0.168833 3.97241 0
M  V30 10580 N 944.506 -1.46559 0.579492 0
M  V30 10581 C 945.783 -1.956 -0.00287136 0
M  V30 10582 C 946.163 -1.52215 -1.46266 0
M  V30 10583 O 945.511 -0.771335 -2.15088 0
M  V30 10584 C 945.721 -3.48606 0.165824 0
M  V30 10585 C 947.069 -4.24588 0.0319807 0
M  V30 10586 O 948.093 -3.56075 0.094496 0
M  V30 10587 O 946.952 -5.46396 -0.106386 0
M  V30 10588 H 944.046 -0.825387 -0.0516274 0
M  V30 10589 H 946.592 -1.56858 0.647584 0
M  V30 10590 H 945.364 -3.7306 1.18076 0
M  V30 10591 H 944.987 -3.94169 -0.521212 0
M  V30 10592 N 945.984 -0.3171 -1.54377 0
M  V30 10593 C 946.931 0.551782 -2.24107 0
M  V30 10594 C 947.901 1.11681 -1.22949 0
M  V30 10595 O 949.086 1.15836 -1.51614 0
M  V30 10596 C 946.226 1.70997 -2.99756 0
M  V30 10597 C 945.339 1.17479 -4.15719 0
M  V30 10598 C 944.474 2.29815 -4.78914 0
M  V30 10599 C 943.513 1.73513 -5.86992 0
M  V30 10600 N 942.65 2.79485 -6.44075 0
M  V30 10601 H 947.49 -0.049431 -2.97959 0
M  V30 10602 H 945.027 -0.0361658 -1.47056 0
M  V30 10603 H 946.985 2.39141 -3.41859 0
M  V30 10604 H 945.615 2.28257 -2.28251 0
M  V30 10605 H 944.667 0.385109 -3.78446 0
M  V30 10606 H 945.979 0.72276 -4.93536 0
M  V30 10607 H 945.133 3.05875 -5.23952 0
M  V30 10608 H 943.872 2.78352 -4.00464 0
M  V30 10609 H 942.877 0.959475 -5.41363 0
M  V30 10610 H 944.102 1.2586 -6.67335 0
M  V30 10611 H 942.048 3.27325 -5.68502 0
M  V30 10612 H 941.965 2.38825 -7.17286 0
M  V30 10613 H 943.233 3.55394 -6.93769 0
M  V30 10614 N 947.462 1.57535 -0.0451378 0
M  V30 10615 C 948.392 2.14208 0.929372 0
M  V30 10616 C 949.373 1.06221 1.32858 0
M  V30 10617 O 950.558 1.34132 1.40436 0
M  V30 10618 C 947.688 2.68217 2.20629 0
M  V30 10619 C 946.642 3.81134 1.94734 0
M  V30 10620 C 945.968 4.21636 3.28828 0
M  V30 10621 C 947.268 5.06531 1.27374 0
M  V30 10622 H 948.962 2.95886 0.457348 0
M  V30 10623 H 946.508 1.42332 0.218544 0
M  V30 10624 H 948.461 3.06502 2.89196 0
M  V30 10625 H 947.185 1.83722 2.70026 0
M  V30 10626 H 945.844 3.43312 1.28579 0
M  V30 10627 H 945.492 3.34099 3.76014 0
M  V30 10628 H 945.192 4.97736 3.12302 0
M  V30 10629 H 946.716 4.62516 3.98637 0
M  V30 10630 H 948.13 5.423 1.85967 0
M  V30 10631 H 946.527 5.87735 1.21194 0
M  V30 10632 H 947.597 4.84261 0.248913 0
M  V30 10633 N 948.94 -0.228186 1.55939 0
M  V30 10634 C 949.887 -1.28274 1.91871 0
M  V30 10635 C 950.857 -1.46906 0.775103 0
M  V30 10636 O 952.042 -1.60583 1.03042 0
M  V30 10637 C 949.182 -2.62945 2.23504 0
M  V30 10638 C 948.295 -2.52166 3.50766 0
M  V30 10639 C 947.43 -3.79316 3.71878 0
M  V30 10640 C 946.469 -3.63231 4.92676 0
M  V30 10641 N 945.606 -4.82315 5.10212 0
M  V30 10642 H 950.446 -0.96931 2.81795 0
M  V30 10643 H 947.983 -0.467331 1.39479 0
M  V30 10644 H 949.941 -3.41359 2.39854 0
M  V30 10645 H 948.571 -2.92397 1.36762 0
M  V30 10646 H 947.623 -1.65221 3.42646 0
M  V30 10647 H 948.935 -2.36199 4.39331 0
M  V30 10648 H 948.089 -4.66173 3.88288 0
M  V30 10649 H 946.828 -3.982 2.81581 0
M  V30 10650 H 945.833 -2.74757 4.76223 0
M  V30 10651 H 947.058 -3.45823 5.84451 0
M  V30 10652 H 945.004 -5.01526 4.22856 0
M  V30 10653 H 944.921 -4.6905 5.92898 0
M  V30 10654 H 946.189 -5.70618 5.31051 0
M  V30 10655 N 950.418 -1.49637 -0.494624 0
M  V30 10656 C 951.348 -1.69692 -1.60396 0
M  V30 10657 C 952.329 -0.545648 -1.61111 0
M  V30 10658 O 953.514 -0.782202 -1.77751 0
M  V30 10659 C 950.644 -1.76934 -2.9885 0
M  V30 10660 C 949.598 -2.91915 -3.13001 0
M  V30 10661 C 948.924 -2.84276 -4.5287 0
M  V30 10662 C 950.224 -4.32764 -2.92426 0
M  V30 10663 H 951.918 -2.6257 -1.43866 0
M  V30 10664 H 949.464 -1.26355 -0.690679 0
M  V30 10665 H 951.417 -1.8955 -3.76362 0
M  V30 10666 H 950.141 -0.806609 -3.16483 0
M  V30 10667 H 948.8 -2.78911 -2.37916 0
M  V30 10668 H 948.448 -1.85897 -4.67388 0
M  V30 10669 H 948.148 -3.61452 -4.63278 0
M  V30 10670 H 949.672 -2.98909 -5.32434 0
M  V30 10671 H 951.086 -4.46415 -3.59703 0
M  V30 10672 H 949.483 -5.1121 -3.143 0
M  V30 10673 H 950.553 -4.46765 -1.88491 0
M  V30 10674 N 951.896 0.746133 -1.38819 0
M  V30 10675 C 952.826 1.87344 -1.39372 0
M  V30 10676 C 953.807 1.68123 -0.258583 0
M  V30 10677 O 954.992 1.88606 -0.462769 0
M  V30 10678 C 952.122 3.24962 -1.22543 0
M  V30 10679 C 951.076 3.58799 -2.33339 0
M  V30 10680 C 950.402 4.95235 -2.01609 0
M  V30 10681 C 951.702 3.62911 -3.75624 0
M  V30 10682 H 953.396 1.87138 -2.33709 0
M  V30 10683 H 950.942 0.898937 -1.12495 0
M  V30 10684 H 952.895 4.03488 -1.21554 0
M  V30 10685 H 951.619 3.25667 -0.246707 0
M  V30 10686 H 950.278 2.82596 -2.33527 0
M  V30 10687 H 949.926 4.92508 -1.02202 0
M  V30 10688 H 949.626 5.18843 -2.75819 0
M  V30 10689 H 951.15 5.76131 -2.02251 0
M  V30 10690 H 952.564 4.31535 -3.77426 0
M  V30 10691 H 950.961 3.98031 -4.491 0
M  V30 10692 H 952.031 2.62967 -4.07402 0
M  V30 10693 N 953.375 1.23811 0.975125 0
M  V30 10694 C 954.603 1.10019 1.75224 0
M  V30 10695 C 955.018 -0.34791 1.85567 0
M  V30 10696 O 954.375 -1.24043 1.33864 0
M  V30 10697 C 954.426 1.72572 3.1765 0
M  V30 10698 O 954.147 3.11719 3.07836 0
M  V30 10699 C 955.648 1.64292 4.11732 0
M  V30 10700 H 952.868 0.38476 0.549728 0
M  V30 10701 H 955.412 1.63768 1.22476 0
M  V30 10702 H 953.567 1.22843 3.67408 0
M  V30 10703 H 953.981 3.42152 3.97533 0
M  V30 10704 H 955.455 2.12754 5.09352 0
M  V30 10705 H 955.932 0.602722 4.35045 0
M  V30 10706 H 956.538 2.13411 3.6788 0
M  V30 10707 N 954.853 -1.17469 1.05066 0
M  V30 10708 C 956.078 -1.92162 0.780298 0
M  V30 10709 C 956.503 -1.76222 -0.657832 0
M  V30 10710 O 955.861 -1.0791 -1.45688 0
M  V30 10711 C 955.909 -3.41292 1.16414 0
M  V30 10712 O 955.013 -4.1134 0.295531 0
M  V30 10713 H 954.354 -0.599127 0.286257 0
M  V30 10714 H 956.884 -1.48903 1.40318 0
M  V30 10715 H 956.894 -3.92029 1.13036 0
M  V30 10716 H 955.569 -3.52214 2.21175 0
M  V30 10717 H 954.146 -3.70857 0.389797 0
M  V30 10718 N 956.331 -0.831506 -1.3388 0
M  V30 10719 C 957.561 -0.436292 -2.01941 0
M  V30 10720 C 957.969 0.964979 -1.62741 0
M  V30 10721 O 957.312 1.63733 -0.832894 0
M  V30 10722 C 957.374 -0.468811 -3.5643 0
M  V30 10723 C 957.038 -1.82491 -4.18982 0
M  V30 10724 C 958.035 -2.78705 -4.38885 0
M  V30 10725 C 955.72 -2.11574 -4.55568 0
M  V30 10726 C 957.714 -4.02168 -4.94509 0
M  V30 10727 C 955.401 -3.35296 -5.10901 0
M  V30 10728 C 956.399 -4.3041 -5.30317 0
M  V30 10729 O 956.087 -5.51944 -5.84477 0
M  V30 10730 H 955.819 -0.172335 -0.653664 0
M  V30 10731 H 958.373 -1.12354 -1.71947 0
M  V30 10732 H 956.603 0.275179 -3.8572 0
M  V30 10733 H 958.292 -0.0924518 -4.05795 0
M  V30 10734 H 959.058 -2.57534 -4.10976 0
M  V30 10735 H 954.937 -1.38338 -4.39754 0
M  V30 10736 H 958.481 -4.76418 -5.09579 0
M  V30 10737 H 954.378 -3.56326 -5.3824 0
M  V30 10738 H 955.146 -5.53582 -6.029 0
M  V30 10739 N 957.809 1.4625 -0.587256 0
M  V30 10740 C 958.719 2.34147 0.145744 0
M  V30 10741 C 959.735 1.50026 0.881376 0
M  V30 10742 O 960.911 1.82884 0.843539 0
M  V30 10743 C 957.976 3.27294 1.14366 0
M  V30 10744 C 957.037 4.27317 0.412199 0
M  V30 10745 C 956.27 5.16013 1.36257 0
M  V30 10746 O 956.493 5.0773 2.59934 0
M  V30 10747 O 955.427 5.95569 0.870681 0
M  V30 10748 H 959.253 2.98187 -0.576055 0
M  V30 10749 H 956.838 1.45299 -0.347628 0
M  V30 10750 H 958.72 3.84747 1.71894 0
M  V30 10751 H 957.395 2.65845 1.84684 0
M  V30 10752 H 956.302 3.73538 -0.205036 0
M  V30 10753 H 957.635 4.91564 -0.250104 0
M  V30 10754 N 959.287 0.325282 1.54207 0
M  V30 10755 C 960.517 -0.278285 2.04717 0
M  V30 10756 C 960.925 -1.46198 1.20095 0
M  V30 10757 O 960.268 -1.82319 0.224813 0
M  V30 10758 C 960.33 -0.774387 3.51061 0
M  V30 10759 C 959.994 0.287225 4.56096 0
M  V30 10760 C 960.991 1.12388 5.07607 0
M  V30 10761 C 958.676 0.435908 5.00405 0
M  V30 10762 C 960.67 2.09492 6.0199 0
M  V30 10763 C 958.357 1.41037 5.94602 0
M  V30 10764 C 959.355 2.23834 6.45281 0
M  V30 10765 O 959.043 3.19625 7.37628 0
M  V30 10766 H 958.775 -0.0608309 0.673257 0
M  V30 10767 H 961.329 0.470049 1.99949 0
M  V30 10768 H 959.559 -1.57366 3.53232 0
M  V30 10769 H 961.248 -1.29649 3.84637 0
M  V30 10770 H 962.014 1.02 4.74153 0
M  V30 10771 H 957.893 -0.198668 4.60572 0
M  V30 10772 H 961.437 2.74157 6.4147 0
M  V30 10773 H 957.334 1.51487 6.27473 0
M  V30 10774 H 958.102 3.14884 7.55507 0
M  V30 10775 N 960.765 -1.57509 0.0534917 0
M  V30 10776 C 962.014 -1.91959 -0.619244 0
M  V30 10777 C 962.327 -0.933882 -1.71866 0
M  V30 10778 O 963.533 -1.17052 -2.44972 0
M  V30 10779 C 961.989 -3.40938 -1.15278 0
M  V30 10780 C 961.597 -4.47919 -0.085348 0
M  V30 10781 C 963.341 -3.84419 -1.80063 0
M  V30 10782 C 961.248 -5.88014 -0.631897 0
M  V30 10783 H 960.178 -0.71642 -0.235072 0
M  V30 10784 H 962.829 -1.83089 0.122758 0
M  V30 10785 H 961.211 -3.44821 -1.94717 0
M  V30 10786 H 962.385 -4.55629 0.688374 0
M  V30 10787 H 960.7 -4.13793 0.465178 0
M  V30 10788 H 963.297 -4.86457 -2.21954 0
M  V30 10789 H 963.64 -3.20791 -2.65328 0
M  V30 10790 H 964.173 -3.83062 -1.07275 0
M  V30 10791 H 960.912 -6.55244 0.183175 0
M  V30 10792 H 960.432 -5.83861 -1.37355 0
M  V30 10793 H 962.111 -6.37336 -1.11407 0
M  V30 10794 N 962.243 0.219913 -1.56058 0
M  V30 10795 C 963.52 0.968493 -1.6994 0
M  V30 10796 C 963.9 2.02358 -0.601219 0
M  V30 10797 O 963.248 2.25121 0.391534 0
M  V30 10798 C 963.458 1.57745 -3.11316 0
M  V30 10799 C 964.806 2.06908 -3.70775 0
M  V30 10800 O 965.83 1.67636 -3.14288 0
M  V30 10801 O 964.689 2.79096 -4.69859 0
M  V30 10802 H 961.783 0.452521 -0.692209 0
M  V30 10803 H 964.329 0.211566 -1.68376 0
M  V30 10804 H 963.101 0.815687 -3.82704 0
M  V30 10805 H 962.724 2.39987 -3.17005 0
M  V30 10806 N 963.721 1.49897 0.486681 0
M  V30 10807 C 964.946 1.64106 1.26823 0
M  V30 10808 C 965.371 0.317967 1.85393 0
M  V30 10809 O 964.729 -0.71626 1.66551 0
M  V30 10810 C 964.777 2.72301 2.36399 0
M  V30 10811 O 963.881 2.32469 3.40634 0
M  V30 10812 H 963.222 0.548794 0.373793 0
M  V30 10813 H 965.752 1.96177 0.581017 0
M  V30 10814 H 965.762 2.94906 2.81948 0
M  V30 10815 H 964.437 3.68335 1.93137 0
M  V30 10816 H 963.014 2.20251 3.00905 0
M  V30 10817 N 965.199 -0.738761 1.39212 0
M  V30 10818 C 966.448 -1.49368 1.35543 0
M  V30 10819 C 966.761 -1.95543 -0.0471091 0
M  V30 10820 O 967.967 -2.70714 -0.206376 0
M  V30 10821 C 966.423 -2.69882 2.381 0
M  V30 10822 C 966.031 -2.30672 3.8405 0
M  V30 10823 C 967.775 -3.47718 2.435 0
M  V30 10824 C 965.682 -3.47886 4.78256 0
M  V30 10825 H 964.612 -0.560898 0.503894 0
M  V30 10826 H 967.263 -0.806221 1.6484 0
M  V30 10827 H 965.645 -3.40684 2.01867 0
M  V30 10828 H 966.819 -1.67441 4.29302 0
M  V30 10829 H 965.134 -1.65936 3.81909 0
M  V30 10830 H 967.731 -4.34897 3.11077 0
M  V30 10831 H 968.074 -3.89919 1.45838 0
M  V30 10832 H 968.607 -2.83942 2.78606 0
M  V30 10833 H 965.346 -3.10739 5.77167 0
M  V30 10834 H 964.866 -4.10111 4.37686 0
M  V30 10835 H 966.545 -4.14271 4.96979 0
M  V30 10836 N 966.677 -1.24326 -0.968545 0
M  V30 10837 C 967.64 -1.03591 -2.04454 0
M  V30 10838 C 968.64 0.0064809 -1.60799 0
M  V30 10839 O 969.83 -0.234404 -1.72616 0
M  V30 10840 C 966.962 -0.56992 -3.36102 0
M  V30 10841 H 968.155 -1.99092 -2.24282 0
M  V30 10842 H 965.708 -1.06537 -1.14366 0
M  V30 10843 H 966.443 0.388325 -3.21967 0
M  V30 10844 H 966.228 -1.32227 -3.69132 0
M  V30 10845 H 967.718 -0.445854 -4.15213 0
M  V30 10846 N 968.156 1.1691 -1.05688 0
M  V30 10847 C 969.104 2.2315 -0.656262 0
M  V30 10848 C 970.098 1.66256 0.324873 0
M  V30 10849 O 971.304 1.7899 0.190397 0
M  V30 10850 H 967.679 0.726527 -0.19407 0
M  V30 10851 H 969.65 2.54233 -1.56231 0
M  V30 10852 C 968.399 3.47661 -0.0522431 0
M  V30 10853 H 967.722 3.91749 -0.798299 0
M  V30 10854 H 969.162 4.23571 0.190626 0
M  V30 10855 C 967.621 3.14709 1.20248 0
M  V30 10856 O 968.151 3.29947 2.29124 0
M  V30 10857 N 966.357 2.68892 1.10207 0
M  V30 10858 H 965.904 2.56692 0.216063 0
M  V30 10859 H 965.862 2.47218 1.94244 0
M  V30 10860 N 969.634 0.838594 1.33437 0
M  V30 10861 C 970.582 0.260158 2.31141 0
M  V30 10862 C 971.576 -0.607706 1.58124 0
M  V30 10863 O 972.782 -0.497298 1.72994 0
M  V30 10864 H 969.157 0.0654031 0.74915 0
M  V30 10865 H 971.128 1.09874 2.77435 0
M  V30 10866 C 969.877 -0.550234 3.43319 0
M  V30 10867 H 969.2 0.108262 3.99653 0
M  V30 10868 H 970.64 -0.920815 4.1388 0
M  V30 10869 C 969.099 -1.729 2.89149 0
M  V30 10870 O 969.629 -2.82769 2.85315 0
M  V30 10871 N 967.835 -1.5508 2.45761 0
M  V30 10872 H 967.382 -0.657055 2.49079 0
M  V30 10873 H 967.34 -2.34099 2.0987 0
M  V30 10874 N 971.112 -1.45937 0.595003 0
M  V30 10875 C 972.342 -2.06399 0.0911607 0
M  V30 10876 C 972.75 -1.44236 -1.22444 0
M  V30 10877 O 972.093 -0.546265 -1.7539 0
M  V30 10878 C 972.155 -3.59242 -0.136079 0
M  V30 10879 C 971.819 -4.43668 1.09579 0
M  V30 10880 C 972.816 -4.79437 2.01088 0
M  V30 10881 C 970.501 -4.84616 1.32109 0
M  V30 10882 C 972.495 -5.54995 3.13464 0
M  V30 10883 C 970.182 -5.5993 2.44788 0
M  V30 10884 C 971.18 -5.95035 3.35294 0
M  V30 10885 O 970.868 -6.68825 4.46014 0
M  V30 10886 H 970.6 -0.673316 0.0601779 0
M  V30 10887 H 973.154 -1.88365 0.819005 0
M  V30 10888 H 971.384 -3.75629 -0.918676 0
M  V30 10889 H 973.073 -4.0159 -0.589954 0
M  V30 10890 H 973.839 -4.48371 1.84902 0
M  V30 10891 H 969.718 -4.56735 0.625662 0
M  V30 10892 H 973.262 -5.82314 3.84131 0
M  V30 10893 H 969.159 -5.90411 2.60931 0
M  V30 10894 H 969.927 -6.87262 4.44537 0
M  V30 10895 N 972.59 -0.333456 -1.54032 0
M  V30 10896 C 973.837 0.266133 -2.00744 0
M  V30 10897 C 974.165 1.51361 -1.22148 0
M  V30 10898 O 973.42 1.93473 -0.294368 0
M  V30 10899 C 973.719 0.63565 -3.51702 0
M  V30 10900 C 973.385 -0.513786 -4.47963 0
M  V30 10901 C 972.047 -0.829253 -4.74001 0
M  V30 10902 C 974.399 -1.2854 -5.05101 0
M  V30 10903 C 971.727 -1.91888 -5.54433 0
M  V30 10904 C 974.079 -2.3652 -5.86721 0
M  V30 10905 C 972.743 -2.68637 -6.11057 0
M  V30 10906 H 972.013 0.097385 -0.734573 0
M  V30 10907 H 974.66 -0.459282 -1.85911 0
M  V30 10908 H 972.965 1.44163 -3.64313 0
M  V30 10909 H 974.662 1.11129 -3.85294 0
M  V30 10910 H 971.252 -0.25784 -4.27824 0
M  V30 10911 H 975.436 -1.05494 -4.84958 0
M  V30 10912 H 970.692 -2.17208 -5.71516 0
M  V30 10913 H 974.866 -2.96747 -6.30011 0
M  V30 10914 H 972.493 -3.53197 -6.73169 0
M  V30 10915 N 974.068 1.57479 -0.061844 0
M  V30 10916 C 975.315 1.93108 0.60954 0
M  V30 10917 C 975.643 0.941086 1.70217 0
M  V30 10918 O 974.898 -0.044914 1.95648 0
M  V30 10919 C 975.197 3.35394 1.23474 0
M  V30 10920 C 974.863 4.50095 0.269247 0
M  V30 10921 C 973.525 4.812 0.00360316 0
M  V30 10922 C 975.877 5.19725 -0.391839 0
M  V30 10923 C 973.205 5.79276 -0.930383 0
M  V30 10924 C 975.557 6.18801 -1.31408 0
M  V30 10925 C 974.221 6.48328 -1.58829 0
M  V30 10926 H 973.491 0.706634 0.223046 0
M  V30 10927 H 976.138 1.91054 -0.1306 0
M  V30 10928 H 974.443 3.33866 2.05039 0
M  V30 10929 H 976.14 3.60247 1.76134 0
M  V30 10930 H 972.73 4.2583 0.486477 0
M  V30 10931 H 976.914 4.95898 -0.199713 0
M  V30 10932 H 972.17 6.00484 -1.15019 0
M  V30 10933 H 976.344 6.71862 -1.83234 0
M  V30 10934 H 973.971 7.24137 -2.31363 0
M  V30 10935 N 975.546 -0.211634 1.56173 0
M  V30 10936 C 976.476 -1.26533 1.96244 0
M  V30 10937 C 977.457 -1.48362 0.832028 0
M  V30 10938 O 978.642 -1.60378 1.0951 0
M  V30 10939 C 975.772 -2.61307 2.2877 0
M  V30 10940 C 974.726 -2.54119 3.44395 0
M  V30 10941 C 974.052 -3.93014 3.62552 0
M  V30 10942 C 975.352 -2.08046 4.79076 0
M  V30 10943 H 977.046 -0.932407 2.84511 0
M  V30 10944 H 974.592 -0.447084 1.36884 0
M  V30 10945 H 976.545 -3.35188 2.55396 0
M  V30 10946 H 975.269 -2.96307 1.37367 0
M  V30 10947 H 973.928 -1.82694 3.17834 0
M  V30 10948 H 973.576 -4.25338 2.68508 0
M  V30 10949 H 973.276 -3.89083 4.40327 0
M  V30 10950 H 974.8 -4.68542 3.91537 0
M  V30 10951 H 976.214 -2.71676 5.04842 0
M  V30 10952 H 974.611 -2.15154 5.60204 0
M  V30 10953 H 975.681 -1.03306 4.73768 0
M  V30 10954 N 977.024 -1.50153 -0.478725 0
M  V30 10955 C 978.249 -1.64776 -1.2595 0
M  V30 10956 C 978.674 -0.327794 -1.85222 0
M  V30 10957 O 978.032 0.707418 -1.66929 0
M  V30 10958 C 978.08 -2.73551 -2.34952 0
M  V30 10959 O 977.184 -2.34273 -3.39397 0
M  V30 10960 H 976.525 -0.550769 -0.370877 0
M  V30 10961 H 979.055 -1.96482 -0.570605 0
M  V30 10962 H 979.065 -2.96397 -2.8038 0
M  V30 10963 H 977.74 -3.69354 -1.91181 0
M  V30 10964 H 976.317 -2.21844 -2.99733 0
M  V30 10965 N 978.502 0.731368 -1.39602 0
M  V30 10966 C 979.412 1.87579 -1.40894 0
M  V30 10967 C 980.428 1.71336 -0.303319 0
M  V30 10968 O 981.604 1.93875 -0.545377 0
M  V30 10969 C 978.669 3.23211 -1.25442 0
M  V30 10970 C 977.73 3.51822 -2.46008 0
M  V30 10971 C 976.963 4.80982 -2.31284 0
M  V30 10972 O 977.186 5.54958 -1.31824 0
M  V30 10973 O 976.12 5.09574 -3.20341 0
M  V30 10974 H 979.946 1.89444 -2.3737 0
M  V30 10975 H 977.531 0.879675 -1.20756 0
M  V30 10976 H 979.413 4.04257 -1.18972 0
M  V30 10977 H 978.088 3.22108 -0.320637 0
M  V30 10978 H 976.995 2.70847 -2.58055 0
M  V30 10979 H 978.328 3.57707 -3.38093 0
M  V30 10980 N 979.98 1.24838 0.961938 0
M  V30 10981 C 981.21 1.11709 1.73795 0
M  V30 10982 C 981.618 -0.33263 1.86253 0
M  V30 10983 O 980.961 -1.24101 1.35443 0
M  V30 10984 C 981.023 1.68959 3.17322 0
M  V30 10985 C 980.687 3.17895 3.28316 0
M  V30 10986 C 981.684 4.14975 3.13196 0
M  V30 10987 C 979.369 3.57966 3.52372 0
M  V30 10988 C 981.363 5.50107 3.21965 0
M  V30 10989 C 979.05 4.93237 3.60778 0
M  V30 10990 C 980.048 5.89116 3.45588 0
M  V30 10991 O 979.736 7.21927 3.53662 0
M  V30 10992 H 979.468 0.390726 0.551642 0
M  V30 10993 H 982.022 1.65541 1.21594 0
M  V30 10994 H 980.252 1.09567 3.70853 0
M  V30 10995 H 981.941 1.51036 3.76753 0
M  V30 10996 H 982.707 3.85359 2.94489 0
M  V30 10997 H 978.586 2.83837 3.63259 0
M  V30 10998 H 982.13 6.24924 3.10025 0
M  V30 10999 H 978.027 5.22522 3.79 0
M  V30 11000 H 978.795 7.29925 3.7034 0
M  V30 11001 N 981.458 -1.16348 1.06306 0
M  V30 11002 C 982.405 -2.20741 0.673962 0
M  V30 11003 C 983.375 -1.628 -0.329454 0
M  V30 11004 O 984.56 -1.89547 -0.218313 0
M  V30 11005 C 981.7 -3.45036 0.0667008 0
M  V30 11006 C 980.813 -4.17221 1.12031 0
M  V30 11007 C 979.948 -5.29034 0.479176 0
M  V30 11008 C 978.987 -5.93021 1.51631 0
M  V30 11009 N 978.124 -6.96327 0.898528 0
M  V30 11010 H 982.964 -2.53376 1.56859 0
M  V30 11011 H 980.501 -1.24449 0.784276 0
M  V30 11012 H 982.459 -4.16099 -0.302916 0
M  V30 11013 H 981.089 -3.1295 -0.791333 0
M  V30 11014 H 980.141 -3.4476 1.60763 0
M  V30 11015 H 981.453 -4.60902 1.90712 0
M  V30 11016 H 980.607 -6.06674 0.0565993 0
M  V30 11017 H 979.346 -4.86517 -0.33951 0
M  V30 11018 H 978.351 -5.14104 1.94878 0
M  V30 11019 H 979.576 -6.37618 2.3371 0
M  V30 11020 H 977.522 -6.55923 0.100555 0
M  V30 11021 H 977.439 -7.38379 1.62272 0
M  V30 11022 H 978.707 -7.77888 0.5011 0
M  V30 11023 N 982.937 -0.845659 -1.3299 0
M  V30 11024 C 983.885 -0.272412 -2.30999 0
M  V30 11025 C 984.879 0.599311 -1.58444 0
M  V30 11026 O 986.085 0.488117 -1.73255 0
M  V30 11027 H 982.46 -0.0693751 -0.748793 0
M  V30 11028 H 984.431 -1.11343 -2.76849 0
M  V30 11029 C 983.18 0.532019 -3.43606 0
M  V30 11030 H 982.503 -0.129455 -3.9959 0
M  V30 11031 H 983.943 0.898853 -4.14363 0
M  V30 11032 C 982.402 1.71364 -2.90062 0
M  V30 11033 O 982.932 2.81252 -2.8681 0
M  V30 11034 N 981.138 1.53775 -2.4658 0
M  V30 11035 H 980.685 0.643836 -2.49424 0
M  V30 11036 H 980.643 2.32982 -2.11108 0
M  V30 11037 N 984.415 1.45619 -0.602734 0
M  V30 11038 C 985.692 1.9558 -0.0282472 0
M  V30 11039 C 986.072 1.54523 1.43826 0
M  V30 11040 O 985.42 0.805456 2.13833 0
M  V30 11041 C 985.63 3.48298 -0.221263 0
M  V30 11042 C 986.978 4.24483 -0.0995249 0
M  V30 11043 O 988.002 3.55879 -0.151132 0
M  V30 11044 O 986.861 5.46497 0.0194454 0
M  V30 11045 H 983.955 0.826104 0.0384897 0
M  V30 11046 H 986.501 1.55808 -0.672456 0
M  V30 11047 H 985.273 3.71134 -1.23997 0
M  V30 11048 H 984.896 3.94948 0.458437 0
M  V30 11049 N 985.893 0.34162 1.53853 0
M  V30 11050 C 987.139 -0.255862 2.01179 0
M  V30 11051 C 987.472 -1.50356 1.22909 0
M  V30 11052 O 986.747 -1.91913 0.316198 0
M  V30 11053 C 987.03 -0.571934 3.55529 0
M  V30 11054 C 986.883 0.687727 4.44511 0
M  V30 11055 C 988.202 -1.38233 4.17827 0
M  V30 11056 H 985.321 -0.091521 0.731295 0
M  V30 11057 H 987.963 0.461775 1.84303 0
M  V30 11058 H 986.113 -1.18331 3.70041 0
M  V30 11059 H 987.785 1.32572 4.4184 0
M  V30 11060 H 986.028 1.313 4.13452 0
M  V30 11061 H 986.699 0.421858 5.50386 0
M  V30 11062 H 989.175 -0.865374 4.07002 0
M  V30 11063 H 988.051 -1.57223 5.25901 0
M  V30 11064 H 988.312 -2.38386 3.72323 0
M  V30 11065 N 987.371 -1.57444 0.0701946 0
M  V30 11066 C 988.618 -1.93429 -0.59929 0
M  V30 11067 C 988.946 -0.9501 -1.69715 0
M  V30 11068 O 988.201 0.0345377 -1.9567 0
M  V30 11069 C 988.5 -3.36044 -1.21694 0
M  V30 11070 C 988.166 -4.50232 -0.245374 0
M  V30 11071 C 986.828 -4.81195 0.0219161 0
M  V30 11072 C 989.18 -5.1951 0.419396 0
M  V30 11073 C 986.508 -5.78775 0.96109 0
M  V30 11074 C 988.86 -6.18095 1.34688 0
M  V30 11075 C 987.524 -6.47477 1.62265 0
M  V30 11076 H 986.794 -0.707807 -0.219296 0
M  V30 11077 H 989.441 -1.90982 0.14073 0
M  V30 11078 H 987.746 -3.34948 -2.03265 0
M  V30 11079 H 989.443 -3.61176 -1.74221 0
M  V30 11080 H 986.033 -4.26082 -0.463887 0
M  V30 11081 H 990.217 -4.95785 0.226009 0
M  V30 11082 H 985.473 -5.99865 1.18202 0
M  V30 11083 H 989.647 -6.7088 1.86795 0
M  V30 11084 H 987.274 -7.229 2.352 0
M  V30 11085 N 988.849 0.203349 -1.56283 0
M  V30 11086 C 990.265 0.55384 -1.49682 0
M  V30 11087 C 990.465 1.86261 -0.768701 0
M  V30 11088 O 989.521 2.50517 -0.315824 0
M  V30 11089 C 990.834 0.616216 -2.94318 0
M  V30 11090 C 992.382 0.705611 -3.04943 0
M  V30 11091 C 992.857 0.79917 -4.50974 0
M  V30 11092 N 994.348 0.862916 -4.55091 0
M  V30 11093 C 995.083 0.955334 -5.65386 0
M  V30 11094 N 994.579 1.01057 -6.8539 0
M  V30 11095 N 996.372 0.991884 -5.53279 0
M  V30 11096 H 988.523 -0.655244 -2.0204 0
M  V30 11097 H 990.786 -0.232344 -0.919087 0
M  V30 11098 H 990.492 -0.27619 -3.50614 0
M  V30 11099 H 990.366 1.47371 -3.4722 0
M  V30 11100 H 992.753 1.58845 -2.48701 0
M  V30 11101 H 992.834 -0.177921 -2.5518 0
M  V30 11102 H 992.478 -0.0792841 -5.07838 0
M  V30 11103 H 992.408 1.69838 -4.9846 0
M  V30 11104 H 994.899 0.829812 -3.68677 0
M  V30 11105 H 995.212 1.08137 -7.65197 0
M  V30 11106 H 993.557 0.979384 -6.88065 0
M  V30 11107 H 996.748 0.945514 -4.58451 0
M  V30 11108 H 996.921 1.06045 -6.39264 0
M  V30 11109 N 990.327 1.50405 0.470755 0
M  V30 11110 C 991.555 1.65168 1.24608 0
M  V30 11111 C 991.97 0.335153 1.85801 0
M  V30 11112 O 991.327 -0.682919 1.69241 0
M  V30 11113 C 991.378 2.74305 2.35455 0
M  V30 11114 O 991.099 4.00854 1.76771 0
M  V30 11115 C 992.6 3.00044 3.26326 0
M  V30 11116 H 989.82 0.555186 0.376842 0
M  V30 11117 H 992.364 1.9663 0.56187 0
M  V30 11118 H 990.519 2.45536 2.99651 0
M  V30 11119 H 990.933 4.61211 2.49769 0
M  V30 11120 H 992.407 3.8007 4.00313 0
M  V30 11121 H 992.884 2.11128 3.85126 0
M  V30 11122 H 993.49 3.30345 2.67866 0
M  V30 11123 N 991.805 -0.723954 1.39988 0
M  V30 11124 C 993.053 -1.48078 1.3754 0
M  V30 11125 C 993.374 -1.94985 -0.0243358 0
M  V30 11126 O 992.644 -1.69764 -0.977602 0
M  V30 11127 H 991.224 -0.549354 0.506181 0
M  V30 11128 H 993.886 -0.858746 1.74962 0
M  V30 11129 H 992.982 -2.35763 2.04505 0
M  V30 11130 N 993.283 -1.25346 -0.955304 0
M  V30 11131 C 994.231 -1.05461 -2.07318 0
M  V30 11132 C 995.225 0.0142699 -1.69394 0
M  V30 11133 O 996.431 -0.141292 -1.79445 0
M  V30 11134 H 992.806 -0.324095 -0.678577 0
M  V30 11135 H 994.777 -2.00231 -2.21247 0
M  V30 11136 C 993.526 -0.689329 -3.40798 0
M  V30 11137 H 992.849 -1.50362 -3.70447 0
M  V30 11138 H 994.289 -0.589883 -4.19877 0
M  V30 11139 C 992.748 0.604556 -3.31431 0
M  V30 11140 O 993.278 1.64686 -3.6639 0
M  V30 11141 N 991.484 0.589927 -2.84549 0
M  V30 11142 H 991.031 -0.258647 -2.56298 0
M  V30 11143 H 990.989 1.4558 -2.78664 0
M  V30 11144 N 994.761 1.15782 -1.06922 0
M  V30 11145 C 995.709 2.22441 -0.679893 0
M  V30 11146 C 996.703 1.66591 0.307221 0
M  V30 11147 O 997.909 1.79182 0.171402 0
M  V30 11148 H 994.284 0.724427 -0.201765 0
M  V30 11149 H 996.255 2.52562 -1.58918 0
M  V30 11150 C 995.004 3.47586 -0.0891142 0
M  V30 11151 H 994.327 3.9088 -0.839805 0
M  V30 11152 H 995.767 4.2375 0.14569 0
M  V30 11153 C 994.226 3.15967 1.16903 0
M  V30 11154 O 994.756 3.32359 2.25611 0
M  V30 11155 N 992.962 2.70046 1.07349 0
M  V30 11156 H 992.509 2.56907 0.188825 0
M  V30 11157 H 992.467 2.49264 1.91611 0
M  V30 11158 N 996.239 0.8527 1.3254 0
M  V30 11159 C 997.486 0.455123 1.97319 0
M  V30 11160 C 997.814 -0.988814 1.67489 0
M  V30 11161 O 997.069 -1.70845 0.954483 0
M  V30 11162 C 997.368 0.638757 3.51646 0
M  V30 11163 C 997.034 2.05287 4.01458 0
M  V30 11164 C 995.696 2.43963 4.14771 0
M  V30 11165 C 998.048 2.9759 4.27889 0
M  V30 11166 C 995.376 3.7422 4.51859 0
M  V30 11167 C 997.728 4.27343 4.66434 0
M  V30 11168 C 996.392 4.65957 4.77954 0
M  V30 11169 H 995.662 0.166541 0.722042 0
M  V30 11170 H 998.309 1.08238 1.57977 0
M  V30 11171 H 996.614 -0.0717394 3.91734 0
M  V30 11172 H 998.311 0.311219 3.9979 0
M  V30 11173 H 994.901 1.74253 3.91579 0
M  V30 11174 H 999.085 2.68942 4.17114 0
M  V30 11175 H 994.341 4.03923 4.58973 0
M  V30 11176 H 998.515 4.9893 4.85841 0
M  V30 11177 H 996.142 5.66934 5.06449 0
M  V30 11178 N 997.718 -1.45297 0.610449 0
M  V30 11179 C 998.665 -2.30553 -0.106718 0
M  V30 11180 C 999.635 -1.42272 -0.85719 0
M  V30 11181 O 1000.82 -1.71199 -0.842357 0
M  V30 11182 C 997.96 -3.27226 -1.09623 0
M  V30 11183 C 997.073 -4.3061 -0.346329 0
M  V30 11184 C 996.208 -5.14389 -1.32581 0
M  V30 11185 C 995.247 -6.09497 -0.563892 0
M  V30 11186 N 994.384 -6.86047 -1.4928 0
M  V30 11187 H 999.224 -2.91344 0.626296 0
M  V30 11188 H 996.761 -1.43563 0.32065 0
M  V30 11189 H 998.719 -3.81744 -1.68308 0
M  V30 11190 H 997.349 -2.68182 -1.79662 0
M  V30 11191 H 996.401 -3.7873 0.356084 0
M  V30 11192 H 997.713 -4.98183 0.248026 0
M  V30 11193 H 996.867 -5.73321 -1.98464 0
M  V30 11194 H 995.606 -4.4684 -1.9541 0
M  V30 11195 H 994.611 -5.49693 0.108551 0
M  V30 11196 H 995.836 -6.79074 0.0593872 0
M  V30 11197 H 993.782 -6.21185 -2.10868 0
M  V30 11198 H 993.699 -7.49983 -0.951953 0
M  V30 11199 H 994.967 -7.49518 -2.14112 0
M  V30 11200 N 999.196 -0.349774 -1.5367 0
M  V30 11201 C 1000.13 0.496338 -2.28164 0
M  V30 11202 C 1001.11 1.09737 -1.29968 0
M  V30 11203 O 1002.29 1.11759 -1.58819 0
M  V30 11204 C 999.422 1.64428 -3.0591 0
M  V30 11205 C 998.376 1.17127 -4.11661 0
M  V30 11206 C 997.702 2.40822 -4.77398 0
M  V30 11207 C 999.002 0.267293 -5.21616 0
M  V30 11208 H 1000.7 -0.125117 -2.99138 0
M  V30 11209 H 998.242 -0.0616152 -1.43868 0
M  V30 11210 H 1000.19 2.2427 -3.56765 0
M  V30 11211 H 998.919 2.29272 -2.32598 0
M  V30 11212 H 997.578 0.595634 -3.61729 0
M  V30 11213 H 997.226 3.04088 -4.00674 0
M  V30 11214 H 996.926 2.09852 -5.48849 0
M  V30 11215 H 998.45 3.01378 -5.3104 0
M  V30 11216 H 999.864 0.772734 -5.68068 0
M  V30 11217 H 998.261 0.0491991 -6.0008 0
M  V30 11218 H 999.331 -0.694892 -4.79895 0
M  V30 11219 N 1000.67 1.57404 -0.0785433 0
M  V30 11220 C 1001.9 1.97787 0.596995 0
M  V30 11221 C 1002.31 0.955904 1.63276 0
M  V30 11222 O 1001.65 -0.0649169 1.83585 0
M  V30 11223 C 1001.72 3.34499 1.31723 0
M  V30 11224 C 1001.38 4.54933 0.434144 0
M  V30 11225 C 1002.38 5.18969 -0.311015 0
M  V30 11226 C 1000.06 5.01029 0.357046 0
M  V30 11227 C 1002.06 6.27457 -1.12142 0
M  V30 11228 C 999.744 6.09389 -0.457029 0
M  V30 11229 C 1000.74 6.72466 -1.19493 0
M  V30 11230 O 1000.43 7.78738 -1.99556 0
M  V30 11231 H 1000.16 0.655294 0.166028 0
M  V30 11232 H 1002.72 2.04855 -0.149517 0
M  V30 11233 H 1000.95 3.24064 2.10996 0
M  V30 11234 H 1002.63 3.5944 1.88567 0
M  V30 11235 H 1003.4 4.84297 -0.261084 0
M  V30 11236 H 999.28 4.51706 0.921026 0
M  V30 11237 H 1002.82 6.76622 -1.69788 0
M  V30 11238 H 998.721 6.43494 -0.508499 0
M  V30 11239 H 999.489 7.95648 -1.9206 0
M  V30 11240 N 1002.15 -0.195058 1.56388 0
M  V30 11241 C 1003.4 -0.915444 1.80626 0
M  V30 11242 C 1003.73 -1.83255 0.651768 0
M  V30 11243 O 1002.98 -1.92314 -0.362464 0
M  V30 11244 C 1003.28 -1.7637 3.10851 0
M  V30 11245 C 1002.95 -0.997572 4.39726 0
M  V30 11246 C 1001.61 -0.786043 4.74737 0
M  V30 11247 C 1003.96 -0.45851 5.19179 0
M  V30 11248 C 1001.29 -0.023972 5.86695 0
M  V30 11249 C 1003.64 0.29035 6.31933 0
M  V30 11250 C 1002.3 0.512895 6.65527 0
M  V30 11251 H 1001.57 -0.334985 0.660959 0
M  V30 11252 H 1004.22 -0.181815 1.90635 0
M  V30 11253 H 1002.53 -2.566 2.9608 0
M  V30 11254 H 1004.22 -2.3237 3.26811 0
M  V30 11255 H 1000.81 -1.17245 4.12252 0
M  V30 11256 H 1005 -0.609334 4.92545 0
M  V30 11257 H 1000.25 0.158421 6.11195 0
M  V30 11258 H 1004.43 0.715429 6.92715 0
M  V30 11259 H 1002.05 1.10531 7.52122 0
M  V30 11260 N 1003.63 -1.50653 -0.462772 0
M  V30 11261 C 1004.58 -1.70661 -1.58043 0
M  V30 11262 C 1005.57 -0.572533 -1.59432 0
M  V30 11263 O 1006.78 -0.753257 -1.63481 0
M  V30 11264 H 1003.15 -0.538805 -0.524588 0
M  V30 11265 H 1005.12 -2.64399 -1.38332 0
M  V30 11266 C 1003.87 -1.82558 -2.95919 0
M  V30 11267 H 1003.2 -2.69216 -2.95572 0
M  V30 11268 H 1004.64 -2.0058 -3.73556 0
M  V30 11269 C 1003.09 -0.57916 -3.31885 0
M  V30 11270 O 1003.62 0.277888 -4.00738 0
M  V30 11271 N 1001.83 -0.430723 -2.8739 0
M  V30 11272 H 1001.38 -1.1292 -2.31531 0
M  V30 11273 H 1001.34 0.402061 -3.11819 0
M  V30 11274 N 1005.11 0.71652 -1.4037 0
M  V30 11275 C 1006.04 1.84345 -1.43315 0
M  V30 11276 C 1007.02 1.67537 -0.294186 0
M  V30 11277 O 1008.2 1.87582 -0.502671 0
M  V30 11278 C 1005.33 3.2229 -1.29408 0
M  V30 11279 C 1004.29 3.53769 -2.40897 0
M  V30 11280 C 1003.61 4.90847 -2.12068 0
M  V30 11281 C 1004.91 3.54862 -3.83237 0
M  V30 11282 H 1006.61 1.82138 -2.37626 0
M  V30 11283 H 1004.15 0.874873 -1.14376 0
M  V30 11284 H 1006.11 4.00819 -1.30085 0
M  V30 11285 H 1004.83 3.2507 -0.31573 0
M  V30 11286 H 1003.49 2.77579 -2.39469 0
M  V30 11287 H 1003.14 4.90229 -1.12626 0
M  V30 11288 H 1002.84 5.12875 -2.86762 0
M  V30 11289 H 1004.36 5.71711 -2.14426 0
M  V30 11290 H 1005.78 4.23432 -3.86494 0
M  V30 11291 H 1004.17 3.88416 -4.57442 0
M  V30 11292 H 1005.24 2.54266 -4.12888 0
M  V30 11293 N 1006.59 1.25851 0.948643 0
M  V30 11294 C 1008 1.09975 1.50872 0
M  V30 11295 C 1008.35 -0.322497 1.93531 0
M  V30 11296 O 1007.47 -1.21316 1.79197 0
M  V30 11297 C 1008.07 1.99021 2.74182 0
M  V30 11298 C 1006.63 1.87313 3.26483 0
M  V30 11299 C 1005.77 1.92815 1.99293 0
M  V30 11300 H 1008.73 1.3905 0.764908 0
M  V30 11301 H 1008.75 1.53372 3.4822 0
M  V30 11302 H 1008.26 3.02527 2.43103 0
M  V30 11303 H 1006.36 0.867136 3.62369 0
M  V30 11304 H 1006.47 2.72446 3.94094 0
M  V30 11305 H 1004.84 1.36774 2.1486 0
M  V30 11306 H 1005.62 2.97936 1.70554 0
M  V30 11307 N 1008.06 -1.15214 1.07534 0
M  V30 11308 C 1009.01 -2.22078 0.69168 0
M  V30 11309 C 1010.01 -1.66751 -0.298382 0
M  V30 11310 O 1011.21 -1.7927 -0.161897 0
M  V30 11311 H 1007.59 -0.723347 0.205604 0
M  V30 11312 H 1009.56 -2.51716 1.60256 0
M  V30 11313 C 1008.31 -3.47534 0.107546 0
M  V30 11314 H 1007.63 -3.90429 0.860522 0
M  V30 11315 H 1009.07 -4.23821 -0.123215 0
M  V30 11316 C 1007.53 -3.16583 -1.15226 0
M  V30 11317 O 1008.06 -3.33551 -2.23845 0
M  V30 11318 N 1006.27 -2.70611 -1.05915 0
M  V30 11319 H 1005.81 -2.57004 -0.175198 0
M  V30 11320 H 1005.77 -2.50277 -1.90287 0
M  V30 11321 N 1009.54 -0.859717 -1.32086 0
M  V30 11322 C 1010.79 -0.461779 -1.96343 0
M  V30 11323 C 1011.1 0.988837 -1.68764 0
M  V30 11324 O 1012.31 1.49244 -2.268 0
M  V30 11325 C 1010.77 -0.77484 -3.5146 0
M  V30 11326 C 1010.37 -2.24153 -3.87891 0
M  V30 11327 C 1012.12 -0.444873 -4.22162 0
M  V30 11328 C 1010.03 -2.49754 -5.36075 0
M  V30 11329 H 1008.96 -0.168951 -0.734828 0
M  V30 11330 H 1011.61 -1.0512 -1.50406 0
M  V30 11331 H 1009.99 -0.114792 -3.95834 0
M  V30 11332 H 1011.16 -2.94378 -3.54511 0
M  V30 11333 H 1009.48 -2.53651 -3.30227 0
M  V30 11334 H 1012.07 -0.613508 -5.31169 0
M  V30 11335 H 1012.42 0.61391 -4.11749 0
M  V30 11336 H 1012.95 -1.06103 -3.83389 0
M  V30 11337 H 1009.69 -3.54276 -5.51515 0
M  V30 11338 H 1009.21 -1.84112 -5.70844 0
M  V30 11339 H 1010.89 -2.3396 -6.03218 0
M  V30 11340 N 1011.02 1.44971 -0.618145 0
M  V30 11341 C 1012.25 2.06228 -0.123985 0
M  V30 11342 C 1012.66 1.46166 1.20134 0
M  V30 11343 O 1012 0.574099 1.74499 0
M  V30 11344 C 1012.06 3.59413 0.0789098 0
M  V30 11345 C 1011.73 4.41869 -1.16624 0
M  V30 11346 C 1012.72 4.76177 -2.0869 0
M  V30 11347 C 1010.41 4.82453 -1.39802 0
M  V30 11348 C 1012.4 5.49938 -3.22254 0
M  V30 11349 C 1010.09 5.55965 -2.53665 0
M  V30 11350 C 1011.09 5.89626 -3.44718 0
M  V30 11351 O 1010.78 6.61644 -4.56598 0
M  V30 11352 H 1010.51 0.672274 -0.0708822 0
M  V30 11353 H 1013.06 1.87038 -0.848868 0
M  V30 11354 H 1011.29 3.77043 0.8588 0
M  V30 11355 H 1012.98 4.02478 0.52599 0
M  V30 11356 H 1013.75 4.45372 -1.92012 0
M  V30 11357 H 1009.63 4.55681 -0.698245 0
M  V30 11358 H 1013.17 5.76129 -3.93347 0
M  V30 11359 H 1009.07 5.86185 -2.70291 0
M  V30 11360 H 1009.84 6.80103 -4.55414 0
M  V30 11361 N 1012.5 0.357919 1.53482 0
M  V30 11362 C 1013.72 -0.237769 2.06033 0
M  V30 11363 C 1014.15 -1.42292 1.23023 0
M  V30 11364 O 1013.51 -1.79604 0.247427 0
M  V30 11365 C 1013.55 -0.616806 3.55286 0
M  V30 11366 O 1012.66 -1.71503 3.75047 0
M  V30 11367 H 1012 -0.0364322 0.663 0
M  V30 11368 H 1014.53 0.516301 1.97979 0
M  V30 11369 H 1014.54 -0.88996 3.98175 0
M  V30 11370 H 1013.21 0.249825 4.15149 0
M  V30 11371 H 1011.79 -1.43803 3.44057 0
M  V30 11372 N 1013.98 -1.5736 0.0868897 0
M  V30 11373 C 1014.91 -2.16596 -0.872252 0
M  V30 11374 C 1015.89 -1.09706 -1.29995 0
M  V30 11375 O 1017.07 -1.37808 -1.36831 0
M  V30 11376 C 1014.2 -2.73972 -2.1344 0
M  V30 11377 C 1013.16 -3.86163 -1.8456 0
M  V30 11378 C 1012.48 -4.30206 -3.17533 0
M  V30 11379 C 1013.78 -5.0973 -1.13899 0
M  V30 11380 H 1015.48 -2.96995 -0.378738 0
M  V30 11381 H 1013.02 -1.42861 -0.18073 0
M  V30 11382 H 1014.98 -3.14062 -2.80968 0
M  V30 11383 H 1013.7 -1.90817 -2.6506 0
M  V30 11384 H 1012.36 -3.466 -1.19432 0
M  V30 11385 H 1012.01 -3.43951 -3.67024 0
M  V30 11386 H 1011.71 -5.05841 -2.98996 0
M  V30 11387 H 1013.23 -4.72922 -3.86234 0
M  V30 11388 H 1014.64 -5.4704 -1.71523 0
M  V30 11389 H 1013.04 -5.90741 -1.05569 0
M  V30 11390 H 1014.11 -4.8475 -0.120432 0
M  V30 11391 N 1015.45 0.186762 -1.56489 0
M  V30 11392 C 1016.42 1.21511 -1.94339 0
M  V30 11393 C 1017.42 1.38001 -0.82537 0
M  V30 11394 O 1018.61 1.3567 -1.09266 0
M  V30 11395 C 1015.74 2.583 -2.22472 0
M  V30 11396 H 1016.93 0.891371 -2.86347 0
M  V30 11397 H 1014.49 0.428612 -1.50308 0
M  V30 11398 H 1015.22 2.95715 -1.33129 0
M  V30 11399 H 1015.01 2.47701 -3.03951 0
M  V30 11400 H 1016.5 3.32441 -2.5273 0
M  V30 11401 N 1016.93 1.50896 0.454776 0
M  V30 11402 C 1018.16 1.66239 1.22671 0
M  V30 11403 C 1018.57 0.351876 1.85899 0
M  V30 11404 O 1017.91 -0.677848 1.70736 0
M  V30 11405 C 1017.98 2.70812 2.36434 0
M  V30 11406 C 1017.64 4.13913 1.93714 0
M  V30 11407 C 1018.64 4.99259 1.45039 0
M  V30 11408 C 1016.32 4.59921 2.01937 0
M  V30 11409 C 1018.32 6.28667 1.05151 0
M  V30 11410 C 1016 5.89329 1.6166 0
M  V30 11411 C 1017 6.73529 1.13347 0
M  V30 11412 O 1016.69 8.0052 0.736354 0
M  V30 11413 H 1016.42 0.561443 0.376508 0
M  V30 11414 H 1018.97 1.97974 0.547325 0
M  V30 11415 H 1017.2 2.34355 3.07595 0
M  V30 11416 H 1018.89 2.7521 2.98353 0
M  V30 11417 H 1019.66 4.64925 1.38095 0
M  V30 11418 H 1015.54 3.94518 2.38488 0
M  V30 11419 H 1019.08 6.94339 0.673711 0
M  V30 11420 H 1014.98 6.23182 1.68269 0
M  V30 11421 H 1015.75 8.1393 0.863759 0
M  V30 11422 N 1018.41 -0.709066 1.40748 0
M  V30 11423 C 1019.34 -1.83412 1.37451 0
M  V30 11424 C 1020.36 -1.60394 0.27884 0
M  V30 11425 O 1021.54 -1.70147 0.539642 0
M  V30 11426 C 1018.64 -3.19935 1.1178 0
M  V30 11427 C 1017.82 -3.70095 2.33128 0
M  V30 11428 C 1016.88 -4.85249 2.03518 0
M  V30 11429 O 1015.9 -4.97563 2.76442 0
M  V30 11430 N 1017.1 -5.7152 1.01714 0
M  V30 11431 H 1019.87 -1.86736 2.34414 0
M  V30 11432 H 1017.43 -0.890863 1.35186 0
M  V30 11433 H 1019.42 -3.94578 0.899464 0
M  V30 11434 H 1017.99 -3.11718 0.234624 0
M  V30 11435 H 1017.21 -2.8651 2.70751 0
M  V30 11436 H 1018.5 -4.00344 3.1401 0
M  V30 11437 H 1017.9 -5.64188 0.413307 0
M  V30 11438 H 1016.46 -6.46119 0.858696 0
M  V30 11439 N 1019.89 -1.26353 -0.941956 0
M  V30 11440 C 1020.82 -1.10341 -2.05784 0
M  V30 11441 C 1021.8 -0.00881565 -1.70098 0
M  V30 11442 O 1022.99 -0.180699 -1.93357 0
M  V30 11443 C 1020.12 -0.734788 -3.39438 0
M  V30 11444 C 1019.07 -1.78103 -3.89183 0
M  V30 11445 C 1018.4 -1.26675 -5.19478 0
M  V30 11446 C 1019.7 -3.1824 -4.14151 0
M  V30 11447 H 1021.39 -2.03684 -2.19438 0
M  V30 11448 H 1018.94 -0.980698 -1.05443 0
M  V30 11449 H 1020.89 -0.609653 -4.16967 0
M  V30 11450 H 1019.61 0.234354 -3.25758 0
M  V30 11451 H 1018.27 -1.89482 -3.13835 0
M  V30 11452 H 1017.92 -0.287472 -5.02178 0
M  V30 11453 H 1017.62 -1.96612 -5.53731 0
M  V30 11454 H 1019.14 -1.15427 -5.99591 0
M  V30 11455 H 1020.56 -3.09942 -4.82296 0
M  V30 11456 H 1018.95 -3.8576 -4.59684 0
M  V30 11457 H 1020.02 -3.64354 -3.19959 0
M  V30 11458 N 1021.37 1.14642 -1.08144 0
M  V30 11459 C 1022.61 1.85617 -0.809484 0
M  V30 11460 C 1022.94 1.8279 0.664672 0
M  V30 11461 O 1022.2 1.25178 1.50429 0
M  V30 11462 C 1022.5 3.33953 -1.2732 0
M  V30 11463 C 1022.16 3.56969 -2.7547 0
M  V30 11464 C 1020.82 3.6296 -3.15933 0
M  V30 11465 C 1023.18 3.66014 -3.71057 0
M  V30 11466 C 1020.5 3.75515 -4.50783 0
M  V30 11467 C 1022.86 3.80094 -5.05679 0
M  V30 11468 C 1021.52 3.84333 -5.45751 0
M  V30 11469 H 1020.79 0.67922 -0.296211 0
M  V30 11470 H 1023.44 1.35433 -1.35389 0
M  V30 11471 H 1021.74 3.86399 -0.648329 0
M  V30 11472 H 1023.44 3.87291 -1.03957 0
M  V30 11473 H 1020.03 3.52953 -2.4315 0
M  V30 11474 H 1024.21 3.60679 -3.40917 0
M  V30 11475 H 1019.47 3.77057 -4.81288 0
M  V30 11476 H 1023.64 3.86035 -5.79612 0
M  V30 11477 H 1021.27 3.93814 -6.50242 0
M  V30 11478 N 1022.85 0.866709 1.31628 0
M  V30 11479 C 1023.79 0.309128 2.30537 0
M  V30 11480 C 1024.79 -0.574028 1.59378 0
M  V30 11481 O 1025.99 -0.460491 1.7401 0
M  V30 11482 H 1022.37 0.081279 0.747595 0
M  V30 11483 H 1024.34 1.15734 2.75042 0
M  V30 11484 C 1023.09 -0.477287 3.44409 0
M  V30 11485 H 1022.41 0.19301 3.99334 0
M  V30 11486 H 1023.85 -0.832818 4.1574 0
M  V30 11487 C 1022.31 -1.66727 2.92752 0
M  V30 11488 O 1022.84 -2.76654 2.91248 0
M  V30 11489 N 1021.05 -1.49833 2.48995 0
M  V30 11490 H 1020.59 -0.604073 2.50417 0
M  V30 11491 H 1020.55 -2.29594 2.14788 0
M  V30 11492 N 1024.32 -1.44642 0.625825 0
M  V30 11493 C 1025.23 -2.34451 -0.0836134 0
M  V30 11494 C 1026.25 -1.5231 -0.841289 0
M  V30 11495 O 1027.43 -1.85056 -0.794754 0
M  V30 11496 C 1024.49 -3.30211 -1.05648 0
M  V30 11497 C 1023.55 -4.28259 -0.298759 0
M  V30 11498 C 1022.78 -5.19444 -1.22528 0
M  V30 11499 O 1023.01 -5.14444 -2.46382 0
M  V30 11500 O 1021.94 -5.97668 -0.71247 0
M  V30 11501 H 1025.77 -2.96555 0.654912 0
M  V30 11502 H 1023.35 -1.44327 0.386029 0
M  V30 11503 H 1025.23 -3.8917 -1.61632 0
M  V30 11504 H 1023.91 -2.70648 -1.77571 0
M  V30 11505 H 1022.82 -3.72863 0.304001 0
M  V30 11506 H 1024.15 -4.90728 0.380345 0
M  V30 11507 N 1025.8 -0.366053 -1.5329 0
M  V30 11508 C 1026.73 0.47211 -2.28677 0
M  V30 11509 C 1027.71 1.08353 -1.31125 0
M  V30 11510 O 1028.9 1.10069 -1.59995 0
M  V30 11511 C 1026.03 1.61174 -3.07637 0
M  V30 11512 C 1024.98 1.12755 -4.12881 0
M  V30 11513 C 1024.31 2.35745 -4.79925 0
M  V30 11514 C 1025.61 0.211954 -5.2187 0
M  V30 11515 H 1027.3 -0.156838 -2.98989 0
M  V30 11516 H 1024.85 -0.0768709 -1.43795 0
M  V30 11517 H 1026.8 2.20473 -3.59123 0
M  V30 11518 H 1025.52 2.26793 -2.35016 0
M  V30 11519 H 1024.18 0.557234 -3.6234 0
M  V30 11520 H 1023.83 2.99821 -4.03877 0
M  V30 11521 H 1023.53 2.04019 -5.51044 0
M  V30 11522 H 1025.06 2.95729 -5.34207 0
M  V30 11523 H 1026.47 0.71244 -5.68856 0
M  V30 11524 H 1024.87 -0.0144501 -6.00098 0
M  V30 11525 H 1025.94 -0.745753 -4.79131 0
M  V30 11526 N 1027.28 1.57312 -0.0952337 0
M  V30 11527 C 1028.24 2.12889 0.849161 0
M  V30 11528 C 1029.24 1.05819 1.21075 0
M  V30 11529 O 1030.43 1.31704 1.14016 0
M  V30 11530 C 1027.56 2.6496 2.14498 0
M  V30 11531 H 1028.76 2.97651 0.366566 0
M  V30 11532 H 1026.31 1.55542 0.153762 0
M  V30 11533 H 1027.05 1.83718 2.67242 0
M  V30 11534 H 1026.83 3.43244 1.89542 0
M  V30 11535 H 1028.32 3.07952 2.82056 0
M  V30 11536 N 1028.76 -0.17846 1.56586 0
M  V30 11537 C 1030.01 -0.894502 1.8078 0
M  V30 11538 C 1030.32 -1.8372 0.67129 0
M  V30 11539 O 1031.53 -2.59509 0.797971 0
M  V30 11540 C 1029.98 -1.64109 3.20306 0
M  V30 11541 C 1029.59 -0.742387 4.41806 0
M  V30 11542 C 1031.33 -2.34578 3.53798 0
M  V30 11543 C 1029.24 -1.4888 5.72354 0
M  V30 11544 H 1028.17 -0.33776 0.674117 0
M  V30 11545 H 1030.82 -0.14752 1.82906 0
M  V30 11546 H 1029.2 -2.43257 3.12477 0
M  V30 11547 H 1030.38 0.011615 4.60799 0
M  V30 11548 H 1028.69 -0.147705 4.16138 0
M  V30 11549 H 1031.29 -2.91004 4.48577 0
M  V30 11550 H 1031.63 -3.09572 2.78336 0
M  V30 11551 H 1032.17 -1.62381 3.63149 0
M  V30 11552 H 1028.9 -0.781325 6.50827 0
M  V30 11553 H 1028.42 -2.21631 5.57351 0
M  V30 11554 H 1030.1 -2.03819 6.14058 0
M  V30 11555 N 1030.24 -1.51135 -0.446768 0
M  V30 11556 C 1031.18 -1.72328 -1.56224 0
M  V30 11557 C 1032.18 -0.589411 -1.58815 0
M  V30 11558 O 1033.38 -0.770554 -1.62673 0
M  V30 11559 H 1029.76 -0.544339 -0.518844 0
M  V30 11560 H 1031.73 -2.65851 -1.3552 0
M  V30 11561 C 1030.48 -1.85686 -2.93966 0
M  V30 11562 H 1029.8 -2.72336 -2.927 0
M  V30 11563 H 1031.24 -2.0453 -3.71407 0
M  V30 11564 C 1029.7 -0.614328 -3.31252 0
M  V30 11565 O 1030.23 0.235369 -4.0101 0
M  V30 11566 N 1028.44 -0.461181 -2.86917 0
M  V30 11567 H 1027.98 -1.15369 -2.30321 0
M  V30 11568 H 1027.94 0.368966 -3.12227 0
M  V30 11569 N 1031.71 0.701592 -1.41122 0
M  V30 11570 C 1032.96 1.45722 -1.39456 0
M  V30 11571 C 1033.28 1.95599 -0.00475228 0
M  V30 11572 O 1034.48 2.71166 0.134529 0
M  V30 11573 C 1032.94 2.63475 -2.45172 0
M  V30 11574 C 1032.55 2.20409 -3.90031 0
M  V30 11575 C 1034.29 3.4114 -2.52633 0
M  V30 11576 C 1032.2 3.35084 -4.87312 0
M  V30 11577 H 1031.13 0.547341 -0.518588 0
M  V30 11578 H 1033.78 0.762233 -1.6692 0
M  V30 11579 H 1032.16 3.35212 -2.10829 0
M  V30 11580 H 1033.33 1.56 -4.3359 0
M  V30 11581 H 1031.65 1.55752 -3.86174 0
M  V30 11582 H 1034.25 4.26496 -3.22498 0
M  V30 11583 H 1034.59 3.85915 -1.56125 0
M  V30 11584 H 1035.12 2.76456 -2.86037 0
M  V30 11585 H 1031.86 2.95327 -5.85203 0
M  V30 11586 H 1031.38 3.98362 -4.48406 0
M  V30 11587 H 1033.06 4.00949 -5.07788 0
M  V30 11588 N 1033.19 1.2685 0.935242 0
M  V30 11589 C 1034.14 1.08746 2.05614 0
M  V30 11590 C 1035.13 0.012681 1.69395 0
M  V30 11591 O 1036.34 0.169822 1.79197 0
M  V30 11592 H 1032.71 0.33485 0.673335 0
M  V30 11593 H 1034.69 2.03725 2.18033 0
M  V30 11594 C 1033.43 0.74346 3.39659 0
M  V30 11595 H 1032.76 1.56236 3.68008 0
M  V30 11596 H 1034.2 0.656607 4.18885 0
M  V30 11597 C 1032.66 -0.551751 3.32351 0
M  V30 11598 O 1033.19 -1.58836 3.68963 0
M  V30 11599 N 1031.39 -0.544583 2.85452 0
M  V30 11600 H 1030.94 0.29939 2.55854 0
M  V30 11601 H 1030.9 -1.41129 2.80945 0
M  V30 11602 N 1034.67 -1.14067 1.0875 0
M  V30 11603 C 1035.92 -1.85459 0.82053 0
M  V30 11604 C 1036.25 -1.82923 -0.65213 0
M  V30 11605 O 1035.52 -1.26241 -1.47965 0
M  V30 11606 C 1035.81 -3.33937 1.34752 0
M  V30 11607 C 1035.66 -3.45026 2.88578 0
M  V30 11608 C 1036.98 -4.2915 0.975636 0
M  V30 11609 H 1034.1 -0.673384 0.299538 0
M  V30 11610 H 1036.74 -1.33927 1.34772 0
M  V30 11611 H 1034.89 -3.77953 0.899086 0
M  V30 11612 H 1036.56 -3.09771 3.41818 0
M  V30 11613 H 1034.81 -2.86124 3.26061 0
M  V30 11614 H 1035.48 -4.49408 3.20526 0
M  V30 11615 H 1037.95 -3.93168 1.36228 0
M  V30 11616 H 1036.83 -5.31489 1.37152 0
M  V30 11617 H 1037.09 -4.41945 -0.116956 0
M  V30 11618 N 1036.15 -0.873678 -1.31166 0
M  V30 11619 C 1037.4 -0.482577 -1.95842 0
M  V30 11620 C 1037.71 0.970881 -1.69804 0
M  V30 11621 O 1038.92 1.4683 -2.28371 0
M  V30 11622 C 1037.37 -0.812074 -3.50619 0
M  V30 11623 C 1036.98 -2.28254 -3.85492 0
M  V30 11624 C 1038.72 -0.489624 -4.21667 0
M  V30 11625 C 1036.63 -2.55426 -5.33396 0
M  V30 11626 H 1035.56 -0.176736 -0.732994 0
M  V30 11627 H 1038.21 -1.06709 -1.49283 0
M  V30 11628 H 1036.59 -0.156769 -3.9569 0
M  V30 11629 H 1037.77 -2.98122 -3.51369 0
M  V30 11630 H 1036.08 -2.5714 -3.27518 0
M  V30 11631 H 1038.68 -0.669811 -5.30488 0
M  V30 11632 H 1039.02 0.570204 -4.12376 0
M  V30 11633 H 1039.56 -1.10163 -3.82242 0
M  V30 11634 H 1036.3 -3.60106 -5.47726 0
M  V30 11635 H 1035.82 -1.90156 -5.68859 0
M  V30 11636 H 1037.49 -2.40345 -6.00702 0
M  V30 11637 N 1037.63 1.44308 -0.633487 0
M  V30 11638 C 1038.85 2.06384 -0.146063 0
M  V30 11639 C 1039.27 1.47357 1.18031 0
M  V30 11640 O 1038.63 0.597334 1.72448 0
M  V30 11641 C 1038.68 3.61489 -0.0276722 0
M  V30 11642 O 1038.4 4.18318 -1.3016 0
M  V30 11643 C 1039.9 4.40604 0.488168 0
M  V30 11644 H 1037.12 0.666122 -0.0807632 0
M  V30 11645 H 1039.66 1.85139 -0.868557 0
M  V30 11646 H 1037.82 3.81988 0.645273 0
M  V30 11647 H 1038.23 5.11783 -1.14797 0
M  V30 11648 H 1039.71 5.49545 0.520013 0
M  V30 11649 H 1040.18 4.12218 1.51568 0
M  V30 11650 H 1040.79 4.2503 -0.151608 0
M  V30 11651 N 1039.1 0.374177 1.53094 0
M  V30 11652 C 1040.05 -0.48326 2.27524 0
M  V30 11653 C 1041.05 -1.07606 1.30833 0
M  V30 11654 O 1042.25 -1.01827 1.48429 0
M  V30 11655 H 1038.63 -0.174578 0.731455 0
M  V30 11656 H 1040.6 0.166156 2.97937 0
M  V30 11657 C 1039.35 -1.6065 3.08362 0
M  V30 11658 H 1038.67 -1.15966 3.82612 0
M  V30 11659 H 1040.11 -2.18099 3.63606 0
M  V30 11660 C 1038.57 -2.55381 2.19732 0
M  V30 11661 O 1039.1 -3.58414 1.8139 0
M  V30 11662 N 1037.31 -2.24769 1.84194 0
M  V30 11663 H 1036.85 -1.41018 2.15573 0
M  V30 11664 H 1036.81 -2.88404 1.25181 0
M  V30 11665 N 1040.58 -1.57259 0.103575 0
M  V30 11666 C 1041.83 -1.94945 -0.558953 0
M  V30 11667 C 1042.16 -0.986038 -1.67305 0
M  V30 11668 O 1041.44 -0.0205464 -1.94489 0
M  V30 11669 C 1041.72 -3.42689 -1.10617 0
M  V30 11670 C 1041.57 -4.498 0.00345246 0
M  V30 11671 C 1042.89 -3.91933 -2.00191 0
M  V30 11672 H 1040.01 -0.708859 -0.201713 0
M  V30 11673 H 1042.65 -1.89183 0.176006 0
M  V30 11674 H 1040.8 -3.4773 -1.73251 0
M  V30 11675 H 1042.47 -4.56866 0.638082 0
M  V30 11676 H 1040.72 -4.28615 0.668705 0
M  V30 11677 H 1041.39 -5.50397 -0.420396 0
M  V30 11678 H 1043.86 -3.89098 -1.4745 0
M  V30 11679 H 1042.74 -4.9586 -2.35402 0
M  V30 11680 H 1043 -3.31722 -2.92255 0
M  V30 11681 N 1042.06 0.170153 -1.56679 0
M  V30 11682 C 1043.47 0.732502 -1.7173 0
M  V30 11683 C 1043.82 1.82736 -0.71428 0
M  V30 11684 O 1042.95 2.16044 0.124102 0
M  V30 11685 C 1043.54 1.33548 -3.11368 0
M  V30 11686 C 1042.1 1.84464 -3.281 0
M  V30 11687 C 1041.25 0.724069 -2.6768 0
M  V30 11688 H 1044.2 -0.0552543 -1.58604 0
M  V30 11689 H 1044.22 2.20519 -3.10083 0
M  V30 11690 H 1043.73 0.5384 -3.84347 0
M  V30 11691 H 1041.83 2.66813 -2.6008 0
M  V30 11692 H 1041.95 1.98928 -4.35849 0
M  V30 11693 H 1040.31 1.14481 -2.27522 0
M  V30 11694 H 1041.09 -0.0611861 -3.43245 0
M  V30 11695 N 1043.54 1.5137 0.438746 0
M  V30 11696 C 1044.47 1.75528 1.53987 0
M  V30 11697 C 1045.45 0.605067 1.58975 0
M  V30 11698 O 1046.63 0.847634 1.74725 0
M  V30 11699 C 1043.76 1.87904 2.92078 0
M  V30 11700 C 1042.72 3.0333 3.01951 0
M  V30 11701 C 1042.04 3.00888 4.42007 0
M  V30 11702 C 1043.34 4.43319 2.76163 0
M  V30 11703 H 1045.04 2.67728 1.34022 0
M  V30 11704 H 1042.58 1.28831 0.643308 0
M  V30 11705 H 1044.54 2.03388 3.69068 0
M  V30 11706 H 1043.26 0.923514 3.13271 0
M  V30 11707 H 1041.92 2.87549 2.274 0
M  V30 11708 H 1041.57 2.03116 4.60166 0
M  V30 11709 H 1041.27 3.78397 4.49544 0
M  V30 11710 H 1042.79 3.18464 5.20973 0
M  V30 11711 H 1044.21 4.59458 3.42887 0
M  V30 11712 H 1042.6 5.22523 2.9511 0
M  V30 11713 H 1043.67 4.53453 1.71779 0
M  V30 11714 N 1045.02 -0.694098 1.41492 0
M  V30 11715 C 1045.96 -1.80801 1.43456 0
M  V30 11716 C 1046.93 -1.63571 0.288757 0
M  V30 11717 O 1048.12 -1.844 0.490017 0
M  V30 11718 C 1045.26 -3.18694 1.32394 0
M  V30 11719 C 1044.37 -3.47346 2.56855 0
M  V30 11720 C 1043.51 -4.74862 2.38075 0
M  V30 11721 C 1042.55 -4.96486 3.58005 0
M  V30 11722 N 1041.68 -6.15229 3.38287 0
M  V30 11723 H 1046.52 -1.78457 2.38657 0
M  V30 11724 H 1044.06 -0.871455 1.18508 0
M  V30 11725 H 1046.02 -3.98352 1.23982 0
M  V30 11726 H 1044.65 -3.20211 0.407999 0
M  V30 11727 H 1043.7 -2.62083 2.75711 0
M  V30 11728 H 1045.01 -3.59226 3.4606 0
M  V30 11729 H 1044.17 -5.62577 2.27139 0
M  V30 11730 H 1042.9 -4.6523 1.46329 0
M  V30 11731 H 1041.91 -4.07219 3.69395 0
M  V30 11732 H 1043.13 -5.07976 4.50708 0
M  V30 11733 H 1041.08 -6.06807 2.49242 0
M  V30 11734 H 1041 -6.27883 4.21069 0
M  V30 11735 H 1042.27 -7.05674 3.31126 0
M  V30 11736 N 1046.49 -1.27344 -0.928501 0
M  V30 11737 C 1047.44 -1.10001 -2.029 0
M  V30 11738 C 1048.41 -0.00131084 -1.661 0
M  V30 11739 O 1049.6 -0.163485 -1.90098 0
M  V30 11740 C 1046.74 -0.7524 -3.36798 0
M  V30 11741 C 1045.85 -1.92865 -3.86558 0
M  V30 11742 C 1044.98 -1.52299 -5.08899 0
M  V30 11743 C 1044.02 -2.66677 -5.50953 0
M  V30 11744 N 1043.16 -2.26706 -6.64491 0
M  V30 11745 H 1048 -2.0417 -2.17068 0
M  V30 11746 H 1045.54 -1.01637 -1.0634 0
M  V30 11747 H 1047.5 -0.531687 -4.13798 0
M  V30 11748 H 1046.13 0.15234 -3.2244 0
M  V30 11749 H 1045.18 -2.26192 -3.05845 0
M  V30 11750 H 1046.49 -2.78668 -4.13698 0
M  V30 11751 H 1045.64 -1.26348 -5.93398 0
M  V30 11752 H 1044.38 -0.636042 -4.83535 0
M  V30 11753 H 1043.39 -2.93344 -4.65004 0
M  V30 11754 H 1044.61 -3.55992 -5.78313 0
M  V30 11755 H 1042.56 -1.40462 -6.40786 0
M  V30 11756 H 1042.48 -3.06049 -6.91281 0
M  V30 11757 H 1043.74 -2.04 -7.52333 0
M  V30 11758 N 1047.97 1.13488 -1.09353 0
M  V30 11759 C 1049.2 1.88319 -0.849681 0
M  V30 11760 C 1049.61 1.79347 0.602616 0
M  V30 11761 O 1048.95 1.15744 1.4265 0
M  V30 11762 C 1049.02 3.38698 -1.20514 0
M  V30 11763 C 1048.68 3.71452 -2.66219 0
M  V30 11764 C 1049.68 3.70755 -3.64467 0
M  V30 11765 C 1047.36 4.01132 -3.02321 0
M  V30 11766 C 1049.36 3.9928 -4.96845 0
M  V30 11767 C 1047.04 4.29318 -4.3489 0
M  V30 11768 C 1048.04 4.28376 -5.31961 0
M  V30 11769 O 1047.73 4.55872 -6.62145 0
M  V30 11770 H 1047.46 0.603053 -0.305455 0
M  V30 11771 H 1050.01 1.44592 -1.45884 0
M  V30 11772 H 1048.24 3.82925 -0.539022 0
M  V30 11773 H 1049.93 3.94852 -0.940552 0
M  V30 11774 H 1050.7 3.47901 -3.3792 0
M  V30 11775 H 1046.58 4.01013 -2.27398 0
M  V30 11776 H 1050.12 3.9846 -5.72604 0
M  V30 11777 H 1046.02 4.51644 -4.61181 0
M  V30 11778 H 1046.79 4.73544 -6.67607 0
M  V30 11779 N 1049.45 0.880621 1.30701 0
M  V30 11780 C 1050.38 0.360251 2.30704 0
M  V30 11781 C 1051.36 -0.554572 1.60806 0
M  V30 11782 O 1052.55 -0.469345 1.88443 0
M  V30 11783 C 1049.68 -0.429888 3.44629 0
M  V30 11784 C 1048.63 0.392786 4.26194 0
M  V30 11785 C 1047.96 -0.52369 5.32129 0
M  V30 11786 C 1049.26 1.63258 4.96129 0
M  V30 11787 H 1050.95 1.19591 2.74478 0
M  V30 11788 H 1048.5 0.576508 1.31956 0
M  V30 11789 H 1050.45 -0.804532 4.13649 0
M  V30 11790 H 1049.17 -1.29916 2.99649 0
M  V30 11791 H 1047.83 0.749514 3.58856 0
M  V30 11792 H 1047.48 -1.39054 4.83397 0
M  V30 11793 H 1047.18 0.0229272 5.87596 0
M  V30 11794 H 1048.71 -0.894946 6.04006 0
M  V30 11795 H 1050.12 1.32877 5.57689 0
M  V30 11796 H 1048.52 2.11906 5.61441 0
M  V30 11797 H 1049.59 2.37944 4.22505 0
M  V30 11798 N 1050.93 -1.4397 0.641131 0
M  V30 11799 C 1051.88 -2.30728 -0.0577905 0
M  V30 11800 C 1052.85 -1.44059 -0.826819 0
M  V30 11801 O 1054.03 -1.72947 -0.805853 0
M  V30 11802 C 1051.17 -3.29478 -1.02657 0
M  V30 11803 C 1050.28 -4.31247 -0.254913 0
M  V30 11804 C 1049.42 -5.17085 -1.2164 0
M  V30 11805 C 1048.46 -6.10556 -0.434481 0
M  V30 11806 N 1047.6 -6.89059 -1.34694 0
M  V30 11807 H 1052.44 -2.8995 0.687953 0
M  V30 11808 H 1049.97 -1.4285 0.351029 0
M  V30 11809 H 1051.93 -3.85228 -1.60173 0
M  V30 11810 H 1050.56 -2.71932 -1.73933 0
M  V30 11811 H 1049.61 -3.77889 0.436338 0
M  V30 11812 H 1050.92 -4.97545 0.353642 0
M  V30 11813 H 1050.08 -5.77402 -1.86258 0
M  V30 11814 H 1048.82 -4.50885 -1.85888 0
M  V30 11815 H 1047.82 -5.49339 0.225125 0
M  V30 11816 H 1049.05 -6.78795 0.203415 0
M  V30 11817 H 1046.99 -6.25518 -1.97644 0
M  V30 11818 H 1046.91 -7.51833 -0.792657 0
M  V30 11819 H 1048.18 -7.5389 -1.98165 0
M  V30 11820 N 1052.41 -0.382291 -1.52893 0
M  V30 11821 C 1053.64 0.202114 -2.05609 0
M  V30 11822 C 1054.05 1.4164 -1.25438 0
M  V30 11823 O 1053.39 1.81359 -0.292324 0
M  V30 11824 C 1053.45 0.64356 -3.53693 0
M  V30 11825 C 1053.11 -0.456305 -4.54716 0
M  V30 11826 C 1054.11 -1.3115 -5.03086 0
M  V30 11827 C 1051.8 -0.621329 -4.98442 0
M  V30 11828 C 1053.79 -2.3169 -5.938 0
M  V30 11829 C 1051.48 -1.63008 -5.88958 0
M  V30 11830 C 1052.48 -2.47629 -6.36529 0
M  V30 11831 O 1052.16 -3.46781 -7.25257 0
M  V30 11832 H 1051.9 0.0358014 -0.675051 0
M  V30 11833 H 1054.45 -0.543935 -1.98067 0
M  V30 11834 H 1052.68 1.44148 -3.58829 0
M  V30 11835 H 1054.37 1.15284 -3.89184 0
M  V30 11836 H 1055.13 -1.19528 -4.70041 0
M  V30 11837 H 1051.01 0.027593 -4.60992 0
M  V30 11838 H 1054.56 -2.97776 -6.30853 0
M  V30 11839 H 1050.45 -1.74671 -6.21418 0
M  V30 11840 H 1051.22 -3.42707 -7.433 0
M  V30 11841 N 1053.89 1.57202 -0.111913 0
M  V30 11842 C 1054.83 2.16186 0.858286 0
M  V30 11843 C 1055.83 1.10917 1.28039 0
M  V30 11844 O 1057.03 1.29233 1.25295 0
M  V30 11845 H 1053.41 0.691777 0.29487 0
M  V30 11846 H 1055.38 2.96499 0.336265 0
M  V30 11847 C 1054.13 2.77024 2.10127 0
M  V30 11848 H 1053.45 3.5772 1.78539 0
M  V30 11849 H 1054.89 3.21841 2.76033 0
M  V30 11850 C 1053.35 1.73752 2.88638 0
M  V30 11851 O 1053.88 1.18659 3.83774 0
M  V30 11852 N 1052.09 1.43855 2.52496 0
M  V30 11853 H 1051.63 1.88846 1.75199 0
M  V30 11854 H 1051.59 0.749985 3.05324 0
M  V30 11855 N 1055.36 -0.161842 1.56767 0
M  V30 11856 C 1056.33 -1.18404 1.96247 0
M  V30 11857 C 1057.33 -1.3667 0.84722 0
M  V30 11858 O 1058.52 -1.33915 1.11411 0
M  V30 11859 C 1055.65 -2.54728 2.26553 0
M  V30 11860 H 1056.84 -0.845703 2.87729 0
M  V30 11861 H 1054.39 -0.404645 1.50971 0
M  V30 11862 H 1055.13 -2.93559 1.37816 0
M  V30 11863 H 1054.91 -2.42834 3.07854 0
M  V30 11864 H 1056.4 -3.28378 2.57987 0
M  V30 11865 N 1056.84 -1.516 -0.430713 0
M  V30 11866 C 1058.07 -1.687 -1.20644 0
M  V30 11867 C 1058.49 -0.386555 -1.84085 0
M  V30 11868 O 1057.85 0.653952 -1.69095 0
M  V30 11869 C 1057.9 -2.80887 -2.2613 0
M  V30 11870 O 1057 -2.44952 -3.31772 0
M  V30 11871 H 1056.34 -0.562289 -0.353167 0
M  V30 11872 H 1058.87 -1.98198 -0.507807 0
M  V30 11873 H 1058.88 -3.05167 -2.70809 0
M  V30 11874 H 1057.56 -3.75249 -1.79334 0
M  V30 11875 H 1056.13 -2.31267 -2.92523 0
M  V30 11876 N 1058.32 0.686584 -1.41858 0
M  V30 11877 C 1059.55 1.47305 -1.44862 0
M  V30 11878 C 1059.96 1.8912 -0.0549286 0
M  V30 11879 O 1059.3 1.57941 0.938101 0
M  V30 11880 C 1059.36 2.76107 -2.30229 0
M  V30 11881 C 1059.03 2.5644 -3.78269 0
M  V30 11882 C 1060.02 2.21803 -4.70212 0
M  V30 11883 C 1057.71 2.71801 -4.22409 0
M  V30 11884 C 1059.7 2.02778 -6.04284 0
M  V30 11885 C 1057.39 2.52392 -5.56544 0
M  V30 11886 C 1058.39 2.17933 -6.47298 0
M  V30 11887 O 1058.08 1.98701 -7.78956 0
M  V30 11888 H 1057.81 0.460174 -0.495193 0
M  V30 11889 H 1060.36 0.852069 -1.86893 0
M  V30 11890 H 1058.59 3.40644 -1.83026 0
M  V30 11891 H 1060.28 3.37947 -2.24826 0
M  V30 11892 H 1061.05 2.09542 -4.37398 0
M  V30 11893 H 1056.93 2.97605 -3.52069 0
M  V30 11894 H 1060.47 1.75805 -6.75084 0
M  V30 11895 H 1056.37 2.64246 -5.88935 0
M  V30 11896 H 1057.13 2.13393 -7.90193 0
M  V30 11897 N 1059.8 1.27835 0.921735 0
M  V30 11898 C 1060.76 1.11108 2.00469 0
M  V30 11899 C 1061.76 0.053203 1.60712 0
M  V30 11900 O 1062.95 0.298308 1.71627 0
M  V30 11901 C 1060.08 0.694269 3.33755 0
M  V30 11902 H 1061.28 2.07279 2.16738 0
M  V30 11903 H 1058.83 1.10708 1.10333 0
M  V30 11904 H 1059.56 -0.268561 3.23186 0
M  V30 11905 H 1059.35 1.45836 3.6397 0
M  V30 11906 H 1060.84 0.59965 4.13272 0
M  V30 11907 N 1061.28 -1.12907 1.09954 0
M  V30 11908 C 1062.51 -1.87866 0.859656 0
M  V30 11909 C 1062.91 -1.79664 -0.593096 0
M  V30 11910 O 1062.26 -1.16499 -1.42034 0
M  V30 11911 C 1062.32 -3.38055 1.22308 0
M  V30 11912 C 1061.98 -3.70035 2.68185 0
M  V30 11913 C 1062.98 -3.68817 3.66428 0
M  V30 11914 C 1060.66 -3.99523 3.04444 0
M  V30 11915 C 1062.66 -3.96639 4.98955 0
M  V30 11916 C 1060.35 -4.27006 4.37161 0
M  V30 11917 C 1061.34 -4.25549 5.34225 0
M  V30 11918 O 1061.03 -4.52354 6.64553 0
M  V30 11919 H 1060.76 -0.601425 0.308649 0
M  V30 11920 H 1063.32 -1.43817 1.46649 0
M  V30 11921 H 1061.55 -3.82634 0.559322 0
M  V30 11922 H 1063.24 -3.94348 0.961479 0
M  V30 11923 H 1064 -3.46104 3.3976 0
M  V30 11924 H 1059.88 -3.99801 2.29521 0
M  V30 11925 H 1063.43 -3.95418 5.74709 0
M  V30 11926 H 1059.32 -4.49192 4.6357 0
M  V30 11927 H 1060.09 -4.69997 6.70108 0
M  V30 11928 N 1062.75 -0.88754 -1.30232 0
M  V30 11929 C 1064 -0.507279 -1.96043 0
M  V30 11930 C 1064.33 0.944059 -1.70052 0
M  V30 11931 O 1063.58 1.68255 -0.999444 0
M  V30 11932 C 1063.88 -0.731765 -3.49828 0
M  V30 11933 C 1063.55 -2.15858 -3.95874 0
M  V30 11934 C 1062.21 -2.54875 -4.08157 0
M  V30 11935 C 1064.56 -3.0883 -4.19849 0
M  V30 11936 C 1061.89 -3.86069 -4.41778 0
M  V30 11937 C 1064.24 -4.39559 -4.5494 0
M  V30 11938 C 1062.91 -4.78465 -4.65432 0
M  V30 11939 H 1062.18 -0.185627 -0.717373 0
M  V30 11940 H 1064.82 -1.12388 -1.55052 0
M  V30 11941 H 1063.13 -0.0321473 -3.91787 0
M  V30 11942 H 1064.83 -0.417107 -3.98825 0
M  V30 11943 H 1061.42 -1.84574 -3.86821 0
M  V30 11944 H 1065.6 -2.79906 -4.09837 0
M  V30 11945 H 1060.86 -4.1595 -4.48102 0
M  V30 11946 H 1065.03 -5.11636 -4.72442 0
M  V30 11947 H 1062.66 -5.80162 -4.91239 0
M  V30 11948 N 1064.23 1.43628 -0.648757 0
M  V30 11949 C 1065.46 2.06217 -0.167945 0
M  V30 11950 C 1065.88 1.486 1.16462 0
M  V30 11951 O 1065.23 0.61559 1.71804 0
M  V30 11952 C 1065.28 3.6144 -0.0660114 0
M  V30 11953 O 1065 4.16914 -1.34589 0
M  V30 11954 C 1066.51 4.41097 0.441408 0
M  V30 11955 H 1063.73 0.665228 -0.0878237 0
M  V30 11956 H 1066.27 1.84207 -0.888144 0
M  V30 11957 H 1064.42 3.82651 0.604722 0
M  V30 11958 H 1064.84 5.10537 -1.20218 0
M  V30 11959 H 1066.31 5.50066 0.461697 0
M  V30 11960 H 1066.79 4.13803 1.47187 0
M  V30 11961 H 1067.4 4.24845 -0.19668 0
M  V30 11962 N 1065.71 0.390394 1.52688 0
M  V30 11963 C 1066.64 -0.43567 2.294 0
M  V30 11964 C 1067.62 -1.06253 1.32832 0
M  V30 11965 O 1068.81 -1.07509 1.61726 0
M  V30 11966 C 1065.94 -1.56259 3.10162 0
M  V30 11967 C 1064.89 -1.06172 4.14622 0
M  V30 11968 C 1064.22 -2.2808 4.83615 0
M  V30 11969 C 1065.52 -0.128902 5.22141 0
M  V30 11970 H 1067.21 0.204384 2.98702 0
M  V30 11971 H 1064.76 0.0997377 1.43654 0
M  V30 11972 H 1066.71 -2.14732 3.62585 0
M  V30 11973 H 1065.43 -2.23025 2.38595 0
M  V30 11974 H 1064.09 -0.499518 3.63181 0
M  V30 11975 H 1063.74 -2.93358 4.08595 0
M  V30 11976 H 1063.44 -1.95227 5.5422 0
M  V30 11977 H 1064.96 -2.87193 5.38844 0
M  V30 11978 H 1066.38 -0.621849 5.69917 0
M  V30 11979 H 1064.78 0.109919 5.99999 0
M  V30 11980 H 1065.85 0.821884 4.77884 0
M  V30 11981 N 1067.19 -1.57141 0.120249 0
M  V30 11982 C 1068.12 -2.11097 -0.8668 0
M  V30 11983 C 1069.1 -1.02768 -1.26006 0
M  V30 11984 O 1070.28 -1.3043 -1.36089 0
M  V30 11985 C 1067.41 -2.6087 -2.1602 0
M  V30 11986 C 1066.46 -3.81095 -1.91491 0
M  V30 11987 S 1067.29 -5.23441 -1.13005 0
M  V30 11988 C 1068.45 -5.76583 -2.43521 0
M  V30 11989 H 1068.68 -2.94489 -0.407871 0
M  V30 11990 H 1066.21 -1.54116 -0.0935491 0
M  V30 11991 H 1068.17 -2.90201 -2.90333 0
M  V30 11992 H 1066.83 -1.77657 -2.5903 0
M  V30 11993 H 1066.02 -4.14074 -2.8733 0
M  V30 11994 H 1065.63 -3.52387 -1.25297 0
M  V30 11995 H 1067.92 -5.86384 -3.39352 0
M  V30 11996 H 1068.86 -6.74644 -2.15085 0
M  V30 11997 H 1069.27 -5.04657 -2.52946 0
M  V30 11998 N 1068.67 0.153526 -1.5685 0
M  V30 11999 C 1069.61 1.20896 -1.98713 0
M  V30 12000 C 1070.61 1.44839 -0.878529 0
M  V30 12001 O 1071.81 1.45208 -1.0637 0
M  V30 12002 H 1068.19 0.406797 -0.632472 0
M  V30 12003 H 1070.16 0.829145 -2.86649 0
M  V30 12004 C 1068.91 2.53642 -2.37825 0
M  V30 12005 H 1068.23 2.36047 -3.22679 0
M  V30 12006 H 1069.67 3.26136 -2.70946 0
M  V30 12007 C 1068.13 3.13706 -1.22841 0
M  V30 12008 O 1068.66 3.98246 -0.525626 0
M  V30 12009 N 1066.87 2.73059 -0.99435 0
M  V30 12010 H 1066.41 2.0441 -1.56761 0
M  V30 12011 H 1066.37 3.1358 -0.226883 0
M  V30 12012 N 1070.14 1.51827 0.422667 0
M  V30 12013 C 1071.08 1.68901 1.53453 0
M  V30 12014 C 1072.06 0.536549 1.53492 0
M  V30 12015 O 1073.24 0.762226 1.72402 0
M  V30 12016 C 1070.37 1.71599 2.92013 0
M  V30 12017 C 1069.41 2.92984 3.0994 0
M  V30 12018 S 1070.25 4.53559 2.84683 0
M  V30 12019 C 1071.4 4.59024 4.25498 0
M  V30 12020 H 1071.63 2.62943 1.38739 0
M  V30 12021 H 1069.17 1.41695 0.613347 0
M  V30 12022 H 1071.13 1.73838 3.71874 0
M  V30 12023 H 1069.79 0.787083 3.04079 0
M  V30 12024 H 1068.98 2.91315 4.1128 0
M  V30 12025 H 1068.58 2.88562 2.37924 0
M  V30 12026 H 1070.87 4.35567 5.18929 0
M  V30 12027 H 1071.82 5.60904 4.32195 0
M  V30 12028 H 1072.22 3.88193 4.09837 0
M  V30 12029 N 1071.62 -0.679052 1.4222 0
M  V30 12030 C 1072.87 -1.43485 1.41757 0
M  V30 12031 C 1073.18 -1.95567 0.0358698 0
M  V30 12032 O 1074.39 -2.71346 -0.0913713 0
M  V30 12033 C 1072.85 -2.59541 2.49332 0
M  V30 12034 C 1072.45 -2.14176 3.93488 0
M  V30 12035 C 1074.2 -3.37078 2.58029 0
M  V30 12036 C 1072.11 -3.27289 4.92581 0
M  V30 12037 H 1071.04 -0.539022 0.52723 0
M  V30 12038 H 1073.69 -0.735581 1.68111 0
M  V30 12039 H 1072.07 -3.31815 2.16135 0
M  V30 12040 H 1073.24 -1.49082 4.36017 0
M  V30 12041 H 1071.56 -1.49589 3.88603 0
M  V30 12042 H 1074.15 -4.21312 3.29242 0
M  V30 12043 H 1074.5 -3.83383 1.62245 0
M  V30 12044 H 1075.03 -2.7187 2.90399 0
M  V30 12045 H 1071.77 -2.8598 5.89827 0
M  V30 12046 H 1071.29 -3.91178 4.54687 0
M  V30 12047 H 1072.97 -3.9282 5.14103 0
M  V30 12048 N 1073.1 -1.28322 -0.914942 0
M  V30 12049 C 1074.35 -1.15179 -1.66067 0
M  V30 12050 C 1074.67 0.300279 -1.92674 0
M  V30 12051 O 1073.94 1.20821 -1.54205 0
M  V30 12052 H 1072.52 -0.423264 -0.615513 0
M  V30 12053 H 1075.18 -1.61034 -1.09791 0
M  V30 12054 H 1074.28 -1.69048 -2.62353 0
M  V30 12055 N 1074.58 1.12322 -1.10551 0
M  V30 12056 C 1075.53 2.18087 -0.755424 0
M  V30 12057 C 1076.5 1.6391 0.268805 0
M  V30 12058 O 1077.68 1.90227 0.147813 0
M  V30 12059 C 1074.82 3.4455 -0.194713 0
M  V30 12060 C 1073.93 4.12775 -1.27439 0
M  V30 12061 C 1073.07 5.26891 -0.675194 0
M  V30 12062 C 1072.11 5.86985 -1.73536 0
M  V30 12063 N 1071.24 6.92512 -1.15635 0
M  V30 12064 H 1076.08 2.47379 -1.66155 0
M  V30 12065 H 1073.62 1.21452 -0.829924 0
M  V30 12066 H 1075.58 4.16936 0.148275 0
M  V30 12067 H 1074.21 3.15671 0.674638 0
M  V30 12068 H 1073.26 3.38556 -1.73448 0
M  V30 12069 H 1074.57 4.53506 -2.07687 0
M  V30 12070 H 1073.73 6.06046 -0.281723 0
M  V30 12071 H 1072.47 4.87442 0.158708 0
M  V30 12072 H 1071.47 5.06517 -2.13825 0
M  V30 12073 H 1072.7 6.28505 -2.57213 0
M  V30 12074 H 1070.64 6.55098 -0.343928 0
M  V30 12075 H 1070.56 7.31848 -1.89565 0
M  V30 12076 H 1071.83 7.75492 -0.789463 0
M  V30 12077 N 1076.06 0.894434 1.2976 0
M  V30 12078 C 1077 0.357958 2.29829 0
M  V30 12079 C 1078 -0.540093 1.6056 0
M  V30 12080 O 1079.2 -0.423478 1.74948 0
M  V30 12081 H 1075.58 0.0971183 0.745702 0
M  V30 12082 H 1077.55 1.21542 2.72526 0
M  V30 12083 C 1076.3 -0.404126 3.45343 0
M  V30 12084 H 1075.62 0.277671 3.98835 0
M  V30 12085 H 1077.06 -0.744446 4.17413 0
M  V30 12086 C 1075.52 -1.6048 2.96222 0
M  V30 12087 O 1076.05 -2.70414 2.97051 0
M  V30 12088 N 1074.26 -1.44517 2.52117 0
M  V30 12089 H 1073.8 -0.55082 2.51642 0
M  V30 12090 H 1073.76 -2.24987 2.1961 0
M  V30 12091 N 1077.53 -1.43282 0.656365 0
M  V30 12092 C 1078.48 -2.27932 -0.0557069 0
M  V30 12093 C 1079.47 -1.40075 -0.791698 0
M  V30 12094 O 1080.66 -1.6368 -0.673646 0
M  V30 12095 C 1077.79 -3.27821 -1.01923 0
M  V30 12096 C 1076.88 -4.23164 -0.281545 0
M  V30 12097 N 1077.27 -5.00882 0.703629 0
M  V30 12098 C 1075.56 -4.42928 -0.522558 0
M  V30 12099 C 1076.27 -5.70384 1.14177 0
M  V30 12100 N 1075.24 -5.41517 0.475394 0
M  V30 12101 H 1079.04 -2.85437 0.70022 0
M  V30 12102 H 1076.56 -1.55023 0.483902 0
M  V30 12103 H 1078.55 -3.87248 -1.54418 0
M  V30 12104 H 1077.21 -2.71878 -1.77518 0
M  V30 12105 H 1078.23 -5.06461 1.08247 0
M  V30 12106 H 1074.9 -3.98051 -1.25944 0
M  V30 12107 H 1076.29 -6.42765 1.95711 0
M  V30 12108 N 1079.01 -0.398486 -1.52479 0
M  V30 12109 C 1080.29 0.238776 -1.94137 0
M  V30 12110 C 1080.67 1.63558 -1.33462 0
M  V30 12111 O 1080.02 2.22821 -0.506272 0
M  V30 12112 C 1080.23 0.255863 -3.48061 0
M  V30 12113 C 1081.58 0.480376 -4.21874 0
M  V30 12114 O 1082.6 0.335679 -3.54615 0
M  V30 12115 O 1081.46 0.764654 -5.41124 0
M  V30 12116 H 1078.55 0.150806 -0.813134 0
M  V30 12117 H 1081.1 -0.453659 -1.63524 0
M  V30 12118 H 1079.87 -0.722171 -3.84578 0
M  V30 12119 H 1079.49 0.99284 -3.85004 0
M  V30 12120 N 1080.49 1.57075 -0.12858 0
M  V30 12121 C 1081.74 1.94695 0.526952 0
M  V30 12122 C 1082.05 1.01482 1.67215 0
M  V30 12123 O 1083.26 1.28606 2.39108 0
M  V30 12124 C 1081.72 3.4605 0.988801 0
M  V30 12125 C 1081.32 4.47816 -0.128457 0
M  V30 12126 C 1083.07 3.92572 1.61517 0
M  V30 12127 C 1080.97 5.9036 0.350628 0
M  V30 12128 H 1079.9 0.726819 0.200623 0
M  V30 12129 H 1082.56 1.82295 -0.209972 0
M  V30 12130 H 1080.94 3.53718 1.78043 0
M  V30 12131 H 1082.11 4.51826 -0.904976 0
M  V30 12132 H 1080.43 4.11103 -0.662075 0
M  V30 12133 H 1083.02 4.96493 1.98491 0
M  V30 12134 H 1083.37 3.33085 2.49721 0
M  V30 12135 H 1083.9 3.87744 0.888768 0
M  V30 12136 H 1080.64 6.53624 -0.495592 0
M  V30 12137 H 1080.16 5.89749 1.09342 0
M  V30 12138 H 1081.84 6.41926 0.808717 0
M  V30 12139 N 1081.97 -0.145205 1.5693 0
M  V30 12140 C 1083.2 -0.871133 1.87336 0
M  V30 12141 C 1083.61 -1.7517 0.714992 0
M  V30 12142 O 1082.95 -1.80815 -0.324304 0
M  V30 12143 C 1083.01 -1.77775 3.12468 0
M  V30 12144 C 1082.68 -1.07416 4.44197 0
M  V30 12145 C 1083.67 -0.42722 5.18142 0
M  V30 12146 C 1081.36 -1.06313 4.9092 0
M  V30 12147 C 1083.35 0.221348 6.37016 0
M  V30 12148 C 1081.04 -0.410755 6.09718 0
M  V30 12149 C 1082.04 0.230357 6.82611 0
M  V30 12150 O 1081.73 0.872389 7.99152 0
M  V30 12151 H 1081.46 -0.257174 0.62517 0
M  V30 12152 H 1084.01 -0.142159 2.04907 0
M  V30 12153 H 1082.24 -2.54771 2.9091 0
M  V30 12154 H 1083.93 -2.37579 3.29107 0
M  V30 12155 H 1084.7 -0.427536 4.83112 0
M  V30 12156 H 1080.58 -1.55156 4.34105 0
M  V30 12157 H 1084.12 0.722349 6.9385 0
M  V30 12158 H 1080.02 -0.408112 6.44209 0
M  V30 12159 H 1080.78 0.774236 8.1483 0
M  V30 12160 N 1083.45 -1.52049 -0.414609 0
M  V30 12161 C 1084.67 -1.6997 -1.18848 0
M  V30 12162 C 1085.1 -0.406058 -1.83665 0
M  V30 12163 O 1084.46 0.635981 -1.69779 0
M  V30 12164 C 1084.5 -2.8327 -2.23138 0
M  V30 12165 O 1083.61 -2.48457 -3.29155 0
M  V30 12166 H 1082.95 -0.566003 -0.347183 0
M  V30 12167 H 1085.48 -1.98726 -0.486757 0
M  V30 12168 H 1085.49 -3.08022 -2.67557 0
M  V30 12169 H 1084.16 -3.7713 -1.75344 0
M  V30 12170 H 1082.74 -2.34357 -2.90054 0
M  V30 12171 N 1084.93 0.6715 -1.42579 0
M  V30 12172 C 1085.87 1.78496 -1.46314 0
M  V30 12173 C 1086.84 1.63091 -0.314743 0
M  V30 12174 O 1088.03 1.83597 -0.519292 0
M  V30 12175 C 1085.17 3.16548 -1.37447 0
M  V30 12176 C 1084.28 3.43216 -2.62348 0
M  V30 12177 C 1083.42 4.71014 -2.456 0
M  V30 12178 C 1082.45 4.90728 -3.65859 0
M  V30 12179 N 1081.59 6.09769 -3.48032 0
M  V30 12180 H 1086.43 1.74638 -2.41466 0
M  V30 12181 H 1083.97 0.852491 -1.19879 0
M  V30 12182 H 1085.93 3.96329 -1.30303 0
M  V30 12183 H 1084.56 3.19522 -0.458891 0
M  V30 12184 H 1083.61 2.57664 -2.79846 0
M  V30 12185 H 1084.92 3.53675 -3.51732 0
M  V30 12186 H 1084.07 5.58892 -2.3606 0
M  V30 12187 H 1082.81 4.62843 -1.53712 0
M  V30 12188 H 1081.82 4.01291 -3.75827 0
M  V30 12189 H 1083.04 5.00741 -4.58732 0
M  V30 12190 H 1080.99 6.02765 -2.58864 0
M  V30 12191 H 1080.91 6.21104 -4.31005 0
M  V30 12192 H 1082.17 7.00317 -3.42311 0
M  V30 12193 N 1086.4 1.28806 0.908124 0
M  V30 12194 C 1087.65 1.16058 1.65454 0
M  V30 12195 C 1087.97 -0.290057 1.92831 0
M  V30 12196 O 1087.24 -1.20001 1.54843 0
M  V30 12197 H 1085.82 0.426522 0.61326 0
M  V30 12198 H 1088.48 1.61614 1.08936 0
M  V30 12199 H 1087.58 1.70437 2.61453 0
M  V30 12200 N 1087.88 -1.11734 1.11145 0
M  V30 12201 C 1089.11 -1.87755 0.881062 0
M  V30 12202 C 1089.53 -1.79461 -0.563496 0
M  V30 12203 O 1088.89 -1.15481 -1.39763 0
M  V30 12204 C 1088.94 -3.34641 1.34342 0
M  V30 12205 O 1088.04 -4.09195 0.513157 0
M  V30 12206 H 1087.38 -0.583111 0.317613 0
M  V30 12207 H 1089.91 -1.41256 1.48013 0
M  V30 12208 H 1089.92 -3.85486 1.33658 0
M  V30 12209 H 1088.6 -3.39994 2.39534 0
M  V30 12210 H 1087.17 -3.68269 0.585833 0
M  V30 12211 N 1089.36 -0.901303 -1.29284 0
M  V30 12212 C 1090.78 -0.597634 -1.47988 0
M  V30 12213 C 1090.98 0.860434 -1.82205 0
M  V30 12214 O 1090.03 1.64049 -1.91948 0
M  V30 12215 C 1091.34 -1.52484 -2.5917 0
M  V30 12216 C 1092.89 -1.53021 -2.73045 0
M  V30 12217 C 1093.37 -2.44373 -3.87357 0
M  V30 12218 N 1094.86 -2.42429 -3.94693 0
M  V30 12219 C 1095.59 -3.09817 -4.82495 0
M  V30 12220 N 1095.09 -3.86489 -5.74976 0
M  V30 12221 N 1096.88 -2.98966 -4.76 0
M  V30 12222 H 1089.03 -1.84432 -1.0535 0
M  V30 12223 H 1091.3 -0.790367 -0.523473 0
M  V30 12224 H 1091 -2.56378 -2.40756 0
M  V30 12225 H 1090.88 -1.24657 -3.56006 0
M  V30 12226 H 1093.26 -0.498709 -2.90855 0
M  V30 12227 H 1093.34 -1.84886 -1.76779 0
M  V30 12228 H 1092.99 -3.47618 -3.70302 0
M  V30 12229 H 1092.92 -2.09817 -4.82995 0
M  V30 12230 H 1095.41 -1.86724 -3.28546 0
M  V30 12231 H 1095.72 -4.34959 -6.38773 0
M  V30 12232 H 1094.07 -3.90596 -5.74857 0
M  V30 12233 H 1097.26 -2.38581 -4.02737 0
M  V30 12234 H 1097.43 -3.51758 -5.44215 0
M  V30 12235 N 1090.84 1.42931 -0.663954 0
M  V30 12236 C 1092.08 2.01683 -0.181738 0
M  V30 12237 C 1092.41 1.52437 1.20802 0
M  V30 12238 O 1091.67 0.71254 1.82267 0
M  V30 12239 C 1091.97 3.57072 -0.153163 0
M  V30 12240 C 1091.63 4.25706 -1.48612 0
M  V30 12241 C 1090.29 4.4417 -1.85111 0
M  V30 12242 C 1092.65 4.6448 -2.36448 0
M  V30 12243 C 1089.97 4.98677 -3.09092 0
M  V30 12244 C 1092.33 5.20362 -3.5973 0
M  V30 12245 C 1090.99 5.37041 -3.96412 0
M  V30 12246 H 1090.26 0.73801 -0.0665026 0
M  V30 12247 H 1092.91 1.71264 -0.856791 0
M  V30 12248 H 1091.21 3.87095 0.605372 0
M  V30 12249 H 1092.91 4.00299 0.236981 0
M  V30 12250 H 1089.5 4.11686 -1.19215 0
M  V30 12251 H 1093.68 4.49898 -2.09537 0
M  V30 12252 H 1088.94 5.09776 -3.37547 0
M  V30 12253 H 1093.11 5.49352 -4.28001 0
M  V30 12254 H 1090.74 5.79042 -4.92559 0
M  V30 12255 N 1092.32 0.406567 1.52266 0
M  V30 12256 C 1093.56 -0.170305 2.02084 0
M  V30 12257 C 1093.89 -1.45008 1.29176 0
M  V30 12258 O 1093.17 -1.90399 0.39731 0
M  V30 12259 C 1093.45 -0.420627 3.57635 0
M  V30 12260 C 1093.31 0.87564 4.41194 0
M  V30 12261 C 1094.62 -1.20387 4.23314 0
M  V30 12262 H 1091.74 -0.0604219 0.734519 0
M  V30 12263 H 1094.39 0.539529 1.82179 0
M  V30 12264 H 1092.54 -1.0253 3.74726 0
M  V30 12265 H 1094.21 1.51192 4.35819 0
M  V30 12266 H 1092.45 1.48718 4.07511 0
M  V30 12267 H 1093.12 0.654916 5.48101 0
M  V30 12268 H 1095.6 -0.691972 4.10306 0
M  V30 12269 H 1094.47 -1.34776 5.32096 0
M  V30 12270 H 1094.73 -2.2238 3.82099 0
M  V30 12271 N 1093.79 -1.57004 0.136909 0
M  V30 12272 C 1095.02 -1.99866 -0.523177 0
M  V30 12273 C 1095.43 -1.01584 -1.59616 0
M  V30 12274 O 1094.78 -0.00326426 -1.837 0
M  V30 12275 C 1094.84 -3.39157 -1.19217 0
M  V30 12276 C 1094.5 -4.56231 -0.265 0
M  V30 12277 C 1095.5 -5.17457 0.503412 0
M  V30 12278 C 1093.18 -5.02009 -0.170846 0
M  V30 12279 C 1095.18 -6.22863 1.35353 0
M  V30 12280 C 1092.86 -6.07273 0.682884 0
M  V30 12281 C 1093.86 -6.67568 1.44369 0
M  V30 12282 O 1093.55 -7.70795 2.28321 0
M  V30 12283 H 1093.28 -0.661005 -0.141593 0
M  V30 12284 H 1095.84 -2.04159 0.225445 0
M  V30 12285 H 1094.07 -3.31672 -1.98823 0
M  V30 12286 H 1095.76 -3.66191 -1.75096 0
M  V30 12287 H 1096.52 -4.82994 0.440648 0
M  V30 12288 H 1092.4 -4.54813 -0.752744 0
M  V30 12289 H 1095.94 -6.69855 1.94783 0
M  V30 12290 H 1091.84 -6.41163 0.746978 0
M  V30 12291 H 1092.61 -7.87971 2.21458 0
M  V30 12292 N 1095.27 0.136881 -1.57004 0
M  V30 12293 C 1096.24 1.15267 -1.98106 0
M  V30 12294 C 1097.24 1.35305 -0.868856 0
M  V30 12295 O 1098.43 1.32126 -1.13527 0
M  V30 12296 C 1095.56 2.51092 -2.30577 0
M  V30 12297 H 1096.75 0.799821 -2.89038 0
M  V30 12298 H 1094.3 0.380576 -1.51596 0
M  V30 12299 H 1095.04 2.9133 -1.42469 0
M  V30 12300 H 1094.82 2.37906 -3.11678 0
M  V30 12301 H 1096.31 3.24232 -2.63179 0
M  V30 12302 N 1096.75 1.52266 0.40654 0
M  V30 12303 C 1097.98 1.70598 1.17945 0
M  V30 12304 C 1098.4 0.415793 1.83447 0
M  V30 12305 O 1097.76 -0.626968 1.70114 0
M  V30 12306 C 1097.81 2.84449 2.21633 0
M  V30 12307 O 1096.91 2.50199 3.27833 0
M  V30 12308 H 1096.25 0.567837 0.344177 0
M  V30 12309 H 1098.78 1.98981 0.476211 0
M  V30 12310 H 1098.79 3.09436 2.65919 0
M  V30 12311 H 1097.47 3.78055 1.73341 0
M  V30 12312 H 1096.04 2.35892 2.88807 0
M  V30 12313 N 1098.23 -0.663929 1.42933 0
M  V30 12314 C 1099.46 -1.44981 1.47187 0
M  V30 12315 C 1099.87 -1.89009 0.0850091 0
M  V30 12316 O 1099.21 -1.59413 -0.912855 0
M  V30 12317 C 1099.27 -2.72409 2.34592 0
M  V30 12318 C 1098.94 -2.5039 3.82301 0
M  V30 12319 C 1099.93 -2.14295 4.73681 0
M  V30 12320 C 1097.62 -2.65047 4.2668 0
M  V30 12321 C 1099.61 -1.93139 6.07434 0
M  V30 12322 C 1097.3 -2.43506 5.60489 0
M  V30 12323 C 1098.3 -2.07607 6.50683 0
M  V30 12324 O 1097.98 -1.86284 7.82019 0
M  V30 12325 H 1097.72 -0.452238 0.502451 0
M  V30 12326 H 1100.27 -0.822228 1.88225 0
M  V30 12327 H 1098.5 -3.37689 1.88422 0
M  V30 12328 H 1100.19 -3.34327 2.30174 0
M  V30 12329 H 1100.96 -2.02557 4.40676 0
M  V30 12330 H 1096.83 -2.91966 3.56759 0
M  V30 12331 H 1100.38 -1.65042 6.77796 0
M  V30 12332 H 1096.28 -2.54844 5.93064 0
M  V30 12333 H 1097.04 -2.00795 7.93488 0
M  V30 12334 N 1099.71 -1.29285 -0.901281 0
M  V30 12335 C 1100.96 -1.16538 -1.64626 0
M  V30 12336 C 1101.27 0.282623 -1.93547 0
M  V30 12337 O 1102.47 0.531396 -2.66249 0
M  V30 12338 C 1100.93 -2.03809 -2.96631 0
M  V30 12339 C 1100.54 -3.53423 -2.75311 0
M  V30 12340 C 1102.28 -1.99782 -3.7455 0
M  V30 12341 C 1100.19 -4.32804 -4.03032 0
M  V30 12342 H 1099.12 -0.432561 -0.617581 0
M  V30 12343 H 1101.77 -1.53912 -0.999159 0
M  V30 12344 H 1100.15 -1.59302 -3.62545 0
M  V30 12345 H 1101.33 -4.05971 -2.18 0
M  V30 12346 H 1099.64 -3.59106 -2.10789 0
M  V30 12347 H 1102.24 -2.5635 -4.69243 0
M  V30 12348 H 1102.58 -0.97743 -4.04663 0
M  V30 12349 H 1103.11 -2.42324 -3.15474 0
M  V30 12350 H 1099.85 -5.35473 -3.78086 0
M  V30 12351 H 1099.37 -3.85025 -4.59909 0
M  V30 12352 H 1101.05 -4.43383 -4.71191 0
M  V30 12353 N 1101.18 1.11143 -1.11736 0
M  V30 12354 C 1102.11 2.19339 -0.800795 0
M  V30 12355 C 1103.1 1.68508 0.23221 0
M  V30 12356 O 1104.28 1.93967 0.0950063 0
M  V30 12357 C 1101.41 3.46424 -0.246579 0
M  V30 12358 C 1100.36 4.10487 -1.21181 0
M  V30 12359 C 1099.69 5.32183 -0.518158 0
M  V30 12360 C 1100.99 4.55052 -2.56368 0
M  V30 12361 H 1102.68 2.46077 -1.70548 0
M  V30 12362 H 1100.23 1.18271 -0.821454 0
M  V30 12363 H 1102.18 4.21398 -0.0128889 0
M  V30 12364 H 1100.91 3.19154 0.693415 0
M  V30 12365 H 1099.57 3.3751 -1.43118 0
M  V30 12366 H 1099.21 5.01187 0.426742 0
M  V30 12367 H 1098.91 5.75997 -1.16196 0
M  V30 12368 H 1100.44 6.09895 -0.293333 0
M  V30 12369 H 1101.85 5.21335 -2.38501 0
M  V30 12370 H 1100.25 5.0969 -3.16758 0
M  V30 12371 H 1101.32 3.68343 -3.1536 0
M  V30 12372 N 1102.66 0.908147 1.28804 0
M  V30 12373 C 1103.91 0.53734 1.94826 0
M  V30 12374 C 1104.23 -0.920962 1.71882 0
M  V30 12375 O 1103.5 -1.65043 1.05534 0
M  V30 12376 H 1102.08 0.195729 0.720902 0
M  V30 12377 H 1104.74 1.15628 1.56895 0
M  V30 12378 H 1103.84 0.727052 3.03513 0
M  V30 12379 N 1104.14 -1.42577 0.671525 0
M  V30 12380 C 1105.07 -2.33499 0.00506984 0
M  V30 12381 C 1106.05 -1.50497 -0.792763 0
M  V30 12382 O 1107.24 -1.79109 -0.750574 0
M  V30 12383 C 1104.37 -3.34077 -0.949194 0
M  V30 12384 C 1103.32 -4.27208 -0.260187 0
M  V30 12385 C 1102.65 -5.17968 -1.32716 0
M  V30 12386 C 1103.95 -5.15192 0.858772 0
M  V30 12387 H 1105.64 -2.89477 0.764407 0
M  V30 12388 H 1103.19 -1.39191 0.369043 0
M  V30 12389 H 1105.14 -3.96594 -1.42448 0
M  V30 12390 H 1103.86 -2.76396 -1.73991 0
M  V30 12391 H 1102.52 -3.66082 0.194834 0
M  V30 12392 H 1102.17 -4.56615 -2.10979 0
M  V30 12393 H 1101.87 -5.81104 -0.871293 0
M  V30 12394 H 1103.39 -5.83359 -1.80345 0
M  V30 12395 H 1104.81 -5.71412 0.464844 0
M  V30 12396 H 1103.21 -5.87144 1.24023 0
M  V30 12397 H 1104.28 -4.53787 1.70895 0
M  V30 12398 N 1105.62 -0.414636 -1.52048 0
M  V30 12399 C 1106.86 0.159585 -2.02171 0
M  V30 12400 C 1107.2 1.44321 -1.29943 0
M  V30 12401 O 1106.47 1.90185 -0.407402 0
M  V30 12402 C 1106.76 0.401655 -3.57853 0
M  V30 12403 C 1106.61 -0.899026 -4.40724 0
M  V30 12404 C 1107.93 1.1814 -4.23947 0
M  V30 12405 H 1105.05 0.0565257 -0.734829 0
M  V30 12406 H 1107.69 -0.549183 -1.8189 0
M  V30 12407 H 1105.84 1.00541 -3.75265 0
M  V30 12408 H 1107.51 -1.53502 -4.35011 0
M  V30 12409 H 1105.75 -1.50877 -4.06717 0
M  V30 12410 H 1106.42 -0.683974 -5.47746 0
M  V30 12411 H 1108.9 0.670203 -4.10667 0
M  V30 12412 H 1107.78 1.31953 -5.32804 0
M  V30 12413 H 1108.04 2.2035 -3.83273 0
M  V30 12414 N 1107.1 1.56929 -0.145233 0
M  V30 12415 C 1108.34 1.96068 0.50632 0
M  V30 12416 C 1108.67 1.02999 1.64989 0
M  V30 12417 O 1107.93 0.0588581 1.95611 0
M  V30 12418 C 1108.23 3.41467 1.05522 0
M  V30 12419 C 1107.89 4.5089 0.0302827 0
M  V30 12420 C 1106.55 4.80542 -0.251475 0
M  V30 12421 C 1108.91 5.16917 -0.666783 0
M  V30 12422 C 1106.23 5.7353 -1.23614 0
M  V30 12423 C 1108.59 6.10965 -1.64025 0
M  V30 12424 C 1107.25 6.38998 -1.92973 0
M  V30 12425 H 1106.52 0.717464 0.185276 0
M  V30 12426 H 1109.17 1.90093 -0.23169 0
M  V30 12427 H 1107.47 3.44265 1.87053 0
M  V30 12428 H 1109.17 3.69077 1.5679 0
M  V30 12429 H 1105.76 4.2781 0.260069 0
M  V30 12430 H 1109.94 4.94142 -0.462297 0
M  V30 12431 H 1105.2 5.93543 -1.46687 0
M  V30 12432 H 1109.37 6.61204 -2.18591 0
M  V30 12433 H 1107 7.10855 -2.69423 0
M  V30 12434 N 1108.58 -0.128553 1.57075 0
M  V30 12435 C 1109.82 -0.83801 1.84347 0
M  V30 12436 C 1110.15 -1.80325 0.728906 0
M  V30 12437 O 1109.41 -1.93678 -0.280571 0
M  V30 12438 C 1109.7 -1.63027 3.18052 0
M  V30 12439 C 1109.37 -0.810171 4.43562 0
M  V30 12440 C 1108.03 -0.583984 4.77643 0
M  V30 12441 C 1110.38 -0.237896 5.20657 0
M  V30 12442 C 1107.71 0.224887 5.86269 0
M  V30 12443 C 1110.06 0.558114 6.30133 0
M  V30 12444 C 1108.73 0.794706 6.62752 0
M  V30 12445 H 1108 -0.30665 0.674572 0
M  V30 12446 H 1110.65 -0.100797 1.91235 0
M  V30 12447 H 1108.95 -2.43812 3.06697 0
M  V30 12448 H 1110.65 -2.183 3.36372 0
M  V30 12449 H 1107.24 -0.996547 4.16854 0
M  V30 12450 H 1111.42 -0.399881 4.94686 0
M  V30 12451 H 1106.68 0.417507 6.09973 0
M  V30 12452 H 1110.85 1.00859 6.89058 0
M  V30 12453 H 1108.48 1.42331 7.46757 0
M  V30 12454 N 1110.05 -1.5248 -0.398459 0
M  V30 12455 C 1111.3 -1.66287 -1.14155 0
M  V30 12456 C 1111.62 -0.40429 -1.91376 0
M  V30 12457 O 1112.82 -0.422341 -2.68195 0
M  V30 12458 C 1111.28 -2.93831 -2.07825 0
M  V30 12459 C 1110.89 -4.26836 -1.3607 0
M  V30 12460 C 1112.63 -3.17004 -2.82327 0
M  V30 12461 C 1110.54 -5.45495 -2.28451 0
M  V30 12462 H 1109.47 -0.619478 -0.42984 0
M  V30 12463 H 1112.12 -1.78972 -0.405112 0
M  V30 12464 H 1110.5 -2.7487 -2.85065 0
M  V30 12465 H 1111.67 -4.56317 -0.641205 0
M  V30 12466 H 1109.99 -4.0985 -0.735659 0
M  V30 12467 H 1112.59 -4.02834 -3.51609 0
M  V30 12468 H 1112.93 -2.3168 -3.45876 0
M  V30 12469 H 1113.46 -3.36487 -2.12183 0
M  V30 12470 H 1110.2 -6.33198 -1.69532 0
M  V30 12471 H 1109.72 -5.20338 -2.98343 0
M  V30 12472 H 1111.4 -5.78996 -2.88743 0
M  V30 12473 N 1111.53 0.65634 -1.43283 0
M  V30 12474 C 1112.44 1.79847 -1.50639 0
M  V30 12475 C 1113.46 1.69487 -0.393714 0
M  V30 12476 O 1114.63 1.90712 -0.647379 0
M  V30 12477 C 1111.7 3.16107 -1.42398 0
M  V30 12478 C 1110.76 3.38287 -2.64312 0
M  V30 12479 C 1109.99 4.68046 -2.56454 0
M  V30 12480 O 1110.22 5.4719 -1.61056 0
M  V30 12481 O 1109.15 4.91877 -3.46902 0
M  V30 12482 H 1112.98 1.76596 -2.47078 0
M  V30 12483 H 1110.56 0.814428 -1.25249 0
M  V30 12484 H 1112.44 3.97382 -1.40233 0
M  V30 12485 H 1111.12 3.19956 -0.490929 0
M  V30 12486 H 1110.02 2.56788 -2.72049 0
M  V30 12487 H 1111.36 3.39282 -3.56579 0
M  V30 12488 N 1113.01 1.29761 0.894412 0
M  V30 12489 C 1114.23 1.21064 1.68399 0
M  V30 12490 C 1114.66 -0.224608 1.86754 0
M  V30 12491 O 1114.02 -1.16199 1.39167 0
M  V30 12492 C 1114.07 1.93468 3.04306 0
M  V30 12493 O 1113.17 1.25533 3.9283 0
M  V30 12494 H 1112.51 0.419223 0.514925 0
M  V30 12495 H 1115.04 1.71421 1.11696 0
M  V30 12496 H 1115.05 2.02127 3.54413 0
M  V30 12497 H 1113.73 2.97857 2.90265 0
M  V30 12498 H 1112.3 1.25168 3.51266 0
M  V30 12499 N 1114.49 -1.10549 1.12324 0
M  V30 12500 C 1115.44 -2.14997 0.758979 0
M  V30 12501 C 1116.42 -1.59078 -0.241461 0
M  V30 12502 O 1117.61 -1.76937 -0.0471439 0
M  V30 12503 C 1114.74 -3.42633 0.21395 0
M  V30 12504 C 1113.83 -4.05487 1.24261 0
M  V30 12505 N 1114.22 -4.43064 2.43984 0
M  V30 12506 C 1112.52 -4.32534 1.08769 0
M  V30 12507 C 1113.22 -4.92427 3.09662 0
M  V30 12508 N 1112.19 -4.89161 2.37114 0
M  V30 12509 H 1116 -2.4184 1.67005 0
M  V30 12510 H 1113.51 -1.27659 1.00384 0
M  V30 12511 H 1115.51 -4.16849 -0.0651928 0
M  V30 12512 H 1114.17 -3.17249 -0.691591 0
M  V30 12513 H 1115.18 -4.34797 2.81375 0
M  V30 12514 H 1111.86 -4.16813 0.239354 0
M  V30 12515 H 1113.25 -5.31059 4.11614 0
M  V30 12516 N 1115.97 -0.914965 -1.28321 0
M  V30 12517 C 1117.21 -0.544639 -1.94208 0
M  V30 12518 C 1117.53 0.916368 -1.72806 0
M  V30 12519 O 1118.73 1.39491 -2.32926 0
M  V30 12520 C 1117.19 -0.923209 -3.47858 0
M  V30 12521 C 1116.8 -2.40403 -3.78035 0
M  V30 12522 C 1118.54 -0.623526 -4.19896 0
M  V30 12523 C 1116.45 -2.72266 -5.25 0
M  V30 12524 H 1115.38 -0.199966 -0.727 0
M  V30 12525 H 1118.03 -1.11405 -1.45812 0
M  V30 12526 H 1116.41 -0.282576 -3.94991 0
M  V30 12527 H 1117.59 -3.09149 -3.41706 0
M  V30 12528 H 1115.9 -2.67429 -3.19172 0
M  V30 12529 H 1118.5 -0.838243 -5.28089 0
M  V30 12530 H 1118.84 0.438721 -4.13982 0
M  V30 12531 H 1119.37 -1.22268 -3.78544 0
M  V30 12532 H 1116.11 -3.77349 -5.35993 0
M  V30 12533 H 1115.63 -2.08157 -5.62522 0
M  V30 12534 H 1117.31 -2.59334 -5.92752 0
M  V30 12535 N 1117.44 1.42219 -0.679077 0
M  V30 12536 C 1118.72 1.95155 -0.13188 0
M  V30 12537 C 1119.1 1.6193 1.35433 0
M  V30 12538 O 1118.45 0.917672 2.09263 0
M  V30 12539 C 1118.66 3.46635 -0.405578 0
M  V30 12540 C 1120.01 4.23359 -0.324394 0
M  V30 12541 O 1121.03 3.54578 -0.339564 0
M  V30 12542 O 1119.89 5.45831 -0.270268 0
M  V30 12543 H 1116.98 0.826983 -0.00535438 0
M  V30 12544 H 1119.53 1.52024 -0.754101 0
M  V30 12545 H 1118.3 3.6404 -1.43495 0
M  V30 12546 H 1117.92 3.96823 0.248439 0
M  V30 12547 N 1118.92 0.422693 1.51826 0
M  V30 12548 C 1120.17 -0.150066 2.01141 0
M  V30 12549 C 1120.48 -1.45059 1.31214 0
M  V30 12550 O 1121.69 -2.10542 1.71419 0
M  V30 12551 C 1120.15 -0.317985 3.58492 0
M  V30 12552 C 1119.75 0.971244 4.37345 0
M  V30 12553 C 1121.5 -0.845303 4.15999 0
M  V30 12554 C 1119.4 0.769769 5.86369 0
M  V30 12555 H 1118.33 -0.0598567 0.75162 0
M  V30 12556 H 1120.99 0.550217 1.75057 0
M  V30 12557 H 1119.37 -1.08092 3.80962 0
M  V30 12558 H 1120.54 1.74138 4.26629 0
M  V30 12559 H 1118.86 1.42599 3.91222 0
M  V30 12560 H 1121.45 -1.01229 5.2503 0
M  V30 12561 H 1121.8 -1.82375 3.74226 0
M  V30 12562 H 1122.33 -0.141067 3.9755 0
M  V30 12563 H 1119.07 1.72017 6.32527 0
M  V30 12564 H 1118.59 0.0391717 5.99787 0
M  V30 12565 H 1120.27 0.417225 6.45653 0
M  V30 12566 N 1120.4 -1.5685 0.153553 0
M  V30 12567 C 1121.36 -2.15894 -0.769564 0
M  V30 12568 C 1122.36 -1.10239 -1.17064 0
M  V30 12569 O 1123.55 -1.35845 -1.09049 0
M  V30 12570 C 1120.68 -2.72738 -2.04516 0
M  V30 12571 H 1121.88 -2.98807 -0.255842 0
M  V30 12572 H 1119.43 -1.56005 -0.0959279 0
M  V30 12573 H 1120.17 -1.9351 -2.60239 0
M  V30 12574 H 1119.95 -3.50042 -1.76672 0
M  V30 12575 H 1121.44 -3.18208 -2.70432 0
M  V30 12576 N 1121.88 0.120221 -1.57141 0
M  V30 12577 C 1123.29 0.473718 -1.52408 0
M  V30 12578 C 1123.49 1.81925 -0.866354 0
M  V30 12579 O 1122.55 2.48491 -0.448173 0
M  V30 12580 C 1123.86 0.459338 -2.97171 0
M  V30 12581 C 1125.41 0.542975 -3.08254 0
M  V30 12582 C 1125.89 0.558996 -4.54576 0
M  V30 12583 N 1127.38 0.620469 -4.59026 0
M  V30 12584 C 1128.11 0.654292 -5.69655 0
M  V30 12585 N 1127.61 0.645835 -6.89783 0
M  V30 12586 N 1129.4 0.697208 -5.57759 0
M  V30 12587 H 1121.55 -0.76142 -1.98283 0
M  V30 12588 H 1123.81 -0.280736 -0.905479 0
M  V30 12589 H 1123.52 -0.461654 -3.48657 0
M  V30 12590 H 1123.39 1.28759 -3.54543 0
M  V30 12591 H 1125.78 1.45439 -2.56772 0
M  V30 12592 H 1125.86 -0.312936 -2.53879 0
M  V30 12593 H 1125.51 -0.348367 -5.06704 0
M  V30 12594 H 1125.44 1.43177 -5.06762 0
M  V30 12595 H 1127.93 0.633218 -3.72557 0
M  V30 12596 H 1128.24 0.674233 -7.69853 0
M  V30 12597 H 1126.59 0.613279 -6.92289 0
M  V30 12598 H 1129.78 0.70117 -4.62819 0
M  V30 12599 H 1129.95 0.7201 -6.43986 0
M  V30 12600 N 1123.36 1.52689 0.390367 0
M  V30 12601 C 1124.29 1.80338 1.48325 0
M  V30 12602 C 1125.27 0.655338 1.56969 0
M  V30 12603 O 1126.45 0.902792 1.7194 0
M  V30 12604 C 1123.58 1.97101 2.85952 0
M  V30 12605 C 1122.54 3.12783 2.92148 0
M  V30 12606 C 1121.86 3.14798 4.32211 0
M  V30 12607 C 1123.16 4.5188 2.61919 0
M  V30 12608 H 1124.86 2.71857 1.25437 0
M  V30 12609 H 1122.4 1.30813 0.601995 0
M  V30 12610 H 1124.36 2.15027 3.62411 0
M  V30 12611 H 1123.08 1.02271 3.10174 0
M  V30 12612 H 1121.74 2.94638 2.18137 0
M  V30 12613 H 1121.39 2.17653 4.53471 0
M  V30 12614 H 1121.09 3.92507 4.37278 0
M  V30 12615 H 1122.61 3.34877 5.10578 0
M  V30 12616 H 1124.02 4.70134 3.28096 0
M  V30 12617 H 1122.42 5.31647 2.78337 0
M  V30 12618 H 1123.49 4.58689 1.57266 0
M  V30 12619 N 1124.83 -0.648732 1.43629 0
M  V30 12620 C 1125.78 -1.76145 1.49136 0
M  V30 12621 C 1126.75 -1.62569 0.340649 0
M  V30 12622 O 1127.94 -1.82748 0.548435 0
M  V30 12623 C 1125.08 -3.14321 1.42466 0
M  V30 12624 C 1124.19 -3.38999 2.67776 0
M  V30 12625 C 1123.32 -4.67047 2.53062 0
M  V30 12626 C 1122.36 -4.84845 3.7362 0
M  V30 12627 N 1121.5 -6.04155 3.57689 0
M  V30 12628 H 1126.34 -1.70774 2.44213 0
M  V30 12629 H 1123.88 -0.833311 1.2122 0
M  V30 12630 H 1125.84 -3.94206 1.36592 0
M  V30 12631 H 1124.47 -3.18751 0.509666 0
M  V30 12632 H 1123.52 -2.53179 2.83909 0
M  V30 12633 H 1124.83 -3.48035 3.57314 0
M  V30 12634 H 1123.98 -5.55066 2.44922 0
M  V30 12635 H 1122.72 -4.60339 1.61056 0
M  V30 12636 H 1121.73 -3.95261 3.82163 0
M  V30 12637 H 1122.95 -4.9338 4.6664 0
M  V30 12638 H 1120.9 -5.9857 2.6842 0
M  V30 12639 H 1120.82 -6.14169 4.40832 0
M  V30 12640 H 1122.08 -6.94782 3.53409 0
M  V30 12641 N 1126.31 -1.30234 -0.887518 0
M  V30 12642 C 1127.72 -1.17048 -1.45453 0
M  V30 12643 C 1128.07 0.229793 -1.9485 0
M  V30 12644 O 1127.2 1.12628 -1.84781 0
M  V30 12645 C 1127.79 -2.11876 -2.64375 0
M  V30 12646 C 1126.35 -2.02676 -3.17174 0
M  V30 12647 C 1125.5 -2.02104 -1.89866 0
M  V30 12648 H 1128.45 -1.42541 -0.697694 0
M  V30 12649 H 1128.47 -1.69811 -3.40506 0
M  V30 12650 H 1127.98 -3.13781 -2.28392 0
M  V30 12651 H 1126.09 -1.03904 -3.57819 0
M  V30 12652 H 1126.2 -2.90939 -3.80646 0
M  V30 12653 H 1124.56 -1.4687 -2.0809 0
M  V30 12654 H 1125.35 -3.05735 -1.56145 0
M  V30 12655 N 1127.79 1.09952 -1.12909 0
M  V30 12656 C 1128.74 2.16436 -0.801514 0
M  V30 12657 C 1129.71 1.64444 0.233976 0
M  V30 12658 O 1130.89 1.90497 0.10743 0
M  V30 12659 C 1128.03 3.4406 -0.267753 0
M  V30 12660 C 1127.15 4.09979 -1.36165 0
M  V30 12661 C 1126.28 5.25341 -0.786803 0
M  V30 12662 C 1125.32 5.83172 -1.85948 0
M  V30 12663 N 1124.46 6.89904 -1.30298 0
M  V30 12664 H 1129.3 2.43799 -1.71365 0
M  V30 12665 H 1126.83 1.19665 -0.855499 0
M  V30 12666 H 1128.79 4.17157 0.0598031 0
M  V30 12667 H 1127.42 3.17031 0.607528 0
M  V30 12668 H 1126.47 3.34801 -1.8059 0
M  V30 12669 H 1127.79 4.48999 -2.17259 0
M  V30 12670 H 1126.94 6.05312 -0.410211 0
M  V30 12671 H 1125.68 4.87669 0.055279 0
M  V30 12672 H 1124.68 5.01867 -2.24521 0
M  V30 12673 H 1125.91 6.22907 -2.70487 0
M  V30 12674 H 1123.85 6.54221 -0.482806 0
M  V30 12675 H 1123.77 7.27662 -2.05046 0
M  V30 12676 H 1125.04 7.73643 -0.953779 0
M  V30 12677 N 1129.27 0.921757 1.27833 0
M  V30 12678 C 1130.55 0.477706 1.89677 0
M  V30 12679 C 1130.93 -1.04392 1.83481 0
M  V30 12680 O 1130.27 -1.89549 1.27606 0
M  V30 12681 C 1130.48 1.01709 3.33851 0
M  V30 12682 C 1131.83 1.074 4.10792 0
M  V30 12683 O 1132.86 0.966295 3.42843 0
M  V30 12684 O 1131.71 1.23909 5.32268 0
M  V30 12685 H 1128.81 0.15271 0.812778 0
M  V30 12686 H 1131.35 1.01306 1.36144 0
M  V30 12687 H 1130.13 2.061 3.32623 0
M  V30 12688 H 1129.75 0.463031 3.94895 0
M  V30 12689 N 1130.75 -1.41857 0.686609 0
M  V30 12690 C 1131.99 -2.01368 0.213801 0
M  V30 12691 C 1132.32 -1.5434 -1.18361 0
M  V30 12692 O 1131.58 -0.741447 -1.81111 0
M  V30 12693 C 1131.88 -3.56783 0.209951 0
M  V30 12694 C 1131.54 -4.23288 1.55365 0
M  V30 12695 C 1130.2 -4.41169 1.92154 0
M  V30 12696 C 1132.56 -4.6066 2.43807 0
M  V30 12697 C 1129.88 -4.93697 3.16986 0
M  V30 12698 C 1132.24 -5.14573 3.67963 0
M  V30 12699 C 1130.9 -5.30667 4.04906 0
M  V30 12700 H 1130.17 -0.736858 0.0782352 0
M  V30 12701 H 1132.82 -1.69879 0.88393 0
M  V30 12702 H 1131.12 -3.88009 -0.543712 0
M  V30 12703 H 1132.82 -4.00625 -0.173267 0
M  V30 12704 H 1129.41 -4.09738 1.2575 0
M  V30 12705 H 1133.59 -4.46507 2.16668 0
M  V30 12706 H 1128.85 -5.04342 3.45615 0
M  V30 12707 H 1133.02 -5.42473 4.36687 0
M  V30 12708 H 1130.65 -5.71133 5.01709 0
M  V30 12709 N 1132.22 -0.430739 -1.51599 0
M  V30 12710 C 1133.47 0.137929 -2.0203 0
M  V30 12711 C 1133.8 1.43287 -1.31526 0
M  V30 12712 O 1133.05 1.9121 -0.416814 0
M  V30 12713 C 1133.35 0.410694 -3.55032 0
M  V30 12714 C 1133.02 -0.797634 -4.43789 0
M  V30 12715 C 1131.68 -1.12902 -4.67768 0
M  V30 12716 C 1134.03 -1.60403 -4.95904 0
M  V30 12717 C 1131.36 -2.2676 -5.41107 0
M  V30 12718 C 1133.71 -2.73354 -5.70491 0
M  V30 12719 C 1132.38 -3.06955 -5.92735 0
M  V30 12720 H 1131.65 0.0504718 -0.739279 0
M  V30 12721 H 1134.29 -0.576585 -1.82614 0
M  V30 12722 H 1132.6 1.20703 -3.72744 0
M  V30 12723 H 1134.3 0.864006 -3.91581 0
M  V30 12724 H 1130.89 -0.529397 -4.25318 0
M  V30 12725 H 1135.07 -1.36122 -4.77268 0
M  V30 12726 H 1130.33 -2.53114 -5.56546 0
M  V30 12727 H 1134.5 -3.36213 -6.09864 0
M  V30 12728 H 1132.13 -3.95293 -6.49344 0
M  V30 12729 N 1133.7 1.56767 -0.161869 0
M  V30 12730 C 1134.95 1.96594 0.485496 0
M  V30 12731 C 1135.28 1.04743 1.63887 0
M  V30 12732 O 1134.53 0.079602 1.95538 0
M  V30 12733 C 1134.83 3.42567 1.01894 0
M  V30 12734 C 1134.5 4.50897 -0.0175419 0
M  V30 12735 C 1133.16 4.80249 -0.302429 0
M  V30 12736 C 1135.51 5.16181 -0.721572 0
M  V30 12737 C 1132.84 5.72187 -1.2969 0
M  V30 12738 C 1135.19 6.09191 -1.70496 0
M  V30 12739 C 1133.86 6.36915 -1.99739 0
M  V30 12740 H 1133.13 0.719388 0.177656 0
M  V30 12741 H 1135.77 1.89837 -0.251839 0
M  V30 12742 H 1134.08 3.4623 1.83391 0
M  V30 12743 H 1135.77 3.70719 1.52867 0
M  V30 12744 H 1132.36 4.28062 0.21468 0
M  V30 12745 H 1136.55 4.93624 -0.514681 0
M  V30 12746 H 1131.8 5.91953 -1.52974 0
M  V30 12747 H 1135.98 6.58849 -2.25591 0
M  V30 12748 H 1133.61 7.07958 -2.76948 0
M  V30 12749 N 1135.18 -0.111886 1.57202 0
M  V30 12750 C 1136.11 -1.16749 1.96074 0
M  V30 12751 C 1137.09 -1.39735 0.831438 0
M  V30 12752 O 1138.28 -1.53772 1.09025 0
M  V30 12753 C 1135.4 -2.51996 2.26308 0
M  V30 12754 C 1134.45 -2.45394 3.48832 0
M  V30 12755 S 1135.28 -1.8867 5.01163 0
M  V30 12756 C 1136.44 -3.25576 5.34557 0
M  V30 12757 H 1136.67 -0.836033 2.85303 0
M  V30 12758 H 1134.2 -0.318922 1.5107 0
M  V30 12759 H 1136.16 -3.29813 2.44405 0
M  V30 12760 H 1134.82 -2.82317 1.3768 0
M  V30 12761 H 1134.02 -3.45038 3.67376 0
M  V30 12762 H 1133.62 -1.75702 3.30159 0
M  V30 12763 H 1135.91 -4.21807 5.30174 0
M  V30 12764 H 1136.85 -3.11853 6.35731 0
M  V30 12765 H 1137.26 -3.24333 4.62026 0
M  V30 12766 N 1136.66 -1.52894 -0.382264 0
M  V30 12767 C 1137.61 -1.78151 -1.46734 0
M  V30 12768 C 1138.58 -0.625034 -1.53891 0
M  V30 12769 O 1139.76 -0.865467 -1.70042 0
M  V30 12770 C 1136.9 -1.96223 -2.83885 0
M  V30 12771 C 1136.01 -3.23925 -2.85826 0
M  V30 12772 C 1135.15 -3.32277 -4.14446 0
M  V30 12773 C 1134.19 -4.54076 -4.10465 0
M  V30 12774 N 1133.32 -4.59672 -5.30703 0
M  V30 12775 H 1138.16 -2.70748 -1.24497 0
M  V30 12776 H 1135.7 -1.34135 -0.603838 0
M  V30 12777 H 1137.66 -2.04686 -3.63537 0
M  V30 12778 H 1136.29 -1.0698 -3.04557 0
M  V30 12779 H 1135.34 -3.245 -1.98505 0
M  V30 12780 H 1136.65 -4.1364 -2.78754 0
M  V30 12781 H 1135.81 -3.3996 -5.02506 0
M  V30 12782 H 1134.55 -2.40548 -4.2425 0
M  V30 12783 H 1133.55 -4.46511 -3.20793 0
M  V30 12784 H 1134.78 -5.47128 -4.02278 0
M  V30 12785 H 1132.72 -3.70838 -5.41124 0
M  V30 12786 H 1132.64 -5.43268 -5.25734 0
M  V30 12787 H 1133.91 -4.71618 -6.20642 0
M  V30 12788 N 1138.14 0.641106 -1.43971 0
M  V30 12789 C 1139.07 1.76645 -1.46046 0
M  V30 12790 C 1140.08 1.58881 -0.355049 0
M  V30 12791 O 1141.27 1.67379 -0.620207 0
M  V30 12792 C 1138.37 3.14237 -1.26918 0
M  V30 12793 C 1137.54 3.5855 -2.50521 0
M  V30 12794 C 1136.6 4.74986 -2.26438 0
M  V30 12795 O 1135.63 4.83807 -2.99866 0
M  V30 12796 N 1136.83 5.66016 -1.28866 0
M  V30 12797 H 1139.6 1.75339 -2.43056 0
M  V30 12798 H 1137.16 0.82535 -1.39282 0
M  V30 12799 H 1139.15 3.89837 -1.0867 0
M  V30 12800 H 1137.72 3.10244 -0.383082 0
M  V30 12801 H 1136.94 2.73265 -2.84112 0
M  V30 12802 H 1138.23 3.84906 -3.32754 0
M  V30 12803 H 1137.63 5.61574 -0.682018 0
M  V30 12804 H 1136.18 6.41286 -1.16599 0
M  V30 12805 N 1139.62 1.30703 0.880598 0
M  V30 12806 C 1140.84 1.22843 1.67106 0
M  V30 12807 C 1141.27 -0.204788 1.86982 0
M  V30 12808 O 1140.62 -1.14716 1.40392 0
M  V30 12809 C 1140.67 1.96685 3.02237 0
M  V30 12810 O 1139.78 1.29693 3.91476 0
M  V30 12811 H 1139.12 0.424661 0.51045 0
M  V30 12812 H 1141.65 1.72596 1.09871 0
M  V30 12813 H 1141.66 2.05874 3.52249 0
M  V30 12814 H 1140.33 3.00919 2.8709 0
M  V30 12815 H 1138.91 1.28886 3.49918 0
M  V30 12816 N 1141.09 -1.09351 1.1349 0
M  V30 12817 C 1142.02 -2.18037 0.835588 0
M  V30 12818 C 1143 -1.68856 -0.205373 0
M  V30 12819 O 1144.19 -1.94094 -0.0641357 0
M  V30 12820 C 1141.32 -3.45987 0.301661 0
M  V30 12821 C 1140.27 -4.08507 1.27696 0
M  V30 12822 C 1139.6 -5.31292 0.602758 0
M  V30 12823 C 1140.9 -4.50916 2.63575 0
M  V30 12824 H 1142.59 -2.43332 1.74441 0
M  V30 12825 H 1140.14 -1.1695 0.840166 0
M  V30 12826 H 1142.09 -4.21324 0.079928 0
M  V30 12827 H 1140.82 -3.20217 -0.642552 0
M  V30 12828 H 1139.48 -3.3519 1.4847 0
M  V30 12829 H 1139.12 -5.01802 -0.346953 0
M  V30 12830 H 1138.82 -5.74075 1.25345 0
M  V30 12831 H 1140.35 -6.09351 0.390325 0
M  V30 12832 H 1141.76 -5.17474 2.46765 0
M  V30 12833 H 1140.16 -5.04586 3.24827 0
M  V30 12834 H 1141.23 -3.63279 3.2118 0
M  V30 12835 N 1142.57 -0.928524 -1.27343 0
M  V30 12836 C 1143.98 -0.613856 -1.7632 0
M  V30 12837 C 1144.33 0.870983 -1.75808 0
M  V30 12838 O 1143.46 1.68155 -1.36209 0
M  V30 12839 C 1144.05 -1.10755 -3.20186 0
M  V30 12840 C 1142.61 -0.843532 -3.66826 0
M  V30 12841 C 1141.76 -1.26579 -2.46724 0
M  V30 12842 H 1144.71 -1.10821 -1.13598 0
M  V30 12843 H 1144.73 -0.455598 -3.77763 0
M  V30 12844 H 1144.24 -2.18825 -3.20526 0
M  V30 12845 H 1142.34 0.223334 -3.7193 0
M  V30 12846 H 1142.46 -1.46165 -4.56259 0
M  V30 12847 H 1140.82 -0.684334 -2.45334 0
M  V30 12848 H 1141.6 -2.35516 -2.49774 0
M  V30 12849 N 1144.05 1.41491 -0.694123 0
M  V30 12850 C 1145.3 2.00479 -0.221585 0
M  V30 12851 C 1145.61 1.55605 1.18518 0
M  V30 12852 O 1146.82 2.07143 1.7551 0
M  V30 12853 C 1145.27 3.5824 -0.345264 0
M  V30 12854 C 1144.88 4.12096 -1.7573 0
M  V30 12855 C 1146.63 4.24446 0.0675731 0
M  V30 12856 C 1144.53 5.62286 -1.83271 0
M  V30 12857 H 1143.46 0.749841 -0.0790854 0
M  V30 12858 H 1146.11 1.61987 -0.86211 0
M  V30 12859 H 1144.5 3.94328 0.363487 0
M  V30 12860 H 1145.67 3.8743 -2.49469 0
M  V30 12861 H 1143.98 3.58411 -2.11969 0
M  V30 12862 H 1146.58 5.34691 0.0316485 0
M  V30 12863 H 1146.92 4.01338 1.10606 0
M  V30 12864 H 1147.46 3.93388 -0.59085 0
M  V30 12865 H 1144.2 5.9022 -2.85168 0
M  V30 12866 H 1143.72 5.88883 -1.13914 0
M  V30 12867 H 1145.4 6.27033 -1.59494 0
M  V30 12868 N 1145.53 0.438773 1.51369 0
M  V30 12869 C 1146.78 -0.128723 2.01289 0
M  V30 12870 C 1147.09 -1.43659 1.32745 0
M  V30 12871 O 1148.3 -2.08712 1.73642 0
M  V30 12872 C 1146.75 -0.279945 3.5881 0
M  V30 12873 C 1146.36 1.01758 4.3629 0
M  V30 12874 C 1148.1 -0.801133 4.16872 0
M  V30 12875 C 1146.01 0.831918 5.85519 0
M  V30 12876 H 1144.94 -0.0518814 0.752213 0
M  V30 12877 H 1147.59 0.568753 1.74463 0
M  V30 12878 H 1145.97 -1.04046 3.82087 0
M  V30 12879 H 1147.15 1.78653 4.24758 0
M  V30 12880 H 1145.46 1.46741 3.89687 0
M  V30 12881 H 1148.06 -0.956548 5.26074 0
M  V30 12882 H 1148.4 -1.78396 3.76139 0
M  V30 12883 H 1148.94 -0.0988934 3.97677 0
M  V30 12884 H 1145.67 1.78716 6.30667 0
M  V30 12885 H 1145.19 0.102785 5.99712 0
M  V30 12886 H 1146.87 0.485681 6.45174 0
M  V30 12887 N 1147.01 -1.56678 0.170181 0
M  V30 12888 C 1148.28 -1.88524 -0.521362 0
M  V30 12889 C 1148.66 -1.07989 -1.81388 0
M  V30 12890 O 1148.01 -0.17347 -2.27841 0
M  V30 12891 C 1148.22 -3.40527 -0.764367 0
M  V30 12892 C 1149.57 -4.10241 -1.09487 0
M  V30 12893 O 1150.59 -3.45837 -0.852945 0
M  V30 12894 O 1149.45 -5.24022 -1.55124 0
M  V30 12895 H 1146.55 -0.782161 -0.268614 0
M  V30 12896 H 1149.09 -1.68414 0.208531 0
M  V30 12897 H 1147.86 -3.91015 0.149416 0
M  V30 12898 H 1147.49 -3.66244 -1.54762 0
M  V30 12899 N 1148.48 0.103547 -1.57259 0
M  V30 12900 C 1149.43 1.13239 -1.97891 0
M  V30 12901 C 1150.42 1.36234 -0.856105 0
M  V30 12902 O 1151.61 1.37067 -1.11989 0
M  V30 12903 C 1148.74 2.4549 -2.39979 0
M  V30 12904 C 1147.82 2.25905 -3.58926 0
M  V30 12905 N 1148.22 1.76167 -4.7413 0
M  V30 12906 C 1146.51 2.56503 -3.64859 0
M  V30 12907 C 1147.21 1.70653 -5.56105 0
M  V30 12908 N 1146.19 2.15562 -4.99033 0
M  V30 12909 H 1149.99 0.740638 -2.84415 0
M  V30 12910 H 1147.51 0.311091 -1.59393 0
M  V30 12911 H 1149.5 3.19922 -2.67312 0
M  V30 12912 H 1148.16 2.8541 -1.54827 0
M  V30 12913 H 1149.17 1.45487 -4.97045 0
M  V30 12914 H 1145.85 3.00005 -2.9035 0
M  V30 12915 H 1147.24 1.33321 -6.5854 0
M  V30 12916 N 1149.96 1.53094 0.37415 0
M  V30 12917 C 1151.21 1.69111 1.11934 0
M  V30 12918 C 1151.54 0.437252 1.89213 0
M  V30 12919 O 1150.82 -0.565298 1.86104 0
M  V30 12920 C 1151.1 2.93559 2.08554 0
M  V30 12921 C 1150.95 4.29082 1.3494 0
M  V30 12922 C 1152.27 3.13586 3.08791 0
M  V30 12923 H 1149.39 0.615383 0.405553 0
M  V30 12924 H 1152.03 1.85719 0.401078 0
M  V30 12925 H 1150.18 2.79531 2.69805 0
M  V30 12926 H 1151.85 4.54906 0.765402 0
M  V30 12927 H 1150.1 4.28884 0.651238 0
M  V30 12928 H 1150.77 5.12275 2.05616 0
M  V30 12929 H 1153.24 3.26743 2.57639 0
M  V30 12930 H 1152.12 4.02112 3.73627 0
M  V30 12931 H 1152.38 2.28475 3.78486 0
M  V30 12932 N 1151.44 -0.633461 1.44309 0
M  V30 12933 C 1152.67 -1.41827 1.50229 0
M  V30 12934 C 1153.08 -1.88786 0.125082 0
M  V30 12935 O 1152.42 -1.61314 -0.878836 0
M  V30 12936 C 1152.48 -2.67372 2.40317 0
M  V30 12937 C 1152.15 -2.42224 3.87526 0
M  V30 12938 C 1153.14 -2.04199 4.7812 0
M  V30 12939 C 1150.83 -2.55936 4.32206 0
M  V30 12940 C 1152.82 -1.80211 6.11394 0
M  V30 12941 C 1150.51 -2.31563 5.65528 0
M  V30 12942 C 1151.51 -1.93758 6.5494 0
M  V30 12943 O 1151.2 -1.69654 7.85794 0
M  V30 12944 H 1150.93 -0.441478 0.51193 0
M  V30 12945 H 1153.48 -0.782118 1.89927 0
M  V30 12946 H 1151.71 -3.33616 1.95543 0
M  V30 12947 H 1153.4 -3.2937 2.37214 0
M  V30 12948 H 1154.17 -1.93164 4.44874 0
M  V30 12949 H 1150.05 -2.84333 3.62872 0
M  V30 12950 H 1153.59 -1.50628 6.81144 0
M  V30 12951 H 1149.49 -2.42206 5.98336 0
M  V30 12952 H 1150.25 -1.83919 7.97569 0
M  V30 12953 N 1152.92 -1.31168 -0.873655 0
M  V30 12954 C 1153.87 -1.15107 -1.9681 0
M  V30 12955 C 1154.85 -0.0630813 -1.60776 0
M  V30 12956 O 1156.04 -0.28761 -1.74648 0
M  V30 12957 C 1153.17 -0.856705 -3.32439 0
M  V30 12958 C 1152.26 -1.9855 -3.74752 0
M  V30 12959 N 1152.65 -3.23213 -3.89059 0
M  V30 12960 C 1150.95 -1.8844 -4.04235 0
M  V30 12961 C 1151.65 -3.97026 -4.25141 0
M  V30 12962 N 1150.63 -3.25165 -4.35624 0
M  V30 12963 H 1154.43 -2.09643 -2.05978 0
M  V30 12964 H 1151.94 -1.22672 -1.06421 0
M  V30 12965 H 1153.94 -0.722635 -4.10589 0
M  V30 12966 H 1152.6 0.0804676 -3.246 0
M  V30 12967 H 1153.61 -3.58372 -3.73885 0
M  V30 12968 H 1150.29 -1.02164 -4.04807 0
M  V30 12969 H 1151.68 -5.04437 -4.43839 0
M  V30 12970 N 1154.4 1.08748 -1.14068 0
M  V30 12971 C 1155.34 2.15573 -0.824425 0
M  V30 12972 C 1156.31 1.64683 0.216522 0
M  V30 12973 O 1157.5 1.90601 0.0872193 0
M  V30 12974 C 1154.64 3.43756 -0.30423 0
M  V30 12975 C 1153.75 4.08512 -1.40506 0
M  V30 12976 C 1152.89 5.24477 -0.842479 0
M  V30 12977 C 1151.93 5.81167 -1.92123 0
M  V30 12978 N 1151.06 6.88483 -1.37608 0
M  V30 12979 H 1155.9 2.41968 -1.73941 0
M  V30 12980 H 1153.44 1.18751 -0.868143 0
M  V30 12981 H 1155.4 4.17197 0.0155546 0
M  V30 12982 H 1154.03 3.17658 0.573868 0
M  V30 12983 H 1153.08 3.32866 -1.84131 0
M  V30 12984 H 1154.39 4.46669 -2.2201 0
M  V30 12985 H 1153.55 6.04842 -0.474389 0
M  V30 12986 H 1152.28 4.877 0.00355212 0
M  V30 12987 H 1151.29 4.99458 -2.29831 0
M  V30 12988 H 1152.51 6.20003 -2.77079 0
M  V30 12989 H 1150.46 6.53672 -0.552168 0
M  V30 12990 H 1150.38 7.25446 -2.12752 0
M  V30 12991 H 1151.65 7.72588 -1.03578 0
M  V30 12992 N 1155.87 0.935264 1.26849 0
M  V30 12993 C 1157.15 0.497797 1.8916 0
M  V30 12994 C 1157.53 -1.02441 1.84578 0
M  V30 12995 O 1156.88 -1.88185 1.29609 0
M  V30 12996 C 1157.09 1.05244 3.32753 0
M  V30 12997 C 1158.44 1.11751 4.0963 0
M  V30 12998 O 1159.46 1.0026 3.41799 0
M  V30 12999 O 1158.32 1.29548 5.30923 0
M  V30 13000 H 1155.41 0.161322 0.811113 0
M  V30 13001 H 1157.96 1.02744 1.35062 0
M  V30 13002 H 1156.73 2.09617 3.30419 0
M  V30 13003 H 1156.36 0.504889 3.94381 0
M  V30 13004 N 1157.35 -1.41121 0.701616 0
M  V30 13005 C 1158.28 -2.33436 0.0545974 0
M  V30 13006 C 1159.26 -1.52144 -0.760662 0
M  V30 13007 O 1160.45 -1.80661 -0.712414 0
M  V30 13008 C 1157.58 -3.36015 -0.878117 0
M  V30 13009 C 1156.53 -4.27664 -0.169511 0
M  V30 13010 C 1155.86 -5.20666 -1.21699 0
M  V30 13011 C 1157.16 -5.13254 0.967859 0
M  V30 13012 H 1158.85 -2.87791 0.825637 0
M  V30 13013 H 1156.4 -1.38377 0.398484 0
M  V30 13014 H 1158.35 -3.99526 -1.34004 0
M  V30 13015 H 1157.08 -2.80024 -1.68089 0
M  V30 13016 H 1155.73 -3.65586 0.272441 0
M  V30 13017 H 1155.38 -4.60987 -2.01246 0
M  V30 13018 H 1155.08 -5.82822 -0.747836 0
M  V30 13019 H 1156.61 -5.87053 -1.6793 0
M  V30 13020 H 1158.02 -5.70298 0.585944 0
M  V30 13021 H 1156.42 -5.84381 1.3645 0
M  V30 13022 H 1157.49 -4.5006 1.80483 0
M  V30 13023 N 1158.83 -0.446794 -1.51134 0
M  V30 13024 C 1159.78 0.359865 -2.27977 0
M  V30 13025 C 1160.75 1.0086 -1.31972 0
M  V30 13026 O 1161.93 1.02569 -1.60886 0
M  V30 13027 C 1159.07 1.44978 -3.1317 0
M  V30 13028 C 1158.19 0.818243 -4.2418 0
M  V30 13029 C 1157.32 1.884 -4.96668 0
M  V30 13030 C 1156.36 1.2314 -5.99586 0
M  V30 13031 N 1155.5 2.23894 -6.65444 0
M  V30 13032 H 1160.34 -0.301775 -2.96468 0
M  V30 13033 H 1157.87 -0.160666 -1.4622 0
M  V30 13034 H 1159.83 2.09308 -3.60896 0
M  V30 13035 H 1158.46 2.08092 -2.46775 0
M  V30 13036 H 1157.51 0.0629889 -3.80348 0
M  V30 13037 H 1158.83 0.301885 -4.97886 0
M  V30 13038 H 1157.98 2.6037 -5.4799 0
M  V30 13039 H 1156.72 2.43411 -4.22614 0
M  V30 13040 H 1155.72 0.497215 -5.47547 0
M  V30 13041 H 1156.95 0.688505 -6.75601 0
M  V30 13042 H 1154.89 2.77967 -5.94197 0
M  V30 13043 H 1154.81 1.77176 -7.34945 0
M  V30 13044 H 1156.08 2.95318 -7.21393 0
M  V30 13045 N 1160.31 1.56586 -0.178487 0
M  V30 13046 C 1161.54 2.01475 0.470684 0
M  V30 13047 C 1161.95 1.0587 1.56323 0
M  V30 13048 O 1161.31 0.060749 1.82399 0
M  V30 13049 C 1161.36 3.46145 1.04238 0
M  V30 13050 O 1161.08 4.381 -0.0065582 0
M  V30 13051 C 1162.58 4.06471 1.76908 0
M  V30 13052 H 1159.8 0.660219 0.119801 0
M  V30 13053 H 1162.35 2.02542 -0.282322 0
M  V30 13054 H 1160.5 3.45831 1.74585 0
M  V30 13055 H 1160.91 5.22843 0.416554 0
M  V30 13056 H 1162.39 5.096 2.12161 0
M  V30 13057 H 1162.87 3.48974 2.66672 0
M  V30 13058 H 1163.47 4.10509 1.11186 0
M  V30 13059 N 1161.79 -0.095206 1.57312 0
M  V30 13060 C 1162.72 -1.11627 2.05089 0
M  V30 13061 C 1163.7 -1.41782 0.939787 0
M  V30 13062 O 1164.88 -1.51813 1.21105 0
M  V30 13063 C 1162.01 -2.43618 2.47523 0
M  V30 13064 C 1160.97 -2.27872 3.62296 0
M  V30 13065 C 1160.29 -3.65038 3.90706 0
M  V30 13066 C 1161.59 -1.71936 4.93189 0
M  V30 13067 H 1163.29 -0.718795 2.90644 0
M  V30 13068 H 1160.83 -0.344315 1.39823 0
M  V30 13069 H 1162.79 -3.1532 2.79556 0
M  V30 13070 H 1161.51 -2.85301 1.58968 0
M  V30 13071 H 1160.17 -1.58615 3.3051 0
M  V30 13072 H 1159.82 -4.04249 2.99319 0
M  V30 13073 H 1159.52 -3.55349 4.67976 0
M  V30 13074 H 1161.04 -4.38208 4.25213 0
M  V30 13075 H 1162.45 -2.33479 5.23603 0
M  V30 13076 H 1160.85 -1.73006 5.74621 0
M  V30 13077 H 1161.92 -0.678789 4.80125 0
M  V30 13078 N 1163.26 -1.53291 -0.366026 0
M  V30 13079 C 1164.21 -1.79697 -1.44836 0
M  V30 13080 C 1165.18 -0.641321 -1.5322 0
M  V30 13081 O 1166.37 -0.883453 -1.69115 0
M  V30 13082 C 1163.51 -1.99223 -2.81788 0
M  V30 13083 C 1162.62 -3.26938 -2.82375 0
M  V30 13084 C 1161.75 -3.36654 -4.10898 0
M  V30 13085 C 1160.79 -4.58404 -4.05626 0
M  V30 13086 N 1159.93 -4.65275 -5.25798 0
M  V30 13087 H 1164.77 -2.72053 -1.21619 0
M  V30 13088 H 1162.31 -1.34768 -0.589577 0
M  V30 13089 H 1164.27 -2.0853 -3.61346 0
M  V30 13090 H 1162.9 -1.10204 -3.03406 0
M  V30 13091 H 1161.95 -3.26587 -1.95052 0
M  V30 13092 H 1163.26 -4.16573 -2.74351 0
M  V30 13093 H 1162.41 -3.4527 -4.98872 0
M  V30 13094 H 1161.15 -2.45035 -4.21674 0
M  V30 13095 H 1160.16 -4.49888 -3.16039 0
M  V30 13096 H 1161.38 -5.51364 -3.96453 0
M  V30 13097 H 1159.33 -3.76557 -5.3716 0
M  V30 13098 H 1159.25 -5.48814 -5.19942 0
M  V30 13099 H 1160.51 -4.78175 -6.15605 0
M  V30 13100 N 1164.74 0.6258 -1.44643 0
M  V30 13101 C 1165.69 1.73751 -1.51919 0
M  V30 13102 C 1166.66 1.62007 -0.36647 0
M  V30 13103 O 1167.84 1.81852 -0.577439 0
M  V30 13104 C 1164.98 3.12015 -1.47448 0
M  V30 13105 C 1164.1 3.34696 -2.73135 0
M  V30 13106 C 1163.23 4.62962 -2.6046 0
M  V30 13107 C 1162.27 4.7884 -3.81286 0
M  V30 13108 N 1161.41 5.98388 -3.67255 0
M  V30 13109 H 1166.25 1.66867 -2.46899 0
M  V30 13110 H 1163.79 0.813921 -1.22531 0
M  V30 13111 H 1165.74 3.91983 -1.42846 0
M  V30 13112 H 1164.37 3.179 -0.560312 0
M  V30 13113 H 1163.43 2.4863 -2.87901 0
M  V30 13114 H 1164.74 3.42306 -3.62806 0
M  V30 13115 H 1163.89 5.51099 -2.53722 0
M  V30 13116 H 1162.63 4.57719 -1.68359 0
M  V30 13117 H 1161.64 3.89131 -3.88403 0
M  V30 13118 H 1162.86 4.85893 -4.74431 0
M  V30 13119 H 1160.81 5.94224 -2.77909 0
M  V30 13120 H 1160.72 6.07078 -4.50547 0
M  V30 13121 H 1161.99 6.89072 -3.64417 0
M  V30 13122 N 1166.22 1.31629 0.866686 0
M  V30 13123 C 1167.17 1.19492 1.99561 0
M  V30 13124 C 1168.16 0.102456 1.6909 0
M  V30 13125 O 1169.37 0.264571 1.78045 0
M  V30 13126 H 1165.74 0.370071 0.654638 0
M  V30 13127 H 1167.71 2.14996 2.06928 0
M  V30 13128 C 1166.46 0.92246 3.3524 0
M  V30 13129 H 1165.79 1.75524 3.59209 0
M  V30 13130 H 1167.23 0.877726 4.14816 0
M  V30 13131 C 1165.69 -0.374803 3.34809 0
M  V30 13132 O 1166.22 -1.39055 3.76864 0
M  V30 13133 N 1164.42 -0.392506 2.87937 0
M  V30 13134 H 1163.97 0.434591 2.53908 0
M  V30 13135 H 1163.93 -1.26038 2.88031 0
M  V30 13136 N 1167.7 -1.08142 1.14644 0
M  V30 13137 C 1168.94 -1.82183 0.926747 0
M  V30 13138 C 1169.3 -1.8434 -0.53692 0
M  V30 13139 O 1170.5 -2.54172 -0.874651 0
M  V30 13140 C 1168.78 -3.23726 1.51446 0
M  V30 13141 S 1170.33 -4.14612 1.43673 0
M  V30 13142 H 1167.15 -0.627815 0.333721 0
M  V30 13143 H 1169.75 -1.29968 1.46043 0
M  V30 13144 H 1168.46 -3.19741 2.57282 0
M  V30 13145 H 1167.99 -3.81016 0.979289 0
M  V30 13146 H 1170 -4.94384 0.424105 0
M  V30 13147 N 1169.18 -0.941978 -1.26351 0
M  V30 13148 C 1170.41 -0.606748 -1.97803 0
M  V30 13149 C 1170.82 0.818441 -1.70138 0
M  V30 13150 O 1170.18 1.54583 -0.970076 0
M  V30 13151 C 1170.23 -0.840431 -3.51595 0
M  V30 13152 O 1169.95 -2.20957 -3.78299 0
M  V30 13153 C 1171.45 -0.515855 -4.40288 0
M  V30 13154 H 1168.67 -0.228591 -0.630862 0
M  V30 13155 H 1171.21 -1.2629 -1.60845 0
M  V30 13156 H 1169.37 -0.230875 -3.86711 0
M  V30 13157 H 1169.78 -2.2702 -4.72824 0
M  V30 13158 H 1171.26 -0.72998 -5.47152 0
M  V30 13159 H 1171.73 0.549178 -4.35753 0
M  V30 13160 H 1172.34 -1.10417 -4.10717 0
M  V30 13161 N 1170.66 1.40747 -0.709091 0
M  V30 13162 C 1171.59 2.33404 -0.0669763 0
M  V30 13163 C 1172.57 1.52546 0.752582 0
M  V30 13164 O 1173.75 1.81036 0.702823 0
M  V30 13165 C 1170.88 3.36476 0.860285 0
M  V30 13166 C 1169.84 4.27748 0.146828 0
M  V30 13167 C 1169.16 5.21304 1.18937 0
M  V30 13168 C 1170.46 5.12734 -0.995064 0
M  V30 13169 H 1172.16 2.87349 -0.840888 0
M  V30 13170 H 1169.7 1.38163 -0.405817 0
M  V30 13171 H 1171.65 4.00231 1.31883 0
M  V30 13172 H 1170.38 2.80912 1.66602 0
M  V30 13173 H 1169.04 3.65437 -0.291826 0
M  V30 13174 H 1168.69 4.62048 1.98798 0
M  V30 13175 H 1168.39 5.8321 0.716917 0
M  V30 13176 H 1169.91 5.87936 1.64815 0
M  V30 13177 H 1171.32 5.69979 -0.61618 0
M  V30 13178 H 1169.72 5.83649 -1.39547 0
M  V30 13179 H 1170.79 4.49097 -1.82867 0
M  V30 13180 N 1172.13 0.454803 1.50895 0
M  V30 13181 C 1173.06 -0.337982 2.31041 0
M  V30 13182 C 1174.04 -1.00523 1.37219 0
M  V30 13183 O 1175.23 -1.00553 1.66141 0
M  V30 13184 C 1172.36 -1.42964 3.1651 0
M  V30 13185 C 1171.31 -0.884907 4.18752 0
M  V30 13186 C 1170.64 -2.07363 4.92854 0
M  V30 13187 C 1171.94 0.0926716 5.22218 0
M  V30 13188 H 1173.63 0.33089 2.97566 0
M  V30 13189 H 1171.18 0.160577 1.43102 0
M  V30 13190 H 1173.13 -1.9916 3.71367 0
M  V30 13191 H 1171.86 -2.12705 2.47839 0
M  V30 13192 H 1170.52 -0.345031 3.64973 0
M  V30 13193 H 1170.16 -2.75764 4.2067 0
M  V30 13194 H 1169.86 -1.71545 5.62002 0
M  V30 13195 H 1171.39 -2.6408 5.5054 0
M  V30 13196 H 1172.8 -0.379568 5.72042 0
M  V30 13197 H 1171.2 0.3643 5.98993 0
M  V30 13198 H 1172.27 1.02383 4.73968 0
M  V30 13199 N 1173.61 -1.56489 0.186789 0
M  V30 13200 C 1174.84 -2.01722 -0.459993 0
M  V30 13201 C 1175.25 -1.06697 -1.5576 0
M  V30 13202 O 1174.61 -0.0704212 -1.82364 0
M  V30 13203 C 1174.66 -3.46693 -1.02401 0
M  V30 13204 O 1174.38 -4.3809 0.0297916 0
M  V30 13205 C 1175.88 -4.07403 -1.7475 0
M  V30 13206 H 1173.1 -0.660845 -0.116298 0
M  V30 13207 H 1175.65 -2.02389 0.293059 0
M  V30 13208 H 1173.8 -3.46752 -1.72749 0
M  V30 13209 H 1174.22 -5.23057 -0.388821 0
M  V30 13210 H 1175.69 -5.10718 -2.09455 0
M  V30 13211 H 1176.17 -3.50383 -2.64818 0
M  V30 13212 H 1176.77 -4.11093 -1.09007 0
M  V30 13213 N 1175.09 0.086862 -1.5736 0
M  V30 13214 C 1176.37 0.820984 -1.77537 0
M  V30 13215 C 1176.75 1.96534 -0.770554 0
M  V30 13216 O 1176.09 2.27629 0.199334 0
M  V30 13217 C 1176.3 1.30793 -3.23565 0
M  V30 13218 C 1177.65 1.7474 -3.86977 0
M  V30 13219 O 1178.68 1.40396 -3.27364 0
M  V30 13220 O 1177.54 2.38271 -4.91822 0
M  V30 13221 H 1174.63 0.392228 -0.72807 0
M  V30 13222 H 1177.18 0.0681051 -1.69563 0
M  V30 13223 H 1175.95 0.488409 -3.8824 0
M  V30 13224 H 1175.57 2.12258 -3.36203 0
M  V30 13225 N 1176.57 1.53483 0.357892 0
M  V30 13226 C 1177.81 1.70037 1.09971 0
M  V30 13227 C 1178.14 0.456112 1.89076 0
M  V30 13228 O 1177.4 -0.562029 1.87456 0
M  V30 13229 C 1177.7 2.90654 2.07978 0
M  V30 13230 C 1177.36 4.26849 1.45295 0
M  V30 13231 C 1176.02 4.63884 1.27928 0
M  V30 13232 C 1178.38 5.11514 1.00013 0
M  V30 13233 C 1175.7 5.83213 0.638745 0
M  V30 13234 C 1178.06 6.31496 0.373568 0
M  V30 13235 C 1176.72 6.67237 0.187457 0
M  V30 13236 H 1175.99 0.622209 0.402414 0
M  V30 13237 H 1178.64 1.87679 0.380615 0
M  V30 13238 H 1176.94 2.67556 2.86219 0
M  V30 13239 H 1178.64 3.00656 2.65343 0
M  V30 13240 H 1175.23 3.97693 1.59807 0
M  V30 13241 H 1179.41 4.83446 1.12221 0
M  V30 13242 H 1174.67 6.09489 0.483035 0
M  V30 13243 H 1178.84 6.96398 0.0145346 0
M  V30 13244 H 1176.47 7.59564 -0.310933 0
M  V30 13245 N 1178.05 -0.61812 1.44973 0
M  V30 13246 C 1178.98 -1.74277 1.47318 0
M  V30 13247 C 1179.96 -1.59203 0.330627 0
M  V30 13248 O 1181.14 -1.80909 0.529558 0
M  V30 13249 C 1178.27 -3.11994 1.31823 0
M  V30 13250 C 1177.31 -3.45685 2.49809 0
M  V30 13251 S 1178.15 -3.41704 4.12309 0
M  V30 13252 C 1179.3 -4.82019 3.9926 0
M  V30 13253 H 1179.54 -1.72023 2.42478 0
M  V30 13254 H 1177.07 -0.793867 1.32428 0
M  V30 13255 H 1179.03 -3.9146 1.2357 0
M  V30 13256 H 1177.69 -3.11774 0.381521 0
M  V30 13257 H 1176.88 -4.45931 2.34864 0
M  V30 13258 H 1176.48 -2.73711 2.54869 0
M  V30 13259 H 1178.77 -5.71567 3.63754 0
M  V30 13260 H 1179.72 -5.02019 4.99382 0
M  V30 13261 H 1180.13 -4.57205 3.31095 0
M  V30 13262 N 1179.52 -1.32087 -0.859693 0
M  V30 13263 C 1180.47 -1.20601 -1.96784 0
M  V30 13264 C 1181.44 -0.089355 -1.65859 0
M  V30 13265 O 1182.63 -0.264022 -1.88964 0
M  V30 13266 C 1179.77 -0.929872 -3.32336 0
M  V30 13267 C 1178.88 -2.13084 -3.75791 0
M  V30 13268 C 1178.01 -1.79061 -5.00111 0
M  V30 13269 C 1177.05 -2.95507 -5.36043 0
M  V30 13270 N 1176.19 -2.61611 -6.5154 0
M  V30 13271 H 1181.03 -2.1539 -2.0594 0
M  V30 13272 H 1178.57 -1.07131 -1.00803 0
M  V30 13273 H 1180.52 -0.750285 -4.10398 0
M  V30 13274 H 1179.15 -0.0187929 -3.22795 0
M  V30 13275 H 1178.21 -2.42086 -2.93425 0
M  V30 13276 H 1179.52 -3.00205 -3.98344 0
M  V30 13277 H 1178.67 -1.57625 -5.85866 0
M  V30 13278 H 1177.41 -0.891459 -4.79483 0
M  V30 13279 H 1176.42 -3.17581 -4.48801 0
M  V30 13280 H 1177.64 -3.86147 -5.5863 0
M  V30 13281 H 1175.59 -1.74231 -6.32439 0
M  V30 13282 H 1175.5 -3.42262 -6.74087 0
M  V30 13283 H 1176.77 -2.43592 -7.40461 0
M  V30 13284 N 1181 1.07532 -1.15215 0
M  V30 13285 C 1182.25 1.79474 -0.920439 0
M  V30 13286 C 1182.56 1.87593 0.553926 0
M  V30 13287 O 1183.77 2.56037 0.903169 0
M  V30 13288 C 1182.23 3.22509 -1.59738 0
M  V30 13289 C 1181.83 3.22596 -3.10863 0
M  V30 13290 C 1183.58 3.99072 -1.44714 0
M  V30 13291 C 1181.48 4.60273 -3.71352 0
M  V30 13292 H 1180.41 0.672625 -0.340722 0
M  V30 13293 H 1183.07 1.2071 -1.38208 0
M  V30 13294 H 1181.45 3.81454 -1.06342 0
M  V30 13295 H 1182.62 2.73306 -3.70999 0
M  V30 13296 H 1180.94 2.5953 -3.25627 0
M  V30 13297 H 1183.53 5.00823 -1.87299 0
M  V30 13298 H 1183.88 4.14428 -0.394386 0
M  V30 13299 H 1184.41 3.46617 -1.95195 0
M  V30 13300 H 1181.15 4.50122 -4.76519 0
M  V30 13301 H 1180.67 5.09809 -3.15998 0
M  V30 13302 H 1182.35 5.29243 -3.7217 0
M  V30 13303 N 1182.48 0.948665 1.2585 0
M  V30 13304 C 1183.43 0.455115 2.28104 0
M  V30 13305 C 1184.42 -0.471508 1.62706 0
M  V30 13306 O 1185.63 -0.348895 1.76586 0
M  V30 13307 H 1182 0.128659 0.740912 0
M  V30 13308 H 1183.97 1.32991 2.67125 0
M  V30 13309 C 1182.72 -0.25729 3.46747 0
M  V30 13310 H 1182.05 0.44658 3.97298 0
M  V30 13311 H 1183.49 -0.566736 4.20195 0
M  V30 13312 C 1181.95 -1.47772 3.02762 0
M  V30 13313 O 1182.48 -2.57571 3.08253 0
M  V30 13314 N 1180.68 -1.33694 2.5802 0
M  V30 13315 H 1180.23 -0.443595 2.53752 0
M  V30 13316 H 1180.19 -2.1547 2.28954 0
M  V30 13317 N 1183.96 -1.40369 0.716545 0
M  V30 13318 C 1184.91 -2.3071 0.0645944 0
M  V30 13319 C 1185.88 -1.48239 -0.749294 0
M  V30 13320 O 1187.06 -1.76975 -0.713045 0
M  V30 13321 C 1184.2 -3.34456 -0.850478 0
M  V30 13322 C 1183.31 -4.31992 -0.0259594 0
M  V30 13323 C 1182.45 -5.22806 -0.940599 0
M  V30 13324 C 1181.49 -6.12001 -0.110228 0
M  V30 13325 N 1180.62 -6.9523 -0.979796 0
M  V30 13326 H 1185.46 -2.85896 0.840682 0
M  V30 13327 H 1183 -1.40789 0.426258 0
M  V30 13328 H 1184.96 -3.93177 -1.39528 0
M  V30 13329 H 1183.59 -2.8077 -1.59274 0
M  V30 13330 H 1182.64 -3.75045 0.636036 0
M  V30 13331 H 1183.95 -4.94971 0.616883 0
M  V30 13332 H 1183.11 -5.86463 -1.5539 0
M  V30 13333 H 1181.85 -4.60104 -1.61726 0
M  V30 13334 H 1180.85 -5.47373 0.516001 0
M  V30 13335 H 1182.08 -6.76763 0.562944 0
M  V30 13336 H 1180.02 -6.35115 -1.64209 0
M  V30 13337 H 1179.94 -7.54978 -0.393012 0
M  V30 13338 H 1181.21 -7.63335 -1.57924 0
M  V30 13339 N 1185.44 -0.462799 -1.50652 0
M  V30 13340 C 1186.38 0.349784 -2.29955 0
M  V30 13341 C 1187.38 0.997947 -1.36885 0
M  V30 13342 O 1188.58 0.93 -1.54114 0
M  V30 13343 H 1184.96 0.131635 -0.740389 0
M  V30 13344 H 1186.93 -0.33958 -2.96461 0
M  V30 13345 C 1185.68 1.42398 -3.17204 0
M  V30 13346 H 1185 0.934611 -3.88722 0
M  V30 13347 H 1186.44 1.96528 -3.75703 0
M  V30 13348 C 1184.9 2.42135 -2.34248 0
M  V30 13349 O 1185.43 3.47229 -2.01978 0
M  V30 13350 N 1183.64 2.13647 -1.96985 0
M  V30 13351 H 1183.18 1.28209 -2.23428 0
M  V30 13352 H 1183.14 2.80615 -1.41783 0
M  V30 13353 N 1186.91 1.56388 -0.195085 0
M  V30 13354 C 1188.14 2.02406 0.452399 0
M  V30 13355 C 1188.56 1.07432 1.54402 0
M  V30 13356 O 1187.92 0.0578246 1.81208 0
M  V30 13357 C 1187.97 3.46864 0.985778 0
M  V30 13358 O 1187.07 3.55007 2.09867 0
M  V30 13359 H 1186.42 0.65553 0.105719 0
M  V30 13360 H 1188.95 2.02299 -0.30596 0
M  V30 13361 H 1188.96 3.86655 1.30238 0
M  V30 13362 H 1187.63 4.15481 0.186662 0
M  V30 13363 H 1186.21 3.2709 1.79071 0
M  V30 13364 N 1188.39 -0.0785156 1.57404 0
M  V30 13365 C 1189.32 -1.12058 1.99939 0
M  V30 13366 C 1190.34 -1.35372 0.904343 0
M  V30 13367 O 1191.53 -1.33731 1.1823 0
M  V30 13368 C 1188.63 -2.47285 2.31739 0
M  V30 13369 C 1187.8 -2.44021 3.63005 0
M  V30 13370 C 1186.86 -3.61303 3.82552 0
M  V30 13371 O 1185.88 -3.43039 4.54217 0
M  V30 13372 N 1187.09 -4.81404 3.24392 0
M  V30 13373 H 1189.85 -0.758416 2.89945 0
M  V30 13374 H 1187.41 -0.267266 1.59679 0
M  V30 13375 H 1189.4 -3.24377 2.41995 0
M  V30 13376 H 1187.97 -2.75529 1.47657 0
M  V30 13377 H 1187.19 -1.52361 3.63565 0
M  V30 13378 H 1188.48 -2.38934 4.49208 0
M  V30 13379 H 1187.88 -4.99147 2.66211 0
M  V30 13380 H 1186.44 -5.56031 3.40107 0
M  V30 13381 N 1189.87 -1.5367 -0.349747 0
M  V30 13382 C 1190.82 -1.81914 -1.44948 0
M  V30 13383 C 1191.81 -0.689218 -1.54745 0
M  V30 13384 O 1193.02 -0.872448 -1.57443 0
M  V30 13385 H 1189.39 -0.576234 -0.483176 0
M  V30 13386 H 1191.36 -2.73932 -1.18338 0
M  V30 13387 C 1190.11 -2.04005 -2.81562 0
M  V30 13388 H 1189.44 -2.90399 -2.74788 0
M  V30 13389 H 1190.88 -2.27737 -3.57648 0
M  V30 13390 C 1189.34 -0.823748 -3.26674 0
M  V30 13391 O 1189.87 -0.0201351 -4.01695 0
M  V30 13392 N 1188.07 -0.642716 -2.83403 0
M  V30 13393 H 1187.62 -1.29783 -2.22517 0
M  V30 13394 H 1187.58 0.169654 -3.13942 0
M  V30 13395 N 1191.35 0.610423 -1.45298 0
M  V30 13396 C 1192.58 1.39419 -1.52466 0
M  V30 13397 C 1192.99 1.88563 -0.1551 0
M  V30 13398 O 1192.33 1.62692 0.853061 0
M  V30 13399 C 1192.39 2.63515 -2.44541 0
M  V30 13400 C 1192.06 2.36028 -3.91331 0
M  V30 13401 C 1193.05 1.96567 -4.81308 0
M  V30 13402 C 1190.74 2.49028 -4.36223 0
M  V30 13403 C 1192.73 1.70461 -6.14184 0
M  V30 13404 C 1190.42 2.22536 -5.6914 0
M  V30 13405 C 1191.42 1.83314 -6.5794 0
M  V30 13406 O 1191.1 1.57131 -7.88394 0
M  V30 13407 H 1190.84 0.433278 -0.518889 0
M  V30 13408 H 1193.39 0.751803 -1.91147 0
M  V30 13409 H 1191.62 3.30463 -2.00826 0
M  V30 13410 H 1193.31 3.25554 -2.42424 0
M  V30 13411 H 1194.08 1.86062 -4.4789 0
M  V30 13412 H 1189.95 2.78524 -3.67349 0
M  V30 13413 H 1193.5 1.39773 -6.83454 0
M  V30 13414 H 1189.4 2.32657 -6.02114 0
M  V30 13415 H 1190.16 1.71207 -8.00394 0
M  V30 13416 N 1192.83 1.32541 0.852676 0
M  V30 13417 C 1194.05 1.2636 1.64462 0
M  V30 13418 C 1194.48 -0.16508 1.87374 0
M  V30 13419 O 1193.83 -1.11712 1.42794 0
M  V30 13420 C 1193.88 2.03052 2.97997 0
M  V30 13421 O 1192.99 1.37967 3.88637 0
M  V30 13422 H 1192.33 0.435393 0.501327 0
M  V30 13423 H 1194.86 1.74888 1.06186 0
M  V30 13424 H 1194.87 2.133 3.47803 0
M  V30 13425 H 1193.54 3.06941 2.80642 0
M  V30 13426 H 1192.12 1.36279 3.47106 0
M  V30 13427 N 1194.3 -1.0692 1.15784 0
M  V30 13428 C 1195.23 -2.16216 0.881649 0
M  V30 13429 C 1196.22 -1.69253 -0.16951 0
M  V30 13430 O 1197.4 -1.94186 -0.0229511 0
M  V30 13431 C 1194.53 -3.4527 0.374982 0
M  V30 13432 C 1193.48 -4.05706 1.36332 0
M  V30 13433 C 1192.81 -5.29894 0.715317 0
M  V30 13434 C 1194.11 -4.45224 2.7308 0
M  V30 13435 H 1195.8 -2.39577 1.79563 0
M  V30 13436 H 1193.35 -1.15141 0.864784 0
M  V30 13437 H 1195.3 -4.2106 0.169279 0
M  V30 13438 H 1194.03 -3.21508 -0.574485 0
M  V30 13439 H 1192.69 -3.31965 1.55546 0
M  V30 13440 H 1192.33 -5.02425 -0.240436 0
M  V30 13441 H 1192.03 -5.71287 1.37494 0
M  V30 13442 H 1193.56 -6.08386 0.519489 0
M  V30 13443 H 1194.97 -5.12124 2.57686 0
M  V30 13444 H 1193.37 -4.97583 3.35457 0
M  V30 13445 H 1194.44 -3.56384 3.28813 0
M  V30 13446 N 1195.78 -0.955326 -1.25345 0
M  V30 13447 C 1197.01 -0.627693 -1.97149 0
M  V30 13448 C 1197.43 0.800349 -1.70997 0
M  V30 13449 O 1196.78 1.53545 -0.986417 0
M  V30 13450 C 1196.83 -0.877675 -3.50684 0
M  V30 13451 O 1196.55 -2.24957 -3.75934 0
M  V30 13452 C 1198.06 -0.562524 -4.39716 0
M  V30 13453 H 1195.28 -0.235269 -0.628402 0
M  V30 13454 H 1197.82 -1.27989 -1.59496 0
M  V30 13455 H 1195.97 -0.271878 -3.86445 0
M  V30 13456 H 1196.39 -2.32022 -4.70389 0
M  V30 13457 H 1197.86 -0.787972 -5.46347 0
M  V30 13458 H 1198.34 0.50293 -4.36311 0
M  V30 13459 H 1198.95 -1.14767 -4.09522 0
M  V30 13460 N 1197.26 1.39987 -0.723979 0
M  V30 13461 C 1198.21 2.27938 -0.0531058 0
M  V30 13462 C 1199.2 1.43693 0.723965 0
M  V30 13463 O 1200.39 1.66707 0.594785 0
M  V30 13464 C 1197.52 3.32311 0.861659 0
M  V30 13465 C 1196.6 4.24026 0.079327 0
M  V30 13466 N 1196.99 4.96954 -0.941805 0
M  V30 13467 C 1195.29 4.44917 0.310637 0
M  V30 13468 C 1195.99 5.64287 -1.41261 0
M  V30 13469 N 1194.97 5.38632 -0.733217 0
M  V30 13470 H 1198.77 2.81771 -0.835608 0
M  V30 13471 H 1196.28 1.52538 -0.557315 0
M  V30 13472 H 1198.28 3.94174 1.35766 0
M  V30 13473 H 1196.94 2.80038 1.64344 0
M  V30 13474 H 1197.95 5.0072 -1.32288 0
M  V30 13475 H 1194.63 4.03606 1.06809 0
M  V30 13476 H 1196.02 6.32695 -2.26155 0
M  V30 13477 N 1198.74 0.470782 1.50404 0
M  V30 13478 C 1199.97 -0.0820134 2.06737 0
M  V30 13479 C 1200.38 -1.33535 1.33468 0
M  V30 13480 O 1199.74 -1.77975 0.403872 0
M  V30 13481 C 1199.79 -0.370427 3.59597 0
M  V30 13482 O 1199.51 0.8332 4.30104 0
M  V30 13483 C 1201.01 -0.970222 4.32552 0
M  V30 13484 H 1198.23 0.00694502 0.670964 0
M  V30 13485 H 1200.78 0.659476 1.93575 0
M  V30 13486 H 1198.93 -1.06185 3.72563 0
M  V30 13487 H 1199.35 0.577614 5.2131 0
M  V30 13488 H 1200.82 -1.1218 5.40481 0
M  V30 13489 H 1201.3 -1.96024 3.93028 0
M  V30 13490 H 1201.9 -0.31719 4.24116 0
M  V30 13491 N 1200.22 -1.56282 0.203376 0
M  V30 13492 C 1201.13 -2.23086 -0.725922 0
M  V30 13493 C 1202.14 -1.23258 -1.22814 0
M  V30 13494 O 1203.32 -1.5602 -1.27357 0
M  V30 13495 C 1200.38 -2.88358 -1.92485 0
M  V30 13496 C 1199.45 -4.03479 -1.46639 0
M  V30 13497 C 1198.68 -4.65629 -2.60816 0
M  V30 13498 O 1198.9 -4.2672 -3.78506 0
M  V30 13499 O 1197.84 -5.54949 -2.33056 0
M  V30 13500 H 1201.66 -3.03124 -0.18694 0
M  V30 13501 H 1199.25 -1.49377 -0.0262829 0
M  V30 13502 H 1201.13 -3.29623 -2.62539 0
M  V30 13503 H 1199.8 -2.11294 -2.45228 0
M  V30 13504 H 1198.71 -3.66821 -0.734396 0
M  V30 13505 H 1200.04 -4.82232 -0.985535 0
M  V30 13506 N 1201.7 0.070167 -1.57444 0
M  V30 13507 C 1202.61 1.10106 -2.07157 0
M  V30 13508 C 1203.62 1.42293 -1.00143 0
M  V30 13509 O 1204.8 1.52437 -1.31624 0
M  V30 13510 C 1201.86 2.39486 -2.50694 0
M  V30 13511 C 1200.92 2.14255 -3.72012 0
M  V30 13512 C 1200.16 3.37466 -4.13464 0
M  V30 13513 O 1200.38 4.46645 -3.54773 0
M  V30 13514 O 1199.31 3.25583 -5.0624 0
M  V30 13515 H 1203.14 0.70873 -2.95315 0
M  V30 13516 H 1200.72 0.28441 -1.46668 0
M  V30 13517 H 1202.61 3.15625 -2.79212 0
M  V30 13518 H 1201.28 2.78095 -1.65664 0
M  V30 13519 H 1200.19 1.35816 -3.48575 0
M  V30 13520 H 1201.52 1.80525 -4.57899 0
M  V30 13521 N 1203.17 1.53854 0.341593 0
M  V30 13522 C 1204.11 1.76797 1.44284 0
M  V30 13523 C 1205.08 0.617157 1.50432 0
M  V30 13524 O 1206.27 0.85254 1.68119 0
M  V30 13525 C 1203.4 1.86837 2.82506 0
M  V30 13526 C 1202.44 3.09001 2.93974 0
M  V30 13527 S 1203.27 4.68012 2.60241 0
M  V30 13528 C 1204.43 4.80933 4.00567 0
M  V30 13529 H 1204.66 2.69927 1.24606 0
M  V30 13530 H 1202.2 1.44747 0.537375 0
M  V30 13531 H 1204.15 1.93306 3.62137 0
M  V30 13532 H 1202.82 0.947162 2.99479 0
M  V30 13533 H 1202.01 3.12707 3.9526 0
M  V30 13534 H 1201.61 3.00768 2.22294 0
M  V30 13535 H 1203.9 4.62462 4.95111 0
M  V30 13536 H 1204.85 5.83025 4.01855 0
M  V30 13537 H 1205.25 4.09372 3.88684 0
M  V30 13538 N 1204.65 -0.602709 1.4562 0
M  V30 13539 C 1205.9 -1.35769 1.49163 0
M  V30 13540 C 1206.21 -1.95102 0.139485 0
M  V30 13541 O 1207.42 -2.71449 0.0525919 0
M  V30 13542 C 1205.88 -2.45959 2.62739 0
M  V30 13543 C 1205.48 -1.93017 4.04288 0
M  V30 13544 C 1207.23 -3.22926 2.75534 0
M  V30 13545 C 1205.13 -3.00718 5.09237 0
M  V30 13546 H 1204.06 -0.510317 0.555061 0
M  V30 13547 H 1206.72 -0.645434 1.71774 0
M  V30 13548 H 1205.1 -3.19892 2.3342 0
M  V30 13549 H 1206.27 -1.2576 4.43307 0
M  V30 13550 H 1204.59 -1.2878 3.95986 0
M  V30 13551 H 1207.18 -4.03267 3.51112 0
M  V30 13552 H 1207.53 -3.74243 1.82339 0
M  V30 13553 H 1208.06 -2.56095 3.04402 0
M  V30 13554 H 1204.8 -2.54312 6.04157 0
M  V30 13555 H 1204.32 -3.66526 4.74783 0
M  V30 13556 H 1206 -3.65016 5.34202 0
M  V30 13557 N 1206.13 -1.32992 -0.845635 0
M  V30 13558 C 1207.08 -1.22682 -1.95494 0
M  V30 13559 C 1208.05 -0.106942 -1.65755 0
M  V30 13560 O 1209.23 -0.28405 -1.88674 0
M  V30 13561 C 1206.37 -0.965068 -3.31331 0
M  V30 13562 C 1205.48 -2.17058 -3.7351 0
M  V30 13563 C 1204.62 -1.84355 -4.98183 0
M  V30 13564 C 1203.66 -3.01176 -5.32878 0
M  V30 13565 N 1202.8 -2.68506 -6.48729 0
M  V30 13566 H 1207.64 -2.17562 -2.03644 0
M  V30 13567 H 1205.17 -1.08194 -0.996613 0
M  V30 13568 H 1207.13 -0.793771 -4.09579 0
M  V30 13569 H 1205.76 -0.0530285 -3.22756 0
M  V30 13570 H 1204.81 -2.45185 -2.90841 0
M  V30 13571 H 1206.12 -3.04413 -3.95138 0
M  V30 13572 H 1205.28 -1.6383 -5.84162 0
M  V30 13573 H 1204.02 -0.942264 -4.78511 0
M  V30 13574 H 1203.02 -3.22323 -4.45408 0
M  V30 13575 H 1204.25 -3.9205 -5.54503 0
M  V30 13576 H 1202.19 -1.80929 -6.30556 0
M  V30 13577 H 1202.11 -3.49392 -6.70419 0
M  V30 13578 H 1203.38 -2.51432 -7.37836 0
M  V30 13579 N 1207.61 1.06304 -1.1635 0
M  V30 13580 C 1208.86 1.78487 -0.939423 0
M  V30 13581 C 1209.17 1.8817 0.533998 0
M  V30 13582 O 1210.38 2.56981 0.875962 0
M  V30 13583 C 1208.83 3.20796 -1.63149 0
M  V30 13584 C 1208.44 3.19281 -3.14267 0
M  V30 13585 C 1210.18 3.97514 -1.48938 0
M  V30 13586 C 1208.09 4.56309 -3.76213 0
M  V30 13587 H 1207.02 0.668973 -0.347837 0
M  V30 13588 H 1209.67 1.19237 -1.3948 0
M  V30 13589 H 1208.05 3.80305 -1.10382 0
M  V30 13590 H 1209.23 2.69356 -3.73877 0
M  V30 13591 H 1207.54 2.56062 -3.28362 0
M  V30 13592 H 1210.14 4.98808 -1.926 0
M  V30 13593 H 1210.48 4.13986 -0.438319 0
M  V30 13594 H 1211.02 3.44528 -1.98861 0
M  V30 13595 H 1207.75 4.45042 -4.81267 0
M  V30 13596 H 1207.27 5.06429 -3.21388 0
M  V30 13597 H 1208.95 5.25266 -3.77762 0
M  V30 13598 N 1209.09 0.96196 1.24836 0
M  V30 13599 C 1210.02 0.506241 2.27946 0
M  V30 13600 C 1211 -0.451183 1.64007 0
M  V30 13601 O 1212.18 -0.348552 1.91046 0
M  V30 13602 C 1209.31 -0.209846 3.46665 0
M  V30 13603 C 1208.27 0.663035 4.22833 0
M  V30 13604 C 1207.59 -0.184216 5.34383 0
M  V30 13605 C 1208.89 1.94479 4.84742 0
M  V30 13606 H 1210.59 1.36805 2.66317 0
M  V30 13607 H 1208.13 0.65926 1.28023 0
M  V30 13608 H 1210.08 -0.539838 4.17928 0
M  V30 13609 H 1208.81 -1.10596 3.07305 0
M  V30 13610 H 1207.47 0.976216 3.53363 0
M  V30 13611 H 1207.12 -1.08031 4.91262 0
M  V30 13612 H 1206.82 0.39657 5.8626 0
M  V30 13613 H 1208.34 -0.509009 6.08475 0
M  V30 13614 H 1209.75 1.68074 5.48109 0
M  V30 13615 H 1208.15 2.47183 5.46828 0
M  V30 13616 H 1209.22 2.64332 4.06517 0
M  V30 13617 N 1210.56 -1.39601 0.731392 0
M  V30 13618 C 1211.81 -2.0019 0.277208 0
M  V30 13619 C 1212.13 -1.5832 -1.13841 0
M  V30 13620 O 1211.4 -0.829793 -1.77458 0
M  V30 13621 H 1209.98 -0.740344 0.0995006 0
M  V30 13622 H 1212.64 -1.70704 0.940547 0
M  V30 13623 H 1211.74 -3.10427 0.322749 0
M  V30 13624 N 1212.04 -0.478751 -1.50152 0
M  V30 13625 C 1212.97 0.301182 -2.31549 0
M  V30 13626 C 1213.95 0.983276 -1.38801 0
M  V30 13627 O 1215.14 0.978973 -1.67719 0
M  V30 13628 C 1212.27 1.3791 -3.18745 0
M  V30 13629 C 1211.22 0.818175 -4.20107 0
M  V30 13630 C 1210.55 1.99496 -4.9609 0
M  V30 13631 C 1211.85 -0.17574 -5.22004 0
M  V30 13632 H 1213.54 -0.378188 -2.97002 0
M  V30 13633 H 1211.09 -0.183323 -1.42828 0
M  V30 13634 H 1213.04 1.93227 -3.74488 0
M  V30 13635 H 1211.77 2.08735 -2.51192 0
M  V30 13636 H 1210.42 0.286924 -3.65475 0
M  V30 13637 H 1210.07 2.69036 -4.25004 0
M  V30 13638 H 1209.77 1.62582 -5.6466 0
M  V30 13639 H 1211.3 2.55288 -5.54671 0
M  V30 13640 H 1212.71 0.288513 -5.72574 0
M  V30 13641 H 1211.11 -0.459549 -5.98338 0
M  V30 13642 H 1212.18 -1.09911 -4.72279 0
M  V30 13643 N 1213.52 1.56172 -0.211661 0
M  V30 13644 C 1214.45 2.22843 0.697375 0
M  V30 13645 C 1215.43 1.19689 1.20866 0
M  V30 13646 O 1216.62 1.48245 1.25447 0
M  V30 13647 C 1213.75 2.90067 1.90993 0
M  V30 13648 C 1212.7 3.99608 1.5329 0
M  V30 13649 C 1212.03 4.54078 2.82343 0
M  V30 13650 C 1213.33 5.17169 0.730333 0
M  V30 13651 H 1215.02 2.99065 0.141533 0
M  V30 13652 H 1212.57 1.43846 0.0666337 0
M  V30 13653 H 1214.52 3.35396 2.55123 0
M  V30 13654 H 1213.24 2.11276 2.49058 0
M  V30 13655 H 1211.9 3.54995 0.915115 0
M  V30 13656 H 1211.55 3.72029 3.38531 0
M  V30 13657 H 1211.25 5.28001 2.57853 0
M  V30 13658 H 1212.77 5.02119 3.47432 0
M  V30 13659 H 1214.19 5.5894 1.2751 0
M  V30 13660 H 1212.59 5.97262 0.582916 0
M  V30 13661 H 1213.66 4.84174 -0.265157 0
M  V30 13662 N 1215 -0.0618163 1.57479 0
M  V30 13663 C 1216.23 -0.771724 1.91969 0
M  V30 13664 C 1216.64 -1.7061 0.808549 0
M  V30 13665 O 1216 -1.812 -0.217455 0
M  V30 13666 C 1216.05 -1.55687 3.26257 0
M  V30 13667 O 1215.77 -0.660032 4.331 0
M  V30 13668 C 1217.27 -2.36688 3.74825 0
M  V30 13669 H 1214.49 -0.21885 0.634307 0
M  V30 13670 H 1217.04 -0.0291068 2.04479 0
M  V30 13671 H 1215.19 -2.25167 3.15244 0
M  V30 13672 H 1215.6 -1.20715 5.1042 0
M  V30 13673 H 1217.08 -2.8722 4.7139 0
M  V30 13674 H 1217.56 -3.1666 3.0434 0
M  V30 13675 H 1218.16 -1.72346 3.88815 0
M  V30 13676 N 1216.48 -1.54033 -0.333429 0
M  V30 13677 C 1217.72 -1.72019 -1.07411 0
M  V30 13678 C 1218.06 -0.487265 -1.87988 0
M  V30 13679 O 1217.33 0.515757 -1.87537 0
M  V30 13680 C 1217.61 -2.98986 -2.00698 0
M  V30 13681 C 1217.47 -4.32509 -1.23517 0
M  V30 13682 C 1218.79 -3.21663 -3.00368 0
M  V30 13683 H 1215.9 -0.625919 -0.389094 0
M  V30 13684 H 1218.55 -1.86717 -0.351697 0
M  V30 13685 H 1216.7 -2.86586 -2.62298 0
M  V30 13686 H 1218.37 -4.56775 -0.644522 0
M  V30 13687 H 1216.61 -4.3046 -0.537298 0
M  V30 13688 H 1217.28 -5.17547 -1.91962 0
M  V30 13689 H 1219.76 -3.33459 -2.48886 0
M  V30 13690 H 1218.63 -4.11877 -3.62834 0
M  V30 13691 H 1218.9 -2.3843 -3.72295 0
M  V30 13692 N 1217.95 0.594978 -1.45938 0
M  V30 13693 C 1219.18 1.37994 -1.5416 0
M  V30 13694 C 1219.6 1.87954 -0.17848 0
M  V30 13695 O 1218.95 1.62932 0.822161 0
M  V30 13696 C 1219.01 2.57586 -2.53637 0
M  V30 13697 O 1218.73 2.09698 -3.84653 0
M  V30 13698 C 1220.23 3.50292 -2.71681 0
M  V30 13699 H 1217.45 0.421983 -0.5217 0
M  V30 13700 H 1219.99 0.724459 -1.91238 0
M  V30 13701 H 1218.15 3.19149 -2.19597 0
M  V30 13702 H 1218.56 2.87492 -4.3869 0
M  V30 13703 H 1220.03 4.30717 -3.45234 0
M  V30 13704 H 1220.51 4.01444 -1.78156 0
M  V30 13705 H 1221.12 2.94573 -3.06768 0
M  V30 13706 N 1219.43 1.33438 0.838571 0
M  V30 13707 C 1220.36 1.26344 1.96365 0
M  V30 13708 C 1221.34 0.143956 1.6949 0
M  V30 13709 O 1222.53 0.333779 1.9131 0
M  V30 13710 C 1219.66 1.0022 3.32526 0
M  V30 13711 C 1218.61 2.08466 3.73799 0
M  V30 13712 C 1217.94 1.67555 5.07769 0
M  V30 13713 C 1219.24 3.50144 3.87552 0
M  V30 13714 H 1220.93 2.20478 2.02558 0
M  V30 13715 H 1218.48 1.06139 0.973168 0
M  V30 13716 H 1220.43 0.939068 4.10803 0
M  V30 13717 H 1219.16 0.0252514 3.2659 0
M  V30 13718 H 1217.81 2.13822 2.97785 0
M  V30 13719 H 1217.46 0.685619 4.98305 0
M  V30 13720 H 1217.16 2.39993 5.36356 0
M  V30 13721 H 1218.69 1.62708 5.88522 0
M  V30 13722 H 1220.1 3.47287 4.56141 0
M  V30 13723 H 1218.5 4.21069 4.27575 0
M  V30 13724 H 1219.57 3.88628 2.89994 0
M  V30 13725 N 1220.91 -1.05686 1.16912 0
M  V30 13726 C 1222.16 -1.79006 0.965835 0
M  V30 13727 C 1222.51 -1.85774 -0.500593 0
M  V30 13728 O 1221.8 -1.34282 -1.3667 0
M  V30 13729 C 1222 -3.22779 1.53455 0
M  V30 13730 C 1221.83 -3.30023 3.05474 0
M  V30 13731 C 1220.6 -3.396 3.74166 0
M  V30 13732 C 1222.8 -3.19376 4.03117 0
M  V30 13733 N 1220.78 -3.35923 5.13838 0
M  V30 13734 C 1222.15 -3.23013 5.2921 0
M  V30 13735 C 1224.2 -3.03304 3.94856 0
M  V30 13736 C 1222.91 -3.12228 6.48002 0
M  V30 13737 C 1224.93 -2.93859 5.13226 0
M  V30 13738 C 1224.29 -2.98124 6.38202 0
M  V30 13739 H 1220.39 -0.667577 0.407266 0
M  V30 13740 H 1222.98 -1.26025 1.48411 0
M  V30 13741 H 1221.15 -3.74143 1.04268 0
M  V30 13742 H 1222.88 -3.8431 1.26839 0
M  V30 13743 H 1219.64 -3.44654 3.24824 0
M  V30 13744 H 1220.06 -3.37567 5.86837 0
M  V30 13745 H 1224.7 -2.98848 2.99081 0
M  V30 13746 H 1222.42 -3.15439 7.43992 0
M  V30 13747 H 1226.01 -2.82501 5.0861 0
M  V30 13748 H 1224.89 -2.90882 7.28256 0
M  V30 13749 N 1222.39 -0.968567 -1.24324 0
M  V30 13750 C 1223.35 -0.504307 -2.23583 0
M  V30 13751 C 1224.35 0.399626 -1.55755 0
M  V30 13752 O 1225.54 0.194966 -1.73106 0
M  V30 13753 C 1222.67 0.26956 -3.39833 0
M  V30 13754 H 1223.87 -1.3818 -2.6617 0
M  V30 13755 H 1221.42 -0.753241 -1.36952 0
M  V30 13756 H 1222.15 1.16411 -3.02686 0
M  V30 13757 H 1221.94 -0.379133 -3.90263 0
M  V30 13758 H 1223.43 0.583376 -4.13505 0
M  V30 13759 N 1223.87 1.39211 -0.738786 0
M  V30 13760 C 1224.81 2.30578 -0.10129 0
M  V30 13761 C 1225.78 1.49412 0.725616 0
M  V30 13762 O 1226.97 1.78087 0.684799 0
M  V30 13763 C 1224.11 3.35767 0.797161 0
M  V30 13764 C 1223.22 4.31979 -0.0427701 0
M  V30 13765 C 1222.36 5.24236 0.857306 0
M  V30 13766 C 1221.4 6.12099 0.0128501 0
M  V30 13767 N 1220.53 6.96701 0.869067 0
M  V30 13768 H 1225.37 2.84522 -0.88606 0
M  V30 13769 H 1222.91 1.40093 -0.448602 0
M  V30 13770 H 1224.87 3.95347 1.33255 0
M  V30 13771 H 1223.5 2.83268 1.54787 0
M  V30 13772 H 1222.55 3.73986 -0.695622 0
M  V30 13773 H 1223.86 4.93927 -0.69555 0
M  V30 13774 H 1223.02 5.88861 1.4604 0
M  V30 13775 H 1221.75 4.62619 1.54386 0
M  V30 13776 H 1220.76 5.46483 -0.603018 0
M  V30 13777 H 1221.98 6.75781 -0.67054 0
M  V30 13778 H 1219.93 6.37647 1.54084 0
M  V30 13779 H 1219.85 7.55507 0.272852 0
M  V30 13780 H 1221.12 7.65751 1.4576 0
M  V30 13781 N 1225.34 0.486708 1.49896 0
M  V30 13782 C 1226.25 -0.304222 2.32619 0
M  V30 13783 C 1227.27 -0.981103 1.43702 0
M  V30 13784 O 1228.45 -0.965639 1.76741 0
M  V30 13785 C 1225.51 -1.36301 3.18783 0
M  V30 13786 C 1224.57 -0.701082 4.23537 0
M  V30 13787 C 1223.81 -1.70943 5.05583 0
M  V30 13788 O 1224.03 -2.93773 4.88931 0
M  V30 13789 O 1222.96 -1.27263 5.88292 0
M  V30 13790 H 1226.79 0.37248 3.01407 0
M  V30 13791 H 1224.37 0.248277 1.47323 0
M  V30 13792 H 1226.26 -1.97594 3.72202 0
M  V30 13793 H 1224.93 -2.0229 2.52706 0
M  V30 13794 H 1223.84 -0.0487926 3.74068 0
M  V30 13795 H 1225.17 -0.0838817 4.92129 0
M  V30 13796 N 1226.82 -1.56058 0.219941 0
M  V30 13797 C 1228.07 -1.97869 -0.411383 0
M  V30 13798 C 1228.39 -1.10878 -1.60409 0
M  V30 13799 O 1227.66 -0.185454 -1.9502 0
M  V30 13800 H 1226.24 -0.730747 -0.154979 0
M  V30 13801 H 1228.9 -1.92379 0.312461 0
M  V30 13802 H 1228 -3.0323 -0.738798 0
M  V30 13803 N 1228.3 0.053464 -1.57509 0
M  V30 13804 C 1229.25 1.06155 -2.04939 0
M  V30 13805 C 1230.22 1.37382 -0.93357 0
M  V30 13806 O 1231.4 1.48137 -1.2025 0
M  V30 13807 C 1228.54 2.36476 -2.51343 0
M  V30 13808 C 1227.66 2.1162 -3.76618 0
M  V30 13809 C 1226.79 3.35636 -4.11731 0
M  V30 13810 C 1225.83 3.06226 -5.29993 0
M  V30 13811 N 1224.97 4.22623 -5.60655 0
M  V30 13812 H 1229.81 0.650122 -2.90822 0
M  V30 13813 H 1227.34 0.309421 -1.43809 0
M  V30 13814 H 1229.3 3.12588 -2.76306 0
M  V30 13815 H 1227.93 2.75386 -1.68411 0
M  V30 13816 H 1226.98 1.26116 -3.58886 0
M  V30 13817 H 1228.3 1.85909 -4.6286 0
M  V30 13818 H 1227.45 4.20132 -4.37692 0
M  V30 13819 H 1226.19 3.64439 -3.24092 0
M  V30 13820 H 1225.19 2.20128 -5.03809 0
M  V30 13821 H 1226.42 2.78726 -6.19265 0
M  V30 13822 H 1224.37 4.51424 -4.75976 0
M  V30 13823 H 1224.28 4.0025 -6.41355 0
M  V30 13824 H 1225.55 5.08063 -5.91178 0
M  V30 13825 N 1229.78 1.54207 0.325255 0
M  V30 13826 C 1230.73 1.83474 1.40021 0
M  V30 13827 C 1231.7 0.681719 1.51466 0
M  V30 13828 O 1232.88 0.92798 1.66713 0
M  V30 13829 C 1230.02 2.06624 2.76407 0
M  V30 13830 C 1229.13 3.3431 2.73607 0
M  V30 13831 C 1228.27 3.4743 4.01828 0
M  V30 13832 C 1227.31 4.68997 3.93329 0
M  V30 13833 N 1226.45 4.79052 5.13277 0
M  V30 13834 H 1231.29 2.75182 1.14363 0
M  V30 13835 H 1228.82 1.36284 0.553639 0
M  V30 13836 H 1230.78 2.18037 3.5569 0
M  V30 13837 H 1229.41 1.18209 3.00377 0
M  V30 13838 H 1228.46 3.31643 1.86324 0
M  V30 13839 H 1229.77 4.237 2.6321 0
M  V30 13840 H 1228.93 3.58376 4.89542 0
M  V30 13841 H 1227.67 2.56128 4.1503 0
M  V30 13842 H 1226.67 4.58109 3.04 0
M  V30 13843 H 1227.9 5.61681 3.81695 0
M  V30 13844 H 1225.84 3.90666 5.26988 0
M  V30 13845 H 1225.76 5.62406 5.05208 0
M  V30 13846 H 1227.03 4.94328 6.02711 0
M  V30 13847 N 1231.26 -0.58723 1.46251 0
M  V30 13848 C 1232.48 -1.37661 1.55126 0
M  V30 13849 C 1232.91 -1.87123 0.191489 0
M  V30 13850 O 1232.27 -1.6131 -0.827576 0
M  V30 13851 C 1232.31 -2.54324 2.5564 0
M  V30 13852 O 1231.42 -3.55617 2.0883 0
M  V30 13853 H 1230.76 -0.410154 0.522178 0
M  V30 13854 H 1233.29 -0.712738 1.91784 0
M  V30 13855 H 1233.3 -3.01301 2.75103 0
M  V30 13856 H 1231.97 -2.17675 3.54387 0
M  V30 13857 H 1230.55 -3.15151 1.99335 0
M  V30 13858 N 1232.74 -1.33881 -0.831482 0
M  V30 13859 C 1233.98 -1.25942 -1.58955 0
M  V30 13860 C 1234.31 0.172542 -1.93432 0
M  V30 13861 O 1233.59 1.11577 -1.59314 0
M  V30 13862 C 1233.87 -2.14193 -2.89471 0
M  V30 13863 C 1233.73 -3.65883 -2.61628 0
M  V30 13864 C 1235.04 -2.02071 -3.90967 0
M  V30 13865 H 1232.16 -0.458841 -0.576744 0
M  V30 13866 H 1234.81 -1.64052 -0.958482 0
M  V30 13867 H 1232.96 -1.81821 -3.43327 0
M  V30 13868 H 1234.63 -4.08581 -2.14148 0
M  V30 13869 H 1232.87 -3.87397 -1.95208 0
M  V30 13870 H 1233.54 -4.22988 -3.54662 0
M  V30 13871 H 1236.02 -2.30476 -3.46439 0
M  V30 13872 H 1234.89 -2.66059 -4.80108 0
M  V30 13873 H 1235.15 -0.995121 -4.30755 0
M  V30 13874 N 1234.21 1.05064 -1.1747 0
M  V30 13875 C 1235.44 1.81497 -0.987031 0
M  V30 13876 C 1235.85 1.83323 0.467921 0
M  V30 13877 O 1235.19 1.26006 1.33672 0
M  V30 13878 C 1235.26 3.28826 -1.45306 0
M  V30 13879 C 1234.92 3.50681 -2.93039 0
M  V30 13880 C 1235.92 3.42699 -3.90965 0
M  V30 13881 C 1233.6 3.77602 -3.31243 0
M  V30 13882 C 1235.6 3.61325 -5.25093 0
M  V30 13883 C 1233.28 3.95876 -4.65538 0
M  V30 13884 C 1234.28 3.87737 -5.62271 0
M  V30 13885 O 1233.97 4.055 -6.94136 0
M  V30 13886 H 1233.7 0.578734 -0.349347 0
M  V30 13887 H 1236.26 1.33373 -1.56208 0
M  V30 13888 H 1234.49 3.77872 -0.821581 0
M  V30 13889 H 1236.17 3.86788 -1.23085 0
M  V30 13890 H 1236.94 3.21877 -3.62795 0
M  V30 13891 H 1232.82 3.8304 -2.56517 0
M  V30 13892 H 1236.36 3.54888 -6.00583 0
M  V30 13893 H 1232.26 4.16191 -4.93412 0
M  V30 13894 H 1233.03 4.22718 -7.00894 0
M  V30 13895 N 1235.69 0.975146 1.23809 0
M  V30 13896 C 1236.92 0.658023 1.95841 0
M  V30 13897 C 1237.33 -0.778132 1.72458 0
M  V30 13898 O 1236.67 -1.53462 1.00971 0
M  V30 13899 C 1236.73 0.862038 3.49012 0
M  V30 13900 C 1236.4 2.27925 3.96105 0
M  V30 13901 C 1237.4 3.25755 4.05191 0
M  V30 13902 C 1235.08 2.60894 4.29231 0
M  V30 13903 C 1237.07 4.54636 4.46749 0
M  V30 13904 C 1234.76 3.89999 4.70472 0
M  V30 13905 C 1235.76 4.86682 4.79197 0
M  V30 13906 O 1235.45 6.13483 5.19513 0
M  V30 13907 H 1235.18 0.243915 0.630461 0
M  V30 13908 H 1237.73 1.30768 1.58395 0
M  V30 13909 H 1235.96 0.155209 3.86388 0
M  V30 13910 H 1237.65 0.542873 4.02253 0
M  V30 13911 H 1238.42 3.01614 3.79808 0
M  V30 13912 H 1234.3 1.86355 4.21655 0
M  V30 13913 H 1237.84 5.30101 4.53474 0
M  V30 13914 H 1233.74 4.13937 4.95304 0
M  V30 13915 H 1234.51 6.17158 5.37641 0
M  V30 13916 N 1237.17 -1.38817 0.746158 0
M  V30 13917 C 1238.45 -1.94303 0.224841 0
M  V30 13918 C 1238.83 -1.68207 -1.27552 0
M  V30 13919 O 1238.17 -1.01647 -2.04646 0
M  V30 13920 C 1238.38 -3.44306 0.5705 0
M  V30 13921 C 1239.73 -4.21329 0.526015 0
M  V30 13922 O 1240.76 -3.52554 0.508351 0
M  V30 13923 O 1239.62 -5.4392 0.530383 0
M  V30 13924 H 1236.71 -0.825785 0.0448047 0
M  V30 13925 H 1239.26 -1.48253 0.825775 0
M  V30 13926 H 1238.03 -3.56779 1.60701 0
M  V30 13927 H 1237.65 -3.97556 -0.0588271 0
M  V30 13928 N 1238.65 -0.49465 -1.49636 0
M  V30 13929 C 1239.92 0.114829 -1.95263 0
M  V30 13930 C 1240.3 1.54739 -1.43593 0
M  V30 13931 O 1239.65 2.1915 -0.646953 0
M  V30 13932 C 1239.86 0.0339912 -3.48983 0
M  V30 13933 C 1241.21 0.211108 -4.24075 0
M  V30 13934 O 1242.23 0.109478 -3.56032 0
M  V30 13935 O 1241.09 0.418971 -5.44892 0
M  V30 13936 H 1238.19 0.0987883 -0.821078 0
M  V30 13937 H 1240.73 -0.556736 -1.60308 0
M  V30 13938 H 1239.51 -0.965287 -3.79207 0
M  V30 13939 H 1239.13 0.745982 -3.90539 0
M  V30 13940 N 1240.13 1.55939 -0.228214 0
M  V30 13941 C 1241.4 1.90329 0.451033 0
M  V30 13942 C 1241.78 1.14646 1.77255 0
M  V30 13943 O 1241.13 0.257912 2.2704 0
M  V30 13944 C 1241.34 3.43129 0.637456 0
M  V30 13945 C 1242.69 4.14022 0.94186 0
M  V30 13946 O 1243.71 3.48764 0.724002 0
M  V30 13947 O 1242.57 5.29418 1.35568 0
M  V30 13948 H 1239.67 0.791591 0.2394 0
M  V30 13949 H 1242.21 1.67524 -0.270893 0
M  V30 13950 H 1240.98 3.90191 -0.294435 0
M  V30 13951 H 1240.61 3.71735 1.41062 0
M  V30 13952 N 1241.6 -0.0451101 1.57535 0
M  V30 13953 C 1242.85 -0.740209 1.88809 0
M  V30 13954 C 1243.18 -1.75854 0.823956 0
M  V30 13955 O 1242.46 -1.93817 -0.16286 0
M  V30 13956 C 1242.74 -1.42424 3.30737 0
M  V30 13957 C 1242.59 -0.42052 4.4783 0
M  V30 13958 C 1243.91 -2.36241 3.7132 0
M  V30 13959 H 1241.03 -0.267628 0.686691 0
M  V30 13960 H 1243.67 -0.00309149 1.9 0
M  V30 13961 H 1241.82 -2.05254 3.29853 0
M  V30 13962 H 1243.5 0.204625 4.60846 0
M  V30 13963 H 1241.74 0.261739 4.3301 0
M  V30 13964 H 1242.41 -0.937298 5.43984 0
M  V30 13965 H 1244.89 -1.83468 3.73468 0
M  V30 13966 H 1243.76 -2.81091 4.71465 0
M  V30 13967 H 1244.02 -3.2222 3.02699 0
M  V30 13968 N 1243.08 -1.54377 -0.317073 0
M  V30 13969 C 1244.31 -1.77184 -1.07798 0
M  V30 13970 C 1244.73 -0.52204 -1.80711 0
M  V30 13971 O 1244.09 0.52672 -1.7348 0
M  V30 13972 C 1244.14 -2.96887 -2.04671 0
M  V30 13973 O 1243.24 -2.68887 -3.12688 0
M  V30 13974 H 1242.58 -0.586937 -0.310485 0
M  V30 13975 H 1245.11 -2.01419 -0.35939 0
M  V30 13976 H 1245.12 -3.24414 -2.47426 0
M  V30 13977 H 1243.8 -3.87518 -1.51005 0
M  V30 13978 H 1242.38 -2.52329 -2.74562 0
M  V30 13979 N 1244.56 0.579466 -1.4656 0
M  V30 13980 C 1245.49 1.69846 -1.60233 0
M  V30 13981 C 1246.47 1.6397 -0.452533 0
M  V30 13982 O 1247.66 1.81936 -0.679174 0
M  V30 13983 C 1244.79 3.08488 -1.59538 0
M  V30 13984 C 1243.74 3.29197 -2.7352 0
M  V30 13985 C 1243.07 4.684 -2.57887 0
M  V30 13986 C 1244.37 3.16718 -4.15315 0
M  V30 13987 H 1246.06 1.5866 -2.53904 0
M  V30 13988 H 1243.61 0.761873 -1.22194 0
M  V30 13989 H 1245.56 3.86595 -1.67696 0
M  V30 13990 H 1244.28 3.20581 -0.62413 0
M  V30 13991 H 1242.94 2.53491 -2.64836 0
M  V30 13992 H 1242.59 4.77262 -1.58839 0
M  V30 13993 H 1242.29 4.83208 -3.34341 0
M  V30 13994 H 1243.81 5.48671 -2.67942 0
M  V30 13995 H 1245.23 3.84666 -4.25094 0
M  V30 13996 H 1243.63 3.43047 -4.92381 0
M  V30 13997 H 1244.7 2.13755 -4.35244 0
M  V30 13998 N 1246.04 1.3432 0.824371 0
M  V30 13999 C 1247.27 1.29481 1.60992 0
M  V30 14000 C 1247.68 -0.133581 1.88728 0
M  V30 14001 O 1247.02 -1.09065 1.4782 0
M  V30 14002 C 1247.08 2.01604 2.97651 0
M  V30 14003 C 1246.75 3.50866 2.92817 0
M  V30 14004 C 1247.74 4.458 2.67504 0
M  V30 14005 C 1245.43 3.93258 3.12495 0
M  V30 14006 C 1247.42 5.81101 2.61918 0
M  V30 14007 C 1245.11 5.28659 3.06533 0
M  V30 14008 C 1246.11 6.22392 2.81278 0
M  V30 14009 O 1245.79 7.55311 2.75246 0
M  V30 14010 H 1245.53 0.446931 0.507177 0
M  V30 14011 H 1248.08 1.77484 1.03386 0
M  V30 14012 H 1246.31 1.48212 3.5717 0
M  V30 14013 H 1248 1.90073 3.58646 0
M  V30 14014 H 1248.77 4.1437 2.52037 0
M  V30 14015 H 1244.64 3.20699 3.31169 0
M  V30 14016 H 1248.19 6.54233 2.42125 0
M  V30 14017 H 1244.09 5.59709 3.21553 0
M  V30 14018 H 1244.85 7.6503 2.90984 0
M  V30 14019 N 1247.52 -1.0444 1.18026 0
M  V30 14020 C 1248.93 -1.29766 0.929143 0
M  V30 14021 C 1249.13 -1.97338 -0.407436 0
M  V30 14022 O 1248.19 -2.25166 -1.14265 0
M  V30 14023 C 1249.5 -2.16002 2.09197 0
M  V30 14024 C 1251.05 -2.29361 2.12985 0
M  V30 14025 C 1251.52 -3.18962 3.28675 0
M  V30 14026 N 1253.02 -3.26549 3.28512 0
M  V30 14027 C 1253.75 -3.96025 4.14671 0
M  V30 14028 N 1253.25 -4.67863 5.10956 0
M  V30 14029 N 1255.04 -3.92266 4.02597 0
M  V30 14030 H 1247.19 -0.58984 2.04046 0
M  V30 14031 H 1249.45 -0.322752 0.891367 0
M  V30 14032 H 1249.16 -1.73653 3.05839 0
M  V30 14033 H 1249.03 -3.16667 2.04943 0
M  V30 14034 H 1251.42 -2.70948 1.16924 0
M  V30 14035 H 1251.5 -1.28299 2.21298 0
M  V30 14036 H 1251.15 -2.78087 4.25006 0
M  V30 14037 H 1251.08 -4.20047 3.17598 0
M  V30 14038 H 1253.57 -2.75371 2.58804 0
M  V30 14039 H 1253.88 -5.1846 5.73079 0
M  V30 14040 H 1252.22 -4.6678 5.14919 0
M  V30 14041 H 1255.42 -3.35273 3.26665 0
M  V30 14042 H 1255.59 -4.4614 4.69961 0
M  V30 14043 N 1248.99 -0.981699 -1.2329 0
M  V30 14044 C 1249.94 -0.52269 -2.24803 0
M  V30 14045 C 1250.91 0.439116 -1.6019 0
M  V30 14046 O 1252.1 0.346372 -1.8763 0
M  V30 14047 C 1249.24 0.167477 -3.44693 0
M  V30 14048 C 1248.35 -0.834744 -4.23858 0
M  V30 14049 C 1247.48 -0.119249 -5.31066 0
M  V30 14050 C 1246.52 -1.1106 -6.0194 0
M  V30 14051 N 1245.66 -0.424167 -7.00818 0
M  V30 14052 H 1250.5 -1.39312 -2.63431 0
M  V30 14053 H 1248.04 -0.698061 -1.29482 0
M  V30 14054 H 1250 0.584442 -4.13086 0
M  V30 14055 H 1248.63 1.00177 -3.06862 0
M  V30 14056 H 1247.68 -1.37009 -3.5487 0
M  V30 14057 H 1248.99 -1.59012 -4.72776 0
M  V30 14058 H 1248.14 0.355015 -6.0566 0
M  V30 14059 H 1246.88 0.668714 -4.83094 0
M  V30 14060 H 1245.89 -1.5956 -5.26138 0
M  V30 14061 H 1247.11 -1.89924 -6.52001 0
M  V30 14062 H 1245.06 0.344564 -6.55094 0
M  V30 14063 H 1244.98 -1.11817 -7.47685 0
M  V30 14064 H 1246.24 0.0276655 -7.79495 0
M  V30 14065 N 1250.47 1.3842 -0.753509 0
M  V30 14066 C 1251.4 2.33073 -0.141198 0
M  V30 14067 C 1252.38 1.54863 0.70367 0
M  V30 14068 O 1253.57 1.8318 0.644872 0
M  V30 14069 C 1250.7 3.39043 0.752802 0
M  V30 14070 C 1249.65 4.27999 0.0106692 0
M  V30 14071 C 1248.98 5.24824 1.02291 0
M  V30 14072 C 1250.28 5.09308 -1.15768 0
M  V30 14073 H 1251.97 2.84528 -0.93188 0
M  V30 14074 H 1249.52 1.36802 -0.449567 0
M  V30 14075 H 1251.47 4.04224 1.19083 0
M  V30 14076 H 1250.2 2.8607 1.57581 0
M  V30 14077 H 1248.85 3.64323 -0.407939 0
M  V30 14078 H 1248.5 4.68139 1.83998 0
M  V30 14079 H 1248.2 5.85196 0.53101 0
M  V30 14080 H 1249.73 5.92882 1.46026 0
M  V30 14081 H 1251.14 5.6773 -0.797203 0
M  V30 14082 H 1249.54 5.78914 -1.58044 0
M  V30 14083 H 1250.61 4.43051 -1.97062 0
M  V30 14084 N 1251.95 0.502579 1.49372 0
M  V30 14085 C 1252.88 -0.321683 2.25921 0
M  V30 14086 C 1253.86 -0.968999 1.30572 0
M  V30 14087 O 1255.05 -0.998788 1.59864 0
M  V30 14088 C 1252.17 -1.45318 3.05942 0
M  V30 14089 C 1251.22 -0.920076 4.16457 0
M  V30 14090 S 1252.05 0.190402 5.35161 0
M  V30 14091 C 1253.21 -0.944222 6.18737 0
M  V30 14092 H 1253.44 0.328036 2.95485 0
M  V30 14093 H 1250.97 0.287903 1.51692 0
M  V30 14094 H 1252.93 -2.1015 3.52629 0
M  V30 14095 H 1251.59 -2.07452 2.35844 0
M  V30 14096 H 1250.79 -1.76808 4.71969 0
M  V30 14097 H 1250.39 -0.348944 3.72369 0
M  V30 14098 H 1252.68 -1.8491 6.51778 0
M  V30 14099 H 1253.62 -0.42769 7.06807 0
M  V30 14100 H 1254.03 -1.21227 5.5133 0
M  V30 14101 N 1253.43 -1.55816 0.23648 0
M  V30 14102 C 1254.67 -1.98981 -0.391725 0
M  V30 14103 C 1255.01 -1.12428 -1.58346 0
M  V30 14104 O 1254.28 -0.185303 -1.93615 0
M  V30 14105 C 1254.57 -3.50831 -0.811759 0
M  V30 14106 C 1254.42 -4.48152 0.384648 0
M  V30 14107 C 1255.74 -4.07489 -1.66254 0
M  V30 14108 H 1252.86 -0.723404 -0.140911 0
M  V30 14109 H 1255.5 -1.87011 0.335706 0
M  V30 14110 H 1253.65 -3.61162 -1.43157 0
M  V30 14111 H 1255.32 -4.49814 1.02298 0
M  V30 14112 H 1253.56 -4.21406 1.02955 0
M  V30 14113 H 1254.23 -5.51979 0.0475809 0
M  V30 14114 H 1256.71 -4.00195 -1.13944 0
M  V30 14115 H 1255.59 -5.14026 -1.92531 0
M  V30 14116 H 1255.85 -3.55297 -2.6309 0
M  V30 14117 N 1254.91 0.036755 -1.57557 0
M  V30 14118 C 1256.13 0.744813 -1.93565 0
M  V30 14119 C 1256.56 1.68508 -0.835863 0
M  V30 14120 O 1255.91 1.80091 0.208986 0
M  V30 14121 C 1255.96 1.48461 -3.28621 0
M  V30 14122 O 1255.07 2.59739 -3.20327 0
M  V30 14123 H 1254.41 0.200866 -0.632889 0
M  V30 14124 H 1256.94 -0.00547543 -2.04599 0
M  V30 14125 H 1256.95 1.85622 -3.63329 0
M  V30 14126 H 1255.62 0.794953 -4.08232 0
M  V30 14127 H 1254.2 2.25176 -2.97237 0
M  V30 14128 N 1256.39 1.54543 0.308881 0
M  V30 14129 C 1257.63 1.75182 1.05312 0
M  V30 14130 C 1257.99 0.522347 1.84758 0
M  V30 14131 O 1259.19 0.606334 2.61872 0
M  V30 14132 C 1257.46 3.0007 1.94147 0
M  V30 14133 S 1259.02 3.41676 2.75323 0
M  V30 14134 H 1255.84 0.615862 0.355296 0
M  V30 14135 H 1258.44 1.92739 0.327413 0
M  V30 14136 H 1257.14 3.87685 1.34643 0
M  V30 14137 H 1256.68 2.85078 2.71098 0
M  V30 14138 H 1258.69 2.98128 3.96654 0
M  V30 14139 N 1257.86 -0.571685 1.46866 0
M  V30 14140 C 1259.11 -1.33145 1.52972 0
M  V30 14141 C 1259.44 -1.93314 0.185344 0
M  V30 14142 O 1258.72 -1.77083 -0.80447 0
M  V30 14143 C 1259 -2.4525 2.63675 0
M  V30 14144 C 1258.85 -1.90044 4.0768 0
M  V30 14145 C 1260.17 -3.47247 2.70384 0
M  V30 14146 H 1257.29 -0.482751 0.556885 0
M  V30 14147 H 1259.93 -0.641163 1.78855 0
M  V30 14148 H 1258.08 -3.04132 2.41735 0
M  V30 14149 H 1259.76 -1.35535 4.4094 0
M  V30 14150 H 1258 -1.20805 4.1664 0
M  V30 14151 H 1258.67 -2.71019 4.80887 0
M  V30 14152 H 1261.15 -2.98263 2.90135 0
M  V30 14153 H 1260.02 -4.23132 3.49643 0
M  V30 14154 H 1260.28 -4.05179 1.76868 0
M  V30 14155 N 1259.34 -1.34755 -0.817236 0
M  V30 14156 C 1260.59 -1.27432 -1.57377 0
M  V30 14157 C 1260.92 0.15419 -1.93888 0
M  V30 14158 O 1260.17 1.11686 -1.60701 0
M  V30 14159 C 1260.47 -2.11611 -2.8802 0
M  V30 14160 C 1260.14 -3.60543 -2.70776 0
M  V30 14161 C 1258.8 -4.01141 -2.6578 0
M  V30 14162 C 1261.15 -4.55089 -2.54053 0
M  V30 14163 C 1258.48 -5.34469 -2.41991 0
M  V30 14164 C 1260.83 -5.88603 -2.31795 0
M  V30 14165 C 1259.49 -6.28358 -2.25215 0
M  V30 14166 H 1258.76 -0.466305 -0.575882 0
M  V30 14167 H 1261.41 -1.66552 -0.945128 0
M  V30 14168 H 1259.72 -1.65336 -3.55206 0
M  V30 14169 H 1261.41 -2.03287 -3.45652 0
M  V30 14170 H 1258 -3.2832 -2.75506 0
M  V30 14171 H 1262.19 -4.24617 -2.56932 0
M  V30 14172 H 1257.44 -5.64284 -2.35359 0
M  V30 14173 H 1261.62 -6.61451 -2.17844 0
M  V30 14174 H 1259.24 -7.31604 -2.06543 0
M  V30 14175 N 1260.82 1.03812 -1.18578 0
M  V30 14176 C 1261.77 2.13994 -0.911563 0
M  V30 14177 C 1262.76 1.68907 0.129131 0
M  V30 14178 O 1263.97 1.7999 -0.0192557 0
M  V30 14179 H 1260.34 0.698996 -0.277324 0
M  V30 14180 H 1262.31 2.34318 -1.84763 0
M  V30 14181 C 1261.06 3.44689 -0.456591 0
M  V30 14182 H 1260.39 3.79793 -1.2489 0
M  V30 14183 H 1261.83 4.22911 -0.303738 0
M  V30 14184 C 1260.28 3.26568 0.827961 0
M  V30 14185 O 1260.81 3.54376 1.89158 0
M  V30 14186 N 1259.02 2.79893 0.781567 0
M  V30 14187 H 1258.57 2.57462 -0.0842145 0
M  V30 14188 H 1258.53 2.68148 1.64146 0
M  V30 14189 N 1262.3 0.988223 1.22768 0
M  V30 14190 C 1263.55 0.660154 1.91014 0
M  V30 14191 C 1263.87 -0.809788 1.77391 0
M  V30 14192 O 1263.14 -1.57998 1.15817 0
M  V30 14193 H 1261.72 0.24118 0.706995 0
M  V30 14194 H 1264.38 1.25372 1.49224 0
M  V30 14195 H 1263.47 0.918603 2.98275 0
M  V30 14196 N 1263.78 -1.38018 0.760839 0
M  V30 14197 C 1265.02 -1.99557 0.319609 0
M  V30 14198 C 1265.34 -1.60699 -1.10457 0
M  V30 14199 O 1264.61 -0.867248 -1.75658 0
M  V30 14200 H 1263.19 -0.738066 0.115182 0
M  V30 14201 H 1265.86 -1.6867 0.976544 0
M  V30 14202 H 1264.95 -3.09672 0.388523 0
M  V30 14203 N 1265.25 -0.510493 -1.49103 0
M  V30 14204 C 1266.16 0.267176 -2.33074 0
M  V30 14205 C 1267.18 0.958117 -1.45245 0
M  V30 14206 O 1268.36 0.937399 -1.78255 0
M  V30 14207 C 1265.42 1.31212 -3.20911 0
M  V30 14208 C 1264.48 0.633613 -4.24598 0
M  V30 14209 C 1263.71 1.62878 -5.08239 0
M  V30 14210 O 1263.94 2.85958 -4.93543 0
M  V30 14211 O 1262.87 1.17887 -5.90242 0
M  V30 14212 H 1266.7 -0.420384 -3.00776 0
M  V30 14213 H 1264.28 -0.271683 -1.46909 0
M  V30 14214 H 1266.16 1.91647 -3.75299 0
M  V30 14215 H 1264.84 1.98244 -2.55892 0
M  V30 14216 H 1263.75 -0.0107246 -3.74098 0
M  V30 14217 H 1265.08 0.0055777 -4.922 0
M  V30 14218 N 1266.73 1.55688 -0.24474 0
M  V30 14219 C 1267.96 2.0329 0.384808 0
M  V30 14220 C 1268.37 1.12405 1.51692 0
M  V30 14221 O 1267.73 0.138056 1.81977 0
M  V30 14222 C 1267.78 3.50255 0.894635 0
M  V30 14223 O 1267.5 4.37677 -0.192365 0
M  V30 14224 C 1269 4.13608 1.59509 0
M  V30 14225 H 1266.22 0.664706 0.0916908 0
M  V30 14226 H 1268.77 2.01162 -0.367973 0
M  V30 14227 H 1266.92 3.52924 1.5976 0
M  V30 14228 H 1267.34 5.2414 0.194424 0
M  V30 14229 H 1268.81 5.1814 1.90356 0
M  V30 14230 H 1269.29 3.5997 2.51631 0
M  V30 14231 H 1269.89 4.14856 0.936749 0
M  V30 14232 N 1268.21 -0.0283989 1.57574 0
M  V30 14233 C 1269.46 -0.718121 1.88483 0
M  V30 14234 C 1269.77 -1.76485 0.843345 0
M  V30 14235 O 1270.98 -2.50721 1.04169 0
M  V30 14236 C 1269.43 -1.32832 3.3449 0
M  V30 14237 C 1269.04 -0.317905 4.46871 0
M  V30 14238 C 1270.79 -1.99788 3.74546 0
M  V30 14239 C 1268.69 -0.936489 5.83938 0
M  V30 14240 H 1267.62 -0.271969 0.703242 0
M  V30 14241 H 1270.27 0.0274862 1.83479 0
M  V30 14242 H 1268.66 -2.12366 3.34241 0
M  V30 14243 H 1269.83 0.450767 4.5859 0
M  V30 14244 H 1268.14 0.249605 4.15651 0
M  V30 14245 H 1270.74 -2.46923 4.74271 0
M  V30 14246 H 1271.08 -2.81633 3.06575 0
M  V30 14247 H 1271.62 -1.27029 3.76973 0
M  V30 14248 H 1268.36 -0.15744 6.55311 0
M  V30 14249 H 1267.88 -1.67499 5.75938 0
M  V30 14250 H 1269.56 -1.44363 6.30689 0
M  V30 14251 N 1269.69 -1.54705 -0.300681 0
M  V30 14252 C 1270.62 -1.8205 -1.39249 0
M  V30 14253 C 1271.63 -0.703476 -1.46816 0
M  V30 14254 O 1272.82 -0.980957 -1.49129 0
M  V30 14255 C 1269.92 -1.94376 -2.77617 0
M  V30 14256 C 1269.09 -3.2478 -2.92979 0
M  V30 14257 C 1268.15 -3.27518 -4.11848 0
M  V30 14258 O 1267.18 -4.01047 -4.03918 0
M  V30 14259 N 1268.38 -2.52932 -5.22499 0
M  V30 14260 H 1271.15 -2.76279 -1.16146 0
M  V30 14261 H 1268.71 -1.54283 -0.49075 0
M  V30 14262 H 1270.7 -1.93609 -3.55384 0
M  V30 14263 H 1269.27 -1.07141 -2.93666 0
M  V30 14264 H 1268.49 -3.38319 -2.02322 0
M  V30 14265 H 1269.78 -4.10835 -3.00153 0
M  V30 14266 H 1269.18 -1.92825 -5.31822 0
M  V30 14267 H 1267.73 -2.57919 -5.98599 0
M  V30 14268 N 1271.17 0.563888 -1.47167 0
M  V30 14269 C 1272.08 1.69903 -1.61772 0
M  V30 14270 C 1273.09 1.6664 -0.500705 0
M  V30 14271 O 1274.27 1.86209 -0.767354 0
M  V30 14272 C 1271.33 3.06411 -1.62213 0
M  V30 14273 C 1270.39 3.20793 -2.8529 0
M  V30 14274 C 1269.63 4.50789 -2.85701 0
M  V30 14275 O 1269.85 5.3584 -1.95529 0
M  V30 14276 O 1268.78 4.68819 -3.77481 0
M  V30 14277 H 1272.61 1.60525 -2.57809 0
M  V30 14278 H 1270.2 0.733125 -1.30175 0
M  V30 14279 H 1272.08 3.87659 -1.65221 0
M  V30 14280 H 1270.75 3.16186 -0.693415 0
M  V30 14281 H 1269.66 2.38967 -2.87829 0
M  V30 14282 H 1270.99 3.15918 -3.77434 0
M  V30 14283 N 1272.64 1.35187 0.810078 0
M  V30 14284 C 1273.59 1.27822 1.92173 0
M  V30 14285 C 1274.56 0.150851 1.65414 0
M  V30 14286 O 1275.75 0.333973 1.87854 0
M  V30 14287 C 1272.89 1.05258 3.28656 0
M  V30 14288 C 1272 2.26884 3.67624 0
M  V30 14289 C 1271.13 1.97499 4.9312 0
M  V30 14290 C 1270.17 3.15198 5.24706 0
M  V30 14291 N 1269.31 2.85612 6.41381 0
M  V30 14292 H 1274.15 2.22884 1.97804 0
M  V30 14293 H 1271.69 1.10799 0.967577 0
M  V30 14294 H 1273.65 0.902084 4.07331 0
M  V30 14295 H 1272.28 0.138583 3.22502 0
M  V30 14296 H 1271.33 2.5281 2.84238 0
M  V30 14297 H 1272.64 3.14783 3.86928 0
M  V30 14298 H 1271.79 1.7926 5.79613 0
M  V30 14299 H 1270.53 1.0688 4.75844 0
M  V30 14300 H 1269.54 3.34019 4.36705 0
M  V30 14301 H 1270.76 4.06614 5.43913 0
M  V30 14302 H 1268.71 1.97583 6.25537 0
M  V30 14303 H 1268.63 3.67044 6.60919 0
M  V30 14304 H 1269.89 2.70906 7.3091 0
M  V30 14305 N 1274.12 -1.03182 1.19127 0
M  V30 14306 C 1275.05 -2.13301 0.94999 0
M  V30 14307 C 1276.03 -1.69707 -0.115577 0
M  V30 14308 O 1277.22 -1.94161 0.0388395 0
M  V30 14309 C 1274.35 -3.43902 0.484637 0
M  V30 14310 C 1273.3 -4.01164 1.4917 0
M  V30 14311 C 1272.63 -5.2735 0.883537 0
M  V30 14312 C 1273.93 -4.36311 2.87107 0
M  V30 14313 H 1275.62 -2.33743 1.87095 0
M  V30 14314 H 1273.17 -1.12332 0.900977 0
M  V30 14315 H 1275.12 -4.20308 0.30315 0
M  V30 14316 H 1273.85 -3.23173 -0.471909 0
M  V30 14317 H 1272.5 -3.26849 1.66028 0
M  V30 14318 H 1272.15 -5.02936 -0.0804712 0
M  V30 14319 H 1271.85 -5.66624 1.55599 0
M  V30 14320 H 1273.38 -6.06425 0.71278 0
M  V30 14321 H 1274.79 -5.03666 2.73848 0
M  V30 14322 H 1273.19 -4.86659 3.51117 0
M  V30 14323 H 1274.26 -3.45743 3.39985 0
M  V30 14324 N 1275.6 -0.99472 -1.22242 0
M  V30 14325 C 1276.56 -0.551619 -2.22463 0
M  V30 14326 C 1277.56 0.366498 -1.56568 0
M  V30 14327 O 1278.75 0.158204 -1.7348 0
M  V30 14328 C 1275.89 0.197416 -3.40328 0
M  V30 14329 H 1277.08 -1.43795 -2.63179 0
M  V30 14330 H 1274.63 -0.782121 -1.35324 0
M  V30 14331 H 1275.37 1.09965 -3.05087 0
M  V30 14332 H 1275.15 -0.461829 -3.89371 0
M  V30 14333 H 1276.64 0.495534 -4.1465 0
M  V30 14334 N 1277.08 1.37613 -0.768148 0
M  V30 14335 C 1278.03 2.3218 -0.13974 0
M  V30 14336 C 1279.02 1.54754 0.689023 0
M  V30 14337 O 1280.23 1.70177 0.586489 0
M  V30 14338 H 1276.6 0.751536 -0.0264001 0
M  V30 14339 H 1278.57 2.82768 -0.953139 0
M  V30 14340 C 1277.32 3.39997 0.727829 0
M  V30 14341 H 1276.64 3.99676 0.0994851 0
M  V30 14342 H 1278.08 4.08538 1.13456 0
M  V30 14343 C 1276.54 2.79778 1.87686 0
M  V30 14344 O 1277.07 2.70241 2.97208 0
M  V30 14345 N 1275.28 2.37373 1.67637 0
M  V30 14346 H 1274.83 2.4533 0.785552 0
M  V30 14347 H 1274.78 1.97426 2.44684 0
M  V30 14348 N 1278.56 0.518393 1.4883 0
M  V30 14349 C 1279.5 -0.264197 2.31095 0
M  V30 14350 C 1280.5 -0.946455 1.40494 0
M  V30 14351 O 1281.7 -0.872161 1.57459 0
M  V30 14352 H 1278.08 -0.104065 0.744765 0
M  V30 14353 H 1280.05 0.449375 2.94997 0
M  V30 14354 C 1278.8 -1.30527 3.2227 0
M  V30 14355 H 1278.12 -0.789695 3.91923 0
M  V30 14356 H 1279.56 -1.82449 3.82738 0
M  V30 14357 C 1278.02 -2.33274 2.43073 0
M  V30 14358 O 1278.55 -3.39493 2.14726 0
M  V30 14359 N 1276.76 -2.06189 2.04779 0
M  V30 14360 H 1276.3 -1.19829 2.28033 0
M  V30 14361 H 1276.26 -2.7516 1.521 0
M  V30 14362 N 1280.03 -1.55556 0.252993 0
M  V30 14363 C 1281.28 -1.98267 -0.370571 0
M  V30 14364 C 1281.6 -1.14449 -1.58622 0
M  V30 14365 O 1282.8 -1.472 -2.28132 0
M  V30 14366 C 1281.26 -3.52813 -0.710685 0
M  V30 14367 C 1280.87 -4.45379 0.483908 0
M  V30 14368 C 1282.61 -4.04165 -1.2981 0
M  V30 14369 C 1280.52 -5.91279 0.119611 0
M  V30 14370 H 1279.45 -0.740463 -0.142232 0
M  V30 14371 H 1282.1 -1.8005 0.354169 0
M  V30 14372 H 1280.48 -3.66748 -1.49372 0
M  V30 14373 H 1281.65 -4.43206 1.26116 0
M  V30 14374 H 1279.97 -4.04542 0.986664 0
M  V30 14375 H 1282.57 -5.10696 -1.5841 0
M  V30 14376 H 1282.91 -3.51875 -2.22462 0
M  V30 14377 H 1283.44 -3.93581 -0.577836 0
M  V30 14378 H 1280.18 -6.47619 1.01343 0
M  V30 14379 H 1279.7 -5.96573 -0.621318 0
M  V30 14380 H 1281.38 -6.46322 -0.296052 0
M  V30 14381 N 1281.51 0.0200419 -1.57587 0
M  V30 14382 C 1282.42 1.0346 -2.10555 0
M  V30 14383 C 1283.44 1.39035 -1.0462 0
M  V30 14384 O 1284.61 1.48172 -1.36407 0
M  V30 14385 C 1281.68 2.31389 -2.58186 0
M  V30 14386 C 1280.74 2.02311 -3.7864 0
M  V30 14387 C 1279.97 3.24141 -4.23991 0
M  V30 14388 O 1280.2 4.35132 -3.68803 0
M  V30 14389 O 1279.13 3.09312 -5.16342 0
M  V30 14390 H 1282.96 0.614419 -2.9742 0
M  V30 14391 H 1280.54 0.237604 -1.47498 0
M  V30 14392 H 1282.42 3.06582 -2.89112 0
M  V30 14393 H 1281.1 2.72684 -1.74428 0
M  V30 14394 H 1280.01 1.24658 -3.5272 0
M  V30 14395 H 1281.34 1.65866 -4.6341 0
M  V30 14396 N 1282.99 1.54862 0.292472 0
M  V30 14397 C 1283.94 1.86403 1.36098 0
M  V30 14398 C 1284.91 0.713694 1.49985 0
M  V30 14399 O 1286.09 0.963134 1.64707 0
M  V30 14400 C 1283.23 2.1244 2.71962 0
M  V30 14401 C 1282.35 3.40038 2.66454 0
M  V30 14402 C 1281.48 3.55875 3.94368 0
M  V30 14403 C 1280.52 4.77235 3.83293 0
M  V30 14404 N 1279.66 4.89832 5.03 0
M  V30 14405 H 1284.5 2.77546 1.085 0
M  V30 14406 H 1282.03 1.37427 0.524607 0
M  V30 14407 H 1283.99 2.25533 3.50985 0
M  V30 14408 H 1282.62 1.24554 2.97802 0
M  V30 14409 H 1281.67 3.35521 1.79248 0
M  V30 14410 H 1282.99 4.29188 2.54163 0
M  V30 14411 H 1282.14 3.68679 4.8183 0
M  V30 14412 H 1280.88 2.64874 4.09503 0
M  V30 14413 H 1279.88 4.64455 2.94214 0
M  V30 14414 H 1281.11 5.69651 3.69695 0
M  V30 14415 H 1279.05 4.01756 5.18582 0
M  V30 14416 H 1278.97 5.72996 4.93165 0
M  V30 14417 H 1280.24 5.07001 5.92089 0
M  V30 14418 N 1284.47 -0.556076 1.47464 0
M  V30 14419 C 1285.69 -1.3434 1.58011 0
M  V30 14420 C 1286.12 -1.86674 0.231138 0
M  V30 14421 O 1285.48 -1.63029 -0.793174 0
M  V30 14422 C 1285.52 -2.48844 2.60977 0
M  V30 14423 O 1284.63 -3.51108 2.16326 0
M  V30 14424 H 1283.97 -0.398986 0.53076 0
M  V30 14425 H 1286.5 -0.671898 1.93253 0
M  V30 14426 H 1286.51 -2.95398 2.81432 0
M  V30 14427 H 1285.18 -2.10109 3.58925 0
M  V30 14428 H 1283.76 -3.10852 2.05975 0
M  V30 14429 N 1285.95 -1.35615 -0.802897 0
M  V30 14430 C 1287.19 -1.30462 -1.5735 0
M  V30 14431 C 1287.55 0.118488 -1.91634 0
M  V30 14432 O 1288.75 0.294421 -2.67183 0
M  V30 14433 C 1287.02 -2.18916 -2.82508 0
M  V30 14434 S 1288.58 -2.31315 -3.72879 0
M  V30 14435 H 1285.4 -0.463588 -0.53908 0
M  V30 14436 H 1288 -1.71045 -0.946782 0
M  V30 14437 H 1286.71 -3.21285 -2.5535 0
M  V30 14438 H 1286.24 -1.79304 -3.50162 0
M  V30 14439 H 1288.25 -1.50069 -4.72963 0
M  V30 14440 N 1287.43 1.02549 -1.19673 0
M  V30 14441 C 1288.7 1.73106 -0.9107 0
M  V30 14442 C 1289.08 2.02897 0.582769 0
M  V30 14443 O 1288.43 1.68633 1.54192 0
M  V30 14444 C 1288.64 3.00535 -1.77425 0
M  V30 14445 C 1289.99 3.73976 -2.01065 0
M  V30 14446 O 1291.01 3.1047 -1.74605 0
M  V30 14447 O 1289.87 4.88153 -2.457 0
M  V30 14448 H 1286.97 0.754006 -0.339711 0
M  V30 14449 H 1289.51 1.08477 -1.30502 0
M  V30 14450 H 1288.28 2.74773 -2.78595 0
M  V30 14451 H 1287.91 3.72904 -1.37943 0
M  V30 14452 N 1288.9 1.00119 1.21713 0
M  V30 14453 C 1290.15 0.67713 1.89994 0
M  V30 14454 C 1290.47 -0.795149 1.78709 0
M  V30 14455 O 1291.67 -1.23113 2.41982 0
M  V30 14456 C 1290.13 1.16065 3.40671 0
M  V30 14457 C 1289.74 2.65874 3.60576 0
M  V30 14458 C 1291.48 0.911302 4.14603 0
M  V30 14459 C 1289.39 3.07785 5.04997 0
M  V30 14460 H 1288.32 0.249572 0.711498 0
M  V30 14461 H 1290.97 1.21185 1.37792 0
M  V30 14462 H 1289.35 0.554005 3.92106 0
M  V30 14463 H 1290.52 3.31954 3.19598 0
M  V30 14464 H 1288.84 2.88781 2.99991 0
M  V30 14465 H 1291.44 1.20004 5.2106 0
M  V30 14466 H 1291.78 -0.152495 4.16021 0
M  V30 14467 H 1292.31 1.48055 3.69222 0
M  V30 14468 H 1289.05 4.13376 5.08724 0
M  V30 14469 H 1288.57 2.46414 5.46846 0
M  V30 14470 H 1290.25 2.99552 5.73479 0
M  V30 14471 N 1290.38 -1.37203 0.775435 0
M  V30 14472 C 1291.61 -2.04396 0.351737 0
M  V30 14473 C 1292.03 -1.58099 -1.01913 0
M  V30 14474 O 1291.39 -0.742932 -1.65379 0
M  V30 14475 C 1291.44 -3.58283 0.408105 0
M  V30 14476 O 1290.54 -4.08156 -0.590104 0
M  V30 14477 H 1289.88 -0.646451 0.151647 0
M  V30 14478 H 1292.41 -1.75443 1.05265 0
M  V30 14479 H 1292.42 -4.07127 0.266711 0
M  V30 14480 H 1291.1 -3.91335 1.40819 0
M  V30 14481 H 1289.67 -3.70622 -0.411524 0
M  V30 14482 N 1291.86 -0.526279 -1.48553 0
M  V30 14483 C 1292.79 0.275579 -2.27537 0
M  V30 14484 C 1293.8 0.90782 -1.35139 0
M  V30 14485 O 1294.99 0.786887 -1.6022 0
M  V30 14486 C 1292.09 1.40515 -3.08397 0
M  V30 14487 C 1291.27 0.875523 -4.28548 0
M  V30 14488 C 1290.33 1.88577 -4.91249 0
M  V30 14489 O 1289.35 1.44419 -5.50574 0
M  V30 14490 N 1290.55 3.21774 -4.83158 0
M  V30 14491 H 1293.32 -0.401803 -2.96994 0
M  V30 14492 H 1290.88 -0.360378 -1.57838 0
M  V30 14493 H 1292.87 2.07907 -3.47213 0
M  V30 14494 H 1291.44 1.98626 -2.41384 0
M  V30 14495 H 1290.66 0.025728 -3.94192 0
M  V30 14496 H 1291.95 0.500493 -5.06332 0
M  V30 14497 H 1291.35 3.60319 -4.36104 0
M  V30 14498 H 1289.9 3.84808 -5.26085 0
M  V30 14499 N 1293.34 1.5542 -0.261239 0
M  V30 14500 C 1294.57 2.03391 0.362698 0
M  V30 14501 C 1294.98 1.13947 1.51039 0
M  V30 14502 O 1294.32 0.149231 1.83093 0
M  V30 14503 C 1294.38 3.47558 0.918889 0
M  V30 14504 C 1294.04 4.56894 -0.0983829 0
M  V30 14505 C 1295.04 5.1182 -0.913018 0
M  V30 14506 C 1292.73 5.01779 -0.228616 0
M  V30 14507 C 1294.72 6.10138 -1.84421 0
M  V30 14508 C 1292.41 5.99926 -1.16329 0
M  V30 14509 C 1293.41 6.53984 -1.9696 0
M  V30 14510 O 1293.09 7.50214 -2.8885 0
M  V30 14511 H 1292.83 0.670166 0.0886182 0
M  V30 14512 H 1295.38 2.01722 -0.386967 0
M  V30 14513 H 1293.61 3.46423 1.71838 0
M  V30 14514 H 1295.3 3.78947 1.45443 0
M  V30 14515 H 1296.06 4.77965 -0.823066 0
M  V30 14516 H 1291.94 4.59356 0.388945 0
M  V30 14517 H 1295.49 6.52258 -2.47397 0
M  V30 14518 H 1291.38 6.332 -1.25412 0
M  V30 14519 H 1292.15 7.67881 -2.83374 0
M  V30 14520 N 1294.82 -0.0116844 1.57596 0
M  V30 14521 C 1296.06 -0.697577 1.89679 0
M  V30 14522 C 1296.38 -1.74956 0.861122 0
M  V30 14523 O 1295.65 -1.95629 -0.103031 0
M  V30 14524 H 1294.23 -0.26064 0.700054 0
M  V30 14525 H 1296.9 0.0264782 1.94882 0
M  V30 14526 H 1295.99 -1.17621 2.89088 0
M  V30 14527 N 1296.29 -1.55015 -0.284256 0
M  V30 14528 C 1297.54 -1.74297 -1.01506 0
M  V30 14529 C 1297.86 -0.545134 -1.8785 0
M  V30 14530 O 1299.06 -0.620118 -2.64323 0
M  V30 14531 C 1297.52 -3.08438 -1.85456 0
M  V30 14532 C 1297.13 -4.35753 -1.04034 0
M  V30 14533 C 1298.87 -3.37073 -2.58035 0
M  V30 14534 C 1296.78 -5.60938 -1.87358 0
M  V30 14535 H 1295.71 -0.649656 -0.382705 0
M  V30 14536 H 1298.36 -1.81484 -0.271239 0
M  V30 14537 H 1296.74 -2.95259 -2.63891 0
M  V30 14538 H 1297.91 -4.59816 -0.300954 0
M  V30 14539 H 1296.23 -4.14178 -0.429616 0
M  V30 14540 H 1298.83 -4.27806 -3.20759 0
M  V30 14541 H 1299.17 -2.56698 -3.27738 0
M  V30 14542 H 1299.7 -3.51299 -1.86638 0
M  V30 14543 H 1296.44 -6.44029 -1.22096 0
M  V30 14544 H 1295.96 -5.41035 -2.58923 0
M  V30 14545 H 1297.64 -5.98819 -2.44999 0
M  V30 14546 N 1297.77 0.548248 -1.47757 0
M  V30 14547 C 1298.72 1.65453 -1.60916 0
M  V30 14548 C 1299.69 1.59836 -0.451831 0
M  V30 14549 O 1300.87 1.78536 -0.673023 0
M  V30 14550 C 1298.01 3.0376 -1.6378 0
M  V30 14551 C 1297.13 3.19747 -2.90492 0
M  V30 14552 C 1296.26 4.48505 -2.84635 0
M  V30 14553 C 1295.3 4.57956 -4.06132 0
M  V30 14554 N 1294.44 5.78079 -3.98458 0
M  V30 14555 H 1299.28 1.53545 -2.55398 0
M  V30 14556 H 1296.81 0.747826 -1.26673 0
M  V30 14557 H 1298.77 3.8386 -1.63424 0
M  V30 14558 H 1297.4 3.14483 -0.728036 0
M  V30 14559 H 1296.45 2.3302 -3.00676 0
M  V30 14560 H 1297.77 3.22594 -3.8044 0
M  V30 14561 H 1296.92 5.36875 -2.82577 0
M  V30 14562 H 1295.66 4.48151 -1.92385 0
M  V30 14563 H 1294.66 3.67995 -4.08484 0
M  V30 14564 H 1295.89 4.60062 -4.9952 0
M  V30 14565 H 1293.84 5.78657 -3.09017 0
M  V30 14566 H 1293.75 5.82342 -4.82093 0
M  V30 14567 H 1295.02 6.68786 -4.00431 0
M  V30 14568 N 1299.25 1.36039 0.795694 0
M  V30 14569 C 1300.47 1.33222 1.58955 0
M  V30 14570 C 1300.9 -0.0854596 1.87906 0
M  V30 14571 O 1300.26 -1.05555 1.47403 0
M  V30 14572 C 1300.31 2.15508 2.89117 0
M  V30 14573 O 1299.41 1.54327 3.82436 0
M  V30 14574 H 1298.75 0.456264 0.48241 0
M  V30 14575 H 1301.28 1.79234 0.986726 0
M  V30 14576 H 1301.29 2.2786 3.38444 0
M  V30 14577 H 1299.97 3.18568 2.67371 0
M  V30 14578 H 1298.54 1.50879 3.41013 0
M  V30 14579 N 1300.73 -1.01913 1.20215 0
M  V30 14580 C 1301.68 -2.104 0.948708 0
M  V30 14581 C 1302.65 -1.65665 -0.120139 0
M  V30 14582 O 1303.83 -1.90785 0.0240547 0
M  V30 14583 C 1300.97 -3.41398 0.504132 0
M  V30 14584 C 1300.08 -3.99625 1.64085 0
M  V30 14585 C 1299.22 -5.18673 1.14683 0
M  V30 14586 C 1298.26 -5.68977 2.2568 0
M  V30 14587 N 1297.39 -6.79289 1.77514 0
M  V30 14588 H 1302.23 -2.31415 1.87753 0
M  V30 14589 H 1299.77 -1.13487 0.935901 0
M  V30 14590 H 1301.73 -4.16578 0.22771 0
M  V30 14591 H 1300.36 -3.20463 -0.387689 0
M  V30 14592 H 1299.41 -3.21565 2.03225 0
M  V30 14593 H 1300.72 -4.32965 2.47674 0
M  V30 14594 H 1299.88 -6.01048 0.826223 0
M  V30 14595 H 1298.62 -4.86891 0.280797 0
M  V30 14596 H 1297.62 -4.85208 2.5856 0
M  V30 14597 H 1298.85 -6.02794 3.12755 0
M  V30 14598 H 1296.79 -6.49341 0.932338 0
M  V30 14599 H 1296.71 -7.11808 2.54686 0
M  V30 14600 H 1297.98 -7.65235 1.48446 0
M  V30 14601 N 1302.21 -1.00763 -1.2118 0
M  V30 14602 C 1303.15 -0.563428 -2.25673 0
M  V30 14603 C 1304.15 0.393342 -1.6477 0
M  V30 14604 O 1305.35 0.264246 -1.7805 0
M  V30 14605 H 1301.73 -0.163862 -0.73393 0
M  V30 14606 H 1303.7 -1.45585 -2.60476 0
M  V30 14607 C 1302.45 0.0915599 -3.47579 0
M  V30 14608 H 1301.77 -0.635628 -3.94715 0
M  V30 14609 H 1303.21 0.36561 -4.22421 0
M  V30 14610 C 1301.67 1.33159 -3.09468 0
M  V30 14611 O 1302.2 2.42571 -3.20191 0
M  V30 14612 N 1300.41 1.21231 -2.64105 0
M  V30 14613 H 1299.95 0.322021 -2.55579 0
M  V30 14614 H 1299.91 2.04301 -2.38974 0
M  V30 14615 N 1303.68 1.3679 -0.7827 0
M  V30 14616 C 1304.61 2.32721 -0.190604 0
M  V30 14617 C 1305.6 1.56321 0.670663 0
M  V30 14618 O 1306.78 1.84507 0.605871 0
M  V30 14619 C 1303.91 3.40564 0.680717 0
M  V30 14620 C 1302.86 4.27925 -0.080118 0
M  V30 14621 C 1302.19 5.26876 0.911361 0
M  V30 14622 C 1303.49 5.06738 -1.26545 0
M  V30 14623 H 1305.18 2.82488 -0.992023 0
M  V30 14624 H 1302.73 1.35818 -0.478484 0
M  V30 14625 H 1304.68 4.06659 1.10482 0
M  V30 14626 H 1303.41 2.89348 1.51477 0
M  V30 14627 H 1302.07 3.63376 -0.485125 0
M  V30 14628 H 1301.71 4.71936 1.74026 0
M  V30 14629 H 1301.41 5.8619 0.406762 0
M  V30 14630 H 1302.94 5.95846 1.33418 0
M  V30 14631 H 1304.35 5.65911 -0.917448 0
M  V30 14632 H 1302.75 5.75432 -1.70289 0
M  V30 14633 H 1303.82 4.38772 -2.06415 0
M  V30 14634 N 1305.16 0.53415 1.48272 0
M  V30 14635 C 1306.11 -0.226335 2.29688 0
M  V30 14636 C 1307.08 -0.929937 1.37628 0
M  V30 14637 O 1308.26 -0.930149 1.66592 0
M  V30 14638 C 1305.4 -1.26472 3.2109 0
M  V30 14639 C 1304.52 -0.569542 4.28229 0
M  V30 14640 C 1303.65 -1.59122 5.06807 0
M  V30 14641 C 1302.69 -0.879734 6.05745 0
M  V30 14642 N 1301.83 -1.84715 6.77366 0
M  V30 14643 H 1306.67 0.474111 2.94204 0
M  V30 14644 H 1304.21 0.245643 1.45034 0
M  V30 14645 H 1306.16 -1.87911 3.72485 0
M  V30 14646 H 1304.79 -1.9335 2.58487 0
M  V30 14647 H 1303.85 0.158872 3.80068 0
M  V30 14648 H 1305.16 -0.0110904 4.98799 0
M  V30 14649 H 1304.31 -2.27977 5.62238 0
M  V30 14650 H 1303.05 -2.18357 4.36086 0
M  V30 14651 H 1302.06 -0.177134 5.49515 0
M  V30 14652 H 1303.28 -0.293439 6.78466 0
M  V30 14653 H 1301.23 -2.42851 6.09393 0
M  V30 14654 H 1301.14 -1.34025 7.44025 0
M  V30 14655 H 1302.41 -2.52756 7.37384 0
M  V30 14656 N 1306.64 -1.55279 0.269478 0
M  V30 14657 C 1307.92 -1.91458 -0.400412 0
M  V30 14658 C 1308.3 -1.19306 -1.74153 0
M  V30 14659 O 1307.65 -0.318017 -2.26276 0
M  V30 14660 C 1307.86 -3.44698 -0.546258 0
M  V30 14661 C 1309.2 -4.16374 -0.831758 0
M  V30 14662 O 1310.23 -3.50561 -0.631279 0
M  V30 14663 O 1309.09 -5.32826 -1.21484 0
M  V30 14664 H 1306.18 -0.79766 -0.218328 0
M  V30 14665 H 1308.73 -1.66747 0.315214 0
M  V30 14666 H 1307.5 -3.89273 0.397784 0
M  V30 14667 H 1307.12 -3.75345 -1.31157 0
M  V30 14668 N 1308.12 0.00332656 -1.576 0
M  V30 14669 C 1309.05 1.02964 -2.03651 0
M  V30 14670 C 1310.03 1.33675 -0.925724 0
M  V30 14671 O 1311.21 1.45896 -1.19359 0
M  V30 14672 C 1308.34 2.35808 -2.4313 0
M  V30 14673 C 1307.39 2.20781 -3.64908 0
M  V30 14674 S 1308.22 1.53697 -5.12969 0
M  V30 14675 C 1309.38 2.87978 -5.55715 0
M  V30 14676 H 1309.61 0.637508 -2.90384 0
M  V30 14677 H 1307.14 0.214095 -1.52908 0
M  V30 14678 H 1309.1 3.12193 -2.66544 0
M  V30 14679 H 1307.76 2.72162 -1.56802 0
M  V30 14680 H 1306.95 3.1891 -3.90272 0
M  V30 14681 H 1306.56 1.5254 -3.41478 0
M  V30 14682 H 1308.85 3.84283 -5.57972 0
M  V30 14683 H 1309.79 2.67318 -6.55703 0
M  V30 14684 H 1310.2 2.91735 -4.83271 0
M  V30 14685 N 1309.6 1.55164 0.276031 0
M  V30 14686 C 1310.85 1.74833 1.0058 0
M  V30 14687 C 1311.16 0.555089 1.87558 0
M  V30 14688 O 1312.36 0.634127 2.63991 0
M  V30 14689 C 1310.82 3.09417 1.83818 0
M  V30 14690 C 1310.43 4.36299 1.01721 0
M  V30 14691 C 1312.17 3.38437 2.56244 0
M  V30 14692 C 1310.08 5.61923 1.8438 0
M  V30 14693 H 1309.01 0.651676 0.379254 0
M  V30 14694 H 1311.66 1.81626 0.26161 0
M  V30 14695 H 1310.04 2.96654 2.62321 0
M  V30 14696 H 1311.22 4.59969 0.276565 0
M  V30 14697 H 1309.53 4.144 0.407645 0
M  V30 14698 H 1312.13 4.29501 3.18485 0
M  V30 14699 H 1312.47 2.58432 3.26372 0
M  V30 14700 H 1313 3.52284 1.84773 0
M  V30 14701 H 1309.74 6.44667 1.18679 0
M  V30 14702 H 1309.26 5.424 2.56051 0
M  V30 14703 H 1310.94 6.0011 2.4182 0
M  V30 14704 N 1311.07 -0.540404 1.48045 0
M  V30 14705 C 1312.35 -1.30148 1.46017 0
M  V30 14706 C 1312.73 -2.10445 0.166171 0
M  V30 14707 O 1312.08 -2.12013 -0.852223 0
M  V30 14708 C 1312.29 -2.19177 2.71593 0
M  V30 14709 C 1313.64 -2.79655 3.19497 0
M  V30 14710 O 1314.66 -2.2947 2.72437 0
M  V30 14711 O 1313.52 -3.70912 4.01356 0
M  V30 14712 H 1310.61 -0.586879 0.582668 0
M  V30 14713 H 1313.16 -0.557918 1.60267 0
M  V30 14714 H 1311.93 -1.59556 3.57292 0
M  V30 14715 H 1311.56 -3.00798 2.60012 0
M  V30 14716 N 1312.55 -1.36459 -0.788468 0
M  V30 14717 C 1313.8 -1.3007 -1.54158 0
M  V30 14718 C 1314.11 0.117574 -1.95246 0
M  V30 14719 O 1315.32 0.303837 -2.69795 0
M  V30 14720 C 1313.78 -2.28216 -2.78291 0
M  V30 14721 C 1313.38 -3.75484 -2.44368 0
M  V30 14722 C 1315.13 -2.30806 -3.56271 0
M  V30 14723 C 1313.04 -4.65404 -3.64902 0
M  V30 14724 H 1311.97 -0.483345 -0.5787 0
M  V30 14725 H 1314.62 -1.61827 -0.865123 0
M  V30 14726 H 1313 -1.89454 -3.4774 0
M  V30 14727 H 1314.17 -4.22986 -1.82809 0
M  V30 14728 H 1312.49 -3.75678 -1.79597 0
M  V30 14729 H 1315.08 -2.95196 -4.45829 0
M  V30 14730 H 1315.43 -1.31687 -3.94923 0
M  V30 14731 H 1315.96 -2.68189 -2.93802 0
M  V30 14732 H 1312.7 -5.65589 -3.31344 0
M  V30 14733 H 1312.22 -4.22617 -4.25623 0
M  V30 14734 H 1313.9 -4.81721 -4.31919 0
M  V30 14735 N 1314.03 1.01274 -1.20754 0
M  V30 14736 C 1314.98 2.12012 -0.95675 0
M  V30 14737 C 1315.97 1.69143 0.0932738 0
M  V30 14738 O 1317.18 1.79908 -0.0574298 0
M  V30 14739 H 1313.55 0.692956 -0.292088 0
M  V30 14740 H 1315.52 2.30347 -1.89692 0
M  V30 14741 C 1314.27 3.43643 -0.529602 0
M  V30 14742 H 1313.6 3.77058 -1.32918 0
M  V30 14743 H 1315.04 4.22171 -0.393376 0
M  V30 14744 C 1313.5 3.2825 0.758505 0
M  V30 14745 O 1314.03 3.58309 1.81598 0
M  V30 14746 N 1312.23 2.81487 0.722022 0
M  V30 14747 H 1311.78 2.57226 -0.138807 0
M  V30 14748 H 1311.74 2.7157 1.58421 0
M  V30 14749 N 1315.51 1.01404 1.20644 0
M  V30 14750 C 1316.44 0.602465 2.25594 0
M  V30 14751 C 1317.42 -0.381216 1.65773 0
M  V30 14752 O 1318.61 -0.267209 1.92353 0
M  V30 14753 C 1315.74 -0.0626245 3.47244 0
M  V30 14754 C 1314.69 0.841776 4.1964 0
M  V30 14755 C 1314.02 0.0426002 5.34683 0
M  V30 14756 C 1315.32 2.14864 4.76058 0
M  V30 14757 H 1317.01 1.47977 2.60275 0
M  V30 14758 H 1314.56 0.712966 1.25111 0
M  V30 14759 H 1316.51 -0.362095 4.19841 0
M  V30 14760 H 1315.23 -0.974627 3.11719 0
M  V30 14761 H 1313.89 1.12521 3.48905 0
M  V30 14762 H 1313.54 -0.870973 4.95402 0
M  V30 14763 H 1313.24 0.644866 5.84051 0
M  V30 14764 H 1314.76 -0.250476 6.10086 0
M  V30 14765 H 1316.18 1.9117 5.40488 0
M  V30 14766 H 1314.57 2.70153 5.35852 0
M  V30 14767 H 1315.64 2.81336 3.9494 0
M  V30 14768 N 1316.99 -1.36373 0.789944 0
M  V30 14769 C 1318.21 -2.04011 0.373396 0
M  V30 14770 C 1318.64 -1.59171 -1.00231 0
M  V30 14771 O 1318 -0.760431 -1.64582 0
M  V30 14772 C 1318.04 -3.5783 0.446083 0
M  V30 14773 O 1317.15 -4.08759 -0.54678 0
M  V30 14774 H 1316.49 -0.644807 0.158495 0
M  V30 14775 H 1319.02 -1.74317 1.0712 0
M  V30 14776 H 1319.03 -4.06822 0.309877 0
M  V30 14777 H 1317.7 -3.89819 1.44962 0
M  V30 14778 H 1316.28 -3.71038 -0.372192 0
M  V30 14779 N 1318.47 -0.542005 -1.47987 0
M  V30 14780 C 1319.71 -0.010246 -2.01697 0
M  V30 14781 C 1320.03 1.34173 -1.42327 0
M  V30 14782 O 1321.23 1.96254 -1.87607 0
M  V30 14783 C 1319.69 0.0321032 -3.59886 0
M  V30 14784 C 1319.3 -1.31571 -4.28244 0
M  V30 14785 C 1321.04 0.512056 -4.214 0
M  V30 14786 C 1318.95 -1.23329 -5.78398 0
M  V30 14787 H 1317.88 -6.02097e-05 -0.754 0
M  V30 14788 H 1320.53 -0.687586 -1.70131 0
M  V30 14789 H 1318.91 0.774774 -3.88347 0
M  V30 14790 H 1320.09 -2.07489 -4.11442 0
M  V30 14791 H 1318.4 -1.73237 -3.78653 0
M  V30 14792 H 1321 0.591875 -5.31414 0
M  V30 14793 H 1321.34 1.52061 -3.87535 0
M  V30 14794 H 1321.87 -0.175293 -3.97414 0
M  V30 14795 H 1318.61 -2.21737 -6.16857 0
M  V30 14796 H 1318.13 -0.51567 -5.97579 0
M  V30 14797 H 1319.81 -0.928975 -6.40296 0
M  V30 14798 N 1319.94 1.55134 -0.277709 0
M  V30 14799 C 1320.89 2.19317 0.623216 0
M  V30 14800 C 1321.88 1.15863 1.11645 0
M  V30 14801 O 1323.07 1.41668 1.0611 0
M  V30 14802 C 1320.2 2.91976 1.80568 0
M  V30 14803 C 1319.28 4.02722 1.3295 0
M  V30 14804 N 1319.68 5.02582 0.569654 0
M  V30 14805 C 1317.97 4.1584 1.61224 0
M  V30 14806 C 1318.67 5.80825 0.318983 0
M  V30 14807 N 1317.65 5.36229 0.892145 0
M  V30 14808 H 1321.45 2.93879 0.0348669 0
M  V30 14809 H 1318.97 1.62196 -0.0813871 0
M  V30 14810 H 1320.96 3.36408 2.46242 0
M  V30 14811 H 1319.62 2.18925 2.39796 0
M  V30 14812 H 1320.63 5.17446 0.216749 0
M  V30 14813 H 1317.31 3.53981 2.21368 0
M  V30 14814 H 1318.7 6.71275 -0.289742 0
M  V30 14815 N 1321.42 0.00503138 1.57599 0
M  V30 14816 C 1322.37 -0.984754 2.08737 0
M  V30 14817 C 1323.34 -1.33822 0.983915 0
M  V30 14818 O 1324.52 -1.43572 1.25665 0
M  V30 14819 C 1321.66 -2.26984 2.59946 0
M  V30 14820 C 1320.78 -1.97496 3.84212 0
M  V30 14821 C 1319.91 -3.20123 4.23904 0
M  V30 14822 C 1318.95 -2.86344 5.40993 0
M  V30 14823 N 1318.09 -4.01524 5.75954 0
M  V30 14824 H 1322.93 -0.541737 2.93034 0
M  V30 14825 H 1320.46 -0.255834 1.44858 0
M  V30 14826 H 1322.42 -3.02117 2.87717 0
M  V30 14827 H 1321.05 -2.68946 1.78516 0
M  V30 14828 H 1320.1 -1.12709 3.63319 0
M  V30 14829 H 1321.42 -1.68602 4.69441 0
M  V30 14830 H 1320.57 -4.03598 4.52983 0
M  V30 14831 H 1319.31 -3.5216 3.37394 0
M  V30 14832 H 1318.31 -2.01278 5.11632 0
M  V30 14833 H 1319.54 -2.5555 6.29183 0
M  V30 14834 H 1317.49 -4.33447 4.92402 0
M  V30 14835 H 1317.4 -3.76171 6.55768 0
M  V30 14836 H 1318.67 -4.85772 6.09628 0
M  V30 14837 N 1322.9 -1.55308 -0.267798 0
M  V30 14838 C 1324.15 -1.77342 -0.99606 0
M  V30 14839 C 1324.5 -0.570502 -1.83747 0
M  V30 14840 O 1323.79 0.436721 -1.86556 0
M  V30 14841 C 1323.99 -3.02286 -1.90678 0
M  V30 14842 C 1323.82 -4.34614 -1.15501 0
M  V30 14843 C 1322.59 -4.97779 -0.868576 0
M  V30 14844 C 1324.78 -5.11427 -0.542865 0
M  V30 14845 N 1322.77 -6.13833 -0.0905541 0
M  V30 14846 C 1324.14 -6.19918 0.100738 0
M  V30 14847 C 1326.19 -4.95851 -0.45123 0
M  V30 14848 C 1324.9 -7.14528 0.827151 0
M  V30 14849 C 1326.92 -5.90821 0.261602 0
M  V30 14850 C 1326.28 -6.98705 0.893924 0
M  V30 14851 H 1322.38 -0.701146 -0.346292 0
M  V30 14852 H 1324.97 -1.92802 -0.271211 0
M  V30 14853 H 1323.14 -2.88192 -2.60384 0
M  V30 14854 H 1324.87 -3.12702 -2.56904 0
M  V30 14855 H 1321.62 -4.58789 -1.17515 0
M  V30 14856 H 1322.05 -6.76396 0.28594 0
M  V30 14857 H 1326.69 -4.1254 -0.925774 0
M  V30 14858 H 1324.41 -7.97356 1.31336 0
M  V30 14859 H 1327.99 -5.80847 0.332892 0
M  V30 14860 H 1326.87 -7.70927 1.43672 0
M  V30 14861 N 1324.38 0.532545 -1.4833 0
M  V30 14862 C 1325.33 1.65832 -1.63103 0
M  V30 14863 C 1326.32 1.61929 -0.497538 0
M  V30 14864 O 1327.53 1.66817 -0.676176 0
M  V30 14865 H 1323.9 0.549152 -0.513748 0
M  V30 14866 H 1325.87 1.50515 -2.57658 0
M  V30 14867 C 1324.62 3.04113 -1.68555 0
M  V30 14868 H 1323.94 3.07809 -2.55135 0
M  V30 14869 H 1325.38 3.82506 -1.82936 0
M  V30 14870 C 1323.84 3.34225 -0.423711 0
M  V30 14871 O 1324.37 3.99005 0.464523 0
M  V30 14872 N 1322.58 2.89087 -0.296192 0
M  V30 14873 H 1322.13 2.36547 -1.01997 0
M  V30 14874 H 1322.08 3.09604 0.547082 0
M  V30 14875 N 1325.86 1.36875 0.78122 0
M  V30 14876 C 1327.27 1.28236 1.35692 0
M  V30 14877 C 1327.62 -0.0742286 1.9606 0
M  V30 14878 O 1326.74 -0.97588 1.93146 0
M  V30 14879 C 1327.34 2.32215 2.46702 0
M  V30 14880 C 1325.9 2.2724 3.00065 0
M  V30 14881 C 1325.04 2.16553 1.73206 0
M  V30 14882 H 1327.99 1.47634 0.582217 0
M  V30 14883 H 1328.02 1.96333 3.25935 0
M  V30 14884 H 1327.53 3.30938 2.02735 0
M  V30 14885 H 1325.63 1.3201 3.48431 0
M  V30 14886 H 1325.74 3.20267 3.56323 0
M  V30 14887 H 1324.11 1.62941 1.95761 0
M  V30 14888 H 1324.89 3.17176 1.31356 0
M  V30 14889 N 1327.33 -1.00632 1.21289 0
M  V30 14890 C 1328.3 -2.07543 0.972548 0
M  V30 14891 C 1329.3 -1.60703 -0.0559244 0
M  V30 14892 O 1330.49 -1.73255 0.181213 0
M  V30 14893 C 1327.62 -3.37696 0.466297 0
M  V30 14894 H 1328.81 -2.30298 1.92101 0
M  V30 14895 H 1326.36 -1.17588 1.02969 0
M  V30 14896 H 1327.1 -3.2062 -0.487148 0
M  V30 14897 H 1326.88 -3.73024 1.20813 0
M  V30 14898 H 1328.37 -4.16388 0.317962 0
M  V30 14899 N 1328.81 -1.02043 -1.20104 0
M  V30 14900 C 1329.72 -0.603724 -2.26699 0
M  V30 14901 C 1330.74 0.360558 -1.70223 0
M  V30 14902 O 1331.91 0.220552 -2.00189 0
M  V30 14903 C 1328.98 0.0475988 -3.46667 0
M  V30 14904 C 1328.04 -0.963111 -4.18357 0
M  V30 14905 C 1327.27 -0.342775 -5.32598 0
M  V30 14906 O 1327.5 0.856509 -5.63933 0
M  V30 14907 O 1326.43 -1.06141 -5.92467 0
M  V30 14908 H 1330.26 -1.49125 -2.64566 0
M  V30 14909 H 1327.84 -0.790134 -1.26796 0
M  V30 14910 H 1329.72 0.411177 -4.19389 0
M  V30 14911 H 1328.4 0.909266 -3.10667 0
M  V30 14912 H 1327.3 -1.37813 -3.47791 0
M  V30 14913 H 1328.64 -1.79487 -4.58307 0
M  V30 14914 N 1330.29 1.35952 -0.797165 0
M  V30 14915 C 1331.54 1.98283 -0.369685 0
M  V30 14916 C 1331.85 1.63968 1.06649 0
M  V30 14917 O 1333.06 2.19591 1.59662 0
M  V30 14918 C 1331.51 3.54692 -0.610046 0
M  V30 14919 C 1331.12 3.97925 -2.05814 0
M  V30 14920 C 1332.87 4.23778 -0.247457 0
M  V30 14921 C 1330.77 5.47142 -2.24475 0
M  V30 14922 H 1329.7 0.741909 -0.134489 0
M  V30 14923 H 1332.35 1.55146 -0.979893 0
M  V30 14924 H 1330.74 3.95938 0.0699822 0
M  V30 14925 H 1331.91 3.67857 -2.77521 0
M  V30 14926 H 1330.23 3.417 -2.37971 0
M  V30 14927 H 1332.82 5.33452 -0.365059 0
M  V30 14928 H 1333.17 4.08436 0.805315 0
M  V30 14929 H 1333.7 3.87921 -0.881028 0
M  V30 14930 H 1330.44 5.67441 -3.28163 0
M  V30 14931 H 1329.96 5.78811 -1.57282 0
M  V30 14932 H 1331.64 6.13475 -2.05567 0
M  V30 14933 N 1331.77 0.549846 1.47697 0
M  V30 14934 C 1332.68 -0.205286 2.337 0
M  V30 14935 C 1333.69 -0.919271 1.47734 0
M  V30 14936 O 1334.87 -0.889808 1.80678 0
M  V30 14937 C 1331.94 -1.22658 3.24278 0
M  V30 14938 C 1331 -0.520815 4.26129 0
M  V30 14939 C 1330.23 -1.49345 5.12378 0
M  V30 14940 O 1330.45 -2.72772 5.00951 0
M  V30 14941 O 1329.39 -1.02197 5.93161 0
M  V30 14942 H 1333.21 0.499982 2.99556 0
M  V30 14943 H 1330.8 0.310538 1.46137 0
M  V30 14944 H 1332.68 -1.8163 3.80248 0
M  V30 14945 H 1331.35 -1.9139 2.61059 0
M  V30 14946 H 1330.26 0.109906 3.73939 0
M  V30 14947 H 1331.59 0.124922 4.92041 0
M  V30 14948 N 1333.25 -1.54984 0.285932 0
M  V30 14949 C 1334.19 -2.2295 -0.596822 0
M  V30 14950 C 1335.16 -1.20674 -1.14136 0
M  V30 14951 O 1336.35 -1.49249 -1.18867 0
M  V30 14952 C 1333.49 -2.9625 -1.77002 0
M  V30 14953 C 1332.6 -4.13268 -1.25831 0
M  V30 14954 C 1331.74 -4.74187 -2.39417 0
M  V30 14955 C 1330.78 -5.83377 -1.85304 0
M  V30 14956 N 1329.91 -6.38313 -2.92405 0
M  V30 14957 H 1334.75 -2.97998 -0.0106104 0
M  V30 14958 H 1332.29 -1.47099 0.00653041 0
M  V30 14959 H 1334.25 -3.36971 -2.4598 0
M  V30 14960 H 1332.88 -2.23606 -2.3281 0
M  V30 14961 H 1331.93 -3.77593 -0.461278 0
M  V30 14962 H 1333.24 -4.91979 -0.822049 0
M  V30 14963 H 1332.4 -5.17683 -3.16369 0
M  V30 14964 H 1331.13 -3.94775 -2.86364 0
M  V30 14965 H 1330.14 -5.3932 -1.06835 0
M  V30 14966 H 1331.36 -6.64664 -1.3928 0
M  V30 14967 H 1329.31 -5.61791 -3.38713 0
M  V30 14968 H 1329.23 -7.12328 -2.53228 0
M  V30 14969 H 1330.5 -6.86468 -3.69299 0
M  V30 14970 N 1334.72 -0.0133892 -1.57594 0
M  V30 14971 C 1335.65 0.972341 -2.12292 0
M  V30 14972 C 1336.64 1.34971 -1.03522 0
M  V30 14973 O 1337.82 1.4311 -1.31275 0
M  V30 14974 C 1334.95 2.25988 -2.63717 0
M  V30 14975 C 1333.9 2.02373 -3.77133 0
M  V30 14976 C 1333.23 3.37256 -4.14925 0
M  V30 14977 C 1334.53 1.37553 -5.03861 0
M  V30 14978 H 1336.22 0.516869 -2.94905 0
M  V30 14979 H 1333.77 0.247176 -1.41863 0
M  V30 14980 H 1335.72 2.95313 -3.00613 0
M  V30 14981 H 1334.45 2.73672 -1.78244 0
M  V30 14982 H 1333.11 1.3547 -3.40651 0
M  V30 14983 H 1332.75 3.82669 -3.26456 0
M  V30 14984 H 1332.45 3.22267 -4.91343 0
M  V30 14985 H 1333.98 4.07875 -4.5439 0
M  V30 14986 H 1335.39 1.96855 -5.38443 0
M  V30 14987 H 1333.79 1.33011 -5.85174 0
M  V30 14988 H 1334.86 0.346429 -4.83661 0
M  V30 14989 N 1336.2 1.55448 0.259558 0
M  V30 14990 C 1337.17 1.88459 1.30445 0
M  V30 14991 C 1338.17 0.760096 1.41701 0
M  V30 14992 O 1339.36 1.02819 1.4062 0
M  V30 14993 C 1336.49 2.10181 2.68397 0
M  V30 14994 H 1337.68 2.81877 1.02398 0
M  V30 14995 H 1335.23 1.48145 0.498262 0
M  V30 14996 H 1335.97 1.19189 3.01603 0
M  V30 14997 H 1335.75 2.92066 2.6161 0
M  V30 14998 H 1337.24 2.36947 3.43869 0
M  V30 14999 N 1337.68 -0.524672 1.4861 0
M  V30 15000 C 1338.91 -1.30292 1.60335 0
M  V30 15001 C 1339.32 -1.87338 0.264774 0
M  V30 15002 O 1338.66 -1.67388 -0.756756 0
M  V30 15003 C 1338.72 -2.48809 2.59488 0
M  V30 15004 C 1338.39 -2.12811 4.04426 0
M  V30 15005 C 1339.38 -1.68171 4.9195 0
M  V30 15006 C 1337.07 -2.23171 4.5 0
M  V30 15007 C 1339.06 -1.34363 6.23077 0
M  V30 15008 C 1336.75 -1.88975 5.81147 0
M  V30 15009 C 1337.75 -1.44643 6.67508 0
M  V30 15010 O 1337.44 -1.10898 7.96214 0
M  V30 15011 H 1337.17 -0.402288 0.543268 0
M  V30 15012 H 1339.72 -0.63908 1.95205 0
M  V30 15013 H 1337.95 -3.18192 2.19751 0
M  V30 15014 H 1339.64 -3.10866 2.60992 0
M  V30 15015 H 1340.41 -1.59632 4.57977 0
M  V30 15016 H 1336.29 -2.56632 3.82963 0
M  V30 15017 H 1339.83 -0.996875 6.90441 0
M  V30 15018 H 1335.73 -1.97156 6.14654 0
M  V30 15019 H 1336.5 -1.2425 8.09014 0
M  V30 15020 N 1339.16 -1.37287 -0.77395 0
M  V30 15021 C 1340.38 -1.35734 -1.56815 0
M  V30 15022 C 1340.81 0.0555546 -1.88018 0
M  V30 15023 O 1340.17 1.03197 -1.49064 0
M  V30 15024 C 1340.21 -2.2008 -2.85652 0
M  V30 15025 O 1339.32 -1.60391 -3.79932 0
M  V30 15026 H 1338.66 -0.463881 -0.47509 0
M  V30 15027 H 1341.19 -1.80781 -0.958087 0
M  V30 15028 H 1341.2 -2.33215 -3.34776 0
M  V30 15029 H 1339.87 -3.22781 -2.6227 0
M  V30 15030 H 1338.45 -1.56285 -3.3857 0
M  V30 15031 N 1340.64 0.999871 -1.21821 0
M  V30 15032 C 1341.88 1.7384 -1.03855 0
M  V30 15033 C 1342.21 1.89749 0.42727 0
M  V30 15034 O 1341.47 1.43261 1.33323 0
M  V30 15035 C 1341.77 3.1509 -1.6868 0
M  V30 15036 C 1341.43 3.19115 -3.18554 0
M  V30 15037 C 1340.09 3.19921 -3.5945 0
M  V30 15038 C 1342.45 3.15954 -4.14515 0
M  V30 15039 C 1339.77 3.15257 -4.94803 0
M  V30 15040 C 1342.13 3.12831 -5.49836 0
M  V30 15041 C 1340.79 3.11949 -5.90122 0
M  V30 15042 H 1340.06 0.636126 -0.380032 0
M  V30 15043 H 1342.71 1.17151 -1.51485 0
M  V30 15044 H 1341.01 3.75044 -1.13356 0
M  V30 15045 H 1342.71 3.70962 -1.52277 0
M  V30 15046 H 1339.3 3.19234 -2.85986 0
M  V30 15047 H 1343.48 3.14487 -3.83942 0
M  V30 15048 H 1338.74 3.12915 -5.25256 0
M  V30 15049 H 1342.91 3.09339 -6.23925 0
M  V30 15050 H 1340.54 3.0809 -6.94971 0
M  V30 15051 N 1342.11 1.02678 1.19562 0
M  V30 15052 C 1343.36 0.723086 1.89471 0
M  V30 15053 C 1343.69 -0.746269 1.79289 0
M  V30 15054 O 1342.97 -1.54322 1.18384 0
M  V30 15055 C 1343.25 1.17224 3.40486 0
M  V30 15056 C 1343.1 2.70266 3.5955 0
M  V30 15057 C 1344.42 0.751397 4.33638 0
M  V30 15058 H 1341.54 0.264155 0.688034 0
M  V30 15059 H 1344.18 1.27633 1.40747 0
M  V30 15060 H 1342.33 0.701544 3.82113 0
M  V30 15061 H 1344.01 3.25266 3.27108 0
M  V30 15062 H 1342.25 3.10758 3.02675 0
M  V30 15063 H 1342.92 2.96748 4.65451 0
M  V30 15064 H 1345.4 1.15621 3.99714 0
M  V30 15065 H 1344.27 1.09358 5.37896 0
M  V30 15066 H 1344.53 -0.346367 4.40741 0
M  V30 15067 N 1343.59 -1.35528 0.804364 0
M  V30 15068 C 1344.52 -2.32388 0.227604 0
M  V30 15069 C 1345.5 -1.57368 -0.645709 0
M  V30 15070 O 1346.69 -1.85448 -0.576441 0
M  V30 15071 C 1343.82 -3.41603 -0.62645 0
M  V30 15072 C 1342.77 -4.27743 0.148187 0
M  V30 15073 C 1342.1 -5.28259 -0.827425 0
M  V30 15074 C 1343.4 -5.04661 1.34591 0
M  V30 15075 H 1345.09 -2.80874 1.03684 0
M  V30 15076 H 1342.64 -1.3504 0.500031 0
M  V30 15077 H 1344.59 -4.08365 -1.03999 0
M  V30 15078 H 1343.32 -2.91721 -1.46855 0
M  V30 15079 H 1341.97 -3.62558 0.542874 0
M  V30 15080 H 1341.62 -4.74645 -1.66496 0
M  V30 15081 H 1341.32 -5.86763 -0.313453 0
M  V30 15082 H 1342.85 -5.97893 -1.23921 0
M  V30 15083 H 1344.26 -5.6438 1.00736 0
M  V30 15084 H 1342.66 -5.7265 1.79422 0
M  V30 15085 H 1343.73 -4.35432 2.1337 0
M  V30 15086 N 1345.07 -0.557671 -1.47404 0
M  V30 15087 C 1346.3 -0.0366797 -2.07368 0
M  V30 15088 C 1346.72 1.2478 -1.40754 0
M  V30 15089 O 1346.08 1.74757 -0.48268 0
M  V30 15090 C 1346.13 0.141728 -3.60321 0
M  V30 15091 O 1345.23 1.20419 -3.94427 0
M  V30 15092 H 1344.57 -0.0515319 -0.661997 0
M  V30 15093 H 1347.1 -0.773485 -1.89416 0
M  V30 15094 H 1347.11 0.355787 -4.06446 0
M  V30 15095 H 1345.79 -0.796433 -4.08203 0
M  V30 15096 H 1344.36 0.970589 -3.60047 0
M  V30 15097 N 1346.55 1.54831 -0.294147 0
M  V30 15098 C 1347.79 2.0191 0.318092 0
M  V30 15099 C 1348.15 1.178 1.51615 0
M  V30 15100 O 1349.35 1.54546 2.1993 0
M  V30 15101 C 1347.63 3.51018 0.672375 0
M  V30 15102 S 1349.18 4.20066 1.26845 0
M  V30 15103 H 1346 0.704215 0.0979881 0
M  V30 15104 H 1348.6 1.90926 -0.420422 0
M  V30 15105 H 1347.31 4.09872 -0.208159 0
M  V30 15106 H 1346.84 3.66025 1.44186 0
M  V30 15107 H 1348.85 4.25274 2.55649 0
M  V30 15108 N 1348.03 0.0217466 1.57585 0
M  V30 15109 C 1348.97 -0.962559 2.0977 0
M  V30 15110 C 1349.94 -1.32771 0.998053 0
M  V30 15111 O 1351.13 -1.42231 1.27181 0
M  V30 15112 C 1348.27 -2.24214 2.62339 0
M  V30 15113 C 1347.38 -1.9341 3.86286 0
M  V30 15114 C 1346.52 -3.15609 4.27275 0
M  V30 15115 C 1345.56 -2.8059 5.43999 0
M  V30 15116 N 1344.69 -3.95392 5.8018 0
M  V30 15117 H 1349.53 -0.510626 2.93593 0
M  V30 15118 H 1347.07 -0.240456 1.45121 0
M  V30 15119 H 1349.03 -2.99049 2.90905 0
M  V30 15120 H 1347.66 -2.67037 1.81358 0
M  V30 15121 H 1346.71 -1.08849 3.64494 0
M  V30 15122 H 1348.02 -1.63614 4.71203 0
M  V30 15123 H 1347.18 -3.9877 4.57239 0
M  V30 15124 H 1345.92 -3.48561 3.41111 0
M  V30 15125 H 1344.92 -1.9584 5.13738 0
M  V30 15126 H 1346.15 -2.48863 6.31858 0
M  V30 15127 H 1344.09 -4.282 4.96971 0
M  V30 15128 H 1344.01 -3.69195 6.59721 0
M  V30 15129 H 1345.28 -4.79279 6.14746 0
M  V30 15130 N 1349.51 -1.55583 -0.251311 0
M  V30 15131 C 1350.44 -1.84909 -1.33731 0
M  V30 15132 C 1351.42 -0.703814 -1.46578 0
M  V30 15133 O 1352.6 -0.949108 -1.62862 0
M  V30 15134 C 1349.73 -2.0299 -2.71133 0
M  V30 15135 C 1348.77 -3.25615 -2.75458 0
M  V30 15136 S 1349.61 -4.82388 -2.32512 0
M  V30 15137 C 1350.76 -5.03469 -3.71846 0
M  V30 15138 H 1351 -2.76733 -1.08656 0
M  V30 15139 H 1348.53 -1.47634 -0.45207 0
M  V30 15140 H 1350.49 -2.14091 -3.5025 0
M  V30 15141 H 1349.15 -1.12016 -2.93447 0
M  V30 15142 H 1348.34 -3.35219 -3.76356 0
M  V30 15143 H 1347.94 -3.13217 -2.0438 0
M  V30 15144 H 1350.23 -4.90542 -4.67306 0
M  V30 15145 H 1351.18 -6.05463 -3.67179 0
M  V30 15146 H 1351.59 -4.31337 -3.64155 0
M  V30 15147 N 1350.98 0.516783 -1.48886 0
M  V30 15148 C 1351.92 1.63632 -1.60491 0
M  V30 15149 C 1352.93 1.55301 -0.488424 0
M  V30 15150 O 1354.12 1.6152 -0.75983 0
M  V30 15151 C 1351.22 3.02351 -1.53093 0
M  V30 15152 C 1350.39 3.36028 -2.80006 0
M  V30 15153 C 1349.45 4.54087 -2.65879 0
M  V30 15154 O 1348.48 4.56652 -3.3979 0
M  V30 15155 N 1349.68 5.53058 -1.76372 0
M  V30 15156 H 1352.44 1.54109 -2.57042 0
M  V30 15157 H 1350 0.704338 -1.45776 0
M  V30 15158 H 1352 3.79225 -1.41318 0
M  V30 15159 H 1350.57 3.05881 -0.644637 0
M  V30 15160 H 1349.79 2.48204 -3.06249 0
M  V30 15161 H 1351.07 3.5532 -3.64177 0
M  V30 15162 H 1350.47 5.53773 -1.1555 0
M  V30 15163 H 1349.03 6.29097 -1.70529 0
M  V30 15164 N 1352.46 1.37696 0.766659 0
M  V30 15165 C 1353.41 1.33871 1.88009 0
M  V30 15166 C 1354.38 0.2034 1.6485 0
M  V30 15167 O 1355.56 0.393569 1.86697 0
M  V30 15168 C 1352.7 1.1566 3.25141 0
M  V30 15169 C 1351.82 2.38465 3.6022 0
M  V30 15170 C 1350.95 2.13087 4.86587 0
M  V30 15171 C 1349.99 3.31732 5.14413 0
M  V30 15172 N 1349.13 3.05872 6.3197 0
M  V30 15173 H 1353.97 2.29065 1.90613 0
M  V30 15174 H 1351.5 1.13821 0.931837 0
M  V30 15175 H 1353.46 1.03122 4.04255 0
M  V30 15176 H 1352.09 0.241115 3.21898 0
M  V30 15177 H 1351.14 2.61725 2.76051 0
M  V30 15178 H 1352.46 3.26933 3.76718 0
M  V30 15179 H 1351.61 1.97609 5.73616 0
M  V30 15180 H 1350.35 1.21965 4.72203 0
M  V30 15181 H 1349.35 3.47743 4.25858 0
M  V30 15182 H 1350.58 4.23712 5.30702 0
M  V30 15183 H 1348.53 2.17384 6.18935 0
M  V30 15184 H 1348.44 3.87885 6.48908 0
M  V30 15185 H 1349.71 2.94023 7.21922 0
M  V30 15186 N 1353.94 -0.993397 1.22349 0
M  V30 15187 C 1354.87 -2.10171 1.01737 0
M  V30 15188 C 1355.85 -1.69989 -0.0615276 0
M  V30 15189 O 1357.04 -1.93939 0.100591 0
M  V30 15190 C 1354.17 -3.42186 0.593801 0
M  V30 15191 C 1353.12 -3.96215 1.61858 0
M  V30 15192 C 1352.45 -5.24272 1.05086 0
M  V30 15193 C 1353.75 -4.26956 3.00842 0
M  V30 15194 H 1355.44 -2.27673 1.94436 0
M  V30 15195 H 1352.99 -1.09408 0.936258 0
M  V30 15196 H 1354.94 -4.19131 0.436715 0
M  V30 15197 H 1353.66 -3.2451 -0.368855 0
M  V30 15198 H 1352.32 -3.21401 1.76343 0
M  V30 15199 H 1351.97 -5.02937 0.0795747 0
M  V30 15200 H 1351.67 -5.61387 1.73547 0
M  V30 15201 H 1353.19 -6.03851 0.905349 0
M  V30 15202 H 1354.61 -4.94699 2.89734 0
M  V30 15203 H 1353 -4.75242 3.66422 0
M  V30 15204 H 1354.07 -3.34752 3.50812 0
M  V30 15205 N 1355.42 -1.03311 -1.19015 0
M  V30 15206 C 1356.35 -0.562092 -2.21169 0
M  V30 15207 C 1357.33 0.399321 -1.5762 0
M  V30 15208 O 1358.51 0.315421 -1.85842 0
M  V30 15209 C 1355.64 0.179843 -3.38222 0
M  V30 15210 C 1354.69 -0.733653 -4.20143 0
M  V30 15211 S 1355.52 -2.21226 -4.87667 0
M  V30 15212 C 1356.67 -1.48095 -6.08127 0
M  V30 15213 H 1356.91 -1.42762 -2.6078 0
M  V30 15214 H 1354.44 -0.843405 -1.29329 0
M  V30 15215 H 1356.4 0.601764 -4.06065 0
M  V30 15216 H 1355.06 1.02116 -2.97037 0
M  V30 15217 H 1354.25 -0.160633 -5.03744 0
M  V30 15218 H 1353.85 -1.09408 -3.57639 0
M  V30 15219 H 1356.15 -0.76985 -6.73112 0
M  V30 15220 H 1357.09 -2.29372 -6.69921 0
M  V30 15221 H 1357.5 -0.976597 -5.55988 0
M  V30 15222 N 1356.9 1.35099 -0.81154 0
M  V30 15223 C 1358.13 2.02566 -0.406265 0
M  V30 15224 C 1358.53 1.61291 0.989032 0
M  V30 15225 O 1357.88 0.808496 1.64952 0
M  V30 15226 C 1357.94 3.57087 -0.415847 0
M  V30 15227 C 1357.6 4.21645 -1.76251 0
M  V30 15228 C 1358.6 4.42974 -2.72159 0
M  V30 15229 C 1356.28 4.58658 -2.04787 0
M  V30 15230 C 1358.28 5.00425 -3.94783 0
M  V30 15231 C 1355.97 5.15822 -3.27674 0
M  V30 15232 C 1356.96 5.36648 -4.2249 0
M  V30 15233 O 1356.65 5.92606 -5.43207 0
M  V30 15234 H 1356.38 0.65615 -0.162612 0
M  V30 15235 H 1358.94 1.73596 -1.09789 0
M  V30 15236 H 1357.17 3.85269 0.332409 0
M  V30 15237 H 1358.86 4.05887 -0.0322011 0
M  V30 15238 H 1359.62 4.14753 -2.51405 0
M  V30 15239 H 1355.5 4.41759 -1.31795 0
M  V30 15240 H 1359.05 5.16596 -4.68801 0
M  V30 15241 H 1354.94 5.4347 -3.48296 0
M  V30 15242 H 1355.71 6.11052 -5.44571 0
M  V30 15243 N 1358.37 0.56548 1.47106 0
M  V30 15244 C 1359.32 -0.177564 2.30116 0
M  V30 15245 C 1360.29 -0.900534 1.39569 0
M  V30 15246 O 1361.48 -0.894603 1.68527 0
M  V30 15247 C 1358.62 -1.19633 3.237 0
M  V30 15248 C 1357.73 -0.47858 4.29341 0
M  V30 15249 C 1356.86 -1.48336 5.10068 0
M  V30 15250 C 1355.9 -0.751049 6.07475 0
M  V30 15251 N 1355.04 -1.70306 6.81132 0
M  V30 15252 H 1359.88 0.536409 2.93132 0
M  V30 15253 H 1357.42 0.276352 1.44481 0
M  V30 15254 H 1359.37 -1.79967 3.76388 0
M  V30 15255 H 1358 -1.87823 2.6253 0
M  V30 15256 H 1357.06 0.239454 3.79646 0
M  V30 15257 H 1358.37 0.0947147 4.9871 0
M  V30 15258 H 1357.52 -2.16 5.66947 0
M  V30 15259 H 1356.26 -2.09058 4.4062 0
M  V30 15260 H 1355.27 -0.0605336 5.49767 0
M  V30 15261 H 1356.49 -0.14946 6.78936 0
M  V30 15262 H 1354.44 -2.2987 6.14407 0
M  V30 15263 H 1354.35 -1.18213 7.46701 0
M  V30 15264 H 1355.62 -2.37058 7.42579 0
M  V30 15265 N 1359.85 -1.54672 0.302354 0
M  V30 15266 C 1361.26 -1.85731 -0.190019 0
M  V30 15267 C 1361.61 -1.22427 -1.53317 0
M  V30 15268 O 1360.74 -0.522461 -2.09998 0
M  V30 15269 C 1361.33 -3.36971 -0.351562 0
M  V30 15270 C 1359.89 -3.68056 -0.788155 0
M  V30 15271 C 1359.04 -2.7711 0.102705 0
M  V30 15272 H 1361.99 -1.49823 0.523324 0
M  V30 15273 H 1362.01 -3.61547 -1.18592 0
M  V30 15274 H 1361.52 -3.83016 0.626152 0
M  V30 15275 H 1359.63 -3.2753 -1.77637 0
M  V30 15276 H 1359.74 -4.75244 -0.606604 0
M  V30 15277 H 1358.1 -2.51243 -0.418235 0
M  V30 15278 H 1358.89 -3.25975 1.0768 0
M  V30 15279 N 1361.33 -0.0301034 -1.57571 0
M  V30 15280 C 1362.26 0.986212 -2.05789 0
M  V30 15281 C 1363.24 1.31682 -0.95387 0
M  V30 15282 O 1364.43 1.43332 -1.22427 0
M  V30 15283 C 1361.55 2.30598 -2.48077 0
M  V30 15284 C 1360.6 2.12991 -3.69509 0
M  V30 15285 S 1361.43 1.42782 -5.16114 0
M  V30 15286 C 1362.59 2.76126 -5.61699 0
M  V30 15287 H 1362.82 0.575769 -2.91671 0
M  V30 15288 H 1360.35 0.181613 -1.53328 0
M  V30 15289 H 1362.31 3.06469 -2.73107 0
M  V30 15290 H 1360.97 2.68775 -1.62539 0
M  V30 15291 H 1360.17 3.1056 -3.96949 0
M  V30 15292 H 1359.77 1.45263 -3.44637 0
M  V30 15293 H 1362.06 3.72361 -5.65998 0
M  V30 15294 H 1363 2.53349 -6.61226 0
M  V30 15295 H 1363.41 2.81418 -4.89351 0
M  V30 15296 N 1362.81 1.55714 0.243056 0
M  V30 15297 C 1363.76 1.91467 1.32072 0
M  V30 15298 C 1364.75 0.794182 1.4963 0
M  V30 15299 O 1365.96 0.978835 1.51059 0
M  V30 15300 H 1362.33 0.60815 0.442333 0
M  V30 15301 H 1364.3 2.81433 0.991865 0
M  V30 15302 C 1363.05 2.22917 2.6684 0
M  V30 15303 H 1362.37 3.08639 2.5413 0
M  V30 15304 H 1363.81 2.51833 3.4111 0
M  V30 15305 C 1362.27 1.04683 3.20223 0
M  V30 15306 O 1362.8 0.296806 4.00602 0
M  V30 15307 N 1361.01 0.836419 2.78303 0
M  V30 15308 H 1360.56 1.44804 2.13048 0
M  V30 15309 H 1360.51 0.0470167 3.14365 0
M  V30 15310 N 1364.29 -0.50888 1.49158 0
M  V30 15311 C 1365.53 -1.26537 1.58481 0
M  V30 15312 C 1365.87 -1.92353 0.267168 0
M  V30 15313 O 1365.14 -1.80336 -0.728639 0
M  V30 15314 C 1365.42 -2.33846 2.73839 0
M  V30 15315 C 1365.28 -1.72582 4.15374 0
M  V30 15316 C 1366.6 -3.35467 2.84868 0
M  V30 15317 H 1363.71 -0.458697 0.576859 0
M  V30 15318 H 1366.36 -0.564728 1.81413 0
M  V30 15319 H 1364.51 -2.93605 2.54417 0
M  V30 15320 H 1366.18 -1.16711 4.46292 0
M  V30 15321 H 1364.42 -1.03025 4.21389 0
M  V30 15322 H 1365.09 -2.5038 4.91949 0
M  V30 15323 H 1367.57 -2.85689 3.02524 0
M  V30 15324 H 1366.44 -4.07922 3.67275 0
M  V30 15325 H 1366.71 -3.97313 1.93894 0
M  V30 15326 N 1365.76 -1.381 -0.759346 0
M  V30 15327 C 1366.67 -1.37086 -1.9038 0
M  V30 15328 C 1367.69 -0.268738 -1.71912 0
M  V30 15329 O 1368.87 -0.506205 -1.94935 0
M  V30 15330 C 1365.93 -1.18905 -3.25672 0
M  V30 15331 C 1364.99 -2.3887 -3.56707 0
M  V30 15332 C 1364.23 -2.21546 -4.85544 0
M  V30 15333 O 1364.45 -1.20616 -5.57501 0
M  V30 15334 O 1363.38 -3.10009 -5.15924 0
M  V30 15335 H 1367.21 -2.33505 -1.94188 0
M  V30 15336 H 1364.79 -1.18959 -0.903826 0
M  V30 15337 H 1366.68 -1.10803 -4.06572 0
M  V30 15338 H 1365.35 -0.255675 -3.22689 0
M  V30 15339 H 1364.26 -2.52546 -2.75992 0
M  V30 15340 H 1365.59 -3.30817 -3.64446 0
M  V30 15341 N 1367.24 0.986894 -1.22875 0
M  V30 15342 C 1368.19 2.07811 -1.00416 0
M  V30 15343 C 1369.16 1.65925 0.0761734 0
M  V30 15344 O 1370.34 1.90654 -0.0746294 0
M  V30 15345 C 1367.48 3.39941 -0.594471 0
M  V30 15346 C 1366.6 3.95134 -1.74622 0
M  V30 15347 C 1365.73 5.1545 -1.28394 0
M  V30 15348 C 1364.77 5.62794 -2.40686 0
M  V30 15349 N 1363.91 6.74343 -1.95462 0
M  V30 15350 H 1368.75 2.26356 -1.93822 0
M  V30 15351 H 1366.29 1.10966 -0.965661 0
M  V30 15352 H 1368.24 4.15828 -0.338078 0
M  V30 15353 H 1366.87 3.21379 0.302587 0
M  V30 15354 H 1365.93 3.16064 -2.11679 0
M  V30 15355 H 1367.24 4.26247 -2.59066 0
M  V30 15356 H 1366.39 5.98646 -0.98529 0
M  V30 15357 H 1365.13 4.85975 -0.409789 0
M  V30 15358 H 1364.14 4.78182 -2.71333 0
M  V30 15359 H 1365.36 5.9429 -3.28627 0
M  V30 15360 H 1363.31 6.46641 -1.10417 0
M  V30 15361 H 1363.22 7.04806 -2.73469 0
M  V30 15362 H 1364.49 7.6103 -1.68683 0
M  V30 15363 N 1368.72 1.0394 1.18466 0
M  V30 15364 C 1369.65 0.650182 2.24265 0
M  V30 15365 C 1370.63 -0.345968 1.66545 0
M  V30 15366 O 1371.82 -0.226348 1.92876 0
M  V30 15367 C 1368.95 0.0110451 3.47298 0
M  V30 15368 C 1367.9 0.930599 4.17761 0
M  V30 15369 C 1367.23 0.156005 5.34472 0
M  V30 15370 C 1368.53 2.24913 4.71393 0
M  V30 15371 H 1370.22 1.53465 2.57078 0
M  V30 15372 H 1367.77 0.739343 1.23571 0
M  V30 15373 H 1369.72 -0.272959 4.20515 0
M  V30 15374 H 1368.44 -0.908288 3.13716 0
M  V30 15375 H 1367.1 1.19897 3.4644 0
M  V30 15376 H 1366.75 -0.765695 4.97138 0
M  V30 15377 H 1366.45 0.768606 5.82551 0
M  V30 15378 H 1367.97 -0.121011 6.1048 0
M  V30 15379 H 1369.39 2.02592 5.36311 0
M  V30 15380 H 1367.79 2.81459 5.30001 0
M  V30 15381 H 1368.86 2.8965 3.88884 0
M  V30 15382 N 1370.2 -1.34667 0.818693 0
M  V30 15383 C 1371.61 -1.80839 0.46414 0
M  V30 15384 C 1371.96 -1.67902 -1.01506 0
M  V30 15385 O 1371.09 -1.21658 -1.78964 0
M  V30 15386 C 1371.68 -3.28331 0.835698 0
M  V30 15387 C 1370.24 -3.72599 0.533575 0
M  V30 15388 C 1369.39 -2.56452 1.05487 0
M  V30 15389 H 1372.34 -1.22474 1.00925 0
M  V30 15390 H 1372.36 -3.8025 0.13785 0
M  V30 15391 H 1371.87 -3.37715 1.91233 0
M  V30 15392 H 1369.97 -3.68756 -0.533819 0
M  V30 15393 H 1370.08 -4.66891 1.07468 0
M  V30 15394 H 1368.45 -2.50201 0.476612 0
M  V30 15395 H 1369.23 -2.68608 2.13786 0
M  V30 15396 N 1371.68 -0.573274 -1.46804 0
M  V30 15397 C 1372.61 0.153316 -2.32996 0
M  V30 15398 C 1373.59 0.893013 -1.44773 0
M  V30 15399 O 1374.77 0.870329 -1.73606 0
M  V30 15400 C 1371.9 1.1736 -3.2687 0
M  V30 15401 C 1370.86 0.549347 -4.2446 0
M  V30 15402 C 1370.18 1.67542 -5.07773 0
M  V30 15403 C 1371.48 -0.50736 -5.1983 0
M  V30 15404 H 1373.18 -0.566305 -2.93995 0
M  V30 15405 H 1370.72 -0.273785 -1.41373 0
M  V30 15406 H 1372.68 1.6902 -3.86019 0
M  V30 15407 H 1371.4 1.92337 -2.63958 0
M  V30 15408 H 1370.06 0.0539142 -3.6656 0
M  V30 15409 H 1369.71 2.41463 -4.41253 0
M  V30 15410 H 1369.41 1.26343 -5.73856 0
M  V30 15411 H 1370.93 2.19496 -5.69784 0
M  V30 15412 H 1372.34 -0.0762061 -5.73249 0
M  V30 15413 H 1370.74 -0.839139 -5.94204 0
M  V30 15414 H 1371.81 -1.39723 -4.64333 0
M  V30 15415 N 1373.15 1.5451 -0.310553 0
M  V30 15416 C 1374.06 2.27557 0.570518 0
M  V30 15417 C 1375.08 1.31426 1.14032 0
M  V30 15418 O 1376.26 1.64423 1.16306 0
M  V30 15419 C 1373.32 3.00933 1.72163 0
M  V30 15420 C 1372.38 4.12623 1.18495 0
M  V30 15421 C 1371.62 4.8249 2.28121 0
M  V30 15422 O 1371.84 4.5178 3.48211 0
M  V30 15423 O 1370.77 5.69686 1.94273 0
M  V30 15424 H 1374.6 3.03692 -0.0223195 0
M  V30 15425 H 1372.18 1.49203 -0.0766821 0
M  V30 15426 H 1374.07 3.46925 2.39208 0
M  V30 15427 H 1372.74 2.27685 2.3009 0
M  V30 15428 H 1371.65 3.71008 0.479956 0
M  V30 15429 H 1372.98 4.87876 0.650994 0
M  V30 15430 N 1374.63 0.0384594 1.57553 0
M  V30 15431 C 1375.91 -0.677308 1.83499 0
M  V30 15432 C 1376.29 -1.89789 0.924294 0
M  V30 15433 O 1375.64 -2.28493 -0.0178185 0
M  V30 15434 C 1375.85 -1.04667 3.32935 0
M  V30 15435 C 1377.2 -1.43436 3.99639 0
M  V30 15436 O 1378.22 -1.13938 3.37486 0
M  V30 15437 O 1377.08 -1.98435 5.09201 0
M  V30 15438 H 1374.17 -0.333131 0.756936 0
M  V30 15439 H 1376.72 0.066854 1.69568 0
M  V30 15440 H 1375.49 -0.178349 3.90893 0
M  V30 15441 H 1375.11 -1.8487 3.52007 0
M  V30 15442 N 1376.11 -1.55841 -0.234795 0
M  V30 15443 C 1377.34 -1.82043 -0.976937 0
M  V30 15444 C 1377.75 -0.613552 -1.78975 0
M  V30 15445 O 1377.09 0.427271 -1.78662 0
M  V30 15446 C 1377.15 -3.0178 -1.95369 0
M  V30 15447 C 1376.82 -4.3732 -1.32666 0
M  V30 15448 C 1377.82 -5.14847 -0.723107 0
M  V30 15449 C 1375.5 -4.8403 -1.3424 0
M  V30 15450 C 1377.49 -6.37238 -0.143646 0
M  V30 15451 C 1375.18 -6.06367 -0.759087 0
M  V30 15452 C 1376.18 -6.82811 -0.16075 0
M  V30 15453 O 1375.87 -8.02836 0.41352 0
M  V30 15454 H 1375.6 -0.609424 -0.292537 0
M  V30 15455 H 1378.15 -2.03758 -0.259216 0
M  V30 15456 H 1376.38 -2.7585 -2.71005 0
M  V30 15457 H 1378.07 -3.14968 -2.56027 0
M  V30 15458 H 1378.84 -4.79873 -0.703371 0
M  V30 15459 H 1374.72 -4.24512 -1.7975 0
M  V30 15460 H 1378.26 -6.96847 0.324002 0
M  V30 15461 H 1374.16 -6.40816 -0.776191 0
M  V30 15462 H 1374.93 -8.17926 0.306554 0
M  V30 15463 N 1377.59 0.500963 -1.49426 0
M  V30 15464 C 1378.82 1.27725 -1.62388 0
M  V30 15465 C 1379.23 1.86893 -0.294544 0
M  V30 15466 O 1378.57 1.68571 0.73003 0
M  V30 15467 C 1378.63 2.44649 -2.63414 0
M  V30 15468 C 1378.3 2.0635 -4.0776 0
M  V30 15469 C 1379.29 1.60323 -4.94563 0
M  V30 15470 C 1376.98 2.15984 -4.53493 0
M  V30 15471 C 1378.97 1.24433 -6.25136 0
M  V30 15472 C 1376.66 1.79706 -5.8408 0
M  V30 15473 C 1377.66 1.34005 -6.69725 0
M  V30 15474 O 1377.35 0.982171 -7.97878 0
M  V30 15475 H 1377.08 0.393595 -0.549599 0
M  V30 15476 H 1379.63 0.607944 -1.96197 0
M  V30 15477 H 1377.86 3.14656 -2.24785 0
M  V30 15478 H 1379.55 3.06675 -2.65905 0
M  V30 15479 H 1380.32 1.52326 -4.60458 0
M  V30 15480 H 1376.2 2.50507 -3.86998 0
M  V30 15481 H 1379.74 0.886906 -6.91939 0
M  V30 15482 H 1375.64 1.87352 -6.17713 0
M  V30 15483 H 1376.4 1.11364 -8.10889 0
M  V30 15484 N 1379.07 1.38501 0.752011 0
M  V30 15485 C 1380.01 1.35857 1.86578 0
M  V30 15486 C 1380.98 0.220873 1.64625 0
M  V30 15487 O 1382.17 0.413348 1.86269 0
M  V30 15488 C 1379.31 1.19102 3.23896 0
M  V30 15489 C 1378.42 2.42272 3.5767 0
M  V30 15490 C 1377.56 2.18236 4.843 0
M  V30 15491 C 1376.6 3.37169 5.10865 0
M  V30 15492 N 1375.73 3.12558 6.28691 0
M  V30 15493 H 1380.57 2.31073 1.88173 0
M  V30 15494 H 1378.11 1.14803 0.919712 0
M  V30 15495 H 1380.07 1.07404 4.03138 0
M  V30 15496 H 1378.7 0.275243 3.21624 0
M  V30 15497 H 1377.75 2.64638 2.7326 0
M  V30 15498 H 1379.06 3.3091 3.73229 0
M  V30 15499 H 1378.22 2.03682 5.71488 0
M  V30 15500 H 1376.96 1.26966 4.70883 0
M  V30 15501 H 1375.96 3.52241 4.22145 0
M  V30 15502 H 1377.19 4.29317 5.26178 0
M  V30 15503 H 1375.13 2.23937 6.16594 0
M  V30 15504 H 1375.05 3.94746 6.44757 0
M  V30 15505 H 1376.32 3.01663 7.18763 0
M  V30 15506 N 1380.55 -0.980364 1.23396 0
M  V30 15507 C 1381.48 -2.0908 1.0396 0
M  V30 15508 C 1382.46 -1.70044 -0.0434946 0
M  V30 15509 O 1383.64 -1.93822 0.121155 0
M  V30 15510 C 1380.77 -3.41537 0.630061 0
M  V30 15511 C 1379.73 -3.94476 1.66051 0
M  V30 15512 C 1379.05 -5.23128 1.10641 0
M  V30 15513 C 1380.35 -4.23741 3.05354 0
M  V30 15514 H 1382.05 -2.25598 1.9684 0
M  V30 15515 H 1379.59 -1.08409 0.94781 0
M  V30 15516 H 1381.54 -4.18644 0.481145 0
M  V30 15517 H 1380.27 -3.24883 -0.334416 0
M  V30 15518 H 1378.93 -3.19513 1.79742 0
M  V30 15519 H 1378.58 -5.02824 0.132913 0
M  V30 15520 H 1378.28 -5.59515 1.79492 0
M  V30 15521 H 1379.8 -6.02857 0.969344 0
M  V30 15522 H 1381.21 -4.91598 2.94964 0
M  V30 15523 H 1379.61 -4.71329 3.71442 0
M  V30 15524 H 1380.68 -3.31012 3.54343 0
M  V30 15525 N 1382.02 -1.04567 -1.17913 0
M  V30 15526 C 1383.25 -0.772146 -1.92491 0
M  V30 15527 C 1383.67 0.665297 -1.75942 0
M  V30 15528 O 1383.03 1.46144 -1.07292 0
M  V30 15529 C 1383.08 -1.14966 -3.41782 0
M  V30 15530 O 1382.18 -0.278091 -4.11461 0
M  V30 15531 H 1381.52 -0.283715 -0.600335 0
M  V30 15532 H 1384.05 -1.39685 -1.49496 0
M  V30 15533 H 1384.06 -1.11374 -3.92505 0
M  V30 15534 H 1382.74 -2.1968 -3.53148 0
M  V30 15535 H 1381.32 -0.374073 -3.71019 0
M  V30 15536 N 1383.5 1.34231 -0.825823 0
M  V30 15537 C 1384.43 2.31997 -0.264546 0
M  V30 15538 C 1385.41 1.58375 0.620592 0
M  V30 15539 O 1386.6 1.86341 0.546865 0
M  V30 15540 C 1383.73 3.42557 0.572025 0
M  V30 15541 C 1382.68 4.27454 -0.216219 0
M  V30 15542 C 1382.01 5.29509 0.743279 0
M  V30 15543 C 1383.31 5.02456 -1.42603 0
M  V30 15544 H 1385 2.79189 -1.08139 0
M  V30 15545 H 1382.55 1.34227 -0.521451 0
M  V30 15546 H 1384.5 4.09968 0.974889 0
M  V30 15547 H 1383.22 2.94021 1.42195 0
M  V30 15548 H 1381.88 3.61649 -0.600485 0
M  V30 15549 H 1381.53 4.77234 1.58924 0
M  V30 15550 H 1381.23 5.87188 0.220064 0
M  V30 15551 H 1382.76 5.99789 1.14394 0
M  V30 15552 H 1384.17 5.62706 -1.09702 0
M  V30 15553 H 1382.57 5.69723 -1.88509 0
M  V30 15554 H 1383.64 4.31983 -2.2027 0
M  V30 15555 N 1384.98 0.581051 1.46498 0
M  V30 15556 C 1385.94 -0.142937 2.28754 0
M  V30 15557 C 1386.94 -0.820383 1.38298 0
M  V30 15558 O 1388.13 -0.672592 1.60692 0
M  V30 15559 C 1385.26 -1.21176 3.18637 0
M  V30 15560 H 1386.46 0.579918 2.9424 0
M  V30 15561 H 1384.01 0.338951 1.52581 0
M  V30 15562 H 1384.75 -1.96624 2.57894 0
M  V30 15563 H 1384.53 -0.730517 3.85235 0
M  V30 15564 H 1386.02 -1.71958 3.80552 0
M  V30 15565 N 1386.46 -1.54343 0.318742 0
M  V30 15566 C 1387.87 -1.85922 -0.170309 0
M  V30 15567 C 1388.22 -1.24047 -1.52009 0
M  V30 15568 O 1387.34 -0.544705 -2.09432 0
M  V30 15569 C 1387.94 -3.37325 -0.315802 0
M  V30 15570 C 1386.5 -3.68871 -0.749073 0
M  V30 15571 C 1385.65 -2.76985 0.13209 0
M  V30 15572 H 1388.6 -1.4926 0.539185 0
M  V30 15573 H 1388.62 -3.62784 -1.14751 0
M  V30 15574 H 1388.13 -3.8233 0.66674 0
M  V30 15575 H 1386.23 -3.29396 -1.74153 0
M  V30 15576 H 1386.34 -4.75861 -0.556164 0
M  V30 15577 H 1384.71 -2.51672 -0.391564 0
M  V30 15578 H 1385.49 -3.24815 1.11131 0
M  V30 15579 N 1387.94 -0.0468143 -1.5753 0
M  V30 15580 C 1389.21 0.667567 -1.83856 0
M  V30 15581 C 1389.59 1.89297 -0.934346 0
M  V30 15582 O 1388.94 2.28499 0.00570067 0
M  V30 15583 C 1389.15 1.029 -3.33485 0
M  V30 15584 C 1390.5 1.41315 -4.00394 0
M  V30 15585 O 1391.52 1.12147 -3.38085 0
M  V30 15586 O 1390.38 1.95732 -5.10246 0
M  V30 15587 H 1387.48 0.329112 -0.758692 0
M  V30 15588 H 1390.02 -0.0758456 -1.6953 0
M  V30 15589 H 1388.79 0.157617 -3.90982 0
M  V30 15590 H 1388.42 1.83 -3.52982 0
M  V30 15591 N 1389.41 1.55964 0.226527 0
M  V30 15592 C 1390.35 1.87013 1.30772 0
M  V30 15593 C 1391.33 0.727044 1.4544 0
M  V30 15594 O 1392.51 0.974898 1.61332 0
M  V30 15595 C 1389.64 2.07278 2.67869 0
M  V30 15596 C 1388.68 3.29956 2.70243 0
M  V30 15597 S 1389.52 4.86026 2.24808 0
M  V30 15598 C 1390.67 5.09321 3.6379 0
M  V30 15599 H 1390.9 2.78427 1.0424 0
M  V30 15600 H 1388.44 1.48334 0.428525 0
M  V30 15601 H 1390.4 2.19636 3.468 0
M  V30 15602 H 1389.06 1.1667 2.91628 0
M  V30 15603 H 1388.25 3.41164 3.70975 0
M  V30 15604 H 1387.85 3.16429 1.99371 0
M  V30 15605 H 1390.14 4.97914 4.59443 0
M  V30 15606 H 1391.09 6.11227 3.57501 0
M  V30 15607 H 1391.49 4.37076 3.57247 0
M  V30 15608 N 1390.89 -0.493031 1.4969 0
M  V30 15609 C 1392.14 -1.24849 1.59814 0
M  V30 15610 C 1392.47 -1.92059 0.287555 0
M  V30 15611 O 1391.75 -1.81099 -0.709471 0
M  V30 15612 C 1392.03 -2.30929 2.76304 0
M  V30 15613 C 1391.88 -1.68167 4.17181 0
M  V30 15614 C 1393.2 -3.32427 2.8841 0
M  V30 15615 H 1390.32 -0.452553 0.581691 0
M  V30 15616 H 1392.96 -0.545455 1.82002 0
M  V30 15617 H 1391.11 -2.9089 2.57517 0
M  V30 15618 H 1392.78 -1.11971 4.47504 0
M  V30 15619 H 1391.03 -0.985496 4.22458 0
M  V30 15620 H 1391.7 -2.45148 4.94577 0
M  V30 15621 H 1394.17 -2.82464 3.05537 0
M  V30 15622 H 1393.05 -4.04004 3.71581 0
M  V30 15623 H 1393.31 -3.95234 1.98097 0
M  V30 15624 N 1392.37 -1.38898 -0.744656 0
M  V30 15625 C 1393.32 -1.36845 -1.85855 0
M  V30 15626 C 1394.29 -0.2296 -1.64505 0
M  V30 15627 O 1395.47 -0.423221 -1.86047 0
M  V30 15628 C 1392.61 -1.20818 -3.2326 0
M  V30 15629 C 1391.73 -2.44166 -3.5638 0
M  V30 15630 C 1390.86 -2.20801 -4.83136 0
M  V30 15631 C 1389.9 -3.39874 -5.0907 0
M  V30 15632 N 1389.04 -3.15888 -6.27024 0
M  V30 15633 H 1393.88 -2.32068 -1.86945 0
M  V30 15634 H 1391.41 -1.15289 -0.913611 0
M  V30 15635 H 1393.37 -1.0954 -4.02563 0
M  V30 15636 H 1392 -0.292295 -3.21474 0
M  V30 15637 H 1391.05 -2.66083 -2.71852 0
M  V30 15638 H 1392.37 -3.32885 -3.71469 0
M  V30 15639 H 1391.52 -2.0671 -5.704 0
M  V30 15640 H 1390.26 -1.29462 -4.70203 0
M  V30 15641 H 1389.26 -3.54474 -4.20271 0
M  V30 15642 H 1390.49 -4.32102 -5.23894 0
M  V30 15643 H 1388.43 -2.27204 -6.15398 0
M  V30 15644 H 1388.35 -3.9816 -6.42655 0
M  V30 15645 H 1389.62 -3.0547 -7.17153 0
M  V30 15646 N 1393.85 0.973806 -1.23914 0
M  V30 15647 C 1395.08 1.75107 -1.10206 0
M  V30 15648 C 1395.49 1.85604 0.345935 0
M  V30 15649 O 1394.85 1.33996 1.239 0
M  V30 15650 C 1394.9 3.17466 -1.72909 0
M  V30 15651 O 1394.62 3.07504 -3.12047 0
M  V30 15652 C 1396.12 4.11557 -1.6473 0
M  V30 15653 H 1393.34 0.549318 -0.385345 0
M  V30 15654 H 1395.89 1.22301 -1.63898 0
M  V30 15655 H 1394.04 3.67277 -1.23234 0
M  V30 15656 H 1394.45 3.97169 -3.42575 0
M  V30 15657 H 1395.93 5.09126 -2.13295 0
M  V30 15658 H 1396.41 4.3498 -0.607352 0
M  V30 15659 H 1397.01 3.67653 -2.13802 0
M  V30 15660 N 1395.33 1.05191 1.17357 0
M  V30 15661 C 1396.56 0.781238 1.9126 0
M  V30 15662 C 1396.96 -0.66688 1.77057 0
M  V30 15663 O 1396.31 -1.4673 1.10526 0
M  V30 15664 C 1396.37 1.08225 3.42823 0
M  V30 15665 C 1396.03 2.52655 3.80808 0
M  V30 15666 C 1397.03 3.50864 3.83654 0
M  V30 15667 C 1394.72 2.87664 4.11771 0
M  V30 15668 C 1396.71 4.82127 4.16932 0
M  V30 15669 C 1394.4 4.1913 4.44717 0
M  V30 15670 C 1395.39 5.16172 4.47276 0
M  V30 15671 O 1395.08 6.4528 4.79447 0
M  V30 15672 H 1394.81 0.283516 0.613673 0
M  V30 15673 H 1397.37 1.40577 1.49758 0
M  V30 15674 H 1395.6 0.400623 3.84619 0
M  V30 15675 H 1397.29 0.797593 3.97987 0
M  V30 15676 H 1398.05 3.25158 3.59857 0
M  V30 15677 H 1393.93 2.12793 4.0895 0
M  V30 15678 H 1397.48 5.57867 4.18844 0
M  V30 15679 H 1393.37 4.44599 4.67976 0
M  V30 15680 H 1394.14 6.50101 4.97304 0
M  V30 15681 N 1396.8 -1.33791 0.83293 0
M  V30 15682 C 1397.75 -2.26795 0.234069 0
M  V30 15683 C 1398.74 -1.48991 -0.60749 0
M  V30 15684 O 1399.93 -1.70907 -0.46043 0
M  V30 15685 C 1397.06 -3.38107 -0.594863 0
M  V30 15686 C 1396.15 -4.23315 0.257877 0
M  V30 15687 N 1396.54 -4.87899 1.33373 0
M  V30 15688 C 1394.83 -4.45978 0.0438997 0
M  V30 15689 C 1395.54 -5.51278 1.85655 0
M  V30 15690 N 1394.51 -5.31103 1.15892 0
M  V30 15691 H 1398.31 -2.7424 1.05688 0
M  V30 15692 H 1395.83 -1.47627 0.676767 0
M  V30 15693 H 1397.82 -4.03716 -1.04014 0
M  V30 15694 H 1396.48 -2.92212 -1.41571 0
M  V30 15695 H 1397.5 -4.88624 1.71659 0
M  V30 15696 H 1394.17 -4.10818 -0.743985 0
M  V30 15697 H 1395.56 -6.12723 2.75717 0
M  V30 15698 N 1398.28 -0.588812 -1.46187 0
M  V30 15699 C 1399.52 -0.0794904 -2.04245 0
M  V30 15700 C 1399.89 1.25893 -1.44965 0
M  V30 15701 O 1401.09 1.85785 -1.94261 0
M  V30 15702 C 1399.36 -0.0210846 -3.57394 0
M  V30 15703 S 1400.92 0.429775 -4.3669 0
M  V30 15704 H 1397.74 -0.0404337 -0.709849 0
M  V30 15705 H 1400.34 -0.782686 -1.79149 0
M  V30 15706 H 1399.04 -0.999032 -3.98055 0
M  V30 15707 H 1398.57 0.704691 -3.87037 0
M  V30 15708 H 1400.59 1.68327 -4.66777 0
M  V30 15709 N 1399.76 1.54172 -0.326923 0
M  V30 15710 C 1400.99 2.04747 0.276107 0
M  V30 15711 C 1401.4 1.20251 1.4607 0
M  V30 15712 O 1400.74 0.226753 1.82295 0
M  V30 15713 C 1400.8 3.51143 0.770651 0
M  V30 15714 C 1400.47 4.56066 -0.292079 0
M  V30 15715 C 1401.46 5.07487 -1.12928 0
M  V30 15716 C 1399.15 5.00358 -0.441232 0
M  V30 15717 C 1401.14 6.01767 -2.10133 0
M  V30 15718 C 1398.83 5.94452 -1.4167 0
M  V30 15719 C 1399.83 6.45042 -2.24521 0
M  V30 15720 O 1399.52 7.37288 -3.20409 0
M  V30 15721 H 1399.25 0.673322 0.0601144 0
M  V30 15722 H 1401.8 1.99899 -0.472176 0
M  V30 15723 H 1400.03 3.53399 1.5699 0
M  V30 15724 H 1401.72 3.84775 1.2924 0
M  V30 15725 H 1402.49 4.74044 -1.02505 0
M  V30 15726 H 1398.37 4.60593 0.193767 0
M  V30 15727 H 1401.91 6.41178 -2.74839 0
M  V30 15728 H 1397.81 6.27311 -1.52155 0
M  V30 15729 H 1398.58 7.55171 -3.15687 0
M  V30 15730 N 1401.24 0.0551678 1.57503 0
M  V30 15731 C 1402.19 -0.917847 2.11764 0
M  V30 15732 C 1403.16 -1.30624 1.02599 0
M  V30 15733 O 1404.34 -1.39501 1.30169 0
M  V30 15734 C 1401.48 -2.18599 2.67036 0
M  V30 15735 C 1400.59 -1.85173 3.90301 0
M  V30 15736 C 1399.73 -3.06475 4.33874 0
M  V30 15737 C 1398.77 -2.68988 5.49829 0
M  V30 15738 N 1397.9 -3.82997 5.88437 0
M  V30 15739 H 1402.74 -0.448236 2.9461 0
M  V30 15740 H 1400.28 -0.209619 1.45599 0
M  V30 15741 H 1402.24 -2.92811 2.97183 0
M  V30 15742 H 1400.87 -2.6313 1.86982 0
M  V30 15743 H 1399.92 -1.01094 3.66721 0
M  V30 15744 H 1401.23 -1.53582 4.74567 0
M  V30 15745 H 1400.39 -3.88982 4.65594 0
M  V30 15746 H 1399.13 -3.41247 3.48427 0
M  V30 15747 H 1398.13 -1.84899 5.17776 0
M  V30 15748 H 1399.36 -2.35404 6.36994 0
M  V30 15749 H 1397.3 -4.17562 5.05942 0
M  V30 15750 H 1397.22 -3.55118 6.67403 0
M  V30 15751 H 1398.49 -4.66131 6.24773 0
M  V30 15752 N 1402.72 -1.56081 -0.218252 0
M  V30 15753 C 1403.65 -1.95706 -1.27364 0
M  V30 15754 C 1404.63 -0.825731 -1.48713 0
M  V30 15755 O 1405.81 -1.08829 -1.60841 0
M  V30 15756 C 1402.94 -2.2766 -2.62275 0
M  V30 15757 C 1401.9 -3.43314 -2.55576 0
M  V30 15758 C 1401.22 -3.60883 -3.94547 0
M  V30 15759 C 1402.52 -4.7819 -2.10075 0
M  V30 15760 H 1404.22 -2.84113 -0.944459 0
M  V30 15761 H 1401.76 -1.36693 -0.452882 0
M  V30 15762 H 1403.72 -2.53973 -3.36268 0
M  V30 15763 H 1402.44 -1.3611 -2.96887 0
M  V30 15764 H 1401.1 -3.17056 -1.8404 0
M  V30 15765 H 1400.75 -2.66703 -4.26472 0
M  V30 15766 H 1400.45 -4.38674 -3.90946 0
M  V30 15767 H 1401.97 -3.89547 -4.70197 0
M  V30 15768 H 1403.38 -5.03686 -2.73813 0
M  V30 15769 H 1401.78 -5.59287 -2.17527 0
M  V30 15770 H 1402.85 -4.73325 -1.05314 0
M  V30 15771 N 1404.2 0.485086 -1.49949 0
M  V30 15772 C 1405.44 1.23571 -1.5992 0
M  V30 15773 C 1405.76 1.92754 -0.295108 0
M  V30 15774 O 1405.03 1.83474 0.686582 0
M  V30 15775 H 1403.61 0.459104 -0.589264 0
M  V30 15776 H 1406.28 0.560822 -1.86657 0
M  V30 15777 H 1405.37 1.99114 -2.40333 0
M  V30 15778 N 1405.67 1.39291 0.737279 0
M  V30 15779 C 1406.62 1.37829 1.85127 0
M  V30 15780 C 1407.59 0.238321 1.64381 0
M  V30 15781 O 1408.78 0.433081 1.8582 0
M  V30 15782 C 1405.92 1.22531 3.22615 0
M  V30 15783 C 1405.03 2.46052 3.55081 0
M  V30 15784 C 1404.16 2.2336 4.81958 0
M  V30 15785 C 1403.2 3.42569 5.0726 0
M  V30 15786 N 1402.34 3.19209 6.2534 0
M  V30 15787 H 1407.18 2.33056 1.85712 0
M  V30 15788 H 1404.72 1.15772 0.907484 0
M  V30 15789 H 1406.67 1.11673 4.01976 0
M  V30 15790 H 1405.3 0.30934 3.21314 0
M  V30 15791 H 1404.36 2.67521 2.70438 0
M  V30 15792 H 1405.67 3.3485 3.69698 0
M  V30 15793 H 1404.82 2.09732 5.69295 0
M  V30 15794 H 1403.56 1.31953 4.6951 0
M  V30 15795 H 1402.57 3.56698 4.18386 0
M  V30 15796 H 1403.79 4.34874 5.21595 0
M  V30 15797 H 1401.74 2.30464 6.14184 0
M  V30 15798 H 1401.65 4.01562 6.40534 0
M  V30 15799 H 1402.92 3.09269 7.15523 0
M  V30 15800 N 1407.15 -0.967221 1.24429 0
M  V30 15801 C 1408.08 -2.06479 0.994946 0
M  V30 15802 C 1409.1 -1.62761 -0.0357582 0
M  V30 15803 O 1410.29 -1.77361 0.201336 0
M  V30 15804 C 1407.39 -3.35487 0.479736 0
M  V30 15805 C 1406.56 -4.0811 1.57368 0
M  V30 15806 C 1405.62 -5.15392 1.06104 0
M  V30 15807 O 1404.64 -5.41539 1.75283 0
M  V30 15808 N 1405.85 -5.80406 -0.104288 0
M  V30 15809 H 1408.61 -2.28443 1.93995 0
M  V30 15810 H 1406.17 -1.13488 1.15465 0
M  V30 15811 H 1408.16 -4.04517 0.121528 0
M  V30 15812 H 1406.73 -3.1039 -0.371012 0
M  V30 15813 H 1405.95 -3.33351 2.10406 0
M  V30 15814 H 1407.24 -4.53391 2.30897 0
M  V30 15815 H 1406.64 -5.61566 -0.682638 0
M  V30 15816 H 1405.2 -6.50549 -0.403638 0
M  V30 15817 N 1408.63 -1.05812 -1.16797 0
M  V30 15818 C 1409.59 -0.668766 -2.19226 0
M  V30 15819 C 1410.59 0.28299 -1.5829 0
M  V30 15820 O 1411.78 0.0660233 -1.74075 0
M  V30 15821 C 1408.91 0.0167379 -3.40896 0
M  V30 15822 H 1410.11 -1.57543 -2.55187 0
M  V30 15823 H 1407.66 -0.852753 -1.30988 0
M  V30 15824 H 1408.4 0.936382 -3.10487 0
M  V30 15825 H 1408.18 -0.667576 -3.86375 0
M  V30 15826 H 1409.67 0.275041 -4.16693 0
M  V30 15827 N 1410.11 1.33347 -0.840014 0
M  V30 15828 C 1411.07 2.27492 -0.279264 0
M  V30 15829 C 1412.07 1.51004 0.552669 0
M  V30 15830 O 1413.26 1.70305 0.366295 0
M  V30 15831 C 1410.39 3.35462 0.606466 0
M  V30 15832 H 1411.59 2.78601 -1.11001 0
M  V30 15833 H 1409.14 1.4377 -0.613187 0
M  V30 15834 H 1409.87 2.89596 1.45961 0
M  V30 15835 H 1409.66 3.92098 0.0111889 0
M  V30 15836 H 1411.15 4.05645 0.992052 0
M  V30 15837 N 1411.59 0.596556 1.45873 0
M  V30 15838 C 1412.5 -0.130832 2.34235 0
M  V30 15839 C 1413.51 -0.871805 1.50584 0
M  V30 15840 O 1414.69 -0.831877 1.83417 0
M  V30 15841 C 1411.75 -1.12279 3.28016 0
M  V30 15842 C 1410.81 -0.384982 4.2757 0
M  V30 15843 C 1410.05 -1.32969 5.1687 0
M  V30 15844 O 1410.27 -2.56696 5.09375 0
M  V30 15845 O 1409.2 -0.832741 5.96112 0
M  V30 15846 H 1413.03 0.59503 2.97814 0
M  V30 15847 H 1410.61 0.356873 1.45075 0
M  V30 15848 H 1412.5 -1.6944 3.85834 0
M  V30 15849 H 1411.17 -1.82988 2.67015 0
M  V30 15850 H 1410.08 0.228816 3.734 0
M  V30 15851 H 1411.41 0.281398 4.91395 0
M  V30 15852 N 1413.06 -1.53996 0.335095 0
M  V30 15853 C 1413.99 -2.2768 -0.518087 0
M  V30 15854 C 1414.97 -1.28915 -1.10972 0
M  V30 15855 O 1416.16 -1.57745 -1.1327 0
M  V30 15856 C 1413.29 -3.04327 -1.67339 0
M  V30 15857 C 1412.24 -4.10525 -1.2105 0
M  V30 15858 C 1411.57 -4.75078 -2.45366 0
M  V30 15859 C 1412.87 -5.21337 -0.317055 0
M  V30 15860 H 1414.56 -2.99244 0.0965669 0
M  V30 15861 H 1412.11 -1.4392 0.0478842 0
M  V30 15862 H 1414.06 -3.54608 -2.27664 0
M  V30 15863 H 1412.79 -2.30399 -2.31481 0
M  V30 15864 H 1411.45 -3.61144 -0.630124 0
M  V30 15865 H 1411.09 -3.97754 -3.07897 0
M  V30 15866 H 1410.79 -5.46822 -2.1508 0
M  V30 15867 H 1412.32 -5.2814 -3.06432 0
M  V30 15868 H 1413.73 -5.67305 -0.826905 0
M  V30 15869 H 1412.13 -6.00006 -0.106458 0
M  V30 15870 H 1413.2 -4.80536 0.649068 0
M  V30 15871 N 1414.54 -0.0635198 -1.57472 0
M  V30 15872 C 1415.47 0.90431 -2.15278 0
M  V30 15873 C 1416.45 1.31609 -1.07764 0
M  V30 15874 O 1417.64 1.38861 -1.35762 0
M  V30 15875 C 1414.77 2.17483 -2.70774 0
M  V30 15876 C 1413.72 1.90272 -3.8338 0
M  V30 15877 C 1413.05 3.23885 -4.25444 0
M  V30 15878 C 1414.35 1.21454 -5.07983 0
M  V30 15879 H 1416.04 0.422786 -2.964 0
M  V30 15880 H 1413.59 0.201918 -1.42577 0
M  V30 15881 H 1415.54 2.856 -3.09856 0
M  V30 15882 H 1414.26 2.67863 -1.86861 0
M  V30 15883 H 1412.92 1.24564 -3.44789 0
M  V30 15884 H 1412.57 3.72089 -3.38465 0
M  V30 15885 H 1412.27 3.06472 -5.01347 0
M  V30 15886 H 1413.8 3.93212 -4.67137 0
M  V30 15887 H 1415.21 1.79625 -5.44433 0
M  V30 15888 H 1413.61 1.14327 -5.89109 0
M  V30 15889 H 1414.68 0.19238 -4.84518 0
M  V30 15890 N 1416.02 1.56195 0.209972 0
M  V30 15891 C 1416.93 1.96539 1.28101 0
M  V30 15892 C 1417.95 0.870858 1.50639 0
M  V30 15893 O 1419.12 1.17539 1.63544 0
M  V30 15894 C 1416.19 2.28392 2.60841 0
M  V30 15895 C 1415.25 3.51474 2.46505 0
M  V30 15896 C 1414.48 3.81798 3.72915 0
M  V30 15897 O 1414.7 3.13627 4.76439 0
M  V30 15898 O 1413.64 4.75264 3.69334 0
M  V30 15899 H 1417.46 2.87838 0.968671 0
M  V30 15900 H 1415.05 1.43556 0.413777 0
M  V30 15901 H 1416.93 2.50022 3.39215 0
M  V30 15902 H 1415.61 1.40264 2.91732 0
M  V30 15903 H 1414.51 3.35109 1.66292 0
M  V30 15904 H 1415.85 4.40021 2.2055 0
M  V30 15905 N 1417.5 -0.477127 1.50204 0
M  V30 15906 C 1418.72 -1.25775 1.6491 0
M  V30 15907 C 1419.15 -1.85187 0.329765 0
M  V30 15908 O 1418.51 -1.67004 -0.705641 0
M  V30 15909 C 1418.55 -2.3466 2.73801 0
M  V30 15910 O 1417.66 -3.39147 2.34634 0
M  V30 15911 H 1417 -0.370291 0.551163 0
M  V30 15912 H 1419.53 -0.568514 1.96543 0
M  V30 15913 H 1419.54 -2.80065 2.96695 0
M  V30 15914 H 1418.21 -1.90788 3.69557 0
M  V30 15915 H 1416.79 -2.99496 2.22163 0
M  V30 15916 N 1418.98 -1.3968 -0.729882 0
M  V30 15917 C 1420.23 -1.36492 -1.48502 0
M  V30 15918 C 1420.54 0.0346572 -1.95569 0
M  V30 15919 O 1421.74 0.189135 -2.7084 0
M  V30 15920 C 1420.2 -2.39813 -2.68361 0
M  V30 15921 C 1419.81 -3.85511 -2.28222 0
M  V30 15922 C 1421.55 -2.45709 -3.46161 0
M  V30 15923 C 1419.46 -4.80462 -3.44834 0
M  V30 15924 H 1418.39 -0.507455 -0.557679 0
M  V30 15925 H 1421.04 -1.6535 -0.795708 0
M  V30 15926 H 1419.42 -2.04033 -3.39392 0
M  V30 15927 H 1420.6 -4.30359 -1.64704 0
M  V30 15928 H 1418.91 -3.82957 -1.63501 0
M  V30 15929 H 1421.51 -3.1384 -4.32907 0
M  V30 15930 H 1421.85 -1.48318 -3.88983 0
M  V30 15931 H 1422.38 -2.80409 -2.82163 0
M  V30 15932 H 1419.12 -5.79134 -3.07057 0
M  V30 15933 H 1418.64 -4.40289 -4.07315 0
M  V30 15934 H 1420.32 -4.99607 -4.11098 0
M  V30 15935 N 1420.45 0.960609 -1.2494 0
M  V30 15936 C 1421.7 1.69884 -1.08731 0
M  V30 15937 C 1422.02 1.92018 0.372602 0
M  V30 15938 O 1423.22 2.6348 0.655018 0
M  V30 15939 C 1421.68 3.05815 -1.8975 0
M  V30 15940 C 1421.29 2.91498 -3.40196 0
M  V30 15941 C 1423.03 3.83462 -1.82092 0
M  V30 15942 C 1420.94 4.22783 -4.13532 0
M  V30 15943 H 1419.87 0.637087 -0.403281 0
M  V30 15944 H 1422.52 1.06987 -1.49084 0
M  V30 15945 H 1420.9 3.69582 -1.42216 0
M  V30 15946 H 1422.07 2.367 -3.9536 0
M  V30 15947 H 1420.39 2.27312 -3.48882 0
M  V30 15948 H 1422.99 4.8069 -2.34181 0
M  V30 15949 H 1423.33 4.08782 -0.787597 0
M  V30 15950 H 1423.86 3.26435 -2.27344 0
M  V30 15951 H 1420.6 4.02653 -5.17253 0
M  V30 15952 H 1420.12 4.77369 -3.63152 0
M  V30 15953 H 1421.8 4.91361 -4.2092 0
M  V30 15954 N 1421.93 1.0643 1.16234 0
M  V30 15955 C 1422.86 0.697605 2.22836 0
M  V30 15956 C 1423.84 -0.310563 1.67241 0
M  V30 15957 O 1425.03 -0.185385 1.93313 0
M  V30 15958 C 1422.16 0.0847097 3.47197 0
M  V30 15959 C 1421.11 1.019 4.15693 0
M  V30 15960 C 1420.44 0.269339 5.34021 0
M  V30 15961 C 1421.74 2.34861 4.66516 0
M  V30 15962 H 1423.43 1.58883 2.53765 0
M  V30 15963 H 1420.98 0.765388 1.21975 0
M  V30 15964 H 1422.93 -0.1837 4.20999 0
M  V30 15965 H 1421.66 -0.84154 3.15572 0
M  V30 15966 H 1420.31 1.27218 3.43818 0
M  V30 15967 H 1419.96 -0.660072 4.9865 0
M  V30 15968 H 1419.66 0.892001 5.8079 0
M  V30 15969 H 1421.19 0.00850775 6.10599 0
M  V30 15970 H 1422.6 2.13922 5.31893 0
M  V30 15971 H 1421 2.92637 5.23912 0
M  V30 15972 H 1422.07 2.97834 3.82653 0
M  V30 15973 N 1423.41 -1.329 0.847073 0
M  V30 15974 C 1424.36 -2.29044 0.284199 0
M  V30 15975 C 1425.33 -1.54706 -0.604591 0
M  V30 15976 O 1426.51 -1.82966 -0.541116 0
M  V30 15977 C 1423.65 -3.4104 -0.527822 0
M  V30 15978 C 1422.77 -4.30273 0.385907 0
M  V30 15979 C 1421.9 -5.29391 -0.438009 0
M  V30 15980 C 1420.94 -6.10265 0.473596 0
M  V30 15981 N 1420.08 -7.01403 -0.312684 0
M  V30 15982 H 1424.92 -2.76582 1.10935 0
M  V30 15983 H 1422.45 -1.36085 0.558508 0
M  V30 15984 H 1424.41 -4.04686 -1.01417 0
M  V30 15985 H 1423.04 -2.94673 -1.31787 0
M  V30 15986 H 1422.09 -3.67275 0.99061 0
M  V30 15987 H 1423.41 -4.86837 1.08585 0
M  V30 15988 H 1422.56 -5.98604 -0.987842 0
M  V30 15989 H 1421.3 -4.73424 -1.17135 0
M  V30 15990 H 1420.3 -5.39963 1.03537 0
M  V30 15991 H 1421.53 -6.68316 1.20543 0
M  V30 15992 H 1419.47 -6.47875 -1.02926 0
M  V30 15993 H 1419.39 -7.55286 0.328376 0
M  V30 15994 H 1420.66 -7.74912 -0.844489 0
M  V30 15995 N 1424.89 -0.604284 -1.45555 0
M  V30 15996 C 1425.84 0.116491 -2.30506 0
M  V30 15997 C 1426.81 0.863214 -1.41908 0
M  V30 15998 O 1427.99 0.849606 -1.7084 0
M  V30 15999 C 1425.13 1.11009 -3.26758 0
M  V30 16000 C 1424.24 0.36458 -4.30459 0
M  V30 16001 C 1423.38 1.34761 -5.13822 0
M  V30 16002 C 1422.42 0.589724 -6.09253 0
M  V30 16003 N 1421.55 1.52187 -6.85408 0
M  V30 16004 H 1426.39 -0.61394 -2.91607 0
M  V30 16005 H 1423.93 -0.314561 -1.43697 0
M  V30 16006 H 1425.89 1.69925 -3.81027 0
M  V30 16007 H 1424.52 1.80797 -2.67418 0
M  V30 16008 H 1423.57 -0.340026 -3.78877 0
M  V30 16009 H 1424.88 -0.226906 -4.98284 0
M  V30 16010 H 1424.04 2.00893 -5.72474 0
M  V30 16011 H 1422.78 1.97302 -4.46008 0
M  V30 16012 H 1421.78 -0.0852486 -5.49734 0
M  V30 16013 H 1423.01 -0.0306001 -6.79093 0
M  V30 16014 H 1420.95 2.13499 -6.20286 0
M  V30 16015 H 1420.87 0.983737 -7.49572 0
M  V30 16016 H 1422.14 2.17287 -7.48603 0
M  V30 16017 N 1426.37 1.53816 -0.343257 0
M  V30 16018 C 1427.31 2.25011 0.513664 0
M  V30 16019 C 1428.28 1.24827 1.09578 0
M  V30 16020 O 1429.47 1.53558 1.13245 0
M  V30 16021 C 1426.61 3.02616 1.65885 0
M  V30 16022 C 1425.72 4.17653 1.10406 0
M  V30 16023 C 1424.86 4.82746 2.21653 0
M  V30 16024 C 1423.9 5.89853 1.63524 0
M  V30 16025 N 1423.03 6.48726 2.68512 0
M  V30 16026 H 1427.87 2.97832 -0.099997 0
M  V30 16027 H 1425.41 1.46973 -0.0611206 0
M  V30 16028 H 1427.37 3.45868 2.33304 0
M  V30 16029 H 1426 2.32092 2.2435 0
M  V30 16030 H 1425.05 3.79045 0.320819 0
M  V30 16031 H 1426.36 4.94691 0.638887 0
M  V30 16032 H 1425.52 5.29068 2.96938 0
M  V30 16033 H 1424.25 4.05131 2.71515 0
M  V30 16034 H 1423.26 5.42914 0.86745 0
M  V30 16035 H 1424.48 6.69375 1.14515 0
M  V30 16036 H 1422.43 5.73975 3.17629 0
M  V30 16037 H 1422.35 7.21236 2.26616 0
M  V30 16038 H 1423.62 6.99701 3.43567 0
M  V30 16039 N 1427.84 0.0718701 1.57436 0
M  V30 16040 C 1429.09 -0.597231 1.93493 0
M  V30 16041 C 1429.42 -1.69614 0.951906 0
M  V30 16042 O 1428.67 -1.95673 -0.0324554 0
M  V30 16043 C 1428.97 -1.21336 3.36173 0
M  V30 16044 C 1428.64 -0.240582 4.50258 0
M  V30 16045 C 1427.3 0.0270368 4.81192 0
M  V30 16046 C 1429.65 0.424924 5.19465 0
M  V30 16047 C 1426.98 0.967249 5.78672 0
M  V30 16048 C 1429.33 1.35346 6.17952 0
M  V30 16049 C 1428 1.62954 6.47304 0
M  V30 16050 H 1427.27 -0.218542 0.70804 0
M  V30 16051 H 1429.91 0.142762 1.90967 0
M  V30 16052 H 1428.22 -2.02909 3.35164 0
M  V30 16053 H 1429.92 -1.73836 3.61361 0
M  V30 16054 H 1426.51 -0.459352 4.26131 0
M  V30 16055 H 1430.69 0.231285 4.95761 0
M  V30 16056 H 1425.95 1.1884 5.99739 0
M  V30 16057 H 1430.12 1.87509 6.70681 0
M  V30 16058 H 1427.75 2.3597 7.2265 0
M  V30 16059 N 1429.32 -1.56304 -0.201686 0
M  V30 16060 C 1430.57 -1.80504 -0.92446 0
M  V30 16061 C 1430.9 -0.644832 -1.83182 0
M  V30 16062 O 1430.18 0.354963 -1.91234 0
M  V30 16063 C 1430.46 -3.14919 -1.74636 0
M  V30 16064 C 1430.31 -4.41421 -0.864169 0
M  V30 16065 C 1431.63 -3.45962 -2.72026 0
M  V30 16066 H 1428.75 -0.656643 -0.334648 0
M  V30 16067 H 1431.39 -1.89025 -0.192188 0
M  V30 16068 H 1429.54 -3.07785 -2.37066 0
M  V30 16069 H 1431.21 -4.60594 -0.255084 0
M  V30 16070 H 1429.46 -4.33465 -0.170548 0
M  V30 16071 H 1430.13 -5.31954 -1.47409 0
M  V30 16072 H 1432.6 -3.53353 -2.1973 0
M  V30 16073 H 1431.48 -4.41146 -3.26622 0
M  V30 16074 H 1431.74 -2.69124 -3.50749 0
M  V30 16075 N 1430.8 0.469154 -1.50455 0
M  V30 16076 C 1432.22 0.803067 -1.37924 0
M  V30 16077 C 1432.42 1.96708 -0.436837 0
M  V30 16078 O 1431.47 2.52216 0.119823 0
M  V30 16079 C 1432.79 1.11332 -2.79331 0
M  V30 16080 C 1434.33 1.21965 -2.88259 0
M  V30 16081 C 1434.81 1.56302 -4.30504 0
M  V30 16082 N 1436.3 1.6329 -4.33464 0
M  V30 16083 C 1437.03 1.91367 -5.40524 0
M  V30 16084 N 1436.53 2.17451 -6.57789 0
M  V30 16085 N 1438.32 1.92885 -5.2797 0
M  V30 16086 H 1430.47 -0.297928 -2.103 0
M  V30 16087 H 1432.74 -0.0707794 -0.945354 0
M  V30 16088 H 1432.44 0.331052 -3.50138 0
M  V30 16089 H 1432.32 2.04903 -3.16693 0
M  V30 16090 H 1434.7 1.99259 -2.17669 0
M  V30 16091 H 1434.79 0.263692 -2.54437 0
M  V30 16092 H 1434.43 0.795479 -5.01632 0
M  V30 16093 H 1434.36 2.53052 -4.61814 0
M  V30 16094 H 1436.85 1.45164 -3.48907 0
M  V30 16095 H 1437.16 2.38154 -7.35189 0
M  V30 16096 H 1435.51 2.14839 -6.60961 0
M  V30 16097 H 1438.7 1.72005 -4.35353 0
M  V30 16098 H 1438.87 2.1443 -6.11493 0
M  V30 16099 N 1432.28 1.40065 0.722464 0
M  V30 16100 C 1433.53 1.3797 1.48224 0
M  V30 16101 C 1433.85 -0.0202588 1.94489 0
M  V30 16102 O 1433.11 -1.0035 1.68013 0
M  V30 16103 C 1433.41 2.30949 2.72759 0
M  V30 16104 C 1433.07 3.7834 2.45295 0
M  V30 16105 C 1431.74 4.18497 2.37515 0
M  V30 16106 C 1434.09 4.71509 2.221 0
M  V30 16107 C 1431.42 5.4987 2.04598 0
M  V30 16108 C 1433.77 6.03173 1.90697 0
M  V30 16109 C 1432.43 6.4238 1.81394 0
M  V30 16110 H 1431.7 0.504869 0.542392 0
M  V30 16111 H 1434.35 1.72667 0.828149 0
M  V30 16112 H 1432.65 1.89413 3.42972 0
M  V30 16113 H 1434.35 2.26615 3.30827 0
M  V30 16114 H 1430.94 3.46519 2.52235 0
M  V30 16115 H 1435.12 4.41308 2.27071 0
M  V30 16116 H 1430.38 5.79157 1.95928 0
M  V30 16117 H 1434.55 6.74886 1.71761 0
M  V30 16118 H 1432.18 7.44094 1.55654 0
M  V30 16119 N 1433.76 -0.95397 1.25448 0
M  V30 16120 C 1435.17 -1.22516 1.02284 0
M  V30 16121 C 1435.37 -1.99816 -0.259933 0
M  V30 16122 O 1434.43 -2.33022 -0.972479 0
M  V30 16123 C 1435.74 -1.9989 2.24643 0
M  V30 16124 C 1437.29 -2.1293 2.29412 0
M  V30 16125 C 1437.77 -2.93703 3.51429 0
M  V30 16126 N 1439.26 -3.01281 3.51829 0
M  V30 16127 C 1439.99 -3.64174 4.42905 0
M  V30 16128 N 1439.49 -4.28673 5.44253 0
M  V30 16129 N 1441.28 -3.61321 4.30585 0
M  V30 16130 H 1433.43 -0.436859 2.07859 0
M  V30 16131 H 1435.69 -0.255744 0.912852 0
M  V30 16132 H 1435.4 -1.50489 3.17877 0
M  V30 16133 H 1435.27 -3.00593 2.27868 0
M  V30 16134 H 1437.66 -2.61528 1.367 0
M  V30 16135 H 1437.74 -1.1153 2.30206 0
M  V30 16136 H 1437.39 -2.45795 4.44463 0
M  V30 16137 H 1437.32 -3.95331 3.47881 0
M  V30 16138 H 1439.81 -2.55414 2.78517 0
M  V30 16139 H 1440.12 -4.74522 6.09958 0
M  V30 16140 H 1438.47 -4.27299 5.48125 0
M  V30 16141 H 1441.66 -3.10118 3.50634 0
M  V30 16142 H 1441.83 -4.1005 5.0176 0
M  V30 16143 N 1435.24 -1.07045 -1.15668 0
M  V30 16144 C 1436.48 -0.792908 -1.86657 0
M  V30 16145 C 1436.81 0.679213 -1.81935 0
M  V30 16146 O 1436.09 1.49822 -1.2403 0
M  V30 16147 C 1436.37 -1.2978 -3.35901 0
M  V30 16148 C 1436.23 -2.83424 -3.49272 0
M  V30 16149 C 1437.54 -0.911821 -4.30551 0
M  V30 16150 H 1434.66 -0.289509 -0.677756 0
M  V30 16151 H 1437.31 -1.32769 -1.35913 0
M  V30 16152 H 1435.46 -0.84288 -3.79246 0
M  V30 16153 H 1437.13 -3.37182 -3.14811 0
M  V30 16154 H 1435.37 -3.21777 -2.90933 0
M  V30 16155 H 1436.04 -3.13819 -4.54116 0
M  V30 16156 H 1438.52 -1.30376 -3.95147 0
M  V30 16157 H 1437.39 -1.29247 -5.33467 0
M  V30 16158 H 1437.65 0.18255 -4.41723 0
M  V30 16159 N 1436.71 1.32449 -0.85411 0
M  V30 16160 C 1437.94 2.01463 -0.471188 0
M  V30 16161 C 1438.36 1.64195 0.931954 0
M  V30 16162 O 1437.71 0.862994 1.60806 0
M  V30 16163 C 1437.76 3.56486 -0.600022 0
M  V30 16164 O 1437.49 3.92414 -1.94789 0
M  V30 16165 C 1438.99 4.42773 -0.216036 0
M  V30 16166 H 1436.21 0.644914 -0.185275 0
M  V30 16167 H 1438.75 1.6904 -1.1509 0
M  V30 16168 H 1436.91 3.87387 0.0319488 0
M  V30 16169 H 1437.32 4.87133 -1.94427 0
M  V30 16170 H 1438.79 5.50843 -0.357186 0
M  V30 16171 H 1439.27 4.31025 0.843468 0
M  V30 16172 H 1439.88 4.1726 -0.823058 0
M  V30 16173 N 1438.19 0.611994 1.45232 0
M  V30 16174 C 1439.47 0.0407 1.95558 0
M  V30 16175 C 1439.85 -1.42839 1.55436 0
M  V30 16176 O 1439.2 -2.13316 0.819055 0
M  V30 16177 C 1439.41 0.243436 3.4815 0
M  V30 16178 C 1440.75 0.126551 4.24411 0
M  V30 16179 O 1441.78 0.17379 3.55776 0
M  V30 16180 O 1440.64 0.0153526 5.46498 0
M  V30 16181 H 1437.73 -0.0332288 0.826332 0
M  V30 16182 H 1440.28 0.682364 1.55377 0
M  V30 16183 H 1439.05 1.26357 3.70337 0
M  V30 16184 H 1438.67 -0.43328 3.95232 0
M  V30 16185 N 1439.67 -1.53632 0.351409 0
M  V30 16186 C 1440.63 -2.23916 -0.489293 0
M  V30 16187 C 1441.63 -1.24207 -1.02124 0
M  V30 16188 O 1442.82 -1.48589 -0.909235 0
M  V30 16189 C 1439.95 -2.96492 -1.68242 0
M  V30 16190 H 1441.15 -2.99637 0.125518 0
M  V30 16191 H 1438.7 -1.55961 0.102874 0
M  V30 16192 H 1439.44 -2.24978 -2.33571 0
M  V30 16193 H 1439.22 -3.69637 -1.3081 0
M  V30 16194 H 1440.71 -3.49961 -2.27853 0
M  V30 16195 N 1441.15 -0.0802183 -1.57396 0
M  V30 16196 C 1442.4 0.586573 -1.92982 0
M  V30 16197 C 1442.71 1.70256 -0.962918 0
M  V30 16198 O 1443.92 2.4295 -1.21193 0
M  V30 16199 C 1442.37 1.09475 -3.42846 0
M  V30 16200 C 1441.98 0.0093098 -4.47999 0
M  V30 16201 C 1443.72 1.73512 -3.87419 0
M  V30 16202 C 1441.63 0.532002 -5.89002 0
M  V30 16203 H 1440.56 0.222878 -0.720306 0
M  V30 16204 H 1443.21 -0.153816 -1.82854 0
M  V30 16205 H 1441.59 1.88836 -3.48076 0
M  V30 16206 H 1442.77 -0.765609 -4.54395 0
M  V30 16207 H 1441.08 -0.535345 -4.12944 0
M  V30 16208 H 1443.68 2.13665 -4.90154 0
M  V30 16209 H 1444.02 2.59845 -3.25248 0
M  V30 16210 H 1444.56 1.00758 -3.84828 0
M  V30 16211 H 1441.29 -0.294364 -6.54839 0
M  V30 16212 H 1440.81 1.27425 -5.86108 0
M  V30 16213 H 1442.49 1.00573 -6.39135 0
M  V30 16214 N 1442.63 1.56409 0.193394 0
M  V30 16215 C 1443.9 1.71559 0.93951 0
M  V30 16216 C 1444.28 0.635478 2.01308 0
M  V30 16217 O 1443.63 -0.353267 2.25753 0
M  V30 16218 C 1443.84 3.13948 1.52438 0
M  V30 16219 C 1445.19 3.74234 2.00585 0
M  V30 16220 O 1446.21 3.17088 1.62277 0
M  V30 16221 O 1445.07 4.74529 2.71081 0
M  V30 16222 H 1442.17 0.69979 0.440707 0
M  V30 16223 H 1444.71 1.68711 0.182957 0
M  V30 16224 H 1443.48 3.84033 0.750613 0
M  V30 16225 H 1443.11 3.21032 2.34572 0
M  V30 16226 N 1444.1 -0.461169 1.50702 0
M  V30 16227 C 1445.35 -1.21431 1.62427 0
M  V30 16228 C 1445.68 -1.91406 0.328228 0
M  V30 16229 O 1444.96 -1.82563 -0.670898 0
M  V30 16230 C 1445.24 -2.25016 2.8114 0
M  V30 16231 C 1445.09 -1.5928 4.20654 0
M  V30 16232 C 1446.41 -3.26234 2.95397 0
M  V30 16233 H 1443.53 -0.440113 0.59116 0
M  V30 16234 H 1446.17 -0.506726 1.83118 0
M  V30 16235 H 1444.32 -2.85363 2.63629 0
M  V30 16236 H 1446 -1.02454 4.49779 0
M  V30 16237 H 1444.24 -0.895665 4.24453 0
M  V30 16238 H 1444.91 -2.34602 4.99666 0
M  V30 16239 H 1447.39 -2.7592 3.1146 0
M  V30 16240 H 1446.26 -3.96031 3.80067 0
M  V30 16241 H 1446.52 -3.90943 2.06436 0
M  V30 16242 N 1445.58 -1.40446 -0.715026 0
M  V30 16243 C 1446.81 -1.41864 -1.50193 0
M  V30 16244 C 1447.22 -0.0168144 -1.89193 0
M  V30 16245 O 1446.56 0.969732 -1.56019 0
M  V30 16246 C 1446.62 -2.24619 -2.80689 0
M  V30 16247 C 1446.29 -3.73026 -2.64009 0
M  V30 16248 C 1447.29 -4.65648 -2.31232 0
M  V30 16249 C 1444.97 -4.16847 -2.80256 0
M  V30 16250 C 1446.96 -6.00076 -2.14912 0
M  V30 16251 C 1444.65 -5.51346 -2.63554 0
M  V30 16252 C 1445.65 -6.42776 -2.3093 0
M  V30 16253 O 1445.34 -7.74795 -2.14355 0
M  V30 16254 H 1445.07 -0.485821 -0.470058 0
M  V30 16255 H 1447.62 -1.85138 -0.88955 0
M  V30 16256 H 1445.85 -1.76126 -3.44262 0
M  V30 16257 H 1447.54 -2.17972 -3.42408 0
M  V30 16258 H 1448.31 -4.33087 -2.18312 0
M  V30 16259 H 1444.19 -3.46001 -3.04637 0
M  V30 16260 H 1447.73 -6.71405 -1.8937 0
M  V30 16261 H 1443.63 -5.83491 -2.76058 0
M  V30 16262 H 1444.4 -7.85734 -2.2927 0
M  V30 16263 N 1447.06 0.947303 -1.25952 0
M  V30 16264 C 1448.34 1.66964 -1.01894 0
M  V30 16265 C 1448.72 2.06192 0.452555 0
M  V30 16266 O 1448.06 1.78098 1.43156 0
M  V30 16267 C 1448.27 2.88643 -1.96179 0
M  V30 16268 C 1449.62 3.60432 -2.24441 0
M  V30 16269 O 1450.65 2.98737 -1.93996 0
M  V30 16270 O 1449.51 4.7154 -2.76247 0
M  V30 16271 H 1446.6 0.730875 -0.386976 0
M  V30 16272 H 1449.15 0.999577 -1.37137 0
M  V30 16273 H 1447.92 2.565 -2.95506 0
M  V30 16274 H 1447.54 3.63377 -1.61379 0
M  V30 16275 N 1448.54 1.07657 1.15099 0
M  V30 16276 C 1449.79 0.801609 1.85958 0
M  V30 16277 C 1450.11 -0.672415 1.82507 0
M  V30 16278 O 1449.37 -1.50958 1.2454 0
M  V30 16279 C 1449.67 1.25903 3.3449 0
M  V30 16280 C 1449.33 2.73954 3.58134 0
M  V30 16281 C 1448 3.14392 3.64296 0
M  V30 16282 C 1450.35 3.69502 3.67584 0
M  V30 16283 C 1447.68 4.49187 3.77422 0
M  V30 16284 C 1450.03 5.04063 3.82235 0
M  V30 16285 C 1448.69 5.44117 3.86643 0
M  V30 16286 H 1447.96 0.293329 0.68047 0
M  V30 16287 H 1450.61 1.34814 1.36005 0
M  V30 16288 H 1448.91 0.631943 3.8667 0
M  V30 16289 H 1450.61 1.02314 3.87728 0
M  V30 16290 H 1447.2 2.41652 3.53981 0
M  V30 16291 H 1451.38 3.39385 3.62121 0
M  V30 16292 H 1446.64 4.79685 3.79094 0
M  V30 16293 H 1450.81 5.7797 3.88489 0
M  V30 16294 H 1448.44 6.48567 3.96567 0
M  V30 16295 N 1450.02 -1.31994 0.861122 0
M  V30 16296 C 1451.26 -1.97025 0.467678 0
M  V30 16297 C 1451.59 -1.68116 -0.978129 0
M  V30 16298 O 1450.85 -0.965342 -1.70234 0
M  V30 16299 C 1451.15 -3.51232 0.661135 0
M  V30 16300 C 1450.81 -4.00142 2.07839 0
M  V30 16301 C 1449.47 -4.1321 2.466 0
M  V30 16302 C 1451.83 -4.25986 3.00309 0
M  V30 16303 C 1449.15 -4.49467 3.7709 0
M  V30 16304 C 1451.51 -4.63704 4.30304 0
M  V30 16305 C 1450.17 -4.74978 4.68991 0
M  V30 16306 H 1449.44 -0.720967 0.171136 0
M  V30 16307 H 1452.09 -1.57285 1.09242 0
M  V30 16308 H 1450.39 -3.91772 -0.0467947 0
M  V30 16309 H 1452.09 -3.99584 0.336669 0
M  V30 16310 H 1448.68 -3.90461 1.76743 0
M  V30 16311 H 1452.86 -4.15393 2.71592 0
M  V30 16312 H 1448.12 -4.56391 4.06838 0
M  V30 16313 H 1452.29 -4.82654 5.02014 0
M  V30 16314 H 1449.92 -5.02828 5.70147 0
M  V30 16315 N 1451.49 -0.619688 -1.44906 0
M  V30 16316 C 1452.72 -0.12618 -2.06214 0
M  V30 16317 C 1453.13 1.19978 -1.46294 0
M  V30 16318 O 1452.48 1.74437 -0.575956 0
M  V30 16319 C 1452.54 0.075085 -3.59422 0
M  V30 16320 C 1452.2 -1.17094 -4.41744 0
M  V30 16321 C 1453.2 -2.09196 -4.75955 0
M  V30 16322 C 1450.88 -1.40315 -4.82304 0
M  V30 16323 C 1452.88 -3.22839 -5.49594 0
M  V30 16324 C 1450.56 -2.54257 -5.55695 0
M  V30 16325 C 1451.56 -3.45346 -5.89258 0
M  V30 16326 O 1451.25 -4.57302 -6.61158 0
M  V30 16327 H 1450.98 -0.0715975 -0.672198 0
M  V30 16328 H 1453.54 -0.850858 -1.86948 0
M  V30 16329 H 1451.77 0.854787 -3.77134 0
M  V30 16330 H 1453.46 0.521707 -4.02533 0
M  V30 16331 H 1454.22 -1.92486 -4.45168 0
M  V30 16332 H 1450.1 -0.703094 -4.55607 0
M  V30 16333 H 1453.64 -3.93959 -5.7571 0
M  V30 16334 H 1449.54 -2.70915 -5.85897 0
M  V30 16335 H 1450.31 -4.56138 -6.79618 0
M  V30 16336 N 1452.97 1.53444 -0.359552 0
M  V30 16337 C 1454.22 2.00348 0.233109 0
M  V30 16338 C 1454.53 1.25104 1.50361 0
M  V30 16339 O 1455.74 1.62566 2.1745 0
M  V30 16340 C 1454.2 3.56871 0.465951 0
M  V30 16341 C 1453.8 4.40987 -0.789571 0
M  V30 16342 C 1455.55 4.12148 1.0166 0
M  V30 16343 C 1453.46 5.8905 -0.526646 0
M  V30 16344 H 1452.39 0.748502 0.0908851 0
M  V30 16345 H 1455.04 1.77182 -0.47736 0
M  V30 16346 H 1453.42 3.76167 1.23753 0
M  V30 16347 H 1454.59 4.33465 -1.56348 0
M  V30 16348 H 1452.91 3.96784 -1.263 0
M  V30 16349 H 1455.5 5.20395 1.22853 0
M  V30 16350 H 1455.85 3.66364 1.97694 0
M  V30 16351 H 1456.38 3.96626 0.305334 0
M  V30 16352 H 1453.12 6.39099 -1.45715 0
M  V30 16353 H 1452.64 5.99436 0.208875 0
M  V30 16354 H 1454.32 6.46826 -0.149889 0
M  V30 16355 N 1454.45 0.0885642 1.57351 0
M  V30 16356 C 1455.4 -0.872723 2.13664 0
M  V30 16357 C 1456.37 -1.28418 1.05347 0
M  V30 16358 O 1457.55 -1.36709 1.33099 0
M  V30 16359 C 1454.69 -2.12886 2.71613 0
M  V30 16360 C 1453.81 -1.76852 3.94141 0
M  V30 16361 C 1452.94 -2.97203 4.40277 0
M  V30 16362 C 1451.98 -2.57265 5.55411 0
M  V30 16363 N 1451.12 -3.70429 5.96428 0
M  V30 16364 H 1455.96 -0.385644 2.95494 0
M  V30 16365 H 1453.49 -0.178688 1.46011 0
M  V30 16366 H 1455.45 -2.86441 3.03327 0
M  V30 16367 H 1454.08 -2.59105 1.92521 0
M  V30 16368 H 1453.13 -0.932921 3.68783 0
M  V30 16369 H 1454.45 -1.43481 4.77718 0
M  V30 16370 H 1453.6 -3.79019 4.7374 0
M  V30 16371 H 1452.34 -3.3378 3.55587 0
M  V30 16372 H 1451.34 -1.73875 5.21582 0
M  V30 16373 H 1452.57 -2.21839 6.41844 0
M  V30 16374 H 1450.51 -4.06737 5.14686 0
M  V30 16375 H 1450.43 -3.40881 6.74786 0
M  V30 16376 H 1451.7 -4.52774 6.3452 0
M  V30 16377 N 1455.93 -1.56509 -0.185096 0
M  V30 16378 C 1456.88 -1.95336 -1.22934 0
M  V30 16379 C 1457.85 -0.81532 -1.44713 0
M  V30 16380 O 1459.03 -1.07431 -1.57681 0
M  V30 16381 C 1456.17 -2.30671 -2.56681 0
M  V30 16382 C 1455.28 -3.57586 -2.42397 0
M  V30 16383 C 1454.42 -3.82197 -3.68916 0
M  V30 16384 C 1453.46 -5.02505 -3.49507 0
M  V30 16385 N 1452.59 -5.23319 -4.68062 0
M  V30 16386 H 1457.43 -2.84361 -0.89123 0
M  V30 16387 H 1454.97 -1.40715 -0.428689 0
M  V30 16388 H 1456.93 -2.49176 -3.34615 0
M  V30 16389 H 1455.56 -1.44773 -2.88514 0
M  V30 16390 H 1454.61 -3.47072 -1.55709 0
M  V30 16391 H 1455.92 -4.45677 -2.23994 0
M  V30 16392 H 1455.08 -4.00996 -4.55288 0
M  V30 16393 H 1453.82 -2.92455 -3.90284 0
M  V30 16394 H 1452.82 -4.83619 -2.6152 0
M  V30 16395 H 1454.05 -5.93765 -3.29574 0
M  V30 16396 H 1451.99 -4.36526 -4.89674 0
M  V30 16397 H 1451.91 -6.05608 -4.52521 0
M  V30 16398 H 1453.18 -5.46585 -5.55757 0
M  V30 16399 N 1457.41 0.45317 -1.50944 0
M  V30 16400 C 1458.65 1.20568 -1.63068 0
M  V30 16401 C 1458.99 1.91229 -0.338375 0
M  V30 16402 O 1458.26 1.82916 0.661207 0
M  V30 16403 C 1458.54 2.23522 -2.8233 0
M  V30 16404 C 1458.4 1.57047 -4.21493 0
M  V30 16405 C 1459.72 3.24663 -2.97123 0
M  V30 16406 H 1456.83 0.436971 -0.593486 0
M  V30 16407 H 1459.48 0.497008 -1.83384 0
M  V30 16408 H 1457.63 2.83961 -2.65139 0
M  V30 16409 H 1459.3 1.00067 -4.50316 0
M  V30 16410 H 1457.54 0.873143 -4.24922 0
M  V30 16411 H 1458.21 2.31949 -5.00903 0
M  V30 16412 H 1460.69 2.74264 -3.12919 0
M  V30 16413 H 1459.56 3.9401 -3.82161 0
M  V30 16414 H 1459.83 3.89843 -2.08506 0
M  V30 16415 N 1458.88 1.40823 0.707568 0
M  V30 16416 C 1459.81 1.44485 1.83429 0
M  V30 16417 C 1460.8 0.304848 1.67346 0
M  V30 16418 O 1461.98 0.514605 1.87258 0
M  V30 16419 C 1459.11 1.31458 3.21459 0
M  V30 16420 C 1458.06 2.43145 3.52228 0
M  V30 16421 C 1457.39 2.15189 4.89487 0
M  V30 16422 C 1458.69 3.85489 3.52414 0
M  V30 16423 H 1460.38 2.38781 1.80622 0
M  V30 16424 H 1457.93 1.14931 0.867572 0
M  V30 16425 H 1459.88 1.32635 3.99983 0
M  V30 16426 H 1458.61 0.336422 3.24863 0
M  V30 16427 H 1457.27 2.41231 2.76049 0
M  V30 16428 H 1456.91 1.15745 4.89502 0
M  V30 16429 H 1456.61 2.90022 5.11039 0
M  V30 16430 H 1458.14 2.18062 5.70334 0
M  V30 16431 H 1459.55 3.89183 4.20963 0
M  V30 16432 H 1457.95 4.59906 3.85495 0
M  V30 16433 H 1459.02 4.14499 2.51632 0
M  V30 16434 N 1460.36 -0.94061 1.26453 0
M  V30 16435 C 1461.59 -1.72654 1.14914 0
M  V30 16436 C 1462.01 -1.85823 -0.291789 0
M  V30 16437 O 1461.37 -1.34888 -1.2114 0
M  V30 16438 C 1461.42 -3.11083 1.82372 0
M  V30 16439 O 1460.52 -3.971 1.1129 0
M  V30 16440 H 1459.86 -0.529704 0.400387 0
M  V30 16441 H 1462.39 -1.17803 1.67283 0
M  V30 16442 H 1462.4 -3.6147 1.89219 0
M  V30 16443 H 1461.08 -3.00815 2.87199 0
M  V30 16444 H 1459.66 -3.5555 1.12423 0
M  V30 16445 N 1461.84 -1.08266 -1.14527 0
M  V30 16446 C 1463.07 -0.832994 -1.89937 0
M  V30 16447 C 1463.49 0.608985 -1.77969 0
M  V30 16448 O 1462.85 1.42657 -1.11887 0
M  V30 16449 C 1462.9 -1.25782 -3.37952 0
M  V30 16450 O 1462 -0.408853 -4.10368 0
M  V30 16451 H 1461.34 -0.30267 -0.591005 0
M  V30 16452 H 1463.87 -1.44371 -1.44977 0
M  V30 16453 H 1463.88 -1.23804 -3.88763 0
M  V30 16454 H 1462.56 -2.30804 -3.4598 0
M  V30 16455 H 1461.13 -0.49192 -3.69641 0
M  V30 16456 N 1463.32 1.31536 -0.86811 0
M  V30 16457 C 1464.74 1.49461 -0.559778 0
M  V30 16458 C 1464.94 1.79957 0.906525 0
M  V30 16459 O 1463.99 1.87711 1.68881 0
M  V30 16460 C 1465.3 2.62967 -1.45839 0
M  V30 16461 C 1466.85 2.76851 -1.46023 0
M  V30 16462 C 1467.33 3.93451 -2.34436 0
M  V30 16463 N 1468.82 4.00735 -2.32306 0
M  V30 16464 C 1469.55 4.90223 -2.97437 0
M  V30 16465 N 1469.05 5.84626 -3.71731 0
M  V30 16466 N 1470.84 4.83454 -2.86755 0
M  V30 16467 H 1462.99 1.1001 -1.81691 0
M  V30 16468 H 1465.26 0.543418 -0.776789 0
M  V30 16469 H 1464.96 2.47203 -2.50168 0
M  V30 16470 H 1464.84 3.59063 -1.15556 0
M  V30 16471 H 1467.22 2.9203 -0.424527 0
M  V30 16472 H 1467.3 1.81427 -1.80327 0
M  V30 16473 H 1466.95 3.79029 -3.38082 0
M  V30 16474 H 1466.88 4.88179 -1.97457 0
M  V30 16475 H 1469.37 3.33191 -1.78303 0
M  V30 16476 H 1469.68 6.49635 -4.18562 0
M  V30 16477 H 1468.03 5.84611 -3.75839 0
M  V30 16478 H 1471.22 4.08678 -2.28254 0
M  V30 16479 H 1471.39 5.52991 -3.37795 0
M  V30 16480 N 1464.8 0.627364 1.44575 0
M  V30 16481 C 1466.05 0.127824 2.01295 0
M  V30 16482 C 1466.36 -1.25647 1.49907 0
M  V30 16483 O 1467.57 -1.84982 1.9873 0
M  V30 16484 C 1466.02 0.177775 3.59461 0
M  V30 16485 C 1465.63 1.56315 4.19845 0
M  V30 16486 C 1467.37 -0.265497 4.23669 0
M  V30 16487 C 1465.28 1.56842 5.70223 0
M  V30 16488 H 1464.21 0.0440205 0.752714 0
M  V30 16489 H 1466.86 0.785607 1.65833 0
M  V30 16490 H 1465.24 -0.547038 3.92203 0
M  V30 16491 H 1466.42 2.31125 3.98645 0
M  V30 16492 H 1464.73 1.95019 3.67909 0
M  V30 16493 H 1467.33 -0.281038 5.33961 0
M  V30 16494 H 1467.67 -1.29208 3.95741 0
M  V30 16495 H 1468.21 0.406698 3.95716 0
M  V30 16496 H 1464.94 2.57325 6.0288 0
M  V30 16497 H 1464.46 0.863198 5.93556 0
M  V30 16498 H 1466.14 1.30071 6.33791 0
M  V30 16499 N 1466.28 -1.53251 0.367684 0
M  V30 16500 C 1467.22 -2.258 -0.477802 0
M  V30 16501 C 1468.19 -1.26554 -1.07579 0
M  V30 16502 O 1469.38 -1.5534 -1.10788 0
M  V30 16503 C 1466.52 -3.05216 -1.6105 0
M  V30 16504 C 1465.63 -4.19357 -1.03748 0
M  V30 16505 C 1464.77 -4.86211 -2.13945 0
M  V30 16506 C 1463.8 -5.9238 -1.5412 0
M  V30 16507 N 1462.94 -6.52916 -2.58158 0
M  V30 16508 H 1467.78 -2.97635 0.147367 0
M  V30 16509 H 1465.32 -1.46857 0.084495 0
M  V30 16510 H 1467.28 -3.49536 -2.27772 0
M  V30 16511 H 1465.91 -2.35632 -2.20629 0
M  V30 16512 H 1464.96 -3.79507 -0.260476 0
M  V30 16513 H 1466.27 -4.95645 -0.560105 0
M  V30 16514 H 1465.42 -5.33725 -2.88483 0
M  V30 16515 H 1464.16 -4.09399 -2.65035 0
M  V30 16516 H 1463.17 -5.44225 -0.780968 0
M  V30 16517 H 1464.39 -6.71112 -1.03852 0
M  V30 16518 H 1462.34 -5.78956 -3.08457 0
M  V30 16519 H 1462.26 -7.2475 -2.15113 0
M  V30 16520 H 1463.52 -7.05079 -3.32392 0
M  V30 16521 N 1467.75 -0.0969077 -1.57302 0
M  V30 16522 C 1468.7 0.861379 -2.14124 0
M  V30 16523 C 1469.67 1.27858 -1.06026 0
M  V30 16524 O 1470.86 1.36001 -1.33822 0
M  V30 16525 C 1468 2.11443 -2.72738 0
M  V30 16526 C 1467.11 1.7476 -3.95074 0
M  V30 16527 C 1466.24 2.94864 -4.41847 0
M  V30 16528 C 1465.28 2.54316 -5.56767 0
M  V30 16529 N 1464.42 3.67261 -5.98384 0
M  V30 16530 H 1469.26 0.369968 -2.95694 0
M  V30 16531 H 1466.8 0.170943 -1.46103 0
M  V30 16532 H 1468.75 2.84829 -3.04842 0
M  V30 16533 H 1467.38 2.5808 -1.93893 0
M  V30 16534 H 1466.44 0.91335 -3.69272 0
M  V30 16535 H 1467.75 1.40946 -4.78472 0
M  V30 16536 H 1466.9 3.76501 -4.75744 0
M  V30 16537 H 1465.64 3.31889 -3.57352 0
M  V30 16538 H 1464.65 1.71106 -5.22497 0
M  V30 16539 H 1465.87 2.18432 -6.43012 0
M  V30 16540 H 1463.82 4.04001 -5.16836 0
M  V30 16541 H 1463.73 3.37298 -6.76584 0
M  V30 16542 H 1465 4.49403 -6.36912 0
M  V30 16543 N 1469.23 1.56605 0.176793 0
M  V30 16544 C 1470.14 1.99211 1.23903 0
M  V30 16545 C 1471.16 0.902614 1.48758 0
M  V30 16546 O 1472.33 1.20982 1.61014 0
M  V30 16547 C 1469.4 2.33873 2.55938 0
M  V30 16548 C 1468.46 3.56624 2.38994 0
M  V30 16549 C 1467.69 3.89623 3.64733 0
M  V30 16550 O 1467.92 3.23662 4.6968 0
M  V30 16551 O 1466.85 4.82992 3.5917 0
M  V30 16552 H 1470.68 2.89827 0.907398 0
M  V30 16553 H 1468.26 1.44401 0.383234 0
M  V30 16554 H 1470.14 2.57161 3.33836 0
M  V30 16555 H 1468.82 1.46421 2.88691 0
M  V30 16556 H 1467.72 3.38561 1.59146 0
M  V30 16557 H 1469.06 4.446 2.11167 0
M  V30 16558 N 1470.71 -0.445159 1.51182 0
M  V30 16559 C 1471.94 -1.2161 1.67016 0
M  V30 16560 C 1472.35 -1.85671 0.363705 0
M  V30 16561 O 1471.69 -1.71165 -0.666963 0
M  V30 16562 C 1471.75 -2.34705 2.72312 0
M  V30 16563 C 1471.42 -1.91074 4.15138 0
M  V30 16564 C 1472.41 -1.41857 5.00173 0
M  V30 16565 C 1470.1 -1.99004 4.61197 0
M  V30 16566 C 1472.09 -1.01146 6.29324 0
M  V30 16567 C 1469.78 -1.57904 5.90347 0
M  V30 16568 C 1470.78 -1.09056 6.74237 0
M  V30 16569 O 1470.47 -0.685367 8.00973 0
M  V30 16570 H 1470.2 -0.372925 0.563829 0
M  V30 16571 H 1472.75 -0.534708 1.98318 0
M  V30 16572 H 1470.98 -3.06097 2.36309 0
M  V30 16573 H 1472.67 -2.96594 2.77104 0
M  V30 16574 H 1473.44 -1.35132 4.65794 0
M  V30 16575 H 1469.32 -2.35972 3.96028 0
M  V30 16576 H 1472.86 -0.629486 6.94754 0
M  V30 16577 H 1468.76 -1.64297 6.24241 0
M  V30 16578 H 1469.52 -0.811915 8.14463 0
M  V30 16579 N 1472.19 -1.41197 -0.700089 0
M  V30 16580 C 1473.14 -1.42885 -1.83539 0
M  V30 16581 C 1474.13 -0.307431 -1.66587 0
M  V30 16582 O 1475.34 -0.479238 -1.73503 0
M  V30 16583 H 1471.71 -0.446973 -0.604747 0
M  V30 16584 H 1473.68 -2.38576 -1.79231 0
M  V30 16585 C 1472.43 -1.3235 -3.21526 0
M  V30 16586 H 1471.75 -2.17926 -3.35184 0
M  V30 16587 H 1473.19 -1.37592 -4.01054 0
M  V30 16588 C 1471.65 -0.0353528 -3.36881 0
M  V30 16589 O 1472.18 0.921676 -3.90983 0
M  V30 16590 N 1470.39 0.0392479 -2.90573 0
M  V30 16591 H 1469.94 -0.740299 -2.46733 0
M  V30 16592 H 1469.89 0.900559 -3.01226 0
M  V30 16593 N 1473.67 0.933891 -1.2695 0
M  V30 16594 C 1474.58 2.06713 -1.10936 0
M  V30 16595 C 1475.59 1.73952 -0.0409734 0
M  V30 16596 O 1476.77 1.9989 -0.246199 0
M  V30 16597 C 1473.83 3.38453 -0.751696 0
M  V30 16598 C 1472.89 3.84951 -1.90029 0
M  V30 16599 C 1472.13 5.10404 -1.55959 0
M  V30 16600 O 1472.35 5.68504 -0.464646 0
M  V30 16601 O 1471.28 5.52123 -2.39675 0
M  V30 16602 H 1475.11 2.23133 -2.06023 0
M  V30 16603 H 1472.69 1.05202 -1.06079 0
M  V30 16604 H 1474.58 4.17591 -0.565285 0
M  V30 16605 H 1473.25 3.23255 0.169703 0
M  V30 16606 H 1472.16 3.06727 -2.14172 0
M  V30 16607 H 1473.49 4.04681 -2.80167 0
M  V30 16608 N 1475.14 1.08871 1.13951 0
M  V30 16609 C 1476.39 0.821287 1.85098 0
M  V30 16610 C 1476.72 -0.65302 1.8321 0
M  V30 16611 O 1475.97 -1.49629 1.26134 0
M  V30 16612 C 1476.27 1.29443 3.33135 0
M  V30 16613 C 1475.94 2.77737 3.55208 0
M  V30 16614 C 1474.6 3.18238 3.60941 0
M  V30 16615 C 1476.95 3.7338 3.63644 0
M  V30 16616 C 1474.28 4.53165 3.72637 0
M  V30 16617 C 1476.63 5.08089 3.76867 0
M  V30 16618 C 1475.3 5.48187 3.8085 0
M  V30 16619 H 1474.57 0.30053 0.67732 0
M  V30 16620 H 1477.21 1.36249 1.34568 0
M  V30 16621 H 1475.52 0.672919 3.85978 0
M  V30 16622 H 1477.22 1.06421 3.86621 0
M  V30 16623 H 1473.81 2.45393 3.51398 0
M  V30 16624 H 1477.99 3.43207 3.58501 0
M  V30 16625 H 1473.25 4.83679 3.73985 0
M  V30 16626 H 1477.42 5.82058 3.82337 0
M  V30 16627 H 1475.05 6.52737 3.89665 0
M  V30 16628 N 1476.62 -1.31073 0.875073 0
M  V30 16629 C 1477.55 -2.30855 0.350468 0
M  V30 16630 C 1478.53 -1.60569 -0.561384 0
M  V30 16631 O 1479.72 -1.88242 -0.477329 0
M  V30 16632 C 1476.85 -3.44444 -0.444493 0
M  V30 16633 C 1475.8 -4.26357 0.374716 0
M  V30 16634 C 1475.13 -5.31903 -0.546243 0
M  V30 16635 C 1476.43 -4.96817 1.61153 0
M  V30 16636 H 1478.12 -2.74983 1.18427 0
M  V30 16637 H 1475.67 -1.32199 0.570909 0
M  V30 16638 H 1477.62 -4.13304 -0.82206 0
M  V30 16639 H 1476.34 -2.99096 -1.31185 0
M  V30 16640 H 1475 -3.59171 0.734295 0
M  V30 16641 H 1474.65 -4.82803 -1.41102 0
M  V30 16642 H 1474.35 -5.876 -0.00198173 0
M  V30 16643 H 1475.88 -6.03621 -0.920542 0
M  V30 16644 H 1477.29 -5.58247 1.30511 0
M  V30 16645 H 1475.69 -5.62334 2.09524 0
M  V30 16646 H 1476.76 -4.2351 2.36151 0
M  V30 16647 N 1478.1 -0.635022 -1.4424 0
M  V30 16648 C 1479.03 0.106038 -2.28955 0
M  V30 16649 C 1480.05 0.805076 -1.415 0
M  V30 16650 O 1481.23 0.665872 -1.65615 0
M  V30 16651 C 1478.33 1.17252 -3.1797 0
M  V30 16652 C 1477.51 0.555225 -4.33862 0
M  V30 16653 C 1476.57 1.51618 -5.03883 0
M  V30 16654 O 1475.59 1.03181 -5.5977 0
M  V30 16655 N 1476.79 2.85048 -5.05696 0
M  V30 16656 H 1479.56 -0.620999 -2.93196 0
M  V30 16657 H 1477.12 -0.476466 -1.5473 0
M  V30 16658 H 1479.11 1.81578 -3.61679 0
M  V30 16659 H 1477.68 1.80174 -2.55453 0
M  V30 16660 H 1476.9 -0.266745 -3.93296 0
M  V30 16661 H 1478.19 0.123529 -5.0865 0
M  V30 16662 H 1477.59 3.26977 -4.6163 0
M  V30 16663 H 1476.15 3.44724 -5.5318 0
M  V30 16664 N 1479.58 1.53054 -0.375806 0
M  V30 16665 C 1480.86 1.93761 0.26757 0
M  V30 16666 C 1481.24 1.31019 1.65521 0
M  V30 16667 O 1480.58 0.473138 2.23548 0
M  V30 16668 C 1480.79 3.47643 0.307505 0
M  V30 16669 C 1482.14 4.21114 0.542951 0
M  V30 16670 O 1483.17 3.54077 0.388285 0
M  V30 16671 O 1482.02 5.39929 0.8449 0
M  V30 16672 H 1479.12 0.810805 0.16286 0
M  V30 16673 H 1481.66 1.64179 -0.429334 0
M  V30 16674 H 1480.44 3.85608 -0.665001 0
M  V30 16675 H 1480.06 3.83488 1.04988 0
M  V30 16676 N 1481.06 0.105248 1.57248 0
M  V30 16677 C 1482 -0.850012 2.14577 0
M  V30 16678 C 1482.97 -1.27294 1.06703 0
M  V30 16679 O 1484.16 -1.35289 1.34542 0
M  V30 16680 C 1481.3 -2.09993 2.73856 0
M  V30 16681 C 1480.41 -1.72662 3.95995 0
M  V30 16682 C 1479.55 -2.92517 4.43404 0
M  V30 16683 C 1478.59 -2.5136 5.58108 0
M  V30 16684 N 1477.72 -3.64082 6.00324 0
M  V30 16685 H 1482.56 -0.354282 2.95887 0
M  V30 16686 H 1480.1 -0.163192 1.46192 0
M  V30 16687 H 1482.06 -2.83208 3.06348 0
M  V30 16688 H 1480.69 -2.57048 1.95259 0
M  V30 16689 H 1479.74 -0.893754 3.69752 0
M  V30 16690 H 1481.05 -1.38406 4.79213 0
M  V30 16691 H 1480.21 -3.73973 4.77734 0
M  V30 16692 H 1478.94 -3.2999 3.59107 0
M  V30 16693 H 1477.95 -1.68333 5.23397 0
M  V30 16694 H 1479.17 -2.15019 6.44161 0
M  V30 16695 H 1477.12 -4.01255 5.18971 0
M  V30 16696 H 1477.04 -3.33705 6.78363 0
M  V30 16697 H 1478.31 -4.46019 6.39287 0
M  V30 16698 N 1482.53 -1.56697 -0.168486 0
M  V30 16699 C 1483.95 -1.50879 -0.52036 0
M  V30 16700 C 1484.15 -0.810001 -1.84503 0
M  V30 16701 O 1483.21 -0.371549 -2.49751 0
M  V30 16702 C 1484.52 -2.95618 -0.550502 0
M  V30 16703 C 1486.07 -3.06439 -0.637508 0
M  V30 16704 C 1486.54 -4.52642 -0.698516 0
M  V30 16705 N 1488.03 -4.569 -0.761328 0
M  V30 16706 C 1488.77 -5.67373 -0.829155 0
M  V30 16707 N 1488.26 -6.87471 -0.857642 0
M  V30 16708 N 1490.06 -5.55352 -0.868392 0
M  V30 16709 H 1482.21 -2.00531 0.700087 0
M  V30 16710 H 1484.47 -0.913683 0.252759 0
M  V30 16711 H 1484.18 -3.49912 0.354222 0
M  V30 16712 H 1484.05 -3.50416 -1.396 0
M  V30 16713 H 1486.44 -2.52178 -1.53266 0
M  V30 16714 H 1486.52 -2.54721 0.234719 0
M  V30 16715 H 1486.16 -5.07535 0.192387 0
M  V30 16716 H 1486.09 -5.0212 -1.58693 0
M  V30 16717 H 1488.58 -3.70434 -0.747482 0
M  V30 16718 H 1488.9 -7.67416 -0.910648 0
M  V30 16719 H 1487.24 -6.90076 -0.825872 0
M  V30 16720 H 1490.43 -4.60444 -0.843158 0
M  V30 16721 H 1490.61 -6.41468 -0.917789 0
M  V30 16722 N 1484.01 0.437135 -1.51416 0
M  V30 16723 C 1484.98 1.51313 -1.72154 0
M  V30 16724 C 1485.98 1.49523 -0.59157 0
M  V30 16725 O 1487.17 1.51541 -0.859118 0
M  V30 16726 C 1484.3 2.9085 -1.77818 0
M  V30 16727 H 1485.49 1.34229 -2.68184 0
M  V30 16728 H 1483.04 0.665822 -1.41409 0
M  V30 16729 H 1483.78 3.13338 -0.836033 0
M  V30 16730 H 1483.56 2.93554 -2.59939 0
M  V30 16731 H 1485.05 3.68905 -1.957 0
M  V30 16732 N 1485.49 1.41566 0.692592 0
M  V30 16733 C 1486.74 1.41083 1.45265 0
M  V30 16734 C 1487.07 0.0209998 1.94489 0
M  V30 16735 O 1486.32 -0.96764 1.70104 0
M  V30 16736 C 1486.62 2.36683 2.67799 0
M  V30 16737 C 1486.29 3.83458 2.37215 0
M  V30 16738 C 1484.95 4.23441 2.28585 0
M  V30 16739 C 1487.3 4.76114 2.12048 0
M  V30 16740 C 1484.63 5.54086 1.92888 0
M  V30 16741 C 1486.98 6.07082 1.7786 0
M  V30 16742 C 1485.64 6.46083 1.67727 0
M  V30 16743 H 1484.91 0.51626 0.531561 0
M  V30 16744 H 1487.56 1.74385 0.791337 0
M  V30 16745 H 1485.87 1.96645 3.38877 0
M  V30 16746 H 1487.56 2.33581 3.25946 0
M  V30 16747 H 1484.15 3.51792 2.44828 0
M  V30 16748 H 1488.34 4.46025 2.17659 0
M  V30 16749 H 1483.59 5.83182 1.83599 0
M  V30 16750 H 1487.77 6.78378 1.57407 0
M  V30 16751 H 1485.39 7.47228 1.39836 0
M  V30 16752 N 1486.97 -0.927146 1.27443 0
M  V30 16753 C 1487.88 -2.06122 1.12031 0
M  V30 16754 C 1488.89 -1.73928 0.0501979 0
M  V30 16755 O 1490.07 -1.99756 0.256796 0
M  V30 16756 C 1487.14 -3.3805 0.769634 0
M  V30 16757 C 1486.2 -3.83938 1.92068 0
M  V30 16758 C 1485.43 -5.0957 1.58664 0
M  V30 16759 O 1485.65 -5.6825 0.494789 0
M  V30 16760 O 1484.59 -5.50844 2.42599 0
M  V30 16761 H 1488.41 -2.22037 2.07203 0
M  V30 16762 H 1486 -1.04638 1.06636 0
M  V30 16763 H 1487.88 -4.17286 0.587423 0
M  V30 16764 H 1486.55 -3.2334 -0.152557 0
M  V30 16765 H 1485.46 -3.05587 2.15795 0
M  V30 16766 H 1486.79 -4.0319 2.8231 0
M  V30 16767 N 1488.45 -1.09474 -1.13372 0
M  V30 16768 C 1489.39 -0.73458 -2.18798 0
M  V30 16769 C 1490.36 0.284433 -1.63647 0
M  V30 16770 O 1491.55 0.165958 -1.90077 0
M  V30 16771 C 1488.69 -0.161826 -3.4472 0
M  V30 16772 C 1487.8 -1.23494 -4.13973 0
M  V30 16773 C 1486.94 -0.624886 -5.27512 0
M  V30 16774 C 1485.98 -1.67927 -5.88614 0
M  V30 16775 N 1485.11 -1.09021 -6.93584 0
M  V30 16776 H 1489.95 -1.63787 -2.48954 0
M  V30 16777 H 1487.49 -0.818297 -1.22239 0
M  V30 16778 H 1489.45 0.188053 -4.16776 0
M  V30 16779 H 1488.08 0.70473 -3.15013 0
M  V30 16780 H 1487.13 -1.70209 -3.40196 0
M  V30 16781 H 1488.44 -2.0335 -4.55467 0
M  V30 16782 H 1487.6 -0.22388 -6.06287 0
M  V30 16783 H 1486.33 0.205214 -4.87268 0
M  V30 16784 H 1485.34 -2.08982 -5.08534 0
M  V30 16785 H 1486.56 -2.51204 -6.3093 0
M  V30 16786 H 1484.51 -0.281401 -6.55396 0
M  V30 16787 H 1484.43 -1.82573 -7.33623 0
M  V30 16788 H 1485.7 -0.715428 -7.7621 0
M  V30 16789 N 1489.92 1.30607 -0.882012 0
M  V30 16790 C 1490.87 2.2821 -0.344826 0
M  V30 16791 C 1491.84 1.56254 0.563361 0
M  V30 16792 O 1493.03 1.84336 0.492416 0
M  V30 16793 C 1490.17 3.42319 0.437216 0
M  V30 16794 C 1489.28 4.29098 -0.499851 0
M  V30 16795 C 1488.41 5.30366 0.297497 0
M  V30 16796 C 1487.45 6.08795 -0.63523 0
M  V30 16797 N 1486.59 7.01986 0.12661 0
M  V30 16798 H 1491.43 2.73543 -1.18229 0
M  V30 16799 H 1488.97 1.34556 -0.594392 0
M  V30 16800 H 1490.93 4.07232 0.906521 0
M  V30 16801 H 1489.56 2.98063 1.23928 0
M  V30 16802 H 1488.61 3.6452 -1.08764 0
M  V30 16803 H 1489.92 4.83787 -1.21454 0
M  V30 16804 H 1489.07 6.01013 0.828786 0
M  V30 16805 H 1487.81 4.76364 1.04542 0
M  V30 16806 H 1486.82 5.37028 -1.17817 0
M  V30 16807 H 1488.04 6.64885 -1.3822 0
M  V30 16808 H 1485.99 6.50376 0.857125 0
M  V30 16809 H 1485.91 7.5415 -0.528512 0
M  V30 16810 H 1487.17 7.76879 0.638738 0
M  V30 16811 N 1491.4 0.642663 1.43901 0
M  V30 16812 C 1492.31 -0.0562462 2.34533 0
M  V30 16813 C 1493.33 -0.823457 1.53281 0
M  V30 16814 O 1494.5 -0.773103 1.85971 0
M  V30 16815 C 1491.57 -1.01787 3.31422 0
M  V30 16816 C 1490.63 -0.248759 4.28579 0
M  V30 16817 C 1489.86 -1.16458 5.20839 0
M  V30 16818 O 1490.09 -2.40361 5.17284 0
M  V30 16819 O 1489.02 -0.642671 5.98459 0
M  V30 16820 H 1492.85 0.689476 2.9577 0
M  V30 16821 H 1490.43 0.402847 1.43866 0
M  V30 16822 H 1492.31 -1.5708 3.91029 0
M  V30 16823 H 1490.99 -1.744 2.72702 0
M  V30 16824 H 1489.9 0.347495 3.72483 0
M  V30 16825 H 1491.23 0.437589 4.90251 0
M  V30 16826 N 1492.88 -1.52852 0.383918 0
M  V30 16827 C 1493.81 -2.29213 -0.44539 0
M  V30 16828 C 1494.79 -1.3238 -1.06815 0
M  V30 16829 O 1495.98 -1.61269 -1.08194 0
M  V30 16830 C 1493.11 -3.09497 -1.57573 0
M  V30 16831 C 1492.06 -4.14168 -1.07928 0
M  V30 16832 C 1491.39 -4.82644 -2.30128 0
M  V30 16833 C 1492.69 -5.22082 -0.151035 0
M  V30 16834 H 1494.38 -2.98786 0.19172 0
M  V30 16835 H 1491.93 -1.43695 0.0936471 0
M  V30 16836 H 1493.88 -3.61672 -2.16267 0
M  V30 16837 H 1492.6 -2.37647 -2.24034 0
M  V30 16838 H 1491.26 -3.62966 -0.514909 0
M  V30 16839 H 1490.91 -4.07348 -2.95087 0
M  V30 16840 H 1490.61 -5.53388 -1.97574 0
M  V30 16841 H 1492.14 -5.37621 -2.89475 0
M  V30 16842 H 1493.55 -5.69649 -0.646003 0
M  V30 16843 H 1491.95 -6.00041 0.0844833 0
M  V30 16844 H 1493.02 -4.78228 0.801618 0
M  V30 16845 N 1494.36 -0.113586 -1.5719 0
M  V30 16846 C 1495.27 0.852428 -2.18565 0
M  V30 16847 C 1496.29 1.29668 -1.16026 0
M  V30 16848 O 1497.46 1.36079 -1.48474 0
M  V30 16849 C 1494.53 2.08675 -2.76867 0
M  V30 16850 C 1493.59 1.69493 -3.94424 0
M  V30 16851 C 1492.82 2.87042 -4.49936 0
M  V30 16852 O 1493.04 4.02311 -4.04354 0
M  V30 16853 O 1491.98 2.64439 -5.40699 0
M  V30 16854 H 1495.8 0.360144 -3.01557 0
M  V30 16855 H 1493.39 0.111744 -1.48982 0
M  V30 16856 H 1495.27 2.80976 -3.14054 0
M  V30 16857 H 1493.95 2.5692 -1.9691 0
M  V30 16858 H 1492.85 0.943161 -3.62016 0
M  V30 16859 H 1494.19 1.25995 -4.758 0
M  V30 16860 N 1495.84 1.56784 0.160173 0
M  V30 16861 C 1497.07 1.86767 0.89026 0
M  V30 16862 C 1497.48 0.700276 1.75333 0
M  V30 16863 O 1496.84 -0.330342 1.79485 0
M  V30 16864 C 1496.89 3.15883 1.75784 0
M  V30 16865 O 1496.61 4.28124 0.929575 0
M  V30 16866 C 1498.11 3.5929 2.59664 0
M  V30 16867 H 1495.33 0.61938 0.258088 0
M  V30 16868 H 1497.87 2.03897 0.156919 0
M  V30 16869 H 1496.03 3.00546 2.4444 0
M  V30 16870 H 1496.44 5.01872 1.52397 0
M  V30 16871 H 1497.92 4.52506 3.16136 0
M  V30 16872 H 1498.39 2.83943 3.35072 0
M  V30 16873 H 1499 3.77277 1.96323 0
M  V30 16874 N 1497.32 -0.429099 1.51646 0
M  V30 16875 C 1498.56 -1.17482 1.63954 0
M  V30 16876 C 1498.88 -1.92152 0.36565 0
M  V30 16877 O 1500.08 -2.68991 0.368221 0
M  V30 16878 C 1498.54 -2.13703 2.89585 0
M  V30 16879 C 1498.15 -1.44642 4.24008 0
M  V30 16880 C 1499.89 -2.88657 3.11252 0
M  V30 16881 C 1497.8 -2.39395 5.40781 0
M  V30 16882 H 1496.73 -0.442234 0.610692 0
M  V30 16883 H 1499.38 -0.441088 1.7812 0
M  V30 16884 H 1497.76 -2.90545 2.69071 0
M  V30 16885 H 1498.94 -0.733012 4.54932 0
M  V30 16886 H 1497.25 -0.818084 4.08285 0
M  V30 16887 H 1499.85 -3.59653 3.95669 0
M  V30 16888 H 1500.19 -3.50473 2.24664 0
M  V30 16889 H 1500.72 -2.18919 3.32144 0
M  V30 16890 H 1497.46 -1.82255 6.29653 0
M  V30 16891 H 1496.98 -3.08766 5.14222 0
M  V30 16892 H 1498.66 -3.0035 5.73061 0
M  V30 16893 N 1498.79 -1.41931 -0.685074 0
M  V30 16894 C 1499.72 -1.47385 -1.81107 0
M  V30 16895 C 1500.7 -0.331433 -1.6684 0
M  V30 16896 O 1501.89 -0.544331 -1.86415 0
M  V30 16897 C 1499.02 -1.36555 -3.19327 0
M  V30 16898 C 1497.97 -2.48718 -3.48315 0
M  V30 16899 C 1497.3 -2.2295 -4.86002 0
M  V30 16900 C 1498.6 -3.91047 -3.46237 0
M  V30 16901 H 1500.29 -2.41624 -1.768 0
M  V30 16902 H 1497.84 -1.16297 -0.849178 0
M  V30 16903 H 1499.79 -1.38981 -3.97822 0
M  V30 16904 H 1498.52 -0.388063 -3.24286 0
M  V30 16905 H 1497.18 -2.45592 -2.72176 0
M  V30 16906 H 1496.82 -1.23518 -4.87598 0
M  V30 16907 H 1496.52 -2.98116 -5.0636 0
M  V30 16908 H 1498.05 -2.27108 -5.66793 0
M  V30 16909 H 1499.46 -3.95831 -4.14718 0
M  V30 16910 H 1497.86 -4.65981 -3.7813 0
M  V30 16911 H 1498.93 -4.1845 -2.45006 0
M  V30 16912 N 1500.27 0.920374 -1.27933 0
M  V30 16913 C 1501.22 2.04331 -1.11138 0
M  V30 16914 C 1502.21 1.69369 -0.0324493 0
M  V30 16915 O 1503.42 1.78987 -0.190723 0
M  V30 16916 H 1499.79 0.669381 -0.342685 0
M  V30 16917 H 1501.77 2.15641 -2.06256 0
M  V30 16918 C 1500.51 3.38768 -0.783049 0
M  V30 16919 H 1499.84 3.6616 -1.60521 0
M  V30 16920 H 1501.28 4.1809 -0.705448 0
M  V30 16921 C 1499.74 3.32972 0.512927 0
M  V30 16922 O 1500.27 3.70792 1.54519 0
M  V30 16923 N 1498.47 2.86068 0.511232 0
M  V30 16924 H 1498.02 2.55487 -0.329229 0
M  V30 16925 H 1497.98 2.82573 1.3784 0
M  V30 16926 N 1501.75 1.10074 1.1279 0
M  V30 16927 C 1502.7 0.740977 2.20482 0
M  V30 16928 C 1503.69 -0.261163 1.67375 0
M  V30 16929 O 1504.9 -0.121923 1.79587 0
M  V30 16930 H 1501.27 0.221666 0.718588 0
M  V30 16931 H 1503.24 1.65823 2.48083 0
M  V30 16932 C 1501.99 0.184934 3.47208 0
M  V30 16933 H 1501.32 0.947278 3.88416 0
M  V30 16934 H 1502.76 -0.0287769 4.2399 0
M  V30 16935 C 1501.21 -1.08145 3.19071 0
M  V30 16936 O 1501.74 -2.1636 3.38454 0
M  V30 16937 N 1499.95 -0.998609 2.72903 0
M  V30 16938 H 1499.5 -0.117906 2.5733 0
M  V30 16939 H 1499.46 -1.84664 2.54453 0
M  V30 16940 N 1503.23 -1.30138 0.888926 0
M  V30 16941 C 1504.45 -2.00679 0.523697 0
M  V30 16942 C 1504.88 -1.66167 -0.881479 0
M  V30 16943 O 1504.24 -0.880418 -1.58488 0
M  V30 16944 C 1504.28 -3.53535 0.710284 0
M  V30 16945 O 1503.39 -4.11689 -0.242066 0
M  V30 16946 H 1502.73 -0.631273 0.205888 0
M  V30 16947 H 1505.26 -1.65891 1.19756 0
M  V30 16948 H 1505.27 -4.03402 0.610794 0
M  V30 16949 H 1503.94 -3.77992 1.73478 0
M  V30 16950 H 1502.52 -3.72777 -0.0959393 0
M  V30 16951 N 1504.71 -0.650285 -1.43559 0
M  V30 16952 C 1506.12 -0.24263 -1.85117 0
M  V30 16953 C 1506.47 1.21017 -1.54432 0
M  V30 16954 O 1505.59 1.92332 -0.991839 0
M  V30 16955 C 1506.19 -0.433575 -3.36014 0
M  V30 16956 C 1504.75 -0.0802635 -3.76314 0
M  V30 16957 C 1503.89 -0.737844 -2.67303 0
M  V30 16958 H 1506.84 -0.854158 -1.33753 0
M  V30 16959 H 1506.87 0.321801 -3.79137 0
M  V30 16960 H 1506.38 -1.49102 -3.58316 0
M  V30 16961 H 1504.48 0.974703 -3.59625 0
M  V30 16962 H 1504.59 -0.503683 -4.76445 0
M  V30 16963 H 1502.96 -0.171349 -2.54123 0
M  V30 16964 H 1503.74 -1.79826 -2.92434 0
M  V30 16965 N 1506.18 1.52647 -0.392018 0
M  V30 16966 C 1507.43 2.01613 0.1893 0
M  V30 16967 C 1507.76 1.27837 1.46588 0
M  V30 16968 O 1507.01 0.368018 1.92209 0
M  V30 16969 C 1507.31 3.53872 0.500914 0
M  V30 16970 C 1506.98 4.45675 -0.684434 0
M  V30 16971 C 1505.64 4.70489 -1.00961 0
M  V30 16972 C 1507.99 4.99825 -1.4773 0
M  V30 16973 C 1505.32 5.46703 -2.12915 0
M  V30 16974 C 1507.67 5.77263 -2.58747 0
M  V30 16975 C 1506.34 6.00355 -2.9177 0
M  V30 16976 H 1505.61 0.737755 0.0692697 0
M  V30 16977 H 1508.25 1.84022 -0.529924 0
M  V30 16978 H 1506.56 3.69551 1.3015 0
M  V30 16979 H 1508.26 3.89256 0.963382 0
M  V30 16980 H 1504.85 4.26527 -0.420985 0
M  V30 16981 H 1509.03 4.80577 -1.23932 0
M  V30 16982 H 1504.29 5.62807 -2.38868 0
M  V30 16983 H 1508.46 6.18223 -3.20583 0
M  V30 16984 H 1506.09 6.59194 -3.7864 0
M  V30 16985 N 1507.66 0.121921 1.57128 0
M  V30 16986 C 1508.89 -0.546325 2.00075 0
M  V30 16987 C 1509.31 -1.59245 1.00113 0
M  V30 16988 O 1508.67 -1.8128 -0.0267687 0
M  V30 16989 C 1508.72 -1.14651 3.41888 0
M  V30 16990 O 1507.82 -2.26199 3.4483 0
M  V30 16991 H 1507.16 -0.136184 0.649885 0
M  V30 16992 H 1509.69 0.211257 2.03506 0
M  V30 16993 H 1509.7 -1.48133 3.80159 0
M  V30 16994 H 1508.38 -0.380273 4.14158 0
M  V30 16995 H 1506.96 -1.94134 3.18381 0
M  V30 16996 N 1509.14 -1.56867 -0.151857 0
M  V30 16997 C 1510.05 -2.01157 -1.20718 0
M  V30 16998 C 1511.07 -0.926166 -1.47303 0
M  V30 16999 O 1512.24 -1.23528 -1.59069 0
M  V30 17000 C 1509.31 -2.37915 -2.52185 0
M  V30 17001 C 1508.37 -3.60381 -2.3329 0
M  V30 17002 C 1507.6 -3.95376 -3.58488 0
M  V30 17003 O 1507.82 -3.31093 -4.64471 0
M  V30 17004 O 1506.76 -4.88645 -3.5144 0
M  V30 17005 H 1510.58 -2.91234 -0.861175 0
M  V30 17006 H 1508.17 -1.44993 -0.360213 0
M  V30 17007 H 1510.05 -2.6244 -3.29702 0
M  V30 17008 H 1508.73 -1.50995 -2.86325 0
M  V30 17009 H 1507.63 -3.4105 -1.5374 0
M  V30 17010 H 1508.97 -4.47903 -2.04067 0
M  V30 17011 N 1510.62 0.421051 -1.51871 0
M  V30 17012 C 1511.53 1.5371 -1.7723 0
M  V30 17013 C 1512.54 1.61109 -0.657256 0
M  V30 17014 O 1513.72 1.78047 -0.941343 0
M  V30 17015 C 1510.79 2.89555 -1.9068 0
M  V30 17016 C 1509.85 2.9214 -3.14567 0
M  V30 17017 C 1509.08 4.21505 -3.27367 0
M  V30 17018 O 1509.3 5.14764 -2.45712 0
M  V30 17019 O 1508.24 4.30706 -4.20448 0
M  V30 17020 H 1512.06 1.35221 -2.71935 0
M  V30 17021 H 1509.65 0.605712 -1.3657 0
M  V30 17022 H 1511.53 3.70147 -2.01418 0
M  V30 17023 H 1510.2 3.08137 -0.991627 0
M  V30 17024 H 1509.11 2.10444 -3.09296 0
M  V30 17025 H 1510.44 2.78505 -4.05827 0
M  V30 17026 N 1512.1 1.42293 0.677538 0
M  V30 17027 C 1513.03 1.41503 1.80304 0
M  V30 17028 C 1514.04 0.314499 1.59733 0
M  V30 17029 O 1515.23 0.57741 1.68903 0
M  V30 17030 C 1512.33 1.18879 3.17366 0
M  V30 17031 C 1511.5 2.41314 3.6481 0
M  V30 17032 C 1510.56 2.14277 4.80595 0
M  V30 17033 O 1509.59 2.87457 4.91281 0
M  V30 17034 N 1510.79 1.14419 5.69112 0
M  V30 17035 H 1513.56 2.38515 1.81468 0
M  V30 17036 H 1511.12 1.37137 0.860529 0
M  V30 17037 H 1513.11 0.987135 3.92476 0
M  V30 17038 H 1511.68 0.304002 3.11118 0
M  V30 17039 H 1510.9 2.77066 2.80407 0
M  V30 17040 H 1512.19 3.2285 3.9325 0
M  V30 17041 H 1511.58 0.53888 5.63127 0
M  V30 17042 H 1510.14 1.00241 6.44046 0
M  V30 17043 N 1513.57 -0.913576 1.28419 0
M  V30 17044 C 1514.8 -1.69649 1.18435 0
M  V30 17045 C 1515.22 -1.87043 -0.256987 0
M  V30 17046 O 1514.57 -1.39755 -1.17366 0
M  V30 17047 C 1514.63 -3.08855 1.87859 0
M  V30 17048 O 1514.35 -2.92265 3.26363 0
M  V30 17049 C 1515.85 -4.03229 1.84178 0
M  V30 17050 H 1513.07 -0.530307 0.411115 0
M  V30 17051 H 1515.61 -1.14342 1.69547 0
M  V30 17052 H 1513.77 -3.60979 1.40617 0
M  V30 17053 H 1514.18 -3.80372 3.61134 0
M  V30 17054 H 1515.65 -4.98369 2.37344 0
M  V30 17055 H 1516.13 -4.31587 0.814195 0
M  V30 17056 H 1516.74 -3.57033 2.311 0
M  V30 17057 N 1515.05 -1.1067 -1.12204 0
M  V30 17058 C 1515.99 -0.70161 -2.17147 0
M  V30 17059 C 1516.96 0.298272 -1.59841 0
M  V30 17060 O 1518.15 0.196594 -1.87472 0
M  V30 17061 C 1515.27 -0.0356178 -3.38681 0
M  V30 17062 C 1514.32 -0.999363 -4.14626 0
M  V30 17063 S 1515.15 -2.51792 -4.72611 0
M  V30 17064 C 1516.31 -1.8647 -5.97478 0
M  V30 17065 H 1516.54 -1.59058 -2.51173 0
M  V30 17066 H 1514.08 -0.923946 -1.23704 0
M  V30 17067 H 1516.03 0.342303 -4.0907 0
M  V30 17068 H 1514.69 0.830184 -3.0293 0
M  V30 17069 H 1513.89 -0.48067 -5.01703 0
M  V30 17070 H 1513.49 -1.31931 -3.49957 0
M  V30 17071 H 1515.78 -1.19637 -6.66853 0
M  V30 17072 H 1516.72 -2.71513 -6.53977 0
M  V30 17073 H 1517.13 -1.32821 -5.48652 0
M  V30 17074 N 1516.53 1.29665 -0.895815 0
M  V30 17075 C 1517.48 2.27831 -0.369011 0
M  V30 17076 C 1518.45 1.56843 0.546756 0
M  V30 17077 O 1519.63 1.84848 0.472837 0
M  V30 17078 C 1516.77 3.42764 0.400884 0
M  V30 17079 C 1515.89 4.28544 -0.545335 0
M  V30 17080 C 1515.02 5.30652 0.241228 0
M  V30 17081 C 1514.06 6.08087 -0.699765 0
M  V30 17082 N 1513.2 7.02081 0.0521477 0
M  V30 17083 H 1518.04 2.72274 -1.21124 0
M  V30 17084 H 1515.57 1.33918 -0.608631 0
M  V30 17085 H 1517.53 4.08171 0.863277 0
M  V30 17086 H 1516.16 2.99361 1.2076 0
M  V30 17087 H 1515.21 3.63346 -1.12624 0
M  V30 17088 H 1516.53 4.82472 -1.26579 0
M  V30 17089 H 1515.68 6.01858 0.764994 0
M  V30 17090 H 1514.42 4.77446 0.994838 0
M  V30 17091 H 1513.42 5.35748 -1.23507 0
M  V30 17092 H 1514.65 6.63382 -1.45264 0
M  V30 17093 H 1512.59 6.51249 0.788096 0
M  V30 17094 H 1512.51 7.53547 -0.60847 0
M  V30 17095 H 1513.78 7.77512 0.556304 0
M  V30 17096 N 1518.01 0.657889 1.43212 0
M  V30 17097 C 1518.94 -0.0172114 2.33494 0
M  V30 17098 C 1519.92 -0.807087 1.49733 0
M  V30 17099 O 1521.1 -0.767631 1.78385 0
M  V30 17100 C 1518.23 -0.981029 3.33156 0
M  V30 17101 C 1517.19 -0.30094 4.26941 0
M  V30 17102 C 1516.51 -1.37653 5.16678 0
M  V30 17103 C 1517.81 0.809572 5.15988 0
M  V30 17104 H 1519.51 0.736749 2.90194 0
M  V30 17105 H 1517.05 0.355744 1.39537 0
M  V30 17106 H 1519.01 -1.46226 3.95216 0
M  V30 17107 H 1517.73 -1.76621 2.74723 0
M  V30 17108 H 1516.39 0.159893 3.66251 0
M  V30 17109 H 1516.04 -2.15326 4.54581 0
M  V30 17110 H 1515.74 -0.926704 5.80246 0
M  V30 17111 H 1517.26 -1.85903 5.81612 0
M  V30 17112 H 1518.68 0.410297 5.7183 0
M  V30 17113 H 1517.07 1.18415 5.88301 0
M  V30 17114 H 1518.14 1.66558 4.55397 0
M  V30 17115 N 1519.49 -1.52437 0.400108 0
M  V30 17116 C 1520.74 -2.00896 -0.179909 0
M  V30 17117 C 1521.05 -1.29046 -1.46991 0
M  V30 17118 O 1522.25 -1.68274 -2.13063 0
M  V30 17119 C 1520.71 -3.57981 -0.371169 0
M  V30 17120 C 1520.32 -4.38739 0.906213 0
M  V30 17121 C 1522.06 -4.14698 -0.906965 0
M  V30 17122 C 1519.97 -5.87447 0.682637 0
M  V30 17123 H 1518.9 -0.750649 -0.071008 0
M  V30 17124 H 1521.55 -1.75854 0.524169 0
M  V30 17125 H 1519.93 -3.79315 -1.13736 0
M  V30 17126 H 1521.11 -4.29167 1.67785 0
M  V30 17127 H 1519.42 -3.93296 1.36776 0
M  V30 17128 H 1522.02 -5.2347 -1.09012 0
M  V30 17129 H 1522.36 -3.71477 -1.87911 0
M  V30 17130 H 1522.89 -3.97297 -0.200068 0
M  V30 17131 H 1519.63 -6.35011 1.62608 0
M  V30 17132 H 1519.15 -5.99779 -0.0498716 0
M  V30 17133 H 1520.83 -6.46202 0.321331 0
M  V30 17134 N 1520.96 -0.130252 -1.57061 0
M  V30 17135 C 1521.91 0.832998 -2.17173 0
M  V30 17136 C 1522.91 1.26735 -1.12403 0
M  V30 17137 O 1524.11 1.23778 -1.30686 0
M  V30 17138 H 1520.49 0.286777 -0.695171 0
M  V30 17139 H 1522.46 0.301639 -2.96872 0
M  V30 17140 C 1521.21 2.06879 -2.79457 0
M  V30 17141 H 1520.53 1.74352 -3.5978 0
M  V30 17142 H 1521.97 2.72258 -3.25041 0
M  V30 17143 C 1520.43 2.86591 -1.77108 0
M  V30 17144 O 1520.96 3.82363 -1.2313 0
M  V30 17145 N 1519.17 2.508 -1.46792 0
M  V30 17146 H 1518.71 1.72984 -1.90878 0
M  V30 17147 H 1518.67 3.04428 -0.785566 0
M  V30 17148 N 1522.44 1.56945 0.143535 0
M  V30 17149 C 1523.67 1.88067 0.874385 0
M  V30 17150 C 1524.09 0.719645 1.73789 0
M  V30 17151 O 1523.45 -0.330654 1.78259 0
M  V30 17152 C 1523.5 3.17795 1.70408 0
M  V30 17153 O 1522.6 3.01973 2.80867 0
M  V30 17154 H 1521.94 0.617808 0.24333 0
M  V30 17155 H 1524.47 2.04165 0.133309 0
M  V30 17156 H 1524.48 3.49903 2.09838 0
M  V30 17157 H 1523.16 4.019 1.07001 0
M  V30 17158 H 1521.74 2.8128 2.44818 0
M  V30 17159 N 1523.92 -0.412991 1.52093 0
M  V30 17160 C 1525.15 -1.1804 1.69558 0
M  V30 17161 C 1525.56 -1.84858 0.403007 0
M  V30 17162 O 1524.9 -1.72541 -0.630506 0
M  V30 17163 C 1524.96 -2.28876 2.7723 0
M  V30 17164 C 1524.63 -1.82226 4.19098 0
M  V30 17165 C 1525.63 -1.31216 5.03069 0
M  V30 17166 C 1523.31 -1.89177 4.65314 0
M  V30 17167 C 1525.3 -0.877743 6.31328 0
M  V30 17168 C 1522.99 -1.45347 5.93563 0
M  V30 17169 C 1523.99 -0.947302 6.76399 0
M  V30 17170 O 1523.68 -0.515315 8.02247 0
M  V30 17171 H 1523.41 -0.360882 0.571612 0
M  V30 17172 H 1525.96 -0.492521 1.99408 0
M  V30 17173 H 1524.19 -3.01015 2.42748 0
M  V30 17174 H 1525.88 -2.9065 2.83333 0
M  V30 17175 H 1526.65 -1.25221 4.68556 0
M  V30 17176 H 1522.53 -2.27518 4.00945 0
M  V30 17177 H 1526.07 -0.481977 6.95933 0
M  V30 17178 H 1521.97 -1.51019 6.27585 0
M  V30 17179 H 1522.74 -0.638973 8.16002 0
M  V30 17180 N 1525.4 -1.4265 -0.669982 0
M  V30 17181 C 1526.31 -1.48916 -1.81276 0
M  V30 17182 C 1527.33 -0.377523 -1.69855 0
M  V30 17183 O 1528.5 -0.629151 -1.91321 0
M  V30 17184 C 1525.57 -1.39376 -3.17451 0
M  V30 17185 C 1524.63 -2.61072 -3.40793 0
M  V30 17186 C 1523.86 -2.51976 -4.70472 0
M  V30 17187 O 1524.08 -1.55827 -5.48702 0
M  V30 17188 O 1523.02 -3.42193 -4.95164 0
M  V30 17189 H 1526.84 -2.45382 -1.78945 0
M  V30 17190 H 1524.43 -1.24467 -0.826342 0
M  V30 17191 H 1526.31 -1.36435 -3.98702 0
M  V30 17192 H 1524.99 -0.460376 -3.20409 0
M  V30 17193 H 1523.89 -2.69587 -2.59372 0
M  V30 17194 H 1525.23 -3.53325 -3.42669 0
M  V30 17195 N 1526.88 0.906753 -1.28902 0
M  V30 17196 C 1528.12 1.67094 -1.17724 0
M  V30 17197 C 1528.48 1.90115 0.268373 0
M  V30 17198 O 1529.68 2.64052 0.502998 0
M  V30 17199 C 1527.95 2.98802 -1.96092 0
M  V30 17200 S 1529.51 3.89867 -2.01368 0
M  V30 17201 H 1526.33 0.573768 -0.419894 0
M  V30 17202 H 1528.93 1.07797 -1.63095 0
M  V30 17203 H 1527.64 2.79755 -3.00276 0
M  V30 17204 H 1527.17 3.63143 -1.51298 0
M  V30 17205 H 1529.18 4.83273 -1.12525 0
M  V30 17206 N 1528.36 1.11264 1.11616 0
M  V30 17207 C 1529.31 0.738429 2.15711 0
M  V30 17208 C 1530.29 -0.25663 1.5884 0
M  V30 17209 O 1531.48 -0.0640255 1.76884 0
M  V30 17210 C 1528.61 0.181245 3.42821 0
M  V30 17211 C 1527.7 1.20386 4.06655 0
M  V30 17212 N 1528.09 2.39745 4.45372 0
M  V30 17213 C 1526.39 1.04637 4.33552 0
M  V30 17214 C 1527.09 3.04949 4.95359 0
M  V30 17215 N 1526.06 2.32435 4.91401 0
M  V30 17216 H 1529.86 1.6469 2.43423 0
M  V30 17217 H 1527.38 0.991616 1.28611 0
M  V30 17218 H 1529.38 -0.104966 4.16768 0
M  V30 17219 H 1528.04 -0.721832 3.16575 0
M  V30 17220 H 1529.05 2.77213 4.37462 0
M  V30 17221 H 1525.72 0.19957 4.17023 0
M  V30 17222 H 1527.11 4.06528 5.34962 0
M  V30 17223 N 1529.83 -1.29188 0.902679 0
M  V30 17224 C 1531.08 -1.96092 0.540328 0
M  V30 17225 C 1531.43 -1.6984 -0.903997 0
M  V30 17226 O 1530.73 -1.00257 -1.63276 0
M  V30 17227 C 1530.92 -3.48951 0.772542 0
M  V30 17228 C 1530.75 -3.90062 2.23789 0
M  V30 17229 C 1529.52 -4.14782 2.8859 0
M  V30 17230 C 1531.72 -4.01557 3.21335 0
M  V30 17231 N 1529.7 -4.42484 4.25536 0
M  V30 17232 C 1531.07 -4.33346 4.43409 0
M  V30 17233 C 1533.13 -3.84043 3.16884 0
M  V30 17234 C 1531.83 -4.49444 5.61598 0
M  V30 17235 C 1533.86 -4.01353 4.34362 0
M  V30 17236 C 1533.22 -4.33503 5.55207 0
M  V30 17237 H 1529.32 -0.741839 0.247383 0
M  V30 17238 H 1531.9 -1.56066 1.16411 0
M  V30 17239 H 1530.07 -3.87991 0.178119 0
M  V30 17240 H 1531.8 -4.02956 0.375328 0
M  V30 17241 H 1528.56 -4.08655 2.3937 0
M  V30 17242 H 1528.98 -4.60438 4.96312 0
M  V30 17243 H 1533.62 -3.58247 2.24541 0
M  V30 17244 H 1531.34 -4.74075 6.5443 0
M  V30 17245 H 1534.93 -3.89249 4.32408 0
M  V30 17246 H 1533.81 -4.46617 6.44595 0
M  V30 17247 N 1531.31 -0.665475 -1.42861 0
M  V30 17248 C 1532.56 -0.183884 -2.01663 0
M  V30 17249 C 1532.89 1.2064 -1.52566 0
M  V30 17250 O 1532.14 1.82191 -0.714479 0
M  V30 17251 C 1532.44 -0.156963 -3.57055 0
M  V30 17252 C 1532.11 -1.49065 -4.25547 0
M  V30 17253 C 1530.77 -1.85584 -4.43973 0
M  V30 17254 C 1533.12 -2.36942 -4.64228 0
M  V30 17255 C 1530.45 -3.09622 -4.98348 0
M  V30 17256 C 1532.8 -3.60284 -5.19979 0
M  V30 17257 C 1531.46 -3.96984 -5.36619 0
M  V30 17258 H 1530.73 -0.0672879 -0.737939 0
M  V30 17259 H 1533.38 -0.858614 -1.71173 0
M  V30 17260 H 1531.69 0.601253 -3.87159 0
M  V30 17261 H 1533.38 0.232721 -4.00324 0
M  V30 17262 H 1529.97 -1.19653 -4.11559 0
M  V30 17263 H 1534.16 -2.10015 -4.49675 0
M  V30 17264 H 1529.41 -3.3809 -5.09417 0
M  V30 17265 H 1533.59 -4.28586 -5.48896 0
M  V30 17266 H 1531.21 -4.93175 -5.78518 0
M  V30 17267 N 1532.79 1.52222 -0.408187 0
M  V30 17268 C 1534.02 2.06221 0.16743 0
M  V30 17269 C 1534.43 1.27832 1.3894 0
M  V30 17270 O 1533.79 0.329933 1.79493 0
M  V30 17271 C 1533.84 3.57758 0.518804 0
M  V30 17272 O 1533.56 4.33181 -0.654639 0
M  V30 17273 C 1535.06 4.28171 1.14825 0
M  V30 17274 H 1532.28 0.670677 0.0208054 0
M  V30 17275 H 1534.83 1.96136 -0.578868 0
M  V30 17276 H 1532.98 3.67854 1.215 0
M  V30 17277 H 1533.4 5.23252 -0.361558 0
M  V30 17278 H 1534.87 5.3538 1.34433 0
M  V30 17279 H 1535.35 3.84586 2.12108 0
M  V30 17280 H 1535.95 4.22441 0.492291 0
M  V30 17281 N 1534.27 0.138579 1.5699 0
M  V30 17282 C 1535.49 -0.525074 2.00643 0
M  V30 17283 C 1535.92 -1.58174 1.01796 0
M  V30 17284 O 1535.28 -1.81298 -0.00754003 0
M  V30 17285 C 1535.32 -1.11019 3.43085 0
M  V30 17286 O 1534.43 -2.22529 3.4721 0
M  V30 17287 H 1533.77 -0.129283 0.651292 0
M  V30 17288 H 1536.3 0.23283 2.03271 0
M  V30 17289 H 1536.31 -1.44093 3.81708 0
M  V30 17290 H 1534.98 -0.336325 4.14538 0
M  V30 17291 H 1533.56 -1.90747 3.20422 0
M  V30 17292 N 1535.75 -1.57019 -0.13521 0
M  V30 17293 C 1536.98 -1.87887 -0.859187 0
M  V30 17294 C 1537.38 -0.726131 -1.74711 0
M  V30 17295 O 1536.73 0.312784 -1.81018 0
M  V30 17296 C 1536.79 -3.13594 -1.75782 0
M  V30 17297 C 1536.45 -4.44872 -1.04586 0
M  V30 17298 C 1537.45 -5.18403 -0.39422 0
M  V30 17299 C 1535.13 -4.91587 -1.03185 0
M  V30 17300 C 1537.13 -6.36862 0.261905 0
M  V30 17301 C 1534.82 -6.09967 -0.371923 0
M  V30 17302 C 1535.81 -6.82451 0.273817 0
M  V30 17303 O 1535.5 -7.98581 0.923256 0
M  V30 17304 H 1535.23 -0.626795 -0.253188 0
M  V30 17305 H 1537.79 -2.04994 -0.129109 0
M  V30 17306 H 1536.02 -2.92527 -2.52913 0
M  V30 17307 H 1537.71 -3.30613 -2.35478 0
M  V30 17308 H 1538.47 -4.83374 -0.396766 0
M  V30 17309 H 1534.35 -4.35085 -1.52389 0
M  V30 17310 H 1537.9 -6.93376 0.766515 0
M  V30 17311 H 1533.79 -6.44455 -0.367084 0
M  V30 17312 H 1534.56 -8.1432 0.826104 0
M  V30 17313 N 1537.22 0.404919 -1.52309 0
M  V30 17314 C 1538.13 1.51822 -1.7885 0
M  V30 17315 C 1539.15 1.60403 -0.674307 0
M  V30 17316 O 1540.33 1.77038 -0.960175 0
M  V30 17317 C 1537.39 2.87516 -1.9374 0
M  V30 17318 C 1536.45 2.88787 -3.17648 0
M  V30 17319 C 1535.69 4.18009 -3.31819 0
M  V30 17320 O 1535.91 5.12129 -2.51158 0
M  V30 17321 O 1534.84 4.26222 -4.24992 0
M  V30 17322 H 1538.67 1.32329 -2.73354 0
M  V30 17323 H 1536.25 0.591193 -1.37205 0
M  V30 17324 H 1538.14 3.6799 -2.05333 0
M  V30 17325 H 1536.81 3.07068 -1.02425 0
M  V30 17326 H 1535.72 2.07152 -3.11511 0
M  V30 17327 H 1537.05 2.74185 -4.08758 0
M  V30 17328 N 1538.7 1.43003 0.662408 0
M  V30 17329 C 1539.65 1.47701 1.79686 0
M  V30 17330 C 1540.64 0.351491 1.65713 0
M  V30 17331 O 1541.85 0.525071 1.72171 0
M  V30 17332 H 1538.23 0.46285 0.592684 0
M  V30 17333 H 1540.2 2.43245 1.72843 0
M  V30 17334 C 1538.95 1.40828 3.17904 0
M  V30 17335 H 1538.27 2.26736 3.29288 0
M  V30 17336 H 1539.71 1.48177 3.97265 0
M  V30 17337 C 1538.17 0.124659 3.36669 0
M  V30 17338 O 1538.7 -0.81769 3.9329 0
M  V30 17339 N 1536.9 0.0378063 2.90575 0
M  V30 17340 H 1536.45 0.805456 2.44684 0
M  V30 17341 H 1536.41 -0.820377 3.03508 0
M  V30 17342 N 1540.18 -0.899904 1.29381 0
M  V30 17343 C 1541.43 -1.65038 1.17341 0
M  V30 17344 C 1541.76 -1.92544 -0.275135 0
M  V30 17345 O 1541.01 -1.53402 -1.21517 0
M  V30 17346 C 1541.31 -3.0069 1.93185 0
M  V30 17347 C 1540.98 -2.92792 3.42905 0
M  V30 17348 C 1539.64 -2.90345 3.83736 0
M  V30 17349 C 1541.99 -2.82015 4.38312 0
M  V30 17350 C 1539.32 -2.7494 5.1829 0
M  V30 17351 C 1541.67 -2.68149 5.72956 0
M  V30 17352 C 1540.33 -2.64068 6.13045 0
M  V30 17353 H 1539.6 -0.603915 0.42938 0
M  V30 17354 H 1542.25 -1.04743 1.60316 0
M  V30 17355 H 1540.56 -3.6485 1.428 0
M  V30 17356 H 1542.25 -3.57688 1.81274 0
M  V30 17357 H 1538.84 -2.95498 3.10449 0
M  V30 17358 H 1543.03 -2.82982 4.07719 0
M  V30 17359 H 1538.28 -2.70186 5.48461 0
M  V30 17360 H 1542.46 -2.58781 6.46533 0
M  V30 17361 H 1540.08 -2.51889 7.17256 0
M  V30 17362 N 1541.66 -1.11854 -1.11024 0
M  V30 17363 C 1543.07 -0.853341 -1.34871 0
M  V30 17364 C 1543.27 0.519725 -1.94682 0
M  V30 17365 O 1542.33 1.26966 -2.18256 0
M  V30 17366 C 1543.64 -1.9649 -2.27623 0
M  V30 17367 C 1545.19 -1.99507 -2.41176 0
M  V30 17368 C 1545.67 -3.09879 -3.37253 0
M  V30 17369 N 1547.16 -3.09281 -3.44818 0
M  V30 17370 C 1547.89 -3.91322 -4.19111 0
M  V30 17371 N 1547.39 -4.83337 -4.96344 0
M  V30 17372 N 1549.18 -3.79483 -4.14667 0
M  V30 17373 H 1541.33 -2.00335 -0.70567 0
M  V30 17374 H 1543.6 -0.871431 -0.373245 0
M  V30 17375 H 1543.3 -2.95397 -1.90875 0
M  V30 17376 H 1543.18 -1.86481 -3.27879 0
M  V30 17377 H 1545.56 -1.01223 -2.77196 0
M  V30 17378 H 1545.64 -2.13592 -1.40756 0
M  V30 17379 H 1545.29 -4.08391 -3.01959 0
M  V30 17380 H 1545.22 -2.93033 -4.37537 0
M  V30 17381 H 1547.71 -2.42617 -2.89733 0
M  V30 17382 H 1548.02 -5.42462 -5.50413 0
M  V30 17383 H 1546.37 -4.87356 -4.95489 0
M  V30 17384 H 1549.56 -3.06938 -3.53421 0
M  V30 17385 H 1549.73 -4.43653 -4.72309 0
M  V30 17386 N 1543.14 1.28707 -0.909517 0
M  V30 17387 C 1544.39 1.94437 -0.536401 0
M  V30 17388 C 1544.7 1.72416 0.923685 0
M  V30 17389 O 1545.9 2.32333 1.40477 0
M  V30 17390 C 1544.36 3.48246 -0.908455 0
M  V30 17391 C 1543.97 3.79051 -2.38798 0
M  V30 17392 C 1545.71 4.20156 -0.605721 0
M  V30 17393 C 1543.62 5.2615 -2.70038 0
M  V30 17394 H 1542.55 0.727842 -0.196882 0
M  V30 17395 H 1545.2 1.46283 -1.10786 0
M  V30 17396 H 1543.58 3.95107 -0.265829 0
M  V30 17397 H 1544.76 3.43014 -3.07698 0
M  V30 17398 H 1543.07 3.20303 -2.66074 0
M  V30 17399 H 1545.67 5.28439 -0.815849 0
M  V30 17400 H 1546.01 4.13792 0.456266 0
M  V30 17401 H 1546.54 3.79059 -1.20662 0
M  V30 17402 H 1543.28 5.37587 -3.75073 0
M  V30 17403 H 1542.8 5.63399 -2.05771 0
M  V30 17404 H 1544.48 5.93846 -2.56819 0
M  V30 17405 N 1544.61 0.673042 1.42506 0
M  V30 17406 C 1545.54 0.00755467 2.33499 0
M  V30 17407 C 1546.53 -0.791161 1.50581 0
M  V30 17408 O 1547.71 -0.748668 1.79189 0
M  V30 17409 C 1544.84 -0.945638 3.34178 0
M  V30 17410 C 1543.79 -0.25564 4.27236 0
M  V30 17411 C 1543.12 -1.32165 5.18109 0
M  V30 17412 C 1544.42 0.864254 5.151 0
M  V30 17413 H 1546.11 0.767487 2.89396 0
M  V30 17414 H 1543.66 0.370524 1.39151 0
M  V30 17415 H 1545.61 -1.42026 3.96745 0
M  V30 17416 H 1544.34 -1.73697 2.76581 0
M  V30 17417 H 1543 0.19873 3.66061 0
M  V30 17418 H 1542.64 -2.10492 4.56839 0
M  V30 17419 H 1542.34 -0.865109 5.81197 0
M  V30 17420 H 1543.87 -1.79724 5.83551 0
M  V30 17421 H 1545.28 0.470924 5.71363 0
M  V30 17422 H 1543.68 1.24648 5.87012 0
M  V30 17423 H 1544.75 1.71378 4.53605 0
M  V30 17424 N 1546.09 -1.52004 0.416254 0
M  V30 17425 C 1547.34 -2.02848 -0.149787 0
M  V30 17426 C 1547.69 -1.29603 -1.422 0
M  V30 17427 O 1546.99 -0.395826 -1.87467 0
M  V30 17428 C 1547.18 -3.54624 -0.444553 0
M  V30 17429 C 1547.01 -4.42571 0.797537 0
M  V30 17430 C 1545.78 -4.87623 1.32485 0
M  V30 17431 C 1547.98 -4.86166 1.6777 0
M  V30 17432 N 1545.96 -5.59718 2.52168 0
M  V30 17433 C 1547.33 -5.57115 2.72072 0
M  V30 17434 C 1549.39 -4.68174 1.69462 0
M  V30 17435 C 1548.09 -6.1198 3.77985 0
M  V30 17436 C 1550.11 -5.23942 2.74298 0
M  V30 17437 C 1549.48 -5.94818 3.7732 0
M  V30 17438 H 1545.58 -0.781832 -0.0161927 0
M  V30 17439 H 1548.16 -1.86102 0.5722 0
M  V30 17440 H 1546.33 -3.71429 -1.13558 0
M  V30 17441 H 1548.06 -3.92148 -1.0001 0
M  V30 17442 H 1544.82 -4.65318 0.881837 0
M  V30 17443 H 1545.24 -6.00404 3.128 0
M  V30 17444 H 1549.88 -4.12858 0.911497 0
M  V30 17445 H 1547.6 -6.66364 4.57149 0
M  V30 17446 H 1551.19 -5.11885 2.76523 0
M  V30 17447 H 1550.07 -6.37198 4.57109 0
M  V30 17448 N 1547.57 -0.146903 -1.56914 0
M  V30 17449 C 1548.5 0.830846 -2.12538 0
M  V30 17450 C 1549.48 1.24243 -1.04892 0
M  V30 17451 O 1550.67 1.33855 -1.32721 0
M  V30 17452 C 1547.79 2.11561 -2.64499 0
M  V30 17453 C 1546.84 1.84995 -3.8429 0
M  V30 17454 S 1547.67 1.04104 -5.25283 0
M  V30 17455 C 1548.83 2.337 -5.80633 0
M  V30 17456 H 1549.06 0.357829 -2.95139 0
M  V30 17457 H 1546.59 0.0673772 -1.54253 0
M  V30 17458 H 1548.55 2.85366 -2.95087 0
M  V30 17459 H 1547.21 2.55977 -1.82028 0
M  V30 17460 H 1546.41 2.8026 -4.18892 0
M  V30 17461 H 1546.01 1.19298 -3.54463 0
M  V30 17462 H 1548.3 3.29351 -5.92059 0
M  V30 17463 H 1549.24 2.03603 -6.78197 0
M  V30 17464 H 1549.65 2.44344 -5.08878 0
M  V30 17465 N 1549.05 1.57088 0.126881 0
M  V30 17466 C 1550 1.96188 1.16164 0
M  V30 17467 C 1550.98 0.835786 1.3749 0
M  V30 17468 O 1552.17 1.09942 1.38714 0
M  V30 17469 C 1549.3 2.36308 2.49025 0
M  V30 17470 C 1548.39 3.55533 2.31208 0
M  V30 17471 N 1548.78 4.71462 1.83186 0
M  V30 17472 C 1547.08 3.61011 2.61891 0
M  V30 17473 C 1547.78 5.5351 1.7889 0
M  V30 17474 N 1546.76 4.95778 2.22946 0
M  V30 17475 H 1550.56 2.83284 0.782778 0
M  V30 17476 H 1548.07 1.58913 0.334719 0
M  V30 17477 H 1550.07 2.62533 3.23855 0
M  V30 17478 H 1548.73 1.50573 2.87677 0
M  V30 17479 H 1549.74 4.94831 1.5285 0
M  V30 17480 H 1546.42 2.85865 3.04282 0
M  V30 17481 H 1547.81 6.56488 1.43083 0
M  V30 17482 N 1550.53 -0.396836 1.52522 0
M  V30 17483 C 1551.49 -1.46695 1.76106 0
M  V30 17484 C 1552.49 -1.47902 0.631005 0
M  V30 17485 O 1553.68 -1.4921 0.898995 0
M  V30 17486 C 1550.81 -2.86033 1.85467 0
M  V30 17487 H 1552 -1.27071 2.71649 0
M  V30 17488 H 1549.56 -0.628096 1.43125 0
M  V30 17489 H 1550.29 -3.11012 0.918816 0
M  V30 17490 H 1550.08 -2.86559 2.67631 0
M  V30 17491 H 1551.57 -3.63587 2.05412 0
M  V30 17492 N 1552.01 -1.43353 -0.654814 0
M  V30 17493 C 1553.23 -1.48536 -1.44748 0
M  V30 17494 C 1553.66 -0.103991 -1.87812 0
M  V30 17495 O 1553.01 0.901924 -1.57274 0
M  V30 17496 C 1553.06 -2.43498 -2.65972 0
M  V30 17497 O 1552.17 -1.92014 -3.64972 0
M  V30 17498 H 1551.51 -0.502476 -0.434067 0
M  V30 17499 H 1554.04 -1.88251 -0.801427 0
M  V30 17500 H 1554.05 -2.60748 -3.13806 0
M  V30 17501 H 1552.72 -3.43847 -2.3397 0
M  V30 17502 H 1551.3 -1.84417 -3.24106 0
M  V30 17503 N 1553.48 0.89303 -1.29857 0
M  V30 17504 C 1554.71 1.6827 -1.21243 0
M  V30 17505 C 1555.13 1.86778 0.222621 0
M  V30 17506 O 1554.49 1.39291 1.1605 0
M  V30 17507 C 1554.54 3.041 -1.93792 0
M  V30 17508 O 1553.64 3.92696 -1.25951 0
M  V30 17509 H 1552.98 0.514479 -0.419771 0
M  V30 17510 H 1555.51 1.11513 -1.7154 0
M  V30 17511 H 1555.52 3.54198 -2.02504 0
M  V30 17512 H 1554.2 2.89948 -2.98166 0
M  V30 17513 H 1552.78 3.51132 -1.25541 0
M  V30 17514 N 1554.96 1.12442 1.10429 0
M  V30 17515 C 1555.91 0.787578 2.18861 0
M  V30 17516 C 1556.9 -0.225602 1.67891 0
M  V30 17517 O 1558.11 -0.0838029 1.79805 0
M  V30 17518 H 1554.48 0.236858 0.713724 0
M  V30 17519 H 1556.46 1.71048 2.4451 0
M  V30 17520 C 1555.2 0.25854 3.46737 0
M  V30 17521 H 1554.53 1.02945 3.86319 0
M  V30 17522 H 1555.97 0.0611642 4.23956 0
M  V30 17523 C 1554.43 -1.01353 3.21293 0
M  V30 17524 O 1554.96 -2.09132 3.42967 0
M  V30 17525 N 1553.16 -0.940498 2.7496 0
M  V30 17526 H 1552.71 -0.0632962 2.57522 0
M  V30 17527 H 1552.67 -1.79226 2.58313 0
M  V30 17528 N 1556.44 -1.28223 0.91633 0
M  V30 17529 C 1557.37 -2.29623 0.423735 0
M  V30 17530 C 1558.35 -1.62274 -0.510016 0
M  V30 17531 O 1559.54 -1.89666 -0.4172 0
M  V30 17532 C 1556.67 -3.45684 -0.334686 0
M  V30 17533 C 1555.62 -4.24949 0.510169 0
M  V30 17534 C 1554.95 -5.33371 -0.376745 0
M  V30 17535 C 1556.25 -4.91438 1.76877 0
M  V30 17536 H 1557.94 -2.71076 1.27115 0
M  V30 17537 H 1555.49 -1.30316 0.612678 0
M  V30 17538 H 1557.44 -4.1571 -0.690154 0
M  V30 17539 H 1556.16 -3.03118 -1.21603 0
M  V30 17540 H 1554.82 -3.56653 0.848191 0
M  V30 17541 H 1554.47 -4.87048 -1.25671 0
M  V30 17542 H 1554.17 -5.87309 0.18496 0
M  V30 17543 H 1555.69 -6.06244 -0.728039 0
M  V30 17544 H 1557.11 -5.53812 1.48205 0
M  V30 17545 H 1555.5 -5.55384 2.27308 0
M  V30 17546 H 1556.57 -4.15783 2.49505 0
M  V30 17547 N 1557.92 -0.68059 -1.42147 0
M  V30 17548 C 1559.17 -0.204857 -2.01059 0
M  V30 17549 C 1559.49 1.19475 -1.54113 0
M  V30 17550 O 1558.76 1.80334 -0.765279 0
M  V30 17551 H 1557.34 -0.0727459 -0.743449 0
M  V30 17552 H 1560 -0.878396 -1.73983 0
M  V30 17553 H 1559.09 -0.210628 -3.11388 0
M  V30 17554 N 1559.4 1.51781 -0.424309 0
M  V30 17555 C 1560.62 2.06387 0.145548 0
M  V30 17556 C 1561.04 1.29299 1.37576 0
M  V30 17557 O 1560.4 0.348952 1.79133 0
M  V30 17558 C 1560.45 3.58288 0.48083 0
M  V30 17559 O 1560.17 4.32463 -0.700546 0
M  V30 17560 C 1561.67 4.29364 1.10278 0
M  V30 17561 H 1558.89 0.67086 0.0136908 0
M  V30 17562 H 1561.43 1.95511 -0.599639 0
M  V30 17563 H 1559.59 3.69122 1.17591 0
M  V30 17564 H 1560 5.22839 -0.417035 0
M  V30 17565 H 1561.48 5.36776 1.28747 0
M  V30 17566 H 1561.95 3.86815 2.08017 0
M  V30 17567 H 1562.56 4.2294 0.447458 0
M  V30 17568 N 1560.87 0.155222 1.56834 0
M  V30 17569 C 1562.12 -0.49285 1.95998 0
M  V30 17570 C 1562.44 -1.64857 1.0415 0
M  V30 17571 O 1561.71 -1.9562 0.104654 0
M  V30 17572 H 1560.29 -0.185063 0.723713 0
M  V30 17573 H 1562.95 0.232644 1.93507 0
M  V30 17574 H 1562.05 -0.863552 2.99915 0
M  V30 17575 N 1562.35 -1.57153 -0.118549 0
M  V30 17576 C 1563.58 -1.89062 -0.840429 0
M  V30 17577 C 1563.99 -0.746516 -1.73414 0
M  V30 17578 O 1563.35 0.282638 -1.80298 0
M  V30 17579 C 1563.4 -3.20433 -1.67347 0
M  V30 17580 O 1563.12 -4.30439 -0.815739 0
M  V30 17581 C 1564.62 -3.66048 -2.50047 0
M  V30 17582 H 1561.84 -0.626005 -0.241575 0
M  V30 17583 H 1564.39 -2.04241 -0.102804 0
M  V30 17584 H 1562.54 -3.06922 -2.36385 0
M  V30 17585 H 1562.96 -5.05736 -1.39037 0
M  V30 17586 H 1564.43 -4.60729 -3.04028 0
M  V30 17587 H 1564.91 -2.92727 -3.27426 0
M  V30 17588 H 1565.51 -3.82349 -1.86251 0
M  V30 17589 N 1563.83 0.388742 -1.5273 0
M  V30 17590 C 1565.06 1.15328 -1.71415 0
M  V30 17591 C 1565.47 1.84193 -0.432366 0
M  V30 17592 O 1564.81 1.73522 0.602977 0
M  V30 17593 C 1564.87 2.24436 -2.80836 0
M  V30 17594 C 1564.54 1.75535 -4.21944 0
M  V30 17595 C 1565.53 1.23196 -5.05093 0
M  V30 17596 C 1563.22 1.8175 -4.68265 0
M  V30 17597 C 1565.21 0.777194 -6.32644 0
M  V30 17598 C 1562.9 1.35885 -5.95801 0
M  V30 17599 C 1563.9 0.839573 -6.7782 0
M  V30 17600 O 1563.59 0.387619 -8.02965 0
M  V30 17601 H 1563.32 0.351742 -0.577281 0
M  V30 17602 H 1565.87 0.460735 -2.00166 0
M  V30 17603 H 1564.1 2.97115 -2.47506 0
M  V30 17604 H 1565.79 2.86106 -2.87921 0
M  V30 17605 H 1566.56 1.17751 -4.70489 0
M  V30 17606 H 1562.44 2.21111 -4.04513 0
M  V30 17607 H 1565.98 0.371199 -6.96612 0
M  V30 17608 H 1561.88 1.41016 -6.29909 0
M  V30 17609 H 1562.64 0.509073 -8.16915 0
M  V30 17610 N 1565.31 1.43698 0.647203 0
M  V30 17611 C 1566.24 1.52135 1.77136 0
M  V30 17612 C 1567.22 0.375551 1.65902 0
M  V30 17613 O 1568.4 0.593564 1.84907 0
M  V30 17614 C 1565.53 1.44974 3.15594 0
M  V30 17615 C 1564.49 2.57866 3.41598 0
M  V30 17616 C 1563.81 2.35757 4.7992 0
M  V30 17617 C 1565.11 4.00089 3.35747 0
M  V30 17618 H 1566.81 2.46227 1.70332 0
M  V30 17619 H 1564.35 1.18507 0.818046 0
M  V30 17620 H 1566.31 1.4948 3.93997 0
M  V30 17621 H 1565.03 0.473905 3.23143 0
M  V30 17622 H 1563.69 2.52722 2.65569 0
M  V30 17623 H 1563.34 1.36403 4.84152 0
M  V30 17624 H 1563.04 3.11436 4.98278 0
M  V30 17625 H 1564.56 2.42055 5.60572 0
M  V30 17626 H 1565.98 4.06687 4.04078 0
M  V30 17627 H 1564.37 4.75842 3.65642 0
M  V30 17628 H 1565.44 4.24798 2.33825 0
M  V30 17629 N 1566.79 -0.886131 1.30328 0
M  V30 17630 C 1567.73 -1.99174 1.16612 0
M  V30 17631 C 1568.7 -1.66006 0.0559202 0
M  V30 17632 O 1569.89 -1.89458 0.225897 0
M  V30 17633 C 1567.03 -3.34142 0.862726 0
M  V30 17634 C 1566.14 -3.80008 2.05469 0
M  V30 17635 C 1565.28 -5.03617 1.68949 0
M  V30 17636 C 1564.32 -5.41888 2.84647 0
M  V30 17637 N 1563.45 -6.56678 2.48431 0
M  V30 17638 H 1568.29 -2.10238 2.11197 0
M  V30 17639 H 1565.83 -1.02941 1.05079 0
M  V30 17640 H 1567.79 -4.11826 0.667447 0
M  V30 17641 H 1566.42 -3.22767 -0.0462461 0
M  V30 17642 H 1565.47 -2.98243 2.36126 0
M  V30 17643 H 1566.78 -4.04312 2.92119 0
M  V30 17644 H 1565.94 -5.88923 1.45789 0
M  V30 17645 H 1564.67 -4.81182 0.794674 0
M  V30 17646 H 1563.68 -4.55109 3.08474 0
M  V30 17647 H 1564.9 -5.66296 3.74813 0
M  V30 17648 H 1562.85 -6.35821 1.61453 0
M  V30 17649 H 1562.77 -6.80846 3.28611 0
M  V30 17650 H 1564.04 -7.45219 2.28624 0
M  V30 17651 N 1568.26 -1.13026 -1.09832 0
M  V30 17652 C 1569.21 -0.799174 -2.1844 0
M  V30 17653 C 1570.21 0.216695 -1.68008 0
M  V30 17654 O 1571.41 0.0742662 -1.79847 0
M  V30 17655 H 1567.79 -0.24064 -0.712458 0
M  V30 17656 H 1569.76 -1.72342 -2.436 0
M  V30 17657 C 1568.51 -0.276925 -3.46595 0
M  V30 17658 H 1567.83 -1.04993 -3.85768 0
M  V30 17659 H 1569.27 -0.0836468 -4.23917 0
M  V30 17660 C 1567.73 0.996479 -3.21826 0
M  V30 17661 O 1568.26 2.0731 -3.44072 0
M  V30 17662 N 1566.47 0.925903 -2.75455 0
M  V30 17663 H 1566.01 0.0496383 -2.57552 0
M  V30 17664 H 1565.97 1.77853 -2.5926 0
M  V30 17665 N 1569.74 1.27735 -0.923117 0
M  V30 17666 C 1570.99 1.9457 -0.561149 0
M  V30 17667 C 1571.32 1.72591 0.896805 0
M  V30 17668 O 1570.57 1.04546 1.65434 0
M  V30 17669 C 1570.87 3.47677 -0.827959 0
M  V30 17670 C 1570.54 3.8977 -2.26693 0
M  V30 17671 C 1569.2 4.00973 -2.66033 0
M  V30 17672 C 1571.55 4.11173 -3.20291 0
M  V30 17673 C 1568.88 4.30963 -3.98105 0
M  V30 17674 C 1571.23 4.42645 -4.51938 0
M  V30 17675 C 1569.9 4.52061 -4.91119 0
M  V30 17676 H 1569.17 0.711981 -0.205339 0
M  V30 17677 H 1571.81 1.51894 -1.16621 0
M  V30 17678 H 1570.12 3.91549 -0.140178 0
M  V30 17679 H 1571.81 3.97523 -0.526932 0
M  V30 17680 H 1568.4 3.81584 -1.95171 0
M  V30 17681 H 1572.59 4.01962 -2.91102 0
M  V30 17682 H 1567.84 4.36461 -4.28149 0
M  V30 17683 H 1572.02 4.58153 -5.2447 0
M  V30 17684 H 1569.65 4.75053 -5.93488 0
M  V30 17685 N 1571.22 0.688118 1.41784 0
M  V30 17686 C 1572.47 0.215944 2.01345 0
M  V30 17687 C 1572.8 -1.18197 1.54466 0
M  V30 17688 O 1572.05 -1.81032 0.743374 0
M  V30 17689 C 1572.35 0.213747 3.5676 0
M  V30 17690 C 1572.02 1.55816 4.23122 0
M  V30 17691 C 1570.68 1.92623 4.40964 0
M  V30 17692 C 1573.03 2.44297 4.604 0
M  V30 17693 C 1570.36 3.17511 4.93359 0
M  V30 17694 C 1572.71 3.68511 5.14182 0
M  V30 17695 C 1571.37 4.0547 5.30236 0
M  V30 17696 H 1570.64 0.0790193 0.736775 0
M  V30 17697 H 1573.29 0.885737 1.69785 0
M  V30 17698 H 1571.6 -0.539583 3.88067 0
M  V30 17699 H 1573.29 -0.169004 4.00644 0
M  V30 17700 H 1569.88 1.26186 4.09604 0
M  V30 17701 H 1574.07 2.17143 4.46277 0
M  V30 17702 H 1569.32 3.46151 5.03973 0
M  V30 17703 H 1573.5 4.37264 5.42008 0
M  V30 17704 H 1571.12 5.02316 5.70598 0
M  V30 17705 N 1572.7 -1.51554 0.432352 0
M  V30 17706 C 1573.92 -2.06947 -0.136995 0
M  V30 17707 C 1574.35 -1.29817 -1.36122 0
M  V30 17708 O 1573.71 -0.334733 -1.78183 0
M  V30 17709 C 1573.75 -3.57871 -0.442785 0
M  V30 17710 O 1572.86 -3.82966 -1.53007 0
M  V30 17711 H 1572.2 -0.663988 -0.00405152 0
M  V30 17712 H 1574.73 -1.95225 0.612249 0
M  V30 17713 H 1574.74 -4.02042 -0.694694 0
M  V30 17714 H 1573.41 -4.13436 0.452013 0
M  V30 17715 H 1571.99 -3.50661 -1.26851 0
M  V30 17716 N 1574.18 -0.163538 -1.56749 0
M  V30 17717 C 1575.09 0.782461 -2.21167 0
M  V30 17718 C 1576.1 1.25911 -1.20093 0
M  V30 17719 O 1577.28 1.31286 -1.52728 0
M  V30 17720 C 1574.34 1.99761 -2.83366 0
M  V30 17721 C 1573.4 1.56859 -3.99617 0
M  V30 17722 C 1572.64 2.72582 -4.58841 0
M  V30 17723 O 1572.86 3.89243 -4.16949 0
M  V30 17724 O 1571.79 2.47104 -5.48838 0
M  V30 17725 H 1575.62 0.264023 -3.0255 0
M  V30 17726 H 1573.21 0.06429 -1.49262 0
M  V30 17727 H 1575.09 2.70843 -3.22835 0
M  V30 17728 H 1573.76 2.50526 -2.04984 0
M  V30 17729 H 1572.67 0.827511 -3.64833 0
M  V30 17730 H 1574 1.10794 -4.79568 0
M  V30 17731 N 1575.65 1.57214 0.110213 0
M  V30 17732 C 1576.58 2.04015 1.13579 0
M  V30 17733 C 1577.57 0.926215 1.42672 0
M  V30 17734 O 1578.75 1.19651 1.52962 0
M  V30 17735 C 1575.88 2.45187 2.45969 0
M  V30 17736 C 1574.83 3.60105 2.31319 0
M  V30 17737 C 1574.16 3.87205 3.68749 0
M  V30 17738 C 1575.46 4.91526 1.76635 0
M  V30 17739 H 1577.15 2.89944 0.746496 0
M  V30 17740 H 1574.7 1.39488 0.357642 0
M  V30 17741 H 1576.65 2.76534 3.17973 0
M  V30 17742 H 1575.38 1.56238 2.86805 0
M  V30 17743 H 1574.04 3.28981 1.61762 0
M  V30 17744 H 1573.68 2.95448 4.07087 0
M  V30 17745 H 1573.38 4.64563 3.59798 0
M  V30 17746 H 1574.91 4.21013 4.42245 0
M  V30 17747 H 1576.32 5.21351 2.38465 0
M  V30 17748 H 1574.72 5.72944 1.78482 0
M  V30 17749 H 1575.79 4.79456 0.724573 0
M  V30 17750 N 1577.13 -0.380637 1.52934 0
M  V30 17751 C 1578.38 -1.12306 1.69585 0
M  V30 17752 C 1578.73 -1.87427 0.434626 0
M  V30 17753 O 1578.03 -1.82864 -0.571955 0
M  V30 17754 C 1578.22 -2.1227 2.87535 0
M  V30 17755 C 1578.05 -1.46969 4.25006 0
M  V30 17756 C 1576.82 -1.23021 4.90096 0
M  V30 17757 C 1579.02 -0.915348 5.06089 0
M  V30 17758 N 1577 -0.539124 6.11528 0
M  V30 17759 C 1578.37 -0.352792 6.18995 0
M  V30 17760 C 1580.43 -0.81257 4.91225 0
M  V30 17761 C 1579.13 0.302501 7.18664 0
M  V30 17762 C 1581.15 -0.171084 5.91152 0
M  V30 17763 C 1580.52 0.380664 7.03371 0
M  V30 17764 H 1576.62 -0.39663 0.67395 0
M  V30 17765 H 1579.2 -0.411454 1.90303 0
M  V30 17766 H 1577.37 -2.80759 2.68382 0
M  V30 17767 H 1579.1 -2.7908 2.93081 0
M  V30 17768 H 1575.86 -1.50746 4.48969 0
M  V30 17769 H 1576.28 -0.209381 6.76676 0
M  V30 17770 H 1580.92 -1.22493 4.04667 0
M  V30 17771 H 1578.64 0.72685 8.04825 0
M  V30 17772 H 1582.23 -0.0926928 5.81726 0
M  V30 17773 H 1581.11 0.8692 7.79368 0
M  V30 17774 N 1578.61 -1.44039 -0.639573 0
M  V30 17775 C 1579.54 -1.46233 -1.76489 0
M  V30 17776 C 1580.56 -0.356739 -1.58843 0
M  V30 17777 O 1581.74 -0.621988 -1.67313 0
M  V30 17778 C 1578.84 -1.27252 -3.14102 0
M  V30 17779 C 1578.02 -2.50902 -3.58283 0
M  V30 17780 C 1577.08 -2.26944 -4.74745 0
M  V30 17781 O 1576.1 -3.00381 -4.83487 0
M  V30 17782 N 1577.3 -1.29468 -5.65878 0
M  V30 17783 H 1580.07 -2.43243 -1.7508 0
M  V30 17784 H 1577.63 -1.3937 -0.823867 0
M  V30 17785 H 1579.62 -1.09085 -3.89721 0
M  V30 17786 H 1578.19 -0.386383 -3.10203 0
M  V30 17787 H 1577.41 -2.84403 -2.72963 0
M  V30 17788 H 1578.7 -3.33163 -3.84552 0
M  V30 17789 H 1578.1 -0.687994 -5.61501 0
M  V30 17790 H 1576.66 -1.17281 -6.41162 0
M  V30 17791 N 1580.09 0.879207 -1.30796 0
M  V30 17792 C 1581.04 2.00692 -1.17582 0
M  V30 17793 C 1582.03 1.6918 -0.0863163 0
M  V30 17794 O 1583.24 1.78289 -0.24757 0
M  V30 17795 H 1579.61 0.65814 -0.363808 0
M  V30 17796 H 1581.58 2.0897 -2.13012 0
M  V30 17797 C 1580.33 3.36105 -0.890429 0
M  V30 17798 H 1579.65 3.60868 -1.72088 0
M  V30 17799 H 1581.09 4.15634 -0.838103 0
M  V30 17800 C 1579.55 3.34436 0.406734 0
M  V30 17801 O 1580.08 3.7552 1.42645 0
M  V30 17802 N 1578.29 2.87549 0.419963 0
M  V30 17803 H 1577.84 2.54311 -0.410343 0
M  V30 17804 H 1577.79 2.86815 1.28781 0
M  V30 17805 N 1581.57 1.13606 1.09231 0
M  V30 17806 C 1582.82 0.893694 1.8082 0
M  V30 17807 C 1583.13 -0.581713 1.8675 0
M  V30 17808 O 1584.34 -0.941079 2.54668 0
M  V30 17809 C 1582.79 1.54932 3.24845 0
M  V30 17810 C 1582.4 3.0604 3.27175 0
M  V30 17811 C 1584.14 1.38773 4.01176 0
M  V30 17812 C 1582.05 3.64478 4.65735 0
M  V30 17813 H 1580.98 0.330699 0.677609 0
M  V30 17814 H 1583.63 1.36401 1.22748 0
M  V30 17815 H 1582.01 1.00668 3.82991 0
M  V30 17816 H 1583.19 3.66901 2.78783 0
M  V30 17817 H 1581.5 3.21739 2.64335 0
M  V30 17818 H 1584.1 1.79843 5.03548 0
M  V30 17819 H 1584.44 0.33282 4.14967 0
M  V30 17820 H 1584.98 1.90028 3.49477 0
M  V30 17821 H 1581.71 4.69785 4.57146 0
M  V30 17822 H 1581.23 3.08396 5.14444 0
M  V30 17823 H 1582.91 3.64272 5.3471 0
M  V30 17824 N 1583.05 -1.27244 0.929878 0
M  V30 17825 C 1584.46 -1.4662 0.630451 0
M  V30 17826 C 1584.66 -1.84077 -0.819633 0
M  V30 17827 O 1583.72 -1.95555 -1.59733 0
M  V30 17828 C 1585.03 -2.55709 1.58219 0
M  V30 17829 C 1586.58 -2.69569 1.59065 0
M  V30 17830 C 1587.05 -3.81818 2.52941 0
M  V30 17831 N 1588.54 -3.89195 2.51161 0
M  V30 17832 C 1589.28 -4.75474 3.20488 0
M  V30 17833 N 1588.78 -5.66225 3.99201 0
M  V30 17834 N 1590.57 -4.69222 3.09495 0
M  V30 17835 H 1582.72 -1.01216 1.86733 0
M  V30 17836 H 1584.98 -0.505737 0.801832 0
M  V30 17837 H 1584.69 -2.34985 2.61677 0
M  V30 17838 H 1584.56 -3.53141 1.32556 0
M  V30 17839 H 1586.95 -2.89672 0.563375 0
M  V30 17840 H 1587.03 -1.72616 1.88778 0
M  V30 17841 H 1586.67 -3.62467 3.55781 0
M  V30 17842 H 1586.6 -4.78202 2.20524 0
M  V30 17843 H 1589.1 -3.24305 1.93997 0
M  V30 17844 H 1589.41 -6.28925 4.4908 0
M  V30 17845 H 1587.75 -5.66013 4.03304 0
M  V30 17846 H 1590.94 -3.97322 2.47493 0
M  V30 17847 H 1591.12 -5.36244 3.63794 0
M  V30 17848 N 1584.52 -0.695628 -1.41417 0
M  V30 17849 C 1585.77 -0.226618 -2.01228 0
M  V30 17850 C 1586.1 1.17376 -1.5509 0
M  V30 17851 O 1585.35 1.80635 -0.752964 0
M  V30 17852 C 1585.65 -0.232664 -3.56642 0
M  V30 17853 C 1585.32 -1.58057 -4.2229 0
M  V30 17854 C 1583.98 -1.94959 -4.39937 0
M  V30 17855 C 1586.33 -2.46735 -4.59098 0
M  V30 17856 C 1583.66 -3.20123 -4.91669 0
M  V30 17857 C 1586.01 -3.71232 -5.1222 0
M  V30 17858 C 1584.68 -4.08277 -5.28078 0
M  V30 17859 H 1583.95 -0.0829255 -0.736345 0
M  V30 17860 H 1586.59 -0.894729 -1.69313 0
M  V30 17861 H 1584.9 0.518995 -3.88347 0
M  V30 17862 H 1586.6 0.147754 -4.00728 0
M  V30 17863 H 1583.19 -1.28356 -4.08929 0
M  V30 17864 H 1587.37 -2.19506 -4.45119 0
M  V30 17865 H 1582.63 -3.48819 -5.02131 0
M  V30 17866 H 1586.8 -4.40132 -5.39682 0
M  V30 17867 H 1584.43 -5.05335 -5.67927 0
M  V30 17868 N 1586 1.51322 -0.440383 0
M  V30 17869 C 1586.93 2.30708 0.360013 0
M  V30 17870 C 1587.91 1.36254 1.01828 0
M  V30 17871 O 1589.1 1.65174 1.02134 0
M  V30 17872 C 1586.23 3.15132 1.45977 0
M  V30 17873 C 1585.18 4.17889 0.924825 0
M  V30 17874 C 1584.51 4.90853 2.12056 0
M  V30 17875 C 1585.81 5.22282 -0.0428362 0
M  V30 17876 H 1587.5 2.97868 -0.30248 0
M  V30 17877 H 1585.05 1.43249 -0.146914 0
M  V30 17878 H 1587 3.69449 2.02695 0
M  V30 17879 H 1585.72 2.45798 2.1506 0
M  V30 17880 H 1584.38 3.64627 0.379842 0
M  V30 17881 H 1584.03 4.1802 2.79765 0
M  V30 17882 H 1583.73 5.60339 1.769 0
M  V30 17883 H 1585.26 5.47995 2.69322 0
M  V30 17884 H 1586.67 5.71654 0.434137 0
M  V30 17885 H 1585.07 5.99314 -0.307126 0
M  V30 17886 H 1586.14 4.74923 -0.978557 0
M  V30 17887 N 1587.48 0.171848 1.5666 0
M  V30 17888 C 1588.73 -0.472968 1.96899 0
M  V30 17889 C 1589.05 -1.63217 1.05785 0
M  V30 17890 O 1588.31 -1.95483 0.0920511 0
M  V30 17891 C 1588.61 -0.99711 3.43209 0
M  V30 17892 C 1588.27 0.0462519 4.50876 0
M  V30 17893 C 1586.94 0.333002 4.80046 0
M  V30 17894 C 1589.29 0.754424 5.15711 0
M  V30 17895 C 1586.62 1.3333 5.71349 0
M  V30 17896 C 1588.97 1.74371 6.08093 0
M  V30 17897 C 1587.63 2.03791 6.3563 0
M  V30 17898 H 1586.9 -0.173071 0.720505 0
M  V30 17899 H 1589.55 0.263921 1.89673 0
M  V30 17900 H 1587.85 -1.81183 3.4739 0
M  V30 17901 H 1589.55 -1.50503 3.71685 0
M  V30 17902 H 1586.14 -0.187419 4.2819 0
M  V30 17903 H 1590.33 0.546102 4.93286 0
M  V30 17904 H 1585.58 1.56741 5.90967 0
M  V30 17905 H 1589.76 2.29782 6.57399 0
M  V30 17906 H 1587.38 2.8145 7.0618 0
M  V30 17907 N 1588.96 -1.5727 -0.101874 0
M  V30 17908 C 1589.9 -2.01577 -1.12406 0
M  V30 17909 C 1590.87 -0.890883 -1.40187 0
M  V30 17910 O 1592.06 -1.15638 -1.51764 0
M  V30 17911 C 1589.2 -2.43952 -2.44093 0
M  V30 17912 C 1588.31 -3.69932 -2.23101 0
M  V30 17913 C 1587.45 -4.01215 -3.48138 0
M  V30 17914 C 1586.49 -5.20325 -3.22379 0
M  V30 17915 N 1585.62 -5.47394 -4.39664 0
M  V30 17916 H 1590.46 -2.88685 -0.739244 0
M  V30 17917 H 1588 -1.42789 -0.353497 0
M  V30 17918 H 1589.96 -2.66563 -3.20936 0
M  V30 17919 H 1588.59 -1.59863 -2.80435 0
M  V30 17920 H 1587.64 -3.54838 -1.37092 0
M  V30 17921 H 1588.95 -4.56924 -2.00054 0
M  V30 17922 H 1588.11 -4.24566 -4.33392 0
M  V30 17923 H 1586.85 -3.12732 -3.74233 0
M  V30 17924 H 1585.85 -4.96802 -2.35517 0
M  V30 17925 H 1587.08 -6.10401 -2.97637 0
M  V30 17926 H 1585.02 -4.61869 -4.65847 0
M  V30 17927 H 1584.94 -6.28743 -4.19783 0
M  V30 17928 H 1586.21 -5.75276 -5.26002 0
M  V30 17929 N 1590.44 0.372521 -1.53134 0
M  V30 17930 C 1591.66 1.14116 -1.73183 0
M  V30 17931 C 1592.09 1.82475 -0.456553 0
M  V30 17932 O 1591.44 1.71468 0.588919 0
M  V30 17933 C 1591.49 2.15241 -2.89316 0
M  V30 17934 O 1590.6 3.22178 -2.57439 0
M  V30 17935 H 1589.94 0.331442 -0.575362 0
M  V30 17936 H 1592.47 0.431769 -1.99992 0
M  V30 17937 H 1592.48 2.58961 -3.15283 0
M  V30 17938 H 1591.15 1.64877 -3.81822 0
M  V30 17939 H 1589.73 2.83481 -2.42267 0
M  V30 17940 N 1591.91 1.44376 0.631925 0
M  V30 17941 C 1592.86 1.51181 1.74393 0
M  V30 17942 C 1593.83 0.359599 1.62161 0
M  V30 17943 O 1595.02 0.569725 1.82096 0
M  V30 17944 C 1592.16 1.46124 3.12637 0
M  V30 17945 C 1591.27 2.71714 3.35851 0
M  V30 17946 C 1590.4 2.58496 4.64062 0
M  V30 17947 C 1589.44 3.79252 4.80452 0
M  V30 17948 N 1588.58 3.64715 5.99939 0
M  V30 17949 H 1593.42 2.4619 1.67912 0
M  V30 17950 H 1590.96 1.22184 0.819108 0
M  V30 17951 H 1592.91 1.41183 3.92585 0
M  V30 17952 H 1591.54 0.546831 3.18135 0
M  V30 17953 H 1590.6 2.86845 2.49848 0
M  V30 17954 H 1591.91 3.61351 3.43841 0
M  V30 17955 H 1591.06 2.51383 5.5217 0
M  V30 17956 H 1589.8 1.66417 4.58428 0
M  V30 17957 H 1588.81 3.8675 3.90774 0
M  V30 17958 H 1590.03 4.72367 4.879 0
M  V30 17959 H 1587.98 2.75388 5.95397 0
M  V30 17960 H 1587.89 4.47969 6.08982 0
M  V30 17961 H 1589.16 3.61493 6.90611 0
M  V30 17962 N 1593.39 -0.872258 1.31261 0
M  V30 17963 C 1594.32 -1.99517 1.21306 0
M  V30 17964 C 1595.3 -1.69801 0.100775 0
M  V30 17965 O 1596.49 -1.92098 0.284984 0
M  V30 17966 C 1593.62 -3.34968 0.917249 0
M  V30 17967 C 1592.57 -3.78984 1.98885 0
M  V30 17968 C 1591.9 -5.11869 1.54578 0
M  V30 17969 C 1593.2 -3.96338 3.40167 0
M  V30 17970 H 1594.89 -2.08104 2.15251 0
M  V30 17971 H 1592.44 -0.999865 1.03628 0
M  V30 17972 H 1594.39 -4.1306 0.834217 0
M  V30 17973 H 1593.11 -3.26549 -0.0578721 0
M  V30 17974 H 1591.77 -3.0313 2.06174 0
M  V30 17975 H 1591.42 -4.99889 0.558581 0
M  V30 17976 H 1591.12 -5.4229 2.26265 0
M  V30 17977 H 1592.65 -5.92472 1.47678 0
M  V30 17978 H 1594.06 -4.64831 3.35566 0
M  V30 17979 H 1592.46 -4.38153 4.10051 0
M  V30 17980 H 1593.53 -2.9979 3.81122 0
M  V30 17981 N 1594.87 -1.14184 -1.08627 0
M  V30 17982 C 1595.82 -0.826718 -2.15486 0
M  V30 17983 C 1596.79 0.214769 -1.64706 0
M  V30 17984 O 1597.97 0.0851909 -1.9061 0
M  V30 17985 C 1595.11 -0.307888 -3.43724 0
M  V30 17986 C 1594.22 -1.40941 -4.08362 0
M  V30 17987 C 1593.36 -0.848059 -5.24387 0
M  V30 17988 C 1592.4 -1.92741 -5.80962 0
M  V30 17989 N 1591.54 -1.3834 -6.88336 0
M  V30 17990 H 1596.38 -1.74198 -2.41783 0
M  V30 17991 H 1593.91 -0.869406 -1.18658 0
M  V30 17992 H 1595.87 0.0111149 -4.17199 0
M  V30 17993 H 1594.5 0.570488 -3.17719 0
M  V30 17994 H 1593.55 -1.84485 -3.3267 0
M  V30 17995 H 1594.86 -2.22485 -4.46433 0
M  V30 17996 H 1594.02 -0.480826 -6.04792 0
M  V30 17997 H 1592.76 -0.00163783 -4.877 0
M  V30 17998 H 1591.76 -2.30362 -4.99213 0
M  V30 17999 H 1592.99 -2.77738 -6.19708 0
M  V30 18000 H 1590.93 -0.559124 -6.53613 0
M  V30 18001 H 1590.85 -2.13524 -7.2522 0
M  V30 18002 H 1592.12 -1.044 -7.72477 0
M  V30 18003 N 1596.35 1.26749 -0.936613 0
M  V30 18004 C 1597.6 1.93255 -0.577524 0
M  V30 18005 C 1597.91 1.74337 0.886905 0
M  V30 18006 O 1599.12 2.3526 1.35517 0
M  V30 18007 C 1597.57 3.4624 -0.982119 0
M  V30 18008 C 1597.18 3.739 -2.46784 0
M  V30 18009 C 1598.92 4.18777 -0.694706 0
M  V30 18010 C 1596.83 5.20303 -2.81138 0
M  V30 18011 H 1595.76 0.723502 -0.212276 0
M  V30 18012 H 1598.41 1.43901 -1.13863 0
M  V30 18013 H 1596.79 3.94454 -0.349577 0
M  V30 18014 H 1597.97 3.3641 -3.14905 0
M  V30 18015 H 1596.28 3.14587 -2.72808 0
M  V30 18016 H 1598.88 5.2659 -0.927756 0
M  V30 18017 H 1599.22 4.14667 0.368392 0
M  V30 18018 H 1599.76 3.76414 -1.28676 0
M  V30 18019 H 1596.5 5.29511 -3.86392 0
M  V30 18020 H 1596.02 5.58907 -2.17675 0
M  V30 18021 H 1597.69 5.88265 -2.69358 0
M  V30 18022 N 1597.83 0.703118 1.41046 0
M  V30 18023 C 1599.24 0.375417 1.55122 0
M  V30 18024 C 1599.44 -1.11696 1.67709 0
M  V30 18025 O 1598.5 -1.90289 1.65971 0
M  V30 18026 C 1599.81 1.13056 2.78638 0
M  V30 18027 C 1601.36 1.11564 2.92442 0
M  V30 18028 C 1601.83 1.85268 4.18855 0
M  V30 18029 N 1603.33 1.82275 4.25829 0
M  V30 18030 C 1604.06 2.36137 5.2252 0
M  V30 18031 N 1603.56 2.98502 6.25195 0
M  V30 18032 N 1605.35 2.26349 5.14512 0
M  V30 18033 H 1597.5 1.67096 1.31121 0
M  V30 18034 H 1599.76 0.705573 0.633144 0
M  V30 18035 H 1599.47 2.18524 2.75572 0
M  V30 18036 H 1599.34 0.714037 3.7038 0
M  V30 18037 H 1601.73 0.0691901 2.95019 0
M  V30 18038 H 1601.81 1.57128 2.01853 0
M  V30 18039 H 1601.46 2.89896 4.1704 0
M  V30 18040 H 1601.39 1.37133 5.08431 0
M  V30 18041 H 1603.88 1.36812 3.52265 0
M  V30 18042 H 1604.19 3.37149 6.95378 0
M  V30 18043 H 1602.53 3.02582 6.25675 0
M  V30 18044 H 1605.73 1.77294 4.33226 0
M  V30 18045 H 1605.9 2.68629 5.89697 0
M  V30 18046 N 1599.3 -1.51086 0.448402 0
M  V30 18047 C 1600.58 -1.94817 -0.174819 0
M  V30 18048 C 1600.96 -1.38767 -1.59081 0
M  V30 18049 O 1600.31 -0.579257 -2.21036 0
M  V30 18050 C 1600.52 -3.48714 -0.14129 0
M  V30 18051 C 1601.87 -4.23225 -0.341414 0
M  V30 18052 O 1602.89 -3.55527 -0.218908 0
M  V30 18053 O 1601.75 -5.43346 -0.586331 0
M  V30 18054 H 1598.84 -0.817652 -0.12399 0
M  V30 18055 H 1601.39 -1.61944 0.507177 0
M  V30 18056 H 1600.16 -3.81996 0.848222 0
M  V30 18057 H 1599.79 -3.88061 -0.865722 0
M  V30 18058 N 1600.78 -0.180154 -1.56567 0
M  V30 18059 C 1601.72 0.785576 -2.14252 0
M  V30 18060 C 1602.69 1.21991 -1.07504 0
M  V30 18061 O 1603.88 1.3101 -1.35531 0
M  V30 18062 C 1601 2.05903 -2.68927 0
M  V30 18063 C 1600.05 1.76802 -3.88128 0
M  V30 18064 S 1600.88 0.92939 -5.27373 0
M  V30 18065 C 1602.04 2.21331 -5.8546 0
M  V30 18066 H 1602.27 0.295145 -2.95831 0
M  V30 18067 H 1599.81 0.0346427 -1.54361 0
M  V30 18068 H 1601.76 2.79043 -3.01074 0
M  V30 18069 H 1600.42 2.52059 -1.87417 0
M  V30 18070 H 1599.62 2.71312 -4.24742 0
M  V30 18071 H 1599.22 1.11753 -3.56914 0
M  V30 18072 H 1601.51 3.16718 -5.98912 0
M  V30 18073 H 1602.45 1.89172 -6.82363 0
M  V30 18074 H 1602.86 2.33495 -5.13946 0
M  V30 18075 N 1602.26 1.57322 0.0935319 0
M  V30 18076 C 1603.17 2.05499 1.13169 0
M  V30 18077 C 1604.19 0.980199 1.43764 0
M  V30 18078 O 1605.36 1.29347 1.54374 0
M  V30 18079 C 1602.43 2.47111 2.43181 0
M  V30 18080 C 1601.49 3.68791 2.19754 0
M  V30 18081 C 1600.72 4.08408 3.43567 0
M  V30 18082 O 1600.94 3.48104 4.51863 0
M  V30 18083 O 1599.88 5.01351 3.33062 0
M  V30 18084 H 1603.7 2.9423 0.752491 0
M  V30 18085 H 1601.29 1.4623 0.306151 0
M  V30 18086 H 1603.17 2.74495 3.19735 0
M  V30 18087 H 1601.85 1.61518 2.80524 0
M  V30 18088 H 1600.75 3.46521 1.40976 0
M  V30 18089 H 1602.09 4.55169 1.87303 0
M  V30 18090 N 1603.74 -0.364395 1.53329 0
M  V30 18091 C 1604.97 -1.12586 1.73228 0
M  V30 18092 C 1605.38 -1.83482 0.461614 0
M  V30 18093 O 1604.72 -1.74459 -0.575295 0
M  V30 18094 C 1604.78 -2.1994 2.84371 0
M  V30 18095 C 1604.45 -1.688 4.24683 0
M  V30 18096 C 1605.44 -1.15145 5.06989 0
M  V30 18097 C 1603.13 -1.74277 4.71097 0
M  V30 18098 C 1605.12 -0.676447 6.338 0
M  V30 18099 C 1602.81 -1.26389 5.97887 0
M  V30 18100 C 1603.81 -0.731632 6.7907 0
M  V30 18101 O 1603.49 -0.259825 8.0348 0
M  V30 18102 H 1603.23 -0.342514 0.582804 0
M  V30 18103 H 1605.78 -0.428832 2.00874 0
M  V30 18104 H 1604.01 -2.9314 2.52202 0
M  V30 18105 H 1605.7 -2.81489 2.92436 0
M  V30 18106 H 1606.47 -1.10251 4.72303 0
M  V30 18107 H 1602.34 -2.14647 4.0798 0
M  V30 18108 H 1605.89 -0.260327 6.97114 0
M  V30 18109 H 1601.79 -1.30977 6.32072 0
M  V30 18110 H 1602.55 -0.379044 8.17622 0
M  V30 18111 N 1605.22 -1.44709 -0.62426 0
M  V30 18112 C 1606.46 -1.47853 -1.38368 0
M  V30 18113 C 1606.79 -0.113769 -1.94167 0
M  V30 18114 O 1606.05 0.88538 -1.74527 0
M  V30 18115 C 1606.35 -2.4919 -2.56201 0
M  V30 18116 C 1606.01 -3.94339 -2.1865 0
M  V30 18117 C 1604.67 -4.33865 -2.08122 0
M  V30 18118 C 1607.03 -4.85689 -1.89091 0
M  V30 18119 C 1604.35 -5.62658 -1.66233 0
M  V30 18120 C 1606.71 -6.14877 -1.48693 0
M  V30 18121 C 1605.37 -6.5335 -1.36711 0
M  V30 18122 H 1604.64 -0.541034 -0.506324 0
M  V30 18123 H 1607.29 -1.77962 -0.707235 0
M  V30 18124 H 1605.59 -2.1259 -3.29109 0
M  V30 18125 H 1607.29 -2.48867 -3.1443 0
M  V30 18126 H 1603.88 -3.63072 -2.27764 0
M  V30 18127 H 1608.06 -4.55902 -1.96131 0
M  V30 18128 H 1603.32 -5.91278 -1.55565 0
M  V30 18129 H 1607.49 -6.85115 -1.24861 0
M  V30 18130 H 1605.12 -7.53049 -1.04025 0
M  V30 18131 N 1606.69 0.865285 -1.31722 0
M  V30 18132 C 1607.92 1.65661 -1.24785 0
M  V30 18133 C 1608.34 1.87208 0.182952 0
M  V30 18134 O 1607.7 1.41721 1.1307 0
M  V30 18135 C 1607.75 2.99921 -2.00199 0
M  V30 18136 O 1606.85 3.89936 -1.34253 0
M  V30 18137 H 1606.2 0.505459 -0.430589 0
M  V30 18138 H 1608.73 1.0785 -1.73867 0
M  V30 18139 H 1608.74 3.49823 -2.09971 0
M  V30 18140 H 1607.41 2.83559 -3.04249 0
M  V30 18141 H 1605.99 3.4839 -1.32961 0
M  V30 18142 N 1608.17 1.14759 1.0802 0
M  V30 18143 C 1609.42 0.916435 1.80127 0
M  V30 18144 C 1609.74 -0.558281 1.86837 0
M  V30 18145 O 1609.01 -1.40579 1.36434 0
M  V30 18146 H 1607.59 0.336066 0.667135 0
M  V30 18147 H 1610.25 1.44693 1.30576 0
M  V30 18148 H 1609.35 1.31986 2.82818 0
M  V30 18149 N 1609.65 -1.26251 0.943322 0
M  V30 18150 C 1610.93 -1.88839 0.509831 0
M  V30 18151 C 1611.31 -1.85227 -1.01263 0
M  V30 18152 O 1610.66 -1.30805 -1.87356 0
M  V30 18153 C 1610.87 -3.32076 1.07361 0
M  V30 18154 C 1612.21 -4.0891 1.14357 0
M  V30 18155 O 1613.24 -3.41153 1.02435 0
M  V30 18156 O 1612.1 -5.30088 1.32926 0
M  V30 18157 H 1609.19 -0.810069 0.166484 0
M  V30 18158 H 1611.74 -1.34405 1.03602 0
M  V30 18159 H 1610.51 -3.29077 2.11716 0
M  V30 18160 H 1610.13 -3.94052 0.529991 0
M  V30 18161 N 1611.13 -0.710588 -1.40671 0
M  V30 18162 C 1612.38 -0.244967 -2.00207 0
M  V30 18163 C 1612.69 1.16693 -1.56978 0
M  V30 18164 O 1613.9 1.73081 -2.09177 0
M  V30 18165 C 1612.35 -0.387049 -3.57813 0
M  V30 18166 C 1611.96 -1.80527 -4.10017 0
M  V30 18167 C 1613.71 0.0180338 -4.24496 0
M  V30 18168 C 1611.61 -1.89821 -5.60109 0
M  V30 18169 H 1610.54 -0.087831 -0.748867 0
M  V30 18170 H 1613.19 -0.880956 -1.6097 0
M  V30 18171 H 1611.58 0.317442 -3.94726 0
M  V30 18172 H 1612.75 -2.53974 -3.84492 0
M  V30 18173 H 1611.06 -2.16137 -3.55913 0
M  V30 18174 H 1613.66 -0.0307544 -5.34691 0
M  V30 18175 H 1614 1.05915 -4.02601 0
M  V30 18176 H 1614.54 -0.63672 -3.92671 0
M  V30 18177 H 1611.28 -2.92036 -5.86852 0
M  V30 18178 H 1610.8 -1.20779 -5.87514 0
M  V30 18179 H 1612.48 -1.66801 -6.25129 0
M  V30 18180 N 1612.61 1.50847 -0.456408 0
M  V30 18181 C 1613.83 2.07139 0.104054 0
M  V30 18182 C 1614.26 1.31966 1.34039 0
M  V30 18183 O 1613.62 0.363038 1.77628 0
M  V30 18184 C 1613.66 3.5853 0.385794 0
M  V30 18185 O 1612.77 3.85351 1.46895 0
M  V30 18186 H 1612.11 0.663968 -0.00651246 0
M  V30 18187 H 1614.64 1.94226 -0.64323 0
M  V30 18188 H 1614.65 4.03097 0.630644 0
M  V30 18189 H 1613.32 4.12665 -0.51773 0
M  V30 18190 H 1611.9 3.52635 1.21256 0
M  V30 18191 N 1614.09 0.188454 1.56469 0
M  V30 18192 C 1615.02 -0.766806 2.15992 0
M  V30 18193 C 1616.03 -1.18153 1.11998 0
M  V30 18194 O 1617.22 -1.11842 1.39118 0
M  V30 18195 C 1614.32 -2.04594 2.70175 0
M  V30 18196 C 1613.49 -1.79207 3.99003 0
M  V30 18197 C 1612.55 -2.91504 4.38078 0
M  V30 18198 O 1611.58 -2.61397 5.05628 0
M  V30 18199 N 1612.78 -4.19702 4.01037 0
M  V30 18200 H 1615.54 -0.257829 2.98589 0
M  V30 18201 H 1613.11 0.00625645 1.61899 0
M  V30 18202 H 1615.1 -2.78846 2.93303 0
M  V30 18203 H 1613.67 -2.46633 1.9207 0
M  V30 18204 H 1612.89 -0.88769 3.84075 0
M  V30 18205 H 1614.18 -1.59634 4.83109 0
M  V30 18206 H 1613.57 -4.47016 3.46689 0
M  V30 18207 H 1612.13 -4.90602 4.2913 0
M  V30 18208 N 1615.56 -1.5737 -0.0851874 0
M  V30 18209 C 1616.5 -1.98027 -1.13404 0
M  V30 18210 C 1617.47 -0.855036 -1.38304 0
M  V30 18211 O 1618.66 -1.11619 -1.51899 0
M  V30 18212 C 1615.79 -2.30553 -2.48119 0
M  V30 18213 C 1614.83 -3.52947 -2.39438 0
M  V30 18214 S 1615.66 -5.04293 -1.80136 0
M  V30 18215 C 1616.82 -5.40006 -3.16456 0
M  V30 18216 H 1617.05 -2.86681 -0.787488 0
M  V30 18217 H 1614.59 -1.5159 -0.293234 0
M  V30 18218 H 1616.54 -2.49968 -3.25617 0
M  V30 18219 H 1615.21 -1.42452 -2.7994 0
M  V30 18220 H 1614.4 -3.73179 -3.38753 0
M  V30 18221 H 1614 -3.33094 -1.70072 0
M  V30 18222 H 1616.29 -5.37257 -4.12748 0
M  V30 18223 H 1617.24 -6.40932 -3.01018 0
M  V30 18224 H 1617.64 -4.67465 -3.16444 0
M  V30 18225 N 1617.04 0.356258 -1.53521 0
M  V30 18226 C 1617.99 1.45718 -1.81298 0
M  V30 18227 C 1618.98 1.55036 -0.682652 0
M  V30 18228 O 1620.19 1.57812 -0.865766 0
M  V30 18229 H 1616.56 0.485614 -0.57418 0
M  V30 18230 H 1618.54 1.19498 -2.73428 0
M  V30 18231 C 1617.28 2.82424 -2.0281 0
M  V30 18232 H 1616.61 2.76016 -2.89232 0
M  V30 18233 H 1618.05 3.5861 -2.26218 0
M  V30 18234 C 1616.51 3.2702 -0.809893 0
M  V30 18235 O 1617.04 4.017 -0.00310668 0
M  V30 18236 N 1615.24 2.83673 -0.630696 0
M  V30 18237 H 1614.79 2.23066 -1.28839 0
M  V30 18238 H 1614.75 3.13867 0.182961 0
M  V30 18239 N 1618.52 1.45038 0.616577 0
M  V30 18240 C 1619.45 1.55858 1.73869 0
M  V30 18241 C 1620.43 0.410657 1.65069 0
M  V30 18242 O 1621.62 0.632652 1.83606 0
M  V30 18243 C 1618.75 1.51635 3.12448 0
M  V30 18244 C 1617.7 2.65053 3.36052 0
M  V30 18245 C 1617.03 2.45883 4.74811 0
M  V30 18246 C 1618.33 4.07121 3.27185 0
M  V30 18247 H 1620.02 2.49784 1.6507 0
M  V30 18248 H 1617.57 1.20216 0.792724 0
M  V30 18249 H 1619.52 1.57803 3.90738 0
M  V30 18250 H 1618.24 0.542342 3.22066 0
M  V30 18251 H 1616.9 2.58299 2.60149 0
M  V30 18252 H 1616.55 1.46641 4.8115 0
M  V30 18253 H 1616.25 3.21935 4.9156 0
M  V30 18254 H 1617.77 2.53892 5.55312 0
M  V30 18255 H 1619.19 4.15167 3.9536 0
M  V30 18256 H 1617.58 4.83491 3.55466 0
M  V30 18257 H 1618.65 4.29663 2.24762 0
M  V30 18258 N 1620 -0.858287 1.32179 0
M  V30 18259 C 1620.93 -1.98219 1.23415 0
M  V30 18260 C 1621.91 -1.69685 0.118779 0
M  V30 18261 O 1623.09 -1.91785 0.305342 0
M  V30 18262 C 1620.22 -3.33977 0.952725 0
M  V30 18263 C 1619.18 -3.76853 2.02894 0
M  V30 18264 C 1618.5 -5.10201 1.59999 0
M  V30 18265 C 1619.8 -3.92707 3.44352 0
M  V30 18266 H 1621.5 -2.05809 2.17446 0
M  V30 18267 H 1619.04 -0.988817 1.04682 0
M  V30 18268 H 1621 -4.12152 0.87798 0
M  V30 18269 H 1619.72 -3.26592 -0.023234 0
M  V30 18270 H 1618.38 -3.00926 2.09378 0
M  V30 18271 H 1618.03 -4.99268 0.61157 0
M  V30 18272 H 1617.73 -5.39859 2.32004 0
M  V30 18273 H 1619.25 -5.90873 1.53954 0
M  V30 18274 H 1620.67 -4.61246 3.40477 0
M  V30 18275 H 1619.06 -4.33779 4.14675 0
M  V30 18276 H 1620.13 -2.95731 3.8428 0
M  V30 18277 N 1621.48 -1.1533 -1.07409 0
M  V30 18278 C 1622.75 -0.838341 -1.76724 0
M  V30 18279 C 1623.13 0.666169 -2.00313 0
M  V30 18280 O 1622.48 1.61033 -1.62113 0
M  V30 18281 C 1622.69 -1.64846 -3.07615 0
M  V30 18282 C 1624.04 -1.85429 -3.8197 0
M  V30 18283 O 1625.06 -1.61617 -3.17424 0
M  V30 18284 O 1623.92 -2.25305 -4.97896 0
M  V30 18285 H 1621.02 -0.308242 -0.767408 0
M  V30 18286 H 1623.56 -1.25905 -1.1378 0
M  V30 18287 H 1622.33 -2.66995 -2.86058 0
M  V30 18288 H 1621.96 -1.22405 -3.78289 0
M  V30 18289 N 1622.95 1.25748 -0.950004 0
M  V30 18290 C 1624.18 1.97127 -0.618432 0
M  V30 18291 C 1624.59 1.70855 0.81272 0
M  V30 18292 O 1623.93 0.978581 1.55465 0
M  V30 18293 C 1624 3.50678 -0.791546 0
M  V30 18294 C 1623.66 4.00617 -2.19899 0
M  V30 18295 C 1624.66 4.11672 -3.17525 0
M  V30 18296 C 1622.34 4.34401 -2.52193 0
M  V30 18297 C 1624.34 4.55818 -4.45543 0
M  V30 18298 C 1622.02 4.78234 -3.80441 0
M  V30 18299 C 1623.02 4.88905 -4.76929 0
M  V30 18300 O 1622.71 5.31768 -6.02891 0
M  V30 18301 H 1622.44 0.635248 -0.231163 0
M  V30 18302 H 1625 1.60997 -1.2755 0
M  V30 18303 H 1623.23 3.86623 -0.0773298 0
M  V30 18304 H 1624.91 4.03265 -0.461719 0
M  V30 18305 H 1625.68 3.85807 -2.93901 0
M  V30 18306 H 1621.56 4.25324 -1.77821 0
M  V30 18307 H 1625.1 4.64062 -5.20857 0
M  V30 18308 H 1621 5.03543 -4.03874 0
M  V30 18309 H 1621.77 5.49966 -6.06201 0
M  V30 18310 N 1624.43 0.718038 1.40292 0
M  V30 18311 C 1625.66 0.267937 2.04855 0
M  V30 18312 C 1626.07 -1.09615 1.54211 0
M  V30 18313 O 1625.41 -1.70055 0.694754 0
M  V30 18314 C 1625.47 0.172691 3.59085 0
M  V30 18315 C 1625.14 1.47246 4.32629 0
M  V30 18316 C 1626.14 2.41487 4.60413 0
M  V30 18317 C 1623.82 1.73207 4.71492 0
M  V30 18318 C 1625.81 3.59932 5.26049 0
M  V30 18319 C 1623.5 2.91933 5.3686 0
M  V30 18320 C 1624.5 3.85118 5.64068 0
M  V30 18321 O 1624.19 5.01762 6.28085 0
M  V30 18322 H 1623.92 0.117734 0.665669 0
M  V30 18323 H 1626.47 0.977621 1.80643 0
M  V30 18324 H 1624.7 -0.592957 3.82127 0
M  V30 18325 H 1626.39 -0.243171 4.05171 0
M  V30 18326 H 1627.16 2.22695 4.3085 0
M  V30 18327 H 1623.04 1.01528 4.49681 0
M  V30 18328 H 1626.58 4.32683 5.47203 0
M  V30 18329 H 1622.48 3.10633 5.65842 0
M  V30 18330 H 1623.25 5.01872 6.46581 0
M  V30 18331 N 1625.91 -1.50602 0.464402 0
M  V30 18332 C 1627.14 -2.07191 -0.0930678 0
M  V30 18333 C 1627.56 -1.32675 -1.33338 0
M  V30 18334 O 1626.92 -0.372453 -1.77433 0
M  V30 18335 C 1626.97 -3.5873 -0.366775 0
M  V30 18336 O 1626.07 -3.86125 -1.44849 0
M  V30 18337 H 1625.41 -0.663924 0.0100336 0
M  V30 18338 H 1627.94 -1.93882 0.653522 0
M  V30 18339 H 1627.95 -4.03425 -0.609258 0
M  V30 18340 H 1626.63 -4.12385 0.539608 0
M  V30 18341 H 1625.2 -3.53273 -1.19384 0
M  V30 18342 N 1627.39 -0.19675 -1.56367 0
M  V30 18343 C 1628.8 0.315555 -1.84014 0
M  V30 18344 C 1629.15 1.61267 -1.11747 0
M  V30 18345 O 1628.28 2.13058 -0.378824 0
M  V30 18346 C 1628.87 0.579307 -3.33811 0
M  V30 18347 C 1627.43 1.03598 -3.61862 0
M  V30 18348 C 1626.58 0.0854845 -2.77168 0
M  V30 18349 H 1629.53 -0.4205 -1.53028 0
M  V30 18350 H 1629.55 1.42841 -3.52671 0
M  V30 18351 H 1629.06 -0.364925 -3.86381 0
M  V30 18352 H 1627.16 1.99443 -3.14727 0
M  V30 18353 H 1627.27 0.927547 -4.70035 0
M  V30 18354 H 1625.64 0.58768 -2.47827 0
M  V30 18355 H 1626.42 -0.853221 -3.32528 0
M  V30 18356 N 1628.87 1.57413 0.0768405 0
M  V30 18357 C 1629.8 1.98626 1.12352 0
M  V30 18358 C 1630.78 0.862359 1.37848 0
M  V30 18359 O 1631.96 1.12423 1.51305 0
M  V30 18360 C 1629.09 2.31866 2.46893 0
M  V30 18361 C 1628.13 3.54212 2.37563 0
M  V30 18362 S 1628.97 5.05241 1.77459 0
M  V30 18363 C 1630.12 5.41677 3.13588 0
M  V30 18364 H 1630.36 2.87094 0.772273 0
M  V30 18365 H 1627.89 1.51743 0.285191 0
M  V30 18366 H 1629.85 2.51691 3.24287 0
M  V30 18367 H 1628.51 1.43935 2.7918 0
M  V30 18368 H 1627.7 3.7497 3.36769 0
M  V30 18369 H 1627.3 3.33991 1.68304 0
M  V30 18370 H 1629.6 5.39439 4.09893 0
M  V30 18371 H 1630.54 6.42519 2.97614 0
M  V30 18372 H 1630.95 4.69136 3.13961 0
M  V30 18373 N 1630.34 -0.348112 1.53707 0
M  V30 18374 C 1631.59 -1.09048 1.70987 0
M  V30 18375 C 1631.92 -1.88444 0.469305 0
M  V30 18376 O 1631.2 -1.87037 -0.533629 0
M  V30 18377 C 1631.48 -2.03542 2.97057 0
M  V30 18378 C 1631.33 -1.27638 4.3131 0
M  V30 18379 C 1632.65 -3.03424 3.18782 0
M  V30 18380 H 1629.77 -0.395049 0.622178 0
M  V30 18381 H 1632.41 -0.369498 1.86373 0
M  V30 18382 H 1630.56 -2.65021 2.8407 0
M  V30 18383 H 1632.24 -0.688079 4.56139 0
M  V30 18384 H 1630.48 -0.578349 4.29927 0
M  V30 18385 H 1631.15 -1.96891 5.15692 0
M  V30 18386 H 1633.63 -2.52056 3.31069 0
M  V30 18387 H 1632.5 -3.66748 4.08396 0
M  V30 18388 H 1632.76 -3.74553 2.34866 0
M  V30 18389 N 1631.82 -1.45363 -0.608876 0
M  V30 18390 C 1632.77 -1.50362 -1.71392 0
M  V30 18391 C 1633.76 -0.367024 -1.56658 0
M  V30 18392 O 1634.95 -0.613796 -1.66017 0
M  V30 18393 C 1632.08 -1.47197 -3.10142 0
M  V30 18394 C 1631.16 -2.66055 -3.30266 0
M  V30 18395 N 1631.55 -3.91168 -3.20657 0
M  V30 18396 C 1629.85 -2.61724 -3.61132 0
M  V30 18397 C 1630.55 -4.70487 -3.42077 0
M  V30 18398 N 1629.53 -4.01921 -3.66006 0
M  V30 18399 H 1633.33 -2.4492 -1.62454 0
M  V30 18400 H 1630.85 -1.40637 -0.812091 0
M  V30 18401 H 1632.84 -1.48864 -3.89416 0
M  V30 18402 H 1631.5 -0.536956 -3.20229 0
M  V30 18403 H 1632.51 -4.22809 -2.99087 0
M  V30 18404 H 1629.19 -1.77124 -3.78065 0
M  V30 18405 H 1630.58 -5.79495 -3.40052 0
M  V30 18406 N 1633.3 0.851265 -1.32632 0
M  V30 18407 C 1634.53 1.64328 -1.26535 0
M  V30 18408 C 1634.95 1.87392 0.163086 0
M  V30 18409 O 1634.31 1.42913 1.1156 0
M  V30 18410 C 1634.36 2.97781 -2.03369 0
M  V30 18411 O 1633.46 3.8849 -1.38381 0
M  V30 18412 H 1632.8 0.500864 -0.435926 0
M  V30 18413 H 1635.33 1.06 -1.75001 0
M  V30 18414 H 1635.34 3.47576 -2.1367 0
M  V30 18415 H 1634.02 2.80316 -3.07239 0
M  V30 18416 H 1632.59 3.4696 -1.36649 0
M  V30 18417 N 1634.78 1.15898 1.06796 0
M  V30 18418 C 1635.69 0.87507 2.17669 0
M  V30 18419 C 1636.7 -0.150763 1.73346 0
M  V30 18420 O 1637.88 0.0246621 2.01385 0
M  V30 18421 C 1634.95 0.374555 3.44671 0
M  V30 18422 C 1634.01 1.46498 4.0353 0
M  V30 18423 C 1633.24 0.988256 5.2447 0
M  V30 18424 O 1633.46 -0.163992 5.70164 0
M  V30 18425 O 1632.4 1.7744 5.75151 0
M  V30 18426 H 1636.22 1.80208 2.44456 0
M  V30 18427 H 1633.81 0.93854 1.1624 0
M  V30 18428 H 1635.69 0.102161 4.21276 0
M  V30 18429 H 1634.36 -0.524513 3.19422 0
M  V30 18430 H 1633.27 1.79105 3.28439 0
M  V30 18431 H 1634.6 2.33917 4.33063 0
M  V30 18432 N 1636.26 -1.25243 0.956659 0
M  V30 18433 C 1637.48 -1.97621 0.629337 0
M  V30 18434 C 1637.91 -1.70606 -0.792158 0
M  V30 18435 O 1637.26 -0.963192 -1.53598 0
M  V30 18436 C 1637.31 -3.49273 0.896687 0
M  V30 18437 O 1636.42 -4.12393 -0.0234986 0
M  V30 18438 H 1635.76 -0.619472 0.239061 0
M  V30 18439 H 1638.29 -1.5931 1.28381 0
M  V30 18440 H 1638.3 -3.99597 0.82377 0
M  V30 18441 H 1636.97 -3.68265 1.93271 0
M  V30 18442 H 1635.55 -3.72761 0.101796 0
M  V30 18443 N 1637.73 -0.725468 -1.3991 0
M  V30 18444 C 1638.68 -0.0555314 -2.27932 0
M  V30 18445 C 1639.67 0.722435 -1.4377 0
M  V30 18446 O 1640.86 0.593011 -1.6677 0
M  V30 18447 C 1637.99 0.858122 -3.32402 0
M  V30 18448 C 1637.08 0.0748146 -4.24034 0
M  V30 18449 N 1637.47 -0.947093 -4.96854 0
M  V30 18450 C 1635.76 0.305902 -4.4495 0
M  V30 18451 C 1636.47 -1.41861 -5.64137 0
M  V30 18452 N 1635.44 -0.738949 -5.38554 0
M  V30 18453 H 1639.24 -0.838606 -2.81682 0
M  V30 18454 H 1636.76 -0.558938 -1.52478 0
M  V30 18455 H 1638.75 1.35347 -3.94318 0
M  V30 18456 H 1637.41 1.64046 -2.80212 0
M  V30 18457 H 1638.43 -1.32821 -5.00579 0
M  V30 18458 H 1635.1 1.06379 -4.0372 0
M  V30 18459 H 1636.49 -2.26829 -6.32454 0
M  V30 18460 N 1639.21 1.50354 -0.472382 0
M  V30 18461 C 1640.45 2.0424 0.0808914 0
M  V30 18462 C 1640.82 1.34648 1.36871 0
M  V30 18463 O 1642.02 1.79096 2.00444 0
M  V30 18464 C 1640.29 3.56459 0.259192 0
M  V30 18465 S 1641.85 4.31976 0.770836 0
M  V30 18466 H 1638.67 0.710834 0.015346 0
M  V30 18467 H 1641.27 1.84734 -0.639816 0
M  V30 18468 H 1639.97 4.04662 -0.683865 0
M  V30 18469 H 1639.5 3.80321 1.00598 0
M  V30 18470 H 1641.52 4.52142 2.04406 0
M  V30 18471 N 1640.69 0.205039 1.56261 0
M  V30 18472 C 1641.62 -0.743854 2.16794 0
M  V30 18473 C 1642.64 -1.16959 1.13245 0
M  V30 18474 O 1643.83 -1.1036 1.40296 0
M  V30 18475 C 1640.93 -2.01717 2.7233 0
M  V30 18476 C 1640.1 -1.74965 4.00882 0
M  V30 18477 C 1639.16 -2.86841 4.41145 0
M  V30 18478 O 1638.18 -2.5602 5.08372 0
M  V30 18479 N 1639.39 -4.15425 4.05466 0
M  V30 18480 H 1642.15 -0.226145 2.98846 0
M  V30 18481 H 1639.71 0.0234276 1.61883 0
M  V30 18482 H 1641.7 -2.7572 2.96244 0
M  V30 18483 H 1640.27 -2.44582 1.94675 0
M  V30 18484 H 1639.49 -0.846903 3.84995 0
M  V30 18485 H 1640.78 -1.54501 4.84775 0
M  V30 18486 H 1640.18 -4.43314 3.5141 0
M  V30 18487 H 1638.74 -4.86023 4.3431 0
M  V30 18488 N 1642.17 -1.57451 -0.0684915 0
M  V30 18489 C 1643.08 -2.07274 -1.09885 0
M  V30 18490 C 1644.1 -1.00295 -1.42186 0
M  V30 18491 O 1645.27 -1.31786 -1.52297 0
M  V30 18492 C 1642.34 -2.50949 -2.39219 0
M  V30 18493 C 1641.4 -3.7224 -2.13859 0
M  V30 18494 C 1640.63 -4.13823 -3.37026 0
M  V30 18495 O 1640.85 -3.55248 -4.46268 0
M  V30 18496 O 1639.79 -5.06587 -3.25044 0
M  V30 18497 H 1643.61 -2.9539 -0.705587 0
M  V30 18498 H 1641.2 -1.46698 -0.282849 0
M  V30 18499 H 1643.08 -2.79547 -3.15327 0
M  V30 18500 H 1641.76 -1.6596 -2.77919 0
M  V30 18501 H 1640.66 -3.4872 -1.35445 0
M  V30 18502 H 1642 -4.58091 -1.80038 0
M  V30 18503 N 1643.65 0.339955 -1.5389 0
M  V30 18504 C 1644.59 1.41765 -1.8213 0
M  V30 18505 C 1645.56 1.52109 -0.667235 0
M  V30 18506 O 1646.75 1.67591 -0.91203 0
M  V30 18507 C 1643.89 2.78366 -2.03977 0
M  V30 18508 C 1643 2.76785 -3.31684 0
M  V30 18509 C 1642.14 4.05125 -3.4358 0
M  V30 18510 C 1641.18 3.97787 -4.65223 0
M  V30 18511 N 1640.31 5.17825 -4.74133 0
M  V30 18512 H 1645.15 1.16984 -2.74078 0
M  V30 18513 H 1642.69 0.566618 -1.35749 0
M  V30 18514 H 1644.65 3.57755 -2.14633 0
M  V30 18515 H 1643.28 3.01491 -1.15338 0
M  V30 18516 H 1642.33 1.89481 -3.2985 0
M  V30 18517 H 1643.64 2.67241 -4.2117 0
M  V30 18518 H 1642.8 4.9294 -3.53688 0
M  V30 18519 H 1641.54 4.17455 -2.52157 0
M  V30 18520 H 1640.54 3.08357 -4.55188 0
M  V30 18521 H 1641.77 3.87037 -5.58014 0
M  V30 18522 H 1639.71 5.30691 -3.8562 0
M  V30 18523 H 1639.63 5.10552 -5.5756 0
M  V30 18524 H 1640.9 6.074 -4.88554 0
M  V30 18525 N 1645.13 1.45684 0.601159 0
M  V30 18526 C 1646.06 1.49342 1.72546 0
M  V30 18527 C 1647.04 0.349184 1.58806 0
M  V30 18528 O 1648.22 0.550634 1.80278 0
M  V30 18529 C 1645.35 1.35455 3.10435 0
M  V30 18530 C 1644.39 2.53826 3.42746 0
M  V30 18531 S 1645.23 4.16269 3.36869 0
M  V30 18532 C 1646.38 4.04858 4.77326 0
M  V30 18533 H 1646.62 2.44469 1.69181 0
M  V30 18534 H 1644.15 1.33345 0.778358 0
M  V30 18535 H 1646.11 1.2813 3.89991 0
M  V30 18536 H 1644.77 0.417881 3.11308 0
M  V30 18537 H 1643.96 2.40053 4.4316 0
M  V30 18538 H 1643.56 2.58046 2.70718 0
M  V30 18539 H 1645.85 3.704 5.67283 0
M  V30 18540 H 1646.8 5.05207 4.96157 0
M  V30 18541 H 1647.21 3.36408 4.5331 0
M  V30 18542 N 1646.6 -0.84422 1.33082 0
M  V30 18543 C 1647.54 -1.96055 1.18722 0
M  V30 18544 C 1648.55 -1.62361 0.119538 0
M  V30 18545 O 1649.74 -1.74634 0.369469 0
M  V30 18546 C 1646.84 -3.29387 0.797318 0
M  V30 18547 C 1646.01 -3.91253 1.95551 0
M  V30 18548 C 1645.07 -5.02932 1.54745 0
M  V30 18549 O 1644.1 -5.22367 2.26101 0
M  V30 18550 N 1645.3 -5.78758 0.449394 0
M  V30 18551 H 1648.06 -2.08912 2.14886 0
M  V30 18552 H 1645.62 -1.01966 1.25756 0
M  V30 18553 H 1647.62 -4.01517 0.506536 0
M  V30 18554 H 1646.19 -3.12514 -0.0734775 0
M  V30 18555 H 1645.41 -3.11779 2.41221 0
M  V30 18556 H 1646.69 -4.2932 2.73061 0
M  V30 18557 H 1646.09 -5.65516 -0.14428 0
M  V30 18558 H 1644.65 -6.51434 0.218264 0
M  V30 18559 N 1648.08 -1.16463 -1.0618 0
M  V30 18560 C 1649.33 -0.948248 -1.79265 0
M  V30 18561 C 1649.66 0.522578 -1.87037 0
M  V30 18562 O 1648.94 1.38772 -1.36282 0
M  V30 18563 C 1649.22 -1.57781 -3.23693 0
M  V30 18564 C 1649.07 -3.12005 -3.23995 0
M  V30 18565 C 1650.39 -1.27343 -4.21274 0
M  V30 18566 H 1647.51 -0.345907 -0.650782 0
M  V30 18567 H 1650.15 -1.4381 -1.24172 0
M  V30 18568 H 1648.3 -1.16126 -3.70738 0
M  V30 18569 H 1649.97 -3.62649 -2.85102 0
M  V30 18570 H 1648.22 -3.45276 -2.62615 0
M  V30 18571 H 1648.89 -3.51176 -4.25886 0
M  V30 18572 H 1651.36 -1.63396 -3.82676 0
M  V30 18573 H 1650.24 -1.73993 -5.20594 0
M  V30 18574 H 1650.5 -0.192469 -4.41681 0
M  V30 18575 N 1649.56 1.24734 -0.963288 0
M  V30 18576 C 1650.49 2.27892 -0.508667 0
M  V30 18577 C 1651.47 1.64055 0.449438 0
M  V30 18578 O 1652.66 1.91083 0.346519 0
M  V30 18579 C 1649.79 3.46688 0.206157 0
M  V30 18580 C 1648.74 4.22762 -0.667534 0
M  V30 18581 C 1648.07 5.34402 0.178529 0
M  V30 18582 C 1649.37 4.84535 -1.94995 0
M  V30 18583 H 1651.06 2.66171 -1.37088 0
M  V30 18584 H 1648.61 1.27952 -0.660622 0
M  V30 18585 H 1650.56 4.17985 0.535391 0
M  V30 18586 H 1649.28 3.07422 1.10269 0
M  V30 18587 H 1647.94 3.53259 -0.979976 0
M  V30 18588 H 1647.59 4.91377 1.07508 0
M  V30 18589 H 1647.29 5.86218 -0.402808 0
M  V30 18590 H 1648.81 6.08529 0.502533 0
M  V30 18591 H 1650.23 5.4793 -1.68658 0
M  V30 18592 H 1648.62 5.46564 -2.47765 0
M  V30 18593 H 1649.69 4.06236 -2.64765 0
M  V30 18594 N 1651.04 0.732878 1.39523 0
M  V30 18595 C 1652.28 0.279891 2.00556 0
M  V30 18596 C 1652.61 -1.13223 1.58148 0
M  V30 18597 O 1651.87 -1.78575 0.800591 0
M  V30 18598 C 1652.17 0.32714 3.559 0
M  V30 18599 C 1651.83 1.69198 4.17951 0
M  V30 18600 C 1650.49 2.06555 4.34613 0
M  V30 18601 C 1652.85 2.58821 4.52395 0
M  V30 18602 C 1650.17 3.33047 4.83008 0
M  V30 18603 C 1652.53 3.84682 5.02197 0
M  V30 18604 C 1651.19 4.22134 5.17068 0
M  V30 18605 H 1650.46 0.102419 0.733888 0
M  V30 18606 H 1653.11 0.939304 1.66881 0
M  V30 18607 H 1651.41 -0.415849 3.89587 0
M  V30 18608 H 1653.11 -0.0414564 4.00979 0
M  V30 18609 H 1649.7 1.39153 4.05382 0
M  V30 18610 H 1653.88 2.31231 4.39142 0
M  V30 18611 H 1649.14 3.6201 4.92706 0
M  V30 18612 H 1653.31 4.54286 5.27823 0
M  V30 18613 H 1650.94 5.20215 5.54329 0
M  V30 18614 N 1652.52 -1.50101 0.480349 0
M  V30 18615 C 1653.76 -2.01567 -0.073165 0
M  V30 18616 C 1654.08 -1.36657 -1.39944 0
M  V30 18617 O 1655.28 -1.79332 -2.03844 0
M  V30 18618 C 1653.74 -3.59445 -0.180889 0
M  V30 18619 C 1653.35 -4.33318 1.1375 0
M  V30 18620 C 1655.09 -4.18923 -0.685868 0
M  V30 18621 C 1653 -5.83003 0.99307 0
M  V30 18622 H 1651.93 -0.753358 -0.0311179 0
M  V30 18623 H 1654.58 -1.72829 0.616648 0
M  V30 18624 H 1652.96 -3.84811 -0.934693 0
M  V30 18625 H 1654.14 -4.1967 1.90299 0
M  V30 18626 H 1652.45 -3.85492 1.57431 0
M  V30 18627 H 1655.05 -5.28512 -0.811109 0
M  V30 18628 H 1655.39 -3.80916 -1.67955 0
M  V30 18629 H 1655.92 -3.97799 0.0108117 0
M  V30 18630 H 1652.66 -6.25499 1.9604 0
M  V30 18631 H 1652.18 -5.992 0.268128 0
M  V30 18632 H 1653.86 -6.4359 0.663417 0
M  V30 18633 N 1653.99 -0.213323 -1.5615 0
M  V30 18634 C 1655.22 0.425688 -2.02473 0
M  V30 18635 C 1655.64 1.53926 -1.09326 0
M  V30 18636 O 1654.99 1.82218 -0.101364 0
M  V30 18637 C 1655.04 0.965021 -3.48381 0
M  V30 18638 O 1654.77 -0.104145 -4.37976 0
M  V30 18639 C 1656.27 1.6781 -4.10311 0
M  V30 18640 H 1653.49 0.105064 -0.662724 0
M  V30 18641 H 1656.03 -0.327369 -2.01863 0
M  V30 18642 H 1654.19 1.66838 -3.49634 0
M  V30 18643 H 1654.6 0.299985 -5.23641 0
M  V30 18644 H 1656.07 2.00757 -5.14199 0
M  V30 18645 H 1656.55 2.58833 -3.54827 0
M  V30 18646 H 1657.16 1.02014 -4.12884 0
M  V30 18647 N 1655.47 1.57485 0.0601405 0
M  V30 18648 C 1656.4 2.07525 1.07031 0
M  V30 18649 C 1657.38 0.971136 1.39653 0
M  V30 18650 O 1658.57 1.24456 1.49078 0
M  V30 18651 C 1655.7 2.52888 2.38044 0
M  V30 18652 C 1654.65 3.67282 2.19745 0
M  V30 18653 C 1653.98 3.98741 3.56244 0
M  V30 18654 C 1655.28 4.96896 1.60908 0
M  V30 18655 H 1656.97 2.92173 0.653875 0
M  V30 18656 H 1654.52 1.40555 0.313083 0
M  V30 18657 H 1656.47 2.8651 3.09014 0
M  V30 18658 H 1655.2 1.65284 2.81689 0
M  V30 18659 H 1653.85 3.33961 1.51213 0
M  V30 18660 H 1653.5 3.08249 3.97481 0
M  V30 18661 H 1653.2 4.75775 3.44836 0
M  V30 18662 H 1654.73 4.34869 4.28627 0
M  V30 18663 H 1656.14 5.28674 2.21758 0
M  V30 18664 H 1654.54 5.78332 1.60164 0
M  V30 18665 H 1655.61 4.81518 0.571671 0
M  V30 18666 N 1656.95 -0.331789 1.54068 0
M  V30 18667 C 1658.37 -0.675628 1.44594 0
M  V30 18668 C 1658.57 -1.91976 0.612166 0
M  V30 18669 O 1657.62 -2.5227 0.107742 0
M  V30 18670 C 1658.94 -0.857303 2.8822 0
M  V30 18671 C 1660.48 -0.955171 2.9807 0
M  V30 18672 C 1660.96 -1.16908 4.42828 0
M  V30 18673 N 1662.45 -1.23601 4.46405 0
M  V30 18674 C 1663.18 -1.41924 5.55558 0
M  V30 18675 N 1662.68 -1.57345 6.74696 0
M  V30 18676 N 1664.47 -1.44566 5.43191 0
M  V30 18677 H 1656.62 0.486058 2.06764 0
M  V30 18678 H 1658.89 0.155605 0.935142 0
M  V30 18679 H 1658.59 -0.0144659 3.51697 0
M  V30 18680 H 1658.47 -1.75558 3.33855 0
M  V30 18681 H 1660.85 -1.78852 2.34725 0
M  V30 18682 H 1660.94 -0.0335425 2.55778 0
M  V30 18683 H 1660.58 -0.340612 5.06757 0
M  V30 18684 H 1660.51 -2.10445 4.82722 0
M  V30 18685 H 1663 -1.13161 3.60559 0
M  V30 18686 H 1663.31 -1.70995 7.53645 0
M  V30 18687 H 1661.66 -1.54458 6.77619 0
M  V30 18688 H 1664.85 -1.3211 4.49071 0
M  V30 18689 H 1665.02 -1.58505 6.28315 0
M  V30 18690 N 1658.43 -1.46001 -0.593424 0
M  V30 18691 C 1659.71 -1.4123 -1.35327 0
M  V30 18692 C 1660.09 -0.0901956 -2.10907 0
M  V30 18693 O 1659.43 0.928102 -2.08803 0
M  V30 18694 C 1659.64 -2.63515 -2.28825 0
M  V30 18695 C 1660.99 -3.09208 -2.90991 0
M  V30 18696 O 1662.02 -2.63988 -2.39142 0
M  V30 18697 O 1660.87 -3.87723 -3.8514 0
M  V30 18698 H 1657.97 -0.561132 -0.607503 0
M  V30 18699 H 1660.51 -1.58151 -0.615333 0
M  V30 18700 H 1659.29 -3.51308 -1.72333 0
M  V30 18701 H 1658.91 -2.48999 -3.09976 0
M  V30 18702 N 1659.91 0.83715 -1.33527 0
M  V30 18703 C 1661.13 1.62976 -1.28271 0
M  V30 18704 C 1661.56 1.87554 0.143201 0
M  V30 18705 O 1660.91 1.44088 1.10038 0
M  V30 18706 C 1660.96 2.95607 -2.06516 0
M  V30 18707 O 1660.07 3.87 -1.42494 0
M  V30 18708 H 1659.41 0.496212 -0.441214 0
M  V30 18709 H 1661.94 1.04137 -1.76115 0
M  V30 18710 H 1661.95 3.4529 -2.17344 0
M  V30 18711 H 1660.62 2.77041 -3.10195 0
M  V30 18712 H 1659.2 3.45492 -1.40321 0
M  V30 18713 N 1661.38 1.17024 1.05561 0
M  V30 18714 C 1662.33 0.88356 2.13218 0
M  V30 18715 C 1663.3 -0.171025 1.65217 0
M  V30 18716 O 1664.49 -0.0346242 1.90769 0
M  V30 18717 C 1661.63 0.398912 3.42787 0
M  V30 18718 C 1660.74 1.51718 4.04482 0
M  V30 18719 C 1659.87 0.986793 5.21954 0
M  V30 18720 C 1658.91 2.08077 5.75648 0
M  V30 18721 N 1658.05 1.56542 6.84426 0
M  V30 18722 H 1662.89 1.80548 2.37079 0
M  V30 18723 H 1660.43 0.90056 1.16311 0
M  V30 18724 H 1662.39 0.0995018 4.17081 0
M  V30 18725 H 1661.02 -0.48605 3.1912 0
M  V30 18726 H 1660.07 1.9324 3.27662 0
M  V30 18727 H 1661.38 2.34243 4.40377 0
M  V30 18728 H 1660.53 0.641006 6.03304 0
M  V30 18729 H 1659.27 0.130942 4.87524 0
M  V30 18730 H 1658.28 2.43517 4.9293 0
M  V30 18731 H 1659.5 2.94071 6.12127 0
M  V30 18732 H 1657.45 0.732221 6.51901 0
M  V30 18733 H 1657.37 2.32677 7.19303 0
M  V30 18734 H 1658.63 1.24844 7.69438 0
M  V30 18735 N 1662.86 -1.24221 0.969889 0
M  V30 18736 C 1663.77 -2.29001 0.509467 0
M  V30 18737 C 1664.79 -1.68587 -0.430637 0
M  V30 18738 O 1665.96 -1.99106 -0.303142 0
M  V30 18739 C 1663.03 -3.46174 -0.190906 0
M  V30 18740 C 1662.09 -4.21982 0.789296 0
M  V30 18741 C 1661.32 -5.3356 0.122252 0
M  V30 18742 O 1661.55 -5.59909 -1.08896 0
M  V30 18743 O 1660.48 -5.9635 0.815517 0
M  V30 18744 H 1664.31 -2.70506 1.38058 0
M  V30 18745 H 1661.89 -1.29955 0.737028 0
M  V30 18746 H 1663.77 -4.1733 -0.584244 0
M  V30 18747 H 1662.45 -3.06642 -1.03695 0
M  V30 18748 H 1661.36 -3.53192 1.23313 0
M  V30 18749 H 1662.69 -4.65337 1.60382 0
M  V30 18750 N 1664.34 -0.740267 -1.39132 0
M  V30 18751 C 1665.25 -0.105452 -2.34363 0
M  V30 18752 C 1666.27 0.715908 -1.5859 0
M  V30 18753 O 1667.44 0.643155 -1.90855 0
M  V30 18754 C 1664.51 0.787141 -3.37646 0
M  V30 18755 C 1663.57 -0.047071 -4.29274 0
M  V30 18756 C 1662.8 0.803014 -5.27624 0
M  V30 18757 O 1663.02 2.04155 -5.32613 0
M  V30 18758 O 1661.96 0.228879 -6.01465 0
M  V30 18759 H 1665.78 -0.891588 -2.90318 0
M  V30 18760 H 1663.37 -0.500996 -1.40749 0
M  V30 18761 H 1665.25 1.29769 -4.00921 0
M  V30 18762 H 1663.93 1.552 -2.84068 0
M  V30 18763 H 1662.83 -0.603265 -3.69204 0
M  V30 18764 H 1664.17 -0.774273 -4.86072 0
M  V30 18765 N 1665.82 1.49844 -0.488302 0
M  V30 18766 C 1666.77 2.30515 0.310703 0
M  V30 18767 C 1667.76 1.38559 0.974569 0
M  V30 18768 O 1668.97 1.5567 0.903708 0
M  V30 18769 H 1665.34 0.742517 0.119049 0
M  V30 18770 H 1667.31 2.95842 -0.389849 0
M  V30 18771 C 1666.06 3.19575 1.36994 0
M  V30 18772 H 1665.38 3.90253 0.868497 0
M  V30 18773 H 1666.82 3.78984 1.90123 0
M  V30 18774 C 1665.28 2.38324 2.38124 0
M  V30 18775 O 1665.81 2.07842 3.43751 0
M  V30 18776 N 1664.02 2.00583 2.10273 0
M  V30 18777 H 1663.57 2.25572 1.24399 0
M  V30 18778 H 1663.52 1.46525 2.78169 0
M  V30 18779 N 1667.3 0.221601 1.56034 0
M  V30 18780 C 1668.71 -0.133783 1.59038 0
M  V30 18781 C 1668.91 -1.58952 1.23841 0
M  V30 18782 O 1667.97 -2.32972 0.973677 0
M  V30 18783 C 1669.28 0.192549 3.00083 0
M  V30 18784 C 1670.83 0.134791 3.1271 0
M  V30 18785 C 1671.3 0.434799 4.55931 0
M  V30 18786 N 1672.8 0.384372 4.61602 0
M  V30 18787 C 1673.53 0.59 5.70357 0
M  V30 18788 N 1673.03 0.857405 6.87474 0
M  V30 18789 N 1674.82 0.522433 5.59667 0
M  V30 18790 H 1666.97 1.17124 1.77189 0
M  V30 18791 H 1669.23 0.46946 0.823597 0
M  V30 18792 H 1668.94 1.20292 3.30488 0
M  V30 18793 H 1668.81 -0.49243 3.73972 0
M  V30 18794 H 1671.2 -0.866221 2.821 0
M  V30 18795 H 1671.28 0.853247 2.4115 0
M  V30 18796 H 1670.93 1.43325 4.87258 0
M  V30 18797 H 1670.86 -0.304849 5.25717 0
M  V30 18798 H 1673.35 0.185389 3.77445 0
M  V30 18799 H 1673.66 1.00241 7.66271 0
M  V30 18800 H 1672 0.894599 6.89218 0
M  V30 18801 H 1675.2 0.313754 4.67047 0
M  V30 18802 H 1675.37 0.686094 6.44358 0
M  V30 18803 N 1668.77 -1.57515 -0.0517878 0
M  V30 18804 C 1670 -1.92845 -0.763249 0
M  V30 18805 C 1670.42 -0.819745 -1.69298 0
M  V30 18806 O 1669.78 0.226161 -1.79884 0
M  V30 18807 C 1669.83 -3.27189 -1.5159 0
M  V30 18808 O 1668.93 -3.17834 -2.62783 0
M  V30 18809 H 1668.28 -0.630944 -0.206896 0
M  V30 18810 H 1670.81 -2.04595 -0.0140481 0
M  V30 18811 H 1670.82 -3.61542 -1.89081 0
M  V30 18812 H 1669.49 -4.07455 -0.833871 0
M  V30 18813 H 1668.07 -2.95075 -2.28002 0
M  V30 18814 N 1670.25 0.323614 -1.54242 0
M  V30 18815 C 1671.16 1.42128 -1.86646 0
M  V30 18816 C 1672.18 1.56603 -0.758385 0
M  V30 18817 O 1673.36 1.717 -1.05267 0
M  V30 18818 C 1670.42 2.76842 -2.08709 0
M  V30 18819 C 1669.48 2.71543 -3.3251 0
M  V30 18820 C 1668.71 3.99833 -3.5351 0
M  V30 18821 O 1668.94 4.98095 -2.77952 0
M  V30 18822 O 1667.87 4.03095 -4.46988 0
M  V30 18823 H 1671.7 1.17653 -2.79985 0
M  V30 18824 H 1669.28 0.517632 -1.40146 0
M  V30 18825 H 1671.16 3.56588 -2.24551 0
M  V30 18826 H 1669.84 3.01207 -1.18558 0
M  V30 18827 H 1668.75 1.90348 -3.22053 0
M  V30 18828 H 1670.08 2.52133 -4.22717 0
M  V30 18829 N 1671.73 1.46313 0.585673 0
M  V30 18830 C 1672.98 1.50738 1.34019 0
M  V30 18831 C 1673.29 0.162245 1.94926 0
M  V30 18832 O 1674.5 0.0842676 2.71369 0
M  V30 18833 C 1672.96 2.65592 2.42876 0
M  V30 18834 C 1672.56 4.06513 1.88285 0
M  V30 18835 C 1674.31 2.79284 3.19689 0
M  V30 18836 C 1672.21 5.12712 2.94754 0
M  V30 18837 H 1671.14 0.560979 0.503804 0
M  V30 18838 H 1673.8 1.72516 0.625344 0
M  V30 18839 H 1672.18 2.37138 3.17146 0
M  V30 18840 H 1673.35 4.44744 1.20578 0
M  V30 18841 H 1671.67 3.97462 1.2415 0
M  V30 18842 H 1674.26 3.55795 3.99142 0
M  V30 18843 H 1674.61 1.86694 3.7209 0
M  V30 18844 H 1675.14 3.0737 2.52525 0
M  V30 18845 H 1671.88 6.07084 2.47244 0
M  V30 18846 H 1671.4 4.79028 3.6096 0
M  V30 18847 H 1673.08 5.38426 3.58757 0
M  V30 18848 N 1673.21 -0.830057 1.33969 0
M  V30 18849 C 1674.17 -1.92206 1.24858 0
M  V30 18850 C 1675.17 -1.59946 0.16549 0
M  V30 18851 O 1676.36 -1.6912 0.417629 0
M  V30 18852 C 1673.49 -3.28082 0.926029 0
M  V30 18853 H 1674.69 -2.01708 2.21932 0
M  V30 18854 H 1672.24 -1.02319 1.18154 0
M  V30 18855 H 1672.98 -3.24273 -0.0418364 0
M  V30 18856 H 1672.76 -3.52878 1.70938 0
M  V30 18857 H 1674.25 -4.08065 0.887263 0
M  V30 18858 N 1674.69 -1.17582 -1.04939 0
M  V30 18859 C 1675.62 -0.852608 -2.12752 0
M  V30 18860 C 1676.63 0.14607 -1.62143 0
M  V30 18861 O 1677.82 -0.0805751 -1.78318 0
M  V30 18862 C 1674.92 -0.251083 -3.37969 0
M  V30 18863 C 1674.09 -1.29325 -4.17844 0
M  V30 18864 C 1673.15 -0.709025 -5.21401 0
M  V30 18865 O 1672.18 -1.38149 -5.52181 0
M  V30 18866 N 1673.38 0.497716 -5.78362 0
M  V30 18867 H 1676.15 -1.78054 -2.41074 0
M  V30 18868 H 1673.71 -1.07502 -1.21058 0
M  V30 18869 H 1675.7 0.15312 -4.0441 0
M  V30 18870 H 1674.27 0.580684 -3.07159 0
M  V30 18871 H 1673.49 -1.87311 -3.46855 0
M  V30 18872 H 1674.78 -1.99614 -4.68008 0
M  V30 18873 H 1674.18 1.06196 -5.55643 0
M  V30 18874 H 1672.73 0.843951 -6.46313 0
M  V30 18875 N 1676.17 1.23705 -0.976463 0
M  V30 18876 C 1677.11 2.25023 -0.513156 0
M  V30 18877 C 1678.08 1.60003 0.445903 0
M  V30 18878 O 1679.27 1.87481 0.354323 0
M  V30 18879 C 1676.41 3.44619 0.182088 0
M  V30 18880 C 1675.52 4.24209 -0.816769 0
M  V30 18881 C 1674.66 5.31112 -0.0967355 0
M  V30 18882 C 1673.69 6.02406 -1.08507 0
M  V30 18883 N 1672.83 7.00991 -0.394455 0
M  V30 18884 H 1677.67 2.64019 -1.38194 0
M  V30 18885 H 1675.21 1.29777 -0.692566 0
M  V30 18886 H 1677.17 4.12835 0.601948 0
M  V30 18887 H 1675.8 3.06435 1.01477 0
M  V30 18888 H 1674.85 3.55448 -1.35503 0
M  V30 18889 H 1676.16 4.73445 -1.57006 0
M  V30 18890 H 1675.31 6.05504 0.380686 0
M  V30 18891 H 1674.05 4.82806 0.689187 0
M  V30 18892 H 1673.06 5.26809 -1.57328 0
M  V30 18893 H 1674.28 6.528 -1.87159 0
M  V30 18894 H 1672.23 6.54943 0.372331 0
M  V30 18895 H 1672.15 7.48152 -1.08647 0
M  V30 18896 H 1673.41 7.79476 0.0607087 0
M  V30 18897 N 1677.64 0.747635 1.38738 0
M  V30 18898 C 1678.89 0.301593 2.00545 0
M  V30 18899 C 1679.22 -1.11208 1.59205 0
M  V30 18900 O 1678.5 -1.76052 0.826806 0
M  V30 18901 C 1678.78 0.417739 3.57669 0
M  V30 18902 C 1678.63 1.87209 4.0899 0
M  V30 18903 C 1679.95 -0.192403 4.39679 0
M  V30 18904 H 1677.07 0.11106 0.728584 0
M  V30 18905 H 1679.71 0.946162 1.64766 0
M  V30 18906 H 1677.86 -0.131024 3.88279 0
M  V30 18907 H 1679.54 2.4787 3.89048 0
M  V30 18908 H 1677.78 2.38917 3.62079 0
M  V30 18909 H 1678.45 1.90455 5.18103 0
M  V30 18910 H 1680.93 0.27554 4.15187 0
M  V30 18911 H 1679.8 -0.0808605 5.4884 0
M  V30 18912 H 1680.06 -1.28 4.23165 0
M  V30 18913 N 1679.12 -1.49583 0.496242 0
M  V30 18914 C 1680.07 -2.29037 -0.284716 0
M  V30 18915 C 1681.04 -1.35217 -0.964661 0
M  V30 18916 O 1682.22 -1.64171 -0.972244 0
M  V30 18917 C 1679.36 -3.17767 -1.34603 0
M  V30 18918 C 1678.48 -4.26641 -0.67834 0
M  V30 18919 C 1677.61 -5.02594 -1.71969 0
M  V30 18920 C 1676.65 -6.0331 -1.03361 0
M  V30 18921 N 1675.79 -6.72446 -2.01894 0
M  V30 18922 H 1680.63 -2.95316 0.399084 0
M  V30 18923 H 1678.16 -1.45613 0.208653 0
M  V30 18924 H 1680.12 -3.67583 -1.97329 0
M  V30 18925 H 1678.75 -2.53483 -1.99866 0
M  V30 18926 H 1677.8 -3.80349 0.0620953 0
M  V30 18927 H 1679.12 -4.98609 -0.138028 0
M  V30 18928 H 1678.27 -5.56254 -2.42212 0
M  V30 18929 H 1677.01 -4.30388 -2.29385 0
M  V30 18930 H 1676.01 -5.48886 -0.316925 0
M  V30 18931 H 1677.24 -6.77499 -0.466009 0
M  V30 18932 H 1675.19 -6.03015 -2.58281 0
M  V30 18933 H 1675.1 -7.40373 -1.52916 0
M  V30 18934 H 1676.37 -7.30712 -2.7144 0
M  V30 18935 N 1680.6 -0.229873 -1.55915 0
M  V30 18936 C 1681.82 0.4072 -2.03363 0
M  V30 18937 C 1682.25 1.5197 -1.10845 0
M  V30 18938 O 1681.61 1.81034 -0.098175 0
M  V30 18939 C 1681.66 0.908268 -3.48974 0
M  V30 18940 O 1680.76 2.01907 -3.59593 0
M  V30 18941 H 1680.1 0.091091 -0.657722 0
M  V30 18942 H 1682.63 -0.350947 -2.01568 0
M  V30 18943 H 1682.64 1.21593 -3.8946 0
M  V30 18944 H 1681.32 0.0940655 -4.15794 0
M  V30 18945 H 1679.89 1.71741 -3.30998 0
M  V30 18946 N 1682.08 1.5754 0.0434337 0
M  V30 18947 C 1683.04 2.046 1.03303 0
M  V30 18948 C 1684.04 0.947648 1.29909 0
M  V30 18949 O 1685.23 1.21171 1.25153 0
M  V30 18950 C 1682.36 2.45077 2.36961 0
M  V30 18951 H 1683.56 2.93276 0.626822 0
M  V30 18952 H 1681.11 1.53588 0.289909 0
M  V30 18953 H 1681.84 1.59513 2.82358 0
M  V30 18954 H 1681.63 3.25252 2.18983 0
M  V30 18955 H 1683.12 2.81963 3.08037 0
M  V30 18956 N 1683.56 -0.31543 1.54411 0
M  V30 18957 C 1684.79 -1.07018 1.76722 0
M  V30 18958 C 1685.19 -1.81921 0.519754 0
M  V30 18959 O 1684.54 -1.76201 -0.519501 0
M  V30 18960 C 1684.6 -2.10781 2.91224 0
M  V30 18961 C 1684.26 -1.55204 4.29838 0
M  V30 18962 C 1685.26 -0.989568 5.10395 0
M  V30 18963 C 1682.94 -1.59201 4.76403 0
M  V30 18964 C 1684.94 -0.474466 6.35632 0
M  V30 18965 C 1682.63 -1.07304 6.01605 0
M  V30 18966 C 1683.62 -0.51522 6.81054 0
M  V30 18967 O 1683.31 -0.00407259 8.039 0
M  V30 18968 H 1683.04 -0.323799 0.593406 0
M  V30 18969 H 1685.6 -0.364708 2.02136 0
M  V30 18970 H 1683.83 -2.84968 2.614 0
M  V30 18971 H 1685.52 -2.72043 3.01243 0
M  V30 18972 H 1686.28 -0.951691 4.75571 0
M  V30 18973 H 1682.16 -2.01559 4.14602 0
M  V30 18974 H 1685.71 -0.0384139 6.97589 0
M  V30 18975 H 1681.6 -1.10802 6.35919 0
M  V30 18976 H 1682.37 -0.118732 8.18414 0
M  V30 18977 N 1685.03 -1.46622 -0.577906 0
M  V30 18978 C 1686.26 -1.55534 -1.35988 0
M  V30 18979 C 1686.67 -0.197065 -1.88171 0
M  V30 18980 O 1686.02 0.816609 -1.64551 0
M  V30 18981 C 1686.08 -2.5035 -2.58002 0
M  V30 18982 C 1685.74 -3.96491 -2.27253 0
M  V30 18983 C 1686.74 -4.85567 -1.85797 0
M  V30 18984 C 1684.42 -4.41662 -2.39249 0
M  V30 18985 C 1686.42 -6.17828 -1.56738 0
M  V30 18986 C 1684.1 -5.73956 -2.09803 0
M  V30 18987 C 1685.1 -6.6186 -1.68613 0
M  V30 18988 O 1684.79 -7.91698 -1.3953 0
M  V30 18989 H 1684.52 -0.528412 -0.421612 0
M  V30 18990 H 1687.08 -1.92774 -0.709038 0
M  V30 18991 H 1685.31 -2.08137 -3.25908 0
M  V30 18992 H 1687 -2.49616 -3.20073 0
M  V30 18993 H 1687.76 -4.51924 -1.76039 0
M  V30 18994 H 1683.64 -3.73462 -2.70272 0
M  V30 18995 H 1687.18 -6.86398 -1.24514 0
M  V30 18996 H 1683.08 -6.07147 -2.19187 0
M  V30 18997 H 1683.85 -8.04009 -1.53335 0
M  V30 18998 N 1686.51 0.822941 -1.34408 0
M  V30 18999 C 1687.44 1.94142 -1.21826 0
M  V30 19000 C 1688.46 1.6215 -0.145353 0
M  V30 19001 O 1689.65 1.74025 -0.397205 0
M  V30 19002 C 1686.75 3.28077 -0.849619 0
M  V30 19003 C 1685.92 3.88092 -2.0175 0
M  V30 19004 C 1684.98 5.00406 -1.62726 0
M  V30 19005 O 1684 5.18703 -2.34383 0
M  V30 19006 N 1685.21 5.7797 -0.541413 0
M  V30 19007 H 1687.97 2.05467 -2.18182 0
M  V30 19008 H 1685.53 0.999521 -1.27362 0
M  V30 19009 H 1687.52 4.00661 -0.57035 0
M  V30 19010 H 1686.09 3.12591 0.0237499 0
M  V30 19011 H 1685.31 3.07902 -2.46151 0
M  V30 19012 H 1686.6 4.24921 -2.79856 0
M  V30 19013 H 1686 5.65674 0.0542929 0
M  V30 19014 H 1684.56 6.51005 -0.321874 0
M  V30 19015 N 1687.99 1.18137 1.04314 0
M  V30 19016 C 1689.23 0.986144 1.79038 0
M  V30 19017 C 1689.59 -0.476023 1.86005 0
M  V30 19018 O 1690.8 -0.790612 2.5691 0
M  V30 19019 C 1689.07 1.62008 3.18572 0
M  V30 19020 S 1690.63 1.57227 4.09665 0
M  V30 19021 H 1687.44 0.354181 0.616503 0
M  V30 19022 H 1690.05 1.50237 1.25096 0
M  V30 19023 H 1688.75 2.67655 3.11109 0
M  V30 19024 H 1688.28 1.10403 3.77591 0
M  V30 19025 H 1690.3 0.586418 4.92723 0
M  V30 19026 N 1689.47 -1.23186 0.98301 0
M  V30 19027 C 1690.42 -2.24748 0.525082 0
M  V30 19028 C 1691.39 -1.60237 -0.437411 0
M  V30 19029 O 1692.57 -1.87666 -0.344376 0
M  V30 19030 C 1689.71 -3.44711 -0.163809 0
M  V30 19031 C 1688.82 -4.23769 0.839254 0
M  V30 19032 C 1687.96 -5.31053 0.1249 0
M  V30 19033 C 1687 -6.01822 1.117 0
M  V30 19034 N 1686.13 -7.00772 0.431625 0
M  V30 19035 H 1690.97 -2.63283 1.39593 0
M  V30 19036 H 1688.51 -1.29407 0.699438 0
M  V30 19037 H 1690.47 -4.13148 -0.580046 0
M  V30 19038 H 1689.1 -3.06969 -0.998507 0
M  V30 19039 H 1688.15 -3.54724 1.37386 0
M  V30 19040 H 1689.46 -4.72606 1.59515 0
M  V30 19041 H 1688.62 -6.05698 -0.348569 0
M  V30 19042 H 1687.36 -4.83165 -0.663573 0
M  V30 19043 H 1686.36 -5.25967 1.6012 0
M  V30 19044 H 1687.59 -6.51799 1.90618 0
M  V30 19045 H 1685.53 -6.55131 -0.337592 0
M  V30 19046 H 1685.45 -7.47566 1.12613 0
M  V30 19047 H 1686.72 -7.79498 -0.0193703 0
M  V30 19048 N 1690.95 -0.754982 -1.38339 0
M  V30 19049 C 1691.88 -0.143678 -2.33058 0
M  V30 19050 C 1692.86 0.702022 -1.54938 0
M  V30 19051 O 1694.04 0.642922 -1.83249 0
M  V30 19052 C 1691.17 0.749194 -3.39123 0
M  V30 19053 C 1690.13 0.00611459 -4.28 0
M  V30 19054 C 1689.45 1.01733 -5.24933 0
M  V30 19055 C 1690.75 -1.1631 -5.09185 0
M  V30 19056 H 1692.45 -0.934907 -2.84429 0
M  V30 19057 H 1689.99 -0.451023 -1.36754 0
M  V30 19058 H 1691.95 1.18653 -4.04351 0
M  V30 19059 H 1690.67 1.57276 -2.86237 0
M  V30 19060 H 1689.33 -0.411816 -3.6428 0
M  V30 19061 H 1688.98 1.83499 -4.68334 0
M  V30 19062 H 1688.68 0.524783 -5.85252 0
M  V30 19063 H 1690.2 1.45395 -5.93037 0
M  V30 19064 H 1691.61 -0.803244 -5.67645 0
M  V30 19065 H 1690.01 -1.5866 -5.78746 0
M  V30 19066 H 1691.08 -1.97533 -4.42842 0
M  V30 19067 N 1692.42 1.49318 -0.504168 0
M  V30 19068 C 1693.7 1.95332 0.102393 0
M  V30 19069 C 1694.08 1.44576 1.53821 0
M  V30 19070 O 1693.43 0.660894 2.18734 0
M  V30 19071 C 1693.64 3.48998 0.0117694 0
M  V30 19072 C 1694.99 4.24201 0.184101 0
M  V30 19073 O 1696.01 3.56094 0.0868056 0
M  V30 19074 O 1694.87 5.45147 0.384267 0
M  V30 19075 H 1691.96 0.821691 0.0935582 0
M  V30 19076 H 1694.51 1.5995 -0.566932 0
M  V30 19077 H 1693.28 3.78585 -0.989413 0
M  V30 19078 H 1692.91 3.91006 0.7211 0
M  V30 19079 N 1693.9 0.238138 1.5579 0
M  V30 19080 C 1695.13 -0.392852 2.02831 0
M  V30 19081 C 1695.54 -1.52714 1.11692 0
M  V30 19082 O 1694.88 -1.83294 0.122034 0
M  V30 19083 C 1694.95 -0.970383 3.46156 0
M  V30 19084 C 1694.61 0.0305457 4.5699 0
M  V30 19085 C 1695.61 0.836938 5.13119 0
M  V30 19086 C 1693.29 0.154102 5.02064 0
M  V30 19087 C 1695.29 1.75343 6.12808 0
M  V30 19088 C 1692.97 1.07411 6.01586 0
M  V30 19089 C 1693.97 1.8723 6.56836 0
M  V30 19090 O 1693.66 2.77681 7.54419 0
M  V30 19091 H 1693.39 -0.0985571 0.668777 0
M  V30 19092 H 1695.94 0.356979 2.02274 0
M  V30 19093 H 1694.17 -1.76961 3.43834 0
M  V30 19094 H 1695.86 -1.51053 3.76747 0
M  V30 19095 H 1696.63 0.752021 4.79134 0
M  V30 19096 H 1692.51 -0.457094 4.58728 0
M  V30 19097 H 1696.05 2.37687 6.55859 0
M  V30 19098 H 1691.95 1.15998 6.34992 0
M  V30 19099 H 1692.72 2.71943 7.72003 0
M  V30 19100 N 1695.38 -1.57561 -0.0350783 0
M  V30 19101 C 1696.61 -1.92971 -0.737958 0
M  V30 19102 C 1697.02 -0.835771 -1.6974 0
M  V30 19103 O 1696.36 0.19703 -1.8264 0
M  V30 19104 C 1696.42 -3.24138 -1.55482 0
M  V30 19105 C 1696.09 -4.50622 -0.760818 0
M  V30 19106 C 1697.08 -5.19861 -0.0637364 0
M  V30 19107 C 1694.77 -4.97154 -0.717134 0
M  V30 19108 C 1696.76 -6.33907 0.666395 0
M  V30 19109 C 1694.45 -6.11098 0.0167462 0
M  V30 19110 C 1695.45 -6.79328 0.707276 0
M  V30 19111 O 1695.14 -7.91093 1.42925 0
M  V30 19112 H 1694.87 -0.641628 -0.212814 0
M  V30 19113 H 1697.42 -2.054 0.00152065 0
M  V30 19114 H 1695.65 -3.08019 -2.33798 0
M  V30 19115 H 1697.34 -3.44919 -2.13976 0
M  V30 19116 H 1698.11 -4.84919 -0.0885544 0
M  V30 19117 H 1693.99 -4.43895 -1.24411 0
M  V30 19118 H 1697.53 -6.87098 1.20592 0
M  V30 19119 H 1693.43 -6.45485 0.0435085 0
M  V30 19120 H 1694.2 -8.07418 1.34231 0
M  V30 19121 N 1696.86 0.307236 -1.54576 0
M  V30 19122 C 1697.81 1.3787 -1.85096 0
M  V30 19123 C 1698.78 1.5066 -0.69935 0
M  V30 19124 O 1699.96 1.65618 -0.947373 0
M  V30 19125 C 1697.1 2.73976 -2.09836 0
M  V30 19126 C 1696.21 2.69687 -3.3748 0
M  V30 19127 C 1695.35 3.97746 -3.52096 0
M  V30 19128 C 1694.39 3.87829 -4.73556 0
M  V30 19129 N 1693.52 5.07651 -4.8501 0
M  V30 19130 H 1698.36 1.11144 -2.76498 0
M  V30 19131 H 1695.9 0.537696 -1.36921 0
M  V30 19132 H 1697.86 3.53121 -2.22174 0
M  V30 19133 H 1696.49 2.98977 -1.21707 0
M  V30 19134 H 1695.54 1.82441 -3.33795 0
M  V30 19135 H 1696.85 2.58247 -4.26743 0
M  V30 19136 H 1696.01 4.85327 -3.64065 0
M  V30 19137 H 1694.75 4.12012 -2.60955 0
M  V30 19138 H 1693.75 2.98633 -4.61626 0
M  V30 19139 H 1694.98 3.75114 -5.66098 0
M  V30 19140 H 1692.92 5.22393 -3.9679 0
M  V30 19141 H 1692.84 4.9861 -5.68264 0
M  V30 19142 H 1694.11 5.969 -5.01328 0
M  V30 19143 N 1698.34 1.46926 0.570122 0
M  V30 19144 C 1699.28 1.5883 1.69929 0
M  V30 19145 C 1700.28 0.456167 1.63143 0
M  V30 19146 O 1701.48 0.633503 1.68484 0
M  V30 19147 H 1697.86 0.499606 0.562048 0
M  V30 19148 H 1699.83 2.53744 1.57023 0
M  V30 19149 C 1698.58 1.60761 3.08304 0
M  V30 19150 H 1697.9 2.47219 3.14202 0
M  V30 19151 H 1699.34 1.73142 3.87037 0
M  V30 19152 C 1697.8 0.338515 3.35195 0
M  V30 19153 O 1698.33 -0.565917 3.97694 0
M  V30 19154 N 1696.54 0.222525 2.89747 0
M  V30 19155 H 1696.08 0.959435 2.39066 0
M  V30 19156 H 1696.04 -0.625697 3.08111 0
M  V30 19157 N 1699.82 -0.815801 1.34842 0
M  V30 19158 C 1700.77 -1.9162 1.23555 0
M  V30 19159 C 1701.75 -1.6035 0.132922 0
M  V30 19160 O 1702.94 -1.73232 0.363269 0
M  V30 19161 C 1700.07 -3.284 1.00043 0
M  V30 19162 C 1699.16 -3.65765 2.14655 0
M  V30 19163 N 1699.55 -3.74639 3.39822 0
M  V30 19164 C 1697.85 -3.9566 2.05837 0
M  V30 19165 C 1698.55 -4.07478 4.15135 0
M  V30 19166 N 1697.52 -4.21075 3.43797 0
M  V30 19167 H 1701.32 -1.96669 2.184 0
M  V30 19168 H 1698.84 -1.00987 1.27183 0
M  V30 19169 H 1700.84 -4.07059 0.900462 0
M  V30 19170 H 1699.5 -3.24643 0.0607337 0
M  V30 19171 H 1700.51 -3.57951 3.74288 0
M  V30 19172 H 1697.18 -3.99982 1.19667 0
M  V30 19173 H 1698.57 -4.21488 5.23257 0
M  V30 19174 N 1701.29 -1.18689 -1.03686 0
M  V30 19175 C 1702.24 -0.885273 -2.10112 0
M  V30 19176 C 1703.23 0.146598 -1.60231 0
M  V30 19177 O 1704.42 -0.0579783 -1.76905 0
M  V30 19178 C 1701.55 -0.416977 -3.40758 0
M  V30 19179 C 1700.63 -1.48114 -3.97396 0
M  V30 19180 N 1701.03 -2.69857 -4.27798 0
M  V30 19181 C 1699.32 -1.34255 -4.25314 0
M  V30 19182 C 1700.02 -3.38349 -4.73175 0
M  V30 19183 N 1699 -2.65735 -4.74222 0
M  V30 19184 H 1702.8 -1.81067 -2.31499 0
M  V30 19185 H 1700.32 -1.07786 -1.21474 0
M  V30 19186 H 1702.31 -0.182385 -4.16501 0
M  V30 19187 H 1700.97 0.502036 -3.20795 0
M  V30 19188 H 1701.98 -3.0669 -4.17327 0
M  V30 19189 H 1698.66 -0.486374 -4.14657 0
M  V30 19190 H 1700.05 -4.42415 -5.05686 0
M  V30 19191 N 1702.77 1.22662 -0.989529 0
M  V30 19192 C 1704 1.95883 -0.681511 0
M  V30 19193 C 1704.42 1.72646 0.746646 0
M  V30 19194 O 1703.78 1.00358 1.5099 0
M  V30 19195 C 1703.83 3.46773 -0.988975 0
M  V30 19196 O 1702.93 4.12311 -0.0858485 0
M  V30 19197 H 1702.27 0.612916 -0.255401 0
M  V30 19198 H 1704.8 1.5585 -1.32559 0
M  V30 19199 H 1704.81 3.97273 -0.929426 0
M  V30 19200 H 1703.49 3.63011 -2.02967 0
M  V30 19201 H 1702.06 3.7236 -0.200592 0
M  V30 19202 N 1704.25 0.762308 1.37937 0
M  V30 19203 C 1705.53 0.247502 1.94028 0
M  V30 19204 C 1705.91 -1.25581 1.69684 0
M  V30 19205 O 1705.25 -2.03446 1.04028 0
M  V30 19206 C 1705.46 0.610643 3.43616 0
M  V30 19207 C 1706.81 0.57515 4.20687 0
M  V30 19208 O 1707.84 0.549461 3.51937 0
M  V30 19209 O 1706.7 0.593825 5.43264 0
M  V30 19210 H 1703.79 0.0544389 0.825206 0
M  V30 19211 H 1706.34 0.843021 1.47279 0
M  V30 19212 H 1705.11 1.64853 3.54879 0
M  V30 19213 H 1704.73 -0.0124265 3.97598 0
M  V30 19214 N 1705.73 -1.49049 0.51208 0
M  V30 19215 C 1706.97 -2.0248 -0.0284889 0
M  V30 19216 C 1707.3 -1.39082 -1.35965 0
M  V30 19217 O 1706.56 -0.519593 -1.88676 0
M  V30 19218 C 1706.86 -3.56734 -0.218125 0
M  V30 19219 C 1706.52 -4.38827 1.03643 0
M  V30 19220 C 1705.18 -4.60979 1.38029 0
M  V30 19221 C 1707.54 -4.86505 1.86982 0
M  V30 19222 C 1704.86 -5.28055 2.55686 0
M  V30 19223 C 1707.22 -5.54876 3.03801 0
M  V30 19224 C 1705.88 -5.75271 3.38555 0
M  V30 19225 H 1705.15 -0.740927 -0.0104248 0
M  V30 19226 H 1707.8 -1.79229 0.674481 0
M  V30 19227 H 1706.1 -3.78725 -1.00372 0
M  V30 19228 H 1707.8 -3.9568 -0.651013 0
M  V30 19229 H 1704.39 -4.21833 0.758594 0
M  V30 19230 H 1708.57 -4.69209 1.61729 0
M  V30 19231 H 1703.83 -5.42046 2.82837 0
M  V30 19232 H 1708 -5.90793 3.68696 0
M  V30 19233 H 1705.63 -6.2702 4.29825 0
M  V30 19234 N 1707.21 -0.246397 -1.55662 0
M  V30 19235 C 1708.45 0.378973 -1.98108 0
M  V30 19236 C 1708.77 1.59106 -1.13775 0
M  V30 19237 O 1709.97 2.28754 -1.46232 0
M  V30 19238 C 1708.43 0.725634 -3.52509 0
M  V30 19239 C 1708.04 -0.465024 -4.4558 0
M  V30 19240 C 1709.78 1.31522 -4.03611 0
M  V30 19241 C 1707.69 -0.0945447 -5.91324 0
M  V30 19242 H 1706.62 0.14537 -0.739854 0
M  V30 19243 H 1709.27 -0.346533 -1.80198 0
M  V30 19244 H 1707.65 1.50925 -3.66111 0
M  V30 19245 H 1708.83 -1.24236 -4.43736 0
M  V30 19246 H 1707.14 -0.969507 -4.04956 0
M  V30 19247 H 1709.74 1.60573 -5.1002 0
M  V30 19248 H 1710.08 2.23952 -3.50929 0
M  V30 19249 H 1710.61 0.594515 -3.93332 0
M  V30 19250 H 1707.35 -0.985965 -6.48042 0
M  V30 19251 H 1706.87 0.646601 -5.96305 0
M  V30 19252 H 1708.55 0.323447 -6.46191 0
M  V30 19253 N 1708.68 1.57577 0.026722 0
M  V30 19254 C 1709.63 2.03179 1.03452 0
M  V30 19255 C 1710.62 0.921533 1.31896 0
M  V30 19256 O 1711.81 1.18542 1.31442 0
M  V30 19257 C 1708.94 2.51666 2.33493 0
M  V30 19258 C 1708.02 3.69517 2.08129 0
M  V30 19259 N 1708.42 4.82158 1.52832 0
M  V30 19260 C 1706.71 3.76936 2.38402 0
M  V30 19261 C 1707.41 5.63766 1.43327 0
M  V30 19262 N 1706.39 5.08953 1.90965 0
M  V30 19263 H 1710.19 2.87689 0.601036 0
M  V30 19264 H 1707.71 1.6072 0.232979 0
M  V30 19265 H 1709.7 2.82597 3.06503 0
M  V30 19266 H 1708.36 1.68564 2.77518 0
M  V30 19267 H 1709.37 5.0355 1.21071 0
M  V30 19268 H 1706.05 3.04637 2.85486 0
M  V30 19269 H 1707.44 6.64259 1.01043 0
M  V30 19270 N 1710.16 -0.299034 1.54737 0
M  V30 19271 C 1711.58 -0.644805 1.45995 0
M  V30 19272 C 1711.78 -1.90634 0.652749 0
M  V30 19273 O 1710.83 -2.51985 0.161228 0
M  V30 19274 C 1712.15 -0.795974 2.89974 0
M  V30 19275 C 1713.69 -0.891731 3.00029 0
M  V30 19276 C 1714.17 -1.07488 4.45208 0
M  V30 19277 N 1715.66 -1.14104 4.48926 0
M  V30 19278 C 1716.4 -1.30108 5.58444 0
M  V30 19279 N 1715.89 -1.42998 6.77882 0
M  V30 19280 N 1717.68 -1.33012 5.46136 0
M  V30 19281 H 1709.84 0.529806 2.05686 0
M  V30 19282 H 1712.1 0.175406 0.931631 0
M  V30 19283 H 1711.8 0.0601375 3.51649 0
M  V30 19284 H 1711.68 -1.68437 3.37504 0
M  V30 19285 H 1714.07 -1.73833 2.38466 0
M  V30 19286 H 1714.15 0.0207194 2.55792 0
M  V30 19287 H 1713.79 -0.233045 5.07365 0
M  V30 19288 H 1713.72 -2.00159 4.87077 0
M  V30 19289 H 1716.21 -1.05488 3.62878 0
M  V30 19290 H 1716.52 -1.5497 7.57102 0
M  V30 19291 H 1714.87 -1.4005 6.80743 0
M  V30 19292 H 1718.06 -1.22555 4.51772 0
M  V30 19293 H 1718.23 -1.45141 6.31536 0
M  V30 19294 N 1711.64 -1.47227 -0.562322 0
M  V30 19295 C 1712.89 -1.52851 -1.31604 0
M  V30 19296 C 1713.2 -0.193236 -1.94643 0
M  V30 19297 O 1714.41 -0.127429 -2.71201 0
M  V30 19298 C 1712.86 -2.69422 -2.3862 0
M  V30 19299 C 1712.47 -4.09457 -1.81794 0
M  V30 19300 C 1714.22 -2.84334 -3.15205 0
M  V30 19301 C 1712.12 -5.17337 -2.8656 0
M  V30 19302 H 1711.05 -0.568923 -0.494816 0
M  V30 19303 H 1713.7 -1.73489 -0.597819 0
M  V30 19304 H 1712.09 -2.42153 -3.13333 0
M  V30 19305 H 1713.26 -4.46606 -1.13487 0
M  V30 19306 H 1711.57 -3.99387 -1.17811 0
M  V30 19307 H 1714.17 -3.621 -3.93431 0
M  V30 19308 H 1714.51 -1.9259 -3.69073 0
M  V30 19309 H 1715.05 -3.11348 -2.47603 0
M  V30 19310 H 1711.79 -6.1094 -2.37554 0
M  V30 19311 H 1711.31 -4.8471 -3.53293 0
M  V30 19312 H 1712.99 -5.44065 -3.50146 0
M  V30 19313 N 1713.12 0.808639 -1.35273 0
M  V30 19314 C 1714.07 1.90962 -1.24569 0
M  V30 19315 C 1715.05 1.60277 -0.141424 0
M  V30 19316 O 1716.24 1.73037 -0.372451 0
M  V30 19317 C 1713.37 3.27864 -1.01783 0
M  V30 19318 C 1712.46 3.64622 -2.16592 0
M  V30 19319 N 1712.85 3.72831 -3.41805 0
M  V30 19320 C 1711.15 3.94563 -2.07932 0
M  V30 19321 C 1711.85 4.05271 -4.1729 0
M  V30 19322 N 1710.82 4.19246 -3.46025 0
M  V30 19323 H 1714.63 1.95508 -2.1944 0
M  V30 19324 H 1712.14 1.00311 -1.27716 0
M  V30 19325 H 1714.14 4.06576 -0.922037 0
M  V30 19326 H 1712.8 3.24606 -0.0779494 0
M  V30 19327 H 1713.81 3.55961 -3.76181 0
M  V30 19328 H 1710.49 3.99342 -1.21787 0
M  V30 19329 H 1711.88 4.18707 -5.25485 0
M  V30 19330 N 1714.6 1.19237 1.03055 0
M  V30 19331 C 1716.01 0.996569 1.57878 0
M  V30 19332 C 1716.36 -0.450987 1.90946 0
M  V30 19333 O 1715.48 -1.33009 1.70697 0
M  V30 19334 C 1716.08 1.80272 2.86858 0
M  V30 19335 C 1714.64 1.65097 3.3826 0
M  V30 19336 C 1713.78 1.79079 2.11721 0
M  V30 19337 H 1716.74 1.33633 0.856037 0
M  V30 19338 H 1716.76 1.29781 3.57683 0
M  V30 19339 H 1716.27 2.85621 2.62759 0
M  V30 19340 H 1714.37 0.623267 3.6735 0
M  V30 19341 H 1714.48 2.45527 4.11404 0
M  V30 19342 H 1712.85 1.22124 2.23512 0
M  V30 19343 H 1713.63 2.85885 1.90065 0
M  V30 19344 N 1716.07 -1.22136 0.99602 0
M  V30 19345 C 1717.02 -2.262 0.541868 0
M  V30 19346 C 1718.02 -1.64387 -0.409047 0
M  V30 19347 O 1719.22 -1.7779 -0.281224 0
M  V30 19348 H 1715.6 -0.73546 0.156851 0
M  V30 19349 H 1717.57 -2.61853 1.43092 0
M  V30 19350 C 1716.32 -3.47476 -0.124723 0
M  V30 19351 H 1715.64 -3.95303 0.597934 0
M  V30 19352 H 1717.08 -4.22053 -0.405902 0
M  V30 19353 C 1715.54 -3.08183 -1.36105 0
M  V30 19354 O 1716.07 -3.17862 -2.45615 0
M  V30 19355 N 1714.28 -2.62936 -1.23746 0
M  V30 19356 H 1713.82 -2.5526 -0.346394 0
M  V30 19357 H 1713.78 -2.37014 -2.06572 0
M  V30 19358 N 1717.55 -0.769612 -1.37531 0
M  V30 19359 C 1718.83 -0.257788 -1.93894 0
M  V30 19360 C 1719.21 1.24679 -1.70348 0
M  V30 19361 O 1718.56 2.02892 -1.05106 0
M  V30 19362 C 1718.77 -0.628857 -3.43288 0
M  V30 19363 C 1720.12 -0.597452 -4.20376 0
M  V30 19364 O 1721.14 -0.568117 -3.5164 0
M  V30 19365 O 1720 -0.622627 -5.42942 0
M  V30 19366 H 1717.09 -0.0588144 -0.824906 0
M  V30 19367 H 1719.64 -0.85082 -1.4683 0
M  V30 19368 H 1718.41 -1.66733 -3.54 0
M  V30 19369 H 1718.03 -0.00865929 -3.97599 0
M  V30 19370 N 1719.03 1.48775 -0.519977 0
M  V30 19371 C 1720.28 2.02492 0.0177505 0
M  V30 19372 C 1720.61 1.39801 1.35226 0
M  V30 19373 O 1719.86 0.529591 1.88398 0
M  V30 19374 C 1720.16 3.56844 0.199204 0
M  V30 19375 C 1719.83 4.38271 -1.05968 0
M  V30 19376 C 1718.49 4.6024 -1.40472 0
M  V30 19377 C 1720.84 4.85507 -1.89559 0
M  V30 19378 C 1718.17 5.26691 -2.58483 0
M  V30 19379 C 1720.52 5.53257 -3.0674 0
M  V30 19380 C 1719.18 5.73468 -3.41601 0
M  V30 19381 H 1718.45 0.740972 0.00649536 0
M  V30 19382 H 1721.1 1.78869 -0.683977 0
M  V30 19383 H 1719.41 3.79252 0.983617 0
M  V30 19384 H 1721.1 3.9602 0.63002 0
M  V30 19385 H 1717.69 4.21425 -0.780955 0
M  V30 19386 H 1721.88 4.68345 -1.64215 0
M  V30 19387 H 1717.13 5.40538 -2.85707 0
M  V30 19388 H 1721.31 5.88829 -3.71824 0
M  V30 19389 H 1718.93 6.24732 -4.33144 0
M  V30 19390 N 1720.51 0.254649 1.55529 0
M  V30 19391 C 1721.44 -0.635656 2.24681 0
M  V30 19392 C 1722.42 -1.17519 1.22977 0
M  V30 19393 O 1723.6 -1.21311 1.51649 0
M  V30 19394 C 1720.73 -1.82922 2.95224 0
M  V30 19395 C 1719.69 -1.42212 4.03683 0
M  V30 19396 C 1719.01 -2.69713 4.61691 0
M  V30 19397 C 1720.31 -0.587436 5.18986 0
M  V30 19398 H 1722.01 -0.0590063 2.99342 0
M  V30 19399 H 1719.55 -0.02694 1.43975 0
M  V30 19400 H 1721.51 -2.45777 3.42304 0
M  V30 19401 H 1720.23 -2.43137 2.18064 0
M  V30 19402 H 1718.89 -0.81687 3.57383 0
M  V30 19403 H 1718.54 -3.28143 3.81223 0
M  V30 19404 H 1718.24 -2.43194 5.34911 0
M  V30 19405 H 1719.76 -3.33453 5.11509 0
M  V30 19406 H 1721.18 -1.12048 5.62244 0
M  V30 19407 H 1719.57 -0.417988 5.98643 0
M  V30 19408 H 1720.64 0.398577 4.83259 0
M  V30 19409 N 1721.99 -1.57589 -0.0183649 0
M  V30 19410 C 1722.93 -2.08354 -1.03398 0
M  V30 19411 C 1723.93 -0.999575 -1.36766 0
M  V30 19412 O 1725.13 -1.18438 -1.35545 0
M  V30 19413 H 1721.51 -0.665046 -0.351023 0
M  V30 19414 H 1723.48 -2.92707 -0.580111 0
M  V30 19415 C 1722.23 -2.58713 -2.32299 0
M  V30 19416 H 1721.55 -3.41744 -2.07487 0
M  V30 19417 H 1722.99 -2.97932 -3.01683 0
M  V30 19418 C 1721.45 -1.49307 -3.02008 0
M  V30 19419 O 1721.98 -0.865426 -3.92267 0
M  V30 19420 N 1720.19 -1.225 -2.63519 0
M  V30 19421 H 1719.73 -1.73724 -1.90205 0
M  V30 19422 H 1719.69 -0.495132 -3.10477 0
M  V30 19423 N 1723.46 0.290824 -1.54893 0
M  V30 19424 C 1724.41 1.37898 -1.87315 0
M  V30 19425 C 1725.41 1.52001 -0.747794 0
M  V30 19426 O 1726.61 1.53998 -0.93192 0
M  V30 19427 H 1722.99 0.460824 -0.59426 0
M  V30 19428 H 1724.96 1.07794 -2.7825 0
M  V30 19429 C 1723.71 2.73568 -2.14606 0
M  V30 19430 H 1723.03 2.63501 -3.00678 0
M  V30 19431 H 1724.47 3.48693 -2.41225 0
M  V30 19432 C 1722.93 3.23291 -0.947865 0
M  V30 19433 O 1723.46 4.01325 -0.173479 0
M  V30 19434 N 1721.67 2.80743 -0.750444 0
M  V30 19435 H 1721.21 2.174 -1.38184 0
M  V30 19436 H 1721.17 3.14361 0.0496746 0
M  V30 19437 N 1724.94 1.47523 0.554506 0
M  V30 19438 C 1725.89 1.60213 1.66134 0
M  V30 19439 C 1726.86 0.445051 1.60027 0
M  V30 19440 O 1728.04 0.665449 1.7882 0
M  V30 19441 C 1725.18 1.62491 3.04452 0
M  V30 19442 C 1724.3 2.89134 3.20976 0
M  V30 19443 C 1723.43 2.82731 4.49707 0
M  V30 19444 C 1722.47 4.04187 4.59673 0
M  V30 19445 N 1721.61 3.96004 5.79763 0
M  V30 19446 H 1726.45 2.54744 1.54626 0
M  V30 19447 H 1723.99 1.26355 0.753189 0
M  V30 19448 H 1725.94 1.61795 3.84549 0
M  V30 19449 H 1724.57 0.714698 3.14789 0
M  V30 19450 H 1723.63 2.99685 2.34292 0
M  V30 19451 H 1724.94 3.79069 3.24203 0
M  V30 19452 H 1724.09 2.80299 5.38068 0
M  V30 19453 H 1722.83 1.90483 4.48963 0
M  V30 19454 H 1721.84 4.06921 3.69724 0
M  V30 19455 H 1723.06 4.97565 4.62175 0
M  V30 19456 H 1721.01 3.06561 5.79962 0
M  V30 19457 H 1720.92 4.7962 5.8438 0
M  V30 19458 H 1722.19 3.97593 6.70478 0
M  V30 19459 N 1726.42 -0.801453 1.357 0
M  V30 19460 C 1727.67 -1.5611 1.29451 0
M  V30 19461 C 1728 -1.93768 -0.129412 0
M  V30 19462 O 1727.27 -1.6176 -1.08 0
M  V30 19463 C 1727.56 -2.84628 2.20588 0
M  V30 19464 C 1727.41 -2.53413 3.71621 0
M  V30 19465 C 1728.73 -3.86369 2.10729 0
M  V30 19466 H 1725.85 -0.56638 0.471575 0
M  V30 19467 H 1728.49 -0.921701 1.66147 0
M  V30 19468 H 1726.64 -3.39192 1.89424 0
M  V30 19469 H 1728.31 -2.04993 4.1325 0
M  V30 19470 H 1726.56 -1.86531 3.91649 0
M  V30 19471 H 1727.23 -3.45152 4.30783 0
M  V30 19472 H 1729.7 -3.41219 2.38136 0
M  V30 19473 H 1728.58 -4.74062 2.76688 0
M  V30 19474 H 1728.84 -4.28431 1.09083 0
M  V30 19475 N 1727.9 -1.19782 -1.02421 0
M  V30 19476 C 1729.13 -1.02721 -1.79254 0
M  V30 19477 C 1729.54 0.426969 -1.84319 0
M  V30 19478 O 1728.88 1.30832 -1.28953 0
M  V30 19479 C 1728.94 -1.52594 -3.25508 0
M  V30 19480 C 1728.61 -3.00778 -3.44066 0
M  V30 19481 C 1729.6 -3.98502 -3.33905 0
M  V30 19482 C 1727.29 -3.39572 -3.7013 0
M  V30 19483 C 1729.28 -5.33012 -3.49539 0
M  V30 19484 C 1726.97 -4.7424 -3.85408 0
M  V30 19485 C 1727.97 -5.70769 -3.75116 0
M  V30 19486 O 1727.65 -7.02997 -3.89937 0
M  V30 19487 H 1727.39 -0.362151 -0.570808 0
M  V30 19488 H 1729.94 -1.5914 -1.2986 0
M  V30 19489 H 1728.17 -0.90555 -3.75948 0
M  V30 19490 H 1729.86 -1.31671 -3.8395 0
M  V30 19491 H 1730.63 -3.69875 -3.13715 0
M  V30 19492 H 1726.5 -2.64986 -3.77231 0
M  V30 19493 H 1730.05 -6.0834 -3.41421 0
M  V30 19494 H 1725.95 -5.02561 -4.05096 0
M  V30 19495 H 1726.71 -7.10136 -4.07 0
M  V30 19496 N 1729.38 1.21606 -1.00248 0
M  V30 19497 C 1730.62 1.9089 -0.684765 0
M  V30 19498 C 1730.96 1.77749 0.78224 0
M  V30 19499 O 1730.23 1.15251 1.56676 0
M  V30 19500 C 1730.51 3.42778 -1.1034 0
M  V30 19501 C 1730.37 3.64923 -2.62967 0
M  V30 19502 C 1731.69 4.35064 -0.663877 0
M  V30 19503 H 1728.81 0.693217 -0.250239 0
M  V30 19504 H 1731.45 1.4329 -1.24772 0
M  V30 19505 H 1729.6 3.83449 -0.624415 0
M  V30 19506 H 1731.27 3.33595 -3.18609 0
M  V30 19507 H 1729.51 3.08874 -3.04596 0
M  V30 19508 H 1730.18 4.71335 -2.87311 0
M  V30 19509 H 1732.66 4.01962 -1.07544 0
M  V30 19510 H 1731.54 5.3999 -0.984987 0
M  V30 19511 H 1731.8 4.39954 0.435095 0
M  V30 19512 N 1730.86 0.776895 1.37121 0
M  V30 19513 C 1731.79 0.180738 2.32799 0
M  V30 19514 C 1732.77 -0.677284 1.56035 0
M  V30 19515 O 1733.95 -0.613687 1.84249 0
M  V30 19516 C 1731.08 -0.695148 3.40272 0
M  V30 19517 C 1730.04 0.0619772 4.27955 0
M  V30 19518 C 1729.36 -0.933688 5.26485 0
M  V30 19519 C 1730.66 1.24396 5.0727 0
M  V30 19520 H 1732.36 0.980039 2.82906 0
M  V30 19521 H 1729.9 0.472722 1.3602 0
M  V30 19522 H 1731.85 -1.12205 4.06187 0
M  V30 19523 H 1730.58 -1.52702 2.88703 0
M  V30 19524 H 1729.24 0.469717 3.63578 0
M  V30 19525 H 1728.89 -1.76025 4.71194 0
M  V30 19526 H 1728.59 -0.431608 5.86013 0
M  V30 19527 H 1730.11 -1.35942 5.95275 0
M  V30 19528 H 1731.52 0.89345 5.66295 0
M  V30 19529 H 1729.92 1.67848 5.76149 0
M  V30 19530 H 1730.99 2.04553 4.39643 0
M  V30 19531 N 1732.33 -1.48497 0.527859 0
M  V30 19532 C 1733.28 -2.2959 -0.23607 0
M  V30 19533 C 1734.25 -1.37232 -0.935762 0
M  V30 19534 O 1735.44 -1.66196 -0.937202 0
M  V30 19535 C 1732.58 -3.20551 -1.27832 0
M  V30 19536 C 1731.69 -4.27984 -0.58769 0
M  V30 19537 C 1730.82 -5.06128 -1.61269 0
M  V30 19538 C 1729.86 -6.05367 -0.905404 0
M  V30 19539 N 1729 -6.76577 -1.87585 0
M  V30 19540 H 1733.84 -2.94403 0.461635 0
M  V30 19541 H 1731.38 -1.45137 0.239493 0
M  V30 19542 H 1733.33 -3.71686 -1.89488 0
M  V30 19543 H 1731.96 -2.57665 -1.94444 0
M  V30 19544 H 1731.02 -3.80132 0.142759 0
M  V30 19545 H 1732.33 -4.9879 -0.0322348 0
M  V30 19546 H 1731.48 -5.61266 -2.30359 0
M  V30 19547 H 1730.22 -4.35157 -2.20204 0
M  V30 19548 H 1729.23 -5.49435 -0.200426 0
M  V30 19549 H 1730.45 -6.78335 -0.322197 0
M  V30 19550 H 1728.4 -6.08358 -2.45432 0
M  V30 19551 H 1728.31 -7.4345 -1.37178 0
M  V30 19552 H 1729.58 -7.36305 -2.5588 0
M  V30 19553 N 1733.81 -0.262893 -1.55392 0
M  V30 19554 C 1734.74 0.66288 -2.19405 0
M  V30 19555 C 1735.76 1.12675 -1.17508 0
M  V30 19556 O 1736.95 1.05077 -1.44295 0
M  V30 19557 C 1734.05 1.91471 -2.79628 0
M  V30 19558 C 1733.22 1.59966 -4.07099 0
M  V30 19559 C 1732.28 2.7027 -4.51487 0
M  V30 19560 O 1731.3 2.36976 -5.17524 0
M  V30 19561 N 1732.51 4.0009 -4.20605 0
M  V30 19562 H 1735.27 0.115075 -2.99479 0
M  V30 19563 H 1732.83 -0.0834933 -1.61685 0
M  V30 19564 H 1734.82 2.64535 -3.06273 0
M  V30 19565 H 1733.39 2.37188 -2.03619 0
M  V30 19566 H 1732.61 0.703431 -3.87873 0
M  V30 19567 H 1733.9 1.36402 -4.90175 0
M  V30 19568 H 1733.3 4.29966 -3.67621 0
M  V30 19569 H 1731.86 4.69569 -4.52049 0
M  V30 19570 N 1735.29 1.57597 0.0100073 0
M  V30 19571 C 1736.7 1.78287 0.554143 0
M  V30 19572 C 1737.05 0.896332 1.74529 0
M  V30 19573 O 1736.18 0.0961505 2.16186 0
M  V30 19574 C 1736.77 3.23331 1.01206 0
M  V30 19575 C 1735.33 3.45152 1.50157 0
M  V30 19576 C 1734.48 2.73654 0.448221 0
M  V30 19577 H 1737.43 1.57221 -0.216189 0
M  V30 19578 H 1737.45 3.30893 1.87856 0
M  V30 19579 H 1736.96 3.87829 0.144921 0
M  V30 19580 H 1735.06 2.85854 2.38994 0
M  V30 19581 H 1735.18 4.53813 1.53594 0
M  V30 19582 H 1733.54 2.3798 0.907603 0
M  V30 19583 H 1734.32 3.40846 -0.40978 0
M  V30 19584 N 1736.77 -0.282606 1.55045 0
M  V30 19585 C 1738 -1.03245 1.78952 0
M  V30 19586 C 1738.41 -1.80777 0.558225 0
M  V30 19587 O 1737.75 -1.77264 -0.482009 0
M  V30 19588 C 1737.81 -2.04557 2.95629 0
M  V30 19589 C 1737.47 -1.46051 4.33034 0
M  V30 19590 C 1738.47 -0.881083 5.1238 0
M  V30 19591 C 1736.16 -1.4906 4.79673 0
M  V30 19592 C 1738.15 -0.339532 6.36495 0
M  V30 19593 C 1735.84 -0.945189 6.03746 0
M  V30 19594 C 1736.84 -0.370643 6.81994 0
M  V30 19595 O 1736.52 0.166447 8.03728 0
M  V30 19596 H 1736.26 -0.311139 0.60014 0
M  V30 19597 H 1738.81 -0.32175 2.02864 0
M  V30 19598 H 1737.04 -2.79359 2.67386 0
M  V30 19599 H 1738.73 -2.65592 3.06946 0
M  V30 19600 H 1739.49 -0.850602 4.77483 0
M  V30 19601 H 1735.37 -1.92719 4.18784 0
M  V30 19602 H 1738.92 0.109564 6.97514 0
M  V30 19603 H 1734.81 -0.972878 6.38126 0
M  V30 19604 H 1735.58 0.054892 8.18482 0
M  V30 19605 N 1738.25 -1.47815 -0.546675 0
M  V30 19606 C 1739.48 -1.58384 -1.32658 0
M  V30 19607 C 1739.88 -0.236934 -1.87711 0
M  V30 19608 O 1739.23 0.781521 -1.66247 0
M  V30 19609 C 1739.29 -2.55766 -2.52634 0
M  V30 19610 C 1738.95 -4.01222 -2.18791 0
M  V30 19611 C 1739.95 -4.89399 -1.75455 0
M  V30 19612 C 1737.63 -4.46637 -2.29827 0
M  V30 19613 C 1739.63 -6.21014 -1.43598 0
M  V30 19614 C 1737.32 -5.78277 -1.97582 0
M  V30 19615 C 1738.31 -6.65288 -1.54536 0
M  V30 19616 O 1738 -7.9448 -1.22706 0
M  V30 19617 H 1737.73 -0.537236 -0.410309 0
M  V30 19618 H 1740.29 -1.94235 -0.667988 0
M  V30 19619 H 1738.52 -2.15003 -3.2142 0
M  V30 19620 H 1740.21 -2.56349 -3.14706 0
M  V30 19621 H 1740.97 -4.55556 -1.66414 0
M  V30 19622 H 1736.85 -3.79111 -2.62289 0
M  V30 19623 H 1740.4 -6.88885 -1.09926 0
M  V30 19624 H 1736.29 -6.1166 -2.06259 0
M  V30 19625 H 1737.06 -8.07081 -1.36246 0
M  V30 19626 N 1739.72 0.794246 -1.36123 0
M  V30 19627 C 1740.65 1.92105 -1.32732 0
M  V30 19628 C 1741.63 1.68925 -0.199603 0
M  V30 19629 O 1742.82 1.90109 -0.396498 0
M  V30 19630 C 1739.95 3.29051 -1.11098 0
M  V30 19631 C 1738.9 3.66743 -2.20643 0
M  V30 19632 C 1738.23 5.01986 -1.84159 0
M  V30 19633 C 1739.53 3.75831 -3.62696 0
M  V30 19634 H 1741.22 1.952 -2.27018 0
M  V30 19635 H 1738.77 0.937746 -1.09281 0
M  V30 19636 H 1740.72 4.07494 -1.07362 0
M  V30 19637 H 1739.45 3.26331 -0.132614 0
M  V30 19638 H 1738.11 2.90594 -2.23497 0
M  V30 19639 H 1737.75 4.95782 -0.849081 0
M  V30 19640 H 1737.45 5.28175 -2.57497 0
M  V30 19641 H 1738.98 5.82855 -1.8197 0
M  V30 19642 H 1740.39 4.44476 -3.62096 0
M  V30 19643 H 1738.79 4.135 -4.34899 0
M  V30 19644 H 1739.86 2.7706 -3.97952 0
M  V30 19645 N 1741.2 1.20323 1.01785 0
M  V30 19646 C 1742.13 0.894265 2.09948 0
M  V30 19647 C 1743.11 -0.15315 1.61877 0
M  V30 19648 O 1744.3 -0.0270078 1.88481 0
M  V30 19649 C 1741.42 0.3404 3.36985 0
M  V30 19650 C 1740.47 1.36861 4.03945 0
M  V30 19651 S 1741.3 2.9332 4.48022 0
M  V30 19652 C 1742.46 2.39506 5.78263 0
M  V30 19653 H 1742.69 1.81026 2.35833 0
M  V30 19654 H 1740.22 1.03157 1.14883 0
M  V30 19655 H 1742.18 0.0273874 4.10491 0
M  V30 19656 H 1740.84 -0.554073 3.09174 0
M  V30 19657 H 1740.04 0.930418 4.95337 0
M  V30 19658 H 1739.64 1.62903 3.36658 0
M  V30 19659 H 1741.93 1.7919 6.53374 0
M  V30 19660 H 1742.87 3.2929 6.26876 0
M  V30 19661 H 1743.28 1.81678 5.34465 0
M  V30 19662 N 1742.68 -1.21073 1.00892 0
M  V30 19663 C 1743.9 -1.94774 0.712588 0
M  V30 19664 C 1744.33 -1.73812 -0.719085 0
M  V30 19665 O 1743.69 -1.02747 -1.49374 0
M  V30 19666 C 1743.74 -3.45156 1.04402 0
M  V30 19667 O 1742.84 -4.12122 0.151433 0
M  V30 19668 H 1742.18 -0.608775 0.26512 0
M  V30 19669 H 1744.71 -1.53721 1.35022 0
M  V30 19670 H 1744.72 -3.95744 0.992511 0
M  V30 19671 H 1743.4 -3.59736 2.08716 0
M  V30 19672 H 1741.97 -3.71994 0.259805 0
M  V30 19673 N 1744.16 -0.784156 -1.36707 0
M  V30 19674 C 1745.11 -0.166827 -2.32001 0
M  V30 19675 C 1746.1 0.670916 -1.55548 0
M  V30 19676 O 1747.31 0.566588 -1.7085 0
M  V30 19677 H 1743.68 -0.0351691 -0.751177 0
M  V30 19678 H 1745.65 -0.986074 -2.81637 0
M  V30 19679 C 1744.4 0.6881 -3.40823 0
M  V30 19680 H 1743.72 0.0528343 -3.99765 0
M  V30 19681 H 1745.16 1.08681 -4.09835 0
M  V30 19682 C 1743.62 1.84408 -2.81949 0
M  V30 19683 O 1744.15 2.94034 -2.73691 0
M  V30 19684 N 1742.36 1.64855 -2.39314 0
M  V30 19685 H 1741.91 0.756867 -2.4623 0
M  V30 19686 H 1741.86 2.42363 -2.00268 0
M  V30 19687 N 1745.64 1.48215 -0.535727 0
M  V30 19688 C 1746.88 2.028 -0.00373305 0
M  V30 19689 C 1747.22 1.41143 1.33388 0
M  V30 19690 O 1746.49 0.559227 1.86287 0
M  V30 19691 C 1746.77 3.59925 0.112186 0
M  V30 19692 C 1746.63 4.32053 -1.251 0
M  V30 19693 C 1747.95 4.32083 0.836177 0
M  V30 19694 H 1745.06 0.736995 -0.00283063 0
M  V30 19695 H 1747.71 1.76877 -0.693868 0
M  V30 19696 H 1745.86 3.82142 0.69996 0
M  V30 19697 H 1747.53 4.21238 -1.88033 0
M  V30 19698 H 1745.77 3.93246 -1.83139 0
M  V30 19699 H 1746.44 5.4046 -1.12283 0
M  V30 19700 H 1748.92 4.1473 0.337333 0
M  V30 19701 H 1747.79 5.41699 0.886196 0
M  V30 19702 H 1748.06 3.99772 1.88771 0
M  V30 19703 N 1747.11 0.27113 1.5525 0
M  V30 19704 C 1748.53 -0.2274 1.8531 0
M  V30 19705 C 1748.88 -1.55752 1.19314 0
M  V30 19706 O 1748 -2.11008 0.480046 0
M  V30 19707 C 1748.6 -0.419382 3.36194 0
M  V30 19708 C 1747.16 -0.862149 3.66393 0
M  V30 19709 C 1746.3 0.0468534 2.7726 0
M  V30 19710 H 1749.25 0.493032 1.50847 0
M  V30 19711 H 1749.27 -1.25852 3.59084 0
M  V30 19712 H 1748.79 0.548856 3.84199 0
M  V30 19713 H 1746.89 -1.842 3.23884 0
M  V30 19714 H 1747 -0.702231 4.73926 0
M  V30 19715 H 1745.36 -0.468769 2.50349 0
M  V30 19716 H 1746.15 1.0109 3.28079 0
M  V30 19717 N 1748.59 -1.576 -0.00164943 0
M  V30 19718 C 1749.52 -2.11354 -0.992554 0
M  V30 19719 C 1750.5 -1.0223 -1.35952 0
M  V30 19720 O 1751.69 -1.29904 -1.44356 0
M  V30 19721 C 1748.82 -2.61549 -2.28494 0
M  V30 19722 C 1747.77 -3.75185 -2.05962 0
M  V30 19723 C 1747.1 -4.11688 -3.412 0
M  V30 19724 C 1748.4 -5.02526 -1.42355 0
M  V30 19725 H 1750.09 -2.94398 -0.544986 0
M  V30 19726 H 1747.64 -1.4162 -0.260702 0
M  V30 19727 H 1749.59 -2.97782 -2.98168 0
M  V30 19728 H 1748.32 -1.75625 -2.75361 0
M  V30 19729 H 1746.97 -3.39343 -1.38714 0
M  V30 19730 H 1746.62 -3.22789 -3.85767 0
M  V30 19731 H 1746.32 -4.88246 -3.2694 0
M  V30 19732 H 1747.85 -4.50478 -4.12192 0
M  V30 19733 H 1749.26 -5.3654 -2.01984 0
M  V30 19734 H 1747.66 -5.83878 -1.38589 0
M  V30 19735 H 1748.73 -4.83308 -0.392565 0
M  V30 19736 N 1750.07 0.274379 -1.55193 0
M  V30 19737 C 1751.02 1.35903 -1.88767 0
M  V30 19738 C 1752.01 1.512 -0.763874 0
M  V30 19739 O 1753.22 1.53 -0.948201 0
M  V30 19740 H 1749.59 0.454495 -0.599114 0
M  V30 19741 H 1751.56 1.04837 -2.79378 0
M  V30 19742 C 1750.31 2.71277 -2.17496 0
M  V30 19743 H 1749.64 2.60297 -3.03456 0
M  V30 19744 H 1751.08 3.46115 -2.44909 0
M  V30 19745 C 1749.54 3.22268 -0.982101 0
M  V30 19746 O 1750.07 4.01119 -0.216035 0
M  V30 19747 N 1748.27 2.79931 -0.780179 0
M  V30 19748 H 1747.82 2.15923 -1.40482 0
M  V30 19749 H 1747.78 3.14396 0.0163297 0
M  V30 19750 N 1751.55 1.48103 0.538828 0
M  V30 19751 C 1752.5 1.62398 1.66522 0
M  V30 19752 C 1753.49 0.490669 1.62138 0
M  V30 19753 O 1754.7 0.669098 1.67102 0
M  V30 19754 H 1751.07 0.511415 0.551324 0
M  V30 19755 H 1753.04 2.57018 1.51606 0
M  V30 19756 C 1751.79 1.67264 3.04824 0
M  V30 19757 H 1751.11 2.53828 3.08887 0
M  V30 19758 H 1752.55 1.81312 3.83278 0
M  V30 19759 C 1751.01 0.409539 3.34402 0
M  V30 19760 O 1751.54 -0.481433 3.98805 0
M  V30 19761 N 1749.75 0.283934 2.8921 0
M  V30 19762 H 1749.3 1.00993 2.36977 0
M  V30 19763 H 1749.25 -0.560201 3.09369 0
M  V30 19764 N 1753.03 -0.787016 1.36542 0
M  V30 19765 C 1754.44 -1.36234 1.2766 0
M  V30 19766 C 1754.79 -1.96026 -0.0825391 0
M  V30 19767 O 1753.91 -1.92731 -0.984059 0
M  V30 19768 C 1754.51 -2.47684 2.31167 0
M  V30 19769 C 1753.07 -3.01026 2.25966 0
M  V30 19770 C 1752.21 -1.74122 2.15816 0
M  V30 19771 H 1755.17 -0.58847 1.47386 0
M  V30 19772 H 1755.19 -3.26765 1.94949 0
M  V30 19773 H 1754.7 -2.04136 3.30076 0
M  V30 19774 H 1752.8 -3.48988 1.30531 0
M  V30 19775 H 1752.91 -3.57677 3.18754 0
M  V30 19776 H 1751.28 -1.9645 1.6211 0
M  V30 19777 H 1752.06 -1.32699 3.16616 0
M  V30 19778 N 1754.5 -1.20861 -1.01145 0
M  V30 19779 C 1755.45 -0.962085 -2.09792 0
M  V30 19780 C 1756.42 0.109588 -1.65738 0
M  V30 19781 O 1757.61 -0.0362022 -1.90766 0
M  V30 19782 C 1754.75 -0.52586 -3.4107 0
M  V30 19783 C 1753.86 -1.66626 -3.98572 0
M  V30 19784 C 1752.99 -1.17983 -5.17932 0
M  V30 19785 C 1752.03 -2.29298 -5.67529 0
M  V30 19786 N 1751.17 -1.81836 -6.78145 0
M  V30 19787 H 1756.01 -1.89222 -2.30215 0
M  V30 19788 H 1753.55 -0.943108 -1.12889 0
M  V30 19789 H 1755.51 -0.25423 -4.16425 0
M  V30 19790 H 1754.14 0.367275 -3.20704 0
M  V30 19791 H 1753.19 -2.05268 -3.20264 0
M  V30 19792 H 1754.5 -2.50426 -4.3138 0
M  V30 19793 H 1753.65 -0.864477 -6.0051 0
M  V30 19794 H 1752.39 -0.311793 -4.86702 0
M  V30 19795 H 1751.4 -2.61644 -4.83552 0
M  V30 19796 H 1752.62 -3.16587 -6.00791 0
M  V30 19797 H 1750.57 -0.973665 -6.48734 0
M  V30 19798 H 1750.49 -2.59213 -7.10172 0
M  V30 19799 H 1751.75 -1.53315 -7.64274 0
M  V30 19800 N 1755.98 1.20536 -1.01532 0
M  V30 19801 C 1756.93 2.23277 -0.584486 0
M  V30 19802 C 1757.9 1.6134 0.394773 0
M  V30 19803 O 1759.08 1.88514 0.294498 0
M  V30 19804 C 1756.22 3.45024 0.0723574 0
M  V30 19805 C 1755.34 4.21395 -0.951314 0
M  V30 19806 C 1754.47 5.30535 -0.265656 0
M  V30 19807 C 1753.51 5.98649 -1.27617 0
M  V30 19808 N 1752.65 6.99381 -0.61727 0
M  V30 19809 H 1757.49 2.59489 -1.46524 0
M  V30 19810 H 1755.03 1.27507 -0.733502 0
M  V30 19811 H 1756.98 4.14541 0.470303 0
M  V30 19812 H 1755.61 3.09508 0.916768 0
M  V30 19813 H 1754.67 3.50957 -1.46743 0
M  V30 19814 H 1755.98 4.68211 -1.71989 0
M  V30 19815 H 1755.13 6.06409 0.187857 0
M  V30 19816 H 1753.87 4.84754 0.535237 0
M  V30 19817 H 1752.88 5.21537 -1.74008 0
M  V30 19818 H 1754.1 6.46516 -2.07832 0
M  V30 19819 H 1752.05 6.55796 0.163777 0
M  V30 19820 H 1751.96 7.44317 -1.32393 0
M  V30 19821 H 1753.23 7.79275 -0.187306 0
M  V30 19822 N 1757.46 0.791395 1.36289 0
M  V30 19823 C 1758.71 0.365242 1.99484 0
M  V30 19824 C 1759.04 -1.06087 1.62663 0
M  V30 19825 O 1758.31 -1.73332 0.882396 0
M  V30 19826 C 1758.6 0.531317 3.56159 0
M  V30 19827 C 1758.45 2.00126 4.02827 0
M  V30 19828 C 1759.77 -0.0524248 4.40069 0
M  V30 19829 H 1756.89 0.134183 0.724682 0
M  V30 19830 H 1759.53 0.998102 1.61672 0
M  V30 19831 H 1757.68 -0.0074293 3.88499 0
M  V30 19832 H 1759.35 2.60122 3.80965 0
M  V30 19833 H 1757.6 2.50316 3.54294 0
M  V30 19834 H 1758.27 2.06842 5.11782 0
M  V30 19835 H 1760.74 0.407489 4.141 0
M  V30 19836 H 1759.62 0.0937898 5.4882 0
M  V30 19837 H 1759.88 -1.14472 4.27023 0
M  V30 19838 N 1758.94 -1.47929 0.54358 0
M  V30 19839 C 1760.16 -2.07393 0.0168905 0
M  V30 19840 C 1760.59 -1.39557 -1.26117 0
M  V30 19841 O 1759.95 -0.465983 -1.75209 0
M  V30 19842 C 1760 -3.6017 -0.176105 0
M  V30 19843 O 1759.1 -3.9326 -1.24178 0
M  V30 19844 H 1758.44 -0.662459 0.0452126 0
M  V30 19845 H 1760.97 -1.90145 0.755376 0
M  V30 19846 H 1760.98 -4.06088 -0.394555 0
M  V30 19847 H 1759.66 -4.08944 0.757445 0
M  V30 19848 H 1758.23 -3.59105 -1.0049 0
M  V30 19849 N 1760.42 -0.27936 -1.55104 0
M  V30 19850 C 1761.83 0.074665 -1.59425 0
M  V30 19851 C 1762.03 1.54246 -1.29655 0
M  V30 19852 O 1761.09 2.29197 -1.05947 0
M  V30 19853 C 1762.4 -0.30379 -2.99162 0
M  V30 19854 C 1763.95 -0.250758 -3.11994 0
M  V30 19855 C 1764.43 -0.603715 -4.54004 0
M  V30 19856 N 1765.92 -0.555428 -4.59858 0
M  V30 19857 C 1766.65 -0.801278 -5.67774 0
M  V30 19858 N 1766.15 -1.11197 -6.83818 0
M  V30 19859 N 1767.94 -0.72979 -5.57342 0
M  V30 19860 H 1760.09 -1.23619 -1.7272 0
M  V30 19861 H 1762.35 -0.499704 -0.805606 0
M  V30 19862 H 1762.06 -1.32475 -3.25796 0
M  V30 19863 H 1761.93 0.353294 -3.75542 0
M  V30 19864 H 1764.32 0.760925 -2.85121 0
M  V30 19865 H 1764.4 -0.94216 -2.37817 0
M  V30 19866 H 1764.05 -1.6131 -4.81603 0
M  V30 19867 H 1763.98 0.109523 -5.26486 0
M  V30 19868 H 1766.47 -0.325348 -3.76497 0
M  V30 19869 H 1766.78 -1.28611 -7.62023 0
M  V30 19870 H 1765.13 -1.14978 -6.85423 0
M  V30 19871 H 1768.32 -0.48688 -4.65561 0
M  V30 19872 H 1768.49 -0.92477 -6.41367 0
M  V30 19873 N 1761.9 1.57599 -0.0067085 0
M  V30 19874 C 1762.83 2.11878 0.981331 0
M  V30 19875 C 1763.81 1.02949 1.35408 0
M  V30 19876 O 1764.99 1.30667 1.43665 0
M  V30 19877 C 1762.12 2.62757 2.27104 0
M  V30 19878 C 1761.08 3.76272 2.0397 0
M  V30 19879 C 1760.4 4.13491 3.39012 0
M  V30 19880 C 1761.7 5.03274 1.39688 0
M  V30 19881 H 1763.4 2.94683 0.529366 0
M  V30 19882 H 1760.94 1.41757 0.253187 0
M  V30 19883 H 1762.89 2.99359 2.96585 0
M  V30 19884 H 1761.62 1.77082 2.74426 0
M  V30 19885 H 1760.28 3.40074 1.36913 0
M  V30 19886 H 1759.93 3.24831 3.8405 0
M  V30 19887 H 1759.63 4.89972 3.24347 0
M  V30 19888 H 1761.15 4.52657 4.09797 0
M  V30 19889 H 1762.56 5.37604 1.99136 0
M  V30 19890 H 1760.96 5.84604 1.3549 0
M  V30 19891 H 1762.03 4.8351 0.366928 0
M  V30 19892 N 1763.37 -0.266145 1.55336 0
M  V30 19893 C 1764.62 -0.996831 1.76265 0
M  V30 19894 C 1764.95 -1.86035 0.567553 0
M  V30 19895 O 1764.2 -1.90462 -0.449754 0
M  V30 19896 C 1764.5 -1.90357 3.02488 0
M  V30 19897 C 1764.17 -1.19699 4.34722 0
M  V30 19898 C 1762.83 -1.00164 4.7066 0
M  V30 19899 C 1765.18 -0.694703 5.16549 0
M  V30 19900 C 1762.51 -0.291394 5.85976 0
M  V30 19901 C 1764.86 0.00198006 6.326 0
M  V30 19902 C 1763.53 0.20898 6.67173 0
M  V30 19903 H 1762.8 -0.364766 0.645001 0
M  V30 19904 H 1765.44 -0.268528 1.89608 0
M  V30 19905 H 1763.75 -2.69831 2.84075 0
M  V30 19906 H 1765.45 -2.47026 3.15878 0
M  V30 19907 H 1762.04 -1.35916 4.06479 0
M  V30 19908 H 1766.22 -0.833229 4.89256 0
M  V30 19909 H 1761.48 -0.120359 6.11282 0
M  V30 19910 H 1765.65 0.398909 6.95257 0
M  V30 19911 H 1763.28 0.761301 7.56378 0
M  V30 19912 N 1764.85 -1.48386 -0.530967 0
M  V30 19913 C 1766.1 -1.56585 -1.28875 0
M  V30 19914 C 1766.43 -0.238583 -1.92729 0
M  V30 19915 O 1765.71 0.75533 -1.79235 0
M  V30 19916 C 1765.99 -2.70338 -2.37886 0
M  V30 19917 C 1765.84 -4.12766 -1.78729 0
M  V30 19918 C 1767.16 -2.79857 -3.39659 0
M  V30 19919 H 1764.28 -0.569986 -0.46721 0
M  V30 19920 H 1766.92 -1.80555 -0.591596 0
M  V30 19921 H 1765.07 -2.50031 -2.9735 0
M  V30 19922 H 1766.74 -4.4451 -1.23324 0
M  V30 19923 H 1764.99 -4.19813 -1.09269 0
M  V30 19924 H 1765.66 -4.88178 -2.57655 0
M  V30 19925 H 1768.13 -2.9825 -2.90149 0
M  V30 19926 H 1767.01 -3.61179 -4.13329 0
M  V30 19927 H 1767.27 -1.87974 -4.00148 0
M  V30 19928 N 1766.33 0.779763 -1.36958 0
M  V30 19929 C 1767.56 1.56875 -1.34899 0
M  V30 19930 C 1767.97 1.88679 0.0675345 0
M  V30 19931 O 1767.33 1.50852 1.02712 0
M  V30 19932 C 1767.38 2.88391 -2.17975 0
M  V30 19933 O 1767.1 2.57954 -3.54107 0
M  V30 19934 C 1768.6 3.82657 -2.23805 0
M  V30 19935 H 1765.82 0.486262 -0.462374 0
M  V30 19936 H 1768.37 0.967072 -1.80189 0
M  V30 19937 H 1766.52 3.45003 -1.76215 0
M  V30 19938 H 1766.94 3.42115 -3.97564 0
M  V30 19939 H 1768.41 4.71967 -2.86272 0
M  V30 19940 H 1768.89 4.21208 -1.24421 0
M  V30 19941 H 1769.49 3.31976 -2.65843 0
M  V30 19942 N 1767.81 1.21396 1.00503 0
M  V30 19943 C 1768.72 0.989221 2.12724 0
M  V30 19944 C 1769.73 -0.0586646 1.73901 0
M  V30 19945 O 1770.91 0.131377 2.00971 0
M  V30 19946 C 1767.97 0.556731 3.42201 0
M  V30 19947 C 1767.04 1.67683 3.95197 0
M  V30 19948 C 1766.27 1.26488 5.18494 0
M  V30 19949 O 1766.49 0.13847 5.70232 0
M  V30 19950 O 1765.43 2.07678 5.64937 0
M  V30 19951 H 1769.25 1.92913 2.3456 0
M  V30 19952 H 1766.84 0.998837 1.11102 0
M  V30 19953 H 1768.72 0.325327 4.20142 0
M  V30 19954 H 1767.39 -0.354457 3.21753 0
M  V30 19955 H 1766.3 1.96263 3.18483 0
M  V30 19956 H 1767.63 2.56544 4.20055 0
M  V30 19957 N 1769.29 -1.19996 1.0217 0
M  V30 19958 C 1770.53 -1.89121 0.712579 0
M  V30 19959 C 1770.85 -1.79556 -0.760561 0
M  V30 19960 O 1770.12 -1.2013 -1.54744 0
M  V30 19961 H 1768.7 -0.700075 0.260585 0
M  V30 19962 H 1771.37 -1.4571 1.2944 0
M  V30 19963 H 1770.46 -2.95629 1.00051 0
M  V30 19964 N 1770.76 -0.798611 -1.35867 0
M  V30 19965 C 1771.99 -0.387479 -2.03239 0
M  V30 19966 C 1772.41 0.999052 -1.60201 0
M  V30 19967 O 1771.76 1.64237 -0.795763 0
M  V30 19968 C 1771.81 -0.452101 -3.58662 0
M  V30 19969 O 1771.54 -1.78396 -4.00133 0
M  V30 19970 C 1773.04 -0.0327638 -4.43288 0
M  V30 19971 H 1770.26 -0.15845 -0.652024 0
M  V30 19972 H 1772.8 -1.08002 -1.73655 0
M  V30 19973 H 1770.96 0.192107 -3.86923 0
M  V30 19974 H 1771.37 -1.74118 -4.94756 0
M  V30 19975 H 1772.84 -0.129106 -5.51849 0
M  V30 19976 H 1773.32 1.02098 -4.27168 0
M  V30 19977 H 1773.93 -0.649817 -4.20306 0
M  V30 19978 N 1772.24 1.47639 -0.551417 0
M  V30 19979 C 1773.17 2.32743 0.187887 0
M  V30 19980 C 1774.15 1.43432 0.914407 0
M  V30 19981 O 1775.34 1.72295 0.896005 0
M  V30 19982 C 1772.47 3.25092 1.22199 0
M  V30 19983 C 1771.42 4.23598 0.612298 0
M  V30 19984 C 1770.75 5.0523 1.75062 0
M  V30 19985 C 1772.05 5.20526 -0.430135 0
M  V30 19986 H 1773.74 2.94804 -0.522598 0
M  V30 19987 H 1771.29 1.41764 -0.252768 0
M  V30 19988 H 1773.24 3.83467 1.74731 0
M  V30 19989 H 1771.96 2.61074 1.96235 0
M  V30 19990 H 1770.62 3.6644 0.108324 0
M  V30 19991 H 1770.27 4.3762 2.47987 0
M  V30 19992 H 1769.97 5.71918 1.34848 0
M  V30 19993 H 1771.5 5.66463 2.27931 0
M  V30 19994 H 1772.91 5.73299 0.00890168 0
M  V30 19995 H 1771.31 5.95384 -0.750836 0
M  V30 19996 H 1772.38 4.66356 -1.32815 0
M  V30 19997 N 1773.72 0.287581 1.54954 0
M  V30 19998 C 1774.63 -0.604236 2.26685 0
M  V30 19999 C 1775.65 -1.1597 1.29719 0
M  V30 20000 O 1776.82 -1.18735 1.62678 0
M  V30 20001 C 1773.89 -1.76612 2.98344 0
M  V30 20002 C 1772.95 -1.24608 4.10818 0
M  V30 20003 C 1772.18 -2.35258 4.7905 0
M  V30 20004 O 1772.4 -3.54879 4.46561 0
M  V30 20005 O 1771.34 -2.02709 5.66739 0
M  V30 20006 H 1775.16 -0.0227663 3.03691 0
M  V30 20007 H 1772.75 0.0545243 1.493 0
M  V30 20008 H 1774.63 -2.44332 3.43336 0
M  V30 20009 H 1773.31 -2.33444 2.24244 0
M  V30 20010 H 1772.21 -0.53498 3.70255 0
M  V30 20011 H 1773.55 -0.723348 4.86856 0
M  V30 20012 N 1775.2 -1.57593 0.0150662 0
M  V30 20013 C 1776.43 -1.95221 -0.676193 0
M  V30 20014 C 1776.84 -0.889349 -1.66995 0
M  V30 20015 O 1776.18 0.138825 -1.83175 0
M  V30 20016 C 1776.24 -3.28921 -1.45092 0
M  V30 20017 C 1775.91 -4.52815 -0.61707 0
M  V30 20018 C 1776.9 -5.19801 0.101686 0
M  V30 20019 C 1774.59 -4.99184 -0.558606 0
M  V30 20020 C 1776.58 -6.31466 0.86773 0
M  V30 20021 C 1774.27 -6.10735 0.211154 0
M  V30 20022 C 1775.27 -6.76734 0.923041 0
M  V30 20023 O 1774.95 -7.86145 1.68021 0
M  V30 20024 H 1774.69 -0.648074 -0.192293 0
M  V30 20025 H 1777.24 -2.05291 0.0668663 0
M  V30 20026 H 1775.47 -3.15301 -2.2388 0
M  V30 20027 H 1777.16 -3.51552 -2.02894 0
M  V30 20028 H 1777.93 -4.84955 0.0657637 0
M  V30 20029 H 1773.8 -4.47629 -1.10226 0
M  V30 20030 H 1777.35 -6.82913 1.42391 0
M  V30 20031 H 1773.25 -6.4502 0.248843 0
M  V30 20032 H 1774.01 -8.02739 1.5985 0
M  V30 20033 N 1776.68 0.257904 -1.55475 0
M  V30 20034 C 1777.61 1.32303 -1.92401 0
M  V30 20035 C 1778.59 1.50767 -0.787617 0
M  V30 20036 O 1779.77 1.63559 -1.047 0
M  V30 20037 C 1776.9 2.67984 -2.20912 0
M  V30 20038 C 1775.86 2.64231 -3.36699 0
M  V30 20039 C 1775.18 4.03604 -3.50725 0
M  V30 20040 C 1776.48 2.22177 -4.72689 0
M  V30 20041 H 1778.18 1.01646 -2.81618 0
M  V30 20042 H 1775.72 0.487523 -1.35496 0
M  V30 20043 H 1777.68 3.42622 -2.45332 0
M  V30 20044 H 1776.4 3.00254 -1.2851 0
M  V30 20045 H 1775.06 1.92049 -3.1227 0
M  V30 20046 H 1774.71 4.33122 -2.55763 0
M  V30 20047 H 1774.41 4.01983 -4.28583 0
M  V30 20048 H 1775.93 4.79959 -3.77455 0
M  V30 20049 H 1777.34 2.86543 -4.96554 0
M  V30 20050 H 1775.74 2.3169 -5.5357 0
M  V30 20051 H 1776.81 1.17326 -4.70492 0
M  V30 20052 N 1778.15 1.48666 0.52309 0
M  V30 20053 C 1779.08 1.666 1.63605 0
M  V30 20054 C 1780.07 0.514803 1.62123 0
M  V30 20055 O 1781.25 0.748138 1.79211 0
M  V30 20056 C 1778.38 1.71199 3.02172 0
M  V30 20057 C 1777.33 2.85888 3.18515 0
M  V30 20058 C 1776.66 2.75582 4.58213 0
M  V30 20059 C 1777.96 4.27104 3.00631 0
M  V30 20060 H 1779.65 2.59776 1.48851 0
M  V30 20061 H 1777.2 1.25014 0.714667 0
M  V30 20062 H 1779.15 1.82333 3.79911 0
M  V30 20063 H 1777.88 0.746066 3.17964 0
M  V30 20064 H 1776.54 2.7432 2.43195 0
M  V30 20065 H 1776.18 1.76944 4.7085 0
M  V30 20066 H 1775.88 3.52545 4.70091 0
M  V30 20067 H 1777.41 2.88693 5.38041 0
M  V30 20068 H 1778.82 4.3947 3.68157 0
M  V30 20069 H 1777.22 5.05119 3.23999 0
M  V30 20070 H 1778.29 4.43087 1.96982 0
M  V30 20071 N 1779.63 -0.772489 1.37369 0
M  V30 20072 C 1780.56 -1.89969 1.35772 0
M  V30 20073 C 1781.54 -1.68586 0.226452 0
M  V30 20074 O 1782.73 -1.89454 0.426692 0
M  V30 20075 C 1779.86 -3.27242 1.16319 0
M  V30 20076 C 1778.81 -3.63187 2.2645 0
M  V30 20077 C 1778.14 -4.98992 1.92121 0
M  V30 20078 C 1779.44 -3.70013 3.6863 0
M  V30 20079 H 1781.13 -1.91564 2.30095 0
M  V30 20080 H 1778.68 -0.920241 1.10759 0
M  V30 20081 H 1780.63 -4.05734 1.13832 0
M  V30 20082 H 1779.36 -3.26078 0.184513 0
M  V30 20083 H 1778.01 -2.87001 2.28091 0
M  V30 20084 H 1777.66 -4.94368 0.927848 0
M  V30 20085 H 1777.36 -5.24012 2.65867 0
M  V30 20086 H 1778.89 -5.79886 1.91219 0
M  V30 20087 H 1780.3 -4.38659 3.69122 0
M  V30 20088 H 1778.7 -4.06529 4.41423 0
M  V30 20089 H 1779.77 -2.70694 4.02309 0
M  V30 20090 N 1781.11 -1.21927 -0.998575 0
M  V30 20091 C 1782.39 -0.949034 -1.71034 0
M  V30 20092 C 1782.77 0.537429 -2.04144 0
M  V30 20093 O 1782.12 1.50398 -1.72026 0
M  V30 20094 C 1782.33 -1.84076 -2.96508 0
M  V30 20095 C 1783.67 -2.09345 -3.69405 0
M  V30 20096 O 1784.7 -1.81477 -3.06504 0
M  V30 20097 O 1783.56 -2.56513 -4.82559 0
M  V30 20098 H 1780.65 -0.356423 -0.746252 0
M  V30 20099 H 1783.2 -1.32886 -1.05543 0
M  V30 20100 H 1781.97 -2.84647 -2.68499 0
M  V30 20101 H 1781.59 -1.46215 -3.69739 0
M  V30 20102 N 1782.59 1.19452 -1.02805 0
M  V30 20103 C 1783.54 2.22644 -0.608134 0
M  V30 20104 C 1784.51 1.6175 0.377639 0
M  V30 20105 O 1785.69 1.88815 0.274487 0
M  V30 20106 C 1782.83 3.45081 0.0357589 0
M  V30 20107 C 1781.94 4.20363 -0.995955 0
M  V30 20108 C 1781.08 5.30224 -0.321911 0
M  V30 20109 C 1780.12 5.97261 -1.33959 0
M  V30 20110 N 1779.25 6.98687 -0.691414 0
M  V30 20111 H 1784.09 2.57921 -1.49268 0
M  V30 20112 H 1781.63 1.26722 -0.746985 0
M  V30 20113 H 1783.59 4.15016 0.426309 0
M  V30 20114 H 1782.22 3.10463 0.883889 0
M  V30 20115 H 1781.27 3.49381 -1.50457 0
M  V30 20116 H 1782.58 4.6636 -1.76945 0
M  V30 20117 H 1781.74 6.06574 0.123528 0
M  V30 20118 H 1780.48 4.85294 0.483792 0
M  V30 20119 H 1779.48 5.19662 -1.7953 0
M  V30 20120 H 1780.71 6.44275 -2.14678 0
M  V30 20121 H 1778.65 6.55932 0.0942121 0
M  V30 20122 H 1778.57 7.42871 -1.40281 0
M  V30 20123 H 1779.84 7.79032 -0.269948 0
M  V30 20124 N 1784.07 0.805805 1.35442 0
M  V30 20125 C 1785.32 0.382303 1.98044 0
M  V30 20126 C 1785.63 -1.05602 1.64644 0
M  V30 20127 O 1786.83 -1.5826 2.20604 0
M  V30 20128 C 1785.29 0.632619 3.54296 0
M  V30 20129 C 1784.9 2.08344 3.96607 0
M  V30 20130 C 1786.64 0.274435 4.23612 0
M  V30 20131 C 1784.55 2.27954 5.45702 0
M  V30 20132 H 1783.48 0.13921 0.741037 0
M  V30 20133 H 1786.13 0.989752 1.54519 0
M  V30 20134 H 1784.51 -0.0447699 3.95975 0
M  V30 20135 H 1785.69 2.79857 3.66083 0
M  V30 20136 H 1784 2.40142 3.40178 0
M  V30 20137 H 1786.6 0.399019 5.33209 0
M  V30 20138 H 1786.94 -0.779292 4.08941 0
M  V30 20139 H 1787.47 0.90571 3.87352 0
M  V30 20140 H 1784.21 3.3177 5.6534 0
M  V30 20141 H 1783.73 1.60965 5.77798 0
M  V30 20142 H 1785.41 2.09469 6.12153 0
M  V30 20143 N 1785.54 -1.47344 0.559239 0
M  V30 20144 C 1786.49 -2.31735 -0.200368 0
M  V30 20145 C 1787.49 -1.43051 -0.907351 0
M  V30 20146 O 1788.69 -1.59804 -0.828406 0
M  V30 20147 H 1785.07 -0.747351 -0.0834871 0
M  V30 20148 H 1787.04 -2.93645 0.530556 0
M  V30 20149 C 1785.79 -3.25747 -1.2159 0
M  V30 20150 H 1785.11 -3.93952 -0.681314 0
M  V30 20151 H 1786.55 -3.87624 -1.71825 0
M  V30 20152 C 1785.01 -2.49414 -2.26482 0
M  V30 20153 O 1785.54 -2.24006 -3.33443 0
M  V30 20154 N 1783.75 -2.10387 -2.00464 0
M  V30 20155 H 1783.29 -2.3125 -1.13495 0
M  V30 20156 H 1783.25 -1.5963 -2.70861 0
M  V30 20157 N 1787.02 -0.295795 -1.54799 0
M  V30 20158 C 1788.27 0.315754 -1.99213 0
M  V30 20159 C 1788.58 1.55405 -1.18779 0
M  V30 20160 O 1789.79 2.23986 -1.53436 0
M  V30 20161 C 1788.25 0.613119 -3.54639 0
M  V30 20162 C 1787.85 -0.606546 -4.43875 0
M  V30 20163 C 1789.6 1.18615 -4.07591 0
M  V30 20164 C 1787.51 -0.282622 -5.90724 0
M  V30 20165 H 1786.44 0.121758 -0.744104 0
M  V30 20166 H 1789.09 -0.403686 -1.79005 0
M  V30 20167 H 1787.47 1.39202 -3.70728 0
M  V30 20168 H 1788.64 -1.3829 -4.39559 0
M  V30 20169 H 1786.96 -1.09785 -4.01667 0
M  V30 20170 H 1789.55 1.44266 -5.1487 0
M  V30 20171 H 1789.9 2.12674 -3.57876 0
M  V30 20172 H 1790.43 0.469078 -3.95025 0
M  V30 20173 H 1787.17 -1.19164 -6.44578 0
M  V30 20174 H 1786.69 0.456564 -5.9806 0
M  V30 20175 H 1788.37 0.117703 -6.46893 0
M  V30 20176 N 1788.5 1.57583 -0.0234236 0
M  V30 20177 C 1789.91 1.79422 0.516201 0
M  V30 20178 C 1790.26 0.933151 1.72588 0
M  V30 20179 O 1789.39 0.141985 2.15934 0
M  V30 20180 C 1789.98 3.25405 0.943248 0
M  V30 20181 C 1788.54 3.48259 1.42802 0
M  V30 20182 C 1787.69 2.74543 0.390074 0
M  V30 20183 H 1790.64 1.56727 -0.24949 0
M  V30 20184 H 1790.66 3.34803 1.80795 0
M  V30 20185 H 1790.17 3.88049 0.0626242 0
M  V30 20186 H 1788.27 2.9086 2.32877 0
M  V30 20187 H 1788.39 4.56968 1.43933 0
M  V30 20188 H 1786.75 2.39852 0.856919 0
M  V30 20189 H 1787.53 3.399 -0.481986 0
M  V30 20190 N 1789.98 -0.249655 1.5561 0
M  V30 20191 C 1790.89 -1.33061 1.93215 0
M  V30 20192 C 1791.91 -1.52806 0.832239 0
M  V30 20193 O 1793.08 -1.66482 1.13339 0
M  V30 20194 C 1790.15 -2.66569 2.2168 0
M  V30 20195 C 1789.21 -2.5537 3.45087 0
M  V30 20196 C 1788.44 -3.82511 3.72184 0
M  V30 20197 O 1788.66 -4.84267 3.014 0
M  V30 20198 O 1787.6 -3.81309 4.65711 0
M  V30 20199 H 1791.42 -1.04161 2.85279 0
M  V30 20200 H 1789.01 -0.450177 1.42456 0
M  V30 20201 H 1790.89 -3.45468 2.41308 0
M  V30 20202 H 1789.57 -2.95207 1.32794 0
M  V30 20203 H 1788.47 -1.74766 3.30768 0
M  V30 20204 H 1789.81 -2.31677 4.34266 0
M  V30 20205 N 1791.46 -1.48941 -0.515198 0
M  V30 20206 C 1792.7 -1.59318 -1.28052 0
M  V30 20207 C 1793.06 -0.26749 -1.90128 0
M  V30 20208 O 1794.26 -0.246338 -2.67669 0
M  V30 20209 C 1792.53 -2.71033 -2.32972 0
M  V30 20210 S 1794.09 -3.01271 -3.19032 0
M  V30 20211 H 1790.91 -0.56211 -0.435378 0
M  V30 20212 H 1793.51 -1.86534 -0.585253 0
M  V30 20213 H 1792.22 -3.65895 -1.85873 0
M  V30 20214 H 1791.75 -2.45765 -3.07186 0
M  V30 20215 H 1793.76 -2.41702 -4.33353 0
M  V30 20216 N 1792.94 0.765193 -1.37777 0
M  V30 20217 C 1794.18 1.52397 -1.33347 0
M  V30 20218 C 1794.51 1.94335 0.0800559 0
M  V30 20219 O 1793.77 1.64847 1.05469 0
M  V30 20220 C 1794.06 2.79732 -2.22452 0
M  V30 20221 C 1793.73 2.56814 -3.70618 0
M  V30 20222 C 1792.39 2.50272 -4.10996 0
M  V30 20223 C 1794.74 2.36494 -4.64457 0
M  V30 20224 C 1792.07 2.2141 -5.43318 0
M  V30 20225 C 1794.42 2.09155 -5.97024 0
M  V30 20226 C 1793.09 2.01062 -6.36499 0
M  V30 20227 H 1792.36 0.55766 -0.487951 0
M  V30 20228 H 1795.01 0.880853 -1.70039 0
M  V30 20229 H 1793.31 3.48635 -1.78777 0
M  V30 20230 H 1795.01 3.37639 -2.16335 0
M  V30 20231 H 1791.6 2.62771 -3.38599 0
M  V30 20232 H 1795.78 2.40534 -4.34117 0
M  V30 20233 H 1791.04 2.13644 -5.72858 0
M  V30 20234 H 1795.21 1.92433 -6.69285 0
M  V30 20235 H 1792.84 1.78462 -7.38956 0
M  V30 20236 N 1794.41 1.22455 0.992094 0
M  V30 20237 C 1795.66 1.04752 1.72833 0
M  V30 20238 C 1795.98 -0.418152 1.90464 0
M  V30 20239 O 1795.25 -1.30072 1.46486 0
M  V30 20240 H 1793.83 0.384626 0.640368 0
M  V30 20241 H 1796.49 1.5398 1.19483 0
M  V30 20242 H 1795.59 1.52601 2.72249 0
M  V30 20243 N 1795.89 -1.18905 1.03437 0
M  V30 20244 C 1797.3 -1.70402 0.762893 0
M  V30 20245 C 1797.65 -1.82633 -0.716908 0
M  V30 20246 O 1796.78 -1.50136 -1.55847 0
M  V30 20247 C 1797.37 -3.09501 1.37822 0
M  V30 20248 C 1795.93 -3.58235 1.1552 0
M  V30 20249 C 1795.08 -2.34953 1.47284 0
M  V30 20250 H 1798.03 -1.03669 1.2016 0
M  V30 20251 H 1798.05 -3.7246 0.778079 0
M  V30 20252 H 1797.56 -3.00566 2.45523 0
M  V30 20253 H 1795.66 -3.72475 0.096646 0
M  V30 20254 H 1795.78 -4.42034 1.84778 0
M  V30 20255 H 1794.14 -2.38557 0.892333 0
M  V30 20256 H 1794.92 -2.28643 2.5608 0
M  V30 20257 N 1797.37 -0.812977 -1.35013 0
M  V30 20258 C 1798.61 -0.402068 -2.00407 0
M  V30 20259 C 1798.97 1.01337 -1.63079 0
M  V30 20260 O 1800.17 1.52663 -2.21241 0
M  V30 20261 C 1798.45 -0.587029 -3.52546 0
M  V30 20262 S 1800 -0.267491 -4.37984 0
M  V30 20263 H 1796.82 -0.152383 -0.694479 0
M  V30 20264 H 1799.42 -1.05662 -1.64486 0
M  V30 20265 H 1798.13 -1.61704 -3.772 0
M  V30 20266 H 1797.66 0.0826178 -3.93313 0
M  V30 20267 H 1799.67 0.922508 -4.87549 0
M  V30 20268 N 1798.85 1.47045 -0.567045 0
M  V30 20269 C 1800.08 2.06835 -0.0518309 0
M  V30 20270 C 1800.49 1.41823 1.24626 0
M  V30 20271 O 1799.85 0.518102 1.74991 0
M  V30 20272 C 1799.9 3.6124 0.137142 0
M  V30 20273 O 1799.62 4.23817 -1.10955 0
M  V30 20274 C 1801.12 4.37921 0.688511 0
M  V30 20275 H 1798.34 0.669111 -0.0503138 0
M  V30 20276 H 1800.88 1.88906 -0.783258 0
M  V30 20277 H 1799.04 3.7865 0.818733 0
M  V30 20278 H 1799.45 5.16484 -0.913475 0
M  V30 20279 H 1800.93 5.46603 0.769984 0
M  V30 20280 H 1801.4 4.0488 1.70201 0
M  V30 20281 H 1802.01 4.25279 0.0423004 0
M  V30 20282 N 1800.33 0.304 1.5464 0
M  V30 20283 C 1801.27 -0.570762 2.23631 0
M  V30 20284 C 1802.24 -1.1272 1.21998 0
M  V30 20285 O 1803.43 -1.17117 1.50626 0
M  V30 20286 C 1800.57 -1.73533 2.98296 0
M  V30 20287 C 1799.68 -1.21 4.14708 0
M  V30 20288 C 1798.82 -2.33867 4.76948 0
M  V30 20289 C 1797.85 -1.78483 5.855 0
M  V30 20290 N 1796.99 -2.84935 6.41682 0
M  V30 20291 H 1801.83 0.024168 2.9799 0
M  V30 20292 H 1799.37 0.023697 1.47081 0
M  V30 20293 H 1801.33 -2.42031 3.39819 0
M  V30 20294 H 1799.96 -2.30184 2.26308 0
M  V30 20295 H 1799.01 -0.41718 3.78105 0
M  V30 20296 H 1800.32 -0.764576 4.92905 0
M  V30 20297 H 1799.47 -3.10306 5.21339 0
M  V30 20298 H 1798.21 -2.81737 3.9809 0
M  V30 20299 H 1797.22 -1.00534 5.4053 0
M  V30 20300 H 1798.44 -1.31513 6.66244 0
M  V30 20301 H 1796.39 -3.32133 5.65706 0
M  V30 20302 H 1796.31 -2.44898 7.15235 0
M  V30 20303 H 1797.57 -3.61263 6.90731 0
M  V30 20304 N 1801.8 -1.57568 0.0317802 0
M  V30 20305 C 1802.73 -2.13412 -0.947499 0
M  V30 20306 C 1803.71 -1.05091 -1.33753 0
M  V30 20307 O 1804.9 -1.32936 -1.41568 0
M  V30 20308 C 1802.03 -2.66337 -2.22895 0
M  V30 20309 C 1800.98 -3.79469 -1.97958 0
M  V30 20310 C 1800.31 -4.18833 -3.3239 0
M  V30 20311 C 1801.61 -5.05432 -1.31664 0
M  V30 20312 H 1803.3 -2.95488 -0.482417 0
M  V30 20313 H 1800.85 -1.42142 -0.230603 0
M  V30 20314 H 1802.8 -3.04039 -2.91784 0
M  V30 20315 H 1801.53 -1.81426 -2.71574 0
M  V30 20316 H 1800.19 -3.42209 -1.31485 0
M  V30 20317 H 1799.83 -3.30899 -3.78833 0
M  V30 20318 H 1799.53 -4.95071 -3.16511 0
M  V30 20319 H 1801.06 -4.5912 -4.02544 0
M  V30 20320 H 1802.47 -5.40704 -1.90558 0
M  V30 20321 H 1800.87 -5.86686 -1.26173 0
M  V30 20322 H 1801.94 -4.84032 -0.28996 0
M  V30 20323 N 1803.28 0.241399 -1.5574 0
M  V30 20324 C 1804.23 1.30198 -1.8717 0
M  V30 20325 C 1805.22 1.43233 -0.733022 0
M  V30 20326 O 1806.41 1.46382 -0.995058 0
M  V30 20327 C 1803.54 2.65637 -2.17467 0
M  V30 20328 C 1802.62 2.56584 -3.37676 0
M  V30 20329 N 1803.01 2.17167 -4.56806 0
M  V30 20330 C 1801.31 2.87586 -3.40896 0
M  V30 20331 C 1802.01 2.18882 -5.38949 0
M  V30 20332 N 1800.99 2.58599 -4.7815 0
M  V30 20333 H 1804.79 0.98781 -2.76802 0
M  V30 20334 H 1802.31 0.450014 -1.5604 0
M  V30 20335 H 1804.3 3.42184 -2.38151 0
M  V30 20336 H 1802.96 2.97916 -1.29136 0
M  V30 20337 H 1803.97 1.88621 -4.8233 0
M  V30 20338 H 1800.65 3.24369 -2.62852 0
M  V30 20339 H 1802.04 1.907 -6.4427 0
M  V30 20340 N 1804.76 1.49212 0.507292 0
M  V30 20341 C 1806.01 1.58381 1.26181 0
M  V30 20342 C 1806.34 0.267704 1.92649 0
M  V30 20343 O 1805.59 -0.743892 1.8101 0
M  V30 20344 C 1805.89 2.68761 2.35589 0
M  V30 20345 C 1805.56 4.10467 1.86622 0
M  V30 20346 C 1804.22 4.49031 1.72986 0
M  V30 20347 C 1806.57 4.99179 1.49898 0
M  V30 20348 C 1803.9 5.74088 1.20995 0
M  V30 20349 C 1806.25 6.24748 0.993611 0
M  V30 20350 C 1804.91 6.62148 0.8436 0
M  V30 20351 H 1804.18 0.579558 0.461729 0
M  V30 20352 H 1806.83 1.83019 0.563581 0
M  V30 20353 H 1805.14 2.3807 3.11175 0
M  V30 20354 H 1806.83 2.73066 2.9366 0
M  V30 20355 H 1803.42 3.80023 1.98193 0
M  V30 20356 H 1807.61 4.70046 1.59282 0
M  V30 20357 H 1802.86 6.0177 1.08087 0
M  V30 20358 H 1807.04 6.92871 0.700235 0
M  V30 20359 H 1804.66 7.58934 0.43855 0
M  V30 20360 N 1806.24 -0.757876 1.38181 0
M  V30 20361 C 1807.19 -1.8929 1.35174 0
M  V30 20362 C 1808.18 -1.67716 0.238284 0
M  V30 20363 O 1809.39 -1.75336 0.407085 0
M  V30 20364 H 1805.76 -0.622712 0.421585 0
M  V30 20365 H 1807.73 -1.88943 2.30961 0
M  V30 20366 C 1806.48 -3.26723 1.18942 0
M  V30 20367 H 1805.8 -3.43909 2.0388 0
M  V30 20368 H 1807.24 -4.06401 1.20891 0
M  V30 20369 C 1805.7 -3.3674 -0.103978 0
M  V30 20370 O 1806.23 -3.86838 -1.08256 0
M  V30 20371 N 1804.44 -2.90163 -0.159367 0
M  V30 20372 H 1803.99 -2.49583 0.637642 0
M  V30 20373 H 1803.94 -2.97245 -1.02435 0
M  V30 20374 N 1807.72 -1.22979 -0.985586 0
M  V30 20375 C 1808.66 -1.00637 -2.07704 0
M  V30 20376 C 1809.63 0.0744076 -1.65933 0
M  V30 20377 O 1810.82 -0.0766583 -1.90646 0
M  V30 20378 C 1807.96 -0.598088 -3.39878 0
M  V30 20379 C 1807.07 -1.75043 -3.94948 0
M  V30 20380 C 1806.21 -1.28943 -5.15313 0
M  V30 20381 C 1805.25 -2.41285 -5.62537 0
M  V30 20382 N 1804.38 -1.9618 -6.74135 0
M  V30 20383 H 1809.22 -1.94063 -2.26149 0
M  V30 20384 H 1806.76 -0.966841 -1.10863 0
M  V30 20385 H 1808.72 -0.342503 -4.15792 0
M  V30 20386 H 1807.35 0.299167 -3.21411 0
M  V30 20387 H 1806.4 -2.12015 -3.15838 0
M  V30 20388 H 1807.71 -2.5952 -4.25971 0
M  V30 20389 H 1806.87 -0.99166 -5.98541 0
M  V30 20390 H 1805.6 -0.41496 -4.85931 0
M  V30 20391 H 1804.61 -2.71842 -4.77893 0
M  V30 20392 H 1805.83 -3.2926 -5.9394 0
M  V30 20393 H 1803.78 -1.11105 -6.46523 0
M  V30 20394 H 1803.7 -2.74219 -7.04514 0
M  V30 20395 H 1804.97 -1.69492 -7.6085 0
M  V30 20396 N 1809.19 1.18355 -1.04066 0
M  V30 20397 C 1810.44 1.88614 -0.745148 0
M  V30 20398 C 1810.77 1.80147 0.725294 0
M  V30 20399 O 1810.05 1.20177 1.5293 0
M  V30 20400 C 1810.33 3.39095 -1.2119 0
M  V30 20401 C 1810.18 3.56372 -2.74444 0
M  V30 20402 C 1811.5 4.32732 -0.801953 0
M  V30 20403 H 1808.62 0.684905 -0.272166 0
M  V30 20404 H 1811.26 1.39248 -1.29267 0
M  V30 20405 H 1809.41 3.81269 -0.746091 0
M  V30 20406 H 1811.09 3.2329 -3.29061 0
M  V30 20407 H 1809.33 2.99028 -3.14269 0
M  V30 20408 H 1810 4.61956 -3.0216 0
M  V30 20409 H 1812.48 3.98337 -1.20278 0
M  V30 20410 H 1811.35 5.36583 -1.15628 0
M  V30 20411 H 1811.61 4.41115 0.294907 0
M  V30 20412 N 1810.67 0.820125 1.3458 0
M  V30 20413 C 1811.92 0.407473 1.98664 0
M  V30 20414 C 1812.25 -1.02613 1.64877 0
M  V30 20415 O 1811.53 -1.71421 0.918964 0
M  V30 20416 C 1811.81 0.606744 3.54952 0
M  V30 20417 C 1811.66 2.08626 3.98491 0
M  V30 20418 C 1812.98 0.0409321 4.40081 0
M  V30 20419 H 1810.1 0.149524 0.721673 0
M  V30 20420 H 1812.74 1.03217 1.59519 0
M  V30 20421 H 1810.89 0.0749788 3.88428 0
M  V30 20422 H 1812.56 2.68144 3.75361 0
M  V30 20423 H 1810.81 2.57774 3.48905 0
M  V30 20424 H 1811.48 2.17651 5.07279 0
M  V30 20425 H 1813.95 0.495234 4.13142 0
M  V30 20426 H 1812.83 0.210182 5.48497 0
M  V30 20427 H 1813.09 -1.05389 4.29355 0
M  V30 20428 N 1812.15 -1.46743 0.574835 0
M  V30 20429 C 1813.4 -2.01625 0.0551724 0
M  V30 20430 C 1813.71 -1.4528 -1.3097 0
M  V30 20431 O 1814.92 -1.91932 -1.92026 0
M  V30 20432 C 1813.37 -3.59868 0.0480708 0
M  V30 20433 C 1812.98 -4.25207 1.41078 0
M  V30 20434 C 1814.73 -4.22436 -0.41806 0
M  V30 20435 C 1812.63 -5.75507 1.36183 0
M  V30 20436 H 1811.56 -0.753812 0.0168558 0
M  V30 20437 H 1814.21 -1.68557 0.725313 0
M  V30 20438 H 1812.6 -3.89976 -0.688076 0
M  V30 20439 H 1813.77 -4.06718 2.16603 0
M  V30 20440 H 1812.09 -3.747 1.81628 0
M  V30 20441 H 1814.68 -5.32601 -0.473353 0
M  V30 20442 H 1815.03 -3.90826 -1.43391 0
M  V30 20443 H 1815.56 -3.96925 0.263775 0
M  V30 20444 H 1812.3 -6.11765 2.35423 0
M  V30 20445 H 1811.82 -5.96282 0.648655 0
M  V30 20446 H 1813.5 -6.38068 1.07137 0
M  V30 20447 N 1813.63 -0.312197 -1.54477 0
M  V30 20448 C 1814.58 0.558894 -2.23931 0
M  V30 20449 C 1815.55 1.12071 -1.22594 0
M  V30 20450 O 1816.73 1.16316 -1.51245 0
M  V30 20451 C 1813.87 1.71948 -2.99212 0
M  V30 20452 C 1812.98 1.18799 -4.15344 0
M  V30 20453 C 1812.12 2.31334 -4.78182 0
M  V30 20454 C 1811.16 1.75375 -5.86438 0
M  V30 20455 N 1810.29 2.81528 -6.43184 0
M  V30 20456 H 1815.13 -0.0399708 -2.97973 0
M  V30 20457 H 1812.67 -0.0314967 -1.47066 0
M  V30 20458 H 1814.63 2.40225 -3.41098 0
M  V30 20459 H 1813.26 2.28981 -2.27525 0
M  V30 20460 H 1812.31 0.397122 -3.78321 0
M  V30 20461 H 1813.62 0.738426 -4.93304 0
M  V30 20462 H 1812.78 3.07537 -5.22978 0
M  V30 20463 H 1811.52 2.79622 -3.99578 0
M  V30 20464 H 1810.52 0.976658 -5.41056 0
M  V30 20465 H 1811.75 1.27978 -6.66932 0
M  V30 20466 H 1809.69 3.29129 -5.6746 0
M  V30 20467 H 1809.61 2.41101 -7.16524 0
M  V30 20468 H 1810.88 3.57595 -6.92637 0
M  V30 20469 N 1815.11 1.57549 -0.040136 0
M  V30 20470 C 1816.02 2.14351 0.953457 0
M  V30 20471 C 1817.03 1.09851 1.3494 0
M  V30 20472 O 1818.21 1.41965 1.42857 0
M  V30 20473 C 1815.27 2.66832 2.21363 0
M  V30 20474 C 1814.33 3.86088 1.87708 0
M  V30 20475 C 1813.57 4.36057 3.07718 0
M  V30 20476 O 1813.79 3.85147 4.20735 0
M  V30 20477 O 1812.72 5.27775 2.89374 0
M  V30 20478 H 1816.55 2.99549 0.500423 0
M  V30 20479 H 1814.14 1.48298 0.18112 0
M  V30 20480 H 1816.02 3.00605 2.95321 0
M  V30 20481 H 1814.69 1.84711 2.65826 0
M  V30 20482 H 1813.6 3.57222 1.11101 0
M  V30 20483 H 1814.93 4.69405 1.48053 0
M  V30 20484 N 1816.58 -0.233136 1.55866 0
M  V30 20485 C 1817.81 -0.980602 1.82754 0
M  V30 20486 C 1818.23 -1.77624 0.618988 0
M  V30 20487 O 1817.59 -1.76074 -0.432148 0
M  V30 20488 C 1817.64 -1.88319 3.07519 0
M  V30 20489 O 1816.74 -2.97692 2.85401 0
M  V30 20490 H 1816.09 -0.278295 0.602867 0
M  V30 20491 H 1818.62 -0.249956 2.03067 0
M  V30 20492 H 1818.63 -2.29523 3.37318 0
M  V30 20493 H 1817.3 -1.29831 3.95116 0
M  V30 20494 H 1815.88 -2.60517 2.66805 0
M  V30 20495 N 1818.06 -1.49479 -0.499372 0
M  V30 20496 C 1819.01 -1.66268 -1.60073 0
M  V30 20497 C 1819.98 -0.504137 -1.58265 0
M  V30 20498 O 1821.17 -0.731358 -1.76227 0
M  V30 20499 C 1818.31 -1.73678 -2.98211 0
M  V30 20500 C 1817.42 -3.00848 -3.10023 0
M  V30 20501 C 1816.55 -2.99227 -4.38904 0
M  V30 20502 C 1815.59 -4.20969 -4.44355 0
M  V30 20503 N 1814.73 -4.17249 -5.64666 0
M  V30 20504 H 1819.57 -2.60308 -1.45065 0
M  V30 20505 H 1817.11 -1.29063 -0.705774 0
M  V30 20506 H 1819.06 -1.75956 -3.7828 0
M  V30 20507 H 1817.69 -0.831037 -3.11919 0
M  V30 20508 H 1816.75 -3.08175 -2.23008 0
M  V30 20509 H 1818.06 -3.90841 -3.09911 0
M  V30 20510 H 1817.21 -3.00076 -5.27294 0
M  V30 20511 H 1815.95 -2.07015 -4.41584 0
M  V30 20512 H 1814.96 -4.20362 -3.54366 0
M  V30 20513 H 1816.18 -5.14376 -4.4339 0
M  V30 20514 H 1814.13 -3.27875 -5.68185 0
M  V30 20515 H 1814.04 -5.00979 -5.66177 0
M  V30 20516 H 1815.31 -4.22203 -6.55259 0
M  V30 20517 N 1819.54 0.750537 -1.38581 0
M  V30 20518 C 1820.47 1.87411 -1.31946 0
M  V30 20519 C 1821.49 1.61151 -0.231101 0
M  V30 20520 O 1822.68 1.71674 -0.488893 0
M  V30 20521 C 1819.78 3.23112 -1.02233 0
M  V30 20522 C 1818.95 3.76852 -2.22039 0
M  V30 20523 C 1818.01 4.91077 -1.89023 0
M  V30 20524 O 1817.03 5.0555 -2.61549 0
M  V30 20525 N 1818.24 5.74287 -0.847021 0
M  V30 20526 H 1821 1.93613 -2.28767 0
M  V30 20527 H 1818.56 0.930603 -1.32482 0
M  V30 20528 H 1820.55 3.97074 -0.78193 0
M  V30 20529 H 1819.12 3.12277 -0.141981 0
M  V30 20530 H 1818.34 2.94421 -2.62126 0
M  V30 20531 H 1819.63 4.09489 -3.01987 0
M  V30 20532 H 1819.03 5.65166 -0.245635 0
M  V30 20533 H 1817.59 6.48383 -0.666505 0
M  V30 20534 N 1821.02 1.235 0.979051 0
M  V30 20535 C 1822.44 0.997948 1.24552 0
M  V30 20536 C 1822.64 -0.300139 1.99252 0
M  V30 20537 O 1821.69 -1.01923 2.31015 0
M  V30 20538 C 1823 2.2057 2.04375 0
M  V30 20539 C 1824.55 2.25075 2.17509 0
M  V30 20540 C 1825.03 3.45441 3.00724 0
M  V30 20541 N 1826.52 3.45688 3.08308 0
M  V30 20542 C 1827.25 4.35478 3.73024 0
M  V30 20543 N 1826.75 5.35506 4.39551 0
M  V30 20544 N 1828.54 4.23218 3.69923 0
M  V30 20545 H 1820.69 2.06936 0.478649 0
M  V30 20546 H 1822.96 0.907514 0.274083 0
M  V30 20547 H 1822.66 3.14781 1.56863 0
M  V30 20548 H 1822.54 2.21765 3.05123 0
M  V30 20549 H 1824.92 1.31403 2.64229 0
M  V30 20550 H 1825 2.27912 1.16146 0
M  V30 20551 H 1824.65 4.3942 2.547 0
M  V30 20552 H 1824.58 3.39845 4.0226 0
M  V30 20553 H 1827.07 2.73315 2.60974 0
M  V30 20554 H 1827.38 6.00274 4.86715 0
M  V30 20555 H 1825.73 5.39404 4.38256 0
M  V30 20556 H 1828.92 3.44315 3.17119 0
M  V30 20557 H 1829.09 4.93396 4.20076 0
M  V30 20558 N 1822.5 -1.17802 1.04693 0
M  V30 20559 C 1823.75 -1.87271 0.749172 0
M  V30 20560 C 1824.06 -1.81614 -0.726342 0
M  V30 20561 O 1825.27 -2.46506 -1.13785 0
M  V30 20562 C 1823.72 -3.35992 1.28986 0
M  V30 20563 C 1823.33 -3.50163 2.79446 0
M  V30 20564 C 1825.07 -4.10821 1.06892 0
M  V30 20565 C 1822.98 -4.92878 3.26841 0
M  V30 20566 H 1821.91 -0.701451 0.276554 0
M  V30 20567 H 1824.56 -1.33065 1.26357 0
M  V30 20568 H 1822.94 -3.89705 0.703298 0
M  V30 20569 H 1824.12 -3.06692 3.43914 0
M  V30 20570 H 1822.43 -2.88747 3.00023 0
M  V30 20571 H 1825.03 -5.16098 1.39809 0
M  V30 20572 H 1825.37 -4.163 0.00644311 0
M  V30 20573 H 1825.91 -3.633 1.62043 0
M  V30 20574 H 1822.64 -4.92572 4.32497 0
M  V30 20575 H 1822.16 -5.3704 2.67112 0
M  V30 20576 H 1823.84 -5.61624 3.21227 0
M  V30 20577 N 1823.98 -0.827251 -1.34143 0
M  V30 20578 C 1825.21 -0.429878 -2.02078 0
M  V30 20579 C 1825.61 0.970141 -1.62434 0
M  V30 20580 O 1824.96 1.63997 -0.827692 0
M  V30 20581 C 1825.02 -0.457493 -3.56577 0
M  V30 20582 C 1824.68 -1.8116 -4.19559 0
M  V30 20583 C 1825.68 -2.7731 -4.39767 0
M  V30 20584 C 1823.36 -2.10126 -4.56237 0
M  V30 20585 C 1825.36 -4.00596 -4.95784 0
M  V30 20586 C 1823.05 -3.33672 -5.11963 0
M  V30 20587 C 1824.04 -4.28724 -5.31681 0
M  V30 20588 O 1823.73 -5.50086 -5.86226 0
M  V30 20589 H 1823.46 -0.170259 -0.654208 0
M  V30 20590 H 1826.02 -1.11808 -1.72303 0
M  V30 20591 H 1824.25 0.287424 -3.8563 0
M  V30 20592 H 1825.94 -0.0795677 -4.05822 0
M  V30 20593 H 1826.7 -2.56228 -4.11791 0
M  V30 20594 H 1822.58 -1.36941 -4.40191 0
M  V30 20595 H 1826.13 -4.74798 -5.11089 0
M  V30 20596 H 1822.02 -3.54615 -5.39369 0
M  V30 20597 H 1822.79 -5.51665 -6.04655 0
M  V30 20598 N 1825.45 1.46436 -0.582609 0
M  V30 20599 C 1826.73 1.956 -0.00129167 0
M  V30 20600 C 1827.11 1.52526 1.45942 0
M  V30 20601 O 1826.46 0.775911 2.14923 0
M  V30 20602 C 1826.67 3.4857 -0.173243 0
M  V30 20603 C 1828.02 4.2458 -0.0410173 0
M  V30 20604 O 1829.04 3.56054 -0.102074 0
M  V30 20605 O 1827.9 5.46418 0.0947564 0
M  V30 20606 H 1824.99 0.825495 0.0498706 0
M  V30 20607 H 1827.54 1.5672 -0.650921 0
M  V30 20608 H 1826.31 3.72808 -1.1887 0
M  V30 20609 H 1825.93 3.94279 0.512822 0
M  V30 20610 N 1826.93 0.320385 1.54309 0
M  V30 20611 C 1827.86 -0.589487 2.20455 0
M  V30 20612 C 1828.84 -1.11816 1.1805 0
M  V30 20613 O 1830.03 -1.18276 1.46776 0
M  V30 20614 C 1827.15 -1.80854 2.86373 0
M  V30 20615 C 1826.2 -1.41139 4.0247 0
M  V30 20616 S 1827.03 -0.450803 5.33599 0
M  V30 20617 C 1828.19 -1.67721 6.03009 0
M  V30 20618 H 1828.42 -0.0275989 2.97287 0
M  V30 20619 H 1825.95 0.104475 1.54046 0
M  V30 20620 H 1827.91 -2.50803 3.24974 0
M  V30 20621 H 1826.57 -2.34161 2.0935 0
M  V30 20622 H 1825.77 -2.31969 4.47444 0
M  V30 20623 H 1825.37 -0.791646 3.65526 0
M  V30 20624 H 1827.66 -2.6151 6.24995 0
M  V30 20625 H 1828.6 -1.26968 6.96624 0
M  V30 20626 H 1829.01 -1.86274 5.32881 0
M  V30 20627 N 1828.41 -1.57525 0.0484906 0
M  V30 20628 C 1829.64 -1.96897 -0.635553 0
M  V30 20629 C 1830.05 -0.925909 -1.64537 0
M  V30 20630 O 1829.41 0.0901742 -1.82277 0
M  V30 20631 C 1829.46 -3.36348 -1.32484 0
M  V30 20632 O 1829.18 -4.36656 -0.355464 0
M  V30 20633 C 1830.68 -3.90463 -2.0989 0
M  V30 20634 H 1827.9 -0.648062 -0.173945 0
M  V30 20635 H 1830.45 -2.04182 0.113997 0
M  V30 20636 H 1828.6 -3.30222 -2.02564 0
M  V30 20637 H 1829.02 -5.17613 -0.847153 0
M  V30 20638 H 1830.49 -4.90326 -2.53543 0
M  V30 20639 H 1830.97 -3.25745 -2.94596 0
M  V30 20640 H 1831.57 -3.99918 -1.44726 0
M  V30 20641 N 1829.89 0.224867 -1.55988 0
M  V30 20642 C 1831.14 0.947776 -1.78045 0
M  V30 20643 C 1831.45 1.85632 -0.616454 0
M  V30 20644 O 1832.66 2.61763 -0.720579 0
M  V30 20645 C 1831.11 1.73546 -3.15293 0
M  V30 20646 C 1830.72 0.873219 -4.39407 0
M  V30 20647 C 1832.46 2.44978 -3.46679 0
M  V30 20648 C 1830.37 1.65806 -5.67682 0
M  V30 20649 H 1829.3 0.357623 -0.663793 0
M  V30 20650 H 1831.95 0.201754 -1.82388 0
M  V30 20651 H 1830.33 2.52426 -3.05118 0
M  V30 20652 H 1831.51 0.125187 -4.6063 0
M  V30 20653 H 1829.82 0.271179 -4.15516 0
M  V30 20654 H 1832.42 3.04192 -4.3974 0
M  V30 20655 H 1832.76 3.17699 -2.69023 0
M  V30 20656 H 1833.3 1.7309 -3.58168 0
M  V30 20657 H 1830.03 0.974191 -6.4822 0
M  V30 20658 H 1829.55 2.38079 -5.50526 0
M  V30 20659 H 1831.23 2.21959 -6.07736 0
M  V30 20660 N 1831.37 1.49742 0.491438 0
M  V30 20661 C 1832.31 1.67614 1.61271 0
M  V30 20662 C 1833.31 0.542004 1.60495 0
M  V30 20663 O 1834.51 0.721922 1.64889 0
M  V30 20664 H 1830.89 0.528696 0.534775 0
M  V30 20665 H 1832.86 2.61711 1.43352 0
M  V30 20666 C 1831.61 1.76877 2.99349 0
M  V30 20667 H 1830.93 2.63526 3.00656 0
M  V30 20668 H 1832.37 1.93414 3.77315 0
M  V30 20669 C 1830.83 0.515719 3.32929 0
M  V30 20670 O 1831.36 -0.354312 4.00134 0
M  V30 20671 N 1829.57 0.3758 2.8816 0
M  V30 20672 H 1829.11 1.08481 2.33644 0
M  V30 20673 H 1829.07 -0.461494 3.10995 0
M  V30 20674 N 1832.84 -0.743177 1.38977 0
M  V30 20675 C 1833.79 -1.87846 1.37174 0
M  V30 20676 C 1834.79 -1.67454 0.256059 0
M  V30 20677 O 1835.99 -1.74895 0.425658 0
M  V30 20678 H 1832.37 -0.618206 0.428166 0
M  V30 20679 H 1834.34 -1.86483 2.32952 0
M  V30 20680 C 1833.09 -3.25443 1.22401 0
M  V30 20681 H 1832.41 -3.41727 2.07516 0
M  V30 20682 H 1833.85 -4.05095 1.25195 0
M  V30 20683 C 1832.31 -3.36831 -0.0682569 0
M  V30 20684 O 1832.84 -3.87964 -1.04147 0
M  V30 20685 N 1831.05 -2.90315 -0.128582 0
M  V30 20686 H 1830.59 -2.48893 0.664077 0
M  V30 20687 H 1830.55 -2.98315 -0.992762 0
M  V30 20688 N 1834.32 -1.24018 -0.972487 0
M  V30 20689 C 1835.29 -1.02941 -2.04782 0
M  V30 20690 C 1836.29 0.0115861 -1.60796 0
M  V30 20691 O 1837.48 -0.228922 -1.72689 0
M  V30 20692 C 1834.61 -0.559246 -3.36282 0
M  V30 20693 H 1835.8 -1.98379 -2.24913 0
M  V30 20694 H 1833.35 -1.06173 -1.14704 0
M  V30 20695 H 1834.09 0.398545 -3.21842 0
M  V30 20696 H 1833.87 -1.31054 -3.6955 0
M  V30 20697 H 1835.36 -0.432669 -4.15353 0
M  V30 20698 N 1835.8 1.17245 -1.05316 0
M  V30 20699 C 1836.73 2.23491 -0.67631 0
M  V30 20700 C 1837.71 1.66937 0.326507 0
M  V30 20701 O 1838.9 1.93127 0.203823 0
M  V30 20702 C 1836.03 3.47262 -0.0515755 0
M  V30 20703 C 1834.98 4.16646 -0.97929 0
M  V30 20704 C 1834.31 5.34254 -0.218369 0
M  V30 20705 C 1835.61 4.68736 -2.30399 0
M  V30 20706 H 1837.3 2.55269 -1.56455 0
M  V30 20707 H 1834.85 1.22699 -0.753714 0
M  V30 20708 H 1836.8 4.20805 0.223865 0
M  V30 20709 H 1835.52 3.14755 0.871614 0
M  V30 20710 H 1834.18 3.45017 -1.23931 0
M  V30 20711 H 1833.83 4.97998 0.707624 0
M  V30 20712 H 1833.53 5.81615 -0.83654 0
M  V30 20713 H 1835.05 6.1058 0.0497574 0
M  V30 20714 H 1836.47 5.3391 -2.08837 0
M  V30 20715 H 1834.87 5.2668 -2.87625 0
M  V30 20716 H 1835.94 3.85477 -2.94169 0
M  V30 20717 N 1837.28 0.834353 1.33702 0
M  V30 20718 C 1838.52 0.428521 1.98221 0
M  V30 20719 C 1838.86 -1.00858 1.65956 0
M  V30 20720 O 1838.13 -1.70437 0.937094 0
M  V30 20721 C 1838.42 0.644357 3.54288 0
M  V30 20722 C 1838.27 2.1284 3.96256 0
M  V30 20723 C 1839.59 0.0876063 4.40013 0
M  V30 20724 H 1836.71 0.15717 0.720046 0
M  V30 20725 H 1839.35 1.04903 1.58415 0
M  V30 20726 H 1837.5 0.116173 3.88326 0
M  V30 20727 H 1839.17 2.72111 3.72496 0
M  V30 20728 H 1837.41 2.61461 3.46151 0
M  V30 20729 H 1838.08 2.23019 5.04942 0
M  V30 20730 H 1840.56 0.539025 4.12594 0
M  V30 20731 H 1839.44 0.268345 5.48244 0
M  V30 20732 H 1839.7 -1.00829 4.30449 0
M  V30 20733 N 1838.76 -1.46125 0.590367 0
M  V30 20734 C 1840.17 -1.85962 0.165876 0
M  V30 20735 C 1840.52 -1.49296 -1.27299 0
M  V30 20736 O 1839.64 -0.911461 -1.96269 0
M  V30 20737 C 1840.24 -3.3752 0.294262 0
M  V30 20738 C 1838.8 -3.76324 -0.0754118 0
M  V30 20739 C 1837.94 -2.70126 0.626682 0
M  V30 20740 H 1840.9 -1.3717 0.79812 0
M  V30 20741 H 1840.92 -3.77482 -0.4783 0
M  V30 20742 H 1840.43 -3.64175 1.34159 0
M  V30 20743 H 1838.53 -3.55287 -1.12258 0
M  V30 20744 H 1838.64 -4.7812 0.306241 0
M  V30 20745 H 1837.01 -2.54614 0.0661219 0
M  V30 20746 H 1837.79 -2.99619 1.6758 0
M  V30 20747 N 1840.23 -0.328564 -1.54137 0
M  V30 20748 C 1841.14 0.543922 -2.28207 0
M  V30 20749 C 1842.16 1.1249 -1.32748 0
M  V30 20750 O 1843.34 1.1438 -1.65769 0
M  V30 20751 C 1840.4 1.6864 -3.02922 0
M  V30 20752 C 1839.46 1.13672 -4.13977 0
M  V30 20753 C 1838.7 2.22474 -4.85119 0
M  V30 20754 O 1838.92 3.42914 -4.55813 0
M  V30 20755 O 1837.85 1.87611 -5.71914 0
M  V30 20756 H 1841.68 -0.0577601 -3.03645 0
M  V30 20757 H 1839.26 -0.0940895 -1.49103 0
M  V30 20758 H 1841.15 2.35143 -3.49693 0
M  V30 20759 H 1839.82 2.27417 -2.30355 0
M  V30 20760 H 1838.73 0.436625 -3.71543 0
M  V30 20761 H 1840.06 0.594012 -4.88602 0
M  V30 20762 N 1841.71 1.57497 -0.0568439 0
M  V30 20763 C 1842.96 1.9209 0.615157 0
M  V30 20764 C 1843.27 0.937538 1.71667 0
M  V30 20765 O 1844.48 1.17573 2.44722 0
M  V30 20766 C 1842.94 3.41183 1.14552 0
M  V30 20767 C 1842.54 4.47936 0.0758146 0
M  V30 20768 C 1844.29 3.84801 1.79244 0
M  V30 20769 C 1842.2 5.88148 0.619381 0
M  V30 20770 H 1841.13 0.716918 0.233547 0
M  V30 20771 H 1843.78 1.83062 -0.126654 0
M  V30 20772 H 1842.16 3.45234 1.93983 0
M  V30 20773 H 1843.33 4.55482 -0.69807 0
M  V30 20774 H 1841.65 4.13694 -0.473984 0
M  V30 20775 H 1844.24 4.86929 2.20918 0
M  V30 20776 H 1844.59 3.21355 2.64645 0
M  V30 20777 H 1845.12 3.8329 1.0646 0
M  V30 20778 H 1841.86 6.55204 -0.19712 0
M  V30 20779 H 1841.38 5.84152 1.36112 0
M  V30 20780 H 1843.06 6.37572 1.1005 0
M  V30 20781 N 1843.19 -0.216591 1.56105 0
M  V30 20782 C 1844.12 -1.29202 1.89313 0
M  V30 20783 C 1845.14 -1.42798 0.781832 0
M  V30 20784 O 1846.32 -1.43607 1.06016 0
M  V30 20785 C 1843.42 -2.66701 2.09102 0
M  V30 20786 C 1842.6 -2.74989 3.40147 0
M  V30 20787 C 1841.66 -3.93536 3.49308 0
M  V30 20788 O 1840.68 -3.81642 4.22301 0
M  V30 20789 N 1841.88 -5.08059 2.80814 0
M  V30 20790 H 1844.65 -1.01038 2.82155 0
M  V30 20791 H 1842.21 -0.406611 1.56711 0
M  V30 20792 H 1844.2 -3.44396 2.12541 0
M  V30 20793 H 1842.77 -2.87443 1.22862 0
M  V30 20794 H 1841.99 -1.83733 3.48763 0
M  V30 20795 H 1843.28 -2.775 4.26464 0
M  V30 20796 H 1842.68 -5.20618 2.21299 0
M  V30 20797 H 1841.24 -5.83778 2.89908 0
M  V30 20798 N 1844.67 -1.5 -0.48349 0
M  V30 20799 C 1846.08 -1.53369 -1.06466 0
M  V30 20800 C 1846.43 -0.329973 -1.93405 0
M  V30 20801 O 1845.56 0.558444 -2.0907 0
M  V30 20802 C 1846.15 -2.77927 -1.93757 0
M  V30 20803 C 1844.71 -2.84017 -2.47005 0
M  V30 20804 C 1843.86 -2.47506 -1.25044 0
M  V30 20805 H 1846.81 -1.56444 -0.266633 0
M  V30 20806 H 1846.83 -2.59081 -2.78671 0
M  V30 20807 H 1846.34 -3.65518 -1.30454 0
M  V30 20808 H 1844.44 -2.00748 -3.13896 0
M  V30 20809 H 1844.55 -3.86614 -2.8296 0
M  V30 20810 H 1842.92 -1.99669 -1.58127 0
M  V30 20811 H 1843.7 -3.37391 -0.634225 0
M  V30 20812 N 1846.15 0.735796 -1.39369 0
M  V30 20813 C 1847.38 1.52283 -1.39619 0
M  V30 20814 C 1847.78 1.89197 0.0112732 0
M  V30 20815 O 1847.13 1.54562 0.992786 0
M  V30 20816 C 1847.19 2.83993 -2.20427 0
M  V30 20817 C 1846.85 2.69518 -3.69065 0
M  V30 20818 C 1847.85 2.38119 -4.62164 0
M  V30 20819 C 1845.54 2.86414 -4.12641 0
M  V30 20820 C 1847.53 2.23797 -5.9682 0
M  V30 20821 C 1845.22 2.7171 -5.47373 0
M  V30 20822 C 1846.21 2.40447 -6.39277 0
M  V30 20823 O 1845.9 2.25833 -7.71527 0
M  V30 20824 H 1845.63 0.477218 -0.478789 0
M  V30 20825 H 1848.19 0.916936 -1.83797 0
M  V30 20826 H 1846.42 3.46839 -1.70996 0
M  V30 20827 H 1848.11 3.45606 -2.12865 0
M  V30 20828 H 1848.87 2.24717 -4.29799 0
M  V30 20829 H 1844.75 3.0974 -3.41441 0
M  V30 20830 H 1848.3 1.99316 -6.6852 0
M  V30 20831 H 1844.19 2.8469 -5.79329 0
M  V30 20832 H 1844.96 2.40909 -7.82244 0
M  V30 20833 N 1847.63 1.24532 0.965897 0
M  V30 20834 C 1848.57 1.03699 2.08205 0
M  V30 20835 C 1849.57 -0.0286308 1.69376 0
M  V30 20836 O 1850.77 0.126073 1.79558 0
M  V30 20837 H 1847.15 0.318331 0.6813 0
M  V30 20838 H 1849.12 1.98348 2.22937 0
M  V30 20839 C 1847.87 0.660411 3.41371 0
M  V30 20840 H 1847.19 1.47216 3.71709 0
M  V30 20841 H 1848.63 0.554264 4.20362 0
M  V30 20842 C 1847.09 -0.632633 3.30907 0
M  V30 20843 O 1847.62 -1.67786 3.6498 0
M  V30 20844 N 1845.83 -0.61403 2.84039 0
M  V30 20845 H 1845.37 0.236909 2.56508 0
M  V30 20846 H 1845.33 -1.47938 2.7742 0
M  V30 20847 N 1849.1 -1.16685 1.05936 0
M  V30 20848 C 1850.52 -1.39122 0.78213 0
M  V30 20849 C 1850.72 -1.9172 -0.620152 0
M  V30 20850 O 1849.78 -2.11366 -1.38132 0
M  V30 20851 C 1851.09 -2.37522 1.84401 0
M  V30 20852 C 1852.64 -2.51214 1.8671 0
M  V30 20853 C 1853.11 -3.52894 2.91942 0
M  V30 20854 N 1854.6 -3.60418 2.90952 0
M  V30 20855 C 1855.34 -4.38873 3.69023 0
M  V30 20856 N 1854.83 -5.20781 4.56902 0
M  V30 20857 N 1856.63 -4.3382 3.57431 0
M  V30 20858 H 1848.78 -0.808781 1.96399 0
M  V30 20859 H 1851.04 -0.418008 0.850866 0
M  V30 20860 H 1850.75 -2.05962 2.85084 0
M  V30 20861 H 1850.62 -3.37123 1.69197 0
M  V30 20862 H 1853.01 -2.8208 0.866875 0
M  V30 20863 H 1853.09 -1.51661 2.05992 0
M  V30 20864 H 1852.73 -3.22765 3.92155 0
M  V30 20865 H 1852.66 -4.52168 2.6991 0
M  V30 20866 H 1855.15 -3.01945 2.27239 0
M  V30 20867 H 1855.47 -5.77848 5.13138 0
M  V30 20868 H 1853.81 -5.20136 4.60959 0
M  V30 20869 H 1857 -3.68888 2.88165 0
M  V30 20870 H 1857.18 -4.94717 4.1852 0
M  V30 20871 N 1850.58 -0.841432 -1.33258 0
M  V30 20872 C 1852 -0.529552 -1.50559 0
M  V30 20873 C 1852.2 0.942598 -1.78094 0
M  V30 20874 O 1851.25 1.72628 -1.84271 0
M  V30 20875 C 1852.57 -1.40511 -2.65852 0
M  V30 20876 C 1854.11 -1.40415 -2.79737 0
M  V30 20877 C 1854.59 -2.26462 -3.98094 0
M  V30 20878 N 1856.08 -2.24185 -4.05334 0
M  V30 20879 C 1856.82 -2.875 -4.96116 0
M  V30 20880 N 1856.31 -3.59877 -5.91997 0
M  V30 20881 N 1858.1 -2.76957 -4.89133 0
M  V30 20882 H 1850.26 -1.79438 -1.13648 0
M  V30 20883 H 1852.52 -0.765683 -0.558958 0
M  V30 20884 H 1852.22 -2.45136 -2.52193 0
M  V30 20885 H 1852.1 -1.08299 -3.61319 0
M  V30 20886 H 1854.49 -0.365604 -2.92826 0
M  V30 20887 H 1854.57 -1.76636 -1.85023 0
M  V30 20888 H 1854.21 -3.30377 -3.85764 0
M  V30 20889 H 1854.14 -1.87581 -4.92058 0
M  V30 20890 H 1856.63 -1.71553 -3.36716 0
M  V30 20891 H 1856.94 -4.05388 -6.57936 0
M  V30 20892 H 1855.29 -3.63985 -5.92064 0
M  V30 20893 H 1858.48 -2.19974 -4.13194 0
M  V30 20894 H 1858.65 -3.26585 -5.59684 0
M  V30 20895 N 1852.06 1.4581 -0.598108 0
M  V30 20896 C 1853.01 2.30454 0.126261 0
M  V30 20897 C 1853.98 1.41541 0.869221 0
M  V30 20898 O 1855.16 1.70478 0.856841 0
M  V30 20899 C 1852.3 3.26285 1.12393 0
M  V30 20900 C 1851.41 4.303 0.382824 0
M  V30 20901 C 1850.55 5.13246 1.36937 0
M  V30 20902 C 1849.59 6.08997 0.615545 0
M  V30 20903 N 1848.73 6.84756 1.55091 0
M  V30 20904 H 1853.57 2.91865 -0.601573 0
M  V30 20905 H 1851.1 1.43829 -0.308467 0
M  V30 20906 H 1853.06 3.80303 1.71539 0
M  V30 20907 H 1851.69 2.66649 1.81929 0
M  V30 20908 H 1850.74 3.79018 -0.323962 0
M  V30 20909 H 1852.05 4.98375 -0.205781 0
M  V30 20910 H 1851.21 5.71618 2.03318 0
M  V30 20911 H 1849.95 4.45168 1.99191 0
M  V30 20912 H 1848.95 5.49765 -0.0619441 0
M  V30 20913 H 1850.18 6.791 -0.00181251 0
M  V30 20914 H 1848.12 6.19375 2.16127 0
M  V30 20915 H 1848.04 7.49149 1.0155 0
M  V30 20916 H 1849.31 7.47675 2.20458 0
M  V30 20917 N 1853.54 0.336733 1.53961 0
M  V30 20918 C 1854.77 -0.263064 2.04918 0
M  V30 20919 C 1855.18 -1.45301 1.21178 0
M  V30 20920 O 1854.52 -1.82147 0.238356 0
M  V30 20921 C 1854.58 -0.748277 3.51626 0
M  V30 20922 C 1854.24 0.321112 4.5587 0
M  V30 20923 C 1855.24 1.16157 5.06758 0
M  V30 20924 C 1852.93 0.473083 5.00067 0
M  V30 20925 C 1854.92 2.1396 6.00416 0
M  V30 20926 C 1852.61 1.45452 5.93538 0
M  V30 20927 C 1853.61 2.28624 6.43599 0
M  V30 20928 O 1853.29 3.25098 7.35232 0
M  V30 20929 H 1853.03 -0.0558258 0.673691 0
M  V30 20930 H 1855.58 0.484895 1.99594 0
M  V30 20931 H 1853.81 -1.54737 3.54392 0
M  V30 20932 H 1855.5 -1.26787 3.8559 0
M  V30 20933 H 1856.26 1.05521 4.73382 0
M  V30 20934 H 1852.14 -0.164435 4.60707 0
M  V30 20935 H 1855.69 2.78916 6.39415 0
M  V30 20936 H 1851.58 1.56146 6.26329 0
M  V30 20937 H 1852.35 3.2049 7.53146 0
M  V30 20938 N 1855.02 -1.57465 0.0651956 0
M  V30 20939 C 1855.95 -2.07935 -0.940127 0
M  V30 20940 C 1856.93 -0.982966 -1.29524 0
M  V30 20941 O 1858.11 -1.25589 -1.40569 0
M  V30 20942 C 1855.24 -2.53152 -2.25014 0
M  V30 20943 C 1854.28 -3.74162 -2.04707 0
M  V30 20944 S 1855.12 -5.19166 -1.3125 0
M  V30 20945 C 1856.27 -5.6771 -2.63545 0
M  V30 20946 H 1856.51 -2.92882 -0.510656 0
M  V30 20947 H 1854.04 -1.53695 -0.147413 0
M  V30 20948 H 1856 -2.79866 -3.00309 0
M  V30 20949 H 1854.66 -1.68486 -2.65087 0
M  V30 20950 H 1853.85 -4.03768 -3.01641 0
M  V30 20951 H 1853.45 -3.47787 -1.3755 0
M  V30 20952 H 1855.74 -5.74152 -3.59661 0
M  V30 20953 H 1856.69 -6.66705 -2.38558 0
M  V30 20954 H 1857.1 -4.95498 -2.70448 0
M  V30 20955 N 1856.49 0.20831 -1.56217 0
M  V30 20956 C 1857.72 0.947271 -1.83941 0
M  V30 20957 C 1858.14 1.77403 -0.646029 0
M  V30 20958 O 1857.49 1.78385 0.385378 0
M  V30 20959 C 1857.54 1.85415 -3.10328 0
M  V30 20960 O 1857.27 1.06079 -4.25063 0
M  V30 20961 C 1858.77 2.7059 -3.51135 0
M  V30 20962 H 1855.99 0.277012 -0.611151 0
M  V30 20963 H 1858.53 0.219545 -2.03318 0
M  V30 20964 H 1856.69 2.53566 -2.92888 0
M  V30 20965 H 1857.1 1.67758 -4.96948 0
M  V30 20966 H 1858.57 3.29902 -4.42571 0
M  V30 20967 H 1859.05 3.43645 -2.73505 0
M  V30 20968 H 1859.66 2.07831 -3.71061 0
M  V30 20969 N 1857.97 1.50255 0.475528 0
M  V30 20970 C 1859.22 1.60263 1.22468 0
M  V30 20971 C 1859.53 0.306389 1.93185 0
M  V30 20972 O 1860.74 0.285331 2.69997 0
M  V30 20973 C 1859.2 2.82876 2.22506 0
M  V30 20974 C 1858.8 4.19359 1.57612 0
M  V30 20975 C 1860.55 3.02228 2.98091 0
M  V30 20976 C 1858.45 5.33164 2.55911 0
M  V30 20977 H 1857.38 0.596804 0.460804 0
M  V30 20978 H 1860.04 1.76679 0.495653 0
M  V30 20979 H 1858.42 2.6001 2.98682 0
M  V30 20980 H 1859.59 4.52463 0.872559 0
M  V30 20981 H 1857.91 4.05576 0.943247 0
M  V30 20982 H 1860.5 3.84422 3.7165 0
M  V30 20983 H 1860.85 2.13781 3.57216 0
M  V30 20984 H 1861.38 3.25255 2.29029 0
M  V30 20985 H 1858.12 6.23751 2.01531 0
M  V30 20986 H 1857.64 5.04484 3.24432 0
M  V30 20987 H 1859.32 5.63554 3.17829 0
M  V30 20988 N 1859.45 -0.728395 1.39758 0
M  V30 20989 C 1860.68 -1.5154 1.40425 0
M  V30 20990 C 1861.09 -1.892 -0.00123953 0
M  V30 20991 O 1860.43 -1.55086 -0.984575 0
M  V30 20992 C 1860.49 -2.8282 2.2193 0
M  V30 20993 C 1860.16 -2.67557 3.70489 0
M  V30 20994 C 1861.15 -2.35665 4.6342 0
M  V30 20995 C 1858.84 -2.84221 4.14154 0
M  V30 20996 C 1860.83 -2.20628 5.97998 0
M  V30 20997 C 1858.52 -2.68803 5.48806 0
M  V30 20998 C 1859.52 -2.37053 6.40543 0
M  V30 20999 O 1859.21 -2.21738 7.72714 0
M  V30 21000 H 1858.94 -0.474672 0.481313 0
M  V30 21001 H 1861.49 -0.907176 1.84281 0
M  V30 21002 H 1859.72 -3.45927 1.72833 0
M  V30 21003 H 1861.41 -3.44472 2.14695 0
M  V30 21004 H 1862.18 -2.22435 4.30985 0
M  V30 21005 H 1858.06 -3.07925 3.43079 0
M  V30 21006 H 1861.6 -1.95768 6.69567 0
M  V30 21007 H 1857.5 -2.81614 5.8083 0
M  V30 21008 H 1858.26 -2.36758 7.8351 0
M  V30 21009 N 1860.93 -1.25042 -0.959279 0
M  V30 21010 C 1862.18 -1.08912 -1.69768 0
M  V30 21011 C 1862.49 0.370558 -1.92058 0
M  V30 21012 O 1863.7 0.652214 -2.6355 0
M  V30 21013 C 1862.15 -1.90075 -3.05613 0
M  V30 21014 C 1861.76 -3.40506 -2.91136 0
M  V30 21015 C 1863.5 -1.825 -3.83268 0
M  V30 21016 C 1861.41 -4.13982 -4.22343 0
M  V30 21017 H 1860.34 -0.403959 -0.636658 0
M  V30 21018 H 1862.99 -1.49198 -1.06828 0
M  V30 21019 H 1861.37 -1.42609 -3.6943 0
M  V30 21020 H 1862.55 -3.95612 -2.36279 0
M  V30 21021 H 1860.86 -3.49123 -2.2694 0
M  V30 21022 H 1863.46 -2.34693 -4.80441 0
M  V30 21023 H 1863.8 -0.791947 -4.08698 0
M  V30 21024 H 1864.34 -2.27691 -3.26192 0
M  V30 21025 H 1861.07 -5.17681 -4.02103 0
M  V30 21026 H 1860.59 -3.6366 -4.76982 0
M  V30 21027 H 1862.27 -4.21443 -4.90913 0
M  V30 21028 N 1862.41 1.16121 -1.06553 0
M  V30 21029 C 1863.35 2.22656 -0.672827 0
M  V30 21030 C 1864.35 1.66492 0.312509 0
M  V30 21031 O 1865.55 1.79127 0.17709 0
M  V30 21032 H 1861.93 0.725064 -0.199464 0
M  V30 21033 H 1863.9 2.53065 -1.58116 0
M  V30 21034 C 1862.65 3.47612 -0.0780782 0
M  V30 21035 H 1861.97 3.91145 -0.82739 0
M  V30 21036 H 1863.41 4.23701 0.159143 0
M  V30 21037 C 1861.87 3.15594 1.17906 0
M  V30 21038 O 1862.4 3.31641 2.26665 0
M  V30 21039 N 1860.61 2.69703 1.08206 0
M  V30 21040 H 1860.15 2.56846 0.196981 0
M  V30 21041 H 1860.11 2.48654 1.92402 0
M  V30 21042 N 1863.88 0.848487 1.3281 0
M  V30 21043 C 1864.79 0.291355 2.32784 0
M  V30 21044 C 1865.81 -0.587621 1.63777 0
M  V30 21045 O 1866.99 -0.489458 1.95362 0
M  V30 21046 C 1864.05 -0.51634 3.42834 0
M  V30 21047 C 1863.11 0.388046 4.27543 0
M  V30 21048 C 1862.35 -0.381197 5.32337 0
M  V30 21049 O 1862.57 -1.61186 5.47152 0
M  V30 21050 O 1861.5 0.2498 6.01381 0
M  V30 21051 H 1865.33 1.11947 2.82315 0
M  V30 21052 H 1862.91 0.611259 1.36323 0
M  V30 21053 H 1864.8 -0.974995 4.09966 0
M  V30 21054 H 1863.47 -1.32136 2.95503 0
M  V30 21055 H 1862.38 0.894745 3.63243 0
M  V30 21056 H 1863.71 1.15808 4.78382 0
M  V30 21057 N 1865.36 -1.4549 0.605832 0
M  V30 21058 C 1866.33 -2.28964 -0.104089 0
M  V30 21059 C 1867.33 -1.39671 -0.796791 0
M  V30 21060 O 1868.52 -1.6181 -0.645221 0
M  V30 21061 C 1865.65 -3.20647 -1.1575 0
M  V30 21062 H 1866.84 -2.93213 0.629776 0
M  V30 21063 H 1864.39 -1.51983 0.3648 0
M  V30 21064 H 1865.13 -2.61194 -1.92219 0
M  V30 21065 H 1864.91 -3.86419 -0.665025 0
M  V30 21066 H 1866.4 -3.83416 -1.65474 0
M  V30 21067 N 1866.84 -0.344893 -1.5378 0
M  V30 21068 C 1868.07 0.252193 -2.05055 0
M  V30 21069 C 1868.48 1.44657 -1.21947 0
M  V30 21070 O 1867.82 1.82018 -0.248012 0
M  V30 21071 C 1867.88 0.729619 -3.52018 0
M  V30 21072 C 1867.55 -0.345284 -4.55694 0
M  V30 21073 C 1868.54 -1.18843 -5.06135 0
M  V30 21074 C 1866.23 -0.499596 -4.99809 0
M  V30 21075 C 1868.22 -2.17141 -5.99273 0
M  V30 21076 C 1865.91 -1.48598 -5.92758 0
M  V30 21077 C 1866.91 -2.32033 -6.42378 0
M  V30 21078 O 1866.6 -3.28992 -7.33498 0
M  V30 21079 H 1866.33 0.0522523 -0.673978 0
M  V30 21080 H 1868.88 -0.495473 -1.99334 0
M  V30 21081 H 1867.11 1.52855 -3.55207 0
M  V30 21082 H 1868.8 1.2474 -3.86257 0
M  V30 21083 H 1869.57 -1.0803 -4.72816 0
M  V30 21084 H 1865.45 0.14 -4.60787 0
M  V30 21085 H 1868.99 -2.82303 -6.37927 0
M  V30 21086 H 1864.89 -1.59466 -6.25493 0
M  V30 21087 H 1865.66 -3.24479 -7.51436 0
M  V30 21088 N 1868.32 1.57428 -0.0735454 0
M  V30 21089 C 1869.57 1.92732 0.594748 0
M  V30 21090 C 1869.88 0.955693 1.70663 0
M  V30 21091 O 1871.09 1.20162 2.43461 0
M  V30 21092 C 1869.54 3.42379 1.10927 0
M  V30 21093 C 1869.15 4.47991 0.0283008 0
M  V30 21094 C 1870.89 3.8668 1.75153 0
M  V30 21095 C 1868.8 5.88771 0.556965 0
M  V30 21096 H 1867.73 0.719355 0.22593 0
M  V30 21097 H 1870.38 1.82918 -0.146063 0
M  V30 21098 H 1868.76 3.47272 1.9031 0
M  V30 21099 H 1869.94 4.54716 -0.74634 0
M  V30 21100 H 1868.25 4.13168 -0.517835 0
M  V30 21101 H 1870.85 4.89244 2.15741 0
M  V30 21102 H 1871.19 3.24144 2.61221 0
M  V30 21103 H 1871.73 3.84397 1.02389 0
M  V30 21104 H 1868.47 6.54958 -0.266602 0
M  V30 21105 H 1867.99 5.85563 1.29909 0
M  V30 21106 H 1869.66 6.38703 1.03281 0
M  V30 21107 N 1869.8 -0.200022 1.56326 0
M  V30 21108 C 1870.74 -1.24792 1.94154 0
M  V30 21109 C 1871.71 -1.45484 0.801474 0
M  V30 21110 O 1872.9 -1.58699 1.05921 0
M  V30 21111 C 1870.04 -2.5887 2.28211 0
M  V30 21112 C 1869.15 -2.45798 3.55257 0
M  V30 21113 C 1868.29 -3.72546 3.78659 0
M  V30 21114 C 1867.33 -3.54286 4.99147 0
M  V30 21115 N 1866.46 -4.73034 5.18829 0
M  V30 21116 H 1871.3 -0.918324 2.83497 0
M  V30 21117 H 1868.84 -0.442097 1.40299 0
M  V30 21118 H 1870.8 -3.36977 2.45972 0
M  V30 21119 H 1869.43 -2.89883 1.42014 0
M  V30 21120 H 1868.48 -1.59013 3.4557 0
M  V30 21121 H 1869.79 -2.28236 4.4352 0
M  V30 21122 H 1868.95 -4.59094 3.96633 0
M  V30 21123 H 1867.68 -3.93057 2.88717 0
M  V30 21124 H 1866.69 -2.66123 4.81102 0
M  V30 21125 H 1867.91 -3.35225 5.90594 0
M  V30 21126 H 1865.86 -4.93818 4.31834 0
M  V30 21127 H 1865.78 -4.58279 6.01262 0
M  V30 21128 H 1867.05 -5.60947 5.41257 0
M  V30 21129 N 1871.27 -1.50505 -0.467553 0
M  V30 21130 C 1872.22 -1.70158 -1.58584 0
M  V30 21131 C 1873.22 -0.567469 -1.59613 0
M  V30 21132 O 1874.42 -0.748063 -1.63719 0
M  V30 21133 H 1870.8 -0.537137 -0.526296 0
M  V30 21134 H 1872.77 -2.63959 -1.39171 0
M  V30 21135 C 1871.52 -1.81617 -2.96497 0
M  V30 21136 H 1870.84 -2.68276 -2.96425 0
M  V30 21137 H 1872.28 -1.99393 -3.74191 0
M  V30 21138 C 1870.74 -0.56862 -3.32067 0
M  V30 21139 O 1871.27 0.29061 -4.00647 0
M  V30 21140 N 1869.48 -0.421597 -2.87526 0
M  V30 21141 H 1869.02 -1.12184 -2.31889 0
M  V30 21142 H 1868.98 0.411959 -3.11689 0
M  V30 21143 N 1872.75 0.720973 -1.40142 0
M  V30 21144 C 1874 1.4763 -1.37435 0
M  V30 21145 C 1874.31 1.95587 0.0222038 0
M  V30 21146 O 1875.52 2.70955 0.171885 0
M  V30 21147 C 1873.98 2.66828 -2.41517 0
M  V30 21148 C 1873.58 2.25763 -3.86956 0
M  V30 21149 C 1875.33 3.44589 -2.47908 0
M  V30 21150 C 1873.24 3.41768 -4.82648 0
M  V30 21151 H 1872.17 0.554436 -0.510996 0
M  V30 21152 H 1874.82 0.785164 -1.65854 0
M  V30 21153 H 1873.2 3.38086 -2.0619 0
M  V30 21154 H 1874.37 1.61961 -4.31399 0
M  V30 21155 H 1872.69 1.61059 -3.83991 0
M  V30 21156 H 1875.28 4.309 -3.1659 0
M  V30 21157 H 1875.63 3.8803 -1.50792 0
M  V30 21158 H 1876.16 2.80371 -2.822 0
M  V30 21159 H 1872.9 3.03364 -5.81077 0
M  V30 21160 H 1872.42 4.04504 -4.42873 0
M  V30 21161 H 1874.1 4.07909 -5.02214 0
M  V30 21162 N 1874.23 1.25549 0.952634 0
M  V30 21163 C 1875.48 1.1058 1.7 0
M  V30 21164 C 1875.81 -0.35206 1.90982 0
M  V30 21165 O 1875.08 -1.25938 1.48222 0
M  V30 21166 C 1875.37 1.86283 3.08173 0
M  V30 21167 C 1875.22 3.39909 2.94588 0
M  V30 21168 C 1876.54 1.64755 4.08098 0
M  V30 21169 H 1873.66 0.403095 0.616996 0
M  V30 21170 H 1876.3 1.54406 1.1072 0
M  V30 21171 H 1874.45 1.49033 3.58778 0
M  V30 21172 H 1876.12 3.86845 2.51294 0
M  V30 21173 H 1874.37 3.67518 2.30462 0
M  V30 21174 H 1875.04 3.88094 3.92539 0
M  V30 21175 H 1877.51 1.97186 3.66411 0
M  V30 21176 H 1876.39 2.20157 5.02814 0
M  V30 21177 H 1876.65 0.589348 4.38154 0
M  V30 21178 N 1875.71 -1.15554 1.07168 0
M  V30 21179 C 1876.93 -1.90723 0.814832 0
M  V30 21180 C 1877.36 -1.7738 -0.62594 0
M  V30 21181 O 1876.72 -1.10521 -1.43718 0
M  V30 21182 C 1876.76 -3.39137 1.22551 0
M  V30 21183 O 1875.87 -4.1074 0.369677 0
M  V30 21184 H 1875.21 -0.593866 0.297017 0
M  V30 21185 H 1877.74 -1.46348 1.42981 0
M  V30 21186 H 1877.75 -3.89926 1.20089 0
M  V30 21187 H 1876.42 -3.48167 2.27492 0
M  V30 21188 H 1875 -3.70094 0.456626 0
M  V30 21189 N 1877.19 -0.855519 -1.32358 0
M  V30 21190 C 1878.46 -0.380575 -1.91862 0
M  V30 21191 C 1878.84 1.13593 -1.77932 0
M  V30 21192 O 1878.19 1.95797 -1.17796 0
M  V30 21193 C 1878.4 -0.845902 -3.38593 0
M  V30 21194 C 1879.75 -0.863586 -4.15725 0
M  V30 21195 O 1880.77 -0.790597 -3.47315 0
M  V30 21196 O 1879.63 -0.966658 -5.37883 0
M  V30 21197 H 1876.73 -0.111156 -0.819496 0
M  V30 21198 H 1879.27 -0.942476 -1.41122 0
M  V30 21199 H 1878.05 -1.88909 -3.42679 0
M  V30 21200 H 1877.67 -0.2615 -3.96739 0
M  V30 21201 N 1878.67 1.45167 -0.61354 0
M  V30 21202 C 1879.63 2.29016 0.0919454 0
M  V30 21203 C 1880.63 1.40091 0.789373 0
M  V30 21204 O 1881.82 1.6215 0.636631 0
M  V30 21205 C 1878.95 3.21257 1.14048 0
M  V30 21206 H 1880.14 2.92875 -0.645317 0
M  V30 21207 H 1877.7 1.51788 -0.372855 0
M  V30 21208 H 1878.43 2.6221 1.90831 0
M  V30 21209 H 1878.22 3.86766 0.644523 0
M  V30 21210 H 1879.71 3.84288 1.63439 0
M  V30 21211 N 1880.14 0.353044 1.53595 0
M  V30 21212 C 1881.07 -0.491481 2.28269 0
M  V30 21213 C 1882.05 -1.0946 1.30201 0
M  V30 21214 O 1883.24 -1.11421 1.59056 0
M  V30 21215 C 1880.37 -1.63776 3.06259 0
M  V30 21216 C 1879.32 -1.16251 4.1191 0
M  V30 21217 C 1878.65 -2.39805 4.7791 0
M  V30 21218 C 1879.95 -0.256191 5.21671 0
M  V30 21219 H 1881.64 0.131483 2.99111 0
M  V30 21220 H 1879.19 0.0646771 1.43855 0
M  V30 21221 H 1881.14 -2.2351 3.57241 0
M  V30 21222 H 1879.87 -2.28777 2.33085 0
M  V30 21223 H 1878.53 -0.587934 3.61855 0
M  V30 21224 H 1878.17 -3.03234 4.0132 0
M  V30 21225 H 1877.87 -2.08684 5.49295 0
M  V30 21226 H 1879.4 -3.00248 5.3168 0
M  V30 21227 H 1880.81 -0.760642 5.68232 0
M  V30 21228 H 1879.21 -0.0364273 6.00089 0
M  V30 21229 H 1880.28 0.705105 4.79746 0
M  V30 21230 N 1881.62 -1.57387 0.0818932 0
M  V30 21231 C 1882.85 -1.98201 -0.593645 0
M  V30 21232 C 1883.26 -0.960602 -1.62536 0
M  V30 21233 O 1882.62 0.0514903 -1.82427 0
M  V30 21234 C 1882.67 -3.39083 -1.2532 0
M  V30 21235 O 1882.39 -4.37311 -0.262763 0
M  V30 21236 C 1883.89 -3.94827 -2.0156 0
M  V30 21237 H 1881.11 -0.651606 -0.160159 0
M  V30 21238 H 1883.66 -2.03894 0.157281 0
M  V30 21239 H 1881.81 -3.34444 -1.95514 0
M  V30 21240 H 1882.23 -5.19294 -0.737169 0
M  V30 21241 H 1883.7 -4.95594 -2.43086 0
M  V30 21242 H 1884.18 -3.31921 -2.8762 0
M  V30 21243 H 1884.78 -4.02898 -1.36211 0
M  V30 21244 N 1883.1 0.191729 -1.56429 0
M  V30 21245 C 1884.32 0.931804 -1.85289 0
M  V30 21246 C 1884.75 1.7592 -0.665864 0
M  V30 21247 O 1884.11 1.77158 0.385313 0
M  V30 21248 C 1884.16 1.801 -3.12404 0
M  V30 21249 O 1883.26 2.9002 -2.93193 0
M  V30 21250 H 1882.6 0.262213 -0.610033 0
M  V30 21251 H 1885.13 0.196028 -2.03659 0
M  V30 21252 H 1885.14 2.20499 -3.43285 0
M  V30 21253 H 1883.82 1.19309 -3.9842 0
M  V30 21254 H 1882.39 2.53352 -2.73619 0
M  V30 21255 N 1884.58 1.50751 0.459565 0
M  V30 21256 C 1885.49 1.7326 1.58171 0
M  V30 21257 C 1886.5 0.616042 1.6273 0
M  V30 21258 O 1887.68 0.895726 1.80385 0
M  V30 21259 C 1884.74 1.83249 2.94314 0
M  V30 21260 C 1883.81 3.07031 3.00051 0
M  V30 21261 C 1883.04 3.16534 4.297 0
M  V30 21262 O 1883.26 2.32532 5.2085 0
M  V30 21263 O 1882.2 4.0935 4.41266 0
M  V30 21264 H 1886.02 2.68406 1.42098 0
M  V30 21265 H 1883.61 1.34985 0.640273 0
M  V30 21266 H 1885.49 1.91933 3.75153 0
M  V30 21267 H 1884.16 0.912887 3.10561 0
M  V30 21268 H 1883.07 3.0384 2.18248 0
M  V30 21269 H 1884.4 3.98608 2.88743 0
M  V30 21270 N 1886.06 -0.713531 1.40522 0
M  V30 21271 C 1886.97 -1.8577 1.43272 0
M  V30 21272 C 1887.98 -1.70936 0.325113 0
M  V30 21273 O 1889.16 -1.93165 0.570022 0
M  V30 21274 C 1886.22 -3.21587 1.29548 0
M  V30 21275 C 1885.28 -3.4866 2.50469 0
M  V30 21276 C 1884.52 -4.77998 2.3739 0
M  V30 21277 O 1884.74 -5.53234 1.38881 0
M  V30 21278 O 1883.67 -5.05453 3.26804 0
M  V30 21279 H 1887.5 -1.86406 2.39763 0
M  V30 21280 H 1885.08 -0.864226 1.21867 0
M  V30 21281 H 1886.97 -4.02709 1.2411 0
M  V30 21282 H 1885.64 -3.21674 0.36163 0
M  V30 21283 H 1884.55 -2.67539 2.61483 0
M  V30 21284 H 1885.88 -3.53372 3.42621 0
M  V30 21285 N 1887.53 -1.26053 -0.945962 0
M  V30 21286 C 1888.78 -1.10706 -1.68603 0
M  V30 21287 C 1889.1 0.350167 -1.9244 0
M  V30 21288 O 1890.3 0.624224 -2.64227 0
M  V30 21289 C 1888.76 -1.93306 -3.0358 0
M  V30 21290 C 1888.37 -3.43574 -2.87508 0
M  V30 21291 C 1890.11 -1.86555 -3.8131 0
M  V30 21292 C 1888.02 -4.18438 -4.17928 0
M  V30 21293 H 1886.95 -0.410689 -0.632337 0
M  V30 21294 H 1889.6 -1.50322 -1.0524 0
M  V30 21295 H 1887.98 -1.4652 -3.67897 0
M  V30 21296 H 1889.15 -3.98096 -2.3207 0
M  V30 21297 H 1887.47 -3.51511 -2.23224 0
M  V30 21298 H 1890.07 -2.39775 -4.77925 0
M  V30 21299 H 1890.41 -0.83525 -4.07835 0
M  V30 21300 H 1890.94 -2.31138 -3.23759 0
M  V30 21301 H 1887.68 -5.21917 -3.96589 0
M  V30 21302 H 1887.2 -3.68698 -4.73098 0
M  V30 21303 H 1888.88 -4.26626 -4.86415 0
M  V30 21304 N 1889.01 1.14984 -1.07779 0
M  V30 21305 C 1889.96 2.19864 -0.702018 0
M  V30 21306 C 1890.93 1.63206 0.308695 0
M  V30 21307 O 1892.11 1.8981 0.194157 0
M  V30 21308 C 1889.25 3.44923 -0.110634 0
M  V30 21309 C 1888.37 4.1576 -1.17335 0
M  V30 21310 C 1887.5 5.28381 -0.546508 0
M  V30 21311 C 1886.54 5.91042 -1.59171 0
M  V30 21312 N 1885.68 6.95126 -0.987129 0
M  V30 21313 H 1890.52 2.51358 -1.60073 0
M  V30 21314 H 1888.05 1.2344 -0.80006 0
M  V30 21315 H 1890.01 4.16451 0.249903 0
M  V30 21316 H 1888.64 3.13932 0.751416 0
M  V30 21317 H 1887.69 3.42685 -1.6514 0
M  V30 21318 H 1889.01 4.58436 -1.96566 0
M  V30 21319 H 1888.16 6.06552 -0.133852 0
M  V30 21320 H 1886.9 4.8691 0.277527 0
M  V30 21321 H 1885.9 5.1158 -2.01409 0
M  V30 21322 H 1887.13 6.3459 -2.4181 0
M  V30 21323 H 1885.08 6.55742 -0.184076 0
M  V30 21324 H 1884.99 7.36253 -1.71662 0
M  V30 21325 H 1886.26 7.77186 -0.60012 0
M  V30 21326 N 1890.49 0.862526 1.31902 0
M  V30 21327 C 1891.91 0.553438 1.49697 0
M  V30 21328 C 1892.11 -0.914146 1.79571 0
M  V30 21329 O 1891.16 -1.69675 1.86994 0
M  V30 21330 C 1892.47 1.44722 2.63583 0
M  V30 21331 C 1894.02 1.44848 2.77467 0
M  V30 21332 C 1894.5 2.32766 3.94441 0
M  V30 21333 N 1895.99 2.30605 4.01716 0
M  V30 21334 C 1896.72 2.95356 4.9148 0
M  V30 21335 N 1896.22 3.6925 5.86197 0
M  V30 21336 N 1898.01 2.84703 4.84665 0
M  V30 21337 H 1890.16 1.81223 1.10779 0
M  V30 21338 H 1892.43 0.774478 0.546706 0
M  V30 21339 H 1892.13 2.49117 2.48261 0
M  V30 21340 H 1892.01 1.14033 3.5955 0
M  V30 21341 H 1894.39 0.412143 2.92208 0
M  V30 21342 H 1894.47 1.79557 1.8219 0
M  V30 21343 H 1894.12 3.36472 3.80459 0
M  V30 21344 H 1894.05 1.95386 4.89011 0
M  V30 21345 H 1896.54 1.76889 3.33944 0
M  V30 21346 H 1896.85 4.15804 6.51404 0
M  V30 21347 H 1895.2 3.73358 5.86199 0
M  V30 21348 H 1898.39 2.2652 4.09642 0
M  V30 21349 H 1898.56 3.35447 5.54418 0
M  V30 21350 N 1891.97 -1.4484 0.62123 0
M  V30 21351 C 1892.92 -2.27728 -0.111273 0
M  V30 21352 C 1893.9 -1.38103 -0.82562 0
M  V30 21353 O 1895.09 -1.61988 -0.71336 0
M  V30 21354 C 1892.22 -3.25238 -1.09887 0
M  V30 21355 C 1891.31 -4.22352 -0.384652 0
M  V30 21356 N 1891.7 -5.02449 0.581277 0
M  V30 21357 C 1890 -4.41522 -0.630414 0
M  V30 21358 C 1890.7 -5.72999 1.00234 0
M  V30 21359 N 1889.68 -5.42516 0.3432 0
M  V30 21360 H 1893.48 -2.87059 0.630406 0
M  V30 21361 H 1890.99 -1.56157 0.445955 0
M  V30 21362 H 1892.99 -3.83367 -1.63815 0
M  V30 21363 H 1891.65 -2.67468 -1.84095 0
M  V30 21364 H 1892.66 -5.0895 0.958649 0
M  V30 21365 H 1889.34 -3.94861 -1.35613 0
M  V30 21366 H 1890.73 -6.47346 1.79979 0
M  V30 21367 N 1893.45 -0.361184 -1.53405 0
M  V30 21368 C 1894.72 0.286047 -1.93497 0
M  V30 21369 C 1895.1 1.66764 -1.29434 0
M  V30 21370 O 1894.45 2.23989 -0.451785 0
M  V30 21371 C 1894.66 0.340663 -3.47333 0
M  V30 21372 C 1896.01 0.58311 -4.20577 0
M  V30 21373 O 1897.03 0.422054 -3.53691 0
M  V30 21374 O 1895.89 0.896383 -5.39099 0
M  V30 21375 H 1892.99 0.17059 -0.809215 0
M  V30 21376 H 1895.53 -0.413648 -1.64581 0
M  V30 21377 H 1894.3 -0.628175 -3.86225 0
M  V30 21378 H 1893.93 1.08643 -3.82469 0
M  V30 21379 N 1894.92 1.57341 -0.0902386 0
M  V30 21380 C 1896.17 1.93352 0.574273 0
M  V30 21381 C 1896.49 0.97374 1.6964 0
M  V30 21382 O 1897.69 1.22737 2.42173 0
M  V30 21383 C 1896.15 3.43536 1.07289 0
M  V30 21384 C 1895.76 4.47996 -0.0192163 0
M  V30 21385 C 1897.5 3.88516 1.71042 0
M  V30 21386 C 1895.41 5.89329 0.494487 0
M  V30 21387 H 1894.34 0.721711 0.218287 0
M  V30 21388 H 1896.99 1.82753 -0.165456 0
M  V30 21389 H 1895.37 3.49271 1.86616 0
M  V30 21390 H 1896.54 4.53899 -0.794527 0
M  V30 21391 H 1894.86 4.12595 -0.561628 0
M  V30 21392 H 1897.46 4.91505 2.1054 0
M  V30 21393 H 1897.8 3.26896 2.57769 0
M  V30 21394 H 1898.33 3.85462 0.983058 0
M  V30 21395 H 1895.07 6.54638 -0.336054 0
M  V30 21396 H 1894.59 5.86908 1.23691 0
M  V30 21397 H 1896.27 6.39763 0.965014 0
M  V30 21398 N 1896.4 -0.183431 1.56529 0
M  V30 21399 C 1897.33 -1.25157 1.92011 0
M  V30 21400 C 1898.35 -1.41107 0.811945 0
M  V30 21401 O 1899.54 -1.41326 1.09038 0
M  V30 21402 C 1896.64 -2.62206 2.14712 0
M  V30 21403 C 1895.81 -2.67712 3.45903 0
M  V30 21404 C 1894.87 -3.86038 3.57576 0
M  V30 21405 O 1893.89 -3.72599 4.30301 0
M  V30 21406 N 1895.1 -5.01988 2.91528 0
M  V30 21407 H 1897.86 -0.950304 2.84235 0
M  V30 21408 H 1895.42 -0.373278 1.57538 0
M  V30 21409 H 1897.41 -3.3981 2.19798 0
M  V30 21410 H 1895.98 -2.84772 1.28932 0
M  V30 21411 H 1895.2 -1.76294 3.52582 0
M  V30 21412 H 1896.49 -2.68392 4.32254 0
M  V30 21413 H 1895.89 -5.15807 2.32292 0
M  V30 21414 H 1894.45 -5.77497 3.02225 0
M  V30 21415 N 1897.88 -1.50992 -0.451564 0
M  V30 21416 C 1898.83 -1.71277 -1.54703 0
M  V30 21417 C 1899.8 -0.554233 -1.56581 0
M  V30 21418 O 1900.98 -0.787053 -1.73811 0
M  V30 21419 C 1898.12 -1.83078 -2.92535 0
M  V30 21420 C 1897.24 -3.10559 -3.00295 0
M  V30 21421 C 1896.37 -3.13039 -4.29162 0
M  V30 21422 C 1895.41 -4.34893 -4.30737 0
M  V30 21423 N 1894.55 -4.35002 -5.51106 0
M  V30 21424 H 1899.39 -2.64791 -1.3671 0
M  V30 21425 H 1896.92 -1.31243 -0.664356 0
M  V30 21426 H 1898.88 -1.87901 -3.7249 0
M  V30 21427 H 1897.51 -0.929851 -3.09117 0
M  V30 21428 H 1896.56 -3.15113 -2.13091 0
M  V30 21429 H 1897.88 -4.00503 -2.9732 0
M  V30 21430 H 1897.03 -3.167 -5.17481 0
M  V30 21431 H 1895.77 -2.20959 -4.34774 0
M  V30 21432 H 1894.77 -4.31423 -3.40814 0
M  V30 21433 H 1896 -5.28221 -4.26801 0
M  V30 21434 H 1893.94 -3.45785 -5.57466 0
M  V30 21435 H 1893.86 -5.18738 -5.49952 0
M  V30 21436 H 1895.13 -4.42836 -6.41496 0
M  V30 21437 N 1899.36 0.706069 -1.40899 0
M  V30 21438 C 1900.61 1.46315 -1.39415 0
M  V30 21439 C 1900.93 1.95 -0.000496593 0
M  V30 21440 O 1900.2 1.70995 0.955904 0
M  V30 21441 H 1898.78 0.542863 -0.513136 0
M  V30 21442 H 1901.44 0.836396 -1.76041 0
M  V30 21443 H 1900.54 2.33139 -2.07491 0
M  V30 21444 N 1900.84 1.26553 0.939264 0
M  V30 21445 C 1901.78 1.08092 2.05958 0
M  V30 21446 C 1902.78 0.00730279 1.69398 0
M  V30 21447 O 1903.98 0.164131 1.7925 0
M  V30 21448 H 1900.36 0.33271 0.674394 0
M  V30 21449 H 1902.33 2.03032 2.18679 0
M  V30 21450 C 1901.08 0.732672 3.39893 0
M  V30 21451 H 1900.4 1.55067 3.68503 0
M  V30 21452 H 1901.84 0.643305 4.19091 0
M  V30 21453 C 1900.3 -0.5623 3.32174 0
M  V30 21454 O 1900.83 -1.60007 3.68457 0
M  V30 21455 N 1899.04 -0.553643 2.85277 0
M  V30 21456 H 1898.58 0.291265 2.55948 0
M  V30 21457 H 1898.54 -1.4202 2.80495 0
M  V30 21458 N 1902.31 -1.14411 1.08387 0
M  V30 21459 C 1903.56 -1.84792 0.808372 0
M  V30 21460 C 1903.88 -1.83833 -0.668195 0
M  V30 21461 O 1905.08 -2.50001 -1.05885 0
M  V30 21462 C 1903.54 -3.31718 1.3961 0
M  V30 21463 C 1903.15 -3.41095 2.90444 0
M  V30 21464 C 1904.89 -4.07213 1.19908 0
M  V30 21465 C 1902.8 -4.82231 3.42356 0
M  V30 21466 H 1901.73 -0.692298 0.29873 0
M  V30 21467 H 1904.38 -1.28977 1.30526 0
M  V30 21468 H 1902.76 -3.8727 0.826924 0
M  V30 21469 H 1903.93 -2.95595 3.53497 0
M  V30 21470 H 1902.25 -2.79056 3.09058 0
M  V30 21471 H 1904.85 -5.11389 1.56158 0
M  V30 21472 H 1905.19 -4.16068 0.138882 0
M  V30 21473 H 1905.72 -3.57961 1.73519 0
M  V30 21474 H 1902.46 -4.78563 4.47948 0
M  V30 21475 H 1901.98 -5.2827 2.84062 0
M  V30 21476 H 1903.66 -5.5112 3.38933 0
M  V30 21477 N 1903.79 -0.869509 -1.31443 0
M  V30 21478 C 1904.74 -0.323034 -2.28528 0
M  V30 21479 C 1905.71 0.578245 -1.5571 0
M  V30 21480 O 1906.89 0.509983 -1.83858 0
M  V30 21481 C 1904.03 0.469861 -3.41886 0
M  V30 21482 C 1903.15 -0.458883 -4.29556 0
M  V30 21483 C 1902.28 0.348092 -5.30058 0
M  V30 21484 C 1901.32 -0.577109 -6.09373 0
M  V30 21485 N 1900.46 0.193589 -7.01833 0
M  V30 21486 H 1905.3 -1.15614 -2.74659 0
M  V30 21487 H 1902.84 -0.581526 -1.35117 0
M  V30 21488 H 1904.79 0.945338 -4.06349 0
M  V30 21489 H 1903.42 1.26767 -2.96867 0
M  V30 21490 H 1902.48 -1.05281 -3.65541 0
M  V30 21491 H 1903.79 -1.16833 -4.84924 0
M  V30 21492 H 1902.94 0.886098 -6.00194 0
M  V30 21493 H 1901.68 1.09083 -4.75344 0
M  V30 21494 H 1900.69 -1.12687 -5.38128 0
M  V30 21495 H 1901.91 -1.31869 -6.66174 0
M  V30 21496 H 1899.86 0.919147 -6.49529 0
M  V30 21497 H 1899.77 -0.456525 -7.5462 0
M  V30 21498 H 1901.04 0.71284 -7.76234 0
M  V30 21499 N 1905.27 1.44508 -0.628902 0
M  V30 21500 C 1906.52 2.01281 -0.129966 0
M  V30 21501 C 1906.83 1.50041 1.25488 0
M  V30 21502 O 1908.04 1.98927 1.84771 0
M  V30 21503 C 1906.49 3.59442 -0.1816 0
M  V30 21504 C 1906.1 4.19678 -1.56762 0
M  V30 21505 C 1907.85 4.23697 0.260988 0
M  V30 21506 C 1905.75 5.70056 -1.57449 0
M  V30 21507 H 1904.68 0.752667 -0.0448215 0
M  V30 21508 H 1907.33 1.65749 -0.787372 0
M  V30 21509 H 1905.72 3.92261 0.542864 0
M  V30 21510 H 1906.89 3.98399 -2.31549 0
M  V30 21511 H 1905.21 3.67701 -1.9541 0
M  V30 21512 H 1907.8 5.33991 0.275356 0
M  V30 21513 H 1908.15 3.95878 1.28787 0
M  V30 21514 H 1908.68 3.95672 -0.410909 0
M  V30 21515 H 1905.42 6.02606 -2.57966 0
M  V30 21516 H 1904.94 5.93464 -0.869514 0
M  V30 21517 H 1906.62 6.33652 -1.30745 0
M  V30 21518 N 1906.75 0.369315 1.53212 0
M  V30 21519 C 1907.99 -0.219233 2.03221 0
M  V30 21520 C 1908.35 -1.45689 1.25055 0
M  V30 21521 O 1909.55 -2.1213 1.65089 0
M  V30 21522 C 1907.83 -0.500368 3.5388 0
M  V30 21523 S 1909.38 -1.06205 4.25753 0
M  V30 21524 H 1906.2 -0.0635239 0.708157 0
M  V30 21525 H 1908.8 0.513044 1.88648 0
M  V30 21526 H 1907.51 0.407823 4.08369 0
M  V30 21527 H 1907.04 -1.26162 3.72622 0
M  V30 21528 H 1909.05 -2.34602 4.37237 0
M  V30 21529 N 1908.23 -1.57291 0.0985816 0
M  V30 21530 C 1909.16 -2.09882 -0.895809 0
M  V30 21531 C 1910.14 -1.01022 -1.2741 0
M  V30 21532 O 1911.32 -1.28543 -1.37873 0
M  V30 21533 C 1908.45 -2.57868 -2.19594 0
M  V30 21534 C 1907.5 -3.7842 -1.96725 0
M  V30 21535 S 1908.33 -5.21834 -1.20208 0
M  V30 21536 C 1909.48 -5.73172 -2.51444 0
M  V30 21537 H 1909.72 -2.93899 -0.448416 0
M  V30 21538 H 1907.25 -1.53973 -0.114779 0
M  V30 21539 H 1909.21 -2.86173 -2.94305 0
M  V30 21540 H 1907.87 -1.74071 -2.61454 0
M  V30 21541 H 1907.06 -4.10075 -2.93009 0
M  V30 21542 H 1906.66 -3.50627 -1.30142 0
M  V30 21543 H 1908.96 -5.81652 -3.47401 0
M  V30 21544 H 1909.9 -6.71615 -2.24362 0
M  V30 21545 H 1910.31 -5.01123 -2.59877 0
M  V30 21546 N 1909.71 0.175127 -1.56624 0
M  V30 21547 C 1910.95 0.890605 -1.81418 0
M  V30 21548 C 1911.27 1.82946 -0.674958 0
M  V30 21549 O 1910.54 1.93504 0.305439 0
M  V30 21550 H 1909.12 0.331864 -0.669235 0
M  V30 21551 H 1911.79 0.175855 -1.94105 0
M  V30 21552 H 1910.88 1.46979 -2.75325 0
M  V30 21553 N 1911.18 1.5123 0.44355 0
M  V30 21554 C 1912.13 1.72095 1.53792 0
M  V30 21555 C 1913.1 0.562529 1.56284 0
M  V30 21556 O 1914.29 0.796259 1.73391 0
M  V30 21557 C 1911.43 1.84627 2.9156 0
M  V30 21558 C 1910.54 3.12147 2.98644 0
M  V30 21559 C 1909.67 3.1531 4.27496 0
M  V30 21560 C 1908.71 4.37171 4.28425 0
M  V30 21561 N 1907.85 4.37919 5.48791 0
M  V30 21562 H 1912.69 2.65512 1.35304 0
M  V30 21563 H 1910.23 1.31593 0.657387 0
M  V30 21564 H 1912.18 1.89874 3.71488 0
M  V30 21565 H 1910.81 0.946232 3.0862 0
M  V30 21566 H 1909.87 3.16239 2.11417 0
M  V30 21567 H 1911.18 4.02074 2.95192 0
M  V30 21568 H 1910.33 3.19439 5.15794 0
M  V30 21569 H 1909.07 2.23261 4.33596 0
M  V30 21570 H 1908.08 4.33225 3.38521 0
M  V30 21571 H 1909.3 5.30477 4.23994 0
M  V30 21572 H 1907.25 3.48737 5.55624 0
M  V30 21573 H 1907.16 5.21647 5.47193 0
M  V30 21574 H 1908.43 4.46232 6.39138 0
M  V30 21575 N 1912.66 -0.698586 1.41271 0
M  V30 21576 C 1913.89 -1.49247 1.44014 0
M  V30 21577 C 1914.31 -1.88043 0.0461888 0
M  V30 21578 O 1913.67 -1.54426 -0.94986 0
M  V30 21579 C 1913.72 -2.73334 2.35204 0
M  V30 21580 O 1912.82 -3.70704 1.807 0
M  V30 21581 H 1912.16 -0.449313 0.488891 0
M  V30 21582 H 1914.69 -0.858936 1.85697 0
M  V30 21583 H 1914.7 -3.21676 2.50975 0
M  V30 21584 H 1913.38 -2.44433 3.3649 0
M  V30 21585 H 1911.95 -3.29624 1.74363 0
M  V30 21586 N 1914.14 -1.27049 -0.93254 0
M  V30 21587 C 1915.37 -1.15903 -1.71389 0
M  V30 21588 C 1915.78 0.284726 -1.86641 0
M  V30 21589 O 1915.14 1.19428 -1.37997 0
M  V30 21590 C 1915.19 -1.83254 -3.11609 0
M  V30 21591 O 1914.91 -3.21988 -2.97078 0
M  V30 21592 C 1916.41 -1.78172 -4.05918 0
M  V30 21593 H 1913.63 -0.403197 -0.536352 0
M  V30 21594 H 1916.18 -1.67831 -1.16846 0
M  V30 21595 H 1914.33 -1.35243 -3.63026 0
M  V30 21596 H 1914.75 -3.55447 -3.85691 0
M  V30 21597 H 1916.22 -2.29919 -5.01838 0
M  V30 21598 H 1916.7 -0.750036 -4.32748 0
M  V30 21599 H 1917.3 -2.25774 -3.60425 0
M  V30 21600 N 1915.62 1.13835 -1.08993 0
M  V30 21601 C 1916.85 1.88588 -0.843698 0
M  V30 21602 C 1917.26 1.79154 0.608307 0
M  V30 21603 O 1916.6 1.1529 1.43017 0
M  V30 21604 C 1916.66 3.39079 -1.19438 0
M  V30 21605 C 1916.32 3.72295 -2.65038 0
M  V30 21606 C 1917.32 3.71911 -3.63288 0
M  V30 21607 C 1915.01 4.0209 -3.01046 0
M  V30 21608 C 1917 4.00855 -4.95574 0
M  V30 21609 C 1914.69 4.30697 -4.33525 0
M  V30 21610 C 1915.69 4.30063 -5.30598 0
M  V30 21611 O 1915.37 4.57972 -6.60694 0
M  V30 21612 H 1915.11 0.60402 -0.303539 0
M  V30 21613 H 1917.66 1.45055 -1.45424 0
M  V30 21614 H 1915.89 3.83094 -0.526861 0
M  V30 21615 H 1917.58 3.95149 -0.928011 0
M  V30 21616 H 1918.34 3.48972 -3.36814 0
M  V30 21617 H 1914.22 4.01733 -2.26123 0
M  V30 21618 H 1917.77 4.00276 -5.71336 0
M  V30 21619 H 1913.66 4.53106 -4.59745 0
M  V30 21620 H 1914.43 4.75661 -6.661 0
M  V30 21621 N 1917.1 0.876467 1.3098 0
M  V30 21622 C 1918.03 0.352925 2.30817 0
M  V30 21623 C 1919.01 -0.559675 1.60629 0
M  V30 21624 O 1920.19 -0.475326 1.88293 0
M  V30 21625 C 1917.32 -0.440827 3.44491 0
M  V30 21626 C 1916.28 0.379253 4.26316 0
M  V30 21627 C 1915.6 -0.540582 5.3196 0
M  V30 21628 C 1916.9 1.61682 4.96645 0
M  V30 21629 H 1918.6 1.18719 2.74857 0
M  V30 21630 H 1916.14 0.572316 1.32138 0
M  V30 21631 H 1918.09 -0.817661 4.13391 0
M  V30 21632 H 1916.82 -1.30866 2.99235 0
M  V30 21633 H 1915.48 0.738117 3.59092 0
M  V30 21634 H 1915.13 -1.40588 4.82953 0
M  V30 21635 H 1914.83 0.00427133 5.876 0
M  V30 21636 H 1916.35 -0.914118 6.03719 0
M  V30 21637 H 1917.76 1.31105 5.58108 0
M  V30 21638 H 1916.16 2.10123 5.62111 0
M  V30 21639 H 1917.23 2.36602 4.23258 0
M  V30 21640 N 1918.57 -1.44173 0.636557 0
M  V30 21641 C 1919.8 -2.06352 0.150456 0
M  V30 21642 C 1920.22 -1.47608 -1.17718 0
M  V30 21643 O 1919.57 -0.601003 -1.7232 0
M  V30 21644 C 1919.62 -3.61483 0.0353658 0
M  V30 21645 O 1919.35 -4.1804 1.3105 0
M  V30 21646 C 1920.85 -4.40707 -0.478789 0
M  V30 21647 H 1918.07 -0.665948 0.0821807 0
M  V30 21648 H 1920.61 -1.84953 0.872495 0
M  V30 21649 H 1918.77 -3.82125 -0.637142 0
M  V30 21650 H 1919.18 -5.11538 1.15886 0
M  V30 21651 H 1920.65 -5.49655 -0.508315 0
M  V30 21652 H 1921.13 -4.1254 -1.5069 0
M  V30 21653 H 1921.74 -4.24996 0.160654 0
M  V30 21654 N 1920.05 -0.377435 -1.53014 0
M  V30 21655 C 1920.96 0.471045 -2.29822 0
M  V30 21656 C 1921.98 1.0821 -1.36259 0
M  V30 21657 O 1923.15 1.09048 -1.69324 0
M  V30 21658 C 1920.22 1.58917 -3.08134 0
M  V30 21659 C 1919.28 1.00444 -4.17384 0
M  V30 21660 C 1918.51 2.06928 -4.91952 0
M  V30 21661 O 1918.74 3.2824 -4.66492 0
M  V30 21662 O 1917.67 1.69321 -5.77593 0
M  V30 21663 H 1921.5 -0.154333 -3.03308 0
M  V30 21664 H 1919.08 -0.141478 -1.48729 0
M  V30 21665 H 1920.96 2.23899 -3.56997 0
M  V30 21666 H 1919.64 2.19973 -2.37473 0
M  V30 21667 H 1918.54 0.3182 -3.72744 0
M  V30 21668 H 1919.88 0.438266 -4.90245 0
M  V30 21669 N 1921.53 1.57237 -0.106922 0
M  V30 21670 C 1922.94 1.81906 0.420368 0
M  V30 21671 C 1923.29 1.02332 1.67399 0
M  V30 21672 O 1922.42 0.256247 2.14877 0
M  V30 21673 C 1923.01 3.29947 0.769432 0
M  V30 21674 C 1921.57 3.55339 1.24141 0
M  V30 21675 C 1920.72 2.76224 0.243997 0
M  V30 21676 H 1923.67 1.55184 -0.332216 0
M  V30 21677 H 1923.69 3.43916 1.62794 0
M  V30 21678 H 1923.2 3.87836 -0.14316 0
M  V30 21679 H 1921.3 3.02795 2.17131 0
M  V30 21680 H 1921.42 4.63956 1.19508 0
M  V30 21681 H 1919.78 2.44057 0.728574 0
M  V30 21682 H 1920.56 3.36867 -0.661482 0
M  V30 21683 N 1923.01 -0.166818 1.56715 0
M  V30 21684 C 1924.26 -0.881043 1.8144 0
M  V30 21685 C 1924.57 -1.83216 0.684925 0
M  V30 21686 O 1925.78 -2.58908 0.817234 0
M  V30 21687 C 1924.23 -1.61724 3.21517 0
M  V30 21688 C 1923.84 -0.709534 4.42346 0
M  V30 21689 C 1925.58 -2.31943 3.55532 0
M  V30 21690 C 1923.49 -1.44622 5.73444 0
M  V30 21691 H 1922.42 -0.332741 0.676609 0
M  V30 21692 H 1925.07 -0.133924 1.83011 0
M  V30 21693 H 1923.45 -2.40928 3.14277 0
M  V30 21694 H 1924.63 0.0458591 4.60777 0
M  V30 21695 H 1922.94 -0.116776 4.16236 0
M  V30 21696 H 1925.54 -2.87662 4.50727 0
M  V30 21697 H 1925.88 -3.07495 2.80629 0
M  V30 21698 H 1926.42 -1.59678 3.64346 0
M  V30 21699 H 1923.16 -0.732937 6.51389 0
M  V30 21700 H 1922.68 -2.17483 5.58982 0
M  V30 21701 H 1924.35 -1.9925 6.15555 0
M  V30 21702 N 1924.49 -1.51463 -0.435524 0
M  V30 21703 C 1925.42 -1.75856 -1.53613 0
M  V30 21704 C 1926.4 -0.608449 -1.58846 0
M  V30 21705 O 1927.58 -0.85135 -1.74544 0
M  V30 21706 C 1924.71 -1.88525 -2.91677 0
M  V30 21707 C 1923.67 -3.03972 -3.01305 0
M  V30 21708 C 1922.99 -3.01828 -4.41366 0
M  V30 21709 C 1924.29 -4.43905 -2.75219 0
M  V30 21710 H 1925.99 -2.68013 -1.33452 0
M  V30 21711 H 1923.53 -1.28968 -0.640564 0
M  V30 21712 H 1925.49 -2.04173 -3.68634 0
M  V30 21713 H 1924.21 -0.930179 -3.13074 0
M  V30 21714 H 1922.87 -2.88033 -2.26788 0
M  V30 21715 H 1922.52 -2.04095 -4.59733 0
M  V30 21716 H 1922.22 -3.79353 -4.48737 0
M  V30 21717 H 1923.74 -3.19572 -5.20294 0
M  V30 21718 H 1925.15 -4.60187 -3.41908 0
M  V30 21719 H 1923.55 -5.2315 -2.93998 0
M  V30 21720 H 1924.62 -4.53818 -1.70814 0
M  V30 21721 N 1925.96 0.691085 -1.4164 0
M  V30 21722 C 1927.19 1.47978 -1.44603 0
M  V30 21723 C 1927.61 1.88727 -0.0525951 0
M  V30 21724 O 1926.96 1.57079 0.929107 0
M  V30 21725 C 1927.02 2.73945 -2.35874 0
M  V30 21726 O 1926.74 2.34912 -3.69795 0
M  V30 21727 C 1928.24 3.67649 -2.47688 0
M  V30 21728 H 1925.46 0.455873 -0.492363 0
M  V30 21729 H 1928 0.850521 -1.85974 0
M  V30 21730 H 1926.16 3.33098 -1.97799 0
M  V30 21731 H 1926.57 3.16139 -4.18517 0
M  V30 21732 H 1928.04 4.52806 -3.15707 0
M  V30 21733 H 1928.52 4.12443 -1.50956 0
M  V30 21734 H 1929.13 3.14397 -2.86417 0
M  V30 21735 N 1927.44 1.27542 0.925789 0
M  V30 21736 C 1928.35 1.1225 2.06002 0
M  V30 21737 C 1929.37 0.0520487 1.73922 0
M  V30 21738 O 1930.54 0.258921 1.99729 0
M  V30 21739 C 1927.61 0.773231 3.37967 0
M  V30 21740 C 1926.67 1.92476 3.83733 0
M  V30 21741 C 1925.9 1.59206 5.09401 0
M  V30 21742 O 1926.13 0.500836 5.68197 0
M  V30 21743 O 1925.06 2.43185 5.50586 0
M  V30 21744 H 1928.89 2.07439 2.21817 0
M  V30 21745 H 1926.47 1.06747 1.04525 0
M  V30 21746 H 1928.35 0.591863 4.17223 0
M  V30 21747 H 1927.03 -0.149116 3.23356 0
M  V30 21748 H 1925.94 2.1612 3.05357 0
M  V30 21749 H 1927.27 2.82738 4.02889 0
M  V30 21750 N 1928.92 -1.13255 1.09595 0
M  V30 21751 C 1929.83 -2.22321 0.74904 0
M  V30 21752 C 1930.85 -1.72198 -0.24974 0
M  V30 21753 O 1932.02 -2.01196 -0.090652 0
M  V30 21754 C 1929.09 -3.4625 0.17665 0
M  V30 21755 C 1928.15 -4.11254 1.2316 0
M  V30 21756 C 1927.38 -5.29267 0.686427 0
M  V30 21757 O 1927.6 -5.68291 -0.490088 0
M  V30 21758 O 1926.54 -5.84365 1.44227 0
M  V30 21759 H 1930.36 -2.5437 1.6592 0
M  V30 21760 H 1927.95 -1.21422 0.870465 0
M  V30 21761 H 1929.83 -4.2117 -0.139147 0
M  V30 21762 H 1928.51 -3.15896 -0.706492 0
M  V30 21763 H 1927.41 -3.38152 1.60012 0
M  V30 21764 H 1928.75 -4.45743 2.08745 0
M  V30 21765 N 1930.4 -0.883401 -1.30514 0
M  V30 21766 C 1931.35 -0.320484 -2.25736 0
M  V30 21767 C 1932.33 0.550165 -1.51202 0
M  V30 21768 O 1933.52 0.394846 -1.7254 0
M  V30 21769 C 1930.65 0.465347 -3.40131 0
M  V30 21770 C 1929.74 -0.419301 -4.22022 0
M  V30 21771 N 1930.13 -1.51903 -4.82451 0
M  V30 21772 C 1928.43 -0.214132 -4.45486 0
M  V30 21773 C 1929.13 -2.06567 -5.43788 0
M  V30 21774 N 1928.11 -1.36084 -5.26291 0
M  V30 21775 H 1931.91 -1.1608 -2.70005 0
M  V30 21776 H 1929.42 -0.732634 -1.44935 0
M  V30 21777 H 1931.42 0.885249 -4.07393 0
M  V30 21778 H 1930.08 1.30312 -2.97403 0
M  V30 21779 H 1931.09 -1.90189 -4.81714 0
M  V30 21780 H 1927.77 0.586602 -4.13358 0
M  V30 21781 H 1929.16 -2.98909 -6.0175 0
M  V30 21782 N 1931.88 1.43833 -0.644194 0
M  V30 21783 C 1933.12 2.01914 -0.153927 0
M  V30 21784 C 1933.45 1.50758 1.22891 0
M  V30 21785 O 1932.71 0.687354 1.83232 0
M  V30 21786 C 1933.01 3.57249 -0.103941 0
M  V30 21787 C 1932.67 4.27713 -1.42731 0
M  V30 21788 C 1931.33 4.46679 -1.78972 0
M  V30 21789 C 1933.69 4.67695 -2.30024 0
M  V30 21790 C 1931.01 5.0289 -3.0219 0
M  V30 21791 C 1933.37 5.2527 -3.52525 0
M  V30 21792 C 1932.03 5.42453 -3.88974 0
M  V30 21793 H 1931.3 0.738856 -0.0563257 0
M  V30 21794 H 1933.95 1.72428 -0.833108 0
M  V30 21795 H 1932.25 3.86224 0.65866 0
M  V30 21796 H 1933.95 3.99935 0.292124 0
M  V30 21797 H 1930.54 4.1329 -1.1353 0
M  V30 21798 H 1934.72 4.52743 -2.03317 0
M  V30 21799 H 1929.98 5.14379 -3.3049 0
M  V30 21800 H 1934.15 5.55198 -4.2039 0
M  V30 21801 H 1931.78 5.85775 -4.84532 0
M  V30 21802 N 1933.35 0.385544 1.52811 0
M  V30 21803 C 1934.3 -0.466338 2.27877 0
M  V30 21804 C 1935.3 -1.0663 1.31629 0
M  V30 21805 O 1936.5 -1.00721 1.49182 0
M  V30 21806 H 1932.88 -0.169137 0.732732 0
M  V30 21807 H 1934.85 0.188293 2.97805 0
M  V30 21808 C 1933.6 -1.58354 3.09547 0
M  V30 21809 H 1932.92 -1.13119 3.83463 0
M  V30 21810 H 1934.36 -2.1539 3.65216 0
M  V30 21811 C 1932.82 -2.53741 2.21624 0
M  V30 21812 O 1933.35 -3.57056 1.84048 0
M  V30 21813 N 1931.56 -2.23394 1.85859 0
M  V30 21814 H 1931.1 -1.39412 2.16615 0
M  V30 21815 H 1931.06 -2.87466 1.27321 0
M  V30 21816 N 1934.83 -1.57178 0.115259 0
M  V30 21817 C 1935.76 -2.18134 -0.833042 0
M  V30 21818 C 1936.74 -1.12033 -1.27995 0
M  V30 21819 O 1937.93 -1.40254 -1.34323 0
M  V30 21820 C 1935.06 -2.77778 -2.08463 0
M  V30 21821 C 1934.01 -3.89429 -1.77565 0
M  V30 21822 C 1933.34 -4.35863 -3.09722 0
M  V30 21823 C 1934.64 -5.11701 -1.04687 0
M  V30 21824 H 1936.33 -2.9763 -0.325107 0
M  V30 21825 H 1933.88 -1.43164 -0.154933 0
M  V30 21826 H 1935.83 -3.19079 -2.75258 0
M  V30 21827 H 1934.56 -1.95566 -2.61575 0
M  V30 21828 H 1933.21 -3.48698 -1.13161 0
M  V30 21829 H 1932.86 -3.50515 -3.6076 0
M  V30 21830 H 1932.56 -5.11152 -2.89823 0
M  V30 21831 H 1934.09 -4.79812 -3.77641 0
M  V30 21832 H 1935.5 -5.50045 -1.61628 0
M  V30 21833 H 1933.9 -5.92549 -0.948964 0
M  V30 21834 H 1934.97 -4.84889 -0.032977 0
M  V30 21835 N 1936.31 0.158505 -1.56801 0
M  V30 21836 C 1937.54 0.888272 -1.86862 0
M  V30 21837 C 1937.95 1.75258 -0.702142 0
M  V30 21838 O 1937.31 1.7952 0.328431 0
M  V30 21839 C 1937.36 1.75448 -3.1607 0
M  V30 21840 O 1937.08 0.925019 -4.28223 0
M  V30 21841 C 1938.58 2.59282 -3.59566 0
M  V30 21842 H 1935.8 0.257429 -0.619654 0
M  V30 21843 H 1938.35 0.154749 -2.03914 0
M  V30 21844 H 1936.5 2.4412 -3.00806 0
M  V30 21845 H 1936.92 1.51863 -5.02034 0
M  V30 21846 H 1938.39 3.15655 -4.52842 0
M  V30 21847 H 1938.87 3.3477 -2.84299 0
M  V30 21848 H 1939.47 1.95921 -3.77485 0
M  V30 21849 N 1937.79 1.51692 0.427485 0
M  V30 21850 C 1938.74 1.70099 1.51823 0
M  V30 21851 C 1939.72 0.554908 1.51028 0
M  V30 21852 O 1940.92 0.811233 1.57315 0
M  V30 21853 C 1938.04 1.8384 2.89927 0
M  V30 21854 C 1937.13 3.04263 2.9544 0
M  V30 21855 N 1937.52 4.27277 2.7068 0
M  V30 21856 C 1935.82 3.0372 3.26604 0
M  V30 21857 C 1936.52 5.08613 2.8229 0
M  V30 21858 N 1935.5 4.43468 3.14384 0
M  V30 21859 H 1939.3 2.62867 1.31447 0
M  V30 21860 H 1936.81 1.49473 0.63494 0
M  V30 21861 H 1938.81 1.95139 3.6841 0
M  V30 21862 H 1937.47 0.922599 3.11317 0
M  V30 21863 H 1938.48 4.56058 2.45421 0
M  V30 21864 H 1935.16 2.21808 3.53705 0
M  V30 21865 H 1936.55 6.16564 2.67017 0
M  V30 21866 N 1939.27 -0.683564 1.42004 0
M  V30 21867 C 1940.21 -1.7973 1.44796 0
M  V30 21868 C 1941.18 -1.63352 0.300905 0
M  V30 21869 O 1942.37 -1.84031 0.503707 0
M  V30 21870 C 1939.51 -3.17701 1.34758 0
M  V30 21871 C 1938.62 -3.45428 2.59429 0
M  V30 21872 C 1937.76 -4.73079 2.41598 0
M  V30 21873 C 1936.8 -4.93812 3.61685 0
M  V30 21874 N 1935.93 -6.12698 3.4285 0
M  V30 21875 H 1940.77 -1.76679 2.39976 0
M  V30 21876 H 1938.31 -0.862624 1.19152 0
M  V30 21877 H 1940.27 -3.9742 1.26938 0
M  V30 21878 H 1938.9 -3.19899 0.431785 0
M  V30 21879 H 1937.95 -2.60027 2.77651 0
M  V30 21880 H 1939.26 -3.56645 3.48721 0
M  V30 21881 H 1938.42 -5.60873 2.31314 0
M  V30 21882 H 1937.16 -4.6413 1.49782 0
M  V30 21883 H 1936.16 -4.04463 3.72411 0
M  V30 21884 H 1937.39 -5.04612 4.5447 0
M  V30 21885 H 1935.33 -6.04938 2.53744 0
M  V30 21886 H 1935.25 -6.24736 4.25724 0
M  V30 21887 H 1936.52 -7.03194 3.36361 0
M  V30 21888 N 1940.75 -1.28031 -0.919012 0
M  V30 21889 C 1942.16 -1.13466 -1.48264 0
M  V30 21890 C 1942.51 0.27724 -1.94231 0
M  V30 21891 O 1941.63 1.171 -1.81979 0
M  V30 21892 C 1942.23 -2.05366 -2.69463 0
M  V30 21893 C 1940.79 -1.94882 -3.22022 0
M  V30 21894 C 1939.93 -1.97414 -1.94738 0
M  V30 21895 H 1942.88 -1.40797 -0.732246 0
M  V30 21896 H 1942.91 -1.61457 -3.44546 0
M  V30 21897 H 1942.42 -3.08118 -2.35976 0
M  V30 21898 H 1940.52 -0.951474 -3.60247 0
M  V30 21899 H 1940.63 -2.8157 -3.87628 0
M  V30 21900 H 1939 -1.41752 -2.11609 0
M  V30 21901 H 1939.78 -3.01836 -1.63554 0
M  V30 21902 N 1942.22 1.12672 -1.10194 0
M  V30 21903 C 1943.47 1.84399 -0.844081 0
M  V30 21904 C 1943.8 1.83739 0.628782 0
M  V30 21905 O 1943.08 1.28115 1.46345 0
M  V30 21906 C 1943.36 3.32194 -1.38994 0
M  V30 21907 C 1943.21 3.41323 -2.92948 0
M  V30 21908 C 1944.53 4.27872 -1.03021 0
M  V30 21909 H 1941.65 0.669515 -0.308089 0
M  V30 21910 H 1944.29 1.322 -1.36467 0
M  V30 21911 H 1942.44 3.76778 -0.947144 0
M  V30 21912 H 1944.12 3.05393 -3.45735 0
M  V30 21913 H 1942.36 2.81948 -3.29678 0
M  V30 21914 H 1943.03 4.45289 -3.26223 0
M  V30 21915 H 1945.51 3.91401 -1.41224 0
M  V30 21916 H 1944.38 5.29699 -1.43909 0
M  V30 21917 H 1944.64 4.42058 0.0606669 0
M  V30 21918 N 1943.7 0.89031 1.30043 0
M  V30 21919 C 1944.93 0.525803 1.99797 0
M  V30 21920 C 1945.34 -0.891537 1.66878 0
M  V30 21921 O 1944.68 -1.59861 0.904994 0
M  V30 21922 C 1944.74 0.627099 3.53988 0
M  V30 21923 C 1944.41 2.00971 4.10438 0
M  V30 21924 C 1945.41 2.97976 4.26036 0
M  V30 21925 C 1943.09 2.31655 4.45692 0
M  V30 21926 C 1945.08 4.23795 4.76106 0
M  V30 21927 C 1942.77 3.57718 4.9546 0
M  V30 21928 C 1943.77 4.53603 5.10621 0
M  V30 21929 O 1943.46 5.77429 5.59313 0
M  V30 21930 H 1943.19 0.201278 0.64534 0
M  V30 21931 H 1945.74 1.19901 1.66772 0
M  V30 21932 H 1943.97 -0.103107 3.86563 0
M  V30 21933 H 1945.66 0.2731 4.0498 0
M  V30 21934 H 1946.43 2.75584 3.99097 0
M  V30 21935 H 1942.31 1.57787 4.33156 0
M  V30 21936 H 1945.85 4.98642 4.87854 0
M  V30 21937 H 1941.75 3.79945 5.21835 0
M  V30 21938 H 1942.52 5.79886 5.77646 0
M  V30 21939 N 1945.18 -1.43489 0.651812 0
M  V30 21940 C 1946.46 -1.95371 0.0946135 0
M  V30 21941 C 1946.84 -1.59316 -1.38498 0
M  V30 21942 O 1946.18 -0.87757 -2.10976 0
M  V30 21943 C 1946.39 -3.47346 0.339353 0
M  V30 21944 C 1947.74 -4.23901 0.243543 0
M  V30 21945 O 1948.77 -3.55161 0.271836 0
M  V30 21946 O 1947.63 -5.46248 0.166055 0
M  V30 21947 H 1944.72 -0.826934 -0.0104284 0
M  V30 21948 H 1947.27 -1.53436 0.724952 0
M  V30 21949 H 1946.04 -3.66712 1.36522 0
M  V30 21950 H 1945.66 -3.96277 -0.324122 0
M  V30 21951 N 1946.66 -0.393643 -1.52605 0
M  V30 21952 C 1947.9 0.187154 -2.01633 0
M  V30 21953 C 1948.23 1.46451 -1.27993 0
M  V30 21954 O 1947.49 1.92169 -0.370063 0
M  V30 21955 C 1947.79 0.497148 -3.53925 0
M  V30 21956 C 1947.45 -0.689176 -4.45602 0
M  V30 21957 C 1946.11 -1.01462 -4.70382 0
M  V30 21958 C 1948.47 -1.48262 -4.99668 0
M  V30 21959 C 1945.79 -2.13497 -5.46476 0
M  V30 21960 C 1948.15 -2.59361 -5.76987 0
M  V30 21961 C 1946.81 -2.92409 -6.00044 0
M  V30 21962 H 1946.08 0.0684846 -0.737828 0
M  V30 21963 H 1948.73 -0.531882 -1.83965 0
M  V30 21964 H 1947.03 1.29756 -3.6969 0
M  V30 21965 H 1948.73 0.959239 -3.89358 0
M  V30 21966 H 1945.32 -0.425524 -4.26482 0
M  V30 21967 H 1949.5 -1.24443 -4.80445 0
M  V30 21968 H 1944.76 -2.39467 -5.62553 0
M  V30 21969 H 1948.93 -3.21241 -6.17881 0
M  V30 21970 H 1946.56 -3.79341 -6.5879 0
M  V30 21971 N 1948.14 1.57115 -0.123593 0
M  V30 21972 C 1949.36 2.00133 0.544196 0
M  V30 21973 C 1949.79 1.00282 1.59139 0
M  V30 21974 O 1949.14 -0.0248396 1.81283 0
M  V30 21975 C 1949.19 3.4201 1.14287 0
M  V30 21976 O 1948.3 3.45071 2.25832 0
M  V30 21977 H 1947.64 0.650029 0.135492 0
M  V30 21978 H 1950.17 2.03484 -0.213423 0
M  V30 21979 H 1950.18 3.80316 1.47728 0
M  V30 21980 H 1948.85 4.14198 0.375866 0
M  V30 21981 H 1947.43 3.18587 1.93795 0
M  V30 21982 N 1949.61 -0.150187 1.56883 0
M  V30 21983 C 1950.84 -0.88235 1.87695 0
M  V30 21984 C 1951.26 -1.74093 0.712272 0
M  V30 21985 O 1950.62 -1.78118 -0.338207 0
M  V30 21986 C 1950.67 -1.71754 3.1707 0
M  V30 21987 O 1949.77 -2.82145 3.00779 0
M  V30 21988 H 1949.11 -0.245947 0.616771 0
M  V30 21989 H 1951.64 -0.141963 2.04107 0
M  V30 21990 H 1951.65 -2.1132 3.4901 0
M  V30 21991 H 1950.33 -1.08704 4.01443 0
M  V30 21992 H 1948.91 -2.46008 2.8024 0
M  V30 21993 N 1951.09 -1.51916 -0.419434 0
M  V30 21994 C 1952.34 -1.65714 -1.16905 0
M  V30 21995 C 1952.67 -0.380888 -1.90428 0
M  V30 21996 O 1951.95 0.620297 -1.84344 0
M  V30 21997 C 1952.23 -2.87239 -2.17177 0
M  V30 21998 C 1952.08 -4.24887 -1.47619 0
M  V30 21999 C 1953.4 -3.04281 -3.17964 0
M  V30 22000 H 1950.52 -0.603072 -0.423643 0
M  V30 22001 H 1953.16 -1.84446 -0.456035 0
M  V30 22002 H 1951.31 -2.71398 -2.77984 0
M  V30 22003 H 1952.98 -4.52433 -0.900112 0
M  V30 22004 H 1951.23 -4.26761 -0.778273 0
M  V30 22005 H 1951.9 -5.05945 -2.20733 0
M  V30 22006 H 1954.37 -3.18951 -2.67226 0
M  V30 22007 H 1953.25 -3.90843 -3.85399 0
M  V30 22008 H 1953.51 -2.17138 -3.85102 0
M  V30 22009 N 1952.57 0.676023 -1.42365 0
M  V30 22010 C 1953.52 1.78959 -1.45747 0
M  V30 22011 C 1954.49 1.6319 -0.309563 0
M  V30 22012 O 1955.67 1.83761 -0.51346 0
M  V30 22013 C 1952.81 3.16982 -1.36441 0
M  V30 22014 C 1951.93 3.44047 -2.61257 0
M  V30 22015 C 1951.06 4.71791 -2.44103 0
M  V30 22016 C 1950.1 4.91887 -3.64299 0
M  V30 22017 N 1949.24 6.10871 -3.46094 0
M  V30 22018 H 1954.08 1.75403 -2.4091 0
M  V30 22019 H 1951.61 0.856293 -1.19608 0
M  V30 22020 H 1953.57 3.96741 -1.29044 0
M  V30 22021 H 1952.2 3.19666 -0.448744 0
M  V30 22022 H 1951.25 2.58551 -2.79026 0
M  V30 22023 H 1952.57 3.5479 -3.50607 0
M  V30 22024 H 1951.72 5.59639 -2.34285 0
M  V30 22025 H 1950.46 4.63329 -1.52241 0
M  V30 22026 H 1949.46 4.02482 -3.74551 0
M  V30 22027 H 1950.69 5.02195 -4.5714 0
M  V30 22028 H 1948.63 6.03584 -2.56949 0
M  V30 22029 H 1948.55 6.2247 -4.29031 0
M  V30 22030 H 1949.82 7.014 -3.40085 0
M  V30 22031 N 1954.05 1.28517 0.912209 0
M  V30 22032 C 1955 1.09214 2.00141 0
M  V30 22033 C 1955.98 0.015324 1.60893 0
M  V30 22034 O 1957.17 0.235636 1.75425 0
M  V30 22035 C 1954.3 0.757636 3.34835 0
M  V30 22036 C 1953.39 1.87337 3.80481 0
M  V30 22037 N 1953.78 3.11521 3.98483 0
M  V30 22038 C 1952.08 1.76357 4.09651 0
M  V30 22039 C 1952.78 3.8423 4.3674 0
M  V30 22040 N 1951.76 3.12089 4.45086 0
M  V30 22041 H 1955.56 2.03436 2.12111 0
M  V30 22042 H 1953.07 1.19458 1.10016 0
M  V30 22043 H 1955.07 0.600426 4.12554 0
M  V30 22044 H 1953.73 -0.176796 3.24218 0
M  V30 22045 H 1954.74 3.47114 3.84359 0
M  V30 22046 H 1951.42 0.901018 4.07662 0
M  V30 22047 H 1952.81 4.91039 4.58618 0
M  V30 22048 N 1955.53 -1.12086 1.1079 0
M  V30 22049 C 1956.47 -2.20006 0.755001 0
M  V30 22050 C 1957.47 -1.67538 -0.250501 0
M  V30 22051 O 1958.67 -1.79661 -0.110486 0
M  V30 22052 H 1955.05 -0.717162 0.226237 0
M  V30 22053 H 1957.02 -2.47022 1.67399 0
M  V30 22054 C 1955.77 -3.47083 0.207038 0
M  V30 22055 H 1955.09 -3.87805 0.971991 0
M  V30 22056 H 1956.53 -4.24 -0.00177915 0
M  V30 22057 C 1954.99 -3.19753 -1.06112 0
M  V30 22058 O 1955.52 -3.39825 -2.142 0
M  V30 22059 N 1953.73 -2.73534 -0.981212 0
M  V30 22060 H 1953.27 -2.574 -0.101519 0
M  V30 22061 H 1953.23 -2.55624 -1.83041 0
M  V30 22062 N 1957 -0.897194 -1.29569 0
M  V30 22063 C 1957.93 -0.389601 -2.30227 0
M  V30 22064 C 1958.92 0.53405 -1.61499 0
M  V30 22065 O 1960.1 0.44531 -1.89025 0
M  V30 22066 C 1957.23 0.385966 -3.45149 0
M  V30 22067 C 1956.18 -0.447028 -4.25659 0
M  V30 22068 C 1955.51 0.455883 -5.32753 0
M  V30 22069 C 1956.81 -1.69562 -4.9401 0
M  V30 22070 H 1958.5 -1.23077 -2.72933 0
M  V30 22071 H 1956.05 -0.593265 -1.31211 0
M  V30 22072 H 1958 0.751791 -4.1464 0
M  V30 22073 H 1956.73 1.26089 -3.01279 0
M  V30 22074 H 1955.39 -0.795152 -3.57873 0
M  V30 22075 H 1955.03 1.32887 -4.85129 0
M  V30 22076 H 1954.73 -0.0977528 -5.87519 0
M  V30 22077 H 1956.26 0.817956 -6.05097 0
M  V30 22078 H 1957.67 -1.39968 -5.55951 0
M  V30 22079 H 1956.07 -2.19039 -5.58697 0
M  V30 22080 H 1957.14 -2.43305 -4.19441 0
M  V30 22081 N 1958.48 1.43142 -0.659413 0
M  V30 22082 C 1959.43 2.30783 0.0284037 0
M  V30 22083 C 1960.4 1.451 0.808407 0
M  V30 22084 O 1961.58 1.73959 0.783764 0
M  V30 22085 C 1958.72 3.30758 0.984529 0
M  V30 22086 C 1957.84 4.31537 0.199975 0
M  V30 22087 C 1956.97 5.18592 1.15046 0
M  V30 22088 C 1956.01 6.1106 0.356695 0
M  V30 22089 N 1955.15 6.90718 1.25909 0
M  V30 22090 H 1959.99 2.89051 -0.724821 0
M  V30 22091 H 1957.53 1.42392 -0.369192 0
M  V30 22092 H 1959.48 3.87236 1.55254 0
M  V30 22093 H 1958.11 2.74125 1.70456 0
M  V30 22094 H 1957.17 3.77303 -0.484425 0
M  V30 22095 H 1958.48 4.97054 -0.416974 0
M  V30 22096 H 1957.63 5.79727 1.7889 0
M  V30 22097 H 1956.37 4.53215 1.80131 0
M  V30 22098 H 1955.38 5.49008 -0.295063 0
M  V30 22099 H 1956.6 6.78481 -0.28984 0
M  V30 22100 H 1954.55 6.27984 1.89662 0
M  V30 22101 H 1954.46 7.52782 0.69685 0
M  V30 22102 H 1955.73 7.56353 1.88549 0
M  V30 22103 N 1959.96 0.40173 1.52394 0
M  V30 22104 C 1961.21 -0.17672 2.02029 0
M  V30 22105 C 1961.54 -1.45417 1.28715 0
M  V30 22106 O 1960.81 -1.90524 0.391263 0
M  V30 22107 C 1961.1 -0.43198 3.575 0
M  V30 22108 C 1960.95 0.861628 4.4147 0
M  V30 22109 C 1962.27 -1.2173 4.2293 0
M  V30 22110 H 1959.39 -0.0627536 0.734323 0
M  V30 22111 H 1962.03 0.533742 1.82349 0
M  V30 22112 H 1960.18 -1.03719 3.74399 0
M  V30 22113 H 1961.85 1.49808 4.36297 0
M  V30 22114 H 1960.1 1.47424 4.07981 0
M  V30 22115 H 1960.77 0.637511 5.48306 0
M  V30 22116 H 1963.24 -0.704996 4.10084 0
M  V30 22117 H 1962.12 -1.36465 5.31666 0
M  V30 22118 H 1962.38 -2.23592 3.81391 0
M  V30 22119 N 1961.44 -1.57047 0.131923 0
M  V30 22120 C 1962.69 -1.95632 -0.522925 0
M  V30 22121 C 1963.01 -1.01597 -1.65856 0
M  V30 22122 O 1962.27 -0.0422719 -1.95654 0
M  V30 22123 C 1962.57 -3.4056 -1.08413 0
M  V30 22124 C 1962.23 -4.50848 -0.0685085 0
M  V30 22125 C 1960.9 -4.80738 0.210726 0
M  V30 22126 C 1963.25 -5.17464 0.622935 0
M  V30 22127 C 1960.58 -5.74557 1.18747 0
M  V30 22128 C 1962.93 -6.12334 1.58839 0
M  V30 22129 C 1961.59 -6.40611 1.87548 0
M  V30 22130 H 1960.86 -0.715867 -0.191352 0
M  V30 22131 H 1963.51 -1.90283 0.215565 0
M  V30 22132 H 1961.81 -3.42667 -1.89965 0
M  V30 22133 H 1963.51 -3.67734 -1.59914 0
M  V30 22134 H 1960.1 -4.27574 -0.29633 0
M  V30 22135 H 1964.28 -4.94516 0.420386 0
M  V30 22136 H 1959.54 -5.94765 1.4165 0
M  V30 22137 H 1963.71 -6.63034 2.12977 0
M  V30 22138 H 1961.34 -7.13114 2.63387 0
M  V30 22139 N 1962.92 0.141865 -1.5696 0
M  V30 22140 C 1963.87 1.18031 -1.95071 0
M  V30 22141 C 1964.85 1.38281 -0.822629 0
M  V30 22142 O 1966.04 1.39757 -1.08614 0
M  V30 22143 C 1963.17 2.51269 -2.33921 0
M  V30 22144 C 1962.26 2.3459 -3.53311 0
M  V30 22145 N 1962.65 1.87676 -4.69693 0
M  V30 22146 C 1960.95 2.65324 -3.58496 0
M  V30 22147 C 1961.65 1.84163 -5.51778 0
M  V30 22148 N 1960.62 2.27667 -4.93628 0
M  V30 22149 H 1964.43 0.809774 -2.82524 0
M  V30 22150 H 1961.94 0.349868 -1.58587 0
M  V30 22151 H 1963.94 3.26345 -2.59431 0
M  V30 22152 H 1962.6 2.891 -1.47821 0
M  V30 22153 H 1963.61 1.57565 -4.9335 0
M  V30 22154 H 1960.28 3.06996 -2.82948 0
M  V30 22155 H 1961.67 1.49341 -6.55093 0
M  V30 22156 N 1964.39 1.52136 0.411372 0
M  V30 22157 C 1965.33 1.70036 1.52194 0
M  V30 22158 C 1966.31 0.547941 1.53089 0
M  V30 22159 O 1967.49 0.775017 1.71831 0
M  V30 22160 C 1964.62 1.73764 2.9073 0
M  V30 22161 C 1963.66 2.95279 3.07754 0
M  V30 22162 S 1964.5 4.55662 2.81305 0
M  V30 22163 C 1965.65 4.62173 4.22075 0
M  V30 22164 H 1965.88 2.63966 1.36781 0
M  V30 22165 H 1963.42 1.42147 0.6028 0
M  V30 22166 H 1965.38 1.76597 3.70572 0
M  V30 22167 H 1964.04 0.809659 3.03485 0
M  V30 22168 H 1963.23 2.94363 4.09104 0
M  V30 22169 H 1962.83 2.90322 2.35773 0
M  V30 22170 H 1965.12 4.39412 5.15678 0
M  V30 22171 H 1966.07 5.641 4.28015 0
M  V30 22172 H 1966.47 3.91228 4.06941 0
M  V30 22173 N 1965.87 -0.668464 1.42721 0
M  V30 22174 C 1966.82 -1.78184 1.46694 0
M  V30 22175 C 1967.79 -1.63023 0.318213 0
M  V30 22176 O 1968.98 -1.83486 0.523198 0
M  V30 22177 C 1966.12 -3.16254 1.3812 0
M  V30 22178 C 1965.23 -3.42657 2.63078 0
M  V30 22179 C 1964.36 -4.7049 2.46602 0
M  V30 22180 C 1963.4 -4.89948 3.66902 0
M  V30 22181 N 1962.54 -6.09027 3.49329 0
M  V30 22182 H 1967.38 -1.74123 2.41837 0
M  V30 22183 H 1964.92 -0.849937 1.2006 0
M  V30 22184 H 1966.87 -3.96051 1.31146 0
M  V30 22185 H 1965.5 -3.19423 0.46569 0
M  V30 22186 H 1964.56 -2.57068 2.80393 0
M  V30 22187 H 1965.87 -3.52926 3.52484 0
M  V30 22188 H 1965.02 -5.58388 2.37249 0
M  V30 22189 H 1963.76 -4.62515 1.54696 0
M  V30 22190 H 1962.77 -4.0049 3.7668 0
M  V30 22191 H 1963.99 -4.99764 4.59797 0
M  V30 22192 H 1961.94 -6.02213 2.60146 0
M  V30 22193 H 1961.85 -6.20186 4.32326 0
M  V30 22194 H 1963.12 -6.99587 3.438 0
M  V30 22195 N 1967.35 -1.28999 -0.905381 0
M  V30 22196 C 1968.3 -1.13515 -2.0302 0
M  V30 22197 C 1969.29 -0.0522132 -1.6932 0
M  V30 22198 O 1970.5 -0.211599 -1.78752 0
M  V30 22199 H 1966.87 -0.350474 -0.665336 0
M  V30 22200 H 1968.85 -2.08758 -2.13219 0
M  V30 22201 C 1967.59 -0.822531 -3.37831 0
M  V30 22202 H 1966.92 -1.64783 -3.64262 0
M  V30 22203 H 1968.36 -0.754193 -4.17238 0
M  V30 22204 C 1966.82 0.474033 -3.33548 0
M  V30 22205 O 1967.35 1.50182 -3.7257 0
M  V30 22206 N 1965.55 0.477812 -2.86645 0
M  V30 22207 H 1965.1 -0.359023 -2.55086 0
M  V30 22208 H 1965.06 1.34533 -2.84162 0
M  V30 22209 N 1968.83 1.11497 -1.11383 0
M  V30 22210 C 1969.74 2.21101 -0.784315 0
M  V30 22211 C 1970.76 1.72574 0.222313 0
M  V30 22212 O 1971.93 2.01315 0.058632 0
M  V30 22213 C 1969 3.45925 -0.231713 0
M  V30 22214 C 1968.06 4.09243 -1.29687 0
M  V30 22215 C 1967.29 5.28108 -0.770542 0
M  V30 22216 O 1967.51 5.68998 0.399616 0
M  V30 22217 O 1966.45 5.81996 -1.53505 0
M  V30 22218 H 1970.27 2.51699 -1.69946 0
M  V30 22219 H 1967.86 1.20022 -0.889672 0
M  V30 22220 H 1969.74 4.21338 0.0721248 0
M  V30 22221 H 1968.42 3.1698 0.656146 0
M  V30 22222 H 1967.32 3.35564 -1.65371 0
M  V30 22223 H 1968.66 4.42365 -2.1581 0
M  V30 22224 N 1970.31 0.904053 1.29092 0
M  V30 22225 C 1971.26 0.356356 2.25198 0
M  V30 22226 C 1972.24 -0.526041 1.52058 0
M  V30 22227 O 1973.43 -0.367347 1.73146 0
M  V30 22228 C 1970.56 -0.411177 3.40829 0
M  V30 22229 C 1969.65 0.486388 4.21302 0
M  V30 22230 N 1970.04 1.59559 4.79974 0
M  V30 22231 C 1968.34 0.284978 4.45089 0
M  V30 22232 C 1969.04 2.15192 5.40433 0
M  V30 22233 N 1968.01 1.4444 5.24059 0
M  V30 22234 H 1971.82 1.20361 2.68124 0
M  V30 22235 H 1969.33 0.755599 1.43751 0
M  V30 22236 H 1971.33 -0.820324 4.0875 0
M  V30 22237 H 1969.99 -1.25564 2.99439 0
M  V30 22238 H 1971 1.97828 4.78628 0
M  V30 22239 H 1967.68 -0.520766 4.14239 0
M  V30 22240 H 1969.07 3.08444 5.96919 0
M  V30 22241 N 1971.79 -1.4279 0.666995 0
M  V30 22242 C 1972.72 -2.335 -0.00234362 0
M  V30 22243 C 1973.7 -1.50244 -0.797537 0
M  V30 22244 O 1974.88 -1.7887 -0.756257 0
M  V30 22245 C 1972.01 -3.33774 -0.959795 0
M  V30 22246 C 1970.97 -4.27124 -0.273749 0
M  V30 22247 C 1970.29 -5.17544 -1.3436 0
M  V30 22248 C 1971.59 -5.15462 0.842411 0
M  V30 22249 H 1973.29 -2.89719 0.755212 0
M  V30 22250 H 1970.83 -1.39307 0.364622 0
M  V30 22251 H 1972.78 -3.96139 -1.43707 0
M  V30 22252 H 1971.51 -2.75842 -1.74868 0
M  V30 22253 H 1970.17 -3.66142 0.18321 0
M  V30 22254 H 1969.82 -4.55943 -2.12427 0
M  V30 22255 H 1969.52 -5.80825 -0.889738 0
M  V30 22256 H 1971.04 -5.82784 -1.82196 0
M  V30 22257 H 1972.45 -5.71557 0.4467 0
M  V30 22258 H 1970.85 -5.87535 1.22158 0
M  V30 22259 H 1971.92 -4.54327 1.69454 0
M  V30 22260 N 1973.26 -0.409806 -1.52179 0
M  V30 22261 C 1974.51 0.166003 -2.02119 0
M  V30 22262 C 1974.84 1.44732 -1.29484 0
M  V30 22263 O 1974.12 1.90314 -0.401362 0
M  V30 22264 C 1974.4 0.413015 -3.57724 0
M  V30 22265 C 1974.25 -0.885028 -4.41007 0
M  V30 22266 C 1975.57 1.19486 -4.2357 0
M  V30 22267 H 1972.69 0.0588585 -0.734646 0
M  V30 22268 H 1975.33 -0.543405 -1.82063 0
M  V30 22269 H 1973.48 1.01732 -3.74944 0
M  V30 22270 H 1975.16 -1.5212 -4.35497 0
M  V30 22271 H 1973.4 -1.49585 -4.07194 0
M  V30 22272 H 1974.07 -0.66658 -5.47961 0
M  V30 22273 H 1976.55 0.683238 -4.10452 0
M  V30 22274 H 1975.42 1.33644 -5.32382 0
M  V30 22275 H 1975.68 2.21566 -3.82571 0
M  V30 22276 N 1974.74 1.56975 -0.14025 0
M  V30 22277 C 1975.97 2.00699 0.522938 0
M  V30 22278 C 1976.39 1.01964 1.58066 0
M  V30 22279 O 1975.75 -0.0056107 1.81299 0
M  V30 22280 C 1975.8 3.43203 1.10653 0
M  V30 22281 O 1974.9 3.47447 2.22159 0
M  V30 22282 H 1974.24 0.65143 0.12859 0
M  V30 22283 H 1976.77 2.03246 -0.234993 0
M  V30 22284 H 1976.78 3.81862 1.43686 0
M  V30 22285 H 1975.46 4.14573 0.331913 0
M  V30 22286 H 1974.03 3.20625 1.90405 0
M  V30 22287 N 1976.22 -0.133539 1.57033 0
M  V30 22288 C 1977.13 -1.18362 2.02553 0
M  V30 22289 C 1978.15 -1.46212 0.943294 0
M  V30 22290 O 1979.32 -1.57616 1.25376 0
M  V30 22291 C 1976.39 -2.49391 2.40842 0
M  V30 22292 C 1975.45 -2.29068 3.63079 0
M  V30 22293 C 1974.68 -3.53849 3.99533 0
M  V30 22294 O 1974.9 -4.60576 3.36491 0
M  V30 22295 O 1973.84 -3.45713 4.92713 0
M  V30 22296 H 1977.66 -0.827128 2.9222 0
M  V30 22297 H 1975.25 -0.343267 1.45403 0
M  V30 22298 H 1977.13 -3.26617 2.66269 0
M  V30 22299 H 1975.81 -2.84544 1.54326 0
M  V30 22300 H 1974.71 -1.49749 3.42821 0
M  V30 22301 H 1976.05 -1.98826 4.50254 0
M  V30 22302 N 1977.7 -1.52352 -0.403298 0
M  V30 22303 C 1978.97 -1.57265 -1.16305 0
M  V30 22304 C 1979.35 -0.357181 -2.08056 0
M  V30 22305 O 1978.7 0.655551 -2.18894 0
M  V30 22306 C 1978.91 -2.90429 -1.93525 0
M  V30 22307 C 1980.26 -3.43643 -2.49388 0
M  V30 22308 O 1981.28 -2.92208 -2.03699 0
M  V30 22309 O 1980.14 -4.33474 -3.32809 0
M  V30 22310 H 1977.24 -0.633707 -0.531361 0
M  V30 22311 H 1979.78 -1.64682 -0.409607 0
M  V30 22312 H 1978.56 -3.70341 -1.26346 0
M  V30 22313 H 1978.18 -2.86331 -2.75862 0
M  V30 22314 N 1979.18 0.660885 -1.43074 0
M  V30 22315 C 1980.59 1.24187 -1.39407 0
M  V30 22316 C 1980.94 1.95973 -0.0942854 0
M  V30 22317 O 1980.06 2.00808 0.80654 0
M  V30 22318 C 1980.66 2.25865 -2.52528 0
M  V30 22319 C 1979.22 2.79459 -2.5215 0
M  V30 22320 C 1978.36 1.53984 -2.30617 0
M  V30 22321 H 1981.31 0.453383 -1.52086 0
M  V30 22322 H 1981.34 3.07886 -2.23577 0
M  V30 22323 H 1980.85 1.73589 -3.47114 0
M  V30 22324 H 1978.95 3.35818 -1.61422 0
M  V30 22325 H 1979.06 3.27526 -3.49662 0
M  V30 22326 H 1977.43 1.81056 -1.79139 0
M  V30 22327 H 1978.21 1.03654 -3.27278 0
M  V30 22328 N 1980.65 1.29477 0.898527 0
M  V30 22329 C 1981.6 1.1459 2.02415 0
M  V30 22330 C 1982.6 0.0611919 1.69289 0
M  V30 22331 O 1983.8 0.221075 1.78637 0
M  V30 22332 H 1980.18 0.353997 0.663468 0
M  V30 22333 H 1982.15 2.09886 2.12109 0
M  V30 22334 C 1980.9 0.840435 3.3739 0
M  V30 22335 H 1980.22 1.66712 3.63383 0
M  V30 22336 H 1981.66 0.77631 4.16833 0
M  V30 22337 C 1980.12 -0.456337 3.33795 0
M  V30 22338 O 1980.65 -1.48204 3.73361 0
M  V30 22339 N 1978.86 -0.462604 2.86894 0
M  V30 22340 H 1978.4 0.372545 2.54892 0
M  V30 22341 H 1978.36 -1.33024 2.84872 0
M  V30 22342 N 1982.13 -1.10905 1.11972 0
M  V30 22343 C 1983.41 -1.79218 0.783601 0
M  V30 22344 C 1983.79 -1.9817 -0.727451 0
M  V30 22345 O 1983.14 -1.57084 -1.65942 0
M  V30 22346 C 1983.35 -3.12538 1.55309 0
M  V30 22347 C 1984.7 -3.87492 1.73595 0
M  V30 22348 O 1985.72 -3.22244 1.5178 0
M  V30 22349 O 1984.58 -5.04588 2.09887 0
M  V30 22350 H 1981.67 -0.776524 0.284498 0
M  V30 22351 H 1984.22 -1.17598 1.22347 0
M  V30 22352 H 1982.99 -2.94133 2.58072 0
M  V30 22353 H 1982.61 -3.81874 1.10714 0
M  V30 22354 N 1983.61 -0.910886 -1.2861 0
M  V30 22355 C 1984.89 -0.461608 -1.90075 0
M  V30 22356 C 1985.27 1.05944 -1.8259 0
M  V30 22357 O 1984.62 1.90624 -1.25995 0
M  V30 22358 C 1984.83 -0.98875 -3.34701 0
M  V30 22359 C 1986.17 -1.03913 -4.11688 0
M  V30 22360 O 1987.2 -0.937194 -3.4365 0
M  V30 22361 O 1986.06 -1.19392 -5.33299 0
M  V30 22362 H 1983.15 -0.145814 -0.814044 0
M  V30 22363 H 1985.7 -1.00148 -1.36998 0
M  V30 22364 H 1984.47 -2.03273 -3.34359 0
M  V30 22365 H 1984.09 -0.429535 -3.95273 0
M  V30 22366 N 1985.09 1.42434 -0.674558 0
M  V30 22367 C 1986.33 2.03413 -0.200601 0
M  V30 22368 C 1986.69 1.52183 1.17065 0
M  V30 22369 O 1987.89 2.04947 1.73925 0
M  V30 22370 C 1986.16 3.56638 -0.233215 0
M  V30 22371 S 1987.72 4.38471 0.169775 0
M  V30 22372 H 1984.54 0.706197 -0.0825027 0
M  V30 22373 H 1987.14 1.74186 -0.887657 0
M  V30 22374 H 1985.85 3.91422 -1.23358 0
M  V30 22375 H 1985.38 3.90538 0.473683 0
M  V30 22376 H 1987.39 4.75946 1.4032 0
M  V30 22377 N 1986.57 0.417871 1.51959 0
M  V30 22378 C 1987.81 -0.155052 2.01906 0
M  V30 22379 C 1988.14 -1.44397 1.30307 0
M  V30 22380 O 1987.4 -1.91556 0.400588 0
M  V30 22381 C 1987.7 -0.440779 3.54672 0
M  V30 22382 C 1987.36 0.759981 4.44449 0
M  V30 22383 C 1986.02 1.08932 4.68708 0
M  V30 22384 C 1988.38 1.56193 4.97246 0
M  V30 22385 C 1985.7 2.22164 5.4301 0
M  V30 22386 C 1988.06 2.68508 5.72788 0
M  V30 22387 C 1986.72 3.01918 5.95316 0
M  V30 22388 H 1985.99 -0.0567377 0.738825 0
M  V30 22389 H 1988.64 0.561082 1.83096 0
M  V30 22390 H 1986.94 -1.23858 3.71707 0
M  V30 22391 H 1988.64 -0.897174 3.90835 0
M  V30 22392 H 1985.23 0.49332 4.25751 0
M  V30 22393 H 1989.41 1.32071 4.78405 0
M  V30 22394 H 1984.67 2.48387 5.58672 0
M  V30 22395 H 1988.84 3.3103 6.12692 0
M  V30 22396 H 1986.47 3.89774 6.52672 0
M  V30 22397 N 1988.04 -1.56898 0.148573 0
M  V30 22398 C 1989.29 -1.9535 -0.502116 0
M  V30 22399 C 1989.61 -1.03603 -1.65909 0
M  V30 22400 O 1990.81 -1.31641 -2.37451 0
M  V30 22401 C 1989.27 -3.47281 -0.944653 0
M  V30 22402 C 1988.88 -4.47616 0.185474 0
M  V30 22403 C 1990.62 -3.94597 -1.56504 0
M  V30 22404 C 1988.53 -5.90758 -0.27542 0
M  V30 22405 H 1987.46 -0.729315 -0.191351 0
M  V30 22406 H 1990.11 -1.82013 0.233169 0
M  V30 22407 H 1988.49 -3.55957 -1.73525 0
M  V30 22408 H 1989.66 -4.50637 0.962441 0
M  V30 22409 H 1987.98 -4.10226 0.714373 0
M  V30 22410 H 1990.58 -4.9898 -1.92153 0
M  V30 22411 H 1990.92 -3.36238 -2.45459 0
M  V30 22412 H 1991.45 -3.88845 -0.839319 0
M  V30 22413 H 1988.19 -6.5294 0.578787 0
M  V30 22414 H 1987.71 -5.91094 -1.01823 0
M  V30 22415 H 1989.39 -6.42904 -0.726905 0
M  V30 22416 N 1989.52 0.125209 -1.57102 0
M  V30 22417 C 1990.47 1.17292 -2.00861 0
M  V30 22418 C 1991.46 1.4323 -0.904511 0
M  V30 22419 O 1992.67 1.43266 -1.08972 0
M  V30 22420 H 1989.05 0.395322 -0.639706 0
M  V30 22421 H 1991.02 0.777307 -2.88098 0
M  V30 22422 C 1989.77 2.49311 -2.42362 0
M  V30 22423 H 1989.09 2.30188 -3.26884 0
M  V30 22424 H 1990.53 3.21196 -2.76784 0
M  V30 22425 C 1988.99 3.1144 -1.2848 0
M  V30 22426 O 1989.52 3.97233 -0.597373 0
M  V30 22427 N 1987.72 2.71221 -1.04344 0
M  V30 22428 H 1987.27 2.0155 -1.60423 0
M  V30 22429 H 1987.23 3.1312 -0.283408 0
M  V30 22430 N 1991 1.52564 0.395213 0
M  V30 22431 C 1992.23 1.70924 1.16053 0
M  V30 22432 C 1992.64 0.424554 1.84375 0
M  V30 22433 O 1991.98 -0.610327 1.73265 0
M  V30 22434 C 1992.04 2.79882 2.25625 0
M  V30 22435 C 1991.71 4.21196 1.77322 0
M  V30 22436 C 1992.7 5.04566 1.25336 0
M  V30 22437 C 1990.39 4.6749 1.83733 0
M  V30 22438 C 1992.38 6.32309 0.804005 0
M  V30 22439 C 1990.07 5.95219 1.3841 0
M  V30 22440 C 1991.07 6.77458 0.868299 0
M  V30 22441 O 1990.76 8.02793 0.421654 0
M  V30 22442 H 1990.49 0.575785 0.354186 0
M  V30 22443 H 1993.04 1.99969 0.469216 0
M  V30 22444 H 1991.27 2.46245 2.98162 0
M  V30 22445 H 1992.96 2.86705 2.87324 0
M  V30 22446 H 1993.73 4.69985 1.19744 0
M  V30 22447 H 1989.61 4.03572 2.22823 0
M  V30 22448 H 1993.15 6.96448 0.400726 0
M  V30 22449 H 1989.05 6.29305 1.43685 0
M  V30 22450 H 1989.82 8.16692 0.543698 0
M  V30 22451 N 1992.48 -0.653289 1.43422 0
M  V30 22452 C 1993.89 -1.23446 1.40064 0
M  V30 22453 C 1994.24 -1.95921 0.104677 0
M  V30 22454 O 1993.37 -2.01233 -0.79588 0
M  V30 22455 C 1993.96 -2.24523 2.53722 0
M  V30 22456 C 1992.52 -2.78117 2.53629 0
M  V30 22457 C 1991.67 -1.52759 2.3143 0
M  V30 22458 H 1994.62 -0.445312 1.52324 0
M  V30 22459 H 1994.64 -3.06696 2.25207 0
M  V30 22460 H 1994.15 -1.71746 3.4803 0
M  V30 22461 H 1992.25 -3.34957 1.632 0
M  V30 22462 H 1992.36 -3.25667 3.51394 0
M  V30 22463 H 1990.73 -1.80104 1.80096 0
M  V30 22464 H 1991.51 -1.01917 3.27823 0
M  V30 22465 N 1993.96 -1.29952 -0.891648 0
M  V30 22466 C 1994.89 -1.18331 -2.01296 0
M  V30 22467 C 1995.87 -0.0755571 -1.69932 0
M  V30 22468 O 1997.05 -0.256435 -1.92499 0
M  V30 22469 C 1994.18 -0.867421 -3.36293 0
M  V30 22470 C 1993.14 -1.93237 -3.81894 0
M  V30 22471 C 1992.46 -1.46962 -5.14107 0
M  V30 22472 C 1993.76 -3.34246 -4.01344 0
M  V30 22473 H 1995.46 -2.12138 -2.11276 0
M  V30 22474 H 1993 -1.02132 -1.01514 0
M  V30 22475 H 1994.96 -0.772806 -4.14253 0
M  V30 22476 H 1993.68 0.106342 -3.26427 0
M  V30 22477 H 1992.34 -2.01651 -3.06157 0
M  V30 22478 H 1991.99 -0.484311 -5.00663 0
M  V30 22479 H 1991.69 -2.1819 -5.45589 0
M  V30 22480 H 1993.21 -1.38866 -5.94599 0
M  V30 22481 H 1994.62 -3.28629 -4.69762 0
M  V30 22482 H 1993.02 -4.03502 -4.44192 0
M  V30 22483 H 1994.09 -3.76629 -3.05415 0
M  V30 22484 N 1995.44 1.1031 -1.12559 0
M  V30 22485 C 1996.4 2.14869 -0.79773 0
M  V30 22486 C 1997.4 1.59691 0.188521 0
M  V30 22487 O 1998.59 1.7416 -0.037433 0
M  V30 22488 C 1995.72 3.40394 -0.185665 0
M  V30 22489 H 1996.91 2.45384 -1.72415 0
M  V30 22490 H 1994.47 1.25694 -0.929011 0
M  V30 22491 H 1995.2 3.15499 0.750409 0
M  V30 22492 H 1994.99 3.81731 -0.895771 0
M  V30 22493 H 1996.48 4.17591 0.0271848 0
M  V30 22494 N 1996.91 0.917694 1.28125 0
M  V30 22495 C 1998.14 0.568889 1.98925 0
M  V30 22496 C 1998.56 -0.85076 1.68545 0
M  V30 22497 O 1997.91 -1.56406 0.940399 0
M  V30 22498 C 1997.96 0.773181 3.53135 0
M  V30 22499 O 1997.69 2.13697 3.82446 0
M  V30 22500 C 1999.19 0.431738 4.41193 0
M  V30 22501 H 1996.41 0.21651 0.63511 0
M  V30 22502 H 1998.95 1.23198 1.63226 0
M  V30 22503 H 1997.11 0.157034 3.87082 0
M  V30 22504 H 1997.52 2.17956 4.7707 0
M  V30 22505 H 1998.99 0.625431 5.48445 0
M  V30 22506 H 1999.47 -0.632236 4.34626 0
M  V30 22507 H 2000.08 1.02559 4.12749 0
M  V30 22508 N 1998.39 -1.42074 0.682102 0
M  V30 22509 C 1999.64 -2.0066 0.204581 0
M  V30 22510 C 1999.95 -1.54595 -1.19832 0
M  V30 22511 O 2001.16 -2.05648 -1.7726 0
M  V30 22512 C 1999.62 -3.5852 0.31488 0
M  V30 22513 C 1999.22 -4.13571 1.7223 0
M  V30 22514 C 2000.97 -4.24374 -0.103556 0
M  V30 22515 C 1998.87 -5.6382 1.78497 0
M  V30 22516 H 1997.8 -0.750485 0.0727253 0
M  V30 22517 H 2000.46 -1.62712 0.848346 0
M  V30 22518 H 1998.84 -3.94006 -0.396905 0
M  V30 22519 H 2000.01 -3.89531 2.46176 0
M  V30 22520 H 1998.33 -3.60195 2.08922 0
M  V30 22521 H 2000.92 -5.34645 -0.0769789 0
M  V30 22522 H 2001.27 -4.00385 -1.14005 0
M  V30 22523 H 2001.8 -3.93874 0.557477 0
M  V30 22524 H 1998.54 -5.92616 2.80154 0
M  V30 22525 H 1998.06 -5.89828 1.08918 0
M  V30 22526 H 1999.74 -6.28363 1.54172 0
M  V30 22527 N 1999.87 -0.425924 -1.51735 0
M  V30 22528 C 2000.82 0.405756 -2.29034 0
M  V30 22529 C 2001.81 1.03103 -1.3441 0
M  V30 22530 O 2003.02 0.967304 -1.518 0
M  V30 22531 H 1999.39 0.149651 -0.736959 0
M  V30 22532 H 2001.36 -0.267185 -2.97201 0
M  V30 22533 C 2000.11 1.50091 -3.13637 0
M  V30 22534 H 1999.44 1.02912 -3.86328 0
M  V30 22535 H 2000.88 2.05632 -3.70799 0
M  V30 22536 C 1999.33 2.47775 -2.28274 0
M  V30 22537 O 1999.86 3.52051 -1.9345 0
M  V30 22538 N 1998.07 2.18387 -1.91717 0
M  V30 22539 H 1997.62 1.3362 -2.20235 0
M  V30 22540 H 1997.58 2.83989 -1.34897 0
M  V30 22541 N 2001.35 1.56817 -0.156891 0
M  V30 22542 C 2002.28 2.20266 0.774915 0
M  V30 22543 C 2003.26 1.15387 1.24979 0
M  V30 22544 O 2004.44 1.43766 1.30557 0
M  V30 22545 C 2001.57 2.83207 2.01025 0
M  V30 22546 C 2000.53 3.94 1.67177 0
M  V30 22547 C 1999.85 4.43921 2.98057 0
M  V30 22548 C 2001.15 5.14297 0.91083 0
M  V30 22549 H 2002.85 2.98387 0.246082 0
M  V30 22550 H 2000.39 1.43525 0.116921 0
M  V30 22551 H 2002.35 3.26264 2.66701 0
M  V30 22552 H 2001.07 2.02433 2.56298 0
M  V30 22553 H 1999.73 3.51576 1.03876 0
M  V30 22554 H 1999.38 3.59957 3.5134 0
M  V30 22555 H 1999.08 5.18657 2.76169 0
M  V30 22556 H 2000.6 4.89656 3.64787 0
M  V30 22557 H 2002.02 5.54137 1.46988 0
M  V30 22558 H 2000.41 5.94857 0.791526 0
M  V30 22559 H 2001.48 4.84806 -0.0955943 0
M  V30 22560 N 2002.83 -0.116876 1.57166 0
M  V30 22561 C 2004.1 -0.854715 1.75937 0
M  V30 22562 C 2004.48 -1.97969 0.732908 0
M  V30 22563 O 2003.83 -2.27207 -0.242738 0
M  V30 22564 C 2004.04 -1.36944 3.2101 0
M  V30 22565 C 2005.39 -1.82093 3.83572 0
M  V30 22566 O 2006.41 -1.46618 3.24625 0
M  V30 22567 O 2005.27 -2.47614 4.87186 0
M  V30 22568 H 2002.37 -0.40605 0.720453 0
M  V30 22569 H 2004.91 -0.100451 1.69402 0
M  V30 22570 H 2003.68 -0.56241 3.87237 0
M  V30 22571 H 2003.31 -2.18635 3.32091 0
M  V30 22572 N 2004.3 -1.52772 -0.387116 0
M  V30 22573 C 2005.55 -1.67131 -1.12916 0
M  V30 22574 C 2005.87 -0.418501 -1.9107 0
M  V30 22575 O 2007.07 -0.442261 -2.67874 0
M  V30 22576 C 2005.53 -2.95368 -2.05635 0
M  V30 22577 C 2005.14 -4.27835 -1.32895 0
M  V30 22578 C 2006.88 -3.19093 -2.79964 0
M  V30 22579 C 2004.79 -5.47177 -2.2439 0
M  V30 22580 H 2003.72 -0.622655 -0.425225 0
M  V30 22581 H 2006.37 -1.79268 -0.391801 0
M  V30 22582 H 2004.75 -2.76981 -2.83015 0
M  V30 22583 H 2005.92 -4.56781 -0.607276 0
M  V30 22584 H 2004.24 -4.10385 -0.705181 0
M  V30 22585 H 2006.84 -4.05436 -3.48605 0
M  V30 22586 H 2007.18 -2.34244 -3.44145 0
M  V30 22587 H 2007.71 -3.38054 -2.09676 0
M  V30 22588 H 2004.45 -6.3444 -1.64822 0
M  V30 22589 H 2003.97 -5.22541 -2.94468 0
M  V30 22590 H 2005.65 -5.81126 -2.84432 0
M  V30 22591 N 2005.78 0.645673 -1.43767 0
M  V30 22592 C 2007.01 1.43799 -1.49454 0
M  V30 22593 C 2007.43 1.87742 -0.115948 0
M  V30 22594 O 2006.79 1.57845 0.891891 0
M  V30 22595 C 2006.84 2.64416 -2.45186 0
M  V30 22596 O 2005.94 3.63742 -1.94334 0
M  V30 22597 H 2005.28 0.430858 -0.50523 0
M  V30 22598 H 2007.81 0.789424 -1.88757 0
M  V30 22599 H 2007.82 3.12139 -2.62741 0
M  V30 22600 H 2006.5 2.31776 -3.4533 0
M  V30 22601 H 2005.07 3.22926 -1.86476 0
M  V30 22602 N 2007.26 1.30423 0.884744 0
M  V30 22603 C 2008.54 1.09917 1.61795 0
M  V30 22604 C 2008.92 -0.351448 2.08154 0
M  V30 22605 O 2008.26 -1.34299 1.84868 0
M  V30 22606 C 2008.47 2.10024 2.78731 0
M  V30 22607 C 2009.82 2.41754 3.49056 0
M  V30 22608 O 2010.85 2.08336 2.8892 0
M  V30 22609 O 2009.71 2.98918 4.57505 0
M  V30 22610 H 2006.8 0.422163 0.711131 0
M  V30 22611 H 2009.35 1.41849 0.9315 0
M  V30 22612 H 2008.12 3.07665 2.41781 0
M  V30 22613 H 2007.74 1.7891 3.55073 0
M  V30 22614 N 2008.74 -1.09711 1.13142 0
M  V30 22615 C 2010.15 -1.63323 0.904565 0
M  V30 22616 C 2010.5 -1.88052 -0.559546 0
M  V30 22617 O 2009.62 -1.62804 -1.42562 0
M  V30 22618 C 2010.22 -2.96707 1.63556 0
M  V30 22619 C 2008.78 -3.47156 1.45465 0
M  V30 22620 C 2007.93 -2.21625 1.66667 0
M  V30 22621 H 2010.88 -0.931125 1.28514 0
M  V30 22622 H 2010.9 -3.64525 1.09094 0
M  V30 22623 H 2010.41 -2.78677 2.70113 0
M  V30 22624 H 2008.51 -3.70315 0.411972 0
M  V30 22625 H 2008.62 -4.24784 2.21576 0
M  V30 22626 H 2006.99 -2.30136 1.0913 0
M  V30 22627 H 2007.77 -2.06118 2.74537 0
M  V30 22628 N 2010.22 -0.924476 -1.27637 0
M  V30 22629 C 2011.45 -0.57859 -1.98333 0
M  V30 22630 C 2011.85 0.846979 -1.69183 0
M  V30 22631 O 2011.2 1.57405 -0.94706 0
M  V30 22632 C 2011.26 -0.720732 -3.52201 0
M  V30 22633 C 2010.92 -2.11783 -4.04966 0
M  V30 22634 C 2011.92 -3.09167 -4.17986 0
M  V30 22635 C 2009.61 -2.4339 -4.39393 0
M  V30 22636 C 2011.6 -4.36269 -4.64702 0
M  V30 22637 C 2009.29 -3.70729 -4.85802 0
M  V30 22638 C 2010.28 -4.66982 -4.98415 0
M  V30 22639 O 2009.97 -5.92055 -5.43807 0
M  V30 22640 H 2009.7 -0.218317 -0.639776 0
M  V30 22641 H 2012.26 -1.24281 -1.63534 0
M  V30 22642 H 2010.49 0.000580874 -3.867 0
M  V30 22643 H 2012.18 -0.380377 -4.04114 0
M  V30 22644 H 2012.94 -2.86068 -3.9165 0
M  V30 22645 H 2008.82 -1.69216 -4.2882 0
M  V30 22646 H 2012.37 -5.11402 -4.74462 0
M  V30 22647 H 2008.26 -3.93647 -5.11578 0
M  V30 22648 H 2009.03 -5.94997 -5.62068 0
M  V30 22649 N 2011.69 1.41711 -0.689627 0
M  V30 22650 C 2012.64 2.30791 -0.020555 0
M  V30 22651 C 2013.61 1.46782 0.777447 0
M  V30 22652 O 2014.8 1.75582 0.746688 0
M  V30 22653 C 2011.94 3.32772 0.914149 0
M  V30 22654 C 2011.05 4.31864 0.108394 0
M  V30 22655 C 2010.18 5.20916 1.0402 0
M  V30 22656 C 2009.22 6.11679 0.227 0
M  V30 22657 N 2008.36 6.93233 1.11229 0
M  V30 22658 H 2013.2 2.87448 -0.78597 0
M  V30 22659 H 2010.74 1.41576 -0.399313 0
M  V30 22660 H 2012.7 3.90442 1.47005 0
M  V30 22661 H 2011.33 2.77679 1.64603 0
M  V30 22662 H 2010.38 3.7619 -0.564348 0
M  V30 22663 H 2011.69 4.96058 -0.522312 0
M  V30 22664 H 2010.84 5.83391 1.66553 0
M  V30 22665 H 2009.58 4.56934 1.70477 0
M  V30 22666 H 2008.59 5.48258 -0.411449 0
M  V30 22667 H 2009.81 6.77714 -0.433691 0
M  V30 22668 H 2007.76 6.31866 1.76299 0
M  V30 22669 H 2007.68 7.5409 0.537017 0
M  V30 22670 H 2008.94 7.60182 1.72463 0
M  V30 22671 N 2013.17 0.433965 1.51507 0
M  V30 22672 C 2014.08 -0.385423 2.31412 0
M  V30 22673 C 2015.1 -1.03078 1.40182 0
M  V30 22674 O 2016.27 -1.02688 1.73254 0
M  V30 22675 C 2013.34 -1.47371 3.13819 0
M  V30 22676 C 2012.4 -0.848838 4.20824 0
M  V30 22677 C 2011.63 -1.88527 4.99293 0
M  V30 22678 O 2011.86 -3.107 4.78353 0
M  V30 22679 O 2010.79 -1.47768 5.83479 0
M  V30 22680 H 2014.62 0.266798 3.02526 0
M  V30 22681 H 2012.2 0.19658 1.48101 0
M  V30 22682 H 2014.08 -2.10495 3.65061 0
M  V30 22683 H 2012.76 -2.11008 2.45474 0
M  V30 22684 H 2011.67 -0.179639 3.73668 0
M  V30 22685 H 2013 -0.256013 4.91534 0
M  V30 22686 N 2014.65 -1.56732 0.165206 0
M  V30 22687 C 2015.9 -1.95872 -0.481368 0
M  V30 22688 C 2016.21 -1.05357 -1.64801 0
M  V30 22689 O 2017.42 -1.34152 -2.36041 0
M  V30 22690 C 2015.87 -3.48264 -0.907766 0
M  V30 22691 C 2015.48 -4.47394 0.232939 0
M  V30 22692 C 2017.23 -3.96235 -1.5231 0
M  V30 22693 C 2015.13 -5.91017 -0.212747 0
M  V30 22694 H 2014.06 -0.731304 -0.183605 0
M  V30 22695 H 2016.71 -1.81755 0.252461 0
M  V30 22696 H 2015.1 -3.57777 -1.69739 0
M  V30 22697 H 2016.27 -4.49591 1.01018 0
M  V30 22698 H 2014.59 -4.09446 0.757843 0
M  V30 22699 H 2017.18 -5.0099 -1.8685 0
M  V30 22700 H 2017.53 -3.38822 -2.41879 0
M  V30 22701 H 2018.06 -3.89713 -0.798029 0
M  V30 22702 H 2014.8 -6.52289 0.648008 0
M  V30 22703 H 2014.32 -5.92141 -0.955479 0
M  V30 22704 H 2016 -6.43638 -0.658675 0
M  V30 22705 N 2016.13 0.10854 -1.57226 0
M  V30 22706 C 2017.35 0.832276 -1.89968 0
M  V30 22707 C 2017.78 1.72143 -0.758179 0
M  V30 22708 O 2017.14 1.78952 0.290864 0
M  V30 22709 C 2017.18 1.63287 -3.21512 0
M  V30 22710 O 2016.29 2.74071 -3.08154 0
M  V30 22711 H 2015.63 0.229508 -0.623075 0
M  V30 22712 H 2018.16 0.0877974 -2.04412 0
M  V30 22713 H 2018.17 2.01992 -3.5449 0
M  V30 22714 H 2016.84 0.98022 -4.04184 0
M  V30 22715 H 2015.42 2.38492 -2.86664 0
M  V30 22716 N 2017.61 1.52975 0.379009 0
M  V30 22717 C 2018.52 1.81401 1.48764 0
M  V30 22718 C 2019.53 0.701435 1.59235 0
M  V30 22719 O 2020.71 0.990085 1.75383 0
M  V30 22720 C 2017.77 1.98593 2.84186 0
M  V30 22721 C 2016.83 3.22504 2.83354 0
M  V30 22722 C 2016.07 3.38866 4.12317 0
M  V30 22723 O 2016.29 2.59814 5.07792 0
M  V30 22724 O 2015.22 4.32165 4.18947 0
M  V30 22725 H 2019.05 2.75561 1.27671 0
M  V30 22726 H 2016.64 1.38189 0.56782 0
M  V30 22727 H 2018.52 2.11549 3.64451 0
M  V30 22728 H 2017.19 1.07622 3.05285 0
M  V30 22729 H 2016.1 3.14982 2.01835 0
M  V30 22730 H 2017.43 4.13353 2.67208 0
M  V30 22731 N 2019.08 -0.63804 1.44107 0
M  V30 22732 C 2020.36 -1.39606 1.37002 0
M  V30 22733 C 2020.74 -2.11085 0.0252978 0
M  V30 22734 O 2020.09 -2.0585 -0.991871 0
M  V30 22735 C 2020.3 -2.3682 2.56353 0
M  V30 22736 C 2021.65 -3.00362 3.00113 0
M  V30 22737 O 2022.67 -2.47147 2.56509 0
M  V30 22738 O 2021.53 -3.96881 3.75696 0
M  V30 22739 H 2018.62 -0.624471 0.542186 0
M  V30 22740 H 2021.17 -0.663674 1.56184 0
M  V30 22741 H 2019.94 -1.83054 3.45842 0
M  V30 22742 H 2019.57 -3.17487 2.39349 0
M  V30 22743 N 2020.56 -1.3089 -0.877815 0
M  V30 22744 C 2021.49 -1.20459 -2.0003 0
M  V30 22745 C 2022.47 -0.0935765 -1.69842 0
M  V30 22746 O 2023.66 -0.276838 -1.92217 0
M  V30 22747 C 2020.79 -0.903041 -3.35354 0
M  V30 22748 C 2019.74 -1.97277 -3.79823 0
M  V30 22749 C 2019.07 -1.52407 -5.12519 0
M  V30 22750 C 2020.37 -3.38484 -3.97776 0
M  V30 22751 H 2022.06 -2.14367 -2.09014 0
M  V30 22752 H 2019.61 -1.03203 -1.00425 0
M  V30 22753 H 2021.56 -0.816699 -4.1341 0
M  V30 22754 H 2020.29 0.0717143 -3.26521 0
M  V30 22755 H 2018.94 -2.04887 -3.04001 0
M  V30 22756 H 2018.59 -0.537386 -5.00121 0
M  V30 22757 H 2018.29 -2.23964 -5.43244 0
M  V30 22758 H 2019.82 -1.45165 -5.93093 0
M  V30 22759 H 2021.23 -3.33593 -4.6625 0
M  V30 22760 H 2019.63 -4.0819 -4.39887 0
M  V30 22761 H 2020.7 -3.79847 -3.01403 0
M  V30 22762 N 2022.04 1.0911 -1.13723 0
M  V30 22763 C 2023.29 1.80725 -0.895618 0
M  V30 22764 C 2023.6 1.86812 0.579725 0
M  V30 22765 O 2024.81 2.54768 0.938368 0
M  V30 22766 C 2023.26 3.24679 -1.55278 0
M  V30 22767 C 2022.87 3.26849 -3.06388 0
M  V30 22768 C 2024.62 4.01028 -1.392 0
M  V30 22769 C 2022.52 4.65347 -3.64974 0
M  V30 22770 H 2021.45 0.677257 -0.33142 0
M  V30 22771 H 2024.1 1.22603 -1.36531 0
M  V30 22772 H 2022.49 3.82883 -1.01075 0
M  V30 22773 H 2023.66 2.78393 -3.67198 0
M  V30 22774 H 2021.98 2.63993 -3.2202 0
M  V30 22775 H 2024.57 5.03356 -1.80379 0
M  V30 22776 H 2024.92 4.14932 -0.337236 0
M  V30 22777 H 2025.45 3.49274 -1.904 0
M  V30 22778 H 2022.19 4.56646 -4.70271 0
M  V30 22779 H 2021.71 5.14115 -3.08943 0
M  V30 22780 H 2023.39 5.34322 -3.64841 0
M  V30 22781 N 2023.52 0.931232 1.27145 0
M  V30 22782 C 2024.47 0.4317 2.26727 0
M  V30 22783 C 2025.44 -0.503295 1.58291 0
M  V30 22784 O 2026.62 -0.421681 1.86082 0
M  V30 22785 C 2023.76 -0.306208 3.43739 0
M  V30 22786 C 2022.87 0.663307 4.26877 0
M  V30 22787 C 2022.01 -0.0947979 5.31115 0
M  V30 22788 C 2021.05 0.867191 6.05926 0
M  V30 22789 N 2020.18 0.141485 7.01957 0
M  V30 22790 H 2025.02 1.28587 2.6883 0
M  V30 22791 H 2022.56 0.64533 1.32189 0
M  V30 22792 H 2024.52 -0.750387 4.10396 0
M  V30 22793 H 2023.15 -1.12458 3.02577 0
M  V30 22794 H 2022.2 1.22601 3.60102 0
M  V30 22795 H 2023.51 1.39836 4.78798 0
M  V30 22796 H 2022.67 -0.598728 6.03738 0
M  V30 22797 H 2021.41 -0.862794 4.80007 0
M  V30 22798 H 2020.41 1.38234 5.32139 0
M  V30 22799 H 2021.64 1.63503 6.59123 0
M  V30 22800 H 2019.58 -0.608201 6.53174 0
M  V30 22801 H 2019.5 0.816044 7.51583 0
M  V30 22802 H 2020.77 -0.341677 7.78751 0
M  V30 22803 N 2025 -1.41343 0.697132 0
M  V30 22804 C 2025.95 -2.3259 0.0214207 0
M  V30 22805 C 2026.94 -1.51048 -0.766873 0
M  V30 22806 O 2028.15 -1.66973 -0.672319 0
M  V30 22807 H 2024.52 -0.751906 -0.0118741 0
M  V30 22808 H 2026.49 -2.87252 0.808025 0
M  V30 22809 C 2025.24 -3.35853 -0.899884 0
M  V30 22810 H 2024.56 -3.98652 -0.302721 0
M  V30 22811 H 2026 -4.02236 -1.34097 0
M  V30 22812 C 2024.46 -2.69865 -2.01679 0
M  V30 22813 O 2024.99 -2.54768 -3.10574 0
M  V30 22814 N 2023.2 -2.28536 -1.79498 0
M  V30 22815 H 2022.75 -2.41015 -0.909364 0
M  V30 22816 H 2022.7 -1.8472 -2.54413 0
M  V30 22817 N 2026.48 -0.441993 -1.51275 0
M  V30 22818 C 2027.41 0.357557 -2.30746 0
M  V30 22819 C 2028.39 1.01683 -1.36362 0
M  V30 22820 O 2029.57 1.01958 -1.65282 0
M  V30 22821 C 2026.7 1.45642 -3.15287 0
M  V30 22822 C 2025.66 0.920377 -4.17987 0
M  V30 22823 C 2024.98 2.11534 -4.91078 0
M  V30 22824 C 2026.28 -0.0483941 -5.22278 0
M  V30 22825 H 2027.98 -0.30565 -2.97836 0
M  V30 22826 H 2025.52 -0.148438 -1.43233 0
M  V30 22827 H 2027.47 2.02301 -3.69665 0
M  V30 22828 H 2026.2 2.14798 -2.46027 0
M  V30 22829 H 2024.86 0.375962 -3.64667 0
M  V30 22830 H 2024.51 2.7932 -4.18317 0
M  V30 22831 H 2024.21 1.76303 -5.60527 0
M  V30 22832 H 2025.73 2.68738 -5.48281 0
M  V30 22833 H 2027.14 0.428053 -5.717 0
M  V30 22834 H 2025.54 -0.313504 -5.99281 0
M  V30 22835 H 2026.61 -0.983611 -4.74819 0
M  V30 22836 N 2027.95 1.56642 -0.173515 0
M  V30 22837 C 2029.18 2.01033 0.476387 0
M  V30 22838 C 2029.59 1.05282 1.57202 0
M  V30 22839 O 2028.93 0.0461376 1.83642 0
M  V30 22840 C 2029 3.41847 1.11269 0
M  V30 22841 C 2028.66 4.56725 0.158447 0
M  V30 22842 C 2029.66 5.16141 -0.624046 0
M  V30 22843 C 2027.34 5.02271 0.0536344 0
M  V30 22844 C 2029.34 6.19534 -1.49853 0
M  V30 22845 C 2027.02 6.05513 -0.824431 0
M  V30 22846 C 2028.02 6.64016 -1.5991 0
M  V30 22847 O 2027.71 7.65256 -2.46249 0
M  V30 22848 H 2027.44 0.66413 0.126127 0
M  V30 22849 H 2030 2.03577 -0.273033 0
M  V30 22850 H 2028.23 3.36222 1.91028 0
M  V30 22851 H 2029.91 3.70178 1.66502 0
M  V30 22852 H 2030.68 4.81834 -0.553255 0
M  V30 22853 H 2026.56 4.56446 0.646388 0
M  V30 22854 H 2030.1 6.65126 -2.10364 0
M  V30 22855 H 2026 6.39245 -0.896417 0
M  V30 22856 H 2026.77 7.82588 -2.39788 0
M  V30 22857 N 2029.43 -0.1002 1.57281 0
M  V30 22858 C 2030.68 -0.803295 1.85014 0
M  V30 22859 C 2030.99 -1.80146 0.762017 0
M  V30 22860 O 2032.2 -2.55209 0.926311 0
M  V30 22861 C 2030.66 -1.47942 3.28087 0
M  V30 22862 C 2030.26 -0.521281 4.44957 0
M  V30 22863 C 2032.01 -2.16654 3.65049 0
M  V30 22864 C 2029.91 -1.20171 5.79062 0
M  V30 22865 H 2028.84 -0.303744 0.690113 0
M  V30 22866 H 2031.5 -0.0561819 1.83414 0
M  V30 22867 H 2029.88 -2.27382 3.24212 0
M  V30 22868 H 2031.05 0.241249 4.60168 0
M  V30 22869 H 2029.37 0.0598694 4.16357 0
M  V30 22870 H 2031.96 -2.68286 4.62522 0
M  V30 22871 H 2032.31 -2.95316 2.93418 0
M  V30 22872 H 2032.84 -1.44081 3.7079 0
M  V30 22873 H 2029.58 -0.456001 6.53912 0
M  V30 22874 H 2029.1 -1.93579 5.67704 0
M  V30 22875 H 2030.78 -1.72963 6.23452 0
M  V30 22876 N 2030.91 -1.53174 -0.370891 0
M  V30 22877 C 2031.84 -1.82213 -1.46017 0
M  V30 22878 C 2032.82 -0.675274 -1.56122 0
M  V30 22879 O 2034.01 -0.924614 -1.70776 0
M  V30 22880 C 2031.14 -2.00727 -2.83419 0
M  V30 22881 C 2030.09 -3.16478 -2.88141 0
M  V30 22882 C 2029.42 -3.20276 -4.28167 0
M  V30 22883 C 2030.72 -4.55179 -2.56143 0
M  V30 22884 H 2032.41 -2.73432 -1.21965 0
M  V30 22885 H 2029.96 -1.31569 -0.585288 0
M  V30 22886 H 2031.91 -2.19625 -3.59643 0
M  V30 22887 H 2030.63 -1.06213 -3.08847 0
M  V30 22888 H 2029.29 -2.97392 -2.14367 0
M  V30 22889 H 2028.94 -2.2341 -4.50663 0
M  V30 22890 H 2028.64 -3.98044 -4.32244 0
M  V30 22891 H 2030.16 -3.41352 -5.06272 0
M  V30 22892 H 2031.58 -4.74274 -3.22082 0
M  V30 22893 H 2029.97 -5.35148 -2.71544 0
M  V30 22894 H 2031.04 -4.60654 -1.51412 0
M  V30 22895 N 2032.39 0.630389 -1.44443 0
M  V30 22896 C 2033.33 1.74232 -1.51367 0
M  V30 22897 C 2034.3 1.62122 -0.361324 0
M  V30 22898 O 2035.49 1.82035 -0.571662 0
M  V30 22899 C 2032.63 3.12481 -1.46457 0
M  V30 22900 C 2031.74 3.35561 -2.72071 0
M  V30 22901 C 2030.88 4.63787 -2.58989 0
M  V30 22902 C 2029.92 4.80048 -3.79764 0
M  V30 22903 N 2029.05 5.99551 -3.65354 0
M  V30 22904 H 2033.89 1.6765 -2.46368 0
M  V30 22905 H 2031.43 0.817807 -1.22272 0
M  V30 22906 H 2033.39 3.92435 -1.41601 0
M  V30 22907 H 2032.02 3.18076 -0.550216 0
M  V30 22908 H 2031.07 2.49543 -2.8711 0
M  V30 22909 H 2032.38 3.43456 -3.61717 0
M  V30 22910 H 2031.54 5.51902 -2.51971 0
M  V30 22911 H 2030.28 4.58251 -1.66905 0
M  V30 22912 H 2029.28 3.90362 -3.87166 0
M  V30 22913 H 2030.51 4.87397 -4.72886 0
M  V30 22914 H 2028.45 5.95104 -2.76021 0
M  V30 22915 H 2028.37 6.08505 -4.48617 0
M  V30 22916 H 2029.64 6.90226 -3.62228 0
M  V30 22917 N 2033.87 1.31354 0.870861 0
M  V30 22918 C 2035.09 1.24082 1.66188 0
M  V30 22919 C 2035.52 -0.190886 1.87129 0
M  V30 22920 O 2034.87 -1.13669 1.41241 0
M  V30 22921 C 2034.92 1.98926 3.00767 0
M  V30 22922 O 2034.03 1.32599 3.90501 0
M  V30 22923 H 2033.37 0.428443 0.50728 0
M  V30 22924 H 2035.9 1.73408 1.08586 0
M  V30 22925 H 2035.91 2.08487 3.5071 0
M  V30 22926 H 2034.58 3.03044 2.84846 0
M  V30 22927 H 2033.16 1.31483 3.48951 0
M  V30 22928 N 2035.34 -1.08505 1.143 0
M  V30 22929 C 2036.57 -1.85155 0.934475 0
M  V30 22930 C 2036.99 -1.81002 -0.511866 0
M  V30 22931 O 2036.35 -1.19437 -1.36398 0
M  V30 22932 C 2036.4 -3.30656 1.43871 0
M  V30 22933 O 2035.5 -4.07557 0.630143 0
M  V30 22934 H 2034.84 -0.573775 0.334183 0
M  V30 22935 H 2037.37 -1.36959 1.51998 0
M  V30 22936 H 2037.38 -3.815 1.44644 0
M  V30 22937 H 2036.06 -3.32995 2.49173 0
M  V30 22938 H 2034.64 -3.66441 0.691067 0
M  V30 22939 O 2036.86 -1.06878 -1.21076 0
M  V30 22940 H 2037.55 -0.752869 -1.7847 0
M  V30 END ATOM
M  V30 BEGIN BOND
M  V30 END BOND
M  V30 END CTAB
M  END
$$$$
