drugbank_target|C1KC03 Penicillin binding protein 2a (DB00274; DB00430; DB01000; DB01607)
 OpenBabel12092120343D

  0  0  0     0  0            999 V3000
M  V30 BEGIN CTAB
M  V30 COUNTS 7760 7824 0 0 0
M  V30 BEGIN ATOM
M  V30 1 H -0.908 1.98254 -0.117106 0
M  V30 2 N 0 1.576 0 0
M  V30 3 C 0.95 2.04904 0.999926 0
M  V30 4 C 1.934 0.943764 1.30315 0
M  V30 5 O 3.126 1.20753 1.29413 0
M  V30 6 C 0.255 2.55589 2.29192 0
M  V30 7 C -0.659 3.72993 2.01834 0
M  V30 8 N -0.268 4.8468 1.44635 0
M  V30 9 C -1.97 3.80924 2.31977 0
M  V30 10 C -1.269 5.66115 1.33747 0
M  V30 11 N -2.293 5.12118 1.82308 0
M  V30 12 H 1.509 2.88666 0.55217 0
M  V30 13 H -0.977 1.61092 0.205694 0
M  V30 14 H 1.02 2.87754 3.01668 0
M  V30 15 H -0.32 1.73245 2.7462 0
M  V30 16 H 0.691 5.0553 1.12516 0
M  V30 17 H -2.632 3.09434 2.8028 0
M  V30 18 H -1.242 6.65877 0.897654 0
M  V30 19 N 1.4781 -0.272755 1.55222 0
M  V30 20 C 2.7031 -1.02683 1.80197 0
M  V30 21 C 3.1281 -1.79142 0.573551 0
M  V30 22 O 2.4861 -1.74917 -0.476849 0
M  V30 23 C 2.5341 -1.9609 3.02624 0
M  V30 24 O 1.6381 -3.04863 2.77727 0
M  V30 25 H 0.9791 -0.293557 0.595584 0
M  V30 26 H 3.5091 -0.30159 2.02365 0
M  V30 27 H 3.5191 -2.38039 3.31363 0
M  V30 28 H 2.1941 -1.39851 3.91682 0
M  V30 29 H 0.7711 -2.67228 2.60084 0
M  V30 30 N 2.9562 -1.48159 -0.537278 0
M  V30 31 C 4.2022 -1.56035 -1.29541 0
M  V30 32 C 4.5352 -0.230377 -1.92829 0
M  V30 33 O 3.8102 0.762952 -1.78911 0
M  V30 34 C 4.0932 -2.69323 -2.39034 0
M  V30 35 C 3.9462 -4.12002 -1.80485 0
M  V30 36 C 5.2652 -2.78408 -3.40847 0
M  V30 37 H 2.3842 -0.567992 -0.469632 0
M  V30 38 H 5.0262 -1.80302 -0.599277 0
M  V30 39 H 3.1762 -2.48763 -2.98412 0
M  V30 40 H 4.8482 -4.43981 -1.25215 0
M  V30 41 H 3.0912 -4.19344 -1.11055 0
M  V30 42 H 3.7622 -4.87077 -2.59731 0
M  V30 43 H 6.2382 -2.97012 -2.91416 0
M  V30 44 H 5.1142 -3.59416 -4.14863 0
M  V30 45 H 5.3752 -1.86269 -4.00944 0
M  V30 46 N 4.4343 0.785586 -1.36625 0
M  V30 47 C 5.6833 1.53883 -1.30396 0
M  V30 48 C 5.9963 1.95271 0.113452 0
M  V30 49 O 7.2023 2.69858 0.298142 0
M  V30 50 C 5.6583 2.77808 -2.28802 0
M  V30 51 C 5.2663 2.43574 -3.75999 0
M  V30 52 C 7.0103 3.55783 -2.31558 0
M  V30 53 C 4.9173 3.63919 -4.66173 0
M  V30 54 H 3.8473 0.577678 -0.484566 0
M  V30 55 H 6.4983 0.861705 -1.62009 0
M  V30 56 H 4.8803 3.47339 -1.90188 0
M  V30 57 H 6.0543 1.81916 -4.23371 0
M  V30 58 H 4.3693 1.78803 -3.76056 0
M  V30 59 H 6.9663 4.45205 -2.96137 0
M  V30 60 H 7.3093 3.94644 -1.3252 0
M  V30 61 H 7.8423 2.93235 -2.68809 0
M  V30 62 H 4.5813 3.3015 -5.66287 0
M  V30 63 H 4.1013 4.2473 -4.23515 0
M  V30 64 H 5.7803 4.30901 -4.82632 0
M  V30 65 N 5.9124 1.20967 1.01018 0
M  V30 66 C 7.1614 1.01796 1.74128 0
M  V30 67 C 7.4744 -0.449691 1.90361 0
M  V30 68 O 8.6804 -0.76068 2.60626 0
M  V30 69 C 7.1364 1.7727 3.13215 0
M  V30 70 C 6.7444 3.28171 3.04972 0
M  V30 71 C 8.4884 1.66489 3.90489 0
M  V30 72 C 6.3954 3.96156 4.39107 0
M  V30 73 H 5.3254 0.377276 0.652824 0
M  V30 74 H 7.9764 1.44651 1.12909 0
M  V30 75 H 6.3584 1.27205 3.75013 0
M  V30 76 H 7.5324 3.85499 2.52443 0
M  V30 77 H 5.8474 3.39437 2.41188 0
M  V30 78 H 8.4444 2.14617 4.89738 0
M  V30 79 H 8.7874 0.6222 4.11624 0
M  V30 80 H 9.3204 2.14003 3.35332 0
M  V30 81 H 6.0594 5.00604 4.23174 0
M  V30 82 H 5.5794 3.43617 4.91617 0
M  V30 83 H 7.2584 4.00774 5.07926 0
M  V30 84 N 7.3905 -1.2043 1.01659 0
M  V30 85 C 8.8015 -1.71517 0.737482 0
M  V30 86 C 9.1525 -1.81547 -0.743973 0
M  V30 87 O 8.2775 -1.47803 -1.58061 0
M  V30 88 C 8.8725 -3.11515 1.33206 0
M  V30 89 C 7.4315 -3.59912 1.10183 0
M  V30 90 C 6.5785 -2.37116 1.43776 0
M  V30 91 H 9.5295 -1.05444 1.18606 0
M  V30 92 H 9.5505 -3.73575 0.722636 0
M  V30 93 H 9.0625 -3.04182 2.41028 0
M  V30 94 H 7.1635 -3.72577 0.0412756 0
M  V30 95 H 7.2765 -4.44731 1.78188 0
M  V30 96 H 5.6405 -2.39857 0.856778 0
M  V30 97 H 6.4235 -2.32424 2.52654 0
M  V30 98 N 8.8686 -0.792821 -1.36206 0
M  V30 99 C 10.1166 -0.366062 -1.98757 0
M  V30 100 C 10.4376 1.0668 -1.63231 0
M  V30 101 O 9.7076 1.73587 -0.907978 0
M  V30 102 H 8.2876 -0.132364 -0.735179 0
M  V30 103 H 10.9496 -1.01562 -1.66347 0
M  V30 104 H 10.0456 -0.460638 -3.08682 0
M  V30 105 N 10.3467 1.47872 -0.545128 0
M  V30 106 C 11.2797 2.2675 0.256885 0
M  V30 107 C 12.2577 1.33293 0.931228 0
M  V30 108 O 13.4417 1.62657 0.95262 0
M  V30 109 C 10.5687 3.09976 1.36501 0
M  V30 110 C 9.6147 4.1892 0.800496 0
M  V30 111 S 10.4477 5.34397 -0.343505 0
M  V30 112 C 11.6037 6.21186 0.766733 0
M  V30 113 H 11.8367 2.94425 -0.412479 0
M  V30 114 H 9.3697 1.50806 -0.331204 0
M  V30 115 H 11.3277 3.585 1.9997 0
M  V30 116 H 9.9887 2.41686 2.00616 0
M  V30 117 H 9.1817 4.76836 1.63227 0
M  V30 118 H 8.7837 3.73215 0.242217 0
M  V30 119 H 11.0757 6.56804 1.66178 0
M  V30 120 H 12.0187 7.07742 0.225204 0
M  V30 121 H 12.4267 5.54574 1.05396 0
M  V30 122 N 11.8248 0.280983 1.55075 0
M  V30 123 C 12.7568 -0.637268 2.20163 0
M  V30 124 C 13.7698 -1.11298 1.18813 0
M  V30 125 O 14.9588 -1.03388 1.4551 0
M  V30 126 C 12.0588 -1.88199 2.81841 0
M  V30 127 C 11.2318 -1.55211 4.08936 0
M  V30 128 C 10.2908 -2.64991 4.54606 0
M  V30 129 O 9.3168 -2.30929 5.2025 0
M  V30 130 N 10.5188 -3.95161 4.25238 0
M  V30 131 H 13.2838 -0.0801694 2.99593 0
M  V30 132 H 10.8448 0.102329 1.61576 0
M  V30 133 H 12.8368 -2.60948 3.09335 0
M  V30 134 H 11.4068 -2.34799 2.06369 0
M  V30 135 H 10.6268 -0.658185 3.88666 0
M  V30 136 H 11.9148 -1.30681 4.91732 0
M  V30 137 H 11.3128 -4.25653 3.72607 0
M  V30 138 H 9.8698 -4.6427 4.5749 0
M  V30 139 N 13.3029 -1.57598 0.00835791 0
M  V30 140 C 14.2499 -2.08945 -0.980346 0
M  V30 141 C 15.2199 -0.986738 -1.33614 0
M  V30 142 O 16.4049 -1.25968 -1.43306 0
M  V30 143 C 13.5449 -2.60425 -2.26435 0
M  V30 144 C 12.6579 -3.84628 -1.96685 0
M  V30 145 C 11.7929 -4.24579 -3.19228 0
M  V30 146 C 10.8319 -5.41596 -2.85202 0
M  V30 147 N 9.9689 -5.768 -4.00307 0
M  V30 148 H 14.8089 -2.93148 -0.535551 0
M  V30 149 H 12.3459 -1.44912 -0.252776 0
M  V30 150 H 14.3039 -2.88354 -3.01509 0
M  V30 151 H 12.9339 -1.79083 -2.68568 0
M  V30 152 H 11.9859 -3.63556 -1.11942 0
M  V30 153 H 13.2979 -4.69796 -1.67611 0
M  V30 154 H 12.4519 -4.53834 -4.02641 0
M  V30 155 H 11.1909 -3.38137 -3.51447 0
M  V30 156 H 10.1959 -5.12056 -2.00198 0
M  V30 157 H 11.4209 -6.29721 -2.54222 0
M  V30 158 H 9.3669 -4.93316 -4.32407 0
M  V30 159 H 9.2839 -6.5656 -3.74786 0
M  V30 160 H 10.5519 -6.10652 -4.84484 0
M  V30 161 N 14.781 0.264519 -1.55364 0
M  V30 162 C 16.058 1.01677 -1.67096 0
M  V30 163 C 16.438 2.03996 -0.543015 0
M  V30 164 O 15.786 2.23907 0.45585 0
M  V30 165 C 15.996 1.66596 -3.0667 0
M  V30 166 C 17.344 2.17442 -3.64697 0
M  V30 167 O 18.368 1.76568 -3.09358 0
M  V30 168 O 17.227 2.92439 -4.61673 0
M  V30 169 H 14.321 0.472161 -0.678965 0
M  V30 170 H 16.867 0.259703 -1.67701 0
M  V30 171 H 15.639 0.924962 -3.80211 0
M  V30 172 H 15.262 2.48968 -3.10001 0
M  V30 173 N 16.2591 1.48442 0.529413 0
M  V30 174 C 17.1911 1.59095 1.64989 0
M  V30 175 C 18.2041 0.475212 1.5571 0
M  V30 176 O 19.3931 0.746081 1.6216 0
M  V30 177 C 16.4931 1.50518 3.0364 0
M  V30 178 C 15.6661 2.77142 3.38395 0
M  V30 179 C 14.7251 2.62012 4.56329 0
M  V30 180 O 13.7511 3.35898 4.59522 0
M  V30 181 N 14.9531 1.71667 5.54536 0
M  V30 182 H 17.7181 2.55723 1.56287 0
M  V30 183 H 15.2791 1.45173 0.716697 0
M  V30 184 H 17.2711 1.38091 3.80412 0
M  V30 185 H 15.8411 0.618627 3.06418 0
M  V30 186 H 15.0611 3.0413 2.50796 0
M  V30 187 H 16.3491 3.61146 3.58401 0
M  V30 188 H 15.7471 1.10841 5.54735 0
M  V30 189 H 14.3041 1.65178 6.30523 0
M  V30 190 N 17.7372 -0.778329 1.37039 0
M  V30 191 C 18.9622 -1.57248 1.35233 0
M  V30 192 C 19.3872 -1.87999 -0.0615568 0
M  V30 193 O 18.7452 -1.48734 -1.03672 0
M  V30 194 C 18.7932 -2.86353 2.19167 0
M  V30 195 O 17.8972 -3.80442 1.59178 0
M  V30 196 H 17.2382 -0.476569 0.462362 0
M  V30 197 H 19.7682 -0.963853 1.80474 0
M  V30 198 H 19.7782 -3.35519 2.32145 0
M  V30 199 H 18.4532 -2.63299 3.21942 0
M  V30 200 H 17.0302 -3.39067 1.55203 0
M  V30 201 N 19.2153 -1.21501 -1.00376 0
M  V30 202 C 20.4643 -1.02718 -1.73586 0
M  V30 203 C 20.7773 0.439589 -1.90596 0
M  V30 204 O 21.9833 0.746848 -2.61026 0
M  V30 205 C 20.4393 -1.78929 -3.1227 0
M  V30 206 C 20.0473 -3.29783 -3.03228 0
M  V30 207 C 21.7913 -1.68557 -3.89601 0
M  V30 208 C 19.6983 -3.98479 -4.36999 0
M  V30 209 H 18.6283 -0.380733 -0.650814 0
M  V30 210 H 21.2793 -1.45248 -1.1214 0
M  V30 211 H 19.6613 -1.29192 -3.74333 0
M  V30 212 H 20.8353 -3.86832 -2.50395 0
M  V30 213 H 19.1503 -3.40711 -2.39385 0
M  V30 214 H 21.7473 -2.17211 -4.88593 0
M  V30 215 H 22.0903 -0.644021 -4.11288 0
M  V30 216 H 22.6233 -2.15778 -3.34193 0
M  V30 217 H 19.3623 -5.02841 -4.20513 0
M  V30 218 H 18.8823 -3.46219 -4.89788 0
M  V30 219 H 20.5613 -4.03462 -5.05794 0
M  V30 220 N 20.6934 1.19889 -1.02296 0
M  V30 221 C 21.6434 2.20777 -0.56934 0
M  V30 222 C 22.6274 1.56379 0.378741 0
M  V30 223 O 23.8194 1.75859 0.200673 0
M  V30 224 C 20.9484 3.43196 0.0845077 0
M  V30 225 C 20.0344 4.14749 -0.88566 0
M  V30 226 N 20.4254 4.62584 -2.04573 0
M  V30 227 C 18.7234 4.40347 -0.707835 0
M  V30 228 C 19.4244 5.17466 -2.65714 0
M  V30 229 N 18.4004 5.0791 -1.93723 0
M  V30 230 H 22.2024 2.55434 -1.45365 0
M  V30 231 H 19.7164 1.35897 -0.88915 0
M  V30 232 H 21.7134 4.14707 0.427067 0
M  V30 233 H 20.3734 3.10042 0.964574 0
M  V30 234 H 21.3844 4.57597 -2.4254 0
M  V30 235 H 18.0614 4.17317 0.12364 0
M  V30 236 H 19.4514 5.64808 -3.63925 0
M  V30 237 N 22.1715 0.800033 1.35784 0
M  V30 238 C 23.4205 0.37387 1.98205 0
M  V30 239 C 23.7335 -1.06302 1.64193 0
M  V30 240 O 24.9395 -1.59198 2.19928 0
M  V30 241 C 23.3955 0.617532 3.54562 0
M  V30 242 C 23.0035 2.06654 3.9749 0
M  V30 243 C 24.7475 0.256401 4.23725 0
M  V30 244 C 22.6545 2.2563 5.46667 0
M  V30 245 H 21.5845 0.136055 0.741623 0
M  V30 246 H 24.2355 0.983166 1.54939 0
M  V30 247 H 22.6175 -0.0616248 3.95952 0
M  V30 248 H 23.7915 2.78296 3.67271 0
M  V30 249 H 22.1065 2.38691 3.41197 0
M  V30 250 H 24.7035 0.376318 5.33374 0
M  V30 251 H 25.0465 -0.796692 4.08606 0
M  V30 252 H 25.5795 0.889214 3.87734 0
M  V30 253 H 22.3185 3.2936 5.66747 0
M  V30 254 H 21.8385 1.58504 5.78478 0
M  V30 255 H 23.5175 2.06861 6.1304 0
M  V30 256 N 23.6496 -1.47581 0.552962 0
M  V30 257 C 24.5596 -2.33743 -0.200353 0
M  V30 258 C 25.5756 -1.47928 -0.916151 0
M  V30 259 O 26.7516 -1.80865 -0.885993 0
M  V30 260 C 23.8166 -3.24536 -1.21973 0
M  V30 261 C 22.8776 -4.26238 -0.511819 0
M  V30 262 C 22.1106 -5.12693 -1.48263 0
M  V30 263 O 22.3336 -5.01525 -2.71714 0
M  V30 264 O 21.2676 -5.93375 -1.00945 0
M  V30 265 H 25.0936 -2.9945 0.506304 0
M  V30 266 H 22.6786 -1.46071 0.313622 0
M  V30 267 H 24.5606 -3.80631 -1.80827 0
M  V30 268 H 23.2356 -2.61462 -1.90839 0
M  V30 269 H 22.1426 -3.73914 0.117799 0
M  V30 270 H 23.4756 -4.92014 0.135308 0
M  V30 271 N 25.1277 -0.289203 -1.54924 0
M  V30 272 C 26.0757 0.607966 -2.24514 0
M  V30 273 C 27.0697 1.14655 -1.24702 0
M  V30 274 O 28.2757 1.09856 -1.4259 0
M  V30 275 H 24.6507 0.21464 -0.720718 0
M  V30 276 H 26.6217 -0.00164182 -2.984 0
M  V30 277 C 25.3707 1.77406 -2.99036 0
M  V30 278 H 24.6937 1.36884 -3.75637 0
M  V30 279 H 26.1337 2.37814 -3.51028 0
M  V30 280 C 24.5927 2.67107 -2.05318 0
M  V30 281 O 25.1227 3.6787 -1.61353 0
M  V30 282 N 23.3287 2.34582 -1.71521 0
M  V30 283 H 22.8757 1.52688 -2.07471 0
M  V30 284 H 22.8337 2.94867 -1.0909 0
M  V30 285 N 26.6058 1.57591 -0.0167156 0
M  V30 286 C 27.5358 2.12496 0.967858 0
M  V30 287 C 28.5168 1.03807 1.34752 0
M  V30 288 O 29.7018 1.31577 1.42833 0
M  V30 289 C 26.8318 2.64194 2.25431 0
M  V30 290 C 25.7858 3.77559 2.01576 0
M  V30 291 C 25.1118 4.15636 3.36379 0
M  V30 292 C 26.4118 5.04151 1.36489 0
M  V30 293 H 28.1058 2.95013 0.510643 0
M  V30 294 H 25.6518 1.41915 0.244181 0
M  V30 295 H 27.6048 3.01236 2.94678 0
M  V30 296 H 26.3288 1.78821 2.73296 0
M  V30 297 H 24.9878 3.40937 1.34751 0
M  V30 298 H 24.6358 3.27263 3.81979 0
M  V30 299 H 24.3358 4.92022 3.21229 0
M  V30 300 H 25.8598 4.5525 4.06915 0
M  V30 301 H 27.2738 5.38857 1.95718 0
M  V30 302 H 25.6708 5.85453 1.31776 0
M  V30 303 H 26.7408 4.83733 0.336219 0
M  V30 304 N 28.0839 -0.256276 1.55502 0
M  V30 305 C 29.0309 -1.31714 1.89526 0
M  V30 306 C 30.0009 -1.4828 0.748479 0
M  V30 307 O 31.1859 -1.62416 1.00128 0
M  V30 308 C 28.3259 -2.66933 2.18725 0
M  V30 309 C 27.4389 -2.58452 3.4616 0
M  V30 310 C 26.5739 -3.85961 3.64976 0
M  V30 311 C 25.6129 -3.72059 4.86044 0
M  V30 312 N 24.7499 -4.9144 5.01429 0
M  V30 313 H 29.5899 -1.01998 2.80001 0
M  V30 314 H 27.1269 -0.492413 1.38613 0
M  V30 315 H 29.0849 -3.4563 2.33657 0
M  V30 316 H 27.7149 -2.94816 1.31466 0
M  V30 317 H 26.7669 -1.71374 3.3961 0
M  V30 318 H 28.0789 -2.44085 4.34999 0
M  V30 319 H 27.2329 -4.73101 3.79816 0
M  V30 320 H 25.9719 -4.03215 2.74353 0
M  V30 321 H 24.9769 -2.83302 4.7119 0
M  V30 322 H 26.2019 -3.56309 5.78118 0
M  V30 323 H 24.1479 -5.09072 4.13741 0
M  V30 324 H 24.0649 -4.79668 5.84341 0
M  V30 325 H 25.3329 -5.80104 5.20672 0
M  V30 326 N 29.562 -1.4872 -0.521534 0
M  V30 327 C 30.787 -1.61101 -1.30618 0
M  V30 328 C 31.212 -0.274611 -1.86085 0
M  V30 329 O 30.57 0.754937 -1.64834 0
M  V30 330 C 30.618 -2.66709 -2.4269 0
M  V30 331 O 29.722 -2.24456 -3.45967 0
M  V30 332 H 29.063 -0.539921 -0.386499 0
M  V30 333 H 31.593 -1.94767 -0.626645 0
M  V30 334 H 31.603 -2.88245 -2.88754 0
M  V30 335 H 30.278 -3.63727 -2.01682 0
M  V30 336 H 28.855 -2.13168 -3.05964 0
M  V30 337 N 31.0401 0.771051 -1.3745 0
M  V30 338 C 31.9501 1.91538 -1.35464 0
M  V30 339 C 32.9661 1.72134 -0.254123 0
M  V30 340 O 34.1421 1.95358 -0.489626 0
M  V30 341 C 31.2071 3.26671 -1.16134 0
M  V30 342 C 30.2681 3.58723 -2.35831 0
M  V30 343 C 29.5011 4.87409 -2.17413 0
M  V30 344 O 29.7241 5.58506 -1.15876 0
M  V30 345 O 28.6581 5.18539 -3.05615 0
M  V30 346 H 32.4841 1.96165 -2.31847 0
M  V30 347 H 30.0691 0.9139 -1.18187 0
M  V30 348 H 31.9511 4.07499 -1.07345 0
M  V30 349 H 30.6261 3.22894 -0.228251 0
M  V30 350 H 29.5331 2.78127 -2.50192 0
M  V30 351 H 30.8661 3.67243 -3.27709 0
M  V30 352 N 32.5182 1.22032 0.997298 0
M  V30 353 C 33.9342 0.979326 1.26021 0
M  V30 354 C 34.1342 -0.32972 1.98784 0
M  V30 355 O 33.1902 -1.05345 2.29475 0
M  V30 356 C 34.5032 2.17509 2.07631 0
M  V30 357 C 36.0512 2.21817 2.2083 0
M  V30 358 C 36.5262 3.40933 3.05825 0
M  V30 359 N 38.0172 3.41067 3.13412 0
M  V30 360 C 38.7522 4.29885 3.79455 0
M  V30 361 N 38.2482 5.28914 4.47462 0
M  V30 362 N 40.0412 4.17673 3.76173 0
M  V30 363 H 32.1922 2.06202 0.509352 0
M  V30 364 H 34.4552 0.90334 0.287541 0
M  V30 365 H 34.1612 3.12415 1.61524 0
M  V30 366 H 34.0352 2.17206 3.08385 0
M  V30 367 H 36.4222 1.27462 2.66153 0
M  V30 368 H 36.5032 2.2616 1.1952 0
M  V30 369 H 36.1472 4.35586 2.61203 0
M  V30 370 H 36.0772 3.33829 4.07266 0
M  V30 371 H 38.5682 2.69406 2.65007 0
M  V30 372 H 38.8812 5.92973 4.95583 0
M  V30 373 H 37.2262 5.32831 4.46224 0
M  V30 374 H 40.4172 3.39564 3.22202 0
M  V30 375 H 40.5902 4.87098 4.27363 0
M  V30 376 N 33.9963 -1.19345 1.0293 0
M  V30 377 C 35.2443 -1.88665 0.724574 0
M  V30 378 C 35.5653 -1.80036 -0.749144 0
M  V30 379 O 34.8353 -1.2111 -1.53978 0
M  V30 380 H 33.4153 -0.698406 0.265025 0
M  V30 381 H 36.0773 -1.44885 1.30362 0
M  V30 382 H 35.1733 -2.94987 1.01926 0
M  V30 383 N 35.4744 -0.807222 -1.35358 0
M  V30 384 C 36.4214 -0.216037 -2.29787 0
M  V30 385 C 37.3914 0.650278 -1.52842 0
M  V30 386 O 38.5764 0.595227 -1.81278 0
M  V30 387 C 35.7164 0.628893 -3.39321 0
M  V30 388 C 34.8294 -0.257927 -4.31229 0
M  V30 389 C 33.9644 0.595069 -5.27856 0
M  V30 390 C 33.0034 -0.292111 -6.11403 0
M  V30 391 N 32.1404 0.520895 -7.00165 0
M  V30 392 H 36.9804 -1.02671 -2.79755 0
M  V30 393 H 34.5174 -0.517839 -1.37684 0
M  V30 394 H 36.4754 1.13393 -4.01494 0
M  V30 395 H 35.1054 1.40482 -2.90628 0
M  V30 396 H 34.1574 -0.881076 -3.70056 0
M  V30 397 H 35.4694 -0.940759 -4.89848 0
M  V30 398 H 34.6234 1.16522 -5.95405 0
M  V30 399 H 33.3624 1.31146 -4.69736 0
M  V30 400 H 32.3674 -0.874525 -5.428 0
M  V30 401 H 33.5924 -1.00638 -6.71602 0
M  V30 402 H 31.5384 1.22125 -6.44532 0
M  V30 403 H 31.4554 -0.103877 -7.55929 0
M  V30 404 H 32.7234 1.0743 -7.72062 0
M  V30 405 N 36.9525 1.47285 -0.560781 0
M  V30 406 C 38.2015 2.01668 -0.035895 0
M  V30 407 C 38.5145 1.44021 1.32353 0
M  V30 408 O 39.7205 1.90088 1.93853 0
M  V30 409 C 38.1765 3.59897 -0.0136659 0
M  V30 410 C 37.7845 4.26536 -1.37006 0
M  V30 411 C 39.5285 4.22017 0.458425 0
M  V30 412 C 37.4355 5.76782 -1.30675 0
M  V30 413 H 36.3655 0.753938 -0.00964879 0
M  V30 414 H 39.0165 1.69243 -0.709166 0
M  V30 415 H 37.3985 3.89301 0.725325 0
M  V30 416 H 38.5725 4.0877 -2.12705 0
M  V30 417 H 36.8875 3.76419 -1.78038 0
M  V30 418 H 39.4845 5.32124 0.524247 0
M  V30 419 H 39.8275 3.89437 1.4712 0
M  V30 420 H 40.3605 3.97159 -0.225818 0
M  V30 421 H 37.0995 6.13988 -2.29564 0
M  V30 422 H 36.6195 5.96875 -0.591622 0
M  V30 423 H 38.2985 6.39063 -1.01033 0
M  V30 424 N 38.4306 0.297415 1.54768 0
M  V30 425 C 39.3606 -0.573494 2.26348 0
M  V30 426 C 40.3416 -1.14085 1.26169 0
M  V30 427 O 41.5266 -1.17086 1.54934 0
M  V30 428 C 38.6566 -1.74716 3.00153 0
M  V30 429 C 37.6106 -1.31032 4.07449 0
M  V30 430 C 36.9366 -2.56887 4.68949 0
M  V30 431 C 38.2366 -0.444183 5.20408 0
M  V30 432 H 39.9306 0.0235131 2.99391 0
M  V30 433 H 37.4766 0.0127488 1.43994 0
M  V30 434 H 39.4296 -2.3625 3.48947 0
M  V30 435 H 38.1536 -2.37035 2.24682 0
M  V30 436 H 36.8126 -0.718066 3.59499 0
M  V30 437 H 36.4606 -3.17512 3.90122 0
M  V30 438 H 36.1606 -2.2836 5.41411 0
M  V30 439 H 37.6846 -3.19229 5.20505 0
M  V30 440 H 39.0986 -0.9651 5.65118 0
M  V30 441 H 37.4956 -0.252846 5.99567 0
M  V30 442 H 38.5656 0.531609 4.81977 0
M  V30 443 N 39.9087 -1.5758 0.0250728 0
M  V30 444 C 41.1857 -1.82917 -0.692873 0
M  V30 445 C 41.5657 -0.908137 -1.90568 0
M  V30 446 O 40.9137 0.0372298 -2.2847 0
M  V30 447 C 41.1237 -3.32034 -1.07492 0
M  V30 448 C 42.4717 -3.98406 -1.46826 0
M  V30 449 O 43.4957 -3.36505 -1.16801 0
M  V30 450 O 42.3547 -5.07497 -2.02754 0
M  V30 451 H 39.4487 -0.754079 -0.33955 0
M  V30 452 H 41.9947 -1.69619 0.0524456 0
M  V30 453 H 40.7667 -3.90728 -0.211552 0
M  V30 454 H 40.3897 -3.50424 -1.87854 0
M  V30 455 N 41.3868 0.248026 -1.55636 0
M  V30 456 C 42.8028 0.596483 -1.48035 0
M  V30 457 C 43.0028 1.88386 -0.715039 0
M  V30 458 O 42.0588 2.51319 -0.243944 0
M  V30 459 C 43.3718 0.700258 -2.92433 0
M  V30 460 C 44.9198 0.792659 -3.02797 0
M  V30 461 C 45.3948 0.928005 -4.485 0
M  V30 462 N 46.8858 0.992903 -4.52433 0
M  V30 463 C 47.6208 1.11687 -5.62418 0
M  V30 464 N 47.1168 1.20645 -6.82214 0
M  V30 465 N 48.9098 1.14994 -5.50212 0
M  V30 466 H 41.0608 -0.597109 -2.03834 0
M  V30 467 H 43.3238 -0.205925 -0.925364 0
M  V30 468 H 43.0298 -0.175658 -3.51261 0
M  V30 469 H 42.9038 1.57255 -3.42857 0
M  V30 470 H 45.2908 1.65903 -2.4405 0
M  V30 471 H 45.3718 -0.104762 -2.55585 0
M  V30 472 H 45.0158 0.0661971 -5.07857 0
M  V30 473 H 44.9458 1.84045 -4.93391 0
M  V30 474 H 47.4368 0.935064 -3.66149 0
M  V30 475 H 47.7498 1.30008 -7.61786 0
M  V30 476 H 46.0948 1.17605 -6.84977 0
M  V30 477 H 49.2858 1.07643 -4.55555 0
M  V30 478 H 49.4588 1.24311 -6.35965 0
M  V30 479 N 42.8649 1.48995 0.513639 0
M  V30 480 C 43.8129 1.65199 1.63744 0
M  V30 481 C 44.8069 0.51809 1.61283 0
M  V30 482 O 46.0129 0.697335 1.65943 0
M  V30 483 H 42.3879 0.52069 0.542574 0
M  V30 484 H 44.3589 2.59552 1.47226 0
M  V30 485 C 43.1079 1.72409 3.01945 0
M  V30 486 H 42.4309 2.59029 3.04539 0
M  V30 487 H 43.8709 1.87785 3.80148 0
M  V30 488 C 42.3299 0.46618 3.33659 0
M  V30 489 O 42.8599 -0.413744 3.99564 0
M  V30 490 N 41.0659 0.332931 2.88687 0
M  V30 491 H 40.6129 1.04996 2.35231 0
M  V30 492 H 40.5709 -0.507665 3.10274 0
M  V30 493 N 44.343 -0.763751 1.37857 0
M  V30 494 C 45.291 -1.89864 1.34367 0
M  V30 495 C 46.285 -1.67816 0.231143 0
M  V30 496 O 47.491 -1.75508 0.399617 0
M  V30 497 H 43.866 -0.624501 0.41893 0
M  V30 498 H 45.837 -1.89925 2.30155 0
M  V30 499 C 44.586 -3.27227 1.1755 0
M  V30 500 H 43.909 -3.44773 2.02414 0
M  V30 501 H 45.349 -4.06911 1.1916 0
M  V30 502 C 43.808 -3.36692 -0.118311 0
M  V30 503 O 44.338 -3.86374 -1.09902 0
M  V30 504 N 42.544 -2.90092 -0.171717 0
M  V30 505 H 42.091 -2.49853 0.627012 0
M  V30 506 H 42.049 -2.96806 -1.03699 0
M  V30 507 N 45.8211 -1.22559 -0.990812 0
M  V30 508 C 47.0671 -1.05297 -1.73322 0
M  V30 509 C 47.4001 0.410655 -1.89808 0
M  V30 510 O 46.6751 1.30439 -1.44277 0
M  V30 511 C 46.9581 -1.76713 -3.13759 0
M  V30 512 C 46.8111 -3.30684 -3.04907 0
M  V30 513 C 48.1301 -1.52121 -4.12974 0
M  V30 514 H 45.2491 -0.38392 -0.629106 0
M  V30 515 H 47.8911 -1.50926 -1.15418 0
M  V30 516 H 46.0411 -1.37924 -3.63193 0
M  V30 517 H 47.7131 -3.7893 -2.63077 0
M  V30 518 H 45.9561 -3.60253 -2.41661 0
M  V30 519 H 46.6271 -3.75833 -4.04294 0
M  V30 520 H 49.1031 -1.85819 -3.72304 0
M  V30 521 H 47.9791 -2.04582 -5.0935 0
M  V30 522 H 48.2401 -0.454257 -4.3976 0
M  V30 523 N 47.2992 1.18797 -1.03562 0
M  V30 524 C 48.2092 2.25913 -0.632505 0
M  V30 525 C 49.2252 1.70668 0.338882 0
M  V30 526 O 50.4012 2.00453 0.195076 0
M  V30 527 C 47.4662 3.467 0.00350942 0
M  V30 528 C 46.5272 4.17098 -1.01624 0
M  V30 529 C 45.7602 5.32119 -0.410478 0
M  V30 530 O 45.9832 5.64976 0.784725 0
M  V30 531 O 44.9172 5.9107 -1.13667 0
M  V30 532 H 48.7432 2.62648 -1.52478 0
M  V30 533 H 46.3282 1.25781 -0.806195 0
M  V30 534 H 48.2102 4.19878 0.35781 0
M  V30 535 H 46.8852 3.11798 0.869686 0
M  V30 536 H 45.7922 3.4601 -1.42224 0
M  V30 537 H 47.1252 4.55987 -1.85301 0
M  V30 538 N 48.7773 0.814389 1.34928 0
M  V30 539 C 49.7073 0.244827 2.32213 0
M  V30 540 C 50.6883 -0.634024 1.57842 0
M  V30 541 O 51.8733 -0.562676 1.8587 0
M  V30 542 C 49.0033 -0.601106 3.42058 0
M  V30 543 C 47.9573 0.179896 4.27622 0
M  V30 544 C 47.2833 -0.788237 5.28858 0
M  V30 545 C 48.5833 1.38329 5.03649 0
M  V30 546 H 50.2773 1.05763 2.80097 0
M  V30 547 H 47.8233 0.510029 1.34665 0
M  V30 548 H 49.7763 -1.00968 4.09125 0
M  V30 549 H 48.5003 -1.44688 2.92802 0
M  V30 550 H 47.1593 0.569739 3.62146 0
M  V30 551 H 46.8073 -1.62973 4.75866 0
M  V30 552 H 46.5073 -0.269942 5.8698 0
M  V30 553 H 48.0313 -1.19485 5.98795 0
M  V30 554 H 49.4453 1.04918 5.63618 0
M  V30 555 H 47.8423 1.83662 5.71304 0
M  V30 556 H 48.9123 2.16592 4.33839 0
M  V30 557 N 50.2554 -1.46986 0.568584 0
M  V30 558 C 51.2184 -2.28624 -0.162366 0
M  V30 559 C 52.2184 -1.37596 -0.832103 0
M  V30 560 O 53.4084 -1.60115 -0.68622 0
M  V30 561 C 50.5404 -3.17596 -1.23878 0
M  V30 562 H 51.7334 -2.94722 0.554899 0
M  V30 563 H 49.2864 -1.52863 0.325976 0
M  V30 564 H 50.0214 -2.56214 -1.98808 0
M  V30 565 H 49.8064 -3.846 -0.763219 0
M  V30 566 H 51.2964 -3.79078 -1.75185 0
M  V30 567 N 51.7335 -0.305618 -1.54608 0
M  V30 568 C 52.6815 0.584119 -2.25146 0
M  V30 569 C 53.6755 1.13326 -1.25911 0
M  V30 570 O 54.8815 1.08337 -1.43747 0
M  V30 571 H 51.2565 0.206983 -0.722954 0
M  V30 572 H 53.2275 -0.033291 -2.98381 0
M  V30 573 C 51.9765 1.74225 -3.009 0
M  V30 574 H 51.2995 1.32892 -3.77067 0
M  V30 575 H 52.7395 2.34077 -3.53531 0
M  V30 576 C 51.1985 2.64914 -2.0814 0
M  V30 577 O 51.7285 3.66137 -1.65246 0
M  V30 578 N 49.9345 2.3275 -1.74 0
M  V30 579 H 49.4815 1.50479 -2.09078 0
M  V30 580 H 49.4395 2.93694 -1.12211 0
M  V30 581 N 53.2116 1.57565 -0.0334293 0
M  V30 582 C 54.4396 1.9628 0.654347 0
M  V30 583 C 54.8546 0.910138 1.65414 0
M  V30 584 O 54.2116 -0.107595 1.82183 0
M  V30 585 C 54.2626 3.35067 1.35693 0
M  V30 586 O 53.9836 4.36296 0.397191 0
M  V30 587 C 55.4846 3.88439 2.13613 0
M  V30 588 H 52.7046 0.646369 0.180132 0
M  V30 589 H 55.2486 2.04282 -0.0944721 0
M  V30 590 H 53.4036 3.2827 2.05712 0
M  V30 591 H 53.8176 5.1678 0.896597 0
M  V30 592 H 55.2916 4.8788 2.58219 0
M  V30 593 H 55.7686 3.22914 2.97696 0
M  V30 594 H 56.3746 3.98516 1.48543 0
M  V30 595 N 54.6897 -0.239769 1.55765 0
M  V30 596 C 55.9377 -0.964892 1.77579 0
M  V30 597 C 56.2587 -1.85582 0.598699 0
M  V30 598 O 55.5287 -1.92075 -0.385226 0
M  V30 599 H 54.1087 -0.359265 0.654933 0
M  V30 600 H 56.7707 -0.256001 1.93211 0
M  V30 601 H 55.8667 -1.58243 2.69009 0
M  V30 602 N 56.1678 -1.49265 -0.50573 0
M  V30 603 C 57.3958 -1.62215 -1.28429 0
M  V30 604 C 57.8108 -0.291697 -1.86533 0
M  V30 605 O 57.1678 0.722233 -1.67601 0
M  V30 606 C 57.2188 -2.68735 -2.41793 0
M  V30 607 O 56.9398 -3.96619 -1.86078 0
M  V30 608 C 58.4408 -2.92346 -3.3324 0
M  V30 609 H 55.6608 -0.546239 -0.389697 0
M  V30 610 H 58.2048 -1.95265 -0.607609 0
M  V30 611 H 56.3598 -2.38476 -3.053 0
M  V30 612 H 56.7738 -4.55256 -2.60465 0
M  V30 613 H 58.2478 -3.70623 -4.09075 0
M  V30 614 H 58.7248 -2.02081 -3.89948 0
M  V30 615 H 59.3308 -3.24003 -2.75503 0
M  V30 616 N 57.6459 0.756429 -1.3826 0
M  V30 617 C 58.6089 1.85176 -1.35065 0
M  V30 618 C 59.6089 1.58818 -0.251703 0
M  V30 619 O 60.7989 1.66615 -0.508433 0
M  V30 620 C 57.9309 3.22596 -1.10201 0
M  V30 621 H 59.1239 1.89417 -2.3251 0
M  V30 622 H 56.6769 0.95783 -1.23512 0
M  V30 623 H 57.4119 3.24025 -0.133504 0
M  V30 624 H 57.1969 3.43122 -1.89762 0
M  V30 625 H 58.6869 4.02673 -1.10654 0
M  V30 626 N 59.124 1.23083 0.984299 0
M  V30 627 C 60.354 1.08556 1.75781 0
M  V30 628 C 60.762 -0.366171 1.85623 0
M  V30 629 O 60.105 -1.26524 1.33182 0
M  V30 630 C 60.167 1.63208 3.20318 0
M  V30 631 C 59.831 3.11922 3.33997 0
M  V30 632 C 60.828 4.09259 3.2063 0
M  V30 633 C 58.513 3.51552 3.58771 0
M  V30 634 C 60.507 5.4421 3.31835 0
M  V30 635 C 58.194 4.86649 3.69616 0
M  V30 636 C 59.192 5.82787 3.56157 0
M  V30 637 O 58.88 7.15431 3.66626 0
M  V30 638 H 58.612 0.380713 0.5586 0
M  V30 639 H 61.166 1.63321 1.2456 0
M  V30 640 H 59.396 1.0286 3.72769 0
M  V30 641 H 61.085 1.44216 3.79416 0
M  V30 642 H 61.851 3.79984 3.01392 0
M  V30 643 H 57.73 2.77239 3.6832 0
M  V30 644 H 61.274 6.1923 3.21247 0
M  V30 645 H 57.171 5.15601 3.88363 0
M  V30 646 H 57.939 7.23127 3.83445 0
M  V30 647 N 60.6021 -1.18246 1.0419 0
M  V30 648 C 61.5121 -2.25574 0.644476 0
M  V30 649 C 62.5281 -1.70845 -0.329826 0
M  V30 650 O 63.7041 -2.00554 -0.184443 0
M  V30 651 C 60.7691 -3.46697 0.014877 0
M  V30 652 C 59.8301 -4.16554 1.03834 0
M  V30 653 C 59.0631 -5.31894 0.438692 0
M  V30 654 O 59.2861 -5.65385 -0.754752 0
M  V30 655 O 58.2201 -5.90459 1.168 0
M  V30 656 H 62.0461 -2.61836 1.53869 0
M  V30 657 H 59.6311 -1.25352 0.812854 0
M  V30 658 H 61.5131 -4.20062 -0.335538 0
M  V30 659 H 60.1881 -3.12255 -0.853138 0
M  V30 660 H 59.0951 -3.45251 1.44057 0
M  V30 661 H 60.4281 -4.54998 1.87716 0
M  V30 662 N 62.0802 -0.821533 -1.34494 0
M  V30 663 C 63.3292 -0.405355 -1.97585 0
M  V30 664 C 63.6422 1.03677 -1.65863 0
M  V30 665 O 64.8482 1.55679 -2.22433 0
M  V30 666 C 63.3042 -0.673861 -3.53535 0
M  V30 667 C 62.9122 -2.12951 -3.94152 0
M  V30 668 C 64.6562 -0.32378 -4.23263 0
M  V30 669 C 62.5632 -2.34298 -5.43009 0
M  V30 670 H 61.4932 -0.147836 -0.739365 0
M  V30 671 H 64.1442 -1.00769 -1.53355 0
M  V30 672 H 62.5262 -0.00137554 -3.96 0
M  V30 673 H 63.7002 -2.84104 -3.62797 0
M  V30 674 H 62.0152 -2.44089 -3.37356 0
M  V30 675 H 64.6122 -0.461126 -5.32708 0
M  V30 676 H 64.9552 0.731586 -4.09821 0
M  V30 677 H 65.4882 -0.950786 -3.8627 0
M  V30 678 H 62.2272 -3.38335 -5.61435 0
M  V30 679 H 61.7472 -1.67687 -5.75883 0
M  V30 680 H 63.4262 -2.16588 -6.09671 0
M  V30 681 N 63.5583 1.46682 -0.576371 0
M  V30 682 C 64.8063 2.02013 -0.0594163 0
M  V30 683 C 65.1273 1.45101 1.30271 0
M  V30 684 O 64.3973 0.633317 1.8538 0
M  V30 685 H 62.9773 0.746759 -0.0189745 0
M  V30 686 H 65.6393 1.79862 -0.750717 0
M  V30 687 H 64.7353 3.12097 0.014345 0
M  V30 688 N 65.0364 0.313813 1.54444 0
M  V30 689 C 66.2854 -0.292519 1.99568 0
M  V30 690 C 66.5984 -1.54011 1.20582 0
M  V30 691 O 67.8044 -2.22183 1.56035 0
M  V30 692 C 66.2604 -0.571752 3.55329 0
M  V30 693 C 65.8684 0.658229 4.43138 0
M  V30 694 C 67.6124 -1.13857 4.08946 0
M  V30 695 C 65.5194 0.351439 5.90355 0
M  V30 696 H 64.4494 -0.113079 0.745472 0
M  V30 697 H 67.1004 0.424518 1.78522 0
M  V30 698 H 65.4824 -1.34872 3.72325 0
M  V30 699 H 66.6564 1.43403 4.37918 0
M  V30 700 H 64.9714 1.14458 4.0036 0
M  V30 701 H 67.5684 -1.38257 5.16516 0
M  V30 702 H 67.9114 -2.08489 3.6033 0
M  V30 703 H 68.4444 -0.423015 3.95544 0
M  V30 704 H 65.1834 1.26667 6.43145 0
M  V30 705 H 64.7034 -0.386842 5.98551 0
M  V30 706 H 66.3824 -0.0423134 6.46986 0
M  V30 707 N 66.5145 -1.57545 0.0417849 0
M  V30 708 C 67.7605 -1.92601 -0.635021 0
M  V30 709 C 68.0935 -0.919627 -1.71045 0
M  V30 710 O 67.3685 0.0557892 -1.9442 0
M  V30 711 C 67.6515 -3.38085 -1.23979 0
M  V30 712 C 67.5045 -4.49467 -0.173057 0
M  V30 713 C 68.8235 -3.83776 -2.15416 0
M  V30 714 H 65.9425 -0.700397 -0.229374 0
M  V30 715 H 68.5845 -1.89728 0.101633 0
M  V30 716 H 66.7345 -3.40664 -1.86762 0
M  V30 717 H 68.4065 -4.59018 0.458312 0
M  V30 718 H 66.6495 -4.30909 0.499996 0
M  V30 719 H 67.3205 -5.48323 -0.636054 0
M  V30 720 H 69.7965 -3.83013 -1.62605 0
M  V30 721 H 68.6725 -4.8624 -2.54679 0
M  V30 722 H 68.9335 -3.19998 -3.05047 0
M  V30 723 N 67.9926 0.231505 -1.5589 0
M  V30 724 C 69.4036 0.799327 -1.68724 0
M  V30 725 C 69.7546 1.85398 -0.642022 0
M  V30 726 O 68.8796 2.1539 0.208784 0
M  V30 727 C 69.4746 1.45664 -3.05888 0
M  V30 728 C 68.0336 1.97197 -3.20609 0
M  V30 729 C 67.1806 0.828552 -2.64632 0
M  V30 730 H 70.1316 0.00702616 -1.58698 0
M  V30 731 H 70.1526 2.32517 -3.01191 0
M  V30 732 H 69.6646 0.688808 -3.81939 0
M  V30 733 H 67.7656 2.76813 -2.4941 0
M  V30 734 H 67.8786 2.15878 -4.27707 0
M  V30 735 H 66.2426 1.23321 -2.22854 0
M  V30 736 H 67.0256 0.0735544 -3.43221 0
M  V30 737 N 69.4707 1.49531 0.497807 0
M  V30 738 C 70.4177 1.66436 1.59899 0
M  V30 739 C 71.3877 0.505793 1.58212 0
M  V30 740 O 72.5727 0.733202 1.7615 0
M  V30 741 C 69.7127 1.7399 2.98029 0
M  V30 742 C 68.8257 3.01172 3.09708 0
M  V30 743 C 67.9607 2.99686 4.38591 0
M  V30 744 C 66.9997 4.21434 4.43914 0
M  V30 745 N 66.1367 4.1784 5.64229 0
M  V30 746 H 70.9767 2.60459 1.44793 0
M  V30 747 H 68.5137 1.29137 0.704423 0
M  V30 748 H 70.4717 1.76352 3.78095 0
M  V30 749 H 69.1017 0.834301 3.11832 0
M  V30 750 H 68.1537 3.08408 2.22685 0
M  V30 751 H 69.4657 3.91165 3.09502 0
M  V30 752 H 68.6197 3.00628 5.2698 0
M  V30 753 H 67.3587 2.07477 4.41367 0
M  V30 754 H 66.3637 4.20733 3.53926 0
M  V30 755 H 67.5887 5.14839 4.42851 0
M  V30 756 H 65.5347 3.28469 5.67841 0
M  V30 757 H 65.4517 5.01571 5.65652 0
M  V30 758 H 66.7197 4.22889 6.54817 0
M  V30 759 N 70.9488 -0.749086 1.3866 0
M  V30 760 C 71.8968 -1.88428 1.36373 0
M  V30 761 C 72.8908 -1.67561 0.248929 0
M  V30 762 O 74.0968 -1.75074 0.41821 0
M  V30 763 H 70.4718 -0.620023 0.42553 0
M  V30 764 H 72.4428 -1.87473 2.32156 0
M  V30 765 C 71.1918 -3.25961 1.21014 0
M  V30 766 H 70.5148 -3.42607 2.06059 0
M  V30 767 H 71.9548 -4.05625 1.23469 0
M  V30 768 C 70.4138 -3.36799 -0.0825941 0
M  V30 769 O 70.9438 -3.87517 -1.05797 0
M  V30 770 N 69.1498 -2.90258 -0.140939 0
M  V30 771 H 68.6968 -2.49174 0.653477 0
M  V30 772 H 68.6548 -2.97889 -1.00545 0
M  V30 773 N 72.4269 -1.23603 -0.977757 0
M  V30 774 C 73.6729 -1.07129 -1.72195 0
M  V30 775 C 74.0059 0.390501 -1.90233 0
M  V30 776 O 73.2809 1.28902 -1.45653 0
M  V30 777 C 73.5639 -1.80031 -3.11867 0
M  V30 778 C 73.4169 -3.33899 -3.01383 0
M  V30 779 C 74.7359 -1.56492 -4.11337 0
M  V30 780 H 71.8549 -0.390571 -0.624999 0
M  V30 781 H 74.4969 -1.52142 -1.13811 0
M  V30 782 H 72.6469 -1.41768 -3.6171 0
M  V30 783 H 74.3189 -3.81699 -2.59043 0
M  V30 784 H 72.5619 -3.62796 -2.37827 0
M  V30 785 H 73.2329 -3.801 -4.00285 0
M  V30 786 H 75.7089 -1.89757 -3.70313 0
M  V30 787 H 74.5849 -2.09973 -5.07151 0
M  V30 788 H 74.8459 -0.500874 -4.39254 0
M  V30 789 N 73.905 1.17692 -1.04816 0
M  V30 790 C 75.13 1.92327 -0.776207 0
M  V30 791 C 75.555 1.76082 0.661581 0
M  V30 792 O 74.913 1.076 1.45917 0
M  V30 793 C 74.961 3.41539 -1.15687 0
M  V30 794 O 74.065 4.11402 -0.286775 0
M  V30 795 H 73.406 0.599735 -0.284981 0
M  V30 796 H 75.936 1.49201 -1.4 0
M  V30 797 H 75.946 3.92269 -1.12202 0
M  V30 798 H 74.621 3.52684 -2.20425 0
M  V30 799 H 73.198 3.70939 -0.381903 0
M  V30 800 N 75.3831 0.828654 1.34056 0
M  V30 801 C 76.3301 0.252567 2.29414 0
M  V30 802 C 77.3001 -0.62588 1.53857 0
M  V30 803 O 78.4851 -0.566312 1.82202 0
M  V30 804 C 75.6251 -0.574831 3.40279 0
M  V30 805 C 74.7381 0.326499 4.30764 0
M  V30 806 C 73.8731 -0.511016 5.28736 0
M  V30 807 C 72.9121 0.389342 6.1086 0
M  V30 808 N 72.0491 -0.409439 7.00905 0
M  V30 809 H 76.8891 1.07108 2.78086 0
M  V30 810 H 74.4261 0.539677 1.36843 0
M  V30 811 H 76.3841 -1.06992 4.03248 0
M  V30 812 H 75.0141 -1.35841 2.92826 0
M  V30 813 H 74.0661 0.939837 3.68607 0
M  V30 814 H 75.3781 1.01857 4.88289 0
M  V30 815 H 74.5321 -1.07035 5.97184 0
M  V30 816 H 73.2711 -1.23657 4.71763 0
M  V30 817 H 72.2761 0.960769 5.4134 0
M  V30 818 H 73.5011 1.1131 6.69916 0
M  V30 819 H 71.4471 -1.11856 6.46393 0
M  V30 820 H 71.3641 0.224126 7.55668 0
M  V30 821 H 72.6321 -0.951336 7.73673 0
M  V30 822 N 76.8612 -1.46375 0.584142 0
M  V30 823 C 77.8082 -2.30323 -0.148286 0
M  V30 824 C 78.7782 -1.40703 -0.882713 0
M  V30 825 O 79.9632 -1.69651 -0.873099 0
M  V30 826 C 77.1032 -3.25196 -1.15507 0
M  V30 827 C 76.2162 -4.29915 -0.423943 0
M  V30 828 C 75.3512 -5.11914 -1.41838 0
M  V30 829 C 74.3902 -6.08381 -0.673736 0
M  V30 830 N 73.5272 -6.83242 -1.6163 0
M  V30 831 H 78.3672 -2.92427 0.573644 0
M  V30 832 H 75.9042 -1.44118 0.294703 0
M  V30 833 H 77.8622 -3.78646 -1.75166 0
M  V30 834 H 76.4922 -2.64898 -1.8447 0
M  V30 835 H 75.5442 -3.7931 0.287714 0
M  V30 836 H 76.8562 -4.98549 0.158128 0
M  V30 837 H 76.0102 -5.69648 -2.08773 0
M  V30 838 H 74.7492 -4.43243 -2.03438 0
M  V30 839 H 73.7542 -5.49799 0.00938483 0
M  V30 840 H 74.9792 -6.79071 -0.0631082 0
M  V30 841 H 72.9252 -6.1728 -2.22038 0
M  V30 842 H 72.8422 -7.48144 -1.08707 0
M  V30 843 H 74.1102 -7.45534 -2.27596 0
M  V30 844 N 78.3393 -0.321999 -1.54275 0
M  V30 845 C 79.6163 0.335232 -1.92706 0
M  V30 846 C 79.9963 1.70006 -1.25145 0
M  V30 847 O 79.3443 2.25067 -0.394596 0
M  V30 848 C 79.5543 0.429008 -3.46353 0
M  V30 849 C 80.9023 0.690029 -4.18956 0
M  V30 850 O 81.9263 0.511992 -3.52501 0
M  V30 851 O 80.7853 1.03338 -5.36641 0
M  V30 852 H 77.8793 0.191143 -0.804608 0
M  V30 853 H 80.4253 -0.3716 -1.65581 0
M  V30 854 H 79.1973 -0.529611 -3.87699 0
M  V30 855 H 78.8203 1.18348 -3.79578 0
M  V30 856 N 79.8174 1.5752 -0.0501392 0
M  V30 857 C 81.0474 1.96678 0.632573 0
M  V30 858 C 81.4554 0.926298 1.64974 0
M  V30 859 O 80.7984 -0.09802 1.83438 0
M  V30 860 C 80.8604 3.32068 1.37735 0
M  V30 861 C 80.5244 4.54076 0.516131 0
M  V30 862 C 81.5214 5.19445 -0.217357 0
M  V30 863 C 79.2064 5.00304 0.44736 0
M  V30 864 C 81.2004 6.29378 -1.00807 0
M  V30 865 C 78.8874 6.10114 -0.347038 0
M  V30 866 C 79.8854 6.74512 -1.07344 0
M  V30 867 O 79.5734 7.82211 -1.85477 0
M  V30 868 H 79.3054 0.652193 0.177821 0
M  V30 869 H 81.8594 2.05091 -0.112543 0
M  V30 870 H 80.0894 3.20206 2.16807 0
M  V30 871 H 81.7784 3.55981 1.95019 0
M  V30 872 H 82.5444 4.84689 -0.173688 0
M  V30 873 H 78.4234 4.49971 1.00235 0
M  V30 874 H 81.9674 6.79575 -1.57556 0
M  V30 875 H 77.8644 6.44307 -0.392349 0
M  V30 876 H 78.6324 7.98982 -1.77678 0
M  V30 877 N 81.2955 -0.223234 1.56011 0
M  V30 878 C 82.2425 -1.27664 1.92277 0
M  V30 879 C 83.2125 -1.46659 0.779763 0
M  V30 880 O 84.3975 -1.60256 1.03551 0
M  V30 881 C 81.5375 -2.62234 2.24338 0
M  V30 882 C 80.6505 -2.51051 3.51564 0
M  V30 883 C 79.7855 -3.78133 3.7308 0
M  V30 884 C 78.8245 -3.61665 4.93827 0
M  V30 885 N 77.9615 -4.80693 5.11741 0
M  V30 886 H 82.8015 -0.960358 2.82101 0
M  V30 887 H 80.3385 -0.462901 1.39627 0
M  V30 888 H 82.2965 -3.40596 2.40936 0
M  V30 889 H 80.9265 -2.91961 1.3769 0
M  V30 890 H 79.9785 -1.64132 3.43169 0
M  V30 891 H 81.2905 -2.34803 4.40079 0
M  V30 892 H 80.4445 -4.64938 3.89766 0
M  V30 893 H 79.1835 -3.97304 2.82844 0
M  V30 894 H 78.1885 -2.73244 4.77093 0
M  V30 895 H 79.4135 -3.43966 5.85546 0
M  V30 896 H 77.3595 -5.00181 4.24446 0
M  V30 897 H 77.2765 -4.67165 5.94384 0
M  V30 898 H 78.5445 -5.6893 5.3286 0
M  V30 899 N 82.7736 -1.49793 -0.48987 0
M  V30 900 C 83.7366 -1.66752 -1.57246 0
M  V30 901 C 84.7366 -0.538867 -1.51502 0
M  V30 902 O 85.9266 -0.805545 -1.54456 0
M  V30 903 C 83.0586 -1.67528 -2.96896 0
M  V30 904 H 84.2516 -2.63321 -1.43534 0
M  V30 905 H 81.8046 -1.38992 -0.714914 0
M  V30 906 H 82.5396 -0.725837 -3.16073 0
M  V30 907 H 82.3246 -2.49504 -3.02473 0
M  V30 908 H 83.8146 -1.82667 -3.7553 0
M  V30 909 N 84.2517 0.741722 -1.39055 0
M  V30 910 C 85.5007 1.49656 -1.35225 0
M  V30 911 C 85.8137 1.95533 0.0512708 0
M  V30 912 O 87.0197 2.7067 0.212138 0
M  V30 913 C 85.4757 2.70389 -2.37525 0
M  V30 914 C 85.0837 2.31489 -3.83558 0
M  V30 915 C 86.8277 3.48236 -2.42759 0
M  V30 916 C 84.7347 3.48903 -4.77515 0
M  V30 917 H 83.6647 0.56197 -0.502699 0
M  V30 918 H 86.3157 0.809727 -1.64668 0
M  V30 919 H 84.6977 3.41113 -2.01142 0
M  V30 920 H 85.8717 1.68354 -4.28945 0
M  V30 921 H 84.1867 1.66749 -3.81554 0
M  V30 922 H 86.7837 4.35558 -3.1015 0
M  V30 923 H 87.1267 3.90229 -1.45008 0
M  V30 924 H 87.6597 2.84535 -2.78002 0
M  V30 925 H 84.3987 3.11966 -5.76504 0
M  V30 926 H 83.9187 4.11041 -4.36813 0
M  V30 927 H 85.5977 4.15328 -4.96096 0
M  V30 928 N 85.7298 1.2412 0.971189 0
M  V30 929 C 86.6928 1.03156 2.04674 0
M  V30 930 C 87.6928 -0.00990322 1.60797 0
M  V30 931 O 88.8828 0.230729 1.72665 0
M  V30 932 C 86.0148 0.562765 3.36223 0
M  V30 933 H 87.2078 1.98614 2.24705 0
M  V30 934 H 84.7608 1.06293 1.14593 0
M  V30 935 H 85.4958 -0.395176 3.21883 0
M  V30 936 H 85.2808 1.31441 3.69413 0
M  V30 937 H 86.7708 0.437015 4.15307 0
M  V30 938 N 87.2079 -1.17134 1.05439 0
M  V30 939 C 88.1549 -2.21235 0.657539 0
M  V30 940 C 89.1249 -1.62551 -0.341543 0
M  V30 941 O 90.3099 -1.89379 -0.232393 0
M  V30 942 C 87.4499 -3.45076 0.0410575 0
M  V30 943 C 86.5629 -4.18042 1.08927 0
M  V30 944 C 85.6979 -5.29376 0.439848 0
M  V30 945 C 84.7369 -5.94132 1.4722 0
M  V30 946 N 83.8739 -6.96975 0.846756 0
M  V30 947 H 88.7139 -2.54534 1.54972 0
M  V30 948 H 86.2509 -1.25028 0.775006 0
M  V30 949 H 88.2089 -4.15862 -0.33383 0
M  V30 950 H 86.8389 -3.12353 -0.814568 0
M  V30 951 H 85.8909 -3.45945 1.58196 0
M  V30 952 H 87.2029 -4.62306 1.87282 0
M  V30 953 H 86.3569 -6.06699 0.0115125 0
M  V30 954 H 85.0959 -4.86251 -0.375656 0
M  V30 955 H 84.1009 -5.15538 1.91052 0
M  V30 956 H 85.3259 -6.39337 2.28965 0
M  V30 957 H 83.2719 -6.5598 0.0518075 0
M  V30 958 H 83.1889 -7.39565 1.5678 0
M  V30 959 H 84.4569 -7.78239 0.443277 0
M  V30 960 N 88.686 -0.835752 -1.33615 0
M  V30 961 C 89.596 -0.269088 -2.33052 0
M  V30 962 C 90.612 0.603251 -1.63208 0
M  V30 963 O 91.788 0.508112 -1.94885 0
M  V30 964 C 88.853 0.549091 -3.42324 0
M  V30 965 C 87.914 -0.347156 -4.27894 0
M  V30 966 C 87.147 0.43207 -5.31948 0
M  V30 967 O 87.37 1.66409 -5.45586 0
M  V30 968 O 86.304 -0.192298 -6.01593 0
M  V30 969 H 90.13 -1.09243 -2.83372 0
M  V30 970 H 87.715 -0.598198 -1.36901 0
M  V30 971 H 89.597 1.01414 -4.09015 0
M  V30 972 H 88.272 1.34955 -2.94226 0
M  V30 973 H 87.179 -0.859979 -3.64081 0
M  V30 974 H 88.512 -1.1123 -4.79467 0
M  V30 975 N 90.1641 1.46063 -0.591896 0
M  V30 976 C 91.0941 2.33172 0.123673 0
M  V30 977 C 92.0751 1.45897 0.87453 0
M  V30 978 O 93.2601 1.74698 0.848181 0
M  V30 979 C 90.3901 3.28336 1.13194 0
M  V30 980 C 89.3441 4.25124 0.495324 0
M  V30 981 C 88.6701 5.09863 1.61071 0
M  V30 982 C 89.9701 5.19143 -0.573425 0
M  V30 983 H 91.6641 2.93252 -0.603646 0
M  V30 984 H 89.2101 1.41014 -0.291741 0
M  V30 985 H 91.1631 3.88137 1.64097 0
M  V30 986 H 89.8871 2.66383 1.88965 0
M  V30 987 H 88.5461 3.66599 0.00729452 0
M  V30 988 H 88.1941 4.44288 2.35832 0
M  V30 989 H 87.8941 5.75417 1.19035 0
M  V30 990 H 89.4181 5.72529 2.12233 0
M  V30 991 H 90.8321 5.73106 -0.1491 0
M  V30 992 H 89.2291 5.93089 -0.914636 0
M  V30 993 H 90.2991 4.62519 -1.45617 0
M  V30 994 N 91.6422 0.330177 1.54103 0
M  V30 995 C 92.8672 -0.274893 2.0557 0
M  V30 996 C 93.2922 -1.44487 1.20437 0
M  V30 997 O 92.6502 -1.80021 0.214991 0
M  V30 998 C 92.6982 -0.68079 3.54115 0
M  V30 999 O 91.8022 -1.7824 3.71893 0
M  V30 1000 H 91.1432 -0.0483849 0.662235 0
M  V30 1001 H 93.6732 0.480508 1.98878 0
M  V30 1002 H 93.6832 -0.961635 3.96505 0
M  V30 1003 H 92.3582 0.174903 4.15532 0
M  V30 1004 H 90.9352 -1.49985 3.41407 0
M  V30 1005 N 93.1203 -1.57491 0.0584922 0
M  V30 1006 C 94.3693 -1.92155 -0.613146 0
M  V30 1007 C 94.6823 -0.939334 -1.71569 0
M  V30 1008 O 95.8883 -1.17829 -2.44599 0
M  V30 1009 C 94.3443 -3.41303 -1.14195 0
M  V30 1010 C 93.9523 -4.47944 -0.0711265 0
M  V30 1011 C 95.6963 -3.84988 -1.78841 0
M  V30 1012 C 93.6033 -5.88212 -0.613225 0
M  V30 1013 H 92.5333 -0.717162 -0.232796 0
M  V30 1014 H 95.1843 -1.83049 0.12857 0
M  V30 1015 H 93.5663 -3.45437 -1.93621 0
M  V30 1016 H 94.7403 -4.55408 0.702836 0
M  V30 1017 H 93.0553 -4.13644 0.478313 0
M  V30 1018 H 95.6523 -4.87159 -2.20408 0
M  V30 1019 H 95.9953 -3.21632 -2.64308 0
M  V30 1020 H 96.5283 -3.83401 -1.06059 0
M  V30 1021 H 93.2673 -6.55183 0.203978 0
M  V30 1022 H 92.7873 -5.84294 -1.35501 0
M  V30 1023 H 94.4663 -6.37687 -1.09383 0
M  V30 1024 N 94.5984 0.214957 -1.56127 0
M  V30 1025 C 95.8234 0.95924 -1.83884 0
M  V30 1026 C 96.2484 1.7689 -0.639644 0
M  V30 1027 O 95.6064 1.76566 0.411601 0
M  V30 1028 C 95.6544 1.84723 -3.09693 0
M  V30 1029 O 94.7584 2.94346 -2.8885 0
M  V30 1030 H 94.0994 0.27125 -0.606069 0
M  V30 1031 H 96.6294 0.226276 -2.03345 0
M  V30 1032 H 96.6394 2.25576 -3.39969 0
M  V30 1033 H 95.3144 1.25218 -3.96602 0
M  V30 1034 H 93.8914 2.57391 -2.69823 0
M  V30 1035 N 96.0765 1.50051 0.48192 0
M  V30 1036 C 96.9865 1.7089 1.60728 0
M  V30 1037 C 98.0025 0.591788 1.63627 0
M  V30 1038 O 99.1785 0.868817 1.81696 0
M  V30 1039 C 96.2435 1.78855 2.97005 0
M  V30 1040 C 95.3045 3.02537 3.04581 0
M  V30 1041 C 94.5375 3.10112 4.34357 0
M  V30 1042 O 94.7605 2.24765 5.24249 0
M  V30 1043 O 93.6945 4.02747 4.47301 0
M  V30 1044 H 97.5205 2.66264 1.46072 0
M  V30 1045 H 95.1055 1.34018 0.660264 0
M  V30 1046 H 96.9875 1.86336 3.77964 0
M  V30 1047 H 95.6625 0.866628 3.11883 0
M  V30 1048 H 94.5695 3.00563 2.22739 0
M  V30 1049 H 95.9025 3.94272 2.94636 0
M  V30 1050 N 97.5546 -0.734337 1.39446 0
M  V30 1051 C 98.8316 -1.48579 1.27215 0
M  V30 1052 C 99.2116 -2.1077 -0.117968 0
M  V30 1053 O 98.5596 -1.98646 -1.12924 0
M  V30 1054 C 98.7696 -2.53667 2.39696 0
M  V30 1055 C 100.118 -3.20031 2.79044 0
M  V30 1056 O 101.142 -2.6398 2.39151 0
M  V30 1057 O 100.001 -4.21455 3.47905 0
M  V30 1058 H 97.0946 -0.659816 0.49857 0
M  V30 1059 H 99.6406 -0.768106 1.51322 0
M  V30 1060 H 98.4126 -2.06096 3.32626 0
M  V30 1061 H 98.0356 -3.32994 2.17258 0
M  V30 1062 N 99.0327 -1.24633 -0.964593 0
M  V30 1063 C 100.263 -1.11339 -1.74032 0
M  V30 1064 C 100.671 0.336593 -1.86182 0
M  V30 1065 O 100.014 1.24389 -1.35178 0
M  V30 1066 C 100.076 -1.68284 -3.1768 0
M  V30 1067 C 99.7397 -3.17196 -3.28992 0
M  V30 1068 C 100.737 -4.14308 -3.14078 0
M  V30 1069 C 98.4217 -3.57215 -3.53133 0
M  V30 1070 C 100.416 -5.4942 -3.23135 0
M  V30 1071 C 98.1027 -4.92468 -3.61827 0
M  V30 1072 C 99.1007 -5.8838 -3.46841 0
M  V30 1073 O 98.7887 -7.21173 -3.55197 0
M  V30 1074 H 98.5207 -0.389551 -0.552472 0
M  V30 1075 H 101.075 -1.65282 -1.21946 0
M  V30 1076 H 99.3047 -1.08777 -3.71085 0
M  V30 1077 H 100.994 -1.50234 -3.77074 0
M  V30 1078 H 101.76 -3.84731 -2.95308 0
M  V30 1079 H 97.6387 -2.83063 -3.63863 0
M  V30 1080 H 101.183 -6.24263 -3.11355 0
M  V30 1081 H 97.0797 -5.21714 -3.80111 0
M  V30 1082 H 97.8477 -7.29135 -3.71892 0
M  V30 1083 N 100.511 1.16574 -1.06058 0
M  V30 1084 C 101.76 1.86385 -0.770944 0
M  V30 1085 C 102.073 1.82448 0.705129 0
M  V30 1086 O 103.279 2.47815 1.10905 0
M  V30 1087 C 101.735 3.34466 -1.32893 0
M  V30 1088 C 101.343 3.46883 -2.83507 0
M  V30 1089 C 103.087 4.09548 -1.11672 0
M  V30 1090 C 100.994 4.89036 -3.32562 0
M  V30 1091 H 99.9238 0.698181 -0.284709 0
M  V30 1092 H 102.575 1.31583 -1.27899 0
M  V30 1093 H 100.957 3.88859 -0.748662 0
M  V30 1094 H 102.131 3.02663 -3.47465 0
M  V30 1095 H 100.446 2.85232 -3.03368 0
M  V30 1096 H 103.043 5.14434 -1.45814 0
M  V30 1097 H 103.386 4.16264 -0.0549535 0
M  V30 1098 H 103.919 3.61387 -1.66265 0
M  V30 1099 H 100.658 4.87499 -4.38207 0
M  V30 1100 H 100.178 5.3389 -2.73351 0
M  V30 1101 H 101.857 5.57843 -3.2775 0
M  V30 1102 N 101.989 0.842826 1.3317 0
M  V30 1103 C 102.936 0.276885 2.29133 0
M  V30 1104 C 103.906 -0.609527 1.54512 0
M  V30 1105 O 105.091 -0.546955 1.82792 0
M  V30 1106 C 102.231 -0.538707 3.40869 0
M  V30 1107 C 101.344 0.372169 4.30394 0
M  V30 1108 C 100.479 -0.454908 5.29249 0
M  V30 1109 C 99.5179 0.45411 6.10413 0
M  V30 1110 N 98.6549 -0.335075 7.013 0
M  V30 1111 H 103.495 1.10052 2.76934 0
M  V30 1112 H 101.032 0.554161 1.36262 0
M  V30 1113 H 102.99 -1.02709 4.0436 0
M  V30 1114 H 101.62 -1.32727 2.9425 0
M  V30 1115 H 100.672 0.97888 3.6759 0
M  V30 1116 H 101.984 1.0703 4.87182 0
M  V30 1117 H 101.138 -1.00695 5.98285 0
M  V30 1118 H 99.8769 -1.18646 4.73048 0
M  V30 1119 H 98.8819 1.01813 5.40291 0
M  V30 1120 H 100.107 1.18409 6.68697 0
M  V30 1121 H 98.0529 -1.04994 6.47543 0
M  V30 1122 H 97.9699 0.304262 7.55387 0
M  V30 1123 H 99.2379 -0.869224 7.74638 0
M  V30 1124 N 103.467 -1.45747 0.599634 0
M  V30 1125 C 104.399 -2.28628 -0.161879 0
M  V30 1126 C 105.412 -1.39494 -0.839367 0
M  V30 1127 O 106.601 -1.63941 -0.706089 0
M  V30 1128 C 103.701 -3.15014 -1.24976 0
M  V30 1129 C 102.874 -4.32378 -0.660935 0
M  V30 1130 C 101.933 -5.00033 -1.63869 0
M  V30 1131 O 100.959 -5.57085 -1.1681 0
M  V30 1132 N 102.161 -4.98589 -2.97303 0
M  V30 1133 H 104.926 -2.94624 0.549265 0
M  V30 1134 H 102.487 -1.55847 0.438565 0
M  V30 1135 H 104.479 -3.5714 -1.9035 0
M  V30 1136 H 103.049 -2.5098 -1.86354 0
M  V30 1137 H 102.269 -3.9383 0.170688 0
M  V30 1138 H 103.557 -5.08197 -0.247619 0
M  V30 1139 H 102.955 -4.53514 -3.38145 0
M  V30 1140 H 101.512 -5.44603 -3.58121 0
M  V30 1141 N 104.945 -0.338344 -1.53925 0
M  V30 1142 C 105.877 0.555117 -2.22376 0
M  V30 1143 C 106.89 1.06812 -1.22862 0
M  V30 1144 O 108.079 0.979163 -1.49247 0
M  V30 1145 C 105.179 1.77609 -2.88631 0
M  V30 1146 C 104.352 1.39927 -4.14414 0
M  V30 1147 C 103.411 2.47936 -4.64127 0
M  V30 1148 O 102.437 2.11461 -5.28463 0
M  V30 1149 N 103.639 3.79107 -4.39612 0
M  V30 1150 H 106.404 -0.0310778 -2.99684 0
M  V30 1151 H 103.965 -0.162226 -1.61085 0
M  V30 1152 H 105.957 2.49287 -3.18807 0
M  V30 1153 H 104.527 2.26978 -2.14941 0
M  V30 1154 H 103.747 0.513481 -3.90841 0
M  V30 1155 H 105.035 1.12341 -4.96243 0
M  V30 1156 H 104.433 4.11531 -3.88148 0
M  V30 1157 H 102.99 4.4697 -4.74406 0
M  V30 1158 N 106.423 1.57458 -0.0668435 0
M  V30 1159 C 107.356 2.08033 0.93795 0
M  V30 1160 C 108.334 0.984321 1.29421 0
M  V30 1161 O 109.518 1.25736 1.40437 0
M  V30 1162 C 106.645 2.53388 2.24749 0
M  V30 1163 C 105.691 3.74376 2.04315 0
M  V30 1164 S 106.524 5.19303 1.30706 0
M  V30 1165 C 107.68 5.67986 2.62951 0
M  V30 1166 H 107.913 2.92935 0.50759 0
M  V30 1167 H 105.446 1.5371 0.145804 0
M  V30 1168 H 107.404 2.8018 3.00016 0
M  V30 1169 H 106.065 1.68763 2.64911 0
M  V30 1170 H 105.258 4.04083 3.01218 0
M  V30 1171 H 104.86 3.47931 1.37186 0
M  V30 1172 H 107.152 5.74528 3.5906 0
M  V30 1173 H 108.095 6.66955 2.3786 0
M  V30 1174 H 108.503 4.95781 2.69929 0
M  V30 1175 N 107.901 -0.206675 1.56239 0
M  V30 1176 C 109.178 -0.954051 1.70755 0
M  V30 1177 C 109.558 -2.01841 0.618353 0
M  V30 1178 O 108.906 -2.25444 -0.372434 0
M  V30 1179 C 109.116 -1.551 3.12642 0
M  V30 1180 C 110.464 -2.03757 3.72516 0
M  V30 1181 O 111.488 -1.64965 3.15698 0
M  V30 1182 O 110.347 -2.75103 4.72208 0
M  V30 1183 H 107.441 -0.446636 0.696021 0
M  V30 1184 H 109.987 -0.197283 1.68549 0
M  V30 1185 H 108.759 -0.783212 3.83382 0
M  V30 1186 H 108.382 -2.37291 3.19028 0
M  V30 1187 N 109.379 -1.50304 -0.473955 0
M  V30 1188 C 110.311 -1.65109 -1.58971 0
M  V30 1189 C 111.324 -0.532676 -1.53839 0
M  V30 1190 O 112.513 -0.805751 -1.59279 0
M  V30 1191 C 109.613 -1.61684 -2.97845 0
M  V30 1192 C 108.786 -2.8951 -3.27876 0
M  V30 1193 C 107.845 -2.78768 -4.4629 0
M  V30 1194 O 106.871 -3.52722 -4.46739 0
M  V30 1195 N 108.073 -1.9213 -5.47783 0
M  V30 1196 H 110.838 -2.61347 -1.46689 0
M  V30 1197 H 108.399 -1.47732 -0.662324 0
M  V30 1198 H 110.391 -1.52114 -3.75024 0
M  V30 1199 H 108.961 -0.731925 -3.03911 0
M  V30 1200 H 108.181 -3.13228 -2.39336 0
M  V30 1201 H 109.469 -3.74199 -3.4475 0
M  V30 1202 H 108.867 -1.31353 -5.50239 0
M  V30 1203 H 107.424 -1.88466 -6.23958 0
M  V30 1204 N 110.857 0.726932 -1.39834 0
M  V30 1205 C 111.805 1.86235 -1.39353 0
M  V30 1206 C 112.799 1.67144 -0.275555 0
M  V30 1207 O 114.005 1.74387 -0.44601 0
M  V30 1208 H 110.38 0.613174 -0.43534 0
M  V30 1209 H 112.351 1.83756 -2.35109 0
M  V30 1210 C 111.1 3.23995 -1.26185 0
M  V30 1211 H 110.423 3.39285 -2.11484 0
M  V30 1212 H 111.863 4.03609 -1.29907 0
M  V30 1213 C 110.322 3.36888 0.0290018 0
M  V30 1214 O 110.852 3.89152 0.99619 0
M  V30 1215 N 109.058 2.90446 0.0947437 0
M  V30 1216 H 108.605 2.48102 -0.693035 0
M  V30 1217 H 108.563 2.99451 0.957932 0
M  V30 1218 N 112.336 1.25143 0.95797 0
M  V30 1219 C 113.582 1.10863 1.70531 0
M  V30 1220 C 113.937 -0.347391 1.89238 0
M  V30 1221 O 113.23 -1.25262 1.44983 0
M  V30 1222 C 113.424 1.79272 3.09187 0
M  V30 1223 C 113.253 3.31376 3.04006 0
M  V30 1224 C 112.023 4.0062 3.07948 0
M  V30 1225 C 114.221 4.27825 2.8543 0
M  V30 1226 N 112.203 5.39526 2.9289 0
M  V30 1227 C 113.574 5.53794 2.78769 0
M  V30 1228 C 115.629 4.1828 2.70085 0
M  V30 1229 C 114.332 6.7131 2.58331 0
M  V30 1230 C 116.358 5.35485 2.51017 0
M  V30 1231 C 115.72 6.60393 2.45073 0
M  V30 1232 H 111.819 0.460362 0.632132 0
M  V30 1233 H 114.403 1.58196 1.13499 0
M  V30 1234 H 112.574 1.34439 3.64391 0
M  V30 1235 H 114.306 1.57764 3.72683 0
M  V30 1236 H 111.061 3.51855 3.17009 0
M  V30 1237 H 111.485 6.12416 2.88574 0
M  V30 1238 H 116.127 3.22461 2.73457 0
M  V30 1239 H 113.845 7.67243 2.53701 0
M  V30 1240 H 117.431 5.29959 2.40073 0
M  V30 1241 H 116.311 7.49557 2.30509 0
M  V30 1242 N 113.814 -1.1601 1.06675 0
M  V30 1243 C 115.06 -1.86909 0.786945 0
M  V30 1244 C 115.393 -1.81717 -0.685018 0
M  V30 1245 O 114.668 -1.23551 -1.50218 0
M  V30 1246 C 114.951 -3.36313 1.28707 0
M  V30 1247 C 114.804 -3.50175 2.82308 0
M  V30 1248 C 116.123 -4.3084 0.898071 0
M  V30 1249 H 113.242 -0.678677 0.287343 0
M  V30 1250 H 115.884 -1.36336 1.32334 0
M  V30 1251 H 114.034 -3.79513 0.830768 0
M  V30 1252 H 115.706 -3.15886 3.36175 0
M  V30 1253 H 113.949 -2.91959 3.20847 0
M  V30 1254 H 114.62 -4.55116 3.12368 0
M  V30 1255 H 117.096 -3.95561 1.29114 0
M  V30 1256 H 115.972 -5.33876 1.27543 0
M  V30 1257 H 116.233 -4.41662 -0.196651 0
M  V30 1258 N 115.292 -0.849877 -1.32721 0
M  V30 1259 C 116.224 -0.248332 -2.27851 0
M  V30 1260 C 117.237 0.577218 -1.52224 0
M  V30 1261 O 118.426 0.402489 -1.73903 0
M  V30 1262 C 115.526 0.668107 -3.32249 0
M  V30 1263 C 114.699 -0.120534 -4.37234 0
M  V30 1264 C 113.758 0.720932 -5.21238 0
M  V30 1265 O 112.784 0.156166 -5.68986 0
M  V30 1266 N 113.986 2.03647 -5.43607 0
M  V30 1267 H 116.751 -1.06575 -2.80111 0
M  V30 1268 H 114.312 -0.709395 -1.45531 0
M  V30 1269 H 116.304 1.23627 -3.85355 0
M  V30 1270 H 114.874 1.38621 -2.80184 0
M  V30 1271 H 114.094 -0.870108 -3.84477 0
M  V30 1272 H 115.382 -0.662406 -5.0447 0
M  V30 1273 H 114.78 2.51871 -5.06535 0
M  V30 1274 H 113.337 2.55287 -5.99727 0
M  V30 1275 N 116.77 1.45427 -0.607355 0
M  V30 1276 C 118.047 1.9557 -0.0344566 0
M  V30 1277 C 118.427 1.54979 1.43334 0
M  V30 1278 O 117.775 0.812241 2.13576 0
M  V30 1279 C 117.985 3.48226 -0.232321 0
M  V30 1280 C 119.333 4.2445 -0.113001 0
M  V30 1281 O 120.357 3.55829 -0.162431 0
M  V30 1282 O 119.216 5.465 0.00209442 0
M  V30 1283 H 116.31 0.826222 0.0358667 0
M  V30 1284 H 118.856 1.55594 -0.6774 0
M  V30 1285 H 117.628 3.70739 -1.25174 0
M  V30 1286 H 117.251 3.95092 0.445896 0
M  V30 1287 N 118.248 0.346503 1.53744 0
M  V30 1288 C 119.525 -0.304532 1.93215 0
M  V30 1289 C 119.905 -1.67993 1.27834 0
M  V30 1290 O 119.253 -2.24411 0.430352 0
M  V30 1291 C 119.463 -0.373852 3.46992 0
M  V30 1292 C 120.811 -0.62329 4.2 0
M  V30 1293 O 121.835 -0.455847 3.53271 0
M  V30 1294 O 120.694 -0.947879 5.38217 0
M  V30 1295 H 117.788 -0.178318 0.807547 0
M  V30 1296 H 120.334 0.397895 1.64969 0
M  V30 1297 H 119.106 0.591224 3.86808 0
M  V30 1298 H 118.729 -1.12294 3.81413 0
M  V30 1299 N 119.726 -1.57421 0.075193 0
M  V30 1300 C 120.954 -1.97946 -0.602076 0
M  V30 1301 C 121.369 -0.953674 -1.62943 0
M  V30 1302 O 120.726 0.0592551 -1.82404 0
M  V30 1303 C 120.777 -3.38546 -1.26762 0
M  V30 1304 O 120.498 -4.37195 -0.281376 0
M  V30 1305 C 121.999 -3.93966 -2.03239 0
M  V30 1306 H 119.219 -0.650918 -0.162931 0
M  V30 1307 H 121.763 -2.03959 0.148601 0
M  V30 1308 H 119.918 -3.33609 -1.96936 0
M  V30 1309 H 120.332 -5.18975 -0.759267 0
M  V30 1310 H 121.806 -4.94555 -2.45193 0
M  V30 1311 H 122.283 -3.30693 -2.8903 0
M  V30 1312 H 122.889 -4.02315 -1.37924 0
M  V30 1313 N 121.204 0.198386 -1.56346 0
M  V30 1314 C 122.451 0.919286 -1.80431 0
M  V30 1315 C 122.779 1.83393 -0.647866 0
M  V30 1316 O 122.034 1.92236 0.366556 0
M  V30 1317 C 122.333 1.77031 -3.10475 0
M  V30 1318 C 121.999 1.00693 -4.39513 0
M  V30 1319 C 120.661 0.796145 -4.74568 0
M  V30 1320 C 123.013 0.469559 -5.19081 0
M  V30 1321 C 120.341 0.0364588 -5.86689 0
M  V30 1322 C 122.693 -0.2769 -6.31994 0
M  V30 1323 C 121.357 -0.49873 -6.65634 0
M  V30 1324 H 120.627 0.336391 -0.660244 0
M  V30 1325 H 123.274 0.185872 -1.90596 0
M  V30 1326 H 121.579 2.5723 -2.95533 0
M  V30 1327 H 123.276 2.33065 -3.26315 0
M  V30 1328 H 119.866 1.18122 -4.12001 0
M  V30 1329 H 124.05 0.619816 -4.92414 0
M  V30 1330 H 119.306 -0.145412 -6.11227 0
M  V30 1331 H 123.48 -0.700684 -6.92866 0
M  V30 1332 H 121.107 -1.0893 -7.52355 0
M  V30 1333 N 122.682 1.50554 0.465978 0
M  V30 1334 C 123.928 1.62038 1.21949 0
M  V30 1335 C 124.261 0.322116 1.9151 0
M  V30 1336 O 123.536 -0.676723 1.82348 0
M  V30 1337 C 123.819 2.80421 2.25912 0
M  V30 1338 C 123.672 4.20144 1.60622 0
M  V30 1339 C 124.991 2.94354 3.27176 0
M  V30 1340 H 122.11 0.589752 0.441998 0
M  V30 1341 H 124.752 1.82956 0.51257 0
M  V30 1342 H 122.902 2.62717 2.86203 0
M  V30 1343 H 124.574 4.49449 1.03889 0
M  V30 1344 H 122.817 4.24165 0.909211 0
M  V30 1345 H 123.488 4.98914 2.36196 0
M  V30 1346 H 125.964 3.10578 2.76913 0
M  V30 1347 H 124.84 3.788 3.97242 0
M  V30 1348 H 125.101 2.05186 3.916 0
M  V30 1349 N 124.16 -0.719506 1.40217 0
M  V30 1350 C 125.571 -1.29848 1.34151 0
M  V30 1351 C 125.922 -1.96196 0.0131349 0
M  V30 1352 O 125.047 -1.973 -0.88892 0
M  V30 1353 C 125.642 -2.36118 2.42968 0
M  V30 1354 C 124.201 -2.8965 2.40374 0
M  V30 1355 C 123.348 -1.63393 2.24049 0
M  V30 1356 H 126.299 -0.51591 1.5008 0
M  V30 1357 H 126.32 -3.16871 2.10649 0
M  V30 1358 H 125.832 -1.878 3.39636 0
M  V30 1359 H 123.933 -3.42208 1.47392 0
M  V30 1360 H 124.046 -3.4171 3.35814 0
M  V30 1361 H 122.41 -1.88312 1.71495 0
M  V30 1362 H 123.193 -1.17104 3.2271 0
M  V30 1363 N 125.638 -1.25649 -0.95132 0
M  V30 1364 C 126.568 -1.08808 -2.06599 0
M  V30 1365 C 127.549 0.00382547 -1.701 0
M  V30 1366 O 128.734 -0.166325 -1.93486 0
M  V30 1367 C 125.864 -0.709542 -3.39975 0
M  V30 1368 C 124.818 -1.75206 -3.90496 0
M  V30 1369 C 124.144 -1.22811 -5.20405 0
M  V30 1370 C 125.444 -3.15153 -4.16504 0
M  V30 1371 H 127.138 -2.02048 -2.20946 0
M  V30 1372 H 124.684 -0.972835 -1.06169 0
M  V30 1373 H 126.637 -0.578649 -4.17408 0
M  V30 1374 H 125.361 0.258556 -3.25575 0
M  V30 1375 H 124.02 -1.87145 -3.15234 0
M  V30 1376 H 123.668 -0.250145 -5.02378 0
M  V30 1377 H 123.368 -1.92492 -5.55176 0
M  V30 1378 H 124.892 -1.10968 -6.00432 0
M  V30 1379 H 126.306 -3.06349 -4.84586 0
M  V30 1380 H 124.703 -3.82333 -4.62538 0
M  V30 1381 H 125.773 -3.61966 -3.22658 0
M  V30 1382 N 127.117 1.15442 -1.07289 0
M  V30 1383 C 128.064 2.20161 -0.692653 0
M  V30 1384 C 129.034 1.63073 0.31564 0
M  V30 1385 O 130.219 1.89725 0.202235 0
M  V30 1386 C 127.359 3.44967 -0.0959509 0
M  V30 1387 C 126.472 4.16256 -1.15564 0
M  V30 1388 C 125.607 5.28609 -0.524011 0
M  V30 1389 C 124.646 5.91715 -1.56653 0
M  V30 1390 N 123.783 6.9554 -0.957531 0
M  V30 1391 H 128.623 2.52037 -1.59002 0
M  V30 1392 H 126.16 1.2378 -0.794798 0
M  V30 1393 H 128.118 4.16341 0.267628 0
M  V30 1394 H 126.748 3.1361 0.764772 0
M  V30 1395 H 125.8 3.43385 -1.6368 0
M  V30 1396 H 127.112 4.59268 -1.94613 0
M  V30 1397 H 126.266 6.06604 -0.108032 0
M  V30 1398 H 125.005 4.86787 0.29825 0
M  V30 1399 H 124.01 5.12433 -1.9923 0
M  V30 1400 H 125.235 6.35614 -2.39107 0
M  V30 1401 H 123.181 6.55814 -0.156162 0
M  V30 1402 H 123.098 7.36977 -1.68526 0
M  V30 1403 H 124.366 7.77435 -0.567032 0
M  V30 1404 N 128.595 0.856903 1.32268 0
M  V30 1405 C 129.823 0.475439 2.01363 0
M  V30 1406 C 130.238 -0.928486 1.64392 0
M  V30 1407 O 129.595 -1.60624 0.866387 0
M  V30 1408 C 129.646 0.607545 3.56358 0
M  V30 1409 O 129.367 1.95617 3.92002 0
M  V30 1410 C 130.868 0.225382 4.42727 0
M  V30 1411 H 128.088 0.186636 0.644521 0
M  V30 1412 H 130.632 1.15446 1.68797 0
M  V30 1413 H 128.787 -0.0237719 3.87393 0
M  V30 1414 H 129.201 1.95455 4.86721 0
M  V30 1415 H 130.675 0.368813 5.50767 0
M  V30 1416 H 131.152 -0.834369 4.31202 0
M  V30 1417 H 131.758 0.831864 4.17085 0
M  V30 1418 N 130.073 -1.45103 0.615059 0
M  V30 1419 C 131.319 -2.02483 0.113347 0
M  V30 1420 C 131.652 -1.48146 -1.25564 0
M  V30 1421 O 130.927 -0.659104 -1.82992 0
M  V30 1422 C 131.21 -3.60005 0.0825278 0
M  V30 1423 C 131.063 -4.2466 1.48271 0
M  V30 1424 C 132.382 -4.35972 -0.601401 0
M  V30 1425 H 129.501 -0.735764 0.0426632 0
M  V30 1426 H 132.143 -1.72868 0.788461 0
M  V30 1427 H 130.293 -3.85367 -0.492378 0
M  V30 1428 H 131.965 -4.10458 2.10527 0
M  V30 1429 H 130.208 -3.82772 2.04127 0
M  V30 1430 H 130.879 -5.336 1.41332 0
M  V30 1431 H 133.355 -4.15947 -0.112666 0
M  V30 1432 H 132.231 -5.45697 -0.592097 0
M  V30 1433 H 132.492 -4.09391 -1.66887 0
M  V30 1434 N 131.551 -0.354651 -1.53558 0
M  V30 1435 C 132.498 0.496968 -2.25386 0
M  V30 1436 C 133.468 1.0865 -1.25636 0
M  V30 1437 O 134.653 1.12104 -1.54394 0
M  V30 1438 C 131.793 1.63637 -3.03837 0
M  V30 1439 C 130.906 1.07307 -4.18461 0
M  V30 1440 C 130.041 2.18068 -4.84376 0
M  V30 1441 C 129.08 1.59147 -5.91049 0
M  V30 1442 N 128.217 2.63695 -6.50699 0
M  V30 1443 H 133.057 -0.122075 -2.9775 0
M  V30 1444 H 130.594 -0.0720154 -1.46924 0
M  V30 1445 H 132.552 2.30734 -3.47589 0
M  V30 1446 H 131.182 2.22623 -2.33749 0
M  V30 1447 H 130.234 0.292708 -3.79272 0
M  V30 1448 H 131.546 0.602193 -4.95152 0
M  V30 1449 H 130.7 2.93007 -5.31255 0
M  V30 1450 H 129.439 2.68504 -4.07133 0
M  V30 1451 H 128.444 0.827175 -5.43542 0
M  V30 1452 H 129.669 1.09549 -6.70206 0
M  V30 1453 H 127.615 3.13365 -5.76315 0
M  V30 1454 H 127.532 2.21263 -7.22896 0
M  V30 1455 H 128.8 3.3837 -7.02229 0
M  V30 1456 N 133.029 1.57378 -0.0835403 0
M  V30 1457 C 133.976 2.13384 0.879539 0
M  V30 1458 C 134.946 1.04936 1.28754 0
M  V30 1459 O 136.131 1.32662 1.37133 0
M  V30 1460 C 133.271 2.70932 2.13752 0
M  V30 1461 C 132.384 3.93575 1.7811 0
M  V30 1462 C 131.519 4.39326 2.98607 0
M  V30 1463 C 130.558 5.54587 2.59037 0
M  V30 1464 N 129.695 5.95243 3.72331 0
M  V30 1465 H 134.535 2.9537 0.395076 0
M  V30 1466 H 132.072 1.45953 0.183349 0
M  V30 1467 H 134.03 3.02411 2.87408 0
M  V30 1468 H 132.66 1.91693 2.59718 0
M  V30 1469 H 131.712 3.68483 0.94469 0
M  V30 1470 H 133.024 4.77258 1.45005 0
M  V30 1471 H 132.178 4.72528 3.80529 0
M  V30 1472 H 130.917 3.5452 3.34913 0
M  V30 1473 H 129.922 5.21024 1.75539 0
M  V30 1474 H 131.147 6.41133 2.23887 0
M  V30 1475 H 129.093 5.13385 4.08378 0
M  V30 1476 H 129.01 6.73694 3.43034 0
M  V30 1477 H 130.278 6.33072 4.54797 0
M  V30 1478 N 134.507 -0.190092 1.56449 0
M  V30 1479 C 135.44 -1.26375 1.90012 0
M  V30 1480 C 136.418 -1.43705 0.760765 0
M  V30 1481 O 137.602 -1.59014 1.01226 0
M  V30 1482 C 134.729 -2.62962 2.13468 0
M  V30 1483 C 133.775 -2.62474 3.36169 0
M  V30 1484 S 134.608 -2.13412 4.91137 0
M  V30 1485 C 135.764 -3.51812 5.17667 0
M  V30 1486 H 135.997 -0.977181 2.80782 0
M  V30 1487 H 133.53 -0.393814 1.49293 0
M  V30 1488 H 135.488 -3.41583 2.27664 0
M  V30 1489 H 134.149 -2.88828 1.23439 0
M  V30 1490 H 133.342 -3.62918 3.49723 0
M  V30 1491 H 132.944 -1.91937 3.20992 0
M  V30 1492 H 135.236 -4.47706 5.08494 0
M  V30 1493 H 136.179 -3.43148 6.19399 0
M  V30 1494 H 136.587 -3.46956 4.45288 0
M  V30 1495 N 135.985 -1.50799 -0.457987 0
M  V30 1496 C 137.262 -1.52968 -1.21902 0
M  V30 1497 C 137.642 -0.281906 -2.09209 0
M  V30 1498 O 136.99 0.734076 -2.16388 0
M  V30 1499 C 137.2 -2.8326 -2.03875 0
M  V30 1500 C 138.548 -3.34425 -2.6162 0
M  V30 1501 O 139.572 -2.8467 -2.14106 0
M  V30 1502 O 138.431 -4.21188 -3.48228 0
M  V30 1503 H 135.525 -0.614129 -0.553873 0
M  V30 1504 H 138.071 -1.63098 -0.468739 0
M  V30 1505 H 136.843 -3.65543 -1.39621 0
M  V30 1506 H 136.466 -2.76195 -2.8601 0
M  V30 1507 N 137.463 0.71206 -1.40597 0
M  V30 1508 C 138.373 1.8562 -1.43466 0
M  V30 1509 C 139.389 1.70902 -0.326902 0
M  V30 1510 O 140.565 1.93105 -0.572043 0
M  V30 1511 C 137.63 3.21451 -1.29884 0
M  V30 1512 C 136.691 3.48398 -2.50833 0
M  V30 1513 C 135.924 4.77749 -2.3789 0
M  V30 1514 O 136.147 5.53089 -1.39459 0
M  V30 1515 O 135.081 5.05111 -3.27333 0
M  V30 1516 H 138.907 1.86155 -2.39958 0
M  V30 1517 H 136.492 0.86295 -1.21957 0
M  V30 1518 H 138.374 4.02579 -1.24531 0
M  V30 1519 H 137.049 3.21636 -0.364997 0
M  V30 1520 H 135.956 2.67265 -2.61763 0
M  V30 1521 H 137.289 3.53014 -3.4299 0
M  V30 1522 N 138.941 1.26152 0.944643 0
M  V30 1523 C 140.171 1.14094 1.72239 0
M  V30 1524 C 140.579 -0.306931 1.86694 0
M  V30 1525 O 139.922 -1.22222 1.3714 0
M  V30 1526 C 139.984 1.73316 3.14963 0
M  V30 1527 C 139.648 3.2239 3.23904 0
M  V30 1528 C 140.645 4.19252 3.07447 0
M  V30 1529 C 138.33 3.62788 3.47405 0
M  V30 1530 C 140.324 5.54491 3.14353 0
M  V30 1531 C 138.011 4.98162 3.53947 0
M  V30 1532 C 139.009 5.93823 3.37436 0
M  V30 1533 O 138.697 7.26732 3.43679 0
M  V30 1534 H 138.429 0.398292 0.546205 0
M  V30 1535 H 140.983 1.67201 1.19301 0
M  V30 1536 H 139.213 1.14667 3.69308 0
M  V30 1537 H 140.902 1.56214 3.74636 0
M  V30 1538 H 141.668 3.8938 2.8915 0
M  V30 1539 H 137.547 2.88816 3.59313 0
M  V30 1540 H 141.091 6.29137 3.01384 0
M  V30 1541 H 136.988 5.27695 3.71763 0
M  V30 1542 H 137.756 7.3496 3.60245 0
M  V30 1543 N 140.419 -1.14872 1.07899 0
M  V30 1544 C 141.349 -2.2193 0.725887 0
M  V30 1545 C 142.33 -1.67622 -0.28927 0
M  V30 1546 O 143.515 -1.93533 -0.160787 0
M  V30 1547 C 140.645 -3.47061 0.128856 0
M  V30 1548 C 139.599 -4.14363 1.07178 0
M  V30 1549 C 138.925 -5.33636 0.337229 0
M  V30 1550 C 140.225 -4.63492 2.40775 0
M  V30 1551 H 141.919 -2.51724 1.62097 0
M  V30 1552 H 139.465 -1.20991 0.780838 0
M  V30 1553 H 141.418 -4.21199 -0.130147 0
M  V30 1554 H 140.142 -3.16617 -0.80134 0
M  V30 1555 H 138.801 -3.42173 1.3158 0
M  V30 1556 H 138.449 -4.99449 -0.596606 0
M  V30 1557 H 138.149 -5.79609 0.965788 0
M  V30 1558 H 139.673 -6.10539 0.0861567 0
M  V30 1559 H 141.087 -5.2913 2.20669 0
M  V30 1560 H 139.484 -5.20148 2.99276 0
M  V30 1561 H 140.554 -3.78834 3.02676 0
M  V30 1562 N 141.898 -0.863906 -1.31812 0
M  V30 1563 C 143.123 -0.48527 -2.01643 0
M  V30 1564 C 143.548 0.913058 -1.64453 0
M  V30 1565 O 142.906 1.6014 -0.849985 0
M  V30 1566 C 142.954 -0.642625 -3.54828 0
M  V30 1567 O 142.058 0.320659 -4.11151 0
M  V30 1568 H 141.399 -0.193793 -0.635091 0
M  V30 1569 H 143.929 -1.16565 -1.68148 0
M  V30 1570 H 143.939 -0.533628 -4.04495 0
M  V30 1571 H 142.614 -1.66227 -3.81237 0
M  V30 1572 H 141.191 0.167126 -3.72525 0
M  V30 1573 N 143.376 1.44774 -0.622745 0
M  V30 1574 C 144.653 1.95522 -0.0551974 0
M  V30 1575 C 145.033 1.5649 1.41683 0
M  V30 1576 O 144.381 0.834848 2.12703 0
M  V30 1577 C 144.591 3.4796 -0.269242 0
M  V30 1578 C 145.939 4.24306 -0.158014 0
M  V30 1579 O 146.963 3.55637 -0.200162 0
M  V30 1580 O 145.822 5.46471 -0.0558693 0
M  V30 1581 H 142.916 0.826556 0.0271015 0
M  V30 1582 H 145.462 1.54866 -0.693864 0
M  V30 1583 H 144.234 3.6939 -1.29099 0
M  V30 1584 H 143.857 3.95543 0.403966 0
M  V30 1585 N 144.854 0.36279 1.53368 0
M  V30 1586 C 146.101 -0.227776 2.01215 0
M  V30 1587 C 146.429 -1.49003 1.25014 0
M  V30 1588 O 145.684 -1.92876 0.331236 0
M  V30 1589 C 145.983 -0.568417 3.52851 0
M  V30 1590 C 145.649 0.59918 4.46901 0
M  V30 1591 C 144.311 0.919559 4.72332 0
M  V30 1592 C 146.663 1.38156 5.02556 0
M  V30 1593 C 143.991 2.02434 5.5067 0
M  V30 1594 C 146.343 2.47674 5.821 0
M  V30 1595 C 145.007 2.8025 6.05819 0
M  V30 1596 H 144.277 -0.083349 0.736297 0
M  V30 1597 H 146.924 0.494677 1.85001 0
M  V30 1598 H 145.229 -1.37185 3.66998 0
M  V30 1599 H 146.926 -1.03756 3.87344 0
M  V30 1600 H 143.516 0.339437 4.27254 0
M  V30 1601 H 147.7 1.14729 4.82857 0
M  V30 1602 H 142.956 2.28075 5.67267 0
M  V30 1603 H 147.13 3.08716 6.24234 0
M  V30 1604 H 144.757 3.65979 6.66306 0
M  V30 1605 N 146.332 -1.57332 0.0918853 0
M  V30 1606 C 147.295 -2.12708 -0.85369 0
M  V30 1607 C 148.295 -1.05561 -1.213 0
M  V30 1608 O 149.485 -1.31461 -1.14296 0
M  V30 1609 C 146.617 -2.64503 -2.15061 0
M  V30 1610 H 147.81 -2.97573 -0.3729 0
M  V30 1611 H 145.363 -1.55509 -0.157072 0
M  V30 1612 H 146.098 -1.83149 -2.67632 0
M  V30 1613 H 145.883 -3.4284 -1.90272 0
M  V30 1614 H 147.373 -3.07351 -2.82711 0
M  V30 1615 N 147.81 0.181792 -1.56548 0
M  V30 1616 C 148.757 1.22521 -1.95595 0
M  V30 1617 C 149.727 1.4454 -0.818373 0
M  V30 1618 O 150.912 1.57454 -1.07763 0
M  V30 1619 C 148.052 2.56193 -2.31212 0
M  V30 1620 C 147.165 2.41641 -3.58097 0
M  V30 1621 C 146.3 3.68108 -3.82975 0
M  V30 1622 C 145.339 3.48445 -5.03242 0
M  V30 1623 N 144.476 4.66956 -5.24306 0
M  V30 1624 H 149.316 0.885226 -2.84548 0
M  V30 1625 H 146.853 0.425718 -1.40805 0
M  V30 1626 H 148.811 3.34088 -2.49882 0
M  V30 1627 H 147.441 2.88208 -1.45382 0
M  V30 1628 H 146.493 1.54976 -3.474 0
M  V30 1629 H 147.805 2.23052 -4.46149 0
M  V30 1630 H 146.959 4.54441 -4.01956 0
M  V30 1631 H 145.698 3.89666 -2.93278 0
M  V30 1632 H 144.703 2.60499 -4.8417 0
M  V30 1633 H 145.928 3.2832 -5.9446 0
M  V30 1634 H 143.874 4.88752 -4.37559 0
M  V30 1635 H 143.791 4.51242 -6.06561 0
M  V30 1636 H 145.059 5.54602 -5.47756 0
M  V30 1637 N 149.288 1.51039 0.449983 0
M  V30 1638 C 150.235 1.71439 1.54523 0
M  V30 1639 C 151.205 0.555871 1.56522 0
M  V30 1640 O 152.39 0.788871 1.73728 0
M  V30 1641 C 149.53 1.83384 2.92343 0
M  V30 1642 C 148.643 3.10873 2.9997 0
M  V30 1643 C 147.778 3.13488 4.28834 0
M  V30 1644 C 146.817 4.35343 4.30282 0
M  V30 1645 N 145.954 4.35579 5.5065 0
M  V30 1646 H 150.794 2.64934 1.36433 0
M  V30 1647 H 148.331 1.31312 0.662982 0
M  V30 1648 H 150.289 1.88291 3.72293 0
M  V30 1649 H 148.919 0.933086 3.0902 0
M  V30 1650 H 147.971 3.15336 2.12761 0
M  V30 1651 H 149.283 4.00814 2.96901 0
M  V30 1652 H 148.437 3.17241 5.17149 0
M  V30 1653 H 147.176 2.21414 4.34543 0
M  V30 1654 H 146.181 4.3178 3.40362 0
M  V30 1655 H 147.406 5.28668 4.26248 0
M  V30 1656 H 145.352 3.46369 5.57104 0
M  V30 1657 H 145.269 5.19313 5.49409 0
M  V30 1658 H 146.537 4.43507 6.41032 0
M  V30 1659 N 150.766 -0.704594 1.40972 0
M  V30 1660 C 152.013 -1.46458 1.39844 0
M  V30 1661 C 152.341 -1.94499 0.00447594 0
M  V30 1662 O 151.596 -1.69275 -0.982057 0
M  V30 1663 C 151.895 -2.698 2.34399 0
M  V30 1664 C 151.561 -2.40464 3.81429 0
M  V30 1665 C 150.223 -2.32174 4.21484 0
M  V30 1666 C 152.575 -2.16086 4.74296 0
M  V30 1667 C 149.903 -1.97589 5.52427 0
M  V30 1668 C 152.255 -1.83011 6.05549 0
M  V30 1669 C 150.919 -1.7321 6.44635 0
M  V30 1670 H 150.189 -0.535927 0.511725 0
M  V30 1671 H 152.836 -0.806124 1.73706 0
M  V30 1672 H 151.141 -3.40536 1.93759 0
M  V30 1673 H 152.838 -3.27919 2.30804 0
M  V30 1674 H 149.428 -2.47808 3.49699 0
M  V30 1675 H 153.612 -2.2144 4.4416 0
M  V30 1676 H 148.868 -1.88547 5.81601 0
M  V30 1677 H 153.042 -1.63164 6.77016 0
M  V30 1678 H 150.669 -1.46179 7.46013 0
M  V30 1679 N 152.244 -1.26651 -0.937939 0
M  V30 1680 C 153.194 -1.05156 -2.02302 0
M  V30 1681 C 154.178 0.0171233 -1.60891 0
M  V30 1682 O 155.37 -0.200213 -1.75864 0
M  V30 1683 C 152.499 -0.689962 -3.36295 0
M  V30 1684 C 151.585 -1.79626 -3.84181 0
M  V30 1685 N 151.976 -3.03422 -4.04684 0
M  V30 1686 C 150.274 -1.6806 -4.13124 0
M  V30 1687 C 150.975 -3.75345 -4.444 0
M  V30 1688 N 149.951 -3.03051 -4.51288 0
M  V30 1689 H 153.753 -1.99117 -2.1617 0
M  V30 1690 H 151.267 -1.17216 -1.12402 0
M  V30 1691 H 153.264 -0.517112 -4.13681 0
M  V30 1692 H 151.924 0.242139 -3.23796 0
M  V30 1693 H 152.935 -3.39293 -3.91281 0
M  V30 1694 H 149.612 -0.818629 -4.09396 0
M  V30 1695 H 151.002 -4.81691 -4.68427 0
M  V30 1696 N 153.722 1.14298 -1.08507 0
M  V30 1697 C 154.652 2.21542 -0.737646 0
M  V30 1698 C 155.633 1.67773 0.280377 0
M  V30 1699 O 156.818 1.93616 0.150521 0
M  V30 1700 C 153.948 3.46988 -0.147259 0
M  V30 1701 C 152.902 4.13789 -1.09374 0
M  V30 1702 C 152.228 5.33449 -0.365524 0
M  V30 1703 C 153.528 4.62208 -2.4323 0
M  V30 1704 H 155.222 2.5086 -1.6343 0
M  V30 1705 H 152.768 1.20576 -0.787243 0
M  V30 1706 H 154.721 4.21262 0.107808 0
M  V30 1707 H 153.445 3.17037 0.784538 0
M  V30 1708 H 152.104 3.4147 -1.33393 0
M  V30 1709 H 151.752 4.99759 0.57011 0
M  V30 1710 H 151.452 5.79088 -0.996512 0
M  V30 1711 H 152.976 6.10485 -0.118534 0
M  V30 1712 H 154.39 5.27952 -2.23472 0
M  V30 1713 H 152.787 5.18553 -3.02031 0
M  V30 1714 H 153.857 3.77224 -3.04681 0
M  V30 1715 N 155.201 0.870884 1.31352 0
M  V30 1716 C 156.429 0.49677 2.00848 0
M  V30 1717 C 156.844 -0.910998 1.65367 0
M  V30 1718 O 156.201 -1.59696 0.883374 0
M  V30 1719 C 156.252 0.645308 3.55694 0
M  V30 1720 O 155.973 1.99764 3.89905 0
M  V30 1721 C 157.474 0.272326 4.42463 0
M  V30 1722 H 154.694 0.193462 0.642506 0
M  V30 1723 H 157.238 1.1723 1.67563 0
M  V30 1724 H 155.393 0.0173176 3.87396 0
M  V30 1725 H 155.807 2.00607 4.84621 0
M  V30 1726 H 157.281 0.427208 5.50344 0
M  V30 1727 H 157.758 -0.788587 4.32062 0
M  V30 1728 H 158.364 0.876054 4.1618 0
M  V30 1729 N 156.679 -1.44442 0.630414 0
M  V30 1730 C 157.907 -2.06414 0.141671 0
M  V30 1731 C 158.322 -1.47105 -1.18345 0
M  V30 1732 O 157.679 -0.593662 -1.72574 0
M  V30 1733 C 157.73 -3.61494 0.0199784 0
M  V30 1734 O 157.451 -4.18594 1.29269 0
M  V30 1735 C 158.952 -4.40499 -0.497544 0
M  V30 1736 H 156.172 -0.666292 0.0793452 0
M  V30 1737 H 158.716 -1.85323 0.864614 0
M  V30 1738 H 156.871 -3.8185 -0.653402 0
M  V30 1739 H 157.285 -5.12026 1.13707 0
M  V30 1740 H 158.759 -5.49433 -0.531708 0
M  V30 1741 H 159.236 -4.11895 -1.52445 0
M  V30 1742 H 159.842 -4.25061 0.142562 0
M  V30 1743 N 158.157 -0.370918 -1.53173 0
M  V30 1744 C 159.105 0.488101 -2.27421 0
M  V30 1745 C 160.099 1.07884 -1.30604 0
M  V30 1746 O 161.305 1.02143 -1.48212 0
M  V30 1747 H 157.68 0.176134 -0.731082 0
M  V30 1748 H 159.651 -0.159815 -2.97972 0
M  V30 1749 C 158.4 1.61306 -3.08019 0
M  V30 1750 H 157.723 1.1678 -3.82364 0
M  V30 1751 H 159.163 2.18872 -3.63141 0
M  V30 1752 C 157.622 2.55848 -2.19188 0
M  V30 1753 O 158.152 3.58799 -1.80626 0
M  V30 1754 N 156.358 2.2516 -1.83715 0
M  V30 1755 H 155.905 1.41476 -2.15273 0
M  V30 1756 H 155.863 2.8867 -1.24567 0
M  V30 1757 N 159.635 1.57281 -0.100228 0
M  V30 1758 C 160.545 2.17833 0.870965 0
M  V30 1759 C 161.561 1.14921 1.30649 0
M  V30 1760 O 162.737 1.47313 1.37335 0
M  V30 1761 C 159.802 2.75085 2.1102 0
M  V30 1762 C 158.863 3.9297 1.72838 0
M  V30 1763 C 158.096 4.47482 2.90854 0
M  V30 1764 O 158.319 4.00922 4.05731 0
M  V30 1765 O 157.253 5.38433 2.69023 0
M  V30 1766 H 161.079 3.0124 0.38575 0
M  V30 1767 H 158.664 1.48881 0.124397 0
M  V30 1768 H 160.546 3.11656 2.83634 0
M  V30 1769 H 159.221 1.94721 2.58584 0
M  V30 1770 H 158.128 3.61201 0.973883 0
M  V30 1771 H 159.461 4.74713 1.30033 0
M  V30 1772 N 161.113 -0.173488 1.56642 0
M  V30 1773 C 162.341 -0.906095 1.86004 0
M  V30 1774 C 162.756 -1.75921 0.685355 0
M  V30 1775 O 162.113 -1.79198 -0.345578 0
M  V30 1776 C 162.164 -1.78462 3.14378 0
M  V30 1777 O 161.885 -0.965914 4.27319 0
M  V30 1778 C 163.386 -2.62707 3.57071 0
M  V30 1779 H 160.606 -0.263341 0.617165 0
M  V30 1780 H 163.15 -0.174236 2.03756 0
M  V30 1781 H 161.305 -2.46984 2.98459 0
M  V30 1782 H 161.719 -1.56655 5.00559 0
M  V30 1783 H 163.193 -3.19969 4.49804 0
M  V30 1784 H 163.67 -3.37472 2.81086 0
M  V30 1785 H 164.276 -1.99521 3.75595 0
M  V30 1786 N 162.591 -1.51276 -0.441967 0
M  V30 1787 C 163.501 -1.75092 -1.56141 0
M  V30 1788 C 164.517 -0.634963 -1.62001 0
M  V30 1789 O 165.693 -0.916686 -1.79329 0
M  V30 1790 C 162.758 -1.86666 -2.92158 0
M  V30 1791 C 161.819 -3.10506 -2.96453 0
M  V30 1792 C 161.052 -3.21519 -4.25982 0
M  V30 1793 O 161.275 -2.38586 -5.18105 0
M  V30 1794 O 160.209 -4.14465 -4.36466 0
M  V30 1795 H 164.035 -2.70044 -1.38961 0
M  V30 1796 H 161.62 -1.35722 -0.624499 0
M  V30 1797 H 163.502 -1.96292 -3.72891 0
M  V30 1798 H 162.177 -0.949014 -3.09476 0
M  V30 1799 H 161.084 -3.06363 -2.14692 0
M  V30 1800 H 162.417 -4.01945 -2.84079 0
M  V30 1801 N 164.069 0.697108 -1.41344 0
M  V30 1802 C 165.294 1.49096 -1.44171 0
M  V30 1803 C 165.719 1.88038 -0.0481568 0
M  V30 1804 O 165.077 1.54525 0.948243 0
M  V30 1805 C 165.125 2.73088 -2.3549 0
M  V30 1806 O 164.229 3.70514 -1.81088 0
M  V30 1807 H 163.57 0.448801 -0.489361 0
M  V30 1808 H 166.1 0.856992 -1.85787 0
M  V30 1809 H 166.11 3.21413 -2.51312 0
M  V30 1810 H 164.785 2.44081 -3.36745 0
M  V30 1811 H 163.362 3.29441 -1.74708 0
M  V30 1812 N 165.547 1.27147 0.931209 0
M  V30 1813 C 166.963 1.04475 1.20653 0
M  V30 1814 C 167.163 -0.223885 2.00252 0
M  V30 1815 O 166.219 -0.930332 2.34736 0
M  V30 1816 C 167.532 2.28209 1.95809 0
M  V30 1817 C 169.08 2.33211 2.08762 0
M  V30 1818 C 169.555 3.56665 2.87323 0
M  V30 1819 N 171.046 3.57201 2.94892 0
M  V30 1820 C 171.781 4.49395 3.56134 0
M  V30 1821 N 171.277 5.51889 4.18796 0
M  V30 1822 N 173.07 4.37026 3.53504 0
M  V30 1823 H 165.221 2.08612 0.399333 0
M  V30 1824 H 167.484 0.917312 0.239253 0
M  V30 1825 H 167.19 3.20538 1.44736 0
M  V30 1826 H 167.064 2.33247 2.96438 0
M  V30 1827 H 169.451 1.41391 2.59023 0
M  V30 1828 H 169.532 2.32178 1.07364 0
M  V30 1829 H 169.176 4.4882 2.37746 0
M  V30 1830 H 169.106 3.54948 3.88998 0
M  V30 1831 H 171.597 2.83074 2.50354 0
M  V30 1832 H 171.91 6.18409 4.63454 0
M  V30 1833 H 170.255 5.55735 4.17353 0
M  V30 1834 H 173.446 3.56166 3.03749 0
M  V30 1835 H 173.619 5.09067 4.00942 0
M  V30 1836 N 167.025 -1.13721 1.09112 0
M  V30 1837 C 167.973 -2.21103 0.722219 0
M  V30 1838 C 168.967 -1.67147 -0.275374 0
M  V30 1839 O 170.173 -1.79477 -0.137176 0
M  V30 1840 H 166.548 -0.720445 0.215553 0
M  V30 1841 H 168.519 -2.49483 1.63709 0
M  V30 1842 C 167.268 -3.47352 0.15543 0
M  V30 1843 H 166.591 -3.89206 0.914246 0
M  V30 1844 H 168.031 -4.2395 -0.0647967 0
M  V30 1845 C 166.49 -3.1814 -1.10852 0
M  V30 1846 O 167.02 -3.36604 -2.19227 0
M  V30 1847 N 165.226 -2.72045 -1.02176 0
M  V30 1848 H 164.773 -2.57221 -0.139764 0
M  V30 1849 H 164.731 -2.52875 -1.8682 0
M  V30 1850 N 168.503 -0.877838 -1.30888 0
M  V30 1851 C 169.733 -0.506678 -2.00291 0
M  V30 1852 C 170.141 0.907449 -1.66018 0
M  V30 1853 O 169.484 1.60719 -0.88967 0
M  V30 1854 C 169.546 -0.59323 -3.54572 0
M  V30 1855 C 169.21 -1.97038 -4.12341 0
M  V30 1856 C 170.207 -2.93889 -4.28865 0
M  V30 1857 C 167.892 -2.27383 -4.47886 0
M  V30 1858 C 169.886 -4.19224 -4.80136 0
M  V30 1859 C 167.573 -3.52965 -4.98857 0
M  V30 1860 C 168.571 -4.48701 -5.14934 0
M  V30 1861 O 168.259 -5.72056 -5.64808 0
M  V30 1862 H 167.991 -0.1951 -0.647234 0
M  V30 1863 H 170.545 -1.18301 -1.6791 0
M  V30 1864 H 168.775 0.140057 -3.86446 0
M  V30 1865 H 170.464 -0.234372 -4.05223 0
M  V30 1866 H 171.23 -2.71756 -4.01714 0
M  V30 1867 H 167.109 -1.53639 -4.34645 0
M  V30 1868 H 170.653 -4.93956 -4.92599 0
M  V30 1869 H 166.55 -3.74939 -5.25443 0
M  V30 1870 H 167.318 -5.74337 -5.83163 0
M  V30 1871 N 169.982 1.44106 -0.638065 0
M  V30 1872 C 171.393 1.85316 -0.226894 0
M  V30 1873 C 171.744 1.53399 1.22324 0
M  V30 1874 O 170.869 0.975463 1.93167 0
M  V30 1875 C 171.464 3.3637 -0.405013 0
M  V30 1876 C 170.023 3.76369 -0.0482902 0
M  V30 1877 C 169.17 2.67921 -0.715108 0
M  V30 1878 H 172.121 1.34474 -0.842764 0
M  V30 1879 H 172.142 3.7885 0.354 0
M  V30 1880 H 171.654 3.59569 -1.46053 0
M  V30 1881 H 169.755 3.58784 1.00522 0
M  V30 1882 H 169.868 4.76856 -0.463187 0
M  V30 1883 H 168.232 2.54259 -0.149753 0
M  V30 1884 H 169.015 2.93951 -1.77335 0
M  V30 1885 N 171.46 0.379036 1.52974 0
M  V30 1886 C 172.39 -0.452706 2.29069 0
M  V30 1887 C 173.371 -1.07237 1.32039 0
M  V30 1888 O 174.556 -1.08708 1.60923 0
M  V30 1889 C 171.686 -1.5856 3.08992 0
M  V30 1890 C 170.64 -1.0925 4.13822 0
M  V30 1891 C 169.966 -2.31668 4.81907 0
M  V30 1892 C 171.266 -0.167702 5.22031 0
M  V30 1893 H 172.96 0.182181 2.98845 0
M  V30 1894 H 170.506 0.0890592 1.43724 0
M  V30 1895 H 172.459 -2.1742 3.6098 0
M  V30 1896 H 171.183 -2.24792 2.36931 0
M  V30 1897 H 169.842 -0.526494 3.628 0
M  V30 1898 H 169.49 -2.96386 4.06404 0
M  V30 1899 H 169.19 -1.9934 5.52754 0
M  V30 1900 H 170.714 -2.91189 5.36695 0
M  V30 1901 H 172.128 -0.664186 5.6944 0
M  V30 1902 H 170.525 0.0653265 6.00064 0
M  V30 1903 H 171.595 0.786347 4.78482 0
M  V30 1904 N 172.938 -1.57226 0.108567 0
M  V30 1905 C 173.848 -2.18292 -0.859401 0
M  V30 1906 C 174.864 -1.15612 -1.30038 0
M  V30 1907 O 176.04 -1.48039 -1.36552 0
M  V30 1908 C 173.105 -2.762 -2.09558 0
M  V30 1909 C 172.166 -3.93881 -1.70752 0
M  V30 1910 C 171.399 -4.49018 -2.88477 0
M  V30 1911 O 171.622 -4.03068 -4.036 0
M  V30 1912 O 170.556 -5.39852 -2.66164 0
M  V30 1913 H 174.382 -3.01441 -0.369769 0
M  V30 1914 H 171.967 -1.48945 -0.1165 0
M  V30 1915 H 173.849 -3.13156 -2.81978 0
M  V30 1916 H 172.524 -1.96089 -2.57548 0
M  V30 1917 H 171.431 -3.61713 -0.954714 0
M  V30 1918 H 172.764 -4.75396 -1.27513 0
M  V30 1919 N 174.416 0.165178 -1.56732 0
M  V30 1920 C 175.363 1.2044 -1.96883 0
M  V30 1921 C 176.333 1.43664 -0.833657 0
M  V30 1922 O 177.518 1.56302 -1.09427 0
M  V30 1923 C 174.658 2.53727 -2.33916 0
M  V30 1924 C 173.771 2.3783 -3.6064 0
M  V30 1925 C 172.906 3.64026 -3.86857 0
M  V30 1926 C 171.945 3.43088 -5.06909 0
M  V30 1927 N 171.082 4.61369 -5.29229 0
M  V30 1928 H 175.922 0.854996 -2.85471 0
M  V30 1929 H 173.459 0.41076 -1.41249 0
M  V30 1930 H 175.417 3.31419 -2.53411 0
M  V30 1931 H 174.047 2.8665 -1.48431 0
M  V30 1932 H 173.099 1.51282 -3.49024 0
M  V30 1933 H 174.411 2.18308 -4.4849 0
M  V30 1934 H 173.565 4.50152 -4.06753 0
M  V30 1935 H 172.304 3.86533 -2.97394 0
M  V30 1936 H 171.309 2.55349 -4.86906 0
M  V30 1937 H 172.534 3.21997 -5.97909 0
M  V30 1938 H 170.48 4.84084 -4.42718 0
M  V30 1939 H 170.397 4.44783 -6.11313 0
M  V30 1940 H 171.665 5.48761 -5.53608 0
M  V30 1941 N 175.894 1.51508 0.433938 0
M  V30 1942 C 176.857 1.72473 1.50949 0
M  V30 1943 C 177.857 0.594725 1.49398 0
M  V30 1944 O 179.047 0.862315 1.5136 0
M  V30 1945 C 176.179 1.78431 2.90474 0
M  V30 1946 H 177.372 2.68467 1.33662 0
M  V30 1947 H 174.925 1.41549 0.662836 0
M  V30 1948 H 175.66 0.842645 3.13161 0
M  V30 1949 H 175.445 2.60558 2.93005 0
M  V30 1950 H 176.935 1.96479 3.68491 0
M  V30 1951 N 177.372 -0.689602 1.41712 0
M  V30 1952 C 178.6 -1.47827 1.44758 0
M  V30 1953 C 179.015 -1.88721 0.0545703 0
M  V30 1954 O 178.372 -1.57176 -0.927463 0
M  V30 1955 C 178.423 -2.73698 2.3616 0
M  V30 1956 O 178.144 -2.34524 3.7004 0
M  V30 1957 C 179.645 -3.67389 2.48072 0
M  V30 1958 H 176.865 -0.455357 0.49284 0
M  V30 1959 H 179.409 -0.848574 1.86063 0
M  V30 1960 H 177.564 -3.32891 1.98148 0
M  V30 1961 H 177.978 -3.15701 4.18847 0
M  V30 1962 H 179.452 -4.52475 3.16181 0
M  V30 1963 H 179.929 -4.12284 1.51388 0
M  V30 1964 H 180.535 -3.14097 2.86746 0
M  V30 1965 N 178.85 -1.27639 -0.924453 0
M  V30 1966 C 180.075 -1.17101 -1.71179 0
M  V30 1967 C 180.5 0.268134 -1.86179 0
M  V30 1968 O 179.858 1.19415 -1.36418 0
M  V30 1969 C 179.906 -1.86313 -3.08739 0
M  V30 1970 O 179.01 -1.16331 -3.95652 0
M  V30 1971 H 178.351 -0.407091 -0.524569 0
M  V30 1972 H 180.881 -1.68767 -1.15666 0
M  V30 1973 H 180.891 -1.938 -3.59034 0
M  V30 1974 H 179.566 -2.91001 -2.97138 0
M  V30 1975 H 178.143 -1.16935 -3.54091 0
M  V30 1976 N 180.328 1.1314 -1.09713 0
M  V30 1977 C 181.278 2.16709 -0.708593 0
M  V30 1978 C 182.262 1.58471 0.278523 0
M  V30 1979 O 183.454 1.76779 0.088427 0
M  V30 1980 C 180.583 3.43039 -0.133923 0
M  V30 1981 C 179.669 4.08277 -1.14763 0
M  V30 1982 N 180.06 4.48637 -2.33577 0
M  V30 1983 C 178.358 4.34954 -0.986446 0
M  V30 1984 C 179.059 4.9952 -2.98085 0
M  V30 1985 N 178.035 4.94561 -2.25632 0
M  V30 1986 H 181.837 2.45672 -1.61315 0
M  V30 1987 H 179.351 1.29967 -0.973775 0
M  V30 1988 H 181.348 4.16583 0.162465 0
M  V30 1989 H 180.008 3.15549 0.765447 0
M  V30 1990 H 181.019 4.41246 -2.7115 0
M  V30 1991 H 177.696 4.17258 -0.142008 0
M  V30 1992 H 179.086 5.40521 -3.99108 0
M  V30 1993 N 181.806 0.884767 1.30421 0
M  V30 1994 C 182.736 0.367574 2.30589 0
M  V30 1995 C 183.717 -0.549464 1.60981 0
M  V30 1996 O 184.902 -0.46336 1.88591 0
M  V30 1997 C 182.032 -0.418944 3.44764 0
M  V30 1998 C 180.986 0.406316 4.26067 0
M  V30 1999 C 180.312 -0.506793 5.32293 0
M  V30 2000 C 181.612 1.64832 4.95608 0
M  V30 2001 H 183.306 1.20462 2.74097 0
M  V30 2002 H 180.852 0.580695 1.31772 0
M  V30 2003 H 182.805 -0.791395 4.13902 0
M  V30 2004 H 181.529 -1.28964 3.0006 0
M  V30 2005 H 180.188 0.760903 3.58617 0
M  V30 2006 H 179.836 -1.37519 4.83836 0
M  V30 2007 H 179.536 0.0415828 5.87585 0
M  V30 2008 H 181.06 -0.875764 6.04287 0
M  V30 2009 H 182.474 1.34646 5.57264 0
M  V30 2010 H 180.871 2.13688 5.60765 0
M  V30 2011 H 181.941 2.39284 4.21748 0
M  V30 2012 N 183.284 -1.43765 0.645699 0
M  V30 2013 C 184.214 -2.33471 -0.0370477 0
M  V30 2014 C 185.195 -1.49042 -0.819779 0
M  V30 2015 O 186.38 -1.77726 -0.782758 0
M  V30 2016 C 183.51 -3.32311 -1.0093 0
M  V30 2017 C 182.464 -4.2667 -0.337201 0
M  V30 2018 C 181.79 -5.1549 -1.42037 0
M  V30 2019 C 183.09 -5.16657 0.765706 0
M  V30 2020 H 184.784 -2.90809 0.712069 0
M  V30 2021 H 182.33 -1.39834 0.343876 0
M  V30 2022 H 184.283 -3.9396 -1.49578 0
M  V30 2023 H 183.007 -2.73213 -1.78948 0
M  V30 2024 H 181.666 -3.66374 0.128771 0
M  V30 2025 H 181.314 -4.52735 -2.1918 0
M  V30 2026 H 181.014 -5.79438 -0.975966 0
M  V30 2027 H 182.538 -5.80012 -1.90838 0
M  V30 2028 H 183.952 -5.72158 0.361702 0
M  V30 2029 H 182.349 -5.89286 1.13413 0
M  V30 2030 H 183.419 -4.56796 1.62683 0
M  V30 2031 N 184.763 -0.387143 -1.52771 0
M  V30 2032 C 186.011 0.195349 -2.01154 0
M  V30 2033 C 186.332 1.475 -1.27549 0
M  V30 2034 O 185.602 1.91878 -0.394924 0
M  V30 2035 H 184.182 0.075178 -0.743207 0
M  V30 2036 H 186.844 -0.518337 -1.87881 0
M  V30 2037 H 185.94 0.407096 -3.09434 0
M  V30 2038 N 186.241 1.57166 -0.116904 0
M  V30 2039 C 187.471 1.99184 0.548586 0
M  V30 2040 C 187.879 0.995436 1.60897 0
M  V30 2041 O 187.222 -0.0201293 1.83689 0
M  V30 2042 C 187.284 3.37611 1.23526 0
M  V30 2043 C 186.948 4.55857 0.323077 0
M  V30 2044 C 187.945 5.18056 -0.437476 0
M  V30 2045 C 185.63 5.01751 0.234761 0
M  V30 2046 C 187.624 6.24536 -1.2741 0
M  V30 2047 C 185.311 6.08093 -0.605496 0
M  V30 2048 C 186.309 6.69352 -1.35856 0
M  V30 2049 O 185.997 7.7364 -2.18487 0
M  V30 2050 H 185.729 0.659148 0.149999 0
M  V30 2051 H 188.283 2.0443 -0.199428 0
M  V30 2052 H 186.513 3.29113 2.0303 0
M  V30 2053 H 188.202 3.63932 1.79745 0
M  V30 2054 H 188.968 4.83516 -0.379105 0
M  V30 2055 H 184.847 4.53817 0.810601 0
M  V30 2056 H 188.391 6.72281 -1.86237 0
M  V30 2057 H 184.288 6.42063 -0.665268 0
M  V30 2058 H 185.056 7.90727 -2.11406 0
M  V30 2059 N 187.719 -0.156864 1.56817 0
M  V30 2060 C 188.965 -0.872416 1.83076 0
M  V30 2061 C 189.298 -1.81261 0.697001 0
M  V30 2062 O 188.573 -1.92171 -0.30008 0
M  V30 2063 C 188.856 -1.65551 3.19789 0
M  V30 2064 C 188.709 -0.737467 4.43713 0
M  V30 2065 C 190.028 -2.62012 3.53606 0
M  V30 2066 H 187.147 -0.315715 0.665953 0
M  V30 2067 H 189.789 -0.138004 1.89498 0
M  V30 2068 H 187.939 -2.28159 3.14445 0
M  V30 2069 H 189.611 -0.123143 4.61136 0
M  V30 2070 H 187.854 -0.0464067 4.33775 0
M  V30 2071 H 188.525 -1.32122 5.35955 0
M  V30 2072 H 191.001 -2.09525 3.59497 0
M  V30 2073 H 189.877 -3.13861 4.50314 0
M  V30 2074 H 190.138 -3.42902 2.79053 0
M  V30 2075 N 189.197 -1.51736 -0.425897 0
M  V30 2076 C 190.445 -1.64644 -1.17204 0
M  V30 2077 C 190.766 -0.370486 -1.91448 0
M  V30 2078 O 190.036 0.614088 -1.86026 0
M  V30 2079 H 188.616 -0.606819 -0.435638 0
M  V30 2080 H 191.278 -1.88713 -0.487177 0
M  V30 2081 H 190.374 -2.47958 -1.89534 0
M  V30 2082 N 190.675 0.682077 -1.42076 0
M  V30 2083 C 192.086 1.26246 -1.37546 0
M  V30 2084 C 192.437 1.96092 -0.0651481 0
M  V30 2085 O 191.562 1.99587 0.836297 0
M  V30 2086 C 192.157 2.29594 -2.49143 0
M  V30 2087 C 190.716 2.83175 -2.47969 0
M  V30 2088 C 189.863 1.57395 -2.28303 0
M  V30 2089 H 192.814 0.475937 -1.51395 0
M  V30 2090 H 192.835 3.11175 -2.18976 0
M  V30 2091 H 192.347 1.78729 -3.44496 0
M  V30 2092 H 190.448 3.3818 -1.56413 0
M  V30 2093 H 190.561 3.32687 -3.44755 0
M  V30 2094 H 188.925 1.83699 -1.76428 0
M  V30 2095 H 189.708 1.08507 -3.25701 0
M  V30 2096 N 192.153 1.28127 0.917671 0
M  V30 2097 C 193.402 1.14432 1.66097 0
M  V30 2098 C 193.715 -0.307247 1.93172 0
M  V30 2099 O 194.921 -0.565259 2.65551 0
M  V30 2100 C 193.377 2.00015 2.99202 0
M  V30 2101 C 192.985 3.49889 2.79789 0
M  V30 2102 C 194.729 1.94996 3.77064 0
M  V30 2103 C 192.636 4.27636 4.08511 0
M  V30 2104 H 191.566 0.424662 0.62304 0
M  V30 2105 H 194.217 1.52628 1.01868 0
M  V30 2106 H 192.599 1.54672 3.64544 0
M  V30 2107 H 193.773 4.03162 2.23152 0
M  V30 2108 H 192.088 3.56392 2.15345 0
M  V30 2109 H 194.685 2.50354 4.72469 0
M  V30 2110 H 195.028 0.925819 4.05875 0
M  V30 2111 H 195.561 2.38287 3.18534 0
M  V30 2112 H 192.3 5.30615 3.84874 0
M  V30 2113 H 191.82 3.79137 4.64774 0
M  V30 2114 H 193.499 4.37346 4.76799 0
M  V30 2115 N 193.631 -1.12557 1.10312 0
M  V30 2116 C 194.579 -2.20325 0.745629 0
M  V30 2117 C 195.573 -1.67429 -0.25763 0
M  V30 2118 O 196.779 -1.79612 -0.118132 0
M  V30 2119 H 193.154 -0.718118 0.223182 0
M  V30 2120 H 195.125 -2.47733 1.66346 0
M  V30 2121 C 193.874 -3.47168 0.192262 0
M  V30 2122 H 193.197 -3.88215 0.955475 0
M  V30 2123 H 194.637 -4.23995 -0.0198274 0
M  V30 2124 C 193.096 -3.19298 -1.07472 0
M  V30 2125 O 193.626 -3.3891 -2.15645 0
M  V30 2126 N 191.832 -2.73113 -0.992847 0
M  V30 2127 H 191.379 -2.57354 -0.112474 0
M  V30 2128 H 191.337 -2.54842 -1.84127 0
M  V30 2129 N 195.109 -0.891671 -1.2995 0
M  V30 2130 C 196.334 -0.527932 -2.00568 0
M  V30 2131 C 196.759 0.877969 -1.66353 0
M  V30 2132 O 196.117 1.58301 -0.883762 0
M  V30 2133 C 196.165 -0.717745 -3.53385 0
M  V30 2134 O 195.269 0.233376 -4.11739 0
M  V30 2135 H 194.61 -0.20722 -0.630837 0
M  V30 2136 H 197.14 -1.20105 -1.65638 0
M  V30 2137 H 197.15 -0.619307 -4.03272 0
M  V30 2138 H 195.825 -1.74276 -3.77625 0
M  V30 2139 H 194.402 0.0880706 -3.72796 0
M  V30 2140 N 196.587 1.43421 -0.653314 0
M  V30 2141 C 197.497 2.34568 0.0388565 0
M  V30 2142 C 198.513 1.53888 0.81207 0
M  V30 2143 O 199.689 1.86539 0.759294 0
M  V30 2144 C 196.754 3.32167 0.993269 0
M  V30 2145 C 195.815 4.28751 0.216977 0
M  V30 2146 C 195.048 5.21688 1.12593 0
M  V30 2147 O 195.271 5.19052 2.36519 0
M  V30 2148 O 194.205 5.98919 0.598284 0
M  V30 2149 H 198.031 2.95251 -0.711386 0
M  V30 2150 H 195.616 1.43564 -0.413502 0
M  V30 2151 H 197.498 3.92183 1.54176 0
M  V30 2152 H 196.173 2.73987 1.72374 0
M  V30 2153 H 195.08 3.72215 -0.375101 0
M  V30 2154 H 196.413 4.89913 -0.473924 0
M  V30 2155 N 198.065 0.39524 1.52563 0
M  V30 2156 C 198.975 -0.444232 2.30356 0
M  V30 2157 C 199.991 -1.06615 1.37511 0
M  V30 2158 O 201.167 -1.07067 1.70583 0
M  V30 2159 C 198.232 -1.55315 3.09964 0
M  V30 2160 C 197.293 -0.955734 4.18526 0
M  V30 2161 C 196.526 -2.01181 4.9433 0
M  V30 2162 O 196.749 -3.22781 4.70285 0
M  V30 2163 O 195.683 -1.62579 5.79527 0
M  V30 2164 H 199.509 0.189667 3.03107 0
M  V30 2165 H 197.094 0.1588 1.48554 0
M  V30 2166 H 198.976 -2.19724 3.59582 0
M  V30 2167 H 197.651 -2.17191 2.4002 0
M  V30 2168 H 196.558 -0.274743 3.7309 0
M  V30 2169 H 197.891 -0.381109 4.90722 0
M  V30 2170 N 199.544 -1.57102 0.125237 0
M  V30 2171 C 200.474 -2.18659 -0.819174 0
M  V30 2172 C 201.455 -1.12843 -1.27281 0
M  V30 2173 O 202.64 -1.41104 -1.33429 0
M  V30 2174 C 199.77 -2.79096 -2.06695 0
M  V30 2175 C 198.724 -3.90548 -1.75088 0
M  V30 2176 C 198.05 -4.37821 -3.06948 0
M  V30 2177 C 199.35 -5.12356 -1.01435 0
M  V30 2178 H 201.044 -2.9783 -0.306202 0
M  V30 2179 H 198.59 -1.4326 -0.145839 0
M  V30 2180 H 200.543 -3.2082 -2.73226 0
M  V30 2181 H 199.267 -1.97223 -2.60328 0
M  V30 2182 H 197.926 -3.49409 -1.10944 0
M  V30 2183 H 197.574 -3.52799 -3.58527 0
M  V30 2184 H 197.274 -5.12982 -2.86571 0
M  V30 2185 H 198.798 -4.822 -3.74587 0
M  V30 2186 H 200.212 -5.5106 -1.58132 0
M  V30 2187 H 198.609 -5.9314 -0.911319 0
M  V30 2188 H 199.679 -4.849 -0.00218681 0
M  V30 2189 N 201.022 0.148545 -1.56898 0
M  V30 2190 C 201.969 1.18345 -1.98149 0
M  V30 2191 C 202.939 1.42772 -0.848848 0
M  V30 2192 O 204.124 1.55132 -1.11079 0
M  V30 2193 C 201.264 2.51231 -2.36594 0
M  V30 2194 C 200.377 2.33991 -3.63142 0
M  V30 2195 C 199.512 3.59902 -3.90697 0
M  V30 2196 C 198.551 3.37692 -5.1052 0
M  V30 2197 N 197.688 4.5573 -5.34092 0
M  V30 2198 H 202.528 0.82467 -2.86362 0
M  V30 2199 H 200.065 0.395756 -1.41676 0
M  V30 2200 H 202.023 3.28713 -2.56912 0
M  V30 2201 H 200.653 2.85059 -1.51463 0
M  V30 2202 H 199.705 1.47572 -3.50609 0
M  V30 2203 H 201.017 2.13539 -4.5078 0
M  V30 2204 H 200.171 4.45813 -4.11505 0
M  V30 2205 H 198.91 3.83357 -3.01477 0
M  V30 2206 H 197.915 2.5017 -4.89587 0
M  V30 2207 H 199.14 3.15637 -6.0129 0
M  V30 2208 H 197.086 4.79361 -4.47827 0
M  V30 2209 H 197.003 4.38274 -6.15996 0
M  V30 2210 H 198.271 5.42858 -5.59397 0
M  V30 2211 N 202.5 1.5196 0.417844 0
M  V30 2212 C 203.432 1.70895 1.52733 0
M  V30 2213 C 204.445 0.589405 1.51756 0
M  V30 2214 O 205.634 0.864312 1.56179 0
M  V30 2215 C 202.734 1.72627 2.91639 0
M  V30 2216 C 201.907 3.01479 3.16905 0
M  V30 2217 C 200.966 2.95139 4.35637 0
M  V30 2218 O 199.992 3.69059 4.3334 0
M  V30 2219 N 201.194 2.12328 5.40275 0
M  V30 2220 H 203.959 2.66612 1.36888 0
M  V30 2221 H 201.52 1.50089 0.607037 0
M  V30 2222 H 203.512 1.65928 3.6912 0
M  V30 2223 H 202.082 0.844216 3.00985 0
M  V30 2224 H 201.302 3.21895 2.27546 0
M  V30 2225 H 202.59 3.86736 3.30625 0
M  V30 2226 H 201.988 1.51685 5.44985 0
M  V30 2227 H 200.545 2.11494 6.16534 0
M  V30 2228 N 203.978 -0.674533 1.42435 0
M  V30 2229 C 204.925 -1.78807 1.45934 0
M  V30 2230 C 205.895 -1.63157 0.311271 0
M  V30 2231 O 207.08 -1.83707 0.515383 0
M  V30 2232 C 204.22 -3.16839 1.36773 0
M  V30 2233 C 203.333 -3.43774 2.61617 0
M  V30 2234 C 202.468 -4.71536 2.44597 0
M  V30 2235 C 201.507 -4.91505 3.64814 0
M  V30 2236 N 200.644 -6.10508 3.46734 0
M  V30 2237 H 205.484 -1.75151 2.41093 0
M  V30 2238 H 203.021 -0.85504 1.19697 0
M  V30 2239 H 204.979 -3.96606 1.29459 0
M  V30 2240 H 203.609 -3.19619 0.452089 0
M  V30 2241 H 202.661 -2.58259 2.79297 0
M  V30 2242 H 203.973 -3.54423 3.50978 0
M  V30 2243 H 203.127 -5.59393 2.3487 0
M  V30 2244 H 201.866 -4.6317 1.52726 0
M  V30 2245 H 200.871 -4.0209 3.74972 0
M  V30 2246 H 202.096 -5.01716 4.57665 0
M  V30 2247 H 200.042 -6.03315 2.5758 0
M  V30 2248 H 199.959 -6.2202 4.29682 0
M  V30 2249 H 201.227 -7.01044 3.40819 0
M  V30 2250 N 205.456 -1.28612 -0.910864 0
M  V30 2251 C 206.366 -1.14643 -2.0468 0
M  V30 2252 C 207.382 -0.0723121 -1.7385 0
M  V30 2253 O 208.558 -0.282178 -1.99413 0
M  V30 2254 C 205.623 -0.812561 -3.37044 0
M  V30 2255 C 204.684 -1.96935 -3.81465 0
M  V30 2256 C 203.917 -1.65131 -5.07511 0
M  V30 2257 O 204.14 -0.567013 -5.67575 0
M  V30 2258 O 203.074 -2.49585 -5.47714 0
M  V30 2259 H 206.9 -2.1001 -2.19384 0
M  V30 2260 H 204.485 -1.07958 -1.03274 0
M  V30 2261 H 206.367 -0.640441 -4.16505 0
M  V30 2262 H 205.042 0.111426 -3.23508 0
M  V30 2263 H 203.949 -2.19664 -3.02818 0
M  V30 2264 H 205.282 -2.87414 -3.99567 0
M  V30 2265 N 206.934 1.1197 -1.10907 0
M  V30 2266 C 208.164 1.8713 -0.875553 0
M  V30 2267 C 208.572 1.8016 0.577843 0
M  V30 2268 O 207.915 1.17699 1.41042 0
M  V30 2269 C 207.977 3.37005 -1.2517 0
M  V30 2270 C 207.641 3.67748 -2.71313 0
M  V30 2271 C 208.638 3.65698 -3.69542 0
M  V30 2272 C 206.323 3.96928 -3.07821 0
M  V30 2273 C 208.317 3.92395 -5.023 0
M  V30 2274 C 206.004 4.23284 -4.40765 0
M  V30 2275 C 207.002 4.21005 -5.37814 0
M  V30 2276 O 206.69 4.46704 -6.68364 0
M  V30 2277 H 206.422 0.598786 -0.313737 0
M  V30 2278 H 208.976 1.42568 -1.47863 0
M  V30 2279 H 207.206 3.82146 -0.591741 0
M  V30 2280 H 208.895 3.93519 -0.994877 0
M  V30 2281 H 209.661 3.43211 -3.42682 0
M  V30 2282 H 205.54 3.97841 -2.32902 0
M  V30 2283 H 209.084 3.90531 -5.78041 0
M  V30 2284 H 204.981 4.45246 -4.67361 0
M  V30 2285 H 205.749 4.64299 -6.74069 0
M  V30 2286 N 208.412 0.89855 1.29475 0
M  V30 2287 C 209.359 0.373819 2.27753 0
M  V30 2288 C 210.329 -0.543444 1.56958 0
M  V30 2289 O 211.514 -0.468934 1.84948 0
M  V30 2290 C 208.654 -0.393648 3.42848 0
M  V30 2291 C 207.767 0.554379 4.28428 0
M  V30 2292 C 206.902 -0.230026 5.30702 0
M  V30 2293 C 205.941 0.712599 6.07938 0
M  V30 2294 N 205.078 -0.0373283 7.0209 0
M  V30 2295 H 209.918 1.21699 2.72017 0
M  V30 2296 H 207.455 0.611456 1.33789 0
M  V30 2297 H 209.413 -0.85466 4.08352 0
M  V30 2298 H 208.043 -1.20128 2.99615 0
M  V30 2299 H 207.095 1.13391 3.63107 0
M  V30 2300 H 208.407 1.27597 4.82204 0
M  V30 2301 H 207.561 -0.752288 6.02018 0
M  V30 2302 H 206.3 -0.984758 4.77654 0
M  V30 2303 H 205.305 1.24637 5.35486 0
M  V30 2304 H 206.53 1.46664 6.63074 0
M  V30 2305 H 204.476 -0.774348 6.51414 0
M  V30 2306 H 204.393 0.624374 7.53417 0
M  V30 2307 H 205.661 -0.539891 7.77628 0
M  V30 2308 N 209.89 -1.43072 0.660911 0
M  V30 2309 C 211.138 -2.01323 0.177094 0
M  V30 2310 C 211.459 -1.5245 -1.2159 0
M  V30 2311 O 210.729 -0.740322 -1.81373 0
M  V30 2312 H 209.309 -0.744382 0.0624804 0
M  V30 2313 H 211.971 -1.75179 0.854305 0
M  V30 2314 H 211.067 -3.11649 0.167641 0
M  V30 2315 N 211.368 -0.403325 -1.52352 0
M  V30 2316 C 212.598 0.17376 -2.05868 0
M  V30 2317 C 213.006 1.39898 -1.27378 0
M  V30 2318 O 212.349 1.80939 -0.31729 0
M  V30 2319 C 212.411 0.594756 -3.54546 0
M  V30 2320 C 212.075 -0.518926 -4.54044 0
M  V30 2321 C 213.072 -1.3807 -5.01231 0
M  V30 2322 C 210.757 -0.689961 -4.97539 0
M  V30 2323 C 212.751 -2.39852 -5.90551 0
M  V30 2324 C 210.438 -1.71109 -5.86656 0
M  V30 2325 C 211.436 -2.56378 -6.33056 0
M  V30 2326 O 211.124 -3.56743 -7.20409 0
M  V30 2327 H 210.856 0.0264951 -0.675481 0
M  V30 2328 H 213.41 -0.571179 -1.97299 0
M  V30 2329 H 211.64 1.39189 -3.60782 0
M  V30 2330 H 213.329 1.0991 -3.90736 0
M  V30 2331 H 214.095 -1.25994 -4.68349 0
M  V30 2332 H 209.974 -0.035939 -4.60986 0
M  V30 2333 H 213.518 -3.06441 -6.26689 0
M  V30 2334 H 209.415 -1.83218 -6.18952 0
M  V30 2335 H 210.183 -3.52918 -7.38506 0
M  V30 2336 N 212.846 1.57033 -0.133567 0
M  V30 2337 C 213.793 2.16074 0.811208 0
M  V30 2338 C 214.763 1.08979 1.2535 0
M  V30 2339 O 215.948 1.36958 1.32843 0
M  V30 2340 C 213.088 2.77595 2.05024 0
M  V30 2341 C 212.201 3.99042 1.65498 0
M  V30 2342 C 211.336 4.48603 2.84479 0
M  V30 2343 C 210.375 5.62547 2.41262 0
M  V30 2344 N 209.512 6.06787 3.53206 0
M  V30 2345 H 214.352 2.96477 0.300906 0
M  V30 2346 H 211.889 1.46462 0.136822 0
M  V30 2347 H 213.847 3.11402 2.77642 0
M  V30 2348 H 212.477 1.99859 2.53488 0
M  V30 2349 H 211.529 3.71302 0.826981 0
M  V30 2350 H 212.841 4.81629 1.29748 0
M  V30 2351 H 211.995 4.84395 3.65303 0
M  V30 2352 H 210.734 3.64995 3.23465 0
M  V30 2353 H 209.739 5.26345 1.58874 0
M  V30 2354 H 210.964 6.47931 2.03377 0
M  V30 2355 H 208.91 5.26117 3.91838 0
M  V30 2356 H 208.827 6.84266 3.21427 0
M  V30 2357 H 210.095 6.4722 4.34427 0
M  V30 2358 N 214.325 -0.140222 1.56975 0
M  V30 2359 C 215.602 -0.880769 1.74648 0
M  V30 2360 C 215.982 -1.99036 0.703404 0
M  V30 2361 O 215.33 -2.26821 -0.27648 0
M  V30 2362 C 215.54 -1.417 3.18939 0
M  V30 2363 C 216.888 -1.87774 3.80823 0
M  V30 2364 O 217.912 -1.51427 3.2241 0
M  V30 2365 O 216.771 -2.54827 4.83452 0
M  V30 2366 H 213.865 -0.416713 0.714338 0
M  V30 2367 H 216.411 -0.125618 1.69234 0
M  V30 2368 H 215.183 -0.619902 3.86359 0
M  V30 2369 H 214.806 -2.23546 3.28805 0
M  V30 2370 N 215.803 -1.52179 -0.40978 0
M  V30 2371 C 217.08 -1.56769 -1.16974 0
M  V30 2372 C 217.46 -0.348322 -2.08206 0
M  V30 2373 O 216.808 0.664862 -2.18613 0
M  V30 2374 C 217.018 -2.89603 -1.9476 0
M  V30 2375 C 218.366 -3.42579 -2.50849 0
M  V30 2376 O 219.39 -2.91338 -2.04941 0
M  V30 2377 O 218.249 -4.32054 -3.34652 0
M  V30 2378 H 215.343 -0.631439 -0.534054 0
M  V30 2379 H 217.889 -1.64507 -0.416613 0
M  V30 2380 H 216.661 -3.698 -1.27921 0
M  V30 2381 H 216.284 -2.85155 -2.77079 0
M  V30 2382 N 217.281 0.66697 -1.42791 0
M  V30 2383 C 218.244 1.76211 -1.46568 0
M  V30 2384 C 219.244 1.56896 -0.352196 0
M  V30 2385 O 220.434 1.63044 -0.613364 0
M  V30 2386 C 217.566 3.14935 -1.30494 0
M  V30 2387 H 218.759 1.74247 -2.44086 0
M  V30 2388 H 216.312 0.877342 -1.29354 0
M  V30 2389 H 217.047 3.2252 -0.339301 0
M  V30 2390 H 216.832 3.30359 -2.11199 0
M  V30 2391 H 218.322 3.94821 -1.36038 0
M  V30 2392 N 218.759 1.29093 0.90403 0
M  V30 2393 C 220.005 1.16986 1.65656 0
M  V30 2394 C 220.338 -0.278925 1.92186 0
M  V30 2395 O 219.613 -1.2019 1.5292 0
M  V30 2396 C 219.896 1.97908 3.0084 0
M  V30 2397 C 219.749 3.50903 2.81403 0
M  V30 2398 C 221.068 1.80208 4.01513 0
M  V30 2399 H 218.187 0.426346 0.601164 0
M  V30 2400 H 220.829 1.58518 1.04747 0
M  V30 2401 H 218.979 1.62616 3.52829 0
M  V30 2402 H 220.651 3.96153 2.36348 0
M  V30 2403 H 218.894 3.76045 2.1627 0
M  V30 2404 H 219.565 4.02791 3.77443 0
M  V30 2405 H 222.041 2.11025 3.58619 0
M  V30 2406 H 220.917 2.39184 4.94047 0
M  V30 2407 H 221.178 0.756119 4.35586 0
M  V30 2408 N 220.237 -1.11381 1.11499 0
M  V30 2409 C 221.486 -1.82494 0.858993 0
M  V30 2410 C 221.799 -1.85605 -0.617278 0
M  V30 2411 O 223.005 -2.52824 -0.989552 0
M  V30 2412 C 221.461 -3.27745 1.48699 0
M  V30 2413 C 221.069 -3.32961 2.99735 0
M  V30 2414 C 222.813 -4.03754 1.31085 0
M  V30 2415 C 220.72 -4.72612 3.55516 0
M  V30 2416 H 219.65 -0.683802 0.317696 0
M  V30 2417 H 222.301 -1.25331 1.34031 0
M  V30 2418 H 220.683 -3.84844 0.933339 0
M  V30 2419 H 221.857 -2.85741 3.61509 0
M  V30 2420 H 220.172 -2.70433 3.16631 0
M  V30 2421 H 222.769 -5.06891 1.70192 0
M  V30 2422 H 223.112 -4.15527 0.253496 0
M  V30 2423 H 223.645 -3.53043 1.83318 0
M  V30 2424 H 220.384 -4.66036 4.60967 0
M  V30 2425 H 219.904 -5.2024 2.98513 0
M  V30 2426 H 221.583 -5.4157 3.53992 0
M  V30 2427 N 221.715 -0.905404 -1.28997 0
M  V30 2428 C 222.963 -0.533192 -1.9494 0
M  V30 2429 C 223.284 0.924618 -1.71685 0
M  V30 2430 O 222.554 1.65268 -1.05183 0
M  V30 2431 H 221.134 -0.194194 -0.721317 0
M  V30 2432 H 223.796 -1.15294 -1.57141 0
M  V30 2433 H 222.892 -0.72059 -3.03667 0
M  V30 2434 N 223.193 1.4272 -0.668489 0
M  V30 2435 C 224.14 2.30796 0.0137489 0
M  V30 2436 C 225.11 1.4561 0.799177 0
M  V30 2437 O 226.295 1.74453 0.772702 0
M  V30 2438 C 223.435 3.31377 0.963507 0
M  V30 2439 C 222.548 4.31655 0.172569 0
M  V30 2440 C 221.683 5.19312 1.1175 0
M  V30 2441 C 220.722 6.11274 0.317886 0
M  V30 2442 N 219.859 6.91504 1.2152 0
M  V30 2443 H 224.699 2.88585 -0.743161 0
M  V30 2444 H 222.236 1.42154 -0.378226 0
M  V30 2445 H 224.194 3.88214 1.52792 0
M  V30 2446 H 222.824 2.75202 1.68712 0
M  V30 2447 H 221.876 3.76988 -0.508374 0
M  V30 2448 H 223.188 4.96779 -0.448527 0
M  V30 2449 H 222.342 5.80851 1.75206 0
M  V30 2450 H 221.081 4.5435 1.77249 0
M  V30 2451 H 220.086 5.48809 -0.329918 0
M  V30 2452 H 221.311 6.78283 -0.332917 0
M  V30 2453 H 219.257 6.29176 1.85671 0
M  V30 2454 H 219.174 7.53209 0.649036 0
M  V30 2455 H 220.442 7.57535 1.83742 0
M  V30 2456 N 224.671 0.411399 1.52136 0
M  V30 2457 C 225.618 -0.412975 2.27075 0
M  V30 2458 C 226.588 -1.03912 1.29582 0
M  V30 2459 O 227.773 -1.06296 1.58448 0
M  V30 2460 C 224.913 -1.52247 3.09701 0
M  V30 2461 C 224.026 -0.917021 4.22155 0
M  V30 2462 C 223.161 -1.9994 4.92135 0
M  V30 2463 C 222.2 -1.37101 5.96548 0
M  V30 2464 N 221.337 -2.39364 6.60038 0
M  V30 2465 H 226.177 0.232499 2.97092 0
M  V30 2466 H 223.714 0.126496 1.46555 0
M  V30 2467 H 225.672 -2.17674 3.55913 0
M  V30 2468 H 224.302 -2.13794 2.41851 0
M  V30 2469 H 223.354 -0.151742 3.80097 0
M  V30 2470 H 224.666 -0.418006 4.97045 0
M  V30 2471 H 223.82 -2.73088 5.41763 0
M  V30 2472 H 222.559 -2.53208 4.16818 0
M  V30 2473 H 221.564 -0.624873 5.46237 0
M  V30 2474 H 222.789 -0.845998 6.7381 0
M  V30 2475 H 220.735 -2.91759 5.87548 0
M  V30 2476 H 220.652 -1.9428 7.3061 0
M  V30 2477 H 221.92 -3.12074 7.14304 0
M  V30 2478 N 226.149 -1.5696 0.141893 0
M  V30 2479 C 227.397 -1.95573 -0.509484 0
M  V30 2480 C 227.718 -1.02746 -1.65736 0
M  V30 2481 O 226.988 -0.0880311 -1.95702 0
M  V30 2482 H 225.568 -0.722115 -0.191205 0
M  V30 2483 H 228.23 -1.93697 0.216196 0
M  V30 2484 H 227.326 -2.99171 -0.889 0
M  V30 2485 N 227.627 0.131896 -1.57047 0
M  V30 2486 C 228.557 1.16384 -2.02428 0
M  V30 2487 C 229.538 1.43936 -0.90644 0
M  V30 2488 O 230.723 1.54599 -1.17528 0
M  V30 2489 C 227.853 2.49328 -2.4177 0
M  V30 2490 C 226.807 2.36266 -3.56879 0
M  V30 2491 C 226.133 3.74057 -3.8208 0
M  V30 2492 C 227.433 1.834 -4.89042 0
M  V30 2493 H 229.127 0.786433 -2.88887 0
M  V30 2494 H 226.673 0.376855 -1.38981 0
M  V30 2495 H 228.626 3.21759 -2.7212 0
M  V30 2496 H 227.35 2.88934 -1.52266 0
M  V30 2497 H 226.009 1.66286 -3.26718 0
M  V30 2498 H 225.657 4.11125 -2.89803 0
M  V30 2499 H 225.357 3.66174 -4.59554 0
M  V30 2500 H 226.881 4.48012 -4.1487 0
M  V30 2501 H 228.295 2.45636 -5.18011 0
M  V30 2502 H 226.692 1.8637 -5.70426 0
M  V30 2503 H 227.762 0.790662 -4.7841 0
M  V30 2504 N 229.106 1.52395 0.401703 0
M  V30 2505 C 230.016 1.7917 1.51444 0
M  V30 2506 C 231.032 0.677691 1.6026 0
M  V30 2507 O 232.208 0.963909 1.76835 0
M  V30 2508 C 229.273 1.94347 2.87107 0
M  V30 2509 C 228.334 3.18257 2.88116 0
M  V30 2510 C 227.567 3.32701 4.17308 0
M  V30 2511 O 227.79 2.52238 5.11598 0
M  V30 2512 O 226.724 4.25891 4.25324 0
M  V30 2513 H 230.55 2.73633 1.31752 0
M  V30 2514 H 228.135 1.3733 0.588296 0
M  V30 2515 H 230.017 2.06109 3.67555 0
M  V30 2516 H 228.692 1.03073 3.06851 0
M  V30 2517 H 227.599 3.11947 2.06494 0
M  V30 2518 H 228.932 4.09336 2.73322 0
M  V30 2519 N 230.584 -0.659388 1.43143 0
M  V30 2520 C 231.531 -1.77249 1.47822 0
M  V30 2521 C 232.501 -1.62818 0.328558 0
M  V30 2522 O 233.686 -1.83151 0.534838 0
M  V30 2523 C 230.826 -3.15371 1.40126 0
M  V30 2524 C 229.939 -3.4098 2.65249 0
M  V30 2525 C 229.074 -4.68915 2.49584 0
M  V30 2526 C 228.113 -4.87608 3.70006 0
M  V30 2527 N 227.25 -6.06796 3.53189 0
M  V30 2528 H 232.09 -1.72584 2.42938 0
M  V30 2529 H 229.627 -0.842297 1.20598 0
M  V30 2530 H 231.585 -3.9521 1.33659 0
M  V30 2531 H 230.215 -3.19121 0.485964 0
M  V30 2532 H 229.267 -2.55282 2.8202 0
M  V30 2533 H 230.579 -3.50681 3.54717 0
M  V30 2534 H 229.733 -5.56871 2.4079 0
M  V30 2535 H 228.472 -4.61524 1.5763 0
M  V30 2536 H 227.477 -3.9809 3.79215 0
M  V30 2537 H 228.702 -4.96834 4.62961 0
M  V30 2538 H 226.648 -6.00549 2.63965 0
M  V30 2539 H 226.565 -6.17428 4.36255 0
M  V30 2540 H 227.833 -6.9739 3.48236 0
M  V30 2541 N 232.062 -1.29571 -0.897171 0
M  V30 2542 C 232.992 -1.17473 -2.01798 0
M  V30 2543 C 233.973 -0.068323 -1.69963 0
M  V30 2544 O 235.158 -0.248239 -1.92607 0
M  V30 2545 C 232.288 -0.853099 -3.36659 0
M  V30 2546 C 231.242 -1.9161 -3.82713 0
M  V30 2547 C 230.568 -1.44773 -5.14728 0
M  V30 2548 C 231.868 -3.32535 -4.02763 0
M  V30 2549 H 233.562 -2.11237 -2.12177 0
M  V30 2550 H 231.108 -1.01699 -1.01948 0
M  V30 2551 H 233.061 -0.755165 -4.14578 0
M  V30 2552 H 231.785 0.120236 -3.26379 0
M  V30 2553 H 230.444 -2.00346 -3.07013 0
M  V30 2554 H 230.092 -0.462995 -5.00865 0
M  V30 2555 H 229.792 -2.15865 -5.46513 0
M  V30 2556 H 231.316 -1.36334 -5.95185 0
M  V30 2557 H 232.73 -3.26626 -4.71156 0
M  V30 2558 H 231.127 -4.01607 -4.45905 0
M  V30 2559 H 232.197 -3.75326 -3.07016 0
M  V30 2560 N 233.54 1.10788 -1.12088 0
M  V30 2561 C 234.77 1.86191 -0.895351 0
M  V30 2562 C 235.178 1.80763 0.558702 0
M  V30 2563 O 234.521 1.19188 1.39785 0
M  V30 2564 C 234.583 3.35659 -1.28737 0
M  V30 2565 C 234.247 3.64849 -2.75198 0
M  V30 2566 C 235.244 3.61757 -3.734 0
M  V30 2567 C 232.929 3.93641 -3.12013 0
M  V30 2568 C 234.923 3.87045 -5.06434 0
M  V30 2569 C 232.61 4.18585 -4.4523 0
M  V30 2570 C 233.608 4.15277 -5.42249 0
M  V30 2571 O 233.296 4.3959 -6.73065 0
M  V30 2572 H 233.028 0.595425 -0.32007 0
M  V30 2573 H 235.582 1.40992 -1.49367 0
M  V30 2574 H 233.812 3.81497 -0.63224 0
M  V30 2575 H 235.501 3.92441 -1.03656 0
M  V30 2576 H 236.267 3.39557 -3.46303 0
M  V30 2577 H 232.146 3.95348 -2.37109 0
M  V30 2578 H 235.69 3.84378 -5.82151 0
M  V30 2579 H 231.587 4.40264 -4.72057 0
M  V30 2580 H 232.355 4.57123 -6.78956 0
M  V30 2581 N 235.018 0.912232 1.28515 0
M  V30 2582 C 236.295 0.463597 1.90027 0
M  V30 2583 C 236.675 -1.05753 1.82701 0
M  V30 2584 O 236.023 -1.90492 1.26194 0
M  V30 2585 C 236.233 0.992253 3.34597 0
M  V30 2586 C 237.581 1.04344 4.11579 0
M  V30 2587 O 238.605 0.94079 3.43551 0
M  V30 2588 O 237.464 1.1995 5.33174 0
M  V30 2589 H 234.558 0.146666 0.813891 0
M  V30 2590 H 237.104 1.00292 1.36893 0
M  V30 2591 H 235.876 2.03623 3.34146 0
M  V30 2592 H 235.499 0.433672 3.95228 0
M  V30 2593 N 236.496 -1.42363 0.676048 0
M  V30 2594 C 237.443 -2.308 -0.00150904 0
M  V30 2595 C 238.413 -1.46032 -0.791444 0
M  V30 2596 O 239.598 -1.74861 -0.76344 0
M  V30 2597 C 236.738 -3.31883 -0.945919 0
M  V30 2598 C 235.851 -4.31741 -0.149675 0
M  V30 2599 C 234.986 -5.19898 -1.08995 0
M  V30 2600 C 234.025 -6.11434 -0.285465 0
M  V30 2601 N 233.162 -6.92138 -1.17851 0
M  V30 2602 H 238.002 -2.88187 0.758455 0
M  V30 2603 H 235.539 -1.41952 0.38576 0
M  V30 2604 H 237.497 -3.89019 -1.50731 0
M  V30 2605 H 236.127 -2.76093 -1.6725 0
M  V30 2606 H 235.179 -3.76713 0.528359 0
M  V30 2607 H 236.491 -4.96534 0.474866 0
M  V30 2608 H 235.645 -5.81772 -1.72123 0
M  V30 2609 H 234.384 -4.55284 -1.74837 0
M  V30 2610 H 233.389 -5.48627 0.359018 0
M  V30 2611 H 234.614 -6.78097 0.368883 0
M  V30 2612 H 232.56 -6.30152 -1.82332 0
M  V30 2613 H 232.477 -7.53542 -0.609082 0
M  V30 2614 H 233.745 -7.58499 -1.79722 0
M  V30 2615 N 237.974 -0.419461 -1.51915 0
M  V30 2616 C 238.921 0.400927 -2.27291 0
M  V30 2617 C 239.891 1.03224 -1.30131 0
M  V30 2618 O 241.076 1.05455 -1.59009 0
M  V30 2619 C 238.216 1.50603 -3.10504 0
M  V30 2620 C 237.329 0.89462 -4.22635 0
M  V30 2621 C 236.464 1.97328 -4.93189 0
M  V30 2622 C 235.503 1.33935 -5.97267 0
M  V30 2623 N 234.64 2.3586 -6.61298 0
M  V30 2624 H 239.48 -0.248251 -2.96964 0
M  V30 2625 H 237.017 -0.134266 -1.46486 0
M  V30 2626 H 238.975 2.15783 -3.57062 0
M  V30 2627 H 237.605 2.12509 -2.42981 0
M  V30 2628 H 236.657 0.131583 -3.80172 0
M  V30 2629 H 237.969 0.391641 -4.9726 0
M  V30 2630 H 237.123 2.70211 -5.43204 0
M  V30 2631 H 235.862 2.50994 -4.18155 0
M  V30 2632 H 234.867 0.595896 -5.46561 0
M  V30 2633 H 236.092 0.810252 -6.74249 0
M  V30 2634 H 234.038 2.88639 -5.89087 0
M  V30 2635 H 233.955 1.90403 -7.3163 0
M  V30 2636 H 235.223 3.08282 -7.15949 0
M  V30 2637 N 239.452 1.56882 -0.150215 0
M  V30 2638 C 240.382 2.19935 0.784284 0
M  V30 2639 C 241.363 1.14854 1.25469 0
M  V30 2640 O 242.548 1.43209 1.31168 0
M  V30 2641 C 239.678 2.82349 2.02229 0
M  V30 2642 C 238.632 3.93285 1.68853 0
M  V30 2643 C 237.958 4.42649 2.99944 0
M  V30 2644 C 239.258 5.13904 0.932714 0
M  V30 2645 H 240.952 2.9828 0.258781 0
M  V30 2646 H 238.498 1.43473 0.123029 0
M  V30 2647 H 240.451 3.25126 2.68088 0
M  V30 2648 H 239.175 2.0134 2.57157 0
M  V30 2649 H 237.834 3.5113 1.05371 0
M  V30 2650 H 237.482 3.58458 3.52869 0
M  V30 2651 H 237.182 5.17476 2.78374 0
M  V30 2652 H 238.706 4.88099 3.66868 0
M  V30 2653 H 240.12 5.53506 1.49345 0
M  V30 2654 H 238.517 5.94515 0.81684 0
M  V30 2655 H 239.587 4.84842 -0.0749568 0
M  V30 2656 N 240.93 -0.123565 1.57115 0
M  V30 2657 C 241.862 -1.17739 1.96648 0
M  V30 2658 C 242.875 -1.37906 0.865201 0
M  V30 2659 O 244.064 -1.37062 1.14351 0
M  V30 2660 C 241.164 -2.53821 2.24562 0
M  V30 2661 C 240.337 -2.54317 3.55867 0
M  V30 2662 C 239.396 -3.72112 3.72047 0
M  V30 2663 O 238.422 -3.55907 4.44206 0
M  V30 2664 N 239.624 -4.90498 3.10471 0
M  V30 2665 H 242.389 -0.841147 2.87654 0
M  V30 2666 H 239.95 -0.31289 1.58848 0
M  V30 2667 H 241.942 -3.31175 2.32606 0
M  V30 2668 H 240.512 -2.79645 1.39705 0
M  V30 2669 H 239.732 -1.62711 3.59053 0
M  V30 2670 H 241.02 -2.51701 4.42181 0
M  V30 2671 H 240.418 -5.06567 2.51806 0
M  V30 2672 H 238.975 -5.65544 3.24043 0
M  V30 2673 N 242.408 -1.52605 -0.393616 0
M  V30 2674 C 243.358 -1.73436 -1.48 0
M  V30 2675 C 244.342 -0.588386 -1.49756 0
M  V30 2676 O 245.534 -0.846047 -1.5547 0
M  V30 2677 C 242.663 -1.90247 -2.85764 0
M  V30 2678 C 241.749 -3.10763 -2.88595 0
M  V30 2679 N 242.14 -4.33196 -2.61103 0
M  V30 2680 C 240.438 -3.10914 -3.19763 0
M  V30 2681 C 241.139 -5.1477 -2.70899 0
M  V30 2682 N 240.115 -4.50356 -3.04435 0
M  V30 2683 H 243.917 -2.65727 -1.25563 0
M  V30 2684 H 241.431 -1.5085 -0.601513 0
M  V30 2685 H 243.428 -2.03291 -3.63976 0
M  V30 2686 H 242.088 -0.991663 -3.09186 0
M  V30 2687 H 243.099 -4.61408 -2.35209 0
M  V30 2688 H 239.776 -2.29626 -3.4868 0
M  V30 2689 H 241.166 -6.22355 -2.53227 0
M  V30 2690 N 243.887 0.651787 -1.4349 0
M  V30 2691 C 244.797 1.79368 -1.5121 0
M  V30 2692 C 245.813 1.69361 -0.399093 0
M  V30 2693 O 246.989 1.90505 -0.653431 0
M  V30 2694 C 244.054 3.15653 -1.43401 0
M  V30 2695 C 243.115 3.37446 -2.65384 0
M  V30 2696 C 242.348 4.67229 -2.57939 0
M  V30 2697 O 242.571 5.46676 -1.62792 0
M  V30 2698 O 241.505 4.90773 -3.48462 0
M  V30 2699 H 245.331 1.7581 -2.47638 0
M  V30 2700 H 242.916 0.810447 -1.25507 0
M  V30 2701 H 244.798 3.96935 -1.41494 0
M  V30 2702 H 243.473 3.19798 -0.501085 0
M  V30 2703 H 242.38 2.55923 -2.72863 0
M  V30 2704 H 243.713 3.38148 -3.57654 0
M  V30 2705 N 245.365 1.30045 0.890287 0
M  V30 2706 C 246.642 1.09227 1.62262 0
M  V30 2707 C 247.022 -0.360305 2.08002 0
M  V30 2708 O 246.37 -1.35084 1.84295 0
M  V30 2709 C 246.58 2.08835 2.79623 0
M  V30 2710 C 247.928 2.40266 3.50082 0
M  V30 2711 O 248.952 2.07104 2.89804 0
M  V30 2712 O 247.811 2.96967 4.58773 0
M  V30 2713 H 244.905 0.419132 0.712922 0
M  V30 2714 H 247.451 1.41451 0.937529 0
M  V30 2715 H 246.223 3.06633 2.43089 0
M  V30 2716 H 245.846 1.77397 3.55832 0
M  V30 2717 N 246.843 -1.10192 1.12674 0
M  V30 2718 C 248.091 -1.81845 0.881861 0
M  V30 2719 C 248.412 -1.85737 -0.593867 0
M  V30 2720 O 247.682 -1.33724 -1.4316 0
M  V30 2721 H 246.262 -0.673432 0.323261 0
M  V30 2722 H 248.924 -1.33316 1.42172 0
M  V30 2723 H 248.02 -2.85288 1.2656 0
M  V30 2724 N 248.321 -0.919034 -1.28029 0
M  V30 2725 C 249.551 -0.570143 -1.98577 0
M  V30 2726 C 249.959 0.854172 -1.68821 0
M  V30 2727 O 249.302 1.57807 -0.940351 0
M  V30 2728 C 249.364 -0.705734 -3.52505 0
M  V30 2729 C 249.028 -2.10057 -4.05863 0
M  V30 2730 C 250.025 -3.07385 -4.19298 0
M  V30 2731 C 247.71 -2.41517 -4.40426 0
M  V30 2732 C 249.704 -4.34287 -4.66555 0
M  V30 2733 C 247.391 -3.68657 -4.87376 0
M  V30 2734 C 248.389 -4.64856 -5.00398 0
M  V30 2735 O 248.077 -5.89735 -5.46322 0
M  V30 2736 H 247.809 -0.215592 -0.6407 0
M  V30 2737 H 250.363 -1.23583 -1.64062 0
M  V30 2738 H 248.593 0.0170414 -3.86696 0
M  V30 2739 H 250.282 -0.363172 -4.04272 0
M  V30 2740 H 251.048 -2.84398 -3.92865 0
M  V30 2741 H 246.927 -1.67389 -4.29537 0
M  V30 2742 H 250.471 -5.09377 -4.76635 0
M  V30 2743 H 246.368 -3.91466 -5.13249 0
M  V30 2744 H 247.136 -5.92599 -5.64596 0
M  V30 2745 N 249.799 1.42003 -0.683588 0
M  V30 2746 C 251.215 1.55625 -0.353976 0
M  V30 2747 C 251.415 1.66151 1.14 0
M  V30 2748 O 250.471 1.63329 1.92561 0
M  V30 2749 C 251.784 2.80171 -1.092 0
M  V30 2750 C 253.332 2.93954 -1.07518 0
M  V30 2751 C 253.807 4.21372 -1.79471 0
M  V30 2752 N 255.298 4.28303 -1.76381 0
M  V30 2753 C 256.033 5.25729 -2.28904 0
M  V30 2754 N 255.529 6.29254 -2.89846 0
M  V30 2755 N 257.322 5.17586 -2.19228 0
M  V30 2756 H 249.473 1.33415 -1.6527 0
M  V30 2757 H 251.736 0.64282 -0.696769 0
M  V30 2758 H 251.442 2.78561 -2.14701 0
M  V30 2759 H 251.316 3.7133 -0.662862 0
M  V30 2760 H 253.703 2.95086 -0.028475 0
M  V30 2761 H 253.784 2.04002 -1.54328 0
M  V30 2762 H 253.428 4.21001 -2.84114 0
M  V30 2763 H 253.358 5.10275 -1.30104 0
M  V30 2764 H 255.849 3.54119 -1.31939 0
M  V30 2765 H 256.162 6.99964 -3.27522 0
M  V30 2766 H 254.507 6.29791 -2.93919 0
M  V30 2767 H 257.698 4.35631 -1.71299 0
M  V30 2768 H 257.871 5.93348 -2.60466 0
M  V30 2769 N 251.277 0.427512 1.51691 0
M  V30 2770 C 252.523 -0.142439 2.02299 0
M  V30 2771 C 252.856 -1.43214 1.31162 0
M  V30 2772 O 252.131 -1.89833 0.423511 0
M  V30 2773 C 252.414 -0.371301 3.58181 0
M  V30 2774 C 252.267 0.936358 4.39946 0
M  V30 2775 C 253.586 -1.14542 4.24933 0
M  V30 2776 H 250.705 -0.0502937 0.735282 0
M  V30 2777 H 253.347 0.564584 1.81418 0
M  V30 2778 H 251.497 -0.973559 3.76104 0
M  V30 2779 H 253.169 1.57184 4.33694 0
M  V30 2780 H 251.412 1.5432 4.05423 0
M  V30 2781 H 252.083 0.730388 5.47147 0
M  V30 2782 H 254.559 -0.635362 4.11221 0
M  V30 2783 H 253.435 -1.27431 5.33903 0
M  V30 2784 H 253.696 -2.17093 3.85127 0
M  V30 2785 N 252.755 -1.56801 0.158532 0
M  V30 2786 C 253.983 -2.00859 -0.496303 0
M  V30 2787 C 254.398 -1.03871 -1.57659 0
M  V30 2788 O 253.755 -0.0375165 -1.82461 0
M  V30 2789 C 253.806 -3.4479 -1.08638 0
M  V30 2790 O 253.527 -4.38072 -0.0492322 0
M  V30 2791 C 255.028 -4.04185 -1.8207 0
M  V30 2792 H 252.248 -0.65864 -0.128199 0
M  V30 2793 H 254.792 -2.02885 0.256506 0
M  V30 2794 H 252.947 -3.43579 -1.78975 0
M  V30 2795 H 253.361 -5.2227 -0.483102 0
M  V30 2796 H 254.835 -5.06857 -2.18633 0
M  V30 2797 H 255.312 -3.45549 -2.71095 0
M  V30 2798 H 255.918 -4.0906 -1.16405 0
M  V30 2799 N 254.233 0.115231 -1.57178 0
M  V30 2800 C 255.482 0.820945 -1.84237 0
M  V30 2801 C 255.795 1.80866 -0.744761 0
M  V30 2802 O 257.001 2.56083 -0.901871 0
M  V30 2803 C 255.457 1.51072 -3.26658 0
M  V30 2804 C 255.065 0.563795 -4.44438 0
M  V30 2805 C 256.809 2.20134 -3.62962 0
M  V30 2806 C 254.716 1.25701 -5.77887 0
M  V30 2807 H 253.646 0.310328 -0.687177 0
M  V30 2808 H 256.297 0.0737134 -1.83352 0
M  V30 2809 H 254.679 2.30471 -3.22024 0
M  V30 2810 H 255.853 -0.197247 -4.60378 0
M  V30 2811 H 254.168 -0.0200638 -4.16395 0
M  V30 2812 H 256.765 2.72696 -4.59936 0
M  V30 2813 H 257.108 2.98107 -2.90582 0
M  V30 2814 H 257.641 1.47619 -3.69396 0
M  V30 2815 H 254.38 0.518493 -6.53446 0
M  V30 2816 H 253.9 1.98997 -5.65827 0
M  V30 2817 H 255.579 1.78915 -6.2177 0
M  V30 2818 N 255.711 1.52812 0.385517 0
M  V30 2819 C 256.957 1.68275 1.13188 0
M  V30 2820 C 257.29 0.423179 1.89533 0
M  V30 2821 O 256.565 -0.579113 1.85679 0
M  V30 2822 C 256.848 2.92001 2.1073 0
M  V30 2823 C 256.701 4.28067 1.38125 0
M  V30 2824 C 258.02 3.11283 3.11113 0
M  V30 2825 H 255.139 0.612352 0.410115 0
M  V30 2826 H 257.781 1.85415 0.414869 0
M  V30 2827 H 255.931 2.77519 2.71874 0
M  V30 2828 H 257.603 4.54324 0.799187 0
M  V30 2829 H 255.846 4.28388 0.683092 0
M  V30 2830 H 256.517 5.10733 2.09417 0
M  V30 2831 H 258.993 3.2482 2.6006 0
M  V30 2832 H 257.869 3.99325 3.76605 0
M  V30 2833 H 258.13 2.25656 3.80173 0
M  V30 2834 N 257.189 -0.644168 1.43834 0
M  V30 2835 C 258.466 -1.40188 1.36406 0
M  V30 2836 C 258.846 -2.11094 0.0163124 0
M  V30 2837 O 258.194 -2.05426 -1.00062 0
M  V30 2838 C 258.404 -2.3791 2.55343 0
M  V30 2839 C 259.752 -3.01637 2.98832 0
M  V30 2840 O 260.776 -2.48237 2.55455 0
M  V30 2841 O 259.635 -3.98477 3.74003 0
M  V30 2842 H 256.729 -0.626773 0.539523 0
M  V30 2843 H 259.275 -0.670317 1.559 0
M  V30 2844 H 258.047 -1.84525 3.4506 0
M  V30 2845 H 257.67 -3.18503 2.37995 0
M  V30 2846 N 258.668 -1.30515 -0.883378 0
M  V30 2847 C 259.945 -1.10086 -1.6168 0
M  V30 2848 C 260.325 0.349269 -2.08191 0
M  V30 2849 O 259.673 1.34105 -1.85008 0
M  V30 2850 C 259.883 -2.10315 -2.78511 0
M  V30 2851 C 261.231 -2.42119 -3.48803 0
M  V30 2852 O 262.255 -2.08638 -2.88702 0
M  V30 2853 O 261.114 -2.99396 -4.57192 0
M  V30 2854 H 258.208 -0.422907 -0.710689 0
M  V30 2855 H 260.754 -1.41947 -0.930015 0
M  V30 2856 H 259.526 -3.07917 -2.41459 0
M  V30 2857 H 259.149 -1.79282 -3.54886 0
M  V30 2858 N 260.146 1.09593 -1.13257 0
M  V30 2859 C 261.094 2.18271 -0.803783 0
M  V30 2860 C 262.088 1.68054 0.213148 0
M  V30 2861 O 263.294 1.79862 0.0704699 0
M  V30 2862 H 259.669 0.711949 -0.242143 0
M  V30 2863 H 261.64 2.43235 -1.72856 0
M  V30 2864 C 260.389 3.46536 -0.28424 0
M  V30 2865 H 259.712 3.85545 -1.05807 0
M  V30 2866 H 261.152 4.23899 -0.0925945 0
M  V30 2867 C 259.611 3.22036 0.989684 0
M  V30 2868 O 260.141 3.44509 2.06584 0
M  V30 2869 N 258.347 2.7565 0.920086 0
M  V30 2870 H 257.894 2.57562 0.0442019 0
M  V30 2871 H 257.852 2.59635 1.77306 0
M  V30 2872 N 261.624 0.925811 1.2754 0
M  V30 2873 C 262.849 0.580924 1.99098 0
M  V30 2874 C 263.274 -0.833555 1.68622 0
M  V30 2875 O 262.632 -1.55903 0.925422 0
M  V30 2876 C 262.68 0.811186 3.51358 0
M  V30 2877 O 261.784 -0.124129 4.12213 0
M  V30 2878 H 261.125 0.223873 0.625122 0
M  V30 2879 H 263.655 1.24455 1.62395 0
M  V30 2880 H 263.665 0.72601 4.01489 0
M  V30 2881 H 262.34 1.84227 3.72872 0
M  V30 2882 H 260.917 0.0108006 3.72898 0
M  V30 2883 N 263.102 -1.41638 0.69111 0
M  V30 2884 C 264.05 -2.32597 0.0115199 0
M  V30 2885 C 265.044 -1.5072 -0.773296 0
M  V30 2886 O 266.25 -1.66685 -0.67942 0
M  V30 2887 H 262.625 -0.751849 -0.0150746 0
M  V30 2888 H 264.596 -2.87593 0.795791 0
M  V30 2889 C 263.345 -3.35467 -0.914172 0
M  V30 2890 H 262.668 -3.9852 -0.319687 0
M  V30 2891 H 264.108 -4.01662 -1.35808 0
M  V30 2892 C 262.567 -2.69004 -2.02826 0
M  V30 2893 O 263.097 -2.53444 -3.11655 0
M  V30 2894 N 261.303 -2.2777 -1.80469 0
M  V30 2895 H 260.85 -2.40626 -0.919615 0
M  V30 2896 H 260.808 -1.83635 -2.55197 0
M  V30 2897 N 264.58 -0.43555 -1.51462 0
M  V30 2898 C 265.808 0.130242 -2.0649 0
M  V30 2899 C 266.223 1.36614 -1.30315 0
M  V30 2900 O 265.58 1.78869 -0.362223 0
M  V30 2901 C 265.631 0.454253 -3.58635 0
M  V30 2902 O 265.352 -0.73259 -4.31931 0
M  V30 2903 C 266.853 1.07091 -4.3017 0
M  V30 2904 H 264.073 0.00871669 -0.670943 0
M  V30 2905 H 266.617 -0.614117 -1.95061 0
M  V30 2906 H 264.772 1.14851 -3.69984 0
M  V30 2907 H 265.186 -0.455787 -5.22516 0
M  V30 2908 H 266.66 1.24764 -5.37716 0
M  V30 2909 H 267.137 2.05144 -3.88346 0
M  V30 2910 H 267.743 0.416089 -4.2326 0
M  V30 2911 N 266.058 1.56714 -0.166846 0
M  V30 2912 C 267.307 1.95922 0.479318 0
M  V30 2913 C 267.62 1.05529 1.6469 0
M  V30 2914 O 268.826 1.34399 2.35901 0
M  V30 2915 C 267.282 3.48359 0.90412 0
M  V30 2916 C 266.89 4.47369 -0.237621 0
M  V30 2917 C 268.634 3.96394 1.51896 0
M  V30 2918 C 266.541 5.91039 0.206561 0
M  V30 2919 H 265.471 0.731495 0.18284 0
M  V30 2920 H 268.122 1.81728 -0.254363 0
M  V30 2921 H 266.504 3.57955 1.69365 0
M  V30 2922 H 267.678 4.49485 -1.01489 0
M  V30 2923 H 265.993 4.09366 -0.762128 0
M  V30 2924 H 268.59 5.01186 1.86325 0
M  V30 2925 H 268.933 3.39075 2.41524 0
M  V30 2926 H 269.466 3.89796 0.79395 0
M  V30 2927 H 266.205 6.52221 -0.654834 0
M  V30 2928 H 265.725 5.9224 0.949282 0
M  V30 2929 H 267.404 6.43707 0.651939 0
M  V30 2930 N 267.536 -0.106894 1.57237 0
M  V30 2931 C 268.499 -1.11466 2.0027 0
M  V30 2932 C 269.499 -1.33623 0.894519 0
M  V30 2933 O 270.689 -1.29935 1.16028 0
M  V30 2934 C 267.821 -2.46646 2.35327 0
M  V30 2935 H 269.014 -0.744516 2.90512 0
M  V30 2936 H 266.567 -0.351576 1.52295 0
M  V30 2937 H 267.302 -2.88558 1.48003 0
M  V30 2938 H 267.087 -2.31915 3.16161 0
M  V30 2939 H 268.577 -3.19151 2.69318 0
M  V30 2940 N 269.014 -1.53014 -0.377408 0
M  V30 2941 C 269.964 -1.74996 -1.46152 0
M  V30 2942 C 270.948 -0.604236 -1.49123 0
M  V30 2943 O 272.14 -0.862489 -1.54564 0
M  V30 2944 C 269.269 -1.93267 -2.8373 0
M  V30 2945 C 268.355 -3.13807 -2.85283 0
M  V30 2946 N 268.746 -4.35941 -2.56493 0
M  V30 2947 C 267.044 -3.14288 -3.16448 0
M  V30 2948 C 267.745 -5.17615 -2.65424 0
M  V30 2949 N 266.721 -4.53559 -2.99641 0
M  V30 2950 H 270.523 -2.67044 -1.22738 0
M  V30 2951 H 268.037 -1.51479 -0.585479 0
M  V30 2952 H 270.034 -2.0714 -3.61799 0
M  V30 2953 H 268.694 -1.0244 -3.08117 0
M  V30 2954 H 269.705 -4.63876 -2.30302 0
M  V30 2955 H 266.382 -2.33312 -3.46225 0
M  V30 2956 H 267.772 -6.25006 -2.46612 0
M  V30 2957 N 270.492 0.636531 -1.44174 0
M  V30 2958 C 271.72 1.42353 -1.50144 0
M  V30 2959 C 272.135 1.88389 -0.124575 0
M  V30 2960 O 271.492 1.6051 0.868489 0
M  V30 2961 C 271.543 2.64744 -2.46156 0
M  V30 2962 O 271.264 2.20629 -3.7849 0
M  V30 2963 C 272.765 3.57929 -2.61537 0
M  V30 2964 H 269.985 0.436752 -0.5094 0
M  V30 2965 H 272.529 0.778933 -1.89084 0
M  V30 2966 H 270.684 3.25307 -2.10366 0
M  V30 2967 H 271.098 2.99938 -4.30276 0
M  V30 2968 H 272.572 4.40428 -3.32757 0
M  V30 2969 H 273.049 4.06382 -1.66585 0
M  V30 2970 H 273.655 3.03238 -2.98206 0
M  V30 2971 N 271.97 1.30982 0.876444 0
M  V30 2972 C 272.9 1.20668 1.99903 0
M  V30 2973 C 273.881 0.095354 1.69833 0
M  V30 2974 O 275.066 0.27885 1.92188 0
M  V30 2975 C 272.196 0.90655 3.3526 0
M  V30 2976 C 271.15 1.97675 3.79617 0
M  V30 2977 C 270.476 1.52943 5.1236 0
M  V30 2978 C 271.776 3.389 3.97422 0
M  V30 2979 H 273.47 2.14586 2.0879 0
M  V30 2980 H 271.016 1.03308 1.00317 0
M  V30 2981 H 272.969 0.821025 4.13324 0
M  V30 2982 H 271.693 -0.0682969 3.26529 0
M  V30 2983 H 270.352 2.05205 3.03787 0
M  V30 2984 H 270 0.54262 5.00065 0
M  V30 2985 H 269.7 2.24532 5.43009 0
M  V30 2986 H 271.224 1.45786 5.92941 0
M  V30 2987 H 272.638 3.34081 4.659 0
M  V30 2988 H 271.035 4.0865 4.3946 0
M  V30 2989 H 272.105 3.80163 3.01006 0
M  V30 2990 N 273.449 -1.08991 1.13837 0
M  V30 2991 C 274.698 -1.80631 0.897509 0
M  V30 2992 C 275.011 -1.86872 -0.57777 0
M  V30 2993 O 276.217 -2.54866 -0.935701 0
M  V30 2994 C 274.673 -3.24517 1.55618 0
M  V30 2995 C 274.281 -3.26529 3.0673 0
M  V30 2996 C 276.025 -4.00882 1.3962 0
M  V30 2997 C 273.932 -4.64965 3.65461 0
M  V30 2998 H 272.862 -0.67691 0.332129 0
M  V30 2999 H 275.513 -1.2246 1.3666 0
M  V30 3000 H 273.895 -3.82778 1.01476 0
M  V30 3001 H 275.069 -2.78008 3.67489 0
M  V30 3002 H 273.384 -2.63656 3.22296 0
M  V30 3003 H 275.981 -5.03167 1.80906 0
M  V30 3004 H 276.324 -4.14896 0.341578 0
M  V30 3005 H 276.857 -3.49075 1.90766 0
M  V30 3006 H 273.596 -4.56153 4.70749 0
M  V30 3007 H 273.116 -5.13792 3.09481 0
M  V30 3008 H 274.795 -5.3394 3.654 0
M  V30 3009 N 274.927 -0.932562 -1.27047 0
M  V30 3010 C 275.837 -0.441219 -2.30414 0
M  V30 3011 C 276.853 0.480525 -1.67233 0
M  V30 3012 O 278.029 0.362151 -1.98117 0
M  V30 3013 C 275.094 0.293651 -3.45454 0
M  V30 3014 C 274.155 -0.663601 -4.2414 0
M  V30 3015 C 273.388 0.0362932 -5.33688 0
M  V30 3016 O 273.611 1.2548 -5.56427 0
M  V30 3017 O 272.545 -0.638015 -5.98509 0
M  V30 3018 H 276.371 -1.29962 -2.74488 0
M  V30 3019 H 273.956 -0.6981 -1.32087 0
M  V30 3020 H 275.838 0.707951 -4.15411 0
M  V30 3021 H 274.513 1.12758 -3.03426 0
M  V30 3022 H 273.42 -1.12768 -3.56699 0
M  V30 3023 H 274.753 -1.46489 -4.69896 0
M  V30 3024 N 276.405 1.4127 -0.698611 0
M  V30 3025 C 277.352 2.30773 -0.0352094 0
M  V30 3026 C 278.322 1.47273 0.768111 0
M  V30 3027 O 279.507 1.76053 0.735524 0
M  V30 3028 C 276.647 3.33346 0.893 0
M  V30 3029 C 275.76 4.31924 0.0809695 0
M  V30 3030 C 274.895 5.21566 1.0071 0
M  V30 3031 C 273.934 6.11811 0.188155 0
M  V30 3032 N 273.071 6.93926 1.06825 0
M  V30 3033 H 277.911 2.86943 -0.804207 0
M  V30 3034 H 275.448 1.4132 -0.408294 0
M  V30 3035 H 277.406 3.91368 1.44523 0
M  V30 3036 H 276.036 2.78719 1.62836 0
M  V30 3037 H 275.088 3.75825 -0.588224 0
M  V30 3038 H 276.4 4.95716 -0.553801 0
M  V30 3039 H 275.554 5.84437 1.62845 0
M  V30 3040 H 274.293 4.58008 1.67572 0
M  V30 3041 H 273.298 5.47986 -0.446254 0
M  V30 3042 H 274.523 6.77425 -0.476716 0
M  V30 3043 H 272.469 6.32973 1.72283 0
M  V30 3044 H 272.386 7.54416 0.489123 0
M  V30 3045 H 273.654 7.61262 1.67632 0
M  V30 3046 N 277.883 0.443576 1.51229 0
M  V30 3047 C 278.83 -0.364716 2.279 0
M  V30 3048 C 279.8 -1.0114 1.31757 0
M  V30 3049 O 280.985 -1.02912 1.60667 0
M  V30 3050 C 278.125 -1.45644 3.12861 0
M  V30 3051 C 277.238 -0.827269 4.24005 0
M  V30 3052 C 276.373 -1.89456 4.96266 0
M  V30 3053 C 275.412 -1.24416 5.99322 0
M  V30 3054 N 274.549 -2.25309 6.64966 0
M  V30 3055 H 279.389 0.295464 2.96532 0
M  V30 3056 H 276.926 0.157554 1.46254 0
M  V30 3057 H 278.884 -2.10076 3.6045 0
M  V30 3058 H 277.514 -2.08616 2.46331 0
M  V30 3059 H 276.566 -0.0710839 3.80334 0
M  V30 3060 H 277.878 -0.312481 4.9782 0
M  V30 3061 H 277.032 -2.61535 5.47434 0
M  V30 3062 H 275.771 -2.4431 4.22095 0
M  V30 3063 H 274.776 -0.508868 5.4744 0
M  V30 3064 H 276.001 -0.702882 6.75453 0
M  V30 3065 H 273.947 -2.79231 5.93604 0
M  V30 3066 H 273.864 -1.78739 7.34567 0
M  V30 3067 H 275.132 -2.96853 7.20763 0
M  V30 3068 N 279.361 -1.56624 0.175154 0
M  V30 3069 C 280.308 -2.18149 -0.753634 0
M  V30 3070 C 281.278 -1.12265 -1.22417 0
M  V30 3071 O 282.463 -1.40432 -1.29165 0
M  V30 3072 C 279.603 -2.82933 -1.97592 0
M  V30 3073 C 278.716 -4.03289 -1.5486 0
M  V30 3074 C 277.851 -4.55988 -2.72485 0
M  V30 3075 C 276.89 -5.68746 -2.26262 0
M  V30 3076 N 276.027 -6.15938 -3.36994 0
M  V30 3077 H 280.867 -2.9717 -0.222195 0
M  V30 3078 H 278.404 -1.46774 -0.0979422 0
M  V30 3079 H 280.362 -3.18653 -2.69288 0
M  V30 3080 H 278.992 -2.06509 -2.481 0
M  V30 3081 H 278.044 -3.73364 -0.728246 0
M  V30 3082 H 279.356 -4.849 -1.16933 0
M  V30 3083 H 278.51 -4.9391 -3.52332 0
M  V30 3084 H 277.249 -3.73443 -3.13674 0
M  V30 3085 H 276.254 -5.30372 -1.44863 0
M  V30 3086 H 277.479 -6.53095 -1.86127 0
M  V30 3087 H 275.425 -5.36321 -3.77751 0
M  V30 3088 H 275.342 -6.92548 -3.03172 0
M  V30 3089 H 276.61 -6.58511 -4.17114 0
M  V30 3090 N 280.839 0.0985539 -1.57292 0
M  V30 3091 C 281.786 1.11981 -2.01814 0
M  V30 3092 C 282.756 1.39999 -0.89384 0
M  V30 3093 O 283.941 1.5152 -1.15958 0
M  V30 3094 C 281.081 2.43577 -2.44467 0
M  V30 3095 C 280.194 2.2232 -3.70402 0
M  V30 3096 C 279.329 3.4729 -4.01949 0
M  V30 3097 C 278.368 3.2128 -5.21005 0
M  V30 3098 N 277.505 4.38507 -5.48321 0
M  V30 3099 H 282.345 0.733149 -2.88841 0
M  V30 3100 H 279.882 0.350482 -1.42864 0
M  V30 3101 H 281.84 3.20373 -2.6724 0
M  V30 3102 H 280.47 2.80097 -1.60455 0
M  V30 3103 H 279.522 1.36343 -3.55126 0
M  V30 3104 H 280.834 1.99089 -4.57345 0
M  V30 3105 H 279.988 4.32495 -4.25479 0
M  V30 3106 H 278.727 3.73572 -3.13521 0
M  V30 3107 H 277.732 2.34468 -4.97298 0
M  V30 3108 H 278.957 2.96348 -6.11028 0
M  V30 3109 H 276.903 4.64871 -4.62851 0
M  V30 3110 H 276.82 4.18455 -6.29628 0
M  V30 3111 H 278.088 5.24787 -5.76385 0
M  V30 3112 N 282.317 1.53212 0.369288 0
M  V30 3113 C 283.594 1.59815 1.12776 0
M  V30 3114 C 283.974 0.403402 2.0721 0
M  V30 3115 O 283.322 -0.606667 2.20299 0
M  V30 3116 C 283.532 2.94664 1.87013 0
M  V30 3117 C 284.88 3.49109 2.41677 0
M  V30 3118 O 285.904 2.96669 1.97144 0
M  V30 3119 O 284.763 4.40775 3.23079 0
M  V30 3120 H 281.857 0.645376 0.517125 0
M  V30 3121 H 284.403 1.65553 0.37285 0
M  V30 3122 H 283.175 3.73061 1.18071 0
M  V30 3123 H 282.798 2.92401 2.69421 0
M  V30 3124 N 283.795 -0.628877 1.44509 0
M  V30 3125 C 285.043 -1.38565 1.4712 0
M  V30 3126 C 285.364 -1.94712 0.105899 0
M  V30 3127 O 284.634 -1.75912 -0.862079 0
M  V30 3128 H 283.214 -0.514333 0.541729 0
M  V30 3129 H 285.876 -0.740018 1.80305 0
M  V30 3130 H 284.972 -2.21583 2.19789 0
M  V30 3131 N 285.273 -1.31445 -0.869486 0
M  V30 3132 C 286.22 -1.19135 -1.97675 0
M  V30 3133 C 287.19 -0.0770266 -1.65921 0
M  V30 3134 O 288.375 -0.249972 -1.89155 0
M  V30 3135 C 285.515 -0.905149 -3.33018 0
M  V30 3136 C 284.628 -2.10285 -3.77365 0
M  V30 3137 C 283.763 -1.75339 -5.01427 0
M  V30 3138 C 282.802 -2.91515 -5.38224 0
M  V30 3139 N 281.939 -2.56762 -6.53466 0
M  V30 3140 H 286.779 -2.13853 -2.07535 0
M  V30 3141 H 284.316 -1.06379 -1.01597 0
M  V30 3142 H 286.274 -0.719765 -4.10944 0
M  V30 3143 H 284.904 0.00519624 -3.228 0
M  V30 3144 H 283.956 -2.39899 -2.95216 0
M  V30 3145 H 285.268 -2.97237 -4.00564 0
M  V30 3146 H 284.422 -1.53266 -5.87022 0
M  V30 3147 H 283.161 -0.855801 -4.80133 0
M  V30 3148 H 282.166 -3.14237 -4.51149 0
M  V30 3149 H 283.391 -3.81985 -5.61484 0
M  V30 3150 H 281.337 -1.69526 -6.33717 0
M  V30 3151 H 281.254 -3.37243 -6.76612 0
M  V30 3152 H 282.522 -2.38083 -7.42251 0
M  V30 3153 N 286.751 1.08385 -1.14413 0
M  V30 3154 C 288.028 1.77429 -0.823297 0
M  V30 3155 C 288.408 1.9974 0.683163 0
M  V30 3156 O 287.756 1.60739 1.62405 0
M  V30 3157 C 287.966 3.09004 -1.62227 0
M  V30 3158 C 289.314 3.83532 -1.82177 0
M  V30 3159 O 290.338 3.18786 -1.58915 0
M  V30 3160 O 289.197 4.99792 -2.21067 0
M  V30 3161 H 286.291 0.769999 -0.301712 0
M  V30 3162 H 288.837 1.14846 -1.24934 0
M  V30 3163 H 287.609 2.88316 -2.64555 0
M  V30 3164 H 287.232 3.79316 -1.19187 0
M  V30 3165 N 288.23 0.939286 1.26551 0
M  V30 3166 C 289.479 0.581601 1.93133 0
M  V30 3167 C 289.792 -0.883224 1.74524 0
M  V30 3168 O 290.998 -1.3502 2.35546 0
M  V30 3169 C 289.454 0.989425 3.46032 0
M  V30 3170 C 289.062 2.47573 3.73379 0
M  V30 3171 C 290.806 0.703544 4.18629 0
M  V30 3172 C 288.713 2.82235 5.19709 0
M  V30 3173 H 287.643 0.213803 0.723052 0
M  V30 3174 H 290.294 1.14167 1.4366 0
M  V30 3175 H 288.676 0.357902 3.94379 0
M  V30 3176 H 289.85 3.15614 3.35744 0
M  V30 3177 H 288.165 2.73471 3.1401 0
M  V30 3178 H 290.762 0.938869 5.26393 0
M  V30 3179 H 291.105 -0.359639 4.14744 0
M  V30 3180 H 291.638 1.2947 3.76141 0
M  V30 3181 H 288.377 3.87509 5.28694 0
M  V30 3182 H 287.897 2.18854 5.58447 0
M  V30 3183 H 289.576 2.70599 5.87695 0
M  V30 3184 N 289.708 -1.40897 0.706093 0
M  V30 3185 C 290.64 -2.29199 0.00815776 0
M  V30 3186 C 291.653 -1.45336 -0.733582 0
M  V30 3187 O 292.842 -1.68727 -0.582537 0
M  V30 3188 C 289.942 -3.23417 -1.01265 0
M  V30 3189 C 289.115 -4.36089 -0.338387 0
M  V30 3190 C 288.174 -5.10811 -1.26326 0
M  V30 3191 O 287.2 -5.64215 -0.751651 0
M  V30 3192 N 288.402 -5.19269 -2.595 0
M  V30 3193 H 291.167 -2.89738 0.766297 0
M  V30 3194 H 288.728 -1.52164 0.55296 0
M  V30 3195 H 290.72 -3.70276 -1.63334 0
M  V30 3196 H 289.29 -2.64112 -1.67223 0
M  V30 3197 H 288.51 -3.91479 0.462352 0
M  V30 3198 H 289.798 -5.08634 0.130031 0
M  V30 3199 H 289.196 -4.77347 -3.03573 0
M  V30 3200 H 287.753 -5.69667 -3.16737 0
M  V30 3201 N 291.186 -0.45159 -1.50991 0
M  V30 3202 C 292.116 0.342898 -2.30969 0
M  V30 3203 C 293.097 1.00815 -1.37005 0
M  V30 3204 O 294.282 1.00907 -1.65926 0
M  V30 3205 C 291.412 1.43637 -3.16205 0
M  V30 3206 C 290.366 0.893818 -4.18563 0
M  V30 3207 C 289.692 2.08411 -4.92411 0
M  V30 3208 C 290.992 -0.0815568 -5.22236 0
M  V30 3209 H 292.686 -0.324556 -2.97636 0
M  V30 3210 H 290.232 -0.157531 -1.43136 0
M  V30 3211 H 292.185 1.9995 -3.70942 0
M  V30 3212 H 290.909 2.13232 -2.47386 0
M  V30 3213 H 289.568 0.352798 -3.64898 0
M  V30 3214 H 289.216 2.76658 -4.20082 0
M  V30 3215 H 288.916 1.72741 -5.61636 0
M  V30 3216 H 290.44 2.65251 -5.49976 0
M  V30 3217 H 291.854 0.391742 -5.7196 0
M  V30 3218 H 290.251 -0.351551 -5.99069 0
M  V30 3219 H 291.321 -1.01374 -4.74185 0
M  V30 3220 N 292.664 1.56529 -0.183458 0
M  V30 3221 C 293.892 2.01623 0.464285 0
M  V30 3222 C 294.307 1.06366 1.55986 0
M  V30 3223 O 293.664 0.0665398 1.82379 0
M  V30 3224 C 293.715 3.46475 1.03139 0
M  V30 3225 O 293.436 4.38095 -0.0204675 0
M  V30 3226 C 294.937 4.0703 1.75617 0
M  V30 3227 H 292.157 0.660596 0.117704 0
M  V30 3228 H 294.701 2.02451 -0.288751 0
M  V30 3229 H 292.856 3.46383 1.73486 0
M  V30 3230 H 293.27 5.22973 0.399952 0
M  V30 3231 H 294.744 5.10271 2.10542 0
M  V30 3232 H 295.221 3.49819 2.65563 0
M  V30 3233 H 295.827 4.1086 1.09882 0
M  V30 3234 N 294.142 -0.090211 1.57342 0
M  V30 3235 C 295.391 -0.791531 1.8552 0
M  V30 3236 C 295.704 -1.79659 0.773441 0
M  V30 3237 O 296.91 -2.54616 0.942497 0
M  V30 3238 C 295.366 -1.45856 3.2902 0
M  V30 3239 C 294.974 -0.493017 4.45279 0
M  V30 3240 C 296.718 -2.14332 3.66418 0
M  V30 3241 C 294.625 -1.16491 5.79814 0
M  V30 3242 H 293.555 -0.299356 0.692027 0
M  V30 3243 H 296.206 -0.0445343 1.83446 0
M  V30 3244 H 294.588 -2.25318 3.2565 0
M  V30 3245 H 295.762 0.270464 4.60006 0
M  V30 3246 H 294.077 0.0863061 4.16311 0
M  V30 3247 H 296.674 -2.65344 4.64216 0
M  V30 3248 H 297.017 -2.93447 2.95287 0
M  V30 3249 H 297.55 -1.41724 3.71698 0
M  V30 3250 H 294.289 -0.41447 6.54188 0
M  V30 3251 H 293.809 -1.8997 5.68921 0
M  V30 3252 H 295.488 -1.69001 6.24538 0
M  V30 3253 N 295.62 -1.53406 -0.361157 0
M  V30 3254 C 296.897 -1.60411 -1.11927 0
M  V30 3255 C 297.277 -0.414385 -2.06993 0
M  V30 3256 O 296.625 0.594976 -2.20618 0
M  V30 3257 C 296.835 -2.95652 -1.85448 0
M  V30 3258 C 298.183 -3.50386 -2.39823 0
M  V30 3259 O 299.207 -2.97711 -1.95568 0
M  V30 3260 O 298.066 -4.42482 -3.20737 0
M  V30 3261 H 295.16 -0.64811 -0.513695 0
M  V30 3262 H 297.706 -1.65749 -0.364065 0
M  V30 3263 H 296.478 -3.73682 -1.16091 0
M  V30 3264 H 296.101 -2.93825 -2.67866 0
M  V30 3265 N 297.098 0.621204 -1.44841 0
M  V30 3266 C 298.061 1.71459 -1.521 0
M  V30 3267 C 299.061 1.55696 -0.401933 0
M  V30 3268 O 300.251 1.61011 -0.664925 0
M  V30 3269 C 297.383 3.10624 -1.40447 0
M  V30 3270 H 298.576 1.66394 -2.49506 0
M  V30 3271 H 296.129 0.835745 -1.3208 0
M  V30 3272 H 296.864 3.21277 -0.441737 0
M  V30 3273 H 296.649 3.23473 -2.21602 0
M  V30 3274 H 298.139 3.90293 -1.4853 0
M  V30 3275 N 298.576 1.31904 0.862503 0
M  V30 3276 C 299.523 1.20182 1.9704 0
M  V30 3277 C 300.493 0.0858247 1.65878 0
M  V30 3278 O 301.678 0.26 1.8902 0
M  V30 3279 C 298.818 0.922797 3.32533 0
M  V30 3280 C 297.931 2.12284 3.76244 0
M  V30 3281 C 297.066 1.77996 5.00491 0
M  V30 3282 C 296.105 2.94366 5.36671 0
M  V30 3283 N 295.242 2.60223 6.52095 0
M  V30 3284 H 300.082 2.14951 2.06398 0
M  V30 3285 H 297.619 1.06917 1.01031 0
M  V30 3286 H 299.577 0.741548 4.10557 0
M  V30 3287 H 298.207 0.0119227 3.22798 0
M  V30 3288 H 297.259 2.41461 2.9394 0
M  V30 3289 H 298.571 2.99357 3.98982 0
M  V30 3290 H 297.725 1.56377 5.862 0
M  V30 3291 H 296.464 0.881252 4.79672 0
M  V30 3292 H 295.469 3.16625 4.49476 0
M  V30 3293 H 296.694 3.84957 5.59451 0
M  V30 3294 H 294.64 1.72884 6.32809 0
M  V30 3295 H 294.557 3.40827 6.74814 0
M  V30 3296 H 295.825 2.42016 7.40978 0
M  V30 3297 N 300.054 -1.07777 1.14986 0
M  V30 3298 C 301.3 -1.80557 0.923422 0
M  V30 3299 C 301.633 -1.86298 -0.548337 0
M  V30 3300 O 300.908 -1.34354 -1.40639 0
M  V30 3301 C 301.191 -3.25839 1.53299 0
M  V30 3302 C 301.044 -3.28269 3.07505 0
M  V30 3303 C 302.363 -4.22991 1.21518 0
M  V30 3304 H 299.482 -0.655493 0.336894 0
M  V30 3305 H 302.124 -1.26144 1.42083 0
M  V30 3306 H 300.274 -3.72306 1.10999 0
M  V30 3307 H 301.946 -2.90079 3.58681 0
M  V30 3308 H 300.189 -2.67355 3.4162 0
M  V30 3309 H 300.86 -4.30691 3.45266 0
M  V30 3310 H 303.336 -3.84894 1.581 0
M  V30 3311 H 302.212 -5.22945 1.66793 0
M  V30 3312 H 302.473 -4.41904 0.131505 0
M  V30 3313 N 301.532 -0.945985 -1.26051 0
M  V30 3314 C 302.464 -0.416662 -2.25381 0
M  V30 3315 C 303.477 0.462712 -1.56086 0
M  V30 3316 O 304.666 0.272383 -1.7641 0
M  V30 3317 C 301.766 0.419812 -3.3629 0
M  V30 3318 C 300.939 -0.444531 -4.35135 0
M  V30 3319 C 299.998 0.332305 -5.2515 0
M  V30 3320 O 299.024 -0.266324 -5.68577 0
M  V30 3321 N 300.226 1.62763 -5.57215 0
M  V30 3322 H 302.991 -1.27059 -2.71433 0
M  V30 3323 H 300.552 -0.815392 -1.39868 0
M  V30 3324 H 302.544 0.947013 -3.93464 0
M  V30 3325 H 301.114 1.17456 -2.89694 0
M  V30 3326 H 300.334 -1.15291 -3.76964 0
M  V30 3327 H 301.622 -1.03478 -4.98166 0
M  V30 3328 H 301.02 2.13603 -5.23823 0
M  V30 3329 H 299.577 2.10097 -6.17011 0
M  V30 3330 N 303.011 1.40521 -0.713556 0
M  V30 3331 C 303.958 2.30723 -0.059684 0
M  V30 3332 C 304.928 1.48079 0.752448 0
M  V30 3333 O 306.113 1.76823 0.71681 0
M  V30 3334 C 303.253 3.34274 0.857594 0
M  V30 3335 C 302.366 4.31986 0.0351536 0
M  V30 3336 C 301.501 5.22605 0.951724 0
M  V30 3337 C 300.54 6.11976 0.123253 0
M  V30 3338 N 299.677 6.9502 0.99459 0
M  V30 3339 H 304.517 2.86074 -0.834596 0
M  V30 3340 H 302.054 1.40879 -0.42326 0
M  V30 3341 H 304.012 3.92879 1.40364 0
M  V30 3342 H 302.642 2.8043 1.59871 0
M  V30 3343 H 301.694 3.7518 -0.628052 0
M  V30 3344 H 303.006 4.95101 -0.606347 0
M  V30 3345 H 302.16 5.86131 1.56638 0
M  V30 3346 H 300.899 4.59759 1.62705 0
M  V30 3347 H 299.904 5.47482 -0.50435 0
M  V30 3348 H 301.129 6.76881 -0.548539 0
M  V30 3349 H 299.075 6.34764 1.6556 0
M  V30 3350 H 298.992 7.54892 0.40908 0
M  V30 3351 H 300.26 7.62997 1.59549 0
M  V30 3352 N 304.489 0.459591 1.5075 0
M  V30 3353 C 305.714 -0.0996819 2.0716 0
M  V30 3354 C 306.139 -1.33761 1.32249 0
M  V30 3355 O 305.497 -1.77551 0.366786 0
M  V30 3356 C 305.545 -0.378226 3.58611 0
M  V30 3357 O 304.649 -1.46081 3.85661 0
M  V30 3358 H 303.99 0.00791392 0.663953 0
M  V30 3359 H 306.52 0.647329 1.9409 0
M  V30 3360 H 306.53 -0.622135 4.03229 0
M  V30 3361 H 305.205 0.526439 4.12555 0
M  V30 3362 H 303.782 -1.20511 3.5289 0
M  V30 3363 N 305.967 -1.56429 0.191757 0
M  V30 3364 C 307.216 -1.9666 -0.448088 0
M  V30 3365 C 307.529 -1.08136 -1.62991 0
M  V30 3366 O 308.735 -1.38135 -2.33733 0
M  V30 3367 C 307.191 -3.49753 -0.848585 0
M  V30 3368 C 306.799 -4.46935 0.308764 0
M  V30 3369 C 308.543 -3.9876 -1.4557 0
M  V30 3370 C 306.45 -5.91293 -0.112506 0
M  V30 3371 H 305.38 -0.734312 -0.171179 0
M  V30 3372 H 308.031 -1.81301 0.283242 0
M  V30 3373 H 306.413 -3.60604 -1.63649 0
M  V30 3374 H 307.587 -4.47813 1.08627 0
M  V30 3375 H 305.902 -4.08102 0.827158 0
M  V30 3376 H 308.499 -5.04086 -1.78328 0
M  V30 3377 H 308.842 -3.42875 -2.36099 0
M  V30 3378 H 309.375 -3.9101 -0.731836 0
M  V30 3379 H 306.114 -6.51097 0.758514 0
M  V30 3380 H 305.634 -5.93676 -0.854941 0
M  V30 3381 H 307.313 -6.44663 -0.549448 0
M  V30 3382 N 307.445 0.0818655 -1.57387 0
M  V30 3383 C 308.675 0.794954 -1.90694 0
M  V30 3384 C 309.083 1.72147 -0.784982 0
M  V30 3385 O 308.426 1.81974 0.251196 0
M  V30 3386 C 308.488 1.65042 -3.19376 0
M  V30 3387 C 308.152 0.894337 -4.48164 0
M  V30 3388 C 309.149 0.21813 -5.19442 0
M  V30 3389 C 306.834 0.864495 -4.94805 0
M  V30 3390 C 308.828 -0.477802 -6.35607 0
M  V30 3391 C 306.515 0.164785 -6.10878 0
M  V30 3392 C 307.513 -0.505173 -6.81129 0
M  V30 3393 O 307.201 -1.19363 -7.94989 0
M  V30 3394 H 306.933 0.231779 -0.635023 0
M  V30 3395 H 309.487 0.059493 -2.05314 0
M  V30 3396 H 307.717 2.42844 -3.00938 0
M  V30 3397 H 309.406 2.24127 -3.38411 0
M  V30 3398 H 310.172 0.232558 -4.84442 0
M  V30 3399 H 306.051 1.37542 -4.40004 0
M  V30 3400 H 309.595 -1.00129 -6.90377 0
M  V30 3401 H 305.492 0.148249 -6.4533 0
M  V30 3402 H 306.26 -1.10188 -8.11049 0
M  V30 3403 N 308.923 1.53595 0.353017 0
M  V30 3404 C 309.871 1.81605 1.45335 0
M  V30 3405 C 310.865 0.685923 1.54892 0
M  V30 3406 O 312.071 0.869095 1.57628 0
M  V30 3407 H 308.446 0.575204 0.484401 0
M  V30 3408 H 310.417 2.73679 1.18921 0
M  V30 3409 C 309.166 2.03406 2.81995 0
M  V30 3410 H 308.489 2.89814 2.75405 0
M  V30 3411 H 309.929 2.26975 3.58132 0
M  V30 3412 C 308.388 0.816794 3.26849 0
M  V30 3413 O 308.918 0.0115856 4.01698 0
M  V30 3414 N 307.124 0.636682 2.8354 0
M  V30 3415 H 306.671 1.2931 2.22793 0
M  V30 3416 H 306.629 -0.176336 3.13905 0
M  V30 3417 N 310.401 -0.613514 1.45168 0
M  V30 3418 C 311.349 -1.74572 1.53712 0
M  V30 3419 C 312.343 -1.64426 0.407505 0
M  V30 3420 O 313.549 -1.70291 0.583176 0
M  V30 3421 H 309.924 -0.576641 0.48269 0
M  V30 3422 H 311.895 -1.64492 2.48968 0
M  V30 3423 C 310.644 -3.12943 1.51532 0
M  V30 3424 H 309.967 -3.21407 2.37776 0
M  V30 3425 H 311.407 -3.9201 1.61569 0
M  V30 3426 C 309.866 -3.36053 0.238798 0
M  V30 3427 O 310.396 -3.95837 -0.6838 0
M  V30 3428 N 308.602 -2.9028 0.136359 0
M  V30 3429 H 308.149 -2.41811 0.887999 0
M  V30 3430 H 308.107 -3.06116 -0.716944 0
M  V30 3431 N 311.879 -1.3236 -0.855495 0
M  V30 3432 C 312.812 -1.15559 -1.96777 0
M  V30 3433 C 313.79 -0.0552681 -1.62506 0
M  V30 3434 O 314.974 -0.214419 -1.87277 0
M  V30 3435 C 312.101 -0.768851 -3.29858 0
M  V30 3436 C 311.147 -1.87429 -3.83109 0
M  V30 3437 S 311.98 -3.48243 -4.06801 0
M  V30 3438 C 313.136 -3.11539 -5.42858 0
M  V30 3439 H 313.369 -2.09717 -2.10727 0
M  V30 3440 H 310.902 -1.17011 -1.00737 0
M  V30 3441 H 312.86 -0.55248 -4.06765 0
M  V30 3442 H 311.521 0.153857 -3.13723 0
M  V30 3443 H 310.714 -1.55667 -4.79358 0
M  V30 3444 H 310.316 -2.04647 -3.13042 0
M  V30 3445 H 312.608 -2.61331 -6.2507 0
M  V30 3446 H 313.551 -4.06806 -5.79582 0
M  V30 3447 H 313.959 -2.48582 -5.06821 0
M  V30 3448 N 313.357 1.07166 -1.15556 0
M  V30 3449 C 314.304 2.14417 -0.854055 0
M  V30 3450 C 315.274 1.64965 0.193806 0
M  V30 3451 O 316.459 1.90703 0.0609443 0
M  V30 3452 C 313.599 3.43304 -0.351574 0
M  V30 3453 C 312.712 4.06537 -1.46123 0
M  V30 3454 C 311.847 5.23266 -0.914677 0
M  V30 3455 C 310.886 5.78464 -2.00114 0
M  V30 3456 N 310.023 6.86521 -1.47083 0
M  V30 3457 H 314.863 2.39548 -1.77259 0
M  V30 3458 H 312.4 1.17543 -0.884425 0
M  V30 3459 H 314.358 4.17179 -0.0419409 0
M  V30 3460 H 312.988 3.18419 0.530037 0
M  V30 3461 H 312.04 3.30297 -1.88701 0
M  V30 3462 H 313.352 4.43567 -2.28144 0
M  V30 3463 H 312.506 6.04131 -0.557698 0
M  V30 3464 H 311.245 4.87658 -0.0636583 0
M  V30 3465 H 310.25 4.96243 -2.36692 0
M  V30 3466 H 311.475 6.16126 -2.85597 0
M  V30 3467 H 309.421 6.52849 -0.642198 0
M  V30 3468 H 309.338 7.22446 -2.22729 0
M  V30 3469 H 310.606 7.71087 -1.14215 0
M  V30 3470 N 314.835 0.952656 1.25548 0
M  V30 3471 C 315.783 0.462354 2.27958 0
M  V30 3472 C 316.777 -0.46634 1.62855 0
M  V30 3473 O 317.983 -0.343287 1.76696 0
M  V30 3474 H 314.358 0.13101 0.7405 0
M  V30 3475 H 316.329 1.33839 2.66702 0
M  V30 3476 C 315.078 -0.24628 3.46827 0
M  V30 3477 H 314.401 0.459192 3.97154 0
M  V30 3478 H 315.841 -0.553393 4.20373 0
M  V30 3479 C 314.3 -1.4681 3.0323 0
M  V30 3480 O 314.83 -2.56591 3.09069 0
M  V30 3481 N 313.036 -1.32874 2.58443 0
M  V30 3482 H 312.583 -0.435536 2.53891 0
M  V30 3483 H 312.541 -2.14742 2.29637 0
M  V30 3484 N 316.313 -1.40141 0.720998 0
M  V30 3485 C 317.59 -1.94677 0.189757 0
M  V30 3486 C 317.97 -1.65879 -1.30566 0
M  V30 3487 O 317.318 -0.979391 -2.06447 0
M  V30 3488 C 317.528 -3.45279 0.508304 0
M  V30 3489 C 318.876 -4.22209 0.449934 0
M  V30 3490 O 319.9 -3.53413 0.444677 0
M  V30 3491 O 318.759 -5.44788 0.432189 0
M  V30 3492 H 315.853 -0.826459 0.0299026 0
M  V30 3493 H 318.399 -1.49719 0.7989 0
M  V30 3494 H 317.171 -3.59619 1.54239 0
M  V30 3495 H 316.794 -3.97386 -0.130525 0
M  V30 3496 N 317.792 -0.46758 -1.50504 0
M  V30 3497 C 319.022 0.086288 -2.0642 0
M  V30 3498 C 319.43 1.34369 -1.33197 0
M  V30 3499 O 318.773 1.79431 -0.393747 0
M  V30 3500 C 318.835 0.443846 -3.5675 0
M  V30 3501 C 318.499 -0.711035 -4.51435 0
M  V30 3502 C 319.496 -1.59205 -4.94924 0
M  V30 3503 C 317.181 -0.900363 -4.94165 0
M  V30 3504 C 319.175 -2.64683 -5.79846 0
M  V30 3505 C 316.862 -1.95837 -5.7887 0
M  V30 3506 C 317.86 -2.82997 -6.21612 0
M  V30 3507 O 317.548 -3.86977 -7.0463 0
M  V30 3508 H 317.28 -0.00217814 -0.675996 0
M  V30 3509 H 319.834 -0.654346 -1.94698 0
M  V30 3510 H 318.064 1.23762 -3.6636 0
M  V30 3511 H 319.753 0.932386 -3.95046 0
M  V30 3512 H 320.519 -1.45745 -4.62583 0
M  V30 3513 H 316.398 -0.231427 -4.60419 0
M  V30 3514 H 319.942 -3.32745 -6.13128 0
M  V30 3515 H 315.839 -2.09305 -6.10624 0
M  V30 3516 H 316.607 -3.83923 -7.22873 0
M  V30 3517 N 319.27 1.56325 -0.20005 0
M  V30 3518 C 320.518 1.97329 0.436547 0
M  V30 3519 C 320.839 1.08826 1.61808 0
M  V30 3520 O 320.109 0.160604 1.95241 0
M  V30 3521 H 318.689 0.728714 0.164272 0
M  V30 3522 H 321.351 1.92761 -0.287937 0
M  V30 3523 H 320.447 3.02264 0.777353 0
M  V30 3524 N 320.748 -0.0735177 1.57428 0
M  V30 3525 C 321.973 -0.789787 1.91774 0
M  V30 3526 C 322.398 -1.70413 0.796306 0
M  V30 3527 O 321.756 -1.79555 -0.250961 0
M  V30 3528 C 321.804 -1.5609 3.25067 0
M  V30 3529 O 320.908 -2.67144 3.14178 0
M  V30 3530 H 320.249 -0.215582 0.628029 0
M  V30 3531 H 322.779 -0.0422781 2.04556 0
M  V30 3532 H 322.789 -1.94052 3.58898 0
M  V30 3533 H 321.464 -0.890015 4.06265 0
M  V30 3534 H 320.041 -2.32052 2.91901 0
M  V30 3535 N 322.226 -1.5378 -0.344866 0
M  V30 3536 C 323.474 -1.70625 -1.08311 0
M  V30 3537 C 323.795 -0.471447 -1.89215 0
M  V30 3538 O 323.065 0.514616 -1.8902 0
M  V30 3539 H 321.645 -0.629058 -0.402859 0
M  V30 3540 H 324.307 -1.9103 -0.386459 0
M  V30 3541 H 323.403 -2.57656 -1.76124 0
M  V30 3542 N 323.704 0.605807 -1.45491 0
M  V30 3543 C 324.932 1.39136 -1.5313 0
M  V30 3544 C 325.347 1.88082 -0.164507 0
M  V30 3545 O 324.704 1.62316 0.834247 0
M  V30 3546 C 324.755 2.59463 -2.51716 0
M  V30 3547 O 324.476 2.12551 -3.83084 0
M  V30 3548 C 325.977 3.52301 -2.6907 0
M  V30 3549 H 323.197 0.425849 -0.51855 0
M  V30 3550 H 325.741 0.73865 -1.90694 0
M  V30 3551 H 323.896 3.20772 -2.17219 0
M  V30 3552 H 324.31 2.90744 -4.36541 0
M  V30 3553 H 325.784 4.33271 -3.42024 0
M  V30 3554 H 326.261 4.02757 -1.75167 0
M  V30 3555 H 326.867 2.96845 -3.04571 0
M  V30 3556 N 325.182 1.32811 0.848464 0
M  V30 3557 C 326.145 1.22194 1.9391 0
M  V30 3558 C 327.145 0.143404 1.60159 0
M  V30 3559 O 328.335 0.394253 1.6968 0
M  V30 3560 C 325.467 0.88067 3.29328 0
M  V30 3561 H 326.66 2.19127 2.04752 0
M  V30 3562 H 324.213 1.16731 1.0394 0
M  V30 3563 H 324.948 -0.0865776 3.24184 0
M  V30 3564 H 324.733 1.66052 3.55203 0
M  V30 3565 H 326.223 0.830871 4.09251 0
M  V30 3566 N 326.66 -1.06551 1.16123 0
M  V30 3567 C 327.909 -1.78687 0.935622 0
M  V30 3568 C 328.222 -1.88056 -0.538001 0
M  V30 3569 O 329.428 -2.56794 -0.88143 0
M  V30 3570 C 327.884 -3.21143 1.62466 0
M  V30 3571 C 327.492 -3.19949 3.13587 0
M  V30 3572 C 329.236 -3.9783 1.48092 0
M  V30 3573 C 327.143 -4.57108 3.75241 0
M  V30 3574 H 326.073 -0.669712 0.346412 0
M  V30 3575 H 328.724 -1.19534 1.39226 0
M  V30 3576 H 327.106 -3.80539 1.09572 0
M  V30 3577 H 328.28 -2.70151 3.73303 0
M  V30 3578 H 326.595 -2.5676 3.27816 0
M  V30 3579 H 329.192 -4.99217 1.91538 0
M  V30 3580 H 329.535 -4.14078 0.429507 0
M  V30 3581 H 330.068 -3.4495 1.98127 0
M  V30 3582 H 326.807 -4.46065 4.80319 0
M  V30 3583 H 326.327 -5.07111 3.20309 0
M  V30 3584 H 328.006 -5.26069 3.76644 0
M  V30 3585 N 328.138 -0.959301 -1.25041 0
M  V30 3586 C 329.088 -0.453888 -2.23436 0
M  V30 3587 C 330.072 0.459461 -1.542 0
M  V30 3588 O 331.264 0.291752 -1.74579 0
M  V30 3589 C 328.393 0.262667 -3.42294 0
M  V30 3590 C 327.479 -0.669022 -4.1879 0
M  V30 3591 N 327.87 -1.80267 -4.72586 0
M  V30 3592 C 326.168 -0.47814 -4.4343 0
M  V30 3593 C 326.869 -2.38475 -5.3057 0
M  V30 3594 N 325.845 -1.67078 -5.17287 0
M  V30 3595 H 329.647 -1.319 -2.6264 0
M  V30 3596 H 327.161 -0.817358 -1.40332 0
M  V30 3597 H 329.158 0.641911 -4.11929 0
M  V30 3598 H 327.818 1.12432 -3.04613 0
M  V30 3599 H 328.829 -2.18442 -4.69578 0
M  V30 3600 H 325.506 0.340249 -4.16111 0
M  V30 3601 H 326.896 -3.34094 -5.8295 0
M  V30 3602 N 329.616 1.39756 -0.72842 0
M  V30 3603 C 331.027 1.83498 -0.344289 0
M  V30 3604 C 331.378 1.60868 1.12321 0
M  V30 3605 O 330.503 1.09634 1.86573 0
M  V30 3606 C 331.098 3.33114 -0.618112 0
M  V30 3607 C 329.657 3.753 -0.287549 0
M  V30 3608 C 328.804 2.62831 -0.884048 0
M  V30 3609 H 331.755 1.28842 -0.926578 0
M  V30 3610 H 331.776 3.80334 0.112349 0
M  V30 3611 H 331.288 3.49553 -1.68625 0
M  V30 3612 H 329.389 3.64451 0.775012 0
M  V30 3613 H 329.502 4.72945 -0.765512 0
M  V30 3614 H 327.866 2.52792 -0.311149 0
M  V30 3615 H 328.649 2.82078 -1.95671 0
M  V30 3616 N 331.094 0.475555 1.50254 0
M  V30 3617 C 332.026 -0.352649 2.26471 0
M  V30 3618 C 333.039 -0.953165 1.3198 0
M  V30 3619 O 334.228 -0.840815 1.57457 0
M  V30 3620 C 331.328 -1.50902 3.0345 0
M  V30 3621 C 330.501 -1.02047 4.25329 0
M  V30 3622 C 329.56 -2.05142 4.84565 0
M  V30 3623 O 328.586 -1.63023 5.45355 0
M  V30 3624 N 329.788 -3.37987 4.71959 0
M  V30 3625 H 332.553 0.300767 2.98187 0
M  V30 3626 H 330.114 0.306598 1.5897 0
M  V30 3627 H 332.106 -2.19572 3.39956 0
M  V30 3628 H 330.676 -2.06705 2.34504 0
M  V30 3629 H 329.896 -0.159507 3.93877 0
M  V30 3630 H 331.184 -0.672061 5.04342 0
M  V30 3631 H 330.582 -3.74913 4.23623 0
M  V30 3632 H 329.139 -4.02443 5.12721 0
M  V30 3633 N 332.573 -1.56217 0.208337 0
M  V30 3634 C 333.801 -2.02337 -0.43215 0
M  V30 3635 C 334.216 -1.08834 -1.54275 0
M  V30 3636 O 333.573 -0.0955462 -1.8225 0
M  V30 3637 C 333.624 -3.48072 -0.976138 0
M  V30 3638 O 333.345 -4.38007 0.0901621 0
M  V30 3639 C 334.846 -4.09773 -1.69119 0
M  V30 3640 H 332.066 -0.662385 -0.10718 0
M  V30 3641 H 334.61 -2.01966 0.320923 0
M  V30 3642 H 332.765 -3.49099 -1.67954 0
M  V30 3643 H 333.179 -5.23543 -0.316701 0
M  V30 3644 H 334.653 -5.13556 -2.02397 0
M  V30 3645 H 335.13 -3.53999 -2.59964 0
M  V30 3646 H 335.736 -4.12556 -1.03332 0
M  V30 3647 N 334.051 0.0651679 -1.57465 0
M  V30 3648 C 335.299 0.761555 -1.87202 0
M  V30 3649 C 335.62 1.77778 -0.801243 0
M  V30 3650 O 334.89 1.95166 0.16937 0
M  V30 3651 H 333.47 0.284251 -0.690804 0
M  V30 3652 H 336.132 0.0396827 -1.9486 0
M  V30 3653 H 335.228 1.27365 -2.84929 0
M  V30 3654 N 335.529 1.53961 0.336706 0
M  V30 3655 C 336.439 1.85432 1.43708 0
M  V30 3656 C 337.455 0.745053 1.57242 0
M  V30 3657 O 338.631 1.03804 1.72588 0
M  V30 3658 C 335.696 2.06349 2.78605 0
M  V30 3659 C 334.757 3.30191 2.74358 0
M  V30 3660 C 333.99 3.50101 4.02822 0
M  V30 3661 O 334.213 2.7371 5.00439 0
M  V30 3662 O 333.147 4.43547 4.06878 0
M  V30 3663 H 336.973 2.78975 1.20028 0
M  V30 3664 H 334.558 1.39701 0.52952 0
M  V30 3665 H 336.44 2.21513 3.58483 0
M  V30 3666 H 335.115 1.15995 3.02203 0
M  V30 3667 H 334.022 3.20425 1.93078 0
M  V30 3668 H 335.355 4.2056 2.55715 0
M  V30 3669 N 337.007 -0.598083 1.45811 0
M  V30 3670 C 337.937 -1.71873 1.58057 0
M  V30 3671 C 338.918 -1.64533 0.431615 0
M  V30 3672 O 340.103 -1.82787 0.65595 0
M  V30 3673 C 337.233 -3.10495 1.55597 0
M  V30 3674 C 336.187 -3.32654 2.69305 0
M  V30 3675 C 335.513 -4.71646 2.51902 0
M  V30 3676 C 336.813 -3.21981 4.11248 0
M  V30 3677 H 338.507 -1.61881 2.51863 0
M  V30 3678 H 336.053 -0.777372 1.21214 0
M  V30 3679 H 338.006 -3.88699 1.6276 0
M  V30 3680 H 336.73 -3.2135 0.583255 0
M  V30 3681 H 335.389 -2.56843 2.61586 0
M  V30 3682 H 335.037 -4.79246 1.52748 0
M  V30 3683 H 334.737 -4.87426 3.2816 0
M  V30 3684 H 336.261 -5.52038 2.60933 0
M  V30 3685 H 337.675 -3.90049 4.20161 0
M  V30 3686 H 336.072 -3.49289 4.87972 0
M  V30 3687 H 337.142 -2.1928 4.32486 0
M  V30 3688 N 338.485 -1.33259 -0.841409 0
M  V30 3689 C 339.415 -1.25926 -1.96634 0
M  V30 3690 C 340.396 -0.140349 -1.6952 0
M  V30 3691 O 341.581 -0.329707 -1.91381 0
M  V30 3692 C 338.711 -0.99512 -3.32738 0
M  V30 3693 C 337.665 -2.0767 -3.74242 0
M  V30 3694 C 336.991 -1.66474 -5.08125 0
M  V30 3695 C 338.291 -3.49318 -3.88297 0
M  V30 3696 H 339.985 -2.20046 -2.03027 0
M  V30 3697 H 337.531 -1.05931 -0.975425 0
M  V30 3698 H 339.484 -0.930323 -4.11002 0
M  V30 3699 H 338.208 -0.0183004 -3.26595 0
M  V30 3700 H 336.867 -2.13187 -2.98239 0
M  V30 3701 H 336.515 -0.675012 -4.9845 0
M  V30 3702 H 336.215 -2.3885 -5.36865 0
M  V30 3703 H 337.739 -1.61455 -5.88867 0
M  V30 3704 H 339.153 -3.46316 -4.56879 0
M  V30 3705 H 337.55 -4.20158 -4.28471 0
M  V30 3706 H 338.62 -3.8801 -2.9082 0
M  V30 3707 N 339.963 1.05934 -1.16686 0
M  V30 3708 C 340.926 2.11669 -0.879144 0
M  V30 3709 C 341.926 1.60294 0.127445 0
M  V30 3710 O 343.116 1.7389 -0.103865 0
M  V30 3711 C 340.248 3.39438 -0.315425 0
M  V30 3712 H 341.441 2.38626 -1.81653 0
M  V30 3713 H 338.994 1.22058 -0.976299 0
M  V30 3714 H 339.729 3.18132 0.629468 0
M  V30 3715 H 339.514 3.78034 -1.04079 0
M  V30 3716 H 341.004 4.17391 -0.132189 0
M  V30 3717 N 341.441 0.965919 1.2453 0
M  V30 3718 C 342.371 0.513476 2.27784 0
M  V30 3719 C 343.352 -0.445974 1.6415 0
M  V30 3720 O 344.537 -0.342485 1.91156 0
M  V30 3721 C 341.667 -0.198839 3.4673 0
M  V30 3722 C 340.621 0.676456 4.2262 0
M  V30 3723 C 339.947 -0.167248 5.34438 0
M  V30 3724 C 341.247 1.96017 4.84123 0
M  V30 3725 H 342.941 1.3765 2.65881 0
M  V30 3726 H 340.487 0.663321 1.27813 0
M  V30 3727 H 342.44 -0.526567 4.18097 0
M  V30 3728 H 341.164 -1.0962 3.07654 0
M  V30 3729 H 339.823 0.98743 3.53052 0
M  V30 3730 H 339.471 -1.0647 4.91603 0
M  V30 3731 H 339.171 0.415181 5.86131 0
M  V30 3732 H 340.695 -0.489688 6.08633 0
M  V30 3733 H 342.109 1.69814 5.47573 0
M  V30 3734 H 340.506 2.48918 5.4604 0
M  V30 3735 H 341.576 2.65622 4.05676 0
M  V30 3736 N 342.919 -1.39368 0.735821 0
M  V30 3737 C 344.165 -2.00794 0.284544 0
M  V30 3738 C 344.498 -1.58255 -1.12557 0
M  V30 3739 O 343.773 -0.811819 -1.76748 0
M  V30 3740 C 344.056 -3.58011 0.387337 0
M  V30 3741 C 343.909 -4.10566 1.83728 0
M  V30 3742 C 345.228 -4.395 -0.22975 0
M  V30 3743 H 342.347 -0.729501 0.104866 0
M  V30 3744 H 344.989 -1.65564 0.93213 0
M  V30 3745 H 343.139 -3.88154 -0.164006 0
M  V30 3746 H 344.811 -3.91139 2.44556 0
M  V30 3747 H 343.054 -3.64095 2.35833 0
M  V30 3748 H 343.725 -5.19702 1.86047 0
M  V30 3749 H 346.201 -4.15406 0.240257 0
M  V30 3750 H 345.077 -5.48752 -0.127485 0
M  V30 3751 H 345.338 -4.22062 -1.3159 0
M  V30 3752 N 344.397 -0.483516 -1.5 0
M  V30 3753 C 345.622 0.0667119 -2.07293 0
M  V30 3754 C 346.047 1.3164 -1.3436 0
M  V30 3755 O 345.405 1.76945 -0.394987 0
M  V30 3756 C 345.453 0.321126 -3.59167 0
M  V30 3757 O 344.557 1.39927 -3.87936 0
M  V30 3758 H 343.898 -0.0184758 -0.663743 0
M  V30 3759 H 346.428 -0.678125 -1.93035 0
M  V30 3760 H 346.438 0.557906 -4.04168 0
M  V30 3761 H 345.113 -0.592007 -4.11665 0
M  V30 3762 H 343.69 1.14882 -3.54763 0
M  V30 3763 N 345.875 1.56104 -0.216619 0
M  V30 3764 C 347.103 2.02563 0.421413 0
M  V30 3765 C 347.518 1.0965 1.53695 0
M  V30 3766 O 346.875 0.10521 1.82196 0
M  V30 3767 C 346.926 3.48584 0.957665 0
M  V30 3768 O 346.647 4.37953 -0.113389 0
M  V30 3769 C 348.148 4.10664 1.66943 0
M  V30 3770 H 345.368 0.662944 0.103665 0
M  V30 3771 H 347.912 2.01793 -0.331629 0
M  V30 3772 H 346.067 3.49985 1.661 0
M  V30 3773 H 346.481 5.23704 0.288932 0
M  V30 3774 H 347.955 5.14622 1.99671 0
M  V30 3775 H 348.432 3.55373 2.58083 0
M  V30 3776 H 349.038 4.13098 1.01142 0
M  V30 3777 N 347.353 -0.0568162 1.57498 0
M  V30 3778 C 348.764 -0.606858 1.76562 0
M  V30 3779 C 349.115 -1.77114 0.844094 0
M  V30 3780 O 348.24 -2.16376 0.0318911 0
M  V30 3781 C 348.835 -1.10766 3.20182 0
M  V30 3782 C 347.394 -1.60344 3.40539 0
M  V30 3783 C 346.541 -0.529311 2.72201 0
M  V30 3784 H 349.492 0.169393 1.57793 0
M  V30 3785 H 349.513 -1.97602 3.25167 0
M  V30 3786 H 349.025 -0.26006 3.87228 0
M  V30 3787 H 347.126 -2.47379 2.78629 0
M  V30 3788 H 347.239 -1.67006 4.4905 0
M  V30 3789 H 345.603 -0.977893 2.35179 0
M  V30 3790 H 346.386 0.308352 3.41912 0
M  V30 3791 N 348.832 -1.54138 -0.328536 0
M  V30 3792 C 350.057 -1.76378 -1.09112 0
M  V30 3793 C 350.482 -0.508596 -1.81094 0
M  V30 3794 O 349.84 0.539598 -1.73084 0
M  V30 3795 C 349.888 -2.95358 -2.06872 0
M  V30 3796 O 348.992 -2.66556 -3.14677 0
M  V30 3797 H 348.333 -0.584614 -0.314838 0
M  V30 3798 H 350.863 -2.01146 -0.374348 0
M  V30 3799 H 350.873 -3.22566 -2.4983 0
M  V30 3800 H 349.548 -3.86385 -1.5388 0
M  V30 3801 H 348.125 -2.50282 -2.7643 0
M  V30 3802 N 350.31 0.590341 -1.46126 0
M  V30 3803 C 351.54 1.37304 -1.54373 0
M  V30 3804 C 351.948 1.88332 -0.181071 0
M  V30 3805 O 351.291 1.63852 0.830559 0
M  V30 3806 C 351.353 2.6012 -2.48149 0
M  V30 3807 C 351.017 2.30613 -3.94546 0
M  V30 3808 C 352.014 1.89915 -4.83971 0
M  V30 3809 C 349.699 2.42993 -4.39613 0
M  V30 3810 C 351.693 1.61981 -6.16475 0
M  V30 3811 C 349.38 2.14672 -5.72153 0
M  V30 3812 C 350.378 1.7423 -6.60404 0
M  V30 3813 O 350.066 1.46251 -7.90485 0
M  V30 3814 H 349.798 0.426086 -0.524811 0
M  V30 3815 H 352.352 0.72539 -1.92165 0
M  V30 3816 H 350.582 3.27664 -2.05361 0
M  V30 3817 H 352.271 3.22182 -2.46887 0
M  V30 3818 H 353.037 1.79872 -4.50412 0
M  V30 3819 H 348.916 2.73435 -3.71153 0
M  V30 3820 H 352.46 1.30341 -6.85315 0
M  V30 3821 H 348.357 2.24337 -6.05263 0
M  V30 3822 H 349.125 1.6016 -8.02677 0
M  V30 3823 N 351.788 1.33704 0.83433 0
M  V30 3824 C 353.065 1.16011 1.57483 0
M  V30 3825 C 353.445 -0.27176 2.09343 0
M  V30 3826 O 352.793 -1.27146 1.89858 0
M  V30 3827 C 353.003 2.20507 2.70514 0
M  V30 3828 C 354.351 2.54898 3.39577 0
M  V30 3829 O 355.375 2.19209 2.80759 0
M  V30 3830 O 354.234 3.16158 4.45765 0
M  V30 3831 H 351.328 0.448992 0.694503 0
M  V30 3832 H 353.874 1.453 0.876691 0
M  V30 3833 H 352.646 3.16667 2.29865 0
M  V30 3834 H 352.269 1.92329 3.47987 0
M  V30 3835 N 353.266 -1.05314 1.17247 0
M  V30 3836 C 354.512 -1.78557 0.961513 0
M  V30 3837 C 354.845 -1.87419 -0.508697 0
M  V30 3838 O 354.12 -1.37307 -1.37757 0
M  V30 3839 C 354.403 -3.22514 1.60176 0
M  V30 3840 C 354.256 -3.21673 3.14399 0
M  V30 3841 C 355.575 -4.20318 1.30463 0
M  V30 3842 H 352.694 -0.6482 0.350723 0
M  V30 3843 H 355.336 -1.23102 1.44727 0
M  V30 3844 H 353.486 -3.69867 1.18871 0
M  V30 3845 H 355.158 -2.82405 3.64753 0
M  V30 3846 H 353.401 -2.60048 3.47214 0
M  V30 3847 H 354.072 -4.23271 3.54324 0
M  V30 3848 H 356.548 -3.81454 1.66229 0
M  V30 3849 H 355.424 -5.19289 1.77848 0
M  V30 3850 H 355.685 -4.41526 0.22521 0
M  V30 3851 N 354.744 -0.972509 -1.24016 0
M  V30 3852 C 355.974 -0.653853 -1.9598 0
M  V30 3853 C 356.382 0.781801 -1.72292 0
M  V30 3854 O 355.725 1.53677 -1.00644 0
M  V30 3855 C 355.787 -0.854608 -3.49194 0
M  V30 3856 C 355.451 -2.27082 -3.96589 0
M  V30 3857 C 356.448 -3.24892 -4.05883 0
M  V30 3858 C 354.133 -2.5998 -4.29786 0
M  V30 3859 C 356.127 -4.53684 -4.47716 0
M  V30 3860 C 353.814 -3.88997 -4.71301 0
M  V30 3861 C 354.812 -4.85661 -4.80232 0
M  V30 3862 O 354.5 -6.12376 -5.20818 0
M  V30 3863 H 354.232 -0.242572 -0.630979 0
M  V30 3864 H 356.786 -1.30431 -1.58673 0
M  V30 3865 H 355.016 -0.146985 -3.86421 0
M  V30 3866 H 356.705 -0.534311 -4.02368 0
M  V30 3867 H 357.471 -3.00805 -3.80449 0
M  V30 3868 H 353.35 -1.85457 -4.22051 0
M  V30 3869 H 356.894 -5.29135 -4.54601 0
M  V30 3870 H 352.791 -4.12882 -4.96184 0
M  V30 3871 H 353.559 -6.16013 -5.38953 0
M  V30 3872 N 356.222 1.38976 -0.743202 0
M  V30 3873 C 357.633 1.83123 -0.363732 0
M  V30 3874 C 357.984 1.6205 1.10609 0
M  V30 3875 O 357.109 1.11606 1.854 0
M  V30 3876 C 357.704 3.32439 -0.653408 0
M  V30 3877 C 356.263 3.74974 -0.327338 0
M  V30 3878 C 355.41 2.61878 -0.911875 0
M  V30 3879 H 358.361 1.27852 -0.940191 0
M  V30 3880 H 358.382 3.80432 0.0720031 0
M  V30 3881 H 357.894 3.47745 -1.72323 0
M  V30 3882 H 355.995 3.65252 0.736314 0
M  V30 3883 H 356.108 4.72106 -0.815631 0
M  V30 3884 H 354.472 2.52448 -0.337944 0
M  V30 3885 H 355.255 2.79987 -1.98651 0
M  V30 3886 N 357.7 0.491464 1.49741 0
M  V30 3887 C 358.947 -0.0564256 2.02421 0
M  V30 3888 C 359.275 -1.37872 1.37192 0
M  V30 3889 O 358.53 -1.89375 0.493508 0
M  V30 3890 C 358.829 -0.267329 3.56399 0
M  V30 3891 C 358.495 0.975775 4.40215 0
M  V30 3892 C 357.157 1.31655 4.62839 0
M  V30 3893 C 359.509 1.80251 4.89039 0
M  V30 3894 C 356.837 2.48375 5.31532 0
M  V30 3895 C 359.189 2.96116 5.59015 0
M  V30 3896 C 357.853 3.30585 5.79888 0
M  V30 3897 H 357.123 -0.0206476 0.740712 0
M  V30 3898 H 359.77 0.649686 1.80143 0
M  V30 3899 H 358.075 -1.05588 3.77304 0
M  V30 3900 H 359.772 -0.705549 3.94744 0
M  V30 3901 H 356.362 0.700315 4.2284 0
M  V30 3902 H 360.546 1.55239 4.71396 0
M  V30 3903 H 355.802 2.7533 5.45897 0
M  V30 3904 H 359.976 3.60509 5.95824 0
M  V30 3905 H 357.603 4.21132 6.32892 0
M  V30 3906 N 359.178 -1.55987 0.224894 0
M  V30 3907 C 360.111 -2.16413 -0.723929 0
M  V30 3908 C 361.089 -1.10952 -1.18863 0
M  V30 3909 O 362.273 -1.39225 -1.27077 0
M  V30 3910 C 359.4 -2.74711 -1.98121 0
M  V30 3911 C 358.446 -3.9303 -1.6562 0
M  V30 3912 S 359.279 -5.29817 -0.778058 0
M  V30 3913 C 360.435 -5.91555 -2.04483 0
M  V30 3914 H 360.668 -2.96555 -0.210347 0
M  V30 3915 H 358.201 -1.54397 0.00955457 0
M  V30 3916 H 360.159 -3.08938 -2.70311 0
M  V30 3917 H 358.82 -1.94555 -2.46591 0
M  V30 3918 H 358.013 -4.32334 -2.59043 0
M  V30 3919 H 357.615 -3.59966 -1.01491 0
M  V30 3920 H 359.907 -6.07732 -2.99446 0
M  V30 3921 H 360.85 -6.87498 -1.69563 0
M  V30 3922 H 361.258 -5.20419 -2.18688 0
M  V30 3923 N 360.656 0.0484629 -1.57525 0
M  V30 3924 C 361.886 0.754326 -1.92337 0
M  V30 3925 C 362.294 1.70443 -0.82132 0
M  V30 3926 O 361.637 1.82466 0.21254 0
M  V30 3927 C 361.699 1.58231 -3.22805 0
M  V30 3928 C 361.363 0.799074 -4.4996 0
M  V30 3929 C 362.36 0.1079 -5.19788 0
M  V30 3930 C 360.045 0.759345 -4.96527 0
M  V30 3931 C 362.039 -0.612516 -6.3445 0
M  V30 3932 C 359.726 0.0351713 -6.1109 0
M  V30 3933 C 360.724 -0.649537 -6.79904 0
M  V30 3934 O 360.412 -1.36199 -7.92278 0
M  V30 3935 H 360.144 0.218257 -0.639797 0
M  V30 3936 H 362.698 0.0159295 -2.05394 0
M  V30 3937 H 360.928 2.36406 -3.06021 0
M  V30 3938 H 362.617 2.16898 -3.43089 0
M  V30 3939 H 363.383 0.129748 -4.84826 0
M  V30 3940 H 359.262 1.28177 -4.42822 0
M  V30 3941 H 362.806 -1.14751 -6.88097 0
M  V30 3942 H 358.703 0.0113314 -6.45499 0
M  V30 3943 H 359.471 -1.27366 -8.0853 0
M  V30 3944 N 362.134 1.5431 0.320358 0
M  V30 3945 C 363.382 1.72327 1.05583 0
M  V30 3946 C 363.703 0.50149 1.88441 0
M  V30 3947 O 362.973 -0.48448 1.89815 0
M  V30 3948 H 361.553 0.635387 0.3928 0
M  V30 3949 H 364.215 1.91621 0.356019 0
M  V30 3950 H 363.311 2.60426 1.72003 0
M  V30 3951 N 363.613 -0.582584 1.46437 0
M  V30 3952 C 364.546 -1.70633 1.51524 0
M  V30 3953 C 365.524 -1.58349 0.369351 0
M  V30 3954 O 366.708 -1.79563 0.573516 0
M  V30 3955 C 363.835 -3.08687 1.39392 0
M  V30 3956 C 362.881 -3.3949 2.58164 0
M  V30 3957 S 363.714 -3.31548 4.20519 0
M  V30 3958 C 364.87 -4.72139 4.10896 0
M  V30 3959 H 365.103 -1.66058 2.46601 0
M  V30 3960 H 362.636 -0.761337 1.34324 0
M  V30 3961 H 364.594 -3.8833 1.33079 0
M  V30 3962 H 363.255 -3.10751 0.457436 0
M  V30 3963 H 362.448 -4.40071 2.45669 0
M  V30 3964 H 362.05 -2.67415 2.61468 0
M  V30 3965 H 364.342 -5.62527 3.77584 0
M  V30 3966 H 365.285 -4.89692 5.11476 0
M  V30 3967 H 365.693 -4.48995 3.42146 0
M  V30 3968 N 365.091 -1.34144 -0.827227 0
M  V30 3969 C 366.316 -1.29476 -1.62021 0
M  V30 3970 C 366.741 0.129292 -1.87655 0
M  V30 3971 O 366.099 1.08967 -1.449 0
M  V30 3972 C 366.147 -2.08702 -2.94068 0
M  V30 3973 O 365.251 -1.45359 -3.85933 0
M  V30 3974 H 364.592 -0.444881 -0.492927 0
M  V30 3975 H 367.122 -1.76882 -1.02829 0
M  V30 3976 H 367.132 -2.19898 -3.43669 0
M  V30 3977 H 365.807 -3.12241 -2.74734 0
M  V30 3978 H 364.384 -1.42879 -3.44442 0
M  V30 3979 N 366.569 1.04691 -1.17803 0
M  V30 3980 C 367.517 2.14665 -0.895635 0
M  V30 3981 C 368.511 1.68806 0.141679 0
M  V30 3982 O 369.717 1.79999 -0.00587914 0
M  V30 3983 H 366.092 0.701038 -0.272121 0
M  V30 3984 H 368.063 2.35685 -1.83017 0
M  V30 3985 C 366.812 3.45019 -0.430962 0
M  V30 3986 H 366.135 3.8071 -1.22064 0
M  V30 3987 H 367.575 4.23125 -0.272301 0
M  V30 3988 C 366.034 3.25943 0.852207 0
M  V30 3989 O 366.564 3.5296 1.91786 0
M  V30 3990 N 364.77 2.79304 0.802346 0
M  V30 3991 H 364.317 2.57518 -0.0650788 0
M  V30 3992 H 364.275 2.66921 1.66134 0
M  V30 3993 N 368.047 0.979072 1.23499 0
M  V30 3994 C 368.957 0.526431 2.28617 0
M  V30 3995 C 369.973 -0.418126 1.68901 0
M  V30 3996 O 371.149 -0.288372 1.99325 0
M  V30 3997 C 368.214 -0.165235 3.46306 0
M  V30 3998 C 367.275 0.82056 4.21385 0
M  V30 3999 C 366.508 0.161807 5.33455 0
M  V30 4000 O 366.731 -1.04742 5.60701 0
M  V30 4001 O 365.665 0.859708 5.95729 0
M  V30 4002 H 369.491 1.4006 2.69475 0
M  V30 4003 H 367.076 0.746643 1.29405 0
M  V30 4004 H 368.958 -0.553287 4.17752 0
M  V30 4005 H 367.633 -1.01419 3.07402 0
M  V30 4006 H 366.54 1.25929 3.52268 0
M  V30 4007 H 367.873 1.63828 4.64135 0
M  V30 4008 N 369.525 -1.3858 0.750561 0
M  V30 4009 C 370.435 -2.34278 0.122825 0
M  V30 4010 C 371.451 -1.59116 -0.704131 0
M  V30 4011 O 372.627 -1.91326 -0.628987 0
M  V30 4012 C 369.692 -3.38221 -0.762086 0
M  V30 4013 C 368.753 -4.29227 0.078896 0
M  V30 4014 C 367.986 -5.28205 -0.763874 0
M  V30 4015 O 368.209 -5.34112 -2.00201 0
M  V30 4016 O 367.143 -6.01618 -0.18428 0
M  V30 4017 H 370.969 -2.89649 0.913088 0
M  V30 4018 H 368.554 -1.40374 0.511417 0
M  V30 4019 H 370.436 -4.01872 -1.26793 0
M  V30 4020 H 369.111 -2.85211 -1.5309 0
M  V30 4021 H 368.018 -3.68747 0.630621 0
M  V30 4022 H 369.351 -4.85484 0.810289 0
M  V30 4023 N 371.003 -0.499398 -1.49478 0
M  V30 4024 C 372.233 0.0424839 -2.06556 0
M  V30 4025 C 372.641 1.31514 -1.36018 0
M  V30 4026 O 371.984 1.78555 -0.431718 0
M  V30 4027 C 372.046 0.368074 -3.57611 0
M  V30 4028 C 371.71 -0.806631 -4.49825 0
M  V30 4029 C 372.707 -1.69667 -4.91436 0
M  V30 4030 C 370.392 -1.00498 -4.92144 0
M  V30 4031 C 372.386 -2.76923 -5.74101 0
M  V30 4032 C 370.073 -2.08072 -5.74586 0
M  V30 4033 C 371.071 -2.96119 -6.15469 0
M  V30 4034 O 370.759 -4.01836 -6.96264 0
M  V30 4035 H 370.491 -0.0165165 -0.675798 0
M  V30 4036 H 373.045 -0.695497 -1.93267 0
M  V30 4037 H 371.275 1.15963 -3.68903 0
M  V30 4038 H 372.964 0.848381 -3.96935 0
M  V30 4039 H 373.73 -1.55524 -4.59388 0
M  V30 4040 H 369.609 -0.329036 -4.59824 0
M  V30 4041 H 373.153 -3.45676 -6.05932 0
M  V30 4042 H 369.05 -2.22211 -6.06047 0
M  V30 4043 H 369.818 -3.9917 -7.14567 0
M  V30 4044 N 372.481 1.55866 -0.233164 0
M  V30 4045 C 373.429 2.22176 0.68851 0
M  V30 4046 C 374.423 1.20487 1.19076 0
M  V30 4047 O 375.629 1.38536 1.14925 0
M  V30 4048 H 372.004 0.712511 0.240483 0
M  V30 4049 H 373.975 2.98212 0.105935 0
M  V30 4050 C 372.724 2.92446 1.88071 0
M  V30 4051 H 372.047 3.70458 1.50337 0
M  V30 4052 H 373.487 3.42226 2.50314 0
M  V30 4053 C 371.946 1.95555 2.74335 0
M  V30 4054 O 372.476 1.47986 3.73447 0
M  V30 4055 N 370.682 1.62953 2.40613 0
M  V30 4056 H 370.229 2.01831 1.60069 0
M  V30 4057 H 370.187 0.983886 2.98609 0
M  V30 4058 N 373.959 -0.0401083 1.57549 0
M  V30 4059 C 374.906 -1.04413 2.05831 0
M  V30 4060 C 375.876 -1.36585 0.945184 0
M  V30 4061 O 377.061 -1.47112 1.21502 0
M  V30 4062 C 374.201 -2.34336 2.53339 0
M  V30 4063 C 373.314 -2.08419 3.78398 0
M  V30 4064 C 372.449 -3.32133 4.14561 0
M  V30 4065 C 371.488 -3.01721 5.3257 0
M  V30 4066 N 370.625 -4.17855 5.64218 0
M  V30 4067 H 375.465 -0.625442 2.91363 0
M  V30 4068 H 373.002 -0.297218 1.44066 0
M  V30 4069 H 374.96 -3.10234 2.78946 0
M  V30 4070 H 373.59 -2.73948 1.7074 0
M  V30 4071 H 372.642 -1.23069 3.59942 0
M  V30 4072 H 373.954 -1.81978 4.64419 0
M  V30 4073 H 373.108 -4.16406 4.41238 0
M  V30 4074 H 371.847 -3.61678 3.2717 0
M  V30 4075 H 370.852 -2.15849 5.05657 0
M  V30 4076 H 372.077 -2.73466 6.21605 0
M  V30 4077 H 370.023 -4.47372 4.79786 0
M  V30 4078 H 369.94 -3.94798 6.44725 0
M  V30 4079 H 371.208 -5.03033 5.95465 0
M  V30 4080 N 375.437 -1.54477 -0.31217 0
M  V30 4081 C 376.367 -1.87652 -1.38957 0
M  V30 4082 C 377.348 -0.734358 -1.53431 0
M  V30 4083 O 378.533 -0.98911 -1.67123 0
M  V30 4084 C 375.663 -2.11396 -2.75552 0
M  V30 4085 C 374.617 -3.27243 -2.75855 0
M  V30 4086 C 373.943 -3.36382 -4.15633 0
M  V30 4087 C 375.243 -4.64622 -2.38587 0
M  V30 4088 H 376.937 -2.77887 -1.11442 0
M  V30 4089 H 374.483 -1.33707 -0.534655 0
M  V30 4090 H 376.436 -2.33189 -3.51 0
M  V30 4091 H 375.16 -1.17921 -3.04569 0
M  V30 4092 H 373.819 -3.05356 -2.02863 0
M  V30 4093 H 373.467 -2.40445 -4.41809 0
M  V30 4094 H 373.167 -4.14249 -4.1674 0
M  V30 4095 H 374.691 -3.60422 -4.92877 0
M  V30 4096 H 376.105 -4.86219 -3.03749 0
M  V30 4097 H 374.502 -5.45121 -2.50925 0
M  V30 4098 H 375.572 -4.66097 -1.33723 0
M  V30 4099 N 376.915 0.57481 -1.46744 0
M  V30 4100 C 378.143 1.35856 -1.56047 0
M  V30 4101 C 378.558 1.87691 -0.204365 0
M  V30 4102 O 377.915 1.64049 0.79963 0
M  V30 4103 C 377.966 2.54066 -2.57163 0
M  V30 4104 O 377.687 2.04377 -3.87507 0
M  V30 4105 C 379.188 3.46514 -2.76483 0
M  V30 4106 H 376.408 0.414754 -0.527466 0
M  V30 4107 H 378.952 0.698035 -1.92218 0
M  V30 4108 H 377.107 3.16092 -2.23974 0
M  V30 4109 H 377.521 2.81419 -4.4261 0
M  V30 4110 H 378.995 4.25919 -3.51137 0
M  V30 4111 H 379.472 3.98951 -1.83671 0
M  V30 4112 H 380.078 2.90318 -3.10799 0
M  V30 4113 N 378.394 1.34581 0.820102 0
M  V30 4114 C 379.304 1.28471 1.96297 0
M  V30 4115 C 380.32 0.191902 1.72939 0
M  V30 4116 O 381.496 0.418879 1.96996 0
M  V30 4117 C 378.561 1.04281 3.30645 0
M  V30 4118 C 377.622 2.22745 3.66992 0
M  V30 4119 C 376.855 1.997 4.9493 0
M  V30 4120 O 377.078 0.956656 5.6232 0
M  V30 4121 O 376.012 2.86723 5.2922 0
M  V30 4122 H 379.838 2.24624 2.04396 0
M  V30 4123 H 377.423 1.14816 0.955913 0
M  V30 4124 H 379.305 0.925841 4.11104 0
M  V30 4125 H 377.98 0.111697 3.23507 0
M  V30 4126 H 376.887 2.40003 2.86966 0
M  V30 4127 H 378.22 3.14257 3.78819 0
M  V30 4128 N 379.872 -1.04064 1.18357 0
M  V30 4129 C 381.149 -1.74252 0.888581 0
M  V30 4130 C 381.529 -2.02138 -0.60856 0
M  V30 4131 O 380.877 -1.66656 -1.56327 0
M  V30 4132 C 381.087 -3.0277 1.73584 0
M  V30 4133 C 382.435 -3.76506 1.96286 0
M  V30 4134 O 383.459 -3.12668 1.70637 0
M  V30 4135 O 382.318 -4.91243 2.39464 0
M  V30 4136 H 379.412 -0.758271 0.330082 0
M  V30 4137 H 381.958 -1.1013 1.2911 0
M  V30 4138 H 380.73 -2.78299 2.75073 0
M  V30 4139 H 380.353 -3.74631 1.33183 0
M  V30 4140 N 381.35 -0.985608 -1.22978 0
M  V30 4141 C 382.297 -0.529825 -2.24636 0
M  V30 4142 C 383.267 0.434028 -1.60329 0
M  V30 4143 O 384.452 0.340414 -1.87739 0
M  V30 4144 C 381.592 0.156533 -3.44745 0
M  V30 4145 C 380.705 -0.848197 -4.23591 0
M  V30 4146 C 379.84 -0.136109 -5.31026 0
M  V30 4147 C 378.879 -1.1297 -6.01585 0
M  V30 4148 N 378.016 -0.446415 -7.00679 0
M  V30 4149 H 382.856 -1.40148 -2.62988 0
M  V30 4150 H 380.393 -0.702168 -1.29259 0
M  V30 4151 H 382.351 0.571324 -4.1327 0
M  V30 4152 H 380.981 0.992025 -3.07179 0
M  V30 4153 H 380.033 -1.38135 -3.54433 0
M  V30 4154 H 381.345 -1.60512 -4.72268 0
M  V30 4155 H 380.499 0.335784 -6.0577 0
M  V30 4156 H 379.238 0.653373 -4.83304 0
M  V30 4157 H 378.243 -1.6123 -5.25628 0
M  V30 4158 H 379.468 -1.91993 -6.51395 0
M  V30 4159 H 377.414 0.323763 -6.55201 0
M  V30 4160 H 377.331 -1.1419 -7.47326 0
M  V30 4161 H 378.599 0.00291697 -7.795 0
M  V30 4162 N 382.828 1.3818 -0.7579 0
M  V30 4163 C 383.775 2.30416 -0.133057 0
M  V30 4164 C 384.745 1.50398 0.704957 0
M  V30 4165 O 385.93 1.79014 0.660192 0
M  V30 4166 C 383.07 3.36834 0.750813 0
M  V30 4167 C 382.183 4.31879 -0.102297 0
M  V30 4168 C 381.318 5.25368 0.784979 0
M  V30 4169 C 380.357 6.12058 -0.0715046 0
M  V30 4170 N 379.494 6.97832 0.772972 0
M  V30 4171 H 384.334 2.83274 -0.925186 0
M  V30 4172 H 381.871 1.39461 -0.467866 0
M  V30 4173 H 383.829 3.97145 1.27794 0
M  V30 4174 H 382.459 2.85374 1.50868 0
M  V30 4175 H 381.511 3.72991 -0.747095 0
M  V30 4176 H 382.823 4.92921 -0.763552 0
M  V30 4177 H 381.977 5.90818 1.37911 0
M  V30 4178 H 380.716 4.64703 1.47996 0
M  V30 4179 H 379.721 5.456 -0.678272 0
M  V30 4180 H 380.946 6.74793 -0.763606 0
M  V30 4181 H 378.892 6.3971 1.45282 0
M  V30 4182 H 378.809 7.55812 0.168709 0
M  V30 4183 H 380.077 7.67687 1.35194 0
M  V30 4184 N 384.306 0.507319 1.49211 0
M  V30 4185 C 385.216 -0.272136 2.33016 0
M  V30 4186 C 386.232 -0.961206 1.45041 0
M  V30 4187 O 387.408 -0.941191 1.78055 0
M  V30 4188 C 384.473 -1.31895 3.20631 0
M  V30 4189 C 383.534 -0.642648 4.24463 0
M  V30 4190 C 382.767 -1.63959 5.07891 0
M  V30 4191 O 382.99 -2.87007 4.92933 0
M  V30 4192 O 381.924 -1.19143 5.8999 0
M  V30 4193 H 385.75 0.413982 3.00865 0
M  V30 4194 H 383.335 0.268556 1.46966 0
M  V30 4195 H 385.217 -1.92446 3.7489 0
M  V30 4196 H 383.892 -1.98788 2.5547 0
M  V30 4197 H 382.799 0.00276252 3.741 0
M  V30 4198 H 384.132 -0.0160534 4.92197 0
M  V30 4199 N 385.784 -1.5574 0.241426 0
M  V30 4200 C 387.195 -1.84842 -0.262755 0
M  V30 4201 C 387.546 -1.16317 -1.58003 0
M  V30 4202 O 386.671 -0.439653 -2.11887 0
M  V30 4203 C 387.266 -3.35332 -0.483523 0
M  V30 4204 C 385.825 -3.6468 -0.931977 0
M  V30 4205 C 384.972 -2.77299 -0.0061151 0
M  V30 4206 H 387.923 -1.51761 0.464129 0
M  V30 4207 H 387.944 -3.56615 -1.32688 0
M  V30 4208 H 387.456 -3.85178 0.47537 0
M  V30 4209 H 385.557 -3.20307 -1.90353 0
M  V30 4210 H 385.67 -4.72498 -0.792628 0
M  V30 4211 H 384.034 -2.49408 -0.516503 0
M  V30 4212 H 384.817 -3.2995 0.948052 0
M  V30 4213 N 387.262 0.0317525 -1.57568 0
M  V30 4214 C 388.192 1.03274 -2.0942 0
M  V30 4215 C 389.173 1.3788 -0.996143 0
M  V30 4216 O 390.358 1.46811 -1.27122 0
M  V30 4217 C 387.488 2.33448 -2.57137 0
M  V30 4218 C 386.442 2.13091 -3.71182 0
M  V30 4219 C 385.768 3.49001 -4.05095 0
M  V30 4220 C 387.068 1.51928 -4.99715 0
M  V30 4221 H 388.762 0.60112 -2.93303 0
M  V30 4222 H 386.308 0.287705 -1.41097 0
M  V30 4223 H 388.261 3.03802 -2.92032 0
M  V30 4224 H 386.985 2.78665 -1.70333 0
M  V30 4225 H 385.644 1.45171 -3.36632 0
M  V30 4226 H 385.292 3.91862 -3.15362 0
M  V30 4227 H 384.992 3.36207 -4.81911 0
M  V30 4228 H 386.516 4.20721 -4.42522 0
M  V30 4229 H 387.93 2.12196 -5.32584 0
M  V30 4230 H 386.327 1.49716 -5.81124 0
M  V30 4231 H 387.397 0.484811 -4.8247 0
M  V30 4232 N 388.74 1.54641 0.303973 0
M  V30 4233 C 389.67 1.88386 1.3796 0
M  V30 4234 C 390.651 0.742485 1.5304 0
M  V30 4235 O 391.836 0.997959 1.66597 0
M  V30 4236 C 388.966 2.12854 2.74427 0
M  V30 4237 C 387.92 3.28702 2.74115 0
M  V30 4238 C 387.246 3.38582 4.13844 0
M  V30 4239 C 388.546 4.65881 2.3612 0
M  V30 4240 H 390.24 2.78474 1.09966 0
M  V30 4241 H 387.786 1.33988 0.527556 0
M  V30 4242 H 389.739 2.35047 3.49758 0
M  V30 4243 H 388.463 1.19535 3.03939 0
M  V30 4244 H 387.122 3.06428 2.0124 0
M  V30 4245 H 386.77 2.42784 4.40528 0
M  V30 4246 H 386.47 4.16453 4.14537 0
M  V30 4247 H 387.994 3.63031 4.90959 0
M  V30 4248 H 389.408 4.87823 3.01167 0
M  V30 4249 H 387.805 5.46444 2.48031 0
M  V30 4250 H 388.875 4.66799 1.3125 0
M  V30 4251 N 390.218 -0.567019 1.47046 0
M  V30 4252 C 391.166 -1.69593 1.59188 0
M  V30 4253 C 392.16 -1.63046 0.459609 0
M  V30 4254 O 393.366 -1.6835 0.637058 0
M  V30 4255 H 389.741 -0.560993 0.500791 0
M  V30 4256 H 391.712 -1.56488 2.54075 0
M  V30 4257 C 390.461 -3.07964 1.61411 0
M  V30 4258 H 389.784 -3.13679 2.47881 0
M  V30 4259 H 391.224 -3.86671 1.73958 0
M  V30 4260 C 389.683 -3.35123 0.34559 0
M  V30 4261 O 390.213 -3.97812 -0.557521 0
M  V30 4262 N 388.419 -2.89699 0.22864 0
M  V30 4263 H 387.966 -2.38863 0.964479 0
M  V30 4264 H 387.924 -3.08242 -0.619192 0
M  V30 4265 N 391.696 -1.35014 -0.812953 0
M  V30 4266 C 392.643 -1.27412 -1.92444 0
M  V30 4267 C 393.613 -0.14733 -1.65445 0
M  V30 4268 O 394.798 -0.329974 -1.87925 0
M  V30 4269 C 391.938 -1.04558 -3.28879 0
M  V30 4270 C 391.051 -2.26101 -3.68106 0
M  V30 4271 C 390.186 -1.96449 -4.9354 0
M  V30 4272 C 389.225 -3.14081 -5.25376 0
M  V30 4273 N 388.362 -2.84246 -6.41988 0
M  V30 4274 H 393.202 -2.22463 -1.98278 0
M  V30 4275 H 390.739 -1.10593 -0.969933 0
M  V30 4276 H 392.697 -0.893413 -4.07522 0
M  V30 4277 H 391.327 -0.131719 -3.22531 0
M  V30 4278 H 390.379 -2.52204 -2.84775 0
M  V30 4279 H 391.691 -3.13959 -3.87597 0
M  V30 4280 H 390.845 -1.78026 -5.79993 0
M  V30 4281 H 389.584 -1.05867 -4.76071 0
M  V30 4282 H 388.589 -3.33089 -4.37415 0
M  V30 4283 H 389.814 -4.05455 -5.44778 0
M  V30 4284 H 387.76 -1.96252 -6.25956 0
M  V30 4285 H 387.677 -3.65637 -6.61699 0
M  V30 4286 H 388.945 -2.6935 -7.31485 0
M  V30 4287 N 393.175 1.03435 -1.18907 0
M  V30 4288 C 394.422 1.76743 -0.988334 0
M  V30 4289 C 394.75 1.88447 0.481441 0
M  V30 4290 O 394.005 1.39383 1.37371 0
M  V30 4291 C 394.304 3.19792 -1.59586 0
M  V30 4292 C 393.97 3.28108 -3.09283 0
M  V30 4293 C 392.632 3.30084 -3.5014 0
M  V30 4294 C 394.984 3.27696 -4.05296 0
M  V30 4295 C 392.312 3.29299 -4.85571 0
M  V30 4296 C 394.664 3.28451 -5.4065 0
M  V30 4297 C 393.328 3.28723 -5.80946 0
M  V30 4298 H 392.598 0.64675 -0.361657 0
M  V30 4299 H 395.245 1.21442 -1.48068 0
M  V30 4300 H 393.55 3.78136 -1.02568 0
M  V30 4301 H 395.247 3.75171 -1.41589 0
M  V30 4302 H 391.837 3.27294 -2.76725 0
M  V30 4303 H 396.021 3.25354 -3.74778 0
M  V30 4304 H 391.277 3.2783 -5.16079 0
M  V30 4305 H 395.451 3.27082 -6.14809 0
M  V30 4306 H 393.078 3.27868 -6.85862 0
M  V30 4307 N 394.653 0.992116 1.22453 0
M  V30 4308 C 395.585 0.500024 2.23679 0
M  V30 4309 C 396.598 -0.404463 1.57696 0
M  V30 4310 O 397.787 -0.206722 1.77299 0
M  V30 4311 C 394.887 -0.294711 3.37616 0
M  V30 4312 C 394.06 0.605723 4.33186 0
M  V30 4313 C 393.119 -0.13717 5.26021 0
M  V30 4314 O 392.145 0.477164 5.67196 0
M  V30 4315 N 393.347 -1.4197 5.62872 0
M  V30 4316 H 396.112 1.37045 2.66531 0
M  V30 4317 H 393.673 0.866741 1.36745 0
M  V30 4318 H 395.665 -0.800329 3.96707 0
M  V30 4319 H 394.235 -1.06623 2.93854 0
M  V30 4320 H 393.455 1.29202 3.72425 0
M  V30 4321 H 394.743 1.21896 4.93983 0
M  V30 4322 H 394.141 -1.94015 5.31389 0
M  V30 4323 H 392.698 -1.87052 6.24383 0
M  V30 4324 N 396.131 -1.37776 0.765217 0
M  V30 4325 C 397.38 -1.99092 0.323307 0
M  V30 4326 C 397.693 -1.61434 -1.10446 0
M  V30 4327 O 398.899 -2.15805 -1.64743 0
M  V30 4328 C 397.355 -3.56019 0.527098 0
M  V30 4329 C 396.963 -4.0262 1.96471 0
M  V30 4330 C 398.707 -4.2424 0.148483 0
M  V30 4331 C 396.614 -5.52233 2.11644 0
M  V30 4332 H 395.544 -0.744846 0.117137 0
M  V30 4333 H 398.195 -1.57391 0.943417 0
M  V30 4334 H 396.577 -3.95667 -0.162372 0
M  V30 4335 H 397.751 -3.74234 2.68859 0
M  V30 4336 H 396.066 -3.47161 2.29931 0
M  V30 4337 H 398.663 -5.34159 0.240456 0
M  V30 4338 H 399.006 -4.06446 -0.900422 0
M  V30 4339 H 399.539 -3.89872 0.79025 0
M  V30 4340 H 396.278 -5.74945 3.1483 0
M  V30 4341 H 395.798 -5.82324 1.4373 0
M  V30 4342 H 397.477 -6.18106 1.91193 0
M  V30 4343 N 397.609 -0.515225 -1.4894 0
M  V30 4344 C 398.837 0.0206034 -2.0689 0
M  V30 4345 C 399.252 1.29514 -1.37374 0
M  V30 4346 O 398.609 1.76698 -0.456529 0
M  V30 4347 C 398.66 0.26351 -3.60538 0
M  V30 4348 O 398.381 -0.960517 -4.27441 0
M  V30 4349 C 399.882 0.841383 -4.35242 0
M  V30 4350 H 397.102 -0.0268608 -0.670462 0
M  V30 4351 H 399.646 -0.716651 -1.91532 0
M  V30 4352 H 397.801 0.950777 -3.75552 0
M  V30 4353 H 398.215 -0.73212 -5.19365 0
M  V30 4354 H 399.689 0.96085 -5.43573 0
M  V30 4355 H 400.166 1.8427 -3.98674 0
M  V30 4356 H 400.772 0.191143 -4.2487 0
M  V30 4357 N 399.087 1.5561 -0.249682 0
M  V30 4358 C 400.315 2.03411 0.378352 0
M  V30 4359 C 400.73 1.12886 1.51335 0
M  V30 4360 O 400.087 0.143833 1.81932 0
M  V30 4361 C 400.138 3.50537 0.88351 0
M  V30 4362 O 399.859 4.37614 -0.20626 0
M  V30 4363 C 401.36 4.14113 1.58195 0
M  V30 4364 H 398.58 0.664994 0.08958 0
M  V30 4365 H 401.124 2.01044 -0.374357 0
M  V30 4366 H 399.279 3.5343 1.58639 0
M  V30 4367 H 399.693 5.24199 0.177782 0
M  V30 4368 H 401.167 5.18741 1.8871 0
M  V30 4369 H 401.644 3.60767 2.50487 0
M  V30 4370 H 402.25 4.15151 0.923573 0
M  V30 4371 N 400.565 -0.0233959 1.57583 0
M  V30 4372 C 401.79 -0.728376 1.94189 0
M  V30 4373 C 402.215 -1.67793 0.850119 0
M  V30 4374 O 401.573 -1.80262 -0.19371 0
M  V30 4375 C 401.621 -1.45669 3.29868 0
M  V30 4376 O 400.725 -2.57013 3.22518 0
M  V30 4377 H 400.066 -0.195493 0.63457 0
M  V30 4378 H 402.596 0.0228214 2.04587 0
M  V30 4379 H 402.606 -1.82535 3.6489 0
M  V30 4380 H 401.281 -0.760314 4.08891 0
M  V30 4381 H 399.858 -2.22648 2.99136 0
M  V30 4382 N 402.043 -1.548 -0.295768 0
M  V30 4383 C 403.454 -1.65274 -0.868411 0
M  V30 4384 C 403.805 -0.56481 -1.87894 0
M  V30 4385 O 402.93 0.29767 -2.14343 0
M  V30 4386 C 403.525 -2.99603 -1.58188 0
M  V30 4387 C 402.084 -3.12181 -2.10286 0
M  V30 4388 C 401.231 -2.6098 -0.93727 0
M  V30 4389 H 404.182 -1.58534 -0.0726422 0
M  V30 4390 H 404.203 -2.91319 -2.44772 0
M  V30 4391 H 403.715 -3.78764 -0.846151 0
M  V30 4392 H 401.816 -2.3775 -2.8689 0
M  V30 4393 H 401.929 -4.18415 -2.33379 0
M  V30 4394 H 400.293 -2.17564 -1.32431 0
M  V30 4395 H 401.076 -3.42623 -0.215414 0
M  V30 4396 N 403.521 0.559213 -1.47345 0
M  V30 4397 C 404.769 1.31388 -1.53563 0
M  V30 4398 C 405.09 1.93985 -0.198678 0
M  V30 4399 O 404.36 1.79825 0.777167 0
M  V30 4400 H 402.94 0.487901 -0.565652 0
M  V30 4401 H 405.602 0.65315 -1.8363 0
M  V30 4402 H 404.698 2.10844 -2.30111 0
M  V30 4403 N 404.999 1.35443 0.805782 0
M  V30 4404 C 406.224 1.32037 1.59941 0
M  V30 4405 C 406.649 -0.0994215 1.87837 0
M  V30 4406 O 406.007 -1.06648 1.46615 0
M  V30 4407 C 406.055 2.13354 2.90711 0
M  V30 4408 O 405.159 1.5148 3.83572 0
M  V30 4409 H 404.5 0.452666 0.485787 0
M  V30 4410 H 407.03 1.78496 1.00002 0
M  V30 4411 H 407.04 2.25338 3.40128 0
M  V30 4412 H 405.715 3.16572 2.69732 0
M  V30 4413 H 404.292 1.4834 3.42125 0
M  V30 4414 N 406.477 -1.02803 1.19454 0
M  V30 4415 C 407.705 -1.79841 1.02297 0
M  V30 4416 C 408.12 -1.83879 -0.428259 0
M  V30 4417 O 407.477 -1.28345 -1.29745 0
M  V30 4418 C 407.528 -3.24852 1.58598 0
M  V30 4419 O 407.249 -3.21097 2.98041 0
M  V30 4420 C 408.75 -4.18485 1.46236 0
M  V30 4421 H 405.97 -0.565936 0.360496 0
M  V30 4422 H 408.514 -1.2948 1.58288 0
M  V30 4423 H 406.669 -3.72401 1.06753 0
M  V30 4424 H 407.083 -4.12033 3.24545 0
M  V30 4425 H 408.557 -5.18121 1.90407 0
M  V30 4426 H 409.034 -4.37254 0.41301 0
M  V30 4427 H 409.64 -3.76811 1.97215 0
M  V30 4428 N 407.956 -0.998596 -1.21925 0
M  V30 4429 C 408.888 -0.511879 -2.23411 0
M  V30 4430 C 409.901 0.396094 -1.57908 0
M  V30 4431 O 411.09 0.197316 -1.77406 0
M  V30 4432 C 408.19 0.276802 -3.37768 0
M  V30 4433 C 407.363 -0.628687 -4.32858 0
M  V30 4434 C 406.422 0.109272 -5.26087 0
M  V30 4435 O 405.448 -0.507237 -5.66935 0
M  V30 4436 N 406.65 1.38983 -5.63617 0
M  V30 4437 H 409.415 -1.38457 -2.658 0
M  V30 4438 H 406.976 -0.873981 -1.36283 0
M  V30 4439 H 408.968 0.77928 -3.97126 0
M  V30 4440 H 407.538 1.05063 -2.94415 0
M  V30 4441 H 406.758 -1.31175 -3.71735 0
M  V30 4442 H 408.046 -1.24514 -4.93329 0
M  V30 4443 H 407.444 1.91194 -5.32411 0
M  V30 4444 H 406.001 1.83739 -6.25367 0
M  V30 4445 N 409.434 1.37368 -0.772513 0
M  V30 4446 C 410.381 2.30262 -0.157488 0
M  V30 4447 C 411.351 1.51137 0.688965 0
M  V30 4448 O 412.536 1.79704 0.641168 0
M  V30 4449 C 409.676 3.37611 0.715045 0
M  V30 4450 C 408.789 4.31746 -0.148098 0
M  V30 4451 C 407.924 5.26171 0.729213 0
M  V30 4452 C 406.963 6.11948 -0.136418 0
M  V30 4453 N 406.1 6.98613 0.698914 0
M  V30 4454 H 410.94 2.82277 -0.955179 0
M  V30 4455 H 408.477 1.38957 -0.482631 0
M  V30 4456 H 410.435 3.98479 1.23575 0
M  V30 4457 H 409.065 2.86959 1.47833 0
M  V30 4458 H 408.117 3.72178 -0.786613 0
M  V30 4459 H 409.429 4.92084 -0.81579 0
M  V30 4460 H 408.583 5.92247 1.31637 0
M  V30 4461 H 407.322 4.66246 1.43059 0
M  V30 4462 H 406.327 5.4485 -0.736102 0
M  V30 4463 H 407.552 6.73945 -0.835134 0
M  V30 4464 H 405.498 6.41215 1.38489 0
M  V30 4465 H 405.415 7.55948 0.0885358 0
M  V30 4466 H 406.683 7.69077 1.27044 0
M  V30 4467 N 410.912 0.523116 1.48665 0
M  V30 4468 C 412.161 -0.01544 2.01694 0
M  V30 4469 C 412.474 -1.35975 1.40606 0
M  V30 4470 O 413.68 -1.98627 1.85093 0
M  V30 4471 C 412.136 -0.0779303 3.59816 0
M  V30 4472 C 411.744 1.26107 4.29885 0
M  V30 4473 C 413.488 -0.565678 4.20714 0
M  V30 4474 C 411.395 1.15954 5.79921 0
M  V30 4475 H 410.325 -0.00954163 0.75394 0
M  V30 4476 H 412.976 0.665865 1.70993 0
M  V30 4477 H 411.358 -0.824165 3.87329 0
M  V30 4478 H 412.532 2.02233 4.14051 0
M  V30 4479 H 410.847 1.68401 3.80828 0
M  V30 4480 H 413.444 -0.6595 5.30617 0
M  V30 4481 H 413.787 -1.56984 3.85567 0
M  V30 4482 H 414.32 0.12467 3.97605 0
M  V30 4483 H 411.059 2.13864 6.19631 0
M  V30 4484 H 410.579 0.439529 5.98187 0
M  V30 4485 H 412.258 0.847361 6.41427 0
M  V30 4486 N 412.39 -1.55475 0.257931 0
M  V30 4487 C 413.32 -2.24815 -0.630912 0
M  V30 4488 C 414.301 -1.23224 -1.17259 0
M  V30 4489 O 415.486 -1.51904 -1.20991 0
M  V30 4490 C 412.616 -2.95609 -1.82298 0
M  V30 4491 C 411.57 -4.03982 -1.41359 0
M  V30 4492 C 410.896 -4.6226 -2.68738 0
M  V30 4493 C 412.196 -5.19109 -0.57648 0
M  V30 4494 H 413.89 -2.99354 -0.0526878 0
M  V30 4495 H 411.436 -1.4398 -0.023901 0
M  V30 4496 H 413.389 -3.42822 -2.45054 0
M  V30 4497 H 412.113 -2.18577 -2.42676 0
M  V30 4498 H 410.772 -3.57555 -0.809324 0
M  V30 4499 H 410.42 -3.81915 -3.27338 0
M  V30 4500 H 410.12 -5.35424 -2.42065 0
M  V30 4501 H 411.644 -5.12212 -3.32372 0
M  V30 4502 H 413.058 -5.62479 -1.10861 0
M  V30 4503 H 411.455 -5.98729 -0.405351 0
M  V30 4504 H 412.525 -4.83174 0.408776 0
M  V30 4505 N 413.868 0.0150385 -1.57593 0
M  V30 4506 C 415.096 0.714395 -1.94175 0
M  V30 4507 C 415.511 1.68135 -0.858841 0
M  V30 4508 O 414.868 1.81766 0.163567 0
M  V30 4509 C 414.919 1.45933 -3.30735 0
M  V30 4510 O 414.64 0.531167 -4.34868 0
M  V30 4511 C 416.141 2.25456 -3.81686 0
M  V30 4512 H 413.361 0.199923 -0.640525 0
M  V30 4513 H 415.905 -0.0316096 -2.04476 0
M  V30 4514 H 414.06 2.15709 -3.21789 0
M  V30 4515 H 414.474 1.05509 -5.13778 0
M  V30 4516 H 415.948 2.731 -4.79709 0
M  V30 4517 H 416.425 3.07485 -3.13607 0
M  V30 4518 H 417.031 1.60727 -3.9376 0
M  V30 4519 N 415.346 1.54954 0.287554 0
M  V30 4520 C 416.309 1.86076 1.33823 0
M  V30 4521 C 417.309 0.734414 1.43049 0
M  V30 4522 O 418.499 1.00266 1.42452 0
M  V30 4523 C 415.631 2.05305 2.72144 0
M  V30 4524 H 416.824 2.79984 1.07465 0
M  V30 4525 H 414.377 1.47223 0.524902 0
M  V30 4526 H 415.112 1.1373 3.03704 0
M  V30 4527 H 414.897 2.873 2.66836 0
M  V30 4528 H 416.387 2.30706 3.48087 0
M  V30 4529 N 416.824 -0.551391 1.4764 0
M  V30 4530 C 417.757 -1.6738 1.5511 0
M  V30 4531 C 418.735 -1.5753 0.402856 0
M  V30 4532 O 419.919 -1.78307 0.611475 0
M  V30 4533 C 417.046 -3.05661 1.45908 0
M  V30 4534 C 416.092 -3.33938 2.65307 0
M  V30 4535 S 416.925 -3.22553 4.27457 0
M  V30 4536 C 418.081 -4.63317 4.20818 0
M  V30 4537 H 418.314 -1.6079 2.50068 0
M  V30 4538 H 415.847 -0.732674 1.35909 0
M  V30 4539 H 417.805 -3.8542 1.41286 0
M  V30 4540 H 416.466 -3.09711 0.523248 0
M  V30 4541 H 415.659 -4.34761 2.54948 0
M  V30 4542 H 415.261 -2.61809 2.67081 0
M  V30 4543 H 417.553 -5.54391 3.89431 0
M  V30 4544 H 418.496 -4.78732 5.21748 0
M  V30 4545 H 418.904 -4.41636 3.51593 0
M  V30 4546 N 418.302 -1.35869 -0.798587 0
M  V30 4547 C 419.551 -1.28921 -1.5512 0
M  V30 4548 C 419.864 0.13208 -1.95154 0
M  V30 4549 O 421.07 0.323879 -2.69561 0
M  V30 4550 C 419.526 -2.26141 -2.79979 0
M  V30 4551 C 419.134 -3.73658 -2.47151 0
M  V30 4552 C 420.878 -2.28152 -3.57976 0
M  V30 4553 C 418.785 -4.62679 -3.6835 0
M  V30 4554 H 417.715 -0.479031 -0.582276 0
M  V30 4555 H 420.366 -1.61179 -0.877125 0
M  V30 4556 H 418.748 -1.86865 -3.49138 0
M  V30 4557 H 419.922 -4.21616 -1.85947 0
M  V30 4558 H 418.237 -3.74333 -1.82383 0
M  V30 4559 H 420.834 -2.91875 -4.4801 0
M  V30 4560 H 421.177 -1.28748 -3.95891 0
M  V30 4561 H 421.71 -2.65998 -2.95787 0
M  V30 4562 H 418.449 -5.63111 -3.35538 0
M  V30 4563 H 417.969 -4.19442 -4.28752 0
M  V30 4564 H 419.648 -4.78498 -4.35487 0
M  V30 4565 N 419.78 1.02168 -1.19998 0
M  V30 4566 C 421.028 1.75338 -1.00504 0
M  V30 4567 C 421.349 1.89387 0.464506 0
M  V30 4568 O 420.619 1.43268 1.33608 0
M  V30 4569 H 419.199 0.649564 -0.368885 0
M  V30 4570 H 421.861 1.23205 -1.51018 0
M  V30 4571 H 420.957 2.75892 -1.45912 0
M  V30 4572 N 421.258 1.00505 1.21394 0
M  V30 4573 C 422.188 0.585684 2.26035 0
M  V30 4574 C 423.169 -0.393525 1.65485 0
M  V30 4575 O 424.354 -0.281497 1.92149 0
M  V30 4576 C 421.484 -0.0884283 3.47187 0
M  V30 4577 C 420.438 0.810567 4.20254 0
M  V30 4578 C 419.764 0.00286382 5.347 0
M  V30 4579 C 421.064 2.1132 4.77641 0
M  V30 4580 H 422.758 1.46039 2.61368 0
M  V30 4581 H 420.304 0.703648 1.25638 0
M  V30 4582 H 422.257 -0.393286 4.19561 0
M  V30 4583 H 420.981 -0.997766 3.10986 0
M  V30 4584 H 419.64 1.09925 3.49731 0
M  V30 4585 H 419.288 -0.907765 4.94741 0
M  V30 4586 H 418.988 0.601444 5.84514 0
M  V30 4587 H 420.512 -0.295808 6.09883 0
M  V30 4588 H 421.926 1.87148 5.41893 0
M  V30 4589 H 420.323 2.66164 5.37845 0
M  V30 4590 H 421.393 2.78393 3.9702 0
M  V30 4591 N 422.737 -1.36956 0.779787 0
M  V30 4592 C 423.685 -2.32053 0.15942 0
M  V30 4593 C 424.679 -1.55333 -0.675878 0
M  V30 4594 O 425.885 -1.70668 -0.57204 0
M  V30 4595 H 422.26 -0.751286 0.0327707 0
M  V30 4596 H 424.231 -2.8195 0.977078 0
M  V30 4597 C 422.98 -3.40602 -0.698977 0
M  V30 4598 H 422.303 -3.99746 -0.0655966 0
M  V30 4599 H 423.743 -4.09486 -1.09989 0
M  V30 4600 C 422.202 -2.81359 -1.85307 0
M  V30 4601 O 422.732 -2.72751 -2.94906 0
M  V30 4602 N 420.938 -2.38786 -1.65619 0
M  V30 4603 H 420.485 -2.45987 -0.764725 0
M  V30 4604 H 420.443 -1.99493 -2.43002 0
M  V30 4605 N 424.215 -0.530993 -1.48385 0
M  V30 4606 C 425.163 0.244595 -2.3131 0
M  V30 4607 C 426.157 0.93451 -1.41291 0
M  V30 4608 O 427.363 0.85878 -1.58193 0
M  V30 4609 H 423.738 0.0977472 -0.74562 0
M  V30 4610 H 425.709 -0.474369 -2.94605 0
M  V30 4611 C 424.458 1.2779 -3.23365 0
M  V30 4612 H 423.781 0.756439 -3.92579 0
M  V30 4613 H 425.221 1.79198 -3.84271 0
M  V30 4614 C 423.68 2.31205 -2.45042 0
M  V30 4615 O 424.21 3.37661 -2.17596 0
M  V30 4616 N 422.416 2.04446 -2.0652 0
M  V30 4617 H 421.963 1.17891 -2.2904 0
M  V30 4618 H 421.921 2.73861 -1.54427 0
M  V30 4619 N 425.693 1.55336 -0.266172 0
M  V30 4620 C 426.64 2.22172 0.625165 0
M  V30 4621 C 427.61 1.19211 1.15663 0
M  V30 4622 O 428.795 1.47723 1.20758 0
M  V30 4623 C 425.935 2.93972 1.8076 0
M  V30 4624 C 425.048 4.11632 1.31084 0
M  V30 4625 C 424.183 4.71099 2.45436 0
M  V30 4626 C 423.222 5.8097 1.92718 0
M  V30 4627 N 422.359 6.34538 3.00509 0
M  V30 4628 H 427.199 2.9796 0.0485582 0
M  V30 4629 H 424.736 1.47095 0.0122024 0
M  V30 4630 H 426.694 3.33811 2.50251 0
M  V30 4631 H 425.324 2.20623 2.35638 0
M  V30 4632 H 424.376 3.76975 0.509326 0
M  V30 4633 H 425.688 4.90893 0.884633 0
M  V30 4634 H 424.842 5.13612 3.22936 0
M  V30 4635 H 423.581 3.91096 2.91368 0
M  V30 4636 H 422.586 5.37916 1.13695 0
M  V30 4637 H 423.811 6.62836 1.47733 0
M  V30 4638 H 421.757 5.57433 3.45839 0
M  V30 4639 H 421.674 7.09046 2.62279 0
M  V30 4640 H 422.942 6.81709 3.78011 0
M  V30 4641 N 427.171 -0.0066808 1.57599 0
M  V30 4642 C 428.399 -0.704087 1.94551 0
M  V30 4643 C 428.814 -1.67677 0.867746 0
M  V30 4644 O 428.171 -1.8185 -0.153925 0
M  V30 4645 C 428.222 -1.44177 3.31505 0
M  V30 4646 O 427.943 -0.508097 4.35144 0
M  V30 4647 C 429.444 -2.23429 3.82876 0
M  V30 4648 H 426.664 -0.196523 0.641576 0
M  V30 4649 H 429.208 0.042453 2.04456 0
M  V30 4650 H 427.363 -2.13999 3.22929 0
M  V30 4651 H 427.777 -1.02782 5.14331 0
M  V30 4652 H 429.251 -2.70552 4.8115 0
M  V30 4653 H 429.728 -3.05818 3.15233 0
M  V30 4654 H 430.334 -1.58636 3.94607 0
M  V30 4655 N 428.649 -1.55105 -0.279332 0
M  V30 4656 C 429.579 -1.90557 -1.34945 0
M  V30 4657 C 430.56 -0.766738 -1.51839 0
M  V30 4658 O 431.745 -1.02434 -1.64988 0
M  V30 4659 C 428.875 -2.17193 -2.71006 0
M  V30 4660 C 427.829 -3.33021 -2.68851 0
M  V30 4661 C 427.155 -3.45123 -4.08405 0
M  V30 4662 C 428.455 -4.69578 -2.28678 0
M  V30 4663 H 430.149 -2.80188 -1.05522 0
M  V30 4664 H 427.695 -1.34811 -0.506173 0
M  V30 4665 H 429.648 -2.40581 -3.45975 0
M  V30 4666 H 428.372 -1.24355 -3.01999 0
M  V30 4667 H 427.031 -3.0959 -1.9634 0
M  V30 4668 H 426.679 -2.49762 -4.3661 0
M  V30 4669 H 426.379 -4.22995 -4.07859 0
M  V30 4670 H 427.903 -3.70796 -4.85121 0
M  V30 4671 H 429.317 -4.92553 -2.93368 0
M  V30 4672 H 427.714 -5.5032 -2.39306 0
M  V30 4673 H 428.784 -4.68828 -1.23807 0
M  V30 4674 N 430.127 0.543554 -1.4793 0
M  V30 4675 C 431.404 1.30458 -1.4574 0
M  V30 4676 C 431.784 2.1048 -0.161692 0
M  V30 4677 O 431.132 2.11831 0.856734 0
M  V30 4678 C 431.342 2.19754 -2.71126 0
M  V30 4679 C 432.69 2.80334 -3.18901 0
M  V30 4680 O 433.714 2.30049 -2.71948 0
M  V30 4681 O 432.573 3.71766 -4.00565 0
M  V30 4682 H 429.667 0.588117 -0.581418 0
M  V30 4683 H 432.213 0.561328 -1.60147 0
M  V30 4684 H 430.985 1.60316 -3.56952 0
M  V30 4685 H 430.608 3.01351 -2.59371 0
M  V30 4686 N 431.605 1.3629 0.791371 0
M  V30 4687 C 432.882 1.20962 1.53712 0
M  V30 4688 C 433.262 -0.205021 2.10102 0
M  V30 4689 O 432.61 -1.21042 1.93807 0
M  V30 4690 C 432.82 2.29002 2.63361 0
M  V30 4691 C 434.168 2.65572 3.31295 0
M  V30 4692 O 435.192 2.2803 2.73643 0
M  V30 4693 O 434.051 3.3018 4.35481 0
M  V30 4694 H 431.145 0.47086 0.679867 0
M  V30 4695 H 433.691 1.48016 0.830021 0
M  V30 4696 H 432.463 3.2382 2.19674 0
M  V30 4697 H 432.086 2.03303 3.41692 0
M  V30 4698 N 433.083 -1.0153 1.20538 0
M  V30 4699 C 434.03 -2.10098 0.955383 0
M  V30 4700 C 435 -1.65702 -0.114878 0
M  V30 4701 O 436.185 -1.90776 0.0301118 0
M  V30 4702 C 433.325 -3.41236 0.514969 0
M  V30 4703 C 432.438 -3.99102 1.65353 0
M  V30 4704 C 431.573 -5.18306 1.16329 0
M  V30 4705 C 430.612 -5.68258 2.27485 0
M  V30 4706 N 429.749 -6.78722 1.7967 0
M  V30 4707 H 434.589 -2.30818 1.88486 0
M  V30 4708 H 432.126 -1.13189 0.939499 0
M  V30 4709 H 434.084 -4.16504 0.240935 0
M  V30 4710 H 432.714 -3.20585 -0.377512 0
M  V30 4711 H 431.766 -3.20918 2.04245 0
M  V30 4712 H 433.078 -4.32177 2.49047 0
M  V30 4713 H 432.232 -6.00782 0.845302 0
M  V30 4714 H 430.971 -4.86799 0.296254 0
M  V30 4715 H 429.976 -4.84385 2.60099 0
M  V30 4716 H 431.201 -6.01798 3.14667 0
M  V30 4717 H 429.147 -6.49042 0.95295 0
M  V30 4718 H 429.064 -7.10996 2.56944 0
M  V30 4719 H 430.332 -7.64759 1.50875 0
M  V30 4720 N 434.561 -1.01147 -1.20859 0
M  V30 4721 C 435.789 -0.716911 -1.94082 0
M  V30 4722 C 436.204 0.721568 -1.74467 0
M  V30 4723 O 435.561 1.48889 -1.05539 0
M  V30 4724 C 435.612 -1.03662 -3.46318 0
M  V30 4725 O 435.333 -2.4186 -3.65288 0
M  V30 4726 C 436.834 -0.762386 -4.36695 0
M  V30 4727 H 434.054 -0.26367 -0.617024 0
M  V30 4728 H 436.598 -1.35127 -1.53496 0
M  V30 4729 H 434.753 -0.447757 -3.84804 0
M  V30 4730 H 435.167 -2.53224 -4.59323 0
M  V30 4731 H 436.641 -1.03621 -5.42187 0
M  V30 4732 H 437.118 0.303514 -4.3815 0
M  V30 4733 H 437.724 -1.33316 -4.03865 0
M  V30 4734 N 436.039 1.36541 -0.78704 0
M  V30 4735 C 437.264 2.0409 -0.369053 0
M  V30 4736 C 437.689 1.58957 1.00569 0
M  V30 4737 O 437.047 0.756926 1.64743 0
M  V30 4738 C 437.095 3.57924 -0.438466 0
M  V30 4739 O 436.199 4.08642 0.555479 0
M  V30 4740 H 435.54 0.645142 -0.157122 0
M  V30 4741 H 438.07 1.74545 -1.06749 0
M  V30 4742 H 438.08 4.06887 -0.301218 0
M  V30 4743 H 436.755 3.90127 -1.44132 0
M  V30 4744 H 435.332 3.70958 0.380088 0
M  V30 4745 N 437.518 0.538854 1.48102 0
M  V30 4746 C 438.748 0.0122958 2.06596 0
M  V30 4747 C 439.156 -1.27861 1.39457 0
M  V30 4748 O 438.499 -1.77348 0.478907 0
M  V30 4749 C 438.561 -0.273131 3.58461 0
M  V30 4750 C 438.225 0.92561 4.47528 0
M  V30 4751 C 439.222 1.82637 4.86765 0
M  V30 4752 C 436.907 1.13511 4.89306 0
M  V30 4753 C 438.901 2.92047 5.66558 0
M  V30 4754 C 436.588 2.23233 5.68868 0
M  V30 4755 C 437.586 3.12333 6.07402 0
M  V30 4756 O 437.274 4.20155 6.85365 0
M  V30 4757 H 437.006 0.0344283 0.675123 0
M  V30 4758 H 439.56 0.746494 1.91355 0
M  V30 4759 H 437.79 -1.06141 3.71848 0
M  V30 4760 H 439.479 -0.742842 3.99045 0
M  V30 4761 H 440.245 1.67649 4.55103 0
M  V30 4762 H 436.124 0.450835 4.5879 0
M  V30 4763 H 439.668 3.6162 5.96554 0
M  V30 4764 H 435.565 2.38201 5.99942 0
M  V30 4765 H 436.333 4.17975 7.03732 0
M  V30 4766 N 438.996 -1.55193 0.274407 0
M  V30 4767 C 439.943 -2.225 -0.613374 0
M  V30 4768 C 440.913 -1.19823 -1.15029 0
M  V30 4769 O 442.098 -1.48362 -1.19973 0
M  V30 4770 C 439.238 -2.94927 -1.79199 0
M  V30 4771 C 438.351 -4.12322 -1.28899 0
M  V30 4772 C 437.486 -4.72394 -2.42934 0
M  V30 4773 C 436.525 -5.81984 -1.89634 0
M  V30 4774 N 435.662 -6.36123 -2.9714 0
M  V30 4775 H 440.502 -2.97982 -0.032756 0
M  V30 4776 H 438.039 -1.47099 -0.00440146 0
M  V30 4777 H 439.997 -3.35134 -2.48478 0
M  V30 4778 H 438.627 -2.2187 -2.34465 0
M  V30 4779 H 437.679 -3.7724 -0.489327 0
M  V30 4780 H 438.991 -4.91355 -0.858587 0
M  V30 4781 H 438.145 -5.15317 -3.20208 0
M  V30 4782 H 436.884 -3.92636 -2.8929 0
M  V30 4783 H 435.889 -5.38511 -1.1084 0
M  V30 4784 H 437.114 -6.6361 -1.44215 0
M  V30 4785 H 435.06 -5.59259 -3.42878 0
M  V30 4786 H 434.977 -7.10427 -2.58515 0
M  V30 4787 H 436.245 -6.83704 -3.74391 0
M  V30 4788 N 440.474 -0.00167713 -1.576 0
M  V30 4789 C 441.723 0.682021 -1.89819 0
M  V30 4790 C 442.036 1.74844 -0.876871 0
M  V30 4791 O 443.242 2.48688 -1.08934 0
M  V30 4792 C 441.698 1.26425 -3.36964 0
M  V30 4793 C 441.306 0.232568 -4.47396 0
M  V30 4794 C 443.05 1.92604 -3.78291 0
M  V30 4795 C 440.957 0.824882 -5.85619 0
M  V30 4796 H 439.887 0.258499 -0.708304 0
M  V30 4797 H 442.538 -0.0624957 -1.83394 0
M  V30 4798 H 440.92 2.05949 -3.38232 0
M  V30 4799 H 442.094 -0.5382 -4.57646 0
M  V30 4800 H 440.409 -0.32888 -4.15099 0
M  V30 4801 H 443.006 2.37827 -4.78897 0
M  V30 4802 H 443.349 2.75732 -3.11894 0
M  V30 4803 H 443.882 1.19812 -3.79328 0
M  V30 4804 H 440.621 0.0323542 -6.55492 0
M  V30 4805 H 440.141 1.56477 -5.79029 0
M  V30 4806 H 441.82 1.32301 -6.33329 0
M  V30 4807 N 441.952 1.55251 0.271103 0
M  V30 4808 C 443.229 1.66664 1.02384 0
M  V30 4809 C 443.609 0.534363 2.04225 0
M  V30 4810 O 442.957 -0.465337 2.23712 0
M  V30 4811 C 443.167 3.05961 1.67895 0
M  V30 4812 C 444.515 3.63772 2.18986 0
M  V30 4813 O 445.539 3.08606 1.77878 0
M  V30 4814 O 444.398 4.60429 2.94393 0
M  V30 4815 H 441.492 0.676957 0.475035 0
M  V30 4816 H 444.038 1.67589 0.26681 0
M  V30 4817 H 442.81 3.79815 0.941071 0
M  V30 4818 H 442.433 3.08943 2.5028 0
M  V30 4819 N 443.43 -0.535701 1.48216 0
M  V30 4820 C 444.678 -1.28928 1.55634 0
M  V30 4821 C 444.999 -1.93645 0.229514 0
M  V30 4822 O 444.269 -1.81038 -0.74846 0
M  V30 4823 H 442.849 -0.47884 0.573342 0
M  V30 4824 H 445.511 -0.623853 1.84646 0
M  V30 4825 H 444.607 -2.07157 2.33436 0
M  V30 4826 N 444.908 -1.36708 -0.784132 0
M  V30 4827 C 445.855 -1.31466 -1.89698 0
M  V30 4828 C 446.825 -0.18239 -1.65096 0
M  V30 4829 O 448.01 -0.369762 -1.87183 0
M  V30 4830 C 445.15 -1.1151 -3.26588 0
M  V30 4831 C 444.263 -2.33859 -3.63227 0
M  V30 4832 C 443.398 -2.06873 -4.89262 0
M  V30 4833 C 442.437 -3.25154 -5.18595 0
M  V30 4834 N 441.574 -2.978 -6.35814 0
M  V30 4835 H 446.414 -2.26619 -1.93515 0
M  V30 4836 H 443.951 -1.12625 -0.946256 0
M  V30 4837 H 445.909 -0.979653 -4.05535 0
M  V30 4838 H 444.539 -0.200103 -3.22179 0
M  V30 4839 H 443.591 -2.58188 -2.79362 0
M  V30 4840 H 444.903 -3.22109 -3.8085 0
M  V30 4841 H 444.057 -1.90289 -5.76086 0
M  V30 4842 H 442.796 -1.15942 -4.73718 0
M  V30 4843 H 441.801 -3.42292 -4.30251 0
M  V30 4844 H 443.026 -4.1692 -5.36055 0
M  V30 4845 H 440.972 -2.09485 -6.21653 0
M  V30 4846 H 440.889 -3.7959 -6.53794 0
M  V30 4847 H 442.157 -2.84805 -7.25607 0
M  V30 4848 N 446.386 1.0089 -1.21074 0
M  V30 4849 C 447.634 1.74262 -1.02358 0
M  V30 4850 C 447.955 1.89869 0.444393 0
M  V30 4851 O 447.225 1.44677 1.32081 0
M  V30 4852 H 445.805 0.645615 -0.375754 0
M  V30 4853 H 448.467 1.21596 -1.52317 0
M  V30 4854 H 447.563 2.74328 -1.4883 0
M  V30 4855 N 447.864 1.01787 1.20321 0
M  V30 4856 C 449.11 0.718699 1.90279 0
M  V30 4857 C 449.465 -0.743669 1.77447 0
M  V30 4858 O 448.758 -1.53345 1.14874 0
M  V30 4859 C 448.952 1.09076 3.40349 0
M  V30 4860 C 448.781 2.58775 3.67784 0
M  V30 4861 C 447.551 3.25578 3.86428 0
M  V30 4862 C 449.749 3.56966 3.70243 0
M  V30 4863 N 447.731 4.64495 4.01395 0
M  V30 4864 C 449.102 4.8145 3.90649 0
M  V30 4865 C 451.157 3.5092 3.53213 0
M  V30 4866 C 449.86 6.00619 3.95789 0
M  V30 4867 C 451.886 4.69493 3.59625 0
M  V30 4868 C 451.248 5.92786 3.80505 0
M  V30 4869 H 447.347 0.31468 0.715891 0
M  V30 4870 H 449.931 1.30295 1.44677 0
M  V30 4871 H 448.102 0.534839 3.847 0
M  V30 4872 H 449.834 0.744997 3.97784 0
M  V30 4873 H 446.589 2.76003 3.84862 0
M  V30 4874 H 447.013 5.36624 4.12752 0
M  V30 4875 H 451.655 2.56593 3.36035 0
M  V30 4876 H 449.373 6.95326 4.11762 0
M  V30 4877 H 452.959 4.66432 3.47754 0
M  V30 4878 H 451.839 6.83003 3.85327 0
M  V30 4879 N 449.342 -1.36122 0.79427 0
M  V30 4880 C 450.274 -2.28683 0.153903 0
M  V30 4881 C 451.287 -1.49707 -0.639669 0
M  V30 4882 O 452.476 -1.7209 -0.474054 0
M  V30 4883 C 449.576 -3.29202 -0.804921 0
M  V30 4884 C 448.749 -4.37358 -0.060366 0
M  V30 4885 C 447.808 -5.17811 -0.935849 0
M  V30 4886 O 446.834 -5.67853 -0.391309 0
M  V30 4887 N 448.036 -5.34721 -2.25951 0
M  V30 4888 H 450.801 -2.84278 0.949008 0
M  V30 4889 H 448.362 -1.4834 0.648611 0
M  V30 4890 H 450.354 -3.79914 -1.39455 0
M  V30 4891 H 448.924 -2.74212 -1.50088 0
M  V30 4892 H 448.144 -3.87746 0.710382 0
M  V30 4893 H 449.432 -5.06777 0.45324 0
M  V30 4894 H 448.83 -4.95687 -2.72601 0
M  V30 4895 H 447.387 -5.88657 -2.79867 0
M  V30 4896 N 450.82 -0.546701 -1.47814 0
M  V30 4897 C 451.767 0.206854 -2.29871 0
M  V30 4898 C 452.737 0.918235 -1.38411 0
M  V30 4899 O 453.922 0.915991 -1.67375 0
M  V30 4900 C 451.062 1.23746 -3.22151 0
M  V30 4901 C 450.175 0.533216 -4.28697 0
M  V30 4902 C 449.31 1.5482 -5.08138 0
M  V30 4903 C 448.349 0.828347 -6.06469 0
M  V30 4904 N 447.486 1.78966 -6.78908 0
M  V30 4905 H 452.326 -0.499037 -2.93792 0
M  V30 4906 H 449.863 -0.25793 -1.44821 0
M  V30 4907 H 451.821 1.84746 -3.74065 0
M  V30 4908 H 450.451 1.91151 -2.60117 0
M  V30 4909 H 449.503 -0.191089 -3.7992 0
M  V30 4910 H 450.815 -0.0311987 -4.9879 0
M  V30 4911 H 449.969 2.23202 -5.6415 0
M  V30 4912 H 448.708 2.14652 -4.37922 0
M  V30 4913 H 447.713 0.130539 -5.49645 0
M  V30 4914 H 448.938 0.235907 -6.7869 0
M  V30 4915 H 446.884 2.37675 -6.1143 0
M  V30 4916 H 446.801 1.27712 -7.45135 0
M  V30 4917 H 448.069 2.46496 -7.395 0
M  V30 4918 N 452.299 1.55045 -0.282633 0
M  V30 4919 C 453.576 1.9179 0.384166 0
M  V30 4920 C 453.956 1.20778 1.73136 0
M  V30 4921 O 453.304 0.33719 2.25998 0
M  V30 4922 C 453.514 3.45149 0.517014 0
M  V30 4923 C 454.862 4.17064 0.796427 0
M  V30 4924 O 455.886 3.51084 0.601535 0
M  V30 4925 O 454.745 5.33837 1.16962 0
M  V30 4926 H 451.839 0.799483 0.211558 0
M  V30 4927 H 454.385 1.66474 -0.32934 0
M  V30 4928 H 453.157 3.88922 -0.430772 0
M  V30 4929 H 452.78 3.76443 1.2797 0
M  V30 4930 N 453.777 0.010035 1.57597 0
M  V30 4931 C 454.724 -0.978122 2.09049 0
M  V30 4932 C 455.694 -1.33509 0.988159 0
M  V30 4933 O 456.879 -1.43172 1.26121 0
M  V30 4934 C 454.019 -2.26158 2.60666 0
M  V30 4935 C 453.132 -1.96275 3.84838 0
M  V30 4936 C 452.267 -3.18776 4.24918 0
M  V30 4937 C 451.306 -2.84625 5.41899 0
M  V30 4938 N 450.443 -3.99693 5.77226 0
M  V30 4939 H 455.283 -0.532431 2.93205 0
M  V30 4940 H 452.82 -0.251234 1.44939 0
M  V30 4941 H 454.778 -3.01202 2.88675 0
M  V30 4942 H 453.408 -2.68378 1.79369 0
M  V30 4943 H 452.46 -1.11555 3.63675 0
M  V30 4944 H 453.772 -1.67111 4.69974 0
M  V30 4945 H 452.926 -4.02157 4.54262 0
M  V30 4946 H 451.665 -3.51087 3.38511 0
M  V30 4947 H 450.67 -1.99653 5.12268 0
M  V30 4948 H 451.895 -2.53551 6.29991 0
M  V30 4949 H 449.841 -4.31882 4.93776 0
M  V30 4950 H 449.758 -3.74087 6.56959 0
M  V30 4951 H 451.026 -4.83834 6.11167 0
M  V30 4952 N 455.255 -1.55392 -0.262866 0
M  V30 4953 C 456.48 -1.80847 -1.01533 0
M  V30 4954 C 456.905 -0.584946 -1.78774 0
M  V30 4955 O 456.263 0.465701 -1.75217 0
M  V30 4956 C 456.311 -3.03866 -1.94159 0
M  V30 4957 O 455.415 -2.79662 -3.03089 0
M  V30 4958 H 454.756 -0.597441 -0.289759 0
M  V30 4959 H 457.286 -2.02553 -0.288698 0
M  V30 4960 H 457.296 -3.32872 -2.35924 0
M  V30 4961 H 455.971 -3.92564 -1.37354 0
M  V30 4962 H 454.548 -2.61781 -2.65566 0
M  V30 4963 N 456.733 0.527833 -1.48498 0
M  V30 4964 C 457.979 1.28295 -1.57836 0
M  V30 4965 C 458.334 1.9077 -0.249943 0
M  V30 4966 O 457.627 1.76421 0.747402 0
M  V30 4967 C 457.821 2.39275 -2.65485 0
M  V30 4968 C 457.65 1.87679 -4.08664 0
M  V30 4969 C 456.42 1.70187 -4.75778 0
M  V30 4970 C 458.618 1.40409 -4.94762 0
M  V30 4971 N 456.6 1.13238 -6.03366 0
M  V30 4972 C 457.971 0.954216 -6.12613 0
M  V30 4973 C 460.026 1.28732 -4.8097 0
M  V30 4974 C 458.729 0.39915 -7.18192 0
M  V30 4975 C 460.755 0.746244 -5.86673 0
M  V30 4976 C 460.117 0.306457 -7.03733 0
M  V30 4977 H 456.216 0.460408 -0.632099 0
M  V30 4978 H 458.8 0.594913 -1.85388 0
M  V30 4979 H 456.971 3.05572 -2.3975 0
M  V30 4980 H 458.703 3.06308 -2.64495 0
M  V30 4981 H 455.458 1.93772 -4.32145 0
M  V30 4982 H 455.882 0.867687 -6.71417 0
M  V30 4983 H 460.524 1.61338 -3.90807 0
M  V30 4984 H 458.242 0.0607678 -8.08077 0
M  V30 4985 H 461.828 0.659041 -5.78055 0
M  V30 4986 H 460.708 -0.105708 -7.84129 0
M  V30 4987 N 458.211 1.37122 0.776871 0
M  V30 4988 C 459.459 1.31787 1.53221 0
M  V30 4989 C 459.78 -0.0987589 1.9475 0
M  V30 4990 O 459.05 -1.0417 1.65908 0
M  V30 4991 H 457.63 0.484839 0.568278 0
M  V30 4992 H 460.292 1.71556 0.924917 0
M  V30 4993 H 459.388 1.95355 2.43398 0
M  V30 4994 N 459.689 -1.00246 1.21608 0
M  V30 4995 C 460.937 -1.73717 1.0328 0
M  V30 4996 C 461.258 -1.90102 -0.434318 0
M  V30 4997 O 460.528 -1.45376 -1.31311 0
M  V30 4998 H 459.108 -0.643613 0.379172 0
M  V30 4999 H 461.77 -1.20787 1.52959 0
M  V30 5000 H 460.866 -2.73535 1.50283 0
M  V30 5001 N 461.167 -1.02423 -1.1978 0
M  V30 5002 C 462.397 -0.736387 -1.93031 0
M  V30 5003 C 462.805 0.708023 -1.75453 0
M  V30 5004 O 462.148 1.4927 -1.07071 0
M  V30 5005 C 462.21 -1.00194 -3.45255 0
M  V30 5006 C 461.874 -2.43698 -3.86601 0
M  V30 5007 C 462.871 -3.41814 -3.91738 0
M  V30 5008 C 460.556 -2.77975 -4.18372 0
M  V30 5009 C 462.55 -4.72265 -4.28071 0
M  V30 5010 C 460.237 -4.08636 -4.54378 0
M  V30 5011 C 461.235 -5.05592 -4.59201 0
M  V30 5012 O 460.923 -6.33914 -4.94376 0
M  V30 5013 H 460.655 -0.269116 -0.620123 0
M  V30 5014 H 463.209 -1.37043 -1.52998 0
M  V30 5015 H 461.439 -0.310747 -3.85449 0
M  V30 5016 H 463.128 -0.704488 -3.9974 0
M  V30 5017 H 463.894 -3.16671 -3.67348 0
M  V30 5018 H 459.773 -2.0319 -4.13805 0
M  V30 5019 H 463.317 -5.4794 -4.3175 0
M  V30 5020 H 459.214 -4.33556 -4.78226 0
M  V30 5021 H 459.982 -6.38317 -5.12341 0
M  V30 5022 N 462.645 1.35699 -0.801477 0
M  V30 5023 C 463.593 2.3177 -0.196317 0
M  V30 5024 C 464.587 1.56388 0.651081 0
M  V30 5025 O 465.793 1.71557 0.544815 0
M  V30 5026 H 462.168 0.750669 -0.0447189 0
M  V30 5027 H 464.139 2.8036 -1.02181 0
M  V30 5028 C 462.888 3.41671 0.644702 0
M  V30 5029 H 462.211 3.998 0.0019921 0
M  V30 5030 H 463.651 4.11184 1.0346 0
M  V30 5031 C 462.11 2.84271 1.80808 0
M  V30 5032 O 462.64 2.77408 2.9053 0
M  V30 5033 N 460.846 2.41391 1.61799 0
M  V30 5034 H 460.393 2.47173 0.725493 0
M  V30 5035 H 460.351 2.03334 2.39797 0
M  V30 5036 N 464.123 0.554532 1.47522 0
M  V30 5037 C 465.369 0.0295227 2.02779 0
M  V30 5038 C 465.702 -1.31582 1.42828 0
M  V30 5039 O 464.977 -1.85561 0.582872 0
M  V30 5040 C 465.26 -0.0664057 3.60039 0
M  V30 5041 C 465.113 1.30585 4.30427 0
M  V30 5042 C 466.432 -0.781162 4.33112 0
M  V30 5043 H 463.551 0.0122027 0.736899 0
M  V30 5044 H 466.193 0.716305 1.7598 0
M  V30 5045 H 464.343 -0.651307 3.83002 0
M  V30 5046 H 466.015 1.93374 4.18813 0
M  V30 5047 H 464.258 1.88125 3.90886 0
M  V30 5048 H 464.929 1.19147 5.38988 0
M  V30 5049 H 467.405 -0.284565 4.15126 0
M  V30 5050 H 466.281 -0.817237 5.42782 0
M  V30 5051 H 466.542 -1.83672 4.0214 0
M  V30 5052 N 465.601 -1.54893 0.290851 0
M  V30 5053 C 466.829 -2.04343 -0.324288 0
M  V30 5054 C 467.244 -1.16859 -1.48289 0
M  V30 5055 O 466.601 -0.192018 -1.81487 0
M  V30 5056 C 466.652 -3.52756 -0.79026 0
M  V30 5057 O 466.373 -4.36913 0.322213 0
M  V30 5058 C 467.874 -4.18161 -1.4716 0
M  V30 5059 H 465.094 -0.667135 -0.0719173 0
M  V30 5060 H 467.638 -1.99981 0.427529 0
M  V30 5061 H 465.793 -3.57511 -1.49213 0
M  V30 5062 H 466.207 -5.24486 -0.0387372 0
M  V30 5063 H 467.681 -5.23562 -1.7489 0
M  V30 5064 H 468.158 -3.67282 -2.40834 0
M  V30 5065 H 468.764 -4.17454 -0.813178 0
M  V30 5066 N 467.08 -0.0183926 -1.57589 0
M  V30 5067 C 468.496 0.337897 -1.55982 0
M  V30 5068 C 468.696 1.73604 -1.02294 0
M  V30 5069 O 467.752 2.43589 -0.664895 0
M  V30 5070 C 469.065 0.196305 -3.00059 0
M  V30 5071 C 470.613 0.269875 -3.11834 0
M  V30 5072 C 471.088 0.157197 -4.5773 0
M  V30 5073 N 472.579 0.214521 -4.62703 0
M  V30 5074 C 473.314 0.150955 -5.73201 0
M  V30 5075 N 472.81 0.0369212 -6.9279 0
M  V30 5076 N 474.603 0.204162 -5.61729 0
M  V30 5077 H 466.754 -0.93279 -1.90821 0
M  V30 5078 H 469.017 -0.359253 -0.877292 0
M  V30 5079 H 468.723 -0.766383 -3.43248 0
M  V30 5080 H 468.597 0.970908 -3.6449 0
M  V30 5081 H 470.984 1.22302 -2.68563 0
M  V30 5082 H 471.065 -0.534918 -2.50144 0
M  V30 5083 H 470.709 -0.792479 -5.01679 0
M  V30 5084 H 470.639 0.980717 -5.17387 0
M  V30 5085 H 473.13 0.303238 -3.76681 0
M  V30 5086 H 473.443 -0.00518321 -7.728 0
M  V30 5087 H 471.788 0.0022886 -6.95 0
M  V30 5088 H 474.979 0.291575 -4.67191 0
M  V30 5089 H 475.152 0.15116 -6.47824 0
M  V30 5090 N 468.558 1.5553 0.254621 0
M  V30 5091 C 469.788 1.80784 1.00004 0
M  V30 5092 C 470.196 0.59071 1.79742 0
M  V30 5093 O 469.539 -0.449988 1.78103 0
M  V30 5094 C 469.601 2.99268 1.99196 0
M  V30 5095 C 469.265 4.35595 1.38224 0
M  V30 5096 C 470.262 5.13884 0.788611 0
M  V30 5097 C 467.947 4.82281 1.40393 0
M  V30 5098 C 469.941 6.37004 0.224783 0
M  V30 5099 C 467.628 6.05351 0.836243 0
M  V30 5100 C 468.626 6.82551 0.24769 0
M  V30 5101 O 468.314 8.03297 -0.311249 0
M  V30 5102 H 468.046 0.60565 0.300274 0
M  V30 5103 H 470.6 2.03411 0.285143 0
M  V30 5104 H 468.83 2.72377 2.74496 0
M  V30 5105 H 470.519 3.11682 2.60018 0
M  V30 5106 H 471.285 4.78938 0.764423 0
M  V30 5107 H 467.164 4.22189 1.85142 0
M  V30 5108 H 470.708 6.97203 -0.235235 0
M  V30 5109 H 466.605 6.39776 0.857733 0
M  V30 5110 H 467.373 8.1825 -0.20237 0
M  V30 5111 N 470.036 -0.519951 1.48776 0
M  V30 5112 C 470.946 -1.65025 1.66745 0
M  V30 5113 C 471.962 -1.6508 0.549954 0
M  V30 5114 O 473.138 -1.83848 0.822295 0
M  V30 5115 C 470.203 -3.0146 1.71238 0
M  V30 5116 C 469.264 -3.12182 2.94688 0
M  V30 5117 C 468.497 -4.42109 2.98958 0
M  V30 5118 O 468.72 -5.29799 2.1135 0
M  V30 5119 O 467.654 -4.57406 3.91233 0
M  V30 5120 H 471.48 -1.52801 2.62461 0
M  V30 5121 H 469.065 -0.694157 1.32294 0
M  V30 5122 H 470.947 -3.82584 1.76657 0
M  V30 5123 H 469.622 -3.13988 0.786975 0
M  V30 5124 H 468.529 -2.30316 2.94797 0
M  V30 5125 H 469.862 -3.04574 3.86646 0
M  V30 5126 N 471.514 -1.37532 -0.769588 0
M  V30 5127 C 472.76 -1.33057 -1.53048 0
M  V30 5128 C 473.093 0.0841865 -1.94017 0
M  V30 5129 O 472.368 1.04198 -1.64235 0
M  V30 5130 C 472.651 -2.27166 -2.79406 0
M  V30 5131 C 472.504 -3.77429 -2.44677 0
M  V30 5132 C 473.823 -2.19683 -3.81349 0
M  V30 5133 H 470.942 -0.484655 -0.555228 0
M  V30 5134 H 473.584 -1.68251 -0.882702 0
M  V30 5135 H 471.734 -1.97283 -3.34682 0
M  V30 5136 H 473.406 -4.17918 -1.953 0
M  V30 5137 H 471.649 -3.95892 -1.77346 0
M  V30 5138 H 472.32 -4.38716 -3.35011 0
M  V30 5139 H 474.796 -2.46029 -3.35573 0
M  V30 5140 H 473.672 -2.87668 -4.67481 0
M  V30 5141 H 473.933 -1.19045 -4.25771 0
M  V30 5142 N 472.992 0.995999 -1.22138 0
M  V30 5143 C 474.238 1.73767 -1.04561 0
M  V30 5144 C 474.571 1.89633 0.418698 0
M  V30 5145 O 473.846 1.43723 1.3105 0
M  V30 5146 C 474.129 3.14505 -1.75382 0
M  V30 5147 C 473.982 3.06306 -3.29388 0
M  V30 5148 C 475.301 4.13615 -1.50369 0
M  V30 5149 H 472.42 0.630728 -0.38125 0
M  V30 5150 H 475.062 1.16057 -1.50435 0
M  V30 5151 H 473.212 3.63775 -1.36383 0
M  V30 5152 H 474.884 2.64681 -3.77812 0
M  V30 5153 H 473.127 2.43186 -3.59226 0
M  V30 5154 H 473.798 4.05884 -3.74116 0
M  V30 5155 H 476.274 3.73089 -1.84239 0
M  V30 5156 H 475.15 5.10212 -2.02421 0
M  V30 5157 H 475.411 4.39949 -0.435611 0
M  V30 5158 N 474.47 1.03057 1.19235 0
M  V30 5159 C 475.418 0.606391 2.24557 0
M  V30 5160 C 476.412 -0.361826 1.65491 0
M  V30 5161 O 477.618 -0.23022 1.78522 0
M  V30 5162 H 473.993 0.177838 0.730669 0
M  V30 5163 H 475.964 1.50529 2.5765 0
M  V30 5164 C 474.713 -0.0252127 3.47691 0
M  V30 5165 H 474.036 0.710838 3.9343 0
M  V30 5166 H 475.476 -0.284931 4.23042 0
M  V30 5167 C 473.935 -1.27229 3.11953 0
M  V30 5168 O 474.465 -2.36416 3.24762 0
M  V30 5169 N 472.671 -1.16169 2.6637 0
M  V30 5170 H 472.218 -0.273189 2.56147 0
M  V30 5171 H 472.176 -1.99703 2.42829 0
M  V30 5172 N 475.948 -1.35272 0.808662 0
M  V30 5173 C 477.196 -1.98316 0.389233 0
M  V30 5174 C 477.517 -1.64465 -1.04767 0
M  V30 5175 O 476.787 -0.928175 -1.72516 0
M  V30 5176 H 475.367 -0.733585 0.140935 0
M  V30 5177 H 478.029 -1.6515 1.03496 0
M  V30 5178 H 477.125 -3.08123 0.496631 0
M  V30 5179 N 477.426 -0.562348 -1.47226 0
M  V30 5180 C 478.374 0.195476 -2.31777 0
M  V30 5181 C 479.368 0.90433 -1.43242 0
M  V30 5182 O 480.574 0.825031 -1.59979 0
M  V30 5183 H 476.949 0.0819095 -0.747526 0
M  V30 5184 H 478.92 -0.536753 -2.93533 0
M  V30 5185 C 477.669 1.20902 -3.26003 0
M  V30 5186 H 476.992 0.672997 -3.94095 0
M  V30 5187 H 478.432 1.71006 -3.87986 0
M  V30 5188 C 476.891 2.25955 -2.49891 0
M  V30 5189 O 477.421 3.32969 -2.2471 0
M  V30 5190 N 475.627 2.00019 -2.1081 0
M  V30 5191 H 475.174 1.13006 -2.31489 0
M  V30 5192 H 475.132 2.70523 -1.60201 0
M  V30 5193 N 478.904 1.54736 -0.299062 0
M  V30 5194 C 480.153 1.99279 0.311549 0
M  V30 5195 C 480.466 1.19107 1.55154 0
M  V30 5196 O 481.672 1.53908 2.23662 0
M  V30 5197 C 480.128 3.54768 0.605632 0
M  V30 5198 C 479.736 4.43746 -0.615914 0
M  V30 5199 C 481.48 4.07841 1.17754 0
M  V30 5200 C 479.387 5.90663 -0.29509 0
M  V30 5201 H 478.317 0.744359 0.120187 0
M  V30 5202 H 480.968 1.78919 -0.407464 0
M  V30 5203 H 479.35 3.71021 1.38419 0
M  V30 5204 H 480.524 4.39267 -1.39218 0
M  V30 5205 H 478.839 4.01434 -1.10633 0
M  V30 5206 H 481.436 5.15174 1.43179 0
M  V30 5207 H 481.779 3.58324 2.11918 0
M  V30 5208 H 482.312 3.95123 0.460739 0
M  V30 5209 H 479.051 6.44325 -1.20524 0
M  V30 5210 H 478.571 5.98155 0.44394 0
M  V30 5211 H 480.25 6.46916 0.104048 0
M  V30 5212 N 480.382 0.0267497 1.57577 0
M  V30 5213 C 481.659 -0.690926 1.82991 0
M  V30 5214 C 482.039 -1.90471 0.910164 0
M  V30 5215 O 481.387 -2.28474 -0.0347985 0
M  V30 5216 C 481.597 -1.07139 3.32148 0
M  V30 5217 C 482.945 -1.46402 3.98562 0
M  V30 5218 O 483.969 -1.16443 3.36629 0
M  V30 5219 O 482.828 -2.02214 5.07712 0
M  V30 5220 H 479.922 -0.338747 0.75444 0
M  V30 5221 H 482.468 0.0542506 1.69613 0
M  V30 5222 H 481.24 -0.207394 3.9075 0
M  V30 5223 H 480.863 -1.87481 3.50623 0
M  V30 5224 N 481.861 -1.55662 -0.24637 0
M  V30 5225 C 482.791 -1.93377 -1.30873 0
M  V30 5226 C 483.772 -0.798773 -1.50179 0
M  V30 5227 O 484.957 -1.0591 -1.62778 0
M  V30 5228 C 482.087 -2.22893 -2.66338 0
M  V30 5229 C 481.041 -3.38649 -2.61727 0
M  V30 5230 C 480.367 -3.53708 -4.00992 0
M  V30 5231 C 481.667 -4.74323 -2.18666 0
M  V30 5232 H 483.361 -2.82363 -0.995552 0
M  V30 5233 H 480.907 -1.35854 -0.477464 0
M  V30 5234 H 482.86 -2.47866 -3.40794 0
M  V30 5235 H 481.584 -1.30733 -2.99293 0
M  V30 5236 H 480.243 -3.13685 -1.89729 0
M  V30 5237 H 479.891 -2.58967 -4.31214 0
M  V30 5238 H 479.591 -4.31551 -3.98795 0
M  V30 5239 H 481.115 -3.81003 -4.77147 0
M  V30 5240 H 482.529 -4.98665 -2.82854 0
M  V30 5241 H 480.926 -5.55273 -2.27579 0
M  V30 5242 H 481.996 -4.71349 -1.13834 0
M  V30 5243 N 483.339 0.512053 -1.4905 0
M  V30 5244 C 484.286 1.6148 -1.64902 0
M  V30 5245 C 485.256 1.58687 -0.490673 0
M  V30 5246 O 486.441 1.76842 -0.71636 0
M  V30 5247 C 483.581 2.99676 -1.71139 0
M  V30 5248 C 482.694 3.12568 -2.98203 0
M  V30 5249 C 481.829 4.4143 -2.95487 0
M  V30 5250 C 480.868 4.47916 -4.17179 0
M  V30 5251 N 480.005 5.68191 -4.12437 0
M  V30 5252 H 484.845 1.47271 -2.59066 0
M  V30 5253 H 482.382 0.716713 -1.28459 0
M  V30 5254 H 484.34 3.79761 -1.72736 0
M  V30 5255 H 482.97 3.12614 -0.804508 0
M  V30 5256 H 482.022 2.25618 -3.06269 0
M  V30 5257 H 483.334 3.1322 -3.88194 0
M  V30 5258 H 482.488 5.29825 -2.95585 0
M  V30 5259 H 481.227 4.43326 -2.03256 0
M  V30 5260 H 480.232 3.57925 -4.17337 0
M  V30 5261 H 481.457 4.47744 -5.1059 0
M  V30 5262 H 479.403 5.7095 -3.23036 0
M  V30 5263 H 479.32 5.70413 -4.96151 0
M  V30 5264 H 480.588 6.58823 -4.16621 0
M  V30 5265 N 484.817 1.37938 0.762283 0
M  V30 5266 C 485.749 1.30349 1.88525 0
M  V30 5267 C 486.762 0.217402 1.61342 0
M  V30 5268 O 487.951 0.474291 1.72084 0
M  V30 5269 C 485.051 0.994844 3.23969 0
M  V30 5270 C 484.224 2.18829 3.78725 0
M  V30 5271 C 483.283 1.84844 4.92665 0
M  V30 5272 O 482.309 2.57244 5.07754 0
M  V30 5273 N 483.511 0.798201 5.74986 0
M  V30 5274 H 486.276 2.27114 1.95549 0
M  V30 5275 H 483.837 1.31686 0.941825 0
M  V30 5276 H 485.829 0.748168 3.97724 0
M  V30 5277 H 484.399 0.115446 3.12387 0
M  V30 5278 H 483.619 2.59615 2.96637 0
M  V30 5279 H 484.907 2.98497 4.1204 0
M  V30 5280 H 484.305 0.197611 5.65355 0
M  V30 5281 H 482.862 0.611396 6.48926 0
M  V30 5282 N 486.295 -0.989507 1.22664 0
M  V30 5283 C 487.258 -2.06183 1.00106 0
M  V30 5284 C 488.258 -1.60765 -0.0337726 0
M  V30 5285 O 489.448 -1.72989 0.205072 0
M  V30 5286 C 486.58 -3.37021 0.51279 0
M  V30 5287 H 487.773 -2.27629 1.95256 0
M  V30 5288 H 485.326 -1.16158 1.0458 0
M  V30 5289 H 486.061 -3.21261 -0.442917 0
M  V30 5290 H 485.846 -3.71323 1.25942 0
M  V30 5291 H 487.336 -4.1591 0.375315 0
M  V30 5292 N 487.773 -1.03688 -1.18687 0
M  V30 5293 C 489.022 -0.733235 -1.879 0
M  V30 5294 C 489.335 0.741745 -1.8099 0
M  V30 5295 O 490.541 1.15875 -2.4553 0
M  V30 5296 C 488.997 -1.26127 -3.37076 0
M  V30 5297 C 488.605 -2.76461 -3.52524 0
M  V30 5298 C 490.349 -1.03398 -4.11715 0
M  V30 5299 C 488.256 -3.22642 -4.95637 0
M  V30 5300 H 487.186 -0.270584 -0.703776 0
M  V30 5301 H 489.837 -1.25222 -1.34133 0
M  V30 5302 H 488.219 -0.670165 -3.90288 0
M  V30 5303 H 489.393 -3.41296 -3.09602 0
M  V30 5304 H 487.708 -2.97559 -2.91286 0
M  V30 5305 H 490.305 -1.3542 -5.17267 0
M  V30 5306 H 490.648 0.0289246 -4.1629 0
M  V30 5307 H 491.181 -1.5895 -3.64664 0
M  V30 5308 H 487.92 -4.28296 -4.96228 0
M  V30 5309 H 487.44 -2.62539 -5.39289 0
M  V30 5310 H 489.119 -3.16444 -5.64333 0
M  V30 5311 N 489.251 1.34841 -0.815825 0
M  V30 5312 C 490.161 2.33425 -0.234462 0
M  V30 5313 C 491.177 1.62295 0.627413 0
M  V30 5314 O 492.353 1.94109 0.536987 0
M  V30 5315 C 489.418 3.41471 0.599849 0
M  V30 5316 C 488.479 4.28362 -0.283596 0
M  V30 5317 C 487.712 5.31248 0.51099 0
M  V30 5318 O 487.935 5.43056 1.7449 0
M  V30 5319 O 486.869 6.01812 -0.10297 0
M  V30 5320 H 490.695 2.84962 -1.05024 0
M  V30 5321 H 488.28 1.37774 -0.577809 0
M  V30 5322 H 490.162 4.07464 1.07475 0
M  V30 5323 H 488.837 2.9219 1.39308 0
M  V30 5324 H 487.744 3.65318 -0.805836 0
M  V30 5325 H 489.077 4.81066 -1.041 0
M  V30 5326 N 490.729 0.570148 1.46925 0
M  V30 5327 C 491.954 0.0542592 2.07329 0
M  V30 5328 C 492.379 -1.23582 1.41806 0
M  V30 5329 O 491.737 -1.74341 0.497479 0
M  V30 5330 C 491.785 -0.111175 3.60429 0
M  V30 5331 O 490.889 -1.17071 3.95434 0
M  V30 5332 H 490.23 0.0571425 0.661537 0
M  V30 5333 H 492.76 0.789516 1.88753 0
M  V30 5334 H 492.77 -0.321315 4.06733 0
M  V30 5335 H 491.445 0.831012 4.07513 0
M  V30 5336 H 490.022 -0.940029 3.60857 0
M  V30 5337 N 492.207 -1.54576 0.307264 0
M  V30 5338 C 493.17 -2.22423 -0.553224 0
M  V30 5339 C 494.17 -1.21231 -1.05639 0
M  V30 5340 O 495.36 -1.45923 -0.951419 0
M  V30 5341 C 492.492 -2.91552 -1.76664 0
M  V30 5342 H 493.685 -2.99874 0.0396484 0
M  V30 5343 H 491.238 -1.56192 0.0581629 0
M  V30 5344 H 491.973 -2.18196 -2.39918 0
M  V30 5345 H 491.758 -3.65738 -1.41343 0
M  V30 5346 H 493.248 -3.43292 -2.37783 0
M  V30 5347 N 493.685 -0.035106 -1.57561 0
M  V30 5348 C 494.962 0.681212 -1.83354 0
M  V30 5349 C 495.342 1.89986 -0.920252 0
M  V30 5350 O 494.69 2.28489 0.0226815 0
M  V30 5351 C 494.9 1.05376 -3.32712 0
M  V30 5352 C 496.248 1.44286 -3.99333 0
M  V30 5353 O 497.272 1.14656 -3.37242 0
M  V30 5354 O 496.131 1.99518 -5.08778 0
M  V30 5355 H 493.225 0.334741 -0.756226 0
M  V30 5356 H 495.771 -0.0632448 -1.69582 0
M  V30 5357 H 494.543 0.186668 -3.90854 0
M  V30 5358 H 494.166 1.85619 -3.51613 0
M  V30 5359 N 495.163 1.55791 0.238111 0
M  V30 5360 C 496.111 1.91885 1.31464 0
M  V30 5361 C 497.105 0.798929 1.49377 0
M  V30 5362 O 498.311 0.983626 1.50747 0
M  V30 5363 H 494.686 0.609551 0.440399 0
M  V30 5364 H 496.657 2.81747 0.982925 0
M  V30 5365 C 495.406 2.23763 2.6613 0
M  V30 5366 H 494.729 3.09444 2.53149 0
M  V30 5367 H 496.169 2.52915 3.40309 0
M  V30 5368 C 494.628 1.05699 3.1989 0
M  V30 5369 O 495.158 0.309524 4.00506 0
M  V30 5370 N 493.364 0.845251 2.78036 0
M  V30 5371 H 492.911 1.4548 2.12588 0
M  V30 5372 H 492.869 0.0569973 3.14348 0
M  V30 5373 N 496.642 -0.504142 1.49319 0
M  V30 5374 C 497.891 -1.25507 1.57895 0
M  V30 5375 C 498.204 -1.93735 0.269433 0
M  V30 5376 O 499.41 -2.70492 0.233706 0
M  V30 5377 C 497.866 -2.27869 2.78574 0
M  V30 5378 C 497.474 -1.65594 4.16272 0
M  V30 5379 C 499.218 -3.0381 2.96479 0
M  V30 5380 C 497.125 -2.66048 5.28178 0
M  V30 5381 H 496.055 -0.47212 0.587894 0
M  V30 5382 H 498.706 -0.52931 1.757 0
M  V30 5383 H 497.088 -3.03594 2.54257 0
M  V30 5384 H 498.262 -0.958826 4.50714 0
M  V30 5385 H 496.577 -1.02055 4.037 0
M  V30 5386 H 499.174 -3.78925 3.77253 0
M  V30 5387 H 499.517 -3.61235 2.06918 0
M  V30 5388 H 500.05 -2.352 3.20821 0
M  V30 5389 H 496.789 -2.13408 6.19788 0
M  V30 5390 H 496.309 -3.34009 4.98195 0
M  V30 5391 H 497.988 -3.28536 5.57381 0
M  V30 5392 N 498.12 -1.38341 -0.754957 0
M  V30 5393 C 499.367 -1.34473 -1.51404 0
M  V30 5394 C 499.695 0.0656458 -1.94389 0
M  V30 5395 O 498.95 1.04244 -1.65625 0
M  V30 5396 C 499.249 -2.2452 -2.78075 0
M  V30 5397 C 498.915 -3.72512 -2.54059 0
M  V30 5398 C 497.577 -4.1284 -2.47218 0
M  V30 5399 C 499.929 -4.66197 -2.33044 0
M  V30 5400 C 497.257 -5.44945 -2.17376 0
M  V30 5401 C 499.609 -5.98558 -2.04723 0
M  V30 5402 C 498.273 -6.37972 -1.96337 0
M  V30 5403 H 497.543 -0.492072 -0.554027 0
M  V30 5404 H 500.19 -1.70687 -0.868223 0
M  V30 5405 H 498.495 -1.81357 -3.473 0
M  V30 5406 H 500.192 -2.18832 -3.36026 0
M  V30 5407 H 496.782 -3.40538 -2.60253 0
M  V30 5408 H 500.966 -4.35888 -2.37309 0
M  V30 5409 H 496.222 -5.74426 -2.09391 0
M  V30 5410 H 500.396 -6.70693 -1.87465 0
M  V30 5411 H 498.023 -7.40258 -1.72978 0
M  V30 5412 N 499.598 0.982988 -1.23187 0
M  V30 5413 C 500.845 1.72392 -1.06241 0
M  V30 5414 C 501.173 1.9032 0.40108 0
M  V30 5415 O 500.428 1.45084 1.31336 0
M  V30 5416 C 500.727 3.12736 -1.73006 0
M  V30 5417 C 500.393 3.14695 -3.22921 0
M  V30 5418 C 499.055 3.14937 -3.63824 0
M  V30 5419 C 501.407 3.10211 -4.1883 0
M  V30 5420 C 498.735 3.08408 -4.99101 0
M  V30 5421 C 501.087 3.05224 -5.54095 0
M  V30 5422 C 499.751 3.03787 -5.94365 0
M  V30 5423 H 499.021 0.630829 -0.388762 0
M  V30 5424 H 501.668 1.15053 -1.53085 0
M  V30 5425 H 499.973 3.73446 -1.18514 0
M  V30 5426 H 501.67 3.68828 -1.57374 0
M  V30 5427 H 498.26 3.15262 -2.90358 0
M  V30 5428 H 502.444 3.09166 -3.8824 0
M  V30 5429 H 497.7 3.05646 -5.29519 0
M  V30 5430 H 501.874 3.00712 -6.28128 0
M  V30 5431 H 499.501 2.98483 -6.99151 0
M  V30 5432 N 501.076 1.04316 1.18135 0
M  V30 5433 C 502.039 0.640794 2.2006 0
M  V30 5434 C 503.039 -0.303124 1.57917 0
M  V30 5435 O 504.229 -0.0881855 1.73977 0
M  V30 5436 C 501.361 -0.060148 3.40847 0
M  V30 5437 H 502.554 1.54281 2.57172 0
M  V30 5438 H 500.107 0.836004 1.32063 0
M  V30 5439 H 500.842 -0.975845 3.0927 0
M  V30 5440 H 500.627 0.618319 3.87194 0
M  V30 5441 H 502.117 -0.328082 4.16309 0
M  V30 5442 N 502.554 -1.34406 0.822964 0
M  V30 5443 C 503.97 -1.51275 0.508727 0
M  V30 5444 C 504.17 -1.76776 -0.967083 0
M  V30 5445 O 503.226 -1.81871 -1.75155 0
M  V30 5446 C 504.539 -2.67765 1.36829 0
M  V30 5447 C 506.087 -2.81647 1.36542 0
M  V30 5448 C 506.562 -4.01181 2.20947 0
M  V30 5449 N 508.053 -4.08388 2.18571 0
M  V30 5450 C 508.788 -5.00036 2.80627 0
M  V30 5451 N 508.284 -5.96906 3.51674 0
M  V30 5452 N 510.077 -4.92908 2.70181 0
M  V30 5453 H 502.228 -1.16113 1.77852 0
M  V30 5454 H 504.491 -0.56947 0.757897 0
M  V30 5455 H 504.197 -2.55551 2.41633 0
M  V30 5456 H 504.071 -3.62779 1.03303 0
M  V30 5457 H 506.458 -2.93303 0.325163 0
M  V30 5458 H 506.539 -1.87443 1.74066 0
M  V30 5459 H 506.183 -3.90286 3.25022 0
M  V30 5460 H 506.113 -4.94599 1.80774 0
M  V30 5461 H 508.604 -3.39051 1.66891 0
M  V30 5462 H 508.917 -6.63468 3.96271 0
M  V30 5463 H 507.262 -5.9703 3.5578 0
M  V30 5464 H 510.453 -4.1619 2.14251 0
M  V30 5465 H 510.626 -5.64137 3.18831 0
M  V30 5466 N 504.032 -0.577932 -1.46621 0
M  V30 5467 C 505.278 -0.0617793 -2.02706 0
M  V30 5468 C 505.611 1.29294 -1.44903 0
M  V30 5469 O 504.886 1.8461 -0.61232 0
M  V30 5470 C 505.169 0.00911824 -3.60099 0
M  V30 5471 C 505.022 -1.37416 -4.28295 0
M  V30 5472 C 506.341 0.712159 -4.343 0
M  V30 5473 H 503.46 -0.0239246 -0.736612 0
M  V30 5474 H 506.102 -0.744211 -1.74818 0
M  V30 5475 H 504.252 0.590292 -3.83989 0
M  V30 5476 H 505.924 -2.00013 -4.15683 0
M  V30 5477 H 504.167 -1.94319 -3.87843 0
M  V30 5478 H 504.838 -1.27707 -5.37024 0
M  V30 5479 H 507.314 0.218486 -4.15526 0
M  V30 5480 H 506.19 0.730782 -5.44014 0
M  V30 5481 H 506.451 1.77251 -4.05012 0
M  V30 5482 N 505.51 1.54411 -0.315457 0
M  V30 5483 C 506.473 2.22713 0.54142 0
M  V30 5484 C 507.473 1.2179 1.04995 0
M  V30 5485 O 508.663 1.46426 0.943667 0
M  V30 5486 C 505.795 2.92485 1.75116 0
M  V30 5487 H 506.988 2.99849 -0.0555508 0
M  V30 5488 H 504.541 1.56159 -0.0664453 0
M  V30 5489 H 505.276 2.19466 2.38758 0
M  V30 5490 H 505.061 3.66483 1.39401 0
M  V30 5491 H 506.551 3.44548 2.35959 0
M  V30 5492 N 506.988 0.0434614 1.5754 0
M  V30 5493 C 507.918 -0.931651 2.14109 0
M  V30 5494 C 508.899 -1.32971 1.06079 0
M  V30 5495 O 510.084 -1.40579 1.33982 0
M  V30 5496 C 507.214 -2.20914 2.67982 0
M  V30 5497 C 506.168 -1.95139 3.80926 0
M  V30 5498 C 505.494 -3.29276 4.21285 0
M  V30 5499 C 506.794 -1.27913 5.06395 0
M  V30 5500 H 508.488 -0.460497 2.95837 0
M  V30 5501 H 506.034 -0.220058 1.42309 0
M  V30 5502 H 507.987 -2.89522 3.06194 0
M  V30 5503 H 506.711 -2.70221 1.83434 0
M  V30 5504 H 505.37 -1.28945 3.43175 0
M  V30 5505 H 505.018 -3.76369 3.33699 0
M  V30 5506 H 504.718 -3.12831 4.97404 0
M  V30 5507 H 506.242 -3.99129 4.62091 0
M  V30 5508 H 507.656 -1.86544 5.42102 0
M  V30 5509 H 506.053 -1.2182 5.87605 0
M  V30 5510 H 507.123 -0.254066 4.84234 0
M  V30 5511 N 508.466 -1.55915 -0.229846 0
M  V30 5512 C 509.376 -1.94891 -1.30593 0
M  V30 5513 C 510.392 -0.851604 -1.51736 0
M  V30 5514 O 511.568 -1.15447 -1.65027 0
M  V30 5515 C 508.633 -2.25052 -2.63728 0
M  V30 5516 C 507.694 -3.48306 -2.5096 0
M  V30 5517 C 506.927 -3.77019 -3.77747 0
M  V30 5518 O 507.15 -3.07534 -4.80395 0
M  V30 5519 O 506.084 -4.70523 -3.75356 0
M  V30 5520 H 509.91 -2.86581 -1.00525 0
M  V30 5521 H 507.495 -1.43017 -0.432025 0
M  V30 5522 H 509.377 -2.45682 -3.42372 0
M  V30 5523 H 508.052 -1.36538 -2.93495 0
M  V30 5524 H 506.959 -3.32964 -1.70546 0
M  V30 5525 H 508.292 -4.37177 -2.26136 0
M  V30 5526 N 509.944 0.496216 -1.49584 0
M  V30 5527 C 510.874 1.60576 -1.69521 0
M  V30 5528 C 511.855 1.61169 -0.543933 0
M  V30 5529 O 513.04 1.77834 -0.78031 0
M  V30 5530 C 510.17 2.99038 -1.76616 0
M  V30 5531 C 509.124 3.13312 -2.91581 0
M  V30 5532 C 508.45 4.53172 -2.83794 0
M  V30 5533 C 509.75 2.92886 -4.32452 0
M  V30 5534 H 511.444 1.44146 -2.62416 0
M  V30 5535 H 508.99 0.692024 -1.26282 0
M  V30 5536 H 510.943 3.76564 -1.8915 0
M  V30 5537 H 509.667 3.16568 -0.80324 0
M  V30 5538 H 508.326 2.38213 -2.78658 0
M  V30 5539 H 507.974 4.67585 -1.854 0
M  V30 5540 H 507.674 4.63662 -3.60958 0
M  V30 5541 H 509.198 5.32752 -2.98342 0
M  V30 5542 H 510.612 3.60178 -4.46032 0
M  V30 5543 H 509.009 3.14844 -5.10875 0
M  V30 5544 H 510.079 1.88966 -4.46565 0
M  V30 5545 N 511.423 1.38739 0.74761 0
M  V30 5546 C 512.671 1.35007 1.50391 0
M  V30 5547 C 512.992 -0.0574274 1.94915 0
M  V30 5548 O 512.262 -1.00628 1.6808 0
M  V30 5549 H 510.842 0.496784 0.557866 0
M  V30 5550 H 513.504 1.73479 0.888319 0
M  V30 5551 H 512.6 2.00474 2.392 0
M  V30 5552 N 512.901 -0.976442 1.23707 0
M  V30 5553 C 514.126 -1.75875 1.09922 0
M  V30 5554 C 514.551 -1.84911 -0.34489 0
M  V30 5555 O 513.909 -1.31363 -1.24954 0
M  V30 5556 C 513.957 -3.16179 1.73388 0
M  V30 5557 O 513.061 -4.00124 0.99871 0
M  V30 5558 H 512.402 -0.540954 0.385052 0
M  V30 5559 H 514.932 -1.22546 1.6384 0
M  V30 5560 H 514.942 -3.66741 1.78788 0
M  V30 5561 H 513.617 -3.08917 2.78466 0
M  V30 5562 H 512.194 -3.58624 1.02193 0
M  V30 5563 N 514.379 -1.04941 -1.1758 0
M  V30 5564 C 515.326 -0.648155 -2.21512 0
M  V30 5565 C 516.296 0.348431 -1.62404 0
M  V30 5566 O 517.481 0.240419 -1.89279 0
M  V30 5567 C 514.621 -0.0264291 -3.4509 0
M  V30 5568 C 513.734 -1.07154 -4.185 0
M  V30 5569 C 512.869 -0.417403 -5.29558 0
M  V30 5570 C 511.908 -1.447 -5.94751 0
M  V30 5571 N 511.045 -0.817203 -6.97328 0
M  V30 5572 H 515.885 -1.53891 -2.55189 0
M  V30 5573 H 513.422 -0.769699 -1.25356 0
M  V30 5574 H 515.38 0.351456 -4.15717 0
M  V30 5575 H 514.01 0.827802 -3.12005 0
M  V30 5576 H 513.062 -1.56728 -3.46613 0
M  V30 5577 H 514.374 -1.8532 -4.63096 0
M  V30 5578 H 513.528 0.0142061 -6.06698 0
M  V30 5579 H 512.267 0.396265 -4.86087 0
M  V30 5580 H 511.272 -1.88865 -5.16343 0
M  V30 5581 H 512.497 -2.26252 -6.40302 0
M  V30 5582 H 510.443 -0.0239995 -6.55996 0
M  V30 5583 H 510.36 -1.53644 -7.40223 0
M  V30 5584 H 511.628 -0.410283 -7.7842 0
M  V30 5585 N 515.857 1.33968 -0.830081 0
M  V30 5586 C 516.804 2.29387 -0.255008 0
M  V30 5587 C 517.774 1.53923 0.624243 0
M  V30 5588 O 518.959 1.82262 0.564372 0
M  V30 5589 C 516.099 3.4034 0.571209 0
M  V30 5590 C 515.212 4.30729 -0.331083 0
M  V30 5591 C 514.347 5.2879 0.505389 0
M  V30 5592 C 513.386 6.10819 -0.395843 0
M  V30 5593 N 512.523 7.00948 0.401979 0
M  V30 5594 H 517.363 2.77972 -1.07404 0
M  V30 5595 H 514.9 1.36785 -0.541133 0
M  V30 5596 H 516.858 4.03361 1.06562 0
M  V30 5597 H 515.488 2.9297 1.35529 0
M  V30 5598 H 514.54 3.68507 -0.943759 0
M  V30 5599 H 515.852 4.88181 -1.02377 0
M  V30 5600 H 515.006 5.97297 1.06399 0
M  V30 5601 H 513.745 4.71894 1.23155 0
M  V30 5602 H 512.75 5.41238 -0.966529 0
M  V30 5603 H 513.975 6.69797 -1.12023 0
M  V30 5604 H 511.921 6.46512 1.11168 0
M  V30 5605 H 511.838 7.55643 -0.232167 0
M  V30 5606 H 513.106 7.73774 0.943102 0
M  V30 5607 N 517.335 0.585699 1.46312 0
M  V30 5608 C 518.582 0.0724211 2.0237 0
M  V30 5609 C 518.91 -1.28868 1.45683 0
M  V30 5610 O 518.165 -1.85853 0.612945 0
M  V30 5611 C 518.464 -0.0401312 3.57377 0
M  V30 5612 C 518.13 1.25376 4.33119 0
M  V30 5613 C 516.792 1.60824 4.5353 0
M  V30 5614 C 519.144 2.10987 4.76586 0
M  V30 5615 C 516.472 2.81676 5.14661 0
M  V30 5616 C 518.824 3.31068 5.39052 0
M  V30 5617 C 517.488 3.66794 5.5769 0
M  V30 5618 H 516.758 0.0265007 0.740526 0
M  V30 5619 H 519.405 0.762935 1.75646 0
M  V30 5620 H 517.71 -0.813791 3.83255 0
M  V30 5621 H 519.407 -0.453078 3.98432 0
M  V30 5622 H 515.997 0.967808 4.1753 0
M  V30 5623 H 520.181 1.84904 4.60569 0
M  V30 5624 H 515.437 3.0949 5.27282 0
M  V30 5625 H 519.611 3.97672 5.71691 0
M  V30 5626 H 517.238 4.60529 6.04828 0
M  V30 5627 N 518.813 -1.54241 0.323641 0
M  V30 5628 C 519.723 -2.28033 -0.551205 0
M  V30 5629 C 520.739 -1.32388 -1.12913 0
M  V30 5630 O 521.915 -1.65403 -1.14908 0
M  V30 5631 C 518.98 -3.02382 -1.69606 0
M  V30 5632 C 518.041 -4.13612 -1.14993 0
M  V30 5633 C 517.274 -4.84407 -2.24022 0
M  V30 5634 O 517.497 -4.54716 -3.44368 0
M  V30 5635 O 516.431 -5.71312 -1.89436 0
M  V30 5636 H 520.257 -3.03662 0.048066 0
M  V30 5637 H 517.842 -1.49133 0.0893289 0
M  V30 5638 H 519.724 -3.48941 -2.36259 0
M  V30 5639 H 518.399 -2.29628 -2.28151 0
M  V30 5640 H 517.306 -3.71402 -0.448484 0
M  V30 5641 H 518.639 -4.8841 -0.609608 0
M  V30 5642 N 520.291 -0.0518155 -1.57515 0
M  V30 5643 C 521.238 0.922352 -2.11569 0
M  V30 5644 C 522.208 1.30842 -1.02321 0
M  V30 5645 O 523.393 1.39778 -1.29872 0
M  V30 5646 C 520.533 2.19167 -2.6657 0
M  V30 5647 C 519.646 1.86003 -3.89906 0
M  V30 5648 C 518.781 3.07398 -4.33221 0
M  V30 5649 C 517.82 2.70158 -5.49255 0
M  V30 5650 N 516.957 3.84248 -5.8762 0
M  V30 5651 H 521.797 0.454506 -2.94514 0
M  V30 5652 H 519.334 0.212718 -1.45554 0
M  V30 5653 H 521.292 2.93443 -2.96559 0
M  V30 5654 H 519.922 2.63528 -1.86421 0
M  V30 5655 H 518.974 1.01874 -3.66505 0
M  V30 5656 H 520.286 1.54592 -4.74239 0
M  V30 5657 H 519.44 3.89972 -4.64765 0
M  V30 5658 H 518.179 3.41988 -3.477 0
M  V30 5659 H 517.184 1.86001 -5.17382 0
M  V30 5660 H 518.409 2.36759 -6.36492 0
M  V30 5661 H 516.355 4.18638 -5.05053 0
M  V30 5662 H 516.272 3.56538 -6.66646 0
M  V30 5663 H 517.54 4.6746 -6.2378 0
M  V30 5664 N 521.769 1.56035 0.221574 0
M  V30 5665 C 523.017 1.78693 0.944102 0
M  V30 5666 C 523.338 0.620317 1.8487 0
M  V30 5667 O 522.608 -0.362784 1.92512 0
M  V30 5668 H 521.188 0.659082 0.351597 0
M  V30 5669 H 523.85 1.93497 0.233435 0
M  V30 5670 H 522.946 2.70837 1.55093 0
M  V30 5671 N 523.247 -0.488276 1.49845 0
M  V30 5672 C 524.18 -1.60651 1.62069 0
M  V30 5673 C 525.158 -1.5568 0.469308 0
M  V30 5674 O 526.342 -1.75553 0.686551 0
M  V30 5675 C 523.469 -2.99197 1.58741 0
M  V30 5676 C 522.515 -3.22385 2.79232 0
M  V30 5677 S 523.348 -3.04133 4.40753 0
M  V30 5678 C 524.504 -4.45052 4.4009 0
M  V30 5679 H 524.737 -1.50039 2.56662 0
M  V30 5680 H 522.27 -0.674371 1.38894 0
M  V30 5681 H 524.228 -3.79081 1.57506 0
M  V30 5682 H 522.889 -3.07213 0.654136 0
M  V30 5683 H 522.082 -4.23557 2.73159 0
M  V30 5684 H 521.684 -2.50245 2.77945 0
M  V30 5685 H 523.976 -5.37375 4.12594 0
M  V30 5686 H 524.919 -4.56172 5.41583 0
M  V30 5687 H 525.327 -4.26327 3.70008 0
M  V30 5688 N 524.725 -1.39134 -0.740242 0
M  V30 5689 C 525.672 -1.37434 -1.8542 0
M  V30 5690 C 526.642 -0.234822 -1.64432 0
M  V30 5691 O 527.827 -0.429125 -1.85912 0
M  V30 5692 C 524.967 -1.21844 -3.22875 0
M  V30 5693 C 524.08 -2.45296 -3.55603 0
M  V30 5694 C 523.215 -2.22334 -4.82432 0
M  V30 5695 C 522.254 -3.41488 -5.07988 0
M  V30 5696 N 521.391 -3.17877 -6.26018 0
M  V30 5697 H 526.231 -2.3266 -1.86207 0
M  V30 5698 H 523.768 -1.15578 -0.909946 0
M  V30 5699 H 525.726 -1.10818 -4.02213 0
M  V30 5700 H 524.356 -0.3025 -3.21379 0
M  V30 5701 H 523.408 -2.66945 -2.71006 0
M  V30 5702 H 524.72 -3.34063 -3.7041 0
M  V30 5703 H 523.874 -2.0852 -5.69741 0
M  V30 5704 H 522.613 -1.30954 -4.6979 0
M  V30 5705 H 521.618 -3.55807 -4.19144 0
M  V30 5706 H 522.843 -4.33763 -5.22519 0
M  V30 5707 H 520.789 -2.29156 -6.14673 0
M  V30 5708 H 520.706 -4.00198 -6.41387 0
M  V30 5709 H 521.974 -3.07746 -7.16179 0
M  V30 5710 N 526.204 0.969867 -1.24223 0
M  V30 5711 C 527.151 2.06407 -1.0327 0
M  V30 5712 C 528.121 1.66014 0.0533 0
M  V30 5713 O 529.306 1.90533 -0.100896 0
M  V30 5714 C 526.446 3.3909 -0.641262 0
M  V30 5715 C 525.559 3.9269 -1.80051 0
M  V30 5716 C 524.694 5.13631 -1.35486 0
M  V30 5717 C 523.733 5.59423 -2.48419 0
M  V30 5718 N 522.87 6.71586 -2.04737 0
M  V30 5719 H 527.71 2.23663 -1.96923 0
M  V30 5720 H 525.247 1.09624 -0.980862 0
M  V30 5721 H 527.205 4.15323 -0.395351 0
M  V30 5722 H 525.835 3.21765 0.258269 0
M  V30 5723 H 524.887 3.13116 -2.16014 0
M  V30 5724 H 526.199 4.22636 -2.64916 0
M  V30 5725 H 525.353 5.97231 -1.0677 0
M  V30 5726 H 524.092 4.85364 -0.476722 0
M  V30 5727 H 523.097 4.74398 -2.77897 0
M  V30 5728 H 524.322 5.89705 -3.36786 0
M  V30 5729 H 522.268 6.45058 -1.19318 0
M  V30 5730 H 522.185 7.0097 -2.83156 0
M  V30 5731 H 523.453 7.58633 -1.79154 0
M  V30 5732 N 527.682 1.05563 1.17022 0
M  V30 5733 C 528.612 0.681026 2.23348 0
M  V30 5734 C 529.593 -0.322983 1.67005 0
M  V30 5735 O 530.778 -0.199746 1.9317 0
M  V30 5736 C 527.908 0.0589053 3.4725 0
M  V30 5737 C 526.862 0.988082 4.16438 0
M  V30 5738 C 526.188 0.229646 5.34207 0
M  V30 5739 C 527.488 2.31388 4.68249 0
M  V30 5740 H 529.182 1.56993 2.54938 0
M  V30 5741 H 526.728 0.756302 1.2254 0
M  V30 5742 H 528.681 -0.214982 4.20851 0
M  V30 5743 H 527.405 -0.864968 3.14938 0
M  V30 5744 H 526.064 1.24659 3.44754 0
M  V30 5745 H 525.712 -0.697111 4.98146 0
M  V30 5746 H 525.412 0.848815 5.81437 0
M  V30 5747 H 526.936 -0.0368694 6.10589 0
M  V30 5748 H 528.35 2.09964 5.33468 0
M  V30 5749 H 526.747 2.88736 5.26072 0
M  V30 5750 H 527.817 2.94982 3.84855 0
M  V30 5751 N 529.16 -1.33526 0.837174 0
M  V30 5752 C 530.408 -1.97446 0.431211 0
M  V30 5753 C 530.729 -1.6665 -1.01255 0
M  V30 5754 O 529.999 -0.964559 -1.70508 0
M  V30 5755 H 528.579 -0.73043 0.156463 0
M  V30 5756 H 531.241 -1.62918 1.06976 0
M  V30 5757 H 530.337 -3.07001 0.561877 0
M  V30 5758 N 530.638 -0.59345 -1.46 0
M  V30 5759 C 531.884 -0.0832754 -2.02629 0
M  V30 5760 C 532.217 1.27749 -1.46266 0
M  V30 5761 O 531.492 1.8395 -0.631866 0
M  V30 5762 C 531.775 -0.0290756 -3.60088 0
M  V30 5763 C 531.628 -1.41951 -4.26814 0
M  V30 5764 C 532.947 0.666055 -4.35031 0
M  V30 5765 H 530.066 -0.031736 -0.736316 0
M  V30 5766 H 532.708 -0.762711 -1.74019 0
M  V30 5767 H 530.858 0.549532 -3.84594 0
M  V30 5768 H 532.53 -2.04411 -4.13538 0
M  V30 5769 H 530.773 -1.98422 -3.8576 0
M  V30 5770 H 531.444 -1.33395 -5.3564 0
M  V30 5771 H 533.92 0.174401 -4.15734 0
M  V30 5772 H 532.796 0.673041 -5.44758 0
M  V30 5773 H 533.057 1.72946 -4.06869 0
M  V30 5774 N 532.116 1.54067 -0.331816 0
M  V30 5775 C 533.364 2.00319 0.267739 0
M  V30 5776 C 533.685 1.22148 1.52003 0
M  V30 5777 O 532.955 0.325494 1.93177 0
M  V30 5778 H 531.535 0.740014 0.101922 0
M  V30 5779 H 534.197 1.89628 -0.450267 0
M  V30 5780 H 533.293 3.07765 0.518385 0
M  V30 5781 N 533.594 0.0601682 1.57485 0
M  V30 5782 C 534.504 -0.926121 2.15546 0
M  V30 5783 C 535.52 -1.33532 1.11558 0
M  V30 5784 O 536.696 -1.4104 1.4377 0
M  V30 5785 C 533.761 -2.17952 2.69625 0
M  V30 5786 C 532.822 -1.82783 3.88444 0
M  V30 5787 C 532.055 -3.02148 4.39935 0
M  V30 5788 O 532.278 -4.15803 3.90466 0
M  V30 5789 O 531.212 -2.82639 5.31412 0
M  V30 5790 H 535.038 -0.462289 3.00161 0
M  V30 5791 H 532.623 -0.162246 1.48516 0
M  V30 5792 H 534.505 -2.91474 3.04337 0
M  V30 5793 H 533.18 -2.63456 1.88077 0
M  V30 5794 H 532.087 -1.06549 3.58606 0
M  V30 5795 H 533.42 -1.42072 4.7125 0
M  V30 5796 N 535.072 -1.5615 -0.213296 0
M  V30 5797 C 536.349 -1.70349 -0.961281 0
M  V30 5798 C 536.729 -0.609791 -2.02101 0
M  V30 5799 O 536.077 0.381987 -2.25285 0
M  V30 5800 C 536.287 -3.11982 -1.56424 0
M  V30 5801 C 537.635 -3.71649 -2.05334 0
M  V30 5802 O 538.659 -3.14995 -1.66302 0
M  V30 5803 O 537.518 -4.71038 -2.77102 0
M  V30 5804 H 534.612 -0.694121 -0.449582 0
M  V30 5805 H 537.158 -1.68464 -0.204426 0
M  V30 5806 H 535.93 -3.83046 -0.799457 0
M  V30 5807 H 535.553 -3.18019 -2.38641 0
M  V30 5808 N 536.55 0.480323 -1.50102 0
M  V30 5809 C 537.799 1.22979 -1.59872 0
M  V30 5810 C 538.112 1.93282 -0.30022 0
M  V30 5811 O 539.318 2.70086 -0.276709 0
M  V30 5812 C 537.774 2.23408 -2.82164 0
M  V30 5813 C 537.382 1.5895 -4.18854 0
M  V30 5814 C 539.126 2.99055 -3.01275 0
M  V30 5815 C 537.033 2.57611 -5.32344 0
M  V30 5816 H 535.963 0.462707 -0.59533 0
M  V30 5817 H 538.614 0.501291 -1.7652 0
M  V30 5818 H 536.996 2.99511 -2.59055 0
M  V30 5819 H 538.17 0.887 -4.52182 0
M  V30 5820 H 536.485 0.956191 -4.05273 0
M  V30 5821 H 539.082 3.72876 -3.83233 0
M  V30 5822 H 539.425 3.57897 -2.12639 0
M  V30 5823 H 539.958 2.30066 -3.24522 0
M  V30 5824 H 536.697 2.03521 -6.23105 0
M  V30 5825 H 536.217 3.26041 -5.03445 0
M  V30 5826 H 537.896 3.19627 -5.62537 0
M  V30 5827 N 538.028 1.39524 0.732853 0
M  V30 5828 C 539.439 1.32905 1.31122 0
M  V30 5829 C 539.79 -0.00558708 1.96199 0
M  V30 5830 O 538.915 -0.907706 1.96443 0
M  V30 5831 C 539.51 2.40704 2.38426 0
M  V30 5832 C 538.069 2.37599 2.91931 0
M  V30 5833 C 537.216 2.2248 1.65523 0
M  V30 5834 H 540.167 1.49581 0.530207 0
M  V30 5835 H 540.188 2.07616 3.18867 0
M  V30 5836 H 539.7 3.37829 1.91033 0
M  V30 5837 H 537.801 1.44119 3.43599 0
M  V30 5838 H 537.914 3.32538 3.44899 0
M  V30 5839 H 536.278 1.69691 1.8994 0
M  V30 5840 H 537.061 3.21577 1.20178 0
M  V30 5841 N 539.506 -0.963266 1.24736 0
M  V30 5842 C 540.731 -1.74699 1.11781 0
M  V30 5843 C 541.156 -1.85267 -0.325258 0
M  V30 5844 O 540.514 -1.32681 -1.23553 0
M  V30 5845 C 540.562 -3.14322 1.76731 0
M  V30 5846 O 539.666 -3.99043 1.04109 0
M  V30 5847 H 539.007 -0.53684 0.390767 0
M  V30 5848 H 541.537 -1.20801 1.65131 0
M  V30 5849 H 541.547 -3.64824 1.82668 0
M  V30 5850 H 540.222 -3.05946 2.81726 0
M  V30 5851 H 538.799 -3.5752 1.05991 0
M  V30 5852 N 540.985 -1.06182 -1.16461 0
M  V30 5853 C 542.262 -0.691364 -1.82974 0
M  V30 5854 C 542.642 0.827377 -1.9421 0
M  V30 5855 O 541.99 1.73723 -1.48434 0
M  V30 5856 C 542.2 -1.39199 -3.20038 0
M  V30 5857 C 543.548 -1.53647 -3.95825 0
M  V30 5858 O 544.572 -1.35181 -3.29552 0
M  V30 5859 O 543.431 -1.83932 -5.14618 0
M  V30 5860 H 540.525 -0.244605 -0.789998 0
M  V30 5861 H 543.071 -1.16203 -1.23673 0
M  V30 5862 H 541.843 -2.42766 -3.06888 0
M  V30 5863 H 541.466 -0.911335 -3.87015 0
M  V30 5864 N 542.463 1.3308 -0.844243 0
M  V30 5865 C 543.693 2.01515 -0.455541 0
M  V30 5866 C 544.101 1.63655 0.949406 0
M  V30 5867 O 543.444 0.84848 1.62931 0
M  V30 5868 C 543.506 3.55967 -0.502801 0
M  V30 5869 C 543.17 4.17222 -1.86481 0
M  V30 5870 C 544.167 4.36205 -2.8288 0
M  V30 5871 C 541.852 4.53528 -2.15911 0
M  V30 5872 C 543.846 4.90649 -4.06869 0
M  V30 5873 C 541.533 5.07679 -3.40155 0
M  V30 5874 C 542.531 5.26186 -4.35451 0
M  V30 5875 O 542.219 5.79183 -5.57496 0
M  V30 5876 H 541.951 0.65199 -0.178565 0
M  V30 5877 H 544.505 1.70867 -1.1399 0
M  V30 5878 H 542.735 3.85965 0.23836 0
M  V30 5879 H 544.424 4.05688 -0.131169 0
M  V30 5880 H 545.19 4.085 -2.61444 0
M  V30 5881 H 541.069 4.38414 -1.42528 0
M  V30 5882 H 544.613 5.0501 -4.81259 0
M  V30 5883 H 540.51 5.34815 -3.61446 0
M  V30 5884 H 541.278 5.97591 -5.5931 0
M  V30 5885 N 543.941 0.601185 1.45683 0
M  V30 5886 C 545.352 0.179659 1.85834 0
M  V30 5887 C 545.703 -1.26189 1.50236 0
M  V30 5888 O 544.828 -1.95587 0.925987 0
M  V30 5889 C 545.423 0.319277 3.37292 0
M  V30 5890 C 543.982 -0.0475092 3.7637 0
M  V30 5891 C 543.129 0.646692 2.69654 0
M  V30 5892 H 546.08 0.808268 1.36575 0
M  V30 5893 H 546.101 -0.4503 3.77826 0
M  V30 5894 H 545.613 1.36855 3.6317 0
M  V30 5895 H 543.714 -1.0962 3.5611 0
M  V30 5896 H 543.827 0.34168 4.7788 0
M  V30 5897 H 542.191 0.0849971 2.54558 0
M  V30 5898 H 542.974 1.69797 2.98369 0
M  V30 5899 N 545.419 -1.53889 0.339982 0
M  V30 5900 C 546.666 -2.00855 -0.257621 0
M  V30 5901 C 546.994 -1.22788 -1.50842 0
M  V30 5902 O 546.249 -0.302567 -1.93347 0
M  V30 5903 C 546.548 -3.51968 -0.620735 0
M  V30 5904 C 546.214 -4.47741 0.532771 0
M  V30 5905 C 544.876 -4.73645 0.849339 0
M  V30 5906 C 547.228 -5.04551 1.3068 0
M  V30 5907 C 544.556 -5.53614 1.94237 0
M  V30 5908 C 546.908 -5.85713 2.39005 0
M  V30 5909 C 545.572 -6.09912 2.71225 0
M  V30 5910 H 544.842 -0.734979 -0.0942703 0
M  V30 5911 H 547.489 -1.85714 0.467159 0
M  V30 5912 H 545.794 -3.64921 -1.42618 0
M  V30 5913 H 547.491 -3.85762 -1.09495 0
M  V30 5914 H 544.081 -4.27711 0.275973 0
M  V30 5915 H 548.265 -4.84507 1.07549 0
M  V30 5916 H 543.521 -5.7059 2.19628 0
M  V30 5917 H 547.695 -6.28748 2.99415 0
M  V30 5918 H 545.322 -6.71665 3.56047 0
M  V30 5919 N 546.897 -0.0685191 -1.57451 0
M  V30 5920 C 548.127 0.609577 -1.97402 0
M  V30 5921 C 548.535 1.63882 -0.945489 0
M  V30 5922 O 547.878 1.8354 0.0766052 0
M  V30 5923 C 547.94 1.3385 -3.33653 0
M  V30 5924 C 547.604 0.463103 -4.54648 0
M  V30 5925 C 548.601 -0.277964 -5.19156 0
M  V30 5926 C 546.286 0.388941 -5.00792 0
M  V30 5927 C 548.28 -1.08145 -6.28159 0
M  V30 5928 C 545.967 -0.418217 -6.09667 0
M  V30 5929 C 546.965 -1.15208 -6.73213 0
M  V30 5930 O 546.653 -1.94594 -7.79993 0
M  V30 5931 H 546.385 0.170197 -0.654224 0
M  V30 5932 H 548.939 -0.13647 -2.04946 0
M  V30 5933 H 547.169 2.13055 -3.22714 0
M  V30 5934 H 548.858 1.90851 -3.58233 0
M  V30 5935 H 549.624 -0.230241 -4.84453 0
M  V30 5936 H 545.503 0.949769 -4.5111 0
M  V30 5937 H 549.047 -1.65476 -6.7769 0
M  V30 5938 H 544.944 -0.467515 -6.43805 0
M  V30 5939 H 545.712 -1.8699 -7.96854 0
M  V30 5940 N 548.375 1.56261 0.205012 0
M  V30 5941 C 549.323 1.94631 1.27364 0
M  V30 5942 C 550.317 0.830434 1.47649 0
M  V30 5943 O 551.523 1.01538 1.48627 0
M  V30 5944 H 547.898 0.618755 0.427371 0
M  V30 5945 H 549.869 2.83768 0.922941 0
M  V30 5946 C 548.618 2.29358 2.61324 0
M  V30 5947 H 547.941 3.14744 2.46528 0
M  V30 5948 H 549.381 2.60076 3.34868 0
M  V30 5949 C 547.84 1.12461 3.17575 0
M  V30 5950 O 548.37 0.394407 3.99759 0
M  V30 5951 N 546.576 0.904036 2.7618 0
M  V30 5952 H 546.123 1.49956 2.09454 0
M  V30 5953 H 546.081 0.123662 3.14157 0
M  V30 5954 N 549.853 -0.472356 1.50355 0
M  V30 5955 C 550.816 -1.5529 1.68576 0
M  V30 5956 C 551.816 -1.50863 0.556511 0
M  V30 5957 O 553.006 -1.53505 0.823516 0
M  V30 5958 C 550.138 -2.94921 1.70981 0
M  V30 5959 H 551.331 -1.40451 2.64978 0
M  V30 5960 H 548.884 -0.698645 1.39816 0
M  V30 5961 H 549.619 -3.15204 0.762675 0
M  V30 5962 H 549.404 -2.99541 2.53017 0
M  V30 5963 H 550.894 -3.73372 1.87037 0
M  V30 5964 N 551.331 -1.39911 -0.725443 0
M  V30 5965 C 552.263 -1.35301 -1.85003 0
M  V30 5966 C 553.276 -0.260102 -1.60709 0
M  V30 5967 O 554.465 -0.519749 -1.70766 0
M  V30 5968 C 551.565 -1.08039 -3.21218 0
M  V30 5969 C 550.738 -2.28793 -3.7279 0
M  V30 5970 C 549.797 -1.97841 -4.87591 0
M  V30 5971 O 548.823 -2.70616 -5.00755 0
M  V30 5972 N 550.025 -0.950367 -5.72668 0
M  V30 5973 H 552.79 -2.32218 -1.89459 0
M  V30 5974 H 550.351 -1.34137 -0.90658 0
M  V30 5975 H 552.343 -0.853354 -3.95601 0
M  V30 5976 H 550.913 -0.198229 -3.11971 0
M  V30 5977 H 550.133 -2.67388 -2.8965 0
M  V30 5978 H 551.421 -3.09317 -4.03981 0
M  V30 5979 H 550.819 -0.347436 -5.64632 0
M  V30 5980 H 549.376 -0.783232 -6.47077 0
M  V30 5981 N 552.809 0.956637 -1.25245 0
M  V30 5982 C 554.058 1.69537 -1.0927 0
M  V30 5983 C 554.371 1.92136 0.366503 0
M  V30 5984 O 555.577 2.63687 0.64665 0
M  V30 5985 C 554.033 3.05211 -1.9072 0
M  V30 5986 C 553.641 2.90416 -3.41119 0
M  V30 5987 C 555.385 3.82882 -1.83308 0
M  V30 5988 C 553.292 4.21468 -4.14872 0
M  V30 5989 H 552.222 0.635804 -0.405302 0
M  V30 5990 H 554.873 1.06513 -1.49423 0
M  V30 5991 H 553.255 3.69128 -1.43389 0
M  V30 5992 H 554.429 2.35444 -3.9611 0
M  V30 5993 H 552.744 2.26203 -3.49602 0
M  V30 5994 H 555.341 4.79944 -2.35706 0
M  V30 5995 H 555.684 4.0853 -0.800572 0
M  V30 5996 H 556.217 3.25711 -2.28379 0
M  V30 5997 H 552.956 4.01009 -5.18529 0
M  V30 5998 H 552.476 4.76213 -3.64665 0
M  V30 5999 H 554.155 4.90022 -4.22478 0
M  V30 6000 N 554.287 1.06798 1.15896 0
M  V30 6001 C 555.512 0.808739 1.90982 0
M  V30 6002 C 555.937 -0.6316 1.77179 0
M  V30 6003 O 555.295 -1.4407 1.10061 0
M  V30 6004 C 555.343 1.21468 3.39526 0
M  V30 6005 O 554.447 0.356562 4.10856 0
M  V30 6006 H 553.788 0.29512 0.594811 0
M  V30 6007 H 556.318 1.42513 1.46804 0
M  V30 6008 H 556.328 1.18844 3.90308 0
M  V30 6009 H 555.003 2.26379 3.48891 0
M  V30 6010 H 553.58 0.444808 3.70238 0
M  V30 6011 N 555.766 -1.3263 0.851289 0
M  V30 6012 C 556.714 -2.30882 0.282202 0
M  V30 6013 C 557.708 -1.58697 -0.592589 0
M  V30 6014 O 558.914 -1.73461 -0.480768 0
M  V30 6015 H 555.289 -0.748492 0.0725487 0
M  V30 6016 H 557.26 -2.76374 1.12516 0
M  V30 6017 C 556.009 -3.43828 -0.517449 0
M  V30 6018 H 555.332 -3.99532 0.146392 0
M  V30 6019 H 556.772 -4.1474 -0.88128 0
M  V30 6020 C 555.231 -2.90786 -1.70133 0
M  V30 6021 O 555.761 -2.88 -2.80034 0
M  V30 6022 N 553.967 -2.4723 -1.52728 0
M  V30 6023 H 553.514 -2.49695 -0.633257 0
M  V30 6024 H 553.472 -2.12094 -2.32085 0
M  V30 6025 N 557.244 -0.608902 -1.45362 0
M  V30 6026 C 558.191 0.109172 -2.30542 0
M  V30 6027 C 559.161 0.858704 -1.42181 0
M  V30 6028 O 560.346 0.844178 -1.71109 0
M  V30 6029 C 557.486 1.09971 -3.27109 0
M  V30 6030 C 556.599 0.350911 -4.30572 0
M  V30 6031 C 555.734 1.33129 -5.14247 0
M  V30 6032 C 554.773 0.570377 -6.09437 0
M  V30 6033 N 553.91 1.5001 -6.85887 0
M  V30 6034 H 558.75 -0.623195 -2.91411 0
M  V30 6035 H 556.287 -0.319122 -1.43597 0
M  V30 6036 H 558.245 1.68714 -3.81564 0
M  V30 6037 H 556.875 1.79947 -2.67991 0
M  V30 6038 H 555.927 -0.352054 -3.78767 0
M  V30 6039 H 557.239 -0.242725 -4.98209 0
M  V30 6040 H 556.393 1.99074 -5.73109 0
M  V30 6041 H 555.132 1.95885 -4.46632 0
M  V30 6042 H 554.137 -0.102702 -5.49704 0
M  V30 6043 H 555.362 -0.0521607 -6.7908 0
M  V30 6044 H 553.308 2.11529 -6.2096 0
M  V30 6045 H 553.225 0.959934 -7.49881 0
M  V30 6046 H 554.493 2.14909 -7.49289 0
M  V30 6047 N 558.722 1.53707 -0.348139 0
M  V30 6048 C 559.67 2.26671 0.521808 0
M  V30 6049 C 560.664 1.28988 1.09811 0
M  V30 6050 O 561.87 1.4668 1.04332 0
M  V30 6051 H 558.245 0.728387 0.186968 0
M  V30 6052 H 560.216 2.98176 -0.115563 0
M  V30 6053 C 558.965 3.05591 1.6586 0
M  V30 6054 H 558.288 3.80589 1.22443 0
M  V30 6055 H 559.728 3.59851 2.24239 0
M  V30 6056 C 558.187 2.15366 2.59073 0
M  V30 6057 O 558.717 1.7528 3.61441 0
M  V30 6058 N 556.923 1.80352 2.27863 0
M  V30 6059 H 556.47 2.13149 1.44656 0
M  V30 6060 H 556.428 1.20268 2.90488 0
M  V30 6061 N 560.2 0.0768682 1.57412 0
M  V30 6062 C 561.13 -0.886026 2.16037 0
M  V30 6063 C 562.111 -1.30691 1.08876 0
M  V30 6064 O 563.296 -1.37705 1.36934 0
M  V30 6065 C 560.426 -2.1518 2.72608 0
M  V30 6066 C 559.38 -1.87015 3.8498 0
M  V30 6067 C 558.706 -3.20266 4.28175 0
M  V30 6068 C 560.006 -1.17143 5.08994 0
M  V30 6069 H 561.7 -0.397642 2.96748 0
M  V30 6070 H 559.246 -0.189823 1.42743 0
M  V30 6071 H 561.199 -2.82962 3.12266 0
M  V30 6072 H 559.923 -2.66269 1.89125 0
M  V30 6073 H 558.582 -1.21636 3.45833 0
M  V30 6074 H 558.23 -3.69207 3.41607 0
M  V30 6075 H 557.93 -3.0221 5.03927 0
M  V30 6076 H 559.454 -3.89237 4.70454 0
M  V30 6077 H 560.868 -1.75003 5.45937 0
M  V30 6078 H 559.265 -1.09328 5.90057 0
M  V30 6079 H 560.335 -0.151295 4.84664 0
M  V30 6080 N 561.678 -1.56367 -0.196722 0
M  V30 6081 C 562.955 -1.71359 -0.943159 0
M  V30 6082 C 563.335 -0.631192 -2.01443 0
M  V30 6083 O 562.683 0.358071 -2.25677 0
M  V30 6084 C 562.893 -3.13623 -1.53106 0
M  V30 6085 C 564.241 -3.73806 -2.01381 0
M  V30 6086 O 565.265 -3.16742 -1.62951 0
M  V30 6087 O 564.124 -4.73951 -2.7209 0
M  V30 6088 H 561.218 -0.698851 -0.442195 0
M  V30 6089 H 563.764 -1.68672 -0.186547 0
M  V30 6090 H 562.536 -3.83873 -0.758785 0
M  V30 6091 H 562.159 -3.20532 -2.35255 0
M  V30 6092 N 563.156 0.464375 -1.50603 0
M  V30 6093 C 564.104 1.58224 -1.70493 0
M  V30 6094 C 565.098 1.59492 -0.570836 0
M  V30 6095 O 566.304 1.63561 -0.751517 0
M  V30 6096 H 562.679 0.525161 -0.538247 0
M  V30 6097 H 564.65 1.38613 -2.64252 0
M  V30 6098 C 563.399 2.96113 -1.82243 0
M  V30 6099 H 562.722 2.95858 -2.68901 0
M  V30 6100 H 564.162 3.73769 -2.00182 0
M  V30 6101 C 562.621 3.31946 -0.575628 0
M  V30 6102 O 563.151 4.00708 0.282152 0
M  V30 6103 N 561.357 2.87436 -0.427665 0
M  V30 6104 H 560.904 2.31652 -1.12674 0
M  V30 6105 H 560.862 3.11776 0.405379 0
M  V30 6106 N 564.634 1.40294 0.718013 0
M  V30 6107 C 565.544 1.42678 1.86226 0
M  V30 6108 C 566.56 0.319655 1.71039 0
M  V30 6109 O 567.736 0.563852 1.93346 0
M  V30 6110 C 564.801 1.2852 3.21999 0
M  V30 6111 C 563.862 2.49354 3.49458 0
M  V30 6112 C 563.095 2.35863 4.78753 0
M  V30 6113 O 563.318 1.37114 5.53675 0
M  V30 6114 O 562.252 3.25189 5.06494 0
M  V30 6115 H 566.078 2.39167 1.87171 0
M  V30 6116 H 563.663 1.2159 0.868112 0
M  V30 6117 H 565.545 1.22824 4.03103 0
M  V30 6118 H 564.22 0.351359 3.21787 0
M  V30 6119 H 563.127 2.60628 2.68373 0
M  V30 6120 H 564.46 3.41491 3.54464 0
M  V30 6121 N 566.112 -0.949982 1.2575 0
M  V30 6122 C 567.361 -1.68956 1.10168 0
M  V30 6123 C 567.674 -1.92327 -0.356309 0
M  V30 6124 O 568.88 -2.64026 -0.632657 0
M  V30 6125 C 567.336 -3.04196 1.92336 0
M  V30 6126 C 566.944 -2.88603 3.42655 0
M  V30 6127 C 568.688 -3.81904 1.85336 0
M  V30 6128 C 566.595 -4.19262 4.17101 0
M  V30 6129 H 565.525 -0.633645 0.408668 0
M  V30 6130 H 568.176 -1.05719 1.49986 0
M  V30 6131 H 566.558 -3.68363 1.45344 0
M  V30 6132 H 567.732 -2.3334 3.97353 0
M  V30 6133 H 566.047 -2.24345 3.50796 0
M  V30 6134 H 568.644 -4.78688 2.38248 0
M  V30 6135 H 568.987 -4.08099 0.822226 0
M  V30 6136 H 569.52 -3.24495 2.30104 0
M  V30 6137 H 566.259 -3.98254 5.20648 0
M  V30 6138 H 565.779 -4.74273 3.67186 0
M  V30 6139 H 567.458 -4.87775 4.25071 0
M  V30 6140 N 567.59 -1.07411 -1.15328 0
M  V30 6141 C 568.52 -0.716472 -2.22236 0
M  V30 6142 C 569.501 0.296373 -1.67498 0
M  V30 6143 O 570.686 0.168989 -1.93463 0
M  V30 6144 C 567.816 -0.114142 -3.47112 0
M  V30 6145 C 566.77 -1.05421 -4.14814 0
M  V30 6146 C 566.096 -0.314604 -5.33774 0
M  V30 6147 C 567.396 -2.38808 -4.64508 0
M  V30 6148 H 569.09 -1.61029 -2.52408 0
M  V30 6149 H 566.636 -0.775702 -1.21321 0
M  V30 6150 H 568.589 0.148001 -4.2114 0
M  V30 6151 H 567.313 0.814755 -3.16274 0
M  V30 6152 H 565.972 -1.30128 -3.42728 0
M  V30 6153 H 565.62 0.617772 -4.99192 0
M  V30 6154 H 565.32 -0.941209 -5.80013 0
M  V30 6155 H 566.844 -0.0602747 -6.1057 0
M  V30 6156 H 568.258 -2.18424 -5.3006 0
M  V30 6157 H 566.655 -2.97069 -5.21412 0
M  V30 6158 H 567.725 -3.01067 -3.80114 0
M  V30 6159 N 569.068 1.32177 -0.85831 0
M  V30 6160 C 569.998 2.31282 -0.321041 0
M  V30 6161 C 570.979 1.59841 0.581786 0
M  V30 6162 O 572.164 1.87619 0.501262 0
M  V30 6163 C 569.294 3.4385 0.48832 0
M  V30 6164 C 568.248 4.26799 -0.320391 0
M  V30 6165 C 567.574 5.31164 0.613934 0
M  V30 6166 C 568.874 4.98829 -1.54813 0
M  V30 6167 H 570.568 2.76469 -1.14915 0
M  V30 6168 H 568.114 1.32916 -0.554028 0
M  V30 6169 H 570.067 4.12224 0.874626 0
M  V30 6170 H 568.791 2.97401 1.34983 0
M  V30 6171 H 567.45 3.60077 -0.688497 0
M  V30 6172 H 567.098 4.80967 1.47239 0
M  V30 6173 H 566.798 5.8755 0.0768097 0
M  V30 6174 H 568.322 6.024 0.997336 0
M  V30 6175 H 569.736 5.59864 -1.23392 0
M  V30 6176 H 568.133 5.64957 -2.02346 0
M  V30 6177 H 569.203 4.26483 -2.30739 0
M  V30 6178 N 570.547 0.616602 1.45037 0
M  V30 6179 C 571.51 -0.0871112 2.29034 0
M  V30 6180 C 572.51 -0.786414 1.40258 0
M  V30 6181 O 573.7 -0.633207 1.62284 0
M  V30 6182 C 570.832 -1.13369 3.21497 0
M  V30 6183 H 572.025 0.651497 2.92738 0
M  V30 6184 H 569.578 0.376058 1.51709 0
M  V30 6185 H 570.313 -1.90277 2.62612 0
M  V30 6186 H 570.098 -0.636358 3.86902 0
M  V30 6187 H 571.588 -1.62627 3.84633 0
M  V30 6188 N 572.025 -1.5352 0.356285 0
M  V30 6189 C 573.302 -1.93405 -0.292223 0
M  V30 6190 C 573.682 -1.28901 -1.67176 0
M  V30 6191 O 573.03 -0.444632 -2.24132 0
M  V30 6192 C 573.24 -3.47223 -0.35175 0
M  V30 6193 C 574.588 -4.20389 -0.596534 0
M  V30 6194 O 575.612 -3.53554 -0.433344 0
M  V30 6195 O 574.471 -5.3881 -0.913589 0
M  V30 6196 H 571.565 -0.808666 -0.173172 0
M  V30 6197 H 574.111 -1.64713 0.408391 0
M  V30 6198 H 572.883 -3.86423 0.615841 0
M  V30 6199 H 572.506 -3.8212 -1.09864 0
M  V30 6200 N 573.503 -0.0852151 -1.57369 0
M  V30 6201 C 574.728 0.592872 -1.98746 0
M  V30 6202 C 575.153 1.61538 -0.963689 0
M  V30 6203 O 574.511 1.81168 0.069071 0
M  V30 6204 C 574.559 1.22599 -3.39119 0
M  V30 6205 O 573.663 2.34185 -3.39457 0
M  V30 6206 H 573.004 0.151314 -0.646529 0
M  V30 6207 H 575.534 -0.163703 -2.03944 0
M  V30 6208 H 575.544 1.56965 -3.76598 0
M  V30 6209 H 574.219 0.476831 -4.13158 0
M  V30 6210 H 572.796 2.01512 -3.13763 0
M  V30 6211 N 574.981 1.5647 0.188427 0
M  V30 6212 C 576.229 1.80655 0.905986 0
M  V30 6213 C 576.55 0.659391 1.83513 0
M  V30 6214 O 575.82 -0.321868 1.93238 0
M  V30 6215 H 574.4 0.666391 0.337538 0
M  V30 6216 H 577.062 1.93949 0.192339 0
M  V30 6217 H 576.158 2.74066 1.49313 0
M  V30 6218 N 576.459 -0.456382 1.50847 0
M  V30 6219 C 577.689 -1.22848 1.66108 0
M  V30 6220 C 578.097 -1.85936 0.349897 0
M  V30 6221 O 577.44 -1.70664 -0.679665 0
M  V30 6222 C 577.502 -2.36722 2.70561 0
M  V30 6223 C 577.166 -1.94154 4.13707 0
M  V30 6224 C 578.163 -1.4557 4.99105 0
M  V30 6225 C 575.848 -2.02426 4.59705 0
M  V30 6226 C 577.842 -1.0582 6.28555 0
M  V30 6227 C 575.529 -1.62287 5.89157 0
M  V30 6228 C 576.527 -1.14064 6.73408 0
M  V30 6229 O 576.215 -0.744873 8.00442 0
M  V30 6230 H 575.947 -0.377105 0.561042 0
M  V30 6231 H 578.501 -0.549431 1.97915 0
M  V30 6232 H 576.731 -3.07844 2.34027 0
M  V30 6233 H 578.42 -2.98646 2.74892 0
M  V30 6234 H 579.186 -1.38589 4.64777 0
M  V30 6235 H 575.065 -2.38908 3.94264 0
M  V30 6236 H 578.609 -0.6811 6.94267 0
M  V30 6237 H 574.506 -1.68932 6.23003 0
M  V30 6238 H 575.274 -0.87242 8.13837 0
M  V30 6239 N 577.937 -1.40673 -0.710563 0
M  V30 6240 C 579.185 -1.38947 -1.46759 0
M  V30 6241 C 579.506 0.00572879 -1.94999 0
M  V30 6242 O 578.776 0.961358 -1.70689 0
M  V30 6243 H 577.356 -0.5114 -0.544499 0
M  V30 6244 H 580.018 -1.75773 -0.842012 0
M  V30 6245 H 579.114 -2.06745 -2.33801 0
M  V30 6246 N 579.415 0.9433 -1.26252 0
M  V30 6247 C 580.347 2.04542 -1.03417 0
M  V30 6248 C 581.36 1.62799 0.0046911 0
M  V30 6249 O 582.549 1.76944 -0.235146 0
M  V30 6250 C 579.649 3.34511 -0.543671 0
M  V30 6251 C 578.822 4.05033 -1.65128 0
M  V30 6252 C 577.881 5.13273 -1.1592 0
M  V30 6253 O 576.907 5.38095 -1.85586 0
M  V30 6254 N 578.109 5.805 -0.00649279 0
M  V30 6255 H 580.874 2.24699 -1.98319 0
M  V30 6256 H 578.435 1.11264 -1.1761 0
M  V30 6257 H 580.427 4.04212 -0.198703 0
M  V30 6258 H 578.997 3.11042 0.311711 0
M  V30 6259 H 578.217 3.29275 -2.16729 0
M  V30 6260 H 579.505 4.48903 -2.39508 0
M  V30 6261 H 578.903 5.62767 0.575347 0
M  V30 6262 H 577.46 6.51201 0.279416 0
M  V30 6263 N 580.893 1.08022 1.14757 0
M  V30 6264 C 582.141 0.805913 1.85336 0
M  V30 6265 C 582.462 -0.670162 1.83122 0
M  V30 6266 O 581.732 -1.48567 1.2769 0
M  V30 6267 H 580.312 0.295138 0.686223 0
M  V30 6268 H 582.974 1.36538 1.3908 0
M  V30 6269 H 582.07 1.14655 2.90277 0
M  V30 6270 N 582.371 -1.3172 0.865308 0
M  V30 6271 C 583.281 -2.32394 0.320935 0
M  V30 6272 C 584.297 -1.64511 -0.566746 0
M  V30 6273 O 585.473 -1.95969 -0.464575 0
M  V30 6274 C 582.538 -3.43462 -0.472701 0
M  V30 6275 C 581.599 -4.27015 0.442385 0
M  V30 6276 C 580.832 -5.32779 -0.313469 0
M  V30 6277 O 581.055 -5.49158 -1.54214 0
M  V30 6278 O 579.989 -6.01015 0.326257 0
M  V30 6279 H 583.815 -2.80868 1.15528 0
M  V30 6280 H 581.4 -1.35535 0.628545 0
M  V30 6281 H 583.282 -4.11172 -0.922781 0
M  V30 6282 H 581.957 -2.97159 -1.28367 0
M  V30 6283 H 580.864 -3.62075 0.940866 0
M  V30 6284 H 582.197 -4.76871 1.21882 0
M  V30 6285 N 583.85 -0.624285 -1.44708 0
M  V30 6286 C 585.099 -0.123539 -2.01321 0
M  V30 6287 C 585.412 1.25966 -1.49639 0
M  V30 6288 O 586.618 1.85405 -1.98336 0
M  V30 6289 C 585.074 -0.170124 -3.59498 0
M  V30 6290 C 584.682 -1.55421 -4.20176 0
M  V30 6291 C 586.426 0.274513 -4.23611 0
M  V30 6292 C 584.332 -1.55628 -5.70556 0
M  V30 6293 H 583.263 -0.0424183 -0.752806 0
M  V30 6294 H 585.913 -0.782076 -1.65999 0
M  V30 6295 H 584.296 0.555385 -3.92086 0
M  V30 6296 H 585.47 -2.30276 -3.99136 0
M  V30 6297 H 583.784 -1.94235 -3.68323 0
M  V30 6298 H 586.382 0.292402 -5.339 0
M  V30 6299 H 586.725 1.3005 -3.95465 0
M  V30 6300 H 587.258 -0.398275 -3.95801 0
M  V30 6301 H 583.997 -2.56041 -6.03426 0
M  V30 6302 H 583.517 -0.850563 -5.93739 0
M  V30 6303 H 585.196 -1.28721 -6.34066 0
M  V30 6304 N 585.328 1.53329 -0.364422 0
M  V30 6305 C 586.258 2.28627 0.474543 0
M  V30 6306 C 587.239 1.31009 1.08492 0
M  V30 6307 O 588.424 1.59878 1.10239 0
M  V30 6308 C 585.554 3.07465 1.61501 0
M  V30 6309 C 584.508 4.1276 1.13194 0
M  V30 6310 C 583.834 4.79674 2.36255 0
M  V30 6311 C 585.134 5.21847 0.217507 0
M  V30 6312 H 586.828 2.99005 -0.153656 0
M  V30 6313 H 584.374 1.43803 -0.0753406 0
M  V30 6314 H 586.327 3.58889 2.20855 0
M  V30 6315 H 585.051 2.34775 2.27042 0
M  V30 6316 H 583.71 3.62281 0.56109 0
M  V30 6317 H 583.358 4.03557 3.00251 0
M  V30 6318 H 583.058 5.50827 2.04606 0
M  V30 6319 H 584.582 5.33892 2.96297 0
M  V30 6320 H 585.996 5.6878 0.718493 0
M  V30 6321 H 584.393 6.00099 -0.00806408 0
M  V30 6322 H 585.463 4.7921 -0.740653 0
M  V30 6323 N 586.806 0.0935595 1.57322 0
M  V30 6324 C 588.055 -0.570191 1.93473 0
M  V30 6325 C 588.368 -1.69434 0.977318 0
M  V30 6326 O 589.574 -2.41914 1.23248 0
M  V30 6327 C 588.03 -1.06564 3.43762 0
M  V30 6328 C 587.638 0.0286723 4.47991 0
M  V30 6329 C 589.382 -1.70221 3.88877 0
M  V30 6330 C 587.289 -0.482046 5.89432 0
M  V30 6331 H 586.219 -0.216764 0.72217 0
M  V30 6332 H 588.87 0.169313 1.82717 0
M  V30 6333 H 587.252 -1.85878 3.49664 0
M  V30 6334 H 588.426 0.804106 4.5373 0
M  V30 6335 H 586.741 0.570336 4.12476 0
M  V30 6336 H 589.338 -2.09502 4.91948 0
M  V30 6337 H 589.681 -2.57078 3.27439 0
M  V30 6338 H 590.214 -0.974919 3.85668 0
M  V30 6339 H 586.953 0.349871 6.54566 0
M  V30 6340 H 586.473 -1.22452 5.87167 0
M  V30 6341 H 588.152 -0.951508 6.39965 0
M  V30 6342 N 588.284 -1.56567 -0.180126 0
M  V30 6343 C 589.232 -1.96632 -1.24251 0
M  V30 6344 C 590.226 -0.853818 -1.46309 0
M  V30 6345 O 591.432 -1.0389 -1.46993 0
M  V30 6346 H 587.807 -0.625476 -0.417473 0
M  V30 6347 H 589.778 -2.85201 -0.877679 0
M  V30 6348 C 588.527 -2.33486 -2.57642 0
M  V30 6349 H 587.85 -3.18626 -2.4149 0
M  V30 6350 H 589.29 -2.65371 -3.30688 0
M  V30 6351 C 587.749 -1.17499 -3.15746 0
M  V30 6352 O 588.279 -0.457956 -3.99081 0
M  V30 6353 N 586.485 -0.94786 -2.74707 0
M  V30 6354 H 586.032 -1.53269 -2.07042 0
M  V30 6355 H 585.99 -0.173626 -3.1392 0
M  V30 6356 N 589.762 0.448376 -1.51087 0
M  V30 6357 C 591.173 1.0286 -1.5581 0
M  V30 6358 C 591.524 1.92583 -0.374989 0
M  V30 6359 O 590.649 2.10316 0.509533 0
M  V30 6360 C 591.244 1.87223 -2.8237 0
M  V30 6361 C 589.803 2.40314 -2.897 0
M  V30 6362 C 588.95 1.19238 -2.50355 0
M  V30 6363 H 591.901 0.230075 -1.57023 0
M  V30 6364 H 591.922 2.72553 -2.6551 0
M  V30 6365 H 591.434 1.21894 -3.68461 0
M  V30 6366 H 589.535 3.09129 -2.08014 0
M  V30 6367 H 589.648 2.73866 -3.93108 0
M  V30 6368 H 588.012 1.53428 -2.03303 0
M  V30 6369 H 588.795 0.555367 -3.38778 0
M  V30 6370 N 591.24 1.41047 0.703093 0
M  V30 6371 C 592.486 1.40207 1.46526 0
M  V30 6372 C 592.819 0.00847763 1.94198 0
M  V30 6373 O 592.094 -0.962437 1.69019 0
M  V30 6374 C 592.377 2.40238 2.6825 0
M  V30 6375 C 592.23 3.88674 2.26391 0
M  V30 6376 C 593.549 2.37627 3.70434 0
M  V30 6377 H 590.668 0.510594 0.531472 0
M  V30 6378 H 593.31 1.72271 0.801422 0
M  V30 6379 H 591.46 2.13026 3.24888 0
M  V30 6380 H 593.132 4.2676 1.75138 0
M  V30 6381 H 591.375 4.03903 1.58255 0
M  V30 6382 H 592.046 4.542 3.13698 0
M  V30 6383 H 594.522 2.61759 3.23452 0
M  V30 6384 H 593.398 3.09645 4.53223 0
M  V30 6385 H 593.659 1.39223 4.19606 0
M  V30 6386 N 592.718 -0.936591 1.26751 0
M  V30 6387 C 593.65 -2.03991 1.045 0
M  V30 6388 C 594.663 -1.628 0.00394261 0
M  V30 6389 O 595.852 -1.76817 0.244526 0
M  V30 6390 C 592.952 -3.34218 0.561403 0
M  V30 6391 C 592.125 -4.04151 1.67274 0
M  V30 6392 C 591.184 -5.12651 1.1864 0
M  V30 6393 O 590.21 -5.37104 1.88437 0
M  V30 6394 N 591.412 -5.80488 0.037278 0
M  V30 6395 H 594.177 -2.23644 1.99508 0
M  V30 6396 H 591.738 -1.10638 1.18198 0
M  V30 6397 H 593.73 -4.04101 0.220136 0
M  V30 6398 H 592.3 -3.11203 -0.295211 0
M  V30 6399 H 591.52 -3.28121 2.18472 0
M  V30 6400 H 592.808 -4.47626 2.41885 0
M  V30 6401 H 592.206 -5.63064 -0.545494 0
M  V30 6402 H 590.763 -6.5134 -0.244877 0
M  V30 6403 N 594.196 -1.08629 -1.14182 0
M  V30 6404 C 595.445 -0.812271 -1.84621 0
M  V30 6405 C 595.758 0.664313 -1.83973 0
M  V30 6406 O 596.964 1.05357 -2.50224 0
M  V30 6407 C 595.42 -1.4031 -3.31423 0
M  V30 6408 C 595.028 -2.91164 -3.40481 0
M  V30 6409 C 596.772 -1.20767 -4.06959 0
M  V30 6410 C 594.679 -3.43373 -4.81507 0
M  V30 6411 H 593.609 -0.30019 -0.691666 0
M  V30 6412 H 596.26 -1.30798 -1.28701 0
M  V30 6413 H 594.642 -0.835096 -3.87094 0
M  V30 6414 H 595.816 -3.5412 -2.94848 0
M  V30 6415 H 594.131 -3.09646 -2.78403 0
M  V30 6416 H 596.728 -1.57237 -5.11058 0
M  V30 6417 H 597.071 -0.147664 -4.16038 0
M  V30 6418 H 597.604 -1.74274 -3.57594 0
M  V30 6419 H 594.343 -4.48958 -4.77616 0
M  V30 6420 H 593.863 -2.85176 -5.27669 0
M  V30 6421 H 595.542 -3.40095 -5.50404 0
M  V30 6422 N 595.674 1.31259 -0.872281 0
M  V30 6423 C 596.604 2.30929 -0.345554 0
M  V30 6424 C 597.585 1.60449 0.5648 0
M  V30 6425 O 598.77 1.8814 0.481335 0
M  V30 6426 C 595.9 3.44348 0.451823 0
M  V30 6427 C 594.854 4.26435 -0.365641 0
M  V30 6428 C 594.18 5.31785 0.557562 0
M  V30 6429 C 595.48 4.97159 -1.60095 0
M  V30 6430 H 597.174 2.75234 -1.17841 0
M  V30 6431 H 594.72 1.3232 -0.568094 0
M  V30 6432 H 596.673 4.13128 0.830854 0
M  V30 6433 H 595.397 2.98816 1.31821 0
M  V30 6434 H 594.056 3.59326 -0.726649 0
M  V30 6435 H 593.704 4.82502 1.4213 0
M  V30 6436 H 593.404 5.87598 0.0144878 0
M  V30 6437 H 594.928 6.03424 0.933387 0
M  V30 6438 H 596.342 5.58523 -1.29323 0
M  V30 6439 H 594.739 5.62779 -2.08327 0
M  V30 6440 H 595.809 4.24012 -2.35249 0
M  V30 6441 N 597.152 0.631951 1.44375 0
M  V30 6442 C 598.377 0.142146 2.06912 0
M  V30 6443 C 598.802 -1.17456 1.4692 0
M  V30 6444 O 598.16 -1.72074 0.570975 0
M  V30 6445 C 598.208 0.0417952 3.60576 0
M  V30 6446 O 597.312 -1.00194 4.00044 0
M  V30 6447 H 596.653 0.0851491 0.658518 0
M  V30 6448 H 599.183 0.868863 1.85235 0
M  V30 6449 H 599.193 -0.148517 4.0773 0
M  V30 6450 H 597.868 1.0031 4.03622 0
M  V30 6451 H 596.445 -0.786131 3.64519 0
M  V30 6452 N 598.631 -1.53133 0.372548 0
M  V30 6453 C 599.88 -2.00539 -0.216115 0
M  V30 6454 C 600.193 -1.26374 -1.49295 0
M  V30 6455 O 601.399 -1.64404 -2.16064 0
M  V30 6456 C 599.855 -3.57253 -0.435678 0
M  V30 6457 C 599.463 -4.40302 0.82693 0
M  V30 6458 C 601.207 -4.12995 -0.981618 0
M  V30 6459 C 599.114 -5.88583 0.576567 0
M  V30 6460 H 598.044 -0.749246 -0.084536 0
M  V30 6461 H 600.695 -1.76771 0.492364 0
M  V30 6462 H 599.077 -3.77202 -1.20559 0
M  V30 6463 H 600.251 -4.32124 1.60017 0
M  V30 6464 H 598.566 -3.95699 1.29659 0
M  V30 6465 H 601.163 -5.21418 -1.18436 0
M  V30 6466 H 601.506 -3.68027 -1.94581 0
M  V30 6467 H 602.039 -3.96871 -0.271696 0
M  V30 6468 H 598.778 -6.37841 1.51128 0
M  V30 6469 H 598.298 -5.99592 -0.158047 0
M  V30 6470 H 599.977 -6.46676 0.204722 0
M  V30 6471 N 600.109 -0.101901 -1.5727 0
M  V30 6472 C 601.339 0.567568 -1.98651 0
M  V30 6473 C 601.747 1.61839 -0.980037 0
M  V30 6474 O 601.09 1.83661 0.0376564 0
M  V30 6475 C 601.152 1.26742 -3.36417 0
M  V30 6476 C 600.816 0.366561 -4.55528 0
M  V30 6477 C 601.813 -0.388022 -5.1845 0
M  V30 6478 C 599.498 0.282629 -5.01504 0
M  V30 6479 C 601.492 -1.21445 -6.25724 0
M  V30 6480 C 599.179 -0.547443 -6.08643 0
M  V30 6481 C 600.177 -1.29462 -6.70618 0
M  V30 6482 O 599.865 -2.11095 -7.7569 0
M  V30 6483 H 599.597 0.156282 -0.657687 0
M  V30 6484 H 602.151 -0.179912 -2.04611 0
M  V30 6485 H 600.381 2.06162 -3.27161 0
M  V30 6486 H 602.07 1.8321 -3.622 0
M  V30 6487 H 602.836 -0.332949 -4.83856 0
M  V30 6488 H 598.715 0.853868 -4.53023 0
M  V30 6489 H 602.259 -1.79814 -6.74027 0
M  V30 6490 H 598.156 -0.603971 -6.42668 0
M  V30 6491 H 598.924 -2.03851 -7.92709 0
M  V30 6492 N 601.587 1.56661 0.17182 0
M  V30 6493 C 602.812 1.86459 0.908165 0
M  V30 6494 C 603.237 0.688181 1.75059 0
M  V30 6495 O 602.595 -0.362753 1.77634 0
M  V30 6496 C 602.643 3.14669 1.76112 0
M  V30 6497 O 601.747 2.96858 2.86268 0
M  V30 6498 H 601.088 0.613318 0.254434 0
M  V30 6499 H 603.618 2.03892 0.170113 0
M  V30 6500 H 603.628 3.46061 2.16115 0
M  V30 6501 H 602.303 3.99905 1.14233 0
M  V30 6502 H 600.88 2.76819 2.49852 0
M  V30 6503 N 603.065 -0.440357 1.51323 0
M  V30 6504 C 604.028 -1.51679 1.71832 0
M  V30 6505 C 605.028 -1.49648 0.588386 0
M  V30 6506 O 606.218 -1.51724 0.855891 0
M  V30 6507 C 603.35 -2.91228 1.77199 0
M  V30 6508 H 604.543 -1.34799 2.67898 0
M  V30 6509 H 602.096 -0.66883 1.41267 0
M  V30 6510 H 602.831 -3.13516 0.829363 0
M  V30 6511 H 602.616 -2.94107 2.59314 0
M  V30 6512 H 604.106 -3.69321 1.94915 0
M  V30 6513 N 604.543 -1.41418 -0.695603 0
M  V30 6514 C 605.473 -1.46035 -1.82197 0
M  V30 6515 C 606.454 -0.319025 -1.67082 0
M  V30 6516 O 607.639 -0.530462 -1.86815 0
M  V30 6517 C 604.769 -1.34179 -3.20333 0
M  V30 6518 C 603.723 -2.46123 -3.50154 0
M  V30 6519 C 603.049 -2.19332 -4.87645 0
M  V30 6520 C 604.349 -3.88463 -3.49133 0
M  V30 6521 H 606.043 -2.40303 -1.78591 0
M  V30 6522 H 603.589 -1.15663 -0.857797 0
M  V30 6523 H 605.542 -1.36021 -3.98844 0
M  V30 6524 H 604.266 -0.363952 -3.24566 0
M  V30 6525 H 602.925 -2.43563 -2.73994 0
M  V30 6526 H 602.573 -1.19891 -4.88503 0
M  V30 6527 H 602.273 -2.94344 -5.08562 0
M  V30 6528 H 603.797 -2.22889 -5.68465 0
M  V30 6529 H 605.211 -3.92738 -4.17648 0
M  V30 6530 H 603.608 -4.63158 -3.81582 0
M  V30 6531 H 604.678 -4.16617 -2.48109 0
M  V30 6532 N 606.021 0.929856 -1.27246 0
M  V30 6533 C 606.931 2.0636 -1.11592 0
M  V30 6534 C 607.947 1.73938 -0.046496 0
M  V30 6535 O 609.123 1.9981 -0.252544 0
M  V30 6536 C 606.188 3.38213 -0.762437 0
M  V30 6537 C 605.249 3.84346 -1.9125 0
M  V30 6538 C 604.482 5.09906 -1.57579 0
M  V30 6539 O 604.705 5.68354 -0.482694 0
M  V30 6540 O 603.639 5.51359 -2.41426 0
M  V30 6541 H 607.465 2.22478 -2.0673 0
M  V30 6542 H 605.05 1.04865 -1.06413 0
M  V30 6543 H 606.932 4.1741 -0.57854 0
M  V30 6544 H 605.607 3.23307 0.159439 0
M  V30 6545 H 604.514 3.06045 -2.15144 0
M  V30 6546 H 605.847 4.0379 -2.81451 0
M  V30 6547 N 607.499 1.09233 1.13605 0
M  V30 6548 C 608.447 0.724572 2.21027 0
M  V30 6549 C 609.441 -0.273595 1.67176 0
M  V30 6550 O 610.647 -0.135266 1.79491 0
M  V30 6551 H 607.022 0.216319 0.720215 0
M  V30 6552 H 608.993 1.63975 2.49309 0
M  V30 6553 C 607.742 0.159126 3.47336 0
M  V30 6554 H 607.065 0.918387 3.89109 0
M  V30 6555 H 608.505 -0.0602851 4.23957 0
M  V30 6556 C 606.964 -1.10514 3.18258 0
M  V30 6557 O 607.494 -2.18869 3.36837 0
M  V30 6558 N 605.7 -1.01886 2.72154 0
M  V30 6559 H 605.247 -0.137027 2.57235 0
M  V30 6560 H 605.205 -1.8655 2.53074 0
M  V30 6561 N 608.977 -1.30795 0.87923 0
M  V30 6562 C 609.925 -2.30231 0.331112 0
M  V30 6563 C 610.919 -1.59918 -0.558794 0
M  V30 6564 O 612.125 -1.74441 -0.443866 0
M  V30 6565 H 608.5 -0.746785 0.088409 0
M  V30 6566 H 610.471 -2.73925 1.18353 0
M  V30 6567 C 609.22 -3.44848 -0.444401 0
M  V30 6568 H 608.543 -3.99131 0.231106 0
M  V30 6569 H 609.983 -4.16516 -0.793109 0
M  V30 6570 C 608.442 -2.94329 -1.63926 0
M  V30 6571 O 608.972 -2.93875 -2.73862 0
M  V30 6572 N 607.178 -2.50413 -1.4745 0
M  V30 6573 H 606.725 -2.50982 -0.58015 0
M  V30 6574 H 606.683 -2.16969 -2.27534 0
M  V30 6575 N 610.455 -0.639598 -1.44038 0
M  V30 6576 C 611.703 -0.147188 -2.01563 0
M  V30 6577 C 612.024 1.2384 -1.50628 0
M  V30 6578 O 611.294 1.82452 -0.713316 0
M  V30 6579 H 609.874 -0.0514231 -0.745228 0
M  V30 6580 H 612.536 -0.828205 -1.76428 0
M  V30 6581 H 611.632 -0.121358 -3.11864 0
M  V30 6582 N 611.933 1.52934 -0.380664 0
M  V30 6583 C 612.881 2.27727 0.47361 0
M  V30 6584 C 613.875 1.31288 1.0705 0
M  V30 6585 O 615.081 1.4886 1.01197 0
M  V30 6586 H 611.456 0.732189 0.171475 0
M  V30 6587 H 613.427 2.97864 -0.178785 0
M  V30 6588 C 612.176 3.0904 1.59341 0
M  V30 6589 H 611.499 3.831 1.14343 0
M  V30 6590 H 612.939 3.64527 2.16555 0
M  V30 6591 C 611.398 2.20813 2.54447 0
M  V30 6592 O 611.928 1.82907 3.57642 0
M  V30 6593 N 610.134 1.85145 2.23986 0
M  V30 6594 H 609.681 2.16169 1.40103 0
M  V30 6595 H 609.639 1.26402 2.87871 0
M  V30 6596 N 613.412 0.11024 1.57214 0
M  V30 6597 C 614.661 -0.549638 1.94067 0
M  V30 6598 C 614.974 -1.68388 0.995234 0
M  V30 6599 O 616.18 -2.40593 1.25807 0
M  V30 6600 C 614.636 -1.02912 3.44873 0
M  V30 6601 C 614.244 0.0761861 4.47935 0
M  V30 6602 C 615.988 -1.66087 3.9066 0
M  V30 6603 C 613.895 -0.419502 5.8991 0
M  V30 6604 H 612.825 -0.209092 0.724428 0
M  V30 6605 H 615.476 0.188683 1.82527 0
M  V30 6606 H 613.858 -1.82159 3.51616 0
M  V30 6607 H 615.032 0.852185 4.52851 0
M  V30 6608 H 613.347 0.614052 4.11847 0
M  V30 6609 H 615.944 -2.04272 4.94143 0
M  V30 6610 H 616.287 -2.53591 3.30148 0
M  V30 6611 H 616.82 -0.933959 3.86681 0
M  V30 6612 H 613.559 0.419277 6.54158 0
M  V30 6613 H 613.079 -1.16217 5.88433 0
M  V30 6614 H 614.758 -0.883577 6.40938 0
M  V30 6615 N 614.89 -1.56749 -0.16351 0
M  V30 6616 C 615.838 -1.97939 -1.22159 0
M  V30 6617 C 616.832 -0.869288 -1.45395 0
M  V30 6618 O 618.038 -1.05443 -1.45883 0
M  V30 6619 H 614.413 -0.629869 -0.410815 0
M  V30 6620 H 616.384 -2.86115 -0.847381 0
M  V30 6621 C 615.133 -2.36206 -2.55151 0
M  V30 6622 H 614.456 -3.2117 -2.38097 0
M  V30 6623 H 615.896 -2.68863 -3.27854 0
M  V30 6624 C 614.355 -1.20841 -3.14482 0
M  V30 6625 O 614.885 -0.500258 -3.98573 0
M  V30 6626 N 613.091 -0.976943 -2.73686 0
M  V30 6627 H 612.638 -1.55457 -2.05404 0
M  V30 6628 H 612.596 -0.206912 -3.13718 0
M  V30 6629 N 616.368 0.432326 -1.51554 0
M  V30 6630 C 617.331 1.50765 -1.72634 0
M  V30 6631 C 618.331 1.49334 -0.596314 0
M  V30 6632 O 619.521 1.51268 -0.863925 0
M  V30 6633 C 616.653 2.90284 -1.7874 0
M  V30 6634 H 617.846 1.33377 -2.68609 0
M  V30 6635 H 615.399 0.661329 -1.4162 0
M  V30 6636 H 616.134 3.13071 -0.845977 0
M  V30 6637 H 615.919 2.92727 -2.6087 0
M  V30 6638 H 617.409 3.68282 -1.96871 0
M  V30 6639 N 617.846 1.41785 0.688094 0
M  V30 6640 C 619.257 1.3701 1.26828 0
M  V30 6641 C 619.608 0.056835 1.96118 0
M  V30 6642 O 618.733 -0.84475 1.99231 0
M  V30 6643 C 619.328 2.48168 2.30648 0
M  V30 6644 C 617.887 2.46766 2.84224 0
M  V30 6645 C 617.034 2.27633 1.58361 0
M  V30 6646 H 619.985 1.51192 0.482351 0
M  V30 6647 H 620.006 2.17655 3.121 0
M  V30 6648 H 619.518 3.43735 1.80188 0
M  V30 6649 H 617.619 1.54978 3.3884 0
M  V30 6650 H 617.732 3.43342 3.34145 0
M  V30 6651 H 616.096 1.75648 1.84445 0
M  V30 6652 H 616.879 3.25238 1.09887 0
M  V30 6653 N 619.324 -0.923095 1.27737 0
M  V30 6654 C 620.274 -2.01061 1.0751 0
M  V30 6655 C 621.258 -1.609 0.00165451 0
M  V30 6656 O 622.45 -1.75618 0.220724 0
M  V30 6657 C 619.579 -3.35467 0.729162 0
M  V30 6658 C 618.665 -3.82059 1.84098 0
M  V30 6659 N 619.056 -4.01115 3.08124 0
M  V30 6660 C 617.354 -4.11135 1.7287 0
M  V30 6661 C 618.055 -4.39989 3.80506 0
M  V30 6662 N 617.031 -4.47721 3.08297 0
M  V30 6663 H 620.833 -2.13832 2.01626 0
M  V30 6664 H 618.347 -1.11027 1.18519 0
M  V30 6665 H 620.344 -4.13049 0.565355 0
M  V30 6666 H 619.004 -3.24056 -0.204334 0
M  V30 6667 H 620.015 -3.87294 3.43836 0
M  V30 6668 H 616.692 -4.08412 0.866352 0
M  V30 6669 H 618.082 -4.62773 4.87125 0
M  V30 6670 N 620.802 -1.09834 -1.13024 0
M  V30 6671 C 621.732 -0.763451 -2.20666 0
M  V30 6672 C 622.713 0.260778 -1.68089 0
M  V30 6673 O 623.898 0.127915 -1.93778 0
M  V30 6674 C 621.028 -0.187744 -3.46792 0
M  V30 6675 C 619.982 -1.14196 -4.12484 0
M  V30 6676 C 619.308 -0.427755 -5.32986 0
M  V30 6677 C 620.608 -2.48607 -4.59338 0
M  V30 6678 H 622.302 -1.66347 -2.48936 0
M  V30 6679 H 619.848 -0.801261 -1.19649 0
M  V30 6680 H 621.801 0.0586375 -4.21359 0
M  V30 6681 H 620.525 0.747485 -3.17931 0
M  V30 6682 H 619.184 -1.37369 -3.3989 0
M  V30 6683 H 618.832 0.511747 -5.0039 0
M  V30 6684 H 618.532 -1.06403 -5.77886 0
M  V30 6685 H 620.056 -0.189772 -6.10305 0
M  V30 6686 H 621.47 -2.29618 -5.25308 0
M  V30 6687 H 619.867 -3.08062 -5.14993 0
M  V30 6688 H 620.937 -3.09062 -3.73642 0
M  V30 6689 N 622.28 1.30327 -0.886154 0
M  V30 6690 C 623.21 2.30549 -0.370028 0
M  V30 6691 C 624.191 1.61039 0.547751 0
M  V30 6692 O 625.376 1.8864 0.461353 0
M  V30 6693 C 622.506 3.44808 0.415275 0
M  V30 6694 C 621.46 4.26024 -0.41085 0
M  V30 6695 C 620.786 5.32347 0.501128 0
M  V30 6696 C 622.086 4.95433 -1.65359 0
M  V30 6697 H 623.78 2.73969 -1.20754 0
M  V30 6698 H 621.326 1.3171 -0.582097 0
M  V30 6699 H 623.279 4.13986 0.78699 0
M  V30 6700 H 622.003 3.00197 1.28644 0
M  V30 6701 H 620.662 3.58535 -0.764719 0
M  V30 6702 H 620.31 4.83982 1.37004 0
M  V30 6703 H 620.01 5.87581 -0.0478356 0
M  V30 6704 H 621.534 6.0438 0.869333 0
M  V30 6705 H 622.948 5.5712 -1.35239 0
M  V30 6706 H 621.345 5.60537 -2.14284 0
M  V30 6707 H 622.415 4.21493 -2.39733 0
M  V30 6708 N 623.758 0.647228 1.43697 0
M  V30 6709 C 624.705 -0.0480092 2.3075 0
M  V30 6710 C 625.675 -0.820705 1.44408 0
M  V30 6711 O 626.86 -0.798515 1.73287 0
M  V30 6712 C 624 -1.01259 3.2991 0
M  V30 6713 C 623.113 -0.236629 4.31351 0
M  V30 6714 C 622.248 -1.19447 5.17596 0
M  V30 6715 C 621.287 -0.408595 6.10735 0
M  V30 6716 N 620.424 -1.31772 6.89623 0
M  V30 6717 H 625.264 0.700238 2.89656 0
M  V30 6718 H 622.801 0.357082 1.427 0
M  V30 6719 H 624.759 -1.58538 3.85903 0
M  V30 6720 H 623.389 -1.72778 2.72667 0
M  V30 6721 H 622.441 0.452353 3.77701 0
M  V30 6722 H 623.753 0.374731 4.9739 0
M  V30 6723 H 622.907 -1.83809 5.78186 0
M  V30 6724 H 621.646 -1.83975 4.51669 0
M  V30 6725 H 620.651 0.24841 5.49239 0
M  V30 6726 H 621.876 0.232188 6.78703 0
M  V30 6727 H 619.822 -1.94991 6.2635 0
M  V30 6728 H 619.739 -0.760779 7.52162 0
M  V30 6729 H 621.007 -1.94967 7.54724 0
M  V30 6730 N 625.236 -1.5273 0.388769 0
M  V30 6731 C 626.513 -1.93981 -0.251133 0
M  V30 6732 C 626.893 -1.32418 -1.64404 0
M  V30 6733 O 626.241 -0.492074 -2.23139 0
M  V30 6734 C 626.451 -3.47891 -0.27802 0
M  V30 6735 C 627.799 -4.21559 -0.507229 0
M  V30 6736 O 628.823 -3.54394 -0.358252 0
M  V30 6737 O 627.682 -5.40626 -0.799094 0
M  V30 6738 H 624.776 -0.812157 -0.15598 0
M  V30 6739 H 627.322 -1.63809 0.443237 0
M  V30 6740 H 626.094 -3.8503 0.697669 0
M  V30 6741 H 625.717 -3.84364 -1.01733 0
M  V30 6742 N 626.714 -0.118576 -1.57153 0
M  V30 6743 C 627.942 0.54726 -1.99531 0
M  V30 6744 C 628.357 1.60251 -0.998246 0
M  V30 6745 O 627.714 1.82498 0.00893106 0
M  V30 6746 C 627.765 1.17378 -3.41913 0
M  V30 6747 O 627.486 0.160703 -4.37805 0
M  V30 6748 C 628.987 1.92297 -3.9942 0
M  V30 6749 H 626.207 0.144919 -0.655164 0
M  V30 6750 H 628.751 -0.20479 -2.03472 0
M  V30 6751 H 626.906 1.87661 -3.38913 0
M  V30 6752 H 627.32 0.61586 -5.20872 0
M  V30 6753 H 628.794 2.31462 -5.01128 0
M  V30 6754 H 629.271 2.79801 -3.38538 0
M  V30 6755 H 629.877 1.26777 -4.05965 0
M  V30 6756 N 628.193 1.56834 0.155195 0
M  V30 6757 C 629.14 1.97646 1.19184 0
M  V30 6758 C 630.11 0.842788 1.4313 0
M  V30 6759 O 631.295 1.1042 1.55602 0
M  V30 6760 C 628.435 2.35527 2.52232 0
M  V30 6761 C 627.548 3.62147 2.35529 0
M  V30 6762 C 626.683 3.89167 3.61555 0
M  V30 6763 C 625.722 5.09084 3.39853 0
M  V30 6764 N 624.859 5.32156 4.5799 0
M  V30 6765 H 629.699 2.8601 0.836802 0
M  V30 6766 H 627.236 1.41507 0.401758 0
M  V30 6767 H 629.194 2.55516 3.29799 0
M  V30 6768 H 627.824 1.50253 2.85699 0
M  V30 6769 H 626.876 3.4998 1.49057 0
M  V30 6770 H 628.188 4.49871 2.15448 0
M  V30 6771 H 627.342 4.09611 4.47553 0
M  V30 6772 H 626.081 2.9985 3.84632 0
M  V30 6773 H 625.086 4.88522 2.52243 0
M  V30 6774 H 626.311 5.99947 3.18183 0
M  V30 6775 H 624.257 4.45791 4.81255 0
M  V30 6776 H 624.174 6.14133 4.40882 0
M  V30 6777 H 625.442 5.57091 5.45225 0
M  V30 6778 N 629.671 -0.424282 1.51781 0
M  V30 6779 C 630.619 -1.53649 1.74628 0
M  V30 6780 C 631.613 -1.57923 0.612922 0
M  V30 6781 O 632.819 -1.61511 0.794618 0
M  V30 6782 H 629.194 -0.510706 0.551981 0
M  V30 6783 H 631.165 -1.31558 2.67834 0
M  V30 6784 C 629.914 -2.91177 1.9003 0
M  V30 6785 H 629.237 -2.88625 2.76651 0
M  V30 6786 H 630.677 -3.6833 2.10021 0
M  V30 6787 C 629.136 -3.30303 0.663435 0
M  V30 6788 O 629.666 -4.01315 -0.175812 0
M  V30 6789 N 627.872 -2.86201 0.503723 0
M  V30 6790 H 627.419 -2.28583 1.18776 0
M  V30 6791 H 627.377 -3.12741 -0.322575 0
M  V30 6792 N 631.149 -1.42148 -0.680565 0
M  V30 6793 C 632.096 -1.45175 -1.79424 0
M  V30 6794 C 633.066 -0.304352 -1.63288 0
M  V30 6795 O 634.251 -0.507591 -1.83924 0
M  V30 6796 C 631.391 -1.35429 -3.17416 0
M  V30 6797 C 630.504 -2.60158 -3.4488 0
M  V30 6798 C 629.639 -2.42596 -4.72568 0
M  V30 6799 C 628.678 -3.62727 -4.93047 0
M  V30 6800 N 627.815 -3.44143 -6.11973 0
M  V30 6801 H 632.655 -2.40349 -1.76172 0
M  V30 6802 H 630.192 -1.19334 -0.860107 0
M  V30 6803 H 632.15 -1.27777 -3.97151 0
M  V30 6804 H 630.78 -0.438536 -3.19807 0
M  V30 6805 H 629.832 -2.78199 -2.5944 0
M  V30 6806 H 631.144 -3.49473 -3.55908 0
M  V30 6807 H 630.298 -2.32497 -5.60384 0
M  V30 6808 H 629.037 -1.50761 -4.63813 0
M  V30 6809 H 628.042 -3.73264 -4.03676 0
M  V30 6810 H 629.267 -4.55534 -5.03652 0
M  V30 6811 H 627.213 -2.5502 -6.04401 0
M  V30 6812 H 627.13 -4.27041 -6.23836 0
M  V30 6813 H 628.398 -3.37845 -7.02482 0
M  V30 6814 N 632.627 0.916307 -1.28225 0
M  V30 6815 C 633.873 1.66765 -1.154 0
M  V30 6816 C 634.206 1.91912 0.297251 0
M  V30 6817 O 633.481 1.51766 1.21644 0
M  V30 6818 C 633.764 3.02715 -1.95028 0
M  V30 6819 C 633.617 2.84738 -3.48201 0
M  V30 6820 C 634.936 4.03215 -1.76369 0
M  V30 6821 H 632.055 0.605205 -0.42059 0
M  V30 6822 H 634.697 1.06255 -1.57512 0
M  V30 6823 H 632.847 3.54365 -1.59242 0
M  V30 6824 H 634.519 2.40118 -3.9388 0
M  V30 6825 H 632.762 2.19848 -3.73964 0
M  V30 6826 H 633.433 3.8127 -3.99171 0
M  V30 6827 H 635.909 3.60617 -2.07593 0
M  V30 6828 H 634.785 4.96306 -2.34459 0
M  V30 6829 H 635.046 4.36288 -0.71452 0
M  V30 6830 N 634.105 1.10431 1.1244 0
M  V30 6831 C 635.351 0.857864 1.84424 0
M  V30 6832 C 635.706 -0.609995 1.82474 0
M  V30 6833 O 634.999 -1.44401 1.25932 0
M  V30 6834 C 635.193 1.34022 3.3132 0
M  V30 6835 C 635.022 2.85344 3.47576 0
M  V30 6836 C 633.792 3.53345 3.61213 0
M  V30 6837 C 635.99 3.83446 3.42744 0
M  V30 6838 N 633.972 4.92989 3.65834 0
M  V30 6839 C 635.343 5.09101 3.5386 0
M  V30 6840 C 637.398 3.76154 3.26209 0
M  V30 6841 C 636.101 6.28323 3.50146 0
M  V30 6842 C 638.127 4.94876 3.23809 0
M  V30 6843 C 637.489 6.19378 3.35485 0
M  V30 6844 H 633.588 0.366917 0.690577 0
M  V30 6845 H 636.172 1.40668 1.34613 0
M  V30 6846 H 634.343 0.818727 3.79673 0
M  V30 6847 H 636.075 1.03801 3.91162 0
M  V30 6848 H 632.83 3.03791 3.63329 0
M  V30 6849 H 633.254 5.65762 3.71809 0
M  V30 6850 H 637.896 2.80813 3.16076 0
M  V30 6851 H 635.614 7.23953 3.5905 0
M  V30 6852 H 639.2 4.90942 3.12197 0
M  V30 6853 H 638.08 7.09704 3.33602 0
M  V30 6854 N 635.583 -1.29855 0.893053 0
M  V30 6855 C 636.53 -2.27909 0.364161 0
M  V30 6856 C 637.5 -1.56726 -0.550093 0
M  V30 6857 O 638.685 -1.84747 -0.47677 0
M  V30 6858 C 635.825 -3.42678 -0.408178 0
M  V30 6859 C 634.938 -4.28659 0.536212 0
M  V30 6860 C 634.073 -5.30599 -0.252521 0
M  V30 6861 C 633.112 -6.08234 0.686822 0
M  V30 6862 N 632.249 -7.02068 -0.0670902 0
M  V30 6863 H 637.089 -2.72531 1.20544 0
M  V30 6864 H 634.626 -1.34047 0.605779 0
M  V30 6865 H 636.584 -4.07986 -0.871962 0
M  V30 6866 H 635.214 -2.99103 -1.21397 0
M  V30 6867 H 634.266 -3.63584 1.1185 0
M  V30 6868 H 635.578 -4.8274 1.25552 0
M  V30 6869 H 634.732 -6.01694 -0.777801 0
M  V30 6870 H 633.471 -4.77233 -1.005 0
M  V30 6871 H 632.476 -5.3601 1.22366 0
M  V30 6872 H 633.701 -6.63689 1.43852 0
M  V30 6873 H 631.647 -6.5108 -0.801955 0
M  V30 6874 H 631.564 -7.53675 0.59243 0
M  V30 6875 H 632.832 -7.77392 -0.572851 0
M  V30 6876 N 637.061 -0.65484 -1.43351 0
M  V30 6877 C 638.008 0.0357713 -2.30772 0
M  V30 6878 C 638.978 0.813035 -1.44841 0
M  V30 6879 O 640.163 0.789314 -1.73708 0
M  V30 6880 C 637.303 0.995084 -3.30442 0
M  V30 6881 C 636.416 0.21375 -4.31471 0
M  V30 6882 C 635.551 1.16701 -5.18222 0
M  V30 6883 C 634.59 0.376201 -6.10943 0
M  V30 6884 N 633.727 1.28113 -6.90313 0
M  V30 6885 H 638.567 -0.71559 -2.89281 0
M  V30 6886 H 636.104 -0.364645 -1.42509 0
M  V30 6887 H 638.062 1.5649 -3.86739 0
M  V30 6888 H 636.692 1.7133 -2.7358 0
M  V30 6889 H 635.744 -0.472377 -3.77456 0
M  V30 6890 H 637.056 -0.401103 -4.97185 0
M  V30 6891 H 636.21 1.8074 -5.79153 0
M  V30 6892 H 634.949 1.81577 -4.52638 0
M  V30 6893 H 633.954 -0.277534 -5.49099 0
M  V30 6894 H 635.179 -0.268178 -6.7857 0
M  V30 6895 H 633.125 1.91666 -6.27376 0
M  V30 6896 H 633.042 0.720879 -7.52555 0
M  V30 6897 H 634.31 1.90962 -7.55747 0
M  V30 6898 N 638.539 1.52521 -0.396863 0
M  V30 6899 C 639.487 2.28217 0.44943 0
M  V30 6900 C 640.481 1.32416 1.05652 0
M  V30 6901 O 641.687 1.49925 0.996124 0
M  V30 6902 H 638.062 0.733966 0.1637 0
M  V30 6903 H 640.033 2.97658 -0.210367 0
M  V30 6904 C 638.782 3.10713 1.56054 0
M  V30 6905 H 638.105 3.84291 1.10273 0
M  V30 6906 H 639.545 3.66803 2.12677 0
M  V30 6907 C 638.004 2.23499 2.52091 0
M  V30 6908 O 638.534 1.8669 3.55682 0
M  V30 6909 N 636.74 1.8751 2.2201 0
M  V30 6910 H 636.287 2.17643 1.37802 0
M  V30 6911 H 636.245 1.29448 2.86514 0
M  V30 6912 N 640.017 0.126909 1.57088 0
M  V30 6913 C 641.266 -0.529024 1.94639 0
M  V30 6914 C 641.579 -1.67323 1.01304 0
M  V30 6915 O 642.785 -2.39245 1.28352 0
M  V30 6916 C 641.241 -0.992483 3.45945 0
M  V30 6917 C 640.849 0.123691 4.47829 0
M  V30 6918 C 642.593 -1.61934 3.924 0
M  V30 6919 C 640.5 -0.356911 5.90322 0
M  V30 6920 H 639.43 -0.201397 0.726605 0
M  V30 6921 H 642.081 0.208032 1.82317 0
M  V30 6922 H 640.463 -1.7842 3.53528 0
M  V30 6923 H 641.637 0.900168 4.51922 0
M  V30 6924 H 639.952 0.657699 4.11173 0
M  V30 6925 H 642.549 -1.9902 4.96281 0
M  V30 6926 H 642.892 -2.50075 3.32819 0
M  V30 6927 H 643.425 -0.892894 3.8765 0
M  V30 6928 H 640.164 0.488636 6.53676 0
M  V30 6929 H 639.684 -1.0997 5.89633 0
M  V30 6930 H 641.363 -0.815547 6.41839 0
M  V30 6931 N 641.495 -1.56914 -0.146875 0
M  V30 6932 C 642.744 -1.82546 -0.857898 0
M  V30 6933 C 643.057 -0.708169 -1.8233 0
M  V30 6934 O 644.263 -0.850093 -2.57848 0
M  V30 6935 C 642.719 -3.23548 -1.57623 0
M  V30 6936 C 642.327 -4.43212 -0.653224 0
M  V30 6937 C 644.071 -3.58453 -2.27402 0
M  V30 6938 C 641.978 -5.75237 -1.37318 0
M  V30 6939 H 640.908 -0.680786 -0.32411 0
M  V30 6940 H 643.559 -1.83166 -0.110639 0
M  V30 6941 H 641.941 -3.17315 -2.36912 0
M  V30 6942 H 643.115 -4.60682 0.104452 0
M  V30 6943 H 641.43 -4.16351 -0.0638336 0
M  V30 6944 H 644.027 -4.54349 -2.81907 0
M  V30 6945 H 644.37 -2.84516 -3.03901 0
M  V30 6946 H 644.903 -3.66347 -1.55032 0
M  V30 6947 H 641.642 -6.52269 -0.650041 0
M  V30 6948 H 641.162 -5.61703 -2.10357 0
M  V30 6949 H 642.841 -6.18039 -1.91406 0
M  V30 6950 N 642.974 0.416227 -1.52004 0
M  V30 6951 C 644.199 1.19029 -1.69843 0
M  V30 6952 C 644.624 1.83708 -0.404103 0
M  V30 6953 O 643.982 1.69711 0.637787 0
M  V30 6954 C 644.03 2.23439 -2.83032 0
M  V30 6955 O 643.134 3.29419 -2.48106 0
M  V30 6956 H 642.475 0.347785 -0.565634 0
M  V30 6957 H 645.005 0.488871 -1.98674 0
M  V30 6958 H 645.015 2.67884 -3.07737 0
M  V30 6959 H 643.69 1.75745 -3.76944 0
M  V30 6960 H 642.267 2.90303 -2.34048 0
M  V30 6961 N 644.452 1.42507 0.673017 0
M  V30 6962 C 645.399 1.46124 1.78651 0
M  V30 6963 C 646.369 0.313007 1.63124 0
M  V30 6964 O 647.554 0.517337 1.83653 0
M  V30 6965 C 644.694 1.3711 3.16694 0
M  V30 6966 C 643.807 2.61983 3.43495 0
M  V30 6967 C 642.942 2.45098 4.71275 0
M  V30 6968 C 641.981 3.65336 4.91117 0
M  V30 6969 N 641.118 3.47383 6.10139 0
M  V30 6970 H 645.958 2.4128 1.74895 0
M  V30 6971 H 643.495 1.19788 0.853766 0
M  V30 6972 H 645.453 1.29881 3.96468 0
M  V30 6973 H 644.083 0.45549 3.1957 0
M  V30 6974 H 643.135 2.79571 2.57961 0
M  V30 6975 H 644.447 3.51355 3.5405 0
M  V30 6976 H 643.601 2.35466 5.59143 0
M  V30 6977 H 642.34 1.53219 4.63007 0
M  V30 6978 H 641.345 3.754 4.0169 0
M  V30 6979 H 642.57 4.58199 5.01229 0
M  V30 6980 H 640.516 2.58222 6.0304 0
M  V30 6981 H 640.433 4.30344 6.21563 0
M  V30 6982 H 641.701 3.41565 7.00681 0
M  V30 6983 N 645.93 -0.909495 1.28709 0
M  V30 6984 C 646.84 -2.04558 1.14861 0
M  V30 6985 C 647.856 -1.73842 0.0741621 0
M  V30 6986 O 649.032 -1.99383 0.2843 0
M  V30 6987 C 646.097 -3.36957 0.816148 0
M  V30 6988 C 645.158 -3.81255 1.97341 0
M  V30 6989 C 644.391 -5.07335 1.65671 0
M  V30 6990 O 644.614 -5.67514 0.573053 0
M  V30 6991 O 643.548 -5.47449 2.50167 0
M  V30 6992 H 647.374 -2.19161 2.10243 0
M  V30 6993 H 644.959 -1.03159 1.08068 0
M  V30 6994 H 646.841 -4.16436 0.644873 0
M  V30 6995 H 645.516 -3.2352 -0.107983 0
M  V30 6996 H 644.423 -3.02584 2.19986 0
M  V30 6997 H 645.756 -3.99261 2.87839 0
M  V30 6998 N 647.408 -1.11026 -1.11852 0
M  V30 6999 C 648.356 -0.759643 -2.19846 0
M  V30 7000 C 649.35 0.246964 -1.6759 0
M  V30 7001 O 650.556 0.106693 -1.79684 0
M  V30 7002 H 646.931 -0.22775 -0.716683 0
M  V30 7003 H 648.902 -1.6792 -2.46669 0
M  V30 7004 C 647.651 -0.214364 -3.47039 0
M  V30 7005 H 646.974 -0.980175 -3.87599 0
M  V30 7006 H 648.414 -0.00717047 -4.23999 0
M  V30 7007 C 646.873 1.05436 -3.19976 0
M  V30 7008 O 647.403 2.13483 -3.40276 0
M  V30 7009 N 645.609 0.975436 -2.7374 0
M  V30 7010 H 645.156 0.0960853 -2.57421 0
M  V30 7011 H 645.114 1.82501 -2.5601 0
M  V30 7012 N 648.886 1.2938 -0.899927 0
M  V30 7013 C 650.135 1.9483 -0.521937 0
M  V30 7014 C 650.448 1.71725 0.936473 0
M  V30 7015 O 651.654 2.31282 1.42199 0
M  V30 7016 C 650.11 3.48911 -0.88255 0
M  V30 7017 C 649.718 3.80815 -2.35974 0
M  V30 7018 C 651.462 4.20595 -0.57448 0
M  V30 7019 C 649.369 5.28142 -2.66121 0
M  V30 7020 H 648.299 0.729285 -0.191468 0
M  V30 7021 H 650.95 1.47103 -1.09695 0
M  V30 7022 H 649.332 3.95293 -0.236459 0
M  V30 7023 H 650.506 3.45291 -3.05141 0
M  V30 7024 H 648.821 3.22271 -2.63686 0
M  V30 7025 H 651.418 5.29031 -0.776556 0
M  V30 7026 H 651.761 4.13442 0.487005 0
M  V30 7027 H 652.294 3.79945 -1.17842 0
M  V30 7028 H 649.033 5.4036 -3.71068 0
M  V30 7029 H 648.553 5.64913 -2.01578 0
M  V30 7030 H 650.232 5.95738 -2.52399 0
M  V30 7031 N 650.364 0.662433 1.43002 0
M  V30 7032 C 651.312 -0.035345 2.32573 0
M  V30 7033 C 652.306 -0.803505 1.49131 0
M  V30 7034 O 653.512 -0.712865 1.65282 0
M  V30 7035 H 649.887 -0.0302194 0.751393 0
M  V30 7036 H 651.858 0.737686 2.89138 0
M  V30 7037 C 650.607 -0.981575 3.33557 0
M  V30 7038 H 649.93 -0.399914 3.97795 0
M  V30 7039 H 651.37 -1.43873 3.98844 0
M  V30 7040 C 649.829 -2.08204 2.64863 0
M  V30 7041 O 650.359 -3.16698 2.47113 0
M  V30 7042 N 648.565 -1.85022 2.24088 0
M  V30 7043 H 648.112 -0.967909 2.38724 0
M  V30 7044 H 648.07 -2.58845 1.78457 0
M  V30 7045 N 651.842 -1.52309 0.404946 0
M  V30 7046 C 652.772 -2.29805 -0.41376 0
M  V30 7047 C 653.753 -1.3384 -1.0498 0
M  V30 7048 O 654.938 -1.62745 -1.05961 0
M  V30 7049 C 652.068 -3.11639 -1.53292 0
M  V30 7050 C 651.022 -4.15616 -1.02211 0
M  V30 7051 C 650.348 -4.8577 -2.23455 0
M  V30 7052 C 651.648 -5.2224 -0.0790725 0
M  V30 7053 H 653.342 -2.98493 0.232878 0
M  V30 7054 H 650.888 -1.43552 0.113441 0
M  V30 7055 H 652.841 -3.64618 -2.11262 0
M  V30 7056 H 651.565 -2.40712 -2.20738 0
M  V30 7057 H 650.224 -3.63641 -0.46484 0
M  V30 7058 H 649.872 -4.11376 -2.89445 0
M  V30 7059 H 649.572 -5.56058 -1.89929 0
M  V30 7060 H 651.096 -5.4156 -2.82038 0
M  V30 7061 H 652.51 -5.70485 -0.567438 0
M  V30 7062 H 650.907 -5.99867 0.167167 0
M  V30 7063 H 651.977 -4.77078 0.867447 0
M  V30 7064 N 653.32 -0.135238 -1.57019 0
M  V30 7065 C 654.25 0.805235 -2.19176 0
M  V30 7066 C 655.231 1.2656 -1.13651 0
M  V30 7067 O 656.416 1.32528 -1.4195 0
M  V30 7068 C 653.546 2.04914 -2.80406 0
M  V30 7069 C 652.5 1.72598 -3.91655 0
M  V30 7070 C 651.826 3.04154 -4.39766 0
M  V30 7071 C 653.126 0.981709 -5.12991 0
M  V30 7072 H 654.82 0.287232 -2.98019 0
M  V30 7073 H 652.366 0.136714 -1.4335 0
M  V30 7074 H 654.319 2.71178 -3.22553 0
M  V30 7075 H 653.043 2.59067 -1.98877 0
M  V30 7076 H 651.702 1.08717 -3.50109 0
M  V30 7077 H 651.35 3.56274 -3.55075 0
M  V30 7078 H 651.05 2.83299 -5.14796 0
M  V30 7079 H 652.574 3.71509 -4.84576 0
M  V30 7080 H 653.988 1.5462 -5.52056 0
M  V30 7081 H 652.385 0.873533 -5.93708 0
M  V30 7082 H 653.455 -0.0286887 -4.84892 0
M  V30 7083 N 654.798 1.5699 0.138552 0
M  V30 7084 C 656.026 1.87976 0.864437 0
M  V30 7085 C 656.441 0.724372 1.74351 0
M  V30 7086 O 655.798 -0.305575 1.79924 0
M  V30 7087 C 655.849 3.18276 1.71414 0
M  V30 7088 O 655.57 4.29365 0.870487 0
M  V30 7089 C 657.071 3.62834 2.54688 0
M  V30 7090 H 654.291 0.622878 0.249528 0
M  V30 7091 H 656.835 2.04094 0.128805 0
M  V30 7092 H 654.99 3.03886 2.40274 0
M  V30 7093 H 655.404 5.03924 1.45466 0
M  V30 7094 H 656.878 4.5682 3.0987 0
M  V30 7095 H 657.355 2.88533 3.31127 0
M  V30 7096 H 657.961 3.79946 1.91105 0
M  V30 7097 N 656.276 -0.40816 1.52223 0
M  V30 7098 C 657.553 -1.16807 1.56893 0
M  V30 7099 C 657.933 -2.08169 0.350537 0
M  V30 7100 O 657.281 -2.18684 -0.662536 0
M  V30 7101 C 657.491 -1.94451 2.8981 0
M  V30 7102 C 658.839 -2.50484 3.42845 0
M  V30 7103 O 659.863 -2.0463 2.91556 0
M  V30 7104 O 658.722 -3.34192 4.3241 0
M  V30 7105 H 655.816 -0.533382 0.632007 0
M  V30 7106 H 658.362 -0.414862 1.64551 0
M  V30 7107 H 657.134 -1.27527 3.69936 0
M  V30 7108 H 656.757 -2.76775 2.85449 0
M  V30 7109 N 657.755 -1.42862 -0.66545 0
M  V30 7110 C 659.003 -1.43546 -1.42264 0
M  V30 7111 C 659.324 -0.0563116 -1.94919 0
M  V30 7112 O 658.594 0.906568 -1.73661 0
M  V30 7113 H 657.174 -0.528464 -0.527953 0
M  V30 7114 H 659.836 -1.78363 -0.785665 0
M  V30 7115 H 658.932 -2.14079 -2.27105 0
M  V30 7116 N 659.233 0.902656 -1.29189 0
M  V30 7117 C 660.166 2.00816 -1.0839 0
M  V30 7118 C 661.144 1.626 0.00335266 0
M  V30 7119 O 662.328 1.87928 -0.146765 0
M  V30 7120 C 659.455 3.32415 -0.649435 0
M  V30 7121 C 658.501 3.89617 -1.73496 0
M  V30 7122 S 659.334 4.19091 -3.33351 0
M  V30 7123 C 660.49 5.53736 -2.91766 0
M  V30 7124 H 660.723 2.18151 -2.01984 0
M  V30 7125 H 658.256 1.0489 -1.13303 0
M  V30 7126 H 660.214 4.08492 -0.405479 0
M  V30 7127 H 658.875 3.12964 0.266857 0
M  V30 7128 H 658.068 4.84658 -1.38284 0
M  V30 7129 H 657.67 3.20217 -1.93229 0
M  V30 7130 H 659.962 6.34085 -2.38627 0
M  V30 7131 H 660.905 5.93871 -3.85647 0
M  V30 7132 H 661.313 5.15453 -2.30149 0
M  V30 7133 N 660.711 1.11618 1.11262 0
M  V30 7134 C 661.643 0.734015 2.17129 0
M  V30 7135 C 662.656 -0.235243 1.61091 0
M  V30 7136 O 663.845 -0.0178597 1.78491 0
M  V30 7137 C 660.945 0.0643682 3.38839 0
M  V30 7138 C 660.118 1.06092 4.24339 0
M  V30 7139 C 659.177 0.420482 5.24517 0
M  V30 7140 O 658.203 1.07495 5.58957 0
M  V30 7141 N 659.405 -0.815828 5.74739 0
M  V30 7142 H 662.17 1.64492 2.50524 0
M  V30 7143 H 659.731 1.00664 1.26801 0
M  V30 7144 H 661.723 -0.375851 4.02951 0
M  V30 7145 H 660.293 -0.749147 3.03491 0
M  V30 7146 H 659.513 1.67903 3.56654 0
M  V30 7147 H 660.801 1.73507 4.78302 0
M  V30 7148 H 660.199 -1.36668 5.48943 0
M  V30 7149 H 658.756 -1.199 6.40677 0
M  V30 7150 N 662.189 -1.289 0.906776 0
M  V30 7151 C 663.121 -2.26556 0.347159 0
M  V30 7152 C 664.134 -1.54589 -0.51049 0
M  V30 7153 O 665.323 -1.75489 -0.326501 0
M  V30 7154 C 662.423 -3.3484 -0.523024 0
M  V30 7155 C 661.596 -4.36296 0.310515 0
M  V30 7156 C 660.655 -5.23879 -0.493634 0
M  V30 7157 O 659.681 -5.69127 0.0913569 0
M  V30 7158 N 660.883 -5.51946 -1.7982 0
M  V30 7159 H 663.648 -2.75212 1.18652 0
M  V30 7160 H 661.209 -1.42309 0.771996 0
M  V30 7161 H 663.201 -3.90366 -1.06756 0
M  V30 7162 H 661.771 -2.85946 -1.26309 0
M  V30 7163 H 660.991 -3.80331 1.03644 0
M  V30 7164 H 662.279 -5.01113 0.881106 0
M  V30 7165 H 661.677 -5.17006 -2.2961 0
M  V30 7166 H 660.234 -6.10258 -2.28971 0
M  V30 7167 N 663.667 -0.670007 -1.42649 0
M  V30 7168 C 664.913 -0.190568 -2.01903 0
M  V30 7169 C 665.246 1.19817 -1.52832 0
M  V30 7170 O 664.521 1.80342 -0.728485 0
M  V30 7171 C 664.804 -0.21991 -3.59428 0
M  V30 7172 C 664.657 -1.64376 -4.18689 0
M  V30 7173 C 665.976 0.434519 -4.3795 0
M  V30 7174 H 663.095 -0.0707219 -0.733599 0
M  V30 7175 H 665.737 -0.853883 -1.69732 0
M  V30 7176 H 663.887 0.344894 -3.86966 0
M  V30 7177 H 665.559 -2.26044 -4.02122 0
M  V30 7178 H 663.802 -2.18591 -3.747 0
M  V30 7179 H 664.473 -1.61601 -5.27815 0
M  V30 7180 H 666.949 -0.0462156 -4.16074 0
M  V30 7181 H 665.825 0.38333 -5.4756 0
M  V30 7182 H 666.086 1.51135 -4.15464 0
M  V30 7183 N 665.145 1.52092 -0.413018 0
M  V30 7184 C 666.391 2.02154 0.161737 0
M  V30 7185 C 666.724 1.29789 1.44459 0
M  V30 7186 O 665.999 0.405378 1.90229 0
M  V30 7187 C 666.282 3.5781 0.405463 0
M  V30 7188 C 666.135 4.40819 -0.894335 0
M  V30 7189 C 667.454 4.23821 1.18591 0
M  V30 7190 H 664.573 0.734769 0.0573077 0
M  V30 7191 H 667.215 1.81948 -0.547247 0
M  V30 7192 H 665.365 3.75158 1.0094 0
M  V30 7193 H 667.037 4.35175 -1.53039 0
M  V30 7194 H 665.28 4.06877 -1.50444 0
M  V30 7195 H 665.951 5.47819 -0.678144 0
M  V30 7196 H 668.427 4.10596 0.674573 0
M  V30 7197 H 667.303 5.32663 1.3252 0
M  V30 7198 H 667.564 3.83038 2.20758 0
M  V30 7199 N 666.623 0.143563 1.56945 0
M  V30 7200 C 667.571 -0.814556 2.17871 0
M  V30 7201 C 668.565 -1.25778 1.13474 0
M  V30 7202 O 669.771 -1.22666 1.31731 0
M  V30 7203 H 666.146 -0.280873 0.697578 0
M  V30 7204 H 668.117 -0.276459 2.97117 0
M  V30 7205 C 666.866 -2.04503 2.81201 0
M  V30 7206 H 666.189 -1.71296 3.61245 0
M  V30 7207 H 667.629 -2.69493 3.27337 0
M  V30 7208 C 666.088 -2.85079 1.79532 0
M  V30 7209 O 666.618 -3.81306 1.26368 0
M  V30 7210 N 664.824 -2.49546 1.48913 0
M  V30 7211 H 664.371 -1.71359 1.92338 0
M  V30 7212 H 664.329 -3.03751 0.811348 0
M  V30 7213 N 668.101 -1.57061 -0.130224 0
M  V30 7214 C 669.048 -1.99517 -1.16024 0
M  V30 7215 C 670.018 -0.865452 -1.41771 0
M  V30 7216 O 671.203 -1.12882 -1.53826 0
M  V30 7217 C 668.343 -2.3951 -2.48453 0
M  V30 7218 C 667.456 -3.65848 -2.29737 0
M  V30 7219 C 666.591 -3.9487 -3.55318 0
M  V30 7220 C 665.63 -5.14426 -3.31711 0
M  V30 7221 N 664.767 -5.39375 -4.49466 0
M  V30 7222 H 669.607 -2.87305 -0.791194 0
M  V30 7223 H 667.144 -1.42129 -0.379195 0
M  V30 7224 H 669.102 -2.60731 -3.25692 0
M  V30 7225 H 667.732 -1.54779 -2.83272 0
M  V30 7226 H 666.784 -3.52307 -1.4347 0
M  V30 7227 H 668.096 -4.53241 -2.08263 0
M  V30 7228 H 667.25 -4.16679 -4.4098 0
M  V30 7229 H 665.989 -3.05931 -3.79813 0
M  V30 7230 H 664.994 -4.92473 -2.44439 0
M  V30 7231 H 666.219 -6.04933 -3.08598 0
M  V30 7232 H 664.165 -4.53391 -4.74102 0
M  V30 7233 H 664.082 -6.21069 -4.31055 0
M  V30 7234 H 665.35 -5.65694 -5.36293 0
M  V30 7235 N 669.579 0.400081 -1.52437 0
M  V30 7236 C 670.807 1.16768 -1.70801 0
M  V30 7237 C 671.222 1.84036 -0.421462 0
M  V30 7238 O 670.579 1.72242 0.603228 0
M  V30 7239 C 670.63 2.22403 -2.8499 0
M  V30 7240 O 670.351 1.57879 -4.08663 0
M  V30 7241 C 671.852 3.11974 -3.1494 0
M  V30 7242 H 669.072 0.350533 -0.57216 0
M  V30 7243 H 671.616 0.469534 -1.99037 0
M  V30 7244 H 669.771 2.87871 -2.59247 0
M  V30 7245 H 670.185 2.27982 -4.7236 0
M  V30 7246 H 671.659 3.82148 -3.9833 0
M  V30 7247 H 672.136 3.74858 -2.28863 0
M  V30 7248 H 672.742 2.52165 -3.42481 0
M  V30 7249 N 671.057 1.43213 0.657864 0
M  V30 7250 C 672.007 1.44459 1.76396 0
M  V30 7251 C 672.991 0.313641 1.57814 0
M  V30 7252 O 674.183 0.557094 1.68004 0
M  V30 7253 C 671.312 1.36586 3.14959 0
M  V30 7254 C 670.398 2.54692 3.39106 0
M  V30 7255 N 670.789 3.80059 3.33749 0
M  V30 7256 C 669.087 2.49316 3.69807 0
M  V30 7257 C 669.788 4.58606 3.57849 0
M  V30 7258 N 668.764 3.89267 3.79437 0
M  V30 7259 H 672.566 2.39265 1.70673 0
M  V30 7260 H 670.08 1.378 0.859357 0
M  V30 7261 H 672.077 1.35561 3.94245 0
M  V30 7262 H 670.737 0.427956 3.21867 0
M  V30 7263 H 671.748 4.12414 3.13266 0
M  V30 7264 H 668.425 1.6419 3.83859 0
M  V30 7265 H 669.815 5.67619 3.59525 0
M  V30 7266 N 672.536 -0.895792 1.29666 0
M  V30 7267 C 673.483 -2.00035 1.15129 0
M  V30 7268 C 674.453 -1.66043 0.0435819 0
M  V30 7269 O 675.638 -1.89621 0.211811 0
M  V30 7270 C 672.778 -3.34774 0.83787 0
M  V30 7271 C 671.891 -3.81525 2.0264 0
M  V30 7272 C 671.026 -5.04858 1.65201 0
M  V30 7273 C 670.065 -5.43988 2.80612 0
M  V30 7274 N 669.202 -6.58507 2.43544 0
M  V30 7275 H 674.042 -2.11802 2.09628 0
M  V30 7276 H 671.579 -1.03719 1.04311 0
M  V30 7277 H 673.537 -4.12311 0.636824 0
M  V30 7278 H 672.167 -3.22724 -0.0702314 0
M  V30 7279 H 671.219 -2.9999 2.33903 0
M  V30 7280 H 672.531 -4.06472 2.89106 0
M  V30 7281 H 671.685 -5.8999 1.41408 0
M  V30 7282 H 670.424 -4.81759 0.758893 0
M  V30 7283 H 669.429 -4.57388 3.05083 0
M  V30 7284 H 670.654 -5.69066 3.70595 0
M  V30 7285 H 668.6 -6.37004 1.56724 0
M  V30 7286 H 668.517 -6.83269 3.23542 0
M  V30 7287 H 669.785 -7.46897 2.2308 0
M  V30 7288 N 674.014 -1.12206 -1.10668 0
M  V30 7289 C 674.924 -0.800686 -2.20513 0
M  V30 7290 C 675.94 0.209512 -1.72734 0
M  V30 7291 O 677.116 0.043705 -2.01353 0
M  V30 7292 C 674.181 -0.257353 -3.45744 0
M  V30 7293 C 673.242 -1.32718 -4.0827 0
M  V30 7294 C 672.475 -0.809674 -5.27522 0
M  V30 7295 O 672.698 0.35742 -5.69279 0
M  V30 7296 O 671.632 -1.57816 -5.80842 0
M  V30 7297 H 675.458 -1.71807 -2.50432 0
M  V30 7298 H 673.043 -0.898546 -1.19359 0
M  V30 7299 H 674.925 0.0408849 -4.2138 0
M  V30 7300 H 673.6 0.632627 -3.17458 0
M  V30 7301 H 672.507 -1.67855 -3.34329 0
M  V30 7302 H 673.84 -2.19083 -4.40753 0
M  V30 7303 N 675.492 1.28418 -0.913599 0
M  V30 7304 C 676.769 1.89977 -0.465619 0
M  V30 7305 C 677.149 1.82813 1.05559 0
M  V30 7306 O 676.497 1.26397 1.90358 0
M  V30 7307 C 676.707 3.34492 -0.995813 0
M  V30 7308 C 678.055 4.11468 -1.04782 0
M  V30 7309 O 679.079 3.43451 -0.944445 0
M  V30 7310 O 677.938 5.33046 -1.20518 0
M  V30 7311 H 675.032 0.813734 -0.147532 0
M  V30 7312 H 677.578 1.36786 -1.00437 0
M  V30 7313 H 676.35 3.33929 -2.03978 0
M  V30 7314 H 675.973 3.95181 -0.437878 0
M  V30 7315 N 676.97 0.677563 1.42291 0
M  V30 7316 C 678.219 0.198173 2.00724 0
M  V30 7317 C 678.532 -1.20325 1.54211 0
M  V30 7318 O 679.738 -1.77916 2.05081 0
M  V30 7319 C 678.194 0.303432 3.58619 0
M  V30 7320 C 677.802 1.70909 4.14119 0
M  V30 7321 C 679.546 -0.117103 4.24338 0
M  V30 7322 C 677.453 1.76696 5.64387 0
M  V30 7323 H 676.383 0.070329 0.750713 0
M  V30 7324 H 679.034 0.843147 1.62982 0
M  V30 7325 H 677.416 -0.409482 3.93877 0
M  V30 7326 H 678.59 2.44931 3.90315 0
M  V30 7327 H 676.905 2.07771 3.6086 0
M  V30 7328 H 679.502 -0.0940471 5.34617 0
M  V30 7329 H 679.845 -1.15283 4.00019 0
M  V30 7330 H 680.378 0.5449 3.9405 0
M  V30 7331 H 677.117 2.7826 5.93508 0
M  V30 7332 H 676.637 1.07034 5.90173 0
M  V30 7333 H 678.316 1.52166 6.28852 0
M  V30 7334 N 678.448 -1.51871 0.421078 0
M  V30 7335 C 679.678 -2.06057 -0.149723 0
M  V30 7336 C 680.086 -1.29002 -1.38402 0
M  V30 7337 O 679.429 -0.338385 -1.80556 0
M  V30 7338 C 679.491 -3.55216 -0.553339 0
M  V30 7339 C 679.155 -4.53408 0.571879 0
M  V30 7340 C 680.152 -4.99586 1.4391 0
M  V30 7341 C 677.837 -4.967 0.747979 0
M  V30 7342 C 679.831 -5.87711 2.46727 0
M  V30 7343 C 677.518 -5.84619 1.77944 0
M  V30 7344 C 678.516 -6.30021 2.63748 0
M  V30 7345 O 678.204 -7.16197 3.65126 0
M  V30 7346 H 677.936 -0.675744 -0.0186102 0
M  V30 7347 H 680.49 -1.96618 0.594166 0
M  V30 7348 H 678.72 -3.62381 -1.34969 0
M  V30 7349 H 680.409 -3.91992 -1.05342 0
M  V30 7350 H 681.175 -4.66846 1.31451 0
M  V30 7351 H 677.054 -4.60913 0.0897357 0
M  V30 7352 H 680.598 -6.2307 3.13734 0
M  V30 7353 H 676.495 -6.16771 1.90429 0
M  V30 7354 H 677.263 -7.34337 3.61512 0
M  V30 7355 N 679.926 -0.151884 -1.56866 0
M  V30 7356 C 681.342 0.204486 -1.58285 0
M  V30 7357 C 681.542 1.6431 -1.16639 0
M  V30 7358 O 680.598 2.37077 -0.868946 0
M  V30 7359 C 681.911 -0.0587019 -3.00643 0
M  V30 7360 C 683.459 0.00462303 -3.13 0
M  V30 7361 C 683.934 -0.231297 -4.57416 0
M  V30 7362 N 685.425 -0.178394 -4.62856 0
M  V30 7363 C 686.16 -0.335379 -5.72418 0
M  V30 7364 N 685.656 -0.550355 -6.90611 0
M  V30 7365 N 687.449 -0.272641 -5.61438 0
M  V30 7366 H 679.6 -1.09116 -1.82229 0
M  V30 7367 H 681.863 -0.432311 -0.843689 0
M  V30 7368 H 681.569 -1.05453 -3.35518 0
M  V30 7369 H 681.443 0.658508 -3.71407 0
M  V30 7370 H 683.83 0.991009 -2.77962 0
M  V30 7371 H 683.911 -0.744992 -2.44711 0
M  V30 7372 H 683.555 -1.2148 -4.93158 0
M  V30 7373 H 683.485 0.5387 -5.23837 0
M  V30 7374 H 685.976 -0.0170923 -3.77896 0
M  V30 7375 H 686.289 -0.660116 -7.69976 0
M  V30 7376 H 684.634 -0.586736 -6.92519 0
M  V30 7377 H 687.825 -0.105421 -4.67981 0
M  V30 7378 H 687.998 -0.398418 -6.46774 0
M  V30 7379 N 681.404 1.57128 0.121893 0
M  V30 7380 C 682.629 1.89254 0.848385 0
M  V30 7381 C 683.054 0.743527 1.72781 0
M  V30 7382 O 682.412 -0.306056 1.78698 0
M  V30 7383 C 682.46 3.20113 1.66012 0
M  V30 7384 O 681.564 3.05815 2.76679 0
M  V30 7385 H 680.905 0.621103 0.234793 0
M  V30 7386 H 683.435 2.0433 0.10516 0
M  V30 7387 H 683.445 3.52761 2.04996 0
M  V30 7388 H 682.12 4.03336 1.01452 0
M  V30 7389 H 680.697 2.84627 2.40918 0
M  V30 7390 N 682.882 -0.391992 1.52647 0
M  V30 7391 C 684.112 -1.15692 1.71169 0
M  V30 7392 C 684.52 -1.84285 0.428444 0
M  V30 7393 O 683.863 -1.73393 -0.606669 0
M  V30 7394 C 683.925 -2.25033 2.80357 0
M  V30 7395 C 683.589 -1.76433 4.21569 0
M  V30 7396 C 684.586 -1.2427 5.0483 0
M  V30 7397 C 682.271 -1.82746 4.67877 0
M  V30 7398 C 684.265 -0.790657 6.32477 0
M  V30 7399 C 681.952 -1.37153 5.9551 0
M  V30 7400 C 682.95 -0.853997 6.7764 0
M  V30 7401 O 682.638 -0.404708 8.02881 0
M  V30 7402 H 682.37 -0.35297 0.576531 0
M  V30 7403 H 684.924 -0.464994 2.00067 0
M  V30 7404 H 683.154 -2.97641 2.46874 0
M  V30 7405 H 684.843 -2.86718 2.87311 0
M  V30 7406 H 685.609 -1.18752 4.70237 0
M  V30 7407 H 681.488 -2.21971 4.04042 0
M  V30 7408 H 685.032 -0.386024 6.96531 0
M  V30 7409 H 680.929 -1.42356 6.29607 0
M  V30 7410 H 681.697 -0.526459 8.16805 0
M  V30 7411 N 684.36 -1.4356 -0.65026 0
M  V30 7412 C 685.323 -1.48615 -1.74489 0
M  V30 7413 C 686.323 -0.370483 -1.56474 0
M  V30 7414 O 687.513 -0.632351 -1.62317 0
M  V30 7415 C 684.645 -1.34161 -3.13391 0
M  V30 7416 H 685.838 -2.46103 -1.71387 0
M  V30 7417 H 683.391 -1.30369 -0.862186 0
M  V30 7418 H 684.126 -0.376918 -3.22102 0
M  V30 7419 H 683.911 -2.1504 -3.27872 0
M  V30 7420 H 685.401 -1.40637 -3.93206 0
M  V30 7421 N 685.838 0.888903 -1.30139 0
M  V30 7422 C 686.786 2.0156 -1.16088 0
M  V30 7423 C 687.78 1.69239 -0.0737413 0
M  V30 7424 O 688.986 1.78468 -0.234313 0
M  V30 7425 H 685.361 0.660825 -0.358907 0
M  V30 7426 H 687.332 2.10547 -2.11453 0
M  V30 7427 C 686.081 3.36758 -0.865426 0
M  V30 7428 H 685.404 3.62137 -1.69402 0
M  V30 7429 H 686.844 4.16246 -0.807192 0
M  V30 7430 C 685.303 3.34124 0.431577 0
M  V30 7431 O 685.833 3.7445 1.45431 0
M  V30 7432 N 684.039 2.87229 0.441321 0
M  V30 7433 H 683.586 2.54609 -0.391433 0
M  V30 7434 H 683.544 2.8585 1.30909 0
M  V30 7435 N 687.317 1.12792 1.10072 0
M  V30 7436 C 688.247 0.821688 2.18565 0
M  V30 7437 C 689.228 -0.21612 1.68721 0
M  V30 7438 O 690.413 -0.0764932 1.94049 0
M  V30 7439 C 687.543 0.279624 3.46172 0
M  V30 7440 C 686.497 1.25092 4.09312 0
M  V30 7441 C 685.823 0.568916 5.31665 0
M  V30 7442 C 687.123 2.60699 4.52585 0
M  V30 7443 H 688.817 1.72888 2.44438 0
M  V30 7444 H 686.363 0.832702 1.17482 0
M  V30 7445 H 688.316 0.053099 4.21367 0
M  V30 7446 H 687.04 -0.662929 3.19801 0
M  V30 7447 H 685.699 1.46332 3.36129 0
M  V30 7448 H 685.347 -0.378898 5.01571 0
M  V30 7449 H 685.047 1.21687 5.74862 0
M  V30 7450 H 686.571 0.351517 6.09587 0
M  V30 7451 H 687.985 2.43465 5.19035 0
M  V30 7452 H 686.382 3.21608 5.06644 0
M  V30 7453 H 687.452 3.1886 3.65317 0
M  V30 7454 N 688.795 -1.27931 0.920396 0
M  V30 7455 C 690.044 -1.93975 0.552867 0
M  V30 7456 C 690.357 -1.73193 -0.909035 0
M  V30 7457 O 691.563 -2.33515 -1.38502 0
M  V30 7458 C 690.019 -3.47463 0.937947 0
M  V30 7459 C 689.627 -3.77013 2.42003 0
M  V30 7460 C 691.371 -4.19628 0.64132 0
M  V30 7461 C 689.278 -5.23841 2.74489 0
M  V30 7462 H 688.208 -0.726146 0.203046 0
M  V30 7463 H 690.859 -1.45339 1.12022 0
M  V30 7464 H 689.241 -3.94867 0.299317 0
M  V30 7465 H 690.415 -3.40393 3.10595 0
M  V30 7466 H 688.73 -3.18035 2.6878 0
M  V30 7467 H 691.327 -5.27729 0.860622 0
M  V30 7468 H 691.67 -4.14164 -0.421168 0
M  V30 7469 H 692.203 -3.78022 1.23872 0
M  V30 7470 H 688.942 -5.34388 3.79618 0
M  V30 7471 H 688.462 -5.61634 2.1054 0
M  V30 7472 H 690.141 -5.91647 2.61845 0
M  V30 7473 N 690.273 -0.685099 -1.4193 0
M  V30 7474 C 691.521 -0.21124 -2.00993 0
M  V30 7475 C 691.842 1.18985 -1.54491 0
M  V30 7476 O 691.112 1.8009 -0.771 0
M  V30 7477 H 689.692 -0.0751059 -0.743215 0
M  V30 7478 H 692.354 -0.883915 -1.73704 0
M  V30 7479 H 691.45 -0.220513 -3.1132 0
M  V30 7480 N 691.751 1.51645 -0.429126 0
M  V30 7481 C 692.698 2.27542 0.386446 0
M  V30 7482 C 693.668 1.30786 1.02393 0
M  V30 7483 O 694.853 1.59678 1.0444 0
M  V30 7484 C 691.993 3.11457 1.48623 0
M  V30 7485 C 691.106 4.23196 0.867691 0
M  V30 7486 C 690.241 4.94435 1.94183 0
M  V30 7487 C 689.28 5.98108 1.30129 0
M  V30 7488 N 688.417 6.62786 2.31644 0
M  V30 7489 H 693.257 2.968 -0.267155 0
M  V30 7490 H 690.794 1.46397 -0.143591 0
M  V30 7491 H 692.752 3.58429 2.13506 0
M  V30 7492 H 691.382 2.44329 2.10957 0
M  V30 7493 H 690.434 3.80248 0.107373 0
M  V30 7494 H 691.746 4.97499 0.35997 0
M  V30 7495 H 690.9 5.44914 2.66747 0
M  V30 7496 H 689.639 4.19744 2.48326 0
M  V30 7497 H 688.644 5.4693 0.561082 0
M  V30 7498 H 689.869 6.74751 0.767303 0
M  V30 7499 H 687.815 5.90913 2.84883 0
M  V30 7500 H 687.732 7.32828 1.85741 0
M  V30 7501 H 689 7.17897 3.03717 0
M  V30 7502 N 693.229 0.160201 1.56784 0
M  V30 7503 C 694.454 -0.497373 2.01348 0
M  V30 7504 C 694.879 -1.56757 1.03966 0
M  V30 7505 O 694.237 -1.81292 0.0174455 0
M  V30 7506 C 694.285 -1.0628 3.44582 0
M  V30 7507 O 693.389 -2.17723 3.50244 0
M  V30 7508 H 692.73 -0.120295 0.653012 0
M  V30 7509 H 695.26 0.260821 2.02931 0
M  V30 7510 H 695.27 -1.38819 3.83658 0
M  V30 7511 H 693.945 -0.279166 4.14962 0
M  V30 7512 H 692.522 -1.86313 3.2302 0
M  V30 7513 N 694.707 -1.5719 -0.113559 0
M  V30 7514 C 695.955 -1.84772 -0.818761 0
M  V30 7515 C 696.276 -0.746196 -1.80158 0
M  V30 7516 O 695.546 0.229305 -1.94553 0
M  V30 7517 H 694.126 -0.681737 -0.305359 0
M  V30 7518 H 696.788 -1.94645 -0.0995845 0
M  V30 7519 H 695.884 -2.80878 -1.36067 0
M  V30 7520 N 696.185 0.383891 -1.52853 0
M  V30 7521 C 697.413 1.1495 -1.7203 0
M  V30 7522 C 697.828 1.83578 -0.440957 0
M  V30 7523 O 697.185 1.72872 0.584925 0
M  V30 7524 C 697.236 2.19368 -2.87333 0
M  V30 7525 O 696.957 1.53536 -4.10315 0
M  V30 7526 C 698.458 3.08616 -3.18231 0
M  V30 7527 H 695.678 0.344445 -0.575846 0
M  V30 7528 H 698.222 0.448397 -1.99524 0
M  V30 7529 H 696.377 2.85105 -2.62286 0
M  V30 7530 H 696.791 2.2296 -4.74752 0
M  V30 7531 H 698.265 3.77902 -4.02361 0
M  V30 7532 H 698.742 3.72409 -2.32826 0
M  V30 7533 H 699.348 2.48518 -3.45136 0
M  V30 7534 N 697.663 1.43903 0.642637 0
M  V30 7535 C 698.626 1.49538 1.73698 0
M  V30 7536 C 699.626 0.378776 1.56275 0
M  V30 7537 O 700.816 0.64095 1.6198 0
M  V30 7538 C 697.948 1.35821 3.12675 0
M  V30 7539 H 699.141 2.47008 1.70079 0
M  V30 7540 H 696.694 1.30824 0.85526 0
M  V30 7541 H 697.429 0.393994 3.21898 0
M  V30 7542 H 697.214 2.16776 3.26727 0
M  V30 7543 H 698.704 1.4272 3.92455 0
M  V30 7544 N 699.141 -0.881989 1.30609 0
M  V30 7545 C 700.051 -2.02076 1.19174 0
M  V30 7546 C 701.067 -1.73645 0.11102 0
M  V30 7547 O 702.243 -1.98735 0.326528 0
M  V30 7548 C 699.308 -3.3515 0.887438 0
M  V30 7549 C 698.369 -3.76983 2.05383 0
M  V30 7550 C 697.602 -5.03707 1.76395 0
M  V30 7551 O 697.825 -5.66171 0.693302 0
M  V30 7552 O 696.759 -5.42019 2.61723 0
M  V30 7553 H 700.585 -2.14652 2.14845 0
M  V30 7554 H 698.17 -1.00843 1.10232 0
M  V30 7555 H 700.052 -4.14975 0.73306 0
M  V30 7556 H 698.727 -3.23676 -0.0393354 0
M  V30 7557 H 697.634 -2.97849 2.26355 0
M  V30 7558 H 698.967 -3.93066 2.96243 0
M  V30 7559 N 700.619 -1.13374 -1.09472 0
M  V30 7560 C 701.549 -0.833268 -2.18126 0
M  V30 7561 C 702.53 0.207169 -1.68834 0
M  V30 7562 O 703.715 0.0662012 -1.94087 0
M  V30 7563 C 700.845 -0.297979 -3.46019 0
M  V30 7564 C 699.799 -1.27261 -4.08642 0
M  V30 7565 C 699.125 -0.597104 -5.31356 0
M  V30 7566 C 700.425 -2.63095 -4.51197 0
M  V30 7567 H 702.119 -1.74182 -2.43518 0
M  V30 7568 H 699.665 -0.838921 -1.17039 0
M  V30 7569 H 701.618 -0.0754444 -4.21332 0
M  V30 7570 H 700.342 0.645959 -3.20148 0
M  V30 7571 H 699.001 -1.48113 -3.35348 0
M  V30 7572 H 698.649 0.352293 -5.01765 0
M  V30 7573 H 698.349 -1.24734 -5.74208 0
M  V30 7574 H 699.873 -0.38384 -6.09392 0
M  V30 7575 H 701.287 -2.46214 -5.17737 0
M  V30 7576 H 699.684 -3.2429 -5.04932 0
M  V30 7577 H 700.754 -3.20793 -3.6362 0
M  V30 7578 N 702.098 1.27442 -0.927168 0
M  V30 7579 C 703.045 2.26863 -0.424459 0
M  V30 7580 C 704.015 1.5813 0.508346 0
M  V30 7581 O 705.2 1.85946 0.42762 0
M  V30 7582 C 702.34 3.43639 0.31718 0
M  V30 7583 C 701.453 4.27087 -0.649675 0
M  V30 7584 C 700.588 5.31082 0.111753 0
M  V30 7585 C 699.627 6.062 -0.847843 0
M  V30 7586 N 698.764 7.01999 -0.119074 0
M  V30 7587 H 703.604 2.69239 -1.27728 0
M  V30 7588 H 701.141 1.32394 -0.641106 0
M  V30 7589 H 703.099 4.10155 0.763486 0
M  V30 7590 H 701.729 3.02217 1.13424 0
M  V30 7591 H 700.781 3.60491 -1.21451 0
M  V30 7592 H 702.093 4.79242 -1.38307 0
M  V30 7593 H 701.247 6.03544 0.618 0
M  V30 7594 H 699.986 4.7973 0.878114 0
M  V30 7595 H 698.991 5.32577 -1.36534 0
M  V30 7596 H 700.216 6.59642 -1.61398 0
M  V30 7597 H 698.162 6.52977 0.629051 0
M  V30 7598 H 698.079 7.5184 -0.792046 0
M  V30 7599 H 699.347 7.78638 0.366537 0
M  V30 7600 N 703.576 0.692616 1.41565 0
M  V30 7601 C 704.509 -0.025063 2.28186 0
M  V30 7602 C 705.487 -0.790912 1.42068 0
M  V30 7603 O 706.671 -0.782344 1.71498 0
M  V30 7604 C 703.798 -1.04285 3.22246 0
M  V30 7605 C 702.844 -0.370515 4.24888 0
M  V30 7606 S 703.677 0.884942 5.28137 0
M  V30 7607 C 704.833 -0.131324 6.25762 0
M  V30 7608 H 705.066 0.709626 2.88707 0
M  V30 7609 H 702.599 0.482783 1.46658 0
M  V30 7610 H 704.557 -1.62493 3.7697 0
M  V30 7611 H 703.218 -1.7501 2.60827 0
M  V30 7612 H 702.411 -1.13911 4.90959 0
M  V30 7613 H 702.013 0.138411 3.73744 0
M  V30 7614 H 704.305 -0.985527 6.70294 0
M  V30 7615 H 705.248 0.495384 7.06365 0
M  V30 7616 H 705.656 -0.484777 5.62415 0
M  V30 7617 N 705.054 -1.51416 0.437162 0
M  V30 7618 C 706.001 -2.27743 -0.374374 0
M  V30 7619 C 706.971 -1.31327 -1.01698 0
M  V30 7620 O 708.156 -1.60229 -1.03592 0
M  V30 7621 C 705.296 -3.12241 -1.46969 0
M  V30 7622 C 704.409 -4.23651 -0.845236 0
M  V30 7623 C 703.544 -4.95458 -1.91559 0
M  V30 7624 C 702.583 -5.98789 -1.26956 0
M  V30 7625 N 701.72 -6.64005 -2.28126 0
M  V30 7626 H 706.56 -2.96654 0.282892 0
M  V30 7627 H 704.097 -1.46319 0.151352 0
M  V30 7628 H 706.055 -3.59556 -2.11602 0
M  V30 7629 H 704.685 -2.45445 -2.09659 0
M  V30 7630 H 703.737 -3.803 -0.0872059 0
M  V30 7631 H 705.049 -4.97683 -0.333582 0
M  V30 7632 H 704.203 -5.46321 -2.63854 0
M  V30 7633 H 702.942 -4.21055 -2.46097 0
M  V30 7634 H 701.947 -5.47219 -0.53207 0
M  V30 7635 H 703.172 -6.75149 -0.731509 0
M  V30 7636 H 701.118 -5.92415 -2.81745 0
M  V30 7637 H 701.035 -7.33802 -1.81852 0
M  V30 7638 H 702.303 -7.19498 -2.99905 0
M  V30 7639 N 706.532 -0.168513 -1.56696 0
M  V30 7640 C 707.464 0.794249 -2.14998 0
M  V30 7641 C 708.477 1.1957 -1.10485 0
M  V30 7642 O 709.666 1.13604 -1.37682 0
M  V30 7643 C 706.766 2.08018 -2.67547 0
M  V30 7644 C 705.939 1.84274 -3.96689 0
M  V30 7645 C 704.998 2.97059 -4.3433 0
M  V30 7646 O 704.024 2.67815 -5.02259 0
M  V30 7647 N 705.226 4.24775 -3.9566 0
M  V30 7648 H 707.991 0.295832 -2.98236 0
M  V30 7649 H 705.552 0.0143611 -1.61894 0
M  V30 7650 H 707.544 2.82559 -2.89729 0
M  V30 7651 H 706.114 2.49059 -1.88914 0
M  V30 7652 H 705.334 0.936528 -3.82914 0
M  V30 7653 H 706.622 1.65773 -4.81037 0
M  V30 7654 H 706.02 4.51395 -3.40968 0
M  V30 7655 H 704.577 4.96027 -4.22848 0
M  V30 7656 N 708.01 1.57248 0.105221 0
M  V30 7657 C 709.258 1.85204 0.808951 0
M  V30 7658 C 709.579 0.75574 1.7976 0
M  V30 7659 O 708.849 -0.218984 1.94672 0
M  V30 7660 H 707.429 0.683346 0.301739 0
M  V30 7661 H 710.091 1.94695 0.0892605 0
M  V30 7662 H 709.187 2.81595 1.34575 0
M  V30 7663 N 709.488 -0.375779 1.53054 0
M  V30 7664 C 710.398 -1.48381 1.81715 0
M  V30 7665 C 711.414 -1.59087 0.704795 0
M  V30 7666 O 712.59 -1.75174 0.993785 0
M  V30 7667 C 709.655 -2.83767 1.99192 0
M  V30 7668 C 708.716 -2.82673 3.23102 0
M  V30 7669 C 707.949 -4.11601 3.39736 0
M  V30 7670 O 708.172 -5.07243 2.60885 0
M  V30 7671 O 707.106 -4.18034 4.33049 0
M  V30 7672 H 710.932 -1.27089 2.7583 0
M  V30 7673 H 708.517 -0.564902 1.38308 0
M  V30 7674 H 710.399 -3.64004 2.12318 0
M  V30 7675 H 709.074 -3.05057 1.08267 0
M  V30 7676 H 707.981 -2.0117 3.15407 0
M  V30 7677 H 709.314 -2.66335 4.13916 0
M  V30 7678 N 710.966 -1.44241 -0.634997 0
M  V30 7679 C 712.194 -1.50296 -1.42193 0
M  V30 7680 C 712.609 -0.12658 -1.88375 0
M  V30 7681 O 711.966 0.86678 -1.60603 0
M  V30 7682 C 712.017 -2.46437 -2.64482 0
M  V30 7683 O 711.738 -3.78724 -2.20226 0
M  V30 7684 C 713.239 -2.61918 -3.57651 0
M  V30 7685 H 710.459 -0.509865 -0.43621 0
M  V30 7686 H 713.003 -1.89167 -0.776921 0
M  V30 7687 H 711.158 -2.10712 -3.25083 0
M  V30 7688 H 711.572 -4.30595 -2.9948 0
M  V30 7689 H 713.046 -3.33225 -4.40074 0
M  V30 7690 H 713.523 -1.67017 -4.06204 0
M  V30 7691 H 714.129 -2.98528 -3.02921 0
M  V30 7692 N 712.444 0.87505 -1.31075 0
M  V30 7693 C 713.692 1.62447 -1.20231 0
M  V30 7694 C 714.013 1.93506 0.240888 0
M  V30 7695 O 713.283 1.57847 1.16022 0
M  V30 7696 H 711.863 0.602207 -0.441991 0
M  V30 7697 H 714.525 1.04788 -1.64334 0
M  V30 7698 H 713.621 2.57031 -1.77036 0
M  V30 7699 N 713.922 1.13953 1.08869 0
M  V30 7700 C 715.338 0.878924 1.33218 0
M  V30 7701 C 715.538 -0.482478 1.95638 0
M  V30 7702 O 714.594 -1.22778 2.2064 0
M  V30 7703 C 715.907 2.00798 2.23832 0
M  V30 7704 C 717.455 2.04073 2.37325 0
M  V30 7705 C 717.93 3.16258 3.31278 0
M  V30 7706 N 719.421 3.15805 3.38853 0
M  V30 7707 C 720.156 3.99249 4.11567 0
M  V30 7708 N 719.652 4.92721 4.87029 0
M  V30 7709 N 721.445 3.87327 4.0735 0
M  V30 7710 H 713.596 2.01645 0.66731 0
M  V30 7711 H 715.859 0.878395 0.356547 0
M  V30 7712 H 715.565 2.98986 1.85203 0
M  V30 7713 H 715.439 1.92704 3.24261 0
M  V30 7714 H 717.826 1.06495 2.75214 0
M  V30 7715 H 717.907 2.16239 1.36654 0
M  V30 7716 H 717.551 4.14079 2.9411 0
M  V30 7717 H 717.481 3.0133 4.31866 0
M  V30 7718 H 719.972 2.48102 2.8505 0
M  V30 7719 H 720.285 5.52867 5.39961 0
M  V30 7720 H 718.63 4.96723 4.86098 0
M  V30 7721 H 721.821 3.13627 3.475 0
M  V30 7722 H 721.994 4.52585 4.63757 0
M  V30 7723 N 715.4 -1.26948 0.933913 0
M  V30 7724 C 716.332 -2.25768 0.395137 0
M  V30 7725 C 717.345 -1.55637 -0.477585 0
M  V30 7726 O 718.534 -1.76142 -0.289204 0
M  V30 7727 C 715.634 -3.35874 -0.451882 0
M  V30 7728 C 714.807 -4.3554 0.40299 0
M  V30 7729 C 713.866 -5.24809 -0.3824 0
M  V30 7730 O 712.892 -5.68805 0.212057 0
M  V30 7731 N 714.094 -5.55636 -1.68072 0
M  V30 7732 H 716.859 -2.72634 1.24463 0
M  V30 7733 H 714.42 -1.40639 0.802008 0
M  V30 7734 H 716.412 -3.92542 -0.984516 0
M  V30 7735 H 714.982 -2.8856 -1.20215 0
M  V30 7736 H 714.202 -3.78047 1.11688 0
M  V30 7737 H 715.49 -4.99131 0.987201 0
M  V30 7738 H 714.888 -5.2176 -2.18592 0
M  V30 7739 H 713.445 -6.14978 -2.15975 0
M  V30 7740 N 716.879 -0.700114 -1.41195 0
M  V30 7741 C 718.128 -0.230082 -2.00383 0
M  V30 7742 C 718.441 1.17857 -1.56106 0
M  V30 7743 O 719.647 1.74631 -2.07885 0
M  V30 7744 C 718.103 -0.360447 -3.5809 0
M  V30 7745 C 717.711 -1.77475 -4.11347 0
M  V30 7746 C 719.455 0.0495799 -4.24471 0
M  V30 7747 C 717.362 -1.85653 -5.61504 0
M  V30 7748 H 716.292 -0.0822633 -0.749499 0
M  V30 7749 H 718.943 -0.868969 -1.6162 0
M  V30 7750 H 717.325 0.346768 -3.94479 0
M  V30 7751 H 718.499 -2.51109 -3.86369 0
M  V30 7752 H 716.814 -2.13486 -3.57509 0
M  V30 7753 H 719.411 0.00898219 -5.34699 0
M  V30 7754 H 719.754 1.08904 -4.01803 0
M  V30 7755 H 720.287 -0.607521 -3.93134 0
M  V30 7756 H 717.026 -2.87667 -5.89006 0
M  V30 7757 H 716.546 -1.1641 -5.88395 0
M  V30 7758 H 718.225 -1.62151 -6.26351 0
M  V30 7759 O 718.396 1.50447 -0.587194 0
M  V30 7760 H 719.087 1.93476 -0.0931656 0
M  V30 END ATOM
M  V30 BEGIN BOND
M  V30 END BOND
M  V30 END CTAB
M  END
$$$$
