drugbank_target|C6KT34 Cell division cycle protein 48 homologue,putative (DB11638)
 OpenBabel12092121093D

  0  0  0     0  0            999 V3000
M  V30 BEGIN CTAB
M  V30 COUNTS 12960 13066 0 0 0
M  V30 BEGIN ATOM
M  V30 1 H -0.908 1.98254 -0.117106 0
M  V30 2 N 0 1.576 0 0
M  V30 3 C 0.933 2.03868 1.02534 0
M  V30 4 C 1.911 0.928543 1.3348 0
M  V30 5 O 3.095 1.19667 1.45644 0
M  V30 6 C 0.222 2.43627 2.35294 0
M  V30 7 C -0.732 3.65373 2.2001 0
M  V30 8 S 0.101 5.13292 1.52614 0
M  V30 9 C 1.257 5.56322 2.86805 0
M  V30 10 H 1.49 2.90518 0.631377 0
M  V30 11 H -0.977 1.52953 0.210867 0
M  V30 12 H 0.981 2.67203 3.11629 0
M  V30 13 H -0.358 1.57376 2.7183 0
M  V30 14 H -1.165 3.90944 3.18086 0
M  V30 15 H -1.563 3.418 1.51819 0
M  V30 16 H 0.729 5.58782 3.83104 0
M  V30 17 H 1.672 6.56266 2.65933 0
M  V30 18 H 2.08 4.83886 2.90714 0
M  V30 19 N 1.4781 -0.272755 1.55222 0
M  V30 20 C 2.3881 -1.35918 1.91216 0
M  V30 21 C 3.4041 -1.54026 0.809436 0
M  V30 22 O 4.5801 -1.68148 1.10852 0
M  V30 23 C 1.6451 -2.69834 2.17693 0
M  V30 24 C 0.7061 -2.6047 3.41253 0
M  V30 25 C -0.0609 -3.88 3.66458 0
M  V30 26 O 0.1621 -4.88693 2.94169 0
M  V30 27 O -0.9039 -3.88189 4.59992 0
M  V30 28 H 2.9221 -1.0839 2.83699 0
M  V30 29 H 0.5071 -0.471301 1.41771 0
M  V30 30 H 2.3891 -3.49017 2.36147 0
M  V30 31 H 1.0641 -2.97148 1.28392 0
M  V30 32 H -0.0289 -1.79663 3.28134 0
M  V30 33 H 1.3041 -2.38106 4.30774 0
M  V30 34 N 2.9562 -1.48159 -0.537278 0
M  V30 35 C 4.2332 -1.46291 -1.29839 0
M  V30 36 C 4.6132 -0.170613 -2.10409 0
M  V30 37 O 3.9612 0.847746 -2.12192 0
M  V30 38 C 4.1712 -2.72055 -2.18603 0
M  V30 39 C 5.5192 -3.20087 -2.7898 0
M  V30 40 O 6.5432 -2.72921 -2.28894 0
M  V30 41 O 5.4022 -4.02138 -3.70064 0
M  V30 42 H 2.4962 -0.583906 -0.585647 0
M  V30 43 H 5.0422 -1.60384 -0.554534 0
M  V30 44 H 3.8142 -3.57628 -1.58801 0
M  V30 45 H 3.4372 -2.60646 -3.00249 0
M  V30 46 N 4.4343 0.785586 -1.36625 0
M  V30 47 C 5.3823 1.91978 -1.31329 0
M  V30 48 C 6.3763 1.68162 -0.204416 0
M  V30 49 O 7.5823 1.76122 -0.371645 0
M  V30 50 H 3.9573 0.631087 -0.408942 0
M  V30 51 H 5.9283 1.93562 -2.27104 0
M  V30 52 C 4.6773 3.29055 -1.12329 0
M  V30 53 H 4.0003 3.4795 -1.96903 0
M  V30 54 H 5.4403 4.08756 -1.12671 0
M  V30 55 C 3.8993 3.36461 0.171861 0
M  V30 56 O 4.4293 3.84576 1.16035 0
M  V30 57 N 2.6353 2.89782 0.217846 0
M  V30 58 H 2.1823 2.50819 -0.587183 0
M  V30 59 H 2.1403 2.95119 1.08408 0
M  V30 60 N 5.9124 1.20967 1.01018 0
M  V30 61 C 7.1404 1.04956 1.78303 0
M  V30 62 C 7.5554 -0.400915 1.84494 0
M  V30 63 O 6.9124 -1.27826 1.30257 0
M  V30 64 C 6.9634 1.63403 3.22462 0
M  V30 65 O 6.6844 3.02775 3.16637 0
M  V30 66 C 8.1854 1.52432 4.16268 0
M  V30 67 H 5.4054 0.368858 0.560522 0
M  V30 68 H 7.9494 1.60193 1.27116 0
M  V30 69 H 6.1044 1.1227 3.70775 0
M  V30 70 H 6.5184 3.30626 4.07169 0
M  V30 71 H 7.9924 1.98078 5.15237 0
M  V30 72 H 8.4694 0.477875 4.36592 0
M  V30 73 H 9.0754 2.02787 3.73841 0
M  V30 74 N 7.3905 -1.2043 1.01659 0
M  V30 75 C 8.6675 -1.8548 0.621004 0
M  V30 76 C 9.0475 -1.9091 -0.900919 0
M  V30 77 O 8.3955 -1.41694 -1.79263 0
M  V30 78 C 8.6055 -3.25119 1.2688 0
M  V30 79 C 9.9535 -4.01403 1.38423 0
M  V30 80 O 10.9775 -3.34473 1.22501 0
M  V30 81 O 9.8365 -5.21265 1.64151 0
M  V30 82 H 6.9305 -0.798761 0.214266 0
M  V30 83 H 9.4765 -1.28019 1.11396 0
M  V30 84 H 8.2485 -3.15932 2.30873 0
M  V30 85 H 7.8715 -3.90212 0.762917 0
M  V30 86 N 8.8686 -0.792821 -1.36206 0
M  V30 87 C 9.8156 -0.191653 -2.30003 0
M  V30 88 C 10.7856 0.666453 -1.52143 0
M  V30 89 O 11.9706 0.61442 -1.80636 0
M  V30 90 C 9.1106 0.664848 -3.38635 0
M  V30 91 C 8.2236 -0.212175 -4.31479 0
M  V30 92 C 7.3586 0.651022 -5.27196 0
M  V30 93 C 6.3976 -0.227247 -6.11678 0
M  V30 94 N 5.5346 0.595127 -6.99573 0
M  V30 95 H 10.3746 -0.996978 -2.80828 0
M  V30 96 H 7.9116 -0.503206 -1.38225 0
M  V30 97 H 9.8696 1.17645 -4.00269 0
M  V30 98 H 8.4996 1.43557 -2.89122 0
M  V30 99 H 7.5516 -0.841777 -3.70969 0
M  V30 100 H 8.8636 -0.888751 -4.90818 0
M  V30 101 H 8.0176 1.2283 -5.94136 0
M  V30 102 H 6.7566 1.36121 -4.68319 0
M  V30 103 H 5.7616 -0.816904 -5.43697 0
M  V30 104 H 6.9866 -0.93509 -6.72631 0
M  V30 105 H 4.9326 1.28955 -6.432 0
M  V30 106 H 4.8496 -0.0236952 -7.55996 0
M  V30 107 H 6.1176 1.15613 -7.70879 0
M  V30 108 N 10.3467 1.47872 -0.545128 0
M  V30 109 C 11.2937 2.29849 0.2093 0
M  V30 110 C 12.2637 1.38313 0.919707 0
M  V30 111 O 13.4487 1.67277 0.917772 0
M  V30 112 C 10.5887 3.22019 1.24088 0
M  V30 113 C 9.7017 4.2864 0.537778 0
M  V30 114 C 8.8367 5.07973 1.5536 0
M  V30 115 C 7.8757 6.06381 0.8348 0
M  V30 116 N 7.0127 6.78717 1.79688 0
M  V30 117 H 11.8527 2.93845 -0.49591 0
M  V30 118 H 9.3897 1.44848 -0.256389 0
M  V30 119 H 11.3477 3.73868 1.85144 0
M  V30 120 H 9.9777 2.59914 1.91428 0
M  V30 121 H 9.0297 3.7994 -0.187046 0
M  V30 122 H 10.3417 4.98793 -0.0258907 0
M  V30 123 H 9.4957 5.63912 2.23803 0
M  V30 124 H 8.2347 4.37693 2.15118 0
M  V30 125 H 7.2397 5.49631 0.136388 0
M  V30 126 H 8.4647 6.78665 0.24313 0
M  V30 127 H 6.4107 6.11177 2.38326 0
M  V30 128 H 6.3277 7.44998 1.28505 0
M  V30 129 H 7.5957 7.39237 2.47282 0
M  V30 130 N 11.8248 0.280983 1.55075 0
M  V30 131 C 12.7878 -0.590896 2.21452 0
M  V30 132 C 13.7878 -1.07682 1.19421 0
M  V30 133 O 14.9778 -0.97605 1.44288 0
M  V30 134 C 12.1098 -1.81587 2.88511 0
M  V30 135 H 13.3028 -0.0112554 2.99898 0
M  V30 136 H 10.8558 0.0316438 1.56268 0
M  V30 137 H 11.5908 -2.43587 2.14093 0
M  V30 138 H 11.3758 -1.4753 3.63287 0
M  V30 139 H 12.8658 -2.43575 3.39206 0
M  V30 140 N 13.3029 -1.57598 0.00835791 0
M  V30 141 C 14.2329 -2.1198 -0.979113 0
M  V30 142 C 15.2139 -1.03091 -1.35301 0
M  V30 143 O 16.3989 -1.30818 -1.43528 0
M  V30 144 C 13.5289 -2.62995 -2.26828 0
M  V30 145 C 12.4829 -3.76485 -2.03576 0
M  V30 146 C 11.8089 -4.13846 -3.38579 0
M  V30 147 C 13.1089 -5.0342 -1.39161 0
M  V30 148 H 14.8029 -2.94738 -0.526281 0
M  V30 149 H 12.3489 -1.41783 -0.251704 0
M  V30 150 H 14.3019 -2.99669 -2.96271 0
M  V30 151 H 13.0259 -1.7737 -2.7424 0
M  V30 152 H 11.6849 -3.40217 -1.36557 0
M  V30 153 H 11.3329 -3.25232 -3.83709 0
M  V30 154 H 11.0329 -4.90312 -3.23834 0
M  V30 155 H 12.5569 -4.53086 -4.09323 0
M  V30 156 H 13.9709 -5.37812 -1.98573 0
M  V30 157 H 12.3679 -5.84746 -1.34878 0
M  V30 158 H 13.4379 -4.83548 -0.361868 0
M  V30 159 N 14.781 0.264519 -1.55364 0
M  V30 160 C 16.027 0.99646 -1.76631 0
M  V30 161 C 16.36 1.85632 -0.570478 0
M  V30 162 O 15.635 1.89647 0.43175 0
M  V30 163 C 15.918 1.87187 -3.07625 0
M  V30 164 C 15.771 1.04138 -4.37579 0
M  V30 165 C 17.09 2.85749 -3.34717 0
M  V30 166 H 14.209 0.360841 -0.642622 0
M  V30 167 H 16.851 0.268218 -1.88097 0
M  V30 168 H 15.001 2.49279 -2.9798 0
M  V30 169 H 16.673 0.440517 -4.59192 0
M  V30 170 H 14.916 0.345115 -4.32425 0
M  V30 171 H 15.587 1.68729 -5.2558 0
M  V30 172 H 18.063 2.33793 -3.4421 0
M  V30 173 H 16.939 3.44136 -4.27623 0
M  V30 174 H 17.2 3.61311 -2.54768 0
M  V30 175 N 16.2591 1.48442 0.529413 0
M  V30 176 C 17.5361 1.46978 1.29062 0
M  V30 177 C 17.9161 0.181769 2.10316 0
M  V30 178 O 17.2641 -0.836481 2.12639 0
M  V30 179 C 17.4741 2.7321 2.17157 0
M  V30 180 C 18.8221 3.21562 2.77278 0
M  V30 181 O 19.8461 2.74131 2.27444 0
M  V30 182 O 18.7051 4.04094 3.67927 0
M  V30 183 H 15.7991 0.587003 0.582543 0
M  V30 184 H 18.3451 1.60676 0.546021 0
M  V30 185 H 17.1171 3.58465 1.56903 0
M  V30 186 H 16.7401 2.62235 2.98862 0
M  V30 187 N 17.7372 -0.778329 1.37039 0
M  V30 188 C 18.6472 -1.92253 1.34446 0
M  V30 189 C 19.6632 -1.72267 0.244991 0
M  V30 190 O 20.8392 -1.95615 0.479258 0
M  V30 191 C 17.9042 -3.27282 1.144 0
M  V30 192 C 16.9652 -3.59969 2.33925 0
M  V30 193 C 16.1982 -4.88555 2.14825 0
M  V30 194 O 16.4212 -5.59113 1.12912 0
M  V30 195 O 15.3552 -5.20153 3.02861 0
M  V30 196 H 19.1812 -1.97392 2.30803 0
M  V30 197 H 16.7662 -0.920154 1.17701 0
M  V30 198 H 18.6482 -4.08062 1.05182 0
M  V30 199 H 17.3232 -3.23011 0.211124 0
M  V30 200 H 16.2302 -2.7945 2.48714 0
M  V30 201 H 17.5632 -3.68976 3.25757 0
M  V30 202 N 19.2153 -1.21501 -1.00376 0
M  V30 203 C 20.1633 -0.972442 -2.11297 0
M  V30 204 C 21.1573 0.080731 -1.69208 0
M  V30 205 O 22.3633 -0.0707666 -1.79861 0
M  V30 206 H 18.7383 -0.297218 -0.690772 0
M  V30 207 H 20.7093 -1.91394 -2.28934 0
M  V30 208 C 19.4583 -0.555065 -3.43241 0
M  V30 209 H 18.7813 -1.35709 -3.76062 0
M  V30 210 H 20.2213 -0.424664 -4.21868 0
M  V30 211 C 18.6803 0.734147 -3.28804 0
M  V30 212 O 19.2103 1.78937 -3.59645 0
M  V30 213 N 17.4163 0.701133 -2.82015 0
M  V30 214 H 16.9633 -0.157874 -2.57116 0
M  V30 215 H 16.9213 1.56403 -2.72737 0
M  V30 216 N 20.6934 1.19889 -1.02296 0
M  V30 217 C 21.6414 2.24938 -0.592081 0
M  V30 218 C 22.6354 1.65257 0.372357 0
M  V30 219 O 23.8414 1.78371 0.241583 0
M  V30 220 H 20.2164 0.731787 -0.173182 0
M  V30 221 H 22.1874 2.58603 -1.48885 0
M  V30 222 C 20.9364 3.47668 0.047351 0
M  V30 223 H 20.2594 3.93875 -0.685772 0
M  V30 224 H 21.6994 4.22852 0.311862 0
M  V30 225 C 20.1584 3.11136 1.29212 0
M  V30 226 O 20.6884 3.2325 2.38479 0
M  V30 227 N 18.8944 2.65625 1.17863 0
M  V30 228 H 18.4414 2.55968 0.289493 0
M  V30 229 H 18.3994 2.41553 2.01245 0
M  V30 230 N 22.1715 0.800033 1.35784 0
M  V30 231 C 23.4195 0.376597 1.9856 0
M  V30 232 C 23.7405 -1.05812 1.63795 0
M  V30 233 O 23.0105 -1.73103 0.917171 0
M  V30 234 H 21.5905 0.136261 0.734467 0
M  V30 235 H 24.2525 1.02442 1.65806 0
M  V30 236 H 23.3485 0.477002 3.08433 0
M  V30 237 N 23.6496 -1.47581 0.552962 0
M  V30 238 C 24.5596 -2.33743 -0.200353 0
M  V30 239 C 25.5756 -1.47928 -0.916151 0
M  V30 240 O 26.7516 -1.80865 -0.885993 0
M  V30 241 C 23.8166 -3.24536 -1.21973 0
M  V30 242 C 22.8776 -4.26238 -0.511819 0
M  V30 243 C 22.1106 -5.12693 -1.48263 0
M  V30 244 O 22.3336 -5.01525 -2.71714 0
M  V30 245 O 21.2676 -5.93375 -1.00945 0
M  V30 246 H 25.0936 -2.9945 0.506304 0
M  V30 247 H 22.6786 -1.46071 0.313622 0
M  V30 248 H 24.5606 -3.80631 -1.80827 0
M  V30 249 H 23.2356 -2.61462 -1.90839 0
M  V30 250 H 22.1426 -3.73914 0.117799 0
M  V30 251 H 23.4756 -4.92014 0.135308 0
M  V30 252 N 25.1277 -0.289203 -1.54924 0
M  V30 253 C 26.0757 0.607966 -2.24514 0
M  V30 254 C 27.0697 1.14655 -1.24702 0
M  V30 255 O 28.2757 1.09856 -1.4259 0
M  V30 256 H 24.6507 0.21464 -0.720718 0
M  V30 257 H 26.6217 -0.00164182 -2.984 0
M  V30 258 C 25.3707 1.77406 -2.99036 0
M  V30 259 H 24.6937 1.36884 -3.75637 0
M  V30 260 H 26.1337 2.37814 -3.51028 0
M  V30 261 C 24.5927 2.67107 -2.05318 0
M  V30 262 O 25.1227 3.6787 -1.61353 0
M  V30 263 N 23.3287 2.34582 -1.71521 0
M  V30 264 H 22.8757 1.52688 -2.07471 0
M  V30 265 H 22.8337 2.94867 -1.0909 0
M  V30 266 N 26.6058 1.57591 -0.0167156 0
M  V30 267 C 27.5528 2.09462 0.969251 0
M  V30 268 C 28.5228 0.99381 1.33089 0
M  V30 269 O 29.7078 1.26726 1.42636 0
M  V30 270 C 26.8478 2.61622 2.25051 0
M  V30 271 C 25.9608 3.85666 1.94642 0
M  V30 272 C 25.0958 4.26266 3.16972 0
M  V30 273 C 24.1348 5.43101 2.82326 0
M  V30 274 N 23.2718 5.78915 3.97243 0
M  V30 275 H 28.1118 2.93428 0.519997 0
M  V30 276 H 25.6488 1.45044 0.245087 0
M  V30 277 H 27.6068 2.89949 2.99976 0
M  V30 278 H 26.2368 1.80505 2.67615 0
M  V30 279 H 25.2888 3.64145 1.10013 0
M  V30 280 H 26.6008 4.70678 1.65117 0
M  V30 281 H 25.7548 4.55963 4.00228 0
M  V30 282 H 24.4938 3.39996 3.49648 0
M  V30 283 H 23.4988 5.1311 1.97479 0
M  V30 284 H 24.7238 6.3106 2.50879 0
M  V30 285 H 22.6698 4.95602 4.29785 0
M  V30 286 H 22.5868 6.58539 3.71299 0
M  V30 287 H 23.8548 6.13212 4.81239 0
M  V30 288 N 28.0839 -0.256276 1.55502 0
M  V30 289 C 29.3299 -0.987079 1.77157 0
M  V30 290 C 29.6629 -1.85327 0.580315 0
M  V30 291 O 28.9379 -1.89874 -0.421686 0
M  V30 292 C 29.2209 -1.85553 3.08613 0
M  V30 293 C 29.0739 -1.01816 4.38125 0
M  V30 294 C 30.3929 -2.8397 3.36228 0
M  V30 295 H 27.5119 -0.357428 0.644526 0
M  V30 296 H 30.1539 -0.258239 1.88237 0
M  V30 297 H 28.3039 -2.47695 2.99298 0
M  V30 298 H 29.9759 -0.416159 4.59419 0
M  V30 299 H 28.2189 -0.322178 4.32602 0
M  V30 300 H 28.8899 -1.65939 5.26468 0
M  V30 301 H 31.3659 -2.31964 3.45445 0
M  V30 302 H 30.2419 -3.41864 4.29442 0
M  V30 303 H 30.5029 -3.59955 2.56681 0
M  V30 304 N 29.562 -1.4872 -0.521534 0
M  V30 305 C 30.973 -1.50607 -1.10337 0
M  V30 306 C 31.324 -0.280612 -1.94183 0
M  V30 307 O 30.449 0.611507 -2.0758 0
M  V30 308 C 31.044 -2.72903 -2.00772 0
M  V30 309 C 29.603 -2.77634 -2.54158 0
M  V30 310 C 28.75 -2.44241 -1.31307 0
M  V30 311 H 31.701 -1.55714 -0.306388 0
M  V30 312 H 31.722 -2.519 -2.85178 0
M  V30 313 H 31.234 -3.62077 -1.39721 0
M  V30 314 H 29.335 -1.92689 -3.18907 0
M  V30 315 H 29.448 -3.79283 -2.92714 0
M  V30 316 H 27.812 -1.95577 -1.63161 0
M  V30 317 H 28.595 -3.35666 -0.719943 0
M  V30 318 N 31.0401 0.771051 -1.3745 0
M  V30 319 C 31.9871 1.88435 -1.3327 0
M  V30 320 C 32.9571 1.64914 -0.198136 0
M  V30 321 O 34.1421 1.86821 -0.387606 0
M  V30 322 C 31.2821 3.25509 -1.14622 0
M  V30 323 C 30.3951 3.60979 -2.37314 0
M  V30 324 C 29.5301 4.87265 -2.11533 0
M  V30 325 C 28.5691 5.15469 -3.30088 0
M  V30 326 N 27.7061 6.32944 -3.03853 0
M  V30 327 H 32.5461 1.91344 -2.28455 0
M  V30 328 H 30.0831 0.935466 -1.13523 0
M  V30 329 H 32.0411 4.04582 -1.01831 0
M  V30 330 H 30.6711 3.21974 -0.230837 0
M  V30 331 H 29.7231 2.76885 -2.60842 0
M  V30 332 H 31.0351 3.77759 -3.25729 0
M  V30 333 H 30.1891 5.74244 -1.95777 0
M  V30 334 H 28.9281 4.7259 -1.20457 0
M  V30 335 H 27.9331 4.26966 -3.46382 0
M  V30 336 H 29.1581 5.32052 -4.22016 0
M  V30 337 H 27.1041 6.19625 -2.15407 0
M  V30 338 H 27.0211 6.50143 -3.85812 0
M  V30 339 H 28.2891 7.22857 -2.91716 0
M  V30 340 N 32.5182 1.22032 0.997298 0
M  V30 341 C 33.4652 0.986467 2.08656 0
M  V30 342 C 34.4352 -0.0902671 1.65855 0
M  V30 343 O 35.6202 0.0584294 1.90711 0
M  V30 344 C 32.7602 0.565569 3.40434 0
M  V30 345 C 31.8732 1.71259 3.96604 0
M  V30 346 C 31.0082 1.24011 5.16522 0
M  V30 347 C 30.0472 2.35896 5.64818 0
M  V30 348 N 29.1842 1.89726 6.7598 0
M  V30 349 H 34.0242 1.91892 2.27994 0
M  V30 350 H 31.5612 0.956199 1.11782 0
M  V30 351 H 33.5192 0.302738 4.161 0
M  V30 352 H 32.1492 -0.329879 3.2111 0
M  V30 353 H 31.2012 2.08986 3.17851 0
M  V30 354 H 32.5132 2.55436 4.28432 0
M  V30 355 H 31.6672 0.934395 5.99461 0
M  V30 356 H 30.4062 0.368487 4.86306 0
M  V30 357 H 29.4112 2.67261 4.8047 0
M  V30 358 H 30.6362 3.23567 5.97061 0
M  V30 359 H 28.5822 1.0492 6.47555 0
M  V30 360 H 28.4992 2.67471 7.07103 0
M  V30 361 H 29.7672 1.62211 7.62435 0
M  V30 362 N 33.9963 -1.19345 1.0293 0
M  V30 363 C 34.9433 -2.2258 0.610464 0
M  V30 364 C 35.9133 -1.6179 -0.375946 0
M  V30 365 O 37.0983 -1.88844 -0.272511 0
M  V30 366 C 34.2383 -3.45085 -0.0321473 0
M  V30 367 C 33.3513 -4.20258 1.00035 0
M  V30 368 C 32.4863 -5.3019 0.32746 0
M  V30 369 C 31.5253 -5.97121 1.34584 0
M  V30 370 N 30.6623 -6.98615 0.698726 0
M  V30 371 H 35.5023 -2.57764 1.49538 0
M  V30 372 H 33.0393 -1.26644 0.748311 0
M  V30 373 H 34.9973 -4.15061 -0.421966 0
M  V30 374 H 33.6273 -3.10555 -0.88064 0
M  V30 375 H 32.6793 -3.49223 1.50823 0
M  V30 376 H 33.9913 -4.66175 1.77433 0
M  V30 377 H 33.1453 -6.06587 -0.11718 0
M  V30 378 H 31.8843 -4.85345 -0.478713 0
M  V30 379 H 30.8893 -5.19474 1.80074 0
M  V30 380 H 32.1143 -6.4405 2.15352 0
M  V30 381 H 30.0603 -6.55942 -0.0873471 0
M  V30 382 H 29.9773 -7.42724 1.41058 0
M  V30 383 H 31.2453 -7.79004 0.278102 0
M  V30 384 N 35.4744 -0.807222 -1.35358 0
M  V30 385 C 36.4224 -0.20614 -2.31685 0
M  V30 386 C 37.4164 0.644445 -1.56663 0
M  V30 387 O 38.6224 0.537538 -1.71786 0
M  V30 388 H 34.9974 -0.0479006 -0.750473 0
M  V30 389 H 36.9684 -1.03369 -2.79924 0
M  V30 390 C 35.7174 0.630212 -3.41941 0
M  V30 391 H 35.0404 -0.0149558 -3.99797 0
M  V30 392 H 36.4804 1.01716 -4.11619 0
M  V30 393 C 34.9394 1.79601 -2.85035 0
M  V30 394 O 35.4694 2.89351 -2.78637 0
M  V30 395 N 33.6754 1.60774 -2.42074 0
M  V30 396 H 33.2224 0.715009 -2.47478 0
M  V30 397 H 33.1804 2.38933 -2.04349 0
M  V30 398 N 36.9525 1.47285 -0.560781 0
M  V30 399 C 37.8825 2.32857 0.173105 0
M  V30 400 C 38.8635 1.44009 0.905281 0
M  V30 401 O 40.0485 1.7286 0.885046 0
M  V30 402 C 37.1785 3.25861 1.20133 0
M  V30 403 C 36.1325 4.23978 0.585388 0
M  V30 404 C 35.4585 5.06332 1.7185 0
M  V30 405 C 36.7585 5.20242 -0.463178 0
M  V30 406 H 38.4525 2.94466 -0.541307 0
M  V30 407 H 35.9985 1.41601 -0.261764 0
M  V30 408 H 37.9515 3.84569 1.72293 0
M  V30 409 H 36.6755 2.62315 1.94573 0
M  V30 410 H 35.3345 3.66501 0.085054 0
M  V30 411 H 34.9825 4.39186 2.45203 0
M  V30 412 H 34.6825 5.72762 1.31213 0
M  V30 413 H 36.2065 5.67899 2.24329 0
M  V30 414 H 37.6205 5.73293 -0.027502 0
M  V30 415 H 36.0175 5.94896 -0.788627 0
M  V30 416 H 37.0875 4.65504 -1.35773 0
M  V30 417 N 38.4306 0.297415 1.54768 0
M  V30 418 C 39.6556 -0.318435 2.04941 0
M  V30 419 C 40.0806 -1.4701 1.17345 0
M  V30 420 O 39.4386 -1.80436 0.176758 0
M  V30 421 C 39.4866 -0.755749 3.52592 0
M  V30 422 O 38.5906 -1.86088 3.68028 0
M  V30 423 H 37.9316 -0.062421 0.661059 0
M  V30 424 H 40.4616 0.438215 1.99852 0
M  V30 425 H 40.4716 -1.04552 3.94376 0
M  V30 426 H 39.1466 0.0867233 4.1581 0
M  V30 427 H 37.7236 -1.57193 3.38149 0
M  V30 428 N 39.9087 -1.5758 0.0250728 0
M  V30 429 C 41.3247 -1.56124 -0.331282 0
M  V30 430 C 41.5247 -1.03029 -1.73169 0
M  V30 431 O 40.5807 -0.675215 -2.43305 0
M  V30 432 C 41.8937 -3.00139 -0.183584 0
M  V30 433 C 43.4417 -3.11946 -0.256654 0
M  V30 434 C 43.9167 -4.57793 -0.137792 0
M  V30 435 N 45.4077 -4.6279 -0.194904 0
M  V30 436 C 46.1427 -5.7326 -0.126655 0
M  V30 437 N 45.6387 -6.928 -0.00755288 0
M  V30 438 N 47.4317 -5.61811 -0.180348 0
M  V30 439 H 39.5827 -1.90424 0.94087 0
M  V30 440 H 41.8457 -0.875761 0.362968 0
M  V30 441 H 41.5517 -3.4292 0.780927 0
M  V30 442 H 41.4257 -3.64899 -0.955448 0
M  V30 443 H 43.8127 -2.69079 -1.21162 0
M  V30 444 H 43.8937 -2.49915 0.545517 0
M  V30 445 H 43.5377 -5.01339 0.813739 0
M  V30 446 H 43.4677 -5.17798 -0.958775 0
M  V30 447 H 45.9587 -3.76807 -0.287267 0
M  V30 448 H 46.2717 -7.72791 0.0379428 0
M  V30 449 H 44.6167 -6.94995 0.0271731 0
M  V30 450 H 47.8077 -4.6731 -0.271767 0
M  V30 451 H 47.9807 -6.47882 -0.123697 0
M  V30 452 N 41.3868 0.248026 -1.55636 0
M  V30 453 C 42.3168 1.31079 -1.93237 0
M  V30 454 C 43.2978 1.50264 -0.797174 0
M  V30 455 O 44.4828 1.62891 -1.05737 0
M  V30 456 C 41.6128 2.66575 -2.22609 0
M  V30 457 C 40.5668 2.62087 -3.3837 0
M  V30 458 C 39.8928 4.01369 -3.53281 0
M  V30 459 C 41.1928 2.19171 -4.7409 0
M  V30 460 H 42.8868 0.998556 -2.82257 0
M  V30 461 H 40.4328 0.47891 -1.35803 0
M  V30 462 H 42.3858 3.41057 -2.47503 0
M  V30 463 H 41.1098 2.99432 -1.30414 0
M  V30 464 H 39.7688 1.90063 -3.13483 0
M  V30 465 H 39.4168 4.31489 -2.58508 0
M  V30 466 H 39.1168 3.99254 -4.31127 0
M  V30 467 H 40.6408 4.77552 -3.80495 0
M  V30 468 H 42.0548 2.83384 -4.98363 0
M  V30 469 H 40.4518 2.2817 -5.5503 0
M  V30 470 H 41.5218 1.14336 -4.71227 0
M  V30 471 N 42.8649 1.48995 0.513639 0
M  V30 472 C 44.1139 1.57093 1.2651 0
M  V30 473 C 44.4269 0.257091 1.93903 0
M  V30 474 O 45.6329 0.216478 2.70636 0
M  V30 475 C 44.0889 2.77118 2.29638 0
M  V30 476 C 43.6969 4.15209 1.68241 0
M  V30 477 C 45.4409 2.94538 3.05692 0
M  V30 478 C 43.3479 5.26474 2.69406 0
M  V30 479 H 42.2779 0.584876 0.475854 0
M  V30 480 H 44.9289 1.7536 0.540487 0
M  V30 481 H 43.3109 2.52319 3.05207 0
M  V30 482 H 44.4849 4.50094 0.987505 0
M  V30 483 H 42.7999 4.03042 1.04623 0
M  V30 484 H 45.3969 3.74832 3.8132 0
M  V30 485 H 45.7399 2.04614 3.62545 0
M  V30 486 H 46.2729 3.19316 2.37238 0
M  V30 487 H 43.0119 6.18417 2.17351 0
M  V30 488 H 42.5319 4.96058 3.37175 0
M  V30 489 H 44.2109 5.55277 3.32078 0
M  V30 490 N 44.343 -0.763751 1.37857 0
M  V30 491 C 45.589 -1.52483 1.33704 0
M  V30 492 C 45.922 -1.94051 -0.0759612 0
M  V30 493 O 45.197 -1.64675 -1.03501 0
M  V30 494 C 45.48 -2.78441 2.28348 0
M  V30 495 C 45.333 -2.43075 3.78463 0
M  V30 496 C 46.652 -3.80415 2.21298 0
M  V30 497 H 43.771 -0.553169 0.487005 0
M  V30 498 H 46.413 -0.875562 1.68624 0
M  V30 499 H 44.563 -3.33842 1.987 0
M  V30 500 H 46.235 -1.93527 4.18742 0
M  V30 501 H 44.478 -1.75666 3.96641 0
M  V30 502 H 45.149 -3.33149 4.40132 0
M  V30 503 H 47.625 -3.34527 2.47449 0
M  V30 504 H 46.501 -4.66257 2.89647 0
M  V30 505 H 46.762 -4.25262 1.20849 0
M  V30 506 N 45.8211 -1.22559 -0.990812 0
M  V30 507 C 46.7311 -1.01394 -2.11557 0
M  V30 508 C 47.7471 0.0383962 -1.73958 0
M  V30 509 O 48.9231 -0.154787 -2.00804 0
M  V30 510 C 45.9881 -0.596569 -3.41529 0
M  V30 511 C 45.0491 -1.72276 -3.93217 0
M  V30 512 C 44.2821 -1.32521 -5.16985 0
M  V30 513 O 44.5051 -0.204909 -5.70032 0
M  V30 514 O 43.4391 -2.14247 -5.62478 0
M  V30 515 H 47.2651 -1.95633 -2.32296 0
M  V30 516 H 44.8501 -1.01172 -1.0993 0
M  V30 517 H 46.7321 -0.374263 -4.19735 0
M  V30 518 H 45.4071 0.316939 -3.22145 0
M  V30 519 H 44.3141 -1.99961 -3.16174 0
M  V30 520 H 45.6471 -2.61421 -4.17037 0
M  V30 521 N 47.2992 1.18797 -1.03562 0
M  V30 522 C 48.2092 2.25913 -0.632505 0
M  V30 523 C 49.2252 1.70668 0.338882 0
M  V30 524 O 50.4012 2.00453 0.195076 0
M  V30 525 C 47.4662 3.467 0.00350942 0
M  V30 526 C 46.5272 4.17098 -1.01624 0
M  V30 527 C 45.7602 5.32119 -0.410478 0
M  V30 528 O 45.9832 5.64976 0.784725 0
M  V30 529 O 44.9172 5.9107 -1.13667 0
M  V30 530 H 48.7432 2.62648 -1.52478 0
M  V30 531 H 46.3282 1.25781 -0.806195 0
M  V30 532 H 48.2102 4.19878 0.35781 0
M  V30 533 H 46.8852 3.11798 0.869686 0
M  V30 534 H 45.7922 3.4601 -1.42224 0
M  V30 535 H 47.1252 4.55987 -1.85301 0
M  V30 536 N 48.7773 0.814389 1.34928 0
M  V30 537 C 49.7403 0.235759 2.27984 0
M  V30 538 C 50.7403 -0.581412 1.49921 0
M  V30 539 O 51.9303 -0.398758 1.69575 0
M  V30 540 C 49.0623 -0.670433 3.34242 0
M  V30 541 H 50.2553 1.05659 2.80671 0
M  V30 542 H 47.8083 0.585614 1.44915 0
M  V30 543 H 48.5433 -1.51466 2.86755 0
M  V30 544 H 48.3283 -0.0860822 3.92005 0
M  V30 545 H 49.8183 -1.06935 4.03676 0
M  V30 546 N 50.2554 -1.46986 0.568584 0
M  V30 547 C 51.4834 -2.0683 0.0539956 0
M  V30 548 C 51.8984 -1.41953 -1.24478 0
M  V30 549 O 51.2554 -0.519933 -1.74937 0
M  V30 550 C 51.3064 -3.61254 -0.133362 0
M  V30 551 O 51.0274 -4.237 1.11399 0
M  V30 552 C 52.5284 -4.37992 -0.683927 0
M  V30 553 H 49.7484 -0.669058 0.0510141 0
M  V30 554 H 52.2924 -1.88824 0.785234 0
M  V30 555 H 50.4474 -3.78735 -0.81477 0
M  V30 556 H 50.8614 -5.16388 0.91888 0
M  V30 557 H 52.3354 -5.46684 -0.764263 0
M  V30 558 H 52.8124 -4.05058 -1.69778 0
M  V30 559 H 53.4184 -4.25283 -0.0378494 0
M  V30 560 N 51.7335 -0.305618 -1.54608 0
M  V30 561 C 52.6815 0.584119 -2.25146 0
M  V30 562 C 53.6755 1.13326 -1.25911 0
M  V30 563 O 54.8815 1.08337 -1.43747 0
M  V30 564 H 51.2565 0.206983 -0.722954 0
M  V30 565 H 53.2275 -0.033291 -2.98381 0
M  V30 566 C 51.9765 1.74225 -3.009 0
M  V30 567 H 51.2995 1.32892 -3.77067 0
M  V30 568 H 52.7395 2.34077 -3.53531 0
M  V30 569 C 51.1985 2.64914 -2.0814 0
M  V30 570 O 51.7285 3.66137 -1.65246 0
M  V30 571 N 49.9345 2.3275 -1.74 0
M  V30 572 H 49.4815 1.50479 -2.09078 0
M  V30 573 H 49.4395 2.93694 -1.12211 0
M  V30 574 N 53.2116 1.57565 -0.0334293 0
M  V30 575 C 54.4886 1.83282 0.683163 0
M  V30 576 C 54.8686 0.91823 1.90084 0
M  V30 577 O 54.2166 -0.025113 2.28486 0
M  V30 578 C 54.4266 3.32599 1.0573 0
M  V30 579 C 55.7746 3.99179 1.44711 0
M  V30 580 O 56.7986 3.3712 1.15015 0
M  V30 581 O 55.6576 5.08565 2.0006 0
M  V30 582 H 52.7516 0.755869 0.335546 0
M  V30 583 H 55.2976 1.69589 -0.0614402 0
M  V30 584 H 54.0696 3.90834 0.190828 0
M  V30 585 H 53.6926 3.51415 1.85993 0
M  V30 586 N 54.6897 -0.239769 1.55765 0
M  V30 587 C 55.9667 -0.990056 1.68693 0
M  V30 588 C 56.3467 -2.03107 0.5754 0
M  V30 589 O 55.6947 -2.24604 -0.42017 0
M  V30 590 C 55.9047 -1.61696 3.09282 0
M  V30 591 C 57.2527 -2.11613 3.6811 0
M  V30 592 O 58.2767 -1.71624 3.12127 0
M  V30 593 O 57.1357 -2.85057 4.66267 0
M  V30 594 H 54.2297 -0.461299 0.686391 0
M  V30 595 H 56.7757 -0.232991 1.68093 0
M  V30 596 H 55.5477 -0.864357 3.81634 0
M  V30 597 H 55.1707 -2.44005 3.13923 0
M  V30 598 N 56.1678 -1.49265 -0.50573 0
M  V30 599 C 57.1158 -1.66065 -1.62866 0
M  V30 600 C 58.1098 -0.526636 -1.61006 0
M  V30 601 O 59.3158 -0.706126 -1.65571 0
M  V30 602 H 55.6908 -0.52356 -0.539805 0
M  V30 603 H 57.6618 -2.60329 -1.45848 0
M  V30 604 C 56.4108 -1.74008 -3.01026 0
M  V30 605 H 55.7338 -2.6064 -3.03161 0
M  V30 606 H 57.1738 -1.89798 -3.79147 0
M  V30 607 C 55.6328 -0.483868 -3.33407 0
M  V30 608 O 56.1628 0.392548 -3.99777 0
M  V30 609 N 54.3688 -0.348236 -2.88506 0
M  V30 610 H 53.9158 -1.06242 -2.34671 0
M  V30 611 H 53.8738 0.491204 -3.10539 0
M  V30 612 N 57.6459 0.756429 -1.3826 0
M  V30 613 C 58.8709 1.55077 -1.37717 0
M  V30 614 C 59.2959 1.88073 0.03164 0
M  V30 615 O 58.6539 1.50364 1.01293 0
M  V30 616 C 58.7019 2.8283 -2.23695 0
M  V30 617 O 57.8059 3.77862 -1.6521 0
M  V30 618 H 57.1469 0.469152 -0.469885 0
M  V30 619 H 59.6769 0.935019 -1.81985 0
M  V30 620 H 59.6869 3.31783 -2.37453 0
M  V30 621 H 58.3619 2.58144 -3.2609 0
M  V30 622 H 56.9389 3.36555 -1.60578 0
M  V30 623 N 59.124 1.23083 0.984299 0
M  V30 624 C 60.37 1.06214 1.72761 0
M  V30 625 C 60.703 -0.400584 1.90024 0
M  V30 626 O 59.978 -1.29672 1.44967 0
M  V30 627 C 60.261 1.78375 3.12817 0
M  V30 628 C 60.114 3.32296 3.03149 0
M  V30 629 C 61.433 1.54309 4.12161 0
M  V30 630 H 58.552 0.387251 0.627061 0
M  V30 631 H 61.194 1.51536 1.14616 0
M  V30 632 H 59.344 1.39848 3.62457 0
M  V30 633 H 61.016 3.8032 2.61064 0
M  V30 634 H 59.259 3.6153 2.39747 0
M  V30 635 H 59.93 3.77972 4.02295 0
M  V30 636 H 62.406 1.87791 3.71314 0
M  V30 637 H 61.282 2.07281 5.08258 0
M  V30 638 H 61.543 0.477572 4.39513 0
M  V30 639 N 60.6021 -1.18246 1.0419 0
M  V30 640 C 61.8481 -1.88536 0.747122 0
M  V30 641 C 62.1811 -1.80223 -0.723409 0
M  V30 642 O 61.4561 -1.20337 -1.52804 0
M  V30 643 C 61.7391 -3.38968 1.21544 0
M  V30 644 C 61.5921 -3.56084 2.74816 0
M  V30 645 C 62.9111 -4.32648 0.806482 0
M  V30 646 H 60.0301 -0.684619 0.272883 0
M  V30 647 H 62.6721 -1.39113 1.29413 0
M  V30 648 H 60.8221 -3.8119 0.750081 0
M  V30 649 H 62.4941 -3.22946 3.29399 0
M  V30 650 H 60.7371 -2.98699 3.14582 0
M  V30 651 H 61.4081 -4.61639 3.02644 0
M  V30 652 H 63.8841 -3.98211 1.20695 0
M  V30 653 H 62.7601 -5.36462 1.1619 0
M  V30 654 H 63.0211 -4.41146 -0.29029 0
M  V30 655 N 62.0802 -0.821533 -1.34494 0
M  V30 656 C 63.0432 -0.247847 -2.27856 0
M  V30 657 C 64.0432 0.573453 -1.50227 0
M  V30 658 O 65.2332 0.389759 -1.69784 0
M  V30 659 C 62.3652 0.652698 -3.34593 0
M  V30 660 H 63.5582 -1.07146 -2.80107 0
M  V30 661 H 61.1112 -0.593291 -1.44602 0
M  V30 662 H 61.8462 1.49943 -2.87555 0
M  V30 663 H 61.6312 0.065292 -3.92046 0
M  V30 664 H 63.1212 1.04793 -4.04238 0
M  V30 665 N 63.5583 1.46682 -0.576371 0
M  V30 666 C 64.4883 2.33028 0.148397 0
M  V30 667 C 65.4693 1.44961 0.889956 0
M  V30 668 O 66.6543 1.73789 0.866662 0
M  V30 669 C 63.7843 3.27117 1.1667 0
M  V30 670 C 62.7383 4.24575 0.540386 0
M  V30 671 C 62.0643 5.08126 1.6647 0
M  V30 672 C 63.3643 5.19722 -0.518331 0
M  V30 673 H 65.0583 2.93875 -0.572509 0
M  V30 674 H 62.6043 1.41315 -0.276768 0
M  V30 675 H 64.5573 3.86374 1.68204 0
M  V30 676 H 63.2813 2.64364 1.9178 0
M  V30 677 H 61.9403 3.66571 0.0461769 0
M  V30 678 H 61.5883 4.41762 2.40531 0
M  V30 679 H 61.2883 5.74122 1.25131 0
M  V30 680 H 62.8123 5.70246 2.18293 0
M  V30 681 H 64.2263 5.73232 -0.0883058 0
M  V30 682 H 62.6233 5.94026 -0.851679 0
M  V30 683 H 63.6933 4.64037 -1.40703 0
M  V30 684 N 65.0364 0.313813 1.54444 0
M  V30 685 C 65.9844 -0.572171 2.25453 0
M  V30 686 C 66.9784 -1.12657 1.2651 0
M  V30 687 O 68.1844 -1.07573 1.44319 0
M  V30 688 H 64.5594 -0.203146 0.724041 0
M  V30 689 H 66.5304 0.0491145 2.9836 0
M  V30 690 C 65.2794 -1.72626 3.0182 0
M  V30 691 H 64.6024 -1.30891 3.77767 0
M  V30 692 H 66.0424 -2.32199 3.54767 0
M  V30 693 C 64.5014 -2.63806 2.09542 0
M  V30 694 O 65.0314 -3.65256 1.67185 0
M  V30 695 N 63.2374 -2.31824 1.75232 0
M  V30 696 H 62.7844 -1.49368 2.09873 0
M  V30 697 H 62.7424 -2.93095 1.13767 0
M  V30 698 N 66.5145 -1.57545 0.0417849 0
M  V30 699 C 67.7425 -1.96624 -0.643928 0
M  V30 700 C 68.1575 -0.918897 -1.64929 0
M  V30 701 O 67.5145 0.0979323 -1.82237 0
M  V30 702 C 67.5655 -3.35781 -1.33914 0
M  V30 703 O 67.2865 -4.365 -0.374048 0
M  V30 704 C 68.7875 -3.89566 -2.1155 0
M  V30 705 H 66.0075 -0.647316 -0.176702 0
M  V30 706 H 68.5515 -2.04229 0.105304 0
M  V30 707 H 66.7065 -3.29357 -2.03968 0
M  V30 708 H 67.1205 -5.17248 -0.869179 0
M  V30 709 H 68.5945 -4.89242 -2.55628 0
M  V30 710 H 69.0715 -3.24488 -2.9598 0
M  V30 711 H 69.6775 -3.99298 -1.46427 0
M  V30 712 N 67.9926 0.231505 -1.5589 0
M  V30 713 C 68.9396 1.28682 -1.91598 0
M  V30 714 C 69.9096 1.47071 -0.771974 0
M  V30 715 O 71.0946 1.60802 -1.027 0
M  V30 716 C 68.2346 2.6342 -2.22944 0
M  V30 717 C 67.3476 2.52912 -3.50228 0
M  V30 718 C 66.4826 3.80106 -3.7107 0
M  V30 719 C 65.5216 3.64279 -4.91902 0
M  V30 720 N 64.6586 4.834 -5.09184 0
M  V30 721 H 69.4986 0.975305 -2.81588 0
M  V30 722 H 67.0356 0.470299 -1.39379 0
M  V30 723 H 68.9936 3.41869 -2.39126 0
M  V30 724 H 67.6236 2.92687 -1.36139 0
M  V30 725 H 66.6756 1.6595 -3.42294 0
M  V30 726 H 67.9876 2.37133 -4.38827 0
M  V30 727 H 67.1416 4.66999 -3.87295 0
M  V30 728 H 65.8806 3.98799 -2.80733 0
M  V30 729 H 64.8856 2.7577 -4.75637 0
M  V30 730 H 66.1106 3.47067 -5.83714 0
M  V30 731 H 64.0566 5.02425 -4.21788 0
M  V30 732 H 63.9736 4.70311 -5.91898 0
M  V30 733 H 65.2416 5.71747 -5.29835 0
M  V30 734 N 69.4707 1.49531 0.497807 0
M  V30 735 C 70.8867 1.36365 0.829266 0
M  V30 736 C 71.0867 0.399184 1.97506 0
M  V30 737 O 70.1427 -0.167977 2.51941 0
M  V30 738 C 71.4557 2.77153 1.16647 0
M  V30 739 C 73.0037 2.85877 1.27449 0
M  V30 740 C 73.4787 4.2744 1.64497 0
M  V30 741 N 74.9697 4.30265 1.7154 0
M  V30 742 C 75.7047 5.3677 2.01656 0
M  V30 743 N 75.2007 6.53516 2.29976 0
M  V30 744 N 76.9937 5.24189 2.02934 0
M  V30 745 H 69.1447 2.10831 -0.257703 0
M  V30 746 H 71.4077 0.946534 -0.0527091 0
M  V30 747 H 71.1137 3.49442 0.397872 0
M  V30 748 H 70.9877 3.12722 2.10915 0
M  V30 749 H 73.3747 2.13824 2.0338 0
M  V30 750 H 73.4557 2.53887 0.312244 0
M  V30 751 H 73.0997 5.00021 0.891151 0
M  V30 752 H 73.0297 4.56896 2.61827 0
M  V30 753 H 75.5207 3.4607 1.51802 0
M  V30 754 H 75.8337 7.30506 2.52153 0
M  V30 755 H 74.1787 6.56737 2.27425 0
M  V30 756 H 77.3697 4.31988 1.80289 0
M  V30 757 H 77.5427 6.07286 2.26071 0
M  V30 758 N 70.9488 -0.749086 1.3866 0
M  V30 759 C 71.8818 -1.87111 1.30631 0
M  V30 760 C 72.8598 -1.61572 0.18251 0
M  V30 761 O 74.0438 -1.85019 0.360592 0
M  V30 762 C 71.1708 -3.22815 1.02511 0
M  V30 763 C 70.2168 -3.67234 2.1689 0
M  V30 764 S 71.0498 -3.78245 3.79066 0
M  V30 765 C 72.2058 -5.16761 3.53142 0
M  V30 766 H 72.4388 -1.93636 2.25594 0
M  V30 767 H 69.9718 -0.912525 1.24549 0
M  V30 768 H 71.9298 -4.01181 0.869701 0
M  V30 769 H 70.5908 -3.13964 0.0925884 0
M  V30 770 H 69.7838 -4.65677 1.92771 0
M  V30 771 H 69.3858 -2.96034 2.28561 0
M  V30 772 H 71.6778 -6.02656 3.09534 0
M  V30 773 H 72.6208 -5.45902 4.50995 0
M  V30 774 H 73.0288 -4.85771 2.87554 0
M  V30 775 N 72.4269 -1.23603 -0.977757 0
M  V30 776 C 73.3369 -1.03632 -2.1047 0
M  V30 777 C 74.3529 0.0199435 -1.73989 0
M  V30 778 O 75.5289 -0.176076 -2.00629 0
M  V30 779 C 72.5939 -0.63276 -3.40877 0
M  V30 780 C 71.6549 -1.76437 -3.91367 0
M  V30 781 C 70.8879 -1.37997 -5.15551 0
M  V30 782 O 71.1109 -0.265357 -5.69782 0
M  V30 783 O 70.0449 -2.20201 -5.60174 0
M  V30 784 H 73.8709 -1.98086 -2.30208 0
M  V30 785 H 71.4559 -1.02332 -1.08851 0
M  V30 786 H 73.3379 -0.418761 -4.19314 0
M  V30 787 H 72.0129 0.282754 -3.22463 0
M  V30 788 H 70.9199 -2.03304 -3.14036 0
M  V30 789 H 72.2529 -2.6583 -4.14241 0
M  V30 790 N 73.905 1.17692 -1.04816 0
M  V30 791 C 74.815 2.25229 -0.65643 0
M  V30 792 C 75.831 1.71018 0.320761 0
M  V30 793 O 77.007 2.00649 0.173805 0
M  V30 794 C 74.072 3.46684 -0.0332629 0
M  V30 795 C 73.133 4.15997 -1.06042 0
M  V30 796 C 72.366 5.31654 -0.466893 0
M  V30 797 O 72.589 5.65777 0.724758 0
M  V30 798 O 71.523 5.89831 -1.1993 0
M  V30 799 H 75.349 2.61016 -1.55255 0
M  V30 800 H 72.934 1.24919 -0.81949 0
M  V30 801 H 74.816 4.20234 0.313256 0
M  V30 802 H 73.491 3.12703 0.836566 0
M  V30 803 H 72.398 3.44482 -1.45886 0
M  V30 804 H 73.731 4.53996 -1.90127 0
M  V30 805 N 75.3831 0.828654 1.34056 0
M  V30 806 C 76.3131 0.269443 2.3194 0
M  V30 807 C 77.2941 -0.617247 1.58506 0
M  V30 808 O 78.4791 -0.542931 1.86456 0
M  V30 809 C 75.6091 -0.564793 3.42677 0
M  V30 810 C 74.5631 0.225241 4.27407 0
M  V30 811 C 73.8891 -0.7321 5.29664 0
M  V30 812 C 75.1891 1.43663 5.02154 0
M  V30 813 H 76.8831 1.08728 2.7896 0
M  V30 814 H 74.4291 0.524283 1.34117 0
M  V30 815 H 76.3821 -0.966233 4.10173 0
M  V30 816 H 75.1061 -1.41574 2.9432 0
M  V30 817 H 73.7651 0.608117 3.61521 0
M  V30 818 H 73.4131 -1.57916 4.77568 0
M  V30 819 H 73.1131 -0.20767 5.87233 0
M  V30 820 H 74.6371 -1.13128 6.00029 0
M  V30 821 H 76.0511 1.1089 5.62473 0
M  V30 822 H 74.4481 1.89711 5.69324 0
M  V30 823 H 75.5181 2.21181 4.31517 0
M  V30 824 N 76.8612 -1.46375 0.584142 0
M  V30 825 C 77.8092 -2.32042 -0.161047 0
M  V30 826 C 78.8032 -1.44569 -0.882966 0
M  V30 827 O 80.0092 -1.61186 -0.801191 0
M  V30 828 H 76.3842 -0.748659 -0.0708033 0
M  V30 829 H 78.3552 -2.92704 0.580269 0
M  V30 830 C 77.1042 -3.27762 -1.1605 0
M  V30 831 H 76.4272 -3.95051 -0.614419 0
M  V30 832 H 77.8672 -3.90481 -1.65228 0
M  V30 833 C 76.3262 -2.53218 -2.22221 0
M  V30 834 O 76.8562 -2.29628 -3.29597 0
M  V30 835 N 75.0622 -2.13756 -1.96868 0
M  V30 836 H 74.6092 -2.33142 -1.09557 0
M  V30 837 H 74.5672 -1.642 -2.68115 0
M  V30 838 N 78.3393 -0.321999 -1.54275 0
M  V30 839 C 79.5863 0.281044 -2.0054 0
M  V30 840 C 79.9143 1.52265 -1.21019 0
M  V30 841 O 79.1693 1.93687 -0.279982 0
M  V30 842 C 79.4683 0.661769 -3.5122 0
M  V30 843 C 79.1343 -0.480482 -4.48333 0
M  V30 844 C 77.7963 -0.794005 -4.74604 0
M  V30 845 C 80.1483 -1.24783 -5.06042 0
M  V30 846 C 77.4763 -1.87763 -5.55844 0
M  V30 847 C 79.8283 -2.32153 -5.88462 0
M  V30 848 C 78.4923 -2.64089 -6.13036 0
M  V30 849 H 77.7623 0.102841 -0.733829 0
M  V30 850 H 80.4093 -0.445453 -1.86247 0
M  V30 851 H 78.7143 1.46867 -3.63232 0
M  V30 852 H 80.4113 1.13989 -3.84457 0
M  V30 853 H 77.0013 -0.226039 -4.28004 0
M  V30 854 H 81.1853 -1.01887 -4.85729 0
M  V30 855 H 76.4413 -2.12954 -5.73115 0
M  V30 856 H 80.6153 -2.92057 -6.32199 0
M  V30 857 H 78.2423 -3.48185 -6.75775 0
M  V30 858 N 79.8174 1.5752 -0.0501392 0
M  V30 859 C 81.0644 1.9265 0.623874 0
M  V30 860 C 81.3924 0.928411 1.70912 0
M  V30 861 O 80.6474 -0.0594525 1.9561 0
M  V30 862 C 80.9464 3.34467 1.25963 0
M  V30 863 C 80.6124 4.49883 0.302689 0
M  V30 864 C 79.2744 4.81184 0.0393636 0
M  V30 865 C 81.6264 5.20002 -0.353205 0
M  V30 866 C 78.9544 5.79951 -0.887308 0
M  V30 867 C 81.3064 6.1976 -1.26806 0
M  V30 868 C 79.9704 6.49491 -1.54007 0
M  V30 869 H 79.2404 0.704957 0.228292 0
M  V30 870 H 81.8874 1.91146 -0.116398 0
M  V30 871 H 80.1924 3.32333 2.07514 0
M  V30 872 H 81.8894 3.58928 1.78806 0
M  V30 873 H 78.4794 4.25457 0.518109 0
M  V30 874 H 82.6634 4.96033 -0.162854 0
M  V30 875 H 77.9194 6.01322 -1.10553 0
M  V30 876 H 82.0934 6.73205 -1.78236 0
M  V30 877 H 79.7204 7.25837 -2.25976 0
M  V30 878 N 81.2955 -0.223234 1.56011 0
M  V30 879 C 82.7115 -0.572856 1.48965 0
M  V30 880 C 82.9115 -1.87225 0.74492 0
M  V30 881 O 81.9675 -2.50899 0.283896 0
M  V30 882 C 83.2805 -0.653646 2.9351 0
M  V30 883 C 84.8285 -0.744386 3.0402 0
M  V30 884 C 85.3035 -0.856535 4.49919 0
M  V30 885 N 86.7945 -0.9208 4.53955 0
M  V30 886 C 87.5295 -1.02726 5.64123 0
M  V30 887 N 87.0255 -1.09777 6.84047 0
M  V30 888 N 88.8185 -1.06226 5.51971 0
M  V30 889 H 80.9695 0.629462 2.02858 0
M  V30 890 H 83.2325 0.220621 0.921971 0
M  V30 891 H 82.9385 0.231518 3.50937 0
M  V30 892 H 82.8125 -1.51781 3.45315 0
M  V30 893 H 85.1995 -1.61999 2.46658 0
M  V30 894 H 85.2805 0.14541 2.55386 0
M  V30 895 H 84.9245 0.0146069 5.07898 0
M  V30 896 H 84.8545 -1.76172 4.96257 0
M  V30 897 H 87.3455 -0.876694 3.6759 0
M  V30 898 H 87.6585 -1.17872 7.63758 0
M  V30 899 H 86.0035 -1.06693 6.86762 0
M  V30 900 H 89.1945 -1.00382 4.5721 0
M  V30 901 H 89.3675 -1.14177 6.37862 0
M  V30 902 N 82.7736 -1.49793 -0.48987 0
M  V30 903 C 84.0216 -1.59525 -1.24081 0
M  V30 904 C 84.3426 -0.288953 -1.92847 0
M  V30 905 O 83.6126 0.692436 -1.83254 0
M  V30 906 H 82.1926 -0.587796 -0.460983 0
M  V30 907 H 84.8546 -1.86477 -0.566778 0
M  V30 908 H 83.9506 -2.39696 -1.99881 0
M  V30 909 N 84.2517 0.741722 -1.39055 0
M  V30 910 C 85.5287 1.49252 -1.26425 0
M  V30 911 C 85.9087 2.10705 0.129144 0
M  V30 912 O 85.2567 1.98045 1.13976 0
M  V30 913 C 85.4667 2.54934 -2.38347 0
M  V30 914 C 86.8147 3.21506 -2.77343 0
M  V30 915 O 87.8387 2.65245 -2.37747 0
M  V30 916 O 86.6977 4.23294 -3.45665 0
M  V30 917 H 83.7917 0.662451 -0.495064 0
M  V30 918 H 86.3377 0.776121 -1.50912 0
M  V30 919 H 85.1097 2.07857 -3.31529 0
M  V30 920 H 84.7327 3.34141 -2.15489 0
M  V30 921 N 85.7298 1.2412 0.971189 0
M  V30 922 C 86.9578 1.10575 1.74874 0
M  V30 923 C 87.3728 -0.342017 1.85676 0
M  V30 924 O 86.7298 -1.23617 1.34258 0
M  V30 925 C 86.7808 1.73579 3.171 0
M  V30 926 O 86.5018 3.12695 3.06844 0
M  V30 927 C 88.0028 1.65598 4.11208 0
M  V30 928 H 85.2228 0.386504 0.548503 0
M  V30 929 H 87.7668 1.64156 1.21955 0
M  V30 930 H 85.9218 1.24009 3.67016 0
M  V30 931 H 86.3358 3.43412 3.96445 0
M  V30 932 H 87.8098 2.1437 5.08674 0
M  V30 933 H 88.2868 0.616532 4.34851 0
M  V30 934 H 88.8928 2.14578 3.67201 0
M  V30 935 N 87.2079 -1.17134 1.05439 0
M  V30 936 C 88.4569 -1.86791 0.761049 0
M  V30 937 C 88.7699 -1.82072 -0.714795 0
M  V30 938 O 89.9759 -2.47223 -1.12218 0
M  V30 939 C 88.4319 -3.35166 1.31117 0
M  V30 940 C 88.0399 -3.48381 2.81664 0
M  V30 941 C 89.7839 -4.10134 1.09499 0
M  V30 942 C 87.6909 -4.90793 3.29964 0
M  V30 943 H 86.6209 -0.699681 0.281002 0
M  V30 944 H 89.2719 -1.3226 1.27199 0
M  V30 945 H 87.6539 -3.8925 0.72803 0
M  V30 946 H 88.8279 -3.04502 3.45855 0
M  V30 947 H 87.1429 -2.86836 3.01851 0
M  V30 948 H 89.7399 -5.152 1.43084 0
M  V30 949 H 90.0829 -4.16287 0.0328772 0
M  V30 950 H 90.6159 -3.62264 1.64346 0
M  V30 951 H 87.3549 -4.89816 4.35616 0
M  V30 952 H 86.8749 -5.35333 2.70516 0
M  V30 953 H 88.5539 -5.59573 3.24787 0
M  V30 954 N 88.686 -0.835752 -1.33615 0
M  V30 955 C 89.935 -0.426289 -1.97144 0
M  V30 956 C 90.248 1.01912 -1.66953 0
M  V30 957 O 91.454 1.53311 -2.24072 0
M  V30 958 C 89.91 -0.711321 -3.52801 0
M  V30 959 C 89.518 -2.1712 -3.91871 0
M  V30 960 C 91.262 -0.368654 -4.22896 0
M  V30 961 C 89.169 -2.40044 -5.40493 0
M  V30 962 H 88.099 -0.15567 -0.737755 0
M  V30 963 H 90.75 -1.0239 -1.52278 0
M  V30 964 H 89.132 -0.0433766 -3.95976 0
M  V30 965 H 90.306 -2.87936 -3.59763 0
M  V30 966 H 88.621 -2.47654 -3.34749 0
M  V30 967 H 91.218 -0.517601 -5.32189 0
M  V30 968 H 91.561 0.688078 -4.10574 0
M  V30 969 H 92.094 -0.991702 -3.8524 0
M  V30 970 H 88.833 -3.44271 -5.57815 0
M  V30 971 H 88.353 -1.73785 -5.74072 0
M  V30 972 H 90.032 -2.23042 -6.0734 0
M  V30 973 N 90.1641 1.46063 -0.591896 0
M  V30 974 C 91.4131 2.01547 -0.0786637 0
M  V30 975 C 91.7261 1.46796 1.29268 0
M  V30 976 O 92.9321 1.94157 1.89777 0
M  V30 977 C 91.3881 3.59787 -0.0900024 0
M  V30 978 C 90.9961 4.23534 -1.46023 0
M  V30 979 C 92.7401 4.22895 0.368806 0
M  V30 980 C 90.6471 5.73881 -1.4288 0
M  V30 981 H 89.5771 0.753564 -0.0256388 0
M  V30 982 H 92.2281 1.677 -0.744905 0
M  V30 983 H 90.6101 3.90752 0.642586 0
M  V30 984 H 91.7841 4.04167 -2.21328 0
M  V30 985 H 90.0991 3.72558 -1.85982 0
M  V30 986 H 92.6961 5.33116 0.411258 0
M  V30 987 H 93.0391 3.9247 1.38827 0
M  V30 988 H 93.5721 3.9659 -0.31001 0
M  V30 989 H 90.3111 6.0898 -2.42536 0
M  V30 990 H 89.8311 5.95486 -0.718095 0
M  V30 991 H 91.5101 6.36776 -1.14565 0
M  V30 992 N 91.6422 0.330177 1.54103 0
M  V30 993 C 92.5892 -0.532762 2.24567 0
M  V30 994 C 93.5592 -1.10635 1.23892 0
M  V30 995 O 94.7442 -1.14546 1.5259 0
M  V30 996 C 91.8842 -1.6845 3.01195 0
M  V30 997 C 90.9972 -1.13951 4.167 0
M  V30 998 C 90.1322 -2.25746 4.80845 0
M  V30 999 C 89.1712 -1.6853 5.88442 0
M  V30 1000 N 88.3082 -2.74014 6.46421 0
M  V30 1001 H 93.1482 0.0746905 2.97906 0
M  V30 1002 H 90.6852 0.048632 1.4702 0
M  V30 1003 H 92.6432 -2.36234 3.43874 0
M  V30 1004 H 91.2732 -2.26314 2.30178 0
M  V30 1005 H 90.3252 -0.35301 3.78758 0
M  V30 1006 H 91.6372 -0.680892 4.94131 0
M  V30 1007 H 90.7912 -3.01422 5.26526 0
M  V30 1008 H 89.5302 -2.74947 4.0281 0
M  V30 1009 H 88.5352 -0.913543 5.42157 0
M  V30 1010 H 89.7602 -1.20198 6.68378 0
M  V30 1011 H 87.7062 -3.22494 5.71256 0
M  V30 1012 H 87.6232 -2.32735 7.19285 0
M  V30 1013 H 88.8912 -3.49499 6.96757 0
M  V30 1014 N 93.1203 -1.57491 0.0584922 0
M  V30 1015 C 94.3683 -1.92597 -0.612436 0
M  V30 1016 C 94.6893 -0.938162 -1.70949 0
M  V30 1017 O 93.9593 0.0158301 -1.95894 0
M  V30 1018 H 92.5393 -0.710964 -0.229214 0
M  V30 1019 H 95.2013 -1.94571 0.113218 0
M  V30 1020 H 94.2973 -2.94038 -1.04633 0
M  V30 1021 N 94.5984 0.214957 -1.56127 0
M  V30 1022 C 95.5454 1.26642 -1.92952 0
M  V30 1023 C 96.5154 1.46244 -0.78753 0
M  V30 1024 O 97.7004 1.59704 -1.04399 0
M  V30 1025 C 94.8404 2.6104 -2.25726 0
M  V30 1026 C 93.9534 2.49183 -3.52891 0
M  V30 1027 C 93.0884 3.76149 -3.7508 0
M  V30 1028 C 92.1274 3.59041 -4.95738 0
M  V30 1029 N 91.2644 4.77972 -5.14283 0
M  V30 1030 H 96.1044 0.945384 -2.82607 0
M  V30 1031 H 93.6414 0.455489 -1.3987 0
M  V30 1032 H 95.5994 3.39313 -2.42739 0
M  V30 1033 H 94.2294 2.91227 -1.39236 0
M  V30 1034 H 93.2814 1.6231 -3.44034 0
M  V30 1035 H 94.5934 2.32466 -4.41318 0
M  V30 1036 H 93.7474 4.62865 -3.92226 0
M  V30 1037 H 92.4864 3.95799 -2.84947 0
M  V30 1038 H 91.4914 2.7071 -4.78535 0
M  V30 1039 H 92.7164 3.40856 -5.87362 0
M  V30 1040 H 90.6624 4.97923 -4.27093 0
M  V30 1041 H 90.5794 4.64006 -5.96853 0
M  V30 1042 H 91.8474 5.66096 -5.35869 0
M  V30 1043 N 96.0765 1.50051 0.48192 0
M  V30 1044 C 97.0235 1.68122 1.58125 0
M  V30 1045 C 97.9935 0.522545 1.57666 0
M  V30 1046 O 99.1785 0.751844 1.75362 0
M  V30 1047 C 96.3185 1.77142 2.96167 0
M  V30 1048 C 95.4315 3.0444 3.06497 0
M  V30 1049 C 94.5665 3.04321 4.35387 0
M  V30 1050 C 93.6055 4.26118 4.3942 0
M  V30 1051 N 92.7425 4.238 5.59766 0
M  V30 1052 H 97.5825 2.6198 1.42022 0
M  V30 1053 H 95.1195 1.29877 0.690687 0
M  V30 1054 H 97.0775 1.80352 3.76203 0
M  V30 1055 H 95.7075 0.867329 3.1093 0
M  V30 1056 H 94.7595 3.10752 2.19402 0
M  V30 1057 H 96.0715 3.94426 3.05336 0
M  V30 1058 H 95.2255 3.062 5.23762 0
M  V30 1059 H 93.9645 2.12147 4.39141 0
M  V30 1060 H 92.9695 4.24463 3.49444 0
M  V30 1061 H 94.1945 5.19507 4.37366 0
M  V30 1062 H 92.1405 3.34474 5.64326 0
M  V30 1063 H 92.0575 5.07542 5.60301 0
M  V30 1064 H 93.3255 4.2981 6.50295 0
M  V30 1065 N 97.5546 -0.734337 1.39446 0
M  V30 1066 C 98.9706 -1.03997 1.21065 0
M  V30 1067 C 99.1706 -2.01369 0.0727019 0
M  V30 1068 O 98.2266 -2.45856 -0.575426 0
M  V30 1069 C 99.5396 -1.60163 2.54496 0
M  V30 1070 C 101.088 -1.7224 2.61347 0
M  V30 1071 C 101.563 -2.31814 3.95002 0
M  V30 1072 N 103.054 -2.39223 3.96644 0
M  V30 1073 C 103.789 -2.86258 4.96834 0
M  V30 1074 N 103.285 -3.33184 6.07421 0
M  V30 1075 N 105.078 -2.85473 4.84213 0
M  V30 1076 H 97.2286 -0.0885624 2.12215 0
M  V30 1077 H 99.4916 -0.10191 0.942506 0
M  V30 1078 H 99.1976 -0.960811 3.38321 0
M  V30 1079 H 99.0716 -2.5896 2.74262 0
M  V30 1080 H 101.459 -2.35443 1.77906 0
M  V30 1081 H 101.54 -0.720939 2.4543 0
M  V30 1082 H 101.184 -1.69238 4.78875 0
M  V30 1083 H 101.114 -3.32638 4.08239 0
M  V30 1084 H 103.605 -2.06057 3.16779 0
M  V30 1085 H 103.918 -3.67586 6.7978 0
M  V30 1086 H 102.263 -3.31191 6.11013 0
M  V30 1087 H 105.454 -2.48136 3.96921 0
M  V30 1088 H 105.627 -3.21814 5.62441 0
M  V30 1089 N 99.0327 -1.24633 -0.964593 0
M  V30 1090 C 99.9827 -1.00841 -2.04487 0
M  V30 1091 C 100.967 0.0512468 -1.60818 0
M  V30 1092 O 102.159 -0.162865 -1.76249 0
M  V30 1093 C 99.2877 -0.618474 -3.37683 0
M  V30 1094 C 98.3737 -1.71437 -3.87905 0
M  V30 1095 N 98.7647 -2.9477 -4.11029 0
M  V30 1096 C 97.0627 -1.5926 -4.16596 0
M  V30 1097 C 97.7637 -3.65834 -4.52261 0
M  V30 1098 N 96.7397 -2.9341 -4.57615 0
M  V30 1099 H 100.542 -1.94487 -2.20345 0
M  V30 1100 H 98.0557 -1.14805 -1.14863 0
M  V30 1101 H 100.053 -0.429247 -4.14684 0
M  V30 1102 H 98.7127 0.310766 -3.23209 0
M  V30 1103 H 99.7237 -3.30917 -3.9839 0
M  V30 1104 H 96.4007 -0.731606 -4.1104 0
M  V30 1105 H 97.7907 -4.71646 -4.78539 0
M  V30 1106 N 100.511 1.16574 -1.06058 0
M  V30 1107 C 101.736 1.91493 -0.796562 0
M  V30 1108 C 102.161 1.76773 0.642868 0
M  V30 1109 O 101.519 1.09142 1.44768 0
M  V30 1110 C 101.567 3.40293 -1.19303 0
M  V30 1111 O 100.671 4.11074 -0.330394 0
M  V30 1112 H 100.012 0.596678 -0.291326 0
M  V30 1113 H 102.542 1.47708 -1.41575 0
M  V30 1114 H 102.552 3.91057 -1.16356 0
M  V30 1115 H 101.227 3.50326 -2.24153 0
M  V30 1116 H 99.8038 3.70513 -0.421225 0
M  V30 1117 N 101.989 0.842826 1.3317 0
M  V30 1118 C 103.217 0.454055 2.01856 0
M  V30 1119 C 103.632 -0.94587 1.63397 0
M  V30 1120 O 102.989 -1.61534 0.849302 0
M  V30 1121 C 103.04 0.569715 3.56982 0
M  V30 1122 O 102.761 1.91448 3.94055 0
M  V30 1123 C 104.262 0.178412 4.42941 0
M  V30 1124 H 101.482 0.17979 0.646465 0
M  V30 1125 H 104.026 1.1365 1.70012 0
M  V30 1126 H 102.181 -0.0648587 3.87346 0
M  V30 1127 H 102.595 1.90282 4.88767 0
M  V30 1128 H 104.069 0.310376 5.51127 0
M  V30 1129 H 104.546 -0.880056 4.30293 0
M  V30 1130 H 105.152 0.787579 4.17944 0
M  V30 1131 N 103.467 -1.45747 0.599634 0
M  V30 1132 C 104.716 -2.01502 0.0893511 0
M  V30 1133 C 105.029 -1.4748 -1.28488 0
M  V30 1134 O 106.235 -1.95161 -1.88745 0
M  V30 1135 C 104.691 -3.59735 0.109082 0
M  V30 1136 C 104.299 -4.22754 1.48267 0
M  V30 1137 C 106.043 -4.23085 -0.346374 0
M  V30 1138 C 103.95 -5.73115 1.45921 0
M  V30 1139 H 102.88 -0.753417 0.0296347 0
M  V30 1140 H 105.531 -1.67303 0.753788 0
M  V30 1141 H 103.913 -3.91087 -0.621854 0
M  V30 1142 H 105.087 -4.02987 2.23468 0
M  V30 1143 H 103.402 -3.71567 1.87955 0
M  V30 1144 H 105.999 -5.33327 -0.38298 0
M  V30 1145 H 106.342 -3.93201 -1.36743 0
M  V30 1146 H 106.875 -3.9642 0.331038 0
M  V30 1147 H 103.614 -6.07685 2.45762 0
M  V30 1148 H 103.134 -5.95097 0.749665 0
M  V30 1149 H 104.813 -6.3616 1.17941 0
M  V30 1150 N 104.945 -0.338344 -1.53925 0
M  V30 1151 C 106.185 0.260168 -2.02737 0
M  V30 1152 C 106.549 1.48181 -1.22092 0
M  V30 1153 O 107.75 2.15416 -1.60777 0
M  V30 1154 C 106.021 0.571627 -3.52799 0
M  V30 1155 S 107.58 1.14769 -4.23525 0
M  V30 1156 H 104.398 0.077791 -0.706732 0
M  V30 1157 H 107 -0.474899 -1.89644 0
M  V30 1158 H 105.704 -0.325392 -4.09108 0
M  V30 1159 H 105.235 1.3365 -3.70002 0
M  V30 1160 H 107.25 2.43372 -4.32417 0
M  V30 1161 N 106.423 1.57458 -0.0668435 0
M  V30 1162 C 107.672 1.92477 0.602947 0
M  V30 1163 C 107.985 0.948419 1.71068 0
M  V30 1164 O 109.191 1.19124 2.43971 0
M  V30 1165 C 107.647 3.41903 1.12383 0
M  V30 1166 C 107.255 4.47975 0.04737 0
M  V30 1167 C 108.999 3.85931 1.76797 0
M  V30 1168 C 106.906 5.88529 0.582022 0
M  V30 1169 H 105.836 0.718387 0.22899 0
M  V30 1170 H 108.487 1.82978 -0.138276 0
M  V30 1171 H 106.869 3.46459 1.91787 0
M  V30 1172 H 108.043 4.55029 -0.726978 0
M  V30 1173 H 106.358 4.13384 -0.500243 0
M  V30 1174 H 108.955 4.88322 2.17821 0
M  V30 1175 H 109.298 3.23029 2.62599 0
M  V30 1176 H 109.831 3.83958 1.04024 0
M  V30 1177 H 106.57 6.55065 -0.238721 0
M  V30 1178 H 106.09 5.85004 1.324 0
M  V30 1179 H 107.769 6.38258 1.05999 0
M  V30 1180 N 107.901 -0.206675 1.56239 0
M  V30 1181 C 109.15 -0.926964 1.79138 0
M  V30 1182 C 109.463 -1.84901 0.638043 0
M  V30 1183 O 110.669 -2.60906 0.751033 0
M  V30 1184 C 109.125 -1.6986 3.17294 0
M  V30 1185 C 108.733 -0.821956 4.40395 0
M  V30 1186 C 110.477 -2.40922 3.4951 0
M  V30 1187 C 108.384 -1.59179 5.69575 0
M  V30 1188 H 107.314 -0.349864 0.667915 0
M  V30 1189 H 109.965 -0.180487 1.8261 0
M  V30 1190 H 108.347 -2.48853 3.08039 0
M  V30 1191 H 109.521 -0.0715019 4.60745 0
M  V30 1192 H 107.836 -0.222741 4.15804 0
M  V30 1193 H 110.433 -2.99047 4.43255 0
M  V30 1194 H 110.776 -3.14542 2.72707 0
M  V30 1195 H 111.309 -1.68905 3.60161 0
M  V30 1196 H 108.048 -0.898589 6.49312 0
M  V30 1197 H 107.568 -2.31648 5.53262 0
M  V30 1198 H 109.247 -2.14862 6.10281 0
M  V30 1199 N 109.379 -1.50304 -0.473955 0
M  V30 1200 C 110.309 -1.71886 -1.58042 0
M  V30 1201 C 111.29 -0.567799 -1.60344 0
M  V30 1202 O 112.475 -0.806623 -1.76656 0
M  V30 1203 C 109.605 -1.81036 -2.96384 0
M  V30 1204 C 108.559 -2.962 -3.08949 0
M  V30 1205 C 107.885 -2.9049 -4.48909 0
M  V30 1206 C 109.185 -4.36752 -2.86434 0
M  V30 1207 H 110.879 -2.64527 -1.40234 0
M  V30 1208 H 108.425 -1.27295 -0.673201 0
M  V30 1209 H 110.378 -1.94719 -3.73714 0
M  V30 1210 H 109.102 -0.850147 -3.15341 0
M  V30 1211 H 107.761 -2.82164 -2.3405 0
M  V30 1212 H 107.409 -1.92321 -4.64781 0
M  V30 1213 H 107.109 -3.67802 -4.58253 0
M  V30 1214 H 108.633 -3.06218 -5.28264 0
M  V30 1215 H 110.047 -4.5133 -3.53517 0
M  V30 1216 H 108.444 -5.15493 -3.07225 0
M  V30 1217 H 109.514 -4.49321 -1.82316 0
M  V30 1218 N 110.857 0.726932 -1.39834 0
M  V30 1219 C 111.805 1.86235 -1.39353 0
M  V30 1220 C 112.799 1.67144 -0.275555 0
M  V30 1221 O 114.005 1.74387 -0.44601 0
M  V30 1222 H 110.38 0.613174 -0.43534 0
M  V30 1223 H 112.351 1.83756 -2.35109 0
M  V30 1224 C 111.1 3.23995 -1.26185 0
M  V30 1225 H 110.423 3.39285 -2.11484 0
M  V30 1226 H 111.863 4.03609 -1.29907 0
M  V30 1227 C 110.322 3.36888 0.0290018 0
M  V30 1228 O 110.852 3.89152 0.99619 0
M  V30 1229 N 109.058 2.90446 0.0947437 0
M  V30 1230 H 108.605 2.48102 -0.693035 0
M  V30 1231 H 108.563 2.99451 0.957932 0
M  V30 1232 N 112.336 1.25143 0.95797 0
M  V30 1233 C 113.613 1.00472 1.67823 0
M  V30 1234 C 113.993 -0.470056 2.058 0
M  V30 1235 O 113.341 -1.44663 1.76875 0
M  V30 1236 C 113.551 1.9372 2.90299 0
M  V30 1237 C 114.899 2.21371 3.62326 0
M  V30 1238 O 115.923 1.91451 3.00375 0
M  V30 1239 O 114.782 2.72231 4.7387 0
M  V30 1240 H 111.876 0.380752 0.734137 0
M  V30 1241 H 114.422 1.36283 1.01119 0
M  V30 1242 H 113.194 2.93316 2.59001 0
M  V30 1243 H 112.817 1.58286 3.64735 0
M  V30 1244 N 113.814 -1.1601 1.06675 0
M  V30 1245 C 114.762 -2.22586 0.675157 0
M  V30 1246 C 115.756 -1.66525 -0.310766 0
M  V30 1247 O 116.962 -1.79145 -0.175215 0
M  V30 1248 H 113.337 -0.724855 0.200223 0
M  V30 1249 H 115.308 -2.52899 1.58381 0
M  V30 1250 C 114.057 -3.47604 0.0817162 0
M  V30 1251 H 113.38 -3.91058 0.831484 0
M  V30 1252 H 114.82 -4.23718 -0.154708 0
M  V30 1253 C 113.279 -3.15718 -1.17576 0
M  V30 1254 O 113.809 -3.31878 -2.26318 0
M  V30 1255 N 112.015 -2.69816 -1.07923 0
M  V30 1256 H 111.562 -2.56866 -0.194293 0
M  V30 1257 H 111.52 -2.48855 -1.92141 0
M  V30 1258 N 115.292 -0.849877 -1.32721 0
M  V30 1259 C 116.569 -0.372405 -1.92022 0
M  V30 1260 C 116.949 1.1435 -1.77447 0
M  V30 1261 O 116.297 1.96296 -1.16962 0
M  V30 1262 C 116.507 -0.831482 -3.3895 0
M  V30 1263 C 117.855 -0.845882 -4.16089 0
M  V30 1264 O 118.879 -0.775806 -3.47649 0
M  V30 1265 O 117.738 -0.943753 -5.38289 0
M  V30 1266 H 114.832 -0.107667 -0.819961 0
M  V30 1267 H 117.378 -0.93646 -1.41522 0
M  V30 1268 H 116.15 -1.87448 -3.4348 0
M  V30 1269 H 115.773 -0.24461 -3.96847 0
M  V30 1270 N 116.77 1.45427 -0.607355 0
M  V30 1271 C 117.7 2.3329 0.0989352 0
M  V30 1272 C 118.681 1.46816 0.859007 0
M  V30 1273 O 119.866 1.75588 0.829604 0
M  V30 1274 C 116.996 3.29518 1.09705 0
M  V30 1275 C 115.95 4.25626 0.450206 0
M  V30 1276 C 115.276 5.11542 1.55655 0
M  V30 1277 C 116.576 5.18505 -0.628455 0
M  V30 1278 H 118.27 2.92595 -0.634716 0
M  V30 1279 H 115.816 1.40696 -0.306681 0
M  V30 1280 H 117.769 3.89855 1.59971 0
M  V30 1281 H 116.493 2.68372 1.86129 0
M  V30 1282 H 115.152 3.66586 -0.0315886 0
M  V30 1283 H 114.8 4.46765 2.31107 0
M  V30 1284 H 114.5 5.76647 1.12925 0
M  V30 1285 H 116.024 5.74748 2.06148 0
M  V30 1286 H 117.438 5.72916 -0.209877 0
M  V30 1287 H 115.835 5.92085 -0.977489 0
M  V30 1288 H 116.905 4.60948 -1.50514 0
M  V30 1289 N 118.248 0.346503 1.53744 0
M  V30 1290 C 119.525 -0.304532 1.93215 0
M  V30 1291 C 119.905 -1.67993 1.27834 0
M  V30 1292 O 119.253 -2.24411 0.430352 0
M  V30 1293 C 119.463 -0.373852 3.46992 0
M  V30 1294 C 120.811 -0.62329 4.2 0
M  V30 1295 O 121.835 -0.455847 3.53271 0
M  V30 1296 O 120.694 -0.947879 5.38217 0
M  V30 1297 H 117.788 -0.178318 0.807547 0
M  V30 1298 H 120.334 0.397895 1.64969 0
M  V30 1299 H 119.106 0.591224 3.86808 0
M  V30 1300 H 118.729 -1.12294 3.81413 0
M  V30 1301 N 119.726 -1.57421 0.075193 0
M  V30 1302 C 120.636 -2.1642 -0.905511 0
M  V30 1303 C 121.652 -1.12828 -1.32461 0
M  V30 1304 O 122.828 -1.45109 -1.39661 0
M  V30 1305 C 119.893 -2.71693 -2.15369 0
M  V30 1306 C 118.954 -3.90171 -1.79068 0
M  V30 1307 C 118.187 -4.42798 -2.97936 0
M  V30 1308 O 118.41 -3.94416 -4.12058 0
M  V30 1309 O 117.344 -5.34085 -2.77555 0
M  V30 1310 H 121.17 -3.00588 -0.433626 0
M  V30 1311 H 118.755 -1.48664 -0.148067 0
M  V30 1312 H 120.637 -3.07104 -2.88557 0
M  V30 1313 H 119.312 -1.90582 -2.61649 0
M  V30 1314 H 118.219 -3.59606 -1.03122 0
M  V30 1315 H 119.552 -4.72584 -1.37569 0
M  V30 1316 N 121.204 0.198386 -1.56346 0
M  V30 1317 C 122.452 0.91747 -1.80075 0
M  V30 1318 C 122.773 1.83929 -0.647692 0
M  V30 1319 O 122.043 1.93029 0.334166 0
M  V30 1320 H 120.623 0.341774 -0.664228 0
M  V30 1321 H 123.285 0.204684 -1.93822 0
M  V30 1322 H 122.381 1.51055 -2.7311 0
M  V30 1323 N 122.682 1.50554 0.465978 0
M  V30 1324 C 123.629 1.6979 1.56333 0
M  V30 1325 C 124.599 0.539239 1.57103 0
M  V30 1326 O 125.784 0.770401 1.74555 0
M  V30 1327 C 122.924 1.80273 2.94271 0
M  V30 1328 C 122.037 3.07674 3.0325 0
M  V30 1329 C 121.172 3.08922 4.32135 0
M  V30 1330 C 120.211 4.30755 4.34875 0
M  V30 1331 N 119.348 4.29714 5.55239 0
M  V30 1332 H 124.188 2.63472 1.39235 0
M  V30 1333 H 121.725 1.30602 0.676873 0
M  V30 1334 H 123.683 1.84332 3.74269 0
M  V30 1335 H 122.313 0.900258 3.09992 0
M  V30 1336 H 121.365 3.13062 2.16094 0
M  V30 1337 H 122.677 3.97642 3.01135 0
M  V30 1338 H 121.831 3.11738 5.20485 0
M  V30 1339 H 120.57 2.16792 4.36866 0
M  V30 1340 H 119.575 4.28146 3.44922 0
M  V30 1341 H 120.8 5.24117 4.31831 0
M  V30 1342 H 118.746 3.4044 5.60746 0
M  V30 1343 H 118.663 5.13456 5.54886 0
M  V30 1344 H 119.931 4.36683 6.457 0
M  V30 1345 N 124.16 -0.719506 1.40217 0
M  V30 1346 C 125.409 -1.47486 1.37589 0
M  V30 1347 C 125.722 -1.9559 -0.0201568 0
M  V30 1348 O 126.928 -2.70973 -0.169049 0
M  V30 1349 C 125.384 -2.66575 2.41796 0
M  V30 1350 C 124.992 -2.25358 3.87192 0
M  V30 1351 C 126.736 -3.4433 2.48269 0
M  V30 1352 C 124.643 -3.41262 4.83005 0
M  V30 1353 H 123.573 -0.553901 0.511576 0
M  V30 1354 H 126.224 -0.783427 1.65936 0
M  V30 1355 H 124.606 -3.3787 2.06543 0
M  V30 1356 H 125.78 -1.61509 4.31569 0
M  V30 1357 H 124.095 -1.60657 3.84159 0
M  V30 1358 H 126.692 -4.30569 3.17041 0
M  V30 1359 H 127.035 -3.87872 1.51198 0
M  V30 1360 H 127.568 -2.80076 2.82493 0
M  V30 1361 H 124.307 -3.02755 5.81394 0
M  V30 1362 H 123.827 -4.0404 4.43297 0
M  V30 1363 H 125.506 -4.07383 5.02641 0
M  V30 1364 N 125.638 -1.25649 -0.95132 0
M  V30 1365 C 127.054 -1.02542 -1.223 0
M  V30 1366 C 127.254 0.255715 -1.99871 0
M  V30 1367 O 126.31 0.967558 -2.33226 0
M  V30 1368 C 127.623 -2.25065 -1.99415 0
M  V30 1369 C 129.171 -2.29861 -2.12446 0
M  V30 1370 C 129.646 -3.52048 -2.92961 0
M  V30 1371 N 131.137 -3.52465 -3.00538 0
M  V30 1372 C 131.872 -4.43672 -3.63239 0
M  V30 1373 N 131.368 -5.45157 -4.27523 0
M  V30 1374 N 133.161 -4.31346 -3.60412 0
M  V30 1375 H 125.312 -2.07951 -0.432471 0
M  V30 1376 H 127.575 -0.91339 -0.253816 0
M  V30 1377 H 127.281 -3.18194 -1.49817 0
M  V30 1378 H 127.155 -2.28502 -3.00111 0
M  V30 1379 H 129.542 -1.37252 -2.61239 0
M  V30 1380 H 129.623 -2.3044 -1.11044 0
M  V30 1381 H 129.267 -4.44981 -2.44856 0
M  V30 1382 H 129.197 -3.48715 -3.94596 0
M  V30 1383 H 131.688 -2.79056 -2.54826 0
M  V30 1384 H 132.001 -6.10958 -4.73234 0
M  V30 1385 H 130.346 -5.49025 -4.26141 0
M  V30 1386 H 133.537 -3.51288 -3.09377 0
M  V30 1387 H 133.71 -5.02624 -4.0899 0
M  V30 1388 N 127.117 1.15442 -1.07289 0
M  V30 1389 C 128.366 1.85557 -0.790669 0
M  V30 1390 C 128.679 1.83186 0.685739 0
M  V30 1391 O 129.885 2.48977 1.0827 0
M  V30 1392 C 128.341 3.33038 -1.36433 0
M  V30 1393 C 127.949 3.43856 -2.8717 0
M  V30 1394 C 129.693 4.0834 -1.1601 0
M  V30 1395 C 127.6 4.85482 -3.3773 0
M  V30 1396 H 126.53 0.695122 -0.292098 0
M  V30 1397 H 129.181 1.30219 -1.29287 0
M  V30 1398 H 127.563 3.88043 -0.789864 0
M  V30 1399 H 128.737 2.98961 -3.50655 0
M  V30 1400 H 127.052 2.81998 -3.06376 0
M  V30 1401 H 129.649 5.12859 -1.51262 0
M  V30 1402 H 129.992 4.16182 -0.0991007 0
M  V30 1403 H 130.525 3.59603 -1.70089 0
M  V30 1404 H 127.264 4.82823 -4.43353 0
M  V30 1405 H 126.784 5.30961 -2.78999 0
M  V30 1406 H 128.463 5.54335 -3.33648 0
M  V30 1407 N 128.595 0.856903 1.32268 0
M  V30 1408 C 129.543 0.291987 2.3076 0
M  V30 1409 C 130.537 -0.585857 1.58947 0
M  V30 1410 O 131.743 -0.47341 1.73663 0
M  V30 1411 H 128.118 0.075721 0.748178 0
M  V30 1412 H 130.089 1.13687 2.75895 0
M  V30 1413 C 128.838 -0.502869 3.44044 0
M  V30 1414 H 128.161 0.163328 3.99466 0
M  V30 1415 H 129.601 -0.863691 4.1511 0
M  V30 1416 C 128.06 -1.68898 2.91505 0
M  V30 1417 O 128.59 -2.78811 2.89184 0
M  V30 1418 N 126.796 -1.51679 2.47875 0
M  V30 1419 H 126.343 -0.622666 2.49961 0
M  V30 1420 H 126.301 -2.31184 2.13076 0
M  V30 1421 N 130.073 -1.45103 0.615059 0
M  V30 1422 C 131.02 -2.30586 -0.0993978 0
M  V30 1423 C 131.99 -1.42544 -0.852669 0
M  V30 1424 O 133.175 -1.71465 -0.836917 0
M  V30 1425 C 130.315 -3.27572 -1.08583 0
M  V30 1426 C 129.428 -4.30717 -0.332656 0
M  V30 1427 C 128.563 -5.14807 -1.30947 0
M  V30 1428 C 127.602 -6.09673 -0.544538 0
M  V30 1429 N 126.739 -6.86517 -1.47101 0
M  V30 1430 H 131.579 -2.91144 0.635542 0
M  V30 1431 H 129.116 -1.4346 0.325206 0
M  V30 1432 H 131.074 -3.82276 -1.67095 0
M  V30 1433 H 129.704 -2.68751 -1.78809 0
M  V30 1434 H 128.756 -3.78615 0.368107 0
M  V30 1435 H 130.068 -4.98102 0.263842 0
M  V30 1436 H 129.222 -5.73948 -1.96643 0
M  V30 1437 H 127.961 -4.47458 -1.9399 0
M  V30 1438 H 126.966 -5.49656 0.126003 0
M  V30 1439 H 128.191 -6.79052 0.080947 0
M  V30 1440 H 126.137 -6.21851 -2.08895 0
M  V30 1441 H 126.054 -7.50281 -0.928137 0
M  V30 1442 H 127.322 -7.50194 -2.11731 0
M  V30 1443 N 131.551 -0.354651 -1.53558 0
M  V30 1444 C 132.797 0.238797 -2.01389 0
M  V30 1445 C 133.13 1.49309 -1.2418 0
M  V30 1446 O 132.405 1.91638 -0.332457 0
M  V30 1447 C 132.688 0.541771 -3.56001 0
M  V30 1448 C 132.541 -0.725388 -4.43912 0
M  V30 1449 C 133.86 1.34685 -4.18984 0
M  V30 1450 H 130.979 0.0853177 -0.732045 0
M  V30 1451 H 133.621 -0.477384 -1.83905 0
M  V30 1452 H 131.771 1.15189 -3.71031 0
M  V30 1453 H 133.443 -1.36313 -4.407 0
M  V30 1454 H 131.686 -1.34801 -4.12324 0
M  V30 1455 H 132.357 -0.468505 -5.50008 0
M  V30 1456 H 134.833 0.830837 -4.07721 0
M  V30 1457 H 133.709 1.52759 -5.27215 0
M  V30 1458 H 133.97 2.35221 -3.74331 0
M  V30 1459 N 133.029 1.57378 -0.0835403 0
M  V30 1460 C 133.992 2.12252 0.864959 0
M  V30 1461 C 134.992 1.04916 1.21858 0
M  V30 1462 O 136.182 1.30853 1.14991 0
M  V30 1463 C 133.314 2.63358 2.16461 0
M  V30 1464 H 134.507 2.97371 0.388676 0
M  V30 1465 H 132.06 1.55423 0.165317 0
M  V30 1466 H 132.795 1.81727 2.686 0
M  V30 1467 H 132.58 3.41826 1.92087 0
M  V30 1468 H 134.07 3.05847 2.84337 0
M  V30 1469 N 134.507 -0.190092 1.56449 0
M  V30 1470 C 135.923 -0.54113 1.50146 0
M  V30 1471 C 136.123 -1.85603 0.784465 0
M  V30 1472 O 135.179 -2.5024 0.337051 0
M  V30 1473 C 136.492 -0.591241 2.9483 0
M  V30 1474 C 138.04 -0.679732 3.0553 0
M  V30 1475 C 138.515 -0.760908 4.51635 0
M  V30 1476 N 140.006 -0.824302 4.55806 0
M  V30 1477 C 140.741 -0.907365 5.66175 0
M  V30 1478 N 140.237 -0.952422 6.86222 0
M  V30 1479 N 142.03 -0.94494 5.541 0
M  V30 1480 H 134.181 0.67235 2.01478 0
M  V30 1481 H 136.444 0.240127 0.917084 0
M  V30 1482 H 136.15 0.305905 3.50367 0
M  V30 1483 H 136.024 -1.44422 3.48457 0
M  V30 1484 H 138.411 -1.56731 2.50039 0
M  V30 1485 H 138.492 0.199549 2.5502 0
M  V30 1486 H 138.136 0.122336 5.07753 0
M  V30 1487 H 138.066 -1.65606 4.99882 0
M  V30 1488 H 140.557 -0.798526 3.69367 0
M  V30 1489 H 140.87 -1.01645 7.66086 0
M  V30 1490 H 139.215 -0.921014 6.8887 0
M  V30 1491 H 142.406 -0.906612 4.59236 0
M  V30 1492 H 142.579 -1.00622 6.4014 0
M  V30 1493 N 135.985 -1.50799 -0.457987 0
M  V30 1494 C 136.932 -1.70617 -1.5543 0
M  V30 1495 C 137.902 -0.547562 -1.56815 0
M  V30 1496 O 139.087 -0.779647 -1.74144 0
M  V30 1497 C 136.227 -1.81831 -2.93311 0
M  V30 1498 C 135.34 -3.09278 -3.01615 0
M  V30 1499 C 134.475 -3.11209 -4.30491 0
M  V30 1500 C 133.514 -4.33055 -4.32585 0
M  V30 1501 N 132.651 -4.32652 -5.52952 0
M  V30 1502 H 137.491 -2.64207 -1.37836 0
M  V30 1503 H 135.028 -1.30959 -0.669937 0
M  V30 1504 H 136.986 -1.86314 -3.73287 0
M  V30 1505 H 135.616 -0.916685 -3.0951 0
M  V30 1506 H 134.668 -3.14203 -2.1443 0
M  V30 1507 H 135.98 -3.99233 -2.99022 0
M  V30 1508 H 135.134 -3.14494 -5.18824 0
M  V30 1509 H 133.873 -2.19106 -4.35711 0
M  V30 1510 H 132.878 -4.29969 -3.42647 0
M  V30 1511 H 134.103 -5.264 -4.29046 0
M  V30 1512 H 132.049 -3.43409 -5.58933 0
M  V30 1513 H 131.966 -5.16392 -5.52155 0
M  V30 1514 H 133.234 -4.40101 -6.43375 0
M  V30 1515 N 137.463 0.71206 -1.40597 0
M  V30 1516 C 138.411 1.84746 -1.41321 0
M  V30 1517 C 139.405 1.66842 -0.293268 0
M  V30 1518 O 140.611 1.73904 -0.464481 0
M  V30 1519 H 136.986 0.608522 -0.441819 0
M  V30 1520 H 138.957 1.81252 -2.37045 0
M  V30 1521 C 137.706 3.22638 -1.29614 0
M  V30 1522 H 137.029 3.37023 -2.15071 0
M  V30 1523 H 138.469 4.02209 -1.3418 0
M  V30 1524 C 136.928 3.36899 -0.00673121 0
M  V30 1525 O 137.458 3.90186 0.954859 0
M  V30 1526 N 135.664 2.9053 0.0639327 0
M  V30 1527 H 135.211 2.47353 -0.719311 0
M  V30 1528 H 135.169 3.0045 0.926118 0
M  V30 1529 N 138.941 1.26152 0.944643 0
M  V30 1530 C 139.871 1.09902 2.06019 0
M  V30 1531 C 140.852 0.00519538 1.70099 0
M  V30 1532 O 142.037 0.176583 1.93396 0
M  V30 1533 C 139.167 0.727562 3.39594 0
M  V30 1534 C 138.121 1.77274 3.89561 0
M  V30 1535 C 137.447 1.25569 5.19747 0
M  V30 1536 C 138.747 3.17357 4.14827 0
M  V30 1537 H 140.441 2.03217 2.19871 0
M  V30 1538 H 137.987 0.978452 1.05652 0
M  V30 1539 H 139.94 0.600777 4.17095 0
M  V30 1540 H 138.664 -0.241287 3.25707 0
M  V30 1541 H 137.323 1.88814 3.14237 0
M  V30 1542 H 136.971 0.276783 5.02238 0
M  V30 1543 H 136.671 1.95433 5.54148 0
M  V30 1544 H 138.195 1.1415 5.99835 0
M  V30 1545 H 139.609 3.08914 4.82954 0
M  V30 1546 H 138.006 3.84781 4.60504 0
M  V30 1547 H 139.076 3.63673 3.20734 0
M  V30 1548 N 140.419 -1.14872 1.07899 0
M  V30 1549 C 141.835 -1.37776 0.805606 0
M  V30 1550 C 142.035 -1.92743 -0.587555 0
M  V30 1551 O 141.091 -2.13678 -1.34528 0
M  V30 1552 C 142.404 -2.34361 1.88402 0
M  V30 1553 C 143.952 -2.48012 1.90942 0
M  V30 1554 C 144.427 -3.47893 2.97883 0
M  V30 1555 N 145.918 -3.55433 2.97021 0
M  V30 1556 C 146.653 -4.32553 3.76412 0
M  V30 1557 N 146.149 -5.12959 4.65666 0
M  V30 1558 N 147.942 -4.27697 3.64735 0
M  V30 1559 H 140.093 -0.775365 1.97742 0
M  V30 1560 H 142.356 -0.403521 0.857831 0
M  V30 1561 H 142.062 -2.01098 2.88535 0
M  V30 1562 H 141.936 -3.34206 1.74889 0
M  V30 1563 H 144.323 -2.8057 0.914579 0
M  V30 1564 H 144.404 -1.48147 2.08534 0
M  V30 1565 H 144.048 -3.16069 3.97571 0
M  V30 1566 H 143.978 -4.47527 2.77538 0
M  V30 1567 H 146.469 -2.98048 2.32326 0
M  V30 1568 H 146.782 -5.69065 5.22862 0
M  V30 1569 H 145.127 -5.12245 4.69712 0
M  V30 1570 H 148.318 -3.63949 2.94378 0
M  V30 1571 H 148.491 -4.8755 4.26848 0
M  V30 1572 N 141.898 -0.863906 -1.31812 0
M  V30 1573 C 143.144 -0.472535 -1.97218 0
M  V30 1574 C 143.477 0.971394 -1.68159 0
M  V30 1575 O 142.752 1.68309 -0.974798 0
M  V30 1576 C 143.035 -0.723054 -3.52766 0
M  V30 1577 C 142.888 -2.21608 -3.91421 0
M  V30 1578 C 144.207 -0.185522 -4.39709 0
M  V30 1579 H 141.326 -0.173158 -0.71637 0
M  V30 1580 H 143.968 -1.08403 -1.56041 0
M  V30 1581 H 142.118 -0.202577 -3.87971 0
M  V30 1582 H 143.79 -2.80334 -3.66347 0
M  V30 1583 H 142.033 -2.691 -3.40246 0
M  V30 1584 H 142.704 -2.34203 -4.99853 0
M  V30 1585 H 145.18 -0.630726 -4.11292 0
M  V30 1586 H 144.056 -0.390306 -5.47511 0
M  V30 1587 H 144.317 0.912229 -4.32586 0
M  V30 1588 N 143.376 1.44774 -0.622745 0
M  V30 1589 C 144.616 2.04004 -0.127102 0
M  V30 1590 C 144.98 1.47862 1.22478 0
M  V30 1591 O 146.181 1.98541 1.81204 0
M  V30 1592 C 144.452 3.57247 -0.104429 0
M  V30 1593 S 146.011 4.37574 0.327814 0
M  V30 1594 H 142.829 0.708713 -0.0569776 0
M  V30 1595 H 145.431 1.77275 -0.824253 0
M  V30 1596 H 144.135 3.95616 -1.09159 0
M  V30 1597 H 143.666 3.88575 0.614236 0
M  V30 1598 H 145.681 4.70575 1.57395 0
M  V30 1599 N 144.854 0.36279 1.53368 0
M  V30 1600 C 145.784 -0.476976 2.28576 0
M  V30 1601 C 146.765 -1.08631 1.30894 0
M  V30 1602 O 147.95 -1.10409 1.59761 0
M  V30 1603 C 145.08 -1.61828 3.07293 0
M  V30 1604 C 144.034 -1.13633 4.1264 0
M  V30 1605 C 143.36 -2.36766 4.79423 0
M  V30 1606 C 144.66 -0.223061 5.21823 0
M  V30 1607 H 146.354 0.150474 2.99022 0
M  V30 1608 H 143.9 0.0738103 1.43811 0
M  V30 1609 H 145.853 -2.21237 3.58653 0
M  V30 1610 H 144.577 -2.27292 2.34533 0
M  V30 1611 H 143.236 -0.564945 3.62221 0
M  V30 1612 H 142.884 -3.0068 4.03238 0
M  V30 1613 H 142.584 -2.05192 5.50609 0
M  V30 1614 H 144.108 -2.96865 5.33576 0
M  V30 1615 H 145.522 -0.724545 5.68703 0
M  V30 1616 H 143.919 0.001678 6.001 0
M  V30 1617 H 144.989 0.735553 4.79289 0
M  V30 1618 N 146.332 -1.57332 0.0918853 0
M  V30 1619 C 147.58 -1.93853 -0.571446 0
M  V30 1620 C 147.901 -0.974212 -1.6892 0
M  V30 1621 O 147.171 -0.0257254 -1.95883 0
M  V30 1622 H 145.751 -0.715666 -0.214082 0
M  V30 1623 H 148.413 -1.94287 0.154464 0
M  V30 1624 H 147.509 -2.96191 -0.983729 0
M  V30 1625 N 147.81 0.181792 -1.56548 0
M  V30 1626 C 149.087 0.926765 -1.72251 0
M  V30 1627 C 149.467 2.00831 -0.650386 0
M  V30 1628 O 148.815 2.26008 0.336521 0
M  V30 1629 C 149.025 1.50106 -3.1507 0
M  V30 1630 C 150.373 1.97805 -3.75711 0
M  V30 1631 O 151.397 1.59922 -3.18282 0
M  V30 1632 O 150.256 2.67555 -4.76525 0
M  V30 1633 H 147.35 0.435506 -0.703039 0
M  V30 1634 H 149.896 0.170443 -1.68842 0
M  V30 1635 H 148.668 0.72212 -3.84579 0
M  V30 1636 H 148.291 2.32186 -3.22763 0
M  V30 1637 N 149.288 1.51039 0.449983 0
M  V30 1638 C 150.534 1.63322 1.20223 0
M  V30 1639 C 150.867 0.34241 1.91158 0
M  V30 1640 O 150.142 -0.657344 1.83055 0
M  V30 1641 C 150.425 2.82801 2.22925 0
M  V30 1642 C 150.278 4.21823 1.56157 0
M  V30 1643 C 151.597 2.97807 3.24035 0
M  V30 1644 H 148.716 0.594407 0.435718 0
M  V30 1645 H 151.358 1.83489 0.493136 0
M  V30 1646 H 149.508 2.65738 2.834 0
M  V30 1647 H 151.18 4.50526 0.991162 0
M  V30 1648 H 149.423 4.25105 0.864172 0
M  V30 1649 H 150.094 5.01391 2.30891 0
M  V30 1650 H 152.57 3.13497 2.73603 0
M  V30 1651 H 151.446 3.82992 3.93202 0
M  V30 1652 H 151.707 2.09328 3.89402 0
M  V30 1653 N 150.766 -0.704594 1.40972 0
M  V30 1654 C 152.012 -1.46675 1.40051 0
M  V30 1655 C 152.345 -1.94199 0.00641102 0
M  V30 1656 O 151.62 -1.68916 -0.964235 0
M  V30 1657 C 151.903 -2.68505 2.39952 0
M  V30 1658 C 151.756 -2.26805 3.88432 0
M  V30 1659 C 153.075 -3.70686 2.37233 0
M  V30 1660 H 150.194 -0.532015 0.510028 0
M  V30 1661 H 152.836 -0.803255 1.72185 0
M  V30 1662 H 150.986 -3.25114 2.1268 0
M  V30 1663 H 152.658 -1.75592 4.26574 0
M  V30 1664 H 150.901 -1.58685 4.03734 0
M  V30 1665 H 151.572 -3.14181 4.53866 0
M  V30 1666 H 154.048 -3.23731 2.61415 0
M  V30 1667 H 152.924 -4.53553 3.09162 0
M  V30 1668 H 153.185 -4.19754 1.38777 0
M  V30 1669 N 152.244 -1.26651 -0.937939 0
M  V30 1670 C 153.474 -1.15006 -1.71631 0
M  V30 1671 C 153.882 0.297026 -1.86854 0
M  V30 1672 O 153.225 1.21493 -1.37786 0
M  V30 1673 C 153.287 -1.74984 -3.14039 0
M  V30 1674 C 152.951 -3.24103 -3.2219 0
M  V30 1675 C 153.948 -4.20877 -3.05219 0
M  V30 1676 C 151.633 -3.64625 -3.45476 0
M  V30 1677 C 153.627 -5.56151 -3.11408 0
M  V30 1678 C 151.314 -5.00032 -3.513 0
M  V30 1679 C 152.312 -5.95604 -3.34282 0
M  V30 1680 O 152 -7.28545 -3.3982 0
M  V30 1681 H 151.732 -0.401183 -0.544085 0
M  V30 1682 H 154.286 -1.67832 -1.18413 0
M  V30 1683 H 152.516 -1.16624 -3.68695 0
M  V30 1684 H 154.205 -1.58199 -3.73802 0
M  V30 1685 H 154.971 -3.90908 -2.87081 0
M  V30 1686 H 150.85 -2.90718 -3.57777 0
M  V30 1687 H 154.394 -6.30727 -2.98043 0
M  V30 1688 H 150.291 -5.29659 -3.68959 0
M  V30 1689 H 151.059 -7.3686 -3.56343 0
M  V30 1690 N 153.722 1.14298 -1.08507 0
M  V30 1691 C 154.968 1.85633 -0.816581 0
M  V30 1692 C 155.301 1.82784 0.656021 0
M  V30 1693 O 154.576 1.25926 1.48233 0
M  V30 1694 C 154.859 3.34223 -1.34041 0
M  V30 1695 C 154.712 3.45639 -2.87843 0
M  V30 1696 C 156.031 4.29356 -0.9665 0
M  V30 1697 H 153.15 0.67402 -0.298104 0
M  V30 1698 H 155.792 1.34214 -1.34487 0
M  V30 1699 H 153.942 3.78144 -0.89104 0
M  V30 1700 H 155.614 3.10498 -3.41158 0
M  V30 1701 H 153.857 2.86817 -3.25451 0
M  V30 1702 H 154.528 4.50089 -3.19569 0
M  V30 1703 H 157.004 3.93457 -1.35391 0
M  V30 1704 H 155.88 5.3178 -1.3602 0
M  V30 1705 H 156.141 4.41919 0.126362 0
M  V30 1706 N 155.201 0.870884 1.31352 0
M  V30 1707 C 156.148 0.325425 2.28494 0
M  V30 1708 C 157.118 -0.576615 1.5577 0
M  V30 1709 O 158.303 -0.508059 1.83911 0
M  V30 1710 C 155.443 -0.466283 3.41935 0
M  V30 1711 C 154.556 0.463378 4.29508 0
M  V30 1712 C 153.691 -0.342544 5.30094 0
M  V30 1713 C 152.73 0.583486 6.09313 0
M  V30 1714 N 151.867 -0.186244 7.01853 0
M  V30 1715 H 156.707 1.15901 2.74538 0
M  V30 1716 H 154.244 0.58294 1.35056 0
M  V30 1717 H 156.202 -0.941085 4.06447 0
M  V30 1718 H 154.832 -1.26456 2.97 0
M  V30 1719 H 153.884 1.05663 3.65431 0
M  V30 1720 H 155.196 1.1734 4.84802 0
M  V30 1721 H 154.35 -0.879816 6.00287 0
M  V30 1722 H 153.089 -1.08585 4.75458 0
M  V30 1723 H 152.094 1.13251 5.3801 0
M  V30 1724 H 153.319 1.32566 6.66035 0
M  V30 1725 H 151.265 -0.912348 6.49625 0
M  V30 1726 H 151.182 0.464422 7.54572 0
M  V30 1727 H 152.45 -0.704716 7.76308 0
M  V30 1728 N 156.679 -1.44442 0.630414 0
M  V30 1729 C 157.904 -2.06927 0.139944 0
M  V30 1730 C 158.329 -1.46795 -1.17613 0
M  V30 1731 O 157.687 -0.569144 -1.72135 0
M  V30 1732 C 157.735 -3.6058 0.0379581 0
M  V30 1733 O 156.839 -3.99937 -1.0062 0
M  V30 1734 H 156.18 -0.658608 0.0844483 0
M  V30 1735 H 158.71 -1.85327 0.866891 0
M  V30 1736 H 158.72 -4.07714 -0.152856 0
M  V30 1737 H 157.395 -4.03728 0.998809 0
M  V30 1738 H 155.972 -3.64436 -0.79001 0
M  V30 1739 N 158.157 -0.370918 -1.53173 0
M  V30 1740 C 159.397 0.217106 -2.03244 0
M  V30 1741 C 159.761 1.45558 -1.25207 0
M  V30 1742 O 160.962 2.11957 -1.65311 0
M  V30 1743 C 159.233 0.496664 -3.53932 0
M  V30 1744 S 160.792 1.0576 -4.25864 0
M  V30 1745 H 157.61 0.0627827 -0.708223 0
M  V30 1746 H 160.212 -0.515019 -1.88594 0
M  V30 1747 H 158.916 -0.412096 -4.08326 0
M  V30 1748 H 158.447 1.25772 -3.72753 0
M  V30 1749 H 160.462 2.34145 -4.37482 0
M  V30 1750 N 159.635 1.57281 -0.100228 0
M  V30 1751 C 161.046 1.81725 0.428107 0
M  V30 1752 C 161.397 1.01619 1.67833 0
M  V30 1753 O 160.522 0.247098 2.14985 0
M  V30 1754 C 161.117 3.29617 0.78347 0
M  V30 1755 C 159.676 3.54808 1.25653 0
M  V30 1756 C 158.823 2.76118 0.255752 0
M  V30 1757 H 161.774 1.55324 -0.325608 0
M  V30 1758 H 161.795 3.4322 1.64256 0
M  V30 1759 H 161.307 3.87893 -0.12665 0
M  V30 1760 H 159.408 3.01868 2.18418 0
M  V30 1761 H 159.521 4.63443 1.21482 0
M  V30 1762 H 157.885 2.43745 0.738956 0
M  V30 1763 H 158.668 3.37145 -0.647136 0
M  V30 1764 N 161.113 -0.173488 1.56642 0
M  V30 1765 C 162.023 -1.23482 1.99473 0
M  V30 1766 C 163.039 -1.48567 0.905752 0
M  V30 1767 O 164.215 -1.60758 1.21321 0
M  V30 1768 C 161.28 -2.55444 2.34413 0
M  V30 1769 C 160.341 -2.38241 3.57127 0
M  V30 1770 C 159.574 -3.63909 3.90392 0
M  V30 1771 O 159.797 -4.68996 3.24653 0
M  V30 1772 O 158.731 -3.58149 4.83749 0
M  V30 1773 H 162.557 -0.901279 2.90018 0
M  V30 1774 H 160.142 -0.380185 1.44482 0
M  V30 1775 H 162.024 -3.33292 2.57865 0
M  V30 1776 H 160.699 -2.88382 1.4703 0
M  V30 1777 H 159.606 -1.58431 3.38896 0
M  V30 1778 H 160.939 -2.10228 4.45045 0
M  V30 1779 N 162.591 -1.51276 -0.441967 0
M  V30 1780 C 163.84 -1.6295 -1.18871 0
M  V30 1781 C 164.153 -0.349312 -1.92456 0
M  V30 1782 O 165.359 -0.345355 -2.69295 0
M  V30 1783 C 163.815 -2.87759 -2.16155 0
M  V30 1784 C 163.423 -4.22764 -1.48239 0
M  V30 1785 C 165.167 -3.08788 -2.91291 0
M  V30 1786 C 163.074 -5.38728 -2.4398 0
M  V30 1787 H 162.004 -0.606913 -0.447406 0
M  V30 1788 H 164.655 -1.77739 -0.456205 0
M  V30 1789 H 163.037 -2.66593 -2.92821 0
M  V30 1790 H 164.211 -4.54293 -0.771635 0
M  V30 1791 H 162.526 -4.07575 -0.852741 0
M  V30 1792 H 165.123 -3.92599 -3.63002 0
M  V30 1793 H 165.466 -2.21679 -3.5237 0
M  V30 1794 H 165.999 -3.30272 -2.21733 0
M  V30 1795 H 162.738 -6.28082 -1.87598 0
M  V30 1796 H 162.258 -5.1158 -3.13123 0
M  V30 1797 H 163.937 -5.70489 -3.05207 0
M  V30 1798 N 164.069 0.697108 -1.41344 0
M  V30 1799 C 165.48 1.27697 -1.36199 0
M  V30 1800 C 165.831 1.9615 -0.0443463 0
M  V30 1801 O 164.956 1.98689 0.857419 0
M  V30 1802 C 165.551 2.32223 -2.46694 0
M  V30 1803 C 164.11 2.8579 -2.44952 0
M  V30 1804 C 163.257 1.59807 -2.26621 0
M  V30 1805 H 166.208 0.491968 -1.50882 0
M  V30 1806 H 166.229 3.1348 -2.15664 0
M  V30 1807 H 165.741 1.82373 -3.42581 0
M  V30 1808 H 163.842 3.3982 -1.52817 0
M  V30 1809 H 163.955 3.36325 -3.41207 0
M  V30 1810 H 162.319 1.8556 -1.7447 0
M  V30 1811 H 163.102 1.11956 -3.24532 0
M  V30 1812 N 165.547 1.27147 0.931209 0
M  V30 1813 C 166.777 1.15914 1.71019 0
M  V30 1814 C 167.185 -0.287112 1.87009 0
M  V30 1815 O 166.528 -1.20761 1.38429 0
M  V30 1816 C 166.59 1.76647 3.13107 0
M  V30 1817 C 166.254 3.25807 3.20467 0
M  V30 1818 C 167.251 4.22489 3.02983 0
M  V30 1819 C 164.936 3.66452 3.43538 0
M  V30 1820 C 166.93 5.57794 3.08454 0
M  V30 1821 C 164.617 5.01888 3.48643 0
M  V30 1822 C 165.615 5.97369 3.31119 0
M  V30 1823 O 165.303 7.30337 3.35952 0
M  V30 1824 H 165.035 0.404062 0.54195 0
M  V30 1825 H 167.589 1.68457 1.17521 0
M  V30 1826 H 165.819 1.18578 3.68071 0
M  V30 1827 H 167.508 1.60179 3.72958 0
M  V30 1828 H 168.274 3.92425 2.85004 0
M  V30 1829 H 164.153 2.92611 3.5623 0
M  V30 1830 H 167.697 6.32298 2.94694 0
M  V30 1831 H 163.594 5.31609 3.66145 0
M  V30 1832 H 164.362 7.38739 3.5243 0
M  V30 1833 N 167.025 -1.13721 1.09112 0
M  V30 1834 C 168.273 -1.84559 0.823562 0
M  V30 1835 C 168.594 -1.83754 -0.652658 0
M  V30 1836 O 167.864 -1.29102 -1.47342 0
M  V30 1837 H 166.444 -0.683376 0.301673 0
M  V30 1838 H 169.106 -1.37771 1.37859 0
M  V30 1839 H 168.202 -2.8917 1.17419 0
M  V30 1840 N 168.503 -0.877838 -1.30888 0
M  V30 1841 C 169.45 -0.337538 -2.28318 0
M  V30 1842 C 170.42 0.568346 -1.56074 0
M  V30 1843 O 171.605 0.498298 -1.84178 0
M  V30 1844 C 168.745 0.448142 -3.42178 0
M  V30 1845 C 167.858 -0.48615 -4.29256 0
M  V30 1846 C 166.993 0.314427 -5.30269 0
M  V30 1847 C 166.032 -0.615791 -6.08995 0
M  V30 1848 N 165.169 0.14902 -7.01942 0
M  V30 1849 H 170.009 -1.17356 -2.73919 0
M  V30 1850 H 167.546 -0.590094 -1.34745 0
M  V30 1851 H 169.504 0.919517 -4.06941 0
M  V30 1852 H 168.134 1.24879 -2.97666 0
M  V30 1853 H 167.186 -1.076 -3.64865 0
M  V30 1854 H 168.498 -1.19909 -4.84173 0
M  V30 1855 H 167.652 0.847969 -6.00745 0
M  V30 1856 H 166.391 1.06062 -4.76027 0
M  V30 1857 H 165.396 -1.16102 -5.37401 0
M  V30 1858 H 166.621 -1.36097 -6.65323 0
M  V30 1859 H 164.567 0.877884 -6.50099 0
M  V30 1860 H 164.484 -0.504433 -7.54315 0
M  V30 1861 H 165.752 0.663537 -7.76671 0
M  V30 1862 N 169.982 1.44106 -0.638065 0
M  V30 1863 C 170.929 2.30715 0.062701 0
M  V30 1864 C 171.899 1.43882 0.829883 0
M  V30 1865 O 173.084 1.72775 0.809532 0
M  V30 1866 C 170.224 3.29258 1.03358 0
M  V30 1867 C 169.337 4.31192 0.26409 0
M  V30 1868 C 168.472 5.16825 1.22741 0
M  V30 1869 C 167.511 6.10462 0.447475 0
M  V30 1870 N 166.648 6.8877 1.36161 0
M  V30 1871 H 171.488 2.90096 -0.681781 0
M  V30 1872 H 169.025 1.42925 -0.347988 0
M  V30 1873 H 170.983 3.84886 1.60992 0
M  V30 1874 H 169.613 2.71562 1.74511 0
M  V30 1875 H 168.665 3.77981 -0.428295 0
M  V30 1876 H 169.977 4.97619 -0.343052 0
M  V30 1877 H 169.131 5.77004 1.87487 0
M  V30 1878 H 167.87 4.50488 1.86847 0
M  V30 1879 H 166.875 5.49386 -0.213433 0
M  V30 1880 H 168.1 6.78837 -0.188968 0
M  V30 1881 H 166.046 6.25096 1.98975 0
M  V30 1882 H 165.963 7.51663 0.808656 0
M  V30 1883 H 167.231 7.53467 1.99769 0
M  V30 1884 N 171.46 0.379036 1.52974 0
M  V30 1885 C 172.709 -0.207612 2.00629 0
M  V30 1886 C 173.022 -1.48758 1.27006 0
M  V30 1887 O 174.228 -2.15365 1.65318 0
M  V30 1888 C 172.684 -0.42053 3.57435 0
M  V30 1889 C 172.292 0.845587 4.39948 0
M  V30 1890 C 174.036 -0.964102 4.13407 0
M  V30 1891 C 171.943 0.601513 5.88333 0
M  V30 1892 H 170.873 -0.0813591 0.749598 0
M  V30 1893 H 173.524 0.499853 1.76561 0
M  V30 1894 H 171.906 -1.18959 3.7771 0
M  V30 1895 H 173.08 1.61848 4.31442 0
M  V30 1896 H 171.395 1.31336 3.95145 0
M  V30 1897 H 173.992 -1.16225 5.21916 0
M  V30 1898 H 174.335 -1.93019 3.68849 0
M  V30 1899 H 174.868 -0.25487 3.96983 0
M  V30 1900 H 171.607 1.53831 6.37194 0
M  V30 1901 H 171.127 -0.132628 5.99653 0
M  V30 1902 H 172.806 0.232134 6.46583 0
M  V30 1903 N 172.938 -1.57226 0.108567 0
M  V30 1904 C 173.87 -2.11809 -0.875752 0
M  V30 1905 C 174.883 -1.05839 -1.23701 0
M  V30 1906 O 176.072 -1.33245 -1.18778 0
M  V30 1907 C 173.172 -2.59411 -2.18081 0
M  V30 1908 C 172.345 -3.89364 -1.99284 0
M  V30 1909 C 171.404 -4.22672 -3.13424 0
M  V30 1910 O 170.43 -4.91668 -2.86795 0
M  V30 1911 N 171.632 -3.79154 -4.3957 0
M  V30 1912 H 174.397 -2.9689 -0.409477 0
M  V30 1913 H 171.958 -1.61721 -0.076158 0
M  V30 1914 H 173.95 -2.7873 -2.93414 0
M  V30 1915 H 172.52 -1.79268 -2.5609 0
M  V30 1916 H 171.74 -3.79059 -1.08203 0
M  V30 1917 H 173.028 -4.74358 -1.84017 0
M  V30 1918 H 172.426 -3.23486 -4.64083 0
M  V30 1919 H 170.983 -4.03602 -5.11809 0
M  V30 1920 N 174.416 0.165178 -1.56732 0
M  V30 1921 C 175.662 0.882112 -1.82611 0
M  V30 1922 C 175.995 1.81628 -0.687378 0
M  V30 1923 O 175.27 1.92009 0.310267 0
M  V30 1924 C 175.553 1.67245 -3.18906 0
M  V30 1925 C 175.406 0.760987 -4.43316 0
M  V30 1926 C 176.725 2.63884 -3.52212 0
M  V30 1927 H 173.844 0.319242 -0.664269 0
M  V30 1928 H 176.486 0.148052 -1.89422 0
M  V30 1929 H 174.636 2.29824 -3.1323 0
M  V30 1930 H 176.308 0.147596 -4.61064 0
M  V30 1931 H 174.551 0.0694102 -4.33744 0
M  V30 1932 H 175.222 1.34962 -5.35247 0
M  V30 1933 H 177.698 2.11429 -3.58381 0
M  V30 1934 H 176.574 3.16245 -4.48643 0
M  V30 1935 H 176.835 3.44377 -2.77231 0
M  V30 1936 N 175.894 1.51508 0.433938 0
M  V30 1937 C 176.824 1.76016 1.53429 0
M  V30 1938 C 177.805 0.610112 1.58782 0
M  V30 1939 O 178.99 0.853177 1.74455 0
M  V30 1940 C 176.12 1.88831 2.9148 0
M  V30 1941 C 175.074 3.04288 3.00987 0
M  V30 1942 C 174.4 3.0229 4.4105 0
M  V30 1943 C 175.7 4.44193 2.74754 0
M  V30 1944 H 177.394 2.68152 1.33171 0
M  V30 1945 H 174.94 1.29035 0.639214 0
M  V30 1946 H 176.893 2.04559 3.6842 0
M  V30 1947 H 175.617 0.933455 3.12976 0
M  V30 1948 H 174.276 2.8827 2.26486 0
M  V30 1949 H 173.924 2.04576 4.59519 0
M  V30 1950 H 173.624 3.79822 4.4834 0
M  V30 1951 H 175.148 3.20116 5.1996 0
M  V30 1952 H 176.562 4.60544 3.41426 0
M  V30 1953 H 174.959 5.23457 2.9345 0
M  V30 1954 H 176.029 4.53996 1.70339 0
M  V30 1955 N 177.372 -0.689602 1.41712 0
M  V30 1956 C 178.783 -1.26973 1.36875 0
M  V30 1957 C 179.134 -1.96124 0.054748 0
M  V30 1958 O 178.259 -1.99141 -0.84687 0
M  V30 1959 C 178.854 -2.30912 2.47922 0
M  V30 1960 C 177.413 -2.84486 2.46464 0
M  V30 1961 C 176.56 -1.58603 2.27465 0
M  V30 1962 H 179.511 -0.48396 1.51141 0
M  V30 1963 H 179.532 -3.12331 2.17323 0
M  V30 1964 H 179.044 -1.80554 3.43543 0
M  V30 1965 H 177.145 -3.39005 1.54617 0
M  V30 1966 H 177.258 -3.34511 3.42986 0
M  V30 1967 H 175.622 -1.84632 1.75451 0
M  V30 1968 H 176.405 -1.10233 3.25121 0
M  V30 1969 N 178.85 -1.27639 -0.924453 0
M  V30 1970 C 180.099 -1.13549 -1.66702 0
M  V30 1971 C 180.412 0.317487 -1.93006 0
M  V30 1972 O 181.618 0.579333 -2.65247 0
M  V30 1973 C 180.074 -1.98426 -3.00259 0
M  V30 1974 C 179.682 -3.484 -2.81641 0
M  V30 1975 C 181.426 -1.92993 -3.78092 0
M  V30 1976 C 179.333 -4.25464 -4.10773 0
M  V30 1977 H 178.263 -0.421351 -0.625283 0
M  V30 1978 H 180.914 -1.52085 -1.02676 0
M  V30 1979 H 179.296 -1.52736 -3.6536 0
M  V30 1980 H 180.47 -4.01973 -2.25287 0
M  V30 1981 H 178.785 -3.55245 -2.17232 0
M  V30 1982 H 181.382 -2.47844 -4.7379 0
M  V30 1983 H 181.725 -0.904281 -4.0636 0
M  V30 1984 H 182.258 -2.36595 -3.19793 0
M  V30 1985 H 178.997 -5.28566 -3.87683 0
M  V30 1986 H 178.517 -3.76667 -4.66779 0
M  V30 1987 H 180.196 -4.34812 -4.79111 0
M  V30 1988 N 180.328 1.1314 -1.09713 0
M  V30 1989 C 181.605 1.80762 -0.747302 0
M  V30 1990 C 181.985 1.96663 0.767265 0
M  V30 1991 O 181.333 1.53706 1.69076 0
M  V30 1992 C 181.543 3.15606 -1.48975 0
M  V30 1993 C 182.891 3.90914 -1.65746 0
M  V30 1994 O 183.915 3.25239 -1.45251 0
M  V30 1995 O 182.774 5.08718 -1.9967 0
M  V30 1996 H 179.868 0.782103 -0.268782 0
M  V30 1997 H 182.414 1.20041 -1.19951 0
M  V30 1998 H 181.186 2.99278 -2.52088 0
M  V30 1999 H 180.809 3.84029 -1.02991 0
M  V30 2000 N 181.806 0.884767 1.30421 0
M  V30 2001 C 183.083 0.423185 1.90967 0
M  V30 2002 C 183.463 -1.09605 1.80416 0
M  V30 2003 O 182.811 -1.93126 1.22125 0
M  V30 2004 C 183.021 0.921056 3.36627 0
M  V30 2005 C 184.369 0.955903 4.137 0
M  V30 2006 O 185.393 0.867706 3.4547 0
M  V30 2007 O 184.252 1.08614 5.35598 0
M  V30 2008 H 181.346 0.129369 0.816819 0
M  V30 2009 H 183.892 0.973653 1.3899 0
M  V30 2010 H 182.664 1.96489 3.3839 0
M  V30 2011 H 182.287 0.349741 3.96059 0
M  V30 2012 N 183.284 -1.43765 0.645699 0
M  V30 2013 C 184.512 -2.06253 0.163556 0
M  V30 2014 C 184.927 -1.48352 -1.16778 0
M  V30 2015 O 184.284 -0.611932 -1.71935 0
M  V30 2016 C 184.335 -3.61453 0.0583186 0
M  V30 2017 O 184.056 -4.172 1.33702 0
M  V30 2018 C 185.557 -4.41002 -0.450795 0
M  V30 2019 H 182.777 -0.665413 0.0864077 0
M  V30 2020 H 185.321 -1.84396 0.884222 0
M  V30 2021 H 183.476 -3.82522 -0.612865 0
M  V30 2022 H 183.89 -5.10791 1.19131 0
M  V30 2023 H 185.364 -5.49966 -0.473403 0
M  V30 2024 H 185.841 -4.13488 -1.48068 0
M  V30 2025 H 186.447 -4.24886 0.187637 0
M  V30 2026 N 184.763 -0.387143 -1.52771 0
M  V30 2027 C 186.012 0.19697 -2.00736 0
M  V30 2028 C 186.325 1.48082 -1.27793 0
M  V30 2029 O 187.531 2.14485 -1.66458 0
M  V30 2030 C 185.987 0.401568 -3.57653 0
M  V30 2031 C 185.595 -0.868907 -4.39493 0
M  V30 2032 C 187.339 0.942164 -4.13912 0
M  V30 2033 C 185.246 -0.632705 -5.88006 0
M  V30 2034 H 184.176 0.0773827 -0.750019 0
M  V30 2035 H 186.827 -0.50921 -1.76293 0
M  V30 2036 H 185.209 1.16954 -3.78335 0
M  V30 2037 H 186.383 -1.64133 -4.30577 0
M  V30 2038 H 184.698 -1.33429 -3.94443 0
M  V30 2039 H 187.295 1.13455 -5.22525 0
M  V30 2040 H 187.638 1.9106 -3.69867 0
M  V30 2041 H 188.171 0.233814 -3.97112 0
M  V30 2042 H 184.91 -1.57208 -6.36369 0
M  V30 2043 H 184.43 0.100825 -5.99715 0
M  V30 2044 H 186.109 -0.26642 -6.46451 0
M  V30 2045 N 186.241 1.57166 -0.116904 0
M  V30 2046 C 187.151 2.18745 0.847812 0
M  V30 2047 C 188.167 1.163 1.29423 0
M  V30 2048 O 189.343 1.48761 1.35765 0
M  V30 2049 C 186.408 2.77307 2.0809 0
M  V30 2050 C 185.469 3.94781 1.68661 0
M  V30 2051 C 184.702 4.50541 2.86091 0
M  V30 2052 O 184.925 4.05202 4.01456 0
M  V30 2053 O 183.859 5.41256 2.63298 0
M  V30 2054 H 187.685 3.01632 0.353778 0
M  V30 2055 H 185.27 1.49005 0.108599 0
M  V30 2056 H 187.152 3.14647 2.80313 0
M  V30 2057 H 185.827 1.97452 2.56504 0
M  V30 2058 H 184.734 3.62214 0.935518 0
M  V30 2059 H 186.067 4.76065 1.24991 0
M  V30 2060 N 187.719 -0.156864 1.56817 0
M  V30 2061 C 188.967 -0.869404 1.82444 0
M  V30 2062 C 189.288 -1.82147 0.69623 0
M  V30 2063 O 188.558 -1.93847 -0.28287 0
M  V30 2064 H 187.138 -0.324043 0.673056 0
M  V30 2065 H 189.8 -0.153224 1.94297 0
M  V30 2066 H 188.896 -1.43761 2.77019 0
M  V30 2067 N 189.197 -1.51736 -0.425897 0
M  V30 2068 C 190.127 -1.76827 -1.52494 0
M  V30 2069 C 191.108 -0.618524 -1.58456 0
M  V30 2070 O 192.293 -0.862416 -1.74 0
M  V30 2071 C 189.423 -1.90374 -2.90474 0
M  V30 2072 C 188.377 -3.0588 -2.99369 0
M  V30 2073 C 187.703 -3.04625 -4.3944 0
M  V30 2074 C 189.003 -4.45644 -2.72394 0
M  V30 2075 H 190.697 -2.68855 -1.31748 0
M  V30 2076 H 188.243 -1.29372 -0.632362 0
M  V30 2077 H 190.196 -2.0651 -3.6733 0
M  V30 2078 H 188.92 -0.95004 -3.12477 0
M  V30 2079 H 187.579 -2.89467 -2.24954 0
M  V30 2080 H 187.227 -2.0701 -4.58428 0
M  V30 2081 H 186.927 -3.82195 -4.46319 0
M  V30 2082 H 188.451 -3.22869 -5.18255 0
M  V30 2083 H 189.865 -4.62348 -3.38979 0
M  V30 2084 H 188.262 -5.25006 -2.9067 0
M  V30 2085 H 189.332 -4.54893 -1.67929 0
M  V30 2086 N 190.675 0.682077 -1.42076 0
M  V30 2087 C 191.638 1.77756 -1.44691 0
M  V30 2088 C 192.638 1.5726 -0.335535 0
M  V30 2089 O 193.828 1.63686 -0.596037 0
M  V30 2090 C 190.96 3.16301 -1.27146 0
M  V30 2091 H 192.153 1.76826 -2.42224 0
M  V30 2092 H 189.706 0.891012 -1.28416 0
M  V30 2093 H 190.441 3.22862 -0.305075 0
M  V30 2094 H 190.226 3.32581 -2.07683 0
M  V30 2095 H 191.716 3.96241 -1.31843 0
M  V30 2096 N 192.153 1.28127 0.917671 0
M  V30 2097 C 193.1 1.11717 2.0196 0
M  V30 2098 C 194.07 0.0153929 1.66093 0
M  V30 2099 O 195.255 0.179596 1.89953 0
M  V30 2100 C 192.395 0.780927 3.36148 0
M  V30 2101 C 191.508 1.96135 3.84909 0
M  V30 2102 C 190.643 1.56609 5.0759 0
M  V30 2103 C 189.682 2.71339 5.48673 0
M  V30 2104 N 188.819 2.32332 6.62545 0
M  V30 2105 H 193.659 2.06003 2.15329 0
M  V30 2106 H 191.196 1.02535 1.05475 0
M  V30 2107 H 193.154 0.56675 4.13333 0
M  V30 2108 H 191.784 -0.124998 3.22558 0
M  V30 2109 H 190.836 2.28777 3.03916 0
M  V30 2110 H 192.148 2.82165 4.1132 0
M  V30 2111 H 191.302 1.31374 5.92305 0
M  V30 2112 H 190.041 0.677014 4.82978 0
M  V30 2113 H 189.046 2.97276 4.62501 0
M  V30 2114 H 190.271 3.60882 5.75274 0
M  V30 2115 H 188.217 1.45889 6.39572 0
M  V30 2116 H 188.134 3.11899 6.88662 0
M  V30 2117 H 189.402 2.10371 7.50576 0
M  V30 2118 N 193.631 -1.12557 1.10312 0
M  V30 2119 C 194.908 -1.80363 0.756878 0
M  V30 2120 C 195.288 -1.97067 -0.756824 0
M  V30 2121 O 194.636 -1.54601 -1.68259 0
M  V30 2122 C 194.846 -3.14812 1.50647 0
M  V30 2123 C 196.194 -3.90029 1.67817 0
M  V30 2124 O 197.218 -3.24464 1.46974 0
M  V30 2125 O 196.077 -5.07652 2.02365 0
M  V30 2126 H 193.171 -0.780667 0.272926 0
M  V30 2127 H 195.717 -1.19404 1.20586 0
M  V30 2128 H 194.489 -2.97936 2.53672 0
M  V30 2129 H 194.112 -3.83478 1.05026 0
M  V30 2130 N 195.109 -0.891671 -1.2995 0
M  V30 2131 C 196.337 -0.52866 -2.00032 0
M  V30 2132 C 196.752 0.884574 -1.66795 0
M  V30 2133 O 196.109 1.5827 -0.908669 0
M  V30 2134 C 196.16 -0.701814 -3.54622 0
M  V30 2135 O 195.881 -2.05942 -3.86678 0
M  V30 2136 C 197.382 -0.342683 -4.41973 0
M  V30 2137 H 194.602 -0.203659 -0.639347 0
M  V30 2138 H 197.146 -1.19881 -1.65677 0
M  V30 2139 H 195.301 -0.0789468 -3.8732 0
M  V30 2140 H 195.715 -2.08291 -4.81368 0
M  V30 2141 H 197.189 -0.514709 -5.49595 0
M  V30 2142 H 197.666 0.71975 -4.33262 0
M  V30 2143 H 198.272 -0.942154 -4.14733 0
M  V30 2144 N 196.587 1.43421 -0.653314 0
M  V30 2145 C 197.517 2.33487 0.0246656 0
M  V30 2146 C 198.498 1.49475 0.811863 0
M  V30 2147 O 199.683 1.78139 0.773322 0
M  V30 2148 C 196.813 3.32841 0.99166 0
M  V30 2149 C 195.767 4.26842 0.314568 0
M  V30 2150 C 195.093 5.16236 1.39302 0
M  V30 2151 C 196.393 5.16243 -0.793095 0
M  V30 2152 H 198.087 2.90427 -0.727481 0
M  V30 2153 H 195.633 1.39649 -0.351287 0
M  V30 2154 H 197.586 3.94747 1.47487 0
M  V30 2155 H 196.31 2.74158 1.77497 0
M  V30 2156 H 194.969 3.663 -0.148199 0
M  V30 2157 H 194.617 4.53891 2.16776 0
M  V30 2158 H 194.317 5.79948 0.945223 0
M  V30 2159 H 195.841 5.81015 1.87759 0
M  V30 2160 H 197.255 5.71958 -0.392039 0
M  V30 2161 H 195.652 5.88676 -1.16536 0
M  V30 2162 H 196.722 4.55927 -1.65103 0
M  V30 2163 N 198.065 0.39524 1.52563 0
M  V30 2164 C 199.312 -0.185044 2.01653 0
M  V30 2165 C 199.64 -1.46317 1.28146 0
M  V30 2166 O 198.895 -1.9213 0.372074 0
M  V30 2167 C 199.194 -0.493444 3.53977 0
M  V30 2168 C 198.86 0.69384 4.4553 0
M  V30 2169 C 197.522 1.01954 4.70275 0
M  V30 2170 C 199.874 1.48785 4.99512 0
M  V30 2171 C 197.202 2.14069 5.46252 0
M  V30 2172 C 199.554 2.59965 5.76716 0
M  V30 2173 C 198.218 2.93037 5.99738 0
M  V30 2174 H 197.488 -0.0677123 0.7379 0
M  V30 2175 H 200.135 0.533807 1.8391 0
M  V30 2176 H 198.44 -1.29369 3.69825 0
M  V30 2177 H 200.137 -0.955163 3.89458 0
M  V30 2178 H 196.727 0.429987 4.26438 0
M  V30 2179 H 200.911 1.24946 4.80315 0
M  V30 2180 H 196.167 2.40056 5.62302 0
M  V30 2181 H 200.341 3.21887 6.17545 0
M  V30 2182 H 197.968 3.8003 6.58393 0
M  V30 2183 N 199.544 -1.57102 0.125237 0
M  V30 2184 C 200.454 -2.19191 -0.8362 0
M  V30 2185 C 201.47 -1.16985 -1.28805 0
M  V30 2186 O 202.646 -1.49479 -1.34974 0
M  V30 2187 C 199.711 -2.78407 -2.06617 0
M  V30 2188 C 198.772 -3.9567 -1.66565 0
M  V30 2189 C 198.005 -4.52052 -2.83698 0
M  V30 2190 O 198.228 -4.07326 -3.99302 0
M  V30 2191 O 197.162 -5.42645 -2.60423 0
M  V30 2192 H 200.988 -3.01816 -0.337776 0
M  V30 2193 H 198.573 -1.4906 -0.100695 0
M  V30 2194 H 200.455 -3.16129 -2.7864 0
M  V30 2195 H 199.13 -1.9881 -2.55453 0
M  V30 2196 H 198.037 -3.62705 -0.916296 0
M  V30 2197 H 199.37 -4.76722 -1.22464 0
M  V30 2198 N 201.022 0.148545 -1.56898 0
M  V30 2199 C 202.271 0.85984 -1.82454 0
M  V30 2200 C 202.584 1.82406 -0.706229 0
M  V30 2201 O 203.79 2.57938 -0.847349 0
M  V30 2202 C 202.246 1.57967 -3.2338 0
M  V30 2203 C 201.854 0.65794 -4.43142 0
M  V30 2204 C 203.598 2.27784 -3.58211 0
M  V30 2205 C 201.505 1.3793 -5.75091 0
M  V30 2206 H 200.435 0.324834 -0.68044 0
M  V30 2207 H 203.086 0.112588 -1.83154 0
M  V30 2208 H 201.468 2.37249 -3.17063 0
M  V30 2209 H 202.642 -0.0995497 -4.60692 0
M  V30 2210 H 200.957 0.0682643 -4.16344 0
M  V30 2211 H 203.554 2.8239 -4.54048 0
M  V30 2212 H 203.897 3.04204 -2.84193 0
M  V30 2213 H 204.43 1.55421 -3.66182 0
M  V30 2214 H 201.169 0.656982 -6.52199 0
M  V30 2215 H 200.689 2.10954 -5.61479 0
M  V30 2216 H 202.368 1.92063 -6.17835 0
M  V30 2217 N 202.5 1.5196 0.417844 0
M  V30 2218 C 203.747 1.65591 1.16559 0
M  V30 2219 C 204.075 0.381565 1.90721 0
M  V30 2220 O 203.33 -0.635156 1.85106 0
M  V30 2221 C 203.629 2.82269 2.19223 0
M  V30 2222 C 203.295 4.20819 1.61933 0
M  V30 2223 C 201.957 4.58506 1.46033 0
M  V30 2224 C 204.309 5.07196 1.20008 0
M  V30 2225 C 201.637 5.80257 0.867113 0
M  V30 2226 C 203.989 6.29544 0.621086 0
M  V30 2227 C 202.653 6.65987 0.449144 0
M  V30 2228 H 201.923 0.605939 0.42652 0
M  V30 2229 H 204.57 1.86041 0.45397 0
M  V30 2230 H 202.875 2.56118 2.96498 0
M  V30 2231 H 204.572 2.90012 2.76936 0
M  V30 2232 H 201.162 3.91116 1.7529 0
M  V30 2233 H 205.346 4.7867 1.31105 0
M  V30 2234 H 200.602 6.07124 0.721833 0
M  V30 2235 H 204.776 6.95805 0.287798 0
M  V30 2236 H 202.403 7.60199 -0.012632 0
M  V30 2237 N 203.978 -0.674533 1.42435 0
M  V30 2238 C 204.908 -1.80009 1.48724 0
M  V30 2239 C 205.889 -1.6659 0.343793 0
M  V30 2240 O 207.074 -1.86007 0.558137 0
M  V30 2241 C 204.204 -3.18306 1.38919 0
M  V30 2242 C 203.158 -3.46461 2.51294 0
M  V30 2243 C 202.484 -4.84335 2.26547 0
M  V30 2244 C 203.784 -3.43328 3.93603 0
M  V30 2245 H 205.478 -1.75004 2.42928 0
M  V30 2246 H 203.024 -0.840533 1.16923 0
M  V30 2247 H 204.977 -3.9678 1.41927 0
M  V30 2248 H 203.701 -3.2399 0.412094 0
M  V30 2249 H 202.36 -2.70348 2.47604 0
M  V30 2250 H 202.008 -4.86669 1.2713 0
M  V30 2251 H 201.708 -5.04136 3.01861 0
M  V30 2252 H 203.232 -5.65094 2.31304 0
M  V30 2253 H 204.646 -4.11772 3.98894 0
M  V30 2254 H 203.043 -3.74664 4.68771 0
M  V30 2255 H 204.113 -2.41897 4.20255 0
M  V30 2256 N 205.456 -1.28612 -0.910864 0
M  V30 2257 C 206.403 -1.12786 -2.01365 0
M  V30 2258 C 207.373 -0.024201 -1.66082 0
M  V30 2259 O 208.558 -0.189667 -1.89855 0
M  V30 2260 C 205.698 -0.798743 -3.35729 0
M  V30 2261 C 204.811 -1.98173 -3.83864 0
M  V30 2262 C 203.946 -1.59298 -5.06752 0
M  V30 2263 C 202.985 -2.74245 -5.47226 0
M  V30 2264 N 202.122 -2.35842 -6.61304 0
M  V30 2265 H 206.962 -2.07142 -2.14234 0
M  V30 2266 H 204.499 -1.03093 -1.0493 0
M  V30 2267 H 206.457 -0.588662 -4.13026 0
M  V30 2268 H 205.087 0.10789 -3.2262 0
M  V30 2269 H 204.139 -2.30386 -3.02699 0
M  V30 2270 H 205.451 -2.84343 -4.09818 0
M  V30 2271 H 204.605 -1.34513 -5.916 0
M  V30 2272 H 203.344 -0.702618 -4.82612 0
M  V30 2273 H 202.349 -2.99725 -4.60918 0
M  V30 2274 H 203.574 -3.63928 -5.73353 0
M  V30 2275 H 201.52 -1.49279 -6.38789 0
M  V30 2276 H 201.437 -3.15546 -6.86998 0
M  V30 2277 H 202.705 -2.14348 -7.4945 0
M  V30 2278 N 206.934 1.1197 -1.10907 0
M  V30 2279 C 208.345 1.65114 -0.871446 0
M  V30 2280 C 208.696 1.86885 0.597353 0
M  V30 2281 O 207.821 1.59896 1.45816 0
M  V30 2282 C 208.416 2.99944 -1.5754 0
M  V30 2283 C 206.975 3.50018 -1.38435 0
M  V30 2284 C 206.122 2.24941 -1.62164 0
M  V30 2285 H 209.073 0.956851 -1.2661 0
M  V30 2286 H 209.094 3.66651 -1.01721 0
M  V30 2287 H 208.606 2.84067 -2.64438 0
M  V30 2288 H 206.707 3.71071 -0.337214 0
M  V30 2289 H 206.82 4.29165 -2.12965 0
M  V30 2290 H 205.184 2.3229 -1.04467 0
M  V30 2291 H 205.967 2.11612 -2.70324 0
M  V30 2292 N 208.412 0.89855 1.29475 0
M  V30 2293 C 209.642 0.538479 1.99459 0
M  V30 2294 C 210.05 -0.880922 1.67441 0
M  V30 2295 O 209.393 -1.59283 0.915127 0
M  V30 2296 C 209.455 0.649564 3.53583 0
M  V30 2297 C 209.119 2.03573 4.09154 0
M  V30 2298 C 210.116 3.00675 4.24135 0
M  V30 2299 C 207.801 2.3448 4.44212 0
M  V30 2300 C 209.795 4.26809 4.73405 0
M  V30 2301 C 207.482 3.60857 4.93179 0
M  V30 2302 C 208.48 4.56836 5.0773 0
M  V30 2303 O 208.168 5.80969 5.55635 0
M  V30 2304 H 207.9 0.205372 0.644048 0
M  V30 2305 H 210.454 1.20958 1.66007 0
M  V30 2306 H 208.684 -0.0785592 3.8662 0
M  V30 2307 H 210.373 0.29881 4.04799 0
M  V30 2308 H 211.139 2.78112 3.97339 0
M  V30 2309 H 207.018 1.60534 4.32145 0
M  V30 2310 H 210.562 5.0173 4.84678 0
M  V30 2311 H 206.459 3.83251 5.19412 0
M  V30 2312 H 207.227 5.83542 5.73952 0
M  V30 2313 N 209.89 -1.43072 0.660911 0
M  V30 2314 C 211.137 -2.01721 0.177445 0
M  V30 2315 C 211.465 -1.5218 -1.21126 0
M  V30 2316 O 210.72 -0.708659 -1.82419 0
M  V30 2317 C 211.019 -3.57103 0.145563 0
M  V30 2318 C 210.685 -4.26021 1.47705 0
M  V30 2319 C 209.347 -4.44563 1.84165 0
M  V30 2320 C 211.699 -4.64983 2.35458 0
M  V30 2321 C 209.027 -4.99334 3.0803 0
M  V30 2322 C 211.379 -5.21127 3.58622 0
M  V30 2323 C 210.043 -5.37884 3.95268 0
M  V30 2324 H 209.313 -0.73815 0.0649317 0
M  V30 2325 H 211.96 -1.71446 0.853144 0
M  V30 2326 H 210.265 -3.86965 -0.61361 0
M  V30 2327 H 211.962 -4.00248 -0.2455 0
M  V30 2328 H 208.552 -4.11939 1.18339 0
M  V30 2329 H 212.736 -4.50343 2.08579 0
M  V30 2330 H 207.992 -5.10493 3.36462 0
M  V30 2331 H 212.166 -5.50262 4.26831 0
M  V30 2332 H 209.793 -5.80089 4.91325 0
M  V30 2333 N 211.368 -0.403325 -1.52352 0
M  V30 2334 C 212.316 0.439752 -2.28405 0
M  V30 2335 C 213.31 1.05089 -1.32863 0
M  V30 2336 O 214.516 0.989759 -1.50345 0
M  V30 2337 H 210.891 0.160587 -0.734653 0
M  V30 2338 H 212.862 -0.222983 -2.97566 0
M  V30 2339 C 211.611 1.54736 -3.11371 0
M  V30 2340 H 210.934 1.08643 -3.84755 0
M  V30 2341 H 212.374 2.1112 -3.67701 0
M  V30 2342 C 210.833 2.51141 -2.24566 0
M  V30 2343 O 211.363 3.54887 -1.88196 0
M  V30 2344 N 209.569 2.21213 -1.8845 0
M  V30 2345 H 209.116 1.36878 -2.18225 0
M  V30 2346 H 209.074 2.85963 -1.30662 0
M  V30 2347 N 212.846 1.57033 -0.133567 0
M  V30 2348 C 213.756 2.19632 0.824564 0
M  V30 2349 C 214.772 1.17666 1.28182 0
M  V30 2350 O 215.948 1.50193 1.3418 0
M  V30 2351 C 213.013 2.79499 2.05137 0
M  V30 2352 C 212.074 3.96548 1.64464 0
M  V30 2353 C 211.307 4.5355 2.81297 0
M  V30 2354 O 211.53 4.09438 3.97136 0
M  V30 2355 O 210.464 5.44018 2.57542 0
M  V30 2356 H 214.29 3.01991 0.321766 0
M  V30 2357 H 211.875 1.49112 0.0927889 0
M  V30 2358 H 213.757 3.17602 2.7696 0
M  V30 2359 H 212.432 2.00162 2.54395 0
M  V30 2360 H 211.339 3.63186 0.897048 0
M  V30 2361 H 212.672 4.77364 1.19934 0
M  V30 2362 N 214.325 -0.140222 1.56975 0
M  V30 2363 C 215.55 -0.870414 1.88251 0
M  V30 2364 C 215.975 -1.73637 0.723312 0
M  V30 2365 O 215.333 -1.78329 -0.32689 0
M  V30 2366 C 215.381 -1.69737 3.18154 0
M  V30 2367 O 214.485 -2.80229 3.02565 0
M  V30 2368 H 213.826 -0.242025 0.61832 0
M  V30 2369 H 216.356 -0.128999 2.04193 0
M  V30 2370 H 216.366 -2.09099 3.50345 0
M  V30 2371 H 215.041 -1.06152 4.02125 0
M  V30 2372 H 213.618 -2.44224 2.81796 0
M  V30 2373 N 215.803 -1.52179 -0.40978 0
M  V30 2374 C 217.033 -1.69807 -1.17682 0
M  V30 2375 C 217.441 -0.406908 -1.84773 0
M  V30 2376 O 216.784 0.626863 -1.72673 0
M  V30 2377 C 216.846 -2.77712 -2.2829 0
M  V30 2378 C 216.51 -4.19481 -1.81341 0
M  V30 2379 C 217.507 -5.03345 -1.30154 0
M  V30 2380 C 215.192 -4.65713 -1.88194 0
M  V30 2381 C 217.186 -6.31511 -0.864416 0
M  V30 2382 C 214.873 -5.93869 -1.44093 0
M  V30 2383 C 215.871 -6.76597 -0.933023 0
M  V30 2384 O 215.559 -8.02354 -0.49838 0
M  V30 2385 H 215.291 -0.572372 -0.359675 0
M  V30 2386 H 217.845 -1.99511 -0.488311 0
M  V30 2387 H 216.075 -2.43383 -3.00502 0
M  V30 2388 H 217.764 -2.83946 -2.90051 0
M  V30 2389 H 218.53 -4.68819 -1.24232 0
M  V30 2390 H 214.409 -4.01424 -2.26671 0
M  V30 2391 H 217.953 -6.96033 -0.467286 0
M  V30 2392 H 213.85 -6.27903 -1.49694 0
M  V30 2393 H 214.618 -8.16135 -0.621747 0
M  V30 2394 N 217.281 0.66697 -1.42791 0
M  V30 2395 C 218.697 0.981027 -1.25889 0
M  V30 2396 C 218.897 2.00793 -0.168695 0
M  V30 2397 O 217.953 2.48321 0.45747 0
M  V30 2398 C 219.266 1.47838 -2.61848 0
M  V30 2399 C 220.814 1.59575 -2.69267 0
M  V30 2400 C 221.289 2.12704 -4.05612 0
M  V30 2401 N 222.78 2.20026 -4.07606 0
M  V30 2402 C 223.515 2.62227 -5.09926 0
M  V30 2403 N 223.011 3.03824 -6.22626 0
M  V30 2404 N 224.804 2.62045 -4.97281 0
M  V30 2405 H 216.955 -0.0127891 -2.12396 0
M  V30 2406 H 219.218 0.0568258 -0.946295 0
M  V30 2407 H 218.924 0.798299 -3.4252 0
M  V30 2408 H 218.798 2.45579 -2.86305 0
M  V30 2409 H 221.185 2.26687 -1.88936 0
M  V30 2410 H 221.266 0.60302 -2.48591 0
M  V30 2411 H 220.91 1.46198 -4.86404 0
M  V30 2412 H 220.84 3.12782 -4.23645 0
M  V30 2413 H 223.331 1.90708 -3.2625 0
M  V30 2414 H 223.644 3.34734 -6.96544 0
M  V30 2415 H 221.989 3.01662 -6.26119 0
M  V30 2416 H 225.18 2.28916 -4.08308 0
M  V30 2417 H 225.353 2.94613 -5.77154 0
M  V30 2418 N 218.759 1.29093 0.90403 0
M  V30 2419 C 220.17 1.15186 1.46932 0
M  V30 2420 C 220.521 -0.254587 1.94541 0
M  V30 2421 O 219.646 -1.14972 1.83332 0
M  V30 2422 C 220.241 2.08492 2.67051 0
M  V30 2423 C 218.8 1.98621 3.19729 0
M  V30 2424 C 217.947 1.9967 1.92425 0
M  V30 2425 H 220.898 1.41641 0.715789 0
M  V30 2426 H 220.919 1.65461 3.42641 0
M  V30 2427 H 220.431 3.10847 2.3237 0
M  V30 2428 H 218.532 0.993389 3.59114 0
M  V30 2429 H 218.645 2.86068 3.8432 0
M  V30 2430 H 217.009 1.44208 2.09943 0
M  V30 2431 H 217.792 3.03721 1.60026 0
M  V30 2432 N 220.237 -1.11381 1.11499 0
M  V30 2433 C 221.483 -1.83403 0.865512 0
M  V30 2434 C 221.816 -1.84459 -0.607329 0
M  V30 2435 O 221.091 -1.29811 -1.44842 0
M  V30 2436 C 221.374 -3.30552 1.42855 0
M  V30 2437 C 221.227 -3.37886 2.96906 0
M  V30 2438 C 222.546 -4.26643 1.08 0
M  V30 2439 H 219.665 -0.665879 0.31587 0
M  V30 2440 H 222.307 -1.30601 1.37998 0
M  V30 2441 H 220.457 -3.75648 0.990985 0
M  V30 2442 H 222.129 -3.01343 3.49271 0
M  V30 2443 H 220.372 -2.78088 3.32941 0
M  V30 2444 H 221.043 -4.41458 3.31389 0
M  V30 2445 H 223.519 -3.89729 1.45775 0
M  V30 2446 H 222.395 -5.27986 1.50072 0
M  V30 2447 H 222.656 -4.42099 -0.00915037 0
M  V30 2448 N 221.715 -0.905404 -1.28997 0
M  V30 2449 C 222.662 -0.385892 -2.27551 0
M  V30 2450 C 223.632 0.535113 -1.57244 0
M  V30 2451 O 224.817 0.459119 -1.85194 0
M  V30 2452 C 221.957 0.375461 -3.43051 0
M  V30 2453 C 221.07 -0.577092 -4.28128 0
M  V30 2454 C 220.205 0.201879 -5.30816 0
M  V30 2455 C 219.244 -0.744829 -6.07551 0
M  V30 2456 N 218.381 9.42587e-05 -7.021 0
M  V30 2457 H 223.221 -1.23139 -2.71368 0
M  V30 2458 H 220.758 -0.618542 -1.33463 0
M  V30 2459 H 222.716 0.832992 -4.088 0
M  V30 2460 H 221.346 1.18537 -3.00248 0
M  V30 2461 H 220.398 -1.15315 -3.62501 0
M  V30 2462 H 221.71 -1.30152 -4.8152 0
M  V30 2463 H 220.864 0.720351 -6.02408 0
M  V30 2464 H 219.603 0.959413 -4.7817 0
M  V30 2465 H 218.608 -1.27475 -5.34818 0
M  V30 2466 H 219.833 -1.50178 -6.62286 0
M  V30 2467 H 217.779 0.739791 -6.51815 0
M  V30 2468 H 217.696 -0.664321 -7.53076 0
M  V30 2469 H 218.964 0.498644 -7.77903 0
M  V30 2470 N 223.193 1.4272 -0.668489 0
M  V30 2471 C 224.14 2.30796 0.0137489 0
M  V30 2472 C 225.11 1.4561 0.799177 0
M  V30 2473 O 226.295 1.74453 0.772702 0
M  V30 2474 C 223.435 3.31377 0.963507 0
M  V30 2475 C 222.548 4.31655 0.172569 0
M  V30 2476 C 221.683 5.19312 1.1175 0
M  V30 2477 C 220.722 6.11274 0.317886 0
M  V30 2478 N 219.859 6.91504 1.2152 0
M  V30 2479 H 224.699 2.88585 -0.743161 0
M  V30 2480 H 222.236 1.42154 -0.378226 0
M  V30 2481 H 224.194 3.88214 1.52792 0
M  V30 2482 H 222.824 2.75202 1.68712 0
M  V30 2483 H 221.876 3.76988 -0.508374 0
M  V30 2484 H 223.188 4.96779 -0.448527 0
M  V30 2485 H 222.342 5.80851 1.75206 0
M  V30 2486 H 221.081 4.5435 1.77249 0
M  V30 2487 H 220.086 5.48809 -0.329918 0
M  V30 2488 H 221.311 6.78283 -0.332917 0
M  V30 2489 H 219.257 6.29176 1.85671 0
M  V30 2490 H 219.174 7.53209 0.649036 0
M  V30 2491 H 220.442 7.57535 1.83742 0
M  V30 2492 N 224.671 0.411399 1.52136 0
M  V30 2493 C 225.919 -0.163322 2.01439 0
M  V30 2494 C 226.24 -1.45453 1.29879 0
M  V30 2495 O 225.51 -1.91225 0.4254 0
M  V30 2496 H 224.09 -0.0633447 0.744309 0
M  V30 2497 H 226.752 0.548161 1.87033 0
M  V30 2498 H 225.848 -0.357817 3.10042 0
M  V30 2499 N 226.149 -1.5696 0.141893 0
M  V30 2500 C 227.426 -1.87553 -0.555281 0
M  V30 2501 C 227.806 -1.04699 -1.83306 0
M  V30 2502 O 227.154 -0.132346 -2.28116 0
M  V30 2503 C 227.364 -3.39093 -0.825664 0
M  V30 2504 C 228.712 -4.08199 -1.16869 0
M  V30 2505 O 229.736 -3.44242 -0.915185 0
M  V30 2506 O 228.595 -5.21139 -1.6455 0
M  V30 2507 H 225.689 -0.777188 -0.282679 0
M  V30 2508 H 228.235 -1.68763 0.17812 0
M  V30 2509 H 227.007 -3.91221 0.0788633 0
M  V30 2510 H 226.63 -3.63393 -1.61343 0
M  V30 2511 N 227.627 0.131896 -1.57047 0
M  V30 2512 C 228.557 1.16384 -2.02428 0
M  V30 2513 C 229.538 1.43936 -0.90644 0
M  V30 2514 O 230.723 1.54599 -1.17528 0
M  V30 2515 C 227.853 2.49328 -2.4177 0
M  V30 2516 C 226.807 2.36266 -3.56879 0
M  V30 2517 C 226.133 3.74057 -3.8208 0
M  V30 2518 C 227.433 1.834 -4.89042 0
M  V30 2519 H 229.127 0.786433 -2.88887 0
M  V30 2520 H 226.673 0.376855 -1.38981 0
M  V30 2521 H 228.626 3.21759 -2.7212 0
M  V30 2522 H 227.35 2.88934 -1.52266 0
M  V30 2523 H 226.009 1.66286 -3.26718 0
M  V30 2524 H 225.657 4.11125 -2.89803 0
M  V30 2525 H 225.357 3.66174 -4.59554 0
M  V30 2526 H 226.881 4.48012 -4.1487 0
M  V30 2527 H 228.295 2.45636 -5.18011 0
M  V30 2528 H 226.692 1.8637 -5.70426 0
M  V30 2529 H 227.762 0.790662 -4.7841 0
M  V30 2530 N 229.106 1.52395 0.401703 0
M  V30 2531 C 230.353 1.66817 1.14796 0
M  V30 2532 C 230.681 0.401772 1.90305 0
M  V30 2533 O 229.936 -0.615487 1.85769 0
M  V30 2534 C 230.235 2.84578 2.16217 0
M  V30 2535 C 229.901 4.22513 1.5746 0
M  V30 2536 C 228.563 4.60029 1.41161 0
M  V30 2537 C 230.915 5.0844 1.14622 0
M  V30 2538 C 228.243 5.81144 0.80552 0
M  V30 2539 C 230.595 6.30167 0.55428 0
M  V30 2540 C 229.259 6.66426 0.378482 0
M  V30 2541 H 228.529 0.610428 0.420069 0
M  V30 2542 H 231.176 1.86512 0.434212 0
M  V30 2543 H 229.481 2.59248 2.93764 0
M  V30 2544 H 231.178 2.92933 2.73845 0
M  V30 2545 H 227.768 3.92953 1.71132 0
M  V30 2546 H 231.952 4.80034 1.26021 0
M  V30 2547 H 227.208 6.07855 0.657399 0
M  V30 2548 H 231.382 6.96071 0.213983 0
M  V30 2549 H 229.009 7.60143 -0.0932606 0
M  V30 2550 N 230.584 -0.659388 1.43143 0
M  V30 2551 C 231.514 -1.78422 1.50625 0
M  V30 2552 C 232.495 -1.66216 0.361443 0
M  V30 2553 O 233.68 -1.85404 0.577834 0
M  V30 2554 C 230.81 -3.16815 1.42287 0
M  V30 2555 C 229.764 -3.43777 2.54954 0
M  V30 2556 C 229.09 -4.81905 2.31671 0
M  V30 2557 C 230.39 -3.39134 3.97222 0
M  V30 2558 H 232.084 -1.72417 2.44771 0
M  V30 2559 H 229.63 -0.828084 1.17808 0
M  V30 2560 H 231.583 -3.95253 1.46127 0
M  V30 2561 H 230.307 -3.23534 0.446435 0
M  V30 2562 H 228.966 -2.67707 2.50457 0
M  V30 2563 H 228.614 -4.85294 1.32284 0
M  V30 2564 H 228.314 -5.00906 3.07192 0
M  V30 2565 H 229.838 -5.62609 2.37284 0
M  V30 2566 H 231.252 -4.07518 4.03239 0
M  V30 2567 H 229.649 -3.69671 4.72719 0
M  V30 2568 H 230.719 -2.37426 4.22797 0
M  V30 2569 N 232.062 -1.29571 -0.897171 0
M  V30 2570 C 233.308 -1.17863 -1.65034 0
M  V30 2571 C 233.641 0.268729 -1.92332 0
M  V30 2572 O 232.916 1.19378 -1.53555 0
M  V30 2573 C 233.199 -1.995 -2.99786 0
M  V30 2574 C 233.052 -3.5239 -2.79538 0
M  V30 2575 C 234.371 -1.82335 -4.00552 0
M  V30 2576 H 231.49 -0.429528 -0.598895 0
M  V30 2577 H 234.132 -1.59072 -1.03905 0
M  V30 2578 H 232.282 -1.64485 -3.51962 0
M  V30 2579 H 233.954 -3.97401 -2.34244 0
M  V30 2580 H 232.197 -3.77187 -2.14273 0
M  V30 2581 H 232.868 -4.04787 -3.75302 0
M  V30 2582 H 235.344 -2.12924 -3.57495 0
M  V30 2583 H 234.22 -2.41801 -4.92771 0
M  V30 2584 H 234.481 -0.779209 -4.35179 0
M  V30 2585 N 233.54 1.10788 -1.12088 0
M  V30 2586 C 234.956 1.34691 -0.856186 0
M  V30 2587 C 235.156 1.94791 0.515615 0
M  V30 2588 O 234.212 2.18524 1.26505 0
M  V30 2589 C 235.525 2.27208 -1.9697 0
M  V30 2590 C 237.073 2.40755 -2.00016 0
M  V30 2591 C 237.548 3.36598 -3.1059 0
M  V30 2592 N 239.039 3.44164 -3.10008 0
M  V30 2593 C 239.774 4.18284 -3.92206 0
M  V30 2594 N 239.27 4.95322 -4.84384 0
M  V30 2595 N 241.063 4.13865 -3.80357 0
M  V30 2596 H 233.214 0.70144 -2.00483 0
M  V30 2597 H 235.477 0.371405 -0.872217 0
M  V30 2598 H 235.183 1.90251 -2.958 0
M  V30 2599 H 235.057 3.27485 -1.87172 0
M  V30 2600 H 237.444 2.76982 -1.01808 0
M  V30 2601 H 237.525 1.40305 -2.13888 0
M  V30 2602 H 237.169 3.01096 -4.09028 0
M  V30 2603 H 237.099 4.36918 -2.93956 0
M  V30 2604 H 239.59 2.8922 -2.43228 0
M  V30 2605 H 239.903 5.49267 -5.43623 0
M  V30 2606 H 238.248 4.94459 -4.884 0
M  V30 2607 H 241.439 3.52773 -3.07683 0
M  V30 2608 H 241.612 4.71372 -4.44649 0
M  V30 2609 N 235.018 0.912232 1.28515 0
M  V30 2610 C 236.266 0.543523 1.94654 0
M  V30 2611 C 236.587 -0.9155 1.72173 0
M  V30 2612 O 235.857 -1.64708 1.06058 0
M  V30 2613 H 234.437 0.198017 0.720277 0
M  V30 2614 H 237.099 1.16126 1.56527 0
M  V30 2615 H 236.195 0.736684 3.03281 0
M  V30 2616 N 236.496 -1.42363 0.676048 0
M  V30 2617 C 237.744 -2.01123 0.198437 0
M  V30 2618 C 238.065 -1.53731 -1.19966 0
M  V30 2619 O 237.335 -0.759518 -1.80577 0
M  V30 2620 H 235.915 -0.743678 0.0703721 0
M  V30 2621 H 238.577 -1.74263 0.872837 0
M  V30 2622 H 237.673 -3.11454 0.200686 0
M  V30 2623 N 237.974 -0.419461 -1.51915 0
M  V30 2624 C 239.221 0.152939 -2.01922 0
M  V30 2625 C 239.549 1.4426 -1.30458 0
M  V30 2626 O 238.804 1.91514 -0.402593 0
M  V30 2627 C 239.103 0.437067 -3.54717 0
M  V30 2628 C 238.769 -0.764632 -4.44369 0
M  V30 2629 C 237.431 -1.09423 -4.68594 0
M  V30 2630 C 239.783 -1.56713 -4.97082 0
M  V30 2631 C 237.111 -2.22732 -5.42777 0
M  V30 2632 C 239.463 -2.69107 -5.72507 0
M  V30 2633 C 238.127 -3.02541 -5.95 0
M  V30 2634 H 237.397 0.0559644 -0.738884 0
M  V30 2635 H 240.044 -0.562998 -1.83037 0
M  V30 2636 H 238.349 1.23469 -3.71837 0
M  V30 2637 H 240.046 0.893083 -3.90928 0
M  V30 2638 H 236.636 -0.497775 -4.257 0
M  V30 2639 H 240.82 -1.32571 -4.78266 0
M  V30 2640 H 236.076 -2.48971 -5.58411 0
M  V30 2641 H 240.25 -3.31671 -6.12346 0
M  V30 2642 H 237.877 -3.90457 -6.52264 0
M  V30 2643 N 239.452 1.56882 -0.150215 0
M  V30 2644 C 240.385 2.12712 0.826358 0
M  V30 2645 C 241.363 1.05154 1.24022 0
M  V30 2646 O 242.547 1.33004 1.33575 0
M  V30 2647 C 239.674 2.64945 2.11002 0
M  V30 2648 C 238.72 3.8468 1.84183 0
M  V30 2649 S 239.553 5.25502 1.02995 0
M  V30 2650 C 240.709 5.81125 2.32474 0
M  V30 2651 H 240.942 2.95214 0.351598 0
M  V30 2652 H 238.475 1.54267 0.0641211 0
M  V30 2653 H 240.433 2.95689 2.84742 0
M  V30 2654 H 239.094 1.82568 2.55593 0
M  V30 2655 H 238.287 4.19482 2.79375 0
M  V30 2656 H 237.889 3.54714 1.1855 0
M  V30 2657 H 240.181 5.92753 3.281 0
M  V30 2658 H 241.124 6.78625 2.02171 0
M  V30 2659 H 241.532 5.09392 2.43269 0
M  V30 2660 N 240.93 -0.123565 1.57115 0
M  V30 2661 C 242.155 -0.850398 1.89164 0
M  V30 2662 C 242.58 -1.7286 0.741688 0
M  V30 2663 O 241.938 -1.78665 -0.307958 0
M  V30 2664 C 241.986 -1.66353 3.19936 0
M  V30 2665 O 241.09 -2.77004 3.0552 0
M  V30 2666 H 240.431 -0.235454 0.620852 0
M  V30 2667 H 242.961 -0.107335 2.04318 0
M  V30 2668 H 242.971 -2.05372 3.52543 0
M  V30 2669 H 241.646 -1.01881 4.03228 0
M  V30 2670 H 240.223 -2.41221 2.84371 0
M  V30 2671 N 242.408 -1.52605 -0.393616 0
M  V30 2672 C 243.654 -1.67672 -1.14079 0
M  V30 2673 C 243.987 -0.413121 -1.89755 0
M  V30 2674 O 243.262 0.588952 -1.85369 0
M  V30 2675 C 243.545 -2.9088 -2.12276 0
M  V30 2676 C 243.398 -4.27329 -1.40394 0
M  V30 2677 C 244.717 -3.09628 -3.12759 0
M  V30 2678 H 241.836 -0.610168 -0.413356 0
M  V30 2679 H 244.478 -1.85193 -0.424696 0
M  V30 2680 H 242.628 -2.76073 -2.73342 0
M  V30 2681 H 244.3 -4.53894 -0.82327 0
M  V30 2682 H 242.543 -4.2802 -0.705801 0
M  V30 2683 H 243.214 -5.09615 -2.12123 0
M  V30 2684 H 245.69 -3.23436 -2.61779 0
M  V30 2685 H 244.566 -3.97322 -3.78717 0
M  V30 2686 H 244.827 -2.23637 -3.81365 0
M  V30 2687 N 243.887 0.651787 -1.4349 0
M  V30 2688 C 244.797 1.79368 -1.5121 0
M  V30 2689 C 245.813 1.69361 -0.399093 0
M  V30 2690 O 246.989 1.90505 -0.653431 0
M  V30 2691 C 244.054 3.15653 -1.43401 0
M  V30 2692 C 243.115 3.37446 -2.65384 0
M  V30 2693 C 242.348 4.67229 -2.57939 0
M  V30 2694 O 242.571 5.46676 -1.62792 0
M  V30 2695 O 241.505 4.90773 -3.48462 0
M  V30 2696 H 245.331 1.7581 -2.47638 0
M  V30 2697 H 242.916 0.810447 -1.25507 0
M  V30 2698 H 244.798 3.96935 -1.41494 0
M  V30 2699 H 243.473 3.19798 -0.501085 0
M  V30 2700 H 242.38 2.55923 -2.72863 0
M  V30 2701 H 243.713 3.38148 -3.57654 0
M  V30 2702 N 245.365 1.30045 0.890287 0
M  V30 2703 C 246.612 1.18561 1.64163 0
M  V30 2704 C 246.94 -0.260852 1.92743 0
M  V30 2705 O 246.195 -1.20376 1.54299 0
M  V30 2706 C 246.494 1.95409 2.99249 0
M  V30 2707 C 246.16 3.45066 2.90242 0
M  V30 2708 C 244.822 3.85878 2.87492 0
M  V30 2709 C 247.174 4.4039 2.78758 0
M  V30 2710 C 244.502 5.20314 2.7109 0
M  V30 2711 C 246.854 5.74928 2.63894 0
M  V30 2712 C 245.518 6.14986 2.59516 0
M  V30 2713 H 244.788 0.433846 0.600715 0
M  V30 2714 H 247.435 1.61088 1.03552 0
M  V30 2715 H 245.74 1.45501 3.63781 0
M  V30 2716 H 247.437 1.8392 3.56334 0
M  V30 2717 H 244.027 3.12631 2.93189 0
M  V30 2718 H 248.211 4.09806 2.79952 0
M  V30 2719 H 243.467 5.50449 2.66112 0
M  V30 2720 H 247.641 6.48434 2.53981 0
M  V30 2721 H 245.268 7.19104 2.46565 0
M  V30 2722 N 246.843 -1.10192 1.12674 0
M  V30 2723 C 247.79 -2.16606 0.796906 0
M  V30 2724 C 248.76 -1.64394 -0.237476 0
M  V30 2725 O 249.945 -1.90474 -0.111484 0
M  V30 2726 C 247.085 -3.44116 0.26043 0
M  V30 2727 C 246.198 -4.10268 1.35293 0
M  V30 2728 C 245.333 -5.25507 0.775621 0
M  V30 2729 C 244.372 -5.83567 1.84706 0
M  V30 2730 N 243.509 -6.90179 1.28829 0
M  V30 2731 H 248.349 -2.44163 1.70846 0
M  V30 2732 H 245.886 -1.19846 0.85295 0
M  V30 2733 H 247.844 -4.17143 -0.0686814 0
M  V30 2734 H 246.474 -3.16901 -0.614274 0
M  V30 2735 H 245.526 -3.35184 1.79877 0
M  V30 2736 H 246.838 -4.4946 2.16303 0
M  V30 2737 H 245.992 -6.05398 0.397327 0
M  V30 2738 H 244.731 -4.87656 -0.0656581 0
M  V30 2739 H 243.736 -5.02344 2.23452 0
M  V30 2740 H 244.961 -6.23482 2.69161 0
M  V30 2741 H 242.907 -6.54322 0.468881 0
M  V30 2742 H 242.824 -7.28097 2.03497 0
M  V30 2743 H 244.092 -7.73844 0.937311 0
M  V30 2744 N 248.321 -0.919034 -1.28029 0
M  V30 2745 C 249.567 -0.555757 -1.95036 0
M  V30 2746 C 249.9 0.899198 -1.72128 0
M  V30 2747 O 249.175 1.64023 -1.04531 0
M  V30 2748 C 249.458 -0.872024 -3.49382 0
M  V30 2749 C 249.311 -2.3801 -3.81669 0
M  V30 2750 C 250.63 -0.37185 -4.38526 0
M  V30 2751 H 247.749 -0.203386 -0.708381 0
M  V30 2752 H 250.391 -1.14924 -1.51303 0
M  V30 2753 H 248.541 -0.366946 -3.86763 0
M  V30 2754 H 250.213 -2.9562 -3.54128 0
M  V30 2755 H 248.456 -2.83289 -3.28526 0
M  V30 2756 H 249.127 -2.55192 -4.8947 0
M  V30 2757 H 251.603 -0.804602 -4.08247 0
M  V30 2758 H 250.479 -0.622173 -5.45362 0
M  V30 2759 H 250.74 0.727934 -4.36066 0
M  V30 2760 N 249.799 1.42003 -0.683588 0
M  V30 2761 C 251.045 2.01712 -0.209825 0
M  V30 2762 C 251.378 1.53968 1.18353 0
M  V30 2763 O 250.653 0.745661 1.79639 0
M  V30 2764 C 250.936 3.59202 -0.254197 0
M  V30 2765 C 250.789 4.17102 -1.68363 0
M  V30 2766 C 252.108 4.38344 0.392709 0
M  V30 2767 H 249.227 0.732891 -0.0777189 0
M  V30 2768 H 251.869 1.68909 -0.87004 0
M  V30 2769 H 250.019 3.87278 0.307954 0
M  V30 2770 H 251.691 3.99946 -2.29871 0
M  V30 2771 H 249.934 3.72597 -2.22157 0
M  V30 2772 H 250.605 5.26249 -1.6663 0
M  V30 2773 H 253.081 4.16011 -0.0859162 0
M  V30 2774 H 251.957 5.47901 0.331063 0
M  V30 2775 H 252.218 4.16887 1.47164 0
M  V30 2776 N 251.277 0.427512 1.51691 0
M  V30 2777 C 252.187 -0.39527 2.31246 0
M  V30 2778 C 253.203 -1.03674 1.39742 0
M  V30 2779 O 254.379 -1.03425 1.72816 0
M  V30 2780 C 251.444 -1.48706 3.13189 0
M  V30 2781 C 250.505 -0.866743 4.20459 0
M  V30 2782 C 249.738 -1.90651 4.98486 0
M  V30 2783 O 249.961 -3.12733 4.77026 0
M  V30 2784 O 248.895 -1.5025 5.82845 0
M  V30 2785 H 252.721 0.253918 3.02637 0
M  V30 2786 H 250.306 0.190274 1.48183 0
M  V30 2787 H 252.188 -2.12047 3.64162 0
M  V30 2788 H 250.863 -2.12051 2.44573 0
M  V30 2789 H 249.77 -0.195544 3.73589 0
M  V30 2790 H 251.103 -0.276934 4.9142 0
M  V30 2791 N 252.755 -1.56801 0.158532 0
M  V30 2792 C 254.001 -1.96781 -0.490405 0
M  V30 2793 C 254.334 -1.04397 -1.63753 0
M  V30 2794 O 253.609 -0.0885805 -1.94298 0
M  V30 2795 C 253.892 -3.4635 -0.985594 0
M  V30 2796 C 253.745 -4.49512 0.160824 0
M  V30 2797 C 255.064 -3.98697 -1.86355 0
M  V30 2798 H 252.183 -0.715482 -0.176788 0
M  V30 2799 H 254.825 -1.88451 0.242088 0
M  V30 2800 H 252.975 -3.53579 -1.60978 0
M  V30 2801 H 254.647 -4.54353 0.797537 0
M  V30 2802 H 252.89 -4.26013 0.818256 0
M  V30 2803 H 253.561 -5.51531 -0.227569 0
M  V30 2804 H 256.037 -3.94019 -1.33746 0
M  V30 2805 H 254.913 -5.03792 -2.17909 0
M  V30 2806 H 255.174 -3.41744 -2.8047 0
M  V30 2807 N 254.233 0.115231 -1.57178 0
M  V30 2808 C 255.51 0.852873 -1.76027 0
M  V30 2809 C 255.89 1.97892 -0.73498 0
M  V30 2810 O 255.238 2.27232 0.24036 0
M  V30 2811 C 255.448 1.36608 -3.21153 0
M  V30 2812 C 256.796 1.81692 -3.83762 0
M  V30 2813 O 257.82 1.46278 -3.24779 0
M  V30 2814 O 256.679 2.47104 -4.87444 0
M  V30 2815 H 253.773 0.405296 -0.720877 0
M  V30 2816 H 256.319 0.0986785 -1.69413 0
M  V30 2817 H 255.091 0.558357 -3.87296 0
M  V30 2818 H 254.714 2.18287 -3.3232 0
M  V30 2819 N 255.711 1.52812 0.385517 0
M  V30 2820 C 257.122 1.5993 0.963293 0
M  V30 2821 C 257.473 0.454302 1.90868 0
M  V30 2822 O 256.598 -0.422132 2.12243 0
M  V30 2823 C 257.193 2.89871 1.75387 0
M  V30 2824 C 255.752 2.99389 2.28129 0
M  V30 2825 C 254.899 2.55071 1.08783 0
M  V30 2826 H 257.85 1.5784 0.164948 0
M  V30 2827 H 257.871 2.76553 2.61341 0
M  V30 2828 H 257.383 3.73186 1.06554 0
M  V30 2829 H 255.484 2.20619 3.00263 0
M  V30 2830 H 255.597 4.04096 2.57377 0
M  V30 2831 H 253.961 2.09473 1.4489 0
M  V30 2832 H 254.744 3.40785 0.414807 0
M  V30 2833 N 257.189 -0.644168 1.43834 0
M  V30 2834 C 258.466 -1.40188 1.36406 0
M  V30 2835 C 258.846 -2.11094 0.0163124 0
M  V30 2836 O 258.194 -2.05426 -1.00062 0
M  V30 2837 C 258.404 -2.3791 2.55343 0
M  V30 2838 C 259.752 -3.01637 2.98832 0
M  V30 2839 O 260.776 -2.48237 2.55455 0
M  V30 2840 O 259.635 -3.98477 3.74003 0
M  V30 2841 H 256.729 -0.626773 0.539523 0
M  V30 2842 H 259.275 -0.670317 1.559 0
M  V30 2843 H 258.047 -1.84525 3.4506 0
M  V30 2844 H 257.67 -3.18503 2.37995 0
M  V30 2845 N 258.668 -1.30515 -0.883378 0
M  V30 2846 C 259.945 -1.10086 -1.6168 0
M  V30 2847 C 260.325 0.349269 -2.08191 0
M  V30 2848 O 259.673 1.34105 -1.85008 0
M  V30 2849 C 259.883 -2.10315 -2.78511 0
M  V30 2850 C 261.231 -2.42119 -3.48803 0
M  V30 2851 O 262.255 -2.08638 -2.88702 0
M  V30 2852 O 261.114 -2.99396 -4.57192 0
M  V30 2853 H 258.208 -0.422907 -0.710689 0
M  V30 2854 H 260.754 -1.41947 -0.930015 0
M  V30 2855 H 259.526 -3.07917 -2.41459 0
M  V30 2856 H 259.149 -1.79282 -3.54886 0
M  V30 2857 N 260.146 1.09593 -1.13257 0
M  V30 2858 C 261.393 1.81734 -0.893257 0
M  V30 2859 C 261.721 1.8563 0.580656 0
M  V30 2860 O 260.976 1.31906 1.44566 0
M  V30 2861 C 261.275 3.27802 -1.42411 0
M  V30 2862 C 260.941 3.44041 -2.91456 0
M  V30 2863 C 259.603 3.48181 -3.3215 0
M  V30 2864 C 261.955 3.48719 -3.87356 0
M  V30 2865 C 259.283 3.54575 -4.67433 0
M  V30 2866 C 261.635 3.56648 -5.2248 0
M  V30 2867 C 260.299 3.59055 -5.62704 0
M  V30 2868 H 259.569 0.665011 -0.326866 0
M  V30 2869 H 262.216 1.2912 -1.41422 0
M  V30 2870 H 260.521 3.83042 -0.823795 0
M  V30 2871 H 262.218 3.82149 -1.21503 0
M  V30 2872 H 258.808 3.41502 -2.58987 0
M  V30 2873 H 262.992 3.44763 -3.57004 0
M  V30 2874 H 258.248 3.54725 -4.97976 0
M  V30 2875 H 262.422 3.59212 -5.96607 0
M  V30 2876 H 260.049 3.63763 -6.67518 0
M  V30 2877 N 261.624 0.925811 1.2754 0
M  V30 2878 C 262.864 0.572521 1.96218 0
M  V30 2879 C 263.228 -0.869719 1.71172 0
M  V30 2880 O 264.429 -1.33119 2.33523 0
M  V30 2881 C 262.7 0.887325 3.4621 0
M  V30 2882 S 264.259 0.642266 4.34074 0
M  V30 2883 H 261.077 0.211403 0.678845 0
M  V30 2884 H 263.679 1.19384 1.54815 0
M  V30 2885 H 262.383 1.93469 3.61936 0
M  V30 2886 H 261.914 0.255123 3.92572 0
M  V30 2887 H 263.929 -0.500822 4.93666 0
M  V30 2888 N 263.102 -1.41638 0.69111 0
M  V30 2889 C 264.351 -2.00526 0.217318 0
M  V30 2890 C 264.664 -1.55353 -1.18848 0
M  V30 2891 O 265.87 -2.06769 -1.75951 0
M  V30 2892 C 264.326 -3.58313 0.337639 0
M  V30 2893 C 263.934 -4.12469 1.74852 0
M  V30 2894 C 265.678 -4.24431 -0.0766066 0
M  V30 2895 C 263.585 -5.62675 1.82074 0
M  V30 2896 H 262.515 -0.750008 0.0774893 0
M  V30 2897 H 265.166 -1.6217 0.858661 0
M  V30 2898 H 263.548 -3.9425 -0.371879 0
M  V30 2899 H 264.722 -3.8796 2.48644 0
M  V30 2900 H 263.037 -3.58861 2.11205 0
M  V30 2901 H 265.634 -5.34683 -0.0430284 0
M  V30 2902 H 265.977 -4.01101 -1.1146 0
M  V30 2903 H 266.51 -3.93512 0.582476 0
M  V30 2904 H 263.249 -5.90826 2.83911 0
M  V30 2905 H 262.769 -5.89124 1.12661 0
M  V30 2906 H 264.448 -6.27371 1.58159 0
M  V30 2907 N 264.58 -0.43555 -1.51462 0
M  V30 2908 C 265.826 0.131709 -2.02372 0
M  V30 2909 C 266.159 1.42516 -1.3192 0
M  V30 2910 O 265.434 1.89606 -0.433573 0
M  V30 2911 C 265.717 0.352301 -3.58373 0
M  V30 2912 C 265.57 -0.959676 -4.39443 0
M  V30 2913 C 266.889 1.12286 -4.25535 0
M  V30 2914 H 264.008 0.0463936 -0.735538 0
M  V30 2915 H 266.65 -0.574197 -1.81116 0
M  V30 2916 H 264.8 0.9536 -3.76615 0
M  V30 2917 H 266.472 -1.59482 -4.32855 0
M  V30 2918 H 264.715 -1.56468 -4.04599 0
M  V30 2919 H 265.386 -0.759394 -5.46752 0
M  V30 2920 H 267.862 0.613545 -4.11552 0
M  V30 2921 H 266.738 1.24598 -5.34571 0
M  V30 2922 H 266.999 2.15048 -3.86273 0
M  V30 2923 N 266.058 1.56714 -0.166846 0
M  V30 2924 C 267.283 2.01557 0.488833 0
M  V30 2925 C 267.708 1.0463 1.56314 0
M  V30 2926 O 267.066 0.0251304 1.81283 0
M  V30 2927 C 267.114 3.4503 1.04818 0
M  V30 2928 O 266.218 3.51163 2.16236 0
M  V30 2929 H 265.559 0.653516 0.117526 0
M  V30 2930 H 268.089 2.02818 -0.269421 0
M  V30 2931 H 268.099 3.84243 1.37191 0
M  V30 2932 H 266.774 4.15077 0.261572 0
M  V30 2933 H 265.351 3.23807 1.84942 0
M  V30 2934 N 267.536 -0.106894 1.57237 0
M  V30 2935 C 268.947 -0.662723 1.74542 0
M  V30 2936 C 269.298 -1.7971 0.787319 0
M  V30 2937 O 268.423 -2.16368 -0.0369636 0
M  V30 2938 C 269.018 -1.20896 3.16496 0
M  V30 2939 C 267.577 -1.71096 3.35266 0
M  V30 2940 C 266.724 -0.615642 2.7038 0
M  V30 2941 H 269.675 0.119106 1.58252 0
M  V30 2942 H 269.696 -2.07847 3.18716 0
M  V30 2943 H 269.208 -0.383122 3.86204 0
M  V30 2944 H 267.309 -2.56119 2.70618 0
M  V30 2945 H 267.422 -1.81208 4.43509 0
M  V30 2946 H 265.786 -1.05222 2.31949 0
M  V30 2947 H 266.569 0.199419 3.4272 0
M  V30 2948 N 269.014 -1.53014 -0.377408 0
M  V30 2949 C 270.291 -1.59215 -1.13622 0
M  V30 2950 C 270.671 -0.392407 -2.07421 0
M  V30 2951 O 270.019 0.618342 -2.19975 0
M  V30 2952 C 270.229 -2.93669 -1.88573 0
M  V30 2953 C 271.577 -3.47822 -2.43526 0
M  V30 2954 O 272.601 -2.9562 -1.98715 0
M  V30 2955 O 271.46 -4.39055 -3.25412 0
M  V30 2956 H 268.554 -0.642625 -0.52054 0
M  V30 2957 H 271.1 -1.65353 -0.381625 0
M  V30 2958 H 269.872 -3.7243 -1.20048 0
M  V30 2959 H 269.495 -2.90968 -2.70968 0
M  V30 2960 N 270.492 0.636531 -1.44174 0
M  V30 2961 C 271.72 1.42353 -1.50144 0
M  V30 2962 C 272.135 1.88389 -0.124575 0
M  V30 2963 O 271.492 1.6051 0.868489 0
M  V30 2964 C 271.543 2.64744 -2.46156 0
M  V30 2965 O 271.264 2.20629 -3.7849 0
M  V30 2966 C 272.765 3.57929 -2.61537 0
M  V30 2967 H 269.985 0.436752 -0.5094 0
M  V30 2968 H 272.529 0.778933 -1.89084 0
M  V30 2969 H 270.684 3.25307 -2.10366 0
M  V30 2970 H 271.098 2.99938 -4.30276 0
M  V30 2971 H 272.572 4.40428 -3.32757 0
M  V30 2972 H 273.049 4.06382 -1.66585 0
M  V30 2973 H 273.655 3.03238 -2.98206 0
M  V30 2974 N 271.97 1.30982 0.876444 0
M  V30 2975 C 273.216 1.20474 1.63138 0
M  V30 2976 C 273.549 -0.238096 1.92735 0
M  V30 2977 O 272.824 -1.1692 1.55435 0
M  V30 2978 C 273.107 2.04244 2.96574 0
M  V30 2979 C 272.96 3.56793 2.73896 0
M  V30 2980 C 274.279 1.88684 3.97601 0
M  V30 2981 H 271.398 0.439001 0.591985 0
M  V30 2982 H 274.04 1.60704 1.01361 0
M  V30 2983 H 272.19 1.70063 3.493 0
M  V30 2984 H 273.862 4.01077 2.27892 0
M  V30 2985 H 272.105 3.80548 2.08245 0
M  V30 2986 H 272.776 4.10706 3.68815 0
M  V30 2987 H 275.252 2.18584 3.54062 0
M  V30 2988 H 274.128 2.4961 4.88862 0
M  V30 2989 H 274.389 0.848343 4.33884 0
M  V30 2990 N 273.449 -1.08991 1.13837 0
M  V30 2991 C 274.698 -1.80631 0.897509 0
M  V30 2992 C 275.011 -1.86872 -0.57777 0
M  V30 2993 O 276.217 -2.54866 -0.935701 0
M  V30 2994 C 274.673 -3.24517 1.55618 0
M  V30 2995 C 274.281 -3.26529 3.0673 0
M  V30 2996 C 276.025 -4.00882 1.3962 0
M  V30 2997 C 273.932 -4.64965 3.65461 0
M  V30 2998 H 272.862 -0.67691 0.332129 0
M  V30 2999 H 275.513 -1.2246 1.3666 0
M  V30 3000 H 273.895 -3.82778 1.01476 0
M  V30 3001 H 275.069 -2.78008 3.67489 0
M  V30 3002 H 273.384 -2.63656 3.22296 0
M  V30 3003 H 275.981 -5.03167 1.80906 0
M  V30 3004 H 276.324 -4.14896 0.341578 0
M  V30 3005 H 276.857 -3.49075 1.90766 0
M  V30 3006 H 273.596 -4.56153 4.70749 0
M  V30 3007 H 273.116 -5.13792 3.09481 0
M  V30 3008 H 274.795 -5.3394 3.654 0
M  V30 3009 N 274.927 -0.932562 -1.27047 0
M  V30 3010 C 276.157 -0.591173 -1.97961 0
M  V30 3011 C 276.565 0.836219 -1.69717 0
M  V30 3012 O 275.908 1.56801 -0.957036 0
M  V30 3013 C 275.97 -0.743082 -3.51736 0
M  V30 3014 C 275.634 -2.1435 -4.03613 0
M  V30 3015 C 276.631 -3.11815 -4.16014 0
M  V30 3016 C 274.316 -2.46175 -4.37839 0
M  V30 3017 C 276.31 -4.39211 -4.61923 0
M  V30 3018 C 273.997 -3.73806 -4.83438 0
M  V30 3019 C 274.995 -4.70137 -4.95439 0
M  V30 3020 O 274.683 -5.95496 -5.40037 0
M  V30 3021 H 274.415 -0.222375 -0.638377 0
M  V30 3022 H 276.969 -1.25317 -1.62742 0
M  V30 3023 H 275.199 -0.0239739 -3.86693 0
M  V30 3024 H 276.888 -0.40603 -4.03864 0
M  V30 3025 H 277.654 -2.88549 -3.89826 0
M  V30 3026 H 273.533 -1.71936 -4.27737 0
M  V30 3027 H 277.077 -5.14404 -4.71205 0
M  V30 3028 H 272.974 -3.96888 -5.09068 0
M  V30 3029 H 273.742 -5.98554 -5.58279 0
M  V30 3030 N 276.405 1.4127 -0.698611 0
M  V30 3031 C 277.635 2.05205 -0.239644 0
M  V30 3032 C 278.043 1.52684 1.11733 0
M  V30 3033 O 277.386 0.671222 1.70998 0
M  V30 3034 C 277.448 3.59289 -0.123126 0
M  V30 3035 C 277.112 4.34619 -1.41263 0
M  V30 3036 C 278.109 4.63701 -2.35111 0
M  V30 3037 C 275.794 4.73837 -1.66684 0
M  V30 3038 C 277.788 5.30966 -3.52639 0
M  V30 3039 C 275.475 5.40837 -2.84498 0
M  V30 3040 C 276.473 5.69329 -3.77298 0
M  V30 3041 O 276.161 6.34949 -4.93047 0
M  V30 3042 H 275.893 0.66723 -0.108537 0
M  V30 3043 H 278.447 1.81974 -0.952602 0
M  V30 3044 H 276.677 3.81272 0.645628 0
M  V30 3045 H 278.366 4.04797 0.299056 0
M  V30 3046 H 279.132 4.33882 -2.16729 0
M  V30 3047 H 275.011 4.51039 -0.953135 0
M  V30 3048 H 278.555 5.53121 -4.25091 0
M  V30 3049 H 274.452 5.70075 -3.02795 0
M  V30 3050 H 275.22 6.53445 -4.92902 0
M  V30 3051 N 277.883 0.443576 1.51229 0
M  V30 3052 C 278.793 -0.370721 2.31652 0
M  V30 3053 C 279.809 -1.02186 1.40833 0
M  V30 3054 O 280.985 -1.01586 1.73903 0
M  V30 3055 C 278.05 -1.45376 3.14749 0
M  V30 3056 C 277.111 -0.822099 4.21355 0
M  V30 3057 C 276.344 -1.85353 5.0048 0
M  V30 3058 O 276.567 -3.07656 4.80316 0
M  V30 3059 O 275.501 -1.4406 5.84406 0
M  V30 3060 H 279.327 0.286002 3.0235 0
M  V30 3061 H 276.912 0.20598 1.47973 0
M  V30 3062 H 278.794 -2.08173 3.66391 0
M  V30 3063 H 277.469 -2.09445 2.46809 0
M  V30 3064 H 276.376 -0.155909 3.73775 0
M  V30 3065 H 277.709 -0.224797 4.91686 0
M  V30 3066 N 279.361 -1.56624 0.175154 0
M  V30 3067 C 280.609 -1.96609 -0.467885 0
M  V30 3068 C 280.93 -1.06238 -1.63519 0
M  V30 3069 O 280.2 -0.129523 -1.95471 0
M  V30 3070 H 278.78 -0.726008 -0.175845 0
M  V30 3071 H 281.442 -1.93195 0.257234 0
M  V30 3072 H 280.538 -3.00989 -0.825342 0
M  V30 3073 N 280.839 0.0985539 -1.57292 0
M  V30 3074 C 282.116 0.834155 -1.76921 0
M  V30 3075 C 282.496 1.97101 -0.755928 0
M  V30 3076 O 281.844 2.27474 0.216245 0
M  V30 3077 C 282.054 1.33194 -3.22584 0
M  V30 3078 C 283.402 1.77611 -3.85668 0
M  V30 3079 O 284.426 1.42825 -3.26312 0
M  V30 3080 O 283.285 2.4192 -4.90038 0
M  V30 3081 H 280.379 0.397628 -0.725135 0
M  V30 3082 H 282.925 0.0807044 -1.69508 0
M  V30 3083 H 281.697 0.517248 -3.87866 0
M  V30 3084 H 281.32 2.1475 -3.34616 0
M  V30 3085 N 282.317 1.53212 0.369288 0
M  V30 3086 C 283.728 1.60943 0.946276 0
M  V30 3087 C 284.079 0.47452 1.90375 0
M  V30 3088 O 283.204 -0.399597 2.12679 0
M  V30 3089 C 283.799 2.91715 1.72302 0
M  V30 3090 C 282.358 3.01792 2.24941 0
M  V30 3091 C 281.505 2.56211 1.06072 0
M  V30 3092 H 284.456 1.58007 0.148198 0
M  V30 3093 H 284.477 2.79309 2.58393 0
M  V30 3094 H 283.989 3.74295 1.0259 0
M  V30 3095 H 282.09 2.23791 2.97906 0
M  V30 3096 H 282.203 4.06803 2.53077 0
M  V30 3097 H 280.567 2.10998 1.4266 0
M  V30 3098 H 281.35 3.41206 0.378639 0
M  V30 3099 N 283.795 -0.628877 1.44509 0
M  V30 3100 C 285.044 -1.38437 1.4669 0
M  V30 3101 C 285.357 -1.95322 0.104272 0
M  V30 3102 O 286.563 -2.715 0.00362163 0
M  V30 3103 C 285.019 -2.50659 2.5826 0
M  V30 3104 C 284.627 -2.00277 4.0074 0
M  V30 3105 C 286.371 -3.27844 2.69664 0
M  V30 3106 C 284.278 -3.09854 5.0373 0
M  V30 3107 H 283.208 -0.520245 0.545766 0
M  V30 3108 H 285.859 -0.676313 1.70582 0
M  V30 3109 H 284.241 -3.2405 2.27612 0
M  V30 3110 H 285.415 -1.33736 4.40966 0
M  V30 3111 H 283.73 -1.35901 3.93599 0
M  V30 3112 H 286.327 -4.09534 3.43781 0
M  V30 3113 H 286.67 -3.77471 1.75559 0
M  V30 3114 H 287.203 -2.61543 2.99733 0
M  V30 3115 H 283.942 -2.65168 5.99472 0
M  V30 3116 H 283.462 -3.7503 4.68095 0
M  V30 3117 H 285.141 -3.74592 5.27532 0
M  V30 3118 N 285.273 -1.31445 -0.869486 0
M  V30 3119 C 286.22 -1.19135 -1.97675 0
M  V30 3120 C 287.19 -0.0770266 -1.65921 0
M  V30 3121 O 288.375 -0.249972 -1.89155 0
M  V30 3122 C 285.515 -0.905149 -3.33018 0
M  V30 3123 C 284.628 -2.10285 -3.77365 0
M  V30 3124 C 283.763 -1.75339 -5.01427 0
M  V30 3125 C 282.802 -2.91515 -5.38224 0
M  V30 3126 N 281.939 -2.56762 -6.53466 0
M  V30 3127 H 286.779 -2.13853 -2.07535 0
M  V30 3128 H 284.316 -1.06379 -1.01597 0
M  V30 3129 H 286.274 -0.719765 -4.10944 0
M  V30 3130 H 284.904 0.00519624 -3.228 0
M  V30 3131 H 283.956 -2.39899 -2.95216 0
M  V30 3132 H 285.268 -2.97237 -4.00564 0
M  V30 3133 H 284.422 -1.53266 -5.87022 0
M  V30 3134 H 283.161 -0.855801 -4.80133 0
M  V30 3135 H 282.166 -3.14237 -4.51149 0
M  V30 3136 H 283.391 -3.81985 -5.61484 0
M  V30 3137 H 281.337 -1.69526 -6.33717 0
M  V30 3138 H 281.254 -3.37243 -6.76612 0
M  V30 3139 H 282.522 -2.38083 -7.42251 0
M  V30 3140 N 286.751 1.08385 -1.14413 0
M  V30 3141 C 288.167 1.32844 -0.884563 0
M  V30 3142 C 288.367 1.95841 0.474181 0
M  V30 3143 O 287.423 2.21158 1.21842 0
M  V30 3144 C 288.736 2.22978 -2.01745 0
M  V30 3145 C 290.284 2.36458 -2.05077 0
M  V30 3146 C 290.759 3.29934 -3.1766 0
M  V30 3147 N 292.25 3.37511 -3.17239 0
M  V30 3148 C 292.985 4.09871 -4.0099 0
M  V30 3149 N 292.481 4.84936 -4.94781 0
M  V30 3150 N 294.274 4.05704 -3.89051 0
M  V30 3151 H 286.425 0.658756 -2.01926 0
M  V30 3152 H 288.688 0.352821 -0.879899 0
M  V30 3153 H 288.394 1.83934 -2.99769 0
M  V30 3154 H 288.268 3.23441 -1.94077 0
M  V30 3155 H 290.655 2.7476 -1.0766 0
M  V30 3156 H 290.736 1.35736 -2.16816 0
M  V30 3157 H 290.38 2.92352 -4.15322 0
M  V30 3158 H 290.31 4.30584 -3.03158 0
M  V30 3159 H 292.801 2.83996 -2.49308 0
M  V30 3160 H 293.114 5.37612 -5.55151 0
M  V30 3161 H 291.459 4.83988 -4.98779 0
M  V30 3162 H 294.65 3.46167 -3.15097 0
M  V30 3163 H 294.823 4.61834 -4.54547 0
M  V30 3164 N 288.23 0.939286 1.26551 0
M  V30 3165 C 289.507 0.5038 1.89001 0
M  V30 3166 C 289.887 -1.01854 1.84903 0
M  V30 3167 O 289.235 -1.87773 1.30206 0
M  V30 3168 C 289.445 1.063 3.32417 0
M  V30 3169 C 290.793 1.13051 4.09273 0
M  V30 3170 O 291.817 1.01345 3.41479 0
M  V30 3171 O 290.676 1.31233 5.30509 0
M  V30 3172 H 287.77 0.163897 0.810597 0
M  V30 3173 H 290.316 1.03173 1.34735 0
M  V30 3174 H 289.088 2.10665 3.29752 0
M  V30 3175 H 288.711 0.517408 3.94219 0
M  V30 3176 N 289.708 -1.40897 0.706093 0
M  V30 3177 C 290.985 -1.94868 0.169099 0
M  V30 3178 C 291.365 -1.64485 -1.32318 0
M  V30 3179 O 290.713 -0.95744 -2.07474 0
M  V30 3180 C 290.923 -3.45798 0.471654 0
M  V30 3181 C 292.271 -4.22663 0.405127 0
M  V30 3182 O 293.295 -3.53865 0.407168 0
M  V30 3183 O 292.154 -5.45216 0.374383 0
M  V30 3184 H 289.248 -0.82673 0.0211352 0
M  V30 3185 H 291.794 -1.50558 0.782976 0
M  V30 3186 H 290.566 -3.61235 1.50416 0
M  V30 3187 H 290.189 -3.97225 -0.172666 0
M  V30 3188 N 291.186 -0.45159 -1.50991 0
M  V30 3189 C 292.096 0.358431 -2.31846 0
M  V30 3190 C 293.112 1.01438 -1.41373 0
M  V30 3191 O 294.288 1.00663 -1.74439 0
M  V30 3192 C 291.353 1.43704 -3.15515 0
M  V30 3193 C 290.414 0.799742 -4.21785 0
M  V30 3194 C 289.647 1.82696 -5.01456 0
M  V30 3195 O 289.87 3.05105 -4.81941 0
M  V30 3196 O 288.804 1.40958 -5.85162 0
M  V30 3197 H 292.63 -0.302032 -3.02194 0
M  V30 3198 H 290.215 -0.213825 -1.47862 0
M  V30 3199 H 292.097 2.06227 -3.67489 0
M  V30 3200 H 290.772 2.08133 -2.47916 0
M  V30 3201 H 289.679 0.136084 -3.73852 0
M  V30 3202 H 291.012 0.198718 -4.91799 0
M  V30 3203 N 292.664 1.56529 -0.183458 0
M  V30 3204 C 293.574 2.22144 0.754272 0
M  V30 3205 C 294.59 1.21684 1.24374 0
M  V30 3206 O 295.766 1.54385 1.29333 0
M  V30 3207 C 292.831 2.85884 1.96141 0
M  V30 3208 C 291.892 4.01579 1.51765 0
M  V30 3209 C 291.125 4.6227 2.66725 0
M  V30 3210 O 291.348 4.21865 3.83909 0
M  V30 3211 O 290.282 5.51936 2.40104 0
M  V30 3212 H 294.108 3.02861 0.225527 0
M  V30 3213 H 291.693 1.49331 0.0453032 0
M  V30 3214 H 293.575 3.26253 2.66715 0
M  V30 3215 H 292.25 2.08154 2.47899 0
M  V30 3216 H 291.157 3.65856 0.781049 0
M  V30 3217 H 292.49 4.80938 1.04686 0
M  V30 3218 N 294.142 -0.090211 1.57342 0
M  V30 3219 C 295.089 -1.10909 2.02405 0
M  V30 3220 C 296.059 -1.39523 0.901252 0
M  V30 3221 O 297.244 -1.50903 1.1676 0
M  V30 3222 C 294.384 -2.42277 2.45755 0
M  V30 3223 C 293.497 -2.20352 3.71576 0
M  V30 3224 C 292.632 -3.45154 4.03785 0
M  V30 3225 C 291.671 -3.18512 5.22701 0
M  V30 3226 N 290.808 -4.35593 5.50639 0
M  V30 3227 H 295.648 -0.71782 2.89225 0
M  V30 3228 H 293.185 -0.342901 1.43048 0
M  V30 3229 H 295.143 -3.18951 2.68935 0
M  V30 3230 H 293.773 -2.79242 1.61938 0
M  V30 3231 H 292.825 -1.34458 3.55844 0
M  V30 3232 H 294.137 -1.96661 4.58395 0
M  V30 3233 H 293.291 -4.30233 4.27767 0
M  V30 3234 H 292.03 -3.71904 3.15498 0
M  V30 3235 H 291.035 -2.31827 4.98534 0
M  V30 3236 H 292.26 -2.93103 6.12591 0
M  V30 3237 H 290.206 -4.6241 4.6531 0
M  V30 3238 H 290.123 -4.1511 6.31838 0
M  V30 3239 H 291.391 -5.21723 5.7916 0
M  V30 3240 N 295.62 -1.53406 -0.361157 0
M  V30 3241 C 296.55 -1.83136 -1.44857 0
M  V30 3242 C 297.531 -0.685174 -1.5569 0
M  V30 3243 O 298.716 -0.93544 -1.70186 0
M  V30 3244 C 295.846 -2.02522 -2.82138 0
M  V30 3245 C 294.8 -3.18302 -2.86126 0
M  V30 3246 C 294.126 -3.22989 -4.26125 0
M  V30 3247 C 295.426 -4.56796 -2.53248 0
M  V30 3248 H 297.12 -2.74201 -1.20226 0
M  V30 3249 H 294.666 -1.31938 -0.576922 0
M  V30 3250 H 296.619 -2.21904 -3.58241 0
M  V30 3251 H 295.343 -1.08172 -3.08166 0
M  V30 3252 H 294.002 -2.98747 -2.12475 0
M  V30 3253 H 293.65 -2.26267 -4.49235 0
M  V30 3254 H 293.35 -4.00781 -4.29708 0
M  V30 3255 H 294.874 -3.44559 -5.04094 0
M  V30 3256 H 296.288 -4.7631 -3.19064 0
M  V30 3257 H 294.685 -5.36862 -2.68141 0
M  V30 3258 H 295.755 -4.61606 -1.48484 0
M  V30 3259 N 297.098 0.621204 -1.44841 0
M  V30 3260 C 298.375 1.38 -1.38619 0
M  V30 3261 C 298.755 2.11041 -0.0498935 0
M  V30 3262 O 298.103 2.06992 0.967816 0
M  V30 3263 C 298.313 2.33817 -2.59096 0
M  V30 3264 C 299.661 2.96844 -3.03593 0
M  V30 3265 O 300.685 2.44141 -2.59371 0
M  V30 3266 O 299.544 3.92476 -3.80296 0
M  V30 3267 H 296.638 0.61811 -0.549426 0
M  V30 3268 H 299.184 0.645429 -1.56947 0
M  V30 3269 H 297.956 1.79012 -3.47952 0
M  V30 3270 H 297.579 3.14676 -2.43032 0
M  V30 3271 N 298.576 1.31904 0.862503 0
M  V30 3272 C 299.486 1.22161 2.00285 0
M  V30 3273 C 300.502 0.136785 1.73462 0
M  V30 3274 O 301.678 0.355994 1.98229 0
M  V30 3275 C 298.743 0.937093 3.33796 0
M  V30 3276 C 297.804 2.10957 3.73893 0
M  V30 3277 C 297.037 1.83853 5.01033 0
M  V30 3278 O 297.26 0.777274 5.65079 0
M  V30 3279 O 296.194 2.69741 5.38074 0
M  V30 3280 H 300.02 2.18008 2.11439 0
M  V30 3281 H 297.605 1.11716 0.991957 0
M  V30 3282 H 299.487 0.794583 4.13841 0
M  V30 3283 H 298.162 0.00871894 3.23699 0
M  V30 3284 H 297.069 2.30752 2.94456 0
M  V30 3285 H 298.402 3.02046 3.88625 0
M  V30 3286 N 300.054 -1.07777 1.14986 0
M  V30 3287 C 301.303 -1.79669 0.916617 0
M  V30 3288 C 301.616 -1.87474 -0.557917 0
M  V30 3289 O 302.822 -2.55845 -0.908617 0
M  V30 3290 C 301.278 -3.22848 1.59051 0
M  V30 3291 C 300.886 -3.23257 3.10176 0
M  V30 3292 C 302.63 -3.99379 1.43864 0
M  V30 3293 C 300.537 -4.61063 3.70372 0
M  V30 3294 H 299.467 -0.673349 0.33929 0
M  V30 3295 H 302.118 -1.21003 1.37951 0
M  V30 3296 H 300.5 -3.8168 1.0553 0
M  V30 3297 H 301.674 -2.74095 3.70417 0
M  V30 3298 H 299.989 -2.60222 3.25074 0
M  V30 3299 H 302.586 -5.0122 1.86232 0
M  V30 3300 H 302.929 -4.14511 0.385564 0
M  V30 3301 H 303.462 -3.47032 1.94457 0
M  V30 3302 H 300.201 -4.51135 4.7556 0
M  V30 3303 H 299.721 -5.1048 3.14913 0
M  V30 3304 H 301.4 -5.30034 3.71043 0
M  V30 3305 N 301.532 -0.945985 -1.26051 0
M  V30 3306 C 302.78 -0.594941 -1.93145 0
M  V30 3307 C 303.101 0.86953 -1.7454 0
M  V30 3308 O 302.371 1.61838 -1.10387 0
M  V30 3309 H 300.951 -0.217044 -0.714773 0
M  V30 3310 H 303.613 -1.20235 -1.53393 0
M  V30 3311 H 302.709 -0.816835 -3.01221 0
M  V30 3312 N 303.011 1.40521 -0.713556 0
M  V30 3313 C 304.241 2.0494 -0.261395 0
M  V30 3314 C 304.649 1.53861 1.10107 0
M  V30 3315 O 303.992 0.689321 1.70276 0
M  V30 3316 C 304.054 3.59138 -0.161227 0
M  V30 3317 C 303.718 4.33096 -1.45865 0
M  V30 3318 C 304.715 4.61182 -2.40016 0
M  V30 3319 C 302.4 4.72043 -1.71701 0
M  V30 3320 C 304.394 5.27196 -3.58251 0
M  V30 3321 C 302.081 5.37789 -2.90218 0
M  V30 3322 C 303.079 5.65295 -3.83315 0
M  V30 3323 O 302.767 6.29683 -4.99754 0
M  V30 3324 H 302.499 0.666041 -0.115608 0
M  V30 3325 H 305.053 1.80954 -0.971849 0
M  V30 3326 H 303.283 3.81936 0.605153 0
M  V30 3327 H 304.972 4.05091 0.256105 0
M  V30 3328 H 305.738 4.31559 -2.21318 0
M  V30 3329 H 301.617 4.50003 -1.00092 0
M  V30 3330 H 305.161 5.48582 -4.30934 0
M  V30 3331 H 301.058 5.66831 -3.08825 0
M  V30 3332 H 301.826 6.4818 -4.99805 0
M  V30 3333 N 304.489 0.459591 1.5075 0
M  V30 3334 C 305.766 -0.160371 1.94941 0
M  V30 3335 C 306.146 -1.58048 1.39943 0
M  V30 3336 O 305.494 -2.206 0.595629 0
M  V30 3337 C 305.704 -0.115432 3.48809 0
M  V30 3338 C 307.052 -0.310026 4.23467 0
M  V30 3339 O 308.076 -0.192543 3.55679 0
M  V30 3340 O 306.935 -0.546031 5.43765 0
M  V30 3341 H 304.029 -0.117925 0.818549 0
M  V30 3342 H 306.575 0.519169 1.61563 0
M  V30 3343 H 305.347 0.87652 3.81357 0
M  V30 3344 H 304.97 -0.836928 3.88692 0
M  V30 3345 N 305.967 -1.56429 0.191757 0
M  V30 3346 C 307.244 -1.89224 -0.495332 0
M  V30 3347 C 307.624 -1.10478 -1.79883 0
M  V30 3348 O 306.972 -0.204852 -2.2758 0
M  V30 3349 C 307.182 -3.41548 -0.717367 0
M  V30 3350 C 308.53 -4.11711 -1.03823 0
M  V30 3351 O 309.554 -3.4698 -0.805204 0
M  V30 3352 O 308.413 -5.2611 -1.47887 0
M  V30 3353 H 305.507 -0.785788 -0.25781 0
M  V30 3354 H 308.053 -1.68111 0.231721 0
M  V30 3355 H 306.825 -3.90772 0.203287 0
M  V30 3356 H 306.448 -3.68342 -1.497 0
M  V30 3357 N 307.445 0.0818655 -1.57387 0
M  V30 3358 C 308.694 0.781681 -1.85937 0
M  V30 3359 C 309.007 1.79246 -0.782957 0
M  V30 3360 O 310.213 2.54112 -0.955987 0
M  V30 3361 C 308.669 1.44109 -3.29789 0
M  V30 3362 C 308.277 0.469396 -4.45534 0
M  V30 3363 C 310.021 2.12386 -3.67549 0
M  V30 3364 C 307.928 1.13415 -5.80423 0
M  V30 3365 H 306.858 0.295682 -0.693605 0
M  V30 3366 H 309.509 0.0348051 -1.83467 0
M  V30 3367 H 307.891 2.23588 -3.2684 0
M  V30 3368 H 309.065 -0.294856 -4.59856 0
M  V30 3369 H 307.38 -0.108383 -4.16259 0
M  V30 3370 H 309.977 2.62878 -4.65617 0
M  V30 3371 H 310.32 2.91877 -2.96839 0
M  V30 3372 H 310.853 1.39751 -3.72444 0
M  V30 3373 H 307.592 0.379771 -6.54399 0
M  V30 3374 H 307.112 1.8695 -5.69921 0
M  V30 3375 H 308.791 1.65686 -6.25426 0
M  V30 3376 N 308.923 1.53595 0.353017 0
M  V30 3377 C 310.171 1.70049 1.09215 0
M  V30 3378 C 310.492 0.461406 1.89463 0
M  V30 3379 O 309.762 -0.524633 1.88744 0
M  V30 3380 H 308.342 0.626912 0.40619 0
M  V30 3381 H 311.004 1.90822 0.396585 0
M  V30 3382 H 310.1 2.56718 1.77488 0
M  V30 3383 N 310.401 -0.613514 1.45168 0
M  V30 3384 C 311.649 -1.36997 1.48581 0
M  V30 3385 C 311.97 -1.94589 0.126545 0
M  V30 3386 O 311.24 -1.76816 -0.843372 0
M  V30 3387 H 309.82 -0.508558 0.547154 0
M  V30 3388 H 312.482 -0.720853 1.81079 0
M  V30 3389 H 311.578 -2.1924 2.22127 0
M  V30 3390 N 311.879 -1.3236 -0.855495 0
M  V30 3391 C 313.119 -1.24187 -1.62348 0
M  V30 3392 C 313.483 0.193597 -1.91021 0
M  V30 3393 O 314.684 0.39904 -2.65822 0
M  V30 3394 C 312.955 -2.07661 -2.90881 0
M  V30 3395 S 314.514 -2.16505 -3.81669 0
M  V30 3396 H 311.332 -0.442076 -0.556857 0
M  V30 3397 H 313.934 -1.67198 -1.01317 0
M  V30 3398 H 312.638 -3.11018 -2.67761 0
M  V30 3399 H 312.169 -1.65425 -3.56929 0
M  V30 3400 H 314.184 -1.31394 -4.78487 0
M  V30 3401 N 313.357 1.07166 -1.15556 0
M  V30 3402 C 314.304 2.14417 -0.854055 0
M  V30 3403 C 315.274 1.64965 0.193806 0
M  V30 3404 O 316.459 1.90703 0.0609443 0
M  V30 3405 C 313.599 3.43304 -0.351574 0
M  V30 3406 C 312.712 4.06537 -1.46123 0
M  V30 3407 C 311.847 5.23266 -0.914677 0
M  V30 3408 C 310.886 5.78464 -2.00114 0
M  V30 3409 N 310.023 6.86521 -1.47083 0
M  V30 3410 H 314.863 2.39548 -1.77259 0
M  V30 3411 H 312.4 1.17543 -0.884425 0
M  V30 3412 H 314.358 4.17179 -0.0419409 0
M  V30 3413 H 312.988 3.18419 0.530037 0
M  V30 3414 H 312.04 3.30297 -1.88701 0
M  V30 3415 H 313.352 4.43567 -2.28144 0
M  V30 3416 H 312.506 6.04131 -0.557698 0
M  V30 3417 H 311.245 4.87658 -0.0636583 0
M  V30 3418 H 310.25 4.96243 -2.36692 0
M  V30 3419 H 311.475 6.16126 -2.85597 0
M  V30 3420 H 309.421 6.52849 -0.642198 0
M  V30 3421 H 309.338 7.22446 -2.22729 0
M  V30 3422 H 310.606 7.71087 -1.14215 0
M  V30 3423 N 314.835 0.952656 1.25548 0
M  V30 3424 C 315.782 0.47008 2.25962 0
M  V30 3425 C 316.752 -0.476384 1.59122 0
M  V30 3426 O 317.937 -0.39007 1.8677 0
M  V30 3427 C 315.077 -0.247881 3.44209 0
M  V30 3428 C 314.19 0.735591 4.25691 0
M  V30 3429 C 313.325 -0.0047306 5.312 0
M  V30 3430 C 312.364 0.969805 6.04368 0
M  V30 3431 N 311.501 0.260486 7.01617 0
M  V30 3432 H 316.341 1.33126 2.66611 0
M  V30 3433 H 313.878 0.66765 1.31076 0
M  V30 3434 H 315.836 -0.680695 4.1161 0
M  V30 3435 H 314.466 -1.07312 3.0444 0
M  V30 3436 H 313.518 1.28689 3.57971 0
M  V30 3437 H 314.83 1.47934 4.76358 0
M  V30 3438 H 313.984 -0.496275 6.04667 0
M  V30 3439 H 312.723 -0.781282 4.81401 0
M  V30 3440 H 311.728 1.47237 5.29718 0
M  V30 3441 H 312.953 1.74655 6.56256 0
M  V30 3442 H 310.899 -0.497364 6.54112 0
M  V30 3443 H 310.816 0.943362 7.50091 0
M  V30 3444 H 312.084 -0.209587 7.79218 0
M  V30 3445 N 316.313 -1.40141 0.720998 0
M  V30 3446 C 317.245 -2.29177 0.0324669 0
M  V30 3447 C 318.258 -1.46105 -0.718126 0
M  V30 3448 O 319.447 -1.69335 -0.564608 0
M  V30 3449 C 316.547 -3.24473 -0.978292 0
M  V30 3450 C 315.72 -4.36423 -0.292115 0
M  V30 3451 C 314.779 -5.12122 -1.20901 0
M  V30 3452 O 313.805 -5.64981 -0.691766 0
M  V30 3453 N 315.007 -5.21992 -2.53978 0
M  V30 3454 H 317.772 -2.88909 0.796984 0
M  V30 3455 H 315.333 -1.51569 0.569068 0
M  V30 3456 H 317.325 -3.71987 -1.59398 0
M  V30 3457 H 315.895 -2.65871 -1.64413 0
M  V30 3458 H 315.115 -3.90967 0.503847 0
M  V30 3459 H 316.403 -5.08467 0.183971 0
M  V30 3460 H 315.801 -4.8054 -2.98493 0
M  V30 3461 H 314.358 -5.72995 -3.10677 0
M  V30 3462 N 317.792 -0.46758 -1.50504 0
M  V30 3463 C 318.722 0.318381 -2.31319 0
M  V30 3464 C 319.703 0.993564 -1.38066 0
M  V30 3465 O 320.888 0.991411 -1.66987 0
M  V30 3466 C 318.018 1.40275 -3.17711 0
M  V30 3467 C 316.972 0.849373 -4.19487 0
M  V30 3468 C 316.298 2.03177 -4.94594 0
M  V30 3469 C 317.598 -0.136942 -5.2212 0
M  V30 3470 H 319.292 -0.356106 -2.97275 0
M  V30 3471 H 316.838 -0.172703 -1.42961 0
M  V30 3472 H 318.791 1.96004 -3.73042 0
M  V30 3473 H 317.515 2.10596 -2.49634 0
M  V30 3474 H 316.174 0.314076 -3.65252 0
M  V30 3475 H 315.822 2.72187 -4.22993 0
M  V30 3476 H 315.522 1.66774 -5.63436 0
M  V30 3477 H 317.046 2.59403 -5.52759 0
M  V30 3478 H 318.46 0.331056 -5.72343 0
M  V30 3479 H 316.857 -0.41507 -5.98663 0
M  V30 3480 H 317.927 -1.06398 -4.73083 0
M  V30 3481 N 319.27 1.56325 -0.20005 0
M  V30 3482 C 320.233 2.18084 0.705132 0
M  V30 3483 C 321.233 1.13666 1.1374 0
M  V30 3484 O 322.423 1.39023 1.04968 0
M  V30 3485 C 319.555 2.78689 1.96329 0
M  V30 3486 H 320.748 2.99435 0.167023 0
M  V30 3487 H 318.301 1.56221 0.0495725 0
M  V30 3488 H 319.036 2.0115 2.5438 0
M  V30 3489 H 318.821 3.55133 1.66202 0
M  V30 3490 H 320.311 3.26096 2.60866 0
M  V30 3491 N 320.748 -0.0735177 1.57428 0
M  V30 3492 C 321.68 -1.11423 2.00294 0
M  V30 3493 C 322.693 -1.35084 0.908637 0
M  V30 3494 O 323.882 -1.33355 1.18654 0
M  V30 3495 C 320.982 -2.46548 2.32523 0
M  V30 3496 C 320.155 -2.42867 3.63778 0
M  V30 3497 C 319.214 -3.60087 3.83697 0
M  V30 3498 O 318.24 -3.41595 4.55304 0
M  V30 3499 N 319.442 -4.80372 3.25919 0
M  V30 3500 H 322.207 -0.749206 2.90184 0
M  V30 3501 H 319.768 -0.262195 1.59763 0
M  V30 3502 H 321.76 -3.23607 2.43024 0
M  V30 3503 H 320.33 -2.75059 1.48531 0
M  V30 3504 H 319.55 -1.51206 3.64047 0
M  V30 3505 H 320.838 -2.37506 4.49965 0
M  V30 3506 H 320.236 -4.983 2.67795 0
M  V30 3507 H 318.793 -5.54948 3.41871 0
M  V30 3508 N 322.226 -1.5378 -0.344866 0
M  V30 3509 C 323.475 -1.7018 -1.08267 0
M  V30 3510 C 323.788 -0.471 -1.89845 0
M  V30 3511 O 324.994 -0.515917 -2.66553 0
M  V30 3512 C 323.45 -3.00923 -1.97417 0
M  V30 3513 C 323.058 -4.31335 -1.21053 0
M  V30 3514 C 324.802 -3.26688 -2.71063 0
M  V30 3515 C 322.709 -5.53153 -2.09225 0
M  V30 3516 H 321.639 -0.634138 -0.407903 0
M  V30 3517 H 324.29 -1.8028 -0.342246 0
M  V30 3518 H 322.672 -2.84676 -2.75274 0
M  V30 3519 H 323.846 -4.58281 -0.481159 0
M  V30 3520 H 322.161 -4.12173 -0.591813 0
M  V30 3521 H 324.758 -4.1489 -3.37299 0
M  V30 3522 H 325.101 -2.43639 -3.37558 0
M  V30 3523 H 325.634 -3.43705 -2.0028 0
M  V30 3524 H 322.373 -6.38741 -1.47274 0
M  V30 3525 H 321.893 -5.30458 -2.79955 0
M  V30 3526 H 323.572 -5.88744 -2.68308 0
M  V30 3527 N 323.704 0.605807 -1.45491 0
M  V30 3528 C 325.12 0.926751 -1.29936 0
M  V30 3529 C 325.32 1.99896 -0.253706 0
M  V30 3530 O 324.376 2.50038 0.351737 0
M  V30 3531 C 325.689 1.36599 -2.67883 0
M  V30 3532 C 327.237 1.4801 -2.75793 0
M  V30 3533 C 327.712 1.95309 -4.14268 0
M  V30 3534 N 329.203 2.0254 -4.16571 0
M  V30 3535 C 329.938 2.40363 -5.20589 0
M  V30 3536 N 329.434 2.77143 -6.34952 0
M  V30 3537 N 331.227 2.40718 -5.07948 0
M  V30 3538 H 323.378 -0.102862 -2.12151 0
M  V30 3539 H 325.641 0.016639 -0.947854 0
M  V30 3540 H 325.347 0.652306 -3.45598 0
M  V30 3541 H 325.221 2.33215 -2.96463 0
M  V30 3542 H 327.608 2.1847 -1.98381 0
M  V30 3543 H 327.689 0.497041 -2.50925 0
M  V30 3544 H 327.333 1.25436 -4.92167 0
M  V30 3545 H 327.263 2.94532 -4.3653 0
M  V30 3546 H 329.754 1.76699 -3.34045 0
M  V30 3547 H 330.067 3.0489 -7.10114 0
M  V30 3548 H 328.412 2.74834 -6.3835 0
M  V30 3549 H 331.603 2.11392 -4.1765 0
M  V30 3550 H 331.776 2.69869 -5.89131 0
M  V30 3551 N 325.182 1.32811 0.848464 0
M  V30 3552 C 326.092 1.24278 1.98978 0
M  V30 3553 C 327.108 0.155176 1.73307 0
M  V30 3554 O 328.284 0.376999 1.9784 0
M  V30 3555 C 325.349 0.972444 3.32783 0
M  V30 3556 C 324.41 2.14911 3.71634 0
M  V30 3557 C 323.643 1.89157 4.99054 0
M  V30 3558 O 323.866 0.837165 5.64223 0
M  V30 3559 O 322.8 2.75433 5.35183 0
M  V30 3560 H 326.626 2.20238 2.09115 0
M  V30 3561 H 324.211 1.12762 0.980052 0
M  V30 3562 H 326.093 0.838432 4.12975 0
M  V30 3563 H 324.768 0.043051 3.23671 0
M  V30 3564 H 323.675 2.33862 2.91992 0
M  V30 3565 H 325.008 3.06151 3.85399 0
M  V30 3566 N 326.66 -1.06551 1.16123 0
M  V30 3567 C 327.593 -2.13382 0.80892 0
M  V30 3568 C 328.571 -1.61128 -0.21827 0
M  V30 3569 O 329.755 -1.88219 -0.102952 0
M  V30 3570 C 326.882 -3.38083 0.204303 0
M  V30 3571 C 325.928 -4.09133 1.20469 0
M  V30 3572 S 326.761 -4.5948 2.75024 0
M  V30 3573 C 327.917 -5.87446 2.16005 0
M  V30 3574 H 328.15 -2.42937 1.71373 0
M  V30 3575 H 325.683 -1.18947 0.984428 0
M  V30 3576 H 327.641 -4.10268 -0.138081 0
M  V30 3577 H 326.302 -3.0669 -0.678234 0
M  V30 3578 H 325.495 -4.98685 0.730019 0
M  V30 3579 H 325.097 -3.4295 1.49202 0
M  V30 3580 H 327.389 -6.60065 1.5271 0
M  V30 3581 H 328.332 -6.39639 3.03756 0
M  V30 3582 H 328.74 -5.41354 1.59989 0
M  V30 3583 N 328.138 -0.959301 -1.25041 0
M  V30 3584 C 329.387 -0.612254 -1.92183 0
M  V30 3585 C 329.7 0.855347 -1.75907 0
M  V30 3586 O 330.906 1.31256 -2.37664 0
M  V30 3587 C 329.362 -1.04435 -3.44414 0
M  V30 3588 C 328.97 -2.53482 -3.69393 0
M  V30 3589 C 330.714 -0.770055 -4.17457 0
M  V30 3590 C 328.621 -2.90468 -5.15153 0
M  V30 3591 H 327.551 -0.225279 -0.719559 0
M  V30 3592 H 330.202 -1.16438 -1.41825 0
M  V30 3593 H 328.584 -0.4206 -3.9376 0
M  V30 3594 H 329.758 -3.20916 -3.30681 0
M  V30 3595 H 328.073 -2.78432 -3.0962 0
M  V30 3596 H 330.67 -1.02249 -5.24832 0
M  V30 3597 H 331.013 0.293611 -4.15263 0
M  V30 3598 H 331.546 -1.35437 -3.74034 0
M  V30 3599 H 328.285 -3.95871 -5.22462 0
M  V30 3600 H 327.805 -2.27711 -5.54894 0
M  V30 3601 H 329.484 -2.79914 -5.83315 0
M  V30 3602 N 329.616 1.39756 -0.72842 0
M  V30 3603 C 330.526 2.34444 -0.0855374 0
M  V30 3604 C 331.542 1.57976 0.729356 0
M  V30 3605 O 332.718 1.90301 0.659346 0
M  V30 3606 C 329.783 3.36965 0.815798 0
M  V30 3607 C 328.844 4.29299 -0.0105996 0
M  V30 3608 C 328.077 5.26923 0.84781 0
M  V30 3609 O 328.3 5.30859 2.08673 0
M  V30 3610 O 327.234 6.01249 0.279969 0
M  V30 3611 H 331.06 2.91065 -0.866892 0
M  V30 3612 H 328.645 1.4117 -0.48902 0
M  V30 3613 H 330.527 3.99804 1.33171 0
M  V30 3614 H 329.202 2.82739 1.57608 0
M  V30 3615 H 328.109 3.69703 -0.571877 0
M  V30 3616 H 329.442 4.86712 -0.73295 0
M  V30 3617 N 331.094 0.475555 1.50254 0
M  V30 3618 C 332.024 -0.30611 2.31485 0
M  V30 3619 C 333.005 -0.986228 1.38591 0
M  V30 3620 O 334.19 -0.982541 1.67511 0
M  V30 3621 C 331.32 -1.38588 3.1845 0
M  V30 3622 C 330.274 -0.827115 4.19932 0
M  V30 3623 C 329.6 -2.00551 4.95665 0
M  V30 3624 C 330.9 0.16463 5.2204 0
M  V30 3625 H 332.594 0.371866 2.97082 0
M  V30 3626 H 330.14 0.180282 1.42867 0
M  V30 3627 H 332.093 -1.94023 3.74076 0
M  V30 3628 H 330.817 -2.09269 2.50747 0
M  V30 3629 H 329.476 -0.294702 3.65414 0
M  V30 3630 H 329.124 -2.6994 4.2443 0
M  V30 3631 H 328.824 -1.63784 5.64313 0
M  V30 3632 H 330.348 -2.56468 5.54127 0
M  V30 3633 H 331.762 -0.300699 5.72511 0
M  V30 3634 H 330.159 0.446813 5.98434 0
M  V30 3635 H 331.229 1.08905 4.72512 0
M  V30 3636 N 332.573 -1.56217 0.208337 0
M  V30 3637 C 333.984 -1.84243 -0.301904 0
M  V30 3638 C 334.335 -1.12939 -1.60434 0
M  V30 3639 O 333.46 -0.39461 -2.12772 0
M  V30 3640 C 334.055 -3.34231 -0.554543 0
M  V30 3641 C 332.614 -3.62621 -1.00912 0
M  V30 3642 C 331.761 -2.77224 -0.064933 0
M  V30 3643 H 334.712 -1.52712 0.431833 0
M  V30 3644 H 334.733 -3.5372 -1.40223 0
M  V30 3645 H 334.245 -3.86099 0.393561 0
M  V30 3646 H 332.346 -3.16197 -1.97104 0
M  V30 3647 H 332.459 -4.7071 -0.892674 0
M  V30 3648 H 330.823 -2.48256 -0.56929 0
M  V30 3649 H 331.606 -3.31887 0.877851 0
M  V30 3650 N 334.051 0.0651679 -1.57465 0
M  V30 3651 C 334.981 1.07693 -2.07182 0
M  V30 3652 C 335.962 1.39962 -0.966673 0
M  V30 3653 O 337.147 1.49475 -1.2398 0
M  V30 3654 C 334.277 2.3885 -2.52127 0
M  V30 3655 C 333.231 2.20917 -3.66579 0
M  V30 3656 C 332.557 3.57515 -3.97601 0
M  V30 3657 C 333.857 1.62493 -4.9638 0
M  V30 3658 H 335.551 0.663199 -2.91962 0
M  V30 3659 H 333.097 0.317569 -1.40455 0
M  V30 3660 H 335.05 3.09928 -2.85522 0
M  V30 3661 H 333.774 2.82215 -1.64384 0
M  V30 3662 H 332.433 1.52279 -3.33477 0
M  V30 3663 H 332.081 3.98463 -3.06979 0
M  V30 3664 H 331.781 3.46353 -4.74672 0
M  V30 3665 H 333.305 4.30013 -4.33499 0
M  V30 3666 H 334.719 2.23445 -5.27963 0
M  V30 3667 H 333.116 1.62009 -5.77818 0
M  V30 3668 H 334.186 0.587041 -4.81333 0
M  V30 3669 N 335.529 1.53961 0.336706 0
M  V30 3670 C 336.945 1.44378 0.680241 0
M  V30 3671 C 337.145 0.606034 1.9217 0
M  V30 3672 O 336.201 0.099688 2.52303 0
M  V30 3673 C 337.514 2.87945 0.8665 0
M  V30 3674 C 339.062 2.97763 0.964682 0
M  V30 3675 C 339.537 4.42453 1.18321 0
M  V30 3676 N 341.028 4.46008 1.25025 0
M  V30 3677 C 341.763 5.55102 1.43697 0
M  V30 3678 N 341.259 6.7419 1.59498 0
M  V30 3679 N 343.052 5.42727 1.463 0
M  V30 3680 H 335.203 2.06918 -0.479455 0
M  V30 3681 H 337.466 0.935634 -0.152619 0
M  V30 3682 H 337.172 3.51691 0.0256937 0
M  V30 3683 H 337.046 3.33293 1.76623 0
M  V30 3684 H 339.433 2.34153 1.796 0
M  V30 3685 H 339.514 2.55766 0.041708 0
M  V30 3686 H 339.158 5.06645 0.356788 0
M  V30 3687 H 339.088 4.82048 2.11985 0
M  V30 3688 H 341.579 3.60196 1.14312 0
M  V30 3689 H 341.892 7.53095 1.734 0
M  V30 3690 H 340.237 6.77123 1.56621 0
M  V30 3691 H 343.428 4.48647 1.33543 0
M  V30 3692 H 343.601 6.27806 1.6051 0
M  V30 3693 N 337.007 -0.598083 1.45811 0
M  V30 3694 C 337.957 -1.70272 1.51629 0
M  V30 3695 C 338.941 -1.56382 0.378629 0
M  V30 3696 O 340.133 -1.65557 0.626087 0
M  V30 3697 C 337.262 -3.09042 1.49493 0
M  V30 3698 C 336.348 -3.28284 2.68496 0
M  V30 3699 N 336.739 -3.17748 3.93535 0
M  V30 3700 C 335.037 -3.59182 2.64394 0
M  V30 3701 C 335.738 -3.38579 4.7301 0
M  V30 3702 N 334.714 -3.63016 4.04624 0
M  V30 3703 H 338.516 -1.60634 2.46118 0
M  V30 3704 H 336.03 -0.801642 1.41235 0
M  V30 3705 H 338.027 -3.88302 1.51747 0
M  V30 3706 H 336.687 -3.19823 0.560683 0
M  V30 3707 H 337.698 -2.95944 4.25014 0
M  V30 3708 H 334.375 -3.76742 1.79922 0
M  V30 3709 H 335.765 -3.35747 5.82 0
M  V30 3710 N 338.485 -1.33259 -0.841409 0
M  V30 3711 C 339.896 -1.22066 -1.41269 0
M  V30 3712 C 340.247 0.161479 -1.95534 0
M  V30 3713 O 339.372 1.06094 -1.88608 0
M  V30 3714 C 339.967 -2.20996 -2.568 0
M  V30 3715 C 338.526 -2.13649 -3.09888 0
M  V30 3716 C 337.673 -2.08623 -1.82679 0
M  V30 3717 H 340.624 -1.44895 -0.647395 0
M  V30 3718 H 340.645 -1.81621 -3.34356 0
M  V30 3719 H 340.157 -3.2158 -2.17274 0
M  V30 3720 H 338.258 -1.16359 -3.53965 0
M  V30 3721 H 338.371 -3.04079 -3.70234 0
M  V30 3722 H 336.735 -1.54061 -2.02824 0
M  V30 3723 H 337.518 -3.1101 -1.45353 0
M  V30 3724 N 339.963 1.05934 -1.16686 0
M  V30 3725 C 341.211 1.78447 -0.948744 0
M  V30 3726 C 341.532 1.87813 0.524523 0
M  V30 3727 O 340.802 1.38945 1.38098 0
M  V30 3728 H 339.382 0.660971 -0.348033 0
M  V30 3729 H 342.044 1.27947 -1.47022 0
M  V30 3730 H 341.14 2.80394 -1.37061 0
M  V30 3731 N 341.441 0.965919 1.2453 0
M  V30 3732 C 342.371 0.513476 2.27784 0
M  V30 3733 C 343.352 -0.445974 1.6415 0
M  V30 3734 O 344.537 -0.342485 1.91156 0
M  V30 3735 C 341.667 -0.198839 3.4673 0
M  V30 3736 C 340.621 0.676456 4.2262 0
M  V30 3737 C 339.947 -0.167248 5.34438 0
M  V30 3738 C 341.247 1.96017 4.84123 0
M  V30 3739 H 342.941 1.3765 2.65881 0
M  V30 3740 H 340.487 0.663321 1.27813 0
M  V30 3741 H 342.44 -0.526567 4.18097 0
M  V30 3742 H 341.164 -1.0962 3.07654 0
M  V30 3743 H 339.823 0.98743 3.53052 0
M  V30 3744 H 339.471 -1.0647 4.91603 0
M  V30 3745 H 339.171 0.415181 5.86131 0
M  V30 3746 H 340.695 -0.489688 6.08633 0
M  V30 3747 H 342.109 1.69814 5.47573 0
M  V30 3748 H 340.506 2.48918 5.4604 0
M  V30 3749 H 341.576 2.65622 4.05676 0
M  V30 3750 N 342.919 -1.39368 0.735821 0
M  V30 3751 C 344.166 -2.00497 0.284123 0
M  V30 3752 C 344.494 -1.58387 -1.12889 0
M  V30 3753 O 343.749 -0.804359 -1.78406 0
M  V30 3754 C 344.048 -3.5583 0.334651 0
M  V30 3755 C 343.714 -4.17593 1.7008 0
M  V30 3756 C 342.376 -4.34176 2.07472 0
M  V30 3757 C 344.728 -4.51848 2.59775 0
M  V30 3758 C 342.056 -4.82304 3.34065 0
M  V30 3759 C 344.408 -5.01384 3.85741 0
M  V30 3760 C 343.072 -5.16175 4.23225 0
M  V30 3761 H 342.342 -0.73367 0.103968 0
M  V30 3762 H 344.989 -1.66683 0.942825 0
M  V30 3763 H 343.294 -3.89674 -0.407625 0
M  V30 3764 H 344.991 -4.00986 -0.0329927 0
M  V30 3765 H 341.581 -4.05087 1.40008 0
M  V30 3766 H 345.765 -4.38653 2.32157 0
M  V30 3767 H 341.021 -4.91941 3.63049 0
M  V30 3768 H 345.195 -5.26863 4.55399 0
M  V30 3769 H 342.822 -5.5323 5.21384 0
M  V30 3770 N 344.397 -0.483516 -1.5 0
M  V30 3771 C 345.344 0.304164 -2.28787 0
M  V30 3772 C 346.314 0.976114 -1.34392 0
M  V30 3773 O 347.499 0.986156 -1.63339 0
M  V30 3774 C 344.639 1.37298 -3.16612 0
M  V30 3775 C 343.752 0.714561 -4.26049 0
M  V30 3776 C 342.887 1.76232 -5.01114 0
M  V30 3777 C 341.926 1.08483 -6.0241 0
M  V30 3778 N 341.063 2.076 -6.70706 0
M  V30 3779 H 345.903 -0.373981 -2.95644 0
M  V30 3780 H 343.44 -0.196275 -1.45785 0
M  V30 3781 H 345.398 2.00445 -3.65893 0
M  V30 3782 H 344.028 2.02012 -2.51776 0
M  V30 3783 H 343.08 -0.0297798 -3.80388 0
M  V30 3784 H 344.392 0.180383 -4.98474 0
M  V30 3785 H 343.546 2.46929 -5.54176 0
M  V30 3786 H 342.285 2.33033 -4.28424 0
M  V30 3787 H 341.29 0.363545 -5.48597 0
M  V30 3788 H 342.515 0.523551 -6.77079 0
M  V30 3789 H 340.461 2.63394 -6.00799 0
M  V30 3790 H 340.378 1.59201 -7.39047 0
M  V30 3791 H 341.646 2.77639 -7.2838 0
M  V30 3792 N 345.875 1.56104 -0.216619 0
M  V30 3793 C 347.103 2.02563 0.421413 0
M  V30 3794 C 347.518 1.0965 1.53695 0
M  V30 3795 O 346.875 0.10521 1.82196 0
M  V30 3796 C 346.926 3.48584 0.957665 0
M  V30 3797 O 346.647 4.37953 -0.113389 0
M  V30 3798 C 348.148 4.10664 1.66943 0
M  V30 3799 H 345.368 0.662944 0.103665 0
M  V30 3800 H 347.912 2.01793 -0.331629 0
M  V30 3801 H 346.067 3.49985 1.661 0
M  V30 3802 H 346.481 5.23704 0.288932 0
M  V30 3803 H 347.955 5.14622 1.99671 0
M  V30 3804 H 348.432 3.55373 2.58083 0
M  V30 3805 H 349.038 4.13098 1.01142 0
M  V30 3806 N 347.353 -0.0568162 1.57498 0
M  V30 3807 C 348.283 -1.06593 2.0775 0
M  V30 3808 C 349.264 -1.39448 0.974082 0
M  V30 3809 O 350.449 -1.48815 1.24771 0
M  V30 3810 C 347.579 -2.37509 2.5339 0
M  V30 3811 C 346.533 -2.1897 3.67745 0
M  V30 3812 C 345.859 -3.55402 3.99492 0
M  V30 3813 C 347.159 -1.59859 4.97235 0
M  V30 3814 H 348.853 -0.647706 2.9231 0
M  V30 3815 H 346.399 -0.310116 1.40621 0
M  V30 3816 H 348.352 -3.08409 2.87162 0
M  V30 3817 H 347.076 -2.8134 1.65878 0
M  V30 3818 H 345.735 -1.50508 3.3428 0
M  V30 3819 H 345.383 -3.9683 3.09088 0
M  V30 3820 H 345.083 -3.43831 4.76502 0
M  V30 3821 H 346.607 -4.27708 4.35773 0
M  V30 3822 H 348.021 -2.20642 5.29141 0
M  V30 3823 H 346.418 -1.58942 5.78669 0
M  V30 3824 H 347.488 -0.561506 4.81638 0
M  V30 3825 N 348.832 -1.54138 -0.328536 0
M  V30 3826 C 350.08 -1.71765 -1.06496 0
M  V30 3827 C 350.401 -0.49149 -1.88704 0
M  V30 3828 O 349.671 0.494539 -1.89555 0
M  V30 3829 H 348.251 -0.633295 -0.396164 0
M  V30 3830 H 350.913 -1.91429 -0.366176 0
M  V30 3831 H 350.009 -2.5951 -1.73381 0
M  V30 3832 N 350.31 0.590341 -1.46126 0
M  V30 3833 C 351.556 1.35082 -1.51264 0
M  V30 3834 C 351.889 1.93534 -0.160711 0
M  V30 3835 O 351.164 1.76045 0.826956 0
M  V30 3836 C 351.447 2.48588 -2.6053 0
M  V30 3837 C 351.3 1.95221 -4.05227 0
M  V30 3838 C 352.619 3.50662 -2.6594 0
M  V30 3839 H 349.738 0.489803 -0.550692 0
M  V30 3840 H 352.38 0.663887 -1.78024 0
M  V30 3841 H 350.53 3.07186 -2.37843 0
M  V30 3842 H 352.202 1.41139 -4.39178 0
M  V30 3843 H 350.445 1.26101 -4.15068 0
M  V30 3844 H 351.116 2.77121 -4.77397 0
M  V30 3845 H 353.592 3.01934 -2.86313 0
M  V30 3846 H 352.468 4.27551 -3.44226 0
M  V30 3847 H 352.729 4.07399 -1.71694 0
M  V30 3848 N 351.788 1.33704 0.83433 0
M  V30 3849 C 352.735 1.24335 1.94447 0
M  V30 3850 C 353.705 0.120991 1.65659 0
M  V30 3851 O 354.89 0.300035 1.88426 0
M  V30 3852 C 352.03 0.993124 3.30501 0
M  V30 3853 C 351.143 2.20217 3.71657 0
M  V30 3854 C 350.278 1.88572 4.96602 0
M  V30 3855 C 349.317 3.05683 5.30306 0
M  V30 3856 N 348.454 2.73997 6.46429 0
M  V30 3857 H 353.294 2.1928 2.01792 0
M  V30 3858 H 350.831 1.09035 0.987404 0
M  V30 3859 H 352.789 0.828467 4.08892 0
M  V30 3860 H 351.419 0.0803902 3.227 0
M  V30 3861 H 350.471 2.47642 2.88752 0
M  V30 3862 H 351.783 3.07752 3.92543 0
M  V30 3863 H 350.937 1.68776 5.82752 0
M  V30 3864 H 349.676 0.982799 4.77695 0
M  V30 3865 H 348.681 3.26088 4.42659 0
M  V30 3866 H 349.906 3.96737 5.51159 0
M  V30 3867 H 347.852 1.86268 6.28999 0
M  V30 3868 H 347.769 3.55064 6.67432 0
M  V30 3869 H 349.037 2.57679 7.35678 0
M  V30 3870 N 353.266 -1.05314 1.17247 0
M  V30 3871 C 354.677 -1.59753 0.96623 0
M  V30 3872 C 355.028 -1.9005 -0.487378 0
M  V30 3873 O 354.153 -1.68126 -1.36245 0
M  V30 3874 C 354.748 -2.90249 1.74759 0
M  V30 3875 C 353.307 -3.41352 1.58606 0
M  V30 3876 C 352.454 -2.15103 1.75002 0
M  V30 3877 H 355.405 -0.881406 1.31973 0
M  V30 3878 H 355.426 -3.60097 1.22925 0
M  V30 3879 H 354.938 -2.68166 2.8055 0
M  V30 3880 H 353.039 -3.68474 0.552985 0
M  V30 3881 H 353.152 -4.16019 2.37624 0
M  V30 3882 H 351.516 -2.25804 1.17833 0
M  V30 3883 H 352.299 -1.95491 2.82202 0
M  V30 3884 N 354.744 -0.972509 -1.24016 0
M  V30 3885 C 356.155 -0.67517 -1.74064 0
M  V30 3886 C 356.506 0.808939 -1.78747 0
M  V30 3887 O 355.631 1.63286 -1.42009 0
M  V30 3888 C 356.226 -1.21889 -3.16115 0
M  V30 3889 C 354.785 -0.971358 -3.6365 0
M  V30 3890 C 353.932 -1.35134 -2.42145 0
M  V30 3891 H 356.883 -1.14727 -1.09651 0
M  V30 3892 H 356.904 -0.587489 -3.75937 0
M  V30 3893 H 356.416 -2.29906 -3.12674 0
M  V30 3894 H 354.517 0.0930686 -3.72484 0
M  V30 3895 H 354.63 -1.62039 -4.50866 0
M  V30 3896 H 352.994 -0.769751 -2.4279 0
M  V30 3897 H 353.777 -2.4411 -2.41381 0
M  V30 3898 N 356.222 1.38976 -0.743202 0
M  V30 3899 C 357.638 1.53984 -0.419664 0
M  V30 3900 C 357.838 1.70837 1.0685 0
M  V30 3901 O 356.894 1.7135 1.8546 0
M  V30 3902 C 358.207 2.75287 -1.20985 0
M  V30 3903 C 359.755 2.89129 -1.19889 0
M  V30 3904 C 360.23 4.13381 -1.97181 0
M  V30 3905 N 361.721 4.20437 -1.94389 0
M  V30 3906 C 362.456 5.15547 -2.50996 0
M  V30 3907 N 361.952 6.16395 -3.16274 0
M  V30 3908 N 363.745 5.07822 -2.40984 0
M  V30 3909 H 355.896 1.26285 -1.7078 0
M  V30 3910 H 358.159 0.612689 -0.723406 0
M  V30 3911 H 357.865 2.69204 -2.26323 0
M  V30 3912 H 357.739 3.68184 -0.819759 0
M  V30 3913 H 360.126 2.947 -0.153606 0
M  V30 3914 H 360.207 1.97272 -1.62841 0
M  V30 3915 H 359.851 4.08572 -3.01714 0
M  V30 3916 H 359.781 5.04298 -1.51629 0
M  V30 3917 H 362.272 3.48205 -1.46839 0
M  V30 3918 H 362.585 6.85443 -3.56915 0
M  V30 3919 H 360.93 6.16758 -3.20367 0
M  V30 3920 H 364.121 4.27973 -1.89622 0
M  V30 3921 H 364.294 5.81767 -2.85397 0
M  V30 3922 N 357.7 0.491464 1.49741 0
M  V30 3923 C 358.948 -0.0563141 2.02022 0
M  V30 3924 C 359.269 -1.38363 1.37407 0
M  V30 3925 O 358.539 -1.88702 0.526166 0
M  V30 3926 H 357.119 -0.0238014 0.746621 0
M  V30 3927 H 359.781 0.646533 1.83864 0
M  V30 3928 H 358.877 -0.192967 3.11503 0
M  V30 3929 N 359.178 -1.55987 0.224894 0
M  V30 3930 C 360.424 -1.98684 -0.406502 0
M  V30 3931 C 360.757 -1.11248 -1.59177 0
M  V30 3932 O 360.032 -0.170909 -1.93748 0
M  V30 3933 C 360.315 -3.50218 -0.837808 0
M  V30 3934 C 360.168 -4.48426 0.351332 0
M  V30 3935 C 361.487 -4.06243 -1.69278 0
M  V30 3936 H 358.606 -0.722337 -0.146283 0
M  V30 3937 H 361.248 -1.87255 0.321799 0
M  V30 3938 H 359.398 -3.60089 -1.45837 0
M  V30 3939 H 361.07 -4.50562 0.989526 0
M  V30 3940 H 359.313 -4.22159 0.998207 0
M  V30 3941 H 359.984 -5.52 0.00655905 0
M  V30 3942 H 362.46 -3.99337 -1.16914 0
M  V30 3943 H 361.336 -5.12581 -1.96346 0
M  V30 3944 H 361.597 -3.53332 -2.65723 0
M  V30 3945 N 360.656 0.0484629 -1.57525 0
M  V30 3946 C 361.586 1.0549 -2.08313 0
M  V30 3947 C 362.567 1.38929 -0.981463 0
M  V30 3948 O 363.752 1.48151 -1.25558 0
M  V30 3949 C 360.882 2.36162 -2.54646 0
M  V30 3950 C 359.836 2.17016 -3.68901 0
M  V30 3951 C 359.162 3.53278 -4.01371 0
M  V30 3952 C 360.462 1.57219 -4.98076 0
M  V30 3953 H 362.156 0.632195 -2.92649 0
M  V30 3954 H 359.702 0.302654 -1.40784 0
M  V30 3955 H 361.655 3.06882 -2.88793 0
M  V30 3956 H 360.379 2.80456 -1.67368 0
M  V30 3957 H 359.038 1.48733 -3.35073 0
M  V30 3958 H 358.686 3.95185 -3.11188 0
M  V30 3959 H 358.386 3.41299 -4.78318 0
M  V30 3960 H 359.91 4.25391 -4.38035 0
M  V30 3961 H 361.324 2.17832 -5.30304 0
M  V30 3962 H 359.721 1.55871 -5.79503 0
M  V30 3963 H 360.791 0.535956 -4.81929 0
M  V30 3964 N 362.134 1.5431 0.320358 0
M  V30 3965 C 363.064 1.86912 1.3995 0
M  V30 3966 C 364.045 0.726211 1.53819 0
M  V30 3967 O 365.23 0.980233 1.67646 0
M  V30 3968 C 362.36 2.09932 2.7667 0
M  V30 3969 C 361.314 3.25776 2.77586 0
M  V30 3970 C 360.64 3.34173 4.17412 0
M  V30 3971 C 361.94 4.6335 2.41048 0
M  V30 3972 H 363.634 2.77292 1.12914 0
M  V30 3973 H 361.18 1.33421 0.541738 0
M  V30 3974 H 363.133 2.31324 3.52232 0
M  V30 3975 H 361.857 1.16304 3.0519 0
M  V30 3976 H 360.516 3.04276 2.04479 0
M  V30 3977 H 360.164 2.38098 4.43078 0
M  V30 3978 H 359.864 4.12033 4.18931 0
M  V30 3979 H 361.388 3.57803 4.94782 0
M  V30 3980 H 362.802 4.84602 3.06324 0
M  V30 3981 H 361.199 5.43782 2.53813 0
M  V30 3982 H 362.269 4.65381 1.36193 0
M  V30 3983 N 363.613 -0.582584 1.46437 0
M  V30 3984 C 364.843 -1.36484 1.55099 0
M  V30 3985 C 365.251 -1.88233 0.191056 0
M  V30 3986 O 364.594 -1.6429 -0.821858 0
M  V30 3987 C 364.656 -2.588 2.49525 0
M  V30 3988 C 364.32 -2.28517 3.95764 0
M  V30 3989 C 365.317 -1.87346 4.84972 0
M  V30 3990 C 363.002 -2.40658 4.40896 0
M  V30 3991 C 364.996 -1.5871 6.17325 0
M  V30 3992 C 362.683 -2.11635 5.73284 0
M  V30 3993 C 363.681 -1.70725 6.61318 0
M  V30 3994 O 363.369 -1.42057 7.91249 0
M  V30 3995 H 363.101 -0.423297 0.527063 0
M  V30 3996 H 365.655 -0.715188 1.92547 0
M  V30 3997 H 363.885 -3.26571 2.07095 0
M  V30 3998 H 365.574 -3.20868 2.48593 0
M  V30 3999 H 366.34 -1.77481 4.5136 0
M  V30 4000 H 362.219 -2.71463 3.72598 0
M  V30 4001 H 365.763 -1.26704 6.85997 0
M  V30 4002 H 361.66 -2.21124 6.06444 0
M  V30 4003 H 362.428 -1.55901 8.03515 0
M  V30 4004 N 365.091 -1.34144 -0.827227 0
M  V30 4005 C 366.339 -1.26009 -1.58007 0
M  V30 4006 C 366.66 0.170971 -1.94249 0
M  V30 4007 O 365.93 1.10256 -1.61927 0
M  V30 4008 H 364.51 -0.463414 -0.585881 0
M  V30 4009 H 367.172 -1.68005 -0.987951 0
M  V30 4010 H 366.268 -1.86187 -2.50481 0
M  V30 4011 N 366.569 1.04691 -1.17803 0
M  V30 4012 C 367.98 1.59238 -0.974689 0
M  V30 4013 C 368.331 1.90306 0.477292 0
M  V30 4014 O 367.456 1.68846 1.35352 0
M  V30 4015 C 368.051 2.89318 -1.76296 0
M  V30 4016 C 366.61 3.40506 -1.60414 0
M  V30 4017 C 365.757 2.14172 -1.76141 0
M  V30 4018 H 368.708 0.874395 -1.32439 0
M  V30 4019 H 368.729 3.5944 -1.24833 0
M  V30 4020 H 368.241 2.66675 -2.81968 0
M  V30 4021 H 366.342 3.68175 -0.572519 0
M  V30 4022 H 366.455 4.14753 -2.39827 0
M  V30 4023 H 364.819 2.25176 -1.19028 0
M  V30 4024 H 365.602 1.93992 -2.83235 0
M  V30 4025 N 368.047 0.979072 1.23499 0
M  V30 4026 C 369.458 0.684391 1.73704 0
M  V30 4027 C 369.809 -0.799448 1.79174 0
M  V30 4028 O 368.934 -1.62531 1.42873 0
M  V30 4029 C 369.529 1.23564 3.15464 0
M  V30 4030 C 368.088 0.99063 3.6313 0
M  V30 4031 C 367.235 1.36416 2.41425 0
M  V30 4032 H 370.186 1.15307 1.09041 0
M  V30 4033 H 370.207 0.607417 3.7562 0
M  V30 4034 H 369.719 2.31561 3.1145 0
M  V30 4035 H 367.82 -0.0733136 3.72528 0
M  V30 4036 H 367.933 1.64427 4.5 0
M  V30 4037 H 366.297 0.782616 2.42378 0
M  V30 4038 H 367.08 2.45387 2.40083 0
M  V30 4039 N 369.525 -1.3858 0.750561 0
M  V30 4040 C 370.773 -1.99789 0.30477 0
M  V30 4041 C 371.094 -1.59874 -1.11649 0
M  V30 4042 O 370.364 -0.85417 -1.76297 0
M  V30 4043 H 368.944 -0.738902 0.109694 0
M  V30 4044 H 371.606 -1.69391 0.963983 0
M  V30 4045 H 370.702 -3.09952 0.365499 0
M  V30 4046 N 371.003 -0.499398 -1.49478 0
M  V30 4047 C 372.228 0.044722 -2.07352 0
M  V30 4048 C 372.653 1.30207 -1.35749 0
M  V30 4049 O 372.011 1.76516 -0.413732 0
M  V30 4050 C 372.059 0.283013 -3.59488 0
M  V30 4051 O 371.163 1.35804 -3.89398 0
M  V30 4052 H 370.504 -0.0255147 -0.66351 0
M  V30 4053 H 373.034 -0.698561 -1.92305 0
M  V30 4054 H 373.044 0.515007 -4.04737 0
M  V30 4055 H 371.719 -0.635636 -4.11014 0
M  V30 4056 H 370.296 1.11113 -3.55961 0
M  V30 4057 N 372.481 1.55866 -0.233164 0
M  V30 4058 C 373.729 1.9821 0.394593 0
M  V30 4059 C 374.05 1.12234 1.59463 0
M  V30 4060 O 373.32 0.201981 1.94856 0
M  V30 4061 H 371.9 0.732034 0.148778 0
M  V30 4062 H 374.562 1.92107 -0.32876 0
M  V30 4063 H 373.658 3.03845 0.713063 0
M  V30 4064 N 373.959 -0.0401083 1.57549 0
M  V30 4065 C 374.906 -1.04413 2.05831 0
M  V30 4066 C 375.876 -1.36585 0.945184 0
M  V30 4067 O 377.061 -1.47112 1.21502 0
M  V30 4068 C 374.201 -2.34336 2.53339 0
M  V30 4069 C 373.314 -2.08419 3.78398 0
M  V30 4070 C 372.449 -3.32133 4.14561 0
M  V30 4071 C 371.488 -3.01721 5.3257 0
M  V30 4072 N 370.625 -4.17855 5.64218 0
M  V30 4073 H 375.465 -0.625442 2.91363 0
M  V30 4074 H 373.002 -0.297218 1.44066 0
M  V30 4075 H 374.96 -3.10234 2.78946 0
M  V30 4076 H 373.59 -2.73948 1.7074 0
M  V30 4077 H 372.642 -1.23069 3.59942 0
M  V30 4078 H 373.954 -1.81978 4.64419 0
M  V30 4079 H 373.108 -4.16406 4.41238 0
M  V30 4080 H 371.847 -3.61678 3.2717 0
M  V30 4081 H 370.852 -2.15849 5.05657 0
M  V30 4082 H 372.077 -2.73466 6.21605 0
M  V30 4083 H 370.023 -4.47372 4.79786 0
M  V30 4084 H 369.94 -3.94798 6.44725 0
M  V30 4085 H 371.208 -5.03033 5.95465 0
M  V30 4086 N 375.437 -1.54477 -0.31217 0
M  V30 4087 C 376.665 -1.77205 -1.068 0
M  V30 4088 C 377.08 -0.526114 -1.81321 0
M  V30 4089 O 376.437 0.503647 -1.75413 0
M  V30 4090 C 376.488 -2.97253 -2.05725 0
M  V30 4091 O 376.209 -4.1703 -1.34228 0
M  V30 4092 C 377.71 -3.32281 -2.93435 0
M  V30 4093 H 374.93 -0.591287 -0.317208 0
M  V30 4094 H 377.474 -2.01398 -0.354834 0
M  V30 4095 H 375.629 -2.753 -2.72559 0
M  V30 4096 H 376.043 -4.84636 -2.00571 0
M  V30 4097 H 377.517 -4.19551 -3.58721 0
M  V30 4098 H 377.994 -2.49945 -3.61143 0
M  V30 4099 H 378.6 -3.56353 -2.32147 0
M  V30 4100 N 376.915 0.57481 -1.46744 0
M  V30 4101 C 378.155 1.34369 -1.54027 0
M  V30 4102 C 378.519 1.91051 -0.190642 0
M  V30 4103 O 379.72 2.68444 -0.138255 0
M  V30 4104 C 377.991 2.43706 -2.61423 0
M  V30 4105 S 379.55 3.30915 -2.88167 0
M  V30 4106 H 376.368 0.45768 -0.544105 0
M  V30 4107 H 378.97 0.659959 -1.84024 0
M  V30 4108 H 377.674 2.0047 -3.58106 0
M  V30 4109 H 377.205 3.16842 -2.33184 0
M  V30 4110 H 379.22 4.42742 -2.24039 0
M  V30 4111 N 378.394 1.34581 0.820102 0
M  V30 4112 C 379.643 1.26437 1.57151 0
M  V30 4113 C 379.956 -0.163111 1.94919 0
M  V30 4114 O 381.162 -0.366722 2.69012 0
M  V30 4115 C 379.618 2.21658 2.83541 0
M  V30 4116 C 379.226 3.69679 2.53065 0
M  V30 4117 C 380.97 2.22428 3.61561 0
M  V30 4118 C 378.877 4.56761 3.75664 0
M  V30 4119 H 377.807 0.469707 0.589823 0
M  V30 4120 H 380.458 1.59763 0.902656 0
M  V30 4121 H 378.84 1.81287 3.52067 0
M  V30 4122 H 380.014 4.18605 1.92631 0
M  V30 4123 H 378.329 3.71384 1.88316 0
M  V30 4124 H 380.926 2.8471 4.52597 0
M  V30 4125 H 381.269 1.22434 3.97889 0
M  V30 4126 H 381.802 2.61259 2.99981 0
M  V30 4127 H 378.541 5.57702 3.44454 0
M  V30 4128 H 378.061 4.12568 4.35371 0
M  V30 4129 H 379.74 4.71509 4.43044 0
M  V30 4130 N 379.872 -1.04064 1.18357 0
M  V30 4131 C 380.835 -2.10243 0.912707 0
M  V30 4132 C 381.835 -1.60477 -0.101928 0
M  V30 4133 O 383.025 -1.73703 0.131517 0
M  V30 4134 C 380.157 -3.38893 0.369387 0
M  V30 4135 H 381.35 -2.35706 1.85426 0
M  V30 4136 H 378.903 -1.20489 0.995594 0
M  V30 4137 H 379.638 -3.19094 -0.578776 0
M  V30 4138 H 379.423 -3.76331 1.1008 0
M  V30 4139 H 380.913 -4.17128 0.198575 0
M  V30 4140 N 381.35 -0.985608 -1.22978 0
M  V30 4141 C 382.766 -0.695104 -1.43668 0
M  V30 4142 C 382.966 0.736866 -1.87543 0
M  V30 4143 O 382.022 1.50868 -2.02473 0
M  V30 4144 C 383.335 -1.69447 -2.48412 0
M  V30 4145 C 384.883 -1.70909 -2.62219 0
M  V30 4146 C 385.358 -2.6969 -3.70178 0
M  V30 4147 N 386.849 -2.6824 -3.77626 0
M  V30 4148 C 387.584 -3.41339 -4.60733 0
M  V30 4149 N 387.08 -4.24015 -5.4789 0
M  V30 4150 N 388.873 -3.30079 -4.54977 0
M  V30 4151 H 381.024 -1.91054 -0.928016 0
M  V30 4152 H 383.287 -0.823553 -0.469536 0
M  V30 4153 H 382.993 -2.7188 -2.23102 0
M  V30 4154 H 382.867 -1.48147 -3.46889 0
M  V30 4155 H 385.254 -0.691785 -2.86877 0
M  V30 4156 H 385.335 -1.96276 -1.6404 0
M  V30 4157 H 384.979 -3.71566 -3.46268 0
M  V30 4158 H 384.909 -2.41595 -4.67909 0
M  V30 4159 H 387.4 -2.08243 -3.15346 0
M  V30 4160 H 387.713 -4.76636 -6.08308 0
M  V30 4161 H 386.058 -4.28104 -5.47496 0
M  V30 4162 H 389.249 -2.64937 -3.85909 0
M  V30 4163 H 389.422 -3.87308 -5.19516 0
M  V30 4164 N 382.828 1.3818 -0.7579 0
M  V30 4165 C 383.791 2.28764 -0.141286 0
M  V30 4166 C 384.791 1.47388 0.642907 0
M  V30 4167 O 385.981 1.67781 0.468536 0
M  V30 4168 C 383.113 3.31184 0.808069 0
M  V30 4169 H 384.306 2.848 -0.939633 0
M  V30 4170 H 381.859 1.47212 -0.525191 0
M  V30 4171 H 382.594 2.80247 1.63193 0
M  V30 4172 H 382.379 3.91314 0.248104 0
M  V30 4173 H 383.869 3.98909 1.23536 0
M  V30 4174 N 384.306 0.507319 1.49211 0
M  V30 4175 C 385.552 -0.0350047 2.0277 0
M  V30 4176 C 385.885 -1.3606 1.38569 0
M  V30 4177 O 385.16 -1.87321 0.523542 0
M  V30 4178 C 385.443 -0.180916 3.59645 0
M  V30 4179 C 385.296 1.16825 4.34364 0
M  V30 4180 C 386.615 -0.918558 4.30407 0
M  V30 4181 H 383.734 -0.0112473 0.736914 0
M  V30 4182 H 386.376 0.659956 1.7817 0
M  V30 4183 H 384.526 -0.772826 3.80736 0
M  V30 4184 H 386.198 1.79952 4.24753 0
M  V30 4185 H 384.441 1.75594 3.96673 0
M  V30 4186 H 385.112 1.01939 5.42506 0
M  V30 4187 H 387.588 -0.41649 4.1401 0
M  V30 4188 H 386.464 -0.989505 5.39907 0
M  V30 4189 H 386.725 -1.96373 3.96093 0
M  V30 4190 N 385.784 -1.5574 0.241426 0
M  V30 4191 C 386.747 -2.19877 -0.647063 0
M  V30 4192 C 387.747 -1.16642 -1.10686 0
M  V30 4193 O 388.937 -1.41757 -1.01245 0
M  V30 4194 C 386.069 -2.83797 -1.88871 0
M  V30 4195 H 387.262 -2.99772 -0.087574 0
M  V30 4196 H 384.815 -1.56298 -0.00813574 0
M  V30 4197 H 385.55 -2.07824 -2.48957 0
M  V30 4198 H 385.335 -3.59414 -1.56728 0
M  V30 4199 H 386.825 -3.32898 -2.52129 0
M  V30 4200 N 387.262 0.0317525 -1.57568 0
M  V30 4201 C 388.21 1.05165 -2.07468 0
M  V30 4202 C 389.204 1.3761 -0.98792 0
M  V30 4203 O 390.41 1.36546 -1.17282 0
M  V30 4204 H 386.785 0.35666 -0.66204 0
M  V30 4205 H 388.756 0.604958 -2.92203 0
M  V30 4206 C 387.505 2.34488 -2.56731 0
M  V30 4207 H 386.828 2.10383 -3.39969 0
M  V30 4208 H 388.268 3.04203 -2.95358 0
M  V30 4209 C 386.727 3.03266 -1.46736 0
M  V30 4210 O 387.257 3.92988 -0.832069 0
M  V30 4211 N 385.463 2.6455 -1.20256 0
M  V30 4212 H 385.01 1.91674 -1.72102 0
M  V30 4213 H 384.968 3.10886 -0.468737 0
M  V30 4214 N 388.74 1.54641 0.303973 0
M  V30 4215 C 389.65 1.88439 1.39743 0
M  V30 4216 C 390.666 0.778239 1.55626 0
M  V30 4217 O 391.842 1.07442 1.70347 0
M  V30 4218 C 388.907 2.12212 2.74166 0
M  V30 4219 C 387.968 3.35936 2.67293 0
M  V30 4220 C 387.201 3.58566 3.95305 0
M  V30 4221 O 387.424 2.84263 4.9452 0
M  V30 4222 O 386.358 4.52078 3.97378 0
M  V30 4223 H 390.184 2.81458 1.14083 0
M  V30 4224 H 387.769 1.40793 0.499768 0
M  V30 4225 H 389.651 2.29067 3.53704 0
M  V30 4226 H 388.326 1.22379 2.99675 0
M  V30 4227 H 387.233 3.24448 1.86237 0
M  V30 4228 H 388.566 4.2589 2.46736 0
M  V30 4229 N 390.218 -0.567019 1.47046 0
M  V30 4230 C 391.446 -1.35027 1.56765 0
M  V30 4231 C 391.861 -1.8758 0.214316 0
M  V30 4232 O 391.218 -1.64471 -0.790919 0
M  V30 4233 C 391.269 -2.52698 2.58507 0
M  V30 4234 O 390.99 -2.0232 3.88585 0
M  V30 4235 C 392.491 -3.45043 2.78316 0
M  V30 4236 H 389.711 -0.41195 0.529658 0
M  V30 4237 H 392.255 -0.687832 1.92585 0
M  V30 4238 H 390.41 -3.149 2.25648 0
M  V30 4239 H 390.824 -2.79068 4.44096 0
M  V30 4240 H 392.298 -4.2405 3.53391 0
M  V30 4241 H 392.775 -3.97971 1.85784 0
M  V30 4242 H 393.381 -2.88665 3.12334 0
M  V30 4243 N 391.696 -1.35014 -0.812953 0
M  V30 4244 C 392.944 -1.27678 -1.56661 0
M  V30 4245 C 393.265 0.150359 -1.94419 0
M  V30 4246 O 392.535 1.08532 -1.63088 0
M  V30 4247 H 391.115 -0.469602 -0.580933 0
M  V30 4248 H 393.777 -1.69043 -0.970076 0
M  V30 4249 H 392.873 -1.88833 -2.48492 0
M  V30 4250 N 393.175 1.03435 -1.18907 0
M  V30 4251 C 394.138 2.09756 -0.923844 0
M  V30 4252 C 395.138 1.60528 0.093416 0
M  V30 4253 O 396.328 1.73631 -0.140727 0
M  V30 4254 C 393.46 3.38692 -0.387354 0
M  V30 4255 H 394.653 2.34719 -1.86674 0
M  V30 4256 H 392.206 1.19959 -1.00197 0
M  V30 4257 H 392.941 3.19396 0.561845 0
M  V30 4258 H 392.726 3.75742 -1.12074 0
M  V30 4259 H 394.216 4.17016 -0.220694 0
M  V30 4260 N 394.653 0.992116 1.22453 0
M  V30 4261 C 395.9 0.667534 1.91181 0
M  V30 4262 C 396.228 -0.800317 1.77271 0
M  V30 4263 O 395.483 -1.59421 1.13505 0
M  V30 4264 C 395.782 1.01832 3.42586 0
M  V30 4265 C 395.448 2.47831 3.76684 0
M  V30 4266 C 394.11 2.87729 3.85701 0
M  V30 4267 C 396.462 3.42466 3.92895 0
M  V30 4268 C 393.79 4.21252 4.08367 0
M  V30 4269 C 396.142 4.75648 4.17064 0
M  V30 4270 C 394.806 5.15288 4.24305 0
M  V30 4271 H 394.076 0.244268 0.699581 0
M  V30 4272 H 396.723 1.24816 1.45235 0
M  V30 4273 H 395.028 0.355769 3.90181 0
M  V30 4274 H 396.725 0.745228 3.94014 0
M  V30 4275 H 393.315 2.15905 3.70247 0
M  V30 4276 H 397.499 3.12814 3.85307 0
M  V30 4277 H 392.755 4.51554 4.122 0
M  V30 4278 H 396.929 5.48924 4.2855 0
M  V30 4279 H 394.556 6.18769 4.41621 0
M  V30 4280 N 396.131 -1.37776 0.765217 0
M  V30 4281 C 397.378 -1.99849 0.326588 0
M  V30 4282 C 397.706 -1.60746 -1.09504 0
M  V30 4283 O 396.961 -0.84202 -1.76659 0
M  V30 4284 C 397.26 -3.5504 0.410053 0
M  V30 4285 C 396.926 -4.13891 1.78899 0
M  V30 4286 C 395.588 -4.29678 2.16635 0
M  V30 4287 C 397.94 -4.46236 2.69301 0
M  V30 4288 C 395.268 -4.7511 3.44221 0
M  V30 4289 C 397.62 -4.93089 3.9629 0
M  V30 4290 C 396.284 -5.07082 4.34078 0
M  V30 4291 H 395.554 -0.7313 0.119507 0
M  V30 4292 H 398.201 -1.64645 0.977968 0
M  V30 4293 H 396.506 -3.90451 -0.324878 0
M  V30 4294 H 398.203 -4.00966 0.0520699 0
M  V30 4295 H 394.793 -4.02026 1.48569 0
M  V30 4296 H 398.977 -4.3363 2.41409 0
M  V30 4297 H 394.233 -4.84129 3.73402 0
M  V30 4298 H 398.407 -5.17084 4.66472 0
M  V30 4299 H 396.034 -5.42046 5.33001 0
M  V30 4300 N 397.609 -0.515225 -1.4894 0
M  V30 4301 C 398.856 0.024215 -2.02486 0
M  V30 4302 C 399.184 1.35671 -1.39368 0
M  V30 4303 O 398.439 1.88566 -0.523574 0
M  V30 4304 C 398.738 0.210595 -3.56779 0
M  V30 4305 C 398.404 -1.04569 -4.38607 0
M  V30 4306 C 397.066 -1.39002 -4.60686 0
M  V30 4307 C 399.418 -1.88008 -4.86109 0
M  V30 4308 C 396.746 -2.568 -5.27514 0
M  V30 4309 C 399.098 -3.04972 -5.54234 0
M  V30 4310 C 397.762 -3.39768 -5.74555 0
M  V30 4311 H 397.032 0.00886088 -0.740947 0
M  V30 4312 H 399.679 -0.678263 -1.79086 0
M  V30 4313 H 397.984 0.99572 -3.78936 0
M  V30 4314 H 399.681 0.642659 -3.95817 0
M  V30 4315 H 396.271 -0.767497 -4.21672 0
M  V30 4316 H 400.455 -1.62719 -4.68867 0
M  V30 4317 H 395.711 -2.8398 -5.41447 0
M  V30 4318 H 399.885 -3.69943 -5.90013 0
M  V30 4319 H 397.512 -4.31148 -6.26112 0
M  V30 4320 N 399.087 1.5561 -0.249682 0
M  V30 4321 C 400.017 2.24477 0.642826 0
M  V30 4322 C 400.998 1.22601 1.17911 0
M  V30 4323 O 402.183 1.5126 1.21795 0
M  V30 4324 C 399.313 2.94638 1.83863 0
M  V30 4325 C 398.267 4.03227 1.435 0
M  V30 4326 C 397.593 4.60828 2.71186 0
M  V30 4327 C 398.893 5.18796 0.604002 0
M  V30 4328 H 400.587 2.99321 0.0685625 0
M  V30 4329 H 398.133 1.43965 0.0315363 0
M  V30 4330 H 400.086 3.41517 2.46868 0
M  V30 4331 H 398.81 2.17287 2.43832 0
M  V30 4332 H 397.469 3.57121 0.828275 0
M  V30 4333 H 397.117 3.80174 3.29358 0
M  V30 4334 H 396.817 5.34132 2.44901 0
M  V30 4335 H 398.341 5.10442 3.35084 0
M  V30 4336 H 399.755 5.61883 1.13842 0
M  V30 4337 H 398.152 5.98506 0.437097 0
M  V30 4338 H 399.222 4.83384 -0.383147 0
M  V30 4339 N 400.565 -0.0233959 1.57583 0
M  V30 4340 C 401.814 -0.712133 1.8871 0
M  V30 4341 C 402.127 -1.76217 0.848944 0
M  V30 4342 O 403.333 -2.50389 1.04964 0
M  V30 4343 C 401.789 -1.3177 3.3491 0
M  V30 4344 C 401.397 -0.303715 4.46969 0
M  V30 4345 C 403.141 -1.98598 3.75179 0
M  V30 4346 C 401.048 -0.917945 5.84233 0
M  V30 4347 H 399.978 -0.269735 0.704101 0
M  V30 4348 H 402.629 0.0333114 1.8347 0
M  V30 4349 H 401.011 -2.11304 3.34913 0
M  V30 4350 H 402.185 0.465325 4.58445 0
M  V30 4351 H 400.5 0.2628 4.1557 0
M  V30 4352 H 403.097 -2.45416 4.75053 0
M  V30 4353 H 403.44 -2.80659 3.07468 0
M  V30 4354 H 403.973 -1.25831 3.77374 0
M  V30 4355 H 400.712 -0.136633 6.55358 0
M  V30 4356 H 400.232 -1.65669 5.76467 0
M  V30 4357 H 401.911 -1.4236 6.31144 0
M  V30 4358 N 402.043 -1.548 -0.295768 0
M  V30 4359 C 402.991 -1.86874 -1.38495 0
M  V30 4360 C 403.985 -0.742938 -1.52239 0
M  V30 4361 O 405.191 -0.926999 -1.54294 0
M  V30 4362 H 401.566 -0.592786 -0.462719 0
M  V30 4363 H 403.537 -2.77904 -1.08682 0
M  V30 4364 C 402.286 -2.13732 -2.74252 0
M  V30 4365 H 401.609 -2.99835 -2.64459 0
M  V30 4366 H 403.049 -2.4011 -3.49461 0
M  V30 4367 C 401.508 -0.937539 -3.23592 0
M  V30 4368 O 402.038 -0.160665 -4.01379 0
M  V30 4369 N 400.244 -0.741478 -2.80981 0
M  V30 4370 H 399.791 -1.37489 -2.1784 0
M  V30 4371 H 399.749 0.0597103 -3.14343 0
M  V30 4372 N 403.521 0.559213 -1.47345 0
M  V30 4373 C 404.769 1.31388 -1.53563 0
M  V30 4374 C 405.09 1.93985 -0.198678 0
M  V30 4375 O 404.36 1.79825 0.777167 0
M  V30 4376 H 402.94 0.487901 -0.565652 0
M  V30 4377 H 405.602 0.65315 -1.8363 0
M  V30 4378 H 404.698 2.10844 -2.30111 0
M  V30 4379 N 404.999 1.35443 0.805782 0
M  V30 4380 C 406.41 1.25768 1.37983 0
M  V30 4381 C 406.761 -0.10958 1.95894 0
M  V30 4382 O 405.886 -1.01056 1.91355 0
M  V30 4383 C 406.481 2.27727 2.5085 0
M  V30 4384 C 405.04 2.2179 3.04115 0
M  V30 4385 C 404.187 2.13393 1.77084 0
M  V30 4386 H 407.138 1.4656 0.608752 0
M  V30 4387 H 407.159 1.90422 3.29424 0
M  V30 4388 H 406.671 3.27227 2.08671 0
M  V30 4389 H 404.772 1.25703 3.50756 0
M  V30 4390 H 404.885 3.13788 3.62042 0
M  V30 4391 H 403.249 1.59384 1.98668 0
M  V30 4392 H 404.032 3.14755 1.37056 0
M  V30 4393 N 406.477 -1.02803 1.19454 0
M  V30 4394 C 407.387 -2.14575 0.948408 0
M  V30 4395 C 408.403 -1.73757 -0.091871 0
M  V30 4396 O 409.579 -2.01185 0.0929654 0
M  V30 4397 C 406.644 -3.43202 0.491265 0
M  V30 4398 C 405.705 -3.98328 1.60103 0
M  V30 4399 C 404.938 -5.20816 1.16561 0
M  V30 4400 O 405.161 -5.70392 0.0295238 0
M  V30 4401 O 404.095 -5.68801 1.96849 0
M  V30 4402 H 407.921 -2.38202 1.88397 0
M  V30 4403 H 405.506 -1.12989 0.977433 0
M  V30 4404 H 407.388 -4.20687 0.245015 0
M  V30 4405 H 406.063 -3.21018 -0.415851 0
M  V30 4406 H 404.97 -3.22174 1.90144 0
M  V30 4407 H 406.303 -4.24879 2.48473 0
M  V30 4408 N 407.956 -0.998596 -1.21925 0
M  V30 4409 C 409.202 -0.678667 -1.91107 0
M  V30 4410 C 409.535 0.78791 -1.77498 0
M  V30 4411 O 408.81 1.57043 -1.1475 0
M  V30 4412 C 409.093 -1.09245 -3.43129 0
M  V30 4413 C 408.946 -2.61801 -3.6576 0
M  V30 4414 C 410.265 -0.649984 -4.35274 0
M  V30 4415 H 407.384 -0.248025 -0.694012 0
M  V30 4416 H 410.026 -1.24314 -1.43688 0
M  V30 4417 H 408.176 -0.612171 -3.83647 0
M  V30 4418 H 409.848 -3.17543 -3.34611 0
M  V30 4419 H 408.091 -3.03609 -3.09845 0
M  V30 4420 H 408.762 -2.85804 -4.7225 0
M  V30 4421 H 411.238 -1.0626 -4.02303 0
M  V30 4422 H 410.114 -0.967743 -5.40302 0
M  V30 4423 H 410.375 0.449139 -4.39813 0
M  V30 4424 N 409.434 1.37368 -0.772513 0
M  V30 4425 C 410.367 2.27956 -0.105593 0
M  V30 4426 C 411.345 1.46362 0.708295 0
M  V30 4427 O 412.529 1.75695 0.682895 0
M  V30 4428 C 409.656 3.27687 0.856686 0
M  V30 4429 C 408.702 4.26312 0.1267 0
M  V30 4430 S 409.535 5.22206 -1.1858 0
M  V30 4431 C 410.691 6.25488 -0.227081 0
M  V30 4432 H 410.924 2.84171 -0.87372 0
M  V30 4433 H 408.457 1.43654 -0.565939 0
M  V30 4434 H 410.415 3.85653 1.40648 0
M  V30 4435 H 409.076 2.70417 1.59793 0
M  V30 4436 H 408.269 4.96674 0.856212 0
M  V30 4437 H 407.871 3.72339 -0.352117 0
M  V30 4438 H 410.163 6.74836 0.600231 0
M  V30 4439 H 411.106 7.02371 -0.898899 0
M  V30 4440 H 411.514 5.64267 0.162053 0
M  V30 4441 N 410.912 0.523116 1.48665 0
M  V30 4442 C 412.137 -0.0117284 2.07397 0
M  V30 4443 C 412.562 -1.28031 1.37803 0
M  V30 4444 O 411.92 -1.75836 0.441762 0
M  V30 4445 C 411.968 -0.225786 3.59892 0
M  V30 4446 O 411.072 -1.29592 3.91509 0
M  V30 4447 H 410.413 0.0360673 0.66302 0
M  V30 4448 H 412.943 0.729066 1.9117 0
M  V30 4449 H 412.953 -0.450552 4.05505 0
M  V30 4450 H 411.628 0.700944 4.09951 0
M  V30 4451 H 410.205 -1.05436 3.57684 0
M  V30 4452 N 412.39 -1.55475 0.257931 0
M  V30 4453 C 413.337 -2.21837 -0.636939 0
M  V30 4454 C 414.307 -1.18596 -1.16294 0
M  V30 4455 O 415.492 -1.47081 -1.21539 0
M  V30 4456 C 412.632 -2.9301 -1.82317 0
M  V30 4457 C 411.745 -4.10931 -1.33265 0
M  V30 4458 C 410.88 -4.69791 -2.47931 0
M  V30 4459 C 409.919 -5.7994 -1.95796 0
M  V30 4460 N 409.056 -6.32935 -3.0387 0
M  V30 4461 H 413.896 -2.9793 -0.0643591 0
M  V30 4462 H 411.433 -1.47086 -0.0200031 0
M  V30 4463 H 413.391 -3.3248 -2.52018 0
M  V30 4464 H 412.021 -2.1937 -2.36805 0
M  V30 4465 H 411.073 -3.76699 -0.52931 0
M  V30 4466 H 412.385 -4.90417 -0.910654 0
M  V30 4467 H 411.539 -5.11892 -3.25656 0
M  V30 4468 H 410.278 -3.89545 -2.93438 0
M  V30 4469 H 409.283 -5.37305 -1.16546 0
M  V30 4470 H 410.508 -6.62043 -1.51246 0
M  V30 4471 H 408.454 -5.55591 -3.48791 0
M  V30 4472 H 408.371 -7.07645 -2.66035 0
M  V30 4473 H 409.639 -6.79695 -3.81621 0
M  V30 4474 N 413.868 0.0150385 -1.57593 0
M  V30 4475 C 414.801 1.04475 -2.0288 0
M  V30 4476 C 415.779 1.3436 -0.915764 0
M  V30 4477 O 416.963 1.46779 -1.18271 0
M  V30 4478 C 414.09 2.37608 -2.41371 0
M  V30 4479 C 413.136 2.23487 -3.63257 0
M  V30 4480 S 413.969 1.57505 -5.11813 0
M  V30 4481 C 415.125 2.921 -5.5356 0
M  V30 4482 H 415.358 0.65907 -2.89903 0
M  V30 4483 H 412.891 0.225452 -1.52745 0
M  V30 4484 H 414.849 3.14165 -2.64217 0
M  V30 4485 H 413.51 2.7332 -1.54775 0
M  V30 4486 H 412.703 3.21802 -3.87891 0
M  V30 4487 H 412.305 1.55074 -3.40335 0
M  V30 4488 H 414.597 3.88419 -5.55101 0
M  V30 4489 H 415.54 2.72184 -6.53698 0
M  V30 4490 H 415.948 2.95318 -4.8109 0
M  V30 4491 N 415.346 1.54954 0.287554 0
M  V30 4492 C 416.309 1.86076 1.33823 0
M  V30 4493 C 417.309 0.734414 1.43049 0
M  V30 4494 O 418.499 1.00266 1.42452 0
M  V30 4495 C 415.631 2.05305 2.72144 0
M  V30 4496 H 416.824 2.79984 1.07465 0
M  V30 4497 H 414.377 1.47223 0.524902 0
M  V30 4498 H 415.112 1.1373 3.03704 0
M  V30 4499 H 414.897 2.873 2.66836 0
M  V30 4500 H 416.387 2.30706 3.48087 0
M  V30 4501 N 416.824 -0.551391 1.4764 0
M  V30 4502 C 418.072 -1.30572 1.54258 0
M  V30 4503 C 418.393 -1.93877 0.208963 0
M  V30 4504 O 417.663 -1.80234 -0.767619 0
M  V30 4505 H 416.243 -0.484894 0.568231 0
M  V30 4506 H 418.905 -0.643402 1.83974 0
M  V30 4507 H 418.001 -2.09621 2.31226 0
M  V30 4508 N 418.302 -1.35869 -0.798587 0
M  V30 4509 C 419.212 -1.31578 -1.94228 0
M  V30 4510 C 420.228 -0.21939 -1.72611 0
M  V30 4511 O 421.404 -0.450167 -1.96305 0
M  V30 4512 C 418.469 -1.09528 -3.28944 0
M  V30 4513 C 417.53 -2.28556 -3.63402 0
M  V30 4514 C 416.763 -2.07549 -4.9169 0
M  V30 4515 O 416.986 -1.046 -5.60727 0
M  V30 4516 O 415.92 -2.95106 -5.24591 0
M  V30 4517 H 419.746 -2.27847 -2.00796 0
M  V30 4518 H 417.331 -1.16322 -0.937526 0
M  V30 4519 H 419.213 -0.991127 -4.09579 0
M  V30 4520 H 417.888 -0.16315 -3.23289 0
M  V30 4521 H 416.795 -2.44538 -2.83112 0
M  V30 4522 H 418.128 -3.20244 -3.73771 0
M  V30 4523 N 419.78 1.02168 -1.19998 0
M  V30 4524 C 420.743 2.08765 -0.94604 0
M  V30 4525 C 421.743 1.60618 0.0763846 0
M  V30 4526 O 422.933 1.73472 -0.159135 0
M  V30 4527 C 420.065 3.38262 -0.423255 0
M  V30 4528 H 421.258 2.32726 -1.89153 0
M  V30 4529 H 418.811 1.1889 -1.01464 0
M  V30 4530 H 419.546 3.19974 0.527938 0
M  V30 4531 H 419.331 3.74532 -1.16053 0
M  V30 4532 H 420.821 4.16759 -0.264911 0
M  V30 4533 N 421.258 1.00505 1.21394 0
M  V30 4534 C 422.168 0.574806 2.27449 0
M  V30 4535 C 423.184 -0.382206 1.6975 0
M  V30 4536 O 424.36 -0.246027 1.99892 0
M  V30 4537 C 421.425 -0.0917414 3.46579 0
M  V30 4538 C 420.486 0.909758 4.1955 0
M  V30 4539 C 419.719 0.274924 5.32991 0
M  V30 4540 O 419.942 -0.928254 5.62796 0
M  V30 4541 O 418.876 0.985877 5.93771 0
M  V30 4542 H 422.702 1.45744 2.66444 0
M  V30 4543 H 420.287 0.773923 1.27792 0
M  V30 4544 H 422.169 -0.464551 4.18832 0
M  V30 4545 H 420.844 -0.948755 3.09484 0
M  V30 4546 H 419.751 1.33372 3.49518 0
M  V30 4547 H 421.084 1.73636 4.60555 0
M  V30 4548 N 422.737 -1.36956 0.779787 0
M  V30 4549 C 423.7 -2.2851 0.177662 0
M  V30 4550 C 424.7 -1.48393 -0.619377 0
M  V30 4551 O 425.89 -1.68505 -0.441785 0
M  V30 4552 C 423.022 -3.32428 -0.755279 0
M  V30 4553 H 424.215 -2.83269 0.984823 0
M  V30 4554 H 421.768 -1.46358 0.548544 0
M  V30 4555 H 422.503 -2.82808 -1.58714 0
M  V30 4556 H 422.288 -3.91659 -0.185817 0
M  V30 4557 H 423.778 -4.00824 -1.17174 0
M  V30 4558 N 424.215 -0.530993 -1.48385 0
M  V30 4559 C 425.163 0.244595 -2.3131 0
M  V30 4560 C 426.157 0.93451 -1.41291 0
M  V30 4561 O 427.363 0.85878 -1.58193 0
M  V30 4562 H 423.738 0.0977472 -0.74562 0
M  V30 4563 H 425.709 -0.474369 -2.94605 0
M  V30 4564 C 424.458 1.2779 -3.23365 0
M  V30 4565 H 423.781 0.756439 -3.92579 0
M  V30 4566 H 425.221 1.79198 -3.84271 0
M  V30 4567 C 423.68 2.31205 -2.45042 0
M  V30 4568 O 424.21 3.37661 -2.17596 0
M  V30 4569 N 422.416 2.04446 -2.0652 0
M  V30 4570 H 421.963 1.17891 -2.2904 0
M  V30 4571 H 421.921 2.73861 -1.54427 0
M  V30 4572 N 425.693 1.55336 -0.266172 0
M  V30 4573 C 426.623 2.25146 0.618981 0
M  V30 4574 C 427.604 1.23845 1.16604 0
M  V30 4575 O 428.789 1.52544 1.20183 0
M  V30 4576 C 425.919 2.96572 1.80728 0
M  V30 4577 C 424.873 4.04726 1.39215 0
M  V30 4578 C 424.199 4.63678 2.66283 0
M  V30 4579 C 425.499 5.19407 0.548942 0
M  V30 4580 H 427.193 2.99377 0.0368116 0
M  V30 4581 H 424.739 1.43991 0.0162651 0
M  V30 4582 H 426.692 3.44116 2.43232 0
M  V30 4583 H 425.416 2.19861 2.41514 0
M  V30 4584 H 424.075 3.57979 0.790351 0
M  V30 4585 H 423.723 3.83646 3.25308 0
M  V30 4586 H 423.423 5.367 2.39222 0
M  V30 4587 H 424.947 5.13967 3.29651 0
M  V30 4588 H 426.361 5.63059 1.07876 0
M  V30 4589 H 424.758 5.98936 0.373593 0
M  V30 4590 H 425.828 4.8295 -0.434394 0
M  V30 4591 N 427.171 -0.0066808 1.57599 0
M  V30 4592 C 428.587 -0.36267 1.55425 0
M  V30 4593 C 428.787 -1.75209 0.995187 0
M  V30 4594 O 427.843 -2.44616 0.626058 0
M  V30 4595 C 429.156 -0.244017 2.99708 0
M  V30 4596 C 430.704 -0.319451 3.11366 0
M  V30 4597 C 431.179 -0.229998 4.57422 0
M  V30 4598 N 432.67 -0.288105 4.62303 0
M  V30 4599 C 433.405 -0.242127 5.72889 0
M  V30 4600 N 432.901 -0.147133 6.92644 0
M  V30 4601 N 434.694 -0.293502 5.61333 0
M  V30 4602 H 426.845 0.902314 1.92281 0
M  V30 4603 H 429.108 0.34525 0.882896 0
M  V30 4604 H 428.814 0.711678 3.44424 0
M  V30 4605 H 428.688 -1.02877 3.629 0
M  V30 4606 H 431.075 -1.26559 2.66584 0
M  V30 4607 H 431.156 0.495055 2.50964 0
M  V30 4608 H 430.8 0.712566 5.02877 0
M  V30 4609 H 430.73 -1.0629 5.15761 0
M  V30 4610 H 433.221 -0.363126 3.76151 0
M  V30 4611 H 433.534 -0.117763 7.7271 0
M  V30 4612 H 431.879 -0.112857 6.94908 0
M  V30 4613 H 435.07 -0.365864 4.66668 0
M  V30 4614 H 435.243 -0.254204 6.47501 0
M  V30 4615 N 428.649 -1.55105 -0.279332 0
M  V30 4616 C 430.065 -1.46803 -0.626187 0
M  V30 4617 C 430.265 -0.676939 -1.89789 0
M  V30 4618 O 429.321 -0.19326 -2.51759 0
M  V30 4619 C 430.634 -2.90962 -0.759034 0
M  V30 4620 C 432.182 -3.01138 -0.853504 0
M  V30 4621 C 432.657 -4.46539 -1.01818 0
M  V30 4622 N 434.148 -4.50341 -1.08386 0
M  V30 4623 C 434.883 -5.60053 -1.22996 0
M  V30 4624 N 434.379 -6.79645 -1.34366 0
M  V30 4625 N 436.172 -5.47783 -1.26056 0
M  V30 4626 H 428.323 -2.04996 0.555921 0
M  V30 4627 H 430.586 -0.929325 0.187239 0
M  V30 4628 H 430.292 -3.51544 0.104852 0
M  V30 4629 H 430.166 -3.39619 -1.64131 0
M  V30 4630 H 432.553 -2.40658 -1.70786 0
M  V30 4631 H 432.634 -2.55745 0.0532466 0
M  V30 4632 H 432.278 -5.0762 -0.168504 0
M  V30 4633 H 432.208 -4.89583 -1.93948 0
M  V30 4634 H 434.699 -3.64191 -1.00864 0
M  V30 4635 H 435.012 -7.59012 -1.4533 0
M  V30 4636 H 433.357 -6.82469 -1.31382 0
M  V30 4637 H 436.548 -4.53294 -1.168 0
M  V30 4638 H 436.721 -6.33331 -1.37098 0
M  V30 4639 N 430.127 0.543554 -1.4793 0
M  V30 4640 C 431.09 1.63156 -1.60975 0
M  V30 4641 C 432.09 1.53346 -0.483899 0
M  V30 4642 O 433.28 1.5726 -0.749339 0
M  V30 4643 C 430.412 3.02743 -1.56716 0
M  V30 4644 H 431.605 1.52934 -2.57975 0
M  V30 4645 H 429.158 0.764557 -1.36324 0
M  V30 4646 H 429.893 3.18484 -0.611418 0
M  V30 4647 H 429.678 3.11272 -2.38438 0
M  V30 4648 H 431.168 3.81871 -1.6901 0
M  V30 4649 N 431.605 1.3629 0.791371 0
M  V30 4650 C 432.852 1.30412 1.54916 0
M  V30 4651 C 433.18 -0.117162 1.94147 0
M  V30 4652 O 432.435 -1.08599 1.62803 0
M  V30 4653 C 432.734 2.17068 2.8393 0
M  V30 4654 C 432.4 3.65645 2.63846 0
M  V30 4655 C 431.062 4.0614 2.58077 0
M  V30 4656 C 433.414 4.59855 2.45322 0
M  V30 4657 C 430.742 5.3899 2.31748 0
M  V30 4658 C 433.094 5.9292 2.2052 0
M  V30 4659 C 431.758 6.32542 2.13183 0
M  V30 4660 H 431.028 0.47721 0.566879 0
M  V30 4661 H 433.675 1.68325 0.913172 0
M  V30 4662 H 431.98 1.72085 3.51986 0
M  V30 4663 H 433.677 2.09846 3.4171 0
M  V30 4664 H 430.267 3.33518 2.69191 0
M  V30 4665 H 434.451 4.29443 2.48782 0
M  V30 4666 H 429.707 5.68672 2.24548 0
M  V30 4667 H 433.881 6.65487 2.05182 0
M  V30 4668 H 431.508 7.35412 1.92544 0
M  V30 4669 N 433.083 -1.0153 1.20538 0
M  V30 4670 C 433.993 -2.13557 0.971113 0
M  V30 4671 C 435.009 -1.73845 -0.0734366 0
M  V30 4672 O 436.185 -2.01075 0.114299 0
M  V30 4673 C 433.25 -3.42661 0.527639 0
M  V30 4674 C 432.311 -3.96608 1.64319 0
M  V30 4675 C 431.544 -5.1955 1.22078 0
M  V30 4676 O 431.767 -5.70329 0.0900198 0
M  V30 4677 O 430.701 -5.66681 2.02871 0
M  V30 4678 H 434.527 -2.3619 1.90913 0
M  V30 4679 H 432.112 -1.11946 0.989362 0
M  V30 4680 H 433.994 -4.20404 0.289621 0
M  V30 4681 H 432.669 -3.21441 -0.381779 0
M  V30 4682 H 431.576 -3.20139 1.93551 0
M  V30 4683 H 432.909 -4.22219 2.52966 0
M  V30 4684 N 434.561 -1.01147 -1.20859 0
M  V30 4685 C 435.471 -0.58686 -2.27141 0
M  V30 4686 C 436.487 0.373198 -1.69951 0
M  V30 4687 O 437.663 0.235423 -2.00019 0
M  V30 4688 C 434.728 0.0733602 -3.46622 0
M  V30 4689 C 433.789 -0.931995 -4.19061 0
M  V30 4690 C 433.022 -0.303186 -5.32838 0
M  V30 4691 O 433.245 0.898395 -5.63281 0
M  V30 4692 O 432.179 -1.01735 -5.9324 0
M  V30 4693 H 436.005 -1.47155 -2.65667 0
M  V30 4694 H 433.59 -0.780689 -1.2738 0
M  V30 4695 H 435.472 0.442333 -4.19072 0
M  V30 4696 H 434.147 0.932329 -3.09983 0
M  V30 4697 H 433.054 -1.35224 -3.48805 0
M  V30 4698 H 434.387 -1.76076 -4.59628 0
M  V30 4699 N 436.039 1.36541 -0.78704 0
M  V30 4700 C 437.002 2.28413 -0.189778 0
M  V30 4701 C 438.002 1.48719 0.611499 0
M  V30 4702 O 439.192 1.68737 0.432842 0
M  V30 4703 C 436.324 3.32824 0.737638 0
M  V30 4704 H 437.517 2.82743 -0.999831 0
M  V30 4705 H 435.07 1.46065 -0.556298 0
M  V30 4706 H 435.805 2.83646 1.57212 0
M  V30 4707 H 435.59 3.91752 0.165044 0
M  V30 4708 H 437.08 4.0144 1.15047 0
M  V30 4709 N 437.518 0.538854 1.48102 0
M  V30 4710 C 438.428 -0.222648 2.33541 0
M  V30 4711 C 439.444 -0.930225 1.47047 0
M  V30 4712 O 440.62 -0.903211 1.80011 0
M  V30 4713 C 437.685 -1.25064 3.23357 0
M  V30 4714 C 436.746 -0.552469 4.2573 0
M  V30 4715 C 435.979 -1.53149 5.11254 0
M  V30 4716 O 436.202 -2.76487 4.9891 0
M  V30 4717 O 435.136 -1.06602 5.92385 0
M  V30 4718 H 438.962 0.477707 2.99919 0
M  V30 4719 H 436.547 0.299669 1.46364 0
M  V30 4720 H 438.429 -1.8445 3.78888 0
M  V30 4721 H 437.104 -1.93325 2.59629 0
M  V30 4722 H 436.011 0.082114 3.7401 0
M  V30 4723 H 437.344 0.0883526 4.92121 0
M  V30 4724 N 438.996 -1.55193 0.274407 0
M  V30 4725 C 439.943 -2.225 -0.613374 0
M  V30 4726 C 440.913 -1.19823 -1.15029 0
M  V30 4727 O 442.098 -1.48362 -1.19973 0
M  V30 4728 C 439.238 -2.94927 -1.79199 0
M  V30 4729 C 438.351 -4.12322 -1.28899 0
M  V30 4730 C 437.486 -4.72394 -2.42934 0
M  V30 4731 C 436.525 -5.81984 -1.89634 0
M  V30 4732 N 435.662 -6.36123 -2.9714 0
M  V30 4733 H 440.502 -2.97982 -0.032756 0
M  V30 4734 H 438.039 -1.47099 -0.00440146 0
M  V30 4735 H 439.997 -3.35134 -2.48478 0
M  V30 4736 H 438.627 -2.2187 -2.34465 0
M  V30 4737 H 437.679 -3.7724 -0.489327 0
M  V30 4738 H 438.991 -4.91355 -0.858587 0
M  V30 4739 H 438.145 -5.15317 -3.20208 0
M  V30 4740 H 436.884 -3.92636 -2.8929 0
M  V30 4741 H 435.889 -5.38511 -1.1084 0
M  V30 4742 H 437.114 -6.6361 -1.44215 0
M  V30 4743 H 435.06 -5.59259 -3.42878 0
M  V30 4744 H 434.977 -7.10427 -2.58515 0
M  V30 4745 H 436.245 -6.83704 -3.74391 0
M  V30 4746 N 440.474 -0.00167713 -1.576 0
M  V30 4747 C 441.422 1.0074 -2.09652 0
M  V30 4748 C 442.416 1.35483 -1.01689 0
M  V30 4749 O 443.622 1.34028 -1.20152 0
M  V30 4750 H 439.997 0.342537 -0.669457 0
M  V30 4751 H 441.968 0.542841 -2.93421 0
M  V30 4752 C 440.717 2.2899 -2.61647 0
M  V30 4753 H 440.04 2.03124 -3.44355 0
M  V30 4754 H 441.48 2.9787 -3.01744 0
M  V30 4755 C 439.939 3.00085 -1.53136 0
M  V30 4756 O 440.469 3.91135 -0.91524 0
M  V30 4757 N 438.675 2.6194 -1.25841 0
M  V30 4758 H 438.222 1.8798 -1.76129 0
M  V30 4759 H 438.18 3.09822 -0.534576 0
M  V30 4760 N 441.952 1.55251 0.271103 0
M  V30 4761 C 443.177 1.80306 1.02491 0
M  V30 4762 C 443.602 0.575457 1.79081 0
M  V30 4763 O 442.96 -0.474987 1.74967 0
M  V30 4764 C 443.008 3.02832 1.95768 0
M  V30 4765 O 442.112 2.78051 3.04568 0
M  V30 4766 H 441.453 0.595896 0.292923 0
M  V30 4767 H 443.983 2.02397 0.299436 0
M  V30 4768 H 443.993 3.31616 2.37686 0
M  V30 4769 H 442.668 3.9183 1.39434 0
M  V30 4770 H 441.245 2.60369 2.66951 0
M  V30 4771 N 443.43 -0.535701 1.48216 0
M  V30 4772 C 444.841 -1.11769 1.49548 0
M  V30 4773 C 445.192 -1.94442 0.26207 0
M  V30 4774 O 444.317 -2.06987 -0.631287 0
M  V30 4775 C 444.912 -2.03367 2.70975 0
M  V30 4776 C 443.471 -2.56795 2.75196 0
M  V30 4777 C 442.618 -1.33631 2.42977 0
M  V30 4778 H 445.569 -0.321232 1.55415 0
M  V30 4779 H 445.59 -2.87569 2.49167 0
M  V30 4780 H 445.102 -1.43169 3.60727 0
M  V30 4781 H 443.203 -3.20731 1.89638 0
M  V30 4782 H 443.316 -2.9632 3.76472 0
M  V30 4783 H 441.68 -1.6502 1.94012 0
M  V30 4784 H 442.463 -0.75194 3.34964 0
M  V30 4785 N 444.908 -1.36708 -0.784132 0
M  V30 4786 C 445.871 -1.31307 -1.87859 0
M  V30 4787 C 446.871 -0.219654 -1.59293 0
M  V30 4788 O 448.061 -0.47476 -1.67606 0
M  V30 4789 C 445.193 -1.03679 -3.24751 0
M  V30 4790 H 446.386 -2.28647 -1.94064 0
M  V30 4791 H 443.939 -1.21558 -0.98252 0
M  V30 4792 H 444.674 -0.0681936 -3.24228 0
M  V30 4793 H 444.459 -1.82811 -3.46876 0
M  V30 4794 H 445.949 -1.02518 -4.04821 0
M  V30 4795 N 446.386 1.0089 -1.21074 0
M  V30 4796 C 447.635 1.74019 -1.01981 0
M  V30 4797 C 447.948 1.90408 0.447665 0
M  V30 4798 O 449.154 2.60707 0.757906 0
M  V30 4799 C 447.61 3.13026 -1.77603 0
M  V30 4800 C 447.218 3.04623 -3.28495 0
M  V30 4801 C 448.962 3.90312 -1.66904 0
M  V30 4802 C 446.869 4.38685 -3.96623 0
M  V30 4803 H 445.799 0.652422 -0.377971 0
M  V30 4804 H 448.45 1.12755 -1.44771 0
M  V30 4805 H 446.832 3.74878 -1.27604 0
M  V30 4806 H 448.006 2.52032 -3.85767 0
M  V30 4807 H 446.321 2.40827 -3.39693 0
M  V30 4808 H 448.918 4.8951 -2.15138 0
M  V30 4809 H 449.261 4.11558 -0.62658 0
M  V30 4810 H 449.794 3.35104 -2.14359 0
M  V30 4811 H 446.533 4.22641 -5.01054 0
M  V30 4812 H 446.053 4.91252 -3.4414 0
M  V30 4813 H 447.732 5.075 -4.01314 0
M  V30 4814 N 447.864 1.01787 1.20321 0
M  V30 4815 C 449.113 0.703249 1.89043 0
M  V30 4816 C 449.426 -0.770445 1.79787 0
M  V30 4817 O 450.632 -1.19767 2.43656 0
M  V30 4818 C 449.088 1.20749 3.3904 0
M  V30 4819 C 448.696 2.70817 3.56878 0
M  V30 4820 C 450.44 0.968352 4.13308 0
M  V30 4821 C 448.347 3.14716 5.00708 0
M  V30 4822 H 447.277 0.259354 0.707991 0
M  V30 4823 H 449.928 1.23072 1.36108 0
M  V30 4824 H 448.31 0.607989 3.91305 0
M  V30 4825 H 449.484 3.36327 3.14993 0
M  V30 4826 H 447.799 2.92888 2.95983 0
M  V30 4827 H 450.396 1.27173 5.19356 0
M  V30 4828 H 450.739 -0.095149 4.16191 0
M  V30 4829 H 451.272 1.53129 3.67146 0
M  V30 4830 H 448.011 4.20347 5.02979 0
M  V30 4831 H 447.531 2.53927 5.43398 0
M  V30 4832 H 449.21 3.07426 5.69296 0
M  V30 4833 N 449.342 -1.36122 0.79427 0
M  V30 4834 C 450.589 -1.99111 0.368905 0
M  V30 4835 C 450.917 -1.63032 -1.0607 0
M  V30 4836 O 450.172 -0.879303 -1.74833 0
M  V30 4837 C 450.471 -3.5409 0.48527 0
M  V30 4838 C 450.137 -4.10003 1.87638 0
M  V30 4839 C 448.799 -4.24986 2.257 0
M  V30 4840 C 451.151 -4.40423 2.78706 0
M  V30 4841 C 448.479 -4.67701 3.54221 0
M  V30 4842 C 450.831 -4.84573 4.0666 0
M  V30 4843 C 449.495 -4.97761 4.44737 0
M  V30 4844 H 448.765 -0.7286 0.134992 0
M  V30 4845 H 451.412 -1.62534 1.01267 0
M  V30 4846 H 449.717 -3.91052 -0.241984 0
M  V30 4847 H 451.414 -4.00766 0.137109 0
M  V30 4848 H 448.004 -3.98784 1.57064 0
M  V30 4849 H 452.188 -4.28412 2.50553 0
M  V30 4850 H 447.444 -4.761 3.83587 0
M  V30 4851 H 451.618 -5.07074 4.77336 0
M  V30 4852 H 449.245 -5.30618 5.44379 0
M  V30 4853 N 450.82 -0.546701 -1.47814 0
M  V30 4854 C 452.069 -0.0166497 -2.01693 0
M  V30 4855 C 452.382 1.33721 -1.42752 0
M  V30 4856 O 453.588 1.95658 -1.8823 0
M  V30 4857 C 452.044 0.0206769 -3.59894 0
M  V30 4858 C 451.652 -1.3293 -4.27824 0
M  V30 4859 C 453.396 0.498674 -4.21561 0
M  V30 4860 C 451.303 -1.25165 -5.78003 0
M  V30 4861 H 450.233 -0.0024541 -0.753996 0
M  V30 4862 H 452.884 -0.692984 -1.69912 0
M  V30 4863 H 451.266 0.76244 -3.88591 0
M  V30 4864 H 452.44 -2.08795 -4.10781 0
M  V30 4865 H 450.755 -1.74438 -3.78101 0
M  V30 4866 H 453.352 0.575 -5.31599 0
M  V30 4867 H 453.695 1.5083 -3.88016 0
M  V30 4868 H 454.228 -0.18791 -3.97356 0
M  V30 4869 H 450.967 -2.23695 -6.1615 0
M  V30 4870 H 450.487 -0.53464 -5.97412 0
M  V30 4871 H 452.166 -0.949299 -6.39998 0
M  V30 4872 N 452.299 1.55045 -0.282633 0
M  V30 4873 C 453.576 1.9179 0.384166 0
M  V30 4874 C 453.956 1.20778 1.73136 0
M  V30 4875 O 453.304 0.33719 2.25998 0
M  V30 4876 C 453.514 3.45149 0.517014 0
M  V30 4877 C 454.862 4.17064 0.796427 0
M  V30 4878 O 455.886 3.51084 0.601535 0
M  V30 4879 O 454.745 5.33837 1.16962 0
M  V30 4880 H 451.839 0.799483 0.211558 0
M  V30 4881 H 454.385 1.66474 -0.32934 0
M  V30 4882 H 453.157 3.88922 -0.430772 0
M  V30 4883 H 452.78 3.76443 1.2797 0
M  V30 4884 N 453.777 0.010035 1.57597 0
M  V30 4885 C 454.687 -0.994226 2.12491 0
M  V30 4886 C 455.703 -1.37013 1.07254 0
M  V30 4887 O 456.879 -1.45542 1.3921 0
M  V30 4888 C 453.944 -2.2642 2.62555 0
M  V30 4889 C 453.005 -1.95049 3.82432 0
M  V30 4890 C 452.238 -3.15991 4.30099 0
M  V30 4891 O 452.461 -4.28015 3.7704 0
M  V30 4892 O 451.395 -2.99403 5.22151 0
M  V30 4893 H 455.221 -0.557549 2.98538 0
M  V30 4894 H 452.806 -0.209413 1.47925 0
M  V30 4895 H 454.688 -3.01009 2.9491 0
M  V30 4896 H 453.363 -2.69306 1.796 0
M  V30 4897 H 452.27 -1.17904 3.55034 0
M  V30 4898 H 453.603 -1.56992 4.66491 0
M  V30 4899 N 455.255 -1.55392 -0.262866 0
M  V30 4900 C 456.504 -1.75679 -0.990943 0
M  V30 4901 C 456.817 -0.57097 -1.87081 0
M  V30 4902 O 458.023 -0.656486 -2.63444 0
M  V30 4903 C 456.479 -3.10964 -1.81188 0
M  V30 4904 C 456.087 -4.37146 -0.980188 0
M  V30 4905 C 457.831 -3.40597 -2.53365 0
M  V30 4906 C 455.738 -5.63466 -1.7961 0
M  V30 4907 H 454.668 -0.654868 -0.373716 0
M  V30 4908 H 457.319 -1.81841 -0.246203 0
M  V30 4909 H 455.701 -2.98867 -2.59797 0
M  V30 4910 H 456.875 -4.60187 -0.237558 0
M  V30 4911 H 455.19 -4.14731 -0.372497 0
M  V30 4912 H 457.787 -4.32186 -3.14833 0
M  V30 4913 H 458.13 -2.6119 -3.24169 0
M  V30 4914 H 458.663 -3.53838 -1.81779 0
M  V30 4915 H 455.402 -6.4565 -1.13209 0
M  V30 4916 H 454.922 -5.44552 -2.51443 0
M  V30 4917 H 456.601 -6.02139 -2.36723 0
M  V30 4918 N 456.733 0.527833 -1.48498 0
M  V30 4919 C 458.01 1.28905 -1.47115 0
M  V30 4920 C 458.39 2.10297 -0.184007 0
M  V30 4921 O 457.738 2.12728 0.834218 0
M  V30 4922 C 457.948 2.16866 -2.73441 0
M  V30 4923 C 459.296 2.76936 -3.21857 0
M  V30 4924 O 460.32 2.27152 -2.74373 0
M  V30 4925 O 459.179 3.67496 -4.04486 0
M  V30 4926 H 456.273 0.581918 -0.587623 0
M  V30 4927 H 458.819 0.544311 -1.60734 0
M  V30 4928 H 457.591 1.56521 -3.58632 0
M  V30 4929 H 457.214 2.98583 -2.62553 0
M  V30 4930 N 458.211 1.37122 0.776871 0
M  V30 4931 C 459.436 1.354 1.57104 0
M  V30 4932 C 459.861 -0.0595562 1.88006 0
M  V30 4933 O 459.219 -1.03514 1.48844 0
M  V30 4934 C 459.267 2.19472 2.8612 0
M  V30 4935 O 458.371 1.59582 3.80273 0
M  V30 4936 H 457.712 0.462869 0.476076 0
M  V30 4937 H 460.242 1.80577 0.961932 0
M  V30 4938 H 460.252 2.32502 3.35271 0
M  V30 4939 H 458.927 3.22222 2.62956 0
M  V30 4940 H 457.504 1.55564 3.38902 0
M  V30 4941 N 459.689 -1.00246 1.21608 0
M  V30 4942 C 460.938 -1.73476 1.02902 0
M  V30 4943 C 461.251 -1.90643 -0.437561 0
M  V30 4944 O 462.457 -2.61105 -0.74407 0
M  V30 4945 C 460.913 -3.12079 1.79261 0
M  V30 4946 C 460.521 -3.02877 3.30106 0
M  V30 4947 C 462.265 -3.89421 1.68972 0
M  V30 4948 C 460.172 -4.36575 3.98944 0
M  V30 4949 H 459.102 -0.650408 0.381425 0
M  V30 4950 H 461.753 -1.11985 1.45367 0
M  V30 4951 H 460.135 -3.74196 1.2959 0
M  V30 4952 H 461.309 -2.49983 3.87098 0
M  V30 4953 H 459.624 -2.39022 3.40965 0
M  V30 4954 H 462.221 -4.88362 2.17731 0
M  V30 4955 H 462.564 -4.1122 0.648397 0
M  V30 4956 H 463.097 -3.33963 2.16133 0
M  V30 4957 H 459.836 -4.19978 5.03288 0
M  V30 4958 H 459.356 -4.8942 3.4674 0
M  V30 4959 H 461.035 -5.05364 4.04 0
M  V30 4960 N 461.167 -1.02423 -1.1978 0
M  V30 4961 C 462.13 -0.605703 -2.21052 0
M  V30 4962 C 463.13 0.328209 -1.57415 0
M  V30 4963 O 464.32 0.115853 -1.73814 0
M  V30 4964 C 461.452 0.114366 -3.40708 0
M  V30 4965 H 462.645 -1.5017 -2.59594 0
M  V30 4966 H 460.198 -0.814888 -1.33376 0
M  V30 4967 H 460.933 1.02492 -3.07678 0
M  V30 4968 H 460.718 -0.556641 -3.88129 0
M  V30 4969 H 462.208 0.394272 -4.15735 0
M  V30 4970 N 462.645 1.35699 -0.801477 0
M  V30 4971 C 464.056 1.81415 -0.441073 0
M  V30 4972 C 464.407 1.66595 1.03636 0
M  V30 4973 O 463.532 1.19369 1.80499 0
M  V30 4974 C 464.127 3.29369 -0.793819 0
M  V30 4975 C 462.686 3.73248 -0.486083 0
M  V30 4976 C 461.833 2.57775 -1.02213 0
M  V30 4977 H 464.784 1.23749 -0.993572 0
M  V30 4978 H 464.805 3.80395 -0.0894158 0
M  V30 4979 H 464.317 3.40123 -1.86917 0
M  V30 4980 H 462.418 3.68046 0.580735 0
M  V30 4981 H 462.531 4.68222 -1.01513 0
M  V30 4982 H 460.895 2.50788 -0.444712 0
M  V30 4983 H 461.678 2.71309 -2.10348 0
M  V30 4984 N 464.123 0.554532 1.47522 0
M  V30 4985 C 465.07 -0.19466 2.29978 0
M  V30 4986 C 466.04 -0.910882 1.38896 0
M  V30 4987 O 467.225 -0.907102 1.67858 0
M  V30 4988 C 464.365 -1.22035 3.22802 0
M  V30 4989 C 463.478 -0.510474 4.28973 0
M  V30 4990 C 462.613 -1.52123 5.08952 0
M  V30 4991 C 461.652 -0.796173 6.069 0
M  V30 4992 N 460.789 -1.75363 6.79847 0
M  V30 4993 H 465.629 0.51461 2.93523 0
M  V30 4994 H 463.166 0.265607 1.44682 0
M  V30 4995 H 465.124 -1.8276 3.7504 0
M  V30 4996 H 463.754 -1.89769 2.61127 0
M  V30 4997 H 462.806 0.211234 3.79813 0
M  V30 4998 H 464.118 0.0576503 4.98767 0
M  V30 4999 H 463.272 -2.20207 5.65326 0
M  V30 5000 H 462.011 -2.12327 4.39054 0
M  V30 5001 H 461.016 -0.101388 5.49707 0
M  V30 5002 H 462.241 -0.199911 6.78806 0
M  V30 5003 H 460.187 -2.3443 6.12682 0
M  V30 5004 H 460.104 -1.23759 7.45801 0
M  V30 5005 H 461.372 -2.4257 7.40797 0
M  V30 5006 N 465.601 -1.54893 0.290851 0
M  V30 5007 C 467.017 -1.59476 -0.0628432 0
M  V30 5008 C 467.217 -1.30795 -1.5328 0
M  V30 5009 O 466.273 -1.07644 -2.28406 0
M  V30 5010 C 467.586 -2.98928 0.325962 0
M  V30 5011 C 469.134 -3.11799 0.273882 0
M  V30 5012 C 469.609 -4.53544 0.637359 0
M  V30 5013 N 471.1 -4.59433 0.589507 0
M  V30 5014 C 471.835 -5.67164 0.84335 0
M  V30 5015 N 471.331 -6.82975 1.16263 0
M  V30 5016 N 473.124 -5.56786 0.771091 0
M  V30 5017 H 465.275 -1.71798 1.24896 0
M  V30 5018 H 467.538 -0.801879 0.505663 0
M  V30 5019 H 467.244 -3.24805 1.34887 0
M  V30 5020 H 467.118 -3.75793 -0.325441 0
M  V30 5021 H 469.505 -2.85677 -0.739765 0
M  V30 5022 H 469.586 -2.37112 0.959766 0
M  V30 5023 H 469.23 -4.80394 1.64877 0
M  V30 5024 H 469.16 -5.26553 -0.0704866 0
M  V30 5025 H 471.651 -3.76245 0.353252 0
M  V30 5026 H 471.964 -7.61048 1.34257 0
M  V30 5027 H 470.309 -6.84552 1.20057 0
M  V30 5028 H 473.5 -4.65187 0.521383 0
M  V30 5029 H 473.673 -6.40664 0.972295 0
M  V30 5030 N 467.08 -0.0183926 -1.57589 0
M  V30 5031 C 467.99 0.982943 -2.13015 0
M  V30 5032 C 469.006 1.36443 -1.07979 0
M  V30 5033 O 470.182 1.44802 -1.3998 0
M  V30 5034 C 467.247 2.25024 -2.63752 0
M  V30 5035 C 466.308 1.93018 -3.83461 0
M  V30 5036 C 465.541 3.13706 -4.31769 0
M  V30 5037 O 465.764 4.2601 -3.79305 0
M  V30 5038 O 464.698 2.96629 -5.23732 0
M  V30 5039 H 468.524 0.541709 -2.9883 0
M  V30 5040 H 466.109 0.201565 -1.48034 0
M  V30 5041 H 467.991 2.99441 -2.96502 0
M  V30 5042 H 466.666 2.68349 -1.81026 0
M  V30 5043 H 465.573 1.16019 -3.55655 0
M  V30 5044 H 466.906 1.54516 -4.67317 0
M  V30 5045 N 468.558 1.5553 0.254621 0
M  V30 5046 C 469.505 1.89666 1.31512 0
M  V30 5047 C 470.475 0.750057 1.482 0
M  V30 5048 O 471.66 1.00301 1.62309 0
M  V30 5049 C 468.8 2.19009 2.667 0
M  V30 5050 C 467.913 3.46435 2.58083 0
M  V30 5051 C 467.048 3.65386 3.85573 0
M  V30 5052 C 466.087 4.8644 3.71541 0
M  V30 5053 N 465.224 5.01952 4.90906 0
M  V30 5054 H 470.064 2.80109 1.017 0
M  V30 5055 H 467.601 1.38666 0.490938 0
M  V30 5056 H 469.559 2.34025 3.45381 0
M  V30 5057 H 468.189 1.31779 2.94676 0
M  V30 5058 H 467.241 3.39792 1.71013 0
M  V30 5059 H 468.553 4.35258 2.43622 0
M  V30 5060 H 467.707 3.80319 4.72697 0
M  V30 5061 H 466.446 2.74781 4.02922 0
M  V30 5062 H 465.451 4.71491 2.82801 0
M  V30 5063 H 466.676 5.78497 3.55694 0
M  V30 5064 H 464.622 4.14283 5.08631 0
M  V30 5065 H 464.539 5.84851 4.79046 0
M  V30 5066 H 465.807 5.21289 5.7955 0
M  V30 5067 N 470.036 -0.519951 1.48776 0
M  V30 5068 C 471.264 -1.29971 1.60982 0
M  V30 5069 C 471.679 -1.86803 0.273885 0
M  V30 5070 O 471.036 -1.66904 -0.738193 0
M  V30 5071 C 471.087 -2.44346 2.66415 0
M  V30 5072 O 470.808 -1.89855 3.94825 0
M  V30 5073 C 472.309 -3.36014 2.89153 0
M  V30 5074 H 469.529 -0.394891 0.542496 0
M  V30 5075 H 472.073 -0.626214 1.94676 0
M  V30 5076 H 470.228 -3.07562 2.35552 0
M  V30 5077 H 470.642 -2.64798 4.5275 0
M  V30 5078 H 472.116 -4.12593 3.66703 0
M  V30 5079 H 472.593 -3.91859 1.98351 0
M  V30 5080 H 473.199 -2.78582 3.21359 0
M  V30 5081 N 471.514 -1.37532 -0.769588 0
M  V30 5082 C 472.462 -1.33561 -1.90432 0
M  V30 5083 C 473.456 -0.224027 -1.67912 0
M  V30 5084 O 474.662 -0.392174 -1.75676 0
M  V30 5085 H 471.037 -0.416279 -0.626271 0
M  V30 5086 H 473.008 -2.29348 -1.90899 0
M  V30 5087 C 471.757 -1.16162 -3.27722 0
M  V30 5088 H 471.08 -2.00951 -3.45628 0
M  V30 5089 H 472.52 -1.17434 -4.07413 0
M  V30 5090 C 470.979 0.132583 -3.36639 0
M  V30 5091 O 471.509 1.11539 -3.85904 0
M  V30 5092 N 469.715 0.184013 -2.90017 0
M  V30 5093 H 469.262 -0.616415 -2.50116 0
M  V30 5094 H 469.22 1.04956 -2.96364 0
M  V30 5095 N 472.992 0.995999 -1.22138 0
M  V30 5096 C 474.24 1.73167 -1.042 0
M  V30 5097 C 474.561 1.90329 0.42423 0
M  V30 5098 O 473.831 1.4607 1.30539 0
M  V30 5099 H 472.411 0.641593 -0.38258 0
M  V30 5100 H 475.073 1.19974 -1.53598 0
M  V30 5101 H 474.169 2.72734 -1.51731 0
M  V30 5102 N 474.47 1.03057 1.19235 0
M  V30 5103 C 475.38 0.622922 2.26179 0
M  V30 5104 C 476.396 -0.346113 1.70523 0
M  V30 5105 O 477.572 -0.203572 2.00369 0
M  V30 5106 C 474.637 -0.0182063 3.46695 0
M  V30 5107 C 473.698 0.998546 4.17526 0
M  V30 5108 C 472.931 0.387917 5.32288 0
M  V30 5109 O 473.154 -0.808668 5.64639 0
M  V30 5110 O 472.088 1.1116 5.91546 0
M  V30 5111 H 475.914 1.51363 2.63292 0
M  V30 5112 H 473.499 0.800856 1.26122 0
M  V30 5113 H 475.381 -0.375606 4.19723 0
M  V30 5114 H 474.056 -0.882895 3.11427 0
M  V30 5115 H 472.963 1.40756 3.4661 0
M  V30 5116 H 474.296 1.83366 4.56769 0
M  V30 5117 N 475.948 -1.35272 0.808662 0
M  V30 5118 C 477.194 -1.99003 0.390581 0
M  V30 5119 C 477.527 -1.63999 -1.0401 0
M  V30 5120 O 476.802 -0.904368 -1.72196 0
M  V30 5121 C 477.085 -3.55454 0.576566 0
M  V30 5122 C 476.938 -4.00249 2.05233 0
M  V30 5123 C 478.257 -4.401 0.00354277 0
M  V30 5124 H 475.376 -0.722917 0.143388 0
M  V30 5125 H 478.018 -1.6039 1.01858 0
M  V30 5126 H 476.168 -3.88477 0.0419766 0
M  V30 5127 H 477.84 -3.77626 2.64946 0
M  V30 5128 H 476.083 -3.51082 2.54801 0
M  V30 5129 H 476.754 -5.0911 2.13333 0
M  V30 5130 H 479.23 -4.13548 0.460117 0
M  V30 5131 H 478.106 -5.48656 0.163575 0
M  V30 5132 H 478.367 -4.28444 -1.09032 0
M  V30 5133 N 477.426 -0.562348 -1.47226 0
M  V30 5134 C 478.336 0.185466 -2.33866 0
M  V30 5135 C 479.352 0.906713 -1.48508 0
M  V30 5136 O 480.528 0.874458 -1.81425 0
M  V30 5137 C 477.593 1.19904 -3.25306 0
M  V30 5138 C 476.654 0.484669 -4.26555 0
M  V30 5139 C 475.887 1.44996 -5.13626 0
M  V30 5140 O 476.11 2.68515 -5.03245 0
M  V30 5141 O 475.044 0.971642 -5.94006 0
M  V30 5142 H 478.87 -0.525361 -2.99121 0
M  V30 5143 H 476.455 -0.322916 -1.45868 0
M  V30 5144 H 478.337 1.78399 -3.81774 0
M  V30 5145 H 477.012 1.8917 -2.62672 0
M  V30 5146 H 475.919 -0.141605 -3.73832 0
M  V30 5147 H 477.252 -0.166634 -4.91918 0
M  V30 5148 N 478.904 1.54736 -0.299062 0
M  V30 5149 C 480.32 1.59507 0.0543849 0
M  V30 5150 C 480.52 1.31606 1.52585 0
M  V30 5151 O 479.576 1.08853 2.27832 0
M  V30 5152 C 480.889 2.98751 -0.34181 0
M  V30 5153 C 482.437 3.1165 -0.290414 0
M  V30 5154 C 482.912 4.53199 -0.661402 0
M  V30 5155 N 484.403 4.59114 -0.613863 0
M  V30 5156 C 485.138 5.66709 -0.873417 0
M  V30 5157 N 484.634 6.82349 -1.19884 0
M  V30 5158 N 486.427 5.56369 -0.800608 0
M  V30 5159 H 478.578 1.71133 -1.25806 0
M  V30 5160 H 480.841 0.799186 -0.509908 0
M  V30 5161 H 480.547 3.24085 -1.36608 0
M  V30 5162 H 480.421 3.75961 0.305508 0
M  V30 5163 H 482.808 2.86066 0.724605 0
M  V30 5164 H 482.889 2.366 -0.972327 0
M  V30 5165 H 482.533 4.79513 -1.67422 0
M  V30 5166 H 482.463 5.26583 0.0425612 0
M  V30 5167 H 484.954 3.76053 -0.3732 0
M  V30 5168 H 485.267 7.60326 -1.38291 0
M  V30 5169 H 483.612 6.83906 -1.23685 0
M  V30 5170 H 486.803 4.64904 -0.546045 0
M  V30 5171 H 486.976 6.40139 -1.00626 0
M  V30 5172 N 480.382 0.0267497 1.57577 0
M  V30 5173 C 481.798 -0.32962 1.56159 0
M  V30 5174 C 481.998 -1.73059 1.03213 0
M  V30 5175 O 481.054 -2.43233 0.677804 0
M  V30 5176 C 482.367 -0.18039 3.00158 0
M  V30 5177 C 483.915 -0.253334 3.11973 0
M  V30 5178 C 484.39 -0.132921 4.57807 0
M  V30 5179 N 485.881 -0.189979 4.6281 0
M  V30 5180 C 486.616 -0.120554 5.73273 0
M  V30 5181 N 486.112 -0.000180315 6.928 0
M  V30 5182 N 487.905 -0.174369 5.61829 0
M  V30 5183 H 480.056 0.942896 1.90324 0
M  V30 5184 H 482.319 0.3639 0.875375 0
M  V30 5185 H 482.025 0.784576 3.42837 0
M  V30 5186 H 481.899 -0.951565 3.65 0
M  V30 5187 H 484.286 -1.20876 2.69208 0
M  V30 5188 H 484.367 0.548177 2.49857 0
M  V30 5189 H 484.011 0.819073 5.01252 0
M  V30 5190 H 483.941 -0.953264 5.179 0
M  V30 5191 H 486.432 -0.283257 3.76837 0
M  V30 5192 H 486.745 0.0461666 7.72786 0
M  V30 5193 H 485.09 0.034569 6.94991 0
M  V30 5194 H 488.281 -0.266794 4.67339 0
M  V30 5195 H 488.454 -0.116802 6.47895 0
M  V30 5196 N 481.861 -1.55662 -0.24637 0
M  V30 5197 C 483.107 -1.77782 -0.975779 0
M  V30 5198 C 483.44 -0.592103 -1.84953 0
M  V30 5199 O 482.715 0.409588 -1.90138 0
M  V30 5200 C 482.998 -3.09788 -1.83584 0
M  V30 5201 C 482.851 -4.38764 -0.990241 0
M  V30 5202 C 484.17 -3.38029 -2.81823 0
M  V30 5203 H 481.289 -0.646789 -0.353317 0
M  V30 5204 H 483.931 -1.88398 -0.246248 0
M  V30 5205 H 482.081 -3.00869 -2.45784 0
M  V30 5206 H 483.753 -4.59675 -0.386897 0
M  V30 5207 H 481.996 -4.32798 -0.294626 0
M  V30 5208 H 482.667 -5.27514 -1.62584 0
M  V30 5209 H 485.143 -3.46915 -2.2976 0
M  V30 5210 H 484.019 -4.3161 -3.39122 0
M  V30 5211 H 484.28 -2.58968 -3.58313 0
M  V30 5212 N 483.339 0.512053 -1.4905 0
M  V30 5213 C 484.585 1.26874 -1.58212 0
M  V30 5214 C 484.918 1.9241 -0.263073 0
M  V30 5215 O 484.193 1.80181 0.732476 0
M  V30 5216 C 484.476 2.34428 -2.73341 0
M  V30 5217 C 484.329 1.73466 -4.15006 0
M  V30 5218 C 485.648 3.36073 -2.84154 0
M  V30 5219 H 482.767 0.459924 -0.575881 0
M  V30 5220 H 485.409 0.568587 -1.81293 0
M  V30 5221 H 483.559 2.94146 -2.53792 0
M  V30 5222 H 485.231 1.17661 -4.46042 0
M  V30 5223 H 483.474 1.03921 -4.21168 0
M  V30 5224 H 484.145 2.51426 -4.91415 0
M  V30 5225 H 486.621 2.86332 -3.01916 0
M  V30 5226 H 485.497 4.08703 -3.66406 0
M  V30 5227 H 485.758 3.97725 -1.93048 0
M  V30 5228 N 484.817 1.37938 0.762283 0
M  V30 5229 C 486.042 1.37059 1.55659 0
M  V30 5230 C 486.467 -0.0396123 1.88058 0
M  V30 5231 O 485.825 -1.01929 1.49934 0
M  V30 5232 C 485.873 2.22494 2.83776 0
M  V30 5233 O 484.977 1.63607 3.78559 0
M  V30 5234 H 484.318 0.467892 0.47114 0
M  V30 5235 H 486.848 1.81587 0.942725 0
M  V30 5236 H 486.858 2.36045 3.32786 0
M  V30 5237 H 485.533 3.24993 2.59524 0
M  V30 5238 H 484.11 1.5915 3.37233 0
M  V30 5239 N 486.295 -0.989507 1.22664 0
M  V30 5240 C 487.227 -2.0824 0.957542 0
M  V30 5241 C 488.24 -1.6267 -0.0651098 0
M  V30 5242 O 489.429 -1.77695 0.169312 0
M  V30 5243 C 486.529 -3.36298 0.419145 0
M  V30 5244 C 485.702 -4.10882 1.49982 0
M  V30 5245 C 484.761 -5.17221 0.967904 0
M  V30 5246 O 483.787 -5.44613 1.65487 0
M  V30 5247 N 484.989 -5.80124 -0.20896 0
M  V30 5248 H 487.754 -2.31904 1.89843 0
M  V30 5249 H 485.315 -1.15552 1.13399 0
M  V30 5250 H 487.307 -4.04671 0.0485451 0
M  V30 5251 H 485.877 -3.09671 -0.426937 0
M  V30 5252 H 485.097 -3.37092 2.04359 0
M  V30 5253 H 486.385 -4.57482 2.22682 0
M  V30 5254 H 485.783 -5.60244 -0.783818 0
M  V30 5255 H 484.34 -6.49715 -0.520913 0
M  V30 5256 N 487.773 -1.03688 -1.18687 0
M  V30 5257 C 488.703 -0.645407 -2.24403 0
M  V30 5258 C 489.684 0.349511 -1.66471 0
M  V30 5259 O 490.869 0.230453 -1.92828 0
M  V30 5260 C 487.999 -0.00365337 -3.473 0
M  V30 5261 C 486.953 -0.921705 -4.17958 0
M  V30 5262 C 486.279 -0.144629 -5.34504 0
M  V30 5263 C 487.579 -2.23909 -4.71871 0
M  V30 5264 H 489.273 -1.52917 -2.57404 0
M  V30 5265 H 486.819 -0.736711 -1.23728 0
M  V30 5266 H 488.772 0.281908 -4.20456 0
M  V30 5267 H 487.496 0.914963 -3.13522 0
M  V30 5268 H 486.155 -1.19159 -3.46694 0
M  V30 5269 H 485.803 0.776274 -4.96974 0
M  V30 5270 H 485.503 -0.756206 -5.82714 0
M  V30 5271 H 487.027 0.134004 -6.10453 0
M  V30 5272 H 488.441 -2.0145 -5.36741 0
M  V30 5273 H 486.838 -2.8033 -5.30599 0
M  V30 5274 H 487.908 -2.88822 -3.895 0
M  V30 5275 N 489.251 1.34841 -0.815825 0
M  V30 5276 C 490.181 2.32187 -0.247298 0
M  V30 5277 C 491.162 1.5791 0.632344 0
M  V30 5278 O 492.347 1.8593 0.560698 0
M  V30 5279 C 489.477 3.42122 0.597466 0
M  V30 5280 C 488.431 4.27602 -0.184446 0
M  V30 5281 C 487.757 5.28942 0.782609 0
M  V30 5282 C 489.057 5.03502 -1.38865 0
M  V30 5283 H 490.751 2.79985 -1.06061 0
M  V30 5284 H 488.297 1.34611 -0.511461 0
M  V30 5285 H 490.25 4.09232 1.00533 0
M  V30 5286 H 488.974 2.92956 1.44376 0
M  V30 5287 H 487.633 3.62085 -0.573592 0
M  V30 5288 H 487.281 4.7604 1.62466 0
M  V30 5289 H 486.981 5.87008 0.263695 0
M  V30 5290 H 488.505 5.98922 1.18848 0
M  V30 5291 H 489.919 5.63506 -1.05518 0
M  V30 5292 H 488.316 5.71108 -1.8427 0
M  V30 5293 H 489.386 4.33608 -2.17054 0
M  V30 5294 N 490.729 0.570148 1.46925 0
M  V30 5295 C 491.957 0.0561966 2.06824 0
M  V30 5296 C 492.372 -1.24326 1.42086 0
M  V30 5297 O 491.729 -1.74882 0.521794 0
M  V30 5298 C 491.78 -0.129517 3.61268 0
M  V30 5299 O 491.501 1.1185 4.23581 0
M  V30 5300 C 493.002 -0.679266 4.38065 0
M  V30 5301 H 490.222 0.0517261 0.669003 0
M  V30 5302 H 492.766 0.787243 1.8874 0
M  V30 5303 H 490.921 -0.810739 3.78822 0
M  V30 5304 H 491.335 0.924375 5.1629 0
M  V30 5305 H 492.809 -0.758445 5.46765 0
M  V30 5306 H 493.286 -1.69346 4.05239 0
M  V30 5307 H 493.892 -0.0333237 4.25287 0
M  V30 5308 N 492.207 -1.54576 0.307264 0
M  V30 5309 C 493.137 -2.26708 -0.55907 0
M  V30 5310 C 494.118 -1.26893 -1.1328 0
M  V30 5311 O 495.303 -1.55677 -1.16097 0
M  V30 5312 C 492.433 -3.01259 -1.72801 0
M  V30 5313 C 491.387 -4.08275 -1.28435 0
M  V30 5314 C 490.713 -4.70575 -2.53895 0
M  V30 5315 C 492.013 -5.2068 -0.411038 0
M  V30 5316 H 493.707 -2.9937 0.042576 0
M  V30 5317 H 491.253 -1.43983 0.0219173 0
M  V30 5318 H 493.206 -3.50444 -2.34023 0
M  V30 5319 H 491.93 -2.26187 -2.356 0
M  V30 5320 H 490.589 -3.59949 -0.695161 0
M  V30 5321 H 490.237 -3.92136 -3.15021 0
M  V30 5322 H 489.937 -5.42854 -2.24908 0
M  V30 5323 H 491.461 -5.22527 -3.15908 0
M  V30 5324 H 492.875 -5.65721 -0.929097 0
M  V30 5325 H 491.272 -5.99716 -0.214664 0
M  V30 5326 H 492.342 -4.81629 0.562287 0
M  V30 5327 N 493.685 -0.035106 -1.57561 0
M  V30 5328 C 494.618 0.979673 -2.06101 0
M  V30 5329 C 495.596 1.31378 -0.958046 0
M  V30 5330 O 496.78 1.42942 -1.22881 0
M  V30 5331 C 493.907 2.29809 -2.48808 0
M  V30 5332 C 492.953 2.11817 -3.70184 0
M  V30 5333 S 493.786 1.41143 -5.16565 0
M  V30 5334 C 494.942 2.74341 -5.62572 0
M  V30 5335 H 495.175 0.566506 -2.91853 0
M  V30 5336 H 492.708 0.176744 -1.53385 0
M  V30 5337 H 494.666 3.056 -2.74078 0
M  V30 5338 H 493.327 2.68257 -1.63392 0
M  V30 5339 H 492.52 3.09299 -3.97933 0
M  V30 5340 H 492.122 1.44168 -3.45097 0
M  V30 5341 H 494.414 3.70562 -5.67177 0
M  V30 5342 H 495.357 2.51249 -6.62027 0
M  V30 5343 H 495.765 2.79863 -4.90242 0
M  V30 5344 N 495.163 1.55791 0.238111 0
M  V30 5345 C 496.44 1.68798 0.98826 0
M  V30 5346 C 496.82 0.577562 2.03045 0
M  V30 5347 O 496.168 -0.41778 2.24648 0
M  V30 5348 C 496.378 3.09454 1.61367 0
M  V30 5349 C 497.726 3.68335 2.11221 0
M  V30 5350 O 498.75 3.1231 1.71292 0
M  V30 5351 O 497.609 4.6657 2.84561 0
M  V30 5352 H 494.703 0.686881 0.460568 0
M  V30 5353 H 497.249 1.68118 0.231202 0
M  V30 5354 H 496.021 3.81726 0.860295 0
M  V30 5355 H 495.644 3.14182 2.4367 0
M  V30 5356 N 496.642 -0.504142 1.49319 0
M  V30 5357 C 497.89 -1.25598 1.58334 0
M  V30 5358 C 498.211 -1.93114 0.270538 0
M  V30 5359 O 497.481 -1.82585 -0.709891 0
M  V30 5360 H 496.061 -0.466571 0.58337 0
M  V30 5361 H 498.723 -0.584547 1.85928 0
M  V30 5362 H 497.819 -2.02159 2.37778 0
M  V30 5363 N 498.12 -1.38341 -0.754957 0
M  V30 5364 C 499.369 -1.33791 -1.5094 0
M  V30 5365 C 499.682 0.0699267 -1.95475 0
M  V30 5366 O 500.888 0.237956 -2.70455 0
M  V30 5367 C 499.344 -2.34934 -2.72643 0
M  V30 5368 C 498.952 -3.81332 -2.35138 0
M  V30 5369 C 500.696 -2.39425 -3.50536 0
M  V30 5370 C 498.603 -4.74164 -3.53444 0
M  V30 5371 H 497.533 -0.497314 -0.566741 0
M  V30 5372 H 500.184 -1.63888 -0.825403 0
M  V30 5373 H 498.566 -1.97878 -3.43017 0
M  V30 5374 H 499.74 -4.27319 -1.7244 0
M  V30 5375 H 498.055 -3.79946 -1.70382 0
M  V30 5376 H 500.652 -3.0598 -4.38498 0
M  V30 5377 H 500.995 -1.41278 -3.91594 0
M  V30 5378 H 501.528 -2.75274 -2.87174 0
M  V30 5379 H 498.267 -5.73501 -3.17453 0
M  V30 5380 H 497.787 -4.3287 -4.15191 0
M  V30 5381 H 499.466 -4.92111 -4.20043 0
M  V30 5382 N 499.598 0.982988 -1.23187 0
M  V30 5383 C 500.545 2.07491 -1.01075 0
M  V30 5384 C 501.515 1.65949 0.070905 0
M  V30 5385 O 502.7 1.90629 -0.0806822 0
M  V30 5386 C 499.84 3.39751 -0.605261 0
M  V30 5387 C 498.953 3.94578 -1.75876 0
M  V30 5388 C 498.088 5.15039 -1.3003 0
M  V30 5389 C 497.127 5.62027 -2.42472 0
M  V30 5390 N 496.264 6.73719 -1.97602 0
M  V30 5391 H 501.104 2.25739 -1.9454 0
M  V30 5392 H 498.641 1.10659 -0.969179 0
M  V30 5393 H 500.599 4.15719 -0.351279 0
M  V30 5394 H 499.229 3.21473 0.292382 0
M  V30 5395 H 498.281 3.1539 -2.12681 0
M  V30 5396 H 499.593 4.25422 -2.60418 0
M  V30 5397 H 498.747 5.9833 -1.00429 0
M  V30 5398 H 497.486 4.85843 -0.425216 0
M  V30 5399 H 496.491 4.77318 -2.7285 0
M  V30 5400 H 497.716 5.93244 -3.30512 0
M  V30 5401 H 495.662 6.46287 -1.1247 0
M  V30 5402 H 495.579 7.03934 -2.75705 0
M  V30 5403 H 496.847 7.6049 -1.71098 0
M  V30 5404 N 501.076 1.04316 1.18135 0
M  V30 5405 C 502.301 0.768047 1.92655 0
M  V30 5406 C 502.726 -0.66904 1.758 0
M  V30 5407 O 502.084 -1.46372 1.06981 0
M  V30 5408 C 502.132 1.14239 3.42026 0
M  V30 5409 O 501.236 0.269333 4.1152 0
M  V30 5410 H 500.577 0.282436 0.600937 0
M  V30 5411 H 503.107 1.39367 1.49793 0
M  V30 5412 H 503.117 1.10538 3.92741 0
M  V30 5413 H 501.792 2.18928 3.53615 0
M  V30 5414 H 500.369 0.366175 3.71098 0
M  V30 5415 N 502.554 -1.34406 0.822964 0
M  V30 5416 C 503.97 -1.51275 0.508727 0
M  V30 5417 C 504.17 -1.76776 -0.967083 0
M  V30 5418 O 503.226 -1.81871 -1.75155 0
M  V30 5419 C 504.539 -2.67765 1.36829 0
M  V30 5420 C 506.087 -2.81647 1.36542 0
M  V30 5421 C 506.562 -4.01181 2.20947 0
M  V30 5422 N 508.053 -4.08388 2.18571 0
M  V30 5423 C 508.788 -5.00036 2.80627 0
M  V30 5424 N 508.284 -5.96906 3.51674 0
M  V30 5425 N 510.077 -4.92908 2.70181 0
M  V30 5426 H 502.228 -1.16113 1.77852 0
M  V30 5427 H 504.491 -0.56947 0.757897 0
M  V30 5428 H 504.197 -2.55551 2.41633 0
M  V30 5429 H 504.071 -3.62779 1.03303 0
M  V30 5430 H 506.458 -2.93303 0.325163 0
M  V30 5431 H 506.539 -1.87443 1.74066 0
M  V30 5432 H 506.183 -3.90286 3.25022 0
M  V30 5433 H 506.113 -4.94599 1.80774 0
M  V30 5434 H 508.604 -3.39051 1.66891 0
M  V30 5435 H 508.917 -6.63468 3.96271 0
M  V30 5436 H 507.262 -5.9703 3.5578 0
M  V30 5437 H 510.453 -4.1619 2.14251 0
M  V30 5438 H 510.626 -5.64137 3.18831 0
M  V30 5439 N 504.032 -0.577932 -1.46621 0
M  V30 5440 C 505.28 -0.061566 -2.02006 0
M  V30 5441 C 505.601 1.30117 -1.4524 0
M  V30 5442 O 504.871 1.85313 -0.63529 0
M  V30 5443 H 503.451 -0.0197692 -0.746738 0
M  V30 5444 H 506.113 -0.752631 -1.79782 0
M  V30 5445 H 505.209 0.0110238 -3.12098 0
M  V30 5446 N 505.51 1.54411 -0.315457 0
M  V30 5447 C 506.442 2.21527 0.588067 0
M  V30 5448 C 507.455 1.21263 1.08624 0
M  V30 5449 O 508.644 1.47777 1.00121 0
M  V30 5450 C 505.744 2.85963 1.81875 0
M  V30 5451 C 504.917 4.12291 1.46063 0
M  V30 5452 C 503.976 4.60396 2.54799 0
M  V30 5453 O 503.002 5.25265 2.19283 0
M  V30 5454 N 504.204 4.33935 3.85591 0
M  V30 5455 H 506.969 2.99697 0.013414 0
M  V30 5456 H 504.53 1.61308 -0.138295 0
M  V30 5457 H 506.522 3.15071 2.53993 0
M  V30 5458 H 505.092 2.11548 2.30144 0
M  V30 5459 H 504.312 3.90036 0.571445 0
M  V30 5460 H 505.6 4.9452 1.19695 0
M  V30 5461 H 504.998 3.81996 4.17248 0
M  V30 5462 H 503.555 4.67718 4.53964 0
M  V30 5463 N 506.988 0.0434614 1.5754 0
M  V30 5464 C 508.234 -0.632971 1.92669 0
M  V30 5465 C 508.567 -1.70947 0.921446 0
M  V30 5466 O 507.842 -1.94426 -0.0537202 0
M  V30 5467 C 508.125 -1.23619 3.38216 0
M  V30 5468 C 507.978 -0.168274 4.49485 0
M  V30 5469 C 509.297 -2.15008 3.84005 0
M  V30 5470 H 506.416 -0.228629 0.700641 0
M  V30 5471 H 509.058 0.103651 1.89717 0
M  V30 5472 H 507.208 -1.864 3.40863 0
M  V30 5473 H 508.88 0.463196 4.58969 0
M  V30 5474 H 507.123 0.504581 4.30855 0
M  V30 5475 H 507.794 -0.630218 5.48391 0
M  V30 5476 H 510.27 -1.62198 3.83185 0
M  V30 5477 H 509.146 -2.54161 4.86511 0
M  V30 5478 H 509.407 -3.04707 3.20322 0
M  V30 5479 N 508.466 -1.55915 -0.229846 0
M  V30 5480 C 509.712 -1.78807 -0.956868 0
M  V30 5481 C 510.045 -0.611687 -1.84315 0
M  V30 5482 O 509.32 0.389398 -1.90562 0
M  V30 5483 C 509.603 -3.11718 -1.80288 0
M  V30 5484 C 509.456 -4.3979 -0.943649 0
M  V30 5485 C 510.775 -3.40999 -2.78222 0
M  V30 5486 H 507.894 -0.6505 -0.346437 0
M  V30 5487 H 510.536 -1.88648 -0.226252 0
M  V30 5488 H 508.686 -3.03459 -2.42579 0
M  V30 5489 H 510.358 -4.60059 -0.338121 0
M  V30 5490 H 508.601 -4.33086 -0.248705 0
M  V30 5491 H 509.272 -5.29208 -1.5698 0
M  V30 5492 H 511.748 -3.49332 -2.26067 0
M  V30 5493 H 510.624 -4.35183 -3.34526 0
M  V30 5494 H 510.885 -2.62754 -3.55546 0
M  V30 5495 N 509.944 0.496216 -1.49584 0
M  V30 5496 C 511.19 1.25189 -1.59548 0
M  V30 5497 C 511.523 1.9212 -0.283466 0
M  V30 5498 O 510.798 1.80947 0.713324 0
M  V30 5499 C 511.081 2.31516 -2.75812 0
M  V30 5500 C 510.934 1.69054 -4.16822 0
M  V30 5501 C 512.253 3.3304 -2.87702 0
M  V30 5502 H 509.372 0.45379 -0.580727 0
M  V30 5503 H 512.014 0.549327 -1.81886 0
M  V30 5504 H 510.164 2.91438 -2.56897 0
M  V30 5505 H 511.836 1.12923 -4.47265 0
M  V30 5506 H 510.079 0.994485 -4.22247 0
M  V30 5507 H 510.75 2.462 -4.94054 0
M  V30 5508 H 513.226 2.83114 -3.04936 0
M  V30 5509 H 512.102 4.04794 -3.7072 0
M  V30 5510 H 512.363 3.95655 -1.97255 0
M  V30 5511 N 511.423 1.38739 0.74761 0
M  V30 5512 C 512.672 1.3459 1.50228 0
M  V30 5513 C 512.985 -0.0595592 1.95509 0
M  V30 5514 O 514.191 -0.22361 2.70578 0
M  V30 5515 C 512.647 2.36377 2.71393 0
M  V30 5516 C 512.255 3.82573 2.33113 0
M  V30 5517 C 513.999 2.41281 3.49262 0
M  V30 5518 C 511.906 4.76032 3.50924 0
M  V30 5519 H 510.836 0.500312 0.564096 0
M  V30 5520 H 513.487 1.64324 0.8167 0
M  V30 5521 H 511.869 1.99694 3.41962 0
M  V30 5522 H 513.043 4.28227 1.70171 0
M  V30 5523 H 511.358 3.80844 1.68365 0
M  V30 5524 H 513.955 3.08301 4.36869 0
M  V30 5525 H 514.298 1.43353 3.9084 0
M  V30 5526 H 514.831 2.76793 2.85711 0
M  V30 5527 H 511.57 5.75177 3.14408 0
M  V30 5528 H 511.09 4.35066 4.12889 0
M  V30 5529 H 512.769 4.94331 4.17427 0
M  V30 5530 N 512.901 -0.976442 1.23707 0
M  V30 5531 C 513.864 -2.0511 1.02287 0
M  V30 5532 C 514.864 -1.60791 -0.0167195 0
M  V30 5533 O 516.054 -1.72761 0.223408 0
M  V30 5534 C 513.186 -3.36458 0.548507 0
M  V30 5535 H 514.379 -2.25545 1.9766 0
M  V30 5536 H 511.932 -1.15042 1.05806 0
M  V30 5537 H 512.667 -3.21713 -0.408818 0
M  V30 5538 H 512.452 -3.69967 1.29874 0
M  V30 5539 H 513.942 -4.15489 0.419406 0
M  V30 5540 N 514.379 -1.04941 -1.1758 0
M  V30 5541 C 515.342 -0.652456 -2.19717 0
M  V30 5542 C 516.342 0.294745 -1.58076 0
M  V30 5543 O 517.532 0.0789579 -1.74021 0
M  V30 5544 C 514.664 0.0420712 -3.40874 0
M  V30 5545 H 515.857 -1.55642 -2.5635 0
M  V30 5546 H 513.41 -0.842995 -1.31618 0
M  V30 5547 H 514.145 0.95943 -3.09783 0
M  V30 5548 H 513.93 -0.638844 -3.86861 0
M  V30 5549 H 515.42 0.306 -4.16477 0
M  V30 5550 N 515.857 1.33968 -0.830081 0
M  V30 5551 C 517.085 2.0228 -0.434773 0
M  V30 5552 C 517.5 1.62487 0.961419 0
M  V30 5553 O 516.857 0.833849 1.62337 0
M  V30 5554 C 516.908 3.5751 -0.535625 0
M  V30 5555 O 516.629 3.95864 -1.87679 0
M  V30 5556 C 518.13 4.43091 -0.136137 0
M  V30 5557 H 515.35 0.648151 -0.173613 0
M  V30 5558 H 517.894 1.71089 -1.12022 0
M  V30 5559 H 516.049 3.87266 0.101817 0
M  V30 5560 H 516.463 4.9056 -1.85609 0
M  V30 5561 H 517.937 5.51398 -0.257772 0
M  V30 5562 H 518.414 4.29433 0.921076 0
M  V30 5563 H 519.02 4.18677 -0.747662 0
M  V30 5564 N 517.335 0.585699 1.46312 0
M  V30 5565 C 518.283 -0.158577 2.32059 0
M  V30 5566 C 519.277 -0.881427 1.44662 0
M  V30 5567 O 520.483 -0.799476 1.61271 0
M  V30 5568 H 516.858 -0.0700066 0.748734 0
M  V30 5569 H 518.829 0.583383 2.92642 0
M  V30 5570 C 517.578 -1.15701 3.27885 0
M  V30 5571 H 516.901 -0.610215 3.95116 0
M  V30 5572 H 518.341 -1.64812 3.90657 0
M  V30 5573 C 516.8 -2.21951 2.53455 0
M  V30 5574 O 517.33 -3.29352 2.29978 0
M  V30 5575 N 515.536 -1.9664 2.13965 0
M  V30 5576 H 515.083 -1.09309 2.33258 0
M  V30 5577 H 515.041 -2.6794 1.64485 0
M  V30 5578 N 518.813 -1.54241 0.323641 0
M  V30 5579 C 520.229 -1.59574 -0.0290018 0
M  V30 5580 C 520.429 -1.34017 -1.50472 0
M  V30 5581 O 519.485 -1.12464 -2.26071 0
M  V30 5582 C 520.798 -2.98169 0.389295 0
M  V30 5583 C 522.346 -3.11148 0.339958 0
M  V30 5584 C 522.821 -4.5209 0.733418 0
M  V30 5585 N 524.312 -4.5808 0.686827 0
M  V30 5586 C 525.047 -5.65248 0.963464 0
M  V30 5587 N 524.543 -6.80355 1.30724 0
M  V30 5588 N 526.336 -5.55025 0.88902 0
M  V30 5589 H 518.487 -1.6911 1.28512 0
M  V30 5590 H 520.75 -0.790972 0.522558 0
M  V30 5591 H 520.456 -3.21871 1.41746 0
M  V30 5592 H 520.33 -3.76399 -0.245657 0
M  V30 5593 H 522.717 -2.87182 -0.679002 0
M  V30 5594 H 522.798 -2.35023 1.00985 0
M  V30 5595 H 522.442 -4.76788 1.75029 0
M  V30 5596 H 522.372 -5.26584 0.0412189 0
M  V30 5597 H 524.863 -3.75411 0.43298 0
M  V30 5598 H 525.176 -7.58029 1.5037 0
M  V30 5599 H 523.521 -6.81851 1.3455 0
M  V30 5600 H 526.712 -4.63977 0.619939 0
M  V30 5601 H 526.885 -6.38458 1.10797 0
M  V30 5602 N 520.291 -0.0518155 -1.57515 0
M  V30 5603 C 521.223 0.951542 -2.08515 0
M  V30 5604 C 522.236 1.27436 -1.01311 0
M  V30 5605 O 523.425 1.23504 -1.28876 0
M  V30 5606 C 520.525 2.27291 -2.5138 0
M  V30 5607 C 519.698 2.13191 -3.81927 0
M  V30 5608 C 518.757 3.28458 -4.11098 0
M  V30 5609 O 517.783 3.04334 -4.81009 0
M  V30 5610 N 518.985 4.52954 -3.63061 0
M  V30 5611 H 521.75 0.516242 -2.9522 0
M  V30 5612 H 519.311 0.13441 -1.61341 0
M  V30 5613 H 521.303 3.03272 -2.67971 0
M  V30 5614 H 519.873 2.62386 -1.69919 0
M  V30 5615 H 519.093 1.21798 -3.74912 0
M  V30 5616 H 520.381 2.00999 -4.67415 0
M  V30 5617 H 519.779 4.75444 -3.06545 0
M  V30 5618 H 518.336 5.26026 -3.84889 0
M  V30 5619 N 521.769 1.56035 0.221574 0
M  V30 5620 C 522.717 1.93269 1.29421 0
M  V30 5621 C 523.711 0.814727 1.48521 0
M  V30 5622 O 524.917 0.999559 1.49696 0
M  V30 5623 H 521.292 0.614188 0.43391 0
M  V30 5624 H 523.263 2.82773 0.952987 0
M  V30 5625 C 522.012 2.26573 2.63742 0
M  V30 5626 H 521.335 3.12112 2.49853 0
M  V30 5627 H 522.775 2.5651 3.37607 0
M  V30 5628 C 521.234 1.09086 3.1875 0
M  V30 5629 O 521.764 0.351985 4.00155 0
M  V30 5630 N 519.97 0.874693 2.77124 0
M  V30 5631 H 519.517 1.47726 2.11033 0
M  V30 5632 H 519.475 0.0903349 3.1427 0
M  V30 5633 N 523.247 -0.488276 1.49845 0
M  V30 5634 C 524.472 -1.26997 1.63971 0
M  V30 5635 C 524.897 -1.85427 0.315994 0
M  V30 5636 O 524.255 -1.66475 -0.718032 0
M  V30 5637 C 524.303 -2.36689 2.72049 0
M  V30 5638 O 523.407 -3.40882 2.32107 0
M  V30 5639 H 522.748 -0.374376 0.548396 0
M  V30 5640 H 525.278 -0.583104 1.96115 0
M  V30 5641 H 525.288 -2.82262 2.94605 0
M  V30 5642 H 523.963 -1.93529 3.68129 0
M  V30 5643 H 522.54 -3.01139 2.19931 0
M  V30 5644 N 524.725 -1.39134 -0.740242 0
M  V30 5645 C 525.974 -1.35384 -1.49512 0
M  V30 5646 C 526.287 0.04919 -1.95538 0
M  V30 5647 O 527.493 0.209257 -2.70692 0
M  V30 5648 C 525.949 -2.37812 -2.70136 0
M  V30 5649 C 525.557 -3.83804 -2.31081 0
M  V30 5650 C 527.301 -2.4313 -3.47977 0
M  V30 5651 C 525.208 -4.77886 -3.48395 0
M  V30 5652 H 524.138 -0.503297 -0.561434 0
M  V30 5653 H 526.789 -1.64754 -0.807974 0
M  V30 5654 H 525.171 -2.01505 -3.40899 0
M  V30 5655 H 526.345 -4.29123 -1.67898 0
M  V30 5656 H 524.66 -3.81732 -1.66343 0
M  V30 5657 H 527.257 -3.10614 -4.35228 0
M  V30 5658 H 527.6 -1.45423 -3.90074 0
M  V30 5659 H 528.133 -2.78304 -2.84239 0
M  V30 5660 H 524.872 -5.76836 -3.11353 0
M  V30 5661 H 524.392 -4.3725 -4.10576 0
M  V30 5662 H 526.071 -4.96538 -4.148 0
M  V30 5663 N 526.204 0.969867 -1.24223 0
M  V30 5664 C 527.481 1.68774 -0.988664 0
M  V30 5665 C 527.861 2.05342 0.489673 0
M  V30 5666 O 527.209 1.75486 1.46345 0
M  V30 5667 C 527.419 2.92135 -1.90941 0
M  V30 5668 C 528.767 3.64422 -2.17903 0
M  V30 5669 O 529.791 3.02188 -1.88576 0
M  V30 5670 O 528.65 4.76446 -2.67697 0
M  V30 5671 H 525.744 0.737736 -0.37373 0
M  V30 5672 H 528.29 1.02415 -1.35312 0
M  V30 5673 H 527.062 2.61788 -2.90831 0
M  V30 5674 H 526.685 3.66228 -1.54798 0
M  V30 5675 N 527.682 1.05563 1.17022 0
M  V30 5676 C 529.093 0.793475 1.69 0
M  V30 5677 C 529.444 -0.683882 1.83895 0
M  V30 5678 O 528.569 -1.53116 1.5292 0
M  V30 5679 C 529.164 1.43376 3.06967 0
M  V30 5680 C 527.723 1.21956 3.56095 0
M  V30 5681 C 526.87 1.51494 2.3226 0
M  V30 5682 H 529.821 1.22008 1.01487 0
M  V30 5683 H 529.842 0.845068 3.70997 0
M  V30 5684 H 529.354 2.50899 2.96093 0
M  V30 5685 H 527.455 0.163749 3.7224 0
M  V30 5686 H 527.568 1.92713 4.38633 0
M  V30 5687 H 525.932 0.935175 2.3691 0
M  V30 5688 H 526.715 2.60159 2.23992 0
M  V30 5689 N 529.16 -1.33526 0.837174 0
M  V30 5690 C 530.123 -2.27551 0.274421 0
M  V30 5691 C 531.123 -1.50886 -0.555881 0
M  V30 5692 O 532.313 -1.70227 -0.369918 0
M  V30 5693 C 529.445 -3.35332 -0.613605 0
M  V30 5694 H 530.638 -2.78837 1.10408 0
M  V30 5695 H 528.191 -1.439 0.610126 0
M  V30 5696 H 528.926 -2.89285 -1.46577 0
M  V30 5697 H 528.711 -3.92095 -0.0195341 0
M  V30 5698 H 530.201 -4.05433 -1.00068 0
M  V30 5699 N 530.638 -0.59345 -1.46 0
M  V30 5700 C 531.568 0.121192 -2.33185 0
M  V30 5701 C 532.549 0.872977 -1.4599 0
M  V30 5702 O 533.734 0.846321 -1.74789 0
M  V30 5703 C 530.864 1.12844 -3.28456 0
M  V30 5704 C 529.818 0.4908 -4.25177 0
M  V30 5705 C 529.144 1.60529 -5.10034 0
M  V30 5706 C 530.444 -0.578949 -5.19081 0
M  V30 5707 H 532.138 -0.606767 -2.93187 0
M  V30 5708 H 529.684 -0.293242 -1.40983 0
M  V30 5709 H 531.637 1.63684 -3.88311 0
M  V30 5710 H 530.361 1.88681 -2.66584 0
M  V30 5711 H 529.02 0.00339328 -3.666 0
M  V30 5712 H 528.668 2.35359 -4.44539 0
M  V30 5713 H 528.368 1.18422 -5.75543 0
M  V30 5714 H 529.892 2.11623 -5.72755 0
M  V30 5715 H 531.306 -0.155199 -5.7309 0
M  V30 5716 H 529.703 -0.920947 -5.92991 0
M  V30 5717 H 530.773 -1.46109 -4.62364 0
M  V30 5718 N 532.116 1.54067 -0.331816 0
M  V30 5719 C 533.532 1.59587 0.0205388 0
M  V30 5720 C 533.732 1.34813 1.49759 0
M  V30 5721 O 532.788 1.13661 2.25471 0
M  V30 5722 C 534.101 2.97959 -0.405103 0
M  V30 5723 C 535.649 3.10964 -0.356454 0
M  V30 5724 C 536.124 4.51694 -0.757384 0
M  V30 5725 N 537.615 4.57709 -0.71111 0
M  V30 5726 C 538.35 5.64729 -0.993427 0
M  V30 5727 N 537.846 6.79652 -1.3433 0
M  V30 5728 N 539.639 5.54546 -0.918442 0
M  V30 5729 H 531.79 1.68426 -1.29407 0
M  V30 5730 H 534.053 0.78819 -0.526745 0
M  V30 5731 H 533.759 3.21115 -1.43451 0
M  V30 5732 H 533.633 3.76524 0.225692 0
M  V30 5733 H 536.02 2.87538 0.663763 0
M  V30 5734 H 536.101 2.34484 -1.02229 0
M  V30 5735 H 535.745 4.75853 -1.77555 0
M  V30 5736 H 535.675 5.26555 -0.0691444 0
M  V30 5737 H 538.166 3.75176 -0.452883 0
M  V30 5738 H 538.479 7.57221 -1.54388 0
M  V30 5739 H 536.824 6.81128 -1.38164 0
M  V30 5740 H 540.015 4.63641 -0.644536 0
M  V30 5741 H 540.188 6.37861 -1.14181 0
M  V30 5742 N 533.594 0.0601682 1.57485 0
M  V30 5743 C 535.01 -0.296422 1.56823 0
M  V30 5744 C 535.21 -1.70831 1.0686 0
M  V30 5745 O 534.266 -2.4174 0.729245 0
M  V30 5746 C 535.579 -0.116681 3.00474 0
M  V30 5747 C 537.127 -0.187103 3.1244 0
M  V30 5748 C 537.602 -0.035783 4.57986 0
M  V30 5749 N 539.093 -0.0917676 4.63109 0
M  V30 5750 C 539.828 0.00107251 5.734 0
M  V30 5751 N 539.324 0.146773 6.92645 0
M  V30 5752 N 541.117 -0.0551577 5.62073 0
M  V30 5753 H 533.268 0.983055 1.88281 0
M  V30 5754 H 535.531 0.382386 0.867459 0
M  V30 5755 H 535.237 0.85712 3.41096 0
M  V30 5756 H 535.111 -0.873929 3.66936 0
M  V30 5757 H 537.498 -1.15138 2.71712 0
M  V30 5758 H 537.579 0.601052 2.48638 0
M  V30 5759 H 537.223 0.925212 4.99402 0
M  V30 5760 H 537.153 -0.843196 5.19806 0
M  V30 5761 H 539.644 -0.203261 3.77353 0
M  V30 5762 H 539.957 0.210076 7.72514 0
M  V30 5763 H 538.302 0.181979 6.94762 0
M  V30 5764 H 541.493 -0.167605 4.678 0
M  V30 5765 H 541.666 0.020652 6.47997 0
M  V30 5766 N 535.072 -1.5615 -0.213296 0
M  V30 5767 C 536.319 -1.79546 -0.936462 0
M  V30 5768 C 536.647 -0.630337 -1.84003 0
M  V30 5769 O 535.902 0.384883 -1.91878 0
M  V30 5770 C 536.201 -3.08772 -1.79985 0
M  V30 5771 C 535.867 -4.38532 -1.04882 0
M  V30 5772 C 534.529 -4.73787 -0.841393 0
M  V30 5773 C 536.881 -5.18609 -0.51907 0
M  V30 5774 C 534.209 -5.86627 -0.0924403 0
M  V30 5775 C 536.561 -6.32229 0.216581 0
M  V30 5776 C 535.225 -6.6608 0.435191 0
M  V30 5777 H 534.495 -0.657004 -0.342676 0
M  V30 5778 H 537.142 -1.9041 -0.204051 0
M  V30 5779 H 535.447 -2.93065 -2.60038 0
M  V30 5780 H 537.144 -3.24077 -2.36168 0
M  V30 5781 H 533.734 -4.10855 -1.22048 0
M  V30 5782 H 537.918 -4.91801 -0.666775 0
M  V30 5783 H 533.174 -6.11338 0.087081 0
M  V30 5784 H 537.348 -6.93503 0.634538 0
M  V30 5785 H 534.975 -7.5336 1.01746 0
M  V30 5786 N 536.55 0.480323 -1.50102 0
M  V30 5787 C 537.798 1.23063 -1.60312 0
M  V30 5788 C 538.119 1.92659 -0.301226 0
M  V30 5789 O 537.389 1.83691 0.680753 0
M  V30 5790 H 535.969 0.457231 -0.590719 0
M  V30 5791 H 538.631 0.554893 -1.86834 0
M  V30 5792 H 537.727 1.9835 -2.40964 0
M  V30 5793 N 538.028 1.39524 0.732853 0
M  V30 5794 C 539.444 1.21176 1.03868 0
M  V30 5795 C 539.644 0.0748448 2.01361 0
M  V30 5796 O 538.7 -0.57281 2.45917 0
M  V30 5797 C 540.013 2.54667 1.59892 0
M  V30 5798 C 541.561 2.6153 1.71962 0
M  V30 5799 C 542.036 3.95248 2.31394 0
M  V30 5800 N 543.527 3.96899 2.38801 0
M  V30 5801 C 544.262 4.97138 2.85729 0
M  V30 5802 N 543.758 6.07775 3.32537 0
M  V30 5803 N 545.551 4.84516 2.84957 0
M  V30 5804 H 537.702 2.12225 0.086304 0
M  V30 5805 H 539.965 0.942614 0.100907 0
M  V30 5806 H 539.671 3.38423 0.95721 0
M  V30 5807 H 539.545 2.74538 2.58668 0
M  V30 5808 H 541.932 1.78156 2.35254 0
M  V30 5809 H 542.013 2.45507 0.718327 0
M  V30 5810 H 541.657 4.79054 1.68729 0
M  V30 5811 H 541.587 4.08593 3.32204 0
M  V30 5812 H 544.078 3.16998 2.05719 0
M  V30 5813 H 544.391 6.8017 3.66862 0
M  V30 5814 H 542.736 6.11366 3.30541 0
M  V30 5815 H 545.927 3.97185 2.47713 0
M  V30 5816 H 546.1 5.62783 3.21215 0
M  V30 5817 N 539.506 -0.963266 1.24736 0
M  V30 5818 C 540.753 -1.7068 1.0897 0
M  V30 5819 C 541.081 -1.90934 -0.370751 0
M  V30 5820 O 540.336 -1.47155 -1.29011 0
M  V30 5821 C 540.635 -3.09944 1.7796 0
M  V30 5822 C 540.301 -3.09518 3.27887 0
M  V30 5823 C 538.963 -3.09109 3.68789 0
M  V30 5824 C 541.315 -3.03509 4.23712 0
M  V30 5825 C 538.643 -3.00429 5.03944 0
M  V30 5826 C 540.995 -2.96371 5.5888 0
M  V30 5827 C 539.659 -2.94293 5.99123 0
M  V30 5828 H 538.929 -0.624564 0.398749 0
M  V30 5829 H 541.576 -1.12603 1.54896 0
M  V30 5830 H 539.881 -3.71513 1.2444 0
M  V30 5831 H 541.578 -3.66278 1.63222 0
M  V30 5832 H 538.168 -3.10603 2.95337 0
M  V30 5833 H 542.352 -3.0295 3.93109 0
M  V30 5834 H 537.608 -2.97183 5.34314 0
M  V30 5835 H 541.782 -2.90681 6.32833 0
M  V30 5836 H 539.409 -2.87322 7.03811 0
M  V30 5837 N 540.985 -1.06182 -1.16461 0
M  V30 5838 C 542.262 -0.691364 -1.82974 0
M  V30 5839 C 542.642 0.827377 -1.9421 0
M  V30 5840 O 541.99 1.73723 -1.48434 0
M  V30 5841 C 542.2 -1.39199 -3.20038 0
M  V30 5842 C 543.548 -1.53647 -3.95825 0
M  V30 5843 O 544.572 -1.35181 -3.29552 0
M  V30 5844 O 543.431 -1.83932 -5.14618 0
M  V30 5845 H 540.525 -0.244605 -0.789998 0
M  V30 5846 H 543.071 -1.16203 -1.23673 0
M  V30 5847 H 541.843 -2.42766 -3.06888 0
M  V30 5848 H 541.466 -0.911335 -3.87015 0
M  V30 5849 N 542.463 1.3308 -0.844243 0
M  V30 5850 C 543.879 1.50447 -0.532729 0
M  V30 5851 C 544.079 1.78292 0.938837 0
M  V30 5852 O 543.135 1.84635 1.72239 0
M  V30 5853 C 544.448 2.65555 -1.41072 0
M  V30 5854 C 545.996 2.7944 -1.41005 0
M  V30 5855 C 546.471 3.97616 -2.27301 0
M  V30 5856 N 547.962 4.0486 -2.2504 0
M  V30 5857 C 548.697 4.95508 -2.88547 0
M  V30 5858 N 548.193 5.91236 -3.61126 0
M  V30 5859 N 549.986 4.88548 -2.77989 0
M  V30 5860 H 542.137 1.13269 -1.79677 0
M  V30 5861 H 544.4 0.55734 -0.766861 0
M  V30 5862 H 544.106 2.51675 -2.45668 0
M  V30 5863 H 543.98 3.61089 -1.09061 0
M  V30 5864 H 546.367 2.92749 -0.371784 0
M  V30 5865 H 546.448 1.8465 -1.77026 0
M  V30 5866 H 546.092 3.85066 -3.3119 0
M  V30 5867 H 546.022 4.91661 -1.88619 0
M  V30 5868 H 548.513 3.36353 -1.72264 0
M  V30 5869 H 548.826 6.57079 -4.06776 0
M  V30 5870 H 547.171 5.91295 -3.65234 0
M  V30 5871 H 550.362 4.12729 -2.20846 0
M  V30 5872 H 550.535 5.58994 -3.27765 0
M  V30 5873 N 543.941 0.601185 1.45683 0
M  V30 5874 C 544.851 -0.123395 2.34275 0
M  V30 5875 C 545.867 -0.86702 1.5086 0
M  V30 5876 O 547.043 -0.826049 1.8368 0
M  V30 5877 C 544.108 -1.11237 3.2837 0
M  V30 5878 C 543.169 -0.371405 4.2769 0
M  V30 5879 C 542.402 -1.31327 5.1729 0
M  V30 5880 O 542.625 -2.55078 5.10188 0
M  V30 5881 O 541.559 -0.813811 5.96373 0
M  V30 5882 H 545.385 0.604483 2.97623 0
M  V30 5883 H 542.97 0.361477 1.44961 0
M  V30 5884 H 544.852 -1.68214 3.8637 0
M  V30 5885 H 543.527 -1.82139 2.67595 0
M  V30 5886 H 542.434 0.24067 3.73325 0
M  V30 5887 H 543.767 0.296998 4.91303 0
M  V30 5888 N 545.419 -1.53889 0.339982 0
M  V30 5889 C 546.668 -2.00035 -0.258604 0
M  V30 5890 C 546.981 -1.23179 -1.51942 0
M  V30 5891 O 548.187 -1.59784 -2.19503 0
M  V30 5892 C 546.643 -3.56249 -0.511359 0
M  V30 5893 C 546.251 -4.41957 0.733349 0
M  V30 5894 C 547.995 -4.1082 -1.069 0
M  V30 5895 C 545.902 -5.89673 0.451591 0
M  V30 5896 H 544.832 -0.747284 -0.10041 0
M  V30 5897 H 547.483 -1.77776 0.454758 0
M  V30 5898 H 545.865 -3.7456 -1.28533 0
M  V30 5899 H 547.039 -4.35421 1.50815 0
M  V30 5900 H 545.354 -3.9836 1.21237 0
M  V30 5901 H 547.951 -5.18789 -1.2947 0
M  V30 5902 H 548.294 -3.63817 -2.02343 0
M  V30 5903 H 548.827 -3.96205 -0.355817 0
M  V30 5904 H 545.566 -6.40903 1.37565 0
M  V30 5905 H 545.086 -5.99122 -0.285193 0
M  V30 5906 H 546.765 -6.46965 0.0675067 0
M  V30 5907 N 546.897 -0.0685191 -1.57451 0
M  V30 5908 C 548.174 0.642167 -1.84758 0
M  V30 5909 C 548.554 1.87991 -0.960344 0
M  V30 5910 O 547.902 2.28485 -0.0257894 0
M  V30 5911 C 548.112 0.982946 -3.34872 0
M  V30 5912 C 549.46 1.35784 -4.02303 0
M  V30 5913 O 550.484 1.07477 -3.39598 0
M  V30 5914 O 549.343 1.88681 -5.12895 0
M  V30 5915 H 546.437 0.318625 -0.763156 0
M  V30 5916 H 548.983 -0.0992015 -1.6941 0
M  V30 5917 H 547.755 0.10372 -3.91163 0
M  V30 5918 H 547.378 1.78119 -3.55471 0
M  V30 5919 N 548.375 1.56261 0.205012 0
M  V30 5920 C 549.624 1.79236 0.925058 0
M  V30 5921 C 549.937 0.640011 1.84833 0
M  V30 5922 O 551.143 0.753809 2.60826 0
M  V30 5923 C 549.599 3.17475 1.69522 0
M  V30 5924 C 549.207 4.40482 0.817269 0
M  V30 5925 C 550.951 3.49766 2.4055 0
M  V30 5926 C 548.858 5.69744 1.58573 0
M  V30 5927 H 547.788 0.668287 0.349153 0
M  V30 5928 H 550.439 1.82629 0.178544 0
M  V30 5929 H 548.821 3.08304 2.48526 0
M  V30 5930 H 549.995 4.60752 0.0665988 0
M  V30 5931 H 548.31 4.15827 0.218316 0
M  V30 5932 H 550.907 4.43573 2.98575 0
M  V30 5933 H 551.25 2.73041 3.14252 0
M  V30 5934 H 551.783 3.60341 1.68522 0
M  V30 5935 H 548.522 6.49407 0.891679 0
M  V30 5936 H 548.042 5.53509 2.31059 0
M  V30 5937 H 549.721 6.1051 2.14212 0
M  V30 5938 N 549.853 -0.472356 1.50355 0
M  V30 5939 C 551.101 -1.22211 1.60962 0
M  V30 5940 C 551.422 -1.92497 0.311439 0
M  V30 5941 O 550.692 -1.8405 -0.671002 0
M  V30 5942 H 549.272 -0.454092 0.593135 0
M  V30 5943 H 551.934 -0.544977 1.87126 0
M  V30 5944 H 551.03 -1.9707 2.42012 0
M  V30 5945 N 551.331 -1.39911 -0.725443 0
M  V30 5946 C 552.577 -1.37858 -1.48738 0
M  V30 5947 C 552.91 0.0224187 -1.94187 0
M  V30 5948 O 552.185 0.989204 -1.67466 0
M  V30 5949 C 552.468 -2.3594 -2.72038 0
M  V30 5950 C 552.321 -3.85023 -2.32546 0
M  V30 5951 C 553.64 -2.31704 -3.74167 0
M  V30 5952 H 550.759 -0.502074 -0.539528 0
M  V30 5953 H 553.401 -1.70974 -0.828728 0
M  V30 5954 H 551.551 -2.0783 -3.28236 0
M  V30 5955 H 553.223 -4.2392 -1.81905 0
M  V30 5956 H 551.466 -4.01334 -1.64661 0
M  V30 5957 H 552.137 -4.49152 -3.20884 0
M  V30 5958 H 554.613 -2.5658 -3.27576 0
M  V30 5959 H 553.489 -3.02395 -4.58092 0
M  V30 5960 H 553.75 -1.3253 -4.21768 0
M  V30 5961 N 552.809 0.956637 -1.25245 0
M  V30 5962 C 554.22 1.51569 -1.09012 0
M  V30 5963 C 554.571 1.93322 0.334813 0
M  V30 5964 O 553.696 1.78421 1.22454 0
M  V30 5965 C 554.291 2.75444 -1.97271 0
M  V30 5966 C 552.85 3.27669 -1.8523 0
M  V30 5967 C 551.997 2.00517 -1.91542 0
M  V30 5968 H 554.948 0.773746 -1.3856 0
M  V30 5969 H 554.969 3.4919 -1.51151 0
M  V30 5970 H 554.481 2.45024 -3.00973 0
M  V30 5971 H 552.582 3.62914 -0.844045 0
M  V30 5972 H 552.695 3.9582 -2.69932 0
M  V30 5973 H 551.059 2.15727 -1.35404 0
M  V30 5974 H 551.842 1.72448 -2.96844 0
M  V30 5975 N 554.287 1.06798 1.15896 0
M  V30 5976 C 555.564 0.701057 1.82605 0
M  V30 5977 C 555.944 -0.817066 1.94646 0
M  V30 5978 O 555.292 -1.72933 1.49353 0
M  V30 5979 C 555.502 1.40895 3.19296 0
M  V30 5980 C 556.85 1.55744 3.95005 0
M  V30 5981 O 557.874 1.36927 3.28831 0
M  V30 5982 O 556.733 1.86658 5.13635 0
M  V30 5983 H 553.827 0.248791 0.78869 0
M  V30 5984 H 556.373 1.16857 1.23055 0
M  V30 5985 H 555.145 2.4439 3.05596 0
M  V30 5986 H 554.768 0.931847 3.86526 0
M  V30 5987 N 555.766 -1.3263 0.851289 0
M  V30 5988 C 557.043 -1.91982 0.374448 0
M  V30 5989 C 557.423 -1.77568 -1.14161 0
M  V30 5990 O 556.771 -1.1717 -1.96172 0
M  V30 5991 C 556.981 -3.38862 0.835088 0
M  V30 5992 C 558.329 -4.15999 0.850309 0
M  V30 5993 O 559.353 -3.47566 0.779505 0
M  V30 5994 O 558.212 -5.38189 0.949481 0
M  V30 5995 H 555.306 -0.819846 0.10854 0
M  V30 5996 H 557.852 -1.41422 0.937966 0
M  V30 5997 H 556.624 -3.43281 1.87814 0
M  V30 5998 H 556.247 -3.96821 0.248833 0
M  V30 5999 N 557.244 -0.608902 -1.45362 0
M  V30 6000 C 558.192 0.121639 -2.32282 0
M  V30 6001 C 559.186 0.858301 -1.46046 0
M  V30 6002 O 560.392 0.773718 -1.62523 0
M  V30 6003 H 556.767 0.058086 -0.749753 0
M  V30 6004 H 558.738 -0.629866 -2.91677 0
M  V30 6005 C 557.487 1.1047 -3.29684 0
M  V30 6006 H 556.81 0.547278 -3.96036 0
M  V30 6007 H 558.25 1.58576 -3.9323 0
M  V30 6008 C 556.709 2.17891 -2.56954 0
M  V30 6009 O 557.239 3.25652 -2.35189 0
M  V30 6010 N 555.445 1.93211 -2.17066 0
M  V30 6011 H 554.992 1.05584 -2.34967 0
M  V30 6012 H 554.95 2.6529 -1.68727 0
M  V30 6013 N 558.722 1.53707 -0.348139 0
M  V30 6014 C 559.97 2.00591 0.246478 0
M  V30 6015 C 560.291 1.23753 1.50699 0
M  V30 6016 O 559.561 0.345964 1.92821 0
M  V30 6017 H 558.141 0.741053 0.0940679 0
M  V30 6018 H 560.803 1.89139 -0.470354 0
M  V30 6019 H 559.899 3.08297 0.485714 0
M  V30 6020 N 560.2 0.0768682 1.57412 0
M  V30 6021 C 561.616 -0.279772 1.57129 0
M  V30 6022 C 561.816 -1.69688 1.08666 0
M  V30 6023 O 560.872 -2.40953 0.754843 0
M  V30 6024 C 562.185 -0.0848055 3.0058 0
M  V30 6025 C 563.733 -0.153954 3.12621 0
M  V30 6026 C 564.208 0.0127946 4.57998 0
M  V30 6027 N 565.699 -0.0426435 4.6318 0
M  V30 6028 C 566.434 0.0618892 5.73367 0
M  V30 6029 N 565.93 0.220229 6.9245 0
M  V30 6030 N 567.723 0.00446072 5.621 0
M  V30 6031 H 559.874 1.00297 1.87228 0
M  V30 6032 H 562.137 0.391565 0.863354 0
M  V30 6033 H 561.843 0.89325 3.40168 0
M  V30 6034 H 561.717 -0.834961 3.67843 0
M  V30 6035 H 564.104 -1.1225 2.72917 0
M  V30 6036 H 564.185 0.627389 2.47987 0
M  V30 6037 H 563.829 0.978128 4.98392 0
M  V30 6038 H 563.759 -0.788016 5.20671 0
M  V30 6039 H 566.25 -0.163226 3.77547 0
M  V30 6040 H 566.563 0.291999 7.72248 0
M  V30 6041 H 564.908 0.255658 6.9453 0
M  V30 6042 H 568.099 -0.117979 4.67951 0
M  V30 6043 H 568.272 0.0893796 6.47938 0
M  V30 6044 N 561.678 -1.56367 -0.196722 0
M  V30 6045 C 562.925 -1.80529 -0.917366 0
M  V30 6046 C 563.253 -0.649817 -1.83324 0
M  V30 6047 O 562.508 0.36451 -1.92275 0
M  V30 6048 C 562.807 -3.10663 -1.767 0
M  V30 6049 C 562.473 -4.3962 -1.00225 0
M  V30 6050 C 561.135 -4.74653 -0.791095 0
M  V30 6051 C 563.487 -5.1913 -0.464035 0
M  V30 6052 C 560.815 -5.86692 -0.0302155 0
M  V30 6053 C 563.167 -6.31964 0.283625 0
M  V30 6054 C 561.831 -6.65581 0.505813 0
M  V30 6055 H 561.101 -0.660602 -0.335688 0
M  V30 6056 H 563.748 -1.90615 -0.183844 0
M  V30 6057 H 562.053 -2.95807 -2.56915 0
M  V30 6058 H 563.75 -3.26563 -2.32718 0
M  V30 6059 H 560.34 -4.12127 -1.17684 0
M  V30 6060 H 564.524 -4.9248 -0.614575 0
M  V30 6061 H 559.78 -6.11211 0.151917 0
M  V30 6062 H 563.954 -6.92791 0.708057 0
M  V30 6063 H 561.581 -7.52239 1.0973 0
M  V30 6064 N 563.156 0.464375 -1.50603 0
M  V30 6065 C 564.066 1.58723 -1.72754 0
M  V30 6066 C 565.082 1.62925 -0.610844 0
M  V30 6067 O 566.258 1.8067 -0.889963 0
M  V30 6068 C 563.323 2.94897 -1.82309 0
M  V30 6069 C 562.384 3.0103 -3.06071 0
M  V30 6070 C 561.617 4.30708 -3.1516 0
M  V30 6071 O 561.84 5.2159 -2.30868 0
M  V30 6072 O 560.774 4.42571 -4.0794 0
M  V30 6073 H 564.6 1.42954 -2.67951 0
M  V30 6074 H 562.185 0.644579 -1.3478 0
M  V30 6075 H 564.067 3.75764 -1.90735 0
M  V30 6076 H 562.742 3.10851 -0.902967 0
M  V30 6077 H 561.649 2.19217 -3.03142 0
M  V30 6078 H 562.982 2.90014 -3.97684 0
M  V30 6079 N 564.634 1.40294 0.718013 0
M  V30 6080 C 565.883 1.37746 1.4734 0
M  V30 6081 C 566.196 -0.0180754 1.95592 0
M  V30 6082 O 567.402 -0.166166 2.70991 0
M  V30 6083 C 565.858 2.4208 2.66318 0
M  V30 6084 C 565.466 3.87432 2.24945 0
M  V30 6085 C 567.21 2.48635 3.44065 0
M  V30 6086 C 565.117 4.83368 3.40748 0
M  V30 6087 H 564.047 0.512165 0.553356 0
M  V30 6088 H 566.698 1.66019 0.781661 0
M  V30 6089 H 565.08 2.06903 3.3765 0
M  V30 6090 H 566.254 4.3174 1.6105 0
M  V30 6091 H 564.569 3.8433 1.60249 0
M  V30 6092 H 567.166 3.17499 4.30231 0
M  V30 6093 H 567.509 1.51611 3.87711 0
M  V30 6094 H 568.042 2.82791 2.79775 0
M  V30 6095 H 564.781 5.81716 3.02136 0
M  V30 6096 H 564.301 4.43726 4.03568 0
M  V30 6097 H 565.98 5.03074 4.06848 0
M  V30 6098 N 566.112 -0.949982 1.2575 0
M  V30 6099 C 567.042 -2.06483 1.09028 0
M  V30 6100 C 568.023 -1.701 -0.00201532 0
M  V30 6101 O 569.208 -1.93469 0.168383 0
M  V30 6102 C 566.338 -3.39899 0.71316 0
M  V30 6103 C 565.292 -3.90309 1.75621 0
M  V30 6104 C 564.618 -5.20274 1.23365 0
M  V30 6105 C 565.918 -4.16169 3.15596 0
M  V30 6106 H 567.612 -2.20731 2.02283 0
M  V30 6107 H 565.158 -1.06066 0.973964 0
M  V30 6108 H 567.111 -4.17346 0.58309 0
M  V30 6109 H 565.835 -3.25602 -0.255091 0
M  V30 6110 H 564.494 -3.15035 1.8748 0
M  V30 6111 H 564.142 -5.02351 0.255491 0
M  V30 6112 H 563.842 -5.54971 1.93082 0
M  V30 6113 H 565.366 -6.00314 1.11607 0
M  V30 6114 H 566.78 -4.84259 3.06864 0
M  V30 6115 H 565.177 -4.62131 3.82825 0
M  V30 6116 H 566.247 -3.22273 3.6231 0
M  V30 6117 N 567.59 -1.07411 -1.15328 0
M  V30 6118 C 569.006 -0.799759 -1.38116 0
M  V30 6119 C 569.206 0.59572 -1.92493 0
M  V30 6120 O 568.262 1.35433 -2.13106 0
M  V30 6121 C 569.575 -1.87407 -2.35158 0
M  V30 6122 C 571.123 -1.89889 -2.48819 0
M  V30 6123 C 571.598 -2.96406 -3.49153 0
M  V30 6124 N 573.089 -2.95512 -3.56689 0
M  V30 6125 C 573.824 -3.74575 -4.34144 0
M  V30 6126 N 573.32 -4.63488 -5.14928 0
M  V30 6127 N 575.113 -3.62919 -4.29239 0
M  V30 6128 H 567.264 -1.97411 -0.78374 0
M  V30 6129 H 569.527 -0.856113 -0.407154 0
M  V30 6130 H 569.233 -2.8768 -2.0232 0
M  V30 6131 H 569.107 -1.73471 -3.34944 0
M  V30 6132 H 571.494 -0.902677 -2.80955 0
M  V30 6133 H 571.575 -2.07904 -1.49029 0
M  V30 6134 H 571.219 -3.96227 -3.17752 0
M  V30 6135 H 571.149 -2.75638 -4.48699 0
M  V30 6136 H 573.64 -2.31061 -2.99031 0
M  V30 6137 H 573.953 -5.20445 -5.71276 0
M  V30 6138 H 572.298 -4.67537 -5.14232 0
M  V30 6139 H 575.489 -2.92833 -3.65194 0
M  V30 6140 H 575.662 -4.24777 -4.89355 0
M  V30 6141 N 569.068 1.32177 -0.85831 0
M  V30 6142 C 570.317 1.96392 -0.459689 0
M  V30 6143 C 570.63 1.68659 0.990632 0
M  V30 6144 O 571.836 2.26641 1.49485 0
M  V30 6145 C 570.292 3.51542 -0.7711 0
M  V30 6146 C 569.9 3.8813 -2.2374 0
M  V30 6147 C 571.644 4.2221 -0.44038 0
M  V30 6148 C 569.551 5.36341 -2.49183 0
M  V30 6149 H 568.481 0.735007 -0.168169 0
M  V30 6150 H 571.132 1.50518 -1.0496 0
M  V30 6151 H 569.514 3.95846 -0.11058 0
M  V30 6152 H 570.688 3.54824 -2.94001 0
M  V30 6153 H 569.003 3.30497 -2.533 0
M  V30 6154 H 571.6 5.31234 -0.607855 0
M  V30 6155 H 571.943 4.11683 0.618291 0
M  V30 6156 H 572.476 3.83502 -1.05695 0
M  V30 6157 H 569.215 5.51892 -3.53689 0
M  V30 6158 H 568.735 5.7104 -1.83504 0
M  V30 6159 H 570.414 6.03466 -2.33318 0
M  V30 6160 N 570.547 0.616602 1.45037 0
M  V30 6161 C 571.497 -0.118543 2.27692 0
M  V30 6162 C 572.481 -0.830025 1.37838 0
M  V30 6163 O 573.673 -0.718528 1.6176 0
M  V30 6164 C 570.802 -1.10924 3.24886 0
M  V30 6165 C 569.888 -0.398134 4.22227 0
M  V30 6166 N 570.279 0.565233 5.02632 0
M  V30 6167 C 568.577 -0.644506 4.41319 0
M  V30 6168 C 569.278 0.984043 5.73316 0
M  V30 6169 N 568.254 0.325879 5.42622 0
M  V30 6170 H 572.056 0.621239 2.87259 0
M  V30 6171 H 569.57 0.440968 1.56299 0
M  V30 6172 H 571.567 -1.65038 3.82842 0
M  V30 6173 H 570.227 -1.84948 2.66879 0
M  V30 6174 H 571.238 0.942395 5.09254 0
M  V30 6175 H 567.915 -1.36873 3.94426 0
M  V30 6176 H 569.305 1.77911 6.47918 0
M  V30 6177 N 572.025 -1.5352 0.356285 0
M  V30 6178 C 573.253 -2.05534 -0.237328 0
M  V30 6179 C 573.668 -1.23043 -1.43199 0
M  V30 6180 O 573.025 -0.268821 -1.80509 0
M  V30 6181 C 573.076 -3.55791 -0.639933 0
M  V30 6182 O 572.797 -4.35154 0.507233 0
M  V30 6183 C 574.298 -4.24027 -1.29292 0
M  V30 6184 H 571.518 -0.669585 -0.0435572 0
M  V30 6185 H 574.062 -1.97988 0.511963 0
M  V30 6186 H 572.217 -3.63518 -1.33915 0
M  V30 6187 H 572.631 -5.24178 0.18375 0
M  V30 6188 H 574.105 -5.30509 -1.52527 0
M  V30 6189 H 574.582 -3.77166 -2.25039 0
M  V30 6190 H 575.188 -4.20527 -0.63539 0
M  V30 6191 N 573.503 -0.0852151 -1.57369 0
M  V30 6192 C 574.45 0.877268 -2.13478 0
M  V30 6193 C 575.42 1.28642 -1.05073 0
M  V30 6194 O 576.605 1.36992 -1.32808 0
M  V30 6195 C 573.745 2.13464 -2.71159 0
M  V30 6196 C 572.858 1.77691 -3.93764 0
M  V30 6197 C 571.993 2.98139 -4.39643 0
M  V30 6198 C 571.032 2.58447 -5.54862 0
M  V30 6199 N 570.169 3.71698 -5.95639 0
M  V30 6200 H 575.009 0.391933 -2.95411 0
M  V30 6201 H 572.546 0.181796 -1.45972 0
M  V30 6202 H 574.504 2.87086 -3.02717 0
M  V30 6203 H 573.134 2.59514 -1.91969 0
M  V30 6204 H 572.186 0.940768 -3.68583 0
M  V30 6205 H 573.498 1.44497 -4.77412 0
M  V30 6206 H 572.652 3.80026 -4.72933 0
M  V30 6207 H 571.391 3.34536 -3.54876 0
M  V30 6208 H 570.396 1.74984 -5.21211 0
M  V30 6209 H 571.621 2.23205 -6.41371 0
M  V30 6210 H 569.567 4.07831 -5.13819 0
M  V30 6211 H 569.484 3.42317 -6.74059 0
M  V30 6212 H 570.752 4.54123 -6.33555 0
M  V30 6213 N 574.981 1.5647 0.188427 0
M  V30 6214 C 575.929 1.95971 1.25293 0
M  V30 6215 C 576.923 0.846047 1.4676 0
M  V30 6216 O 578.129 1.03109 1.47542 0
M  V30 6217 H 574.504 0.623253 0.420784 0
M  V30 6218 H 576.475 2.84731 0.892792 0
M  V30 6219 C 575.224 2.32116 2.58877 0
M  V30 6220 H 574.547 3.17341 2.43176 0
M  V30 6221 H 575.987 2.63613 3.3209 0
M  V30 6222 C 574.446 1.15823 3.16365 0
M  V30 6223 O 574.976 0.436785 3.99318 0
M  V30 6224 N 573.182 0.933278 2.75206 0
M  V30 6225 H 572.729 1.52169 2.07852 0
M  V30 6226 H 572.687 0.156976 3.14008 0
M  V30 6227 N 576.459 -0.456382 1.50847 0
M  V30 6228 C 577.392 -1.57177 1.65441 0
M  V30 6229 C 578.37 -1.54649 0.502224 0
M  V30 6230 O 579.554 -1.74057 0.723633 0
M  V30 6231 C 576.681 -2.95763 1.65052 0
M  V30 6232 C 575.727 -3.16389 2.86007 0
M  V30 6233 S 576.56 -2.94716 4.47105 0
M  V30 6234 C 577.716 -4.35617 4.49432 0
M  V30 6235 H 577.949 -1.44561 2.59787 0
M  V30 6236 H 575.482 -0.644758 1.40293 0
M  V30 6237 H 577.44 -3.75654 1.65512 0
M  V30 6238 H 576.101 -3.05756 0.719153 0
M  V30 6239 H 575.294 -4.17667 2.82081 0
M  V30 6240 H 574.896 -2.44293 2.8319 0
M  V30 6241 H 577.188 -5.28503 4.239 0
M  V30 6242 H 578.131 -4.44582 5.51137 0
M  V30 6243 H 578.539 -4.18382 3.78967 0
M  V30 6244 N 577.937 -1.40673 -0.710563 0
M  V30 6245 C 578.884 -1.41336 -1.82463 0
M  V30 6246 C 579.854 -0.269648 -1.63897 0
M  V30 6247 O 581.039 -0.468463 -1.8496 0
M  V30 6248 C 578.179 -1.28665 -3.20218 0
M  V30 6249 C 577.292 -2.52784 -3.5032 0
M  V30 6250 C 576.427 -2.32517 -4.77608 0
M  V30 6251 C 575.466 -3.52187 -5.0063 0
M  V30 6252 N 574.603 -3.31084 -6.19135 0
M  V30 6253 H 579.443 -2.36558 -1.8123 0
M  V30 6254 H 576.98 -1.17483 -0.885226 0
M  V30 6255 H 578.938 -1.19324 -3.99772 0
M  V30 6256 H 577.568 -0.370602 -3.20666 0
M  V30 6257 H 576.62 -2.72634 -2.65283 0
M  V30 6258 H 577.932 -3.41845 -3.63241 0
M  V30 6259 H 577.086 -2.20558 -5.65189 0
M  V30 6260 H 575.825 -1.40889 -4.66906 0
M  V30 6261 H 574.83 -3.64617 -4.11502 0
M  V30 6262 H 576.055 -4.44749 -5.13201 0
M  V30 6263 H 574.001 -2.42143 -6.09674 0
M  V30 6264 H 573.918 -4.13713 -6.32754 0
M  V30 6265 H 575.186 -3.22868 -7.0949 0
M  V30 6266 N 579.415 0.9433 -1.26252 0
M  V30 6267 C 580.345 2.05902 -1.10122 0
M  V30 6268 C 581.326 1.70099 -0.00700552 0
M  V30 6269 O 582.511 1.93377 -0.178641 0
M  V30 6270 C 579.641 3.39516 -0.731175 0
M  V30 6271 C 578.595 3.89372 -1.77688 0
M  V30 6272 C 577.921 5.19613 -1.26122 0
M  V30 6273 C 579.221 4.14489 -3.17799 0
M  V30 6274 H 580.915 2.19655 -2.03451 0
M  V30 6275 H 578.461 1.05548 -0.979576 0
M  V30 6276 H 580.414 4.17031 -0.605215 0
M  V30 6277 H 579.138 3.25733 0.23782 0
M  V30 6278 H 577.797 3.14036 -1.89148 0
M  V30 6279 H 577.445 5.02208 -0.282128 0
M  V30 6280 H 577.145 5.53939 -1.96023 0
M  V30 6281 H 578.669 5.99713 -1.14789 0
M  V30 6282 H 580.083 4.82625 -3.09428 0
M  V30 6283 H 578.48 4.60094 -3.85271 0
M  V30 6284 H 579.55 3.20347 -3.64014 0
M  V30 6285 N 580.893 1.08022 1.14757 0
M  V30 6286 C 582.118 0.82895 1.90114 0
M  V30 6287 C 582.543 -0.612772 1.77839 0
M  V30 6288 O 581.901 -1.42895 1.11583 0
M  V30 6289 C 581.949 1.25062 3.38219 0
M  V30 6290 O 581.053 0.400119 4.10454 0
M  V30 6291 H 580.394 0.301412 0.591648 0
M  V30 6292 H 582.924 1.44062 1.45284 0
M  V30 6293 H 582.934 1.22977 3.89025 0
M  V30 6294 H 581.609 2.30067 3.46471 0
M  V30 6295 H 580.186 0.484052 3.69745 0
M  V30 6296 N 582.371 -1.3172 0.865308 0
M  V30 6297 C 583.782 -1.79104 0.527126 0
M  V30 6298 C 584.133 -1.7135 -0.955695 0
M  V30 6299 O 583.258 -1.27845 -1.74598 0
M  V30 6300 C 583.853 -3.25207 0.950061 0
M  V30 6301 C 582.412 -3.70504 0.663611 0
M  V30 6302 C 581.559 -2.52605 1.14395 0
M  V30 6303 H 584.51 -1.18868 1.05148 0
M  V30 6304 H 584.531 -3.79535 0.270805 0
M  V30 6305 H 584.043 -3.30818 2.02931 0
M  V30 6306 H 582.144 -3.70398 -0.404474 0
M  V30 6307 H 582.257 -4.62845 1.23737 0
M  V30 6308 H 580.621 -2.4838 0.563859 0
M  V30 6309 H 581.404 -2.60964 2.23053 0
M  V30 6310 N 583.85 -0.624285 -1.44708 0
M  V30 6311 C 585.127 -0.0572781 -1.95516 0
M  V30 6312 C 585.507 1.41516 -1.56641 0
M  V30 6313 O 584.855 2.12614 -0.837111 0
M  V30 6314 C 585.065 -0.272944 -3.47931 0
M  V30 6315 C 586.413 -0.162529 -4.24289 0
M  V30 6316 O 587.437 -0.203946 -3.55616 0
M  V30 6317 O 586.296 -0.0616847 -5.46465 0
M  V30 6318 H 583.389 0.0262219 -0.826584 0
M  V30 6319 H 585.936 -0.695512 -1.54793 0
M  V30 6320 H 584.707 -1.29492 -3.69253 0
M  V30 6321 H 584.331 0.399756 -3.95585 0
M  V30 6322 N 585.328 1.53329 -0.364422 0
M  V30 6323 C 586.574 2.01537 0.225969 0
M  V30 6324 C 586.907 1.25128 1.48515 0
M  V30 6325 O 586.182 0.344653 1.91422 0
M  V30 6326 C 586.465 3.56339 0.519092 0
M  V30 6327 C 586.318 4.43441 -0.753639 0
M  V30 6328 C 587.637 4.19833 1.32015 0
M  V30 6329 H 584.756 0.732573 0.0806548 0
M  V30 6330 H 587.398 1.83597 -0.489084 0
M  V30 6331 H 585.548 3.71756 1.12825 0
M  V30 6332 H 587.22 4.39823 -1.39116 0
M  V30 6333 H 585.463 4.11457 -1.37424 0
M  V30 6334 H 586.134 5.49699 -0.503517 0
M  V30 6335 H 588.61 4.08242 0.804859 0
M  V30 6336 H 587.486 5.28177 1.49399 0
M  V30 6337 H 587.747 3.75821 2.32832 0
M  V30 6338 N 586.806 0.0935595 1.57322 0
M  V30 6339 C 587.753 -0.865935 2.1394 0
M  V30 6340 C 588.723 -1.28083 1.05754 0
M  V30 6341 O 589.908 -1.36285 1.33533 0
M  V30 6342 C 587.048 -2.12023 2.72287 0
M  V30 6343 C 586.161 -1.756 3.94701 0
M  V30 6344 C 585.296 -2.95804 4.41218 0
M  V30 6345 C 584.335 -2.555 5.56225 0
M  V30 6346 N 583.472 -3.68534 5.97601 0
M  V30 6347 H 588.312 -0.376261 2.95615 0
M  V30 6348 H 585.849 -0.174052 1.46067 0
M  V30 6349 H 587.807 -2.85477 3.04235 0
M  V30 6350 H 586.437 -2.58492 1.93343 0
M  V30 6351 H 585.489 -0.921208 3.69077 0
M  V30 6352 H 586.801 -1.41964 4.78171 0
M  V30 6353 H 585.955 -3.77513 4.74941 0
M  V30 6354 H 584.694 -3.32649 3.56645 0
M  V30 6355 H 583.699 -1.72218 5.22131 0
M  V30 6356 H 584.924 -2.19801 6.42545 0
M  V30 6357 H 582.87 -4.051 5.15974 0
M  V30 6358 H 582.787 -3.38737 6.75865 0
M  V30 6359 H 584.055 -4.50757 6.35955 0
M  V30 6360 N 588.284 -1.56567 -0.180126 0
M  V30 6361 C 589.214 -1.98753 -1.22553 0
M  V30 6362 C 590.195 -0.86175 -1.46656 0
M  V30 6363 O 591.38 -1.12719 -1.58139 0
M  V30 6364 C 588.51 -2.33988 -2.56645 0
M  V30 6365 C 587.464 -3.49445 -2.47128 0
M  V30 6366 C 586.79 -3.70397 -3.8563 0
M  V30 6367 C 588.09 -4.83171 -1.98352 0
M  V30 6368 H 589.784 -2.86332 -0.874896 0
M  V30 6369 H 587.33 -1.37757 -0.419414 0
M  V30 6370 H 589.283 -2.62097 -3.29974 0
M  V30 6371 H 588.007 -1.43309 -2.93479 0
M  V30 6372 H 586.666 -3.2145 -1.76254 0
M  V30 6373 H 586.314 -2.77023 -4.19842 0
M  V30 6374 H 586.014 -4.48077 -3.80132 0
M  V30 6375 H 587.538 -4.00897 -4.60558 0
M  V30 6376 H 588.952 -5.10213 -2.61449 0
M  V30 6377 H 587.349 -5.64425 -2.03823 0
M  V30 6378 H 588.419 -4.75753 -0.937402 0
M  V30 6379 N 589.762 0.448376 -1.51087 0
M  V30 6380 C 590.672 1.56882 -1.74428 0
M  V30 6381 C 591.688 1.62268 -0.62809 0
M  V30 6382 O 592.864 1.79716 -0.909075 0
M  V30 6383 C 589.929 2.92947 -1.85426 0
M  V30 6384 C 588.99 2.97766 -3.09247 0
M  V30 6385 C 588.223 4.27341 -3.19711 0
M  V30 6386 O 588.446 5.19112 -2.36387 0
M  V30 6387 O 587.38 4.38219 -4.12611 0
M  V30 6388 H 591.206 1.40104 -2.69452 0
M  V30 6389 H 588.791 0.630247 -1.35456 0
M  V30 6390 H 590.673 3.73719 -1.94709 0
M  V30 6391 H 589.348 3.09876 -0.935887 0
M  V30 6392 H 588.255 2.15989 -3.0545 0
M  V30 6393 H 589.588 2.8578 -4.00738 0
M  V30 6394 N 591.24 1.41047 0.703093 0
M  V30 6395 C 592.15 1.44645 1.84703 0
M  V30 6396 C 593.166 0.337778 1.7069 0
M  V30 6397 O 594.342 0.584327 1.92737 0
M  V30 6398 C 591.407 1.31928 3.20618 0
M  V30 6399 C 590.468 2.53047 3.46794 0
M  V30 6400 C 589.701 2.40927 4.76224 0
M  V30 6401 O 589.924 1.42978 5.5219 0
M  V30 6402 O 588.858 3.30543 5.03016 0
M  V30 6403 H 592.684 2.41139 1.84624 0
M  V30 6404 H 590.269 1.22504 0.855167 0
M  V30 6405 H 592.151 1.27092 4.01778 0
M  V30 6406 H 590.826 0.385469 3.21397 0
M  V30 6407 H 589.733 2.6346 2.65593 0
M  V30 6408 H 591.066 3.45231 3.50822 0
M  V30 6409 N 592.718 -0.936591 1.26751 0
M  V30 6410 C 593.648 -2.05315 1.11212 0
M  V30 6411 C 594.629 -1.70092 0.0160262 0
M  V30 6412 O 595.814 -1.93279 0.188894 0
M  V30 6413 C 592.944 -3.39123 0.749171 0
M  V30 6414 C 591.898 -3.88425 1.79751 0
M  V30 6415 C 591.224 -5.18936 1.28876 0
M  V30 6416 C 592.524 -4.12798 3.19992 0
M  V30 6417 H 594.218 -2.18573 2.04613 0
M  V30 6418 H 591.764 -1.05027 0.985159 0
M  V30 6419 H 593.717 -4.16704 0.627323 0
M  V30 6420 H 592.441 -3.25855 -0.220543 0
M  V30 6421 H 591.1 -3.13028 1.90811 0
M  V30 6422 H 590.748 -5.02051 0.308757 0
M  V30 6423 H 590.448 -5.52892 1.98958 0
M  V30 6424 H 591.972 -5.99096 1.17967 0
M  V30 6425 H 593.386 -4.80977 3.11983 0
M  V30 6426 H 591.783 -4.58044 3.87705 0
M  V30 6427 H 592.853 -3.18412 3.65707 0
M  V30 6428 N 594.196 -1.08629 -1.14182 0
M  V30 6429 C 595.159 -0.722027 -2.1753 0
M  V30 6430 C 596.159 0.244305 -1.58933 0
M  V30 6431 O 597.349 0.0235545 -1.74184 0
M  V30 6432 C 594.481 -0.0663966 -3.40835 0
M  V30 6433 H 595.674 -1.63719 -2.51269 0
M  V30 6434 H 593.227 -0.884442 -1.28869 0
M  V30 6435 H 593.962 0.860389 -3.12678 0
M  V30 6436 H 593.747 -0.761598 -3.84632 0
M  V30 6437 H 595.237 0.173346 -4.1724 0
M  V30 6438 N 595.674 1.31259 -0.872281 0
M  V30 6439 C 596.899 2.0133 -0.498099 0
M  V30 6440 C 597.324 1.65031 0.902568 0
M  V30 6441 O 596.682 0.860164 1.59596 0
M  V30 6442 C 596.73 3.54411 -0.665205 0
M  V30 6443 O 595.834 4.11347 0.294473 0
M  V30 6444 H 595.175 0.633844 -0.197832 0
M  V30 6445 H 597.705 1.67402 -1.17633 0
M  V30 6446 H 597.715 4.04147 -0.559373 0
M  V30 6447 H 596.39 3.80171 -1.68651 0
M  V30 6448 H 594.967 3.72624 0.143403 0
M  V30 6449 N 597.152 0.631951 1.44375 0
M  V30 6450 C 598.1 -0.0846693 2.32446 0
M  V30 6451 C 599.094 -0.834957 1.47393 0
M  V30 6452 O 600.3 -0.747764 1.63733 0
M  V30 6453 H 596.675 -0.0461508 0.750583 0
M  V30 6454 H 598.646 0.67619 2.90638 0
M  V30 6455 C 597.395 -1.05211 3.314 0
M  V30 6456 H 596.718 -0.484203 3.96857 0
M  V30 6457 H 598.158 -1.523 3.95703 0
M  V30 6458 C 596.617 -2.13776 2.60387 0
M  V30 6459 O 597.147 -3.21869 2.4034 0
M  V30 6460 N 595.353 -1.89733 2.20113 0
M  V30 6461 H 594.9 -1.01833 2.36618 0
M  V30 6462 H 594.858 -2.62572 1.72926 0
M  V30 6463 N 598.631 -1.53133 0.372548 0
M  V30 6464 C 599.859 -2.05774 -0.215515 0
M  V30 6465 C 600.274 -1.24555 -1.41886 0
M  V30 6466 O 599.631 -0.287951 -1.80214 0
M  V30 6467 C 599.682 -3.5645 -0.602161 0
M  V30 6468 O 599.403 -4.34591 0.553359 0
M  V30 6469 C 600.904 -4.25374 -1.24787 0
M  V30 6470 H 598.124 -0.670009 -0.0364529 0
M  V30 6471 H 600.668 -1.97434 0.532934 0
M  V30 6472 H 598.823 -3.64918 -1.30052 0
M  V30 6473 H 599.237 -5.23954 0.239336 0
M  V30 6474 H 600.711 -5.32097 -1.46891 0
M  V30 6475 H 601.188 -3.79531 -2.21026 0
M  V30 6476 H 601.794 -4.21177 -0.590752 0
M  V30 6477 N 600.109 -0.101901 -1.5727 0
M  V30 6478 C 601.059 0.865346 -2.1094 0
M  V30 6479 C 602.043 1.2394 -1.02605 0
M  V30 6480 O 603.235 1.21334 -1.28868 0
M  V30 6481 C 600.364 2.12187 -2.69874 0
M  V30 6482 C 599.45 1.77295 -3.85263 0
M  V30 6483 N 599.841 1.12993 -4.93017 0
M  V30 6484 C 598.139 2.06862 -3.95126 0
M  V30 6485 C 598.84 0.968631 -5.73579 0
M  V30 6486 N 597.816 1.48814 -5.22834 0
M  V30 6487 H 601.618 0.364368 -2.91633 0
M  V30 6488 H 599.132 0.101104 -1.62085 0
M  V30 6489 H 601.129 2.82431 -3.06657 0
M  V30 6490 H 599.789 2.62844 -1.90639 0
M  V30 6491 H 600.8 0.795935 -5.11747 0
M  V30 6492 H 597.477 2.59686 -3.26909 0
M  V30 6493 H 598.867 0.465231 -6.70287 0
M  V30 6494 N 601.587 1.56661 0.17182 0
M  V30 6495 C 602.835 1.81606 0.886774 0
M  V30 6496 C 603.156 0.678818 1.82803 0
M  V30 6497 O 602.426 -0.301354 1.93568 0
M  V30 6498 H 601.006 0.669934 0.330451 0
M  V30 6499 H 603.668 1.94142 0.171757 0
M  V30 6500 H 602.764 2.75634 1.46398 0
M  V30 6501 N 603.065 -0.440357 1.51323 0
M  V30 6502 C 604.312 -1.19004 1.63842 0
M  V30 6503 C 604.64 -1.91266 0.35321 0
M  V30 6504 O 603.895 -1.84143 -0.662565 0
M  V30 6505 C 604.194 -2.2339 2.78984 0
M  V30 6506 C 603.86 -1.68162 4.18369 0
M  V30 6507 C 602.522 -1.52823 4.56288 0
M  V30 6508 C 604.874 -1.27524 5.05358 0
M  V30 6509 C 602.202 -0.953157 5.78906 0
M  V30 6510 C 604.554 -0.714474 6.28552 0
M  V30 6511 C 603.218 -0.547961 6.65247 0
M  V30 6512 H 602.488 -0.435468 0.59954 0
M  V30 6513 H 605.135 -0.481538 1.85347 0
M  V30 6514 H 603.44 -3.00267 2.51688 0
M  V30 6515 H 605.137 -2.81211 2.85869 0
M  V30 6516 H 601.727 -1.81077 3.8847 0
M  V30 6517 H 605.911 -1.38197 4.76671 0
M  V30 6518 H 601.167 -0.811882 6.05986 0
M  V30 6519 H 605.341 -0.391059 6.95301 0
M  V30 6520 H 602.968 -0.100222 7.60134 0
M  V30 6521 N 604.543 -1.41418 -0.695603 0
M  V30 6522 C 605.789 -1.40982 -1.4578 0
M  V30 6523 C 606.122 -0.0187763 -1.94191 0
M  V30 6524 O 605.397 0.95346 -1.69527 0
M  V30 6525 C 605.68 -2.41657 -2.66972 0
M  V30 6526 C 605.533 -3.89869 -2.24327 0
M  V30 6527 C 606.852 -2.39589 -3.69168 0
M  V30 6528 H 603.971 -0.513405 -0.528757 0
M  V30 6529 H 606.613 -1.72693 -0.792275 0
M  V30 6530 H 604.763 -2.14746 -3.23754 0
M  V30 6531 H 606.435 -4.27683 -1.72872 0
M  V30 6532 H 604.678 -4.04737 -1.56111 0
M  V30 6533 H 605.349 -4.55857 -3.11285 0
M  V30 6534 H 607.825 -2.63471 -3.2206 0
M  V30 6535 H 606.701 -3.12044 -4.51575 0
M  V30 6536 H 606.962 -1.41447 -4.18862 0
M  V30 6537 N 606.021 0.929856 -1.27246 0
M  V30 6538 C 607.269 1.674 -1.13233 0
M  V30 6539 C 607.59 1.92311 0.322744 0
M  V30 6540 O 606.86 1.52784 1.22612 0
M  V30 6541 H 605.44 0.620411 -0.416052 0
M  V30 6542 H 608.102 1.11663 -1.59741 0
M  V30 6543 H 607.198 2.64308 -1.65975 0
M  V30 6544 N 607.499 1.09233 1.13605 0
M  V30 6545 C 608.462 0.733553 2.17144 0
M  V30 6546 C 609.462 -0.235873 1.59061 0
M  V30 6547 O 610.652 -0.0143167 1.74194 0
M  V30 6548 C 607.784 0.084471 3.40795 0
M  V30 6549 H 608.977 1.65049 2.50397 0
M  V30 6550 H 606.53 0.891264 1.28399 0
M  V30 6551 H 607.265 -0.843795 3.1313 0
M  V30 6552 H 607.05 0.781985 3.84223 0
M  V30 6553 H 608.54 -0.151216 4.17326 0
M  V30 6554 N 608.977 -1.30795 0.87923 0
M  V30 6555 C 610.254 -1.91145 0.415086 0
M  V30 6556 C 610.634 -1.7995 -1.10368 0
M  V30 6557 O 609.982 -1.21305 -1.93642 0
M  V30 6558 C 610.192 -3.37014 0.906778 0
M  V30 6559 C 611.54 -4.14101 0.938358 0
M  V30 6560 O 612.564 -3.45834 0.853053 0
M  V30 6561 O 611.423 -5.36054 1.06342 0
M  V30 6562 H 608.517 -0.81736 0.125905 0
M  V30 6563 H 611.063 -1.39401 0.967753 0
M  V30 6564 H 609.835 -3.3922 1.95053 0
M  V30 6565 H 609.458 -3.96204 0.332948 0
M  V30 6566 N 610.455 -0.639598 -1.44038 0
M  V30 6567 C 611.385 0.0469443 -2.33453 0
M  V30 6568 C 612.366 0.82609 -1.48694 0
M  V30 6569 O 613.551 0.790285 -1.77393 0
M  V30 6570 C 610.681 1.02338 -3.3188 0
M  V30 6571 C 609.635 0.355284 -4.26523 0
M  V30 6572 C 608.961 1.44221 -5.14883 0
M  V30 6573 C 610.261 -0.743798 -5.16977 0
M  V30 6574 H 611.955 -0.699735 -2.91108 0
M  V30 6575 H 609.501 -0.337946 -1.39978 0
M  V30 6576 H 611.454 1.51247 -3.93322 0
M  V30 6577 H 610.178 1.80105 -2.72451 0
M  V30 6578 H 608.837 -0.113239 -3.66425 0
M  V30 6579 H 608.485 2.21097 -4.51802 0
M  V30 6580 H 608.185 1.00052 -5.79019 0
M  V30 6581 H 609.709 1.93295 -5.79197 0
M  V30 6582 H 611.123 -0.337444 -5.72306 0
M  V30 6583 H 609.52 -1.10914 -5.89761 0
M  V30 6584 H 610.59 -1.60745 -4.57481 0
M  V30 6585 N 611.933 1.52934 -0.380664 0
M  V30 6586 C 612.896 2.24809 0.446473 0
M  V30 6587 C 613.896 1.26133 0.997347 0
M  V30 6588 O 615.086 1.50297 0.880714 0
M  V30 6589 C 612.218 2.99649 1.62553 0
M  V30 6590 H 613.411 2.99343 -0.182677 0
M  V30 6591 H 610.964 1.55736 -0.132618 0
M  V30 6592 H 611.699 2.29395 2.29235 0
M  V30 6593 H 611.484 3.72066 1.23732 0
M  V30 6594 H 612.974 3.54246 2.21133 0
M  V30 6595 N 613.412 0.11024 1.57214 0
M  V30 6596 C 614.344 -0.873497 2.11902 0
M  V30 6597 C 615.357 -1.23588 1.05971 0
M  V30 6598 O 616.546 -1.18636 1.33371 0
M  V30 6599 C 613.646 -2.17805 2.59643 0
M  V30 6600 C 612.819 -1.98869 3.89576 0
M  V30 6601 C 611.878 -3.12974 4.23006 0
M  V30 6602 O 610.904 -2.86272 4.91973 0
M  V30 6603 N 612.106 -4.39167 3.79622 0
M  V30 6604 H 614.871 -0.406317 2.96933 0
M  V30 6605 H 612.432 -0.074437 1.61729 0
M  V30 6606 H 614.424 -2.93117 2.79042 0
M  V30 6607 H 612.994 -2.55899 1.7954 0
M  V30 6608 H 612.214 -1.078 3.79174 0
M  V30 6609 H 613.502 -1.83512 4.74553 0
M  V30 6610 H 612.9 -4.63739 3.2398 0
M  V30 6611 H 611.457 -5.11379 4.04147 0
M  V30 6612 N 614.89 -1.56749 -0.16351 0
M  V30 6613 C 615.82 -2.00042 -1.20438 0
M  V30 6614 C 616.801 -0.877256 -1.45733 0
M  V30 6615 O 617.986 -1.1439 -1.56935 0
M  V30 6616 C 615.116 -2.36697 -2.54149 0
M  V30 6617 C 614.07 -3.52046 -2.43408 0
M  V30 6618 C 613.396 -3.74466 -3.81679 0
M  V30 6619 C 614.696 -4.85247 -1.93216 0
M  V30 6620 H 616.39 -2.87244 -0.844477 0
M  V30 6621 H 613.936 -1.38194 -0.40478 0
M  V30 6622 H 615.889 -2.65582 -3.27176 0
M  V30 6623 H 614.613 -1.46414 -2.91943 0
M  V30 6624 H 613.272 -3.23301 -1.72834 0
M  V30 6625 H 612.92 -2.81461 -4.1688 0
M  V30 6626 H 612.62 -4.52084 -3.75359 0
M  V30 6627 H 614.144 -4.0576 -4.5628 0
M  V30 6628 H 615.558 -5.12957 -2.56023 0
M  V30 6629 H 613.955 -5.66556 -1.97825 0
M  V30 6630 H 615.025 -4.7672 -0.88689 0
M  V30 6631 N 616.368 0.432326 -1.51554 0
M  V30 6632 C 617.608 1.19076 -1.66133 0
M  V30 6633 C 617.972 1.88364 -0.371873 0
M  V30 6634 O 619.173 2.65904 -0.39349 0
M  V30 6635 C 617.444 2.1768 -2.83461 0
M  V30 6636 S 619.003 3.01943 -3.18396 0
M  V30 6637 H 615.821 0.403735 -0.585251 0
M  V30 6638 H 618.423 0.481554 -1.89476 0
M  V30 6639 H 617.127 1.65424 -3.75583 0
M  V30 6640 H 616.658 2.93174 -2.62322 0
M  V30 6641 H 618.673 4.19373 -2.65219 0
M  V30 6642 N 617.846 1.41785 0.688094 0
M  V30 6643 C 619.074 1.44915 1.47673 0
M  V30 6644 C 619.489 0.0565786 1.88715 0
M  V30 6645 O 618.846 -0.92579 1.57275 0
M  V30 6646 C 618.897 2.36452 2.73446 0
M  V30 6647 O 618.618 3.7029 2.34131 0
M  V30 6648 C 620.119 2.48463 3.67125 0
M  V30 6649 H 617.339 0.493324 0.454832 0
M  V30 6650 H 619.883 1.86153 0.846594 0
M  V30 6651 H 618.038 1.98502 3.3268 0
M  V30 6652 H 618.452 4.19183 3.15255 0
M  V30 6653 H 619.926 3.16662 4.52138 0
M  V30 6654 H 620.403 1.51826 4.12123 0
M  V30 6655 H 621.009 2.8708 3.13792 0
M  V30 6656 N 619.324 -0.923095 1.27737 0
M  V30 6657 C 620.234 -2.05765 1.12685 0
M  V30 6658 C 621.25 -1.73911 0.0557197 0
M  V30 6659 O 622.426 -1.99674 0.263137 0
M  V30 6660 C 619.491 -3.37804 0.780363 0
M  V30 6661 C 618.552 -3.83326 1.93286 0
M  V30 6662 C 617.785 -5.09064 1.60281 0
M  V30 6663 O 618.008 -5.6809 0.512828 0
M  V30 6664 O 616.942 -5.50071 2.44347 0
M  V30 6665 H 620.768 -2.21378 2.07907 0
M  V30 6666 H 618.353 -1.04299 1.06968 0
M  V30 6667 H 620.235 -4.17097 0.600668 0
M  V30 6668 H 618.91 -3.23387 -0.142291 0
M  V30 6669 H 617.817 -3.049 2.16764 0
M  V30 6670 H 619.15 -4.02292 2.83588 0
M  V30 6671 N 620.802 -1.09834 -1.13024 0
M  V30 6672 C 621.765 -0.745058 -2.16752 0
M  V30 6673 C 622.765 0.227435 -1.59183 0
M  V30 6674 O 623.955 0.0050786 -1.74199 0
M  V30 6675 C 621.087 -0.102543 -3.40746 0
M  V30 6676 H 622.28 -1.66375 -2.49518 0
M  V30 6677 H 619.833 -0.898061 -1.27924 0
M  V30 6678 H 620.568 0.827177 -3.13573 0
M  V30 6679 H 620.353 -0.80235 -3.83803 0
M  V30 6680 H 621.843 0.129082 -4.174 0
M  V30 6681 N 622.28 1.30327 -0.886154 0
M  V30 6682 C 623.243 2.26376 -0.358687 0
M  V30 6683 C 624.243 1.52845 0.499498 0
M  V30 6684 O 625.433 1.71483 0.306485 0
M  V30 6685 C 622.565 3.37379 0.488726 0
M  V30 6686 H 623.758 2.74547 -1.20681 0
M  V30 6687 H 621.311 1.41536 -0.663113 0
M  V30 6688 H 622.046 2.94526 1.35739 0
M  V30 6689 H 621.831 3.91897 -0.126003 0
M  V30 6690 H 623.321 4.08868 0.84952 0
M  V30 6691 N 623.758 0.647228 1.43697 0
M  V30 6692 C 624.688 -0.0345631 2.33474 0
M  V30 6693 C 625.669 -0.818193 1.4913 0
M  V30 6694 O 626.854 -0.780867 1.77809 0
M  V30 6695 C 623.984 -1.00576 3.32418 0
M  V30 6696 C 622.938 -0.33266 4.26705 0
M  V30 6697 C 622.264 -1.41489 5.1564 0
M  V30 6698 C 623.564 0.771204 5.16575 0
M  V30 6699 H 625.258 0.715163 2.90733 0
M  V30 6700 H 622.804 0.345364 1.39797 0
M  V30 6701 H 624.757 -1.49159 3.94119 0
M  V30 6702 H 623.481 -1.78657 2.73403 0
M  V30 6703 H 622.14 0.13267 3.6636 0
M  V30 6704 H 621.788 -2.18698 4.52968 0
M  V30 6705 H 621.488 -0.969799 5.79542 0
M  V30 6706 H 623.012 -1.9022 5.80214 0
M  V30 6707 H 624.426 0.36779 5.72119 0
M  V30 6708 H 622.823 1.1404 5.89165 0
M  V30 6709 H 623.893 1.63169 4.56622 0
M  V30 6710 N 625.236 -1.5273 0.388769 0
M  V30 6711 C 626.464 -2.05992 -0.193677 0
M  V30 6712 C 626.879 -1.26053 -1.40557 0
M  V30 6713 O 626.236 -0.307049 -1.79898 0
M  V30 6714 C 626.287 -3.57068 -0.564321 0
M  V30 6715 O 626.008 -4.3398 0.599422 0
M  V30 6716 C 627.509 -4.26674 -1.20269 0
M  V30 6717 H 624.729 -0.670358 -0.0293445 0
M  V30 6718 H 627.273 -1.96857 0.553844 0
M  V30 6719 H 625.428 -3.66277 -1.26174 0
M  V30 6720 H 625.842 -5.2367 0.294895 0
M  V30 6721 H 627.316 -5.33625 -1.4124 0
M  V30 6722 H 627.793 -3.81854 -2.16989 0
M  V30 6723 H 628.399 -4.2178 -0.546047 0
M  V30 6724 N 626.714 -0.118576 -1.57153 0
M  V30 6725 C 627.954 0.542618 -1.97066 0
M  V30 6726 C 628.318 1.63874 -1.00046 0
M  V30 6727 O 629.519 2.3588 -1.28895 0
M  V30 6728 C 627.79 1.06196 -3.41258 0
M  V30 6729 S 629.349 1.73174 -4.03183 0
M  V30 6730 H 626.167 0.17638 -0.688775 0
M  V30 6731 H 628.769 -0.203556 -1.94437 0
M  V30 6732 H 627.473 0.253016 -4.09619 0
M  V30 6733 H 627.004 1.84342 -3.47536 0
M  V30 6734 H 629.019 3.01749 -3.93906 0
M  V30 6735 N 628.193 1.56834 0.155195 0
M  V30 6736 C 629.442 1.82088 0.867567 0
M  V30 6737 C 629.755 0.69849 1.82703 0
M  V30 6738 O 630.961 0.836407 2.58295 0
M  V30 6739 C 629.417 3.22707 1.59336 0
M  V30 6740 C 629.025 4.42859 0.676719 0
M  V30 6741 C 630.769 3.57242 2.293 0
M  V30 6742 C 628.676 5.74501 1.40367 0
M  V30 6743 H 627.606 0.679057 0.327715 0
M  V30 6744 H 630.257 1.83105 0.120351 0
M  V30 6745 H 628.639 3.16054 2.38591 0
M  V30 6746 H 629.813 4.60731 -0.0800196 0
M  V30 6747 H 628.128 4.16311 0.0859129 0
M  V30 6748 H 630.725 4.52847 2.84312 0
M  V30 6749 H 631.068 2.82901 3.05406 0
M  V30 6750 H 631.601 3.6552 1.56972 0
M  V30 6751 H 628.34 6.51915 0.684623 0
M  V30 6752 H 627.86 5.60579 2.13332 0
M  V30 6753 H 629.539 6.17016 1.94681 0
M  V30 6754 N 629.671 -0.424282 1.51781 0
M  V30 6755 C 631.087 -0.761768 1.40247 0
M  V30 6756 C 631.287 -1.95324 0.495041 0
M  V30 6757 O 630.343 -2.5246 -0.0448949 0
M  V30 6758 C 631.656 -1.0299 2.82513 0
M  V30 6759 C 633.204 -1.13354 2.91753 0
M  V30 6760 C 633.679 -1.43453 4.34954 0
M  V30 6761 N 635.17 -1.5035 4.3812 0
M  V30 6762 C 635.905 -1.75236 5.45967 0
M  V30 6763 N 635.401 -1.97827 6.63955 0
M  V30 6764 N 637.194 -1.77126 5.33463 0
M  V30 6765 H 629.345 0.360228 2.09323 0
M  V30 6766 H 631.608 0.0988128 0.942836 0
M  V30 6767 H 631.314 -0.226961 3.50967 0
M  V30 6768 H 631.188 -1.95411 3.22637 0
M  V30 6769 H 633.575 -1.92709 2.23489 0
M  V30 6770 H 633.656 -0.188041 2.55108 0
M  V30 6771 H 633.3 -0.646209 5.03772 0
M  V30 6772 H 633.23 -2.3923 4.69123 0
M  V30 6773 H 635.721 -1.34742 3.53062 0
M  V30 6774 H 636.034 -2.16223 7.41935 0
M  V30 6775 H 634.379 -1.95123 6.67047 0
M  V30 6776 H 637.57 -1.59005 4.40267 0
M  V30 6777 H 637.743 -1.96182 6.17589 0
M  V30 6778 N 631.149 -1.42148 -0.680565 0
M  V30 6779 C 632.059 -1.47565 -1.82378 0
M  V30 6780 C 633.075 -0.36489 -1.70131 0
M  V30 6781 O 634.251 -0.614916 -1.91783 0
M  V30 6782 C 631.316 -1.37013 -3.18478 0
M  V30 6783 C 630.377 -2.58532 -3.42724 0
M  V30 6784 C 629.61 -2.48473 -4.72331 0
M  V30 6785 O 629.833 -1.51745 -5.49845 0
M  V30 6786 O 628.767 -3.38503 -4.97694 0
M  V30 6787 H 632.593 -2.44045 -1.80764 0
M  V30 6788 H 630.178 -1.23849 -0.835569 0
M  V30 6789 H 632.06 -1.33468 -3.99705 0
M  V30 6790 H 630.735 -0.436552 -3.20743 0
M  V30 6791 H 629.642 -2.67652 -2.61368 0
M  V30 6792 H 630.975 -3.50769 -3.45286 0
M  V30 6793 N 632.627 0.916307 -1.28225 0
M  V30 6794 C 633.574 2.01841 -1.11932 0
M  V30 6795 C 634.544 1.66091 -0.0171604 0
M  V30 6796 O 635.729 1.89934 -0.181617 0
M  V30 6797 C 632.869 3.36065 -0.784504 0
M  V30 6798 C 631.982 3.847 -1.96544 0
M  V30 6799 C 631.117 5.07423 -1.57149 0
M  V30 6800 C 630.156 5.48384 -2.71922 0
M  V30 6801 N 629.293 6.62298 -2.33037 0
M  V30 6802 H 634.133 2.1511 -2.06232 0
M  V30 6803 H 631.67 1.05366 -1.02647 0
M  V30 6804 H 633.628 4.13272 -0.571148 0
M  V30 6805 H 632.258 3.22571 0.121565 0
M  V30 6806 H 631.31 3.03673 -2.291 0
M  V30 6807 H 632.622 4.1102 -2.82603 0
M  V30 6808 H 631.776 5.92165 -1.32004 0
M  V30 6809 H 630.515 4.82906 -0.682153 0
M  V30 6810 H 629.52 4.62184 -2.97768 0
M  V30 6811 H 630.745 5.7489 -3.61494 0
M  V30 6812 H 628.691 6.39416 -1.4657 0
M  V30 6813 H 628.608 6.8833 -3.12631 0
M  V30 6814 H 629.876 7.50352 -2.11169 0
M  V30 6815 N 634.105 1.10431 1.1244 0
M  V30 6816 C 635.038 0.696987 2.17296 0
M  V30 6817 C 636.016 -0.301673 1.59777 0
M  V30 6818 O 637.2 -0.200583 1.8743 0
M  V30 6819 C 634.327 0.0284094 3.38688 0
M  V30 6820 C 633.373 0.990536 4.14838 0
M  V30 6821 S 634.206 2.50785 4.73146 0
M  V30 6822 C 635.362 1.85198 5.97873 0
M  V30 6823 H 635.595 1.58523 2.51511 0
M  V30 6824 H 633.128 0.921312 1.239 0
M  V30 6825 H 635.086 -0.351009 4.08997 0
M  V30 6826 H 633.747 -0.836629 3.02753 0
M  V30 6827 H 632.94 0.469991 5.01804 0
M  V30 6828 H 632.542 1.31186 3.50237 0
M  V30 6829 H 634.834 1.18217 6.67106 0
M  V30 6830 H 635.777 2.7012 6.54554 0
M  V30 6831 H 636.185 1.31653 5.48933 0
M  V30 6832 N 635.583 -1.29855 0.893053 0
M  V30 6833 C 636.86 -1.90694 0.435336 0
M  V30 6834 C 637.24 -1.8111 -1.08454 0
M  V30 6835 O 636.588 -1.23352 -1.92345 0
M  V30 6836 C 636.798 -3.36033 0.942472 0
M  V30 6837 C 638.146 -4.13083 0.982226 0
M  V30 6838 O 639.17 -3.4491 0.889686 0
M  V30 6839 O 638.029 -5.34896 1.12022 0
M  V30 6840 H 635.123 -0.815978 0.134567 0
M  V30 6841 H 637.669 -1.38367 0.982484 0
M  V30 6842 H 636.441 -3.37132 1.9864 0
M  V30 6843 H 636.064 -3.95828 0.374952 0
M  V30 6844 N 637.061 -0.65484 -1.43351 0
M  V30 6845 C 638.307 -0.169142 -2.02093 0
M  V30 6846 C 638.64 1.21431 -1.51553 0
M  V30 6847 O 637.915 1.81105 -0.709317 0
M  V30 6848 C 638.198 -0.181775 -3.59641 0
M  V30 6849 C 638.051 -1.59926 -4.20409 0
M  V30 6850 C 639.37 0.480945 -4.37464 0
M  V30 6851 H 636.489 -0.0629371 -0.734308 0
M  V30 6852 H 639.131 -0.835833 -1.70628 0
M  V30 6853 H 637.281 0.385918 -3.86578 0
M  V30 6854 H 638.953 -2.21766 -4.04497 0
M  V30 6855 H 637.196 -2.14605 -3.76998 0
M  V30 6856 H 637.867 -1.55994 -5.295 0
M  V30 6857 H 640.343 -0.00208273 -4.161 0
M  V30 6858 H 639.219 0.441384 -5.47122 0
M  V30 6859 H 639.48 1.55533 -4.13838 0
M  V30 6860 N 638.539 1.52521 -0.396863 0
M  V30 6861 C 639.788 2.00857 0.184184 0
M  V30 6862 C 640.101 1.28733 1.47265 0
M  V30 6863 O 641.307 1.67821 2.13421 0
M  V30 6864 C 639.763 3.57901 0.378787 0
M  V30 6865 C 639.371 4.38931 -0.896873 0
M  V30 6866 C 641.115 4.14504 0.915789 0
M  V30 6867 C 639.022 5.87591 -0.670133 0
M  V30 6868 H 637.952 0.750496 0.0726055 0
M  V30 6869 H 640.603 1.75965 -0.520425 0
M  V30 6870 H 638.985 3.79072 1.14543 0
M  V30 6871 H 640.159 4.29524 -1.66872 0
M  V30 6872 H 638.474 3.93586 -1.35938 0
M  V30 6873 H 641.071 5.23236 1.10126 0
M  V30 6874 H 641.414 3.71076 1.88701 0
M  V30 6875 H 641.947 3.97253 0.208523 0
M  V30 6876 H 638.686 6.35355 -1.61257 0
M  V30 6877 H 638.206 5.99767 0.0626368 0
M  V30 6878 H 639.885 6.46268 -0.307577 0
M  V30 6879 N 640.017 0.126909 1.57088 0
M  V30 6880 C 641.294 -0.573152 1.87014 0
M  V30 6881 C 641.674 -1.84297 1.02945 0
M  V30 6882 O 641.022 -2.28232 0.110573 0
M  V30 6883 C 641.232 -0.857984 3.38289 0
M  V30 6884 C 642.58 -1.20759 4.07066 0
M  V30 6885 O 643.604 -0.947992 3.43353 0
M  V30 6886 O 642.463 -1.69516 5.19545 0
M  V30 6887 H 639.557 -0.290082 0.774456 0
M  V30 6888 H 642.103 0.162008 1.68925 0
M  V30 6889 H 640.875 0.0415286 3.91278 0
M  V30 6890 H 640.498 -1.64803 3.61837 0
M  V30 6891 N 641.495 -1.56914 -0.146875 0
M  V30 6892 C 642.425 -2.01308 -1.1831 0
M  V30 6893 C 643.406 -0.892664 -1.44795 0
M  V30 6894 O 644.591 -1.16048 -1.55713 0
M  V30 6895 C 641.721 -2.3938 -2.51624 0
M  V30 6896 C 640.675 -3.54608 -2.3966 0
M  V30 6897 C 640.001 -3.78493 -3.77686 0
M  V30 6898 C 641.301 -4.87269 -1.88058 0
M  V30 6899 H 642.995 -2.88123 -0.813964 0
M  V30 6900 H 640.541 -1.38615 -0.3901 0
M  V30 6901 H 642.494 -2.69037 -3.24341 0
M  V30 6902 H 641.218 -1.49502 -2.90373 0
M  V30 6903 H 639.877 -3.25116 -1.69396 0
M  V30 6904 H 639.525 -2.85866 -4.13871 0
M  V30 6905 H 639.225 -4.56039 -3.70543 0
M  V30 6906 H 640.749 -4.10576 -4.51951 0
M  V30 6907 H 642.163 -5.15644 -2.50568 0
M  V30 6908 H 640.56 -5.68622 -1.91805 0
M  V30 6909 H 641.63 -4.77634 -0.836277 0
M  V30 6910 N 642.974 0.416227 -1.52004 0
M  V30 6911 C 643.884 1.53147 -1.77717 0
M  V30 6912 C 644.9 1.609 -0.662368 0
M  V30 6913 O 646.076 1.77747 -0.946991 0
M  V30 6914 C 643.141 2.88948 -1.91598 0
M  V30 6915 C 642.202 2.9114 -3.15493 0
M  V30 6916 C 641.435 4.20464 -3.28703 0
M  V30 6917 O 641.658 5.13981 -2.47345 0
M  V30 6918 O 640.592 4.29368 -4.21813 0
M  V30 6919 H 644.418 1.34357 -2.72363 0
M  V30 6920 H 642.003 0.601373 -1.36762 0
M  V30 6921 H 643.885 3.69505 -2.02593 0
M  V30 6922 H 642.56 3.07821 -1.00141 0
M  V30 6923 H 641.467 2.09461 -3.09962 0
M  V30 6924 H 642.8 2.77216 -4.06709 0
M  V30 6925 N 644.452 1.42507 0.673017 0
M  V30 6926 C 645.729 1.33554 1.42908 0
M  V30 6927 C 646.109 -0.0262211 2.11084 0
M  V30 6928 O 645.457 -1.04181 2.03368 0
M  V30 6929 C 645.667 2.50498 2.43006 0
M  V30 6930 C 647.015 2.92694 3.07596 0
M  V30 6931 O 648.039 2.50401 2.53333 0
M  V30 6932 O 646.898 3.65899 4.05931 0
M  V30 6933 H 643.992 0.526785 0.637516 0
M  V30 6934 H 646.538 1.54518 0.701591 0
M  V30 6935 H 645.31 3.41272 1.9144 0
M  V30 6936 H 644.933 2.3153 3.23233 0
M  V30 6937 N 645.93 -0.909495 1.28709 0
M  V30 6938 C 646.84 -2.04558 1.14861 0
M  V30 6939 C 647.856 -1.73842 0.0741621 0
M  V30 6940 O 649.032 -1.99383 0.2843 0
M  V30 6941 C 646.097 -3.36957 0.816148 0
M  V30 6942 C 645.158 -3.81255 1.97341 0
M  V30 6943 C 644.391 -5.07335 1.65671 0
M  V30 6944 O 644.614 -5.67514 0.573053 0
M  V30 6945 O 643.548 -5.47449 2.50167 0
M  V30 6946 H 647.374 -2.19161 2.10243 0
M  V30 6947 H 644.959 -1.03159 1.08068 0
M  V30 6948 H 646.841 -4.16436 0.644873 0
M  V30 6949 H 645.516 -3.2352 -0.107983 0
M  V30 6950 H 644.423 -3.02584 2.19986 0
M  V30 6951 H 645.756 -3.99261 2.87839 0
M  V30 6952 N 647.408 -1.11026 -1.11852 0
M  V30 6953 C 648.657 -0.851249 -1.82857 0
M  V30 6954 C 648.97 0.62514 -1.85341 0
M  V30 6955 O 650.176 1.00026 -2.52403 0
M  V30 6956 C 648.632 -1.47309 -3.28372 0
M  V30 6957 C 648.24 -2.9832 -3.34229 0
M  V30 6958 C 649.984 -1.29373 -4.04306 0
M  V30 6959 C 647.891 -3.53509 -4.74115 0
M  V30 6960 H 646.821 -0.314794 -0.685143 0
M  V30 6961 H 649.472 -1.33499 -1.25898 0
M  V30 6962 H 647.854 -0.917017 -3.85236 0
M  V30 6963 H 649.028 -3.60295 -2.87271 0
M  V30 6964 H 647.343 -3.15482 -2.71772 0
M  V30 6965 H 649.94 -1.68042 -5.07608 0
M  V30 6966 H 650.283 -0.235879 -4.15631 0
M  V30 6967 H 650.816 -1.8182 -3.53817 0
M  V30 6968 H 647.555 -4.58987 -4.67986 0
M  V30 6969 H 647.075 -2.96305 -5.21501 0
M  V30 6970 H 648.754 -3.51693 -5.43066 0
M  V30 6971 N 648.886 1.2938 -0.899927 0
M  V30 6972 C 650.135 1.9483 -0.521937 0
M  V30 6973 C 650.448 1.71725 0.936473 0
M  V30 6974 O 651.654 2.31282 1.42199 0
M  V30 6975 C 650.11 3.48911 -0.88255 0
M  V30 6976 C 649.718 3.80815 -2.35974 0
M  V30 6977 C 651.462 4.20595 -0.57448 0
M  V30 6978 C 649.369 5.28142 -2.66121 0
M  V30 6979 H 648.299 0.729285 -0.191468 0
M  V30 6980 H 650.95 1.47103 -1.09695 0
M  V30 6981 H 649.332 3.95293 -0.236459 0
M  V30 6982 H 650.506 3.45291 -3.05141 0
M  V30 6983 H 648.821 3.22271 -2.63686 0
M  V30 6984 H 651.418 5.29031 -0.776556 0
M  V30 6985 H 651.761 4.13442 0.487005 0
M  V30 6986 H 652.294 3.79945 -1.17842 0
M  V30 6987 H 649.033 5.4036 -3.71068 0
M  V30 6988 H 648.553 5.64913 -2.01578 0
M  V30 6989 H 650.232 5.95738 -2.52399 0
M  V30 6990 N 650.364 0.662433 1.43002 0
M  V30 6991 C 651.641 0.109096 1.95296 0
M  V30 6992 C 652.021 -1.37313 1.60338 0
M  V30 6993 O 651.369 -2.1032 0.893187 0
M  V30 6994 C 651.579 0.365096 3.47085 0
M  V30 6995 C 652.927 0.274964 4.23709 0
M  V30 6996 O 653.951 0.29816 3.5495 0
M  V30 6997 O 652.81 0.206549 5.4611 0
M  V30 6998 H 649.904 -0.00429724 0.826989 0
M  V30 6999 H 652.45 0.736308 1.52894 0
M  V30 7000 H 651.222 1.39237 3.65689 0
M  V30 7001 H 650.845 -0.294733 3.96506 0
M  V30 7002 N 651.842 -1.52309 0.404946 0
M  V30 7003 C 652.789 -2.26898 -0.422597 0
M  V30 7004 C 653.759 -1.2914 -1.04461 0
M  V30 7005 O 654.944 -1.57996 -1.06967 0
M  V30 7006 C 652.084 -3.09053 -1.53559 0
M  V30 7007 C 651.197 -4.21762 -0.934908 0
M  V30 7008 C 650.332 -4.91283 -2.02025 0
M  V30 7009 C 649.371 -5.95962 -1.39628 0
M  V30 7010 N 648.508 -6.59017 -2.42159 0
M  V30 7011 H 653.348 -2.97188 0.219903 0
M  V30 7012 H 650.885 -1.46607 0.120282 0
M  V30 7013 H 652.843 -3.54987 -2.19181 0
M  V30 7014 H 651.473 -2.40942 -2.14818 0
M  V30 7015 H 650.525 -3.80029 -0.167854 0
M  V30 7016 H 651.837 -4.96864 -0.439073 0
M  V30 7017 H 650.991 -5.40601 -2.75383 0
M  V30 7018 H 649.73 -4.15741 -2.54973 0
M  V30 7019 H 648.735 -5.45968 -0.648023 0
M  V30 7020 H 649.96 -6.73445 -0.874553 0
M  V30 7021 H 647.906 -5.86306 -2.94247 0
M  V30 7022 H 647.823 -7.2978 -1.97376 0
M  V30 7023 H 649.091 -7.12974 -3.15099 0
M  V30 7024 N 653.32 -0.135238 -1.57019 0
M  V30 7025 C 654.23 0.822226 -2.19719 0
M  V30 7026 C 655.246 1.28057 -1.17802 0
M  V30 7027 O 656.422 1.3402 -1.50335 0
M  V30 7028 C 653.487 2.0484 -2.79717 0
M  V30 7029 C 652.548 1.64042 -3.96723 0
M  V30 7030 C 651.781 2.80814 -4.53849 0
M  V30 7031 O 652.004 3.967 -4.0986 0
M  V30 7032 O 650.938 2.56963 -5.44292 0
M  V30 7033 H 654.764 0.318552 -3.02025 0
M  V30 7034 H 652.349 0.0912021 -1.49121 0
M  V30 7035 H 654.231 2.76622 -3.17897 0
M  V30 7036 H 652.906 2.54182 -2.00432 0
M  V30 7037 H 651.813 0.893182 -3.63281 0
M  V30 7038 H 653.146 1.19426 -4.77492 0
M  V30 7039 N 654.798 1.5699 0.138552 0
M  V30 7040 C 656.044 1.84081 0.85099 0
M  V30 7041 C 656.377 0.718107 1.80435 0
M  V30 7042 O 655.652 -0.277633 1.92508 0
M  V30 7043 C 655.935 3.21699 1.61808 0
M  V30 7044 C 655.788 4.44544 0.685633 0
M  V30 7045 C 657.107 3.5664 2.57868 0
M  V30 7046 H 654.226 0.669592 0.307922 0
M  V30 7047 H 656.868 1.89646 0.11588 0
M  V30 7048 H 655.018 3.17086 2.24474 0
M  V30 7049 H 656.69 4.61248 0.0693179 0
M  V30 7050 H 654.933 4.338 -0.00421993 0
M  V30 7051 H 655.604 5.3746 1.25858 0
M  V30 7052 H 658.08 3.61918 2.05316 0
M  V30 7053 H 656.956 4.53946 3.08584 0
M  V30 7054 H 657.217 2.83036 3.39622 0
M  V30 7055 N 656.276 -0.40816 1.52223 0
M  V30 7056 C 657.206 -1.5042 1.78595 0
M  V30 7057 C 658.187 -1.57723 0.636974 0
M  V30 7058 O 659.372 -1.72982 0.882664 0
M  V30 7059 C 656.502 -2.88232 1.93751 0
M  V30 7060 C 655.456 -2.95779 3.09352 0
M  V30 7061 C 654.782 -4.35855 3.09732 0
M  V30 7062 C 656.082 -2.67175 4.48793 0
M  V30 7063 H 657.776 -1.28601 2.70374 0
M  V30 7064 H 655.322 -0.617221 1.30101 0
M  V30 7065 H 657.275 -3.64895 2.10783 0
M  V30 7066 H 655.999 -3.11347 0.986443 0
M  V30 7067 H 654.658 -2.21561 2.92072 0
M  V30 7068 H 654.306 -4.55981 2.12346 0
M  V30 7069 H 654.006 -4.41829 3.87377 0
M  V30 7070 H 655.53 -5.14451 3.28895 0
M  V30 7071 H 656.944 -3.3356 4.66273 0
M  V30 7072 H 655.341 -2.84523 5.28362 0
M  V30 7073 H 656.411 -1.62609 4.56822 0
M  V30 7074 N 657.755 -1.42862 -0.66545 0
M  V30 7075 C 658.665 -1.49491 -1.80803 0
M  V30 7076 C 659.681 -0.382914 -1.69734 0
M  V30 7077 O 660.857 -0.635223 -1.9112 0
M  V30 7078 C 657.922 -1.40383 -3.17007 0
M  V30 7079 C 656.983 -2.62152 -3.39963 0
M  V30 7080 C 656.216 -2.53469 -4.69669 0
M  V30 7081 O 656.439 -1.57568 -5.48205 0
M  V30 7082 O 655.373 -3.43763 -4.94075 0
M  V30 7083 H 659.199 -2.45949 -1.78165 0
M  V30 7084 H 656.784 -1.24728 -0.822387 0
M  V30 7085 H 658.666 -1.377 -3.98267 0
M  V30 7086 H 657.341 -0.470546 -3.20262 0
M  V30 7087 H 656.248 -2.70409 -2.58515 0
M  V30 7088 H 657.581 -3.54411 -3.41546 0
M  V30 7089 N 659.233 0.902656 -1.29189 0
M  V30 7090 C 660.458 1.69167 -1.19989 0
M  V30 7091 C 660.883 1.86607 0.236495 0
M  V30 7092 O 660.241 1.38425 1.17082 0
M  V30 7093 C 660.289 3.05532 -1.91527 0
M  V30 7094 O 659.393 3.93621 -1.2303 0
M  V30 7095 H 658.734 0.517584 -0.415936 0
M  V30 7096 H 661.264 1.12785 -1.70706 0
M  V30 7097 H 661.274 3.55693 -1.99866 0
M  V30 7098 H 659.949 2.92156 -2.96003 0
M  V30 7099 H 658.526 3.52055 -1.22928 0
M  V30 7100 N 660.711 1.11618 1.11262 0
M  V30 7101 C 661.644 0.719995 2.16544 0
M  V30 7102 C 662.622 -0.28471 1.60088 0
M  V30 7103 O 663.806 -0.180693 1.87632 0
M  V30 7104 C 660.933 0.0643302 3.38639 0
M  V30 7105 C 659.979 1.03448 4.13764 0
M  V30 7106 S 660.812 2.55789 4.70459 0
M  V30 7107 C 661.968 1.91529 5.95875 0
M  V30 7108 H 662.201 1.61181 2.49816 0
M  V30 7109 H 659.734 0.934401 1.22916 0
M  V30 7110 H 661.692 -0.307609 4.09346 0
M  V30 7111 H 660.353 -0.804471 3.03623 0
M  V30 7112 H 659.546 0.523188 5.01277 0
M  V30 7113 H 659.148 1.34893 3.48826 0
M  V30 7114 H 661.44 1.25286 6.65815 0
M  V30 7115 H 662.383 2.77047 6.51652 0
M  V30 7116 H 662.791 1.37468 5.47506 0
M  V30 7117 N 662.189 -1.289 0.906776 0
M  V30 7118 C 663.429 -1.97046 0.543329 0
M  V30 7119 C 663.793 -1.69862 -0.895034 0
M  V30 7120 O 664.994 -2.31521 -1.36571 0
M  V30 7121 C 663.265 -3.47489 0.835833 0
M  V30 7122 S 664.824 -4.3498 0.577756 0
M  V30 7123 H 661.642 -0.681908 0.201302 0
M  V30 7124 H 664.244 -1.5657 1.17073 0
M  V30 7125 H 662.948 -3.64768 1.88075 0
M  V30 7126 H 662.479 -3.92907 0.196817 0
M  V30 7127 H 664.494 -4.92868 -0.574052 0
M  V30 7128 N 663.667 -0.670007 -1.42649 0
M  V30 7129 C 664.913 -0.190568 -2.01903 0
M  V30 7130 C 665.246 1.19817 -1.52832 0
M  V30 7131 O 664.521 1.80342 -0.728485 0
M  V30 7132 C 664.804 -0.21991 -3.59428 0
M  V30 7133 C 664.657 -1.64376 -4.18689 0
M  V30 7134 C 665.976 0.434519 -4.3795 0
M  V30 7135 H 663.095 -0.0707219 -0.733599 0
M  V30 7136 H 665.737 -0.853883 -1.69732 0
M  V30 7137 H 663.887 0.344894 -3.86966 0
M  V30 7138 H 665.559 -2.26044 -4.02122 0
M  V30 7139 H 663.802 -2.18591 -3.747 0
M  V30 7140 H 664.473 -1.61601 -5.27815 0
M  V30 7141 H 666.949 -0.0462156 -4.16074 0
M  V30 7142 H 665.825 0.38333 -5.4756 0
M  V30 7143 H 666.086 1.51135 -4.15464 0
M  V30 7144 N 665.145 1.52092 -0.413018 0
M  V30 7145 C 666.373 2.06274 0.160881 0
M  V30 7146 C 666.788 1.28273 1.38533 0
M  V30 7147 O 666.145 0.33563 1.79387 0
M  V30 7148 C 666.196 3.57921 0.507443 0
M  V30 7149 O 665.917 4.32971 -0.668388 0
M  V30 7150 C 667.418 4.28533 1.13465 0
M  V30 7151 H 664.638 0.67074 0.0186759 0
M  V30 7152 H 667.182 1.95951 -0.585092 0
M  V30 7153 H 665.337 3.68238 1.20331 0
M  V30 7154 H 665.751 5.23135 -0.378169 0
M  V30 7155 H 667.225 5.35804 1.32732 0
M  V30 7156 H 667.702 3.85258 2.10886 0
M  V30 7157 H 668.308 4.22595 0.478876 0
M  V30 7158 N 666.623 0.143563 1.56945 0
M  V30 7159 C 667.555 -0.828353 2.13708 0
M  V30 7160 C 668.568 -1.21313 1.08568 0
M  V30 7161 O 669.757 -1.1578 1.35857 0
M  V30 7162 C 666.857 -2.12248 2.64204 0
M  V30 7163 C 666.03 -1.90561 3.93707 0
M  V30 7164 C 665.089 -3.03931 4.29549 0
M  V30 7165 O 664.115 -2.75772 4.97934 0
M  V30 7166 N 665.317 -4.31016 3.88852 0
M  V30 7167 H 668.082 -0.343242 2.97728 0
M  V30 7168 H 665.643 -0.0401152 1.6185 0
M  V30 7169 H 667.635 -2.87132 2.85197 0
M  V30 7170 H 666.205 -2.52033 1.84928 0
M  V30 7171 H 665.425 -0.997327 3.81375 0
M  V30 7172 H 666.713 -1.73405 4.78339 0
M  V30 7173 H 666.111 -4.56762 3.33743 0
M  V30 7174 H 664.668 -5.02691 4.14903 0
M  V30 7175 N 668.101 -1.57061 -0.130224 0
M  V30 7176 C 669.378 -1.75205 -0.869631 0
M  V30 7177 C 669.758 -0.716063 -1.98584 0
M  V30 7178 O 669.106 0.262032 -2.26993 0
M  V30 7179 C 669.316 -3.19835 -1.39666 0
M  V30 7180 C 670.664 -3.82011 -1.85345 0
M  V30 7181 O 671.688 -3.23368 -1.49371 0
M  V30 7182 O 670.547 -4.85064 -2.51744 0
M  V30 7183 H 667.641 -0.716977 -0.412157 0
M  V30 7184 H 670.187 -1.69311 -0.11484 0
M  V30 7185 H 668.959 -3.86745 -0.595288 0
M  V30 7186 H 668.582 -3.30222 -2.21448 0
M  V30 7187 N 669.579 0.400081 -1.52437 0
M  V30 7188 C 670.529 1.48734 -1.72807 0
M  V30 7189 C 671.513 1.50004 -0.582032 0
M  V30 7190 O 672.705 1.55828 -0.839449 0
M  V30 7191 C 669.834 2.86568 -1.89034 0
M  V30 7192 C 668.92 2.8991 -3.09537 0
M  V30 7193 N 669.311 2.62937 -4.32086 0
M  V30 7194 C 667.609 3.21078 -3.09556 0
M  V30 7195 C 668.31 2.73079 -5.13617 0
M  V30 7196 N 667.286 3.06342 -4.49061 0
M  V30 7197 H 671.088 1.26689 -2.65193 0
M  V30 7198 H 668.602 0.607902 -1.50593 0
M  V30 7199 H 670.599 3.64834 -2.01746 0
M  V30 7200 H 669.259 3.09604 -0.978547 0
M  V30 7201 H 670.27 2.37163 -4.60406 0
M  V30 7202 H 666.947 3.49651 -2.28146 0
M  V30 7203 H 668.337 2.55863 -6.21276 0
M  V30 7204 N 671.057 1.43213 0.657864 0
M  V30 7205 C 672.304 1.44584 1.41781 0
M  V30 7206 C 672.632 0.0684208 1.9438 0
M  V30 7207 O 671.887 -0.925872 1.72413 0
M  V30 7208 C 672.186 2.43143 2.61947 0
M  V30 7209 C 671.852 3.89128 2.27794 0
M  V30 7210 C 670.514 4.28889 2.18191 0
M  V30 7211 C 672.866 4.81144 2.00375 0
M  V30 7212 C 670.194 5.58625 1.79319 0
M  V30 7213 C 672.546 6.11239 1.63003 0
M  V30 7214 C 671.21 6.49981 1.51922 0
M  V30 7215 H 670.48 0.529069 0.518813 0
M  V30 7216 H 673.127 1.76263 0.748577 0
M  V30 7217 H 671.432 2.04851 3.33981 0
M  V30 7218 H 673.129 2.4146 3.20153 0
M  V30 7219 H 669.719 3.57657 2.36176 0
M  V30 7220 H 673.903 4.512 2.06718 0
M  V30 7221 H 669.159 5.87486 1.69323 0
M  V30 7222 H 673.333 6.82014 1.40817 0
M  V30 7223 H 670.96 7.50416 1.21572 0
M  V30 7224 N 672.536 -0.895792 1.29666 0
M  V30 7225 C 673.484 -2.02173 1.15017 0
M  V30 7226 C 674.478 -1.69276 0.0647651 0
M  V30 7227 O 675.684 -1.7859 0.224846 0
M  V30 7228 H 672.059 -0.662719 0.355397 0
M  V30 7229 H 674.03 -2.11666 2.10334 0
M  V30 7230 C 672.779 -3.37212 0.847555 0
M  V30 7231 H 672.102 -3.6303 1.67479 0
M  V30 7232 H 673.542 -4.16668 0.785106 0
M  V30 7233 C 672.001 -3.33891 -0.44929 0
M  V30 7234 O 672.531 -3.73673 -1.47415 0
M  V30 7235 N 670.737 -2.86991 -0.456547 0
M  V30 7236 H 670.284 -2.54813 0.377925 0
M  V30 7237 H 670.242 -2.85152 -1.32423 0
M  V30 7238 N 674.014 -1.12206 -1.10668 0
M  V30 7239 C 674.947 -0.731468 -2.16159 0
M  V30 7240 C 675.925 0.276216 -1.60237 0
M  V30 7241 O 677.109 0.17074 -1.87725 0
M  V30 7242 C 674.236 -0.0822882 -3.386 0
M  V30 7243 C 673.282 -1.05641 -4.1321 0
M  V30 7244 S 674.115 -2.58281 -4.69096 0
M  V30 7245 C 675.271 -1.94686 -5.94851 0
M  V30 7246 H 675.504 -1.62504 -2.48957 0
M  V30 7247 H 673.037 -0.940906 -1.22419 0
M  V30 7248 H 674.995 0.285896 -4.09503 0
M  V30 7249 H 673.656 0.788358 -3.04046 0
M  V30 7250 H 672.849 -0.549764 -5.00993 0
M  V30 7251 H 672.451 -1.36741 -3.48106 0
M  V30 7252 H 674.743 -1.28815 -6.65141 0
M  V30 7253 H 675.686 -2.80499 -6.50174 0
M  V30 7254 H 676.094 -1.40369 -5.46769 0
M  V30 7255 N 675.492 1.28418 -0.913599 0
M  V30 7256 C 676.455 2.25564 -0.406624 0
M  V30 7257 C 677.455 1.5387 0.466965 0
M  V30 7258 O 678.645 1.72094 0.270042 0
M  V30 7259 C 675.777 3.38339 0.417053 0
M  V30 7260 H 676.97 2.71926 -1.26477 0
M  V30 7261 H 674.523 1.40098 -0.692986 0
M  V30 7262 H 675.258 2.97339 1.29461 0
M  V30 7263 H 675.043 3.91542 -0.209102 0
M  V30 7264 H 676.533 4.10578 0.762602 0
M  V30 7265 N 676.97 0.677563 1.42291 0
M  V30 7266 C 677.9 0.014968 2.33495 0
M  V30 7267 C 678.881 -0.786376 1.50831 0
M  V30 7268 O 680.066 -0.742975 1.79426 0
M  V30 7269 C 677.196 -0.935023 3.34477 0
M  V30 7270 C 676.15 -0.242074 4.27315 0
M  V30 7271 C 675.476 -1.30519 5.18526 0
M  V30 7272 C 676.776 0.880604 5.14823 0
M  V30 7273 H 678.47 0.776671 2.89151 0
M  V30 7274 H 676.016 0.37494 1.39033 0
M  V30 7275 H 677.969 -1.40766 3.97194 0
M  V30 7276 H 676.693 -1.72818 2.77131 0
M  V30 7277 H 675.352 0.210351 3.65996 0
M  V30 7278 H 675 -2.09041 4.57505 0
M  V30 7279 H 674.7 -0.846652 5.81468 0
M  V30 7280 H 676.224 -1.7787 5.84119 0
M  V30 7281 H 677.638 0.489062 5.7121 0
M  V30 7282 H 676.035 1.26511 5.86613 0
M  V30 7283 H 677.105 1.72818 4.53059 0
M  V30 7284 N 678.448 -1.51871 0.421078 0
M  V30 7285 C 679.696 -2.01539 -0.150492 0
M  V30 7286 C 680.017 -1.30803 -1.44623 0
M  V30 7287 O 679.287 -0.437568 -1.90951 0
M  V30 7288 H 677.867 -0.744698 -0.0586041 0
M  V30 7289 H 680.529 -1.8668 0.560059 0
M  V30 7290 H 679.625 -3.10264 -0.338068 0
M  V30 7291 N 679.926 -0.151884 -1.56866 0
M  V30 7292 C 681.154 0.504813 -2.00647 0
M  V30 7293 C 681.569 1.58098 -1.03201 0
M  V30 7294 O 680.926 1.82476 -0.0297814 0
M  V30 7295 C 680.977 1.10099 -3.44326 0
M  V30 7296 O 680.698 0.0678021 -4.38048 0
M  V30 7297 C 682.199 1.83782 -4.03409 0
M  V30 7298 H 679.419 0.130989 -0.65809 0
M  V30 7299 H 681.963 -0.247903 -2.02992 0
M  V30 7300 H 680.118 1.8043 -3.42817 0
M  V30 7301 H 680.532 0.505237 -5.22061 0
M  V30 7302 H 682.006 2.2078 -5.05925 0
M  V30 7303 H 682.483 2.72557 -3.44397 0
M  V30 7304 H 683.089 1.18138 -4.08563 0
M  V30 7305 N 681.404 1.57128 0.121893 0
M  V30 7306 C 682.644 1.86517 0.836113 0
M  V30 7307 C 683.008 0.739497 1.77188 0
M  V30 7308 O 684.209 0.91508 2.52744 0
M  V30 7309 C 682.48 3.21129 1.56878 0
M  V30 7310 S 684.039 3.72143 2.32497 0
M  V30 7311 H 680.857 0.653923 0.279115 0
M  V30 7312 H 683.459 1.95271 0.0946254 0
M  V30 7313 H 682.163 4.01002 0.873255 0
M  V30 7314 H 681.694 3.15446 2.35069 0
M  V30 7315 H 683.709 3.43413 3.58164 0
M  V30 7316 N 682.882 -0.391992 1.52647 0
M  V30 7317 C 683.83 -1.4991 1.77848 0
M  V30 7318 C 684.824 -1.56587 0.646282 0
M  V30 7319 O 686.03 -1.59789 0.828698 0
M  V30 7320 H 682.405 -0.498883 0.56269 0
M  V30 7321 H 684.376 -1.25847 2.70564 0
M  V30 7322 C 683.125 -2.87081 1.96163 0
M  V30 7323 H 682.448 -2.82692 2.82711 0
M  V30 7324 H 683.888 -3.63792 2.17787 0
M  V30 7325 C 682.347 -3.28822 0.733348 0
M  V30 7326 O 682.877 -4.01598 -0.0906481 0
M  V30 7327 N 681.083 -2.85068 0.564317 0
M  V30 7328 H 680.63 -2.26012 1.23598 0
M  V30 7329 H 680.588 -3.13355 -0.256166 0
M  V30 7330 N 684.36 -1.4356 -0.65026 0
M  V30 7331 C 685.771 -1.40324 -1.2315 0
M  V30 7332 C 686.122 -0.108812 -1.95898 0
M  V30 7333 O 685.247 0.79163 -2.01401 0
M  V30 7334 C 685.842 -2.54195 -2.23987 0
M  V30 7335 C 684.401 -2.54215 -2.77582 0
M  V30 7336 C 683.548 -2.31752 -1.5227 0
M  V30 7337 H 686.499 -1.52418 -0.442095 0
M  V30 7338 H 686.52 -2.25854 -3.0622 0
M  V30 7339 H 686.032 -3.48392 -1.71011 0
M  V30 7340 H 684.133 -1.63907 -3.34612 0
M  V30 7341 H 684.246 -3.52081 -3.24925 0
M  V30 7342 H 682.61 -1.80476 -1.79723 0
M  V30 7343 H 683.393 -3.28037 -1.01225 0
M  V30 7344 N 685.838 0.888903 -1.30139 0
M  V30 7345 C 687.063 1.67884 -1.21777 0
M  V30 7346 C 687.488 1.86848 0.216689 0
M  V30 7347 O 686.846 1.39659 1.15608 0
M  V30 7348 C 686.894 3.03483 -1.94757 0
M  V30 7349 O 685.998 3.92294 -1.27198 0
M  V30 7350 H 685.339 0.513144 -0.421402 0
M  V30 7351 H 687.869 1.10968 -1.71893 0
M  V30 7352 H 687.879 3.53553 -2.03627 0
M  V30 7353 H 686.554 2.89 -2.99085 0
M  V30 7354 H 685.131 3.50732 -1.26655 0
M  V30 7355 N 687.317 1.12792 1.10072 0
M  V30 7356 C 688.542 0.908838 1.86427 0
M  V30 7357 C 688.967 -0.536793 1.80278 0
M  V30 7358 O 688.325 -1.38033 1.17543 0
M  V30 7359 C 688.373 1.39295 3.3261 0
M  V30 7360 O 687.477 0.573846 4.08388 0
M  V30 7361 H 686.818 0.326234 0.578331 0
M  V30 7362 H 689.348 1.50094 1.39043 0
M  V30 7363 H 689.358 1.39366 3.83459 0
M  V30 7364 H 688.033 2.44555 3.36401 0
M  V30 7365 H 686.61 0.640438 3.67359 0
M  V30 7366 N 688.795 -1.27931 0.920396 0
M  V30 7367 C 689.725 -2.29487 0.431024 0
M  V30 7368 C 690.706 -1.62435 -0.504861 0
M  V30 7369 O 691.891 -1.89797 -0.411176 0
M  V30 7370 C 689.021 -3.45788 -0.323709 0
M  V30 7371 C 687.975 -4.24784 0.523658 0
M  V30 7372 C 687.301 -5.33488 -0.359809 0
M  V30 7373 C 688.601 -4.90874 1.78437 0
M  V30 7374 H 690.295 -2.70671 1.27975 0
M  V30 7375 H 687.841 -1.30121 0.616813 0
M  V30 7376 H 689.794 -4.15927 -0.676952 0
M  V30 7377 H 688.518 -3.03502 -1.2064 0
M  V30 7378 H 687.177 -3.56382 0.85951 0
M  V30 7379 H 686.825 -4.87445 -1.24124 0
M  V30 7380 H 686.525 -5.87247 0.203605 0
M  V30 7381 H 688.049 -6.06472 -0.708787 0
M  V30 7382 H 689.463 -5.53339 1.49963 0
M  V30 7383 H 687.86 -5.54659 2.29071 0
M  V30 7384 H 688.93 -4.14988 2.50824 0
M  V30 7385 N 690.273 -0.685099 -1.4193 0
M  V30 7386 C 691.689 -0.355632 -1.55587 0
M  V30 7387 C 691.889 1.13823 -1.66273 0
M  V30 7388 O 690.945 1.92387 -1.63534 0
M  V30 7389 C 692.258 -1.09498 -2.80055 0
M  V30 7390 C 693.806 -1.07831 -2.93839 0
M  V30 7391 C 694.281 -1.79919 -4.21181 0
M  V30 7392 N 695.772 -1.76837 -4.28115 0
M  V30 7393 C 696.507 -2.29463 -5.25485 0
M  V30 7394 N 696.003 -2.90516 -6.28945 0
M  V30 7395 N 697.796 -2.19779 -5.17353 0
M  V30 7396 H 689.947 -1.65412 -1.33239 0
M  V30 7397 H 692.21 -0.697453 -0.642078 0
M  V30 7398 H 691.916 -2.14997 -2.78333 0
M  V30 7399 H 691.79 -0.666813 -3.71259 0
M  V30 7400 H 694.177 -0.0316152 -2.95083 0
M  V30 7401 H 694.258 -1.54545 -2.03837 0
M  V30 7402 H 693.902 -2.84562 -4.20698 0
M  V30 7403 H 693.832 -1.30647 -5.10136 0
M  V30 7404 H 696.323 -1.32315 -3.53979 0
M  V30 7405 H 696.636 -3.28266 -6.99615 0
M  V30 7406 H 694.981 -2.94589 -6.29478 0
M  V30 7407 H 698.172 -1.71763 -4.35448 0
M  V30 7408 H 698.345 -2.61097 -5.9307 0
M  V30 7409 N 691.751 1.51645 -0.429126 0
M  V30 7410 C 692.661 2.31288 0.392809 0
M  V30 7411 C 693.677 1.39852 1.03525 0
M  V30 7412 O 694.853 1.72926 1.03241 0
M  V30 7413 C 691.918 3.13347 1.48372 0
M  V30 7414 C 690.979 4.20551 0.862268 0
M  V30 7415 C 690.212 4.98688 1.9012 0
M  V30 7416 O 690.435 4.77359 3.12225 0
M  V30 7417 O 689.369 5.83005 1.4963 0
M  V30 7418 H 693.195 3.02609 -0.257138 0
M  V30 7419 H 690.78 1.48163 -0.191851 0
M  V30 7420 H 692.662 3.64387 2.1166 0
M  V30 7421 H 691.337 2.44799 2.1179 0
M  V30 7422 H 690.244 3.73609 0.191568 0
M  V30 7423 H 691.577 4.91449 0.271704 0
M  V30 7424 N 693.229 0.160201 1.56784 0
M  V30 7425 C 694.457 -0.494165 2.00912 0
M  V30 7426 C 694.872 -1.57548 1.04038 0
M  V30 7427 O 694.229 -1.82457 0.0394581 0
M  V30 7428 C 694.28 -1.08271 3.44905 0
M  V30 7429 O 694.001 -0.0445704 4.38077 0
M  V30 7430 C 695.502 -1.8164 4.04378 0
M  V30 7431 H 692.722 -0.127498 0.658776 0
M  V30 7432 H 695.266 0.258665 2.02858 0
M  V30 7433 H 693.421 -1.78609 3.4377 0
M  V30 7434 H 693.835 -0.477544 5.22322 0
M  V30 7435 H 695.309 -2.18094 5.07089 0
M  V30 7436 H 695.786 -2.70727 3.45838 0
M  V30 7437 H 696.392 -1.15969 4.09184 0
M  V30 7438 N 694.707 -1.5719 -0.113559 0
M  V30 7439 C 695.953 -1.85412 -0.821597 0
M  V30 7440 C 696.286 -0.746722 -1.7927 0
M  V30 7441 O 695.561 0.246971 -1.92926 0
M  V30 7442 C 695.844 -3.24233 -1.56669 0
M  V30 7443 C 695.697 -4.45578 -0.614823 0
M  V30 7444 C 697.016 -3.60697 -2.52161 0
M  V30 7445 H 694.135 -0.674406 -0.29723 0
M  V30 7446 H 696.777 -1.89807 -0.085694 0
M  V30 7447 H 694.927 -3.20617 -2.19401 0
M  V30 7448 H 696.599 -4.613 0.00407137 0
M  V30 7449 H 694.842 -4.33738 0.0732332 0
M  V30 7450 H 695.513 -5.39395 -1.17292 0
M  V30 7451 H 697.989 -3.65139 -1.99532 0
M  V30 7452 H 696.865 -4.58798 -3.01323 0
M  V30 7453 H 697.126 -2.88403 -3.35076 0
M  V30 7454 N 696.185 0.383891 -1.52853 0
M  V30 7455 C 697.431 1.13009 -1.68395 0
M  V30 7456 C 697.764 1.89488 -0.425195 0
M  V30 7457 O 697.039 1.8574 0.577136 0
M  V30 7458 C 697.322 2.10419 -2.92226 0
M  V30 7459 C 697.175 1.3767 -4.28214 0
M  V30 7460 C 698.494 3.10781 -3.11614 0
M  V30 7461 H 695.613 0.409463 -0.612788 0
M  V30 7462 H 698.255 0.412895 -1.85459 0
M  V30 7463 H 696.405 2.71579 -2.77808 0
M  V30 7464 H 698.077 0.794352 -4.54409 0
M  V30 7465 H 696.32 0.678533 -4.2846 0
M  V30 7466 H 696.991 2.08874 -5.10956 0
M  V30 7467 H 699.467 2.59715 -3.25096 0
M  V30 7468 H 698.343 3.76179 -3.99725 0
M  V30 7469 H 698.604 3.79933 -2.2606 0
M  V30 7470 N 697.663 1.43903 0.642637 0
M  V30 7471 C 698.573 1.52349 1.78401 0
M  V30 7472 C 699.589 0.409869 1.69104 0
M  V30 7473 O 700.765 0.665548 1.90085 0
M  V30 7474 C 697.83 1.45408 3.14734 0
M  V30 7475 C 696.891 2.67528 3.35749 0
M  V30 7476 C 696.124 2.60909 4.65577 0
M  V30 7477 O 696.347 1.6627 5.45628 0
M  V30 7478 O 695.281 3.5158 4.88544 0
M  V30 7479 H 699.107 2.48752 1.7423 0
M  V30 7480 H 696.692 1.26021 0.802439 0
M  V30 7481 H 698.574 1.44019 3.96026 0
M  V30 7482 H 697.249 0.521437 3.19473 0
M  V30 7483 H 696.156 2.74487 2.5418 0
M  V30 7484 H 697.489 3.598 3.35864 0
M  V30 7485 N 699.141 -0.881989 1.30609 0
M  V30 7486 C 700.387 -1.63647 1.19781 0
M  V30 7487 C 700.72 -1.92632 -0.246265 0
M  V30 7488 O 699.995 -1.54938 -1.17577 0
M  V30 7489 C 700.278 -2.97437 2.02985 0
M  V30 7490 C 700.131 -2.75406 3.55628 0
M  V30 7491 C 701.45 -3.98397 1.86997 0
M  V30 7492 H 698.569 -0.593841 0.436488 0
M  V30 7493 H 701.211 -1.02041 1.60273 0
M  V30 7494 H 699.361 -3.50018 1.68581 0
M  V30 7495 H 701.033 -2.2959 4.00107 0
M  V30 7496 H 699.276 -2.09856 3.79662 0
M  V30 7497 H 699.947 -3.70552 4.09139 0
M  V30 7498 H 702.423 -3.54986 2.17081 0
M  V30 7499 H 701.299 -4.89916 2.47536 0
M  V30 7500 H 701.56 -4.3424 0.829943 0
M  V30 7501 N 700.619 -1.13374 -1.09472 0
M  V30 7502 C 702.03 -0.90801 -1.63132 0
M  V30 7503 C 702.381 0.555576 -1.8817 0
M  V30 7504 O 701.506 1.42218 -1.63104 0
M  V30 7505 C 702.101 -1.64182 -2.96361 0
M  V30 7506 C 700.66 -1.46197 -3.46848 0
M  V30 7507 C 699.807 -1.67134 -2.21273 0
M  V30 7508 H 702.758 -1.2871 -0.928411 0
M  V30 7509 H 702.779 -1.09863 -3.64294 0
M  V30 7510 H 702.291 -2.707 -2.78106 0
M  V30 7511 H 700.392 -0.419788 -3.70228 0
M  V30 7512 H 700.505 -2.22472 -4.24315 0
M  V30 7513 H 698.869 -1.09616 -2.29905 0
M  V30 7514 H 699.652 -2.74971 -2.05538 0
M  V30 7515 N 702.098 1.27442 -0.927168 0
M  V30 7516 C 703.046 2.28844 -0.416333 0
M  V30 7517 C 704.04 1.61882 0.499057 0
M  V30 7518 O 705.246 1.75969 0.378817 0
M  V30 7519 H 701.621 0.742989 -0.116065 0
M  V30 7520 H 703.592 2.69344 -1.28438 0
M  V30 7521 C 702.341 3.4626 0.316107 0
M  V30 7522 H 701.664 3.97999 -0.379082 0
M  V30 7523 H 703.104 4.19173 0.637975 0
M  V30 7524 C 701.563 3.00211 1.5289 0
M  V30 7525 O 702.093 3.03837 2.62766 0
M  V30 7526 N 700.299 2.55713 1.38054 0
M  V30 7527 H 699.846 2.52962 0.4866 0
M  V30 7528 H 699.804 2.25264 2.19325 0
M  V30 7529 N 703.576 0.692616 1.41565 0
M  V30 7530 C 704.822 0.222664 2.01574 0
M  V30 7531 C 705.155 -1.1737 1.54719 0
M  V30 7532 O 704.43 -1.79161 0.757084 0
M  V30 7533 C 704.713 0.277064 3.59033 0
M  V30 7534 C 704.566 1.71016 4.16021 0
M  V30 7535 C 705.885 -0.36479 4.38586 0
M  V30 7536 H 703.004 0.0823839 0.732381 0
M  V30 7537 H 705.646 0.880778 1.68352 0
M  V30 7538 H 703.796 -0.283288 3.87466 0
M  V30 7539 H 705.468 2.32413 3.98475 0
M  V30 7540 H 703.711 2.24525 3.71175 0
M  V30 7541 H 704.382 1.69978 5.25178 0
M  V30 7542 H 706.858 0.112404 4.15948 0
M  V30 7543 H 705.734 -0.296169 5.481 0
M  V30 7544 H 705.995 -1.44506 4.17816 0
M  V30 7545 N 705.054 -1.51416 0.437162 0
M  V30 7546 C 706.001 -2.27743 -0.374374 0
M  V30 7547 C 706.971 -1.31327 -1.01698 0
M  V30 7548 O 708.156 -1.60229 -1.03592 0
M  V30 7549 C 705.296 -3.12241 -1.46969 0
M  V30 7550 C 704.409 -4.23651 -0.845236 0
M  V30 7551 C 703.544 -4.95458 -1.91559 0
M  V30 7552 C 702.583 -5.98789 -1.26956 0
M  V30 7553 N 701.72 -6.64005 -2.28126 0
M  V30 7554 H 706.56 -2.96654 0.282892 0
M  V30 7555 H 704.097 -1.46319 0.151352 0
M  V30 7556 H 706.055 -3.59556 -2.11602 0
M  V30 7557 H 704.685 -2.45445 -2.09659 0
M  V30 7558 H 703.737 -3.803 -0.0872059 0
M  V30 7559 H 705.049 -4.97683 -0.333582 0
M  V30 7560 H 704.203 -5.46321 -2.63854 0
M  V30 7561 H 702.942 -4.21055 -2.46097 0
M  V30 7562 H 701.947 -5.47219 -0.53207 0
M  V30 7563 H 703.172 -6.75149 -0.731509 0
M  V30 7564 H 701.118 -5.92415 -2.81745 0
M  V30 7565 H 701.035 -7.33802 -1.81852 0
M  V30 7566 H 702.303 -7.19498 -2.99905 0
M  V30 7567 N 706.532 -0.168513 -1.56696 0
M  V30 7568 C 707.778 0.471368 -1.97863 0
M  V30 7569 C 708.133 1.61049 -1.05267 0
M  V30 7570 O 707.426 1.9138 -0.0917908 0
M  V30 7571 C 707.62 1.00441 -3.42996 0
M  V30 7572 C 707.449 -0.081524 -4.49626 0
M  V30 7573 C 706.219 -0.530242 -5.0251 0
M  V30 7574 C 708.417 -0.880897 -5.067 0
M  V30 7575 N 706.399 -1.59678 -5.9277 0
M  V30 7576 C 707.77 -1.79742 -5.93374 0
M  V30 7577 C 709.825 -0.92629 -4.89208 0
M  V30 7578 C 708.528 -2.7555 -6.64428 0
M  V30 7579 C 710.554 -1.8723 -5.6098 0
M  V30 7580 C 709.916 -2.77631 -6.4738 0
M  V30 7581 H 706.015 0.140671 -0.769244 0
M  V30 7582 H 708.599 -0.268084 -1.92846 0
M  V30 7583 H 706.77 1.71339 -3.48565 0
M  V30 7584 H 708.502 1.61269 -3.7118 0
M  V30 7585 H 705.257 -0.12847 -4.73426 0
M  V30 7586 H 705.681 -2.13045 -6.42605 0
M  V30 7587 H 710.323 -0.241412 -4.2211 0
M  V30 7588 H 708.041 -3.45027 -7.30741 0
M  V30 7589 H 711.627 -1.91349 -5.49433 0
M  V30 7590 H 710.507 -3.4964 -7.01941 0
M  V30 7591 N 708.01 1.57248 0.105221 0
M  V30 7592 C 709.287 1.76566 0.841647 0
M  V30 7593 C 709.667 0.747566 1.9742 0
M  V30 7594 O 709.015 -0.225886 2.27381 0
M  V30 7595 C 709.225 3.22016 1.3456 0
M  V30 7596 C 710.573 3.84911 1.79244 0
M  V30 7597 O 711.597 3.25703 1.44207 0
M  V30 7598 O 710.456 4.89008 2.43995 0
M  V30 7599 H 707.55 0.723443 0.400698 0
M  V30 7600 H 710.096 1.69472 0.0878893 0
M  V30 7601 H 708.868 3.87644 0.533685 0
M  V30 7602 H 708.491 3.33703 2.16167 0
M  V30 7603 N 709.488 -0.375779 1.53054 0
M  V30 7604 C 710.765 -1.13453 1.59336 0
M  V30 7605 C 711.145 -2.07379 0.394614 0
M  V30 7606 O 710.493 -2.2004 -0.616 0
M  V30 7607 C 710.703 -1.8826 2.93869 0
M  V30 7608 C 712.051 -2.43155 3.48081 0
M  V30 7609 O 713.075 -1.984 2.95831 0
M  V30 7610 O 711.934 -3.24944 4.39401 0
M  V30 7611 H 709.028 -0.519856 0.643179 0
M  V30 7612 H 711.574 -0.379865 1.65394 0
M  V30 7613 H 710.346 -1.19652 3.72558 0
M  V30 7614 H 709.969 -2.70658 2.91256 0
M  V30 7615 N 710.966 -1.44241 -0.634997 0
M  V30 7616 C 712.215 -1.46102 -1.39058 0
M  V30 7617 C 712.528 -0.0959909 -1.95364 0
M  V30 7618 O 713.734 0.00788751 -2.71499 0
M  V30 7619 C 712.19 -2.57195 -2.51751 0
M  V30 7620 C 711.798 -3.99888 -2.01974 0
M  V30 7621 C 713.542 -2.68272 -3.28984 0
M  V30 7622 C 711.449 -5.02412 -3.11987 0
M  V30 7623 H 710.379 -0.543556 -0.522554 0
M  V30 7624 H 713.03 -1.70294 -0.683538 0
M  V30 7625 H 711.412 -2.26237 -3.25012 0
M  V30 7626 H 712.586 -4.40396 -1.35604 0
M  V30 7627 H 710.901 -3.93019 -1.37568 0
M  V30 7628 H 713.498 -3.42042 -4.10988 0
M  V30 7629 H 713.841 -1.73957 -3.78212 0
M  V30 7630 H 714.374 -2.98622 -2.62812 0
M  V30 7631 H 711.113 -5.98342 -2.67707 0
M  V30 7632 H 710.633 -4.66501 -3.77011 0
M  V30 7633 H 712.312 -5.25939 -3.76825 0
M  V30 7634 N 712.444 0.87505 -1.31075 0
M  V30 7635 C 713.692 1.62447 -1.20231 0
M  V30 7636 C 714.013 1.93506 0.240888 0
M  V30 7637 O 713.283 1.57847 1.16022 0
M  V30 7638 H 711.863 0.602207 -0.441991 0
M  V30 7639 H 714.525 1.04788 -1.64334 0
M  V30 7640 H 713.621 2.57031 -1.77036 0
M  V30 7641 N 713.922 1.13953 1.08869 0
M  V30 7642 C 715.17 0.903023 1.80803 0
M  V30 7643 C 715.491 -0.572151 1.86417 0
M  V30 7644 O 714.761 -1.41589 1.35386 0
M  V30 7645 H 713.341 0.331099 0.669614 0
M  V30 7646 H 716.003 1.43719 1.31647 0
M  V30 7647 H 715.099 1.29881 2.83791 0
M  V30 7648 N 715.4 -1.26948 0.933913 0
M  V30 7649 C 716.33 -2.29017 0.45534 0
M  V30 7650 C 717.311 -1.62961 -0.487605 0
M  V30 7651 O 718.496 -1.90223 -0.391022 0
M  V30 7652 C 715.626 -3.46112 -0.287015 0
M  V30 7653 C 714.58 -4.24205 0.568682 0
M  V30 7654 C 713.906 -5.3384 -0.303206 0
M  V30 7655 C 715.206 -4.88954 1.83633 0
M  V30 7656 H 716.9 -2.69298 1.30839 0
M  V30 7657 H 714.446 -1.29459 0.630579 0
M  V30 7658 H 716.399 -4.16622 -0.6328 0
M  V30 7659 H 715.123 -3.04765 -1.17414 0
M  V30 7660 H 713.782 -3.5545 0.897261 0
M  V30 7661 H 713.43 -4.88734 -1.18947 0
M  V30 7662 H 713.13 -5.86998 0.265879 0
M  V30 7663 H 714.654 -6.0719 -0.644423 0
M  V30 7664 H 716.068 -5.51717 1.55823 0
M  V30 7665 H 714.465 -5.52198 2.34941 0
M  V30 7666 H 715.535 -4.12305 2.55211 0
M  V30 7667 N 716.879 -0.700114 -1.41195 0
M  V30 7668 C 718.156 -0.160836 -1.94938 0
M  V30 7669 C 718.536 1.33014 -1.63922 0
M  V30 7670 O 717.884 2.07878 -0.948636 0
M  V30 7671 C 718.094 -0.456991 -3.45995 0
M  V30 7672 C 719.442 -0.387207 -4.22831 0
M  V30 7673 O 720.466 -0.392164 -3.54035 0
M  V30 7674 O 719.325 -0.351267 -5.4537 0
M  V30 7675 H 716.419 -0.0176304 -0.826812 0
M  V30 7676 H 718.965 -0.776586 -1.50888 0
M  V30 7677 H 717.737 -1.48884 -3.61869 0
M  V30 7678 H 717.36 0.189503 -3.97148 0
M  V30 7679 N 718.357 1.51182 -0.445186 0
M  V30 7680 C 719.267 2.31692 0.368255 0
M  V30 7681 C 720.283 1.40942 1.02036 0
M  V30 7682 O 721.459 1.74011 1.01401 0
M  V30 7683 C 718.524 3.14903 1.45041 0
M  V30 7684 C 717.585 4.21442 0.817615 0
M  V30 7685 C 716.818 5.00677 1.8482 0
M  V30 7686 O 717.041 4.80644 3.07145 0
M  V30 7687 O 715.975 5.84559 1.43438 0
M  V30 7688 H 719.801 3.0232 -0.289219 0
M  V30 7689 H 717.386 1.47951 -0.207555 0
M  V30 7690 H 719.268 3.66612 2.07783 0
M  V30 7691 H 717.943 2.47031 2.09182 0
M  V30 7692 H 716.85 3.73791 0.151931 0
M  V30 7693 H 718.183 4.9171 0.219564 0
M  V30 7694 N 719.835 0.176821 1.56605 0
M  V30 7695 C 721.081 -0.467406 1.9734 0
M  V30 7696 C 721.414 -1.62523 1.06301 0
M  V30 7697 O 720.689 -1.94182 0.11125 0
M  V30 7698 C 720.972 -0.945106 3.47476 0
M  V30 7699 C 720.825 0.213273 4.49294 0
M  V30 7700 C 722.144 -1.8169 4.00845 0
M  V30 7701 H 719.263 -0.168426 0.717497 0
M  V30 7702 H 721.905 0.264065 1.88156 0
M  V30 7703 H 720.055 -1.56841 3.55434 0
M  V30 7704 H 721.727 0.850508 4.53392 0
M  V30 7705 H 719.97 0.867918 4.25029 0
M  V30 7706 H 720.641 -0.163187 5.51759 0
M  V30 7707 H 723.117 -1.29139 3.95553 0
M  V30 7708 H 721.993 -2.12015 5.06301 0
M  V30 7709 H 722.254 -2.76463 3.44994 0
M  V30 7710 N 721.313 -1.57302 -0.09688 0
M  V30 7711 C 722.26 -2.01933 -1.11766 0
M  V30 7712 C 723.23 -0.895329 -1.39904 0
M  V30 7713 O 724.415 -1.16119 -1.51397 0
M  V30 7714 C 721.555 -2.44726 -2.43317 0
M  V30 7715 C 720.668 -3.70639 -2.21925 0
M  V30 7716 C 719.803 -4.02318 -3.46862 0
M  V30 7717 C 718.842 -5.21346 -3.20725 0
M  V30 7718 N 717.979 -5.48787 -4.37924 0
M  V30 7719 H 722.819 -2.88919 -0.730075 0
M  V30 7720 H 720.356 -1.42901 -0.348962 0
M  V30 7721 H 722.314 -2.6758 -3.20088 0
M  V30 7722 H 720.944 -1.60753 -2.79926 0
M  V30 7723 H 719.996 -3.55271 -1.35965 0
M  V30 7724 H 721.308 -4.57557 -1.98603 0
M  V30 7725 H 720.462 -4.25939 -4.32042 0
M  V30 7726 H 719.201 -3.13918 -3.73238 0
M  V30 7727 H 718.206 -4.97547 -2.33938 0
M  V30 7728 H 719.431 -6.11343 -2.95697 0
M  V30 7729 H 717.377 -4.63346 -4.64378 0
M  V30 7730 H 717.294 -6.30073 -4.17785 0
M  V30 7731 H 718.562 -5.76943 -5.24173 0
M  V30 7732 N 722.791 0.367657 -1.53252 0
M  V30 7733 C 724.016 1.13566 -1.73544 0
M  V30 7734 C 724.441 1.82329 -0.462344 0
M  V30 7735 O 723.799 1.71655 0.583472 0
M  V30 7736 C 723.847 2.14322 -2.89997 0
M  V30 7737 O 722.951 3.21359 -2.58461 0
M  V30 7738 H 722.292 0.329614 -0.576412 0
M  V30 7739 H 724.822 0.425417 -2.00128 0
M  V30 7740 H 724.832 2.57958 -3.16104 0
M  V30 7741 H 723.507 1.63664 -3.82344 0
M  V30 7742 H 722.084 2.8271 -2.43165 0
M  V30 7743 N 724.269 1.44576 0.627338 0
M  V30 7744 C 725.497 1.51048 1.41394 0
M  V30 7745 C 725.912 0.136568 1.88305 0
M  V30 7746 O 725.269 -0.858251 1.6106 0
M  V30 7747 C 725.32 2.47837 2.63172 0
M  V30 7748 O 725.041 3.79887 2.18215 0
M  V30 7749 C 726.542 2.63811 3.56257 0
M  V30 7750 H 723.762 0.512171 0.4335 0
M  V30 7751 H 726.306 1.89576 0.766878 0
M  V30 7752 H 724.461 2.12433 3.23961 0
M  V30 7753 H 724.875 4.32177 2.97192 0
M  V30 7754 H 726.349 3.35554 4.38301 0
M  V30 7755 H 726.826 1.69169 4.05313 0
M  V30 7756 H 727.432 3.0013 3.01333 0
M  V30 7757 N 725.747 -0.868086 1.31537 0
M  V30 7758 C 726.677 -1.99131 1.21939 0
M  V30 7759 C 727.658 -1.69768 0.106166 0
M  V30 7760 O 728.843 -1.92006 0.291081 0
M  V30 7761 C 725.973 -3.34676 0.927879 0
M  V30 7762 C 724.927 -3.7835 2.00088 0
M  V30 7763 C 724.253 -5.11375 1.56203 0
M  V30 7764 C 725.553 -3.95256 3.41424 0
M  V30 7765 H 727.247 -2.07419 2.15911 0
M  V30 7766 H 724.793 -0.996569 1.03945 0
M  V30 7767 H 726.746 -4.12793 0.847327 0
M  V30 7768 H 725.47 -3.26565 -0.0475042 0
M  V30 7769 H 724.129 -3.02474 2.07135 0
M  V30 7770 H 723.777 -4.99709 0.57445 0
M  V30 7771 H 723.477 -5.41568 2.27985 0
M  V30 7772 H 725.001 -5.92001 1.49558 0
M  V30 7773 H 726.415 -4.63764 3.3704 0
M  V30 7774 H 724.812 -4.36849 4.1144 0
M  V30 7775 H 725.882 -2.98579 3.82072 0
M  V30 7776 N 727.225 -1.14528 -1.08264 0
M  V30 7777 C 728.641 -0.885976 -1.3275 0
M  V30 7778 C 728.841 0.472096 -1.95892 0
M  V30 7779 O 727.897 1.21606 -2.21288 0
M  V30 7780 C 729.21 -2.01982 -2.22764 0
M  V30 7781 C 730.758 -2.05329 -2.36239 0
M  V30 7782 C 731.233 -3.1801 -3.29596 0
M  V30 7783 N 732.724 -3.17598 -3.37173 0
M  V30 7784 C 733.459 -4.01426 -4.09444 0
M  V30 7785 N 732.955 -4.95297 -4.8441 0
M  V30 7786 N 734.748 -3.89482 -4.0529 0
M  V30 7787 H 726.899 -2.01996 -0.656607 0
M  V30 7788 H 729.162 -0.880274 -0.351884 0
M  V30 7789 H 728.868 -2.99964 -1.83615 0
M  V30 7790 H 728.742 -1.94421 -3.23234 0
M  V30 7791 H 731.129 -1.07953 -2.74646 0
M  V30 7792 H 731.21 -2.1696 -1.35506 0
M  V30 7793 H 730.854 -4.15633 -2.9191 0
M  V30 7794 H 730.784 -3.03616 -4.30261 0
M  V30 7795 H 733.275 -2.4961 -2.83731 0
M  V30 7796 H 733.588 -5.55723 -5.37021 0
M  V30 7797 H 731.933 -4.99293 -4.83457 0
M  V30 7798 H 735.124 -3.15465 -3.45832 0
M  V30 7799 H 735.297 -4.55039 -4.6135 0
M  V30 7800 N 728.703 1.26451 -0.940633 0
M  V30 7801 C 729.613 2.30128 -0.455881 0
M  V30 7802 C 730.629 1.67536 0.469867 0
M  V30 7803 O 731.805 1.98344 0.349529 0
M  V30 7804 C 728.87 3.45634 0.271648 0
M  V30 7805 C 727.931 4.23709 -0.690594 0
M  V30 7806 C 727.164 5.337 0.00231047 0
M  V30 7807 O 727.387 5.57215 1.21935 0
M  V30 7808 O 726.321 5.98091 -0.676111 0
M  V30 7809 H 730.147 2.73655 -1.31707 0
M  V30 7810 H 727.732 1.3164 -0.706497 0
M  V30 7811 H 729.614 4.15853 0.681486 0
M  V30 7812 H 728.289 3.04138 1.10824 0
M  V30 7813 H 727.196 3.55974 -1.15037 0
M  V30 7814 H 728.529 4.68953 -1.49478 0
M  V30 7815 N 730.181 0.707592 1.40822 0
M  V30 7816 C 731.114 -0.000859377 2.282 0
M  V30 7817 C 732.092 -0.7758 1.42899 0
M  V30 7818 O 733.276 -0.76411 1.72318 0
M  V30 7819 C 730.403 -1.00861 3.23334 0
M  V30 7820 C 729.449 -0.32543 4.25257 0
M  V30 7821 S 730.282 0.940908 5.27169 0
M  V30 7822 C 731.438 -0.0649459 6.25866 0
M  V30 7823 H 731.671 0.740207 2.87938 0
M  V30 7824 H 729.204 0.498311 1.46138 0
M  V30 7825 H 731.162 -1.58485 3.78672 0
M  V30 7826 H 729.823 -1.72233 2.62668 0
M  V30 7827 H 729.016 -1.08697 4.92139 0
M  V30 7828 H 728.618 0.178044 3.73576 0
M  V30 7829 H 730.91 -0.914377 6.71301 0
M  V30 7830 H 731.853 0.570276 7.058 0
M  V30 7831 H 732.261 -0.425098 5.62897 0
M  V30 7832 N 731.66 -1.50943 0.453197 0
M  V30 7833 C 732.909 -2.01402 -0.10951 0
M  V30 7834 C 733.222 -1.3411 -1.42386 0
M  V30 7835 O 734.428 -1.75626 -2.07045 0
M  V30 7836 C 732.884 -3.5906 -0.245693 0
M  V30 7837 C 732.492 -4.353 1.05916 0
M  V30 7838 C 734.236 -4.17617 -0.761318 0
M  V30 7839 C 732.143 -5.84699 0.887752 0
M  V30 7840 H 731.073 -0.752674 -0.0447013 0
M  V30 7841 H 733.724 -1.73913 0.585375 0
M  V30 7842 H 732.106 -3.83062 -1.00395 0
M  V30 7843 H 733.28 -4.23034 1.82698 0
M  V30 7844 H 731.595 -3.88269 1.50452 0
M  V30 7845 H 734.192 -5.26963 -0.906306 0
M  V30 7846 H 734.535 -3.77824 -1.74799 0
M  V30 7847 H 735.068 -3.97753 -0.0609416 0
M  V30 7848 H 731.807 -6.28933 1.84726 0
M  V30 7849 H 731.327 -5.99587 0.160006 0
M  V30 7850 H 733.006 -6.44682 0.547223 0
M  V30 7851 N 733.138 -0.185124 -1.56509 0
M  V30 7852 C 734.068 0.735098 -2.21627 0
M  V30 7853 C 735.049 1.2288 -1.1762 0
M  V30 7854 O 736.234 1.27945 -1.46095 0
M  V30 7855 C 733.364 1.95889 -2.86783 0
M  V30 7856 C 732.318 1.6005 -3.96948 0
M  V30 7857 C 731.644 2.90009 -4.4922 0
M  V30 7858 C 732.944 0.818008 -5.15855 0
M  V30 7859 H 734.638 0.192274 -2.98782 0
M  V30 7860 H 732.184 0.0910393 -1.43712 0
M  V30 7861 H 734.137 2.60779 -3.31017 0
M  V30 7862 H 732.861 2.52608 -2.07018 0
M  V30 7863 H 731.52 0.975237 -3.5339 0
M  V30 7864 H 731.168 3.44797 -3.6623 0
M  V30 7865 H 730.868 2.66778 -5.23549 0
M  V30 7866 H 732.392 3.55904 -4.9615 0
M  V30 7867 H 733.806 1.36979 -5.56695 0
M  V30 7868 H 732.203 0.684207 -5.96187 0
M  V30 7869 H 733.273 -0.182939 -4.84555 0
M  V30 7870 N 734.616 1.57351 0.0885366 0
M  V30 7871 C 735.846 1.90355 0.80303 0
M  V30 7872 C 736.254 0.777678 1.72478 0
M  V30 7873 O 735.597 -0.258908 1.81866 0
M  V30 7874 C 735.659 3.18674 1.66395 0
M  V30 7875 C 735.323 4.4778 0.913327 0
M  V30 7876 C 736.32 5.19345 0.240148 0
M  V30 7877 C 734.005 4.94434 0.885462 0
M  V30 7878 C 735.999 6.35803 -0.450854 0
M  V30 7879 C 733.686 6.10802 0.190679 0
M  V30 7880 C 734.684 6.81337 -0.476295 0
M  V30 7881 O 734.372 7.95488 -1.15992 0
M  V30 7882 H 734.104 0.634035 0.234469 0
M  V30 7883 H 736.658 2.05287 0.0681959 0
M  V30 7884 H 734.888 2.99906 2.44117 0
M  V30 7885 H 736.577 3.37458 2.2556 0
M  V30 7886 H 737.343 4.84339 0.253092 0
M  V30 7887 H 733.222 4.39417 1.39406 0
M  V30 7888 H 736.766 6.90795 -0.972019 0
M  V30 7889 H 732.663 6.45261 0.175603 0
M  V30 7890 H 733.431 8.11509 -1.06749 0
M  V30 7891 N 736.094 -0.359525 1.53444 0
M  V30 7892 C 737.505 -0.936009 1.61542 0
M  V30 7893 C 737.856 -1.90069 0.486633 0
M  V30 7894 O 736.981 -2.12929 -0.386047 0
M  V30 7895 C 737.576 -1.70441 2.92806 0
M  V30 7896 C 736.135 -2.23015 3.03218 0
M  V30 7897 C 735.282 -1.04438 2.56881 0
M  V30 7898 H 738.233 -0.138134 1.58098 0
M  V30 7899 H 738.254 -2.56609 2.80948 0
M  V30 7900 H 737.766 -1.00205 3.74941 0
M  V30 7901 H 735.867 -2.96475 2.25684 0
M  V30 7902 H 735.98 -2.50481 4.08407 0
M  V30 7903 H 734.344 -1.41314 2.11902 0
M  V30 7904 H 735.127 -0.356905 3.4144 0
M  V30 7905 N 737.572 -1.44907 -0.619662 0
M  V30 7906 C 738.821 -1.47569 -1.37501 0
M  V30 7907 C 739.134 -0.116707 -1.95252 0
M  V30 7908 O 740.34 -0.020909 -2.71492 0
M  V30 7909 C 738.796 -2.59851 -2.49009 0
M  V30 7910 C 738.404 -4.02008 -1.97722 0
M  V30 7911 C 740.148 -2.71746 -3.2612 0
M  V30 7912 C 738.055 -5.05693 -3.0664 0
M  V30 7913 H 736.985 -0.549068 -0.51676 0
M  V30 7914 H 739.636 -1.71009 -0.665437 0
M  V30 7915 H 738.018 -2.29671 -3.22594 0
M  V30 7916 H 739.192 -4.41809 -1.30925 0
M  V30 7917 H 737.507 -3.94456 -1.33392 0
M  V30 7918 H 740.104 -3.46382 -4.07337 0
M  V30 7919 H 740.447 -1.77959 -3.76346 0
M  V30 7920 H 740.98 -3.01392 -2.5963 0
M  V30 7921 H 737.719 -6.01148 -2.61345 0
M  V30 7922 H 737.239 -4.70473 -3.72042 0
M  V30 7923 H 738.918 -5.29906 -3.71226 0
M  V30 7924 N 739.05 0.861098 -1.31996 0
M  V30 7925 C 740.327 1.59788 -1.12814 0
M  V30 7926 C 740.707 2.08753 0.313882 0
M  V30 7927 O 740.055 1.87258 1.30946 0
M  V30 7928 C 740.265 2.74901 -2.15012 0
M  V30 7929 C 741.613 3.44643 -2.48004 0
M  V30 7930 O 742.637 2.85119 -2.13508 0
M  V30 7931 O 741.496 4.52044 -3.07113 0
M  V30 7932 H 738.59 0.703408 -0.434909 0
M  V30 7933 H 741.136 0.905788 -1.43505 0
M  V30 7934 H 739.908 2.36198 -3.11971 0
M  V30 7935 H 739.531 3.51792 -1.85279 0
M  V30 7936 N 740.528 1.15101 1.07655 0
M  V30 7937 C 741.478 0.813448 2.12995 0
M  V30 7938 C 742.462 -0.200899 1.59641 0
M  V30 7939 O 743.654 -0.00209918 1.77 0
M  V30 7940 C 740.783 0.301078 3.41977 0
M  V30 7941 C 739.869 1.3454 4.02194 0
M  V30 7942 N 740.26 2.55181 4.36711 0
M  V30 7943 C 738.558 1.19742 4.29625 0
M  V30 7944 C 739.259 3.22094 4.84387 0
M  V30 7945 N 738.235 2.49486 4.82968 0
M  V30 7946 H 742.037 1.73105 2.37511 0
M  V30 7947 H 739.551 1.03601 1.25063 0
M  V30 7948 H 741.548 0.040914 4.1688 0
M  V30 7949 H 740.208 -0.610629 3.18907 0
M  V30 7950 H 741.219 2.92349 4.27496 0
M  V30 7951 H 737.896 0.345353 4.16069 0
M  V30 7952 H 739.286 4.24996 5.20411 0
M  V30 7953 N 742.006 -1.2595 0.947325 0
M  V30 7954 C 743.417 -1.75389 0.639963 0
M  V30 7955 C 743.768 -1.77081 -0.844788 0
M  V30 7956 O 742.893 -1.3869 -1.66114 0
M  V30 7957 C 743.488 -3.18506 1.15496 0
M  V30 7958 C 742.047 -3.65534 0.897894 0
M  V30 7959 C 741.194 -2.44818 1.30228 0
M  V30 7960 H 744.145 -1.1194 1.12495 0
M  V30 7961 H 744.166 -3.77045 0.511627 0
M  V30 7962 H 743.678 -3.17243 2.23559 0
M  V30 7963 H 741.779 -3.72221 -0.168096 0
M  V30 7964 H 741.892 -4.54039 1.52922 0
M  V30 7965 H 740.256 -2.44291 0.720678 0
M  V30 7966 H 741.039 -2.46251 2.39198 0
M  V30 7967 N 743.484 -0.715051 -1.40445 0
M  V30 7968 C 744.761 -0.181503 -1.94756 0
M  V30 7969 C 745.141 1.31268 -1.65324 0
M  V30 7970 O 744.489 2.0686 -0.970631 0
M  V30 7971 C 744.699 -0.493663 -3.45491 0
M  V30 7972 C 746.047 -0.432032 -4.22396 0
M  V30 7973 O 747.071 -0.429692 -3.53599 0
M  V30 7974 O 745.93 -0.409091 -5.44967 0
M  V30 7975 H 743.024 -0.0263989 -0.826579 0
M  V30 7976 H 745.57 -0.792546 -1.50056 0
M  V30 7977 H 744.342 -1.52713 -3.6027 0
M  V30 7978 H 743.965 0.14737 -3.97327 0
M  V30 7979 N 744.962 1.50701 -0.461195 0
M  V30 7980 C 745.909 2.2831 0.338094 0
M  V30 7981 C 746.879 1.32928 0.995957 0
M  V30 7982 O 748.064 1.61857 1.0103 0
M  V30 7983 C 745.204 3.14539 1.41983 0
M  V30 7984 C 744.317 4.24942 0.77773 0
M  V30 7985 C 743.452 4.98443 1.83652 0
M  V30 7986 C 742.491 6.00733 1.17413 0
M  V30 7987 N 741.628 6.6755 2.17533 0
M  V30 7988 H 746.468 2.96167 -0.330051 0
M  V30 7989 H 744.005 1.4606 -0.174611 0
M  V30 7990 H 745.963 3.62877 2.05855 0
M  V30 7991 H 744.593 2.48749 2.05727 0
M  V30 7992 H 743.645 3.80391 0.0266924 0
M  V30 7993 H 744.957 4.98151 0.254362 0
M  V30 7994 H 744.111 5.50449 2.55129 0
M  V30 7995 H 742.85 4.24917 2.39367 0
M  V30 7996 H 741.855 5.47997 0.444944 0
M  V30 7997 H 743.08 6.76227 0.624006 0
M  V30 7998 H 741.026 5.96823 2.72284 0
M  V30 7999 H 740.943 7.36603 1.70154 0
M  V30 8000 H 742.211 7.24178 2.88421 0
M  V30 8001 N 746.441 0.193421 1.56409 0
M  V30 8002 C 747.688 -0.445789 1.97532 0
M  V30 8003 C 748.016 -1.61744 1.08024 0
M  V30 8004 O 747.271 -1.95338 0.118982 0
M  V30 8005 C 747.57 -0.949718 3.44551 0
M  V30 8006 C 747.236 0.108383 4.5077 0
M  V30 8007 C 745.898 0.399126 4.79542 0
M  V30 8008 C 748.25 0.825423 5.14622 0
M  V30 8009 C 745.578 1.41192 5.69457 0
M  V30 8010 C 747.93 1.82735 6.05632 0
M  V30 8011 C 746.594 2.12531 6.32761 0
M  V30 8012 H 745.864 -0.163126 0.722822 0
M  V30 8013 H 748.511 0.290035 1.89291 0
M  V30 8014 H 746.816 -1.76378 3.49854 0
M  V30 8015 H 748.513 -1.45367 3.73724 0
M  V30 8016 H 745.103 -0.128392 4.28408 0
M  V30 8017 H 749.287 0.61403 4.92487 0
M  V30 8018 H 744.543 1.6487 5.88751 0
M  V30 8019 H 748.717 2.3882 6.5417 0
M  V30 8020 H 746.344 2.91155 7.02234 0
M  V30 8021 N 747.919 -1.57396 -0.0801906 0
M  V30 8022 C 748.829 -2.06451 -1.11423 0
M  V30 8023 C 749.845 -0.992352 -1.42928 0
M  V30 8024 O 751.021 -1.30651 -1.53272 0
M  V30 8025 C 748.086 -2.49164 -2.41077 0
M  V30 8026 C 747.147 -3.70641 -2.16619 0
M  V30 8027 C 746.38 -4.11307 -3.40092 0
M  V30 8028 O 746.603 -3.51922 -4.48895 0
M  V30 8029 O 745.537 -5.04157 -3.288 0
M  V30 8030 H 749.363 -2.94857 -0.727519 0
M  V30 8031 H 746.948 -1.46484 -0.293743 0
M  V30 8032 H 748.83 -2.77196 -3.17396 0
M  V30 8033 H 747.505 -1.6389 -2.79145 0
M  V30 8034 H 746.412 -3.47703 -1.38033 0
M  V30 8035 H 747.745 -4.5674 -1.83437 0
M  V30 8036 N 749.397 0.351382 -1.53633 0
M  V30 8037 C 750.344 1.43115 -1.81071 0
M  V30 8038 C 751.314 1.52601 -0.655913 0
M  V30 8039 O 752.499 1.68264 -0.89955 0
M  V30 8040 C 749.639 2.79874 -2.01903 0
M  V30 8041 C 748.752 2.79242 -3.29618 0
M  V30 8042 C 747.887 4.07667 -3.40559 0
M  V30 8043 C 746.926 4.01233 -4.62254 0
M  V30 8044 N 746.063 5.21334 -4.70271 0
M  V30 8045 H 750.903 1.19017 -2.73201 0
M  V30 8046 H 748.44 0.576691 -1.35324 0
M  V30 8047 H 750.398 3.5934 -2.11969 0
M  V30 8048 H 749.028 3.0234 -1.13094 0
M  V30 8049 H 748.08 1.91927 -3.28433 0
M  V30 8050 H 749.392 2.70363 -4.19172 0
M  V30 8051 H 748.546 4.95555 -3.50015 0
M  V30 8052 H 747.285 4.19317 -2.49047 0
M  V30 8053 H 746.29 3.11732 -4.52884 0
M  V30 8054 H 747.515 3.91173 -5.55122 0
M  V30 8055 H 745.461 5.33543 -3.81665 0
M  V30 8056 H 745.378 5.14681 -5.5375 0
M  V30 8057 H 746.646 6.11014 -4.84027 0
M  V30 8058 N 750.875 1.45233 0.611969 0
M  V30 8059 C 752.122 1.49021 1.37109 0
M  V30 8060 C 752.45 0.130227 1.94064 0
M  V30 8061 O 751.705 -0.870551 1.75271 0
M  V30 8062 C 752.004 2.51353 2.54079 0
M  V30 8063 C 751.67 3.96178 2.15299 0
M  V30 8064 C 750.332 4.35614 2.04436 0
M  V30 8065 C 752.684 4.87275 1.84966 0
M  V30 8066 C 750.012 5.64047 1.61456 0
M  V30 8067 C 752.364 6.16115 1.43474 0
M  V30 8068 C 751.028 6.54486 1.31167 0
M  V30 8069 H 750.298 0.545307 0.501719 0
M  V30 8070 H 752.945 1.78555 0.692122 0
M  V30 8071 H 751.25 2.15372 3.27295 0
M  V30 8072 H 752.947 2.51523 3.12309 0
M  V30 8073 H 749.537 3.6499 2.24678 0
M  V30 8074 H 753.721 4.57548 1.92258 0
M  V30 8075 H 748.977 5.92575 1.50547 0
M  V30 8076 H 753.151 6.86149 1.19048 0
M  V30 8077 H 750.778 7.53904 0.97637 0
M  V30 8078 N 752.353 -0.854086 1.3245 0
M  V30 8079 C 753.601 -1.60513 1.228 0
M  V30 8080 C 753.922 -1.93865 -0.210073 0
M  V30 8081 O 753.192 -1.59673 -1.13496 0
M  V30 8082 H 751.772 -0.595099 0.451516 0
M  V30 8083 H 754.434 -1.0216 1.6598 0
M  V30 8084 H 753.53 -2.54182 1.81102 0
M  V30 8085 N 753.831 -1.1567 -1.07043 0
M  V30 8086 C 754.764 -0.799867 -2.13723 0
M  V30 8087 C 755.742 0.225098 -1.61034 0
M  V30 8088 O 756.926 0.11093 -1.88173 0
M  V30 8089 C 754.053 -0.18997 -3.38167 0
M  V30 8090 C 753.099 -1.18733 -4.0964 0
M  V30 8091 S 753.932 -2.73074 -4.60642 0
M  V30 8092 C 755.088 -2.13512 -5.88356 0
M  V30 8093 H 755.321 -1.70342 -2.43661 0
M  V30 8094 H 752.854 -0.979377 -1.19363 0
M  V30 8095 H 754.812 0.155471 -4.10205 0
M  V30 8096 H 753.473 0.691229 -3.064 0
M  V30 8097 H 752.666 -0.708873 -4.9899 0
M  V30 8098 H 752.268 -1.47747 -3.43579 0
M  V30 8099 H 754.56 -1.49911 -6.60706 0
M  V30 8100 H 755.503 -3.01042 -6.40921 0
M  V30 8101 H 755.911 -1.57693 -5.42027 0
M  V30 8102 N 755.309 1.25446 -0.953992 0
M  V30 8103 C 756.534 1.97755 -0.625129 0
M  V30 8104 C 756.959 1.70437 0.795787 0
M  V30 8105 O 756.317 0.95992 1.53803 0
M  V30 8106 C 756.365 3.49463 -0.889251 0
M  V30 8107 O 755.469 4.12387 0.0322757 0
M  V30 8108 H 754.81 0.61998 -0.237742 0
M  V30 8109 H 757.34 1.59582 -1.28041 0
M  V30 8110 H 757.35 3.99772 -0.815263 0
M  V30 8111 H 756.025 3.68676 -1.92487 0
M  V30 8112 H 754.602 3.72782 -0.0938625 0
M  V30 8113 N 756.787 0.722489 1.40064 0
M  V30 8114 C 758.198 0.336507 1.83642 0
M  V30 8115 C 758.549 -1.13002 1.6039 0
M  V30 8116 O 757.674 -1.87036 1.08842 0
M  V30 8117 C 758.269 0.603985 3.33373 0
M  V30 8118 C 756.828 0.271637 3.75419 0
M  V30 8119 C 755.975 0.872898 2.63203 0
M  V30 8120 H 758.926 0.921108 1.29233 0
M  V30 8121 H 758.947 -0.128471 3.80283 0
M  V30 8122 H 758.459 1.67141 3.50265 0
M  V30 8123 H 756.56 -0.790455 3.64119 0
M  V30 8124 H 756.673 0.745457 4.73265 0
M  V30 8125 H 755.037 0.300431 2.52922 0
M  V30 8126 H 755.82 1.94473 2.82905 0
M  V30 8127 N 758.265 -1.50454 0.469181 0
M  V30 8128 C 759.49 -2.0722 -0.0864892 0
M  V30 8129 C 759.915 -1.33098 -1.32916 0
M  V30 8130 O 759.273 -0.378084 -1.77314 0
M  V30 8131 C 759.321 -3.58845 -0.355384 0
M  V30 8132 O 758.425 -3.86583 -1.43622 0
M  V30 8133 H 757.766 -0.663889 0.0121414 0
M  V30 8134 H 760.296 -1.93674 0.659674 0
M  V30 8135 H 760.306 -4.03617 -0.596447 0
M  V30 8136 H 758.981 -4.12211 0.552698 0
M  V30 8137 H 757.558 -3.5365 -1.18262 0
M  V30 8138 N 759.743 -0.201713 -1.56304 0
M  V30 8139 C 761.159 0.154025 -1.58855 0
M  V30 8140 C 761.359 1.60516 -1.21807 0
M  V30 8141 O 760.415 2.34193 -0.94393 0
M  V30 8142 C 761.728 -0.154319 -3.00304 0
M  V30 8143 C 763.276 -0.0949578 -3.12856 0
M  V30 8144 C 763.751 -0.376703 -4.56448 0
M  V30 8145 N 765.242 -0.325558 -4.62054 0
M  V30 8146 C 765.977 -0.51732 -5.71062 0
M  V30 8147 N 765.473 -0.769789 -6.8851 0
M  V30 8148 N 767.266 -0.45112 -5.60287 0
M  V30 8149 H 759.417 -1.14858 -1.78666 0
M  V30 8150 H 761.68 -0.458934 -0.829508 0
M  V30 8151 H 761.386 -1.16074 -3.31994 0
M  V30 8152 H 761.26 0.540014 -3.73314 0
M  V30 8153 H 763.647 0.902075 -2.80974 0
M  V30 8154 H 763.728 -0.822468 -2.42217 0
M  V30 8155 H 763.372 -1.37108 -4.89044 0
M  V30 8156 H 763.302 0.371772 -5.25286 0
M  V30 8157 H 765.793 -0.137308 -3.7765 0
M  V30 8158 H 766.106 -0.904744 -7.67486 0
M  V30 8159 H 764.451 -0.806758 -6.90302 0
M  V30 8160 H 767.642 -0.254253 -4.67409 0
M  V30 8161 H 767.815 -0.603982 -6.45179 0
M  V30 8162 N 761.222 1.57436 0.0718424 0
M  V30 8163 C 762.47 1.86878 0.769484 0
M  V30 8164 C 762.791 0.7937 1.78116 0
M  V30 8165 O 762.061 -0.177642 1.95093 0
M  V30 8166 H 760.641 0.689593 0.287177 0
M  V30 8167 H 763.303 1.94841 0.0479427 0
M  V30 8168 H 762.399 2.84387 1.28572 0
M  V30 8169 N 762.7 -0.34323 1.53817 0
M  V30 8170 C 763.946 -1.08504 1.71332 0
M  V30 8171 C 764.279 -1.88294 0.475285 0
M  V30 8172 O 763.554 -1.87205 -0.527688 0
M  V30 8173 C 763.837 -2.02597 2.97702 0
M  V30 8174 C 763.69 -1.26268 4.31713 0
M  V30 8175 C 765.009 -3.0241 3.19744 0
M  V30 8176 H 762.128 -0.393072 0.623429 0
M  V30 8177 H 764.77 -0.363579 1.86489 0
M  V30 8178 H 762.92 -2.64118 2.8491 0
M  V30 8179 H 764.592 -0.673594 4.56356 0
M  V30 8180 H 762.835 -0.564696 4.30109 0
M  V30 8181 H 763.506 -1.95253 5.16314 0
M  V30 8182 H 765.982 -2.51004 3.31868 0
M  V30 8183 H 764.858 -3.65449 4.09558 0
M  V30 8184 H 765.119 -3.73806 2.36054 0
M  V30 8185 N 764.178 -1.45556 -0.604258 0
M  V30 8186 C 765.108 -1.57327 -1.72541 0
M  V30 8187 C 766.089 -0.424637 -1.64714 0
M  V30 8188 O 767.274 -0.648196 -1.83063 0
M  V30 8189 C 764.404 -1.54279 -3.11152 0
M  V30 8190 C 763.358 -2.67893 -3.33792 0
M  V30 8191 C 762.684 -2.499 -4.72709 0
M  V30 8192 C 763.984 -4.0988 -3.23722 0
M  V30 8193 H 765.678 -2.51175 -1.62947 0
M  V30 8194 H 763.224 -1.20884 -0.782504 0
M  V30 8195 H 765.177 -1.6111 -3.89386 0
M  V30 8196 H 763.901 -0.569627 -3.21594 0
M  V30 8197 H 762.56 -2.60495 -2.57949 0
M  V30 8198 H 762.208 -1.50715 -4.79889 0
M  V30 8199 H 761.908 -3.26091 -4.88813 0
M  V30 8200 H 763.432 -2.5859 -5.5314 0
M  V30 8201 H 764.846 -4.18503 -3.91826 0
M  V30 8202 H 763.243 -4.86487 -3.51355 0
M  V30 8203 H 764.313 -4.31553 -2.21111 0
M  V30 8204 N 765.656 0.84705 -1.32902 0
M  V30 8205 C 766.903 1.60176 -1.23894 0
M  V30 8206 C 767.231 1.93496 0.197341 0
M  V30 8207 O 766.486 1.58173 1.15238 0
M  V30 8208 C 766.785 2.92663 -2.05142 0
M  V30 8209 C 766.451 2.7874 -3.54422 0
M  V30 8210 C 765.113 2.7465 -3.95121 0
M  V30 8211 C 767.465 2.64128 -4.49317 0
M  V30 8212 C 764.793 2.53837 -5.28946 0
M  V30 8213 C 767.145 2.44849 -5.83294 0
M  V30 8214 C 765.809 2.39156 -6.23186 0
M  V30 8215 H 765.079 0.586127 -0.453361 0
M  V30 8216 H 767.726 0.981994 -1.64405 0
M  V30 8217 H 766.031 3.588 -1.57383 0
M  V30 8218 H 767.728 3.50095 -1.95537 0
M  V30 8219 H 764.318 2.82751 -3.22102 0
M  V30 8220 H 768.502 2.66327 -4.18788 0
M  V30 8221 H 763.758 2.4787 -5.58901 0
M  V30 8222 H 767.932 2.32524 -6.56434 0
M  V30 8223 H 765.559 2.22789 -7.26821 0
M  V30 8224 N 767.134 1.16236 1.06428 0
M  V30 8225 C 768.364 0.965782 1.82637 0
M  V30 8226 C 768.772 -0.489284 1.82764 0
M  V30 8227 O 768.115 -1.35133 1.24438 0
M  V30 8228 C 768.177 1.41458 3.30499 0
M  V30 8229 C 767.841 2.88926 3.54077 0
M  V30 8230 C 768.838 3.86939 3.47238 0
M  V30 8231 C 766.523 3.26814 3.81442 0
M  V30 8232 C 768.517 5.20841 3.67428 0
M  V30 8233 C 766.204 4.60886 4.01282 0
M  V30 8234 C 767.202 5.57708 3.94272 0
M  V30 8235 O 766.89 6.89357 4.13573 0
M  V30 8236 H 766.622 0.342569 0.582772 0
M  V30 8237 H 769.176 1.54641 1.35187 0
M  V30 8238 H 767.406 0.777426 3.78805 0
M  V30 8239 H 769.095 1.18563 3.88198 0
M  V30 8240 H 769.861 3.59014 3.26089 0
M  V30 8241 H 765.74 2.5203 3.86008 0
M  V30 8242 H 769.284 5.96401 3.61873 0
M  V30 8243 H 765.181 4.88522 4.21921 0
M  V30 8244 H 765.949 6.95913 4.30869 0
M  V30 8245 N 768.612 -1.24939 0.960631 0
M  V30 8246 C 769.86 -1.92437 0.617441 0
M  V30 8247 C 770.181 -1.75543 -0.849101 0
M  V30 8248 O 769.451 -1.12269 -1.60538 0
M  V30 8249 H 768.031 -0.712192 0.225371 0
M  V30 8250 H 770.693 -1.5198 1.22017 0
M  V30 8251 H 769.789 -3.00247 0.851933 0
M  V30 8252 N 770.09 -0.729906 -1.39679 0
M  V30 8253 C 771.501 -0.346241 -1.83461 0
M  V30 8254 C 771.852 1.1215 -1.60987 0
M  V30 8255 O 770.977 1.86456 -1.09832 0
M  V30 8256 C 771.572 -0.621656 -3.33048 0
M  V30 8257 C 770.131 -0.291543 -3.75269 0
M  V30 8258 C 769.278 -0.886844 -2.62736 0
M  V30 8259 H 772.229 -0.927949 -1.28743 0
M  V30 8260 H 772.25 0.108301 -3.80346 0
M  V30 8261 H 771.762 -1.68996 -3.49373 0
M  V30 8262 H 769.863 0.771133 -3.64533 0
M  V30 8263 H 769.976 -0.770544 -4.72863 0
M  V30 8264 H 768.34 -0.313839 -2.52759 0
M  V30 8265 H 769.123 -1.95971 -2.81869 0
M  V30 8266 N 771.568 1.50203 -0.477153 0
M  V30 8267 C 772.979 1.86685 -0.0235041 0
M  V30 8268 C 773.33 1.39148 1.38319 0
M  V30 8269 O 772.455 0.759051 2.02651 0
M  V30 8270 C 773.05 3.38781 -0.0358767 0
M  V30 8271 C 771.609 3.74652 0.362327 0
M  V30 8272 C 770.756 2.7412 -0.41875 0
M  V30 8273 H 773.707 1.4286 -0.691133 0
M  V30 8274 H 773.728 3.72732 0.764924 0
M  V30 8275 H 773.24 3.73349 -1.05981 0
M  V30 8276 H 771.341 3.45686 1.39039 0
M  V30 8277 H 771.454 4.79063 0.059457 0
M  V30 8278 H 769.818 2.54376 0.128341 0
M  V30 8279 H 770.601 3.11532 -1.44231 0
M  V30 8280 N 773.046 0.209999 1.56195 0
M  V30 8281 C 774.294 -0.423974 1.97603 0
M  V30 8282 C 774.615 -1.61112 1.09854 0
M  V30 8283 O 773.885 -1.95134 0.173032 0
M  V30 8284 H 772.465 -0.159629 0.729745 0
M  V30 8285 H 775.127 0.300205 1.92574 0
M  V30 8286 H 774.223 -0.75809 3.02753 0
M  V30 8287 N 774.524 -1.57472 -0.0634922 0
M  V30 8288 C 775.764 -1.89491 -0.766312 0
M  V30 8289 C 776.128 -0.80475 -1.74321 0
M  V30 8290 O 777.329 -1.00825 -2.49174 0
M  V30 8291 C 775.6 -3.26731 -1.44851 0
M  V30 8292 S 777.159 -3.80516 -2.18525 0
M  V30 8293 H 773.977 -0.663832 -0.254653 0
M  V30 8294 H 776.579 -1.95488 -0.0220867 0
M  V30 8295 H 775.283 -4.03967 -0.723824 0
M  V30 8296 H 774.814 -3.23953 -2.232 0
M  V30 8297 H 776.829 -3.5647 -3.45172 0
M  V30 8298 N 776.003 0.335068 -1.53997 0
M  V30 8299 C 777.251 1.07223 -1.71312 0
M  V30 8300 C 777.572 1.88911 -0.483486 0
M  V30 8301 O 776.842 1.89344 0.50257 0
M  V30 8302 H 775.422 0.398846 -0.63161 0
M  V30 8303 H 778.084 0.374288 -1.91272 0
M  V30 8304 H 777.18 1.7448 -2.58772 0
M  V30 8305 N 777.481 1.45874 0.596531 0
M  V30 8306 C 778.428 1.55389 1.70655 0
M  V30 8307 C 779.398 0.399036 1.61236 0
M  V30 8308 O 780.583 0.61396 1.80652 0
M  V30 8309 C 777.723 1.53705 3.0898 0
M  V30 8310 C 776.836 2.79823 3.29125 0
M  V30 8311 C 775.971 2.69735 4.5762 0
M  V30 8312 C 775.01 3.90856 4.71061 0
M  V30 8313 N 774.147 3.79237 5.90867 0
M  V30 8314 H 778.987 2.50211 1.61859 0
M  V30 8315 H 776.524 1.24146 0.789069 0
M  V30 8316 H 778.482 1.50715 3.89026 0
M  V30 8317 H 777.112 0.624247 3.16706 0
M  V30 8318 H 776.164 2.92852 2.42779 0
M  V30 8319 H 777.476 3.69628 3.34927 0
M  V30 8320 H 776.63 2.64773 5.45875 0
M  V30 8321 H 775.369 1.77547 4.54234 0
M  V30 8322 H 774.374 3.96164 3.81227 0
M  V30 8323 H 775.599 4.84124 4.76236 0
M  V30 8324 H 773.545 2.89825 5.88504 0
M  V30 8325 H 773.462 4.62686 5.97877 0
M  V30 8326 H 774.73 3.78227 6.8159 0
M  V30 8327 N 778.959 -0.83999 1.33349 0
M  V30 8328 C 780.187 -1.62728 1.27778 0
M  V30 8329 C 780.602 -1.88191 -0.151505 0
M  V30 8330 O 779.959 -1.46128 -1.09329 0
M  V30 8331 C 780.01 -2.97813 2.04913 0
M  V30 8332 O 779.731 -2.73469 3.42266 0
M  V30 8333 C 781.232 -3.92245 2.0654 0
M  V30 8334 H 778.452 -0.506374 0.440257 0
M  V30 8335 H 780.996 -1.04637 1.75703 0
M  V30 8336 H 779.151 -3.52509 1.60674 0
M  V30 8337 H 779.565 -3.59483 3.81932 0
M  V30 8338 H 781.039 -4.84249 2.64966 0
M  V30 8339 H 781.516 -4.26332 1.05537 0
M  V30 8340 H 782.122 -3.43487 2.50793 0
M  V30 8341 N 780.437 -1.16799 -1.0581 0
M  V30 8342 C 781.367 -0.902241 -2.15364 0
M  V30 8343 C 782.348 0.153351 -1.69407 0
M  V30 8344 O 783.533 0.00442032 -1.94199 0
M  V30 8345 C 780.663 -0.407911 -3.44896 0
M  V30 8346 C 779.617 -1.40197 -4.04387 0
M  V30 8347 C 778.943 -0.765848 -5.29187 0
M  V30 8348 C 780.243 -2.77316 -4.42598 0
M  V30 8349 H 781.937 -1.81841 -2.37853 0
M  V30 8350 H 779.483 -0.875731 -1.14311 0
M  V30 8351 H 781.436 -0.20945 -4.20879 0
M  V30 8352 H 780.16 0.54378 -3.22041 0
M  V30 8353 H 778.819 -1.58707 -3.30466 0
M  V30 8354 H 778.467 0.192482 -5.02632 0
M  V30 8355 H 778.167 -1.42939 -5.69949 0
M  V30 8356 H 779.691 -0.577519 -6.07863 0
M  V30 8357 H 781.105 -2.62561 -5.09642 0
M  V30 8358 H 779.502 -3.4019 -4.94359 0
M  V30 8359 H 780.572 -3.32199 -3.53231 0
M  V30 8360 N 781.915 1.24427 -0.967243 0
M  V30 8361 C 782.845 2.2773 -0.515899 0
M  V30 8362 C 783.826 1.64197 0.444227 0
M  V30 8363 O 785.011 1.91193 0.340451 0
M  V30 8364 C 782.141 3.46751 0.195149 0
M  V30 8365 C 781.095 4.22548 -0.680953 0
M  V30 8366 C 780.421 5.34456 0.161561 0
M  V30 8367 C 781.721 4.83914 -1.96532 0
M  V30 8368 H 783.415 2.65735 -1.37933 0
M  V30 8369 H 780.961 1.27742 -0.664681 0
M  V30 8370 H 782.914 4.18153 0.522117 0
M  V30 8371 H 781.638 3.07771 1.09292 0
M  V30 8372 H 780.297 3.52946 -0.991186 0
M  V30 8373 H 779.945 4.91716 1.05947 0
M  V30 8374 H 779.645 5.86087 -0.421418 0
M  V30 8375 H 781.169 6.08685 0.483211 0
M  V30 8376 H 782.583 5.47392 -1.70396 0
M  V30 8377 H 780.98 5.45775 -2.49499 0
M  V30 8378 H 782.05 4.05393 -2.66053 0
M  V30 8379 N 783.393 0.737304 1.3929 0
M  V30 8380 C 784.356 0.10731 2.28949 0
M  V30 8381 C 785.356 -0.664716 1.46418 0
M  V30 8382 O 786.546 -0.493392 1.67067 0
M  V30 8383 C 783.678 -0.857145 3.29948 0
M  V30 8384 H 784.871 0.89725 2.86163 0
M  V30 8385 H 782.424 0.503279 1.47976 0
M  V30 8386 H 783.159 -1.67336 2.77794 0
M  V30 8387 H 782.944 -0.306167 3.90903 0
M  V30 8388 H 784.434 -1.29444 3.97031 0
M  V30 8389 N 784.871 -1.49948 0.485112 0
M  V30 8390 C 785.818 -2.28819 -0.301729 0
M  V30 8391 C 786.788 -1.34496 -0.974683 0
M  V30 8392 O 787.973 -1.63444 -0.984418 0
M  V30 8393 C 785.113 -3.16758 -1.36961 0
M  V30 8394 C 784.226 -4.26125 -0.710027 0
M  V30 8395 C 783.361 -5.01302 -1.75699 0
M  V30 8396 C 782.4 -6.02525 -1.07841 0
M  V30 8397 N 781.537 -6.70927 -2.06886 0
M  V30 8398 H 786.377 -2.95604 0.377127 0
M  V30 8399 H 783.914 -1.45764 0.197826 0
M  V30 8400 H 785.872 -3.66106 -2.00056 0
M  V30 8401 H 784.502 -2.51991 -2.01744 0
M  V30 8402 H 783.554 -3.80385 0.0338278 0
M  V30 8403 H 784.866 -4.98493 -0.175079 0
M  V30 8404 H 784.02 -5.54438 -2.46339 0
M  V30 8405 H 782.759 -4.28672 -2.32577 0
M  V30 8406 H 781.764 -5.48635 -0.357706 0
M  V30 8407 H 782.989 -6.77134 -0.516345 0
M  V30 8408 H 780.935 -6.01079 -2.62755 0
M  V30 8409 H 780.852 -7.39216 -1.58414 0
M  V30 8410 H 782.12 -7.28675 -2.76863 0
M  V30 8411 N 786.349 -0.21828 -1.56081 0
M  V30 8412 C 787.312 0.679633 -2.18892 0
M  V30 8413 C 788.312 1.12405 -1.14986 0
M  V30 8414 O 789.502 1.03339 -1.40238 0
M  V30 8415 C 786.634 1.93063 -2.80962 0
M  V30 8416 H 787.827 0.132066 -2.99609 0
M  V30 8417 H 785.38 0.0313374 -1.56269 0
M  V30 8418 H 786.115 2.52015 -2.04106 0
M  V30 8419 H 785.9 1.62046 -3.57048 0
M  V30 8420 H 787.39 2.57043 -3.29118 0
M  V30 8421 N 787.827 1.57504 0.0551401 0
M  V30 8422 C 789.073 1.88334 0.752216 0
M  V30 8423 C 789.406 0.812742 1.76375 0
M  V30 8424 O 788.681 -0.175198 1.93709 0
M  V30 8425 C 788.964 3.29824 1.44528 0
M  V30 8426 C 788.817 4.47553 0.449026 0
M  V30 8427 C 790.136 3.69808 2.38601 0
M  V30 8428 H 787.255 0.684973 0.271995 0
M  V30 8429 H 789.897 1.89994 0.0151895 0
M  V30 8430 H 788.047 3.28539 2.07351 0
M  V30 8431 H 789.719 4.60967 -0.175277 0
M  V30 8432 H 787.962 4.33168 -0.234162 0
M  V30 8433 H 788.633 5.43376 0.971917 0
M  V30 8434 H 791.109 3.72293 1.85842 0
M  V30 8435 H 789.985 4.69665 2.84088 0
M  V30 8436 H 790.246 3.00641 3.24141 0
M  V30 8437 N 789.305 -0.326896 1.54172 0
M  V30 8438 C 790.268 -1.38515 1.8261 0
M  V30 8439 C 791.268 -1.44872 0.697771 0
M  V30 8440 O 792.458 -1.44957 0.966078 0
M  V30 8441 C 789.59 -2.77281 1.98313 0
M  V30 8442 H 790.783 -1.14556 2.77159 0
M  V30 8443 H 788.336 -0.562199 1.45839 0
M  V30 8444 H 789.071 -3.065 1.05964 0
M  V30 8445 H 788.856 -2.74061 2.80416 0
M  V30 8446 H 790.346 -3.53845 2.21773 0
M  V30 8447 N 790.784 -1.46188 -0.588786 0
M  V30 8448 C 792.009 -1.5498 -1.37826 0
M  V30 8449 C 792.434 -0.189498 -1.87143 0
M  V30 8450 O 791.792 0.829293 -1.61222 0
M  V30 8451 C 791.84 -2.55369 -2.54596 0
M  V30 8452 O 790.944 -2.08452 -3.55839 0
M  V30 8453 H 790.285 -0.521741 -0.41071 0
M  V30 8454 H 792.815 -1.91708 -0.714779 0
M  V30 8455 H 792.825 -2.74782 -3.01594 0
M  V30 8456 H 791.5 -3.54155 -2.18052 0
M  V30 8457 H 790.077 -1.98999 -3.15363 0
M  V30 8458 N 792.262 0.832906 -1.33792 0
M  V30 8459 C 793.172 1.97514 -1.26592 0
M  V30 8460 C 794.188 1.73114 -0.175391 0
M  V30 8461 O 795.364 1.97387 -0.400062 0
M  V30 8462 C 792.429 3.31625 -1.01121 0
M  V30 8463 C 791.49 3.69101 -2.19233 0
M  V30 8464 C 790.723 4.96813 -1.94968 0
M  V30 8465 O 790.946 5.63208 -0.902955 0
M  V30 8466 O 789.88 5.31932 -2.8166 0
M  V30 8467 H 793.706 2.0653 -2.22664 0
M  V30 8468 H 791.291 0.966826 -1.13898 0
M  V30 8469 H 793.173 4.11968 -0.886571 0
M  V30 8470 H 791.848 3.23599 -0.080822 0
M  V30 8471 H 790.755 2.89243 -2.37253 0
M  V30 8472 H 792.088 3.818 -3.10628 0
M  V30 8473 N 793.74 1.17359 1.05189 0
M  V30 8474 C 794.98 0.972812 1.79766 0
M  V30 8475 C 795.344 -0.489832 1.85647 0
M  V30 8476 O 796.545 -0.809682 2.56315 0
M  V30 8477 C 794.816 1.59636 3.19767 0
M  V30 8478 S 796.375 1.54178 4.10822 0
M  V30 8479 H 793.193 0.34959 0.619119 0
M  V30 8480 H 795.795 1.49304 1.26209 0
M  V30 8481 H 794.499 2.65336 3.13089 0
M  V30 8482 H 794.03 1.07594 3.78401 0
M  V30 8483 H 796.045 0.549785 4.93145 0
M  V30 8484 N 795.218 -1.23913 0.973828 0
M  V30 8485 C 796.443 -1.96735 0.656511 0
M  V30 8486 C 796.868 -1.71682 -0.768571 0
M  V30 8487 O 796.226 -0.984267 -1.52256 0
M  V30 8488 C 796.274 -3.48004 0.944735 0
M  V30 8489 O 795.378 -4.12387 0.0333357 0
M  V30 8490 H 794.719 -0.616119 0.247575 0
M  V30 8491 H 797.249 -1.57525 1.30564 0
M  V30 8492 H 797.259 -3.98424 0.87876 0
M  V30 8493 H 795.934 -3.65567 1.98328 0
M  V30 8494 H 794.511 -3.72585 0.153157 0
M  V30 8495 N 796.696 -0.74468 -1.38897 0
M  V30 8496 C 797.659 -0.11945 -2.28889 0
M  V30 8497 C 798.659 0.656942 -1.46768 0
M  V30 8498 O 799.849 0.484525 -1.67326 0
M  V30 8499 C 796.981 0.839635 -3.30398 0
M  V30 8500 H 798.174 -0.912414 -2.85683 0
M  V30 8501 H 795.727 -0.511119 -1.47707 0
M  V30 8502 H 796.462 1.6586 -2.78677 0
M  V30 8503 H 796.247 0.285432 -3.9106 0
M  V30 8504 H 797.737 1.27337 -3.97712 0
M  V30 8505 N 798.174 1.49689 -0.493057 0
M  V30 8506 C 799.122 2.30613 0.303383 0
M  V30 8507 C 800.116 1.38867 0.970165 0
M  V30 8508 O 801.322 1.55956 0.898761 0
M  V30 8509 H 797.697 0.742891 0.116691 0
M  V30 8510 H 799.668 2.95717 -0.39924 0
M  V30 8511 C 798.417 3.20008 1.35978 0
M  V30 8512 H 797.74 3.90526 0.856103 0
M  V30 8513 H 799.18 3.79586 1.88919 0
M  V30 8514 C 797.639 2.39079 2.37367 0
M  V30 8515 O 798.169 2.08933 3.43089 0
M  V30 8516 N 796.375 2.0125 2.09635 0
M  V30 8517 H 795.922 2.25966 1.23682 0
M  V30 8518 H 795.88 1.47408 2.77702 0
M  V30 8519 N 799.652 0.226554 1.55963 0
M  V30 8520 C 800.899 -0.403789 1.98433 0
M  V30 8521 C 801.227 -1.59416 1.1143 0
M  V30 8522 O 800.482 -1.95042 0.160389 0
M  V30 8523 C 800.781 -0.87642 3.46488 0
M  V30 8524 C 800.447 0.203973 4.50438 0
M  V30 8525 C 799.109 0.500754 4.78587 0
M  V30 8526 C 801.461 0.934396 5.12756 0
M  V30 8527 C 798.789 1.53239 5.66334 0
M  V30 8528 C 801.141 1.9554 6.0162 0
M  V30 8529 C 799.805 2.25905 6.28111 0
M  V30 8530 H 799.075 -0.147757 0.726119 0
M  V30 8531 H 801.722 0.330121 1.88633 0
M  V30 8532 H 800.027 -1.68918 3.53517 0
M  V30 8533 H 801.724 -1.37407 3.76723 0
M  V30 8534 H 798.314 -0.0374917 4.28584 0
M  V30 8535 H 802.498 0.718355 4.91074 0
M  V30 8536 H 797.754 1.77321 5.85122 0
M  V30 8537 H 801.928 2.52642 6.48957 0
M  V30 8538 H 799.555 3.05985 6.959 0
M  V30 8539 N 801.13 -1.57531 -0.0467866 0
M  V30 8540 C 802.376 -1.8873 -0.742218 0
M  V30 8541 C 802.709 -0.822084 -1.75941 0
M  V30 8542 O 801.984 0.164922 -1.938 0
M  V30 8543 C 802.267 -3.30586 -1.42776 0
M  V30 8544 C 802.12 -4.47785 -0.425285 0
M  V30 8545 C 803.439 -3.71068 -2.36636 0
M  V30 8546 H 800.558 -0.686406 -0.268359 0
M  V30 8547 H 803.2 -1.89999 -0.00511341 0
M  V30 8548 H 801.35 -3.29634 -2.05605 0
M  V30 8549 H 803.022 -4.60867 0.199721 0
M  V30 8550 H 801.265 -4.33037 0.25713 0
M  V30 8551 H 801.936 -5.43884 -0.943086 0
M  V30 8552 H 804.412 -3.73273 -1.83866 0
M  V30 8553 H 803.288 -4.71165 -2.81593 0
M  V30 8554 H 803.549 -3.02355 -3.22542 0
M  V30 8555 N 802.608 0.318715 -1.54344 0
M  V30 8556 C 803.833 1.07987 -1.77069 0
M  V30 8557 C 804.258 1.80766 -0.520117 0
M  V30 8558 O 803.616 1.73424 0.528566 0
M  V30 8559 C 803.664 2.04987 -2.96669 0
M  V30 8560 O 802.768 3.12974 -2.68554 0
M  V30 8561 H 802.109 0.311109 -0.586606 0
M  V30 8562 H 804.639 0.361533 -2.0138 0
M  V30 8563 H 804.649 2.47771 -3.2415 0
M  V30 8564 H 803.324 1.51417 -3.87357 0
M  V30 8565 H 801.901 2.74831 -2.52037 0
M  V30 8566 N 804.086 1.46499 0.581025 0
M  V30 8567 C 805.335 1.51162 1.3354 0
M  V30 8568 C 805.648 0.168433 1.94873 0
M  V30 8569 O 806.854 0.092883 2.71341 0
M  V30 8570 C 805.31 2.66362 2.42032 0
M  V30 8571 C 804.918 4.07109 1.86994 0
M  V30 8572 C 806.662 2.80297 3.188 0
M  V30 8573 C 804.569 5.13645 2.93125 0
M  V30 8574 H 803.499 0.562576 0.502021 0
M  V30 8575 H 806.15 1.72713 0.619863 0
M  V30 8576 H 804.532 2.38143 3.16392 0
M  V30 8577 H 805.706 4.45125 1.19166 0
M  V30 8578 H 804.021 3.97854 1.22887 0
M  V30 8579 H 806.618 3.5706 3.9801 0
M  V30 8580 H 806.961 1.87875 3.71495 0
M  V30 8581 H 807.494 3.0817 2.51547 0
M  V30 8582 H 804.233 6.07866 2.45315 0
M  V30 8583 H 803.753 4.80172 3.59437 0
M  V30 8584 H 805.432 5.39562 3.57046 0
M  V30 8585 N 805.565 -0.825799 1.34232 0
M  V30 8586 C 806.512 -1.93651 1.2557 0
M  V30 8587 C 807.482 -1.65578 0.131536 0
M  V30 8588 O 808.667 -1.88231 0.312027 0
M  V30 8589 C 805.807 -3.29862 1.01415 0
M  V30 8590 C 804.92 -3.70247 2.22579 0
M  V30 8591 C 804.055 -4.95392 1.91731 0
M  V30 8592 C 803.094 -5.28349 3.09053 0
M  V30 8593 N 802.231 -6.44671 2.78107 0
M  V30 8594 H 807.071 -2.00392 2.20561 0
M  V30 8595 H 804.608 -0.980441 1.09662 0
M  V30 8596 H 806.566 -4.08356 0.854485 0
M  V30 8597 H 805.196 -3.22642 0.100936 0
M  V30 8598 H 804.248 -2.87169 2.49476 0
M  V30 8599 H 805.56 -3.90575 3.10246 0
M  V30 8600 H 804.714 -5.81665 1.72484 0
M  V30 8601 H 803.453 -4.77059 1.0132 0
M  V30 8602 H 802.458 -4.40574 3.289 0
M  V30 8603 H 803.683 -5.48622 4.00239 0
M  V30 8604 H 801.629 -6.278 1.9027 0
M  V30 8605 H 801.546 -6.65158 3.59306 0
M  V30 8606 H 802.814 -7.34022 2.62358 0
M  V30 8607 N 807.043 -1.17915 -1.04565 0
M  V30 8608 C 808.291 -0.969505 -1.77327 0
M  V30 8609 C 808.612 0.502569 -1.88412 0
M  V30 8610 O 807.882 1.36467 -1.40547 0
M  V30 8611 H 806.462 -0.355723 -0.656864 0
M  V30 8612 H 809.124 -1.48506 -1.26223 0
M  V30 8613 H 808.22 -1.40324 -2.78775 0
M  V30 8614 N 808.521 1.23394 -0.980386 0
M  V30 8615 C 809.932 1.73631 -0.686239 0
M  V30 8616 C 810.283 1.79259 0.797541 0
M  V30 8617 O 809.408 1.43046 1.62379 0
M  V30 8618 C 810.003 3.15332 -1.239 0
M  V30 8619 C 808.562 3.63024 -0.994494 0
M  V30 8620 C 807.709 2.41279 -1.36673 0
M  V30 8621 H 810.66 1.08918 -1.15423 0
M  V30 8622 H 810.681 3.75556 -0.611414 0
M  V30 8623 H 810.193 3.11204 -2.31892 0
M  V30 8624 H 808.294 3.72535 0.0693492 0
M  V30 8625 H 808.407 4.49825 -1.64906 0
M  V30 8626 H 806.771 2.42295 -0.785195 0
M  V30 8627 H 807.554 2.39822 -2.45642 0
M  V30 8628 N 809.999 0.752036 1.385 0
M  V30 8629 C 810.909 0.125318 2.34265 0
M  V30 8630 C 811.925 -0.702437 1.59191 0
M  V30 8631 O 813.101 -0.626951 1.91393 0
M  V30 8632 C 810.166 -0.758486 3.38301 0
M  V30 8633 C 809.227 0.0834636 4.29219 0
M  V30 8634 C 808.46 -0.758252 5.28286 0
M  V30 8635 O 808.683 -1.99632 5.34325 0
M  V30 8636 O 807.617 -0.177878 6.01637 0
M  V30 8637 H 811.443 0.91617 2.89551 0
M  V30 8638 H 809.028 0.512911 1.4032 0
M  V30 8639 H 810.91 -1.26365 4.02007 0
M  V30 8640 H 809.585 -1.52786 2.85374 0
M  V30 8641 H 808.492 0.634545 3.68679 0
M  V30 8642 H 809.825 0.815455 4.85398 0
M  V30 8643 N 811.477 -1.49425 0.500989 0
M  V30 8644 C 812.407 -2.31971 -0.266775 0
M  V30 8645 C 813.388 -1.40245 -0.962563 0
M  V30 8646 O 814.573 -1.69154 -0.953968 0
M  V30 8647 C 811.703 -3.20757 -1.33163 0
M  V30 8648 C 810.657 -4.21275 -0.75572 0
M  V30 8649 C 809.983 -4.98997 -1.92109 0
M  V30 8650 C 811.283 -5.21686 0.253213 0
M  V30 8651 H 812.977 -2.96408 0.422237 0
M  V30 8652 H 810.523 -1.4254 0.204505 0
M  V30 8653 H 812.476 -3.77315 -1.87646 0
M  V30 8654 H 811.2 -2.54263 -2.04983 0
M  V30 8655 H 809.859 -3.65861 -0.232637 0
M  V30 8656 H 809.507 -4.28951 -2.62698 0
M  V30 8657 H 809.207 -5.67011 -1.54182 0
M  V30 8658 H 810.731 -5.584 -2.47026 0
M  V30 8659 H 812.145 -5.72939 -0.203483 0
M  V30 8660 H 810.542 -5.9759 0.548322 0
M  V30 8661 H 811.612 -4.70596 1.16909 0
M  V30 8662 N 812.955 -0.234822 -1.55841 0
M  V30 8663 C 813.885 0.664217 -2.23854 0
M  V30 8664 C 814.866 1.19076 -1.2147 0
M  V30 8665 O 816.051 1.23232 -1.50091 0
M  V30 8666 C 813.181 1.86666 -2.9287 0
M  V30 8667 C 812.135 1.47341 -4.01839 0
M  V30 8668 C 811.461 2.75571 -4.58219 0
M  V30 8669 C 812.761 0.653479 -5.18196 0
M  V30 8670 H 814.455 0.0971213 -2.99242 0
M  V30 8671 H 812.001 0.0452724 -1.43929 0
M  V30 8672 H 813.954 2.50116 -3.39146 0
M  V30 8673 H 812.678 2.45894 -2.1495 0
M  V30 8674 H 811.337 0.862314 -3.56314 0
M  V30 8675 H 810.985 3.32971 -3.77014 0
M  V30 8676 H 810.685 2.49987 -5.31771 0
M  V30 8677 H 812.209 3.39939 -5.07221 0
M  V30 8678 H 813.623 1.19198 -5.60771 0
M  V30 8679 H 812.02 0.494188 -5.98062 0
M  V30 8680 H 813.09 -0.337004 -4.83728 0
M  V30 8681 N 814.433 1.57553 0.0384317 0
M  V30 8682 C 815.661 1.93093 0.743141 0
M  V30 8683 C 816.076 0.833787 1.69391 0
M  V30 8684 O 815.433 -0.190532 1.81503 0
M  V30 8685 C 815.484 3.28533 1.50826 0
M  V30 8686 O 815.205 4.34032 0.595665 0
M  V30 8687 C 816.706 3.78297 2.31098 0
M  V30 8688 H 813.926 0.637486 0.20941 0
M  V30 8689 H 816.47 2.045 -0.00125154 0
M  V30 8690 H 814.625 3.18552 2.20462 0
M  V30 8691 H 815.039 5.12155 1.13124 0
M  V30 8692 H 816.513 4.75602 2.80191 0
M  V30 8693 H 816.99 3.09008 3.12107 0
M  V30 8694 H 817.596 3.91331 1.66555 0
M  V30 8695 N 815.911 -0.310526 1.54511 0
M  V30 8696 C 816.844 -1.40693 1.79668 0
M  V30 8697 C 817.822 -1.49159 0.64734 0
M  V30 8698 O 819.006 -1.66367 0.886239 0
M  V30 8699 C 816.133 -2.78685 1.92491 0
M  V30 8700 C 815.179 -2.87688 3.14861 0
M  V30 8701 S 816.012 -2.50759 4.7316 0
M  V30 8702 C 817.168 -3.90797 4.88906 0
M  V30 8703 H 817.401 -1.19142 2.72383 0
M  V30 8704 H 814.934 -0.508103 1.458 0
M  V30 8705 H 816.892 -3.58168 2.00563 0
M  V30 8706 H 815.553 -2.9751 1.00731 0
M  V30 8707 H 814.746 -3.8888 3.20607 0
M  V30 8708 H 814.348 -2.16189 3.05186 0
M  V30 8709 H 816.64 -4.85693 4.72344 0
M  V30 8710 H 817.583 -3.90027 5.91003 0
M  V30 8711 H 817.991 -3.80357 4.1712 0
M  V30 8712 N 817.389 -1.46805 -0.573248 0
M  V30 8713 C 818.635 -1.53816 -1.33088 0
M  V30 8714 C 818.99 -0.191162 -1.91448 0
M  V30 8715 O 818.283 0.801299 -1.7404 0
M  V30 8716 C 818.477 -2.58001 -2.47326 0
M  V30 8717 C 818.306 -4.027 -2.00157 0
M  V30 8718 C 817.076 -4.70319 -1.84737 0
M  V30 8719 C 819.274 -4.90211 -1.55557 0
M  V30 8720 N 817.256 -5.99598 -1.31739 0
M  V30 8721 C 818.627 -6.09389 -1.14215 0
M  V30 8722 C 820.682 -4.76784 -1.43461 0
M  V30 8723 C 819.385 -7.16625 -0.619809 0
M  V30 8724 C 821.411 -5.84101 -0.926297 0
M  V30 8725 C 820.773 -7.02458 -0.522715 0
M  V30 8726 H 816.872 -0.617642 -0.479627 0
M  V30 8727 H 819.456 -1.83471 -0.65164 0
M  V30 8728 H 817.627 -2.3024 -3.128 0
M  V30 8729 H 819.359 -2.54951 -3.14296 0
M  V30 8730 H 816.114 -4.25982 -2.06969 0
M  V30 8731 H 816.538 -6.68431 -1.07374 0
M  V30 8732 H 821.18 -3.85661 -1.73279 0
M  V30 8733 H 818.898 -8.07508 -0.309228 0
M  V30 8734 H 822.484 -5.75755 -0.836485 0
M  V30 8735 H 821.364 -7.84083 -0.135467 0
M  V30 8736 N 818.867 0.818669 -1.34668 0
M  V30 8737 C 820.114 1.57512 -1.27264 0
M  V30 8738 C 820.442 1.93871 0.156254 0
M  V30 8739 O 819.697 1.60582 1.11857 0
M  V30 8740 C 819.996 2.88245 -2.11304 0
M  V30 8741 C 819.662 2.71159 -3.60255 0
M  V30 8742 C 818.324 2.66207 -4.00858 0
M  V30 8743 C 820.676 2.54538 -4.54819 0
M  V30 8744 C 818.004 2.4256 -5.34211 0
M  V30 8745 C 820.356 2.32421 -5.88356 0
M  V30 8746 C 819.02 2.25884 -6.28118 0
M  V30 8747 H 818.29 0.576378 -0.465692 0
M  V30 8748 H 820.937 0.9469 -1.66451 0
M  V30 8749 H 819.242 3.55381 -1.64958 0
M  V30 8750 H 820.939 3.45869 -2.02919 0
M  V30 8751 H 817.529 2.75856 -3.28027 0
M  V30 8752 H 821.713 2.57384 -4.24343 0
M  V30 8753 H 816.969 2.35959 -5.64033 0
M  V30 8754 H 821.143 2.18548 -6.61218 0
M  V30 8755 H 818.77 2.07322 -7.31383 0
M  V30 8756 N 820.346 1.18468 1.03938 0
M  V30 8757 C 821.594 0.978895 1.76811 0
M  V30 8758 C 821.915 -0.49257 1.88676 0
M  V30 8759 O 821.185 -1.3572 1.41269 0
M  V30 8760 H 819.765 0.359201 0.654968 0
M  V30 8761 H 822.427 1.49173 1.25433 0
M  V30 8762 H 821.523 1.418 2.78027 0
M  V30 8763 N 821.824 -1.22873 0.986916 0
M  V30 8764 C 822.734 -2.28277 0.540978 0
M  V30 8765 C 823.75 -1.69164 -0.407363 0
M  V30 8766 O 824.926 -1.99504 -0.275674 0
M  V30 8767 C 821.991 -3.46404 -0.143181 0
M  V30 8768 C 821.052 -4.20854 0.847375 0
M  V30 8769 C 820.285 -5.33341 0.19577 0
M  V30 8770 O 820.508 -5.61356 -1.0117 0
M  V30 8771 O 819.442 -5.95169 0.897623 0
M  V30 8772 H 823.268 -2.68578 1.41773 0
M  V30 8773 H 820.853 -1.28927 0.754867 0
M  V30 8774 H 822.735 -4.18096 -0.526676 0
M  V30 8775 H 821.41 -3.08041 -0.994593 0
M  V30 8776 H 820.317 -3.51459 1.28169 0
M  V30 8777 H 821.65 -4.63082 1.6678 0
M  V30 8778 N 823.302 -0.75937 -1.38099 0
M  V30 8779 C 824.527 -0.327859 -2.04792 0
M  V30 8780 C 824.952 1.03752 -1.56899 0
M  V30 8781 O 824.31 1.66235 -0.723581 0
M  V30 8782 C 824.358 -0.366264 -3.58735 0
M  V30 8783 O 823.462 0.637697 -4.0744 0
M  V30 8784 H 822.803 -0.144092 -0.648177 0
M  V30 8785 H 825.333 -1.03211 -1.7666 0
M  V30 8786 H 825.343 -0.219179 -4.07411 0
M  V30 8787 H 824.018 -1.36243 -3.92951 0
M  V30 8788 H 822.595 0.454749 -3.70117 0
M  V30 8789 N 824.78 1.49157 -0.508906 0
M  V30 8790 C 825.69 2.33045 0.269656 0
M  V30 8791 C 826.706 1.45143 0.959662 0
M  V30 8792 O 827.882 1.78155 0.939295 0
M  V30 8793 C 824.947 3.20772 1.31554 0
M  V30 8794 C 824.008 4.24531 0.638131 0
M  V30 8795 C 823.241 5.08065 1.63418 0
M  V30 8796 O 823.464 4.93238 2.86483 0
M  V30 8797 O 822.398 5.90117 1.18516 0
M  V30 8798 H 826.224 3.00821 -0.417183 0
M  V30 8799 H 823.809 1.46938 -0.270119 0
M  V30 8800 H 825.691 3.75095 1.92047 0
M  V30 8801 H 824.366 2.55681 1.98516 0
M  V30 8802 H 823.273 3.74099 -0.00674357 0
M  V30 8803 H 824.606 4.92199 0.0108155 0
M  V30 8804 N 826.258 0.243083 1.55714 0
M  V30 8805 C 827.221 -0.644723 2.19945 0
M  V30 8806 C 828.221 -1.10562 1.16759 0
M  V30 8807 O 829.411 -1.01095 1.41865 0
M  V30 8808 C 826.543 -1.88569 2.83997 0
M  V30 8809 H 827.736 -0.0843839 2.99781 0
M  V30 8810 H 825.289 -0.00647246 1.56299 0
M  V30 8811 H 826.024 -2.48736 2.08089 0
M  V30 8812 H 825.809 -1.56345 3.59581 0
M  V30 8813 H 827.299 -2.51774 3.33166 0
M  V30 8814 N 827.736 -1.57571 -0.0300757 0
M  V30 8815 C 828.684 -2.0758 -1.04944 0
M  V30 8816 C 829.678 -0.989384 -1.37505 0
M  V30 8817 O 830.884 -1.17427 -1.36422 0
M  V30 8818 H 827.259 -0.662419 -0.355956 0
M  V30 8819 H 829.23 -2.92268 -0.601848 0
M  V30 8820 C 827.979 -2.5698 -2.34215 0
M  V30 8821 H 827.302 -3.40193 -2.10021 0
M  V30 8822 H 828.742 -2.95682 -3.03888 0
M  V30 8823 C 827.201 -1.47059 -3.03109 0
M  V30 8824 O 827.731 -0.83625 -3.92899 0
M  V30 8825 N 825.937 -1.20538 -2.64422 0
M  V30 8826 H 825.484 -1.72305 -1.9149 0
M  V30 8827 H 825.442 -0.472045 -3.10836 0
M  V30 8828 N 829.214 0.302327 -1.54673 0
M  V30 8829 C 830.46 1.03924 -1.74149 0
M  V30 8830 C 830.793 1.86968 -0.525041 0
M  V30 8831 O 830.068 1.88538 0.477868 0
M  V30 8832 C 830.351 1.94633 -3.02969 0
M  V30 8833 C 830.204 1.14778 -4.34909 0
M  V30 8834 C 831.523 2.93826 -3.27649 0
M  V30 8835 H 828.642 0.376405 -0.633631 0
M  V30 8836 H 831.284 0.314007 -1.87387 0
M  V30 8837 H 829.434 2.56471 -2.91813 0
M  V30 8838 H 831.106 0.552363 -4.57981 0
M  V30 8839 H 829.349 0.450462 -4.31455 0
M  V30 8840 H 830.02 1.81495 -5.21309 0
M  V30 8841 H 832.496 2.42117 -3.38406 0
M  V30 8842 H 831.372 3.54462 -4.19104 0
M  V30 8843 H 831.633 3.67416 -2.45882 0
M  V30 8844 N 830.692 1.47107 0.565454 0
M  V30 8845 C 832.108 1.32443 0.890566 0
M  V30 8846 C 832.308 0.308735 1.99121 0
M  V30 8847 O 831.364 -0.28265 2.50913 0
M  V30 8848 C 832.677 2.71548 1.2916 0
M  V30 8849 C 834.225 2.7977 1.40349 0
M  V30 8850 C 834.7 4.19497 1.83811 0
M  V30 8851 N 836.191 4.21998 1.90975 0
M  V30 8852 C 836.926 5.2702 2.25916 0
M  V30 8853 N 836.422 6.42353 2.59527 0
M  V30 8854 N 838.215 5.14393 2.26619 0
M  V30 8855 H 830.366 2.11786 -0.161328 0
M  V30 8856 H 832.629 0.947952 -0.00950631 0
M  V30 8857 H 832.335 3.47265 0.556753 0
M  V30 8858 H 832.209 3.02782 2.24951 0
M  V30 8859 H 834.596 2.0433 2.12916 0
M  V30 8860 H 834.677 2.522 0.427655 0
M  V30 8861 H 834.321 4.95439 1.11816 0
M  V30 8862 H 834.251 4.44486 2.82382 0
M  V30 8863 H 836.742 3.38791 1.6742 0
M  V30 8864 H 837.055 7.18252 2.85191 0
M  V30 8865 H 835.4 6.45687 2.57126 0
M  V30 8866 H 838.591 4.2332 1.99794 0
M  V30 8867 H 838.764 5.96349 2.5352 0
M  V30 8868 N 832.17 -0.811516 1.35101 0
M  V30 8869 C 833.08 -1.95475 1.29718 0
M  V30 8870 C 834.096 -1.72813 0.202909 0
M  V30 8871 O 835.272 -1.96725 0.431414 0
M  V30 8872 C 832.337 -3.29975 1.06385 0
M  V30 8873 C 831.398 -3.65566 2.25077 0
M  V30 8874 C 830.631 -4.93648 2.02848 0
M  V30 8875 O 830.854 -5.617 0.992442 0
M  V30 8876 O 829.788 -5.27384 2.90087 0
M  V30 8877 H 833.614 -2.02961 2.25921 0
M  V30 8878 H 831.199 -0.948583 1.15422 0
M  V30 8879 H 833.081 -4.10506 0.951999 0
M  V30 8880 H 831.756 -3.2343 0.132294 0
M  V30 8881 H 830.663 -2.85432 2.41825 0
M  V30 8882 H 831.996 -3.7681 3.16662 0
M  V30 8883 N 833.648 -1.19017 -1.03309 0
M  V30 8884 C 834.894 -0.991681 -1.769 0
M  V30 8885 C 835.227 0.476813 -1.88255 0
M  V30 8886 O 834.502 1.35407 -1.39625 0
M  V30 8887 C 834.785 -1.65627 -3.19749 0
M  V30 8888 C 834.638 -3.19813 -3.1629 0
M  V30 8889 C 835.957 -1.37579 -4.18043 0
M  V30 8890 H 833.076 -0.361674 -0.642153 0
M  V30 8891 H 835.718 -1.46795 -1.20628 0
M  V30 8892 H 833.868 -1.25132 -3.67796 0
M  V30 8893 H 835.54 -3.69494 -2.76174 0
M  V30 8894 H 833.783 -3.51578 -2.54117 0
M  V30 8895 H 834.454 -3.61457 -4.17196 0
M  V30 8896 H 836.93 -1.72679 -3.78578 0
M  V30 8897 H 835.806 -1.86636 -5.16196 0
M  V30 8898 H 836.067 -0.300118 -4.4108 0
M  V30 8899 N 835.127 1.22348 -0.993418 0
M  V30 8900 C 836.374 1.9111 -0.669568 0
M  V30 8901 C 836.702 1.77357 0.79843 0
M  V30 8902 O 835.957 1.13675 1.593 0
M  V30 8903 C 836.256 3.42477 -1.02197 0
M  V30 8904 C 835.922 3.7642 -2.48232 0
M  V30 8905 C 834.584 3.85395 -2.88139 0
M  V30 8906 C 836.936 3.9253 -3.42884 0
M  V30 8907 C 834.264 4.07918 -4.21687 0
M  V30 8908 C 836.616 4.16557 -4.76091 0
M  V30 8909 C 835.28 4.23757 -5.15739 0
M  V30 8910 H 834.55 0.699321 -0.245012 0
M  V30 8911 H 837.197 1.45102 -1.2497 0
M  V30 8912 H 835.502 3.90143 -0.359921 0
M  V30 8913 H 837.199 3.93935 -0.74942 0
M  V30 8914 H 833.789 3.70017 -2.16299 0
M  V30 8915 H 837.973 3.84974 -3.13224 0
M  V30 8916 H 833.229 4.11719 -4.51993 0
M  V30 8917 H 837.403 4.27966 -5.4938 0
M  V30 8918 H 835.03 4.40962 -6.19239 0
M  V30 8919 N 836.605 0.766683 1.37694 0
M  V30 8920 C 837.882 0.25366 1.93948 0
M  V30 8921 C 838.262 -1.25041 1.70082 0
M  V30 8922 O 837.61 -2.03115 1.04674 0
M  V30 8923 C 837.82 0.621549 3.43421 0
M  V30 8924 C 839.168 0.588504 4.20502 0
M  V30 8925 O 840.192 0.560632 3.5176 0
M  V30 8926 O 839.051 0.61107 5.43073 0
M  V30 8927 H 836.145 0.0570586 0.825029 0
M  V30 8928 H 838.691 0.847693 1.47011 0
M  V30 8929 H 837.463 1.65979 3.54354 0
M  V30 8930 H 837.086 0.000197027 3.976 0
M  V30 8931 N 838.083 -1.48885 0.516809 0
M  V30 8932 C 839.03 -2.29408 -0.253125 0
M  V30 8933 C 840 -1.36533 -0.945935 0
M  V30 8934 O 841.185 -1.65495 -0.949527 0
M  V30 8935 C 838.325 -3.19592 -1.30211 0
M  V30 8936 C 837.438 -4.27535 -0.61948 0
M  V30 8937 C 836.573 -5.04916 -1.65026 0
M  V30 8938 C 835.612 -6.04677 -0.950368 0
M  V30 8939 N 834.749 -6.75164 -1.92608 0
M  V30 8940 H 839.589 -2.94738 0.439744 0
M  V30 8941 H 837.126 -1.45311 0.2287 0
M  V30 8942 H 839.084 -3.70267 -1.92245 0
M  V30 8943 H 837.714 -2.56213 -1.96353 0
M  V30 8944 H 836.766 -3.80228 0.114505 0
M  V30 8945 H 838.078 -4.98752 -0.0693016 0
M  V30 8946 H 837.232 -5.59539 -2.34523 0
M  V30 8947 H 835.971 -4.33508 -2.23432 0
M  V30 8948 H 834.976 -5.4927 -0.241252 0
M  V30 8949 H 836.201 -6.78077 -0.372599 0
M  V30 8950 H 834.147 -6.06517 -2.49946 0
M  V30 8951 H 834.064 -7.4241 -1.42699 0
M  V30 8952 H 835.332 -7.34384 -2.61345 0
M  V30 8953 N 839.561 -0.251338 -1.55583 0
M  V30 8954 C 840.524 0.63305 -2.20284 0
M  V30 8955 C 841.524 1.09941 -1.17344 0
M  V30 8956 O 842.714 1.00341 -1.42399 0
M  V30 8957 C 839.846 1.8706 -2.84993 0
M  V30 8958 H 841.039 0.0684846 -2.99822 0
M  V30 8959 H 838.592 -0.00181653 -1.563 0
M  V30 8960 H 839.327 2.47629 -2.09405 0
M  V30 8961 H 839.112 1.54436 -3.60405 0
M  V30 8962 H 840.602 2.50004 -3.34496 0
M  V30 8963 N 841.039 1.57585 0.0217189 0
M  V30 8964 C 842.455 1.55072 0.377484 0
M  V30 8965 C 842.655 0.978423 1.76151 0
M  V30 8966 O 841.711 0.602688 2.45202 0
M  V30 8967 C 843.024 2.99462 0.272605 0
M  V30 8968 C 844.572 3.11047 0.349148 0
M  V30 8969 C 845.047 4.57182 0.273636 0
M  V30 8970 N 846.538 4.62007 0.332206 0
M  V30 8971 C 847.273 5.72631 0.296782 0
M  V30 8972 N 846.769 6.92472 0.21322 0
M  V30 8973 N 848.562 5.61028 0.347053 0
M  V30 8974 H 840.713 1.93133 -0.883925 0
M  V30 8975 H 842.976 0.886151 -0.33681 0
M  V30 8976 H 842.682 3.45088 -0.67878 0
M  V30 8977 H 842.556 3.61901 1.06335 0
M  V30 8978 H 844.943 2.65364 1.29097 0
M  V30 8979 H 845.024 2.51425 -0.471085 0
M  V30 8980 H 844.668 5.03534 -0.664548 0
M  V30 8981 H 844.598 5.14724 1.11207 0
M  V30 8982 H 847.089 3.75788 0.399003 0
M  V30 8983 H 847.402 7.72563 0.191492 0
M  V30 8984 H 845.747 6.94769 0.179161 0
M  V30 8985 H 848.938 4.66298 0.410378 0
M  V30 8986 H 849.111 6.47229 0.315979 0
M  V30 8987 N 842.517 -0.29412 1.54831 0
M  V30 8988 C 843.48 -1.3461 1.85507 0
M  V30 8989 C 844.48 -1.43359 0.728343 0
M  V30 8990 O 845.67 -1.42875 0.996609 0
M  V30 8991 C 842.802 -2.73012 2.0415 0
M  V30 8992 H 843.995 -1.08651 2.79526 0
M  V30 8993 H 841.548 -0.531138 1.46999 0
M  V30 8994 H 842.283 -3.04183 1.12441 0
M  V30 8995 H 842.068 -2.68051 2.86166 0
M  V30 8996 H 843.558 -3.49061 2.29229 0
M  V30 8997 N 843.995 -1.47404 -0.557645 0
M  V30 8998 C 844.958 -1.59411 -1.64684 0
M  V30 8999 C 845.958 -0.469244 -1.53801 0
M  V30 9000 O 847.148 -0.734298 -1.57967 0
M  V30 9001 C 844.28 -1.5382 -3.04224 0
M  V30 9002 H 845.473 -2.56504 -1.55389 0
M  V30 9003 H 843.026 -1.35588 -0.777531 0
M  V30 9004 H 843.761 -0.581 -3.19053 0
M  V30 9005 H 843.546 -2.35456 -3.13533 0
M  V30 9006 H 845.036 -1.65358 -3.83466 0
M  V30 9007 N 845.473 0.80434 -1.35529 0
M  V30 9008 C 846.436 1.89788 -1.28503 0
M  V30 9009 C 847.436 1.59601 -0.195983 0
M  V30 9010 O 848.626 1.68292 -0.449827 0
M  V30 9011 C 845.758 3.26255 -0.98847 0
M  V30 9012 H 846.951 1.97436 -2.25741 0
M  V30 9013 H 844.504 1.00046 -1.20086 0
M  V30 9014 H 845.239 3.24294 -0.0200541 0
M  V30 9015 H 845.024 3.49551 -1.77641 0
M  V30 9016 H 846.514 4.06298 -0.964975 0
M  V30 9017 N 846.951 1.19563 1.02676 0
M  V30 9018 C 848.362 1.00158 1.57561 0
M  V30 9019 C 848.713 -0.444922 1.91089 0
M  V30 9020 O 847.838 -1.32466 1.71119 0
M  V30 9021 C 848.433 1.81181 2.86284 0
M  V30 9022 C 846.992 1.66171 3.37734 0
M  V30 9023 C 846.139 1.7975 2.11152 0
M  V30 9024 H 849.09 1.33904 0.85179 0
M  V30 9025 H 849.111 1.30916 3.57269 0
M  V30 9026 H 848.623 2.86454 2.6185 0
M  V30 9027 H 846.724 0.634927 3.6715 0
M  V30 9028 H 846.837 2.46832 4.10622 0
M  V30 9029 H 845.201 1.22833 2.23123 0
M  V30 9030 H 845.984 2.86487 1.89157 0
M  V30 9031 N 848.429 -1.21819 0.999893 0
M  V30 9032 C 849.669 -1.92473 0.687996 0
M  V30 9033 C 850.033 -1.76033 -0.766569 0
M  V30 9034 O 851.234 -2.41013 -1.19021 0
M  V30 9035 C 849.505 -3.40332 1.09129 0
M  V30 9036 S 851.064 -4.29496 0.898822 0
M  V30 9037 H 847.882 -0.665097 0.251329 0
M  V30 9038 H 850.484 -1.47454 1.28364 0
M  V30 9039 H 849.188 -3.49812 2.14615 0
M  V30 9040 H 848.719 -3.90365 0.487724 0
M  V30 9041 H 850.734 -4.95769 -0.206873 0
M  V30 9042 N 849.908 -0.773975 -1.37286 0
M  V30 9043 C 851.154 -0.339809 -1.99933 0
M  V30 9044 C 851.487 1.0815 -1.61299 0
M  V30 9045 O 850.762 1.74442 -0.860252 0
M  V30 9046 C 851.045 -0.485919 -3.56806 0
M  V30 9047 C 850.898 -1.9498 -4.05343 0
M  V30 9048 C 852.217 0.108461 -4.39966 0
M  V30 9049 H 849.336 -0.124944 -0.726332 0
M  V30 9050 H 851.978 -0.977433 -1.6293 0
M  V30 9051 H 850.128 0.0569023 -3.88458 0
M  V30 9052 H 851.8 -2.5525 -3.84246 0
M  V30 9053 H 850.043 -2.45784 -3.57453 0
M  V30 9054 H 850.714 -2.00308 -5.14374 0
M  V30 9055 H 853.19 -0.354722 -4.14585 0
M  V30 9056 H 852.066 -0.0238926 -5.48895 0
M  V30 9057 H 852.327 1.19901 -4.25531 0
M  V30 9058 N 851.386 1.48609 -0.524698 0
M  V30 9059 C 852.316 2.32366 0.229837 0
M  V30 9060 C 853.297 1.41759 0.940129 0
M  V30 9061 O 854.482 1.7065 0.926936 0
M  V30 9062 C 851.612 3.22835 1.28043 0
M  V30 9063 C 850.566 4.22424 0.688603 0
M  V30 9064 C 849.892 5.0199 1.84146 0
M  V30 9065 C 851.192 5.21217 -0.336176 0
M  V30 9066 H 852.886 2.95698 -0.469339 0
M  V30 9067 H 850.432 1.42197 -0.227156 0
M  V30 9068 H 852.385 3.80253 1.8162 0
M  V30 9069 H 851.109 2.57492 2.00912 0
M  V30 9070 H 849.768 3.66185 0.174402 0
M  V30 9071 H 849.416 4.33076 2.5584 0
M  V30 9072 H 849.116 5.69392 1.45142 0
M  V30 9073 H 850.64 5.62259 2.38111 0
M  V30 9074 H 852.054 5.7319 0.112307 0
M  V30 9075 H 850.451 5.96642 -0.643324 0
M  V30 9076 H 851.521 4.68676 -1.24381 0
M  V30 9077 N 852.864 0.259585 1.55447 0
M  V30 9078 C 854.111 -0.361607 1.99245 0
M  V30 9079 C 854.439 -1.57017 1.14787 0
M  V30 9080 O 853.694 -1.94658 0.201724 0
M  V30 9081 C 853.993 -0.802727 3.48269 0
M  V30 9082 C 853.659 0.299472 4.49904 0
M  V30 9083 C 852.321 0.602157 4.77418 0
M  V30 9084 C 854.673 1.04295 5.10658 0
M  V30 9085 C 852.001 1.65217 5.62957 0
M  V30 9086 C 854.353 2.08257 5.97337 0
M  V30 9087 C 853.017 2.39177 6.23178 0
M  V30 9088 H 852.287 -0.132322 0.72909 0
M  V30 9089 H 854.934 0.370059 1.8789 0
M  V30 9090 H 853.239 -1.61381 3.5702 0
M  V30 9091 H 854.936 -1.29385 3.79553 0
M  V30 9092 H 851.526 0.0534256 4.28567 0
M  V30 9093 H 855.71 0.822358 4.89439 0
M  V30 9094 H 850.966 1.89692 5.81229 0
M  V30 9095 H 855.14 2.6635 6.43452 0
M  V30 9096 H 852.767 3.20677 6.89253 0
M  V30 9097 N 854.342 -1.57594 -0.0133615 0
M  V30 9098 C 855.589 -1.8998 -0.70098 0
M  V30 9099 C 855.917 -0.858802 -1.74513 0
M  V30 9100 O 855.172 0.138209 -1.95211 0
M  V30 9101 C 855.471 -3.29121 -1.39336 0
M  V30 9102 C 855.137 -4.48298 -0.483687 0
M  V30 9103 C 853.799 -4.80635 -0.233186 0
M  V30 9104 C 856.151 -5.21003 0.143426 0
M  V30 9105 C 853.479 -5.83055 0.652943 0
M  V30 9106 C 855.831 -6.24366 1.01735 0
M  V30 9107 C 854.495 -6.55168 1.27716 0
M  V30 9108 H 853.765 -0.695187 -0.256507 0
M  V30 9109 H 856.412 -1.9146 0.0392965 0
M  V30 9110 H 854.717 -3.23703 -2.20735 0
M  V30 9111 H 856.414 -3.51433 -1.93121 0
M  V30 9112 H 853.004 -4.23024 -0.689092 0
M  V30 9113 H 857.188 -4.96286 -0.0371139 0
M  V30 9114 H 852.444 -6.05288 0.862379 0
M  V30 9115 H 856.618 -6.79839 1.5097 0
M  V30 9116 H 854.245 -7.34351 1.9655 0
M  V30 9117 N 855.82 0.285905 -1.54985 0
M  V30 9118 C 857.097 1.0397 -1.65679 0
M  V30 9119 C 857.477 2.04725 -0.514851 0
M  V30 9120 O 856.825 2.23257 0.486663 0
M  V30 9121 C 857.035 1.70807 -3.04345 0
M  V30 9122 C 858.383 2.22447 -3.61666 0
M  V30 9123 O 859.407 1.80815 -3.06895 0
M  V30 9124 O 858.266 2.98773 -4.57599 0
M  V30 9125 H 855.36 0.481473 -0.672394 0
M  V30 9126 H 857.906 0.282789 -1.67327 0
M  V30 9127 H 856.678 0.977271 -3.789 0
M  V30 9128 H 856.301 2.53217 -3.06541 0
M  V30 9129 N 857.298 1.47698 0.54982 0
M  V30 9130 C 858.208 1.63386 1.68351 0
M  V30 9131 C 859.224 0.516583 1.66155 0
M  V30 9132 O 860.4 0.785088 1.85468 0
M  V30 9133 C 857.465 1.6513 3.04849 0
M  V30 9134 C 856.526 2.88338 3.18056 0
M  V30 9135 C 855.759 2.8999 4.48042 0
M  V30 9136 O 855.982 2.00633 5.3395 0
M  V30 9137 O 854.916 3.81938 4.65196 0
M  V30 9138 H 858.742 2.59329 1.58057 0
M  V30 9139 H 856.327 1.30869 0.72067 0
M  V30 9140 H 858.209 1.68913 3.86065 0
M  V30 9141 H 856.884 0.723555 3.1551 0
M  V30 9142 H 855.791 2.90097 2.36209 0
M  V30 9143 H 857.124 3.80431 3.12302 0
M  V30 9144 N 858.776 -0.797141 1.35954 0
M  V30 9145 C 859.706 -1.92387 1.32323 0
M  V30 9146 C 860.687 -1.68967 0.196007 0
M  V30 9147 O 861.872 -1.90193 0.39245 0
M  V30 9148 C 859.002 -3.29286 1.10398 0
M  V30 9149 C 857.956 -3.67212 2.19862 0
M  V30 9150 C 857.282 -5.02377 1.8309 0
M  V30 9151 C 858.582 -3.76602 3.61896 0
M  V30 9152 H 860.276 -1.95683 2.26602 0
M  V30 9153 H 857.822 -0.94007 1.09081 0
M  V30 9154 H 859.775 -4.07721 1.06495 0
M  V30 9155 H 858.499 -3.26358 0.125668 0
M  V30 9156 H 857.158 -2.91069 2.22878 0
M  V30 9157 H 856.806 -4.95961 0.838527 0
M  V30 9158 H 856.506 -5.28722 2.56372 0
M  V30 9159 H 858.03 -5.8324 1.80729 0
M  V30 9160 H 859.444 -4.45246 3.6115 0
M  V30 9161 H 857.841 -4.14425 4.34018 0
M  V30 9162 H 858.911 -2.77906 3.97361 0
M  V30 9163 N 860.254 -1.20106 -1.0204 0
M  V30 9164 C 861.531 -0.918029 -1.72718 0
M  V30 9165 C 861.911 0.574163 -2.03142 0
M  V30 9166 O 861.259 1.53476 -1.69285 0
M  V30 9167 C 861.469 -1.78698 -2.9978 0
M  V30 9168 C 862.817 -2.02648 -3.7312 0
M  V30 9169 O 863.841 -1.75919 -3.09727 0
M  V30 9170 O 862.7 -2.47767 -4.87107 0
M  V30 9171 H 859.794 -0.342904 -0.752559 0
M  V30 9172 H 862.34 -1.30961 -1.07923 0
M  V30 9173 H 861.112 -2.79757 -2.7359 0
M  V30 9174 H 860.735 -1.39522 -3.72316 0
M  V30 9175 N 861.732 1.21287 -1.00634 0
M  V30 9176 C 862.957 1.94925 -0.708441 0
M  V30 9177 C 863.382 1.73659 0.722783 0
M  V30 9178 O 862.74 1.02429 1.49593 0
M  V30 9179 C 862.788 3.45377 -1.03667 0
M  V30 9180 O 861.892 4.12153 -0.142661 0
M  V30 9181 H 861.233 0.609338 -0.263824 0
M  V30 9182 H 863.763 1.54008 -1.34695 0
M  V30 9183 H 863.773 3.95954 -0.984086 0
M  V30 9184 H 862.448 3.6018 -2.0795 0
M  V30 9185 H 861.025 3.72048 -0.251888 0
M  V30 9186 N 863.21 0.781244 1.36873 0
M  V30 9187 C 864.459 0.34652 1.98701 0
M  V30 9188 C 864.772 -1.08555 1.62712 0
M  V30 9189 O 865.978 -1.62213 2.17713 0
M  V30 9190 C 864.434 0.568611 3.5538 0
M  V30 9191 C 864.042 2.01156 4.003 0
M  V30 9192 C 865.786 0.197983 4.24038 0
M  V30 9193 C 863.693 2.18074 5.49725 0
M  V30 9194 H 862.623 0.125821 0.743428 0
M  V30 9195 H 865.274 0.961721 1.56279 0
M  V30 9196 H 863.656 -0.116185 3.9583 0
M  V30 9197 H 864.83 2.73209 3.71071 0
M  V30 9198 H 863.145 2.33967 3.44454 0
M  V30 9199 H 865.742 0.302778 5.33842 0
M  V30 9200 H 866.085 -0.852927 4.07469 0
M  V30 9201 H 866.618 0.835696 3.88923 0
M  V30 9202 H 863.357 3.21519 5.71232 0
M  V30 9203 H 862.877 1.50517 5.80607 0
M  V30 9204 H 864.556 1.98393 6.15832 0
M  V30 9205 N 864.689 -1.48329 0.532571 0
M  V30 9206 C 865.937 -2.021 -0.000581206 0
M  V30 9207 C 866.258 -1.4117 -1.34522 0
M  V30 9208 O 865.528 -0.578005 -1.87179 0
M  V30 9209 H 864.108 -0.746993 -0.00320281 0
M  V30 9210 H 866.77 -1.82011 0.696991 0
M  V30 9211 H 865.866 -3.11917 -0.106991 0
M  V30 9212 N 866.167 -0.267825 -1.55308 0
M  V30 9213 C 867.395 0.354587 -2.03839 0
M  V30 9214 C 867.81 1.50007 -1.14644 0
M  V30 9215 O 867.167 1.81752 -0.165055 0
M  V30 9216 C 867.218 0.84254 -3.51544 0
M  V30 9217 O 866.939 -0.257318 -4.37344 0
M  V30 9218 C 868.44 1.53351 -4.15931 0
M  V30 9219 H 865.66 0.0818131 -0.665994 0
M  V30 9220 H 868.204 -0.397795 -2.00594 0
M  V30 9221 H 866.359 1.54503 -3.55257 0
M  V30 9222 H 866.773 0.116593 -5.2437 0
M  V30 9223 H 868.247 1.82643 -5.20908 0
M  V30 9224 H 868.724 2.4626 -3.63666 0
M  V30 9225 H 869.33 0.87506 -4.162 0
M  V30 9226 N 867.645 1.57599 0.00500368 0
M  V30 9227 C 868.577 2.04949 1.02609 0
M  V30 9228 C 869.59 0.966507 1.31006 0
M  V30 9229 O 870.779 1.2434 1.2807 0
M  V30 9230 C 867.879 2.43023 2.36206 0
M  V30 9231 C 867.052 3.73993 2.26821 0
M  V30 9232 C 866.111 3.9899 3.43065 0
M  V30 9233 O 865.137 4.69725 3.21477 0
M  V30 9234 N 866.339 3.46496 4.65748 0
M  V30 9235 H 869.104 2.93167 0.622336 0
M  V30 9236 H 866.665 1.60752 0.192488 0
M  V30 9237 H 868.657 2.56863 3.12735 0
M  V30 9238 H 867.227 1.60349 2.68341 0
M  V30 9239 H 866.447 3.70277 1.35235 0
M  V30 9240 H 867.735 4.59865 2.17719 0
M  V30 9241 H 867.133 2.89206 4.86186 0
M  V30 9242 H 865.69 3.65675 5.3956 0
M  V30 9243 N 869.123 -0.277682 1.55134 0
M  V30 9244 C 870.539 -0.624625 1.46869 0
M  V30 9245 C 870.739 -1.89717 0.678958 0
M  V30 9246 O 869.795 -2.51739 0.195939 0
M  V30 9247 C 871.108 -0.755937 2.91043 0
M  V30 9248 C 872.656 -0.850299 3.01229 0
M  V30 9249 C 873.131 -1.01343 4.46647 0
M  V30 9250 N 874.622 -1.07906 4.50456 0
M  V30 9251 C 875.357 -1.224 5.60184 0
M  V30 9252 N 874.853 -1.33642 6.79788 0
M  V30 9253 N 876.646 -1.25473 5.47917 0
M  V30 9254 H 868.797 0.558102 2.04937 0
M  V30 9255 H 871.06 0.188228 0.929125 0
M  V30 9256 H 870.766 0.108593 3.51532 0
M  V30 9257 H 870.64 -1.6377 3.39793 0
M  V30 9258 H 873.027 -1.7053 2.40839 0
M  V30 9259 H 873.108 0.0559681 2.55739 0
M  V30 9260 H 872.752 -0.163102 5.07638 0
M  V30 9261 H 872.682 -1.93427 4.89789 0
M  V30 9262 H 875.173 -1.00477 3.64298 0
M  V30 9263 H 875.486 -1.44522 7.59166 0
M  V30 9264 H 873.831 -1.30655 6.82608 0
M  V30 9265 H 877.022 -1.16317 4.53418 0
M  V30 9266 H 877.195 -1.36424 6.33476 0
M  V30 9267 N 870.601 -1.47988 -0.541979 0
M  V30 9268 C 871.849 -1.55086 -1.29587 0
M  V30 9269 C 872.17 -0.221304 -1.9374 0
M  V30 9270 O 871.44 0.756128 -1.80719 0
M  V30 9271 H 870.02 -0.571307 -0.481266 0
M  V30 9272 H 872.682 -1.8438 -0.631675 0
M  V30 9273 H 871.778 -2.32556 -2.08144 0
M  V30 9274 N 872.079 0.78992 -1.36375 0
M  V30 9275 C 873.304 1.58389 -1.33895 0
M  V30 9276 C 873.729 1.8794 0.0774934 0
M  V30 9277 O 873.087 1.4785 1.0493 0
M  V30 9278 C 873.135 2.88201 -2.16732 0
M  V30 9279 O 872.239 3.81778 -1.55946 0
M  V30 9280 H 871.58 0.480471 -0.458305 0
M  V30 9281 H 874.11 0.979119 -1.79651 0
M  V30 9282 H 874.12 3.37475 -2.29292 0
M  V30 9283 H 872.795 2.66019 -3.19698 0
M  V30 9284 H 871.372 3.40371 -1.52323 0
M  V30 9285 N 873.557 1.20646 1.01402 0
M  V30 9286 C 874.782 1.04462 1.79172 0
M  V30 9287 C 875.207 -0.401588 1.83763 0
M  V30 9288 O 874.565 -1.28934 1.27459 0
M  V30 9289 C 874.613 1.63583 3.21361 0
M  V30 9290 O 873.717 0.875198 4.03006 0
M  V30 9291 H 873.058 0.368235 0.552539 0
M  V30 9292 H 875.588 1.59994 1.27526 0
M  V30 9293 H 875.598 1.67426 3.72065 0
M  V30 9294 H 874.273 2.68835 3.17334 0
M  V30 9295 H 872.85 0.911172 3.61597 0
M  V30 9296 N 875.035 -1.20752 1.01276 0
M  V30 9297 C 875.965 -2.25658 0.600064 0
M  V30 9298 C 876.946 -1.65733 -0.38298 0
M  V30 9299 O 878.131 -1.92324 -0.269256 0
M  V30 9300 C 875.261 -3.47237 -0.0663197 0
M  V30 9301 C 874.215 -4.1973 0.83731 0
M  V30 9302 C 873.541 -5.34687 0.0369102 0
M  V30 9303 C 874.841 -4.76286 2.14357 0
M  V30 9304 H 876.535 -2.60432 1.477 0
M  V30 9305 H 874.081 -1.25187 0.711634 0
M  V30 9306 H 876.034 -4.19803 -0.366563 0
M  V30 9307 H 874.758 -3.11615 -0.977944 0
M  V30 9308 H 873.417 -3.49024 1.1215 0
M  V30 9309 H 873.065 -4.95309 -0.876244 0
M  V30 9310 H 872.765 -5.84119 0.63865 0
M  V30 9311 H 874.289 -6.10059 -0.256968 0
M  V30 9312 H 875.703 -5.40691 1.90595 0
M  V30 9313 H 874.1 -5.36139 2.69583 0
M  V30 9314 H 875.17 -3.9524 2.80916 0
M  V30 9315 N 876.513 -0.788492 -1.36457 0
M  V30 9316 C 877.761 -0.359749 -1.98872 0
M  V30 9317 C 878.082 1.07197 -1.62892 0
M  V30 9318 O 877.352 1.73875 -0.902463 0
M  V30 9319 H 875.932 -0.130029 -0.735596 0
M  V30 9320 H 878.594 -1.01033 -1.66668 0
M  V30 9321 H 877.69 -0.450835 -3.08827 0
M  V30 9322 N 877.991 1.48044 -0.54043 0
M  V30 9323 C 879.268 1.95523 0.0547302 0
M  V30 9324 C 879.648 1.48284 1.5025 0
M  V30 9325 O 878.996 0.714037 2.17057 0
M  V30 9326 C 879.206 3.48923 -0.0733393 0
M  V30 9327 C 880.554 4.24523 0.0806026 0
M  V30 9328 O 881.578 3.562 -5.58687e-05 0
M  V30 9329 O 880.437 5.45922 0.251216 0
M  V30 9330 H 877.531 0.823728 0.073493 0
M  V30 9331 H 880.077 1.5852 -0.605768 0
M  V30 9332 H 878.849 3.76059 -1.08144 0
M  V30 9333 H 878.472 3.92648 0.625536 0
M  V30 9334 N 879.47 0.276058 1.55163 0
M  V30 9335 C 880.718 -0.339782 1.99223 0
M  V30 9336 C 881.039 -1.56307 1.16589 0
M  V30 9337 O 880.309 -1.94225 0.25564 0
M  V30 9338 H 878.889 -0.128534 0.735859 0
M  V30 9339 H 881.551 0.381612 1.91128 0
M  V30 9340 H 880.647 -0.629 3.05696 0
M  V30 9341 N 880.948 -1.576 0.00335426 0
M  V30 9342 C 882.173 -1.95398 -0.695311 0
M  V30 9343 C 882.598 -0.878476 -1.66326 0
M  V30 9344 O 881.956 0.163086 -1.80565 0
M  V30 9345 C 882.004 -3.32293 -1.40049 0
M  V30 9346 O 881.108 -3.26834 -2.51502 0
M  V30 9347 H 880.449 -0.637796 -0.184694 0
M  V30 9348 H 882.979 -2.04519 0.057543 0
M  V30 9349 H 882.989 -3.67936 -1.76316 0
M  V30 9350 H 881.664 -4.10123 -0.690803 0
M  V30 9351 H 880.241 -3.02872 -2.17539 0
M  V30 9352 N 882.426 0.269451 -1.5528 0
M  V30 9353 C 883.674 0.998604 -1.75705 0
M  V30 9354 C 883.995 1.86691 -0.563175 0
M  V30 9355 O 883.265 1.91305 0.421811 0
M  V30 9356 H 881.845 0.371698 -0.647958 0
M  V30 9357 H 884.507 0.292826 -1.92688 0
M  V30 9358 H 883.603 1.63348 -2.6594 0
M  V30 9359 N 883.904 1.48273 0.534124 0
M  V30 9360 C 884.867 1.6201 1.62127 0
M  V30 9361 C 885.867 0.493653 1.53035 0
M  V30 9362 O 887.057 0.759337 1.56779 0
M  V30 9363 C 884.189 1.5864 3.01739 0
M  V30 9364 H 885.382 2.58944 1.51288 0
M  V30 9365 H 882.935 1.36808 0.755861 0
M  V30 9366 H 883.67 0.631685 3.18088 0
M  V30 9367 H 883.455 2.40415 3.09747 0
M  V30 9368 H 884.945 1.71438 3.80787 0
M  V30 9369 N 885.382 -0.782676 1.36792 0
M  V30 9370 C 886.63 -1.53778 1.31136 0
M  V30 9371 C 886.951 -1.94706 -0.107014 0
M  V30 9372 O 886.221 -1.65465 -1.04872 0
M  V30 9373 H 884.801 -0.570328 0.482426 0
M  V30 9374 H 887.463 -0.932181 1.71162 0
M  V30 9375 H 886.559 -2.44224 1.94321 0
M  V30 9376 N 886.86 -1.21182 -1.00761 0
M  V30 9377 C 888.137 -0.936297 -1.71735 0
M  V30 9378 C 888.517 0.552585 -2.03739 0
M  V30 9379 O 887.865 1.51672 -1.70903 0
M  V30 9380 C 888.075 -1.81867 -2.97868 0
M  V30 9381 C 889.423 -2.06594 -3.7095 0
M  V30 9382 O 890.447 -1.79194 -3.07844 0
M  V30 9383 O 889.306 -2.5292 -4.84452 0
M  V30 9384 H 886.4 -0.350867 -0.74888 0
M  V30 9385 H 888.946 -1.32098 -1.06527 0
M  V30 9386 H 887.718 -2.82643 -2.70607 0
M  V30 9387 H 887.341 -1.43463 -3.70815 0
M  V30 9388 N 888.338 1.20213 -1.01915 0
M  V30 9389 C 889.754 1.41696 -0.734459 0
M  V30 9390 C 889.954 1.89504 0.684867 0
M  V30 9391 O 889.01 2.06556 1.45227 0
M  V30 9392 C 890.323 2.43644 -1.76233 0
M  V30 9393 C 891.871 2.57406 -1.78076 0
M  V30 9394 C 892.346 3.626 -2.79796 0
M  V30 9395 N 893.837 3.70086 -2.78551 0
M  V30 9396 C 894.572 4.51145 -3.53915 0
M  V30 9397 N 894.068 5.35988 -4.38963 0
M  V30 9398 N 895.861 4.45702 -3.425 0
M  V30 9399 H 888.012 0.874976 -1.93541 0
M  V30 9400 H 890.275 0.446647 -0.836188 0
M  V30 9401 H 889.981 2.15519 -2.77929 0
M  V30 9402 H 889.855 3.42672 -1.57657 0
M  V30 9403 H 892.242 2.8486 -0.770634 0
M  V30 9404 H 892.323 1.58565 -2.00725 0
M  V30 9405 H 891.967 3.35889 -3.80973 0
M  V30 9406 H 891.897 4.61069 -2.54407 0
M  V30 9407 H 894.388 3.09484 -2.1686 0
M  V30 9408 H 894.701 5.94932 -4.9323 0
M  V30 9409 H 893.046 5.35482 -4.4304 0
M  V30 9410 H 896.237 3.78456 -2.75478 0
M  V30 9411 H 896.41 5.08637 -4.01487 0
M  V30 9412 N 889.816 0.795718 1.36037 0
M  V30 9413 C 891.062 0.371574 1.99367 0
M  V30 9414 C 891.395 -1.0557 1.62999 0
M  V30 9415 O 890.67 -1.73051 0.887895 0
M  V30 9416 C 890.953 0.542622 3.55988 0
M  V30 9417 C 890.806 2.01404 4.0219 0
M  V30 9418 C 892.125 -0.0384527 4.40083 0
M  V30 9419 H 889.244 0.136483 0.724252 0
M  V30 9420 H 891.886 1.00323 1.61355 0
M  V30 9421 H 890.036 0.0049053 3.885 0
M  V30 9422 H 891.708 2.6133 3.80137 0
M  V30 9423 H 889.951 2.51439 3.53498 0
M  V30 9424 H 890.622 2.08466 5.11122 0
M  V30 9425 H 893.098 0.420634 4.13968 0
M  V30 9426 H 891.974 0.111214 5.48787 0
M  V30 9427 H 892.235 -1.13116 4.27384 0
M  V30 9428 N 891.294 -1.47756 0.548274 0
M  V30 9429 C 892.227 -2.26804 -0.252059 0
M  V30 9430 C 893.205 -1.3349 -0.928389 0
M  V30 9431 O 894.389 -1.6286 -0.949156 0
M  V30 9432 C 891.516 -3.10266 -1.35841 0
M  V30 9433 C 890.562 -4.1909 -0.791578 0
M  V30 9434 S 891.395 -5.34323 0.354878 0
M  V30 9435 C 892.551 -6.21348 -0.753511 0
M  V30 9436 H 892.784 -2.94336 0.418744 0
M  V30 9437 H 890.317 -1.50735 0.334413 0
M  V30 9438 H 892.275 -3.58925 -1.99207 0
M  V30 9439 H 890.936 -2.42112 -2.00101 0
M  V30 9440 H 890.129 -4.77183 -1.62212 0
M  V30 9441 H 889.731 -3.73266 -0.234274 0
M  V30 9442 H 892.023 -6.57156 -1.6478 0
M  V30 9443 H 892.966 -7.07788 -0.210141 0
M  V30 9444 H 893.374 -5.54797 -1.04216 0
M  V30 9445 N 892.772 -0.284283 -1.55015 0
M  V30 9446 C 893.72 0.615091 -2.2432 0
M  V30 9447 C 894.714 1.15051 -1.24337 0
M  V30 9448 O 895.92 1.10308 -1.4224 0
M  V30 9449 H 892.295 0.216927 -0.720033 0
M  V30 9450 H 894.266 0.00783216 -2.98399 0
M  V30 9451 C 893.015 1.78355 -2.98471 0
M  V30 9452 H 892.338 1.38076 -3.752 0
M  V30 9453 H 893.778 2.38927 -3.50271 0
M  V30 9454 C 892.237 2.67757 -2.04469 0
M  V30 9455 O 892.767 3.6838 -1.60185 0
M  V30 9456 N 890.973 2.35125 -1.70776 0
M  V30 9457 H 890.52 1.53346 -2.06985 0
M  V30 9458 H 890.478 2.95212 -1.08153 0
M  V30 9459 N 894.251 1.57596 -0.0117121 0
M  V30 9460 C 895.183 2.06025 1.0043 0
M  V30 9461 C 896.196 0.980348 1.29973 0
M  V30 9462 O 897.385 1.25691 1.26744 0
M  V30 9463 C 894.485 2.45514 2.33615 0
M  V30 9464 C 893.658 3.76378 2.22842 0
M  V30 9465 C 892.717 4.02606 3.38814 0
M  V30 9466 O 891.743 4.73108 3.16477 0
M  V30 9467 N 892.945 3.51416 4.62047 0
M  V30 9468 H 895.71 2.93811 0.591206 0
M  V30 9469 H 893.271 1.60947 0.175427 0
M  V30 9470 H 895.263 2.60166 3.09993 0
M  V30 9471 H 893.833 1.63186 2.66625 0
M  V30 9472 H 893.053 3.71691 1.313 0
M  V30 9473 H 894.341 4.62149 2.12829 0
M  V30 9474 H 893.739 2.94346 4.83091 0
M  V30 9475 H 892.296 3.71377 5.35651 0
M  V30 9476 N 895.729 -0.261212 1.5542 0
M  V30 9477 C 896.659 -1.32712 1.92119 0
M  V30 9478 C 897.64 -1.50934 0.784406 0
M  V30 9479 O 898.825 -1.63781 1.04352 0
M  V30 9480 C 895.955 -2.68453 2.20341 0
M  V30 9481 C 894.909 -2.64947 3.36136 0
M  V30 9482 C 894.235 -4.04349 3.49865 0
M  V30 9483 C 895.535 -2.23182 4.72215 0
M  V30 9484 H 897.229 -1.02245 2.81401 0
M  V30 9485 H 894.775 -0.490406 1.35392 0
M  V30 9486 H 896.728 -3.43144 2.44603 0
M  V30 9487 H 895.452 -3.00527 1.27871 0
M  V30 9488 H 894.111 -1.92714 3.11861 0
M  V30 9489 H 893.759 -4.33665 2.5484 0
M  V30 9490 H 893.459 -4.02895 4.27726 0
M  V30 9491 H 894.983 -4.80761 3.76432 0
M  V30 9492 H 896.397 -2.87599 4.95943 0
M  V30 9493 H 894.794 -2.32867 5.53076 0
M  V30 9494 H 895.864 -1.18327 4.70241 0
M  V30 9495 N 897.207 -1.48554 -0.526253 0
M  V30 9496 C 898.137 -1.66252 -1.63959 0
M  V30 9497 C 899.118 -0.511351 -1.62232 0
M  V30 9498 O 900.303 -0.744322 -1.7937 0
M  V30 9499 C 897.433 -1.70556 -3.02536 0
M  V30 9500 C 896.387 -2.8521 -3.19123 0
M  V30 9501 C 895.713 -2.74606 -4.58798 0
M  V30 9502 C 897.013 -4.26463 -3.0154 0
M  V30 9503 H 898.707 -2.59459 -1.49404 0
M  V30 9504 H 896.253 -1.24862 -0.717326 0
M  V30 9505 H 898.206 -1.81524 -3.80298 0
M  V30 9506 H 896.93 -0.739297 -3.18123 0
M  V30 9507 H 895.589 -2.73802 -2.43779 0
M  V30 9508 H 895.237 -1.75941 -4.71226 0
M  V30 9509 H 894.937 -3.51544 -4.70841 0
M  V30 9510 H 896.461 -2.87548 -5.38655 0
M  V30 9511 H 897.875 -4.38685 -3.69091 0
M  V30 9512 H 896.272 -5.04428 -3.25073 0
M  V30 9513 H 897.342 -4.42667 -1.97925 0
M  V30 9514 N 898.685 0.775411 -1.37205 0
M  V30 9515 C 899.913 1.56446 -1.35397 0
M  V30 9516 C 900.328 1.887 0.0615437 0
M  V30 9517 O 899.685 1.51178 1.02233 0
M  V30 9518 C 899.736 2.87697 -2.18889 0
M  V30 9519 O 899.457 2.56828 -3.54924 0
M  V30 9520 C 900.958 3.81944 -2.25019 0
M  V30 9521 H 898.178 0.484792 -0.463916 0
M  V30 9522 H 900.722 0.961346 -1.80495 0
M  V30 9523 H 898.877 3.44442 -1.7731 0
M  V30 9524 H 899.291 3.40851 -3.98649 0
M  V30 9525 H 900.765 4.71055 -2.87769 0
M  V30 9526 H 901.242 4.20811 -1.25757 0
M  V30 9527 H 901.848 3.3113 -2.66895 0
M  V30 9528 N 900.163 1.21714 1.00117 0
M  V30 9529 C 901.073 0.99597 2.12409 0
M  V30 9530 C 902.089 -0.0531431 1.73919 0
M  V30 9531 O 903.265 0.137757 2.00928 0
M  V30 9532 C 900.33 0.567593 3.42022 0
M  V30 9533 C 899.391 1.68936 3.94663 0
M  V30 9534 C 898.624 1.28133 5.1809 0
M  V30 9535 O 898.847 0.156574 5.70185 0
M  V30 9536 O 897.781 2.0947 5.64275 0
M  V30 9537 H 901.607 1.93657 2.33946 0
M  V30 9538 H 899.192 1.00236 1.10784 0
M  V30 9539 H 901.074 0.338664 4.20037 0
M  V30 9540 H 899.749 -0.34424 3.21864 0
M  V30 9541 H 898.656 1.97274 3.17858 0
M  V30 9542 H 899.989 2.57876 4.19238 0
M  V30 9543 N 901.641 -1.19671 1.02551 0
M  V30 9544 C 902.89 -1.88591 0.715272 0
M  V30 9545 C 903.203 -1.80274 -0.758982 0
M  V30 9546 O 904.409 -2.44413 -1.18213 0
M  V30 9547 C 902.865 -3.38264 1.22905 0
M  V30 9548 C 902.473 -3.55146 2.73084 0
M  V30 9549 C 904.217 -4.12683 0.994649 0
M  V30 9550 C 902.124 -4.98693 3.17897 0
M  V30 9551 H 901.054 -0.706326 0.263857 0
M  V30 9552 H 903.705 -1.35322 1.23936 0
M  V30 9553 H 902.087 -3.9091 0.632892 0
M  V30 9554 H 903.261 -3.12845 3.38326 0
M  V30 9555 H 901.576 -2.94112 2.94766 0
M  V30 9556 H 904.173 -5.18536 1.30478 0
M  V30 9557 H 904.516 -4.16243 -0.0686466 0
M  V30 9558 H 905.049 -3.66164 1.55464 0
M  V30 9559 H 901.788 -5.00293 4.23542 0
M  V30 9560 H 901.308 -5.4177 2.57381 0
M  V30 9561 H 902.987 -5.67327 3.11045 0
M  V30 9562 N 903.119 -0.802921 -1.35613 0
M  V30 9563 C 904.396 -0.304993 -1.93208 0
M  V30 9564 C 904.776 1.20488 -1.73337 0
M  V30 9565 O 904.124 2.00268 -1.10022 0
M  V30 9566 C 904.334 -0.712383 -3.41652 0
M  V30 9567 C 905.682 -0.699785 -4.18794 0
M  V30 9568 O 906.706 -0.653698 -3.5015 0
M  V30 9569 O 905.565 -0.754842 -5.41262 0
M  V30 9570 H 902.659 -0.0789127 -0.823226 0
M  V30 9571 H 905.205 -0.886372 -1.44712 0
M  V30 9572 H 903.977 -1.75316 -3.49829 0
M  V30 9573 H 903.6 -0.105614 -3.9746 0
M  V30 9574 N 904.597 1.47463 -0.556102 0
M  V30 9575 C 905.845 2.02075 -0.0315712 0
M  V30 9576 C 906.166 1.43292 1.32259 0
M  V30 9577 O 905.436 0.60771 1.86236 0
M  V30 9578 H 904.016 0.74695 -0.0086816 0
M  V30 9579 H 906.678 1.80879 -0.725859 0
M  V30 9580 H 905.774 3.12047 0.0573538 0
M  V30 9581 N 906.075 0.2925 1.54862 0
M  V30 9582 C 907.321 -0.319736 2.00264 0
M  V30 9583 C 907.654 -1.5419 1.18064 0
M  V30 9584 O 906.929 -1.92821 0.254983 0
M  V30 9585 C 907.212 -0.684753 3.5353 0
M  V30 9586 C 907.065 0.545961 4.46474 0
M  V30 9587 C 908.384 -1.51456 4.13218 0
M  V30 9588 H 905.503 -0.11474 0.728014 0
M  V30 9589 H 908.145 0.402907 1.85679 0
M  V30 9590 H 906.295 -1.30044 3.66089 0
M  V30 9591 H 907.967 1.18448 4.45834 0
M  V30 9592 H 906.21 1.1808 4.1742 0
M  V30 9593 H 906.881 0.246544 5.51449 0
M  V30 9594 H 909.357 -0.994421 4.04043 0
M  V30 9595 H 908.233 -1.73875 5.20633 0
M  V30 9596 H 908.494 -2.5011 3.64551 0
M  V30 9597 N 907.553 -1.57587 0.0200696 0
M  V30 9598 C 908.801 -1.91046 -0.65922 0
M  V30 9599 C 909.122 -0.896197 -1.73186 0
M  V30 9600 O 908.392 0.0635952 -1.95797 0
M  V30 9601 H 906.972 -0.705163 -0.246483 0
M  V30 9602 H 909.634 -1.94789 0.0657368 0
M  V30 9603 H 908.73 -2.91399 -1.11773 0
M  V30 9604 N 909.032 0.252966 -1.55557 0
M  V30 9605 C 910.443 0.822503 -1.67606 0
M  V30 9606 C 910.794 1.86265 -0.616411 0
M  V30 9607 O 909.919 2.15082 0.238447 0
M  V30 9608 C 910.514 1.49866 -3.03852 0
M  V30 9609 C 909.073 2.01597 -3.17861 0
M  V30 9610 C 908.22 0.864943 -2.63465 0
M  V30 9611 H 911.171 0.0288958 -1.58674 0
M  V30 9612 H 911.192 2.36646 -2.97958 0
M  V30 9613 H 910.704 0.741378 -3.80953 0
M  V30 9614 H 908.805 2.80224 -2.45571 0
M  V30 9615 H 908.918 2.21752 -4.24692 0
M  V30 9616 H 907.282 1.2638 -2.21134 0
M  V30 9617 H 908.065 0.120847 -3.43087 0
M  V30 9618 N 910.51 1.48831 0.518367 0
M  V30 9619 C 911.457 1.64216 1.62178 0
M  V30 9620 C 912.427 0.483942 1.58894 0
M  V30 9621 O 913.612 0.708857 1.77144 0
M  V30 9622 C 910.752 1.69867 3.00399 0
M  V30 9623 C 909.865 2.96875 3.1383 0
M  V30 9624 C 909 2.93613 4.42679 0
M  V30 9625 C 908.039 4.15276 4.4968 0
M  V30 9626 N 907.176 4.10024 5.69934 0
M  V30 9627 H 912.016 2.58439 1.48368 0
M  V30 9628 H 909.553 1.28154 0.722152 0
M  V30 9629 H 911.511 1.71124 3.8049 0
M  V30 9630 H 910.141 0.791249 3.12952 0
M  V30 9631 H 909.193 3.0531 2.26914 0
M  V30 9632 H 910.505 3.86863 3.14863 0
M  V30 9633 H 909.659 2.93337 5.31073 0
M  V30 9634 H 908.398 2.01375 4.44184 0
M  V30 9635 H 907.403 4.15816 3.59691 0
M  V30 9636 H 908.628 5.08687 4.49904 0
M  V30 9637 H 906.574 3.20613 5.72314 0
M  V30 9638 H 906.491 4.93728 5.72511 0
M  V30 9639 H 907.759 4.13824 6.60583 0
M  V30 9640 N 911.988 -0.768124 1.37614 0
M  V30 9641 C 912.935 -1.88151 1.33671 0
M  V30 9642 C 913.905 -1.64871 0.201645 0
M  V30 9643 O 915.09 -1.86739 0.391582 0
M  V30 9644 C 912.23 -3.25264 1.15314 0
M  V30 9645 C 911.343 -3.60473 2.38082 0
M  V30 9646 C 910.478 -4.86814 2.12569 0
M  V30 9647 C 909.517 -5.14765 3.31184 0
M  V30 9648 N 908.654 -6.32295 3.052 0
M  V30 9649 H 913.494 -1.90857 2.28862 0
M  V30 9650 H 911.031 -0.933048 1.13722 0
M  V30 9651 H 912.989 -4.04364 1.02691 0
M  V30 9652 H 911.619 -3.21924 0.237689 0
M  V30 9653 H 910.671 -2.7633 2.61431 0
M  V30 9654 H 911.983 -3.77065 3.26532 0
M  V30 9655 H 911.137 -5.73826 1.96999 0
M  V30 9656 H 909.876 -4.72333 1.21462 0
M  V30 9657 H 908.881 -4.26227 3.4729 0
M  V30 9658 H 910.106 -5.31153 4.23147 0
M  V30 9659 H 908.052 -6.19166 2.16726 0
M  V30 9660 H 907.969 -6.4932 3.87195 0
M  V30 9661 H 909.237 -7.22234 2.93254 0
M  V30 9662 N 913.466 -1.22244 -0.994698 0
M  V30 9663 C 914.414 -0.988118 -2.10568 0
M  V30 9664 C 915.408 0.0681541 -1.69263 0
M  V30 9665 O 916.614 -0.0841311 -1.79803 0
M  V30 9666 H 912.989 -0.302343 -0.688544 0
M  V30 9667 H 914.96 -1.93091 -2.27505 0
M  V30 9668 C 913.709 -0.580557 -3.42819 0
M  V30 9669 H 913.032 -1.385 -3.75044 0
M  V30 9670 H 914.472 -0.456004 -4.21541 0
M  V30 9671 C 912.931 0.709692 -3.2934 0
M  V30 9672 O 913.461 1.76259 -3.60965 0
M  V30 9673 N 911.667 0.680155 -2.82528 0
M  V30 9674 H 911.214 -0.176977 -2.56991 0
M  V30 9675 H 911.172 1.54372 -2.73892 0
M  V30 9676 N 914.944 1.19125 -1.03184 0
M  V30 9677 C 915.874 2.24675 -0.635889 0
M  V30 9678 C 916.855 1.66321 0.356565 0
M  V30 9679 O 918.04 1.92728 0.238625 0
M  V30 9680 C 915.17 3.47298 0.011069 0
M  V30 9681 C 914.124 4.18345 -0.903979 0
M  V30 9682 C 913.45 5.34561 -0.12197 0
M  V30 9683 C 914.75 4.72816 -2.21907 0
M  V30 9684 H 916.444 2.5805 -1.51825 0
M  V30 9685 H 913.99 1.24039 -0.73146 0
M  V30 9686 H 915.943 4.20333 0.299729 0
M  V30 9687 H 914.667 3.13131 0.928245 0
M  V30 9688 H 913.326 3.47196 -1.17688 0
M  V30 9689 H 912.974 4.9664 0.797334 0
M  V30 9690 H 912.674 5.83029 -0.731498 0
M  V30 9691 H 914.198 6.10391 0.159881 0
M  V30 9692 H 915.612 5.3759 -1.99173 0
M  V30 9693 H 914.009 5.31782 -2.78078 0
M  V30 9694 H 915.079 3.9072 -2.87168 0
M  V30 9695 N 916.422 0.810101 1.35185 0
M  V30 9696 C 917.669 0.392117 1.98667 0
M  V30 9697 C 917.997 -1.0416 1.64259 0
M  V30 9698 O 917.252 -1.73795 0.899647 0
M  V30 9699 C 917.551 0.526561 3.535 0
M  V30 9700 C 917.217 1.92411 4.07785 0
M  V30 9701 C 915.879 2.30644 4.22323 0
M  V30 9702 C 918.231 2.83827 4.37141 0
M  V30 9703 C 915.559 3.59655 4.63536 0
M  V30 9704 C 917.911 4.12287 4.79794 0
M  V30 9705 C 916.575 4.50515 4.92536 0
M  V30 9706 H 915.845 0.143486 0.726975 0
M  V30 9707 H 918.492 1.03157 1.61341 0
M  V30 9708 H 916.797 -0.19633 3.91308 0
M  V30 9709 H 918.494 0.183871 4.00578 0
M  V30 9710 H 915.084 1.61707 3.96924 0
M  V30 9711 H 919.268 2.55536 4.25459 0
M  V30 9712 H 914.524 3.89117 4.71591 0
M  V30 9713 H 918.698 4.83221 5.01468 0
M  V30 9714 H 916.325 5.50535 5.24229 0
M  V30 9715 N 917.9 -1.47166 0.563914 0
M  V30 9716 C 919.147 -2.02456 0.042371 0
M  V30 9717 C 919.475 -1.43753 -1.31016 0
M  V30 9718 O 918.73 -0.585287 -1.86743 0
M  V30 9719 C 919.029 -3.57279 -0.0931797 0
M  V30 9720 C 918.695 -4.34932 1.18933 0
M  V30 9721 C 917.357 -4.55867 1.54073 0
M  V30 9722 C 919.709 -4.79665 2.03889 0
M  V30 9723 C 917.037 -5.18785 2.74005 0
M  V30 9724 C 919.389 -5.43907 3.23029 0
M  V30 9725 C 918.053 -5.63074 3.58475 0
M  V30 9726 H 917.323 -0.740838 0.0155047 0
M  V30 9727 H 919.97 -1.76759 0.736776 0
M  V30 9728 H 918.275 -3.82005 -0.870596 0
M  V30 9729 H 919.972 -3.97716 -0.512176 0
M  V30 9730 H 916.562 -4.18921 0.905718 0
M  V30 9731 H 920.746 -4.63264 1.78046 0
M  V30 9732 H 916.002 -5.31818 3.01628 0
M  V30 9733 H 920.176 -5.77531 3.89141 0
M  V30 9734 H 917.803 -6.11598 4.515 0
M  V30 9735 N 919.378 -0.300708 -1.54705 0
M  V30 9736 C 920.627 0.309428 -1.99312 0
M  V30 9737 C 920.94 1.55027 -1.19272 0
M  V30 9738 O 922.146 2.23498 -1.54146 0
M  V30 9739 C 920.602 0.601856 -3.54832 0
M  V30 9740 C 920.21 -0.620636 -4.4368 0
M  V30 9741 C 921.954 1.1732 -4.07966 0
M  V30 9742 C 919.861 -0.301376 -5.90632 0
M  V30 9743 H 918.791 0.119395 -0.744487 0
M  V30 9744 H 921.442 -0.409368 -1.78875 0
M  V30 9745 H 919.824 1.38024 -3.71168 0
M  V30 9746 H 920.998 -1.39685 -4.39118 0
M  V30 9747 H 919.313 -1.1106 -4.01316 0
M  V30 9748 H 921.91 1.42631 -5.15326 0
M  V30 9749 H 922.253 2.11537 -3.5855 0
M  V30 9750 H 922.786 0.456534 -3.95172 0
M  V30 9751 H 919.525 -1.21209 -6.44196 0
M  V30 9752 H 919.045 0.437574 -5.98202 0
M  V30 9753 H 920.724 0.097164 -6.46927 0
M  V30 9754 N 920.856 1.57574 -0.0284266 0
M  V30 9755 C 922.104 1.91393 0.649079 0
M  V30 9756 C 922.425 0.905368 1.72708 0
M  V30 9757 O 921.695 -0.0532107 1.95828 0
M  V30 9758 H 920.275 0.70646 0.24274 0
M  V30 9759 H 922.937 1.94752 -0.076066 0
M  V30 9760 H 922.033 2.91988 1.10226 0
M  V30 9761 N 922.334 -0.244713 1.55689 0
M  V30 9762 C 923.297 -1.2864 1.89695 0
M  V30 9763 C 924.297 -1.40969 0.773583 0
M  V30 9764 O 925.487 -1.39632 1.04156 0
M  V30 9765 C 922.619 -2.66379 2.12732 0
M  V30 9766 H 923.812 -0.997033 2.82841 0
M  V30 9767 H 921.365 -0.484103 1.48614 0
M  V30 9768 H 922.1 -3.00452 1.22062 0
M  V30 9769 H 921.885 -2.58812 2.94549 0
M  V30 9770 H 923.375 -3.41592 2.40218 0
M  V30 9771 N 923.813 -1.49104 -0.510467 0
M  V30 9772 C 925.041 -1.61806 -1.28944 0
M  V30 9773 C 925.456 -0.285774 -1.86625 0
M  V30 9774 O 924.813 0.727551 -1.67371 0
M  V30 9775 C 924.864 -2.67966 -2.42645 0
M  V30 9776 O 924.585 -3.96026 -1.87337 0
M  V30 9777 C 926.086 -2.91286 -3.34166 0
M  V30 9778 H 923.306 -0.544999 -0.391429 0
M  V30 9779 H 925.85 -1.95071 -0.613805 0
M  V30 9780 H 924.005 -2.37505 -3.06056 0
M  V30 9781 H 924.419 -4.54427 -2.61909 0
M  V30 9782 H 925.893 -3.69323 -4.1025 0
M  V30 9783 H 926.37 -2.00842 -3.90588 0
M  V30 9784 H 926.976 -3.23127 -2.76531 0
M  V30 9785 N 925.291 0.760815 -1.38019 0
M  V30 9786 C 926.239 1.89578 -1.34771 0
M  V30 9787 C 927.233 1.67766 -0.234714 0
M  V30 9788 O 928.439 1.75423 -0.403352 0
M  V30 9789 H 924.814 0.623608 -0.420258 0
M  V30 9790 H 926.785 1.89434 -2.30558 0
M  V30 9791 C 925.534 3.26976 -1.18246 0
M  V30 9792 H 924.857 3.44342 -2.03147 0
M  V30 9793 H 926.297 4.06657 -1.20026 0
M  V30 9794 C 924.756 3.36717 0.111145 0
M  V30 9795 O 925.286 3.86607 1.09079 0
M  V30 9796 N 923.492 2.90128 0.165542 0
M  V30 9797 H 923.039 2.49719 -0.632328 0
M  V30 9798 H 922.997 2.97026 1.03067 0
M  V30 9799 N 926.769 1.22769 0.988202 0
M  V30 9800 C 928.185 0.988665 1.2529 0
M  V30 9801 C 928.385 -0.314938 1.99024 0
M  V30 9802 O 927.441 -1.03637 2.30251 0
M  V30 9803 C 928.754 2.19046 2.06009 0
M  V30 9804 C 930.302 2.23452 2.19176 0
M  V30 9805 C 930.777 3.43196 3.03283 0
M  V30 9806 N 932.268 3.43387 3.10869 0
M  V30 9807 C 933.003 4.32693 3.7625 0
M  V30 9808 N 932.499 5.32224 4.43519 0
M  V30 9809 N 934.292 4.20457 3.73058 0
M  V30 9810 H 926.443 2.06575 0.494014 0
M  V30 9811 H 928.706 0.905452 0.28082 0
M  V30 9812 H 928.412 3.13607 1.59197 0
M  V30 9813 H 928.286 2.19492 3.06763 0
M  V30 9814 H 930.673 1.29436 2.65199 0
M  V30 9815 H 930.754 2.27042 1.17836 0
M  V30 9816 H 930.398 4.37515 2.57959 0
M  V30 9817 H 930.328 3.36847 4.04774 0
M  V30 9818 H 932.819 2.71368 2.62998 0
M  V30 9819 H 933.132 5.9664 4.91163 0
M  V30 9820 H 931.477 5.36133 4.42252 0
M  V30 9821 H 934.668 3.41949 3.19669 0
M  V30 9822 H 934.841 4.90261 4.23731 0
M  V30 9823 N 928.247 -1.18576 1.03814 0
M  V30 9824 C 929.658 -1.70159 0.768299 0
M  V30 9825 C 930.009 -1.8286 -0.711106 0
M  V30 9826 O 929.134 -1.5063 -1.55369 0
M  V30 9827 C 929.729 -3.09062 1.38804 0
M  V30 9828 C 928.288 -3.57866 1.16656 0
M  V30 9829 C 927.435 -2.34484 1.48029 0
M  V30 9830 H 930.386 -1.03287 1.20488 0
M  V30 9831 H 930.407 -3.72211 0.7899 0
M  V30 9832 H 929.919 -2.99785 2.46476 0
M  V30 9833 H 928.02 -3.72442 0.108471 0
M  V30 9834 H 928.133 -4.41445 1.8618 0
M  V30 9835 H 926.497 -2.38273 0.899902 0
M  V30 9836 H 927.28 -2.27829 2.56805 0
M  V30 9837 N 929.725 -0.817259 -1.34754 0
M  V30 9838 C 930.635 -0.236946 -2.334 0
M  V30 9839 C 931.651 0.625685 -1.62361 0
M  V30 9840 O 932.827 0.534921 -1.94166 0
M  V30 9841 C 929.892 0.596215 -3.41535 0
M  V30 9842 C 928.953 -0.288154 -4.28332 0
M  V30 9843 C 928.186 0.505337 -5.31302 0
M  V30 9844 O 928.409 1.73912 -5.43241 0
M  V30 9845 O 927.343 -0.109374 -6.01801 0
M  V30 9846 H 931.169 -1.05327 -2.84851 0
M  V30 9847 H 928.754 -0.579275 -1.37713 0
M  V30 9848 H 930.636 1.07041 -4.07578 0
M  V30 9849 H 929.311 1.38997 -2.92338 0
M  V30 9850 H 928.218 -0.809724 -3.65232 0
M  V30 9851 H 929.551 -1.04612 -4.80955 0
M  V30 9852 N 931.203 1.46865 -0.571711 0
M  V30 9853 C 932.133 2.3298 0.155795 0
M  V30 9854 C 933.114 1.44678 0.894553 0
M  V30 9855 O 934.299 1.73513 0.872176 0
M  V30 9856 C 931.429 3.26745 1.17708 0
M  V30 9857 C 930.383 4.24401 0.553863 0
M  V30 9858 C 929.709 5.07595 1.68083 0
M  V30 9859 C 931.009 5.19884 -0.501827 0
M  V30 9860 H 932.703 2.94056 -0.563176 0
M  V30 9861 H 930.249 1.41402 -0.27228 0
M  V30 9862 H 932.202 3.85838 1.6943 0
M  V30 9863 H 930.926 2.63753 1.92618 0
M  V30 9864 H 929.585 3.66554 0.057815 0
M  V30 9865 H 929.233 4.40996 2.41933 0
M  V30 9866 H 928.933 5.73722 1.26953 0
M  V30 9867 H 930.457 5.6955 2.20103 0
M  V30 9868 H 931.871 5.73257 -0.0701057 0
M  V30 9869 H 930.268 5.94293 -0.832815 0
M  V30 9870 H 931.338 4.64482 -1.39229 0
M  V30 9871 N 932.681 0.308908 1.54543 0
M  V30 9872 C 933.611 -0.556657 2.26768 0
M  V30 9873 C 934.592 -1.13145 1.27013 0
M  V30 9874 O 935.777 -1.15931 1.558 0
M  V30 9875 C 932.907 -1.72481 3.01443 0
M  V30 9876 C 931.861 -1.28001 4.08411 0
M  V30 9877 C 931.187 -2.53395 4.70845 0
M  V30 9878 C 932.487 -0.405497 5.20724 0
M  V30 9879 H 934.181 0.0457618 2.99365 0
M  V30 9880 H 931.727 0.0234495 1.43981 0
M  V30 9881 H 933.68 -2.3365 3.50693 0
M  V30 9882 H 932.404 -2.35359 2.26437 0
M  V30 9883 H 931.063 -0.69133 3.60022 0
M  V30 9884 H 930.711 -3.14604 3.92471 0
M  V30 9885 H 930.411 -2.2433 5.43093 0
M  V30 9886 H 931.935 -3.15352 5.22863 0
M  V30 9887 H 933.349 -0.923076 5.6582 0
M  V30 9888 H 931.746 -0.208282 5.99738 0
M  V30 9889 H 932.816 0.567412 4.81569 0
M  V30 9890 N 934.159 -1.57557 0.0367827 0
M  V30 9891 C 935.436 -1.83427 -0.679261 0
M  V30 9892 C 935.816 -0.922274 -1.89888 0
M  V30 9893 O 935.164 0.02025 -2.28491 0
M  V30 9894 C 935.374 -3.32823 -1.05022 0
M  V30 9895 C 936.722 -3.99486 -1.43861 0
M  V30 9896 O 937.746 -3.37364 -1.14297 0
M  V30 9897 O 936.605 -5.0899 -1.98977 0
M  V30 9898 H 933.699 -0.756581 -0.333936 0
M  V30 9899 H 936.245 -1.69575 0.0650494 0
M  V30 9900 H 935.017 -3.90874 -0.182509 0
M  V30 9901 H 934.64 -3.5181 -1.85244 0
M  V30 9902 N 935.637 0.236453 -1.55816 0
M  V30 9903 C 936.547 1.31418 -1.94336 0
M  V30 9904 C 937.563 1.52095 -0.845164 0
M  V30 9905 O 938.739 1.65515 -1.14746 0
M  V30 9906 C 935.804 2.6468 -2.23932 0
M  V30 9907 C 934.865 2.52435 -3.47239 0
M  V30 9908 C 934.098 3.79342 -3.75414 0
M  V30 9909 O 934.321 4.81694 -3.05495 0
M  V30 9910 O 933.255 3.77347 -4.68927 0
M  V30 9911 H 937.081 1.01739 -2.86152 0
M  V30 9912 H 934.666 0.438084 -1.42833 0
M  V30 9913 H 936.548 3.4341 -2.44228 0
M  V30 9914 H 935.223 2.94071 -1.35292 0
M  V30 9915 H 934.13 1.71955 -3.32238 0
M  V30 9916 H 935.463 2.27987 -4.36214 0
M  V30 9917 N 937.115 1.49373 0.502552 0
M  V30 9918 C 938.078 1.65413 1.58654 0
M  V30 9919 C 939.078 0.526003 1.51953 0
M  V30 9920 O 940.268 0.792421 1.55133 0
M  V30 9921 C 937.4 1.65005 2.98306 0
M  V30 9922 H 938.593 2.62095 1.45762 0
M  V30 9923 H 936.146 1.38381 0.726672 0
M  V30 9924 H 936.881 0.699014 3.16677 0
M  V30 9925 H 936.666 2.46931 3.04578 0
M  V30 9926 H 938.156 1.79477 3.77065 0
M  V30 9927 N 938.594 -0.753485 1.38421 0
M  V30 9928 C 939.524 -1.8808 1.38377 0
M  V30 9929 C 940.505 -1.68258 0.249664 0
M  V30 9930 O 941.69 -1.88848 0.45276 0
M  V30 9931 C 938.82 -3.25608 1.20818 0
M  V30 9932 C 937.774 -3.60032 2.31433 0
M  V30 9933 C 937.1 -4.96297 1.9898 0
M  V30 9934 C 938.4 -3.64898 3.73694 0
M  V30 9935 H 940.094 -1.88375 2.32713 0
M  V30 9936 H 937.64 -0.90489 1.12017 0
M  V30 9937 H 939.593 -4.04127 1.19412 0
M  V30 9938 H 938.317 -3.25793 0.229433 0
M  V30 9939 H 936.976 -2.83831 2.32025 0
M  V30 9940 H 936.624 -4.93043 0.995889 0
M  V30 9941 H 936.324 -5.20298 2.73063 0
M  V30 9942 H 937.848 -5.77196 1.99193 0
M  V30 9943 H 939.262 -4.33531 3.75132 0
M  V30 9944 H 937.659 -4.00407 4.46983 0
M  V30 9945 H 938.729 -2.65124 4.06002 0
M  V30 9946 N 940.072 -1.23292 -0.981677 0
M  V30 9947 C 941.002 -1.03738 -2.09191 0
M  V30 9948 C 941.983 0.0453041 -1.7004 0
M  V30 9949 O 943.168 -0.119092 -1.93834 0
M  V30 9950 C 940.298 -0.626426 -3.41604 0
M  V30 9951 C 939.252 -1.65631 -3.94652 0
M  V30 9952 C 938.578 -1.10084 -5.23245 0
M  V30 9953 C 939.878 -3.04903 -4.24066 0
M  V30 9954 H 941.572 -1.966 -2.25807 0
M  V30 9955 H 939.118 -0.946656 -1.0851 0
M  V30 9956 H 941.071 -0.476689 -4.18695 0
M  V30 9957 H 939.795 0.337873 -3.24848 0
M  V30 9958 H 938.454 -1.79402 -3.19704 0
M  V30 9959 H 938.102 -0.127562 -5.02838 0
M  V30 9960 H 937.802 -1.78896 -5.59705 0
M  V30 9961 H 939.326 -0.962928 -6.02959 0
M  V30 9962 H 940.74 -2.94441 -4.91912 0
M  V30 9963 H 939.137 -3.70941 -4.71724 0
M  V30 9964 H 940.207 -3.53991 -3.31389 0
M  V30 9965 N 941.55 1.18024 -1.04442 0
M  V30 9966 C 942.966 1.40107 -0.76435 0
M  V30 9967 C 943.166 1.90914 0.644516 0
M  V30 9968 O 942.222 2.0959 1.40813 0
M  V30 9969 C 943.535 2.39851 -1.81361 0
M  V30 9970 C 945.083 2.53571 -1.83496 0
M  V30 9971 C 945.558 3.56583 -2.87424 0
M  V30 9972 N 947.049 3.64094 -2.86339 0
M  V30 9973 C 947.784 4.43537 -3.63405 0
M  V30 9974 N 947.28 5.26557 -4.50233 0
M  V30 9975 N 949.073 4.38336 -3.51877 0
M  V30 9976 H 941.224 0.833726 -1.95353 0
M  V30 9977 H 943.487 0.42881 -0.845474 0
M  V30 9978 H 943.193 2.09576 -2.82438 0
M  V30 9979 H 943.067 3.39251 -1.6489 0
M  V30 9980 H 945.454 2.83161 -0.830883 0
M  V30 9981 H 945.535 1.54272 -2.04044 0
M  V30 9982 H 945.179 3.27733 -3.88012 0
M  V30 9983 H 945.109 4.55569 -2.6413 0
M  V30 9984 H 947.6 3.04814 -2.23376 0
M  V30 9985 H 947.913 5.84336 -5.05738 0
M  V30 9986 H 946.258 5.25964 -4.54298 0
M  V30 9987 H 949.449 3.72528 -2.83444 0
M  V30 9988 H 949.622 5.00007 -4.12186 0
M  V30 9989 N 943.028 0.824394 1.34319 0
M  V30 9990 C 944.439 0.471802 1.8064 0
M  V30 9991 C 944.79 -1.00793 1.6833 0
M  V30 9992 O 943.915 -1.78447 1.22416 0
M  V30 9993 C 944.51 0.849609 3.27974 0
M  V30 9994 C 943.069 0.549365 3.72369 0
M  V30 9995 C 942.216 1.06573 2.56003 0
M  V30 9996 H 945.167 1.01443 1.22045 0
M  V30 9997 H 945.188 0.153968 3.80188 0
M  V30 9998 H 944.7 1.92663 3.36902 0
M  V30 9999 H 942.801 -0.518182 3.68979 0
M  V30 10000 H 942.914 1.09446 4.66432 0
M  V30 10001 H 941.278 0.487214 2.49997 0
M  V30 10002 H 942.061 2.14923 2.677 0
M  V30 10003 N 944.506 -1.46559 0.579492 0
M  V30 10004 C 945.754 -2.02 0.0637157 0
M  V30 10005 C 946.075 -1.45378 -1.29962 0
M  V30 10006 O 945.345 -0.637262 -1.85245 0
M  V30 10007 H 943.925 -0.746717 0.0205638 0
M  V30 10008 H 946.587 -1.79702 0.754544 0
M  V30 10009 H 945.683 -3.12099 -0.00770254 0
M  V30 10010 N 945.984 -0.3171 -1.54377 0
M  V30 10011 C 947.4 0.035766 -1.5956 0
M  V30 10012 C 947.6 1.51038 -1.33378 0
M  V30 10013 O 946.656 2.26546 -1.11505 0
M  V30 10014 C 947.969 -0.376652 -2.98332 0
M  V30 10015 C 949.517 -0.326765 -3.1129 0
M  V30 10016 C 949.992 -0.714247 -4.52396 0
M  V30 10017 N 951.483 -0.667402 -4.58367 0
M  V30 10018 C 952.218 -0.939494 -5.65651 0
M  V30 10019 N 951.714 -1.27839 -6.80903 0
M  V30 10020 N 953.507 -0.865484 -5.55397 0
M  V30 10021 H 945.658 -1.27794 -1.69654 0
M  V30 10022 H 947.921 -0.5192 -0.79318 0
M  V30 10023 H 947.627 -1.40381 -3.22469 0
M  V30 10024 H 947.501 0.261611 -3.76292 0
M  V30 10025 H 949.888 0.69117 -2.86892 0
M  V30 10026 H 949.969 -0.999873 -2.35449 0
M  V30 10027 H 949.613 -1.73007 -4.77526 0
M  V30 10028 H 949.543 -0.0188962 -5.26597 0
M  V30 10029 H 952.034 -0.417062 -3.75592 0
M  V30 10030 H 952.347 -1.47155 -7.5866 0
M  V30 10031 H 950.692 -1.31658 -6.82416 0
M  V30 10032 H 953.883 -0.600265 -4.64235 0
M  V30 10033 H 954.056 -1.0809 -6.38921 0
M  V30 10034 N 947.462 1.57535 -0.0451378 0
M  V30 10035 C 948.392 2.14208 0.929372 0
M  V30 10036 C 949.373 1.06221 1.32858 0
M  V30 10037 O 950.558 1.34132 1.40436 0
M  V30 10038 C 947.688 2.68217 2.20629 0
M  V30 10039 C 946.642 3.81134 1.94734 0
M  V30 10040 C 945.968 4.21636 3.28828 0
M  V30 10041 C 947.268 5.06531 1.27374 0
M  V30 10042 H 948.962 2.95886 0.457348 0
M  V30 10043 H 946.508 1.42332 0.218544 0
M  V30 10044 H 948.461 3.06502 2.89196 0
M  V30 10045 H 947.185 1.83722 2.70026 0
M  V30 10046 H 945.844 3.43312 1.28579 0
M  V30 10047 H 945.492 3.34099 3.76014 0
M  V30 10048 H 945.192 4.97736 3.12302 0
M  V30 10049 H 946.716 4.62516 3.98637 0
M  V30 10050 H 948.13 5.423 1.85967 0
M  V30 10051 H 946.527 5.87735 1.21194 0
M  V30 10052 H 947.597 4.84261 0.248913 0
M  V30 10053 N 948.94 -0.228186 1.55939 0
M  V30 10054 C 950.217 -0.977492 1.69424 0
M  V30 10055 C 950.597 -2.02674 0.590479 0
M  V30 10056 O 949.945 -2.2491 -0.403467 0
M  V30 10057 C 950.155 -1.59394 3.10475 0
M  V30 10058 C 951.503 -2.08871 3.69673 0
M  V30 10059 O 952.527 -1.693 3.13394 0
M  V30 10060 O 951.386 -2.81584 4.68372 0
M  V30 10061 H 948.48 -0.456185 0.6898 0
M  V30 10062 H 951.026 -0.220492 1.68261 0
M  V30 10063 H 949.798 -0.835971 3.82266 0
M  V30 10064 H 949.421 -2.41665 3.15727 0
M  V30 10065 N 950.418 -1.49637 -0.494624 0
M  V30 10066 C 951.35 -1.62902 -1.61231 0
M  V30 10067 C 952.363 -0.511425 -1.54558 0
M  V30 10068 O 953.552 -0.783724 -1.60375 0
M  V30 10069 C 950.652 -1.57564 -3.00045 0
M  V30 10070 C 949.825 -2.84964 -3.31835 0
M  V30 10071 C 948.884 -2.72591 -4.5009 0
M  V30 10072 O 947.91 -3.46532 -4.51558 0
M  V30 10073 N 949.112 -1.84563 -5.50379 0
M  V30 10074 H 951.877 -2.59301 -1.50276 0
M  V30 10075 H 949.438 -1.46806 -0.68262 0
M  V30 10076 H 951.43 -1.46932 -3.77085 0
M  V30 10077 H 950 -0.689974 -3.0489 0
M  V30 10078 H 949.22 -3.099 -2.4363 0
M  V30 10079 H 950.508 -3.69412 -3.49875 0
M  V30 10080 H 949.906 -1.23758 -5.51997 0
M  V30 10081 H 948.463 -1.79849 -6.26496 0
M  V30 10082 N 951.896 0.746133 -1.38819 0
M  V30 10083 C 952.826 1.87344 -1.39372 0
M  V30 10084 C 953.807 1.68123 -0.258583 0
M  V30 10085 O 954.992 1.88606 -0.462769 0
M  V30 10086 C 952.122 3.24962 -1.22543 0
M  V30 10087 C 951.076 3.58799 -2.33339 0
M  V30 10088 C 950.402 4.95235 -2.01609 0
M  V30 10089 C 951.702 3.62911 -3.75624 0
M  V30 10090 H 953.396 1.87138 -2.33709 0
M  V30 10091 H 950.942 0.898937 -1.12495 0
M  V30 10092 H 952.895 4.03488 -1.21554 0
M  V30 10093 H 951.619 3.25667 -0.246707 0
M  V30 10094 H 950.278 2.82596 -2.33527 0
M  V30 10095 H 949.926 4.92508 -1.02202 0
M  V30 10096 H 949.626 5.18843 -2.75819 0
M  V30 10097 H 951.15 5.76131 -2.02251 0
M  V30 10098 H 952.564 4.31535 -3.77426 0
M  V30 10099 H 950.961 3.98031 -4.491 0
M  V30 10100 H 952.031 2.62967 -4.07402 0
M  V30 10101 N 953.375 1.23811 0.975125 0
M  V30 10102 C 954.624 1.06741 1.71141 0
M  V30 10103 C 954.937 -0.394986 1.9157 0
M  V30 10104 O 956.143 -0.685723 2.62698 0
M  V30 10105 C 954.599 1.86168 3.08009 0
M  V30 10106 C 954.207 3.36771 2.95448 0
M  V30 10107 C 955.951 1.77604 3.85561 0
M  V30 10108 C 953.858 4.0857 4.2758 0
M  V30 10109 H 952.788 0.395819 0.64175 0
M  V30 10110 H 955.439 1.47825 1.0872 0
M  V30 10111 H 953.821 1.37893 3.71216 0
M  V30 10112 H 954.995 3.92571 2.41298 0
M  V30 10113 H 953.31 3.46205 2.31368 0
M  V30 10114 H 955.907 2.28556 4.83391 0
M  V30 10115 H 956.25 0.739837 4.09673 0
M  V30 10116 H 956.783 2.23519 3.29065 0
M  V30 10117 H 953.522 5.12518 4.08663 0
M  V30 10118 H 953.042 3.57556 4.81574 0
M  V30 10119 H 954.721 4.15157 4.9624 0
M  V30 10120 N 954.853 -1.17469 1.05066 0
M  V30 10121 C 956.083 -1.91343 0.779202 0
M  V30 10122 C 956.491 -1.76986 -0.668764 0
M  V30 10123 O 955.834 -1.1037 -1.46848 0
M  V30 10124 C 955.896 -3.42938 1.0786 0
M  V30 10125 C 955.56 -3.81076 2.52249 0
M  V30 10126 C 956.557 -3.84027 3.50456 0
M  V30 10127 C 954.242 -4.12076 2.87225 0
M  V30 10128 C 956.236 -4.17445 4.81683 0
M  V30 10129 C 953.923 -4.45163 4.18656 0
M  V30 10130 C 954.921 -4.47825 5.15696 0
M  V30 10131 O 954.609 -4.80133 6.44769 0
M  V30 10132 H 954.341 -0.613974 0.282863 0
M  V30 10133 H 956.895 -1.49907 1.40417 0
M  V30 10134 H 955.125 -3.84662 0.39653 0
M  V30 10135 H 956.814 -3.98071 0.793357 0
M  V30 10136 H 957.58 -3.60203 3.24775 0
M  V30 10137 H 953.459 -4.09176 2.12358 0
M  V30 10138 H 957.003 -4.19437 5.57421 0
M  V30 10139 H 952.9 -4.68449 4.44101 0
M  V30 10140 H 953.668 -4.97995 6.49571 0
M  V30 10141 N 956.331 -0.831506 -1.3388 0
M  V30 10142 C 957.58 -0.420028 -1.97278 0
M  V30 10143 C 957.893 1.02441 -1.66629 0
M  V30 10144 O 959.099 1.54021 -2.23584 0
M  V30 10145 C 957.555 -0.700116 -3.53025 0
M  V30 10146 C 957.163 -2.15874 -3.92559 0
M  V30 10147 C 958.907 -0.355226 -4.23011 0
M  V30 10148 C 956.814 -2.38327 -5.41252 0
M  V30 10149 H 955.744 -0.153326 -0.738246 0
M  V30 10150 H 958.395 -1.01906 -1.52602 0
M  V30 10151 H 956.777 -0.0308044 -3.95988 0
M  V30 10152 H 957.951 -2.86792 -3.60675 0
M  V30 10153 H 956.266 -2.4659 -3.35533 0
M  V30 10154 H 958.863 -0.500701 -5.32351 0
M  V30 10155 H 959.206 0.70111 -4.10354 0
M  V30 10156 H 959.739 -0.979466 -3.85553 0
M  V30 10157 H 956.478 -3.42498 -5.58906 0
M  V30 10158 H 955.998 -1.71962 -5.74621 0
M  V30 10159 H 957.677 -2.21113 -6.08045 0
M  V30 10160 N 957.809 1.4625 -0.587256 0
M  V30 10161 C 959.22 1.85997 -0.161918 0
M  V30 10162 C 959.571 1.49025 1.27616 0
M  V30 10163 O 958.696 0.907282 1.96462 0
M  V30 10164 C 959.291 3.37582 -0.287077 0
M  V30 10165 C 957.85 3.76308 0.0834211 0
M  V30 10166 C 956.997 2.70259 -0.620932 0
M  V30 10167 H 959.948 1.3734 -0.795199 0
M  V30 10168 H 959.969 3.77379 0.486333 0
M  V30 10169 H 959.481 3.64459 -1.33383 0
M  V30 10170 H 957.582 3.55047 1.13013 0
M  V30 10171 H 957.695 4.78184 -0.296064 0
M  V30 10172 H 956.059 2.54628 -0.0607027 0
M  V30 10173 H 956.842 2.99975 -1.66942 0
M  V30 10174 N 959.287 0.325282 1.54207 0
M  V30 10175 C 960.217 -0.532574 2.27345 0
M  V30 10176 C 961.198 -1.11791 1.28206 0
M  V30 10177 O 962.383 -1.14272 1.57021 0
M  V30 10178 C 959.513 -1.69274 3.03255 0
M  V30 10179 C 958.467 -1.23662 4.09746 0
M  V30 10180 C 957.793 -2.48386 4.73506 0
M  V30 10181 C 959.093 -0.350244 5.21124 0
M  V30 10182 H 960.787 0.0775108 2.993 0
M  V30 10183 H 958.333 0.0387193 1.43948 0
M  V30 10184 H 960.286 -2.29917 3.53152 0
M  V30 10185 H 959.01 -2.32944 2.28921 0
M  V30 10186 H 957.669 -0.653106 3.60735 0
M  V30 10187 H 957.317 -3.10424 3.95786 0
M  V30 10188 H 957.017 -2.18558 5.45441 0
M  V30 10189 H 958.541 -3.09789 5.26178 0
M  V30 10190 H 959.955 -0.863011 5.66767 0
M  V30 10191 H 958.352 -0.14466 5.99926 0
M  V30 10192 H 959.422 0.618457 4.8094 0
M  V30 10193 N 960.765 -1.57509 0.0534917 0
M  V30 10194 C 962.176 -1.80374 -0.481867 0
M  V30 10195 C 962.527 -0.965917 -1.70776 0
M  V30 10196 O 961.652 -0.183167 -2.15623 0
M  V30 10197 C 962.247 -3.27146 -0.880978 0
M  V30 10198 C 960.806 -3.50921 -1.3613 0
M  V30 10199 C 959.953 -2.75237 -0.337611 0
M  V30 10200 H 962.904 -1.56222 0.279353 0
M  V30 10201 H 962.925 -3.38193 -1.74373 0
M  V30 10202 H 962.437 -3.88098 0.011441 0
M  V30 10203 H 960.538 -2.95251 -2.27283 0
M  V30 10204 H 960.651 -4.59632 -1.35186 0
M  V30 10205 H 959.015 -2.41444 -0.810991 0
M  V30 10206 H 959.798 -3.38918 0.546763 0
M  V30 10207 N 962.243 0.219913 -1.56058 0
M  V30 10208 C 963.52 0.968493 -1.6994 0
M  V30 10209 C 963.9 2.02358 -0.601219 0
M  V30 10210 O 963.248 2.25121 0.391534 0
M  V30 10211 C 963.458 1.57745 -3.11316 0
M  V30 10212 C 964.806 2.06908 -3.70775 0
M  V30 10213 O 965.83 1.67636 -3.14288 0
M  V30 10214 O 964.689 2.79096 -4.69859 0
M  V30 10215 H 961.783 0.452521 -0.692209 0
M  V30 10216 H 964.329 0.211566 -1.68376 0
M  V30 10217 H 963.101 0.815687 -3.82704 0
M  V30 10218 H 962.724 2.39987 -3.17005 0
M  V30 10219 N 963.721 1.49897 0.486681 0
M  V30 10220 C 964.651 1.7054 1.59494 0
M  V30 10221 C 965.632 0.554184 1.60819 0
M  V30 10222 O 966.817 0.791617 1.77333 0
M  V30 10223 C 963.947 1.78517 2.97908 0
M  V30 10224 C 962.901 2.93571 3.11449 0
M  V30 10225 C 962.227 2.86674 4.51356 0
M  V30 10226 C 963.527 4.34308 2.90127 0
M  V30 10227 H 965.221 2.63329 1.42472 0
M  V30 10228 H 962.767 1.2672 0.683969 0
M  V30 10229 H 964.72 1.91544 3.75352 0
M  V30 10230 H 963.444 0.823381 3.16051 0
M  V30 10231 H 962.103 2.80169 2.36433 0
M  V30 10232 H 961.751 1.88373 4.66395 0
M  V30 10233 H 961.451 3.63903 4.61355 0
M  V30 10234 H 962.975 3.01728 5.30841 0
M  V30 10235 H 964.389 4.48317 3.57331 0
M  V30 10236 H 962.786 5.12869 3.11585 0
M  V30 10237 H 963.856 4.47759 1.86119 0
M  V30 10238 N 965.199 -0.738761 1.39212 0
M  V30 10239 C 966.447 -1.49529 1.35962 0
M  V30 10240 C 966.768 -1.94948 -0.0450152 0
M  V30 10241 O 966.038 -1.68717 -0.995552 0
M  V30 10242 H 964.618 -0.554692 0.500326 0
M  V30 10243 H 967.28 -0.877255 1.74041 0
M  V30 10244 H 966.376 -2.37919 2.01993 0
M  V30 10245 N 966.677 -1.24326 -0.968545 0
M  V30 10246 C 967.64 -1.03591 -2.04454 0
M  V30 10247 C 968.64 0.0064809 -1.60799 0
M  V30 10248 O 969.83 -0.234404 -1.72616 0
M  V30 10249 C 966.962 -0.56992 -3.36102 0
M  V30 10250 H 968.155 -1.99092 -2.24282 0
M  V30 10251 H 965.708 -1.06537 -1.14366 0
M  V30 10252 H 966.443 0.388325 -3.21967 0
M  V30 10253 H 966.228 -1.32227 -3.69132 0
M  V30 10254 H 967.718 -0.445854 -4.15213 0
M  V30 10255 N 968.156 1.1691 -1.05688 0
M  V30 10256 C 969.572 1.39288 -0.779167 0
M  V30 10257 C 969.772 1.91587 0.624231 0
M  V30 10258 O 968.828 2.11072 1.38582 0
M  V30 10259 C 970.141 2.37914 -1.83895 0
M  V30 10260 C 971.689 2.51611 -1.86175 0
M  V30 10261 C 972.164 3.53514 -2.9119 0
M  V30 10262 N 973.655 3.61036 -2.90184 0
M  V30 10263 C 974.39 4.39657 -3.68088 0
M  V30 10264 N 973.886 5.21752 -4.55793 0
M  V30 10265 N 975.679 4.3458 -3.56507 0
M  V30 10266 H 967.83 0.81296 -1.96226 0
M  V30 10267 H 970.093 0.419818 -0.849975 0
M  V30 10268 H 969.799 2.06568 -2.84645 0
M  V30 10269 H 969.673 3.37483 -1.68479 0
M  V30 10270 H 972.06 2.82264 -0.86087 0
M  V30 10271 H 972.141 1.52099 -2.05668 0
M  V30 10272 H 971.785 3.23599 -3.91467 0
M  V30 10273 H 971.715 4.52742 -2.68947 0
M  V30 10274 H 974.206 3.02428 -2.26596 0
M  V30 10275 H 974.519 5.78939 -5.11907 0
M  V30 10276 H 972.864 5.21116 -4.59851 0
M  V30 10277 H 976.055 3.69501 -2.87379 0
M  V30 10278 H 976.228 4.95607 -4.17466 0
M  V30 10279 N 969.634 0.838594 1.33437 0
M  V30 10280 C 970.883 0.430484 1.97053 0
M  V30 10281 C 971.196 -1.01556 1.6717 0
M  V30 10282 O 972.402 -1.52834 2.24397 0
M  V30 10283 C 970.858 0.718828 3.52648 0
M  V30 10284 C 970.466 2.17953 3.91408 0
M  V30 10285 C 972.21 0.377654 4.22817 0
M  V30 10286 C 970.117 2.41194 5.39981 0
M  V30 10287 H 969.047 0.157239 0.737422 0
M  V30 10288 H 971.698 1.02714 1.5206 0
M  V30 10289 H 970.08 0.0518042 3.95966 0
M  V30 10290 H 971.254 2.88701 3.59149 0
M  V30 10291 H 969.569 2.48366 3.34221 0
M  V30 10292 H 972.166 0.528926 5.32077 0
M  V30 10293 H 972.509 -0.679338 4.1072 0
M  V30 10294 H 973.042 0.999899 3.85028 0
M  V30 10295 H 969.781 3.45457 5.57081 0
M  V30 10296 H 969.301 1.75007 5.73701 0
M  V30 10297 H 970.98 2.24334 6.06863 0
M  V30 10298 N 971.112 -1.45937 0.595003 0
M  V30 10299 C 972.337 -2.07207 0.0894416 0
M  V30 10300 C 972.762 -1.43884 -1.21157 0
M  V30 10301 O 972.12 -0.526998 -1.73472 0
M  V30 10302 C 972.168 -3.60565 -0.0499828 0
M  V30 10303 O 971.272 -3.97364 -1.10342 0
M  V30 10304 H 970.613 -0.660471 0.0683627 0
M  V30 10305 H 973.143 -1.87386 0.82144 0
M  V30 10306 H 973.153 -4.0722 -0.252234 0
M  V30 10307 H 971.828 -4.06044 0.90006 0
M  V30 10308 H 970.405 -3.62401 -0.878645 0
M  V30 10309 N 972.59 -0.333456 -1.54032 0
M  V30 10310 C 973.839 0.267081 -1.99924 0
M  V30 10311 C 974.152 1.52463 -1.22534 0
M  V30 10312 O 975.358 2.20178 -1.58852 0
M  V30 10313 C 973.814 0.526456 -3.56029 0
M  V30 10314 C 973.422 -0.714607 -4.42264 0
M  V30 10315 C 975.166 1.0864 -4.10363 0
M  V30 10316 C 973.073 -0.42659 -5.89859 0
M  V30 10317 H 972.003 0.103577 -0.746852 0
M  V30 10318 H 974.654 -0.447218 -1.77967 0
M  V30 10319 H 973.036 1.3012 -3.74012 0
M  V30 10320 H 974.21 -1.48968 -4.36056 0
M  V30 10321 H 972.525 -1.19547 -3.9887 0
M  V30 10322 H 975.122 1.31668 -5.18235 0
M  V30 10323 H 975.465 2.03884 -3.62956 0
M  V30 10324 H 975.998 0.37261 -3.96051 0
M  V30 10325 H 972.737 -1.34847 -6.4148 0
M  V30 10326 H 972.257 0.310588 -5.98995 0
M  V30 10327 H 973.936 -0.0400807 -6.46988 0
M  V30 10328 N 974.068 1.57479 -0.061844 0
M  V30 10329 C 974.998 2.15181 0.9066 0
M  V30 10330 C 975.979 1.07624 1.31724 0
M  V30 10331 O 977.164 1.35614 1.39006 0
M  V30 10332 C 974.294 2.70542 2.17771 0
M  V30 10333 C 973.248 3.83178 1.9068 0
M  V30 10334 C 972.574 4.25099 3.24337 0
M  V30 10335 C 973.874 5.07853 1.21994 0
M  V30 10336 H 975.568 2.96355 0.42594 0
M  V30 10337 H 973.114 1.42556 0.203435 0
M  V30 10338 H 975.067 3.09552 2.85929 0
M  V30 10339 H 973.791 1.86575 2.68062 0
M  V30 10340 H 972.45 3.44656 1.24931 0
M  V30 10341 H 972.098 3.38069 3.72449 0
M  V30 10342 H 971.798 5.01021 3.07005 0
M  V30 10343 H 973.322 4.66718 3.93709 0
M  V30 10344 H 974.736 5.44242 1.80204 0
M  V30 10345 H 973.133 5.88987 1.14954 0
M  V30 10346 H 974.203 4.84497 0.197536 0
M  V30 10347 N 975.546 -0.211634 1.56173 0
M  V30 10348 C 976.774 -0.951184 1.83739 0
M  V30 10349 C 977.189 -1.7754 0.642252 0
M  V30 10350 O 976.546 -1.78302 -0.389174 0
M  V30 10351 C 976.597 -1.86075 3.09933 0
M  V30 10352 O 976.318 -1.06983 4.24837 0
M  V30 10353 C 977.819 -2.71337 3.50559 0
M  V30 10354 H 975.039 -0.278312 0.61056 0
M  V30 10355 H 977.583 -0.223871 2.03271 0
M  V30 10356 H 975.738 -2.54189 2.92347 0
M  V30 10357 H 976.152 -1.68815 4.9659 0
M  V30 10358 H 977.626 -3.30843 4.41868 0
M  V30 10359 H 978.103 -3.44226 2.72773 0
M  V30 10360 H 978.709 -2.0862 3.70618 0
M  V30 10361 N 977.024 -1.50153 -0.478725 0
M  V30 10362 C 977.987 -1.67916 -1.56003 0
M  V30 10363 C 978.987 -0.550111 -1.51097 0
M  V30 10364 O 980.177 -0.817001 -1.53853 0
M  V30 10365 C 977.309 -1.6973 -2.95643 0
M  V30 10366 H 978.502 -2.6438 -1.41573 0
M  V30 10367 H 976.055 -1.39519 -0.704565 0
M  V30 10368 H 976.79 -0.749306 -3.15525 0
M  V30 10369 H 976.575 -2.51745 -3.00611 0
M  V30 10370 H 978.065 -1.85453 -3.74162 0
M  V30 10371 N 978.502 0.731368 -1.39602 0
M  V30 10372 C 979.751 1.48647 -1.36334 0
M  V30 10373 C 980.064 1.95565 0.0367383 0
M  V30 10374 O 981.27 2.7082 0.192017 0
M  V30 10375 C 979.726 2.68616 -2.39528 0
M  V30 10376 C 979.334 2.28632 -3.85268 0
M  V30 10377 C 981.078 3.46422 -2.45341 0
M  V30 10378 C 978.985 3.45345 -4.80095 0
M  V30 10379 H 977.915 0.558218 -0.506861 0
M  V30 10380 H 980.566 0.797467 -1.65266 0
M  V30 10381 H 978.948 3.39609 -2.03671 0
M  V30 10382 H 980.122 1.65162 -4.30184 0
M  V30 10383 H 978.437 1.63909 -3.82783 0
M  V30 10384 H 981.034 4.33241 -3.13379 0
M  V30 10385 H 981.377 3.8914 -1.47904 0
M  V30 10386 H 981.91 2.82461 -2.80108 0
M  V30 10387 H 978.649 3.07674 -5.78807 0
M  V30 10388 H 978.169 4.07784 -4.39855 0
M  V30 10389 H 979.848 4.1163 -4.99169 0
M  V30 10390 N 979.98 1.24838 0.961938 0
M  V30 10391 C 980.91 1.07053 2.07514 0
M  V30 10392 C 981.891 -0.0182465 1.7009 0
M  V30 10393 O 983.076 0.149915 1.9362 0
M  V30 10394 C 980.206 0.680693 3.40564 0
M  V30 10395 C 979.16 1.71889 3.91967 0
M  V30 10396 C 978.486 1.18395 5.21428 0
M  V30 10397 C 979.786 3.1161 4.19161 0
M  V30 10398 H 981.48 2.00167 2.22651 0
M  V30 10399 H 979.026 0.963799 1.0699 0
M  V30 10400 H 980.979 0.54324 4.17884 0
M  V30 10401 H 979.703 -0.28615 3.25344 0
M  V30 10402 H 978.362 1.84465 3.16809 0
M  V30 10403 H 978.01 0.207543 5.02572 0
M  V30 10404 H 977.71 1.87778 5.56788 0
M  V30 10405 H 979.234 1.05873 6.01351 0
M  V30 10406 H 980.648 3.0223 4.87165 0
M  V30 10407 H 979.045 3.78398 4.65763 0
M  V30 10408 H 980.115 3.59218 3.25715 0
M  V30 10409 N 981.458 -1.16348 1.06306 0
M  V30 10410 C 982.874 -1.38873 0.786543 0
M  V30 10411 C 983.074 -1.91915 -0.614061 0
M  V30 10412 O 982.13 -2.11804 -1.3746 0
M  V30 10413 C 983.443 -2.36936 1.85154 0
M  V30 10414 C 984.991 -2.5062 1.87506 0
M  V30 10415 C 985.466 -3.51965 2.9306 0
M  V30 10416 N 986.957 -3.59492 2.92095 0
M  V30 10417 C 987.692 -4.37699 3.70415 0
M  V30 10418 N 987.188 -5.19327 4.58553 0
M  V30 10419 N 988.981 -4.32683 3.58806 0
M  V30 10420 H 981.132 -0.802542 1.96655 0
M  V30 10421 H 983.395 -0.415304 0.852189 0
M  V30 10422 H 983.101 -2.05056 2.85736 0
M  V30 10423 H 982.975 -3.36585 1.70267 0
M  V30 10424 H 985.362 -2.81804 0.875827 0
M  V30 10425 H 985.443 -1.51006 2.06472 0
M  V30 10426 H 985.087 -3.21518 3.93177 0
M  V30 10427 H 985.017 -4.51309 2.71344 0
M  V30 10428 H 987.508 -3.01222 2.28197 0
M  V30 10429 H 987.821 -5.76216 5.1497 0
M  V30 10430 H 986.166 -5.1867 4.62608 0
M  V30 10431 H 989.357 -3.67971 2.89335 0
M  V30 10432 H 989.53 -4.93386 4.20088 0
M  V30 10433 N 982.937 -0.845659 -1.3299 0
M  V30 10434 C 983.884 -0.281761 -2.29074 0
M  V30 10435 C 984.854 0.606237 -1.54641 0
M  V30 10436 O 986.039 0.543063 -1.82908 0
M  V30 10437 C 983.179 0.531451 -3.40983 0
M  V30 10438 C 982.292 -0.381328 -4.30314 0
M  V30 10439 C 981.427 0.443643 -5.29344 0
M  V30 10440 C 980.466 -0.467101 -6.10315 0
M  V30 10441 N 979.603 0.320148 -7.0137 0
M  V30 10442 H 984.443 -1.10641 -2.76699 0
M  V30 10443 H 981.98 -0.55706 -1.36144 0
M  V30 10444 H 983.938 1.01848 -4.04577 0
M  V30 10445 H 982.568 1.32101 -2.94532 0
M  V30 10446 H 981.62 -0.986701 -3.6738 0
M  V30 10447 H 982.932 -1.08067 -4.86953 0
M  V30 10448 H 982.086 0.994212 -5.98498 0
M  V30 10449 H 980.825 1.17639 -4.73299 0
M  V30 10450 H 979.83 -1.02963 -5.40073 0
M  V30 10451 H 981.055 -1.19832 -6.68444 0
M  V30 10452 H 979.001 1.03615 -6.47765 0
M  V30 10453 H 978.918 -0.320338 -7.55321 0
M  V30 10454 H 980.186 0.852735 -7.74822 0
M  V30 10455 N 984.415 1.45619 -0.602734 0
M  V30 10456 C 985.655 2.0416 -0.0989764 0
M  V30 10457 C 986.019 1.4616 1.24504 0
M  V30 10458 O 987.22 1.96025 1.83923 0
M  V30 10459 C 985.491 3.57357 -0.0551869 0
M  V30 10460 S 987.05 4.3708 0.388086 0
M  V30 10461 H 983.868 0.709431 -0.0472054 0
M  V30 10462 H 986.47 1.78394 -0.799745 0
M  V30 10463 H 985.174 3.97083 -1.03697 0
M  V30 10464 H 984.705 3.87692 0.667727 0
M  V30 10465 H 986.72 4.68362 1.63865 0
M  V30 10466 N 985.893 0.34162 1.53853 0
M  V30 10467 C 987.304 -0.14269 1.86154 0
M  V30 10468 C 987.655 -1.50151 1.2629 0
M  V30 10469 O 986.78 -2.08601 0.575735 0
M  V30 10470 C 987.375 -0.265691 3.37757 0
M  V30 10471 C 985.934 -0.694231 3.69942 0
M  V30 10472 C 985.081 0.173195 2.76759 0
M  V30 10473 H 988.032 0.561284 1.48443 0
M  V30 10474 H 988.053 -1.09352 3.64448 0
M  V30 10475 H 987.565 0.723424 3.81298 0
M  V30 10476 H 985.666 -1.69244 3.31945 0
M  V30 10477 H 985.779 -0.485461 4.76634 0
M  V30 10478 H 984.143 -0.35416 2.52226 0
M  V30 10479 H 984.926 1.15941 3.23129 0
M  V30 10480 N 987.371 -1.57444 0.0701946 0
M  V30 10481 C 988.617 -1.93716 -0.600178 0
M  V30 10482 C 988.95 -0.950329 -1.69359 0
M  V30 10483 O 988.225 0.0207123 -1.94489 0
M  V30 10484 C 988.508 -3.40266 -1.17861 0
M  V30 10485 C 988.361 -4.49706 -0.0919575 0
M  V30 10486 C 989.68 -3.87599 -2.08459 0
M  V30 10487 H 986.799 -0.704421 -0.216704 0
M  V30 10488 H 989.441 -1.89514 0.135838 0
M  V30 10489 H 987.591 -3.43977 -1.80587 0
M  V30 10490 H 989.263 -4.58116 0.541031 0
M  V30 10491 H 987.506 -4.29937 0.577639 0
M  V30 10492 H 988.177 -5.49381 -0.537048 0
M  V30 10493 H 990.653 -3.85883 -1.5567 0
M  V30 10494 H 989.529 -4.90755 -2.45867 0
M  V30 10495 H 989.79 -3.25448 -2.99226 0
M  V30 10496 N 988.849 0.203349 -1.56283 0
M  V30 10497 C 989.812 1.23566 -1.93039 0
M  V30 10498 C 990.812 1.38869 -0.810687 0
M  V30 10499 O 992.002 1.36822 -1.07821 0
M  V30 10500 C 989.134 2.60645 -2.1972 0
M  V30 10501 H 990.327 0.921692 -2.85385 0
M  V30 10502 H 987.88 0.44453 -1.49845 0
M  V30 10503 H 988.615 2.9711 -1.29985 0
M  V30 10504 H 988.4 2.50911 -3.01307 0
M  V30 10505 H 989.89 3.35103 -2.4919 0
M  V30 10506 N 990.327 1.50405 0.470755 0
M  V30 10507 C 991.237 1.7208 1.59454 0
M  V30 10508 C 992.253 0.603932 1.63183 0
M  V30 10509 O 993.429 0.882296 1.81046 0
M  V30 10510 C 990.494 1.81057 2.95667 0
M  V30 10511 C 989.555 3.04792 3.02324 0
M  V30 10512 C 988.788 3.13332 4.3204 0
M  V30 10513 O 989.011 2.28655 5.22564 0
M  V30 10514 O 987.945 4.0606 4.44296 0
M  V30 10515 H 991.771 2.67343 1.44089 0
M  V30 10516 H 989.356 1.34505 0.650286 0
M  V30 10517 H 991.238 1.8914 3.76569 0
M  V30 10518 H 989.913 0.889782 3.11231 0
M  V30 10519 H 988.82 3.0221 2.205 0
M  V30 10520 H 990.153 3.96451 2.91698 0
M  V30 10521 N 991.805 -0.723954 1.39988 0
M  V30 10522 C 992.753 -1.85938 1.39749 0
M  V30 10523 C 993.747 -1.67085 0.279112 0
M  V30 10524 O 994.953 -1.74291 0.44972 0
M  V30 10525 H 991.328 -0.612246 0.436644 0
M  V30 10526 H 993.299 -1.83255 2.355 0
M  V30 10527 C 992.048 -3.23726 1.26874 0
M  V30 10528 H 991.371 -3.38835 2.12206 0
M  V30 10529 H 992.811 -4.03332 1.30765 0
M  V30 10530 C 991.27 -3.36893 -0.0218317 0
M  V30 10531 O 991.8 -3.89363 -0.987905 0
M  V30 10532 N 990.006 -2.90465 -0.0885618 0
M  V30 10533 H 989.553 -2.47954 0.698314 0
M  V30 10534 H 989.511 -2.99654 -0.951557 0
M  V30 10535 N 993.283 -1.25346 -0.955304 0
M  V30 10536 C 994.529 -1.10218 -1.70235 0
M  V30 10537 C 994.862 0.356124 -1.90907 0
M  V30 10538 O 994.137 1.26253 -1.47954 0
M  V30 10539 C 994.42 -1.85627 -3.08569 0
M  V30 10540 C 994.273 -3.39281 -2.95311 0
M  V30 10541 C 995.592 -1.63886 -4.08448 0
M  V30 10542 H 992.711 -0.401781 -0.617852 0
M  V30 10543 H 995.353 -1.5417 -1.11048 0
M  V30 10544 H 993.503 -1.48269 -3.59094 0
M  V30 10545 H 995.175 -3.8631 -2.52116 0
M  V30 10546 H 993.418 -3.67027 -2.31244 0
M  V30 10547 H 994.089 -3.87258 -3.93364 0
M  V30 10548 H 996.565 -1.96406 -3.6683 0
M  V30 10549 H 995.441 -2.19087 -5.03281 0
M  V30 10550 H 995.702 -0.580021 -4.38279 0
M  V30 10551 N 994.761 1.15782 -1.06922 0
M  V30 10552 C 996.172 1.68062 -0.813144 0
M  V30 10553 C 996.523 1.84681 0.662374 0
M  V30 10554 O 995.648 1.54696 1.51321 0
M  V30 10555 C 996.243 3.05273 -1.46949 0
M  V30 10556 C 994.802 3.54647 -1.26104 0
M  V30 10557 C 993.949 2.30477 -1.54194 0
M  V30 10558 H 996.9 1.00056 -1.23185 0
M  V30 10559 H 996.921 3.69986 -0.888308 0
M  V30 10560 H 996.433 2.93145 -2.54337 0
M  V30 10561 H 994.534 3.72024 -0.20718 0
M  V30 10562 H 994.647 4.36354 -1.97819 0
M  V30 10563 H 993.011 2.35803 -0.96276 0
M  V30 10564 H 993.794 2.2094 -2.62755 0
M  V30 10565 N 996.239 0.8527 1.3254 0
M  V30 10566 C 997.488 0.45136 1.96585 0
M  V30 10567 C 997.801 -0.997773 1.68237 0
M  V30 10568 O 999.007 -1.50445 2.26006 0
M  V30 10569 C 997.463 0.75619 3.51866 0
M  V30 10570 C 997.071 2.22092 3.89075 0
M  V30 10571 C 998.815 0.422478 4.22392 0
M  V30 10572 C 996.722 2.46908 5.37392 0
M  V30 10573 H 995.652 0.165052 0.735713 0
M  V30 10574 H 998.303 1.04321 1.50962 0
M  V30 10575 H 996.685 0.0937988 3.95889 0
M  V30 10576 H 997.859 2.92494 3.56067 0
M  V30 10577 H 996.174 2.51896 3.31568 0
M  V30 10578 H 998.771 0.58533 5.31487 0
M  V30 10579 H 999.114 -0.635737 4.11417 0
M  V30 10580 H 999.647 1.04068 3.83946 0
M  V30 10581 H 996.386 3.51346 5.53386 0
M  V30 10582 H 995.906 1.81082 5.71812 0
M  V30 10583 H 997.585 2.30758 6.0445 0
M  V30 10584 N 997.718 -1.45297 0.610449 0
M  V30 10585 C 998.995 -1.95562 0.0386189 0
M  V30 10586 C 999.375 -1.55284 -1.43004 0
M  V30 10587 O 998.723 -0.816785 -2.13403 0
M  V30 10588 C 998.933 -3.48176 0.239731 0
M  V30 10589 C 1000.28 -4.24425 0.122035 0
M  V30 10590 O 1001.3 -3.55794 0.170003 0
M  V30 10591 O 1000.16 -5.46499 0.00953695 0
M  V30 10592 H 997.258 -0.826296 -0.0341081 0
M  V30 10593 H 999.804 -1.55449 0.68071 0
M  V30 10594 H 998.576 -3.70471 1.25963 0
M  V30 10595 H 998.199 -3.95186 -0.437486 0
M  V30 10596 N 999.196 -0.349774 -1.5367 0
M  V30 10597 C 1000.44 0.244827 -2.01015 0
M  V30 10598 C 1000.77 1.50057 -1.23746 0
M  V30 10599 O 1000.03 1.9315 -0.314872 0
M  V30 10600 C 1000.32 0.598311 -3.52356 0
M  V30 10601 C 999.991 -0.56127 -4.47393 0
M  V30 10602 C 998.653 -0.879481 -4.73095 0
M  V30 10603 C 1001 -1.3389 -5.03709 0
M  V30 10604 C 998.333 -1.97758 -5.52366 0
M  V30 10605 C 1000.68 -2.4273 -5.84179 0
M  V30 10606 C 999.349 -2.75103 -6.08173 0
M  V30 10607 H 998.619 0.0895884 -0.735564 0
M  V30 10608 H 1001.27 -0.478975 -1.85413 0
M  V30 10609 H 999.571 1.40291 -3.65822 0
M  V30 10610 H 1001.27 1.07036 -3.86451 0
M  V30 10611 H 997.858 -0.303201 -4.27526 0
M  V30 10612 H 1002.04 -1.10632 -4.83812 0
M  V30 10613 H 997.298 -2.23257 -5.6918 0
M  V30 10614 H 1001.47 -3.03412 -6.26828 0
M  V30 10615 H 999.099 -3.60317 -6.69385 0
M  V30 10616 N 1000.67 1.57404 -0.0785433 0
M  V30 10617 C 1001.6 2.16131 0.883726 0
M  V30 10618 C 1002.58 1.09015 1.30575 0
M  V30 10619 O 1003.77 1.3708 1.37559 0
M  V30 10620 C 1000.9 2.72836 2.1489 0
M  V30 10621 C 999.854 3.85178 1.86605 0
M  V30 10622 C 999.18 4.28516 3.1981 0
M  V30 10623 C 1000.48 5.09118 1.16601 0
M  V30 10624 H 1002.17 2.9679 0.394484 0
M  V30 10625 H 999.72 1.42763 0.188304 0
M  V30 10626 H 1001.67 3.12567 2.8263 0
M  V30 10627 H 1000.4 1.89408 2.66068 0
M  V30 10628 H 999.056 3.45962 1.21268 0
M  V30 10629 H 998.704 3.42 3.68843 0
M  V30 10630 H 998.404 5.04249 3.01674 0
M  V30 10631 H 999.928 4.70868 3.88737 0
M  V30 10632 H 1001.34 5.46123 1.74422 0
M  V30 10633 H 999.739 5.90173 1.087 0
M  V30 10634 H 1000.81 4.8468 0.146138 0
M  V30 10635 N 1002.15 -0.195058 1.56388 0
M  V30 10636 C 1003.11 -1.2254 1.93692 0
M  V30 10637 C 1004.11 -1.38437 0.81804 0
M  V30 10638 O 1005.3 -1.36248 1.08545 0
M  V30 10639 C 1002.44 -2.59476 2.21099 0
M  V30 10640 H 1003.63 -0.906544 2.8587 0
M  V30 10641 H 1001.18 -0.436577 1.50079 0
M  V30 10642 H 1001.92 -2.96417 1.31558 0
M  V30 10643 H 1001.7 -2.4931 3.02634 0
M  V30 10644 H 1003.19 -3.33777 2.50964 0
M  V30 10645 N 1003.63 -1.50653 -0.462772 0
M  V30 10646 C 1004.56 -1.66286 -1.5774 0
M  V30 10647 C 1005.57 -0.544094 -1.53439 0
M  V30 10648 O 1006.76 -0.817566 -1.58676 0
M  V30 10649 C 1003.86 -1.63893 -2.96635 0
M  V30 10650 C 1003.04 -2.91939 -3.25716 0
M  V30 10651 C 1002.1 -2.82076 -4.44206 0
M  V30 10652 O 1001.12 -3.56032 -4.44106 0
M  V30 10653 N 1002.32 -1.96196 -5.4634 0
M  V30 10654 H 1005.09 -2.6243 -1.44742 0
M  V30 10655 H 1002.65 -1.48221 -0.651326 0
M  V30 10656 H 1004.64 -1.54897 -3.73884 0
M  V30 10657 H 1003.21 -0.75449 -3.03358 0
M  V30 10658 H 1002.43 -3.14998 -2.37002 0
M  V30 10659 H 1003.72 -3.7675 -3.4196 0
M  V30 10660 H 1003.12 -1.35439 -5.49247 0
M  V30 10661 H 1001.67 -1.93097 -6.2254 0
M  V30 10662 N 1005.11 0.71652 -1.4037 0
M  V30 10663 C 1006.06 1.8306 -1.40562 0
M  V30 10664 C 1007.03 1.64009 -0.262697 0
M  V30 10665 O 1008.21 1.85157 -0.460619 0
M  V30 10666 C 1005.35 3.2076 -1.27307 0
M  V30 10667 C 1004.46 3.51389 -2.51296 0
M  V30 10668 C 1003.6 4.78589 -2.30491 0
M  V30 10669 C 1002.64 5.02119 -3.50061 0
M  V30 10670 N 1001.77 6.20533 -3.28457 0
M  V30 10671 H 1006.61 1.82231 -2.35788 0
M  V30 10672 H 1004.15 0.890198 -1.17106 0
M  V30 10673 H 1006.11 4.00274 -1.17628 0
M  V30 10674 H 1004.74 3.2082 -0.357005 0
M  V30 10675 H 1003.79 2.66436 -2.71507 0
M  V30 10676 H 1005.1 3.64686 -3.40302 0
M  V30 10677 H 1004.26 5.66119 -2.1816 0
M  V30 10678 H 1003 4.67499 -1.38909 0
M  V30 10679 H 1002 4.13044 -3.6287 0
M  V30 10680 H 1003.23 5.15082 -4.42569 0
M  V30 10681 H 1001.17 6.10695 -2.39556 0
M  V30 10682 H 1001.09 6.34502 -4.11027 0
M  V30 10683 H 1002.36 7.10853 -3.19857 0
M  V30 10684 N 1006.59 1.25851 0.948643 0
M  V30 10685 C 1007.81 1.13711 1.72851 0
M  V30 10686 C 1008.23 -0.308471 1.86263 0
M  V30 10687 O 1007.59 -1.21175 1.36465 0
M  V30 10688 C 1007.64 1.79271 3.13918 0
M  V30 10689 O 1007.36 3.18179 3.01154 0
M  V30 10690 C 1008.86 1.72988 4.08154 0
M  V30 10691 H 1006.08 0.396334 0.541443 0
M  V30 10692 H 1008.62 1.66329 1.18974 0
M  V30 10693 H 1006.78 1.30609 3.64719 0
M  V30 10694 H 1007.19 3.50507 3.90186 0
M  V30 10695 H 1008.67 2.2351 5.04725 0
M  V30 10696 H 1009.14 0.694866 4.33668 0
M  V30 10697 H 1009.75 2.21166 3.63271 0
M  V30 10698 N 1008.06 -1.15214 1.07534 0
M  V30 10699 C 1009.03 -2.18209 0.701237 0
M  V30 10700 C 1010.03 -1.58693 -0.25946 0
M  V30 10701 O 1011.22 -1.74154 -0.0401744 0
M  V30 10702 C 1008.35 -3.40883 0.0338703 0
M  V30 10703 H 1009.54 -2.5282 1.61314 0
M  V30 10704 H 1007.1 -1.29707 0.872105 0
M  V30 10705 H 1007.83 -3.11843 -0.890187 0
M  V30 10706 H 1007.62 -3.85342 0.72486 0
M  V30 10707 H 1009.11 -4.17056 -0.213152 0
M  V30 10708 N 1009.54 -0.859717 -1.32086 0
M  V30 10709 C 1010.79 -0.464662 -1.96686 0
M  V30 10710 C 1011.11 0.98412 -1.68345 0
M  V30 10711 O 1010.38 1.68847 -0.993361 0
M  V30 10712 H 1008.96 -0.168838 -0.727669 0
M  V30 10713 H 1011.62 -1.09726 -1.61079 0
M  V30 10714 H 1010.72 -0.613904 -3.06003 0
M  V30 10715 N 1011.02 1.44971 -0.618145 0
M  V30 10716 C 1012.27 2.02159 -0.117482 0
M  V30 10717 C 1012.6 1.48517 1.2559 0
M  V30 10718 O 1011.85 0.654192 1.84442 0
M  V30 10719 C 1012.15 3.57378 -0.0394861 0
M  V30 10720 C 1011.82 4.30218 -1.34993 0
M  V30 10721 C 1010.48 4.49835 -1.70886 0
M  V30 10722 C 1012.83 4.71768 -2.21551 0
M  V30 10723 C 1010.16 5.08258 -2.9307 0
M  V30 10724 C 1012.51 5.31543 -3.42993 0
M  V30 10725 C 1011.17 5.49381 -3.79126 0
M  V30 10726 H 1010.44 0.739752 -0.0429897 0
M  V30 10727 H 1013.09 1.73903 -0.801871 0
M  V30 10728 H 1011.4 3.84973 0.728217 0
M  V30 10729 H 1013.09 3.99343 0.364213 0
M  V30 10730 H 1009.68 4.15271 -1.06057 0
M  V30 10731 H 1013.87 4.56336 -1.95117 0
M  V30 10732 H 1009.12 5.20257 -3.21158 0
M  V30 10733 H 1013.3 5.62691 -4.10308 0
M  V30 10734 H 1010.92 5.94419 -4.73888 0
M  V30 10735 N 1012.5 0.357919 1.53482 0
M  V30 10736 C 1013.72 -0.237769 2.06033 0
M  V30 10737 C 1014.15 -1.42292 1.23023 0
M  V30 10738 O 1013.51 -1.79604 0.247427 0
M  V30 10739 C 1013.55 -0.616806 3.55286 0
M  V30 10740 O 1012.66 -1.71503 3.75047 0
M  V30 10741 H 1012 -0.0364322 0.663 0
M  V30 10742 H 1014.53 0.516301 1.97979 0
M  V30 10743 H 1014.54 -0.88996 3.98175 0
M  V30 10744 H 1013.21 0.249825 4.15149 0
M  V30 10745 H 1011.79 -1.43803 3.44057 0
M  V30 10746 N 1013.98 -1.5736 0.0868897 0
M  V30 10747 C 1015.22 -1.9367 -0.577598 0
M  V30 10748 C 1015.55 -0.968844 -1.69229 0
M  V30 10749 O 1014.82 -0.0195061 -1.9589 0
M  V30 10750 H 1013.4 -0.714983 -0.216353 0
M  V30 10751 H 1016.06 -1.94335 0.148294 0
M  V30 10752 H 1015.15 -2.95877 -0.993128 0
M  V30 10753 N 1015.45 0.186762 -1.56489 0
M  V30 10754 C 1016.42 1.21511 -1.94339 0
M  V30 10755 C 1017.42 1.38001 -0.82537 0
M  V30 10756 O 1018.61 1.3567 -1.09266 0
M  V30 10757 C 1015.74 2.583 -2.22472 0
M  V30 10758 H 1016.93 0.891371 -2.86347 0
M  V30 10759 H 1014.49 0.428612 -1.50308 0
M  V30 10760 H 1015.22 2.95715 -1.33129 0
M  V30 10761 H 1015.01 2.47701 -3.03951 0
M  V30 10762 H 1016.5 3.32441 -2.5273 0
M  V30 10763 N 1016.93 1.50896 0.454776 0
M  V30 10764 C 1018.21 1.53227 1.21576 0
M  V30 10765 C 1018.59 0.286358 2.09149 0
M  V30 10766 O 1017.94 -0.729469 2.16543 0
M  V30 10767 C 1018.15 2.83693 2.03271 0
M  V30 10768 C 1019.5 3.34981 2.60908 0
M  V30 10769 O 1020.52 2.85126 2.13499 0
M  V30 10770 O 1019.38 4.21929 3.4733 0
M  V30 10771 H 1016.47 0.615306 0.552564 0
M  V30 10772 H 1019.02 1.63197 0.465266 0
M  V30 10773 H 1017.79 3.65839 1.38843 0
M  V30 10774 H 1017.41 2.76803 2.85422 0
M  V30 10775 N 1018.41 -0.709066 1.40748 0
M  V30 10776 C 1019.34 -1.83583 1.4429 0
M  V30 10777 C 1020.32 -1.67378 0.303067 0
M  V30 10778 O 1021.51 -1.87312 0.512612 0
M  V30 10779 C 1018.64 -3.21599 1.31116 0
M  V30 10780 C 1017.59 -3.52486 2.4277 0
M  V30 10781 C 1016.92 -4.89716 2.14668 0
M  V30 10782 C 1018.22 -3.52824 3.85113 0
M  V30 10783 H 1019.91 -1.80876 2.38588 0
M  V30 10784 H 1017.46 -0.868795 1.14839 0
M  V30 10785 H 1019.41 -4.00123 1.32209 0
M  V30 10786 H 1018.13 -3.24898 0.332965 0
M  V30 10787 H 1016.79 -2.76305 2.40937 0
M  V30 10788 H 1016.44 -4.89625 1.15224 0
M  V30 10789 H 1016.14 -5.11347 2.89478 0
M  V30 10790 H 1017.66 -5.70566 2.17455 0
M  V30 10791 H 1019.08 -4.21377 3.88734 0
M  V30 10792 H 1017.48 -3.85984 4.59496 0
M  V30 10793 H 1018.55 -2.52073 4.14231 0
M  V30 10794 N 1019.89 -1.26353 -0.941956 0
M  V30 10795 C 1020.85 -1.07904 -2.02211 0
M  V30 10796 C 1021.85 -0.0276283 -1.60776 0
M  V30 10797 O 1023.04 -0.270965 -1.7208 0
M  V30 10798 C 1020.17 -0.641084 -3.34818 0
M  V30 10799 H 1021.37 -2.03804 -2.20009 0
M  V30 10800 H 1018.92 -1.08939 -1.12081 0
M  V30 10801 H 1019.66 0.319943 -3.22718 0
M  V30 10802 H 1019.44 -1.40027 -3.66244 0
M  V30 10803 H 1020.93 -0.533826 -4.14174 0
M  V30 10804 N 1021.37 1.14642 -1.08144 0
M  V30 10805 C 1022.28 2.23257 -0.720668 0
M  V30 10806 C 1023.29 1.71866 0.271648 0
M  V30 10807 O 1024.47 2.01064 0.116266 0
M  V30 10808 C 1021.53 3.46447 -0.132542 0
M  V30 10809 C 1020.6 4.12789 -1.17913 0
M  V30 10810 C 1019.83 5.30099 -0.618971 0
M  V30 10811 O 1020.05 5.6762 0.562418 0
M  V30 10812 O 1018.99 5.86154 -1.36774 0
M  V30 10813 H 1022.81 2.56463 -1.62667 0
M  V30 10814 H 1020.4 1.22521 -0.854932 0
M  V30 10815 H 1022.28 4.20959 0.19277 0
M  V30 10816 H 1020.95 3.14971 0.746662 0
M  V30 10817 H 1019.86 3.40163 -1.55693 0
M  V30 10818 H 1021.19 4.48365 -2.03051 0
M  V30 10819 N 1022.85 0.866709 1.31628 0
M  V30 10820 C 1023.78 0.335762 2.31073 0
M  V30 10821 C 1024.76 -0.571597 1.60209 0
M  V30 10822 O 1025.94 -0.489306 1.87935 0
M  V30 10823 C 1023.07 -0.466416 3.44154 0
M  V30 10824 C 1022.03 0.347561 4.26586 0
M  V30 10825 C 1021.35 -0.5801 5.31544 0
M  V30 10826 C 1022.65 1.57986 4.97833 0
M  V30 10827 H 1024.35 1.16673 2.75731 0
M  V30 10828 H 1021.89 0.56248 1.3256 0
M  V30 10829 H 1023.84 -0.84836 4.12772 0
M  V30 10830 H 1022.57 -1.33086 2.98254 0
M  V30 10831 H 1021.23 0.71141 3.59631 0
M  V30 10832 H 1020.88 -1.44174 4.81895 0
M  V30 10833 H 1020.58 -0.0393965 5.87587 0
M  V30 10834 H 1022.1 -0.958958 6.03023 0
M  V30 10835 H 1023.51 1.26954 5.59067 0
M  V30 10836 H 1021.91 2.05939 5.63657 0
M  V30 10837 H 1022.98 2.3345 4.25005 0
M  V30 10838 N 1024.32 -1.44642 0.625825 0
M  V30 10839 C 1025.56 -2.03977 0.131444 0
M  V30 10840 C 1025.93 -1.48122 -1.22163 0
M  V30 10841 O 1027.13 -1.98926 -1.80781 0
M  V30 10842 C 1025.4 -3.57224 0.112032 0
M  V30 10843 S 1026.96 -4.37643 -0.318501 0
M  V30 10844 H 1023.78 -0.70859 0.0584859 0
M  V30 10845 H 1026.38 -1.77099 0.828024 0
M  V30 10846 H 1025.08 -3.95383 1.10001 0
M  V30 10847 H 1024.61 -3.88705 -0.605965 0
M  V30 10848 H 1026.63 -4.70909 -1.56393 0
M  V30 10849 N 1025.8 -0.366053 -1.5329 0
M  V30 10850 C 1026.73 0.514916 -2.23341 0
M  V30 10851 C 1027.75 1.04579 -1.24768 0
M  V30 10852 O 1028.94 0.952084 -1.50989 0
M  V30 10853 C 1026.04 1.72374 -2.91788 0
M  V30 10854 C 1025.21 1.32429 -4.16871 0
M  V30 10855 C 1024.27 2.39524 -4.68524 0
M  V30 10856 O 1023.29 2.01895 -5.32191 0
M  V30 10857 N 1024.5 3.71116 -4.46378 0
M  V30 10858 H 1027.26 -0.0851272 -2.99579 0
M  V30 10859 H 1024.82 -0.191255 -1.60766 0
M  V30 10860 H 1026.81 2.43496 -3.23252 0
M  V30 10861 H 1025.38 2.23064 -2.19 0
M  V30 10862 H 1024.6 0.442901 -3.91704 0
M  V30 10863 H 1025.89 1.03372 -4.98188 0
M  V30 10864 H 1025.29 4.04463 -3.95508 0
M  V30 10865 H 1023.85 4.38341 -4.82391 0
M  V30 10866 N 1027.28 1.57312 -0.0952337 0
M  V30 10867 C 1028.7 1.57445 0.261416 0
M  V30 10868 C 1028.9 1.10639 1.68408 0
M  V30 10869 O 1027.95 0.782912 2.40056 0
M  V30 10870 C 1029.26 3.00659 0.0497206 0
M  V30 10871 C 1030.81 3.1278 0.117459 0
M  V30 10872 C 1031.29 4.57952 -0.0662441 0
M  V30 10873 N 1032.78 4.63199 -0.0114146 0
M  V30 10874 C 1033.51 5.73255 -0.128799 0
M  V30 10875 N 1033.01 6.92146 -0.301026 0
M  V30 10876 N 1034.8 5.62056 -0.0700599 0
M  V30 10877 H 1026.95 1.86045 -1.02475 0
M  V30 10878 H 1029.22 0.858726 -0.401614 0
M  V30 10879 H 1028.92 3.39102 -0.932888 0
M  V30 10880 H 1028.8 3.68792 0.791975 0
M  V30 10881 H 1031.18 2.74209 1.09057 0
M  V30 10882 H 1031.26 2.47238 -0.656288 0
M  V30 10883 H 1030.91 4.97217 -1.03623 0
M  V30 10884 H 1030.84 5.21555 0.727198 0
M  V30 10885 H 1033.33 3.77712 0.119154 0
M  V30 10886 H 1033.64 7.71855 -0.382104 0
M  V30 10887 H 1031.99 6.94184 -0.336695 0
M  V30 10888 H 1035.18 4.68057 0.0633587 0
M  V30 10889 H 1035.35 6.4779 -0.164991 0
M  V30 10890 N 1028.76 -0.17846 1.56586 0
M  V30 10891 C 1029.72 -1.20479 1.94981 0
M  V30 10892 C 1030.72 -1.37561 0.832677 0
M  V30 10893 O 1031.91 -1.35089 1.09984 0
M  V30 10894 C 1029.04 -2.57117 2.23839 0
M  V30 10895 H 1030.24 -0.876173 2.86816 0
M  V30 10896 H 1027.79 -0.420635 1.50534 0
M  V30 10897 H 1028.52 -2.95005 1.34695 0
M  V30 10898 H 1028.31 -2.46086 3.05261 0
M  V30 10899 H 1029.8 -3.31096 2.5449 0
M  V30 10900 N 1030.24 -1.51135 -0.446768 0
M  V30 10901 C 1031.2 -1.71187 -1.52406 0
M  V30 10902 C 1032.2 -0.582037 -1.49897 0
M  V30 10903 O 1033.39 -0.849452 -1.52085 0
M  V30 10904 C 1030.52 -1.75962 -2.91976 0
M  V30 10905 H 1031.71 -2.67324 -1.35934 0
M  V30 10906 H 1029.27 -1.40982 -0.674813 0
M  V30 10907 H 1030 -0.816065 -3.13864 0
M  V30 10908 H 1029.79 -2.58065 -2.95203 0
M  V30 10909 H 1031.28 -1.93347 -3.70144 0
M  V30 10910 N 1031.71 0.701592 -1.41122 0
M  V30 10911 C 1033.13 1.01143 -1.23459 0
M  V30 10912 C 1033.33 2.01144 -0.11968 0
M  V30 10913 O 1032.39 2.47132 0.517889 0
M  V30 10914 C 1033.7 1.54179 -2.58165 0
M  V30 10915 C 1035.25 1.66093 -2.65296 0
M  V30 10916 C 1035.72 2.22532 -4.00304 0
M  V30 10917 N 1037.21 2.299 -4.0212 0
M  V30 10918 C 1037.95 2.74584 -5.0338 0
M  V30 10919 N 1037.44 3.18917 -6.15032 0
M  V30 10920 N 1039.24 2.74094 -4.90743 0
M  V30 10921 H 1031.39 0.0390087 -2.12364 0
M  V30 10922 H 1033.65 0.0798848 -0.944628 0
M  V30 10923 H 1033.36 0.881587 -3.40472 0
M  V30 10924 H 1033.23 2.52488 -2.80231 0
M  V30 10925 H 1035.62 2.31227 -1.83352 0
M  V30 10926 H 1035.7 0.663461 -2.47046 0
M  V30 10927 H 1035.34 1.58016 -4.82694 0
M  V30 10928 H 1035.27 3.2302 -4.15891 0
M  V30 10929 H 1037.76 1.98607 -3.21502 0
M  V30 10930 H 1038.08 3.5162 -6.88174 0
M  V30 10931 H 1036.42 3.1684 -6.18577 0
M  V30 10932 H 1039.61 2.38804 -4.02604 0
M  V30 10933 H 1039.79 3.086 -5.69798 0
M  V30 10934 N 1033.19 1.2685 0.935242 0
M  V30 10935 C 1034.15 1.08975 2.01636 0
M  V30 10936 C 1035.15 0.0361543 1.60759 0
M  V30 10937 O 1036.34 0.280087 1.71934 0
M  V30 10938 C 1033.48 0.658831 3.34473 0
M  V30 10939 H 1034.67 2.04968 2.18925 0
M  V30 10940 H 1032.22 1.09531 1.11501 0
M  V30 10941 H 1032.96 -0.302824 3.22883 0
M  V30 10942 H 1032.74 1.41967 3.65497 0
M  V30 10943 H 1034.23 0.555783 4.13885 0
M  V30 10944 N 1034.67 -1.14067 1.0875 0
M  V30 10945 C 1035.63 -2.17453 0.724341 0
M  V30 10946 C 1036.63 -1.58959 -0.242614 0
M  V30 10947 O 1037.82 -1.74186 -0.0217008 0
M  V30 10948 C 1034.96 -3.40828 0.0700236 0
M  V30 10949 H 1036.15 -2.51094 1.63987 0
M  V30 10950 H 1033.7 -1.28775 0.885813 0
M  V30 10951 H 1034.44 -3.1277 -0.857061 0
M  V30 10952 H 1034.22 -3.84551 0.76569 0
M  V30 10953 H 1035.71 -4.17258 -0.168905 0
M  V30 10954 N 1036.15 -0.873678 -1.31166 0
M  V30 10955 C 1037.4 -0.482577 -1.95842 0
M  V30 10956 C 1037.71 0.970881 -1.69804 0
M  V30 10957 O 1038.92 1.4683 -2.28371 0
M  V30 10958 C 1037.37 -0.812074 -3.50619 0
M  V30 10959 C 1036.98 -2.28254 -3.85492 0
M  V30 10960 C 1038.72 -0.489624 -4.21667 0
M  V30 10961 C 1036.63 -2.55426 -5.33396 0
M  V30 10962 H 1035.56 -0.176736 -0.732994 0
M  V30 10963 H 1038.21 -1.06709 -1.49283 0
M  V30 10964 H 1036.59 -0.156769 -3.9569 0
M  V30 10965 H 1037.77 -2.98122 -3.51369 0
M  V30 10966 H 1036.08 -2.5714 -3.27518 0
M  V30 10967 H 1038.68 -0.669811 -5.30488 0
M  V30 10968 H 1039.02 0.570204 -4.12376 0
M  V30 10969 H 1039.56 -1.10163 -3.82242 0
M  V30 10970 H 1036.3 -3.60106 -5.47726 0
M  V30 10971 H 1035.82 -1.90156 -5.68859 0
M  V30 10972 H 1037.49 -2.40345 -6.00702 0
M  V30 10973 N 1037.63 1.44308 -0.633487 0
M  V30 10974 C 1039.04 1.56768 -0.29931 0
M  V30 10975 C 1039.24 1.62061 1.19743 0
M  V30 10976 O 1038.3 1.56492 1.98158 0
M  V30 10977 C 1039.61 2.8382 -0.993307 0
M  V30 10978 C 1041.16 2.97536 -0.971674 0
M  V30 10979 C 1041.63 4.27393 -1.64618 0
M  V30 10980 N 1043.13 4.34212 -1.61288 0
M  V30 10981 C 1043.86 5.33415 -2.1037 0
M  V30 10982 N 1043.36 6.3901 -2.67653 0
M  V30 10983 N 1045.15 5.24939 -2.00985 0
M  V30 10984 H 1037.3 1.39115 -1.60501 0
M  V30 10985 H 1039.56 0.666804 -0.673852 0
M  V30 10986 H 1039.27 2.85902 -2.04823 0
M  V30 10987 H 1039.14 3.73422 -0.532537 0
M  V30 10988 H 1041.53 2.95005 0.0747854 0
M  V30 10989 H 1041.61 2.09276 -1.47096 0
M  V30 10990 H 1041.26 4.30683 -2.6921 0
M  V30 10991 H 1041.19 5.14515 -1.12171 0
M  V30 10992 H 1043.68 3.58519 -1.19468 0
M  V30 10993 H 1043.99 7.10994 -3.02831 0
M  V30 10994 H 1042.33 6.39689 -2.71705 0
M  V30 10995 H 1045.53 4.41357 -1.55953 0
M  V30 10996 H 1045.7 6.02097 -2.39547 0
M  V30 10997 N 1039.1 0.374177 1.53094 0
M  V30 10998 C 1040.38 -0.269632 1.93733 0
M  V30 10999 C 1040.76 -1.6566 1.30843 0
M  V30 11000 O 1040.11 -2.23598 0.470759 0
M  V30 11001 C 1040.32 -0.311204 3.4761 0
M  V30 11002 C 1041.67 -0.547432 4.21056 0
M  V30 11003 O 1042.69 -0.392053 3.54036 0
M  V30 11004 O 1041.55 -0.850645 5.39839 0
M  V30 11005 H 1038.64 -0.163723 0.810632 0
M  V30 11006 H 1041.19 0.427586 1.64225 0
M  V30 11007 H 1039.96 0.660897 3.85678 0
M  V30 11008 H 1039.59 -1.05397 3.83376 0
M  V30 11009 N 1040.58 -1.57259 0.103575 0
M  V30 11010 C 1041.55 -2.13337 -0.837859 0
M  V30 11011 C 1042.55 -1.06459 -1.20512 0
M  V30 11012 O 1043.74 -1.32307 -1.13316 0
M  V30 11013 C 1040.87 -2.66093 -2.13089 0
M  V30 11014 H 1042.06 -2.97842 -0.350775 0
M  V30 11015 H 1039.61 -1.55621 -0.145511 0
M  V30 11016 H 1040.35 -1.85133 -2.66264 0
M  V30 11017 H 1040.13 -3.44244 -1.87719 0
M  V30 11018 H 1041.62 -3.09443 -2.80419 0
M  V30 11019 N 1042.06 0.170153 -1.56679 0
M  V30 11020 C 1043.31 0.884902 -1.81252 0
M  V30 11021 C 1043.62 1.83361 -0.681024 0
M  V30 11022 O 1044.83 2.59082 -0.811722 0
M  V30 11023 C 1043.28 1.62408 -3.21172 0
M  V30 11024 C 1042.89 0.718947 -4.42194 0
M  V30 11025 C 1044.64 2.32699 -3.55037 0
M  V30 11026 C 1042.54 1.45843 -5.73135 0
M  V30 11027 H 1041.47 0.33418 -0.675899 0
M  V30 11028 H 1044.12 0.137818 -1.82982 0
M  V30 11029 H 1042.51 2.41596 -3.13763 0
M  V30 11030 H 1043.68 -0.0360521 -4.60786 0
M  V30 11031 H 1042 0.125634 -4.1621 0
M  V30 11032 H 1044.59 2.88621 -4.50114 0
M  V30 11033 H 1044.94 3.08092 -2.79974 0
M  V30 11034 H 1045.47 1.60453 -3.64005 0
M  V30 11035 H 1042.21 0.746799 -6.51232 0
M  V30 11036 H 1041.73 2.18672 -5.58518 0
M  V30 11037 H 1043.41 2.0056 -6.1513 0
M  V30 11038 N 1043.54 1.5137 0.438746 0
M  V30 11039 C 1044.82 1.54508 1.19944 0
M  V30 11040 C 1045.2 0.308525 2.08833 0
M  V30 11041 O 1044.54 -0.706461 2.17305 0
M  V30 11042 C 1044.75 2.85833 2.00251 0
M  V30 11043 C 1046.1 3.37729 2.5734 0
M  V30 11044 O 1047.13 2.87374 2.10463 0
M  V30 11045 O 1045.98 4.25589 3.42836 0
M  V30 11046 H 1043.08 0.621132 0.546007 0
M  V30 11047 H 1045.62 1.63682 0.447931 0
M  V30 11048 H 1044.4 3.67291 1.34955 0
M  V30 11049 H 1044.02 2.79815 2.8247 0
M  V30 11050 N 1045.02 -0.694098 1.41492 0
M  V30 11051 C 1045.98 -1.78976 1.43179 0
M  V30 11052 C 1046.98 -1.57539 0.322191 0
M  V30 11053 O 1048.17 -1.64185 0.582138 0
M  V30 11054 C 1045.3 -3.17368 1.2446 0
M  V30 11055 H 1046.49 -1.78874 2.40716 0
M  V30 11056 H 1044.05 -0.901867 1.27656 0
M  V30 11057 H 1044.78 -3.23109 0.277691 0
M  V30 11058 H 1044.57 -3.3433 2.04856 0
M  V30 11059 H 1046.06 -3.97345 1.28479 0
M  V30 11060 N 1046.49 -1.27344 -0.928501 0
M  V30 11061 C 1047.4 -1.11812 -2.06241 0
M  V30 11062 C 1048.42 -0.048347 -1.73933 0
M  V30 11063 O 1049.6 -0.25467 -1.99783 0
M  V30 11064 C 1046.66 -0.766036 -3.38131 0
M  V30 11065 C 1045.72 -1.91659 -3.84142 0
M  V30 11066 C 1044.96 -1.58121 -5.09738 0
M  V30 11067 O 1045.18 -0.488742 -5.68302 0
M  V30 11068 O 1044.11 -2.42013 -5.51102 0
M  V30 11069 H 1047.94 -2.06967 -2.22258 0
M  V30 11070 H 1045.52 -1.06524 -1.04752 0
M  V30 11071 H 1047.41 -0.582982 -4.17348 0
M  V30 11072 H 1046.08 0.155998 -3.23324 0
M  V30 11073 H 1044.99 -2.1547 -3.05816 0
M  V30 11074 H 1046.32 -2.8188 -4.0349 0
M  V30 11075 N 1047.97 1.13488 -1.09353 0
M  V30 11076 C 1048.88 2.2248 -0.744307 0
M  V30 11077 C 1049.9 1.72145 0.253404 0
M  V30 11078 O 1051.07 2.01176 0.0949339 0
M  V30 11079 C 1048.14 3.46286 -0.16928 0
M  V30 11080 C 1047.2 4.11516 -1.22284 0
M  V30 11081 C 1046.43 5.29412 -0.675161 0
M  V30 11082 O 1046.66 5.68185 0.502182 0
M  V30 11083 O 1045.59 5.8467 -1.42983 0
M  V30 11084 H 1049.42 2.54723 -1.65378 0
M  V30 11085 H 1047 1.21607 -0.867879 0
M  V30 11086 H 1048.88 4.2114 0.14811 0
M  V30 11087 H 1047.56 3.15745 0.713214 0
M  V30 11088 H 1046.47 3.38492 -1.59292 0
M  V30 11089 H 1047.8 4.46186 -2.07796 0
M  V30 11090 N 1049.45 0.880621 1.30701 0
M  V30 11091 C 1050.38 0.288813 2.26365 0
M  V30 11092 C 1051.36 -0.588135 1.51591 0
M  V30 11093 O 1052.55 -0.539197 1.80624 0
M  V30 11094 C 1049.67 -0.590032 3.33521 0
M  V30 11095 C 1048.72 0.217003 4.25948 0
M  V30 11096 S 1049.55 1.60246 5.10961 0
M  V30 11097 C 1050.71 0.730023 6.21628 0
M  V30 11098 H 1050.94 1.09971 2.76213 0
M  V30 11099 H 1048.47 0.67978 1.3863 0
M  V30 11100 H 1050.43 -1.09136 3.95727 0
M  V30 11101 H 1049.09 -1.37498 2.82406 0
M  V30 11102 H 1048.29 -0.453481 5.01956 0
M  V30 11103 H 1047.89 0.650803 3.68294 0
M  V30 11104 H 1050.18 -0.0548644 6.77478 0
M  V30 11105 H 1051.12 1.46157 6.92852 0
M  V30 11106 H 1051.53 0.292854 5.6374 0
M  V30 11107 N 1050.93 -1.4397 0.641131 0
M  V30 11108 C 1051.88 -2.32495 -0.0698668 0
M  V30 11109 C 1052.87 -1.47922 -0.825555 0
M  V30 11110 O 1054.08 -1.64206 -0.737323 0
M  V30 11111 H 1050.45 -0.750861 -0.0413706 0
M  V30 11112 H 1052.42 -2.90201 0.694682 0
M  V30 11113 C 1051.17 -3.32063 -1.03098 0
M  V30 11114 H 1050.5 -3.97157 -0.458923 0
M  V30 11115 H 1051.94 -3.96664 -1.49778 0
M  V30 11116 C 1050.39 -2.61743 -2.12113 0
M  V30 11117 O 1050.92 -2.42385 -3.20332 0
M  V30 11118 N 1049.13 -2.21316 -1.88328 0
M  V30 11119 H 1048.68 -2.37261 -1.00324 0
M  V30 11120 H 1048.64 -1.74594 -2.61465 0
M  V30 11121 N 1052.41 -0.382291 -1.52893 0
M  V30 11122 C 1053.35 0.456234 -2.26246 0
M  V30 11123 C 1054.32 1.06366 -1.27575 0
M  V30 11124 O 1055.51 1.09301 -1.5639 0
M  V30 11125 C 1052.65 1.5813 -3.06739 0
M  V30 11126 C 1051.76 0.997416 -4.20328 0
M  V30 11127 C 1050.9 2.09296 -4.8823 0
M  V30 11128 C 1049.94 1.4846 -5.93823 0
M  V30 11129 N 1049.07 2.51916 -6.55349 0
M  V30 11130 H 1053.91 -0.175761 -2.97481 0
M  V30 11131 H 1051.45 -0.0985046 -1.4677 0
M  V30 11132 H 1053.41 2.24426 -3.51694 0
M  V30 11133 H 1052.04 2.18371 -2.37727 0
M  V30 11134 H 1051.09 0.224251 -3.79738 0
M  V30 11135 H 1052.4 0.512784 -4.96157 0
M  V30 11136 H 1051.56 2.83377 -5.36453 0
M  V30 11137 H 1050.3 2.61116 -4.1191 0
M  V30 11138 H 1049.3 0.729001 -5.44946 0
M  V30 11139 H 1050.53 0.97443 -6.72073 0
M  V30 11140 H 1048.47 3.02919 -5.81873 0
M  V30 11141 H 1048.39 2.08188 -7.26769 0
M  V30 11142 H 1049.66 3.25649 -7.08218 0
M  V30 11143 N 1053.89 1.57202 -0.111913 0
M  V30 11144 C 1054.83 2.14936 0.840908 0
M  V30 11145 C 1055.8 1.07242 1.2684 0
M  V30 11146 O 1056.99 1.35114 1.34718 0
M  V30 11147 C 1054.13 2.74743 2.0883 0
M  V30 11148 C 1053.24 3.96723 1.70982 0
M  V30 11149 C 1052.38 4.4464 2.90634 0
M  V30 11150 C 1051.41 5.59169 2.48992 0
M  V30 11151 N 1050.55 6.01862 3.61534 0
M  V30 11152 H 1055.39 2.96034 0.341735 0
M  V30 11153 H 1052.93 1.4626 0.156993 0
M  V30 11154 H 1054.89 3.07546 2.81907 0
M  V30 11155 H 1053.52 1.96346 2.56218 0
M  V30 11156 H 1052.57 3.70127 0.878072 0
M  V30 11157 H 1053.88 4.79795 1.36373 0
M  V30 11158 H 1053.03 4.79315 3.71944 0
M  V30 11159 H 1051.77 3.60503 3.28464 0
M  V30 11160 H 1050.78 5.24106 1.66113 0
M  V30 11161 H 1052 6.45067 2.12287 0
M  V30 11162 H 1049.95 5.20667 3.99051 0
M  V30 11163 H 1049.87 6.79772 3.30827 0
M  V30 11164 H 1051.13 6.41172 4.43305 0
M  V30 11165 N 1055.36 -0.161842 1.56767 0
M  V30 11166 C 1056.59 -0.896274 1.87034 0
M  V30 11167 C 1057.01 -1.74617 0.699314 0
M  V30 11168 O 1056.37 -1.77861 -0.351435 0
M  V30 11169 C 1056.42 -1.74105 3.15784 0
M  V30 11170 O 1055.52 -2.84372 2.98674 0
M  V30 11171 H 1054.86 -0.250523 0.614926 0
M  V30 11172 H 1057.39 -0.157127 2.03996 0
M  V30 11173 H 1057.4 -2.13907 3.4743 0
M  V30 11174 H 1056.08 -1.11684 4.00624 0
M  V30 11175 H 1054.66 -2.48084 2.78404 0
M  V30 11176 N 1056.84 -1.516 -0.430713 0
M  V30 11177 C 1057.79 -1.73392 -1.52328 0
M  V30 11178 C 1058.76 -0.575758 -1.55802 0
M  V30 11179 O 1059.94 -0.810931 -1.72709 0
M  V30 11180 C 1057.08 -1.87092 -2.89984 0
M  V30 11181 C 1056.2 -3.14668 -2.95987 0
M  V30 11182 C 1055.33 -3.18923 -4.24807 0
M  V30 11183 C 1054.37 -4.40787 -4.24703 0
M  V30 11184 N 1053.51 -4.42556 -5.45059 0
M  V30 11185 H 1058.35 -2.6665 -1.33048 0
M  V30 11186 H 1055.88 -1.32146 -0.646207 0
M  V30 11187 H 1057.84 -1.93017 -3.69865 0
M  V30 11188 H 1056.47 -0.972363 -3.07807 0
M  V30 11189 H 1055.52 -3.1802 -2.08728 0
M  V30 11190 H 1056.84 -4.04562 -2.91772 0
M  V30 11191 H 1055.99 -3.23801 -5.13067 0
M  V30 11192 H 1054.73 -2.2693 -4.31688 0
M  V30 11193 H 1053.73 -4.36079 -3.34836 0
M  V30 11194 H 1054.96 -5.34053 -4.19481 0
M  V30 11195 H 1052.91 -3.53435 -5.52648 0
M  V30 11196 H 1052.82 -5.26267 -5.42751 0
M  V30 11197 H 1054.09 -4.51634 -6.35332 0
M  V30 11198 N 1058.32 0.686584 -1.41858 0
M  V30 11199 C 1059.25 1.81264 -1.47193 0
M  V30 11200 C 1060.23 1.66875 -0.329657 0
M  V30 11201 O 1061.42 1.86473 -0.542347 0
M  V30 11202 C 1058.55 3.19472 -1.36216 0
M  V30 11203 C 1057.5 3.4858 -2.48347 0
M  V30 11204 C 1056.83 4.86239 -2.22432 0
M  V30 11205 C 1058.13 3.46653 -3.90678 0
M  V30 11206 H 1059.82 1.77057 -2.41436 0
M  V30 11207 H 1057.37 0.850415 -1.16206 0
M  V30 11208 H 1059.32 3.97969 -1.38558 0
M  V30 11209 H 1058.04 3.24327 -0.384611 0
M  V30 11210 H 1056.7 2.72437 -2.45303 0
M  V30 11211 H 1056.35 4.8773 -1.22999 0
M  V30 11212 H 1056.05 5.06677 -2.97577 0
M  V30 11213 H 1057.57 5.67034 -2.26505 0
M  V30 11214 H 1058.99 4.15139 -3.95389 0
M  V30 11215 H 1057.38 3.78625 -4.65578 0
M  V30 11216 H 1058.45 2.45451 -4.18189 0
M  V30 11217 N 1059.8 1.27835 0.921735 0
M  V30 11218 C 1060.71 1.12904 2.05645 0
M  V30 11219 C 1061.72 0.0575704 1.73905 0
M  V30 11220 O 1062.9 0.265261 1.99645 0
M  V30 11221 C 1059.96 0.783957 3.3772 0
M  V30 11222 C 1059.03 1.93694 3.8312 0
M  V30 11223 C 1058.26 1.60823 5.08893 0
M  V30 11224 O 1058.48 0.518873 5.68035 0
M  V30 11225 O 1057.42 2.44932 5.49811 0
M  V30 11226 H 1061.24 2.08143 2.21157 0
M  V30 11227 H 1058.83 1.07078 1.04185 0
M  V30 11228 H 1060.71 0.605107 4.17033 0
M  V30 11229 H 1059.38 -0.138849 3.23402 0
M  V30 11230 H 1058.29 2.17089 3.04669 0
M  V30 11231 H 1059.62 2.84016 4.0199 0
M  V30 11232 N 1061.28 -1.12907 1.09954 0
M  V30 11233 C 1062.21 -2.20585 0.765799 0
M  V30 11234 C 1063.19 -1.68117 -0.258989 0
M  V30 11235 O 1064.37 -1.93792 -0.125853 0
M  V30 11236 C 1061.5 -3.46772 0.191435 0
M  V30 11237 C 1060.46 -4.12363 1.14635 0
M  V30 11238 C 1059.78 -5.3294 0.433426 0
M  V30 11239 C 1061.08 -4.59073 2.49096 0
M  V30 11240 H 1062.78 -2.48759 1.66612 0
M  V30 11241 H 1060.32 -1.19563 0.802534 0
M  V30 11242 H 1062.27 -4.21365 -0.0541535 0
M  V30 11243 H 1061 -3.18011 -0.744101 0
M  V30 11244 H 1059.66 -3.39744 1.37731 0
M  V30 11245 H 1059.31 -5.00444 -0.506422 0
M  V30 11246 H 1059.01 -5.77772 1.07018 0
M  V30 11247 H 1060.53 -6.10284 0.196267 0
M  V30 11248 H 1061.94 -5.25063 2.30177 0
M  V30 11249 H 1060.34 -5.14665 3.0861 0
M  V30 11250 H 1061.41 -3.73313 3.0946 0
M  V30 11251 N 1062.75 -0.88754 -1.30232 0
M  V30 11252 C 1063.98 -0.521562 -2.00735 0
M  V30 11253 C 1064.4 0.883247 -1.66073 0
M  V30 11254 O 1063.76 1.58581 -0.878731 0
M  V30 11255 C 1063.81 -0.706521 -3.53611 0
M  V30 11256 O 1062.91 0.246447 -4.11663 0
M  V30 11257 H 1062.25 -0.205216 -0.631492 0
M  V30 11258 H 1064.78 -1.19579 -1.66018 0
M  V30 11259 H 1064.79 -0.606501 -4.03467 0
M  V30 11260 H 1063.47 -1.73076 -3.78177 0
M  V30 11261 H 1062.05 0.0999062 -3.72766 0
M  V30 11262 N 1064.23 1.43628 -0.648757 0
M  V30 11263 C 1065.18 2.32529 0.057536 0
M  V30 11264 C 1066.17 1.48358 0.817699 0
M  V30 11265 O 1067.38 1.64595 0.728605 0
M  V30 11266 H 1063.76 0.75107 0.037388 0
M  V30 11267 H 1065.73 2.89829 -0.710062 0
M  V30 11268 C 1064.48 3.32605 1.01336 0
M  V30 11269 H 1063.8 3.97395 0.437855 0
M  V30 11270 H 1065.24 3.97453 1.47672 0
M  V30 11271 C 1063.7 2.62865 2.10722 0
M  V30 11272 O 1064.23 2.4408 3.19042 0
M  V30 11273 N 1062.43 2.22312 1.87152 0
M  V30 11274 H 1061.98 2.3779 0.990644 0
M  V30 11275 H 1061.94 1.75979 2.60536 0
M  V30 11276 N 1065.71 0.390394 1.52688 0
M  V30 11277 C 1066.66 -0.444229 2.26485 0
M  V30 11278 C 1067.63 -1.05688 1.28138 0
M  V30 11279 O 1068.81 -1.0847 1.56968 0
M  V30 11280 C 1065.95 -1.56501 3.07574 0
M  V30 11281 C 1065.07 -0.975111 4.20851 0
M  V30 11282 C 1064.2 -2.06704 4.89333 0
M  V30 11283 C 1063.24 -1.45309 5.94602 0
M  V30 11284 N 1062.38 -2.48437 6.56676 0
M  V30 11285 H 1067.22 0.191535 2.97384 0
M  V30 11286 H 1064.75 0.106287 1.46716 0
M  V30 11287 H 1066.71 -2.22558 3.52879 0
M  V30 11288 H 1065.34 -2.17107 2.38881 0
M  V30 11289 H 1064.39 -0.204109 3.79852 0
M  V30 11290 H 1065.71 -0.486465 4.96422 0
M  V30 11291 H 1064.86 -2.80528 5.37949 0
M  V30 11292 H 1063.6 -2.58928 4.13289 0
M  V30 11293 H 1062.6 -0.700091 5.45324 0
M  V30 11294 H 1063.83 -0.938775 6.7258 0
M  V30 11295 H 1061.77 -2.99829 5.83471 0
M  V30 11296 H 1061.69 -2.04331 7.27863 0
M  V30 11297 H 1062.96 -3.21888 7.09935 0
M  V30 11298 N 1067.19 -1.57141 0.120249 0
M  V30 11299 C 1068.14 -2.15379 -0.829497 0
M  V30 11300 C 1069.11 -1.07913 -1.2627 0
M  V30 11301 O 1070.29 -1.35827 -1.33999 0
M  V30 11302 C 1067.43 -2.75847 -2.0737 0
M  V30 11303 C 1066.54 -3.97624 -1.68875 0
M  V30 11304 C 1065.68 -4.46175 -2.88272 0
M  V30 11305 C 1064.72 -5.60481 -2.46023 0
M  V30 11306 N 1063.85 -6.0377 -3.58337 0
M  V30 11307 H 1068.69 -2.96211 -0.326031 0
M  V30 11308 H 1066.23 -1.46341 -0.149235 0
M  V30 11309 H 1068.19 -3.09037 -2.80272 0
M  V30 11310 H 1066.82 -1.97703 -2.55174 0
M  V30 11311 H 1065.87 -3.70588 -0.858431 0
M  V30 11312 H 1067.18 -4.80512 -1.33827 0
M  V30 11313 H 1066.34 -4.8128 -3.69397 0
M  V30 11314 H 1065.08 -3.6224 -3.26548 0
M  V30 11315 H 1064.08 -5.24979 -1.63331 0
M  V30 11316 H 1065.31 -6.46184 -2.08863 0
M  V30 11317 H 1063.25 -5.22776 -3.96284 0
M  V30 11318 H 1063.17 -6.81517 -3.27217 0
M  V30 11319 H 1064.44 -6.43514 -4.39898 0
M  V30 11320 N 1068.67 0.153526 -1.5685 0
M  V30 11321 C 1069.58 1.20932 -2.01029 0
M  V30 11322 C 1070.59 1.47401 -0.924598 0
M  V30 11323 O 1071.77 1.592 -1.23359 0
M  V30 11324 C 1068.83 2.52438 -2.37647 0
M  V30 11325 C 1067.89 2.33673 -3.60132 0
M  V30 11326 C 1067.13 3.58909 -3.94994 0
M  V30 11327 O 1067.35 4.64823 -3.30599 0
M  V30 11328 O 1066.28 3.5196 -4.8827 0
M  V30 11329 H 1070.11 0.864273 -2.91143 0
M  V30 11330 H 1067.7 0.361755 -1.44954 0
M  V30 11331 H 1069.58 3.29981 -2.62088 0
M  V30 11332 H 1068.25 2.86486 -1.5069 0
M  V30 11333 H 1067.16 1.54102 -3.40886 0
M  V30 11334 H 1068.49 2.04544 -4.47686 0
M  V30 11335 N 1070.14 1.51827 0.422667 0
M  V30 11336 C 1071.09 1.74791 1.53463 0
M  V30 11337 C 1072.09 0.614602 1.57858 0
M  V30 11338 O 1073.29 0.796336 1.61426 0
M  V30 11339 H 1069.67 0.552524 0.510118 0
M  V30 11340 H 1071.64 2.67974 1.31273 0
M  V30 11341 C 1070.39 1.90339 2.90975 0
M  V30 11342 H 1069.71 2.76958 2.8833 0
M  V30 11343 H 1071.15 2.10413 3.68106 0
M  V30 11344 C 1069.61 0.66695 3.30232 0
M  V30 11345 O 1070.14 -0.171542 4.01334 0
M  V30 11346 N 1068.35 0.506768 2.86147 0
M  V30 11347 H 1067.89 1.19019 2.28456 0
M  V30 11348 H 1067.85 -0.319247 3.12775 0
M  V30 11349 N 1071.62 -0.679052 1.4222 0
M  V30 11350 C 1072.53 -1.82221 1.47759 0
M  V30 11351 C 1073.55 -1.70092 0.3667 0
M  V30 11352 O 1074.72 -1.91718 0.616957 0
M  V30 11353 C 1071.79 -3.18332 1.37351 0
M  V30 11354 C 1070.85 -3.42449 2.58896 0
M  V30 11355 C 1070.08 -4.72067 2.48976 0
M  V30 11356 O 1070.31 -5.49683 1.5233 0
M  V30 11357 O 1069.24 -4.97333 3.39033 0
M  V30 11358 H 1073.07 -1.80504 2.44238 0
M  V30 11359 H 1070.65 -0.834251 1.23938 0
M  V30 11360 H 1072.53 -3.99563 1.33893 0
M  V30 11361 H 1071.21 -3.20696 0.439965 0
M  V30 11362 H 1070.12 -2.61083 2.6793 0
M  V30 11363 H 1071.45 -3.44912 3.51136 0
M  V30 11364 N 1073.1 -1.28322 -0.914942 0
M  V30 11365 C 1074.03 -1.07947 -2.02188 0
M  V30 11366 C 1075.05 -0.0315743 -1.62769 0
M  V30 11367 O 1076.23 -0.274503 -1.76377 0
M  V30 11368 C 1073.33 -0.61805 -3.33217 0
M  V30 11369 C 1072.51 -1.74109 -4.01254 0
M  V30 11370 C 1071.57 -1.27325 -5.10563 0
M  V30 11371 O 1070.59 -1.97526 -5.33828 0
M  V30 11372 N 1071.79 -0.1358 -5.80341 0
M  V30 11373 H 1074.56 -2.03275 -2.20225 0
M  V30 11374 H 1072.12 -1.20059 -1.08616 0
M  V30 11375 H 1074.11 -0.288693 -4.03669 0
M  V30 11376 H 1072.68 0.242348 -3.11659 0
M  V30 11377 H 1071.9 -2.2401 -3.24366 0
M  V30 11378 H 1073.19 -2.49448 -4.43456 0
M  V30 11379 H 1072.59 0.449846 -5.63909 0
M  V30 11380 H 1071.15 0.134289 -6.51662 0
M  V30 11381 N 1074.58 1.12322 -1.10551 0
M  V30 11382 C 1075.53 2.20166 -0.750317 0
M  V30 11383 C 1076.52 1.67484 0.254066 0
M  V30 11384 O 1077.73 1.79637 0.114309 0
M  V30 11385 H 1074.1 0.717642 -0.22471 0
M  V30 11386 H 1076.07 2.47378 -1.66873 0
M  V30 11387 C 1074.82 3.47126 -0.199651 0
M  V30 11388 H 1074.14 3.88011 -0.963735 0
M  V30 11389 H 1075.58 4.23999 0.0108033 0
M  V30 11390 C 1074.04 3.19526 1.06792 0
M  V30 11391 O 1074.57 3.39368 2.14923 0
M  V30 11392 N 1072.78 2.73324 0.987032 0
M  V30 11393 H 1072.33 2.57378 0.106997 0
M  V30 11394 H 1072.28 2.55234 1.83584 0
M  V30 11395 N 1076.06 0.894434 1.2976 0
M  V30 11396 C 1076.97 0.372622 2.31622 0
M  V30 11397 C 1077.98 -0.52996 1.65733 0
M  V30 11398 O 1079.16 -0.420807 1.96955 0
M  V30 11399 C 1076.22 -0.396076 3.4443 0
M  V30 11400 C 1075.28 0.537394 4.25923 0
M  V30 11401 C 1074.52 -0.194713 5.33345 0
M  V30 11402 O 1074.74 -1.41943 5.52457 0
M  V30 11403 O 1073.67 0.460055 6.00139 0
M  V30 11404 H 1077.5 1.21756 2.78225 0
M  V30 11405 H 1075.09 0.65858 1.34101 0
M  V30 11406 H 1076.97 -0.830962 4.13126 0
M  V30 11407 H 1075.64 -1.21716 2.99945 0
M  V30 11408 H 1074.55 1.02129 3.5989 0
M  V30 11409 H 1075.88 1.32475 4.74037 0
M  V30 11410 N 1077.53 -1.43282 0.656365 0
M  V30 11411 C 1078.76 -2.06125 0.178879 0
M  V30 11412 C 1079.18 -1.49216 -1.15672 0
M  V30 11413 O 1078.53 -0.624693 -1.71475 0
M  V30 11414 C 1078.59 -3.614 0.0851785 0
M  V30 11415 O 1078.31 -4.16194 1.36798 0
M  V30 11416 C 1079.81 -4.41325 -0.41801 0
M  V30 11417 H 1077.03 -0.664753 0.0913504 0
M  V30 11418 H 1079.57 -1.83733 0.897901 0
M  V30 11419 H 1077.73 -3.82966 -0.584421 0
M  V30 11420 H 1078.14 -5.09892 1.22924 0
M  V30 11421 H 1079.61 -5.50303 -0.432519 0
M  V30 11422 H 1080.09 -4.14577 -1.44991 0
M  V30 11423 H 1080.7 -4.24735 0.219208 0
M  V30 11424 N 1079.01 -0.398486 -1.52479 0
M  V30 11425 C 1079.96 0.447001 -2.28264 0
M  V30 11426 C 1080.96 1.05511 -1.32529 0
M  V30 11427 O 1082.16 0.994528 -1.5003 0
M  V30 11428 H 1078.54 0.162919 -0.73414 0
M  V30 11429 H 1080.51 -0.213534 -2.97635 0
M  V30 11430 C 1079.26 1.55724 -3.10879 0
M  V30 11431 H 1078.58 1.09864 -3.84409 0
M  V30 11432 H 1080.02 2.12286 -3.67029 0
M  V30 11433 C 1078.48 2.51853 -2.23768 0
M  V30 11434 O 1079.01 3.55483 -1.87069 0
M  V30 11435 N 1077.21 2.2181 -1.87746 0
M  V30 11436 H 1076.76 1.3757 -2.17789 0
M  V30 11437 H 1076.72 2.86376 -1.29753 0
M  V30 11438 N 1080.49 1.57075 -0.12858 0
M  V30 11439 C 1081.4 2.19369 0.831533 0
M  V30 11440 C 1082.42 1.17258 1.28555 0
M  V30 11441 O 1083.59 1.49766 1.34656 0
M  V30 11442 C 1080.66 2.78846 2.06024 0
M  V30 11443 C 1079.72 3.96024 1.65722 0
M  V30 11444 C 1078.95 4.52655 2.82735 0
M  V30 11445 O 1079.18 4.08175 3.98434 0
M  V30 11446 O 1078.11 5.43198 2.59268 0
M  V30 11447 H 1081.94 3.01887 0.331352 0
M  V30 11448 H 1079.52 1.49081 0.0975226 0
M  V30 11449 H 1081.4 3.16721 2.77967 0
M  V30 11450 H 1080.08 1.99353 2.5503 0
M  V30 11451 H 1078.98 3.62899 0.908574 0
M  V30 11452 H 1080.32 4.76981 1.21449 0
M  V30 11453 N 1081.97 -0.145205 1.5693 0
M  V30 11454 C 1082.92 -1.19841 1.99351 0
M  V30 11455 C 1083.91 -1.44371 0.886197 0
M  V30 11456 O 1085.12 -1.44642 1.07138 0
M  V30 11457 H 1081.49 -0.403437 0.63462 0
M  V30 11458 H 1083.46 -0.813932 2.87085 0
M  V30 11459 C 1082.21 -2.52377 2.39167 0
M  V30 11460 H 1081.54 -2.34332 3.23927 0
M  V30 11461 H 1082.98 -3.24694 2.72671 0
M  V30 11462 C 1081.43 -3.1305 1.24503 0
M  V30 11463 O 1081.96 -3.97962 0.546739 0
M  V30 11464 N 1080.17 -2.72528 1.00882 0
M  V30 11465 H 1079.72 -2.03576 1.57843 0
M  V30 11466 H 1079.68 -3.13456 0.24351 0
M  V30 11467 N 1083.45 -1.52049 -0.414609 0
M  V30 11468 C 1084.72 -1.56397 -1.17471 0
M  V30 11469 C 1085.1 -0.34171 -2.08316 0
M  V30 11470 O 1084.45 0.6718 -2.18401 0
M  V30 11471 C 1084.66 -2.88983 -1.95678 0
M  V30 11472 C 1086.01 -3.41781 -2.51935 0
M  V30 11473 O 1087.03 -2.90686 -2.05865 0
M  V30 11474 O 1085.89 -4.30989 -3.36022 0
M  V30 11475 H 1082.99 -0.62974 -0.536056 0
M  V30 11476 H 1085.53 -1.64374 -0.421834 0
M  V30 11477 H 1084.31 -3.69392 -1.29094 0
M  V30 11478 H 1083.93 -2.84274 -2.77983 0
M  V30 11479 N 1084.93 0.6715 -1.42579 0
M  V30 11480 C 1086.17 1.43366 -1.43436 0
M  V30 11481 C 1086.5 1.94131 -0.0517339 0
M  V30 11482 O 1085.78 1.71121 0.924548 0
M  V30 11483 C 1086.06 2.62832 -2.46154 0
M  V30 11484 C 1085.92 2.17677 -3.9362 0
M  V30 11485 C 1087.23 3.65049 -2.4582 0
M  V30 11486 H 1084.35 0.519967 -0.522306 0
M  V30 11487 H 1087 0.762849 -1.74013 0
M  V30 11488 H 1085.15 3.20062 -2.2021 0
M  V30 11489 H 1086.82 1.65588 -4.30556 0
M  V30 11490 H 1085.06 1.49219 -4.07328 0
M  V30 11491 H 1085.73 3.03503 -4.61075 0
M  V30 11492 H 1088.21 3.17541 -2.68899 0
M  V30 11493 H 1087.08 4.46213 -3.19664 0
M  V30 11494 H 1087.34 4.16401 -1.48536 0
M  V30 11495 N 1086.4 1.28806 0.908124 0
M  V30 11496 C 1087.35 1.09849 1.99793 0
M  V30 11497 C 1088.34 0.0204321 1.60887 0
M  V30 11498 O 1089.53 0.241204 1.75349 0
M  V30 11499 C 1086.66 0.768263 3.34593 0
M  V30 11500 C 1085.74 1.88544 3.79884 0
M  V30 11501 N 1086.14 3.12784 3.97492 0
M  V30 11502 C 1084.43 1.77657 4.09089 0
M  V30 11503 C 1085.13 3.85615 4.35518 0
M  V30 11504 N 1084.11 3.13501 4.44092 0
M  V30 11505 H 1087.91 2.04108 2.11464 0
M  V30 11506 H 1085.43 1.19807 1.09636 0
M  V30 11507 H 1087.42 0.613521 4.12361 0
M  V30 11508 H 1086.08 -0.166501 3.24273 0
M  V30 11509 H 1087.09 3.48333 3.83255 0
M  V30 11510 H 1083.77 0.913956 4.07373 0
M  V30 11511 H 1085.16 4.92492 4.57057 0
M  V30 11512 N 1087.88 -1.11734 1.11145 0
M  V30 11513 C 1088.83 -2.19765 0.761982 0
M  V30 11514 C 1089.82 -1.67616 -0.24518 0
M  V30 11515 O 1091.03 -1.79695 -0.104781 0
M  V30 11516 H 1087.4 -0.71644 0.228513 0
M  V30 11517 H 1089.38 -2.4649 1.68183 0
M  V30 11518 C 1088.12 -3.47016 0.218057 0
M  V30 11519 H 1087.45 -3.87494 0.984299 0
M  V30 11520 H 1088.89 -4.23998 0.0116825 0
M  V30 11521 C 1087.35 -3.20088 -1.05096 0
M  V30 11522 O 1087.88 -3.40503 -2.1312 0
M  V30 11523 N 1086.08 -2.73844 -0.972523 0
M  V30 11524 H 1085.63 -2.57431 -0.0933459 0
M  V30 11525 H 1085.59 -2.56204 -1.82228 0
M  V30 11526 N 1089.36 -0.901303 -1.29284 0
M  V30 11527 C 1090.31 -0.378666 -2.27672 0
M  V30 11528 C 1091.28 0.540102 -1.57074 0
M  V30 11529 O 1092.46 0.464997 -1.85047 0
M  V30 11530 C 1089.6 0.38635 -3.42931 0
M  V30 11531 C 1088.71 -0.563496 -4.28309 0
M  V30 11532 C 1087.85 0.218731 -5.30749 0
M  V30 11533 C 1086.89 -0.725536 -6.07785 0
M  V30 11534 N 1086.03 0.0223854 -7.02096 0
M  V30 11535 H 1090.87 -1.22277 -2.71758 0
M  V30 11536 H 1088.4 -0.614302 -1.33659 0
M  V30 11537 H 1090.36 0.845967 -4.08533 0
M  V30 11538 H 1088.99 1.1949 -2.9987 0
M  V30 11539 H 1088.04 -1.14163 -3.62865 0
M  V30 11540 H 1089.35 -1.28623 -4.81931 0
M  V30 11541 H 1088.51 0.739473 -6.02177 0
M  V30 11542 H 1087.25 0.97459 -4.77863 0
M  V30 11543 H 1086.25 -1.25776 -5.3522 0
M  V30 11544 H 1087.48 -1.48075 -6.6276 0
M  V30 11545 H 1085.42 0.760482 -6.51577 0
M  V30 11546 H 1085.34 -0.640408 -7.53283 0
M  V30 11547 H 1086.61 0.523339 -7.77741 0
M  V30 11548 N 1090.84 1.42931 -0.663954 0
M  V30 11549 C 1092.07 2.06028 -0.189808 0
M  V30 11550 C 1092.48 1.49827 1.14879 0
M  V30 11551 O 1091.84 0.633778 1.71142 0
M  V30 11552 C 1091.89 3.61349 -0.104343 0
M  V30 11553 O 1091.61 4.15463 -1.39004 0
M  V30 11554 C 1093.11 4.4154 0.394599 0
M  V30 11555 H 1090.33 0.664259 -0.0948744 0
M  V30 11556 H 1092.87 1.83255 -0.907632 0
M  V30 11557 H 1091.03 3.83271 0.564103 0
M  V30 11558 H 1091.44 5.09233 -1.25626 0
M  V30 11559 H 1092.92 5.50525 0.403329 0
M  V30 11560 H 1093.39 4.1534 1.4279 0
M  V30 11561 H 1094 4.24612 -0.241729 0
M  V30 11562 N 1092.32 0.406567 1.52266 0
M  V30 11563 C 1093.23 -0.4271 2.30679 0
M  V30 11564 C 1094.24 -1.0559 1.383 0
M  V30 11565 O 1095.42 -1.05797 1.71374 0
M  V30 11566 C 1092.48 -1.53008 3.1111 0
M  V30 11567 C 1091.54 -0.924604 4.19225 0
M  V30 11568 C 1090.78 -1.97502 4.95811 0
M  V30 11569 O 1091 -3.19277 4.72671 0
M  V30 11570 O 1089.93 -1.58268 5.80719 0
M  V30 11571 H 1093.76 0.212187 3.02958 0
M  V30 11572 H 1091.34 0.169835 1.48432 0
M  V30 11573 H 1093.23 -2.17046 3.61205 0
M  V30 11574 H 1091.9 -2.15401 2.41628 0
M  V30 11575 H 1090.81 -0.247009 3.73284 0
M  V30 11576 H 1092.14 -0.34463 4.90992 0
M  V30 11577 N 1093.79 -1.57004 0.136909 0
M  V30 11578 C 1094.73 -2.13355 -0.837405 0
M  V30 11579 C 1095.74 -1.08053 -1.21772 0
M  V30 11580 O 1096.93 -1.35365 -1.16355 0
M  V30 11581 C 1094.03 -2.63302 -2.13366 0
M  V30 11582 C 1093.2 -3.92896 -1.92228 0
M  V30 11583 C 1092.26 -4.28257 -3.05749 0
M  V30 11584 O 1091.29 -4.96761 -2.7788 0
M  V30 11585 N 1092.49 -3.87021 -4.3266 0
M  V30 11586 H 1095.25 -2.9758 -0.35586 0
M  V30 11587 H 1092.81 -1.61832 -0.0469758 0
M  V30 11588 H 1094.81 -2.83977 -2.88339 0
M  V30 11589 H 1093.38 -1.83858 -2.52814 0
M  V30 11590 H 1092.6 -3.80949 -1.01349 0
M  V30 11591 H 1093.88 -4.776 -1.75431 0
M  V30 11592 H 1093.28 -3.31804 -4.58173 0
M  V30 11593 H 1091.84 -4.12768 -5.04446 0
M  V30 11594 N 1095.27 0.136881 -1.57004 0
M  V30 11595 C 1096.2 1.19402 -1.95642 0
M  V30 11596 C 1097.22 1.38635 -0.853478 0
M  V30 11597 O 1098.41 1.38027 -1.13185 0
M  V30 11598 C 1095.51 2.55716 -2.22402 0
M  V30 11599 C 1094.68 2.57325 -3.53698 0
M  V30 11600 C 1093.74 3.75253 -3.68879 0
M  V30 11601 O 1092.76 3.5966 -4.41173 0
M  V30 11602 N 1093.97 4.93112 -3.06302 0
M  V30 11603 H 1096.73 0.865504 -2.8693 0
M  V30 11604 H 1094.29 0.326346 -1.58577 0
M  V30 11605 H 1096.28 3.33135 -2.29789 0
M  V30 11606 H 1094.85 2.80819 -1.37329 0
M  V30 11607 H 1094.07 1.65749 -3.5766 0
M  V30 11608 H 1095.36 2.55441 -4.40031 0
M  V30 11609 H 1094.76 5.08684 -2.47502 0
M  V30 11610 H 1093.32 5.68271 -3.19236 0
M  V30 11611 N 1096.75 1.52266 0.40654 0
M  V30 11612 C 1097.71 1.75168 1.47814 0
M  V30 11613 C 1098.71 0.621575 1.48301 0
M  V30 11614 O 1099.9 0.889476 1.4978 0
M  V30 11615 C 1097.04 1.83642 2.87208 0
M  V30 11616 H 1098.23 2.70834 1.28798 0
M  V30 11617 H 1095.78 1.42722 0.637196 0
M  V30 11618 H 1096.52 0.898994 3.1159 0
M  V30 11619 H 1096.3 2.65801 2.88257 0
M  V30 11620 H 1097.79 2.03093 3.64888 0
M  V30 11621 N 1098.23 -0.663929 1.42933 0
M  V30 11622 C 1099.18 -1.79843 1.4751 0
M  V30 11623 C 1100.17 -1.65751 0.349727 0
M  V30 11624 O 1101.38 -1.72227 0.523239 0
M  V30 11625 H 1097.75 -0.593176 0.462219 0
M  V30 11626 H 1099.72 -1.73102 2.4306 0
M  V30 11627 C 1098.47 -3.18053 1.4049 0
M  V30 11628 H 1097.79 -3.29529 2.26386 0
M  V30 11629 H 1099.23 -3.97423 1.47754 0
M  V30 11630 C 1097.69 -3.36682 0.121076 0
M  V30 11631 O 1098.22 -3.93202 -0.821874 0
M  V30 11632 N 1096.43 -2.90579 0.0347141 0
M  V30 11633 H 1095.98 -2.44769 0.802852 0
M  V30 11634 H 1095.93 -3.03421 -0.823607 0
M  V30 11635 N 1099.71 -1.29285 -0.901281 0
M  V30 11636 C 1100.98 -1.07847 -1.63182 0
M  V30 11637 C 1101.36 0.377927 -2.07689 0
M  V30 11638 O 1100.71 1.36642 -1.83143 0
M  V30 11639 C 1100.92 -2.06457 -2.81383 0
M  V30 11640 C 1102.27 -2.37289 -3.52107 0
M  V30 11641 O 1103.29 -2.0464 -2.91549 0
M  V30 11642 O 1102.15 -2.93067 -4.61274 0
M  V30 11643 H 1099.25 -0.413073 -0.71645 0
M  V30 11644 H 1101.79 -1.40651 -0.949488 0
M  V30 11645 H 1100.56 -3.04561 -2.4568 0
M  V30 11646 H 1100.19 -1.74374 -3.57323 0
M  V30 11647 N 1101.18 1.11143 -1.11736 0
M  V30 11648 C 1102.12 2.1705 -0.736325 0
M  V30 11649 C 1103.13 1.61116 0.233528 0
M  V30 11650 O 1104.32 1.78493 0.0159602 0
M  V30 11651 C 1101.42 3.38832 -0.067974 0
M  V30 11652 C 1100.59 4.24226 -1.06543 0
M  V30 11653 C 1099.65 5.24472 -0.426063 0
M  V30 11654 O 1098.68 5.58843 -1.0809 0
M  V30 11655 N 1099.88 5.74825 0.809711 0
M  V30 11656 H 1102.64 2.50349 -1.64758 0
M  V30 11657 H 1100.2 1.26693 -1.00799 0
M  V30 11658 H 1102.2 4.02991 0.371563 0
M  V30 11659 H 1100.77 3.0357 0.745917 0
M  V30 11660 H 1099.99 3.56475 -1.68283 0
M  V30 11661 H 1101.27 4.78117 -1.74016 0
M  V30 11662 H 1100.67 5.49088 1.36084 0
M  V30 11663 H 1099.23 6.40804 1.19218 0
M  V30 11664 N 1102.66 0.908147 1.28804 0
M  V30 11665 C 1103.59 0.34957 2.26519 0
M  V30 11666 C 1104.61 -0.508845 1.54643 0
M  V30 11667 O 1105.8 -0.324633 1.75523 0
M  V30 11668 C 1102.9 -0.519461 3.34895 0
M  V30 11669 C 1102.07 0.315157 4.36263 0
M  V30 11670 C 1101.13 -0.488059 5.23932 0
M  V30 11671 O 1100.15 0.0974133 5.69117 0
M  V30 11672 N 1101.36 -1.79233 5.52137 0
M  V30 11673 H 1104.12 1.18945 2.75086 0
M  V30 11674 H 1101.68 0.77351 1.42227 0
M  V30 11675 H 1103.67 -1.0634 3.90479 0
M  V30 11676 H 1102.24 -1.26004 2.8608 0
M  V30 11677 H 1101.46 1.04049 3.8022 0
M  V30 11678 H 1102.75 0.886438 5.01019 0
M  V30 11679 H 1102.15 -2.2906 5.1725 0
M  V30 11680 H 1100.71 -2.28322 6.10502 0
M  V30 11681 N 1104.14 -1.42577 0.671525 0
M  V30 11682 C 1105.09 -2.30798 -0.00883676 0
M  V30 11683 C 1106.06 -1.4578 -0.796076 0
M  V30 11684 O 1107.24 -1.74617 -0.768987 0
M  V30 11685 C 1104.38 -3.31581 -0.956452 0
M  V30 11686 C 1103.5 -4.31691 -0.163381 0
M  V30 11687 C 1102.63 -5.19549 -1.10645 0
M  V30 11688 C 1101.67 -6.1134 -0.304876 0
M  V30 11689 N 1100.81 -6.91761 -1.20048 0
M  V30 11690 H 1105.65 -2.88426 0.749301 0
M  V30 11691 H 1103.18 -1.42074 0.381251 0
M  V30 11692 H 1105.14 -3.88539 -1.51966 0
M  V30 11693 H 1103.77 -2.75561 -1.68126 0
M  V30 11694 H 1102.82 -3.76879 0.516396 0
M  V30 11695 H 1104.14 -4.96683 0.459099 0
M  V30 11696 H 1103.29 -5.81223 -1.73969 0
M  V30 11697 H 1102.03 -4.54726 -1.76282 0
M  V30 11698 H 1101.03 -5.48738 0.341597 0
M  V30 11699 H 1102.26 -6.78211 0.347352 0
M  V30 11700 H 1100.2 -6.2957 -1.84331 0
M  V30 11701 H 1100.12 -7.53345 -0.633003 0
M  V30 11702 H 1101.39 -7.57924 -1.82129 0
M  V30 11703 N 1105.62 -0.414636 -1.52048 0
M  V30 11704 C 1106.57 0.422766 -2.28726 0
M  V30 11705 C 1107.56 1.04099 -1.3364 0
M  V30 11706 O 1108.77 0.978559 -1.51077 0
M  V30 11707 H 1105.14 0.155123 -0.735827 0
M  V30 11708 H 1107.11 -0.245091 -2.97392 0
M  V30 11709 C 1105.86 1.52418 -3.12513 0
M  V30 11710 H 1105.18 1.05781 -3.85552 0
M  V30 11711 H 1106.62 2.08382 -3.6926 0
M  V30 11712 C 1105.08 2.49465 -2.26426 0
M  V30 11713 O 1105.61 3.53479 -1.90829 0
M  V30 11714 N 1103.82 2.19806 -1.90088 0
M  V30 11715 H 1103.37 1.35253 -2.19236 0
M  V30 11716 H 1103.32 2.84984 -1.32783 0
M  V30 11717 N 1107.1 1.56929 -0.145233 0
M  V30 11718 C 1108.37 1.8767 0.551288 0
M  V30 11719 C 1108.75 1.05089 1.83083 0
M  V30 11720 O 1108.1 0.137201 2.28088 0
M  V30 11721 C 1108.31 3.39268 0.818445 0
M  V30 11722 C 1109.66 4.08447 1.16 0
M  V30 11723 O 1110.68 3.44436 0.907857 0
M  V30 11724 O 1109.54 5.21488 1.63441 0
M  V30 11725 H 1106.64 0.777788 0.281024 0
M  V30 11726 H 1109.18 1.68724 -0.181712 0
M  V30 11727 H 1107.95 3.91203 -0.0871897 0
M  V30 11728 H 1107.58 3.63735 1.60569 0
M  V30 11729 N 1108.58 -0.128553 1.57075 0
M  V30 11730 C 1109.85 -0.867766 1.75297 0
M  V30 11731 C 1110.23 -1.98508 0.718176 0
M  V30 11732 O 1109.58 -2.2702 -0.259616 0
M  V30 11733 C 1109.79 -1.39326 3.19983 0
M  V30 11734 C 1111.14 -1.84939 3.82208 0
M  V30 11735 O 1112.16 -1.49027 3.23527 0
M  V30 11736 O 1111.02 -2.51227 4.85332 0
M  V30 11737 H 1108.12 -0.411393 0.717415 0
M  V30 11738 H 1110.66 -0.113038 1.69323 0
M  V30 11739 H 1109.43 -0.591172 3.86809 0
M  V30 11740 H 1109.06 -2.21097 3.30457 0
M  V30 11741 N 1110.05 -1.5248 -0.398459 0
M  V30 11742 C 1111.33 -1.57634 -1.15805 0
M  V30 11743 C 1111.71 -0.363785 -2.07942 0
M  V30 11744 O 1111.06 0.648598 -2.19101 0
M  V30 11745 C 1111.27 -2.91042 -1.92602 0
M  V30 11746 C 1112.62 -3.44433 -2.48296 0
M  V30 11747 O 1113.64 -2.92853 -2.0277 0
M  V30 11748 O 1112.5 -4.34529 -3.31432 0
M  V30 11749 H 1109.59 -0.63539 -0.529347 0
M  V30 11750 H 1112.14 -1.64812 -0.404376 0
M  V30 11751 H 1110.91 -3.7074 -1.25169 0
M  V30 11752 H 1110.53 -2.87206 -2.74952 0
M  V30 11753 N 1111.53 0.65634 -1.43283 0
M  V30 11754 C 1112.48 1.79058 -1.48462 0
M  V30 11755 C 1113.47 1.65563 -0.358512 0
M  V30 11756 O 1114.68 1.71947 -0.532365 0
M  V30 11757 H 1111.05 0.590716 -0.465358 0
M  V30 11758 H 1113.03 1.7181 -2.43975 0
M  V30 11759 C 1111.77 3.17304 -1.42175 0
M  V30 11760 H 1111.1 3.28324 -2.2813 0
M  V30 11761 H 1112.54 3.96633 -1.4986 0
M  V30 11762 C 1111 3.36613 -0.138929 0
M  V30 11763 O 1111.53 3.93633 0.80101 0
M  V30 11764 N 1109.73 2.90557 -0.0501237 0
M  V30 11765 H 1109.28 2.4434 -0.815821 0
M  V30 11766 H 1109.24 3.03853 0.807504 0
M  V30 11767 N 1113.01 1.29761 0.894412 0
M  V30 11768 C 1114.26 1.17409 1.64006 0
M  V30 11769 C 1114.57 -0.272355 1.93695 0
M  V30 11770 O 1115.78 -0.517269 2.66527 0
M  V30 11771 C 1114.23 2.05379 2.95546 0
M  V30 11772 C 1113.84 3.54878 2.73433 0
M  V30 11773 C 1115.59 2.01765 3.73485 0
M  V30 11774 C 1113.49 4.34935 4.00731 0
M  V30 11775 H 1112.42 0.43583 0.615279 0
M  V30 11776 H 1115.07 1.5444 0.990983 0
M  V30 11777 H 1113.46 1.61222 3.61695 0
M  V30 11778 H 1114.63 4.07122 2.15844 0
M  V30 11779 H 1112.94 3.60218 2.08882 0
M  V30 11780 H 1115.54 2.58835 4.67877 0
M  V30 11781 H 1115.88 0.998876 4.04139 0
M  V30 11782 H 1116.42 2.43994 3.14184 0
M  V30 11783 H 1113.16 5.3747 3.75241 0
M  V30 11784 H 1112.68 3.87458 4.5786 0
M  V30 11785 H 1114.36 4.45875 4.68833 0
M  V30 11786 N 1114.49 -1.10549 1.12324 0
M  V30 11787 C 1115.43 -2.16858 0.790024 0
M  V30 11788 C 1116.4 -1.64317 -0.242694 0
M  V30 11789 O 1117.59 -1.90438 -0.117531 0
M  V30 11790 C 1114.73 -3.44197 0.249503 0
M  V30 11791 C 1113.84 -4.10696 1.33989 0
M  V30 11792 C 1112.98 -5.25751 0.758932 0
M  V30 11793 C 1112.02 -5.8415 1.82853 0
M  V30 11794 N 1111.15 -6.90585 1.26637 0
M  V30 11795 H 1115.99 -2.44705 1.7007 0
M  V30 11796 H 1113.53 -1.20117 0.849141 0
M  V30 11797 H 1115.49 -4.1712 -0.0819251 0
M  V30 11798 H 1114.12 -3.16705 -0.624332 0
M  V30 11799 H 1113.17 -3.35754 1.78812 0
M  V30 11800 H 1114.48 -4.50144 2.14875 0
M  V30 11801 H 1113.64 -6.05521 0.378104 0
M  V30 11802 H 1112.38 -4.87632 -0.0811405 0
M  V30 11803 H 1111.38 -5.03051 2.21856 0
M  V30 11804 H 1112.61 -6.24333 2.6718 0
M  V30 11805 H 1110.55 -6.54468 0.448105 0
M  V30 11806 H 1110.47 -7.28739 2.01184 0
M  V30 11807 H 1111.74 -7.74138 0.912737 0
M  V30 11808 N 1115.97 -0.914965 -1.28321 0
M  V30 11809 C 1117.2 -0.563835 -1.98757 0
M  V30 11810 C 1117.6 0.859528 -1.68549 0
M  V30 11811 O 1116.95 1.58105 -0.935336 0
M  V30 11812 C 1117.01 -0.694539 -3.52727 0
M  V30 11813 C 1116.67 -2.08767 -4.06528 0
M  V30 11814 C 1117.67 -3.06052 -4.20272 0
M  V30 11815 C 1115.35 -2.40118 -4.4119 0
M  V30 11816 C 1117.35 -4.32803 -4.67932 0
M  V30 11817 C 1115.04 -3.67108 -4.88544 0
M  V30 11818 C 1116.03 -4.63265 -5.01871 0
M  V30 11819 O 1115.72 -5.87997 -5.48192 0
M  V30 11820 H 1115.45 -0.213557 -0.641381 0
M  V30 11821 H 1118.01 -1.23062 -1.64453 0
M  V30 11822 H 1116.24 0.0293186 -3.86689 0
M  V30 11823 H 1117.93 -0.350335 -4.04385 0
M  V30 11824 H 1118.69 -2.8315 -3.93765 0
M  V30 11825 H 1114.57 -1.66025 -4.30066 0
M  V30 11826 H 1118.12 -5.07861 -4.78249 0
M  V30 11827 H 1114.01 -3.89834 -5.14489 0
M  V30 11828 H 1114.78 -5.90804 -5.66474 0
M  V30 11829 N 1117.44 1.42219 -0.679077 0
M  V30 11830 C 1118.35 2.346 -0.00345919 0
M  V30 11831 C 1119.37 1.55327 0.784181 0
M  V30 11832 O 1120.55 1.87878 0.725524 0
M  V30 11833 C 1117.61 3.33905 0.933194 0
M  V30 11834 C 1116.67 4.29073 0.139607 0
M  V30 11835 C 1115.9 5.23634 1.03165 0
M  V30 11836 O 1116.13 5.23234 2.27119 0
M  V30 11837 O 1115.06 5.99901 0.490159 0
M  V30 11838 H 1118.89 2.9392 -0.764525 0
M  V30 11839 H 1116.47 1.42794 -0.439329 0
M  V30 11840 H 1118.35 3.949 1.47077 0
M  V30 11841 H 1117.03 2.77052 1.67404 0
M  V30 11842 H 1115.94 3.71478 -0.442177 0
M  V30 11843 H 1117.27 4.88979 -0.562214 0
M  V30 11844 N 1118.92 0.422693 1.51826 0
M  V30 11845 C 1120.17 -0.150066 2.01141 0
M  V30 11846 C 1120.48 -1.45059 1.31214 0
M  V30 11847 O 1121.69 -2.10542 1.71419 0
M  V30 11848 C 1120.15 -0.317985 3.58492 0
M  V30 11849 C 1119.75 0.971244 4.37345 0
M  V30 11850 C 1121.5 -0.845303 4.15999 0
M  V30 11851 C 1119.4 0.769769 5.86369 0
M  V30 11852 H 1118.33 -0.0598567 0.75162 0
M  V30 11853 H 1120.99 0.550217 1.75057 0
M  V30 11854 H 1119.37 -1.08092 3.80962 0
M  V30 11855 H 1120.54 1.74138 4.26629 0
M  V30 11856 H 1118.86 1.42599 3.91222 0
M  V30 11857 H 1121.45 -1.01229 5.2503 0
M  V30 11858 H 1121.8 -1.82375 3.74226 0
M  V30 11859 H 1122.33 -0.141067 3.9755 0
M  V30 11860 H 1119.07 1.72017 6.32527 0
M  V30 11861 H 1118.59 0.0391717 5.99787 0
M  V30 11862 H 1120.27 0.417225 6.45653 0
M  V30 11863 N 1120.4 -1.5685 0.153553 0
M  V30 11864 C 1121.63 -2.00701 -0.502678 0
M  V30 11865 C 1122.04 -1.0337 -1.57988 0
M  V30 11866 O 1121.4 -0.0317233 -1.82472 0
M  V30 11867 C 1121.45 -3.44443 -1.09732 0
M  V30 11868 O 1121.17 -4.38054 -0.0631405 0
M  V30 11869 C 1122.67 -4.03605 -1.83352 0
M  V30 11870 H 1119.89 -0.658229 -0.130289 0
M  V30 11871 H 1122.44 -2.02965 0.250063 0
M  V30 11872 H 1120.59 -3.43009 -1.80065 0
M  V30 11873 H 1121.01 -5.22114 -0.499681 0
M  V30 11874 H 1122.48 -5.0616 -2.20241 0
M  V30 11875 H 1122.96 -3.44687 -2.7219 0
M  V30 11876 H 1123.56 -4.08688 -1.17703 0
M  V30 11877 N 1121.88 0.120221 -1.57141 0
M  V30 11878 C 1123.29 0.473718 -1.52408 0
M  V30 11879 C 1123.49 1.81925 -0.866354 0
M  V30 11880 O 1122.55 2.48491 -0.448173 0
M  V30 11881 C 1123.86 0.459338 -2.97171 0
M  V30 11882 C 1125.41 0.542975 -3.08254 0
M  V30 11883 C 1125.89 0.558996 -4.54576 0
M  V30 11884 N 1127.38 0.620469 -4.59026 0
M  V30 11885 C 1128.11 0.654292 -5.69655 0
M  V30 11886 N 1127.61 0.645835 -6.89783 0
M  V30 11887 N 1129.4 0.697208 -5.57759 0
M  V30 11888 H 1121.55 -0.76142 -1.98283 0
M  V30 11889 H 1123.81 -0.280736 -0.905479 0
M  V30 11890 H 1123.52 -0.461654 -3.48657 0
M  V30 11891 H 1123.39 1.28759 -3.54543 0
M  V30 11892 H 1125.78 1.45439 -2.56772 0
M  V30 11893 H 1125.86 -0.312936 -2.53879 0
M  V30 11894 H 1125.51 -0.348367 -5.06704 0
M  V30 11895 H 1125.44 1.43177 -5.06762 0
M  V30 11896 H 1127.93 0.633218 -3.72557 0
M  V30 11897 H 1128.24 0.674233 -7.69853 0
M  V30 11898 H 1126.59 0.613279 -6.92289 0
M  V30 11899 H 1129.78 0.70117 -4.62819 0
M  V30 11900 H 1129.95 0.7201 -6.43986 0
M  V30 11901 N 1123.36 1.52689 0.390367 0
M  V30 11902 C 1124.31 1.73751 1.4763 0
M  V30 11903 C 1125.29 0.591572 1.4963 0
M  V30 11904 O 1126.48 0.849354 1.5529 0
M  V30 11905 C 1123.61 1.90855 2.85358 0
M  V30 11906 C 1122.7 3.11377 2.87933 0
M  V30 11907 N 1123.09 4.33751 2.6018 0
M  V30 11908 C 1121.39 3.11594 3.19101 0
M  V30 11909 C 1122.09 5.15346 2.69803 0
M  V30 11910 N 1121.06 4.51002 3.03476 0
M  V30 11911 H 1124.87 2.65994 1.24997 0
M  V30 11912 H 1122.38 1.50977 0.598301 0
M  V30 11913 H 1124.38 2.04065 3.63542 0
M  V30 11914 H 1123.04 0.998241 3.08974 0
M  V30 11915 H 1124.05 4.61907 2.34227 0
M  V30 11916 H 1120.72 2.30368 3.48191 0
M  V30 11917 H 1122.11 6.22892 2.51902 0
M  V30 11918 N 1124.83 -0.648732 1.43629 0
M  V30 11919 C 1125.78 -1.75473 1.45579 0
M  V30 11920 C 1126.77 -1.57611 0.323683 0
M  V30 11921 O 1127.96 -1.67646 0.56778 0
M  V30 11922 C 1125.09 -3.14083 1.38589 0
M  V30 11923 C 1124.18 -3.37477 2.56846 0
M  V30 11924 N 1124.57 -3.31322 3.82177 0
M  V30 11925 C 1122.86 -3.68212 2.51666 0
M  V30 11926 C 1123.57 -3.54921 4.60875 0
M  V30 11927 N 1122.54 -3.76951 3.91675 0
M  V30 11928 H 1126.34 -1.69146 2.40347 0
M  V30 11929 H 1123.86 -0.850566 1.38344 0
M  V30 11930 H 1125.85 -3.93374 1.38068 0
M  V30 11931 H 1124.51 -3.21588 0.448442 0
M  V30 11932 H 1125.53 -3.10633 4.144 0
M  V30 11933 H 1122.2 -3.82806 1.66631 0
M  V30 11934 H 1123.59 -3.55904 5.69897 0
M  V30 11935 N 1126.31 -1.30234 -0.887518 0
M  V30 11936 C 1127.56 -1.1891 -1.6391 0
M  V30 11937 C 1127.89 0.256749 -1.92798 0
M  V30 11938 O 1127.14 1.20047 -1.54555 0
M  V30 11939 C 1127.44 -1.96046 -2.98832 0
M  V30 11940 C 1127.11 -3.45683 -2.89507 0
M  V30 11941 C 1125.77 -3.86489 -2.8667 0
M  V30 11942 C 1128.12 -4.40983 -2.7782 0
M  V30 11943 C 1125.45 -5.2089 -2.69982 0
M  V30 11944 C 1127.8 -5.75489 -2.6267 0
M  V30 11945 C 1126.47 -6.15537 -2.58207 0
M  V30 11946 H 1125.74 -0.435123 -0.599791 0
M  V30 11947 H 1128.38 -1.61308 -1.03209 0
M  V30 11948 H 1126.69 -1.46275 -3.6347 0
M  V30 11949 H 1128.38 -1.84678 -3.55942 0
M  V30 11950 H 1124.97 -3.13255 -2.92523 0
M  V30 11951 H 1129.16 -4.10401 -2.79079 0
M  V30 11952 H 1124.41 -5.51014 -2.6494 0
M  V30 11953 H 1128.59 -6.48973 -2.526 0
M  V30 11954 H 1126.22 -7.19627 -2.45034 0
M  V30 11955 N 1127.79 1.09952 -1.12909 0
M  V30 11956 C 1128.74 2.16436 -0.801514 0
M  V30 11957 C 1129.71 1.64444 0.233976 0
M  V30 11958 O 1130.89 1.90497 0.10743 0
M  V30 11959 C 1128.03 3.4406 -0.267753 0
M  V30 11960 C 1127.15 4.09979 -1.36165 0
M  V30 11961 C 1126.28 5.25341 -0.786803 0
M  V30 11962 C 1125.32 5.83172 -1.85948 0
M  V30 11963 N 1124.46 6.89904 -1.30298 0
M  V30 11964 H 1129.3 2.43799 -1.71365 0
M  V30 11965 H 1126.83 1.19665 -0.855499 0
M  V30 11966 H 1128.79 4.17157 0.0598031 0
M  V30 11967 H 1127.42 3.17031 0.607528 0
M  V30 11968 H 1126.47 3.34801 -1.8059 0
M  V30 11969 H 1127.79 4.48999 -2.17259 0
M  V30 11970 H 1126.94 6.05312 -0.410211 0
M  V30 11971 H 1125.68 4.87669 0.055279 0
M  V30 11972 H 1124.68 5.01867 -2.24521 0
M  V30 11973 H 1125.91 6.22907 -2.70487 0
M  V30 11974 H 1123.85 6.54221 -0.482806 0
M  V30 11975 H 1123.77 7.27662 -2.05046 0
M  V30 11976 H 1125.04 7.73643 -0.953779 0
M  V30 11977 N 1129.27 0.921757 1.27833 0
M  V30 11978 C 1130.18 0.421668 2.30779 0
M  V30 11979 C 1131.19 -0.494686 1.6682 0
M  V30 11980 O 1132.37 -0.378935 1.97803 0
M  V30 11981 C 1129.44 -0.322928 3.45193 0
M  V30 11982 C 1128.5 0.627618 4.24687 0
M  V30 11983 C 1127.73 -0.0815385 5.33638 0
M  V30 11984 O 1127.95 -1.30193 5.55343 0
M  V30 11985 O 1126.89 0.58725 5.99028 0
M  V30 11986 H 1130.71 1.2763 2.7558 0
M  V30 11987 H 1128.3 0.686877 1.32674 0
M  V30 11988 H 1130.18 -0.743145 4.14796 0
M  V30 11989 H 1128.85 -1.15326 3.02459 0
M  V30 11990 H 1127.76 1.09739 3.57642 0
M  V30 11991 H 1129.09 1.425 4.71121 0
M  V30 11992 N 1130.75 -1.41857 0.686609 0
M  V30 11993 C 1131.99 -2.0097 0.213378 0
M  V30 11994 C 1132.32 -1.54618 -1.1882 0
M  V30 11995 O 1131.59 -0.772916 -1.80008 0
M  V30 11996 H 1130.17 -0.743134 0.0758968 0
M  V30 11997 H 1132.83 -1.73609 0.885763 0
M  V30 11998 H 1131.92 -3.11296 0.223826 0
M  V30 11999 N 1132.22 -0.430739 -1.51599 0
M  V30 12000 C 1133.15 0.374695 -2.30474 0
M  V30 12001 C 1134.14 1.02694 -1.35602 0
M  V30 12002 O 1135.32 1.03184 -1.6452 0
M  V30 12003 C 1132.45 1.47981 -3.14196 0
M  V30 12004 C 1131.4 0.951415 -4.17291 0
M  V30 12005 C 1130.73 2.15177 -4.89492 0
M  V30 12006 C 1132.03 -0.00957951 -5.22299 0
M  V30 12007 H 1133.72 -0.283508 -2.98055 0
M  V30 12008 H 1131.27 -0.13779 -1.43339 0
M  V30 12009 H 1133.22 2.05043 -3.68151 0
M  V30 12010 H 1131.95 2.16621 -2.44424 0
M  V30 12011 H 1130.61 0.403052 -3.64378 0
M  V30 12012 H 1130.25 2.82421 -4.1623 0
M  V30 12013 H 1129.95 1.80464 -5.59202 0
M  V30 12014 H 1131.48 2.72806 -5.46269 0
M  V30 12015 H 1132.89 0.470527 -5.71366 0
M  V30 12016 H 1131.29 -0.268959 -5.99497 0
M  V30 12017 H 1132.36 -0.948297 -4.75537 0
M  V30 12018 N 1133.7 1.56767 -0.161869 0
M  V30 12019 C 1134.67 2.16299 0.758104 0
M  V30 12020 C 1135.67 1.10859 1.16478 0
M  V30 12021 O 1136.86 1.36422 1.08327 0
M  V30 12022 C 1133.99 2.73819 2.03067 0
M  V30 12023 H 1135.18 2.98938 0.239992 0
M  V30 12024 H 1132.73 1.56054 0.0876532 0
M  V30 12025 H 1133.47 1.94887 2.59209 0
M  V30 12026 H 1133.25 3.50974 1.74813 0
M  V30 12027 H 1134.74 3.19638 2.68741 0
M  V30 12028 N 1135.18 -0.111886 1.57202 0
M  V30 12029 C 1136.43 -0.816794 1.84859 0
M  V30 12030 C 1136.75 -1.80079 0.748113 0
M  V30 12031 O 1136.02 -1.94578 -0.227235 0
M  V30 12032 H 1134.6 -0.304633 0.682061 0
M  V30 12033 H 1137.26 -0.097513 1.94656 0
M  V30 12034 H 1136.36 -1.35768 2.81022 0
M  V30 12035 N 1136.66 -1.52894 -0.382264 0
M  V30 12036 C 1137.62 -1.77497 -1.45008 0
M  V30 12037 C 1138.62 -0.64509 -1.47293 0
M  V30 12038 O 1139.81 -0.913192 -1.48346 0
M  V30 12039 C 1136.94 -1.88188 -2.8425 0
M  V30 12040 H 1138.14 -2.72849 -1.24473 0
M  V30 12041 H 1135.69 -1.43717 -0.61441 0
M  V30 12042 H 1136.42 -0.948451 -3.10121 0
M  V30 12043 H 1136.21 -2.70353 -2.83992 0
M  V30 12044 H 1137.7 -2.08873 -3.6161 0
M  V30 12045 N 1138.14 0.641106 -1.43971 0
M  V30 12046 C 1139.55 0.958161 -1.27638 0
M  V30 12047 C 1139.75 2.00456 -0.204885 0
M  V30 12048 O 1138.81 2.49106 0.412606 0
M  V30 12049 C 1140.12 1.43091 -2.64472 0
M  V30 12050 C 1141.67 1.54692 -2.72102 0
M  V30 12051 C 1142.15 2.05353 -4.09382 0
M  V30 12052 N 1143.64 2.12638 -4.11509 0
M  V30 12053 C 1144.37 2.52987 -5.14573 0
M  V30 12054 N 1143.87 2.92544 -6.28005 0
M  V30 12055 N 1145.66 2.53033 -5.01927 0
M  V30 12056 H 1137.81 -0.0510973 -2.12339 0
M  V30 12057 H 1140.07 0.039748 -0.947166 0
M  V30 12058 H 1139.78 0.736389 -3.43904 0
M  V30 12059 H 1139.65 2.40375 -2.90688 0
M  V30 12060 H 1142.04 2.23242 -1.92994 0
M  V30 12061 H 1142.12 0.558083 -2.49638 0
M  V30 12062 H 1141.77 1.37401 -4.88962 0
M  V30 12063 H 1141.7 3.0509 -4.29218 0
M  V30 12064 H 1144.19 1.84792 -3.29636 0
M  V30 12065 H 1144.5 3.22116 -7.02468 0
M  V30 12066 H 1142.85 2.90319 -6.31458 0
M  V30 12067 H 1146.04 2.21514 -4.1237 0
M  V30 12068 H 1146.21 2.84155 -5.82375 0
M  V30 12069 N 1139.62 1.30703 0.880598 0
M  V30 12070 C 1141.03 1.09129 1.1646 0
M  V30 12071 C 1141.23 -0.145131 2.00977 0
M  V30 12072 O 1140.29 -0.837502 2.38206 0
M  V30 12073 C 1141.6 2.35717 1.86703 0
M  V30 12074 C 1143.15 2.41224 1.9945 0
M  V30 12075 C 1143.62 3.67665 2.73105 0
M  V30 12076 N 1145.11 3.68498 2.80648 0
M  V30 12077 C 1145.85 4.63024 3.38225 0
M  V30 12078 N 1145.35 5.67898 3.96817 0
M  V30 12079 N 1147.14 4.50561 3.36082 0
M  V30 12080 H 1139.29 2.10019 0.317164 0
M  V30 12081 H 1141.55 0.925994 0.203072 0
M  V30 12082 H 1141.26 3.2597 1.32046 0
M  V30 12083 H 1141.13 2.447 2.87057 0
M  V30 12084 H 1143.52 1.51446 2.53275 0
M  V30 12085 H 1143.6 2.36212 0.981704 0
M  V30 12086 H 1143.24 4.57803 2.19951 0
M  V30 12087 H 1143.17 3.69939 3.7477 0
M  V30 12088 H 1145.67 2.92681 2.39053 0
M  V30 12089 H 1145.98 6.3612 4.3883 0
M  V30 12090 H 1144.32 5.71685 3.95223 0
M  V30 12091 H 1147.51 3.67811 2.89539 0
M  V30 12092 H 1147.69 5.24408 3.80657 0
M  V30 12093 N 1141.09 -1.09351 1.1349 0
M  V30 12094 C 1142.32 -1.85844 0.92069 0
M  V30 12095 C 1142.74 -1.80616 -0.525303 0
M  V30 12096 O 1142.1 -1.1842 -1.37282 0
M  V30 12097 C 1142.15 -3.31716 1.4141 0
M  V30 12098 O 1141.25 -4.08014 0.599838 0
M  V30 12099 H 1140.59 -0.576242 0.32991 0
M  V30 12100 H 1143.12 -1.38084 1.50976 0
M  V30 12101 H 1143.13 -3.82564 1.41805 0
M  V30 12102 H 1141.81 -3.34837 2.46692 0
M  V30 12103 H 1140.39 -3.66944 0.663816 0
M  V30 12104 N 1142.57 -0.928524 -1.27343 0
M  V30 12105 C 1143.82 -0.570235 -1.94618 0
M  V30 12106 C 1144.15 0.886381 -1.72792 0
M  V30 12107 O 1143.43 1.63242 -1.05747 0
M  V30 12108 C 1143.71 -0.897964 -3.48724 0
M  V30 12109 C 1143.56 -2.40839 -3.7989 0
M  V30 12110 C 1144.88 -0.404429 -4.38238 0
M  V30 12111 H 1142 -0.208645 -0.70685 0
M  V30 12112 H 1144.64 -1.16045 -1.50444 0
M  V30 12113 H 1142.79 -0.395679 -3.8648 0
M  V30 12114 H 1144.46 -2.98243 -3.51921 0
M  V30 12115 H 1142.71 -2.85723 -3.26412 0
M  V30 12116 H 1143.38 -2.58823 -4.8756 0
M  V30 12117 H 1145.85 -0.834918 -4.07637 0
M  V30 12118 H 1144.73 -0.662684 -5.44885 0
M  V30 12119 H 1144.99 0.695507 -4.36595 0
M  V30 12120 N 1144.05 1.41491 -0.694123 0
M  V30 12121 C 1145.27 2.06099 -0.23197 0
M  V30 12122 C 1145.7 1.51888 1.10958 0
M  V30 12123 O 1145.06 0.645247 1.69429 0
M  V30 12124 C 1145.11 3.60053 -0.198522 0
M  V30 12125 O 1144.21 4.04021 0.827067 0
M  V30 12126 H 1143.55 0.654193 -0.113699 0
M  V30 12127 H 1146.08 1.81282 -0.948575 0
M  V30 12128 H 1146.09 4.0799 -0.0288904 0
M  V30 12129 H 1144.77 3.98879 -1.17764 0
M  V30 12130 H 1143.34 3.67593 0.626908 0
M  V30 12131 N 1145.53 0.438773 1.51369 0
M  V30 12132 C 1146.46 -0.407771 2.25543 0
M  V30 12133 C 1147.47 -0.985065 1.29616 0
M  V30 12134 O 1148.66 -0.878961 1.55359 0
M  V30 12135 C 1145.76 -1.58257 2.9968 0
M  V30 12136 C 1144.93 -1.12389 4.22714 0
M  V30 12137 C 1143.99 -2.16897 4.79418 0
M  V30 12138 O 1143.02 -1.76273 5.41218 0
M  V30 12139 N 1144.22 -3.49396 4.63576 0
M  V30 12140 H 1146.99 0.227963 2.98832 0
M  V30 12141 H 1144.55 0.267741 1.59671 0
M  V30 12142 H 1146.54 -2.27796 3.34501 0
M  V30 12143 H 1145.11 -2.12362 2.29393 0
M  V30 12144 H 1144.33 -0.255509 3.93371 0
M  V30 12145 H 1145.62 -0.794848 5.02553 0
M  V30 12146 H 1145.02 -3.85132 4.14355 0
M  V30 12147 H 1143.57 -4.14826 5.02755 0
M  V30 12148 N 1147.01 -1.56678 0.170181 0
M  V30 12149 C 1147.97 -2.16698 -0.746622 0
M  V30 12150 C 1148.97 -1.11475 -1.15888 0
M  V30 12151 O 1150.16 -1.36994 -1.07602 0
M  V30 12152 C 1147.29 -2.74892 -2.01612 0
M  V30 12153 H 1148.48 -2.99061 -0.224135 0
M  V30 12154 H 1146.04 -1.56098 -0.0793761 0
M  V30 12155 H 1146.77 -1.96259 -2.58172 0
M  V30 12156 H 1146.56 -3.51896 -1.72949 0
M  V30 12157 H 1148.05 -3.21058 -2.67042 0
M  V30 12158 N 1148.48 0.103547 -1.57259 0
M  V30 12159 C 1149.76 0.839768 -1.76656 0
M  V30 12160 C 1150.14 1.9734 -0.749666 0
M  V30 12161 O 1149.49 2.27405 0.223466 0
M  V30 12162 C 1149.7 1.34218 -3.22159 0
M  V30 12163 C 1151.05 1.78835 -3.85102 0
M  V30 12164 O 1152.07 1.43861 -3.25857 0
M  V30 12165 O 1150.93 2.43474 -4.89267 0
M  V30 12166 H 1148.02 0.399928 -0.723869 0
M  V30 12167 H 1150.57 0.0860857 -1.69482 0
M  V30 12168 H 1149.34 0.52956 -3.877 0
M  V30 12169 H 1148.96 2.15811 -3.33933 0
M  V30 12170 N 1149.96 1.53094 0.37415 0
M  V30 12171 C 1150.89 1.81901 1.46404 0
M  V30 12172 C 1151.87 0.671949 1.56265 0
M  V30 12173 O 1153.06 0.920978 1.70973 0
M  V30 12174 C 1150.19 2.00123 2.83845 0
M  V30 12175 C 1149.14 3.15864 2.88814 0
M  V30 12176 C 1148.47 3.19364 4.28848 0
M  V30 12177 C 1149.77 4.54633 2.57112 0
M  V30 12178 H 1151.46 2.73172 1.22546 0
M  V30 12179 H 1149.01 1.31444 0.588087 0
M  V30 12180 H 1150.96 2.18859 3.6011 0
M  V30 12181 H 1149.68 1.05555 3.09072 0
M  V30 12182 H 1148.34 2.96935 2.15 0
M  V30 12183 H 1147.99 2.2245 4.51137 0
M  V30 12184 H 1147.69 3.97123 4.3309 0
M  V30 12185 H 1149.22 3.40273 5.06997 0
M  V30 12186 H 1150.63 4.73587 3.23091 0
M  V30 12187 H 1149.03 5.34569 2.72683 0
M  V30 12188 H 1150.1 4.60331 1.52392 0
M  V30 12189 N 1151.44 -0.633461 1.44309 0
M  V30 12190 C 1152.69 -1.38902 1.4625 0
M  V30 12191 C 1153 -1.95354 0.0980699 0
M  V30 12192 O 1154.21 -2.715 -0.0049983 0
M  V30 12193 C 1152.66 -2.51477 2.57463 0
M  V30 12194 C 1152.27 -2.01549 4.00103 0
M  V30 12195 C 1154.02 -3.28698 2.68622 0
M  V30 12196 C 1151.92 -3.11452 5.02744 0
M  V30 12197 H 1150.85 -0.521976 0.544112 0
M  V30 12198 H 1153.5 -0.681725 1.70367 0
M  V30 12199 H 1151.89 -3.24771 2.26582 0
M  V30 12200 H 1153.06 -1.35135 4.4054 0
M  V30 12201 H 1151.37 -1.3715 3.93165 0
M  V30 12202 H 1153.97 -4.10624 3.42479 0
M  V30 12203 H 1154.31 -3.78027 1.7436 0
M  V30 12204 H 1154.85 -2.62494 2.98901 0
M  V30 12205 H 1151.59 -2.6707 5.98627 0
M  V30 12206 H 1151.11 -3.76514 4.66902 0
M  V30 12207 H 1152.79 -3.76265 5.2634 0
M  V30 12208 N 1152.92 -1.31168 -0.873655 0
M  V30 12209 C 1153.87 -1.18507 -1.98052 0
M  V30 12210 C 1154.84 -0.0717583 -1.65945 0
M  V30 12211 O 1156.02 -0.243965 -1.89234 0
M  V30 12212 C 1153.16 -0.894571 -3.33304 0
M  V30 12213 C 1152.27 -2.09086 -3.7803 0
M  V30 12214 C 1151.41 -1.73747 -5.01982 0
M  V30 12215 C 1150.45 -2.89805 -5.39147 0
M  V30 12216 N 1149.58 -2.54686 -6.54278 0
M  V30 12217 H 1154.42 -2.13193 -2.08213 0
M  V30 12218 H 1151.96 -1.06056 -1.01934 0
M  V30 12219 H 1153.92 -0.706714 -4.11171 0
M  V30 12220 H 1152.55 0.0154449 -3.22796 0
M  V30 12221 H 1151.6 -2.38961 -2.95976 0
M  V30 12222 H 1152.91 -2.95963 -4.01506 0
M  V30 12223 H 1152.07 -1.51402 -5.87505 0
M  V30 12224 H 1150.81 -0.840553 -4.80402 0
M  V30 12225 H 1149.81 -3.12803 -4.52144 0
M  V30 12226 H 1151.04 -3.802 -5.62694 0
M  V30 12227 H 1148.98 -1.67513 -6.34252 0
M  V30 12228 H 1148.9 -3.35093 -6.77679 0
M  V30 12229 H 1150.17 -2.35725 -7.43003 0
M  V30 12230 N 1154.4 1.08748 -1.14068 0
M  V30 12231 C 1155.63 1.84546 -0.928789 0
M  V30 12232 C 1156.03 1.81741 0.526007 0
M  V30 12233 O 1155.38 1.2169 1.37613 0
M  V30 12234 C 1155.44 3.33282 -1.34771 0
M  V30 12235 C 1155.1 3.59826 -2.81734 0
M  V30 12236 C 1156.1 3.54964 -3.79864 0
M  V30 12237 C 1153.79 3.87949 -3.19063 0
M  V30 12238 C 1155.78 3.77847 -5.13332 0
M  V30 12239 C 1153.47 4.10487 -4.52707 0
M  V30 12240 C 1154.46 4.05429 -5.49651 0
M  V30 12241 O 1154.15 4.27378 -6.80884 0
M  V30 12242 H 1153.88 0.589555 -0.330758 0
M  V30 12243 H 1156.44 1.38275 -1.51886 0
M  V30 12244 H 1154.67 3.80294 -0.700948 0
M  V30 12245 H 1156.36 3.90508 -1.10718 0
M  V30 12246 H 1157.12 3.33256 -3.52371 0
M  V30 12247 H 1153 3.91007 -2.44201 0
M  V30 12248 H 1156.55 3.73815 -5.88989 0
M  V30 12249 H 1152.44 4.31677 -4.79922 0
M  V30 12250 H 1153.21 4.44802 -6.8709 0
M  V30 12251 N 1155.87 0.935264 1.26849 0
M  V30 12252 C 1157.15 0.497797 1.8916 0
M  V30 12253 C 1157.53 -1.02441 1.84578 0
M  V30 12254 O 1156.88 -1.88185 1.29609 0
M  V30 12255 C 1157.09 1.05244 3.32753 0
M  V30 12256 C 1158.44 1.11751 4.0963 0
M  V30 12257 O 1159.46 1.0026 3.41799 0
M  V30 12258 O 1158.32 1.29548 5.30923 0
M  V30 12259 H 1155.41 0.161322 0.811113 0
M  V30 12260 H 1157.96 1.02744 1.35062 0
M  V30 12261 H 1156.73 2.09617 3.30419 0
M  V30 12262 H 1156.36 0.504889 3.94381 0
M  V30 12263 N 1157.35 -1.41121 0.701616 0
M  V30 12264 C 1158.3 -2.32582 0.0288052 0
M  V30 12265 C 1159.29 -1.5129 -0.762074 0
M  V30 12266 O 1160.5 -1.67185 -0.667014 0
M  V30 12267 H 1156.88 -0.75194 -0.00948675 0
M  V30 12268 H 1158.85 -2.86994 0.817141 0
M  V30 12269 C 1157.6 -3.36137 -0.889217 0
M  V30 12270 H 1156.92 -3.98746 -0.290062 0
M  V30 12271 H 1158.36 -4.0266 -1.32819 0
M  V30 12272 C 1156.82 -2.70504 -2.00821 0
M  V30 12273 O 1157.35 -2.55753 -3.09763 0
M  V30 12274 N 1155.55 -2.29105 -1.78772 0
M  V30 12275 H 1155.1 -2.41303 -0.901708 0
M  V30 12276 H 1155.06 -1.85527 -2.53825 0
M  V30 12277 N 1158.83 -0.446794 -1.51134 0
M  V30 12278 C 1160.08 0.116493 -2.02165 0
M  V30 12279 C 1160.41 1.41884 -1.33039 0
M  V30 12280 O 1159.66 1.90757 -0.437071 0
M  V30 12281 C 1159.96 0.373015 -3.55448 0
M  V30 12282 C 1159.63 -0.844659 -4.42918 0
M  V30 12283 C 1158.29 -1.17857 -4.66544 0
M  V30 12284 C 1160.64 -1.65653 -4.94174 0
M  V30 12285 C 1157.97 -2.32486 -5.38672 0
M  V30 12286 C 1160.32 -2.7939 -5.6756 0
M  V30 12287 C 1158.98 -3.13224 -5.89446 0
M  V30 12288 H 1158.25 0.0426279 -0.739773 0
M  V30 12289 H 1160.9 -0.595921 -1.81992 0
M  V30 12290 H 1159.21 1.16742 -3.74003 0
M  V30 12291 H 1160.9 0.822425 -3.92476 0
M  V30 12292 H 1157.49 -0.574478 -4.24733 0
M  V30 12293 H 1161.68 -1.41176 -4.75797 0
M  V30 12294 H 1156.93 -2.59003 -5.5383 0
M  V30 12295 H 1161.11 -3.42662 -6.06264 0
M  V30 12296 H 1158.73 -4.02158 -6.45115 0
M  V30 12297 N 1160.31 1.56586 -0.178487 0
M  V30 12298 C 1161.72 1.58609 0.17759 0
M  V30 12299 C 1161.92 1.19411 1.62306 0
M  V30 12300 O 1160.98 0.90906 2.35568 0
M  V30 12301 C 1162.29 3.005 -0.109722 0
M  V30 12302 C 1163.84 3.12962 -0.0485036 0
M  V30 12303 C 1164.32 4.56957 -0.308901 0
M  V30 12304 N 1165.81 4.62487 -0.25693 0
M  V30 12305 C 1166.54 5.71767 -0.432488 0
M  V30 12306 N 1166.04 6.89577 -0.667494 0
M  V30 12307 N 1167.83 5.60895 -0.367895 0
M  V30 12308 H 1159.98 1.80351 -1.12193 0
M  V30 12309 H 1162.25 0.83623 -0.446569 0
M  V30 12310 H 1161.95 3.3368 -1.11133 0
M  V30 12311 H 1161.83 3.72472 0.595373 0
M  V30 12312 H 1164.21 2.79604 0.943687 0
M  V30 12313 H 1164.29 2.43411 -0.78642 0
M  V30 12314 H 1163.94 4.91025 -1.29833 0
M  V30 12315 H 1163.87 5.24676 0.449711 0
M  V30 12316 H 1166.36 3.77813 -0.0812308 0
M  V30 12317 H 1166.67 7.68744 -0.79071 0
M  V30 12318 H 1165.02 6.91423 -0.704193 0
M  V30 12319 H 1168.21 4.67735 -0.184837 0
M  V30 12320 H 1168.38 6.46005 -0.508138 0
M  V30 12321 N 1161.79 -0.095206 1.57312 0
M  V30 12322 C 1163.04 -0.797417 1.85268 0
M  V30 12323 C 1163.35 -1.79903 0.767733 0
M  V30 12324 O 1164.55 -2.54914 0.934409 0
M  V30 12325 C 1163.01 -1.469 3.28555 0
M  V30 12326 C 1162.62 -0.507152 4.4512 0
M  V30 12327 C 1164.36 -2.15494 3.65735 0
M  V30 12328 C 1162.27 -1.18331 5.79441 0
M  V30 12329 H 1161.2 -0.301552 0.691074 0
M  V30 12330 H 1163.85 -0.0503584 1.83431 0
M  V30 12331 H 1162.23 -2.26351 3.24933 0
M  V30 12332 H 1163.41 0.255858 4.60089 0
M  V30 12333 H 1161.72 0.0730882 4.16336 0
M  V30 12334 H 1164.32 -2.66816 4.63371 0
M  V30 12335 H 1164.66 -2.94383 2.94354 0
M  V30 12336 H 1165.19 -1.42903 3.71246 0
M  V30 12337 H 1161.93 -0.435238 6.54053 0
M  V30 12338 H 1161.45 -1.91775 5.68315 0
M  V30 12339 H 1163.13 -1.70983 6.23998 0
M  V30 12340 N 1163.26 -1.53291 -0.366026 0
M  V30 12341 C 1164.21 -1.79697 -1.44836 0
M  V30 12342 C 1165.18 -0.641321 -1.5322 0
M  V30 12343 O 1166.37 -0.883453 -1.69115 0
M  V30 12344 C 1163.51 -1.99223 -2.81788 0
M  V30 12345 C 1162.62 -3.26938 -2.82375 0
M  V30 12346 C 1161.75 -3.36654 -4.10898 0
M  V30 12347 C 1160.79 -4.58404 -4.05626 0
M  V30 12348 N 1159.93 -4.65275 -5.25798 0
M  V30 12349 H 1164.77 -2.72053 -1.21619 0
M  V30 12350 H 1162.31 -1.34768 -0.589577 0
M  V30 12351 H 1164.27 -2.0853 -3.61346 0
M  V30 12352 H 1162.9 -1.10204 -3.03406 0
M  V30 12353 H 1161.95 -3.26587 -1.95052 0
M  V30 12354 H 1163.26 -4.16573 -2.74351 0
M  V30 12355 H 1162.41 -3.4527 -4.98872 0
M  V30 12356 H 1161.15 -2.45035 -4.21674 0
M  V30 12357 H 1160.16 -4.49888 -3.16039 0
M  V30 12358 H 1161.38 -5.51364 -3.96453 0
M  V30 12359 H 1159.33 -3.76557 -5.3716 0
M  V30 12360 H 1159.25 -5.48814 -5.19942 0
M  V30 12361 H 1160.51 -4.78175 -6.15605 0
M  V30 12362 N 1164.74 0.6258 -1.44643 0
M  V30 12363 C 1165.99 1.38525 -1.47706 0
M  V30 12364 C 1166.32 1.94179 -0.111703 0
M  V30 12365 O 1165.57 1.74432 0.887237 0
M  V30 12366 C 1165.87 2.56466 -2.48917 0
M  V30 12367 C 1165.54 2.19069 -3.94106 0
M  V30 12368 C 1164.2 2.08583 -4.33643 0
M  V30 12369 C 1166.55 1.89608 -4.85488 0
M  V30 12370 C 1163.88 1.66831 -5.6248 0
M  V30 12371 C 1166.23 1.49347 -6.14718 0
M  V30 12372 C 1164.9 1.37406 -6.53204 0
M  V30 12373 H 1164.17 0.506899 -0.540494 0
M  V30 12374 H 1166.81 0.709128 -1.77887 0
M  V30 12375 H 1165.12 3.29335 -2.12239 0
M  V30 12376 H 1166.81 3.14695 -2.48532 0
M  V30 12377 H 1163.4 2.28151 -3.62829 0
M  V30 12378 H 1167.59 1.96616 -4.55693 0
M  V30 12379 H 1162.84 1.56195 -5.91112 0
M  V30 12380 H 1167.02 1.2559 -6.84982 0
M  V30 12381 H 1164.65 1.04826 -7.52938 0
M  V30 12382 N 1166.22 1.31629 0.866686 0
M  V30 12383 C 1167.5 1.12136 1.60265 0
M  V30 12384 C 1167.88 -0.322729 2.08618 0
M  V30 12385 O 1167.23 -1.31738 1.86701 0
M  V30 12386 C 1167.44 2.13845 2.7581 0
M  V30 12387 C 1168.78 2.46541 3.45692 0
M  V30 12388 O 1169.81 2.12298 2.86021 0
M  V30 12389 O 1168.67 3.05194 4.53342 0
M  V30 12390 H 1165.76 0.431923 0.705246 0
M  V30 12391 H 1168.31 1.43119 0.911863 0
M  V30 12392 H 1167.08 3.10967 2.37518 0
M  V30 12393 H 1166.7 1.83786 3.52574 0
M  V30 12394 N 1167.7 -1.08142 1.14644 0
M  V30 12395 C 1169.11 -1.62061 0.926986 0
M  V30 12396 C 1169.46 -1.88805 -0.533578 0
M  V30 12397 O 1168.59 -1.64753 -1.40305 0
M  V30 12398 C 1169.18 -2.94425 1.67629 0
M  V30 12399 C 1167.74 -3.45118 1.50235 0
M  V30 12400 C 1166.89 -2.19307 1.69705 0
M  V30 12401 H 1169.84 -0.913326 1.29785 0
M  V30 12402 H 1169.86 -3.62987 1.14107 0
M  V30 12403 H 1169.37 -2.74928 2.73927 0
M  V30 12404 H 1167.47 -3.69713 0.462967 0
M  V30 12405 H 1167.59 -4.2169 2.27408 0
M  V30 12406 H 1165.95 -2.28611 1.12291 0
M  V30 12407 H 1166.73 -2.02315 2.77351 0
M  V30 12408 N 1169.18 -0.941978 -1.26351 0
M  V30 12409 C 1170.11 -0.469913 -2.28723 0
M  V30 12410 C 1171.09 0.477218 -1.63269 0
M  V30 12411 O 1172.27 0.378902 -1.90468 0
M  V30 12412 C 1169.4 0.264971 -3.46288 0
M  V30 12413 C 1168.36 -0.595682 -4.23834 0
M  V30 12414 C 1167.68 0.269208 -5.34022 0
M  V30 12415 C 1168.98 -1.86743 -4.87775 0
M  V30 12416 H 1170.68 -1.32551 -2.6846 0
M  V30 12417 H 1168.22 -0.638809 -1.29055 0
M  V30 12418 H 1170.18 0.606259 -4.17016 0
M  V30 12419 H 1168.9 1.15471 -3.05506 0
M  V30 12420 H 1167.56 -0.919875 -3.54872 0
M  V30 12421 H 1167.21 1.15832 -4.89481 0
M  V30 12422 H 1166.91 -0.30325 -5.86817 0
M  V30 12423 H 1168.43 0.605748 -6.07588 0
M  V30 12424 H 1169.85 -1.59333 -5.50714 0
M  V30 12425 H 1168.24 -2.38452 -5.50691 0
M  V30 12426 H 1169.31 -2.57831 -4.10671 0
M  V30 12427 N 1170.66 1.40747 -0.709091 0
M  V30 12428 C 1171.89 2.05022 -0.254887 0
M  V30 12429 C 1172.29 1.5351 1.10595 0
M  V30 12430 O 1171.64 0.683912 1.70494 0
M  V30 12431 C 1171.7 3.59188 -0.149823 0
M  V30 12432 C 1171.36 4.33557 -1.44489 0
M  V30 12433 C 1172.36 4.61941 -2.3855 0
M  V30 12434 C 1170.04 4.72585 -1.70201 0
M  V30 12435 C 1172.04 5.2833 -3.56575 0
M  V30 12436 C 1169.73 5.38707 -2.88509 0
M  V30 12437 C 1170.72 5.66509 -3.81518 0
M  V30 12438 O 1170.41 6.31267 -4.97752 0
M  V30 12439 H 1170.14 0.666405 -0.113493 0
M  V30 12440 H 1172.7 1.81261 -0.966099 0
M  V30 12441 H 1170.93 3.81742 0.617276 0
M  V30 12442 H 1172.62 4.05008 0.268965 0
M  V30 12443 H 1173.38 4.32259 -2.19947 0
M  V30 12444 H 1169.26 4.50318 -0.986628 0
M  V30 12445 H 1172.81 5.49947 -4.2919 0
M  V30 12446 H 1168.7 5.67809 -3.07023 0
M  V30 12447 H 1169.47 6.49764 -4.97745 0
M  V30 12448 N 1172.13 0.454803 1.50895 0
M  V30 12449 C 1173.08 -0.347769 2.28165 0
M  V30 12450 C 1174.05 -1.00158 1.32505 0
M  V30 12451 O 1175.24 -1.01715 1.61427 0
M  V30 12452 C 1172.38 -1.43315 3.13934 0
M  V30 12453 C 1171.49 -0.795736 4.24608 0
M  V30 12454 C 1170.62 -1.85763 4.9766 0
M  V30 12455 C 1169.66 -1.19959 6.0023 0
M  V30 12456 N 1168.8 -2.20361 6.66622 0
M  V30 12457 H 1173.64 0.317493 2.96304 0
M  V30 12458 H 1171.18 0.168418 1.46133 0
M  V30 12459 H 1173.13 -2.07391 3.62001 0
M  V30 12460 H 1171.76 -2.0678 2.47875 0
M  V30 12461 H 1170.82 -0.0428173 3.80376 0
M  V30 12462 H 1172.13 -0.275477 4.98039 0
M  V30 12463 H 1171.28 -2.5746 5.49363 0
M  V30 12464 H 1170.02 -2.41166 4.23899 0
M  V30 12465 H 1169.03 -0.46817 5.47803 0
M  V30 12466 H 1170.25 -0.652666 6.75956 0
M  V30 12467 H 1168.2 -2.74812 5.95663 0
M  V30 12468 H 1168.11 -1.73275 7.35875 0
M  V30 12469 H 1169.38 -2.91488 7.22949 0
M  V30 12470 N 1173.61 -1.56489 0.186789 0
M  V30 12471 C 1174.84 -2.01722 -0.459993 0
M  V30 12472 C 1175.25 -1.06697 -1.5576 0
M  V30 12473 O 1174.61 -0.0704212 -1.82364 0
M  V30 12474 C 1174.66 -3.46693 -1.02401 0
M  V30 12475 O 1174.38 -4.3809 0.0297916 0
M  V30 12476 C 1175.88 -4.07403 -1.7475 0
M  V30 12477 H 1173.1 -0.660845 -0.116298 0
M  V30 12478 H 1175.65 -2.02389 0.293059 0
M  V30 12479 H 1173.8 -3.46752 -1.72749 0
M  V30 12480 H 1174.22 -5.23057 -0.388821 0
M  V30 12481 H 1175.69 -5.10718 -2.09455 0
M  V30 12482 H 1176.17 -3.50383 -2.64818 0
M  V30 12483 H 1176.77 -4.11093 -1.09007 0
M  V30 12484 N 1175.09 0.086862 -1.5736 0
M  V30 12485 C 1176.04 1.10478 -2.02641 0
M  V30 12486 C 1177.01 1.39331 -0.904219 0
M  V30 12487 O 1178.19 1.50654 -1.17081 0
M  V30 12488 C 1175.33 2.41754 -2.4627 0
M  V30 12489 C 1174.44 2.19561 -3.72044 0
M  V30 12490 C 1173.58 3.44294 -4.04519 0
M  V30 12491 C 1172.62 3.17399 -5.23378 0
M  V30 12492 N 1171.76 4.3442 -5.51564 0
M  V30 12493 H 1176.6 0.711663 -2.89378 0
M  V30 12494 H 1174.13 0.339856 -1.4312 0
M  V30 12495 H 1176.09 3.18378 -2.69613 0
M  V30 12496 H 1174.72 2.78896 -1.62532 0
M  V30 12497 H 1173.77 1.337 -3.5613 0
M  V30 12498 H 1175.08 1.95685 -4.58812 0
M  V30 12499 H 1174.24 4.29321 -4.28682 0
M  V30 12500 H 1172.98 3.71232 -3.16289 0
M  V30 12501 H 1171.98 2.30765 -4.99026 0
M  V30 12502 H 1173.21 2.91799 -6.13213 0
M  V30 12503 H 1171.15 4.61418 -4.66293 0
M  V30 12504 H 1171.07 4.13764 -6.3272 0
M  V30 12505 H 1172.34 5.20489 -5.80269 0
M  V30 12506 N 1176.57 1.53483 0.357892 0
M  V30 12507 C 1177.8 1.73956 1.12013 0
M  V30 12508 C 1178.21 0.472053 1.82803 0
M  V30 12509 O 1177.57 -0.555499 1.7384 0
M  V30 12510 C 1177.62 2.91015 2.14459 0
M  V30 12511 O 1177.34 4.12862 1.4655 0
M  V30 12512 C 1178.84 3.23423 3.0317 0
M  V30 12513 H 1176.06 0.58161 0.334621 0
M  V30 12514 H 1178.6 2.00256 0.414467 0
M  V30 12515 H 1176.76 2.67087 2.80612 0
M  V30 12516 H 1177.17 4.78468 2.14869 0
M  V30 12517 H 1178.65 4.08717 3.71018 0
M  V30 12518 H 1179.12 2.39114 3.68404 0
M  V30 12519 H 1179.73 3.49305 2.42624 0
M  V30 12520 N 1178.05 -0.61812 1.44973 0
M  V30 12521 C 1179.29 -1.37468 1.48145 0
M  V30 12522 C 1179.61 -1.94628 0.120366 0
M  V30 12523 O 1178.88 -1.76548 -0.848982 0
M  V30 12524 H 1177.46 -0.510293 0.545536 0
M  V30 12525 H 1180.13 -0.726598 1.8085 0
M  V30 12526 H 1179.22 -2.19944 2.2143 0
M  V30 12527 N 1179.52 -1.32087 -0.859693 0
M  V30 12528 C 1180.77 -1.22119 -1.61033 0
M  V30 12529 C 1181.09 0.218289 -1.93774 0
M  V30 12530 O 1180.36 1.14172 -1.5919 0
M  V30 12531 H 1178.94 -0.448989 -0.597008 0
M  V30 12532 H 1181.6 -1.65545 -1.02863 0
M  V30 12533 H 1180.7 -1.80023 -2.54947 0
M  V30 12534 N 1181 1.07532 -1.15215 0
M  V30 12535 C 1182.23 1.83817 -0.949687 0
M  V30 12536 C 1182.64 1.82004 0.501991 0
M  V30 12537 O 1182 1.23014 1.34811 0
M  V30 12538 C 1182.05 3.30978 -1.45382 0
M  V30 12539 O 1181.77 3.32844 -2.84863 0
M  V30 12540 C 1183.27 4.24037 -1.29257 0
M  V30 12541 H 1180.49 0.58 -0.337404 0
M  V30 12542 H 1183.04 1.35752 -1.52944 0
M  V30 12543 H 1181.19 3.76399 -0.916638 0
M  V30 12544 H 1181.61 4.24773 -3.07682 0
M  V30 12545 H 1183.08 5.25371 -1.69379 0
M  V30 12546 H 1183.56 4.38563 -0.236519 0
M  V30 12547 H 1184.16 3.8445 -1.81874 0
M  V30 12548 N 1182.48 0.948665 1.2585 0
M  V30 12549 C 1183.73 0.59905 1.93018 0
M  V30 12550 C 1184.05 -0.865813 1.74725 0
M  V30 12551 O 1183.32 -1.61602 1.10732 0
M  V30 12552 H 1181.9 0.218565 0.71431 0
M  V30 12553 H 1184.56 1.20561 1.53137 0
M  V30 12554 H 1183.66 0.823244 3.01047 0
M  V30 12555 N 1183.96 -1.40369 0.716545 0
M  V30 12556 C 1185.24 -1.94737 0.183576 0
M  V30 12557 C 1185.62 -1.65464 -1.31092 0
M  V30 12558 O 1184.96 -0.972832 -2.06756 0
M  V30 12559 C 1185.17 -3.45438 0.497339 0
M  V30 12560 C 1186.52 -4.2235 0.436526 0
M  V30 12561 O 1187.55 -3.53553 0.433454 0
M  V30 12562 O 1186.4 -5.44923 0.41489 0
M  V30 12563 H 1183.5 -0.82655 0.0272785 0
M  V30 12564 H 1186.04 -1.49972 0.794143 0
M  V30 12565 H 1184.82 -3.60107 1.53097 0
M  V30 12566 H 1184.44 -3.97342 -0.143141 0
M  V30 12567 N 1185.44 -0.462799 -1.50652 0
M  V30 12568 C 1186.71 0.156221 -1.94975 0
M  V30 12569 C 1187.09 1.5775 -1.40279 0
M  V30 12570 O 1186.44 2.20473 -0.600323 0
M  V30 12571 C 1186.65 0.108008 -3.48833 0
M  V30 12572 C 1188 0.301013 -4.23532 0
M  V30 12573 O 1189.02 0.184973 -3.55719 0
M  V30 12574 O 1187.88 0.534457 -5.4388 0
M  V30 12575 H 1184.98 0.116182 -0.818798 0
M  V30 12576 H 1187.52 -0.522607 -1.61453 0
M  V30 12577 H 1186.29 -0.884634 -3.81169 0
M  V30 12578 H 1185.92 0.828653 -3.88869 0
M  V30 12579 N 1186.91 1.56388 -0.195085 0
M  V30 12580 C 1188.16 1.9758 0.443686 0
M  V30 12581 C 1188.49 1.08196 1.61629 0
M  V30 12582 O 1187.74 0.121061 1.95325 0
M  V30 12583 C 1188.04 3.44651 0.946051 0
M  V30 12584 C 1187.71 4.50758 -0.11318 0
M  V30 12585 C 1186.37 4.79499 -0.404229 0
M  V30 12586 C 1188.72 5.14534 -0.830899 0
M  V30 12587 C 1186.05 5.69307 -1.41797 0
M  V30 12588 C 1188.4 6.05438 -1.83379 0
M  V30 12589 C 1187.07 6.32535 -2.13204 0
M  V30 12590 H 1186.34 0.722995 0.162356 0
M  V30 12591 H 1188.98 1.8926 -0.292049 0
M  V30 12592 H 1187.29 3.50042 1.76006 0
M  V30 12593 H 1188.99 3.73878 1.44969 0
M  V30 12594 H 1185.58 4.28421 0.123833 0
M  V30 12595 H 1189.76 4.92421 -0.61927 0
M  V30 12596 H 1185.02 5.88575 -1.65496 0
M  V30 12597 H 1189.19 6.53915 -2.39516 0
M  V30 12598 H 1186.82 7.01924 -2.91902 0
M  V30 12599 N 1188.39 -0.0785156 1.57404 0
M  V30 12600 C 1189.64 -0.777722 1.86103 0
M  V30 12601 C 1189.95 -1.79079 0.786771 0
M  V30 12602 O 1191.16 -2.53908 0.961393 0
M  V30 12603 C 1189.62 -1.43407 3.30095 0
M  V30 12604 C 1189.22 -0.459912 4.45633 0
M  V30 12605 C 1190.97 -2.11603 3.68 0
M  V30 12606 C 1188.88 -1.12179 5.80663 0
M  V30 12607 H 1187.81 -0.294205 0.694233 0
M  V30 12608 H 1190.46 -0.0309003 1.83474 0
M  V30 12609 H 1188.84 -2.22892 3.27315 0
M  V30 12610 H 1190.01 0.304642 4.59792 0
M  V30 12611 H 1188.33 0.117242 4.16235 0
M  V30 12612 H 1190.92 -2.61887 4.66175 0
M  V30 12613 H 1191.27 -2.91244 2.9746 0
M  V30 12614 H 1191.8 -1.38958 3.72741 0
M  V30 12615 H 1188.54 -0.365842 6.54478 0
M  V30 12616 H 1188.06 -1.85737 5.70317 0
M  V30 12617 H 1189.74 -1.64355 6.25777 0
M  V30 12618 N 1189.87 -1.5367 -0.349747 0
M  V30 12619 C 1191.12 -1.69835 -1.08807 0
M  V30 12620 C 1191.43 -0.46497 -1.89993 0
M  V30 12621 O 1192.64 -0.507452 -2.66716 0
M  V30 12622 C 1191.09 -3.00294 -1.98372 0
M  V30 12623 C 1190.7 -4.30949 -1.22422 0
M  V30 12624 C 1192.45 -3.25826 -2.72099 0
M  V30 12625 C 1190.35 -5.52486 -2.1098 0
M  V30 12626 H 1189.28 -0.63284 -0.409915 0
M  V30 12627 H 1191.93 -1.80171 -0.347968 0
M  V30 12628 H 1190.32 -2.838 -2.76176 0
M  V30 12629 H 1191.49 -4.58126 -0.495707 0
M  V30 12630 H 1189.81 -4.11983 -0.604896 0
M  V30 12631 H 1192.4 -4.13817 -3.38615 0
M  V30 12632 H 1192.75 -2.42566 -3.3833 0
M  V30 12633 H 1193.28 -3.43067 -2.0137 0
M  V30 12634 H 1190.02 -6.38271 -1.49301 0
M  V30 12635 H 1189.54 -5.29566 -2.81638 0
M  V30 12636 H 1191.22 -5.87889 -2.70176 0
M  V30 12637 N 1191.35 0.610423 -1.45298 0
M  V30 12638 C 1192.63 1.36966 -1.39641 0
M  V30 12639 C 1193.01 2.10998 -0.0655757 0
M  V30 12640 O 1192.35 2.07705 0.952407 0
M  V30 12641 C 1192.56 2.31885 -2.60826 0
M  V30 12642 C 1193.91 2.9458 -3.05791 0
M  V30 12643 O 1194.94 2.42207 -2.61179 0
M  V30 12644 O 1193.79 3.89639 -3.83202 0
M  V30 12645 H 1190.89 0.61401 -0.554004 0
M  V30 12646 H 1193.43 0.633748 -1.57422 0
M  V30 12647 H 1192.21 1.76421 -3.49272 0
M  V30 12648 H 1191.83 3.12861 -2.45364 0
M  V30 12649 N 1192.83 1.32541 0.852676 0
M  V30 12650 C 1194.07 1.24406 1.60918 0
M  V30 12651 C 1194.43 -0.19184 1.91441 0
M  V30 12652 O 1193.72 -1.13016 1.54719 0
M  V30 12653 C 1193.91 2.039 2.9353 0
M  V30 12654 C 1193.74 3.55074 2.75957 0
M  V30 12655 C 1192.51 4.24409 2.74236 0
M  V30 12656 C 1194.71 4.49686 2.49574 0
M  V30 12657 N 1192.69 5.61624 2.47895 0
M  V30 12658 C 1194.06 5.74692 2.32658 0
M  V30 12659 C 1196.12 4.38921 2.35058 0
M  V30 12660 C 1194.82 6.90149 2.027 0
M  V30 12661 C 1196.85 5.5418 2.06491 0
M  V30 12662 C 1196.21 6.78186 1.90377 0
M  V30 12663 H 1192.31 0.510401 0.592465 0
M  V30 12664 H 1194.89 1.66929 1.00214 0
M  V30 12665 H 1193.06 1.6372 3.52208 0
M  V30 12666 H 1194.8 1.87644 3.58569 0
M  V30 12667 H 1191.55 3.76546 2.87246 0
M  V30 12668 H 1191.98 6.33918 2.37648 0
M  V30 12669 H 1196.62 3.43697 2.46236 0
M  V30 12670 H 1194.34 7.85383 1.90259 0
M  V30 12671 H 1197.92 5.47779 1.96035 0
M  V30 12672 H 1196.8 7.65864 1.68587 0
M  V30 12673 N 1194.3 -1.0692 1.15784 0
M  V30 12674 C 1195.72 -1.61069 0.944123 0
M  V30 12675 C 1196.07 -1.8936 -0.513522 0
M  V30 12676 O 1195.19 -1.66232 -1.38549 0
M  V30 12677 C 1195.79 -2.9263 1.70743 0
M  V30 12678 C 1194.35 -3.43505 1.53887 0
M  V30 12679 C 1193.49 -2.17495 1.72021 0
M  V30 12680 H 1196.44 -0.89951 1.30746 0
M  V30 12681 H 1196.46 -3.61757 1.17951 0
M  V30 12682 H 1195.98 -2.72007 2.76828 0
M  V30 12683 H 1194.08 -3.69201 0.502153 0
M  V30 12684 H 1194.19 -4.19254 2.31868 0
M  V30 12685 H 1192.55 -2.27407 1.1471 0
M  V30 12686 H 1193.34 -1.99362 2.79481 0
M  V30 12687 N 1195.78 -0.955326 -1.25345 0
M  V30 12688 C 1197.06 -0.527828 -1.88344 0
M  V30 12689 C 1197.44 0.994911 -1.86185 0
M  V30 12690 O 1196.79 1.86099 -1.32587 0
M  V30 12691 C 1197 -1.10525 -3.31037 0
M  V30 12692 C 1198.35 -1.18253 -4.07801 0
M  V30 12693 O 1199.37 -1.05685 -3.4016 0
M  V30 12694 O 1198.23 -1.37978 -5.28795 0
M  V30 12695 H 1195.32 -0.174206 -0.808444 0
M  V30 12696 H 1197.87 -1.0488 -1.3341 0
M  V30 12697 H 1196.64 -2.14847 -3.27042 0
M  V30 12698 H 1196.26 -0.567568 -3.93528 0
M  V30 12699 N 1197.26 1.39987 -0.723979 0
M  V30 12700 C 1198.17 2.3447 -0.0780936 0
M  V30 12701 C 1199.19 1.57744 0.734368 0
M  V30 12702 O 1200.36 1.90091 0.665385 0
M  V30 12703 C 1197.43 3.36705 0.826492 0
M  V30 12704 C 1196.49 4.293 0.00303036 0
M  V30 12705 C 1195.72 5.26651 0.864535 0
M  V30 12706 O 1195.95 5.30194 2.10357 0
M  V30 12707 O 1194.88 6.01157 0.299057 0
M  V30 12708 H 1198.71 2.91338 -0.857646 0
M  V30 12709 H 1196.29 1.41324 -0.484536 0
M  V30 12710 H 1198.17 3.9938 1.34439 0
M  V30 12711 H 1196.85 2.82237 1.58505 0
M  V30 12712 H 1195.75 3.69883 -0.560136 0
M  V30 12713 H 1197.09 4.86942 -0.717494 0
M  V30 12714 N 1198.74 0.470782 1.50404 0
M  V30 12715 C 1200.02 -0.145879 1.95055 0
M  V30 12716 C 1200.4 -1.57004 1.41114 0
M  V30 12717 O 1199.74 -2.20152 0.612006 0
M  V30 12718 C 1199.95 -0.0895071 3.48885 0
M  V30 12719 C 1201.3 -0.278548 4.23685 0
M  V30 12720 O 1202.33 -0.166105 3.55812 0
M  V30 12721 O 1201.19 -0.505606 5.44156 0
M  V30 12722 H 1198.28 -0.111838 0.819403 0
M  V30 12723 H 1200.83 0.531162 1.61173 0
M  V30 12724 H 1199.6 0.904836 3.80695 0
M  V30 12725 H 1199.22 -0.808019 3.89303 0
M  V30 12726 N 1200.22 -1.56282 0.203376 0
M  V30 12727 C 1201.17 -2.20822 -0.730784 0
M  V30 12728 C 1202.16 -1.18193 -1.21354 0
M  V30 12729 O 1203.37 -1.36318 -1.17547 0
M  V30 12730 H 1199.74 -0.707792 -0.254036 0
M  V30 12731 H 1201.71 -2.97955 -0.162825 0
M  V30 12732 C 1200.46 -2.88803 -1.93618 0
M  V30 12733 H 1199.78 -3.67521 -1.57379 0
M  V30 12734 H 1201.22 -3.37387 -2.56799 0
M  V30 12735 C 1199.68 -1.90285 -2.78017 0
M  V30 12736 O 1200.21 -1.40833 -3.76203 0
M  V30 12737 N 1198.42 -1.58332 -2.43679 0
M  V30 12738 H 1197.97 -1.9874 -1.63891 0
M  V30 12739 H 1197.92 -0.926722 -3.00432 0
M  V30 12740 N 1201.7 0.070167 -1.57444 0
M  V30 12741 C 1202.64 1.10193 -2.04842 0
M  V30 12742 C 1203.64 1.39978 -0.954069 0
M  V30 12743 O 1204.84 1.39366 -1.13917 0
M  V30 12744 H 1201.22 0.372699 -0.653146 0
M  V30 12745 H 1203.19 0.676033 -2.90641 0
M  V30 12746 C 1201.94 2.40679 -2.50936 0
M  V30 12747 H 1201.26 2.1861 -3.34738 0
M  V30 12748 H 1202.7 3.11315 -2.87852 0
M  V30 12749 C 1201.16 3.06754 -1.39297 0
M  V30 12750 O 1201.69 3.949 -0.735989 0
M  V30 12751 N 1199.9 2.67404 -1.13769 0
M  V30 12752 H 1199.44 1.95813 -1.67376 0
M  V30 12753 H 1199.4 3.11937 -0.392787 0
M  V30 12754 N 1203.17 1.53854 0.341593 0
M  V30 12755 C 1204.45 1.61823 1.09875 0
M  V30 12756 C 1204.83 0.440711 2.06448 0
M  V30 12757 O 1204.18 -0.566833 2.21358 0
M  V30 12758 C 1204.39 2.9799 1.81668 0
M  V30 12759 C 1205.74 3.53411 2.35341 0
M  V30 12760 O 1206.76 3.00177 1.91761 0
M  V30 12761 O 1205.62 4.4653 3.15076 0
M  V30 12762 H 1202.71 0.654599 0.5054 0
M  V30 12763 H 1205.26 1.66199 0.342929 0
M  V30 12764 H 1204.03 3.7513 1.11323 0
M  V30 12765 H 1203.65 2.97213 2.64103 0
M  V30 12766 N 1204.65 -0.602709 1.4562 0
M  V30 12767 C 1205.93 -1.36224 1.40366 0
M  V30 12768 C 1206.31 -2.1096 0.0767645 0
M  V30 12769 O 1205.66 -2.08207 -0.941378 0
M  V30 12770 C 1205.87 -2.30499 2.62052 0
M  V30 12771 C 1207.21 -2.92954 3.07348 0
M  V30 12772 O 1208.24 -2.40818 2.62459 0
M  V30 12773 O 1207.1 -3.87601 3.85263 0
M  V30 12774 H 1204.19 -0.611064 0.557253 0
M  V30 12775 H 1206.74 -0.625391 1.57756 0
M  V30 12776 H 1205.51 -1.74566 3.50203 0
M  V30 12777 H 1205.13 -3.11556 2.4702 0
M  V30 12778 N 1206.13 -1.32992 -0.845635 0
M  V30 12779 C 1207.36 -1.27087 -1.63268 0
M  V30 12780 C 1207.77 0.159481 -1.88125 0
M  V30 12781 O 1207.13 1.09948 -1.45663 0
M  V30 12782 C 1207.18 -2.03649 -2.98679 0
M  V30 12783 O 1206.9 -3.41104 -2.74918 0
M  V30 12784 C 1208.4 -2.04875 -3.93117 0
M  V30 12785 H 1205.62 -0.438107 -0.508236 0
M  V30 12786 H 1208.17 -1.75257 -1.05381 0
M  V30 12787 H 1206.32 -1.59178 -3.53187 0
M  V30 12788 H 1206.74 -3.80405 -3.61099 0
M  V30 12789 H 1208.21 -2.62911 -4.85368 0
M  V30 12790 H 1208.69 -1.03728 -4.26775 0
M  V30 12791 H 1209.29 -2.49334 -3.44547 0
M  V30 12792 N 1207.61 1.06304 -1.1635 0
M  V30 12793 C 1209.02 1.60566 -0.952652 0
M  V30 12794 C 1209.37 1.8963 0.503473 0
M  V30 12795 O 1208.49 1.66964 1.37666 0
M  V30 12796 C 1209.09 2.9172 -1.72292 0
M  V30 12797 C 1207.65 3.42684 -1.55707 0
M  V30 12798 C 1206.8 2.16579 -1.73172 0
M  V30 12799 H 1209.75 0.892563 -1.31221 0
M  V30 12800 H 1209.77 3.61126 -1.19868 0
M  V30 12801 H 1209.28 2.70535 -2.78267 0
M  V30 12802 H 1207.38 3.68929 -0.521726 0
M  V30 12803 H 1207.49 4.18018 -2.34088 0
M  V30 12804 H 1205.86 2.26795 -1.15914 0
M  V30 12805 H 1206.64 1.97877 -2.80535 0
M  V30 12806 N 1209.09 0.96196 1.24836 0
M  V30 12807 C 1210.05 0.492443 2.23847 0
M  V30 12808 C 1211.05 -0.40788 1.55541 0
M  V30 12809 O 1212.24 -0.204143 1.73 0
M  V30 12810 C 1209.37 -0.287578 3.39685 0
M  V30 12811 H 1210.56 1.36767 2.66899 0
M  V30 12812 H 1208.12 0.745967 1.3735 0
M  V30 12813 H 1208.85 -1.18015 3.02064 0
M  V30 12814 H 1208.64 0.358431 3.90458 0
M  V30 12815 H 1210.13 -0.605297 4.1319 0
M  V30 12816 N 1210.56 -1.39601 0.731392 0
M  V30 12817 C 1211.79 -2.0459 0.287472 0
M  V30 12818 C 1212.2 -1.5525 -1.08139 0
M  V30 12819 O 1211.54 -0.710949 -1.69385 0
M  V30 12820 C 1211.61 -3.58904 0.206948 0
M  V30 12821 C 1211.27 -4.31204 1.51368 0
M  V30 12822 C 1212.27 -4.58088 2.45869 0
M  V30 12823 C 1209.95 -4.69818 1.77698 0
M  V30 12824 C 1211.95 -5.22591 3.64935 0
M  V30 12825 C 1209.63 -5.34049 2.97043 0
M  V30 12826 C 1210.63 -5.60368 3.90483 0
M  V30 12827 O 1210.32 -6.23268 5.07732 0
M  V30 12828 H 1210.05 -0.664515 0.12408 0
M  V30 12829 H 1212.61 -1.79701 0.994814 0
M  V30 12830 H 1210.84 -3.82675 -0.556466 0
M  V30 12831 H 1212.52 -4.05385 -0.204498 0
M  V30 12832 H 1213.29 -4.28706 2.26796 0
M  V30 12833 H 1209.17 -4.48692 1.05815 0
M  V30 12834 H 1212.71 -5.43049 4.37885 0
M  V30 12835 H 1208.61 -5.62852 3.16018 0
M  V30 12836 H 1209.38 -6.41763 5.08019 0
M  V30 12837 N 1212.04 -0.478751 -1.50152 0
M  V30 12838 C 1213.29 0.073694 -2.02666 0
M  V30 12839 C 1213.62 1.38679 -1.35947 0
M  V30 12840 O 1212.9 1.88286 -0.4877 0
M  V30 12841 C 1213.18 0.249516 -3.59235 0
M  V30 12842 C 1213.03 -1.08514 -4.36514 0
M  V30 12843 C 1214.35 1.00053 -4.28576 0
M  V30 12844 H 1211.47 0.0253082 -0.736565 0
M  V30 12845 H 1214.11 -0.625834 -1.79397 0
M  V30 12846 H 1212.26 0.845343 -3.79192 0
M  V30 12847 H 1213.93 -1.71814 -4.28109 0
M  V30 12848 H 1212.18 -1.67992 -3.99952 0
M  V30 12849 H 1212.85 -0.915676 -5.44352 0
M  V30 12850 H 1215.32 0.495422 -4.1314 0
M  V30 12851 H 1214.2 1.09236 -5.37921 0
M  V30 12852 H 1214.46 2.03896 -3.92274 0
M  V30 12853 N 1213.52 1.56172 -0.211661 0
M  V30 12854 C 1214.77 1.98332 0.423332 0
M  V30 12855 C 1215.1 1.09895 1.60115 0
M  V30 12856 O 1214.37 0.154477 1.93886 0
M  V30 12857 C 1214.66 3.49495 0.86747 0
M  V30 12858 C 1214.51 4.48708 -0.313302 0
M  V30 12859 C 1215.83 4.04793 1.72716 0
M  V30 12860 H 1212.95 0.72107 0.152402 0
M  V30 12861 H 1215.59 1.87521 -0.305912 0
M  V30 12862 H 1213.74 3.58839 1.48885 0
M  V30 12863 H 1215.41 4.51385 -0.951291 0
M  V30 12864 H 1213.66 4.2299 -0.96238 0
M  V30 12865 H 1214.33 5.51985 0.0402402 0
M  V30 12866 H 1216.8 3.98332 1.20296 0
M  V30 12867 H 1215.68 5.10898 2.00684 0
M  V30 12868 H 1215.94 3.51067 2.68709 0
M  V30 12869 N 1215 -0.0618163 1.57479 0
M  V30 12870 C 1216.28 -0.792636 1.7882 0
M  V30 12871 C 1216.66 -1.95283 0.801724 0
M  V30 12872 O 1216 -2.27917 -0.163095 0
M  V30 12873 C 1216.21 -1.25629 3.25605 0
M  V30 12874 C 1217.56 -1.68561 3.89708 0
M  V30 12875 O 1218.59 -1.35171 3.29556 0
M  V30 12876 O 1217.44 -2.30417 4.95551 0
M  V30 12877 H 1214.54 -0.380595 0.734218 0
M  V30 12878 H 1217.08 -0.0411205 1.6965 0
M  V30 12879 H 1215.86 -0.426582 3.88968 0
M  V30 12880 H 1215.48 -2.06882 3.39537 0
M  V30 12881 N 1216.48 -1.54033 -0.333429 0
M  V30 12882 C 1217.39 -1.85737 -1.43314 0
M  V30 12883 C 1218.4 -0.748398 -1.57083 0
M  V30 12884 O 1219.58 -1.04171 -1.72367 0
M  V30 12885 C 1216.64 -2.06942 -2.78165 0
M  V30 12886 C 1215.7 -3.30774 -2.73655 0
M  V30 12887 C 1214.94 -3.50957 -4.02075 0
M  V30 12888 O 1215.16 -2.74774 -4.99855 0
M  V30 12889 O 1214.09 -4.44412 -4.05933 0
M  V30 12890 H 1217.92 -2.7923 -1.19434 0
M  V30 12891 H 1215.51 -1.39814 -0.526546 0
M  V30 12892 H 1217.39 -2.22276 -3.58011 0
M  V30 12893 H 1216.06 -1.16638 -3.01956 0
M  V30 12894 H 1214.97 -3.20835 -1.92395 0
M  V30 12895 H 1216.3 -4.21103 -2.54819 0
M  V30 12896 N 1217.95 0.594978 -1.45938 0
M  V30 12897 C 1219.23 1.35477 -1.41086 0
M  V30 12898 C 1219.61 2.10917 -0.0879512 0
M  V30 12899 O 1218.96 2.08704 0.930323 0
M  V30 12900 C 1219.17 2.29106 -2.63271 0
M  V30 12901 C 1220.52 2.9132 -3.08898 0
M  V30 12902 O 1221.54 2.39423 -2.63733 0
M  V30 12903 O 1220.4 3.85553 -3.87313 0
M  V30 12904 H 1217.49 0.6081 -0.560485 0
M  V30 12905 H 1220.04 0.617016 -1.58085 0
M  V30 12906 H 1218.81 1.72707 -3.51124 0
M  V30 12907 H 1218.44 3.10241 -2.48669 0
M  V30 12908 N 1219.43 1.33438 0.838571 0
M  V30 12909 C 1220.36 1.26344 1.96365 0
M  V30 12910 C 1221.34 0.143956 1.6949 0
M  V30 12911 O 1222.53 0.333779 1.9131 0
M  V30 12912 C 1219.66 1.0022 3.32526 0
M  V30 12913 C 1218.61 2.08466 3.73799 0
M  V30 12914 C 1217.94 1.67555 5.07769 0
M  V30 12915 C 1219.24 3.50144 3.87552 0
M  V30 12916 H 1220.93 2.20478 2.02558 0
M  V30 12917 H 1218.48 1.06139 0.973168 0
M  V30 12918 H 1220.43 0.939068 4.10803 0
M  V30 12919 H 1219.16 0.0252514 3.2659 0
M  V30 12920 H 1217.81 2.13822 2.97785 0
M  V30 12921 H 1217.46 0.685619 4.98305 0
M  V30 12922 H 1217.16 2.39993 5.36356 0
M  V30 12923 H 1218.69 1.62708 5.88522 0
M  V30 12924 H 1220.1 3.47287 4.56141 0
M  V30 12925 H 1218.5 4.21069 4.27575 0
M  V30 12926 H 1219.57 3.88628 2.89994 0
M  V30 12927 N 1220.91 -1.05686 1.16912 0
M  V30 12928 C 1222.14 -1.82018 0.977392 0
M  V30 12929 C 1222.55 -1.83072 -0.477636 0
M  V30 12930 O 1221.89 -1.25296 -1.34338 0
M  V30 12931 C 1221.95 -3.29592 1.4356 0
M  V30 12932 C 1221.62 -3.5223 2.91175 0
M  V30 12933 C 1222.61 -3.44767 3.89142 0
M  V30 12934 C 1220.3 -3.79353 3.29236 0
M  V30 12935 C 1222.29 -3.64104 5.2317 0
M  V30 12936 C 1219.98 -3.98339 4.63432 0
M  V30 12937 C 1220.98 -3.90713 5.60207 0
M  V30 12938 O 1220.67 -4.09175 6.91976 0
M  V30 12939 H 1220.4 -0.580578 0.346273 0
M  V30 12940 H 1222.95 -1.34199 1.55498 0
M  V30 12941 H 1221.18 -3.78302 0.80153 0
M  V30 12942 H 1222.87 -3.87435 1.21032 0
M  V30 12943 H 1223.64 -3.23796 3.61083 0
M  V30 12944 H 1219.52 -3.84395 2.54482 0
M  V30 12945 H 1223.06 -3.58068 5.98693 0
M  V30 12946 H 1218.96 -4.18801 4.91198 0
M  V30 12947 H 1219.73 -4.26429 6.98642 0
M  V30 12948 N 1222.39 -0.968567 -1.24324 0
M  V30 12949 C 1223.61 -0.648166 -1.97012 0
M  V30 12950 C 1224.04 0.775842 -1.71354 0
M  V30 12951 O 1223.4 1.52672 -0.977804 0
M  V30 12952 C 1223.44 -0.929974 -3.48402 0
M  V30 12953 O 1222.55 -0.015854 -4.12397 0
M  V30 12954 H 1221.89 -0.244961 -0.617163 0
M  V30 12955 H 1224.42 -1.29895 -1.58077 0
M  V30 12956 H 1224.43 -0.861863 -3.98793 0
M  V30 12957 H 1223.1 -1.96776 -3.66404 0
M  V30 12958 H 1221.68 -0.137361 -3.72647 0
M  V30 12959 O 1223.91 1.35649 -0.87645 0
M  V30 12960 H 1224.6 1.87696 -0.478547 0
M  V30 END ATOM
M  V30 BEGIN BOND
M  V30 END BOND
M  V30 END CTAB
M  END
$$$$
