drugbank_target|C7C422 Metallo-beta-lactamase type 2 (DB04272)
 OpenBabel12092121233D

  0  0  0     0  0            999 V3000
M  V30 BEGIN CTAB
M  V30 COUNTS 3967 4012 0 0 0
M  V30 BEGIN ATOM
M  V30 1 H -0.908 1.98254 -0.117106 0
M  V30 2 N 0 1.576 0 0
M  V30 3 C 0.933 2.03868 1.02534 0
M  V30 4 C 1.911 0.928543 1.3348 0
M  V30 5 O 3.095 1.19667 1.45644 0
M  V30 6 C 0.222 2.43627 2.35294 0
M  V30 7 C -0.732 3.65373 2.2001 0
M  V30 8 S 0.101 5.13292 1.52614 0
M  V30 9 C 1.257 5.56322 2.86805 0
M  V30 10 H 1.49 2.90518 0.631377 0
M  V30 11 H -0.977 1.52953 0.210867 0
M  V30 12 H 0.981 2.67203 3.11629 0
M  V30 13 H -0.358 1.57376 2.7183 0
M  V30 14 H -1.165 3.90944 3.18086 0
M  V30 15 H -1.563 3.418 1.51819 0
M  V30 16 H 0.729 5.58782 3.83104 0
M  V30 17 H 1.672 6.56266 2.65933 0
M  V30 18 H 2.08 4.83886 2.90714 0
M  V30 19 N 1.4781 -0.272755 1.55222 0
M  V30 20 C 2.3881 -1.35918 1.91216 0
M  V30 21 C 3.4041 -1.54026 0.809436 0
M  V30 22 O 4.5801 -1.68148 1.10852 0
M  V30 23 C 1.6451 -2.69834 2.17693 0
M  V30 24 C 0.7061 -2.6047 3.41253 0
M  V30 25 C -0.0609 -3.88 3.66458 0
M  V30 26 O 0.1621 -4.88693 2.94169 0
M  V30 27 O -0.9039 -3.88189 4.59992 0
M  V30 28 H 2.9221 -1.0839 2.83699 0
M  V30 29 H 0.5071 -0.471301 1.41771 0
M  V30 30 H 2.3891 -3.49017 2.36147 0
M  V30 31 H 1.0641 -2.97148 1.28392 0
M  V30 32 H -0.0289 -1.79663 3.28134 0
M  V30 33 H 1.3041 -2.38106 4.30774 0
M  V30 34 N 2.9562 -1.48159 -0.537278 0
M  V30 35 C 3.8862 -1.65029 -1.6519 0
M  V30 36 C 4.8672 -0.499281 -1.62607 0
M  V30 37 O 6.0522 -0.730972 -1.79918 0
M  V30 38 C 3.1822 -1.68303 -3.03795 0
M  V30 39 C 2.1362 -2.8283 -3.21234 0
M  V30 40 C 1.4622 -2.71189 -4.60826 0
M  V30 41 C 2.7622 -4.24211 -3.04701 0
M  V30 42 H 4.4562 -2.58341 -1.51328 0
M  V30 43 H 2.0022 -1.24325 -0.726585 0
M  V30 44 H 3.9552 -1.78693 -3.81637 0
M  V30 45 H 2.6792 -0.715635 -3.18663 0
M  V30 46 H 1.3382 -2.71983 -2.45807 0
M  V30 47 H 0.9862 -1.72435 -4.7252 0
M  V30 48 H 0.6862 -3.48035 -4.7344 0
M  V30 49 H 2.2102 -2.83537 -5.40777 0
M  V30 50 H 3.6242 -4.3593 -3.72341 0
M  V30 51 H 2.0212 -5.01998 -3.28813 0
M  V30 52 H 3.0912 -4.41184 -2.01209 0
M  V30 53 N 4.4343 0.785586 -1.36625 0
M  V30 54 C 5.8453 1.36101 -1.27803 0
M  V30 55 C 6.1963 1.96035 0.0804875 0
M  V30 56 O 5.3213 1.92834 0.982042 0
M  V30 57 C 5.9163 2.47442 -2.31426 0
M  V30 58 C 4.4753 3.00789 -2.26281 0
M  V30 59 C 3.6223 1.73896 -2.15999 0
M  V30 60 H 6.5733 0.586928 -1.47448 0
M  V30 61 H 6.5943 3.2656 -1.95291 0
M  V30 62 H 6.1063 2.03791 -3.30289 0
M  V30 63 H 4.2073 3.48851 -1.30896 0
M  V30 64 H 4.3203 3.57343 -3.19128 0
M  V30 65 H 2.6843 1.9628 -1.62316 0
M  V30 66 H 3.4673 1.32368 -3.16755 0
M  V30 67 N 5.9124 1.20967 1.01018 0
M  V30 68 C 6.8604 0.961223 2.1181 0
M  V30 69 C 7.8544 -0.0897034 1.69162 0
M  V30 70 O 9.0604 0.0612271 1.79896 0
M  V30 71 H 5.4354 0.29355 0.692338 0
M  V30 72 H 7.4064 1.90178 2.29946 0
M  V30 73 C 6.1554 0.536854 3.4353 0
M  V30 74 H 5.4784 1.33713 3.76777 0
M  V30 75 H 6.9184 0.402286 4.22087 0
M  V30 76 C 5.3774 -0.751574 3.2841 0
M  V30 77 O 5.9074 -1.80841 3.58691 0
M  V30 78 N 4.1134 -0.716079 2.81639 0
M  V30 79 H 3.6604 0.144236 2.57196 0
M  V30 80 H 3.6184 -1.57847 2.71904 0
M  V30 81 N 7.3905 -1.2043 1.01659 0
M  V30 82 C 8.6395 -1.89118 0.701237 0
M  V30 83 C 8.9525 -1.79705 -0.772358 0
M  V30 84 O 10.1585 -2.43528 -1.20026 0
M  V30 85 C 8.6145 -3.39168 1.20388 0
M  V30 86 C 8.2225 -3.57166 2.70438 0
M  V30 87 C 9.9665 -4.1341 0.963953 0
M  V30 88 C 7.8735 -5.01042 3.14183 0
M  V30 89 H 6.8035 -0.708267 0.2586 0
M  V30 90 H 9.4545 -1.36239 1.22927 0
M  V30 91 H 7.8365 -3.91369 0.603824 0
M  V30 92 H 9.0105 -3.15351 3.35992 0
M  V30 93 H 7.3255 -2.96294 2.92572 0
M  V30 94 H 9.9225 -5.19491 1.26621 0
M  V30 95 H 10.2655 -4.16181 -0.099578 0
M  V30 96 H 10.7985 -3.67309 1.52738 0
M  V30 97 H 7.5375 -5.03426 4.19812 0
M  V30 98 H 7.0575 -5.43668 2.53348 0
M  V30 99 H 8.7365 -5.69623 3.0682 0
M  V30 100 N 8.8686 -0.792821 -1.36206 0
M  V30 101 C 9.8016 -0.139422 -2.27774 0
M  V30 102 C 10.7796 0.68649 -1.47398 0
M  V30 103 O 11.9636 0.656738 -1.7669 0
M  V30 104 C 9.0906 0.807947 -3.28922 0
M  V30 105 C 8.1366 0.0633999 -4.26453 0
M  V30 106 S 8.9696 -1.26319 -5.20388 0
M  V30 107 C 10.1256 -0.31991 -6.25082 0
M  V30 108 H 10.3586 -0.915809 -2.82843 0
M  V30 109 H 7.8916 -0.587203 -1.42798 0
M  V30 110 H 9.8496 1.34908 -3.87699 0
M  V30 111 H 8.5106 1.55761 -2.72759 0
M  V30 112 H 7.7036 0.782386 -4.9789 0
M  V30 113 H 7.3056 -0.407352 -3.71775 0
M  V30 114 H 9.5976 0.499985 -6.75653 0
M  V30 115 H 10.5406 -1.00307 -7.00959 0
M  V30 116 H 10.9486 0.0782694 -5.64446 0
M  V30 117 N 10.3467 1.47872 -0.545128 0
M  V30 118 C 11.2967 2.26842 0.229456 0
M  V30 119 C 12.2807 1.33626 0.896267 0
M  V30 120 O 13.4727 1.58063 0.79657 0
M  V30 121 C 10.6017 3.19089 1.26638 0
M  V30 122 C 9.6877 4.19783 0.603598 0
M  V30 123 N 10.0787 5.0479 -0.319405 0
M  V30 124 C 8.3767 4.3765 0.858989 0
M  V30 125 C 9.0777 5.77433 -0.703241 0
M  V30 126 N 8.0537 5.43566 -0.0608309 0
M  V30 127 H 11.8557 2.89947 -0.480391 0
M  V30 128 H 9.3697 1.58263 -0.364209 0
M  V30 129 H 11.3667 3.74337 1.83515 0
M  V30 130 H 10.0267 2.5754 1.97745 0
M  V30 131 H 11.0377 5.13244 -0.692889 0
M  V30 132 H 7.7147 3.87281 1.55948 0
M  V30 133 H 9.1047 6.55824 -1.46098 0
M  V30 134 N 11.8248 0.280983 1.55075 0
M  V30 135 C 13.2358 -0.215629 1.85451 0
M  V30 136 C 13.5868 -1.54991 1.203 0
M  V30 137 O 12.7118 -2.10699 0.493435 0
M  V30 138 C 13.3068 -0.398026 3.36454 0
M  V30 139 C 11.8658 -0.838866 3.66933 0
M  V30 140 C 11.0128 0.064458 2.77225 0
M  V30 141 H 13.9638 0.502601 1.50531 0
M  V30 142 H 13.9848 -1.23569 3.59876 0
M  V30 143 H 13.4968 0.573241 3.83843 0
M  V30 144 H 11.5978 -1.8214 3.25048 0
M  V30 145 H 11.7108 -0.672123 4.74362 0
M  V30 146 H 10.0748 -0.452863 2.50642 0
M  V30 147 H 10.8578 1.03172 3.2743 0
M  V30 148 N 13.3029 -1.57598 0.00835791 0
M  V30 149 C 14.5489 -1.91211 -0.675732 0
M  V30 150 C 14.8819 -0.883139 -1.72958 0
M  V30 151 O 14.1569 0.097016 -1.94258 0
M  V30 152 C 14.4399 -3.35379 -1.31123 0
M  V30 153 C 14.2929 -4.48999 -0.268356 0
M  V30 154 C 15.6119 -3.7912 -2.23508 0
M  V30 155 H 12.7309 -0.695374 -0.244179 0
M  V30 156 H 15.3729 -1.89901 0.0613655 0
M  V30 157 H 13.5229 -3.36626 -1.93946 0
M  V30 158 H 15.1949 -4.59887 0.360844 0
M  V30 159 H 13.4379 -4.31873 0.408482 0
M  V30 160 H 14.1089 -5.46851 -0.752218 0
M  V30 161 H 16.5849 -3.79477 -1.70693 0
M  V30 162 H 15.4609 -4.80729 -2.64936 0
M  V30 163 H 15.7219 -3.13455 -3.11766 0
M  V30 164 N 14.781 0.264519 -1.55364 0
M  V30 165 C 15.744 1.31046 -1.88042 0
M  V30 166 C 16.744 1.41943 -0.755569 0
M  V30 167 O 17.934 1.40947 -1.02369 0
M  V30 168 C 15.066 2.69067 -2.09323 0
M  V30 169 H 16.259 1.03297 -2.81549 0
M  V30 170 H 13.812 0.502989 -1.47986 0
M  V30 171 H 14.547 3.01982 -1.18226 0
M  V30 172 H 14.332 2.62542 -2.91229 0
M  V30 173 H 15.822 3.44623 -2.35848 0
M  V30 174 N 16.2591 1.48442 0.529413 0
M  V30 175 C 17.2061 1.63007 1.63394 0
M  V30 176 C 18.1761 0.47212 1.59249 0
M  V30 177 O 19.3611 0.695673 1.77666 0
M  V30 178 C 16.5011 1.6763 3.01653 0
M  V30 179 C 15.6141 2.94535 3.16027 0
M  V30 180 C 14.7491 2.90316 4.44849 0
M  V30 181 C 13.7881 4.11923 4.52754 0
M  V30 182 N 12.9251 4.05777 5.72965 0
M  V30 183 H 17.7651 2.5733 1.50285 0
M  V30 184 H 15.3021 1.27613 0.731656 0
M  V30 185 H 17.2601 1.68292 3.81751 0
M  V30 186 H 15.8901 0.76797 3.13532 0
M  V30 187 H 14.9421 3.03615 2.29177 0
M  V30 188 H 16.2541 3.84512 3.17729 0
M  V30 189 H 15.4081 2.89382 5.33238 0
M  V30 190 H 14.1471 1.98068 4.45668 0
M  V30 191 H 13.1521 4.13131 3.62771 0
M  V30 192 H 14.3771 5.0533 4.53672 0
M  V30 193 H 12.3231 3.16351 5.74681 0
M  V30 194 H 12.2401 4.8946 5.76164 0
M  V30 195 H 13.5081 4.08904 6.6364 0
M  V30 196 N 17.7372 -0.778329 1.37039 0
M  V30 197 C 18.6672 -1.90546 1.34962 0
M  V30 198 C 19.6482 -1.68681 0.219274 0
M  V30 199 O 20.8332 -1.89634 0.418624 0
M  V30 200 C 17.9632 -3.27734 1.14925 0
M  V30 201 C 16.9172 -3.64147 2.24902 0
M  V30 202 C 16.2432 -4.99806 1.89996 0
M  V30 203 C 17.5432 -3.71579 3.67051 0
M  V30 204 H 19.2372 -1.92541 2.29277 0
M  V30 205 H 16.7832 -0.924948 1.10366 0
M  V30 206 H 18.7362 -4.06215 1.12104 0
M  V30 207 H 17.4602 -3.26154 0.170631 0
M  V30 208 H 16.1192 -2.8797 2.26868 0
M  V30 209 H 15.7672 -4.94759 0.906796 0
M  V30 210 H 15.4672 -5.25139 2.63634 0
M  V30 211 H 16.9912 -5.80694 1.88749 0
M  V30 212 H 18.4052 -4.40227 3.67251 0
M  V30 213 H 16.8022 -4.08405 4.39688 0
M  V30 214 H 17.8722 -2.72404 4.01154 0
M  V30 215 N 19.2153 -1.21501 -1.00376 0
M  V30 216 C 20.4403 -1.05977 -1.78279 0
M  V30 217 C 20.8653 0.385994 -1.84097 0
M  V30 218 O 20.2233 1.27849 -1.28547 0
M  V30 219 C 20.2713 -1.66302 -3.19963 0
M  V30 220 O 19.3753 -0.909333 -4.0225 0
M  V30 221 H 18.7163 -0.372906 -0.549397 0
M  V30 222 H 21.2463 -1.6107 -1.26165 0
M  V30 223 H 21.2563 -1.70574 -3.70632 0
M  V30 224 H 19.9313 -2.71515 -3.15043 0
M  V30 225 H 18.5083 -0.941795 -3.60811 0
M  V30 226 N 20.6934 1.19889 -1.02296 0
M  V30 227 C 21.9214 1.9339 -0.735399 0
M  V30 228 C 22.3364 1.75148 0.704887 0
M  V30 229 O 21.6934 1.06954 1.47875 0
M  V30 230 C 21.7444 3.45313 -1.06962 0
M  V30 231 O 21.4654 3.62964 -2.45334 0
M  V30 232 C 22.9664 4.35948 -0.804021 0
M  V30 233 H 20.1864 0.61448 -0.269546 0
M  V30 234 H 22.7304 1.522 -1.36585 0
M  V30 235 H 20.8854 3.84359 -0.484455 0
M  V30 236 H 21.2994 4.56886 -2.57595 0
M  V30 237 H 22.7734 5.41174 -1.0879 0
M  V30 238 H 23.2504 4.3842 0.261691 0
M  V30 239 H 23.8564 4.02574 -1.37164 0
M  V30 240 N 22.1715 0.800033 1.35784 0
M  V30 241 C 23.1345 0.211565 2.28221 0
M  V30 242 C 24.1345 -0.59728 1.49296 0
M  V30 243 O 25.3245 -0.416721 1.69142 0
M  V30 244 C 22.4565 -0.705846 3.33513 0
M  V30 245 H 23.6495 1.02677 2.81776 0
M  V30 246 H 21.2025 0.570211 1.45528 0
M  V30 247 H 21.9375 -1.54498 2.85133 0
M  V30 248 H 21.7225 -0.127655 3.91892 0
M  V30 249 H 23.2125 -1.11211 4.02519 0
M  V30 250 N 23.6496 -1.47581 0.552962 0
M  V30 251 C 24.5796 -2.32762 -0.185451 0
M  V30 252 C 25.5606 -1.43527 -0.912905 0
M  V30 253 O 26.7456 -1.72388 -0.894201 0
M  V30 254 C 23.8756 -3.25219 -1.21859 0
M  V30 255 C 22.8296 -4.23661 -0.607864 0
M  V30 256 C 22.1556 -5.05413 -1.74533 0
M  V30 257 C 23.4556 -5.20481 0.435582 0
M  V30 258 H 25.1496 -2.94749 0.525684 0
M  V30 259 H 22.6956 -1.41738 0.254251 0
M  V30 260 H 24.6486 -3.8365 -1.7433 0
M  V30 261 H 23.3726 -2.61279 -1.95961 0
M  V30 262 H 22.0316 -3.66451 -0.104489 0
M  V30 263 H 21.6796 -4.3788 -2.47529 0
M  V30 264 H 21.3796 -5.72059 -1.34249 0
M  V30 265 H 22.9036 -5.66701 -2.27338 0
M  V30 266 H 24.3176 -5.733 -0.00290157 0
M  V30 267 H 22.7146 -5.95305 0.757067 0
M  V30 268 H 23.7846 -4.66217 1.33303 0
M  V30 269 N 25.1277 -0.289203 -1.54924 0
M  V30 270 C 26.0907 0.579144 -2.21762 0
M  V30 271 C 27.0907 1.07047 -1.1999 0
M  V30 272 O 28.2807 0.968384 -1.44803 0
M  V30 273 C 25.4127 1.80055 -2.8947 0
M  V30 274 H 26.6057 -0.00464908 -2.999 0
M  V30 275 H 24.1587 -0.0399306 -1.56249 0
M  V30 276 H 24.8937 2.42449 -2.15381 0
M  V30 277 H 24.6787 1.45602 -3.64064 0
M  V30 278 H 26.1687 2.41773 -3.40493 0
M  V30 279 N 26.6058 1.57591 -0.0167156 0
M  V30 280 C 27.5688 2.08393 0.954204 0
M  V30 281 C 28.5688 0.996531 1.26198 0
M  V30 282 O 29.7588 1.25858 1.20438 0
M  V30 283 C 26.8908 2.5394 2.27436 0
M  V30 284 H 28.0838 2.95455 0.514451 0
M  V30 285 H 25.6368 1.54582 0.231089 0
M  V30 286 H 26.3718 1.70171 2.76066 0
M  V30 287 H 26.1568 3.33371 2.06412 0
M  V30 288 H 27.6468 2.93512 2.97053 0
M  V30 289 N 28.0839 -0.256276 1.55502 0
M  V30 290 C 29.0469 -1.30047 1.88734 0
M  V30 291 C 30.0469 -1.4154 0.763086 0
M  V30 292 O 31.2369 -1.40403 1.03115 0
M  V30 293 C 28.3689 -2.67953 2.10747 0
M  V30 294 H 29.5619 -1.01802 2.82093 0
M  V30 295 H 27.1149 -0.495134 1.4825 0
M  V30 296 H 27.8499 -3.01351 1.19825 0
M  V30 297 H 27.6349 -2.60993 2.92617 0
M  V30 298 H 29.1249 -3.43368 2.37673 0
M  V30 299 N 29.562 -1.4872 -0.521534 0
M  V30 300 C 30.492 -1.66771 -1.63431 0
M  V30 301 C 31.473 -0.516499 -1.62069 0
M  V30 302 O 32.658 -0.750013 -1.79132 0
M  V30 303 C 29.788 -1.71515 -3.01993 0
M  V30 304 C 28.742 -2.86222 -3.18216 0
M  V30 305 C 28.068 -2.76061 -4.57924 0
M  V30 306 C 29.368 -4.27419 -3.00184 0
M  V30 307 H 31.062 -2.59932 -1.48579 0
M  V30 308 H 28.608 -1.25089 -0.713358 0
M  V30 309 H 30.561 -1.82731 -3.7972 0
M  V30 310 H 29.285 -0.749393 -3.17886 0
M  V30 311 H 27.944 -2.74575 -2.42908 0
M  V30 312 H 27.592 -1.77437 -4.70665 0
M  V30 313 H 27.292 -3.53037 -4.69722 0
M  V30 314 H 28.816 -2.89256 -5.37739 0
M  V30 315 H 30.23 -4.39855 -3.67697 0
M  V30 316 H 28.627 -5.05458 -3.2347 0
M  V30 317 H 29.697 -4.43293 -1.96518 0
M  V30 318 N 31.0401 0.771051 -1.3745 0
M  V30 319 C 31.9731 1.89166 -1.27638 0
M  V30 320 C 32.9511 1.61842 -0.156782 0
M  V30 321 O 34.1351 1.85569 -0.331111 0
M  V30 322 C 31.2621 3.24405 -0.973621 0
M  V30 323 C 30.3081 3.70638 -2.1102 0
M  V30 324 S 31.1411 3.84228 -3.73 0
M  V30 325 C 32.2971 5.22313 -3.44876 0
M  V30 326 H 32.5301 1.972 -2.22485 0
M  V30 327 H 30.0631 0.932224 -1.23081 0
M  V30 328 H 32.0211 4.02514 -0.805766 0
M  V30 329 H 30.6821 3.14071 -0.0426279 0
M  V30 330 H 29.8751 4.68685 -1.85338 0
M  V30 331 H 29.4771 2.99632 -2.23822 0
M  V30 332 H 31.7691 6.07505 -2.99908 0
M  V30 333 H 32.7121 5.53008 -4.42253 0
M  V30 334 H 33.1201 4.90284 -2.79789 0
M  V30 335 N 32.5182 1.22032 0.997298 0
M  V30 336 C 33.4482 1.01065 2.10495 0
M  V30 337 C 34.4292 -0.0669542 1.69968 0
M  V30 338 O 35.6142 0.0943987 1.9397 0
M  V30 339 C 32.7442 0.582874 3.42374 0
M  V30 340 C 31.6982 1.60592 3.96729 0
M  V30 341 C 31.0242 1.03412 5.24605 0
M  V30 342 C 32.3242 2.99478 4.27914 0
M  V30 343 H 34.0182 1.93708 2.28292 0
M  V30 344 H 31.5642 0.932761 1.09707 0
M  V30 345 H 33.5172 0.423332 4.19268 0
M  V30 346 H 32.2412 -0.379213 3.24391 0
M  V30 347 H 30.9002 1.75316 3.21963 0
M  V30 348 H 30.5482 0.063518 5.0296 0
M  V30 349 H 30.2482 1.71754 5.61938 0
M  V30 350 H 31.7722 0.886066 6.04137 0
M  V30 351 H 33.1862 2.88153 4.95622 0
M  V30 352 H 31.5832 3.64903 4.76409 0
M  V30 353 H 32.6532 3.49742 3.3587 0
M  V30 354 N 33.9963 -1.19345 1.0293 0
M  V30 355 C 35.2213 -1.93538 0.745511 0
M  V30 356 C 35.6463 -1.75007 -0.689511 0
M  V30 357 O 35.0043 -1.05265 -1.47611 0
M  V30 358 C 35.0523 -3.43336 1.10239 0
M  V30 359 O 34.1563 -4.11806 0.221289 0
M  V30 360 H 33.4973 -0.604193 0.275404 0
M  V30 361 H 36.0273 -1.5141 1.37609 0
M  V30 362 H 36.0373 -3.94004 1.05947 0
M  V30 363 H 34.7123 -3.56146 2.14786 0
M  V30 364 H 33.2893 -3.715 0.322842 0
M  V30 365 N 35.4744 -0.807222 -1.35358 0
M  V30 366 C 36.7224 -0.387122 -1.98358 0
M  V30 367 C 37.0434 1.04942 -1.64354 0
M  V30 368 O 36.3134 1.72615 -0.926339 0
M  V30 369 H 34.8934 -0.140154 -0.733734 0
M  V30 370 H 37.5554 -1.0332 -1.6526 0
M  V30 371 H 36.6514 -0.493352 -3.08176 0
M  V30 372 N 36.9525 1.47285 -0.560781 0
M  V30 373 C 38.1925 2.0436 -0.0404627 0
M  V30 374 C 38.5565 1.42534 1.28639 0
M  V30 375 O 39.7575 1.90677 1.89462 0
M  V30 376 C 38.0285 3.57369 0.0471856 0
M  V30 377 S 39.5875 4.3579 0.513109 0
M  V30 378 H 36.4055 0.710492 -0.0268674 0
M  V30 379 H 39.0075 1.80611 -0.748323 0
M  V30 380 H 37.7115 3.9989 -0.922817 0
M  V30 381 H 37.2425 3.8562 0.778491 0
M  V30 382 H 39.2575 4.63476 1.77212 0
M  V30 383 N 38.4306 0.297415 1.54768 0
M  V30 384 C 39.3636 -0.622188 2.19554 0
M  V30 385 C 40.3416 -1.13558 1.16376 0
M  V30 386 O 41.5256 -1.20444 1.45002 0
M  V30 387 C 38.6526 -1.8509 2.83653 0
M  V30 388 C 37.6986 -1.47106 4.00328 0
M  V30 389 S 38.5316 -0.53006 5.3287 0
M  V30 390 C 39.6876 -1.76665 6.0045 0
M  V30 391 H 39.9206 -0.0717806 2.97213 0
M  V30 392 H 37.4536 0.0815678 1.54184 0
M  V30 393 H 39.4116 -2.55605 3.21211 0
M  V30 394 H 38.0726 -2.37247 2.05846 0
M  V30 395 H 37.2656 -2.38594 4.43947 0
M  V30 396 H 36.8676 -0.845885 3.64309 0
M  V30 397 H 39.1596 -2.7077 6.21039 0
M  V30 398 H 40.1026 -1.37308 6.9466 0
M  V30 399 H 40.5106 -1.94174 5.30054 0
M  V30 400 N 39.9087 -1.5758 0.0250728 0
M  V30 401 C 41.3197 -1.79476 -0.514323 0
M  V30 402 C 41.6707 -0.934956 -1.72491 0
M  V30 403 O 40.7957 -0.144245 -2.15919 0
M  V30 404 C 41.3907 -3.25503 -0.939842 0
M  V30 405 C 39.9497 -3.48408 -1.42438 0
M  V30 406 C 39.0967 -2.74583 -0.387201 0
M  V30 407 H 42.0477 -1.567 0.25113 0
M  V30 408 H 42.0687 -3.34992 -1.80445 0
M  V30 409 H 41.5807 -3.88056 -0.0585628 0
M  V30 410 H 39.6817 -2.91103 -2.32572 0
M  V30 411 H 39.7947 -4.57119 -1.43455 0
M  V30 412 H 38.1587 -2.39942 -0.854409 0
M  V30 413 H 38.9417 -3.39849 0.485543 0
M  V30 414 N 41.3868 0.248026 -1.55636 0
M  V30 415 C 42.6348 0.974295 -1.77065 0
M  V30 416 C 42.9558 1.85897 -0.588849 0
M  V30 417 O 42.2258 1.91868 0.395407 0
M  V30 418 H 40.8058 0.362733 -0.653019 0
M  V30 419 H 43.4678 0.266244 -1.93073 0
M  V30 420 H 42.5638 1.59667 -2.68166 0
M  V30 421 N 42.8649 1.48995 0.513639 0
M  V30 422 C 43.7749 1.67443 1.64317 0
M  V30 423 C 44.7909 0.556947 1.64846 0
M  V30 424 O 45.9669 0.830082 1.83498 0
M  V30 425 C 43.0319 1.72515 3.00732 0
M  V30 426 C 42.0929 2.96009 3.1093 0
M  V30 427 C 41.3259 3.00829 4.40837 0
M  V30 428 O 41.5489 2.13594 5.28898 0
M  V30 429 O 40.4829 3.93168 4.55744 0
M  V30 430 H 44.3089 2.63106 1.51687 0
M  V30 431 H 41.8939 1.32588 0.688543 0
M  V30 432 H 43.7759 1.78277 3.81831 0
M  V30 433 H 42.4509 0.800278 3.13651 0
M  V30 434 H 41.3579 2.9577 2.29065 0
M  V30 435 H 42.6909 3.87934 3.02933 0
M  V30 436 N 44.343 -0.763751 1.37857 0
M  V30 437 C 45.592 -1.51789 1.32827 0
M  V30 438 C 45.905 -1.95426 -0.0823719 0
M  V30 439 O 47.111 -2.70298 -0.255172 0
M  V30 440 C 45.567 -2.74133 2.33193 0
M  V30 441 C 45.175 -2.37562 3.79827 0
M  V30 442 C 46.919 -3.52054 2.37188 0
M  V30 443 C 44.826 -3.56456 4.71904 0
M  V30 444 H 43.756 -0.569896 0.493695 0
M  V30 445 H 46.407 -0.835822 1.63359 0
M  V30 446 H 44.789 -3.4427 1.9569 0
M  V30 447 H 45.963 -1.75157 4.26212 0
M  V30 448 H 44.278 -1.72798 3.78853 0
M  V30 449 H 46.875 -4.40437 3.03182 0
M  V30 450 H 47.218 -3.92486 1.38782 0
M  V30 451 H 47.751 -2.88921 2.7344 0
M  V30 452 H 44.49 -3.21099 5.71468 0
M  V30 453 H 44.01 -4.17938 4.30218 0
M  V30 454 H 45.689 -4.23168 4.89426 0
M  V30 455 N 45.8211 -1.22559 -0.990812 0
M  V30 456 C 47.2371 -0.985996 -1.255 0
M  V30 457 C 47.4371 0.319173 -1.98956 0
M  V30 458 O 46.4931 1.04127 -2.3003 0
M  V30 459 C 47.8061 -2.18607 -2.06474 0
M  V30 460 C 49.3541 -2.22985 -2.19651 0
M  V30 461 C 49.8291 -3.4255 -3.04012 0
M  V30 462 N 51.3201 -3.42725 -3.11599 0
M  V30 463 C 52.0551 -4.31892 -3.7717 0
M  V30 464 N 51.5511 -5.31279 -4.44651 0
M  V30 465 N 53.3441 -4.19662 -3.73952 0
M  V30 466 H 45.4951 -2.06469 -0.49841 0
M  V30 467 H 47.7581 -0.904853 -0.282747 0
M  V30 468 H 47.4641 -3.13267 -1.59865 0
M  V30 469 H 47.3381 -2.18838 -3.07229 0
M  V30 470 H 49.7251 -1.28871 -2.65474 0
M  V30 471 H 49.8061 -2.26791 -1.18319 0
M  V30 472 H 49.4501 -4.36965 -2.58889 0
M  V30 473 H 49.3801 -3.35984 -4.0549 0
M  V30 474 H 51.8711 -2.70807 -2.63575 0
M  V30 475 H 52.1841 -5.95593 -4.92431 0
M  V30 476 H 50.5291 -5.3519 -4.43392 0
M  V30 477 H 53.7201 -3.41268 -3.20396 0
M  V30 478 H 53.8931 -4.89358 -4.24774 0
M  V30 479 N 47.2992 1.18797 -1.03562 0
M  V30 480 C 48.7102 1.70322 -0.764676 0
M  V30 481 C 49.0612 1.82708 0.714996 0
M  V30 482 O 48.1862 1.50299 1.55689 0
M  V30 483 C 48.7812 3.09356 -1.38145 0
M  V30 484 C 47.3402 3.58114 -1.15895 0
M  V30 485 C 46.4872 2.34798 -1.4753 0
M  V30 486 H 49.4382 1.03543 -1.20268 0
M  V30 487 H 49.4592 3.72378 -0.781977 0
M  V30 488 H 48.9712 3.00309 -2.45837 0
M  V30 489 H 47.0722 3.72464 -0.100544 0
M  V30 490 H 47.1852 4.4184 -1.8524 0
M  V30 491 H 45.5492 2.38464 -0.894829 0
M  V30 492 H 46.3322 2.28375 -2.56319 0
M  V30 493 N 48.7773 0.814389 1.34928 0
M  V30 494 C 50.0053 0.411136 2.02774 0
M  V30 495 C 50.4203 -0.980316 1.61354 0
M  V30 496 O 49.7773 -1.63299 0.814847 0
M  V30 497 C 49.8283 0.493865 3.58111 0
M  V30 498 O 49.5493 1.83047 3.98027 0
M  V30 499 C 51.0503 0.0844174 4.4322 0
M  V30 500 H 48.2703 0.166037 0.650133 0
M  V30 501 H 50.8143 1.10018 1.72384 0
M  V30 502 H 48.9693 -0.147006 3.87121 0
M  V30 503 H 49.3833 1.79872 4.92693 0
M  V30 504 H 50.8573 0.193404 5.51661 0
M  V30 505 H 51.3343 -0.97113 4.28329 0
M  V30 506 H 51.9403 0.69875 4.19521 0
M  V30 507 N 50.2554 -1.46986 0.568584 0
M  V30 508 C 51.5044 -2.01646 0.0465894 0
M  V30 509 C 51.8174 -1.44721 -1.31587 0
M  V30 510 O 53.0234 -1.91113 -1.92842 0
M  V30 511 C 51.4794 -3.59885 0.032752 0
M  V30 512 C 51.0874 -4.25804 1.39266 0
M  V30 513 C 52.8314 -4.22255 -0.436038 0
M  V30 514 C 50.7384 -5.76081 1.33732 0
M  V30 515 H 49.6684 -0.753876 0.013647 0
M  V30 516 H 52.3194 -1.68864 0.718131 0
M  V30 517 H 50.7014 -3.8968 -0.704669 0
M  V30 518 H 51.8754 -4.07637 2.1487 0
M  V30 519 H 50.1904 -3.7547 1.80032 0
M  V30 520 H 52.7874 -5.32394 -0.49602 0
M  V30 521 H 53.1304 -3.90212 -1.45053 0
M  V30 522 H 53.6634 -3.97033 0.246877 0
M  V30 523 H 50.4024 -6.12761 2.32817 0
M  V30 524 H 49.9224 -5.96553 0.623267 0
M  V30 525 H 51.6014 -6.38518 1.0442 0
M  V30 526 N 51.7335 -0.305618 -1.54608 0
M  V30 527 C 52.9815 0.301701 -1.99835 0
M  V30 528 C 53.3025 1.54054 -1.19551 0
M  V30 529 O 52.5725 1.93702 -0.292658 0
M  V30 530 H 51.1525 0.114468 -0.738178 0
M  V30 531 H 53.8145 -0.418016 -1.90364 0
M  V30 532 H 52.9105 0.570548 -3.06841 0
M  V30 533 N 53.2116 1.57565 -0.0334293 0
M  V30 534 C 54.1436 2.0739 0.975811 0
M  V30 535 C 55.1566 0.998166 1.2861 0
M  V30 536 O 56.3456 1.27426 1.25 0
M  V30 537 C 53.4456 2.4871 2.30209 0
M  V30 538 C 52.6186 3.79413 2.17634 0
M  V30 539 C 51.6776 4.07237 3.33233 0
M  V30 540 O 50.7036 4.77425 3.09927 0
M  V30 541 N 51.9056 3.5775 4.5716 0
M  V30 542 H 54.6706 2.94598 0.55066 0
M  V30 543 H 52.2316 1.61173 0.15323 0
M  V30 544 H 54.2236 2.64413 3.06378 0
M  V30 545 H 52.7936 1.66845 2.64351 0
M  V30 546 H 52.0136 3.73465 1.26165 0
M  V30 547 H 53.3016 4.65038 2.0644 0
M  V30 548 H 52.6996 3.00976 4.78989 0
M  V30 549 H 51.2566 3.78724 5.30482 0
M  V30 550 N 54.6897 -0.239769 1.55765 0
M  V30 551 C 55.6217 -1.32001 1.87372 0
M  V30 552 C 56.6347 -1.43944 0.760522 0
M  V30 553 O 57.8237 -1.45167 1.0387 0
M  V30 554 C 54.9237 -2.69779 2.05115 0
M  V30 555 C 54.0967 -2.80014 3.36022 0
M  V30 556 C 53.1557 -3.98684 3.4342 0
M  V30 557 O 52.1817 -3.87877 4.16582 0
M  V30 558 N 53.3837 -5.12176 2.73232 0
M  V30 559 H 56.1487 -1.0522 2.80622 0
M  V30 560 H 53.7097 -0.429857 1.56089 0
M  V30 561 H 55.7017 -3.47517 2.07399 0
M  V30 562 H 54.2717 -2.89237 1.18577 0
M  V30 563 H 53.4917 -1.88896 3.45994 0
M  V30 564 H 54.7797 -2.83808 4.22292 0
M  V30 565 H 54.1777 -5.2385 2.13536 0
M  V30 566 H 52.7347 -5.88022 2.81199 0
M  V30 567 N 56.1678 -1.49265 -0.50573 0
M  V30 568 C 57.1008 -1.60183 -1.62532 0
M  V30 569 C 58.0788 -0.451107 -1.56217 0
M  V30 570 O 59.2628 -0.666016 -1.76342 0
M  V30 571 C 56.3898 -1.55238 -3.01029 0
M  V30 572 C 55.4358 -2.7545 -3.25621 0
M  V30 573 S 56.2688 -4.37174 -3.09256 0
M  V30 574 C 57.4248 -4.34866 -4.50158 0
M  V30 575 H 57.6578 -2.54894 -1.53025 0
M  V30 576 H 55.1908 -1.38098 -0.690535 0
M  V30 577 H 57.1488 -1.53071 -3.80893 0
M  V30 578 H 55.8098 -0.618238 -3.07956 0
M  V30 579 H 55.0028 -2.68197 -4.26716 0
M  V30 580 H 54.6048 -2.75005 -2.53472 0
M  V30 581 H 56.8968 -4.06295 -5.42154 0
M  V30 582 H 57.8398 -5.36223 -4.62462 0
M  V30 583 H 58.2478 -3.65007 -4.30616 0
M  V30 584 N 57.6459 0.756429 -1.3826 0
M  V30 585 C 58.5559 1.9009 -1.37488 0
M  V30 586 C 59.5719 1.71855 -0.272366 0
M  V30 587 O 60.7479 1.94827 -0.510318 0
M  V30 588 C 57.8129 3.25421 -1.19592 0
M  V30 589 C 56.8739 3.56202 -2.39622 0
M  V30 590 C 56.1069 4.85075 -2.2257 0
M  V30 591 O 56.3299 5.57246 -1.21793 0
M  V30 592 O 55.2639 5.15269 -3.11098 0
M  V30 593 H 59.0899 1.93695 -2.33914 0
M  V30 594 H 56.6749 0.901313 -1.1915 0
M  V30 595 H 58.5569 4.06337 -1.11661 0
M  V30 596 H 57.2319 3.22634 -0.262486 0
M  V30 597 H 56.1389 2.75458 -2.53128 0
M  V30 598 H 57.4719 3.63747 -3.31586 0
M  V30 599 N 59.124 1.23083 0.984299 0
M  V30 600 C 60.352 1.08714 1.76037 0
M  V30 601 C 60.767 -0.361691 1.85303 0
M  V30 602 O 60.124 -1.25034 1.32939 0
M  V30 603 C 60.175 1.70206 3.18923 0
M  V30 604 O 59.896 3.09423 3.10144 0
M  V30 605 C 61.397 1.61227 4.12941 0
M  V30 606 H 58.617 0.380664 0.552572 0
M  V30 607 H 61.161 1.62853 1.23689 0
M  V30 608 H 59.316 1.20109 3.6831 0
M  V30 609 H 59.73 3.39188 4.00065 0
M  V30 610 H 61.204 2.08962 5.10919 0
M  V30 611 H 61.681 0.570375 4.35481 0
M  V30 612 H 62.287 2.10671 3.69456 0
M  V30 613 N 60.6021 -1.18246 1.0419 0
M  V30 614 C 61.8501 -1.87886 0.744543 0
M  V30 615 C 62.1711 -1.8082 -0.730006 0
M  V30 616 O 61.4411 -1.22736 -1.52685 0
M  V30 617 H 60.0211 -0.695556 0.272417 0
M  V30 618 H 62.6831 -1.43494 1.31892 0
M  V30 619 H 61.7791 -2.9389 1.05049 0
M  V30 620 N 62.0802 -0.821533 -1.34494 0
M  V30 621 C 63.3572 -0.33159 -1.92769 0
M  V30 622 C 63.7372 1.18088 -1.74981 0
M  V30 623 O 63.0852 1.98733 -1.12772 0
M  V30 624 C 63.2952 -0.759398 -3.40638 0
M  V30 625 C 64.6432 -0.757433 -4.1779 0
M  V30 626 O 65.6672 -0.70189 -3.49216 0
M  V30 627 O 64.5262 -0.829361 -5.4017 0
M  V30 628 H 61.6202 -0.0902502 -0.822061 0
M  V30 629 H 64.1662 -0.906231 -1.43477 0
M  V30 630 H 62.9382 -1.8012 -3.47379 0
M  V30 631 H 62.5612 -0.160378 -3.97276 0
M  V30 632 N 63.5583 1.46682 -0.576371 0
M  V30 633 C 64.4903 2.28341 0.198231 0
M  V30 634 C 65.5033 1.38141 0.861453 0
M  V30 635 O 66.6923 1.62797 0.732082 0
M  V30 636 C 63.7923 3.12986 1.29972 0
M  V30 637 C 62.9653 4.31271 0.729639 0
M  V30 638 C 62.0243 4.97363 1.71803 0
M  V30 639 O 61.0503 5.55156 1.25658 0
M  V30 640 N 62.2523 4.93796 3.05198 0
M  V30 641 H 65.0173 2.9546 -0.502324 0
M  V30 642 H 62.5783 1.56525 -0.413715 0
M  V30 643 H 64.5703 3.54066 1.96008 0
M  V30 644 H 63.1403 2.47984 1.90323 0
M  V30 645 H 62.3603 3.94052 -0.108012 0
M  V30 646 H 63.6483 5.07739 0.328438 0
M  V30 647 H 63.0463 4.48077 3.45317 0
M  V30 648 H 61.6033 5.38837 3.6674 0
M  V30 649 N 65.0364 0.313813 1.54444 0
M  V30 650 C 66.4524 -0.0391619 1.59552 0
M  V30 651 C 66.6524 -1.51322 1.33056 0
M  V30 652 O 65.7084 -2.26782 1.11022 0
M  V30 653 C 67.0214 0.370302 2.98411 0
M  V30 654 C 68.5694 0.320139 3.11358 0
M  V30 655 C 69.0444 0.704617 4.52547 0
M  V30 656 N 70.5354 0.657645 4.58508 0
M  V30 657 C 71.2704 0.927453 5.6585 0
M  V30 658 N 70.7664 1.26389 6.81174 0
M  V30 659 N 72.5594 0.853662 5.5558 0
M  V30 660 H 64.7104 1.27433 1.69925 0
M  V30 661 H 66.9734 0.517511 0.794284 0
M  V30 662 H 66.6794 1.39694 3.22767 0
M  V30 663 H 66.5534 -0.269619 3.76235 0
M  V30 664 H 68.9404 -0.697275 2.86744 0
M  V30 665 H 69.0214 0.99486 2.35661 0
M  V30 666 H 68.6654 1.7199 4.77893 0
M  V30 667 H 68.5954 0.00768843 5.26599 0
M  V30 668 H 71.0864 0.409067 3.75679 0
M  V30 669 H 71.3994 1.4554 7.58972 0
M  V30 670 H 69.7444 1.30206 6.82694 0
M  V30 671 H 72.9354 0.590383 4.64362 0
M  V30 672 H 73.1084 1.0673 6.3915 0
M  V30 673 N 66.5145 -1.57545 0.0417849 0
M  V30 674 C 67.7615 -1.92317 -0.634082 0
M  V30 675 C 68.0895 -0.919334 -1.71402 0
M  V30 676 O 67.3445 0.0698253 -1.95575 0
M  V30 677 C 67.6435 -3.33794 -1.27735 0
M  V30 678 C 67.3095 -4.49716 -0.326543 0
M  V30 679 C 65.9715 -4.81156 -0.0648814 0
M  V30 680 C 68.3235 -5.20182 0.325623 0
M  V30 681 C 65.6515 -5.80414 0.856539 0
M  V30 682 C 68.0035 -6.20424 1.23518 0
M  V30 683 C 66.6675 -6.50298 1.5056 0
M  V30 684 H 65.9375 -0.703736 -0.232027 0
M  V30 685 H 68.5845 -1.91205 0.106259 0
M  V30 686 H 66.8895 -3.31228 -2.09274 0
M  V30 687 H 68.5865 -3.57975 -1.80707 0
M  V30 688 H 65.1765 -4.25176 -0.540665 0
M  V30 689 H 69.3605 -4.96112 0.136546 0
M  V30 690 H 64.6165 -6.019 1.07363 0
M  V30 691 H 68.7905 -6.74141 1.74664 0
M  V30 692 H 66.4175 -7.27025 2.22123 0
M  V30 693 N 67.9926 0.231505 -1.5589 0
M  V30 694 C 69.2406 0.955461 -1.78088 0
M  V30 695 C 69.5616 1.85262 -0.608533 0
M  V30 696 O 68.8316 1.92277 0.375035 0
M  V30 697 H 67.4116 0.355787 -0.656829 0
M  V30 698 H 70.0736 0.245751 -1.93344 0
M  V30 699 H 69.1696 1.56814 -2.69844 0
M  V30 700 N 69.4707 1.49531 0.497807 0
M  V30 701 C 70.7477 1.49682 1.25915 0
M  V30 702 C 71.1277 0.226339 2.09883 0
M  V30 703 O 70.4757 -0.791189 2.14365 0
M  V30 704 C 70.6857 2.77755 2.11313 0
M  V30 705 C 72.0337 3.27371 2.70395 0
M  V30 706 O 73.0577 2.78894 2.21578 0
M  V30 707 O 71.9167 4.11808 3.59272 0
M  V30 708 H 69.0107 0.599228 0.56996 0
M  V30 709 H 71.5567 1.61798 0.511816 0
M  V30 710 H 70.3287 3.61713 1.49264 0
M  V30 711 H 69.9517 2.68515 2.93233 0
M  V30 712 N 70.9488 -0.749086 1.3866 0
M  V30 713 C 71.8788 -1.8764 1.38973 0
M  V30 714 C 72.8598 -1.68178 0.255004 0
M  V30 715 O 74.0448 -1.88704 0.458754 0
M  V30 716 C 71.1748 -3.25222 1.21851 0
M  V30 717 C 70.1288 -3.59295 2.32575 0
M  V30 718 C 69.4548 -4.95663 2.00555 0
M  V30 719 C 70.7548 -3.63709 3.7485 0
M  V30 720 H 72.4488 -1.87635 2.3331 0
M  V30 721 H 69.9948 -0.901329 1.12303 0
M  V30 722 H 71.9478 -4.03746 1.20695 0
M  V30 723 H 70.6718 -3.25719 0.239775 0
M  V30 724 H 69.3308 -2.83093 2.32925 0
M  V30 725 H 68.9788 -4.92724 1.01154 0
M  V30 726 H 68.6788 -5.19429 2.74714 0
M  V30 727 H 70.2028 -5.7656 2.01024 0
M  V30 728 H 71.6168 -4.32338 3.76506 0
M  V30 729 H 70.0138 -3.98986 4.48252 0
M  V30 730 H 71.0838 -2.63834 4.06841 0
M  V30 731 N 72.4269 -1.23603 -0.977757 0
M  V30 732 C 73.6729 -1.07129 -1.72195 0
M  V30 733 C 74.0059 0.390501 -1.90233 0
M  V30 734 O 73.2809 1.28902 -1.45653 0
M  V30 735 C 73.5639 -1.80031 -3.11867 0
M  V30 736 C 73.4169 -3.33899 -3.01383 0
M  V30 737 C 74.7359 -1.56492 -4.11337 0
M  V30 738 H 71.8549 -0.390571 -0.624999 0
M  V30 739 H 74.4969 -1.52142 -1.13811 0
M  V30 740 H 72.6469 -1.41768 -3.6171 0
M  V30 741 H 74.3189 -3.81699 -2.59043 0
M  V30 742 H 72.5619 -3.62796 -2.37827 0
M  V30 743 H 73.2329 -3.801 -4.00285 0
M  V30 744 H 75.7089 -1.89757 -3.70313 0
M  V30 745 H 74.5849 -2.09973 -5.07151 0
M  V30 746 H 74.8459 -0.500874 -4.39254 0
M  V30 747 N 73.905 1.17692 -1.04816 0
M  V30 748 C 75.152 1.87859 -0.75599 0
M  V30 749 C 75.48 1.80812 0.716752 0
M  V30 750 O 74.735 1.20819 1.53952 0
M  V30 751 C 75.034 3.37462 -1.17703 0
M  V30 752 C 74.7 3.64713 -2.65133 0
M  V30 753 C 73.362 3.71859 -3.05408 0
M  V30 754 C 75.714 3.76492 -3.60421 0
M  V30 755 C 73.042 3.88271 -4.39843 0
M  V30 756 C 75.394 3.94421 -4.94585 0
M  V30 757 C 74.058 3.99806 -5.3452 0
M  V30 758 H 73.328 0.687425 -0.276636 0
M  V30 759 H 75.975 1.39255 -1.31455 0
M  V30 760 H 74.28 3.88097 -0.537395 0
M  V30 761 H 75.977 3.90109 -0.928218 0
M  V30 762 H 72.567 3.59772 -2.32942 0
M  V30 763 H 76.751 3.70295 -3.30447 0
M  V30 764 H 72.007 3.90687 -4.70291 0
M  V30 765 H 76.181 4.02477 -5.68318 0
M  V30 766 H 73.808 4.12276 -6.38696 0
M  V30 767 N 75.3831 0.828654 1.34056 0
M  V30 768 C 76.7991 0.515135 1.51058 0
M  V30 769 C 76.9991 -0.959581 1.77184 0
M  V30 770 O 76.0551 -1.74382 1.82612 0
M  V30 771 C 77.3681 1.37963 2.67183 0
M  V30 772 C 78.9161 1.37735 2.81066 0
M  V30 773 C 79.3911 2.22645 4.00241 0
M  V30 774 N 80.8821 2.203 4.07458 0
M  V30 775 C 81.6171 2.82744 4.98842 0
M  V30 776 N 81.1131 3.54201 5.9541 0
M  V30 777 N 82.9061 2.72268 4.91759 0
M  V30 778 H 75.0571 1.78343 1.15358 0
M  V30 779 H 77.3201 0.760304 0.566252 0
M  V30 780 H 77.0261 2.42714 2.54525 0
M  V30 781 H 76.9001 1.0484 3.62338 0
M  V30 782 H 79.2871 0.337593 2.93163 0
M  V30 783 H 79.3681 1.74859 1.86703 0
M  V30 784 H 79.0121 3.26674 3.88905 0
M  V30 785 H 78.9421 1.82869 4.93829 0
M  V30 786 H 81.4331 1.68327 3.38341 0
M  V30 787 H 81.7461 3.9908 6.61782 0
M  V30 788 H 80.0911 3.58308 5.95517 0
M  V30 789 H 83.2821 2.16014 4.15278 0
M  V30 790 H 83.4551 3.21219 5.62781 0
M  V30 791 N 76.8612 -1.46375 0.584142 0
M  V30 792 C 77.7932 -2.28443 -0.186119 0
M  V30 793 C 78.8062 -1.38596 -0.854115 0
M  V30 794 O 79.9952 -1.63183 -0.723438 0
M  V30 795 C 77.0952 -3.13671 -1.28311 0
M  V30 796 C 76.2682 -4.31652 -0.706758 0
M  V30 797 C 75.3272 -4.98267 -1.69163 0
M  V30 798 O 74.3532 -5.55815 -1.22712 0
M  V30 799 N 75.5552 -4.95408 -3.02575 0
M  V30 800 H 78.3202 -2.9519 0.517986 0
M  V30 801 H 75.8812 -1.56303 0.42201 0
M  V30 802 H 77.8732 -3.55101 -1.94128 0
M  V30 803 H 76.4432 -2.48989 -1.89005 0
M  V30 804 H 75.6632 -3.93989 0.128908 0
M  V30 805 H 76.9512 -5.07906 -0.301506 0
M  V30 806 H 76.3492 -4.49902 -3.42936 0
M  V30 807 H 74.9062 -5.40774 -3.63877 0
M  V30 808 N 78.3393 -0.321999 -1.54275 0
M  V30 809 C 79.2693 0.537411 -2.27231 0
M  V30 810 C 80.2503 1.12064 -1.27968 0
M  V30 811 O 81.4353 1.14606 -1.56777 0
M  V30 812 C 78.5653 1.69919 -3.02894 0
M  V30 813 C 77.5193 1.24534 -4.09482 0
M  V30 814 C 76.8453 2.49394 -4.72977 0
M  V30 815 C 78.1453 0.361335 -5.21049 0
M  V30 816 H 79.8393 -0.0711406 -2.99315 0
M  V30 817 H 77.3853 -0.0356555 -1.43956 0
M  V30 818 H 79.3383 2.30668 -3.52662 0
M  V30 819 H 78.0623 2.33431 -2.28424 0
M  V30 820 H 76.7213 0.660782 -3.60596 0
M  V30 821 H 76.3693 3.11265 -3.95124 0
M  V30 822 H 76.0693 2.19718 -5.44975 0
M  V30 823 H 77.5933 3.10908 -5.25517 0
M  V30 824 H 79.0073 0.875072 -5.66582 0
M  V30 825 H 77.4043 0.157428 -5.99893 0
M  V30 826 H 78.4743 -0.60822 -4.8107 0
M  V30 827 N 79.8174 1.5752 -0.0501392 0
M  V30 828 C 80.7804 2.1037 0.909786 0
M  V30 829 C 81.7804 1.02308 1.24056 0
M  V30 830 O 82.9704 1.28385 1.17741 0
M  V30 831 C 80.1024 2.58708 2.21998 0
M  V30 832 H 81.2954 2.96479 0.451665 0
M  V30 833 H 78.8484 1.55038 0.198248 0
M  V30 834 H 79.5834 1.75989 2.72394 0
M  V30 835 H 79.3684 3.37675 1.99295 0
M  V30 836 H 80.8584 2.99747 2.9076 0
M  V30 837 N 81.2955 -0.223234 1.56011 0
M  V30 838 C 82.7065 -0.790368 1.69145 0
M  V30 839 C 83.0575 -1.85055 0.651845 0
M  V30 840 O 82.1825 -2.15498 -0.197359 0
M  V30 841 C 82.7775 -1.4404 3.06656 0
M  V30 842 C 81.3365 -1.95494 3.2165 0
M  V30 843 C 80.4835 -0.814506 2.65068 0
M  V30 844 H 83.4345 0.00139011 1.587 0
M  V30 845 H 83.4555 -2.30916 3.0242 0
M  V30 846 H 82.9675 -0.668543 3.82298 0
M  V30 847 H 81.0685 -2.75487 2.50874 0
M  V30 848 H 81.1815 -2.13607 4.28846 0
M  V30 849 H 79.5455 -1.22137 2.23505 0
M  V30 850 H 80.3285 -0.0553515 3.43255 0
M  V30 851 N 82.7736 -1.49793 -0.48987 0
M  V30 852 C 83.7216 -1.67783 -1.61095 0
M  V30 853 C 84.7156 -0.543683 -1.60438 0
M  V30 854 O 85.9216 -0.723647 -1.64813 0
M  V30 855 H 82.2966 -0.529255 -0.534222 0
M  V30 856 H 84.2676 -2.61861 -1.43078 0
M  V30 857 C 83.0166 -1.77191 -2.99164 0
M  V30 858 H 82.3396 -2.63841 -3.0038 0
M  V30 859 H 83.7796 -1.93809 -3.77113 0
M  V30 860 C 82.2386 -0.519203 -3.32875 0
M  V30 861 O 82.7686 0.350124 -4.00171 0
M  V30 862 N 80.9746 -0.378816 -2.8812 0
M  V30 863 H 80.5216 -1.08725 -2.33531 0
M  V30 864 H 80.4796 0.458239 -3.11043 0
M  V30 865 N 84.2517 0.741722 -1.39055 0
M  V30 866 C 85.4977 1.50336 -1.36113 0
M  V30 867 C 85.8307 1.94148 0.0450796 0
M  V30 868 O 85.1057 1.66301 1.00868 0
M  V30 869 C 85.3887 2.74773 -2.32749 0
M  V30 870 C 85.2417 2.37023 -3.82283 0
M  V30 871 C 86.5607 3.76846 -2.27322 0
M  V30 872 H 83.6797 0.545351 -0.495743 0
M  V30 873 H 86.3217 0.848624 -1.69995 0
M  V30 874 H 84.4717 3.30639 -2.03986 0
M  V30 875 H 86.1437 1.8684 -4.21768 0
M  V30 876 H 84.3867 1.69334 -3.99385 0
M  V30 877 H 85.0577 3.26104 -4.45376 0
M  V30 878 H 87.5337 3.30548 -2.5274 0
M  V30 879 H 86.4097 4.6159 -2.97028 0
M  V30 880 H 86.6707 4.23286 -1.27599 0
M  V30 881 N 85.7298 1.2412 0.971189 0
M  V30 882 C 86.9758 1.09048 1.71698 0
M  V30 883 C 87.3308 -0.367442 1.88859 0
M  V30 884 O 86.6238 -1.26792 1.43646 0
M  V30 885 C 86.8178 1.75983 3.11071 0
M  V30 886 C 86.6468 3.28133 3.07504 0
M  V30 887 C 85.4168 3.97331 3.1218 0
M  V30 888 C 87.6148 4.24773 2.89952 0
M  V30 889 N 85.5968 5.3639 2.98596 0
M  V30 890 C 86.9678 5.50806 2.84627 0
M  V30 891 C 89.0228 4.15392 2.74506 0
M  V30 892 C 87.7258 6.68533 2.65437 0
M  V30 893 C 89.7518 5.32793 2.56682 0
M  V30 894 C 89.1138 6.57756 2.52063 0
M  V30 895 H 85.2128 0.453632 0.636979 0
M  V30 896 H 87.7968 1.56983 1.15171 0
M  V30 897 H 85.9678 1.30566 3.65796 0
M  V30 898 H 87.6998 1.53803 3.74335 0
M  V30 899 H 84.4548 3.48473 3.20724 0
M  V30 900 H 84.8788 6.09321 2.95054 0
M  V30 901 H 89.5208 3.19543 2.76861 0
M  V30 902 H 87.2388 7.64509 2.61825 0
M  V30 903 H 90.8248 5.27383 2.4568 0
M  V30 904 H 89.7048 7.4707 2.38446 0
M  V30 905 N 87.2079 -1.17134 1.05439 0
M  V30 906 C 88.1399 -2.2078 0.615539 0
M  V30 907 C 89.1529 -1.59584 -0.322001 0
M  V30 908 O 90.3419 -1.78133 -0.114344 0
M  V30 909 C 87.4419 -3.38691 -0.118938 0
M  V30 910 C 86.6149 -4.29454 0.829924 0
M  V30 911 C 85.6739 -5.26024 0.136258 0
M  V30 912 O 84.6999 -5.63952 0.77115 0
M  V30 913 N 85.9019 -5.69487 -1.1254 0
M  V30 914 H 88.6669 -2.59052 1.50705 0
M  V30 915 H 86.2279 -1.32058 0.936603 0
M  V30 916 H 88.2199 -4.00329 -0.593179 0
M  V30 917 H 86.7899 -2.98996 -0.91215 0
M  V30 918 H 86.0099 -3.65211 1.48373 0
M  V30 919 H 87.2979 -4.86984 1.47392 0
M  V30 920 H 86.6959 -5.4075 -1.6615 0
M  V30 921 H 85.2529 -6.33257 -1.54366 0
M  V30 922 N 88.686 -0.835752 -1.33615 0
M  V30 923 C 89.636 -0.238856 -2.26745 0
M  V30 924 C 90.62 0.604343 -1.49119 0
M  V30 925 O 91.812 0.456822 -1.71003 0
M  V30 926 C 88.941 0.587725 -3.38232 0
M  V30 927 C 88.027 -0.266811 -4.2326 0
M  V30 928 N 88.418 -1.34403 -4.87616 0
M  V30 929 C 86.716 -0.0533131 -4.45968 0
M  V30 930 C 87.417 -1.86819 -5.50884 0
M  V30 931 N 86.393 -1.17013 -5.30857 0
M  V30 932 H 90.195 -1.06266 -2.74016 0
M  V30 933 H 87.709 -0.679881 -1.47483 0
M  V30 934 H 89.706 1.03161 -4.03935 0
M  V30 935 H 88.366 1.40954 -2.9251 0
M  V30 936 H 89.377 -1.7269 -4.88261 0
M  V30 937 H 86.054 0.735312 -4.10974 0
M  V30 938 H 87.444 -2.7701 -6.1214 0
M  V30 939 N 90.1641 1.46063 -0.591896 0
M  V30 940 C 91.3921 2.06717 -0.0868936 0
M  V30 941 C 91.8071 1.43916 1.22203 0
M  V30 942 O 91.1641 0.547698 1.74088 0
M  V30 943 C 91.2151 3.6142 0.0758725 0
M  V30 944 O 90.9361 4.21874 -1.18126 0
M  V30 945 C 92.4371 4.39025 0.61416 0
M  V30 946 H 89.6571 0.668162 -0.0616518 0
M  V30 947 H 92.2011 1.8755 -0.815175 0
M  V30 948 H 90.3561 3.79983 0.754413 0
M  V30 949 H 90.7701 5.14861 -1.00092 0
M  V30 950 H 92.2441 5.4783 0.677193 0
M  V30 951 H 92.7211 4.07708 1.63312 0
M  V30 952 H 93.3271 4.2529 -0.0298142 0
M  V30 953 N 91.6422 0.330177 1.54103 0
M  V30 954 C 92.8672 -0.274893 2.0557 0
M  V30 955 C 93.2922 -1.44487 1.20437 0
M  V30 956 O 92.6502 -1.80021 0.214991 0
M  V30 957 C 92.6982 -0.68079 3.54115 0
M  V30 958 O 91.8022 -1.7824 3.71893 0
M  V30 959 H 91.1432 -0.0483849 0.662235 0
M  V30 960 H 93.6732 0.480508 1.98878 0
M  V30 961 H 93.6832 -0.961635 3.96505 0
M  V30 962 H 92.3582 0.174903 4.15532 0
M  V30 963 H 90.9352 -1.49985 3.41407 0
M  V30 964 N 93.1203 -1.57491 0.0584922 0
M  V30 965 C 94.3503 -1.9701 -0.622134 0
M  V30 966 C 94.7583 -0.935034 -1.6448 0
M  V30 967 O 94.1013 0.0882904 -1.83488 0
M  V30 968 C 94.1633 -3.32794 -1.35972 0
M  V30 969 C 93.8273 -4.54343 -0.492043 0
M  V30 970 C 94.8243 -5.19323 0.244901 0
M  V30 971 C 92.5093 -5.00534 -0.420821 0
M  V30 972 C 94.5033 -6.28835 1.04143 0
M  V30 973 C 92.1903 -6.09921 0.379389 0
M  V30 974 C 93.1883 -6.73933 1.10919 0
M  V30 975 O 92.8763 -7.81216 1.89623 0
M  V30 976 H 92.6083 -0.653127 -0.174359 0
M  V30 977 H 95.1623 -2.05029 0.123418 0
M  V30 978 H 93.3923 -3.21351 -2.15105 0
M  V30 979 H 95.0813 -3.5701 -1.93129 0
M  V30 980 H 95.8473 -4.8459 0.19939 0
M  V30 981 H 91.7263 -4.50496 -0.978474 0
M  V30 982 H 95.2703 -6.7873 1.61157 0
M  V30 983 H 91.1673 -6.44089 0.426512 0
M  V30 984 H 91.9353 -7.98029 1.81913 0
M  V30 985 N 94.5984 0.214957 -1.56127 0
M  V30 986 C 95.5284 1.2695 -1.95974 0
M  V30 987 C 96.5094 1.48539 -0.828868 0
M  V30 988 O 97.6944 1.60611 -1.09168 0
M  V30 989 C 94.8244 2.61794 -2.28214 0
M  V30 990 C 93.7784 2.54851 -3.43853 0
M  V30 991 C 93.1044 3.93785 -3.61715 0
M  V30 992 C 94.4044 2.09065 -4.78632 0
M  V30 993 H 96.0984 0.93846 -2.84312 0
M  V30 994 H 93.6444 0.449996 -1.36788 0
M  V30 995 H 95.5974 3.35731 -2.54682 0
M  V30 996 H 94.3214 2.96599 -1.36736 0
M  V30 997 H 92.9804 1.8337 -3.17444 0
M  V30 998 H 92.6284 4.25908 -2.67602 0
M  V30 999 H 92.3284 3.90019 -4.39498 0
M  V30 1000 H 93.8524 4.69374 -3.90539 0
M  V30 1001 H 95.2664 2.7275 -5.04262 0
M  V30 1002 H 93.6634 2.16346 -5.59745 0
M  V30 1003 H 94.7334 1.04315 -4.73547 0
M  V30 1004 N 96.0765 1.50051 0.48192 0
M  V30 1005 C 97.3535 1.51009 1.2432 0
M  V30 1006 C 97.7335 0.248587 2.09631 0
M  V30 1007 O 97.0815 -0.768409 2.15192 0
M  V30 1008 C 97.2915 2.79981 2.08355 0
M  V30 1009 C 98.6395 3.3022 2.66908 0
M  V30 1010 O 99.6635 2.81228 2.18607 0
M  V30 1011 O 98.5225 4.15595 3.54884 0
M  V30 1012 H 95.6165 0.605239 0.563573 0
M  V30 1013 H 98.1625 1.62332 0.494627 0
M  V30 1014 H 96.9345 3.63275 1.45419 0
M  V30 1015 H 96.5575 2.7161 2.90368 0
M  V30 1016 N 97.5546 -0.734337 1.39446 0
M  V30 1017 C 98.4876 -1.85715 1.32609 0
M  V30 1018 C 99.4656 -1.6137 0.199636 0
M  V30 1019 O 100.65 -1.84626 0.380195 0
M  V30 1020 C 97.7766 -3.21709 1.05929 0
M  V30 1021 C 96.8226 -3.64913 2.20773 0
M  V30 1022 S 97.6556 -3.74203 3.83056 0
M  V30 1023 C 98.8116 -5.12986 3.58603 0
M  V30 1024 H 99.0446 -1.91232 2.27635 0
M  V30 1025 H 96.5776 -0.899263 1.25509 0
M  V30 1026 H 98.5356 -4.00236 0.912203 0
M  V30 1027 H 97.1966 -3.13848 0.125883 0
M  V30 1028 H 96.3896 -4.63606 1.97699 0
M  V30 1029 H 95.9916 -2.93593 2.31688 0
M  V30 1030 H 98.2836 -5.99339 3.15909 0
M  V30 1031 H 99.2266 -5.41088 4.5676 0
M  V30 1032 H 99.6346 -4.82694 2.9269 0
M  V30 1033 N 99.0327 -1.24633 -0.964593 0
M  V30 1034 C 100.444 -1.08045 -1.5226 0
M  V30 1035 C 100.795 0.347116 -1.93105 0
M  V30 1036 O 99.9197 1.23588 -1.77637 0
M  V30 1037 C 100.515 -1.95514 -2.76695 0
M  V30 1038 C 99.0737 -1.8314 -3.28841 0
M  V30 1039 C 98.2207 -1.90262 -2.01732 0
M  V30 1040 H 101.172 -1.38064 -0.782553 0
M  V30 1041 H 101.193 -1.48925 -3.50145 0
M  V30 1042 H 100.705 -2.99407 -2.46936 0
M  V30 1043 H 98.8057 -0.82092 -3.63444 0
M  V30 1044 H 98.9187 -2.67406 -3.97531 0
M  V30 1045 H 97.2827 -1.34027 -2.16584 0
M  V30 1046 H 98.0657 -2.9574 -1.74334 0
M  V30 1047 N 100.511 1.16574 -1.06058 0
M  V30 1048 C 101.759 1.86677 -0.77434 0
M  V30 1049 C 102.08 1.81959 0.701147 0
M  V30 1050 O 101.35 1.2515 1.50713 0
M  V30 1051 H 99.9298 0.691134 -0.283449 0
M  V30 1052 H 102.592 1.41378 -1.34158 0
M  V30 1053 H 101.688 2.92181 -1.09711 0
M  V30 1054 N 101.989 0.842826 1.3317 0
M  V30 1055 C 103.236 0.440447 1.97652 0
M  V30 1056 C 103.564 -1.00123 1.6675 0
M  V30 1057 O 102.819 -1.7155 0.941761 0
M  V30 1058 C 103.118 0.612607 3.52111 0
M  V30 1059 C 102.784 2.02297 4.02972 0
M  V30 1060 C 101.446 2.40874 4.16573 0
M  V30 1061 C 103.798 2.94402 4.30089 0
M  V30 1062 C 101.126 3.70852 4.54627 0
M  V30 1063 C 103.478 4.23865 4.69597 0
M  V30 1064 C 102.142 4.62392 4.81404 0
M  V30 1065 H 101.412 0.161171 0.72326 0
M  V30 1066 H 104.059 1.07061 1.58777 0
M  V30 1067 H 102.364 -0.100849 3.9167 0
M  V30 1068 H 104.061 0.2815 4.00011 0
M  V30 1069 H 100.651 1.71338 3.92863 0
M  V30 1070 H 104.835 2.65835 4.19101 0
M  V30 1071 H 100.091 4.00501 4.61962 0
M  V30 1072 H 104.265 4.95306 4.89536 0
M  V30 1073 H 101.892 5.63154 5.10648 0
M  V30 1074 N 103.467 -1.45747 0.599634 0
M  V30 1075 C 104.715 -2.01893 0.0915472 0
M  V30 1076 C 105.036 -1.47155 -1.27946 0
M  V30 1077 O 104.306 -0.66273 -1.84349 0
M  V30 1078 H 102.886 -0.746363 0.0308524 0
M  V30 1079 H 105.548 -1.78645 0.779237 0
M  V30 1080 H 104.644 -3.1208 0.0353086 0
M  V30 1081 N 104.945 -0.338344 -1.53925 0
M  V30 1082 C 105.908 0.508299 -2.23493 0
M  V30 1083 C 106.908 1.03175 -1.23335 0
M  V30 1084 O 108.098 0.921826 -1.47811 0
M  V30 1085 C 105.23 1.70754 -2.95052 0
M  V30 1086 H 106.423 -0.100058 -2.99733 0
M  V30 1087 H 103.976 -0.0896198 -1.56043 0
M  V30 1088 H 104.711 2.35474 -2.22986 0
M  V30 1089 H 104.496 1.33946 -3.68512 0
M  V30 1090 H 105.986 2.30818 -3.48013 0
M  V30 1091 N 106.423 1.57458 -0.0668435 0
M  V30 1092 C 107.669 1.93587 0.6043 0
M  V30 1093 C 108.002 0.946722 1.69561 0
M  V30 1094 O 107.277 -0.0248516 1.94484 0
M  V30 1095 C 107.56 3.40014 1.18585 0
M  V30 1096 C 107.413 4.49685 0.101529 0
M  V30 1097 C 108.732 3.87154 2.09284 0
M  V30 1098 H 105.851 0.703958 0.218202 0
M  V30 1099 H 108.493 1.89542 -0.131804 0
M  V30 1100 H 106.643 3.43592 1.81319 0
M  V30 1101 H 108.315 4.5823 -0.531279 0
M  V30 1102 H 106.558 4.30059 -0.568487 0
M  V30 1103 H 107.229 5.49266 0.54874 0
M  V30 1104 H 109.705 3.85551 1.56491 0
M  V30 1105 H 108.581 4.90231 2.46911 0
M  V30 1106 H 108.842 3.2481 2.99918 0
M  V30 1107 N 107.901 -0.206675 1.56239 0
M  V30 1108 C 108.864 -1.23976 1.92776 0
M  V30 1109 C 109.864 -1.39041 0.807729 0
M  V30 1110 O 111.054 -1.37051 1.0753 0
M  V30 1111 C 108.186 -2.61112 2.19165 0
M  V30 1112 H 109.379 -0.927764 2.85189 0
M  V30 1113 H 106.932 -0.447718 1.4975 0
M  V30 1114 H 107.667 -2.97386 1.29352 0
M  V30 1115 H 107.452 -2.51552 3.00772 0
M  V30 1116 H 108.942 -3.35633 2.48476 0
M  V30 1117 N 109.379 -1.50304 -0.473955 0
M  V30 1118 C 110.604 -1.65175 -1.25427 0
M  V30 1119 C 111.029 -0.333673 -1.85117 0
M  V30 1120 O 110.387 0.702114 -1.67153 0
M  V30 1121 C 110.435 -2.74295 -2.34082 0
M  V30 1122 O 109.539 -2.35349 -3.38651 0
M  V30 1123 H 108.88 -0.551944 -0.369126 0
M  V30 1124 H 111.41 -1.96662 -0.564364 0
M  V30 1125 H 111.42 -2.97285 -2.79438 0
M  V30 1126 H 110.095 -3.69959 -1.90008 0
M  V30 1127 H 108.672 -2.22794 -2.99027 0
M  V30 1128 N 110.857 0.726932 -1.39834 0
M  V30 1129 C 111.805 1.86235 -1.39353 0
M  V30 1130 C 112.799 1.67144 -0.275555 0
M  V30 1131 O 114.005 1.74387 -0.44601 0
M  V30 1132 H 110.38 0.613174 -0.43534 0
M  V30 1133 H 112.351 1.83756 -2.35109 0
M  V30 1134 C 111.1 3.23995 -1.26185 0
M  V30 1135 H 110.423 3.39285 -2.11484 0
M  V30 1136 H 111.863 4.03609 -1.29907 0
M  V30 1137 C 110.322 3.36888 0.0290018 0
M  V30 1138 O 110.852 3.89152 0.99619 0
M  V30 1139 N 109.058 2.90446 0.0947437 0
M  V30 1140 H 108.605 2.48102 -0.693035 0
M  V30 1141 H 108.563 2.99451 0.957932 0
M  V30 1142 N 112.336 1.25143 0.95797 0
M  V30 1143 C 113.584 1.09476 1.69881 0
M  V30 1144 C 113.905 -0.365502 1.91544 0
M  V30 1145 O 113.175 -1.25985 1.50015 0
M  V30 1146 H 111.755 0.402128 0.629525 0
M  V30 1147 H 114.417 1.57214 1.15194 0
M  V30 1148 H 113.513 1.60046 2.6794 0
M  V30 1149 N 113.814 -1.1601 1.06675 0
M  V30 1150 C 114.744 -2.22688 0.702307 0
M  V30 1151 C 115.725 -1.67306 -0.307032 0
M  V30 1152 O 116.91 -1.93352 -0.181305 0
M  V30 1153 C 114.04 -3.47178 0.092038 0
M  V30 1154 C 112.994 -4.15477 1.02777 0
M  V30 1155 C 112.32 -5.33963 0.28061 0
M  V30 1156 C 113.62 -4.66019 2.35846 0
M  V30 1157 H 115.314 -2.53429 1.59419 0
M  V30 1158 H 112.86 -1.21813 0.767961 0
M  V30 1159 H 114.813 -4.21037 -0.174814 0
M  V30 1160 H 113.537 -3.15749 -0.834877 0
M  V30 1161 H 112.196 -3.43549 1.27944 0
M  V30 1162 H 111.844 -4.98788 -0.649545 0
M  V30 1163 H 111.544 -5.806 0.904258 0
M  V30 1164 H 113.068 -6.10596 0.021396 0
M  V30 1165 H 114.482 -5.3144 2.15045 0
M  V30 1166 H 112.879 -5.23293 2.93743 0
M  V30 1167 H 113.949 -3.82023 2.98641 0
M  V30 1168 N 115.292 -0.849877 -1.32721 0
M  V30 1169 C 116.541 -0.447175 -1.96681 0
M  V30 1170 C 116.854 1.00135 -1.68025 0
M  V30 1171 O 118.06 1.50926 -2.25685 0
M  V30 1172 C 116.516 -0.7487 -3.52026 0
M  V30 1173 C 116.124 -2.21264 -3.89546 0
M  V30 1174 C 117.868 -0.413487 -4.22481 0
M  V30 1175 C 115.775 -2.45763 -5.37917 0
M  V30 1176 H 114.705 -0.163486 -0.736063 0
M  V30 1177 H 117.356 -1.03999 -1.51183 0
M  V30 1178 H 115.738 -0.0853727 -3.95908 0
M  V30 1179 H 116.912 -2.91736 -3.56689 0
M  V30 1180 H 115.227 -2.5119 -3.32103 0
M  V30 1181 H 117.824 -0.574017 -5.3161 0
M  V30 1182 H 118.167 0.644492 -4.11281 0
M  V30 1183 H 118.7 -1.03251 -3.84167 0
M  V30 1184 H 115.439 -3.50168 -5.54132 0
M  V30 1185 H 114.959 -1.79864 -5.72197 0
M  V30 1186 H 116.638 -2.29471 -6.0494 0
M  V30 1187 N 116.77 1.45427 -0.607355 0
M  V30 1188 C 118.016 2.0254 -0.102607 0
M  V30 1189 C 118.349 1.47478 1.26348 0
M  V30 1190 O 117.624 0.64939 1.83339 0
M  V30 1191 C 117.907 3.60044 -0.0634347 0
M  V30 1192 C 117.76 4.2544 -1.46017 0
M  V30 1193 C 119.079 4.35646 0.624514 0
M  V30 1194 H 116.198 0.73598 -0.0387607 0
M  V30 1195 H 118.84 1.73284 -0.779282 0
M  V30 1196 H 116.99 3.85101 0.512808 0
M  V30 1197 H 118.662 4.11569 -2.08347 0
M  V30 1198 H 116.905 3.83849 -2.02094 0
M  V30 1199 H 117.576 5.34342 -1.385 0
M  V30 1200 H 120.052 4.15882 0.134723 0
M  V30 1201 H 118.928 5.45376 0.621028 0
M  V30 1202 H 119.189 4.08501 1.69055 0
M  V30 1203 N 118.248 0.346503 1.53744 0
M  V30 1204 C 119.664 -0.00530975 1.59599 0
M  V30 1205 C 119.864 -1.48465 1.36236 0
M  V30 1206 O 118.92 -2.24376 1.15808 0
M  V30 1207 C 120.233 0.433516 2.97559 0
M  V30 1208 C 121.781 0.386111 3.10609 0
M  V30 1209 C 122.256 0.800451 4.50951 0
M  V30 1210 N 123.747 0.754753 4.5701 0
M  V30 1211 C 124.482 1.04727 5.63755 0
M  V30 1212 N 123.978 1.4081 6.7834 0
M  V30 1213 N 125.771 0.971316 5.53644 0
M  V30 1214 H 117.922 1.31009 1.67184 0
M  V30 1215 H 120.185 0.534242 0.783128 0
M  V30 1216 H 119.891 1.46509 3.19731 0
M  V30 1217 H 119.765 -0.189753 3.76722 0
M  V30 1218 H 122.152 -0.636295 2.88158 0
M  V30 1219 H 122.233 1.04462 2.33498 0
M  V30 1220 H 121.877 1.82088 4.74137 0
M  V30 1221 H 121.807 0.119386 5.26465 0
M  V30 1222 H 124.298 0.488662 3.74727 0
M  V30 1223 H 124.611 1.61607 7.55714 0
M  V30 1224 H 122.956 1.44657 6.79779 0
M  V30 1225 H 126.147 0.688748 4.63005 0
M  V30 1226 H 126.32 1.20263 6.36742 0
M  V30 1227 N 119.726 -1.57421 0.075193 0
M  V30 1228 C 121.003 -1.85029 -0.634329 0
M  V30 1229 C 121.383 -0.968305 -1.87582 0
M  V30 1230 O 120.731 -0.0354749 -2.28472 0
M  V30 1231 C 120.941 -3.35286 -0.968742 0
M  V30 1232 C 122.289 -4.02875 -1.34077 0
M  V30 1233 O 123.313 -3.40051 -1.06037 0
M  V30 1234 O 122.172 -5.13691 -1.86506 0
M  V30 1235 H 119.266 -0.7645 -0.315387 0
M  V30 1236 H 121.812 -1.69366 0.106382 0
M  V30 1237 H 120.584 -3.91203 -0.0871376 0
M  V30 1238 H 120.207 -3.56223 -1.7661 0
M  V30 1239 N 121.204 0.198386 -1.56346 0
M  V30 1240 C 122.452 0.91747 -1.80075 0
M  V30 1241 C 122.773 1.83929 -0.647692 0
M  V30 1242 O 122.043 1.93029 0.334166 0
M  V30 1243 H 120.623 0.341774 -0.664228 0
M  V30 1244 H 123.285 0.204684 -1.93822 0
M  V30 1245 H 122.381 1.51055 -2.7311 0
M  V30 1246 N 122.682 1.50554 0.465978 0
M  V30 1247 C 123.93 1.61479 1.21528 0
M  V30 1248 C 124.251 0.319596 1.92363 0
M  V30 1249 O 123.521 -0.663194 1.84333 0
M  V30 1250 H 122.101 0.595055 0.451573 0
M  V30 1251 H 124.763 1.87355 0.53704 0
M  V30 1252 H 123.859 2.42846 1.96042 0
M  V30 1253 N 124.16 -0.719506 1.40217 0
M  V30 1254 C 125.576 -1.02707 1.22161 0
M  V30 1255 C 125.776 -2.0128 0.0940557 0
M  V30 1256 O 124.832 -2.46452 -0.549318 0
M  V30 1257 C 126.145 -1.57454 2.56181 0
M  V30 1258 C 127.693 -1.69458 2.63159 0
M  V30 1259 C 128.168 -2.27611 3.97438 0
M  V30 1260 N 129.659 -2.35002 3.99159 0
M  V30 1261 C 130.394 -2.80972 4.99842 0
M  V30 1262 N 129.89 -3.26723 6.10921 0
M  V30 1263 N 131.683 -2.80321 4.87213 0
M  V30 1264 H 123.834 -0.0660492 2.12297 0
M  V30 1265 H 126.097 -0.0919077 0.943534 0
M  V30 1266 H 125.803 -0.924873 3.39321 0
M  V30 1267 H 125.677 -2.56036 2.76993 0
M  V30 1268 H 128.064 -2.33543 1.80393 0
M  V30 1269 H 128.145 -0.694867 2.46181 0
M  V30 1270 H 127.789 -1.6415 4.80643 0
M  V30 1271 H 127.719 -3.2829 4.11744 0
M  V30 1272 H 130.21 -2.02685 3.18947 0
M  V30 1273 H 130.523 -3.60355 6.8364 0
M  V30 1274 H 128.868 -3.24692 6.14492 0
M  V30 1275 H 132.059 -2.43912 3.9953 0
M  V30 1276 H 132.232 -3.15831 5.65822 0
M  V30 1277 N 125.638 -1.25649 -0.95132 0
M  V30 1278 C 126.884 -1.10757 -1.69884 0
M  V30 1279 C 127.217 0.350061 -1.91019 0
M  V30 1280 O 126.492 1.25783 -1.48354 0
M  V30 1281 C 126.775 -1.86606 -3.07978 0
M  V30 1282 C 126.628 -3.40217 -2.94232 0
M  V30 1283 C 127.947 -1.65182 -4.07925 0
M  V30 1284 H 125.066 -0.40374 -0.616574 0
M  V30 1285 H 127.708 -1.54521 -1.10558 0
M  V30 1286 H 125.858 -1.49409 -3.58621 0
M  V30 1287 H 127.53 -3.87108 -2.50889 0
M  V30 1288 H 125.773 -3.67759 -2.30078 0
M  V30 1289 H 126.444 -3.88505 -3.92133 0
M  V30 1290 H 128.92 -1.9757 -3.66204 0
M  V30 1291 H 127.796 -2.20683 -5.02583 0
M  V30 1292 H 128.057 -0.593933 -4.38092 0
M  V30 1293 N 127.117 1.15442 -1.07289 0
M  V30 1294 C 128.047 2.22312 -0.714107 0
M  V30 1295 C 129.028 1.67467 0.298155 0
M  V30 1296 O 130.213 1.93445 0.171048 0
M  V30 1297 C 127.343 3.47124 -0.110448 0
M  V30 1298 C 126.297 4.14926 -1.04979 0
M  V30 1299 C 125.623 5.33807 -0.308924 0
M  V30 1300 C 126.923 4.64762 -2.38314 0
M  V30 1301 H 128.617 2.5258 -1.6076 0
M  V30 1302 H 126.163 1.21404 -0.77441 0
M  V30 1303 H 128.116 4.21124 0.152482 0
M  V30 1304 H 126.84 3.16187 0.81812 0
M  V30 1305 H 125.499 3.42866 -1.29764 0
M  V30 1306 H 125.147 4.99126 0.623084 0
M  V30 1307 H 124.847 5.80113 -0.935036 0
M  V30 1308 H 126.371 6.10576 -0.0537771 0
M  V30 1309 H 127.785 5.30292 -2.1786 0
M  V30 1310 H 126.182 5.21728 -2.96514 0
M  V30 1311 H 127.252 3.80434 -3.00663 0
M  V30 1312 N 128.595 0.856903 1.32268 0
M  V30 1313 C 129.841 0.462069 1.97466 0
M  V30 1314 C 130.174 -0.980298 1.67642 0
M  V30 1315 O 129.449 -1.68824 0.965858 0
M  V30 1316 C 129.732 0.704336 3.53145 0
M  V30 1317 C 129.585 2.19529 3.9259 0
M  V30 1318 C 130.904 0.1622 4.39801 0
M  V30 1319 H 128.023 0.169357 0.717278 0
M  V30 1320 H 130.665 1.07574 1.56614 0
M  V30 1321 H 128.815 0.181999 3.88073 0
M  V30 1322 H 130.487 2.78387 3.67829 0
M  V30 1323 H 128.73 2.67292 3.41668 0
M  V30 1324 H 129.401 2.31549 5.01088 0
M  V30 1325 H 131.877 0.608905 4.11621 0
M  V30 1326 H 130.753 0.361265 5.4771 0
M  V30 1327 H 131.014 -0.935158 4.32096 0
M  V30 1328 N 130.073 -1.45103 0.615059 0
M  V30 1329 C 131.319 -2.02483 0.113347 0
M  V30 1330 C 131.652 -1.48146 -1.25564 0
M  V30 1331 O 130.927 -0.659104 -1.82992 0
M  V30 1332 C 131.21 -3.60005 0.0825278 0
M  V30 1333 C 131.063 -4.2466 1.48271 0
M  V30 1334 C 132.382 -4.35972 -0.601401 0
M  V30 1335 H 129.501 -0.735764 0.0426632 0
M  V30 1336 H 132.143 -1.72868 0.788461 0
M  V30 1337 H 130.293 -3.85367 -0.492378 0
M  V30 1338 H 131.965 -4.10458 2.10527 0
M  V30 1339 H 130.208 -3.82772 2.04127 0
M  V30 1340 H 130.879 -5.336 1.41332 0
M  V30 1341 H 133.355 -4.15947 -0.112666 0
M  V30 1342 H 132.231 -5.45697 -0.592097 0
M  V30 1343 H 132.492 -4.09391 -1.66887 0
M  V30 1344 N 131.551 -0.354651 -1.53558 0
M  V30 1345 C 132.828 0.294281 -1.93374 0
M  V30 1346 C 133.208 1.67313 -1.28723 0
M  V30 1347 O 132.556 2.24179 -0.442247 0
M  V30 1348 C 132.766 0.355445 -3.47185 0
M  V30 1349 C 134.114 0.601007 -4.20325 0
M  V30 1350 O 135.138 0.437106 -3.53508 0
M  V30 1351 O 133.997 0.919322 -5.38712 0
M  V30 1352 H 131.091 0.174033 -0.808481 0
M  V30 1353 H 133.637 -0.406638 -1.64756 0
M  V30 1354 H 132.409 -0.611729 -3.86489 0
M  V30 1355 H 132.032 1.1027 -3.82003 0
M  V30 1356 N 133.029 1.57378 -0.0835403 0
M  V30 1357 C 134.257 1.98263 0.59157 0
M  V30 1358 C 134.672 0.962302 1.62435 0
M  V30 1359 O 134.029 -0.049581 1.82433 0
M  V30 1360 C 134.08 3.39214 1.24965 0
M  V30 1361 O 133.801 4.37339 0.258186 0
M  V30 1362 C 135.302 3.95038 2.01147 0
M  V30 1363 H 132.522 0.651773 0.159477 0
M  V30 1364 H 135.066 2.03878 -0.159415 0
M  V30 1365 H 133.221 3.34649 1.95164 0
M  V30 1366 H 133.635 5.19371 0.731734 0
M  V30 1367 H 135.109 4.95848 2.42567 0
M  V30 1368 H 135.586 3.32222 2.87272 0
M  V30 1369 H 136.192 4.0304 1.35789 0
M  V30 1370 N 134.507 -0.190092 1.56449 0
M  V30 1371 C 135.47 -1.21925 1.9408 0
M  V30 1372 C 136.47 -1.38176 0.822431 0
M  V30 1373 O 137.66 -1.35903 1.08977 0
M  V30 1374 C 134.792 -2.58773 2.21922 0
M  V30 1375 H 135.985 -0.897464 2.86157 0
M  V30 1376 H 133.538 -0.43181 1.50217 0
M  V30 1377 H 134.273 -2.95998 1.32499 0
M  V30 1378 H 134.058 -2.48348 3.03424 0
M  V30 1379 H 135.548 -3.32978 2.52022 0
M  V30 1380 N 135.985 -1.50799 -0.457987 0
M  V30 1381 C 137.231 -1.63648 -1.20792 0
M  V30 1382 C 137.586 -0.338662 -1.89396 0
M  V30 1383 O 136.879 0.664291 -1.79716 0
M  V30 1384 C 137.073 -2.76358 -2.2663 0
M  V30 1385 C 136.902 -4.16974 -1.68411 0
M  V30 1386 C 135.672 -4.83199 -1.47807 0
M  V30 1387 C 137.87 -5.00774 -1.17176 0
M  V30 1388 N 135.852 -6.07991 -0.849692 0
M  V30 1389 C 137.223 -6.16397 -0.667403 0
M  V30 1390 C 139.278 -4.86452 -1.06155 0
M  V30 1391 C 137.981 -7.19272 -0.0636908 0
M  V30 1392 C 140.007 -5.89515 -0.471759 0
M  V30 1393 C 139.369 -7.04397 0.0221557 0
M  V30 1394 H 135.468 -0.652888 -0.43042 0
M  V30 1395 H 138.052 -1.87962 -0.507785 0
M  V30 1396 H 136.223 -2.53744 -2.94056 0
M  V30 1397 H 137.955 -2.78496 -2.93636 0
M  V30 1398 H 134.71 -4.40714 -1.73403 0
M  V30 1399 H 135.134 -6.74733 -0.553537 0
M  V30 1400 H 139.776 -3.97907 -1.42932 0
M  V30 1401 H 137.494 -8.07481 0.316253 0
M  V30 1402 H 141.08 -5.805 -0.388671 0
M  V30 1403 H 139.96 -7.82782 0.471375 0
M  V30 1404 N 137.463 0.71206 -1.40597 0
M  V30 1405 C 138.691 1.50111 -1.42388 0
M  V30 1406 C 139.106 1.88784 -0.0245395 0
M  V30 1407 O 138.463 1.55681 0.952351 0
M  V30 1408 C 138.514 2.7742 -2.31776 0
M  V30 1409 O 138.235 2.40382 -3.66262 0
M  V30 1410 C 139.736 3.7129 -2.42196 0
M  V30 1411 H 136.956 0.46314 -0.485533 0
M  V30 1412 H 139.5 0.878068 -1.8469 0
M  V30 1413 H 137.655 3.36001 -1.92827 0
M  V30 1414 H 138.069 3.22324 -4.13772 0
M  V30 1415 H 139.543 4.57448 -3.08943 0
M  V30 1416 H 140.02 4.14641 -1.44809 0
M  V30 1417 H 140.626 3.18619 -2.81712 0
M  V30 1418 N 138.941 1.26152 0.944643 0
M  V30 1419 C 140.218 1.02247 1.66748 0
M  V30 1420 C 140.598 -0.448202 2.06287 0
M  V30 1421 O 139.946 -1.42779 1.78399 0
M  V30 1422 C 140.156 1.96788 2.88228 0
M  V30 1423 C 141.504 2.25201 3.59958 0
M  V30 1424 O 142.528 1.94626 2.98327 0
M  V30 1425 O 141.387 2.77242 4.70956 0
M  V30 1426 H 138.481 0.388517 0.730057 0
M  V30 1427 H 141.027 1.37348 0.99668 0
M  V30 1428 H 139.799 2.96047 2.55875 0
M  V30 1429 H 139.422 1.62145 3.63035 0
M  V30 1430 N 140.419 -1.14872 1.07899 0
M  V30 1431 C 141.696 -1.81928 0.71845 0
M  V30 1432 C 142.076 -1.95417 -0.798455 0
M  V30 1433 O 141.424 -1.50997 -1.715 0
M  V30 1434 C 141.634 -3.17937 1.43935 0
M  V30 1435 C 142.982 -3.93501 1.59506 0
M  V30 1436 O 144.006 -3.27509 1.40058 0
M  V30 1437 O 142.865 -5.1183 1.91551 0
M  V30 1438 H 139.959 -0.78628 0.256305 0
M  V30 1439 H 142.505 -1.21934 1.18026 0
M  V30 1440 H 141.277 -3.0325 2.47295 0
M  V30 1441 H 140.9 -3.85619 0.968687 0
M  V30 1442 N 141.898 -0.863906 -1.31812 0
M  V30 1443 C 142.83 -0.272485 -2.27575 0
M  V30 1444 C 143.843 0.56104 -1.52827 0
M  V30 1445 O 145.032 0.384021 -1.7432 0
M  V30 1446 C 142.132 0.63283 -3.32939 0
M  V30 1447 C 141.305 -0.166902 -4.37081 0
M  V30 1448 C 140.364 0.665608 -5.21973 0
M  V30 1449 O 139.39 0.0958091 -5.69119 0
M  V30 1450 N 140.592 1.9787 -5.45736 0
M  V30 1451 H 143.357 -1.0954 -2.78964 0
M  V30 1452 H 140.918 -0.724791 -1.4477 0
M  V30 1453 H 142.91 1.19532 -3.86645 0
M  V30 1454 H 141.48 1.35642 -2.81638 0
M  V30 1455 H 140.7 -0.910838 -3.83533 0
M  V30 1456 H 141.988 -0.715874 -5.03739 0
M  V30 1457 H 141.386 2.46484 -5.09178 0
M  V30 1458 H 139.943 2.48911 -6.024 0
M  V30 1459 N 143.376 1.44774 -0.622745 0
M  V30 1460 C 144.604 2.06487 -0.130722 0
M  V30 1461 C 145.019 1.46476 1.19123 0
M  V30 1462 O 144.376 0.584502 1.72887 0
M  V30 1463 C 144.427 3.615 -0.000807207 0
M  V30 1464 O 144.148 4.19274 -1.27048 0
M  V30 1465 C 145.649 4.40229 0.520898 0
M  V30 1466 H 142.869 0.666704 -0.0758106 0
M  V30 1467 H 145.413 1.85779 -0.854774 0
M  V30 1468 H 143.568 3.81498 0.673643 0
M  V30 1469 H 143.982 5.12622 -1.1099 0
M  V30 1470 H 145.456 5.49144 0.560838 0
M  V30 1471 H 145.933 4.1108 1.54627 0
M  V30 1472 H 146.539 4.25131 -0.120018 0
M  V30 1473 N 144.854 0.36279 1.53368 0
M  V30 1474 C 145.817 -0.472679 2.24273 0
M  V30 1475 C 146.817 -1.012 1.24961 0
M  V30 1476 O 148.007 -0.898194 1.49259 0
M  V30 1477 C 145.139 -1.66039 2.97731 0
M  V30 1478 H 146.332 0.14773 2.99536 0
M  V30 1479 H 143.885 0.114434 1.55881 0
M  V30 1480 H 144.62 -2.31896 2.26704 0
M  V30 1481 H 144.405 -1.28066 3.70596 0
M  V30 1482 H 145.895 -2.25252 3.51641 0
M  V30 1483 N 146.332 -1.57332 0.0918853 0
M  V30 1484 C 147.264 -2.10869 -0.898168 0
M  V30 1485 C 148.277 -1.04521 -1.24817 0
M  V30 1486 O 149.466 -1.31977 -1.20184 0
M  V30 1487 C 146.566 -2.57083 -2.2082 0
M  V30 1488 C 145.739 -3.87229 -2.03402 0
M  V30 1489 C 144.798 -4.19324 -3.17889 0
M  V30 1490 O 143.824 -4.88598 -2.91994 0
M  V30 1491 N 145.026 -3.74471 -4.43567 0
M  V30 1492 H 147.791 -2.96439 -0.440943 0
M  V30 1493 H 145.352 -1.61631 -0.0933064 0
M  V30 1494 H 147.344 -2.75602 -2.96354 0
M  V30 1495 H 145.914 -1.76541 -2.57977 0
M  V30 1496 H 145.134 -3.7789 -1.12218 0
M  V30 1497 H 146.422 -4.72379 -1.89038 0
M  V30 1498 H 145.82 -3.18546 -4.67488 0
M  V30 1499 H 144.377 -3.98151 -5.16061 0
M  V30 1500 N 147.81 0.181792 -1.56548 0
M  V30 1501 C 149.059 0.898348 -1.8059 0
M  V30 1502 C 149.372 1.83862 -0.667379 0
M  V30 1503 O 150.578 2.59678 -0.792446 0
M  V30 1504 C 149.034 1.64791 -3.19956 0
M  V30 1505 C 148.642 0.751789 -4.41647 0
M  V30 1506 C 150.386 2.35331 -3.53298 0
M  V30 1507 C 148.293 1.50098 -5.72035 0
M  V30 1508 H 147.223 0.339194 -0.673397 0
M  V30 1509 H 149.874 0.151413 -1.82874 0
M  V30 1510 H 148.256 2.43921 -3.11959 0
M  V30 1511 H 149.43 -0.0018076 -4.608 0
M  V30 1512 H 147.745 0.156562 -4.16106 0
M  V30 1513 H 150.342 2.91958 -4.47956 0
M  V30 1514 H 150.685 3.10164 -2.77676 0
M  V30 1515 H 151.218 1.63154 -3.62803 0
M  V30 1516 H 147.957 0.795175 -6.50659 0
M  V30 1517 H 147.477 2.22817 -5.56878 0
M  V30 1518 H 149.156 2.05125 -6.13622 0
M  V30 1519 N 149.288 1.51039 0.449983 0
M  V30 1520 C 150.218 1.74379 1.55288 0
M  V30 1521 C 151.199 0.593236 1.5942 0
M  V30 1522 O 152.384 0.834625 1.7535 0
M  V30 1523 C 149.514 1.85728 2.93466 0
M  V30 1524 C 148.468 3.01078 3.04197 0
M  V30 1525 C 147.794 2.97595 4.44231 0
M  V30 1526 C 149.094 4.41254 2.7945 0
M  V30 1527 H 150.788 2.66725 1.36008 0
M  V30 1528 H 148.334 1.2835 0.652864 0
M  V30 1529 H 150.287 2.0064 3.70569 0
M  V30 1530 H 149.011 0.900207 3.13949 0
M  V30 1531 H 147.67 2.85851 2.29531 0
M  V30 1532 H 147.318 1.99691 4.61663 0
M  V30 1533 H 147.018 3.75046 4.52343 0
M  V30 1534 H 148.542 3.14583 5.23326 0
M  V30 1535 H 149.956 4.56897 3.46292 0
M  V30 1536 H 148.353 5.20315 2.98985 0
M  V30 1537 H 149.423 4.52164 1.75144 0
M  V30 1538 N 150.766 -0.704594 1.40972 0
M  V30 1539 C 151.714 -1.83994 1.42299 0
M  V30 1540 C 152.708 -1.66684 0.302111 0
M  V30 1541 O 153.914 -1.73655 0.473697 0
M  V30 1542 H 150.289 -0.606171 0.44504 0
M  V30 1543 H 152.26 -1.79992 2.38003 0
M  V30 1544 C 151.009 -3.21946 1.31323 0
M  V30 1545 H 150.332 -3.35878 2.16855 0
M  V30 1546 H 151.772 -4.01491 1.36311 0
M  V30 1547 C 150.231 -3.36891 0.0245977 0
M  V30 1548 O 150.761 -3.90687 -0.934153 0
M  V30 1549 N 148.967 -2.90559 -0.0485243 0
M  V30 1550 H 148.514 -2.46968 0.732419 0
M  V30 1551 H 148.472 -3.00937 -0.910171 0
M  V30 1552 N 152.244 -1.26651 -0.937939 0
M  V30 1553 C 153.49 -1.13562 -1.68746 0
M  V30 1554 C 153.845 0.317241 -1.89767 0
M  V30 1555 O 153.138 1.22939 -1.46957 0
M  V30 1556 C 153.332 -1.84168 -3.06295 0
M  V30 1557 C 153.161 -3.36171 -2.98696 0
M  V30 1558 C 151.931 -4.05468 -3.01535 0
M  V30 1559 C 154.129 -4.32312 -2.78588 0
M  V30 1560 N 152.111 -5.44118 -2.84269 0
M  V30 1561 C 153.482 -5.58159 -2.69924 0
M  V30 1562 C 155.537 -4.22524 -2.63396 0
M  V30 1563 C 154.24 -6.75335 -2.47618 0
M  V30 1564 C 156.266 -5.39411 -2.42466 0
M  V30 1565 C 155.628 -6.64208 -2.34536 0
M  V30 1566 H 151.727 -0.470361 -0.624728 0
M  V30 1567 H 154.311 -1.59982 -1.10968 0
M  V30 1568 H 152.482 -1.40219 -3.62206 0
M  V30 1569 H 154.214 -1.63674 -3.70126 0
M  V30 1570 H 150.969 -3.56854 -3.11372 0
M  V30 1571 H 151.393 -6.1693 -2.78795 0
M  V30 1572 H 156.035 -3.26771 -2.68292 0
M  V30 1573 H 153.753 -7.71182 -2.41463 0
M  V30 1574 H 157.339 -5.33711 -2.31611 0
M  V30 1575 H 156.219 -7.53129 -2.18555 0
M  V30 1576 N 153.722 1.14298 -1.08507 0
M  V30 1577 C 154.971 1.84708 -0.810305 0
M  V30 1578 C 155.284 1.83903 0.666271 0
M  V30 1579 O 156.49 2.50112 1.05624 0
M  V30 1580 C 154.946 3.31572 -1.39957 0
M  V30 1581 C 154.554 3.40791 -2.90801 0
M  V30 1582 C 156.298 4.07087 -1.20334 0
M  V30 1583 C 154.205 4.81872 -3.4286 0
M  V30 1584 H 153.135 0.691985 -0.299454 0
M  V30 1585 H 155.786 1.28841 -1.30661 0
M  V30 1586 H 154.168 3.87183 -0.830976 0
M  V30 1587 H 155.342 2.95225 -3.53806 0
M  V30 1588 H 153.657 2.78732 -3.0935 0
M  V30 1589 H 156.254 5.11225 -1.56693 0
M  V30 1590 H 156.597 4.16054 -0.143237 0
M  V30 1591 H 157.13 3.57779 -1.73893 0
M  V30 1592 H 153.869 4.78094 -4.48449 0
M  V30 1593 H 153.389 5.27972 -2.84615 0
M  V30 1594 H 155.068 5.50765 -3.39509 0
M  V30 1595 N 155.201 0.870884 1.31352 0
M  V30 1596 C 156.148 0.325425 2.28494 0
M  V30 1597 C 157.118 -0.576615 1.5577 0
M  V30 1598 O 158.303 -0.508059 1.83911 0
M  V30 1599 C 155.443 -0.466283 3.41935 0
M  V30 1600 C 154.556 0.463378 4.29508 0
M  V30 1601 C 153.691 -0.342544 5.30094 0
M  V30 1602 C 152.73 0.583486 6.09313 0
M  V30 1603 N 151.867 -0.186244 7.01853 0
M  V30 1604 H 156.707 1.15901 2.74538 0
M  V30 1605 H 154.244 0.58294 1.35056 0
M  V30 1606 H 156.202 -0.941085 4.06447 0
M  V30 1607 H 154.832 -1.26456 2.97 0
M  V30 1608 H 153.884 1.05663 3.65431 0
M  V30 1609 H 155.196 1.1734 4.84802 0
M  V30 1610 H 154.35 -0.879816 6.00287 0
M  V30 1611 H 153.089 -1.08585 4.75458 0
M  V30 1612 H 152.094 1.13251 5.3801 0
M  V30 1613 H 153.319 1.32566 6.66035 0
M  V30 1614 H 151.265 -0.912348 6.49625 0
M  V30 1615 H 151.182 0.464422 7.54572 0
M  V30 1616 H 152.45 -0.704716 7.76308 0
M  V30 1617 N 156.679 -1.44442 0.630414 0
M  V30 1618 C 157.611 -2.2892 -0.113347 0
M  V30 1619 C 158.624 -1.41243 -0.80959 0
M  V30 1620 O 159.813 -1.65402 -0.671156 0
M  V30 1621 C 156.913 -3.17594 -1.18266 0
M  V30 1622 C 156.086 -4.33682 -0.569073 0
M  V30 1623 C 155.145 -5.03397 -1.53226 0
M  V30 1624 O 154.171 -5.59438 -1.04967 0
M  V30 1625 N 155.373 -5.04783 -2.86661 0
M  V30 1626 H 158.138 -2.93392 0.611636 0
M  V30 1627 H 155.699 -1.54881 0.471523 0
M  V30 1628 H 157.691 -3.61097 -1.82732 0
M  V30 1629 H 156.261 -2.54876 -1.80988 0
M  V30 1630 H 155.481 -3.9338 0.254187 0
M  V30 1631 H 156.769 -5.08608 -0.139767 0
M  V30 1632 H 156.167 -4.60584 -3.28449 0
M  V30 1633 H 154.724 -5.52077 -3.46489 0
M  V30 1634 N 158.157 -0.370918 -1.53173 0
M  V30 1635 C 159.067 0.480823 -2.2962 0
M  V30 1636 C 160.083 1.08789 -1.35798 0
M  V30 1637 O 161.259 1.09768 -1.68858 0
M  V30 1638 C 158.324 1.60227 -3.07454 0
M  V30 1639 C 157.385 1.0222 -4.16953 0
M  V30 1640 C 156.618 2.0902 -4.91066 0
M  V30 1641 O 156.841 3.30222 -4.65091 0
M  V30 1642 O 155.775 1.71778 -5.76867 0
M  V30 1643 H 159.601 -0.141421 -3.03371 0
M  V30 1644 H 157.186 -0.135146 -1.48787 0
M  V30 1645 H 159.068 2.25417 -3.56041 0
M  V30 1646 H 157.743 2.20982 -2.36535 0
M  V30 1647 H 156.65 0.334064 -3.72605 0
M  V30 1648 H 157.983 0.459131 -4.90054 0
M  V30 1649 N 159.635 1.57281 -0.100228 0
M  V30 1650 C 160.884 1.93713 0.561984 0
M  V30 1651 C 161.197 0.984492 1.69018 0
M  V30 1652 O 162.403 1.24273 2.41389 0
M  V30 1653 C 160.859 3.4421 1.05106 0
M  V30 1654 C 160.467 4.47975 -0.0476628 0
M  V30 1655 C 162.211 3.89595 1.68571 0
M  V30 1656 C 160.118 5.89631 0.457055 0
M  V30 1657 H 159.048 0.723082 0.2137 0
M  V30 1658 H 161.699 1.82644 -0.177057 0
M  V30 1659 H 160.081 3.50449 1.84395 0
M  V30 1660 H 161.255 4.53385 -0.823333 0
M  V30 1661 H 159.57 4.1223 -0.587816 0
M  V30 1662 H 162.167 4.92832 2.07414 0
M  V30 1663 H 162.51 3.28526 2.55688 0
M  V30 1664 H 163.043 3.86078 0.958562 0
M  V30 1665 H 159.782 6.54411 -0.377616 0
M  V30 1666 H 159.302 5.87681 1.19962 0
M  V30 1667 H 160.981 6.40363 0.92437 0
M  V30 1668 N 161.113 -0.173488 1.56642 0
M  V30 1669 C 162.061 -1.23417 1.97157 0
M  V30 1670 C 163.055 -1.45946 0.860013 0
M  V30 1671 O 164.261 -1.46551 1.04512 0
M  V30 1672 H 160.636 -0.414818 0.62724 0
M  V30 1673 H 162.607 -0.865582 2.8557 0
M  V30 1674 C 161.356 -2.5665 2.34576 0
M  V30 1675 H 160.679 -2.40137 3.19647 0
M  V30 1676 H 162.119 -3.2956 2.6677 0
M  V30 1677 C 160.578 -3.15245 1.18836 0
M  V30 1678 O 161.108 -3.98883 0.474869 0
M  V30 1679 N 159.314 -2.74303 0.959497 0
M  V30 1680 H 158.861 -2.0639 1.54146 0
M  V30 1681 H 158.819 -3.13844 0.186932 0
M  V30 1682 N 162.591 -1.51276 -0.441967 0
M  V30 1683 C 163.521 -1.752 -1.54361 0
M  V30 1684 C 164.502 -0.601682 -1.59103 0
M  V30 1685 O 165.687 -0.843913 -1.74905 0
M  V30 1686 C 162.817 -1.87282 -2.92477 0
M  V30 1687 C 161.771 -3.02687 -3.02596 0
M  V30 1688 C 161.097 -2.99947 -4.42647 0
M  V30 1689 C 162.397 -4.4273 -2.77106 0
M  V30 1690 H 164.091 -2.67442 -1.34592 0
M  V30 1691 H 161.637 -1.28694 -0.646048 0
M  V30 1692 H 163.59 -2.02602 -3.695 0
M  V30 1693 H 162.314 -0.916844 -3.13467 0
M  V30 1694 H 160.973 -2.87065 -2.28012 0
M  V30 1695 H 160.621 -2.02136 -4.60597 0
M  V30 1696 H 160.321 -3.77439 -4.50348 0
M  V30 1697 H 161.845 -3.17354 -5.2165 0
M  V30 1698 H 163.259 -4.58727 -3.43864 0
M  V30 1699 H 161.656 -5.21893 -2.96222 0
M  V30 1700 H 162.726 -4.53087 -1.72744 0
M  V30 1701 N 164.069 0.697108 -1.41344 0
M  V30 1702 C 165.48 1.27697 -1.36199 0
M  V30 1703 C 165.831 1.9615 -0.0443463 0
M  V30 1704 O 164.956 1.98689 0.857419 0
M  V30 1705 C 165.551 2.32223 -2.46694 0
M  V30 1706 C 164.11 2.8579 -2.44952 0
M  V30 1707 C 163.257 1.59807 -2.26621 0
M  V30 1708 H 166.208 0.491968 -1.50882 0
M  V30 1709 H 166.229 3.1348 -2.15664 0
M  V30 1710 H 165.741 1.82373 -3.42581 0
M  V30 1711 H 163.842 3.3982 -1.52817 0
M  V30 1712 H 163.955 3.36325 -3.41207 0
M  V30 1713 H 162.319 1.8556 -1.7447 0
M  V30 1714 H 163.102 1.11956 -3.24532 0
M  V30 1715 N 165.547 1.27147 0.931209 0
M  V30 1716 C 166.793 1.13446 1.68101 0
M  V30 1717 C 167.126 -0.319628 1.91552 0
M  V30 1718 O 166.401 -1.23407 1.50336 0
M  V30 1719 C 166.684 1.91482 3.0497 0
M  V30 1720 C 166.537 3.44855 2.88782 0
M  V30 1721 C 167.856 1.71651 4.05246 0
M  V30 1722 H 164.975 0.413498 0.610072 0
M  V30 1723 H 167.617 1.56261 1.08086 0
M  V30 1724 H 165.767 1.55095 3.56199 0
M  V30 1725 H 167.439 3.9105 2.44698 0
M  V30 1726 H 165.682 3.71373 2.24198 0
M  V30 1727 H 166.353 3.94694 3.85902 0
M  V30 1728 H 168.829 2.0337 3.63015 0
M  V30 1729 H 167.705 2.28651 4.99009 0
M  V30 1730 H 167.966 0.663555 4.37092 0
M  V30 1731 N 167.025 -1.13721 1.09112 0
M  V30 1732 C 167.988 -2.17222 0.731241 0
M  V30 1733 C 168.988 -1.59035 -0.237566 0
M  V30 1734 O 170.178 -1.74192 -0.0161704 0
M  V30 1735 C 167.31 -3.40804 0.0808443 0
M  V30 1736 H 168.503 -2.50573 1.64783 0
M  V30 1737 H 166.056 -1.28493 0.889897 0
M  V30 1738 H 166.791 -3.1304 -0.847127 0
M  V30 1739 H 166.576 -3.84306 0.777896 0
M  V30 1740 H 168.066 -4.1731 -0.155657 0
M  V30 1741 N 168.503 -0.877838 -1.30888 0
M  V30 1742 C 169.433 -0.35534 -2.3078 0
M  V30 1743 C 170.414 0.557994 -1.60687 0
M  V30 1744 O 171.599 0.473355 -1.88343 0
M  V30 1745 C 168.729 0.437221 -3.44537 0
M  V30 1746 C 167.683 -0.383715 -4.26276 0
M  V30 1747 C 167.009 0.535014 -5.32017 0
M  V30 1748 C 168.309 -1.62201 -4.96476 0
M  V30 1749 H 170.003 -1.19007 -2.74732 0
M  V30 1750 H 167.549 -0.573698 -1.32078 0
M  V30 1751 H 169.502 0.813334 -4.13477 0
M  V30 1752 H 168.226 1.30553 -2.99372 0
M  V30 1753 H 166.885 -0.741874 -3.59015 0
M  V30 1754 H 166.533 1.40083 -4.831 0
M  V30 1755 H 166.233 -0.0104211 -5.87599 0
M  V30 1756 H 167.757 0.907799 -6.03814 0
M  V30 1757 H 169.171 -1.31689 -5.5797 0
M  V30 1758 H 167.568 -2.10711 -5.61891 0
M  V30 1759 H 168.638 -2.37044 -4.23011 0
M  V30 1760 N 169.982 1.44106 -0.638065 0
M  V30 1761 C 170.945 2.29138 0.0531013 0
M  V30 1762 C 171.945 1.41409 0.765506 0
M  V30 1763 O 173.135 1.63206 0.609046 0
M  V30 1764 C 170.267 3.23144 1.08584 0
M  V30 1765 H 171.46 2.91739 -0.694883 0
M  V30 1766 H 169.013 1.51134 -0.398538 0
M  V30 1767 H 169.748 2.65408 1.86357 0
M  V30 1768 H 169.533 3.87804 0.578852 0
M  V30 1769 H 171.023 3.87004 1.56899 0
M  V30 1770 N 171.46 0.379036 1.52974 0
M  V30 1771 C 172.706 -0.206727 2.01744 0
M  V30 1772 C 173.039 -1.47314 1.26539 0
M  V30 1773 O 172.314 -1.91084 0.362903 0
M  V30 1774 C 172.597 -0.485066 3.56818 0
M  V30 1775 C 172.45 0.795919 4.42702 0
M  V30 1776 C 173.769 -1.28003 4.21074 0
M  V30 1777 H 170.888 -0.0736607 0.73331 0
M  V30 1778 H 173.53 0.506581 1.83122 0
M  V30 1779 H 171.68 -1.09272 3.72816 0
M  V30 1780 H 173.352 1.43307 4.38476 0
M  V30 1781 H 171.595 1.41344 4.10127 0
M  V30 1782 H 172.266 0.555947 5.49193 0
M  V30 1783 H 174.742 -0.765867 4.08991 0
M  V30 1784 H 173.618 -1.44352 5.29579 0
M  V30 1785 H 173.879 -2.29236 3.78026 0
M  V30 1786 N 172.938 -1.57226 0.108567 0
M  V30 1787 C 174.184 -1.95121 -0.552761 0
M  V30 1788 C 174.517 -0.991345 -1.66991 0
M  V30 1789 O 173.792 -0.0267211 -1.94482 0
M  V30 1790 C 174.075 -3.43039 -1.09528 0
M  V30 1791 C 173.928 -4.49797 0.0177332 0
M  V30 1792 C 175.247 -3.92567 -1.98945 0
M  V30 1793 H 172.366 -0.709496 -0.199461 0
M  V30 1794 H 175.008 -1.89126 0.182011 0
M  V30 1795 H 173.158 -3.48279 -1.72146 0
M  V30 1796 H 174.83 -4.56661 0.652584 0
M  V30 1797 H 173.073 -4.284 0.682309 0
M  V30 1798 H 173.744 -5.50528 -0.402919 0
M  V30 1799 H 176.22 -3.89565 -1.46214 0
M  V30 1800 H 175.096 -4.96605 -2.33827 0
M  V30 1801 H 175.357 -3.32648 -2.91201 0
M  V30 1802 N 174.416 0.165178 -1.56732 0
M  V30 1803 C 175.644 0.896218 -1.86482 0
M  V30 1804 C 176.059 1.75555 -0.694675 0
M  V30 1805 O 175.416 1.79379 0.33607 0
M  V30 1806 C 175.467 1.76792 -3.1532 0
M  V30 1807 O 175.188 0.943239 -4.27825 0
M  V30 1808 C 176.689 2.6081 -3.58459 0
M  V30 1809 H 173.909 0.260064 -0.618553 0
M  V30 1810 H 176.453 0.163428 -2.03846 0
M  V30 1811 H 174.608 2.45398 -2.99764 0
M  V30 1812 H 175.022 1.53998 -5.01383 0
M  V30 1813 H 176.496 3.17579 -4.51495 0
M  V30 1814 H 176.973 3.35977 -2.82872 0
M  V30 1815 H 177.579 1.97526 -3.76648 0
M  V30 1816 N 175.894 1.51508 0.433938 0
M  V30 1817 C 176.844 1.69451 1.52546 0
M  V30 1818 C 177.828 0.548474 1.51263 0
M  V30 1819 O 179.02 0.804529 1.57659 0
M  V30 1820 C 176.149 1.82604 2.90707 0
M  V30 1821 C 175.235 3.03002 2.96733 0
M  V30 1822 N 175.626 4.26121 2.72496 0
M  V30 1823 C 173.924 3.02327 3.27894 0
M  V30 1824 C 174.625 5.07407 2.84452 0
M  V30 1825 N 173.601 4.42126 3.16269 0
M  V30 1826 H 177.403 2.62305 1.32564 0
M  V30 1827 H 174.917 1.49202 0.641297 0
M  V30 1828 H 176.914 1.93569 3.69238 0
M  V30 1829 H 175.574 0.909339 3.11707 0
M  V30 1830 H 176.585 4.55009 2.4736 0
M  V30 1831 H 173.262 2.20301 3.54646 0
M  V30 1832 H 174.652 6.15422 2.69639 0
M  V30 1833 N 177.372 -0.689602 1.41712 0
M  V30 1834 C 178.335 -1.78521 1.43746 0
M  V30 1835 C 179.335 -1.57436 0.327191 0
M  V30 1836 O 180.525 -1.64 0.587348 0
M  V30 1837 C 177.657 -3.16971 1.25467 0
M  V30 1838 H 178.85 -1.78108 2.41283 0
M  V30 1839 H 176.403 -0.89781 1.27942 0
M  V30 1840 H 177.138 -3.23019 0.287948 0
M  V30 1841 H 176.923 -3.33678 2.05917 0
M  V30 1842 H 178.413 -3.96935 1.2974 0
M  V30 1843 N 178.85 -1.27639 -0.924453 0
M  V30 1844 C 179.8 -1.07295 -2.01176 0
M  V30 1845 C 180.784 5.77352e-05 -1.609 0
M  V30 1846 O 181.976 -0.218855 -1.75642 0
M  V30 1847 C 179.105 -0.725592 -3.35544 0
M  V30 1848 C 178.191 -1.83691 -3.82254 0
M  V30 1849 N 178.582 -3.07697 -4.01443 0
M  V30 1850 C 176.88 -1.72433 -4.11319 0
M  V30 1851 C 177.581 -3.80037 -4.40394 0
M  V30 1852 N 176.557 -3.0782 -4.48049 0
M  V30 1853 H 180.359 -2.01399 -2.14046 0
M  V30 1854 H 177.873 -1.18401 -1.11153 0
M  V30 1855 H 179.87 -0.560959 -4.13109 0
M  V30 1856 H 178.53 0.207782 -3.24034 0
M  V30 1857 H 179.541 -3.43424 -3.8766 0
M  V30 1858 H 176.218 -0.862005 -4.08504 0
M  V30 1859 H 177.608 -4.86632 -4.63291 0
M  V30 1860 N 180.328 1.1314 -1.09713 0
M  V30 1861 C 181.26 2.18343 -0.697056 0
M  V30 1862 C 182.273 1.60669 0.262551 0
M  V30 1863 O 183.462 1.78435 0.0481527 0
M  V30 1864 C 180.562 3.38899 -0.00684728 0
M  V30 1865 C 179.735 4.26078 -0.988741 0
M  V30 1866 C 178.794 5.25155 -0.331394 0
M  V30 1867 O 177.82 5.60701 -0.979926 0
M  V30 1868 N 179.022 5.73271 0.913261 0
M  V30 1869 H 181.787 2.5328 -1.60216 0
M  V30 1870 H 179.348 1.28491 -0.984971 0
M  V30 1871 H 181.34 4.02255 0.444191 0
M  V30 1872 H 179.91 3.02175 0.800551 0
M  V30 1873 H 179.13 3.59453 -1.61826 0
M  V30 1874 H 180.418 4.81178 -1.65364 0
M  V30 1875 H 179.816 5.46544 1.45966 0
M  V30 1876 H 178.373 6.3855 1.30757 0
M  V30 1877 N 181.806 0.884767 1.30421 0
M  V30 1878 C 183.083 0.423185 1.90967 0
M  V30 1879 C 183.463 -1.09605 1.80416 0
M  V30 1880 O 182.811 -1.93126 1.22125 0
M  V30 1881 C 183.021 0.921056 3.36627 0
M  V30 1882 C 184.369 0.955903 4.137 0
M  V30 1883 O 185.393 0.867706 3.4547 0
M  V30 1884 O 184.252 1.08614 5.35598 0
M  V30 1885 H 181.346 0.129369 0.816819 0
M  V30 1886 H 183.892 0.973653 1.3899 0
M  V30 1887 H 182.664 1.96489 3.3839 0
M  V30 1888 H 182.287 0.349741 3.96059 0
M  V30 1889 N 183.284 -1.43765 0.645699 0
M  V30 1890 C 184.231 -2.30745 -0.0504648 0
M  V30 1891 C 185.201 -1.4432 -0.822241 0
M  V30 1892 O 186.386 -1.73202 -0.800358 0
M  V30 1893 C 183.526 -3.29802 -1.0161 0
M  V30 1894 C 182.639 -4.31326 -0.241219 0
M  V30 1895 C 181.774 -5.17469 -1.19998 0
M  V30 1896 C 180.813 -6.10691 -0.415094 0
M  V30 1897 N 179.95 -6.89483 -1.32506 0
M  V30 1898 H 184.79 -2.8973 0.697155 0
M  V30 1899 H 182.327 -1.42738 0.355563 0
M  V30 1900 H 184.285 -3.85734 -1.58949 0
M  V30 1901 H 182.915 -2.72483 -1.73069 0
M  V30 1902 H 181.967 -3.77749 0.448334 0
M  V30 1903 H 183.279 -4.9743 0.369437 0
M  V30 1904 H 182.433 -5.7799 -1.84424 0
M  V30 1905 H 181.172 -4.51473 -1.84455 0
M  V30 1906 H 180.177 -5.49265 0.242565 0
M  V30 1907 H 181.402 -6.78727 0.224966 0
M  V30 1908 H 179.348 -6.26142 -1.95657 0
M  V30 1909 H 179.265 -7.52081 -0.768783 0
M  V30 1910 H 180.533 -7.54516 -1.9577 0
M  V30 1911 N 184.763 -0.387143 -1.52771 0
M  V30 1912 C 185.696 0.493123 -2.22808 0
M  V30 1913 C 186.674 1.0658 -1.22798 0
M  V30 1914 O 187.858 1.11785 -1.51777 0
M  V30 1915 C 184.985 1.68238 -2.93962 0
M  V30 1916 C 184.031 1.23515 -4.08223 0
M  V30 1917 S 184.864 0.21848 -5.35054 0
M  V30 1918 C 186.02 1.41357 -6.09729 0
M  V30 1919 H 186.253 -0.101625 -2.97126 0
M  V30 1920 H 183.786 -0.171323 -1.53447 0
M  V30 1921 H 185.744 2.36443 -3.35567 0
M  V30 1922 H 184.405 2.24842 -2.19328 0
M  V30 1923 H 183.598 2.12304 -4.57103 0
M  V30 1924 H 183.2 0.632044 -3.68621 0
M  V30 1925 H 185.492 2.34101 -6.3577 0
M  V30 1926 H 186.435 0.965736 -7.01484 0
M  V30 1927 H 186.843 1.6294 -5.40473 0
M  V30 1928 N 186.241 1.57166 -0.116904 0
M  V30 1929 C 187.489 1.94737 0.540533 0
M  V30 1930 C 187.81 1.00096 1.67349 0
M  V30 1931 O 187.08 0.0568854 1.95817 0
M  V30 1932 H 185.66 0.718981 0.202669 0
M  V30 1933 H 188.322 1.94017 -0.185353 0
M  V30 1934 H 187.418 2.97719 0.936483 0
M  V30 1935 N 187.719 -0.156864 1.56817 0
M  V30 1936 C 188.967 -0.869404 1.82444 0
M  V30 1937 C 189.288 -1.82147 0.69623 0
M  V30 1938 O 188.558 -1.93847 -0.28287 0
M  V30 1939 H 187.138 -0.324043 0.673056 0
M  V30 1940 H 189.8 -0.153224 1.94297 0
M  V30 1941 H 188.896 -1.43761 2.77019 0
M  V30 1942 N 189.197 -1.51736 -0.425897 0
M  V30 1943 C 190.13 -1.68574 -1.53812 0
M  V30 1944 C 191.108 -0.53328 -1.53606 0
M  V30 1945 O 192.292 -0.758555 -1.72564 0
M  V30 1946 C 189.419 -1.70977 -2.92377 0
M  V30 1947 C 188.465 -2.92324 -3.10563 0
M  V30 1948 S 189.298 -4.52952 -2.85648 0
M  V30 1949 C 190.454 -4.58117 -4.26474 0
M  V30 1950 H 190.687 -2.62647 -1.39298 0
M  V30 1951 H 188.22 -1.41564 -0.616361 0
M  V30 1952 H 190.178 -1.73047 -3.72243 0
M  V30 1953 H 188.839 -0.78061 -3.04245 0
M  V30 1954 H 188.032 -2.90439 -4.11899 0
M  V30 1955 H 187.634 -2.88055 -2.38538 0
M  V30 1956 H 189.926 -4.34462 -5.19855 0
M  V30 1957 H 190.869 -5.59983 -4.33388 0
M  V30 1958 H 191.277 -3.8732 -4.10662 0
M  V30 1959 N 190.675 0.682077 -1.42076 0
M  V30 1960 C 191.952 1.43755 -1.32642 0
M  V30 1961 C 192.332 2.11063 0.0396611 0
M  V30 1962 O 191.68 2.02701 1.05474 0
M  V30 1963 C 191.89 2.44596 -2.48946 0
M  V30 1964 C 193.238 3.09454 -2.9073 0
M  V30 1965 O 194.262 2.54922 -2.48783 0
M  V30 1966 O 193.121 4.08253 -3.63307 0
M  V30 1967 H 190.215 0.640857 -0.522715 0
M  V30 1968 H 192.761 0.711415 -1.54068 0
M  V30 1969 H 191.533 1.93609 -3.40046 0
M  V30 1970 H 191.156 3.24701 -2.29467 0
M  V30 1971 N 192.153 1.28127 0.917671 0
M  V30 1972 C 193.116 1.11744 2.00115 0
M  V30 1973 C 194.116 0.0583052 1.60694 0
M  V30 1974 O 195.306 0.303755 1.71531 0
M  V30 1975 C 192.438 0.704862 3.33533 0
M  V30 1976 H 193.631 2.07966 2.16079 0
M  V30 1977 H 191.184 1.11058 1.09981 0
M  V30 1978 H 191.919 -0.258299 3.2327 0
M  V30 1979 H 191.704 1.4699 3.63505 0
M  V30 1980 H 193.194 0.612768 4.1308 0
M  V30 1981 N 193.631 -1.12557 1.10312 0
M  V30 1982 C 194.561 -2.20341 0.772798 0
M  V30 1983 C 195.542 -1.68198 -0.25365 0
M  V30 1984 O 196.727 -1.93831 -0.119699 0
M  V30 1985 C 193.857 -3.46709 0.202443 0
M  V30 1986 C 192.811 -4.11996 1.15943 0
M  V30 1987 C 192.137 -5.328 0.450345 0
M  V30 1988 C 193.437 -4.5828 2.50552 0
M  V30 1989 H 195.131 -2.48229 1.674 0
M  V30 1990 H 192.677 -1.19308 0.806326 0
M  V30 1991 H 194.63 -4.2138 -0.0407752 0
M  V30 1992 H 193.354 -3.18245 -0.734001 0
M  V30 1993 H 192.013 -3.39305 1.38808 0
M  V30 1994 H 191.661 -5.00602 -0.490531 0
M  V30 1995 H 191.361 -5.7743 1.08851 0
M  V30 1996 H 192.885 -6.10219 0.215642 0
M  V30 1997 H 194.299 -5.2433 2.31843 0
M  V30 1998 H 192.696 -5.13683 3.10242 0
M  V30 1999 H 193.766 -3.72329 3.10643 0
M  V30 2000 N 195.109 -0.891671 -1.2995 0
M  V30 2001 C 196.059 -0.334811 -2.25528 0
M  V30 2002 C 197.043 0.540553 -1.51548 0
M  V30 2003 O 198.235 0.383882 -1.72787 0
M  V30 2004 C 195.364 0.44374 -3.4042 0
M  V30 2005 C 194.45 -0.44609 -4.21747 0
M  V30 2006 N 194.841 -1.54963 -4.81477 0
M  V30 2007 C 193.139 -0.242415 -4.45341 0
M  V30 2008 C 193.84 -2.10015 -5.42465 0
M  V30 2009 N 192.816 -1.39423 -5.25416 0
M  V30 2010 H 196.618 -1.17792 -2.69262 0
M  V30 2011 H 194.132 -0.741822 -1.44467 0
M  V30 2012 H 196.129 0.859362 -4.07947 0
M  V30 2013 H 194.789 1.28421 -2.98225 0
M  V30 2014 H 195.8 -1.93244 -4.80497 0
M  V30 2015 H 192.477 0.560342 -4.13723 0
M  V30 2016 H 193.867 -3.02724 -5.9984 0
M  V30 2017 N 196.587 1.43421 -0.653314 0
M  V30 2018 C 197.55 2.29182 0.0287951 0
M  V30 2019 C 198.55 1.42213 0.750465 0
M  V30 2020 O 199.74 1.63843 0.591701 0
M  V30 2021 C 196.872 3.24278 1.05151 0
M  V30 2022 H 198.065 2.90985 -0.725786 0
M  V30 2023 H 195.618 1.50702 -0.414545 0
M  V30 2024 H 196.353 2.6737 1.83532 0
M  V30 2025 H 196.138 3.88396 0.537687 0
M  V30 2026 H 197.628 3.88647 1.52786 0
M  V30 2027 N 198.065 0.39524 1.52563 0
M  V30 2028 C 199.028 -0.425001 2.25225 0
M  V30 2029 C 200.028 -0.985266 1.27079 0
M  V30 2030 O 201.218 -0.866332 1.5113 0
M  V30 2031 C 198.35 -1.59686 3.01186 0
M  V30 2032 H 199.543 0.211233 2.99155 0
M  V30 2033 H 197.096 0.147472 1.55603 0
M  V30 2034 H 197.831 -2.27035 2.31572 0
M  V30 2035 H 197.616 -1.20176 3.73229 0
M  V30 2036 H 199.106 -2.17743 3.5634 0
M  V30 2037 N 199.544 -1.57102 0.125237 0
M  V30 2038 C 200.792 -1.95021 -0.530198 0
M  V30 2039 C 201.113 -1.00982 -1.66816 0
M  V30 2040 O 200.383 -0.0672693 -1.95784 0
M  V30 2041 H 198.963 -0.720046 -0.198853 0
M  V30 2042 H 201.625 -1.93916 0.19564 0
M  V30 2043 H 200.721 -2.98211 -0.920681 0
M  V30 2044 N 201.022 0.148545 -1.56898 0
M  V30 2045 C 202.271 0.85984 -1.82454 0
M  V30 2046 C 202.584 1.82406 -0.706229 0
M  V30 2047 O 203.79 2.57938 -0.847349 0
M  V30 2048 C 202.246 1.57967 -3.2338 0
M  V30 2049 C 201.854 0.65794 -4.43142 0
M  V30 2050 C 203.598 2.27784 -3.58211 0
M  V30 2051 C 201.505 1.3793 -5.75091 0
M  V30 2052 H 200.435 0.324834 -0.68044 0
M  V30 2053 H 203.086 0.112588 -1.83154 0
M  V30 2054 H 201.468 2.37249 -3.17063 0
M  V30 2055 H 202.642 -0.0995497 -4.60692 0
M  V30 2056 H 200.957 0.0682643 -4.16344 0
M  V30 2057 H 203.554 2.8239 -4.54048 0
M  V30 2058 H 203.897 3.04204 -2.84193 0
M  V30 2059 H 204.43 1.55421 -3.66182 0
M  V30 2060 H 201.169 0.656982 -6.52199 0
M  V30 2061 H 200.689 2.10954 -5.61479 0
M  V30 2062 H 202.368 1.92063 -6.17835 0
M  V30 2063 N 202.5 1.5196 0.417844 0
M  V30 2064 C 203.463 1.74065 1.49111 0
M  V30 2065 C 204.463 0.610537 1.48758 0
M  V30 2066 O 205.653 0.87832 1.50437 0
M  V30 2067 C 202.785 1.81502 2.88565 0
M  V30 2068 H 203.978 2.69869 1.30807 0
M  V30 2069 H 201.531 1.42244 0.647785 0
M  V30 2070 H 202.266 0.875813 3.1225 0
M  V30 2071 H 202.051 2.63651 2.90225 0
M  V30 2072 H 203.541 2.00376 3.66387 0
M  V30 2073 N 203.978 -0.674533 1.42435 0
M  V30 2074 C 205.206 -1.46283 1.46317 0
M  V30 2075 C 205.621 -1.88653 0.0745836 0
M  V30 2076 O 204.978 -1.58151 -0.91074 0
M  V30 2077 C 205.029 -2.71178 2.3905 0
M  V30 2078 O 204.75 -2.30586 3.72507 0
M  V30 2079 C 206.251 -3.64738 2.51955 0
M  V30 2080 H 203.471 -0.450104 0.497642 0
M  V30 2081 H 206.015 -0.828792 1.86953 0
M  V30 2082 H 204.17 -3.3077 2.01667 0
M  V30 2083 H 204.584 -3.11241 4.22172 0
M  V30 2084 H 206.058 -4.49096 3.20962 0
M  V30 2085 H 206.535 -4.10656 1.55752 0
M  V30 2086 H 207.141 -3.11038 2.90061 0
M  V30 2087 N 205.456 -1.28612 -0.910864 0
M  V30 2088 C 206.686 -1.1862 -1.69153 0
M  V30 2089 C 207.094 0.257324 -1.87442 0
M  V30 2090 O 206.437 1.18543 -1.40332 0
M  V30 2091 C 206.499 -1.81606 -3.10257 0
M  V30 2092 C 206.163 -3.30864 -3.15243 0
M  V30 2093 C 207.16 -4.27256 -2.96223 0
M  V30 2094 C 204.845 -3.71871 -3.37664 0
M  V30 2095 C 206.839 -5.62631 -2.99541 0
M  V30 2096 C 204.526 -5.07371 -3.40614 0
M  V30 2097 C 205.524 -6.02561 -3.21573 0
M  V30 2098 O 205.212 -7.35589 -3.2429 0
M  V30 2099 H 204.944 -0.412633 -0.535453 0
M  V30 2100 H 207.498 -1.70306 -1.14827 0
M  V30 2101 H 205.728 -1.24418 -3.66138 0
M  V30 2102 H 207.417 -1.66092 -3.70362 0
M  V30 2103 H 208.183 -3.9691 -2.78725 0
M  V30 2104 H 204.062 -2.98241 -3.5153 0
M  V30 2105 H 207.606 -6.36907 -2.84597 0
M  V30 2106 H 203.503 -5.37366 -3.57642 0
M  V30 2107 H 204.271 -7.44252 -3.40633 0
M  V30 2108 N 206.934 1.1197 -1.10907 0
M  V30 2109 C 207.897 2.16031 -0.765707 0
M  V30 2110 C 208.897 1.59393 0.212235 0
M  V30 2111 O 210.087 1.74196 -0.0115441 0
M  V30 2112 C 207.219 3.40632 -0.135053 0
M  V30 2113 H 208.412 2.47919 -1.68748 0
M  V30 2114 H 205.965 1.27061 -0.910226 0
M  V30 2115 H 206.7 3.14348 0.797218 0
M  V30 2116 H 206.485 3.8302 -0.838937 0
M  V30 2117 H 207.975 4.17505 0.0892469 0
M  V30 2118 N 208.412 0.89855 1.29475 0
M  V30 2119 C 209.36 0.365253 2.29714 0
M  V30 2120 C 210.354 -0.534993 1.6073 0
M  V30 2121 O 211.56 -0.417921 1.75081 0
M  V30 2122 H 207.935 0.0994853 0.74539 0
M  V30 2123 H 209.906 1.22406 2.72138 0
M  V30 2124 C 208.655 -0.393159 3.4547 0
M  V30 2125 H 207.978 0.290332 3.98744 0
M  V30 2126 H 209.418 -0.731189 4.17648 0
M  V30 2127 C 207.877 -1.59539 2.9673 0
M  V30 2128 O 208.407 -2.69469 2.97908 0
M  V30 2129 N 206.613 -1.43716 2.52575 0
M  V30 2130 H 206.16 -0.542828 2.51816 0
M  V30 2131 H 206.118 -2.24288 2.20323 0
M  V30 2132 N 209.89 -1.43072 0.660911 0
M  V30 2133 C 210.853 -2.29194 -0.0166406 0
M  V30 2134 C 211.853 -1.42609 -0.742912 0
M  V30 2135 O 213.043 -1.64155 -0.583004 0
M  V30 2136 C 210.175 -3.24831 -1.0343 0
M  V30 2137 H 211.368 -2.90596 0.741208 0
M  V30 2138 H 208.921 -1.5048 0.422532 0
M  V30 2139 H 209.656 -2.68339 -1.82111 0
M  V30 2140 H 209.441 -3.88676 -0.517082 0
M  V30 2141 H 210.931 -3.89451 -1.50723 0
M  V30 2142 N 211.368 -0.403325 -1.52352 0
M  V30 2143 C 212.298 0.416205 -2.29761 0
M  V30 2144 C 213.279 1.05123 -1.33728 0
M  V30 2145 O 214.464 1.06134 -1.62632 0
M  V30 2146 C 211.594 1.53624 -3.11475 0
M  V30 2147 C 210.548 1.02653 -4.15507 0
M  V30 2148 C 209.874 2.23971 -4.85532 0
M  V30 2149 C 211.174 0.08463 -5.22231 0
M  V30 2150 H 212.868 -0.229701 -2.98518 0
M  V30 2151 H 210.414 -0.111913 -1.43564 0
M  V30 2152 H 212.367 2.1165 -3.64393 0
M  V30 2153 H 211.091 2.20994 -2.40477 0
M  V30 2154 H 209.75 0.46871 -3.63591 0
M  V30 2155 H 209.398 2.89883 -4.11068 0
M  V30 2156 H 209.098 1.90521 -5.55856 0
M  V30 2157 H 210.622 2.82614 -5.41259 0
M  V30 2158 H 212.036 0.573509 -5.70424 0
M  V30 2159 H 210.433 -0.160783 -5.99885 0
M  V30 2160 H 211.503 -0.86237 -4.7717 0
M  V30 2161 N 212.846 1.57033 -0.133567 0
M  V30 2162 C 214.071 2.00475 0.531477 0
M  V30 2163 C 214.496 1.01291 1.58499 0
M  V30 2164 O 213.854 -0.0133279 1.81295 0
M  V30 2165 C 213.902 3.42729 1.12113 0
M  V30 2166 O 213.006 3.46498 2.23636 0
M  V30 2167 H 212.347 0.650876 0.131362 0
M  V30 2168 H 214.877 2.03344 -0.22634 0
M  V30 2169 H 214.887 3.81246 1.4531 0
M  V30 2170 H 213.562 4.14428 0.349557 0
M  V30 2171 H 212.139 3.19811 1.91769 0
M  V30 2172 N 214.325 -0.140222 1.56975 0
M  V30 2173 C 215.273 -1.19207 1.99731 0
M  V30 2174 C 216.267 -1.44089 0.890777 0
M  V30 2175 O 217.473 -1.44301 1.07597 0
M  V30 2176 H 213.848 -0.40142 0.635898 0
M  V30 2177 H 215.819 -0.804813 2.87342 0
M  V30 2178 C 214.568 -2.51617 2.39967 0
M  V30 2179 H 213.891 -2.33303 3.24669 0
M  V30 2180 H 215.331 -3.23827 2.73701 0
M  V30 2181 C 213.79 -3.12654 1.25496 0
M  V30 2182 O 214.32 -3.97786 0.559371 0
M  V30 2183 N 212.526 -2.72206 1.01746 0
M  V30 2184 H 212.073 -2.03074 1.58489 0
M  V30 2185 H 212.031 -3.13377 0.253461 0
M  V30 2186 N 215.803 -1.52179 -0.40978 0
M  V30 2187 C 216.735 -1.71703 -1.51825 0
M  V30 2188 C 217.748 -0.597445 -1.51441 0
M  V30 2189 O 218.937 -0.872582 -1.55719 0
M  V30 2190 C 216.037 -1.74171 -2.90719 0
M  V30 2191 C 215.21 -3.03156 -3.15302 0
M  V30 2192 C 214.269 -2.97445 -4.34065 0
M  V30 2193 O 213.295 -3.71352 -4.31377 0
M  V30 2194 N 214.497 -2.15191 -5.39141 0
M  V30 2195 H 217.262 -2.67334 -1.35472 0
M  V30 2196 H 214.823 -1.50409 -0.599069 0
M  V30 2197 H 216.815 -1.67884 -3.68235 0
M  V30 2198 H 215.385 -0.860166 -3.00533 0
M  V30 2199 H 214.605 -3.23097 -2.25836 0
M  V30 2200 H 215.893 -3.88484 -3.28569 0
M  V30 2201 H 215.291 -1.54573 -5.44173 0
M  V30 2202 H 213.848 -2.1476 -6.15403 0
M  V30 2203 N 217.281 0.66697 -1.42791 0
M  V30 2204 C 218.211 1.79218 -1.49677 0
M  V30 2205 C 219.192 1.66405 -0.352623 0
M  V30 2206 O 220.377 1.85708 -0.567993 0
M  V30 2207 C 217.507 3.17565 -1.40605 0
M  V30 2208 C 216.461 3.45124 -2.53127 0
M  V30 2209 C 215.787 4.83127 -2.29112 0
M  V30 2210 C 217.087 3.41236 -3.95418 0
M  V30 2211 H 218.781 1.73713 -2.43853 0
M  V30 2212 H 216.327 0.83432 -1.17367 0
M  V30 2213 H 218.28 3.96022 -1.44029 0
M  V30 2214 H 217.004 3.23767 -0.429271 0
M  V30 2215 H 215.663 2.69031 -2.49034 0
M  V30 2216 H 215.311 4.85988 -1.29709 0
M  V30 2217 H 215.011 5.02528 -3.04531 0
M  V30 2218 H 216.535 5.63859 -2.34297 0
M  V30 2219 H 217.949 4.09651 -4.01073 0
M  V30 2220 H 216.346 3.72173 -4.70752 0
M  V30 2221 H 217.416 2.39665 -4.21532 0
M  V30 2222 N 218.759 1.29093 0.90403 0
M  V30 2223 C 219.722 1.1386 1.98919 0
M  V30 2224 C 220.722 0.0753457 1.60623 0
M  V30 2225 O 221.912 0.321931 1.71199 0
M  V30 2226 C 219.044 0.740198 3.32767 0
M  V30 2227 H 220.237 2.10246 2.13861 0
M  V30 2228 H 217.79 1.12218 1.08797 0
M  V30 2229 H 218.525 -0.223997 3.23525 0
M  V30 2230 H 218.31 1.50838 3.61926 0
M  V30 2231 H 219.8 0.656546 4.12407 0
M  V30 2232 N 220.237 -1.11381 1.11499 0
M  V30 2233 C 221.648 -1.6465 0.880191 0
M  V30 2234 C 221.999 -1.87199 -0.587434 0
M  V30 2235 O 221.124 -1.60667 -1.44966 0
M  V30 2236 C 221.719 -2.99105 1.59128 0
M  V30 2237 C 220.278 -3.49279 1.40289 0
M  V30 2238 C 219.425 -2.24077 1.63354 0
M  V30 2239 H 222.376 -0.950123 1.27116 0
M  V30 2240 H 222.397 -3.66107 1.03664 0
M  V30 2241 H 221.909 -2.82661 2.65941 0
M  V30 2242 H 220.01 -3.70887 0.356888 0
M  V30 2243 H 220.123 -4.2803 2.15238 0
M  V30 2244 H 218.487 -2.31733 1.05698 0
M  V30 2245 H 219.27 -2.10175 2.71443 0
M  V30 2246 N 221.715 -0.905404 -1.28997 0
M  V30 2247 C 222.647 -0.344748 -2.26592 0
M  V30 2248 C 223.66 0.512135 -1.54535 0
M  V30 2249 O 224.849 0.328368 -1.75454 0
M  V30 2250 C 221.949 0.526587 -3.34784 0
M  V30 2251 C 221.122 -0.305871 -4.36329 0
M  V30 2252 C 220.181 0.499209 -5.23827 0
M  V30 2253 O 219.207 -0.0853004 -5.69136 0
M  V30 2254 N 220.409 1.80408 -5.51755 0
M  V30 2255 H 223.174 -1.18359 -2.75338 0
M  V30 2256 H 220.735 -0.770481 -1.42391 0
M  V30 2257 H 222.727 1.07171 -3.90252 0
M  V30 2258 H 221.297 1.26613 -2.85811 0
M  V30 2259 H 220.517 -1.0324 -3.80441 0
M  V30 2260 H 221.805 -0.875773 -5.01206 0
M  V30 2261 H 221.203 2.3016 -5.16762 0
M  V30 2262 H 219.76 2.29621 -6.10014 0
M  V30 2263 N 223.193 1.4272 -0.668489 0
M  V30 2264 C 224.103 2.34596 0.0139753 0
M  V30 2265 C 225.119 1.5474 0.795703 0
M  V30 2266 O 226.295 1.87334 0.739466 0
M  V30 2267 C 223.36 3.33202 0.957982 0
M  V30 2268 C 222.421 4.28957 0.17149 0
M  V30 2269 C 221.654 5.22853 1.07053 0
M  V30 2270 O 221.877 5.21531 2.31001 0
M  V30 2271 O 220.811 5.9952 0.534727 0
M  V30 2272 H 224.637 2.9448 -0.742661 0
M  V30 2273 H 222.222 1.43117 -0.428705 0
M  V30 2274 H 224.104 3.93796 1.50008 0
M  V30 2275 H 222.779 2.758 1.69458 0
M  V30 2276 H 221.686 3.71796 -0.414558 0
M  V30 2277 H 223.019 4.89383 -0.52586 0
M  V30 2278 N 224.671 0.411399 1.52136 0
M  V30 2279 C 225.919 -0.163322 2.01439 0
M  V30 2280 C 226.24 -1.45453 1.29879 0
M  V30 2281 O 225.51 -1.91225 0.4254 0
M  V30 2282 H 224.09 -0.0633447 0.744309 0
M  V30 2283 H 226.752 0.548161 1.87033 0
M  V30 2284 H 225.848 -0.357817 3.10042 0
M  V30 2285 N 226.149 -1.5696 0.141893 0
M  V30 2286 C 227.082 -2.12271 -0.837627 0
M  V30 2287 C 228.06 -1.04495 -1.24578 0
M  V30 2288 O 229.244 -1.32293 -1.34278 0
M  V30 2289 C 226.371 -2.63822 -2.12404 0
M  V30 2290 C 225.417 -3.83698 -1.86221 0
M  V30 2291 S 226.25 -5.24948 -1.05781 0
M  V30 2292 C 227.406 -5.79884 -2.35552 0
M  V30 2293 H 227.639 -2.95023 -0.367249 0
M  V30 2294 H 225.172 -1.54231 -0.0723014 0
M  V30 2295 H 227.13 -2.94175 -2.86307 0
M  V30 2296 H 225.791 -1.8121 -2.56557 0
M  V30 2297 H 224.984 -4.17995 -2.81596 0
M  V30 2298 H 224.586 -3.5408 -1.20429 0
M  V30 2299 H 226.878 -5.91005 -3.31239 0
M  V30 2300 H 227.821 -6.77544 -2.05767 0
M  V30 2301 H 228.229 -5.08095 -2.45967 0
M  V30 2302 N 227.627 0.131896 -1.57047 0
M  V30 2303 C 228.873 0.843179 -1.84441 0
M  V30 2304 C 229.206 1.80129 -0.725749 0
M  V30 2305 O 228.481 1.92624 0.269469 0
M  V30 2306 C 228.764 1.60442 -3.22382 0
M  V30 2307 C 228.617 0.666782 -4.4483 0
M  V30 2308 C 229.936 2.56354 -3.5773 0
M  V30 2309 H 227.055 0.305081 -0.670891 0
M  V30 2310 H 229.697 0.107839 -1.89694 0
M  V30 2311 H 227.847 2.23128 -3.18035 0
M  V30 2312 H 229.519 0.0497646 -4.61273 0
M  V30 2313 H 227.762 -0.022609 -4.33794 0
M  V30 2314 H 228.433 1.23579 -5.37989 0
M  V30 2315 H 230.909 2.0378 -3.62785 0
M  V30 2316 H 229.785 3.06657 -4.5525 0
M  V30 2317 H 230.046 3.38419 -2.84473 0
M  V30 2318 N 229.106 1.52395 0.401703 0
M  V30 2319 C 230.069 1.75636 1.47257 0
M  V30 2320 C 231.069 0.62628 1.48103 0
M  V30 2321 O 232.259 0.894227 1.49497 0
M  V30 2322 C 229.391 1.84553 2.86624 0
M  V30 2323 H 230.584 2.71241 1.27938 0
M  V30 2324 H 228.137 1.42923 0.632662 0
M  V30 2325 H 228.872 0.908882 3.11303 0
M  V30 2326 H 228.657 2.66715 2.87412 0
M  V30 2327 H 230.147 2.04251 3.64241 0
M  V30 2328 N 230.584 -0.659388 1.43143 0
M  V30 2329 C 231.547 -1.75432 1.47501 0
M  V30 2330 C 232.547 -1.56707 0.360512 0
M  V30 2331 O 233.737 -1.62717 0.622002 0
M  V30 2332 C 230.869 -3.14239 1.32162 0
M  V30 2333 H 232.062 -1.7295 2.45006 0
M  V30 2334 H 229.615 -0.870469 1.29817 0
M  V30 2335 H 230.35 -3.22336 0.356401 0
M  V30 2336 H 230.135 -3.29235 2.12948 0
M  V30 2337 H 231.625 -3.94094 1.3813 0
M  V30 2338 N 232.062 -1.29571 -0.897171 0
M  V30 2339 C 232.994 -1.10724 -2.00681 0
M  V30 2340 C 234.007 -0.0540026 -1.6271 0
M  V30 2341 O 235.196 -0.298783 -1.75982 0
M  V30 2342 C 232.296 -0.663912 -3.32333 0
M  V30 2343 C 231.469 -1.79622 -3.98816 0
M  V30 2344 C 230.528 -1.34349 -5.0876 0
M  V30 2345 O 229.554 -2.04864 -5.31055 0
M  V30 2346 N 230.756 -0.215764 -5.80099 0
M  V30 2347 H 233.521 -2.06291 -2.17403 0
M  V30 2348 H 231.082 -1.21544 -1.06951 0
M  V30 2349 H 233.074 -0.344295 -4.03233 0
M  V30 2350 H 231.644 0.199375 -3.11964 0
M  V30 2351 H 230.864 -2.28459 -3.21248 0
M  V30 2352 H 232.152 -2.55535 -4.39976 0
M  V30 2353 H 231.55 0.372091 -5.64475 0
M  V30 2354 H 230.107 0.0444707 -6.51785 0
M  V30 2355 N 233.54 1.10788 -1.12088 0
M  V30 2356 C 234.49 2.15158 -0.754401 0
M  V30 2357 C 235.474 1.59026 0.244846 0
M  V30 2358 O 236.666 1.76927 0.0509097 0
M  V30 2359 C 233.795 3.42677 -0.206657 0
M  V30 2360 C 232.881 4.05751 -1.23398 0
M  V30 2361 N 233.272 4.43582 -2.43041 0
M  V30 2362 C 231.57 4.32764 -1.07848 0
M  V30 2363 C 232.271 4.93085 -3.08613 0
M  V30 2364 N 231.247 4.89664 -2.36072 0
M  V30 2365 H 235.049 2.42195 -1.6649 0
M  V30 2366 H 232.563 1.27872 -1.00112 0
M  V30 2367 H 234.56 4.16834 0.0740646 0
M  V30 2368 H 233.22 3.17101 0.698342 0
M  V30 2369 H 234.231 4.35395 -2.80449 0
M  V30 2370 H 230.908 4.16863 -0.230483 0
M  V30 2371 H 232.298 5.31933 -4.10483 0
M  V30 2372 N 235.018 0.912232 1.28515 0
M  V30 2373 C 236.243 0.559774 1.99703 0
M  V30 2374 C 236.668 -0.851393 1.67729 0
M  V30 2375 O 236.026 -1.56875 0.908834 0
M  V30 2376 C 236.074 0.773874 3.52198 0
M  V30 2377 O 235.178 -0.167842 4.12058 0
M  V30 2378 H 234.519 0.21723 0.627461 0
M  V30 2379 H 237.049 1.22725 1.63706 0
M  V30 2380 H 237.059 0.683386 4.02236 0
M  V30 2381 H 235.734 1.80261 3.74805 0
M  V30 2382 H 234.311 -0.0287509 3.72889 0
M  V30 2383 N 236.496 -1.42363 0.676048 0
M  V30 2384 C 237.426 -2.33497 0.0124832 0
M  V30 2385 C 238.407 -1.50748 -0.787981 0
M  V30 2386 O 239.592 -1.79346 -0.744884 0
M  V30 2387 C 236.722 -3.34377 -0.938582 0
M  V30 2388 C 235.676 -4.27289 -0.246622 0
M  V30 2389 C 235.002 -5.18386 -1.31071 0
M  V30 2390 C 236.302 -5.14916 0.875125 0
M  V30 2391 H 237.996 -2.89233 0.773593 0
M  V30 2392 H 235.542 -1.39073 0.37346 0
M  V30 2393 H 237.495 -3.97044 -1.41188 0
M  V30 2394 H 236.219 -2.76947 -1.73113 0
M  V30 2395 H 234.878 -3.66018 0.206456 0
M  V30 2396 H 234.526 -4.57282 -2.09528 0
M  V30 2397 H 234.226 -5.81378 -0.852839 0
M  V30 2398 H 235.75 -5.83929 -1.78492 0
M  V30 2399 H 237.164 -5.71262 0.482983 0
M  V30 2400 H 235.561 -5.86747 1.25887 0
M  V30 2401 H 236.631 -4.53242 1.72335 0
M  V30 2402 N 237.974 -0.419461 -1.51915 0
M  V30 2403 C 239.202 0.152136 -2.0634 0
M  V30 2404 C 239.617 1.37988 -1.28859 0
M  V30 2405 O 238.974 1.79243 -0.343232 0
M  V30 2406 C 239.025 0.492266 -3.58133 0
M  V30 2407 O 238.746 -0.686736 -4.32684 0
M  V30 2408 C 240.247 1.11648 -4.2901 0
M  V30 2409 H 237.467 0.0158325 -0.670813 0
M  V30 2410 H 240.011 -0.593394 -1.95702 0
M  V30 2411 H 238.166 1.18769 -3.68745 0
M  V30 2412 H 238.58 -0.400341 -5.2297 0
M  V30 2413 H 240.054 1.3046 -5.36362 0
M  V30 2414 H 240.531 2.09251 -3.86148 0
M  V30 2415 H 241.137 0.460958 -4.22795 0
M  V30 2416 N 239.452 1.56882 -0.150215 0
M  V30 2417 C 240.699 1.96228 0.500093 0
M  V30 2418 C 241.027 1.03522 1.64661 0
M  V30 2419 O 240.282 0.0650683 1.95592 0
M  V30 2420 C 240.581 3.41801 1.04437 0
M  V30 2421 C 240.247 4.50897 0.0159671 0
M  V30 2422 C 238.909 4.8046 -0.266731 0
M  V30 2423 C 241.261 5.16703 -0.683192 0
M  V30 2424 C 238.589 5.73135 -1.25434 0
M  V30 2425 C 240.941 6.10441 -1.65964 0
M  V30 2426 C 239.605 6.38382 -1.95 0
M  V30 2427 H 238.875 0.718048 0.182997 0
M  V30 2428 H 241.522 1.90019 -0.237724 0
M  V30 2429 H 239.827 3.44857 1.85959 0
M  V30 2430 H 241.524 3.69573 1.55618 0
M  V30 2431 H 238.114 4.27891 0.246485 0
M  V30 2432 H 242.298 4.93993 -0.477983 0
M  V30 2433 H 237.554 5.93074 -1.48571 0
M  V30 2434 H 241.728 6.60507 -2.20689 0
M  V30 2435 H 239.355 7.09996 -2.71679 0
M  V30 2436 N 240.93 -0.123565 1.57115 0
M  V30 2437 C 241.893 -1.13583 1.99076 0
M  V30 2438 C 242.893 -1.34564 0.880296 0
M  V30 2439 O 244.083 -1.31158 1.14644 0
M  V30 2440 C 241.215 -2.49128 2.32698 0
M  V30 2441 H 242.408 -0.775287 2.89706 0
M  V30 2442 H 239.961 -0.36771 1.51913 0
M  V30 2443 H 240.696 -2.90111 1.44934 0
M  V30 2444 H 240.481 -2.35255 3.13684 0
M  V30 2445 H 241.971 -3.2199 2.65918 0
M  V30 2446 N 242.408 -1.52605 -0.393616 0
M  V30 2447 C 243.371 -1.76415 -1.46323 0
M  V30 2448 C 244.371 -0.634126 -1.47768 0
M  V30 2449 O 245.561 -0.902142 -1.4902 0
M  V30 2450 C 242.693 -1.8607 -2.85641 0
M  V30 2451 H 243.886 -2.71916 -1.26498 0
M  V30 2452 H 241.439 -1.43257 -0.625073 0
M  V30 2453 H 242.174 -0.925378 -3.10817 0
M  V30 2454 H 241.959 -2.68235 -2.85993 0
M  V30 2455 H 243.449 -2.06179 -3.63153 0
M  V30 2456 N 243.887 0.651787 -1.4349 0
M  V30 2457 C 244.835 1.78586 -1.49029 0
M  V30 2458 C 245.829 1.65448 -0.363767 0
M  V30 2459 O 247.035 1.71777 -0.537821 0
M  V30 2460 H 243.41 0.589236 -0.467231 0
M  V30 2461 H 245.381 1.71035 -2.44519 0
M  V30 2462 C 244.13 3.16851 -1.43181 0
M  V30 2463 H 243.453 3.27598 -2.29171 0
M  V30 2464 H 244.893 3.96156 -1.51118 0
M  V30 2465 C 243.352 3.36568 -0.149616 0
M  V30 2466 O 243.882 3.93885 0.788509 0
M  V30 2467 N 242.088 2.90539 -0.0593484 0
M  V30 2468 H 241.635 2.4408 -0.823575 0
M  V30 2469 H 241.593 3.04108 0.797853 0
M  V30 2470 N 245.365 1.30045 0.890287 0
M  V30 2471 C 246.613 1.18327 1.63839 0
M  V30 2472 C 246.934 -0.263455 1.93212 0
M  V30 2473 O 246.204 -1.17856 1.56482 0
M  V30 2474 H 244.784 0.434933 0.607324 0
M  V30 2475 H 247.446 1.631 1.06698 0
M  V30 2476 H 246.542 1.74024 2.59079 0
M  V30 2477 N 246.843 -1.10192 1.12674 0
M  V30 2478 C 248.089 -1.82658 0.894847 0
M  V30 2479 C 248.444 -1.83666 -0.573107 0
M  V30 2480 O 247.737 -1.28816 -1.41835 0
M  V30 2481 C 247.931 -3.28552 1.4067 0
M  V30 2482 C 247.76 -3.41756 2.92289 0
M  V30 2483 C 246.53 -3.54021 3.60551 0
M  V30 2484 C 248.728 -3.34949 3.90274 0
M  V30 2485 N 246.71 -3.55827 5.0026 0
M  V30 2486 C 248.081 -3.43531 5.16127 0
M  V30 2487 C 250.136 -3.18565 3.8265 0
M  V30 2488 C 248.839 -3.37416 6.3525 0
M  V30 2489 C 250.865 -3.13772 5.01299 0
M  V30 2490 C 250.227 -3.22938 6.26012 0
M  V30 2491 H 246.326 -0.683044 0.380756 0
M  V30 2492 H 248.91 -1.31752 1.43351 0
M  V30 2493 H 247.081 -3.77946 0.895055 0
M  V30 2494 H 248.813 -3.88991 1.11661 0
M  V30 2495 H 245.568 -3.57135 3.1105 0
M  V30 2496 H 245.992 -3.60335 5.73138 0
M  V30 2497 H 250.634 -3.10354 2.87124 0
M  V30 2498 H 248.352 -3.44391 7.3104 0
M  V30 2499 H 251.938 -3.02242 4.97133 0
M  V30 2500 H 250.818 -3.19235 7.16281 0
M  V30 2501 N 248.321 -0.919034 -1.28029 0
M  V30 2502 C 249.567 -0.555757 -1.95036 0
M  V30 2503 C 249.9 0.899198 -1.72128 0
M  V30 2504 O 249.175 1.64023 -1.04531 0
M  V30 2505 C 249.458 -0.872024 -3.49382 0
M  V30 2506 C 249.311 -2.3801 -3.81669 0
M  V30 2507 C 250.63 -0.37185 -4.38526 0
M  V30 2508 H 247.749 -0.203386 -0.708381 0
M  V30 2509 H 250.391 -1.14924 -1.51303 0
M  V30 2510 H 248.541 -0.366946 -3.86763 0
M  V30 2511 H 250.213 -2.9562 -3.54128 0
M  V30 2512 H 248.456 -2.83289 -3.28526 0
M  V30 2513 H 249.127 -2.55192 -4.8947 0
M  V30 2514 H 251.603 -0.804602 -4.08247 0
M  V30 2515 H 250.479 -0.622173 -5.45362 0
M  V30 2516 H 250.74 0.727934 -4.36066 0
M  V30 2517 N 249.799 1.42003 -0.683588 0
M  V30 2518 C 250.709 2.34597 -0.0109075 0
M  V30 2519 C 251.725 1.55576 0.779245 0
M  V30 2520 O 252.901 1.88107 0.719555 0
M  V30 2521 C 249.966 3.34199 0.922588 0
M  V30 2522 C 249.027 4.29115 0.125984 0
M  V30 2523 C 248.26 5.23959 1.01502 0
M  V30 2524 O 248.483 5.23952 2.25456 0
M  V30 2525 O 247.417 6.00053 0.47111 0
M  V30 2526 H 251.243 2.93675 -0.773853 0
M  V30 2527 H 248.828 1.42654 -0.443861 0
M  V30 2528 H 250.71 3.95365 1.45823 0
M  V30 2529 H 249.385 2.77582 1.66523 0
M  V30 2530 H 248.292 3.71335 -0.453969 0
M  V30 2531 H 249.625 4.88798 -0.577736 0
M  V30 2532 N 251.277 0.427512 1.51691 0
M  V30 2533 C 252.688 -0.0378867 1.86662 0
M  V30 2534 C 253.039 -1.42819 1.34525 0
M  V30 2535 O 252.164 -2.05037 0.692014 0
M  V30 2536 C 252.759 -0.0755266 3.38716 0
M  V30 2537 C 251.318 -0.485309 3.73258 0
M  V30 2538 C 250.465 0.328399 2.75349 0
M  V30 2539 H 253.416 0.64379 1.45055 0
M  V30 2540 H 253.437 -0.887056 3.70016 0
M  V30 2541 H 252.949 0.936487 3.76632 0
M  V30 2542 H 251.05 -1.50329 3.40928 0
M  V30 2543 H 251.163 -0.21693 4.78609 0
M  V30 2544 H 249.527 -0.211905 2.53817 0
M  V30 2545 H 250.31 1.3391 3.16106 0
M  V30 2546 N 252.755 -1.56801 0.158532 0
M  V30 2547 C 253.718 -2.16138 -0.762705 0
M  V30 2548 C 254.718 -1.1061 -1.16713 0
M  V30 2549 O 255.908 -1.36191 -1.08617 0
M  V30 2550 C 253.04 -2.73386 -2.03649 0
M  V30 2551 H 254.233 -2.98886 -0.246354 0
M  V30 2552 H 251.786 -1.56035 -0.0909744 0
M  V30 2553 H 252.521 -1.94335 -2.59623 0
M  V30 2554 H 252.306 -3.50601 -1.75559 0
M  V30 2555 H 253.796 -3.19065 -2.6942 0
M  V30 2556 N 254.233 0.115231 -1.57178 0
M  V30 2557 C 255.461 0.836437 -1.89239 0
M  V30 2558 C 255.876 1.73256 -0.750175 0
M  V30 2559 O 255.233 1.80357 0.278832 0
M  V30 2560 C 255.284 1.66671 -3.20785 0
M  V30 2561 O 255.005 0.806652 -4.3061 0
M  V30 2562 C 256.506 2.49274 -3.66575 0
M  V30 2563 H 253.726 0.240253 -0.626514 0
M  V30 2564 H 256.27 0.0984932 -2.04263 0
M  V30 2565 H 254.425 2.35737 -3.0742 0
M  V30 2566 H 254.839 1.37969 -5.06028 0
M  V30 2567 H 256.313 3.03055 -4.6137 0
M  V30 2568 H 256.79 3.26807 -2.93417 0
M  V30 2569 H 257.396 1.85443 -3.82741 0
M  V30 2570 N 255.711 1.52812 0.385517 0
M  V30 2571 C 256.674 1.77188 1.45386 0
M  V30 2572 C 257.674 0.641953 1.4743 0
M  V30 2573 O 258.864 0.910033 1.4854 0
M  V30 2574 C 255.996 1.87582 2.8465 0
M  V30 2575 H 257.189 2.72583 1.25054 0
M  V30 2576 H 254.742 1.43586 0.617467 0
M  V30 2577 H 255.477 0.941849 3.10322 0
M  V30 2578 H 255.262 2.69748 2.84567 0
M  V30 2579 H 256.752 2.08102 3.62054 0
M  V30 2580 N 257.189 -0.644168 1.43834 0
M  V30 2581 C 258.6 -1.22554 1.40845 0
M  V30 2582 C 258.951 -1.9585 0.117115 0
M  V30 2583 O 258.076 -2.01734 -0.783086 0
M  V30 2584 C 258.671 -2.22907 2.55143 0
M  V30 2585 C 257.23 -2.76501 2.5539 0
M  V30 2586 C 256.377 -1.51287 2.32396 0
M  V30 2587 H 259.328 -0.43563 1.52604 0
M  V30 2588 H 259.349 -3.05259 2.2715 0
M  V30 2589 H 258.861 -1.69533 3.49114 0
M  V30 2590 H 256.962 -3.33914 1.65324 0
M  V30 2591 H 257.075 -3.23429 3.53455 0
M  V30 2592 H 255.439 -1.78957 1.81236 0
M  V30 2593 H 256.222 -0.998336 3.28463 0
M  V30 2594 N 258.668 -1.30515 -0.883378 0
M  V30 2595 C 259.616 -1.16941 -2.01066 0
M  V30 2596 C 260.61 -0.0809148 -1.69207 0
M  V30 2597 O 261.816 -0.241877 -1.78367 0
M  V30 2598 H 258.191 -0.361705 -0.659298 0
M  V30 2599 H 260.162 -2.12344 -2.09649 0
M  V30 2600 C 258.911 -0.879694 -3.36388 0
M  V30 2601 H 258.234 -1.70936 -3.61415 0
M  V30 2602 H 259.674 -0.82483 -4.159 0
M  V30 2603 C 258.133 0.417409 -3.34304 0
M  V30 2604 O 258.663 1.43843 -3.75063 0
M  V30 2605 N 256.869 0.429141 -2.87414 0
M  V30 2606 H 256.416 -0.402222 -2.5444 0
M  V30 2607 H 256.374 1.29696 -2.86403 0
M  V30 2608 N 260.146 1.09593 -1.13257 0
M  V30 2609 C 261.393 1.81734 -0.893257 0
M  V30 2610 C 261.721 1.8563 0.580656 0
M  V30 2611 O 260.976 1.31906 1.44566 0
M  V30 2612 C 261.275 3.27802 -1.42411 0
M  V30 2613 C 260.941 3.44041 -2.91456 0
M  V30 2614 C 259.603 3.48181 -3.3215 0
M  V30 2615 C 261.955 3.48719 -3.87356 0
M  V30 2616 C 259.283 3.54575 -4.67433 0
M  V30 2617 C 261.635 3.56648 -5.2248 0
M  V30 2618 C 260.299 3.59055 -5.62704 0
M  V30 2619 H 259.569 0.665011 -0.326866 0
M  V30 2620 H 262.216 1.2912 -1.41422 0
M  V30 2621 H 260.521 3.83042 -0.823795 0
M  V30 2622 H 262.218 3.82149 -1.21503 0
M  V30 2623 H 258.808 3.41502 -2.58987 0
M  V30 2624 H 262.992 3.44763 -3.57004 0
M  V30 2625 H 258.248 3.54725 -4.97976 0
M  V30 2626 H 262.422 3.59212 -5.96607 0
M  V30 2627 H 260.049 3.63763 -6.67518 0
M  V30 2628 N 261.624 0.925811 1.2754 0
M  V30 2629 C 262.872 0.564138 1.94067 0
M  V30 2630 C 263.193 -0.897188 1.73134 0
M  V30 2631 O 262.463 -1.63573 1.07799 0
M  V30 2632 H 261.043 0.205645 0.718136 0
M  V30 2633 H 263.705 1.1778 1.55287 0
M  V30 2634 H 262.801 0.76881 3.02483 0
M  V30 2635 N 263.102 -1.41638 0.69111 0
M  V30 2636 C 264.513 -1.84346 0.295517 0
M  V30 2637 C 264.864 -1.57833 -1.16547 0
M  V30 2638 O 263.989 -1.04648 -1.89414 0
M  V30 2639 C 264.584 -3.34636 0.529575 0
M  V30 2640 C 263.143 -3.7593 0.187944 0
M  V30 2641 C 262.29 -2.65082 0.814052 0
M  V30 2642 H 265.241 -1.31253 0.892092 0
M  V30 2643 H 265.262 -3.79903 -0.213148 0
M  V30 2644 H 264.774 -3.53901 1.59297 0
M  V30 2645 H 262.875 -3.62268 -0.871367 0
M  V30 2646 H 262.988 -4.74808 0.63985 0
M  V30 2647 H 261.352 -2.53528 0.244017 0
M  V30 2648 H 262.135 -2.87167 1.88123 0
M  V30 2649 N 264.58 -0.43555 -1.51462 0
M  V30 2650 C 265.51 0.367376 -2.30592 0
M  V30 2651 C 266.491 1.02263 -1.35928 0
M  V30 2652 O 267.676 1.02661 -1.64847 0
M  V30 2653 C 264.806 1.46983 -3.14664 0
M  V30 2654 C 263.76 0.938161 -4.17591 0
M  V30 2655 C 263.086 2.13622 -4.90173 0
M  V30 2656 C 264.386 -0.0261621 -5.22293 0
M  V30 2657 H 266.08 -0.292969 -2.97963 0
M  V30 2658 H 263.626 -0.14234 -1.43295 0
M  V30 2659 H 265.579 2.03873 -3.688 0
M  V30 2660 H 264.303 2.15843 -2.4511 0
M  V30 2661 H 262.962 0.391481 -3.64504 0
M  V30 2662 H 262.61 2.81098 -4.17124 0
M  V30 2663 H 262.31 1.78688 -5.59772 0
M  V30 2664 H 263.834 2.7107 -5.47132 0
M  V30 2665 H 265.248 0.452384 -5.71512 0
M  V30 2666 H 263.645 -0.287992 -5.99409 0
M  V30 2667 H 264.715 -0.963391 -4.75233 0
M  V30 2668 N 266.058 1.56714 -0.166846 0
M  V30 2669 C 267.005 2.17746 0.765193 0
M  V30 2670 C 267.975 1.11614 1.23011 0
M  V30 2671 O 269.16 1.39745 1.29908 0
M  V30 2672 C 266.3 2.81882 1.9909 0
M  V30 2673 C 265.413 4.02462 1.56997 0
M  V30 2674 C 264.548 4.54537 2.749 0
M  V30 2675 C 263.587 5.67538 2.29275 0
M  V30 2676 N 262.724 6.14142 3.40255 0
M  V30 2677 H 267.564 2.97048 0.237952 0
M  V30 2678 H 265.101 1.4672 0.105725 0
M  V30 2679 H 267.059 3.17221 2.70974 0
M  V30 2680 H 265.689 2.05191 2.49192 0
M  V30 2681 H 264.741 3.72973 0.748037 0
M  V30 2682 H 266.053 4.84273 1.19503 0
M  V30 2683 H 265.207 4.92035 3.54946 0
M  V30 2684 H 263.946 3.71774 3.1565 0
M  V30 2685 H 262.951 5.29597 1.47674 0
M  V30 2686 H 264.176 6.52099 1.89588 0
M  V30 2687 H 262.122 5.3431 3.8059 0
M  V30 2688 H 262.039 6.9093 3.06841 0
M  V30 2689 H 263.307 6.56289 4.206 0
M  V30 2690 N 267.536 -0.106894 1.57237 0
M  V30 2691 C 268.782 -0.81373 1.85759 0
M  V30 2692 C 269.115 -1.78952 0.754315 0
M  V30 2693 O 268.39 -1.93029 -0.23879 0
M  V30 2694 C 268.673 -1.55293 3.24894 0
M  V30 2695 C 268.526 -0.595929 4.45835 0
M  V30 2696 C 269.845 -2.5063 3.61763 0
M  V30 2697 H 266.964 -0.294369 0.67566 0
M  V30 2698 H 269.606 -0.0776472 1.89841 0
M  V30 2699 H 267.756 -2.1804 3.21544 0
M  V30 2700 H 269.428 0.0236262 4.61294 0
M  V30 2701 H 267.671 0.0916191 4.33703 0
M  V30 2702 H 268.342 -1.15004 5.39887 0
M  V30 2703 H 270.818 -1.97982 3.65981 0
M  V30 2704 H 269.694 -2.99376 4.60071 0
M  V30 2705 H 269.955 -3.3385 2.89821 0
M  V30 2706 N 269.014 -1.53014 -0.377408 0
M  V30 2707 C 270.261 -1.68623 -1.12128 0
M  V30 2708 C 270.589 -0.431997 -1.89642 0
M  V30 2709 O 269.844 0.585855 -1.86725 0
M  V30 2710 C 270.143 -2.87982 -2.11663 0
M  V30 2711 C 269.809 -4.24964 -1.50719 0
M  V30 2712 C 268.471 -4.62217 -1.33825 0
M  V30 2713 C 270.823 -5.10199 -1.06519 0
M  V30 2714 C 268.151 -5.82352 -0.712963 0
M  V30 2715 C 270.503 -6.30969 -0.453955 0
M  V30 2716 C 269.167 -6.66944 -0.272411 0
M  V30 2717 H 268.437 -0.617034 -0.410305 0
M  V30 2718 H 271.084 -1.8718 -0.404484 0
M  V30 2719 H 269.389 -2.63889 -2.89603 0
M  V30 2720 H 271.086 -2.97253 -2.6915 0
M  V30 2721 H 267.676 -3.95626 -1.64858 0
M  V30 2722 H 271.86 -4.81978 -1.18368 0
M  V30 2723 H 267.116 -6.08824 -0.560611 0
M  V30 2724 H 271.29 -6.96324 -0.103217 0
M  V30 2725 H 268.917 -7.59898 0.214181 0
M  V30 2726 N 270.492 0.636531 -1.44174 0
M  V30 2727 C 271.722 1.42146 -1.49927 0
M  V30 2728 C 272.13 1.88812 -0.121063 0
M  V30 2729 O 271.473 1.61126 0.882267 0
M  V30 2730 C 271.535 2.67883 -2.39748 0
M  V30 2731 C 271.199 2.43048 -3.8701 0
M  V30 2732 C 272.196 2.05216 -4.77684 0
M  V30 2733 C 269.881 2.56856 -4.3166 0
M  V30 2734 C 271.875 1.81512 -6.11009 0
M  V30 2735 C 269.562 2.32766 -5.65034 0
M  V30 2736 C 270.56 1.95152 -6.54526 0
M  V30 2737 O 270.248 1.71326 -7.85431 0
M  V30 2738 H 269.98 0.442567 -0.51099 0
M  V30 2739 H 272.534 0.786158 -1.8976 0
M  V30 2740 H 270.764 3.34032 -1.94832 0
M  V30 2741 H 272.453 3.29874 -2.36513 0
M  V30 2742 H 273.219 1.94111 -4.44462 0
M  V30 2743 H 269.098 2.85104 -3.62266 0
M  V30 2744 H 272.642 1.52077 -6.80822 0
M  V30 2745 H 268.539 2.43479 -5.97819 0
M  V30 2746 H 269.307 1.85616 -7.97176 0
M  V30 2747 N 271.97 1.30982 0.876444 0
M  V30 2748 C 273.381 1.18277 1.44456 0
M  V30 2749 C 273.732 -0.213265 1.95037 0
M  V30 2750 O 272.857 -1.11057 1.85729 0
M  V30 2751 C 273.452 2.1411 2.62569 0
M  V30 2752 C 272.011 2.05358 3.15444 0
M  V30 2753 C 271.158 2.03706 1.88146 0
M  V30 2754 H 274.109 1.43127 0.685584 0
M  V30 2755 H 274.13 1.72692 3.39054 0
M  V30 2756 H 273.642 3.15706 2.25724 0
M  V30 2757 H 271.743 1.06934 3.56926 0
M  V30 2758 H 271.856 2.94156 3.78166 0
M  V30 2759 H 270.22 1.48629 2.06837 0
M  V30 2760 H 271.003 3.07047 1.53547 0
M  V30 2761 N 273.449 -1.08991 1.13837 0
M  V30 2762 C 274.697 -1.80899 0.901098 0
M  V30 2763 C 275.018 -1.86356 -0.574134 0
M  V30 2764 O 274.288 -1.35235 -1.41733 0
M  V30 2765 H 272.868 -0.669966 0.330386 0
M  V30 2766 H 275.53 -1.318 1.43578 0
M  V30 2767 H 274.626 -2.83929 1.29578 0
M  V30 2768 N 274.927 -0.932562 -1.27047 0
M  V30 2769 C 276.338 -0.619451 -1.76124 0
M  V30 2770 C 276.689 0.865397 -1.76083 0
M  V30 2771 O 275.814 1.67722 -1.36742 0
M  V30 2772 C 276.409 -1.11771 -3.19832 0
M  V30 2773 C 274.968 -0.855174 -3.66557 0
M  V30 2774 C 274.115 -1.27362 -2.46321 0
M  V30 2775 H 277.066 -1.11181 -1.13245 0
M  V30 2776 H 277.087 -0.46759 -3.77616 0
M  V30 2777 H 276.599 -2.19842 -3.1983 0
M  V30 2778 H 274.7 0.211524 -3.71999 0
M  V30 2779 H 274.813 -1.47613 -4.55793 0
M  V30 2780 H 273.177 -0.692119 -2.45116 0
M  V30 2781 H 273.96 -2.36307 -2.49025 0
M  V30 2782 N 276.405 1.4127 -0.698611 0
M  V30 2783 C 277.653 2.00782 -0.230409 0
M  V30 2784 C 277.974 1.5562 1.17505 0
M  V30 2785 O 277.244 0.78815 1.79346 0
M  V30 2786 H 275.824 0.742464 -0.0821944 0
M  V30 2787 H 278.486 1.72852 -0.90045 0
M  V30 2788 H 277.582 3.11095 -0.25021 0
M  V30 2789 N 277.883 0.443576 1.51229 0
M  V30 2790 C 278.833 -0.382787 2.24764 0
M  V30 2791 C 279.817 -0.984836 1.27239 0
M  V30 2792 O 281.009 -0.901943 1.52296 0
M  V30 2793 C 278.138 -1.47989 3.09765 0
M  V30 2794 C 277.224 -0.886931 4.14722 0
M  V30 2795 N 277.615 -0.0237103 5.05794 0
M  V30 2796 C 275.913 -1.15385 4.30816 0
M  V30 2797 C 276.614 0.309971 5.80874 0
M  V30 2798 N 275.59 -0.307989 5.42727 0
M  V30 2799 H 279.392 0.282624 2.92538 0
M  V30 2800 H 276.906 0.256027 1.60369 0
M  V30 2801 H 278.903 -2.08482 3.61027 0
M  V30 2802 H 277.563 -2.14758 2.43535 0
M  V30 2803 H 278.574 0.34318 5.16762 0
M  V30 2804 H 275.251 -1.81857 3.75812 0
M  V30 2805 H 276.641 1.01279 6.64223 0
M  V30 2806 N 279.361 -1.56624 0.175154 0
M  V30 2807 C 280.589 -2.01374 -0.474971 0
M  V30 2808 C 281.004 -1.05537 -1.56548 0
M  V30 2809 O 280.361 -0.0568668 -1.82411 0
M  V30 2810 C 280.412 -3.45923 -1.04975 0
M  V30 2811 O 280.133 -4.381 -0.00276605 0
M  V30 2812 C 281.634 -4.06093 -1.77773 0
M  V30 2813 H 278.854 -0.659962 -0.121206 0
M  V30 2814 H 281.398 -2.02601 0.27801 0
M  V30 2815 H 279.553 -3.45458 -1.75321 0
M  V30 2816 H 279.967 -5.22753 -0.427681 0
M  V30 2817 H 281.441 -5.09147 -2.13245 0
M  V30 2818 H 281.918 -3.48405 -2.67414 0
M  V30 2819 H 282.524 -4.10272 -1.12059 0
M  V30 2820 N 280.839 0.0985539 -1.57292 0
M  V30 2821 C 282.064 0.820196 -1.90493 0
M  V30 2822 C 282.489 1.71658 -0.769094 0
M  V30 2823 O 281.847 1.79133 0.279495 0
M  V30 2824 C 281.895 1.61242 -3.22542 0
M  V30 2825 O 280.999 2.72108 -3.09888 0
M  V30 2826 H 280.34 0.225547 -0.62452 0
M  V30 2827 H 282.87 0.0748159 -2.04463 0
M  V30 2828 H 282.88 1.99737 -3.55766 0
M  V30 2829 H 281.555 0.954535 -4.04798 0
M  V30 2830 H 280.132 2.36667 -2.88172 0
M  V30 2831 N 282.317 1.53212 0.369288 0
M  V30 2832 C 283.594 1.59815 1.12776 0
M  V30 2833 C 283.974 0.403402 2.0721 0
M  V30 2834 O 283.322 -0.606667 2.20299 0
M  V30 2835 C 283.532 2.94664 1.87013 0
M  V30 2836 C 284.88 3.49109 2.41677 0
M  V30 2837 O 285.904 2.96669 1.97144 0
M  V30 2838 O 284.763 4.40775 3.23079 0
M  V30 2839 H 281.857 0.645376 0.517125 0
M  V30 2840 H 284.403 1.65553 0.37285 0
M  V30 2841 H 283.175 3.73061 1.18071 0
M  V30 2842 H 282.798 2.92401 2.69421 0
M  V30 2843 N 283.795 -0.628877 1.44509 0
M  V30 2844 C 284.743 -1.76193 1.51852 0
M  V30 2845 C 285.737 -1.64849 0.390042 0
M  V30 2846 O 286.943 -1.709 0.565082 0
M  V30 2847 H 283.318 -0.581728 0.476547 0
M  V30 2848 H 285.289 -1.67123 2.47209 0
M  V30 2849 C 284.038 -3.14533 1.48204 0
M  V30 2850 H 283.361 -3.23911 2.34354 0
M  V30 2851 H 284.801 -3.93701 1.57402 0
M  V30 2852 C 283.26 -3.36287 0.203142 0
M  V30 2853 O 283.79 -3.9509 -0.725745 0
M  V30 2854 N 281.996 -2.90408 0.105563 0
M  V30 2855 H 281.543 -2.42739 0.862301 0
M  V30 2856 H 281.501 -3.05339 -0.749371 0
M  V30 2857 N 285.273 -1.31445 -0.869486 0
M  V30 2858 C 286.522 -1.20517 -1.61736 0
M  V30 2859 C 286.835 0.235341 -1.94179 0
M  V30 2860 O 288.041 0.466312 -2.67465 0
M  V30 2861 C 286.497 -2.10982 -2.91573 0
M  V30 2862 C 286.105 -3.60032 -2.66611 0
M  V30 2863 C 287.849 -2.08856 -3.69567 0
M  V30 2864 C 285.756 -4.42503 -3.92358 0
M  V30 2865 H 284.686 -0.447493 -0.606849 0
M  V30 2866 H 287.337 -1.56303 -0.96133 0
M  V30 2867 H 285.719 -1.68095 -3.58553 0
M  V30 2868 H 286.893 -4.11167 -2.08035 0
M  V30 2869 H 285.208 -3.64139 -2.0197 0
M  V30 2870 H 287.805 -2.67716 -4.62852 0
M  V30 2871 H 288.148 -1.07582 -4.02159 0
M  V30 2872 H 288.681 -2.49945 -3.09471 0
M  V30 2873 H 285.42 -5.44533 -3.64916 0
M  V30 2874 H 284.94 -3.96125 -4.50383 0
M  V30 2875 H 286.619 -4.54741 -4.60238 0
M  V30 2876 N 286.751 1.08385 -1.14413 0
M  V30 2877 C 287.979 1.84517 -0.936001 0
M  V30 2878 C 288.394 1.81626 0.515503 0
M  V30 2879 O 287.751 1.22008 1.35721 0
M  V30 2880 C 287.802 3.32049 -1.42918 0
M  V30 2881 O 287.523 3.34951 -2.82381 0
M  V30 2882 C 289.024 4.24986 -1.26103 0
M  V30 2883 H 286.244 0.582491 -0.333084 0
M  V30 2884 H 288.788 1.36885 -1.5193 0
M  V30 2885 H 286.943 3.7707 -0.888641 0
M  V30 2886 H 287.357 4.27048 -3.04517 0
M  V30 2887 H 288.831 5.26615 -1.6547 0
M  V30 2888 H 289.308 4.38726 -0.20392 0
M  V30 2889 H 289.914 3.85791 -1.79012 0
M  V30 2890 N 288.23 0.939286 1.26551 0
M  V30 2891 C 289.476 0.586715 1.94128 0
M  V30 2892 C 289.809 -0.8717 1.73537 0
M  V30 2893 O 289.084 -1.62339 1.07127 0
M  V30 2894 C 289.367 0.927497 3.4795 0
M  V30 2895 C 289.22 2.44052 3.77834 0
M  V30 2896 C 290.539 0.441569 4.37879 0
M  V30 2897 H 287.658 0.21463 0.705055 0
M  V30 2898 H 290.3 1.17316 1.49455 0
M  V30 2899 H 288.45 0.428431 3.8613 0
M  V30 2900 H 290.122 3.01216 3.4938 0
M  V30 2901 H 288.365 2.8848 3.23978 0
M  V30 2902 H 289.036 2.62947 4.85348 0
M  V30 2903 H 291.512 0.869448 4.06915 0
M  V30 2904 H 290.388 0.708856 5.44304 0
M  V30 2905 H 290.649 -0.658467 4.37169 0
M  V30 2906 N 289.708 -1.40897 0.706093 0
M  V30 2907 C 290.956 -2.00657 0.241054 0
M  V30 2908 C 291.277 -1.56241 -1.16678 0
M  V30 2909 O 290.547 -0.79765 -1.78926 0
M  V30 2910 H 289.127 -0.742018 0.0861308 0
M  V30 2911 H 291.789 -1.72372 0.909604 0
M  V30 2912 H 290.885 -3.10958 0.266705 0
M  V30 2913 N 291.186 -0.45159 -1.50991 0
M  V30 2914 C 292.435 0.111653 -2.01391 0
M  V30 2915 C 292.748 1.42529 -1.33959 0
M  V30 2916 O 293.954 2.07232 -1.75405 0
M  V30 2917 C 292.41 0.249514 -3.59034 0
M  V30 2918 C 292.018 -1.05453 -4.35412 0
M  V30 2919 C 293.762 0.765762 -4.17536 0
M  V30 2920 C 291.669 -0.881529 -5.84793 0
M  V30 2921 H 290.599 0.0455022 -0.752626 0
M  V30 2922 H 293.25 -0.583524 -1.73975 0
M  V30 2923 H 291.632 1.00803 -3.82955 0
M  V30 2924 H 292.806 -1.82248 -4.23229 0
M  V30 2925 H 291.121 -1.50039 -3.88429 0
M  V30 2926 H 293.718 0.911913 -5.26866 0
M  V30 2927 H 294.061 1.75201 -3.77638 0
M  V30 2928 H 294.594 0.0651744 -3.97747 0
M  V30 2929 H 291.333 -1.84057 -6.29129 0
M  V30 2930 H 290.853 -0.153625 -5.99603 0
M  V30 2931 H 292.532 -0.540363 -6.4474 0
M  V30 2932 N 292.664 1.56529 -0.183458 0
M  V30 2933 C 293.941 1.88959 0.50536 0
M  V30 2934 C 294.321 1.09523 1.80466 0
M  V30 2935 O 293.669 0.19278 2.27685 0
M  V30 2936 C 293.879 3.41162 0.73547 0
M  V30 2937 C 295.227 4.11155 1.06005 0
M  V30 2938 O 296.251 3.46548 0.823594 0
M  V30 2939 O 295.11 5.25318 1.50675 0
M  V30 2940 H 292.204 0.78441 0.261973 0
M  V30 2941 H 294.75 1.68231 -0.222802 0
M  V30 2942 H 293.522 3.90874 -0.182561 0
M  V30 2943 H 293.145 3.67543 1.51651 0
M  V30 2944 N 294.142 -0.090211 1.57342 0
M  V30 2945 C 295.39 -0.791241 1.85967 0
M  V30 2946 C 295.711 -1.7903 0.772859 0
M  V30 2947 O 294.981 -1.94872 -0.200398 0
M  V30 2948 H 293.561 -0.295205 0.686195 0
M  V30 2949 H 296.223 -0.0706782 1.94772 0
M  V30 2950 H 295.319 -1.31882 2.82867 0
M  V30 2951 N 295.62 -1.53406 -0.361157 0
M  V30 2952 C 296.848 -1.73717 -1.12383 0
M  V30 2953 C 297.263 -0.468161 -1.82904 0
M  V30 2954 O 296.62 0.559198 -1.73722 0
M  V30 2955 C 296.671 -2.90558 -2.15078 0
M  V30 2956 O 296.392 -4.12549 -1.47428 0
M  V30 2957 C 297.893 -3.22777 -3.03858 0
M  V30 2958 H 295.113 -0.580896 -0.335858 0
M  V30 2959 H 297.657 -2.00167 -0.418728 0
M  V30 2960 H 295.812 -2.66489 -2.8118 0
M  V30 2961 H 296.226 -4.78009 -2.15887 0
M  V30 2962 H 297.7 -4.07927 -3.71887 0
M  V30 2963 H 298.177 -2.38329 -3.68912 0
M  V30 2964 H 298.783 -3.48787 -2.43367 0
M  V30 2965 N 297.098 0.621204 -1.44841 0
M  V30 2966 C 298.375 1.38 -1.38619 0
M  V30 2967 C 298.755 2.11041 -0.0498935 0
M  V30 2968 O 298.103 2.06992 0.967816 0
M  V30 2969 C 298.313 2.33817 -2.59096 0
M  V30 2970 C 299.661 2.96844 -3.03593 0
M  V30 2971 O 300.685 2.44141 -2.59371 0
M  V30 2972 O 299.544 3.92476 -3.80296 0
M  V30 2973 H 296.638 0.61811 -0.549426 0
M  V30 2974 H 299.184 0.645429 -1.56947 0
M  V30 2975 H 297.956 1.79012 -3.47952 0
M  V30 2976 H 297.579 3.14676 -2.43032 0
M  V30 2977 N 298.576 1.31904 0.862503 0
M  V30 2978 C 299.825 1.21373 1.61094 0
M  V30 2979 C 300.138 -0.22504 1.94301 0
M  V30 2980 O 301.344 -0.452121 2.67709 0
M  V30 2981 C 299.8 2.12525 2.9045 0
M  V30 2982 C 299.408 3.61441 2.64697 0
M  V30 2983 C 301.152 2.10813 3.68454 0
M  V30 2984 C 299.059 4.44578 3.90006 0
M  V30 2985 H 297.989 0.450705 0.604468 0
M  V30 2986 H 300.64 1.56811 0.953027 0
M  V30 2987 H 299.022 1.69994 3.57656 0
M  V30 2988 H 300.196 4.12264 2.05851 0
M  V30 2989 H 298.511 3.65205 2.00036 0
M  V30 2990 H 301.108 2.70167 4.61426 0
M  V30 2991 H 301.451 1.09713 4.01583 0
M  V30 2992 H 301.984 2.51583 3.08141 0
M  V30 2993 H 298.723 5.46461 3.62023 0
M  V30 2994 H 298.243 3.98508 4.48276 0
M  V30 2995 H 299.922 4.57176 4.5782 0
M  V30 2996 N 300.054 -1.07777 1.14986 0
M  V30 2997 C 301.017 -2.13041 0.845358 0
M  V30 2998 C 302.017 -1.60071 -0.152931 0
M  V30 2999 O 303.207 -1.74033 0.0761879 0
M  V30 3000 C 300.339 -3.39896 0.261383 0
M  V30 3001 H 301.532 -2.41485 1.77834 0
M  V30 3002 H 299.085 -1.23595 0.956757 0
M  V30 3003 H 299.82 -3.17091 -0.68 0
M  V30 3004 H 299.605 -3.79642 0.980514 0
M  V30 3005 H 301.095 -4.17548 0.0657687 0
M  V30 3006 N 301.532 -0.945985 -1.26051 0
M  V30 3007 C 302.779 -0.596118 -1.93527 0
M  V30 3008 C 303.107 0.865559 -1.74179 0
M  V30 3009 O 302.362 1.63524 -1.0751 0
M  V30 3010 C 302.661 -0.890475 -3.46129 0
M  V30 3011 C 302.327 -2.3368 -3.85622 0
M  V30 3012 C 300.989 -2.73216 -3.96114 0
M  V30 3013 C 303.341 -3.27648 -4.05334 0
M  V30 3014 C 300.669 -4.05806 -4.2372 0
M  V30 3015 C 303.021 -4.59841 -4.3443 0
M  V30 3016 C 301.685 -4.99185 -4.43137 0
M  V30 3017 H 300.955 -0.218135 -0.708165 0
M  V30 3018 H 303.602 -1.1934 -1.49768 0
M  V30 3019 H 301.907 -0.210711 -3.91233 0
M  V30 3020 H 303.604 -0.598478 -3.96509 0
M  V30 3021 H 300.194 -2.02015 -3.78005 0
M  V30 3022 H 304.378 -2.98298 -3.96651 0
M  V30 3023 H 299.634 -4.35945 -4.28675 0
M  V30 3024 H 303.808 -5.32641 -4.48628 0
M  V30 3025 H 301.435 -6.01952 -4.64282 0
M  V30 3026 N 303.011 1.40521 -0.713556 0
M  V30 3027 C 304.259 2.00527 -0.251692 0
M  V30 3028 C 304.58 1.56857 1.15848 0
M  V30 3029 O 303.85 0.807127 1.785 0
M  V30 3030 H 302.43 0.741551 -0.0900646 0
M  V30 3031 H 305.092 1.71887 -0.918733 0
M  V30 3032 H 304.188 3.10813 -0.283192 0
M  V30 3033 N 304.489 0.459591 1.5075 0
M  V30 3034 C 305.737 -0.0991532 2.01857 0
M  V30 3035 C 306.058 -1.41247 1.34441 0
M  V30 3036 O 305.328 -1.89775 0.486022 0
M  V30 3037 H 303.908 -0.039633 0.745948 0
M  V30 3038 H 306.57 0.607387 1.85194 0
M  V30 3039 H 305.666 -0.258998 3.11023 0
M  V30 3040 N 305.967 -1.56429 0.191757 0
M  V30 3041 C 307.207 -1.99383 -0.450099 0
M  V30 3042 C 307.571 -1.07581 -1.59029 0
M  V30 3043 O 308.772 -1.39758 -2.29611 0
M  V30 3044 C 307.043 -3.45841 -0.901611 0
M  V30 3045 S 308.602 -4.10822 -1.54177 0
M  V30 3046 H 305.42 -0.696253 -0.144057 0
M  V30 3047 H 308.022 -1.93276 0.294036 0
M  V30 3048 H 306.726 -4.10354 -0.0616596 0
M  V30 3049 H 306.257 -3.55757 -1.67929 0
M  V30 3050 H 308.272 -4.07553 -2.83046 0
M  V30 3051 N 307.445 0.0818655 -1.57387 0
M  V30 3052 C 308.375 1.09885 -2.06028 0
M  V30 3053 C 309.356 1.4098 -0.951774 0
M  V30 3054 O 310.541 1.50781 -1.22387 0
M  V30 3055 C 307.671 2.4151 -2.4958 0
M  V30 3056 C 306.625 2.24792 -3.64215 0
M  V30 3057 C 305.951 3.61712 -3.93787 0
M  V30 3058 C 307.251 1.67749 -4.94629 0
M  V30 3059 H 308.945 0.694128 -2.91243 0
M  V30 3060 H 306.491 0.332448 -1.4011 0
M  V30 3061 H 308.444 3.12939 -2.82219 0
M  V30 3062 H 307.168 2.83943 -1.61381 0
M  V30 3063 H 305.827 1.55807 -3.31843 0
M  V30 3064 H 305.475 4.01697 -3.02735 0
M  V30 3065 H 305.175 3.51368 -4.70971 0
M  V30 3066 H 306.699 4.34587 -4.28913 0
M  V30 3067 H 308.113 2.29032 -5.25564 0
M  V30 3068 H 306.51 1.68128 -5.76067 0
M  V30 3069 H 307.58 0.638059 -4.80684 0
M  V30 3070 N 308.923 1.53595 0.353017 0
M  V30 3071 C 310.172 1.69603 1.09168 0
M  V30 3072 C 310.485 0.460925 1.90092 0
M  V30 3073 O 311.691 0.501774 2.66823 0
M  V30 3074 C 310.147 2.99872 1.9901 0
M  V30 3075 C 309.755 4.30687 1.23339 0
M  V30 3076 C 311.499 3.25246 2.72792 0
M  V30 3077 C 309.406 5.52036 2.12156 0
M  V30 3078 H 308.336 0.631966 0.411261 0
M  V30 3079 H 310.987 1.80096 0.351802 0
M  V30 3080 H 309.369 2.83212 2.7678 0
M  V30 3081 H 310.543 4.58019 0.505456 0
M  V30 3082 H 308.858 4.11853 0.613663 0
M  V30 3083 H 311.455 4.13095 3.39495 0
M  V30 3084 H 311.798 2.41846 3.38846 0
M  V30 3085 H 312.331 3.42638 2.021 0
M  V30 3086 H 309.07 6.37951 1.50659 0
M  V30 3087 H 308.59 5.28966 2.82764 0
M  V30 3088 H 310.269 5.87313 2.71427 0
M  V30 3089 N 310.401 -0.613514 1.45168 0
M  V30 3090 C 311.348 -1.72456 1.53387 0
M  V30 3091 C 312.318 -1.6169 0.380191 0
M  V30 3092 O 313.503 -1.81356 0.592836 0
M  V30 3093 C 310.643 -3.10753 1.50088 0
M  V30 3094 C 309.756 -3.32368 2.75963 0
M  V30 3095 C 308.891 -4.60737 2.64376 0
M  V30 3096 C 307.93 -4.7559 3.85332 0
M  V30 3097 N 307.067 -5.95253 3.72315 0
M  V30 3098 H 311.907 -1.64768 2.48305 0
M  V30 3099 H 309.444 -0.803503 1.23216 0
M  V30 3100 H 311.402 -3.90758 1.46164 0
M  V30 3101 H 310.032 -3.17413 0.587243 0
M  V30 3102 H 309.084 -2.4618 2.89999 0
M  V30 3103 H 310.396 -3.39218 3.65695 0
M  V30 3104 H 309.55 -5.48928 2.58385 0
M  V30 3105 H 308.289 -4.56275 1.72233 0
M  V30 3106 H 307.294 -3.85824 3.91688 0
M  V30 3107 H 308.519 -4.81854 4.78533 0
M  V30 3108 H 306.465 -5.91847 2.82937 0
M  V30 3109 H 306.382 -6.03236 4.55677 0
M  V30 3110 H 307.65 -6.85958 3.70246 0
M  V30 3111 N 311.879 -1.3236 -0.855495 0
M  V30 3112 C 313.156 -1.13491 -1.59309 0
M  V30 3113 C 313.536 0.30503 -2.08885 0
M  V30 3114 O 312.884 1.30151 -1.87811 0
M  V30 3115 C 313.094 -2.16176 -2.73987 0
M  V30 3116 C 314.442 -2.49463 -3.43589 0
M  V30 3117 O 315.466 -2.14715 -2.84211 0
M  V30 3118 O 314.325 -3.09027 -4.50738 0
M  V30 3119 H 311.419 -0.437887 -0.701559 0
M  V30 3120 H 313.965 -1.43887 -0.899696 0
M  V30 3121 H 312.737 -3.1297 -2.34873 0
M  V30 3122 H 312.36 -1.86769 -3.51003 0
M  V30 3123 N 313.357 1.07166 -1.15556 0
M  V30 3124 C 314.582 1.84053 -0.955988 0
M  V30 3125 C 315.007 1.81586 0.490739 0
M  V30 3126 O 314.365 1.21018 1.34997 0
M  V30 3127 C 314.413 3.28957 -1.47714 0
M  V30 3128 O 313.517 4.06795 -0.677593 0
M  V30 3129 H 312.858 0.569842 -0.340847 0
M  V30 3130 H 315.388 1.35178 -1.53584 0
M  V30 3131 H 315.398 3.79788 -1.4908 0
M  V30 3132 H 314.073 3.30068 -2.53037 0
M  V30 3133 H 312.65 3.6561 -0.733721 0
M  V30 3134 N 314.835 0.952656 1.25548 0
M  V30 3135 C 315.782 0.47008 2.25962 0
M  V30 3136 C 316.752 -0.476384 1.59122 0
M  V30 3137 O 317.937 -0.39007 1.8677 0
M  V30 3138 C 315.077 -0.247881 3.44209 0
M  V30 3139 C 314.19 0.735591 4.25691 0
M  V30 3140 C 313.325 -0.0047306 5.312 0
M  V30 3141 C 312.364 0.969805 6.04368 0
M  V30 3142 N 311.501 0.260486 7.01617 0
M  V30 3143 H 316.341 1.33126 2.66611 0
M  V30 3144 H 313.878 0.66765 1.31076 0
M  V30 3145 H 315.836 -0.680695 4.1161 0
M  V30 3146 H 314.466 -1.07312 3.0444 0
M  V30 3147 H 313.518 1.28689 3.57971 0
M  V30 3148 H 314.83 1.47934 4.76358 0
M  V30 3149 H 313.984 -0.496275 6.04667 0
M  V30 3150 H 312.723 -0.781282 4.81401 0
M  V30 3151 H 311.728 1.47237 5.29718 0
M  V30 3152 H 312.953 1.74655 6.56256 0
M  V30 3153 H 310.899 -0.497364 6.54112 0
M  V30 3154 H 310.816 0.943362 7.50091 0
M  V30 3155 H 312.084 -0.209587 7.79218 0
M  V30 3156 N 316.313 -1.40141 0.720998 0
M  V30 3157 C 317.276 -2.29058 0.0805834 0
M  V30 3158 C 318.276 -1.45632 -0.681758 0
M  V30 3159 O 319.466 -1.6648 -0.512856 0
M  V30 3160 C 316.598 -3.28925 -0.895593 0
M  V30 3161 H 317.791 -2.87191 0.863793 0
M  V30 3162 H 315.344 -1.48553 0.485975 0
M  V30 3163 H 316.079 -2.75822 -1.70566 0
M  V30 3164 H 315.864 -3.90519 -0.351766 0
M  V30 3165 H 317.354 -3.95494 -1.34069 0
M  V30 3166 N 317.792 -0.46758 -1.50504 0
M  V30 3167 C 318.739 0.328413 -2.28452 0
M  V30 3168 C 319.709 0.990313 -1.33349 0
M  V30 3169 O 320.894 1.00343 -1.62284 0
M  V30 3170 C 318.034 1.40648 -3.15138 0
M  V30 3171 C 317.147 0.759709 -4.25267 0
M  V30 3172 C 316.282 1.81537 -4.99217 0
M  V30 3173 C 315.321 1.14866 -6.01226 0
M  V30 3174 N 314.458 2.14702 -6.68467 0
M  V30 3175 H 319.298 -0.342603 -2.96024 0
M  V30 3176 H 316.835 -0.180801 -1.45985 0
M  V30 3177 H 318.793 2.04315 -3.63746 0
M  V30 3178 H 317.423 2.04671 -2.49619 0
M  V30 3179 H 316.475 0.0105671 -3.80399 0
M  V30 3180 H 317.787 0.233243 -4.98254 0
M  V30 3181 H 316.941 2.52793 -5.51526 0
M  V30 3182 H 315.68 2.37564 -4.25928 0
M  V30 3183 H 314.685 0.42171 -5.4818 0
M  V30 3184 H 315.91 0.595334 -6.76485 0
M  V30 3185 H 313.856 2.69752 -5.97972 0
M  V30 3186 H 313.773 1.6703 -7.37317 0
M  V30 3187 H 315.041 2.85348 -7.25394 0
M  V30 3188 N 319.27 1.56325 -0.20005 0
M  V30 3189 C 320.495 2.02548 0.44597 0
M  V30 3190 C 320.92 1.07922 1.5406 0
M  V30 3191 O 320.278 0.0635775 1.81188 0
M  V30 3192 C 320.326 3.47175 0.974761 0
M  V30 3193 O 319.43 3.55671 2.08739 0
M  V30 3194 H 318.771 0.655862 0.103638 0
M  V30 3195 H 321.301 2.02201 -0.312381 0
M  V30 3196 H 321.311 3.87067 1.2901 0
M  V30 3197 H 319.986 4.15538 0.17347 0
M  V30 3198 H 318.563 3.27657 1.78032 0
M  V30 3199 N 320.748 -0.0735177 1.57428 0
M  V30 3200 C 321.678 -1.0879 2.06608 0
M  V30 3201 C 322.659 -1.40473 0.959237 0
M  V30 3202 O 323.844 -1.5013 1.23185 0
M  V30 3203 C 320.974 -2.40183 2.50857 0
M  V30 3204 C 319.928 -2.22858 3.65402 0
M  V30 3205 C 319.254 -3.59619 3.957 0
M  V30 3206 C 320.554 -1.65123 4.95511 0
M  V30 3207 H 322.248 -0.678673 2.91607 0
M  V30 3208 H 319.794 -0.325013 1.40284 0
M  V30 3209 H 321.747 -3.11437 2.83874 0
M  V30 3210 H 320.471 -2.83083 1.62885 0
M  V30 3211 H 319.13 -1.54045 3.32664 0
M  V30 3212 H 318.778 -4.00086 3.04861 0
M  V30 3213 H 318.478 -3.48866 4.72828 0
M  V30 3214 H 320.002 -4.32306 4.31212 0
M  V30 3215 H 321.416 -2.26241 5.26771 0
M  V30 3216 H 319.813 -1.65071 5.7695 0
M  V30 3217 H 320.883 -0.612559 4.81015 0
M  V30 3218 N 322.226 -1.5378 -0.344866 0
M  V30 3219 C 323.474 -1.70625 -1.08311 0
M  V30 3220 C 323.795 -0.471447 -1.89215 0
M  V30 3221 O 323.065 0.514616 -1.8902 0
M  V30 3222 H 321.645 -0.629058 -0.402859 0
M  V30 3223 H 324.307 -1.9103 -0.386459 0
M  V30 3224 H 323.403 -2.57656 -1.76124 0
M  V30 3225 N 323.704 0.605807 -1.45491 0
M  V30 3226 C 324.652 1.73754 -1.54636 0
M  V30 3227 C 325.646 1.64207 -0.416219 0
M  V30 3228 O 326.852 1.69979 -0.592199 0
M  V30 3229 H 323.227 0.574073 -0.485741 0
M  V30 3230 H 325.198 1.63169 -2.49837 0
M  V30 3231 C 323.947 3.12135 -1.53189 0
M  V30 3232 H 323.27 3.20141 -2.39478 0
M  V30 3233 H 324.71 3.91147 -1.63645 0
M  V30 3234 C 323.169 3.35921 -0.256616 0
M  V30 3235 O 323.699 3.96194 0.662798 0
M  V30 3236 N 321.905 2.90204 -0.151751 0
M  V30 3237 H 321.452 2.41336 -0.90081 0
M  V30 3238 H 321.41 3.06492 0.700699 0
M  V30 3239 N 325.182 1.32811 0.848464 0
M  V30 3240 C 326.112 1.24882 1.97299 0
M  V30 3241 C 327.093 0.131357 1.69592 0
M  V30 3242 O 328.278 0.319553 1.91553 0
M  V30 3243 C 325.408 0.97746 3.33261 0
M  V30 3244 C 324.362 2.05682 3.75338 0
M  V30 3245 C 323.688 1.63777 5.09 0
M  V30 3246 C 324.988 3.47254 3.90144 0
M  V30 3247 H 326.682 2.18966 2.04191 0
M  V30 3248 H 324.228 1.05413 0.981029 0
M  V30 3249 H 326.181 0.908513 4.1149 0
M  V30 3250 H 324.905 0.000980011 3.266 0
M  V30 3251 H 323.564 2.11603 2.99366 0
M  V30 3252 H 323.212 0.648569 4.98801 0
M  V30 3253 H 322.912 2.36 5.38124 0
M  V30 3254 H 324.436 1.5833 5.89715 0
M  V30 3255 H 325.85 3.43888 4.58709 0
M  V30 3256 H 324.247 4.1788 4.30693 0
M  V30 3257 H 325.317 3.86462 2.92874 0
M  V30 3258 N 326.66 -1.06551 1.16123 0
M  V30 3259 C 327.908 -1.78947 0.939267 0
M  V30 3260 C 328.229 -1.87532 -0.534476 0
M  V30 3261 O 327.499 -1.38211 -1.38833 0
M  V30 3262 H 326.079 -0.662807 0.344523 0
M  V30 3263 H 328.741 -1.28725 1.46342 0
M  V30 3264 H 327.837 -2.81117 1.35572 0
M  V30 3265 N 328.138 -0.959301 -1.25041 0
M  V30 3266 C 329.415 -0.533805 -1.88175 0
M  V30 3267 C 329.795 0.988994 -1.865 0
M  V30 3268 O 329.143 1.85677 -1.33177 0
M  V30 3269 C 329.353 -1.11575 -3.30684 0
M  V30 3270 C 330.701 -1.19548 -4.07423 0
M  V30 3271 O 331.725 -1.06765 -3.39823 0
M  V30 3272 O 330.584 -1.39656 -5.28354 0
M  V30 3273 H 327.678 -0.176772 -0.807887 0
M  V30 3274 H 330.224 -1.05303 -1.33076 0
M  V30 3275 H 328.996 -2.15884 -3.26358 0
M  V30 3276 H 328.619 -0.580059 -3.93346 0
M  V30 3277 N 329.616 1.39756 -0.72842 0
M  V30 3278 C 330.579 2.29012 -0.0927297 0
M  V30 3279 C 331.579 1.45992 0.674025 0
M  V30 3280 O 332.769 1.66749 0.50402 0
M  V30 3281 C 329.901 3.29396 0.878137 0
M  V30 3282 H 331.094 2.86729 -0.879011 0
M  V30 3283 H 328.647 1.48293 -0.493847 0
M  V30 3284 H 329.382 2.76722 1.69101 0
M  V30 3285 H 329.167 3.907 0.331051 0
M  V30 3286 H 330.657 3.96199 1.3197 0
M  V30 3287 N 331.094 0.475555 1.50254 0
M  V30 3288 C 332.371 -0.139685 1.95101 0
M  V30 3289 C 332.751 -1.56555 1.41611 0
M  V30 3290 O 332.099 -2.19956 0.618993 0
M  V30 3291 C 332.309 -0.0784298 3.48912 0
M  V30 3292 C 333.657 -0.265095 4.23772 0
M  V30 3293 O 334.681 -0.154808 3.55863 0
M  V30 3294 O 333.54 -0.488327 5.44314 0
M  V30 3295 H 330.634 -0.109236 0.819754 0
M  V30 3296 H 333.18 0.536276 1.61004 0
M  V30 3297 H 331.952 0.916918 3.80405 0
M  V30 3298 H 331.575 -0.795655 3.89558 0
M  V30 3299 N 332.573 -1.56217 0.208337 0
M  V30 3300 C 333.801 -2.02337 -0.43215 0
M  V30 3301 C 334.216 -1.08834 -1.54275 0
M  V30 3302 O 333.573 -0.0955462 -1.8225 0
M  V30 3303 C 333.624 -3.48072 -0.976138 0
M  V30 3304 O 333.345 -4.38007 0.0901621 0
M  V30 3305 C 334.846 -4.09773 -1.69119 0
M  V30 3306 H 332.066 -0.662385 -0.10718 0
M  V30 3307 H 334.61 -2.01966 0.320923 0
M  V30 3308 H 332.765 -3.49099 -1.67954 0
M  V30 3309 H 333.179 -5.23543 -0.316701 0
M  V30 3310 H 334.653 -5.13556 -2.02397 0
M  V30 3311 H 335.13 -3.53999 -2.59964 0
M  V30 3312 H 335.736 -4.12556 -1.03332 0
M  V30 3313 N 334.051 0.0651679 -1.57465 0
M  V30 3314 C 334.961 1.09448 -2.07505 0
M  V30 3315 C 335.977 1.41974 -1.00595 0
M  V30 3316 O 337.153 1.52018 -1.32107 0
M  V30 3317 C 334.218 2.38689 -2.51453 0
M  V30 3318 C 333.279 2.13073 -3.72691 0
M  V30 3319 C 332.512 3.36152 -4.14533 0
M  V30 3320 O 332.735 4.45517 -3.56189 0
M  V30 3321 O 331.669 3.23974 -5.07272 0
M  V30 3322 H 335.495 0.69935 -2.95538 0
M  V30 3323 H 333.08 0.279752 -1.46757 0
M  V30 3324 H 334.962 3.14736 -2.80212 0
M  V30 3325 H 333.637 2.77568 -1.66546 0
M  V30 3326 H 332.544 1.34709 -3.49005 0
M  V30 3327 H 333.877 1.79071 -4.5847 0
M  V30 3328 N 335.529 1.53961 0.336706 0
M  V30 3329 C 336.479 1.7881 1.41461 0
M  V30 3330 C 337.463 0.643561 1.47469 0
M  V30 3331 O 338.655 0.903166 1.52223 0
M  V30 3332 C 335.784 2.00722 2.78506 0
M  V30 3333 C 334.87 3.2126 2.76862 0
M  V30 3334 N 335.261 4.42588 2.44845 0
M  V30 3335 C 333.559 3.22568 3.08004 0
M  V30 3336 C 334.26 5.2447 2.51607 0
M  V30 3337 N 333.236 4.61344 2.87511 0
M  V30 3338 H 337.038 2.70205 1.15615 0
M  V30 3339 H 334.552 1.52978 0.545112 0
M  V30 3340 H 336.549 2.1666 3.5618 0
M  V30 3341 H 335.209 1.10573 3.05293 0
M  V30 3342 H 336.22 4.69819 2.17922 0
M  V30 3343 H 332.897 2.42409 3.39918 0
M  V30 3344 H 334.287 6.31324 2.29955 0
M  V30 3345 N 337.007 -0.598083 1.45811 0
M  V30 3346 C 338.237 -1.38121 1.53643 0
M  V30 3347 C 338.645 -1.88425 0.171081 0
M  V30 3348 O 337.988 -1.63409 -0.839237 0
M  V30 3349 C 338.05 -2.61432 2.46766 0
M  V30 3350 C 337.714 -2.32702 3.93318 0
M  V30 3351 C 338.711 -1.92479 4.82957 0
M  V30 3352 C 336.396 -2.45321 4.38318 0
M  V30 3353 C 338.39 -1.65248 6.15607 0
M  V30 3354 C 336.077 -2.17703 5.71007 0
M  V30 3355 C 337.075 -1.7773 6.5947 0
M  V30 3356 O 336.763 -1.50441 7.89698 0
M  V30 3357 H 336.495 -0.428863 0.522544 0
M  V30 3358 H 339.049 -0.73557 1.91777 0
M  V30 3359 H 337.279 -3.28749 2.0362 0
M  V30 3360 H 338.968 -3.23487 2.45175 0
M  V30 3361 H 339.734 -1.82258 4.49452 0
M  V30 3362 H 335.613 -2.75399 3.69697 0
M  V30 3363 H 339.157 -1.33973 6.84614 0
M  V30 3364 H 335.054 -2.27544 6.04065 0
M  V30 3365 H 335.822 -1.64415 8.01817 0
M  V30 3366 N 338.485 -1.33259 -0.841409 0
M  V30 3367 C 339.448 -1.23221 -1.9326 0
M  V30 3368 C 340.448 -0.151895 -1.60081 0
M  V30 3369 O 341.638 -0.403246 -1.69468 0
M  V30 3370 C 338.77 -0.898123 -3.28856 0
M  V30 3371 H 339.963 -2.2021 -2.03587 0
M  V30 3372 H 337.516 -1.17281 -1.03319 0
M  V30 3373 H 338.251 0.0693841 -3.24226 0
M  V30 3374 H 338.036 -1.67934 -3.54317 0
M  V30 3375 H 339.526 -0.852563 -4.08805 0
M  V30 3376 N 339.963 1.05934 -1.16686 0
M  V30 3377 C 340.926 2.11669 -0.879144 0
M  V30 3378 C 341.926 1.60294 0.127445 0
M  V30 3379 O 343.116 1.7389 -0.103865 0
M  V30 3380 C 340.248 3.39438 -0.315425 0
M  V30 3381 H 341.441 2.38626 -1.81653 0
M  V30 3382 H 338.994 1.22058 -0.976299 0
M  V30 3383 H 339.729 3.18132 0.629468 0
M  V30 3384 H 339.514 3.78034 -1.04079 0
M  V30 3385 H 341.004 4.17391 -0.132189 0
M  V30 3386 N 341.441 0.965919 1.2453 0
M  V30 3387 C 342.666 0.643971 1.97149 0
M  V30 3388 C 343.091 -0.779487 1.71189 0
M  V30 3389 O 342.449 -1.5288 0.974553 0
M  V30 3390 C 342.497 0.922557 3.48599 0
M  V30 3391 O 341.601 0.00707672 4.12399 0
M  V30 3392 H 340.942 0.243647 0.617683 0
M  V30 3393 H 343.472 1.29558 1.58353 0
M  V30 3394 H 343.482 0.853373 3.98976 0
M  V30 3395 H 342.157 1.95996 3.66822 0
M  V30 3396 H 340.734 0.12943 3.72675 0
M  V30 3397 N 342.919 -1.39368 0.735821 0
M  V30 3398 C 343.882 -2.2896 0.104874 0
M  V30 3399 C 344.882 -1.46347 -0.666274 0
M  V30 3400 O 346.072 -1.67014 -0.49517 0
M  V30 3401 C 343.204 -3.29857 -0.860656 0
M  V30 3402 H 344.397 -2.86259 0.894205 0
M  V30 3403 H 341.95 -1.48029 0.501704 0
M  V30 3404 H 342.685 -2.77615 -1.67631 0
M  V30 3405 H 342.47 -3.9087 -0.310327 0
M  V30 3406 H 343.96 -3.96893 -1.29867 0
M  V30 3407 N 344.397 -0.483516 -1.5 0
M  V30 3408 C 345.813 -0.138404 -1.58999 0
M  V30 3409 C 346.013 1.35597 -1.4905 0
M  V30 3410 O 345.069 2.13039 -1.35539 0
M  V30 3411 C 346.382 -0.699658 -2.92447 0
M  V30 3412 C 347.93 -0.664195 -3.05872 0
M  V30 3413 C 348.405 -1.20321 -4.41913 0
M  V30 3414 N 349.896 -1.16315 -4.48358 0
M  V30 3415 C 350.631 -1.55058 -5.52037 0
M  V30 3416 N 350.127 -2.01311 -6.62907 0
M  V30 3417 N 351.92 -1.46584 -5.42651 0
M  V30 3418 H 344.071 -1.45529 -1.5471 0
M  V30 3419 H 346.334 -0.60258 -0.731848 0
M  V30 3420 H 346.04 -1.747 -3.05242 0
M  V30 3421 H 345.914 -0.150194 -3.76901 0
M  V30 3422 H 348.301 0.374272 -2.92717 0
M  V30 3423 H 348.382 -1.25061 -2.23144 0
M  V30 3424 H 348.026 -2.24037 -4.55818 0
M  V30 3425 H 347.956 -0.592896 -5.23252 0
M  V30 3426 H 350.447 -0.824058 -3.68806 0
M  V30 3427 H 350.76 -2.2899 -7.38095 0
M  V30 3428 H 349.105 -2.05273 -6.63994 0
M  V30 3429 H 352.296 -1.10281 -4.54924 0
M  V30 3430 H 352.469 -1.77103 -6.23329 0
M  V30 3431 N 345.875 1.56104 -0.216619 0
M  V30 3432 C 346.838 2.18819 0.681962 0
M  V30 3433 C 347.838 1.14866 1.12528 0
M  V30 3434 O 349.028 1.40128 1.03488 0
M  V30 3435 C 346.16 2.80756 1.93362 0
M  V30 3436 H 347.353 2.99595 0.135254 0
M  V30 3437 H 344.906 1.56265 0.0330003 0
M  V30 3438 H 345.641 2.03837 2.52232 0
M  V30 3439 H 345.426 3.56876 1.62426 0
M  V30 3440 H 346.916 3.28844 2.57393 0
M  V30 3441 N 347.353 -0.0568162 1.57498 0
M  V30 3442 C 348.6 -0.753104 1.87975 0
M  V30 3443 C 348.928 -1.76815 0.81035 0
M  V30 3444 O 348.183 -1.94756 -0.19199 0
M  V30 3445 C 348.482 -1.48359 3.25153 0
M  V30 3446 C 348.148 -0.60713 4.46794 0
M  V30 3447 C 346.81 -0.365642 4.79809 0
M  V30 3448 C 349.162 -0.000305978 5.212 0
M  V30 3449 C 346.49 0.491905 5.84634 0
M  V30 3450 C 348.842 0.844781 6.26934 0
M  V30 3451 C 347.506 1.096 6.58441 0
M  V30 3452 H 346.776 -0.27558 0.687849 0
M  V30 3453 H 349.423 -0.0135173 1.91495 0
M  V30 3454 H 347.728 -2.29577 3.17492 0
M  V30 3455 H 349.425 -2.02739 3.45974 0
M  V30 3456 H 346.015 -0.805487 4.20963 0
M  V30 3457 H 350.199 -0.173961 4.95995 0
M  V30 3458 H 345.455 0.695131 6.07436 0
M  V30 3459 H 349.629 1.32165 6.83744 0
M  V30 3460 H 347.256 1.76224 7.39492 0
M  V30 3461 N 348.832 -1.54138 -0.328536 0
M  V30 3462 C 350.08 -1.71765 -1.06496 0
M  V30 3463 C 350.401 -0.49149 -1.88704 0
M  V30 3464 O 349.671 0.494539 -1.89555 0
M  V30 3465 H 348.251 -0.633295 -0.396164 0
M  V30 3466 H 350.913 -1.91429 -0.366176 0
M  V30 3467 H 350.009 -2.5951 -1.73381 0
M  V30 3468 N 350.31 0.590341 -1.46126 0
M  V30 3469 C 351.273 1.68194 -1.55703 0
M  V30 3470 C 352.273 1.54808 -0.434868 0
M  V30 3471 O 353.463 1.59564 -0.698928 0
M  V30 3472 C 350.595 3.07575 -1.47005 0
M  V30 3473 H 351.788 1.61064 -2.52979 0
M  V30 3474 H 349.341 0.807541 -1.33823 0
M  V30 3475 H 350.076 3.20268 -0.509785 0
M  V30 3476 H 349.861 3.187 -2.28414 0
M  V30 3477 H 351.351 3.87055 -1.56776 0
M  V30 3478 N 351.788 1.33704 0.83433 0
M  V30 3479 C 352.751 1.24244 1.92603 0
M  V30 3480 C 353.751 0.160383 1.59998 0
M  V30 3481 O 354.941 0.412228 1.69252 0
M  V30 3482 C 352.073 0.91555 3.28376 0
M  V30 3483 H 353.266 2.21287 2.02416 0
M  V30 3484 H 350.819 1.17827 1.02696 0
M  V30 3485 H 351.554 -0.0521886 3.24258 0
M  V30 3486 H 351.339 1.69811 3.53422 0
M  V30 3487 H 352.829 0.874231 4.08347 0
M  V30 3488 N 353.266 -1.05314 1.17247 0
M  V30 3489 C 354.513 -1.78293 0.960091 0
M  V30 3490 C 354.841 -1.87658 -0.51136 0
M  V30 3491 O 354.096 -1.3718 -1.39571 0
M  V30 3492 C 354.395 -3.2229 1.54479 0
M  V30 3493 C 354.061 -3.32987 3.04024 0
M  V30 3494 C 352.723 -3.35613 3.44844 0
M  V30 3495 C 355.075 -3.34102 4.00031 0
M  V30 3496 C 352.403 -3.36982 4.8027 0
M  V30 3497 C 354.755 -3.3701 5.35357 0
M  V30 3498 C 353.419 -3.37923 5.75642 0
M  V30 3499 H 352.689 -0.652422 0.351322 0
M  V30 3500 H 355.336 -1.23782 1.46117 0
M  V30 3501 H 353.641 -3.7972 0.965391 0
M  V30 3502 H 355.338 -3.77376 1.35603 0
M  V30 3503 H 351.928 -3.31655 2.71483 0
M  V30 3504 H 356.112 -3.31276 3.69554 0
M  V30 3505 H 351.368 -3.35999 5.10798 0
M  V30 3506 H 355.542 -3.36822 6.09528 0
M  V30 3507 H 353.169 -3.38738 6.80559 0
M  V30 3508 N 354.744 -0.972509 -1.24016 0
M  V30 3509 C 356.155 -0.67517 -1.74064 0
M  V30 3510 C 356.506 0.808939 -1.78747 0
M  V30 3511 O 355.631 1.63286 -1.42009 0
M  V30 3512 C 356.226 -1.21889 -3.16115 0
M  V30 3513 C 354.785 -0.971358 -3.6365 0
M  V30 3514 C 353.932 -1.35134 -2.42145 0
M  V30 3515 H 356.883 -1.14727 -1.09651 0
M  V30 3516 H 356.904 -0.587489 -3.75937 0
M  V30 3517 H 356.416 -2.29906 -3.12674 0
M  V30 3518 H 354.517 0.0930686 -3.72484 0
M  V30 3519 H 354.63 -1.62039 -4.50866 0
M  V30 3520 H 352.994 -0.769751 -2.4279 0
M  V30 3521 H 353.777 -2.4411 -2.41381 0
M  V30 3522 N 356.222 1.38976 -0.743202 0
M  V30 3523 C 357.169 2.30544 -0.10861 0
M  V30 3524 C 358.139 1.49642 0.720869 0
M  V30 3525 O 359.324 1.78304 0.679142 0
M  V30 3526 C 356.464 3.36018 0.786496 0
M  V30 3527 C 355.577 4.31963 -0.0564849 0
M  V30 3528 C 354.712 5.24506 0.840657 0
M  V30 3529 C 353.751 6.121 -0.00658363 0
M  V30 3530 N 352.888 6.96973 0.846943 0
M  V30 3531 H 357.728 2.8424 -0.895088 0
M  V30 3532 H 355.265 1.3995 -0.453048 0
M  V30 3533 H 357.223 3.95768 1.31999 0
M  V30 3534 H 355.853 2.83758 1.53887 0
M  V30 3535 H 354.905 3.73763 -0.707492 0
M  V30 3536 H 356.217 4.93703 -0.711229 0
M  V30 3537 H 355.371 5.89322 1.4417 0
M  V30 3538 H 354.11 4.63107 1.52916 0
M  V30 3539 H 353.115 5.46289 -0.620366 0
M  V30 3540 H 354.34 6.75565 -0.691992 0
M  V30 3541 H 352.286 6.38133 1.52059 0
M  V30 3542 H 352.203 7.5559 0.248864 0
M  V30 3543 H 353.471 7.6621 1.43328 0
M  V30 3544 N 357.7 0.491464 1.49741 0
M  V30 3545 C 358.663 -0.280906 2.27472 0
M  V30 3546 C 359.663 -0.902454 1.33088 0
M  V30 3547 O 360.853 -0.768465 1.56334 0
M  V30 3548 C 357.985 -1.40209 3.10732 0
M  V30 3549 H 359.178 0.401056 2.97206 0
M  V30 3550 H 356.731 0.246131 1.5435 0
M  V30 3551 H 357.466 -2.11849 2.45541 0
M  V30 3552 H 357.251 -0.961969 3.80117 0
M  V30 3553 H 358.741 -1.9464 3.69466 0
M  V30 3554 N 359.178 -1.55987 0.224894 0
M  V30 3555 C 360.403 -2.03232 -0.41369 0
M  V30 3556 C 360.828 -1.10359 -1.52323 0
M  V30 3557 O 360.186 -0.092395 -1.81064 0
M  V30 3558 C 360.234 -3.48682 -0.919405 0
M  V30 3559 O 359.338 -3.58947 -2.03054 0
M  V30 3560 H 358.679 -0.657428 -0.0931903 0
M  V30 3561 H 361.209 -2.01679 0.34451 0
M  V30 3562 H 361.219 -3.8907 -1.22835 0
M  V30 3563 H 359.894 -4.15761 -0.107339 0
M  V30 3564 H 358.471 -3.30448 -1.72796 0
M  V30 3565 N 360.656 0.0484629 -1.57525 0
M  V30 3566 C 361.589 1.08755 -2.00618 0
M  V30 3567 C 362.567 1.36272 -0.887058 0
M  V30 3568 O 363.751 1.49255 -1.15131 0
M  V30 3569 C 360.878 2.42675 -2.36277 0
M  V30 3570 C 359.924 2.31142 -3.58435 0
M  V30 3571 S 360.757 1.68326 -5.08357 0
M  V30 3572 C 361.913 3.03776 -5.47239 0
M  V30 3573 H 362.146 0.720415 -2.88439 0
M  V30 3574 H 359.679 0.257801 -1.52233 0
M  V30 3575 H 361.637 3.19699 -2.57494 0
M  V30 3576 H 360.298 2.76541 -1.48942 0
M  V30 3577 H 359.491 3.29957 -3.80978 0
M  V30 3578 H 359.093 1.62258 -3.36969 0
M  V30 3579 H 361.385 4.00106 -5.46737 0
M  V30 3580 H 362.328 2.85988 -6.47778 0
M  V30 3581 H 362.736 3.05456 -4.74718 0
M  V30 3582 N 362.134 1.5431 0.320358 0
M  V30 3583 C 363.383 1.7188 1.05546 0
M  V30 3584 C 363.696 0.501143 1.89071 0
M  V30 3585 O 364.902 0.558258 2.65699 0
M  V30 3586 C 363.358 3.04025 1.92605 0
M  V30 3587 C 362.966 4.33207 1.14176 0
M  V30 3588 C 364.71 3.30959 2.65832 0
M  V30 3589 C 362.617 5.56412 2.00399 0
M  V30 3590 H 361.547 0.640547 0.397763 0
M  V30 3591 H 364.198 1.80802 0.313522 0
M  V30 3592 H 362.58 2.89019 2.7071 0
M  V30 3593 H 363.754 4.58989 0.40819 0
M  V30 3594 H 362.069 4.13062 0.526165 0
M  V30 3595 H 364.666 4.20203 3.30656 0
M  V30 3596 H 365.009 2.48979 3.33639 0
M  V30 3597 H 365.542 3.46847 1.94787 0
M  V30 3598 H 362.281 6.41004 1.37094 0
M  V30 3599 H 361.801 5.34844 2.7148 0
M  V30 3600 H 363.48 5.92938 2.58908 0
M  V30 3601 N 363.613 -0.582584 1.46437 0
M  V30 3602 C 364.859 -1.34278 1.51978 0
M  V30 3603 C 365.192 -1.93446 0.170973 0
M  V30 3604 O 364.467 -1.76481 -0.817608 0
M  V30 3605 C 364.75 -2.47203 2.61845 0
M  V30 3606 C 364.603 -1.93069 4.06257 0
M  V30 3607 C 365.922 -3.49247 2.67795 0
M  V30 3608 H 363.041 -0.486876 0.553282 0
M  V30 3609 H 365.683 -0.654437 1.78374 0
M  V30 3610 H 363.833 -3.0592 2.39469 0
M  V30 3611 H 365.505 -1.38808 4.3992 0
M  V30 3612 H 363.748 -1.23898 4.1573 0
M  V30 3613 H 364.419 -2.74586 4.7886 0
M  V30 3614 H 366.895 -3.00411 2.8791 0
M  V30 3615 H 365.771 -4.25719 3.46489 0
M  V30 3616 H 366.032 -4.06482 1.73852 0
M  V30 3617 N 365.091 -1.34144 -0.827227 0
M  V30 3618 C 366.024 -1.19707 -1.94282 0
M  V30 3619 C 367.002 -0.0897256 -1.62352 0
M  V30 3620 O 368.186 -0.254095 -1.8678 0
M  V30 3621 C 365.313 -0.838646 -3.28153 0
M  V30 3622 C 364.359 -1.95514 -3.79047 0
M  V30 3623 S 365.192 -3.56793 -3.99323 0
M  V30 3624 C 366.348 -3.22983 -5.36127 0
M  V30 3625 H 366.581 -2.1414 -2.06231 0
M  V30 3626 H 364.114 -1.19121 -0.982321 0
M  V30 3627 H 366.072 -0.638637 -4.05502 0
M  V30 3628 H 364.733 0.0872776 -3.13979 0
M  V30 3629 H 363.926 -1.658 -4.75948 0
M  V30 3630 H 363.528 -2.11241 -3.08631 0
M  V30 3631 H 365.82 -2.74531 -6.19386 0
M  V30 3632 H 366.763 -4.19008 -5.70822 0
M  V30 3633 H 367.171 -2.59276 -5.01434 0
M  V30 3634 N 366.569 1.04691 -1.17803 0
M  V30 3635 C 367.794 1.81984 -0.994813 0
M  V30 3636 C 368.219 1.82586 0.452112 0
M  V30 3637 O 367.577 1.23854 1.324 0
M  V30 3638 C 367.625 3.2575 -1.54659 0
M  V30 3639 O 366.729 4.05267 -0.763728 0
M  V30 3640 H 366.07 0.562483 -0.352857 0
M  V30 3641 H 368.6 1.3189 -1.56417 0
M  V30 3642 H 368.61 3.76541 -1.57102 0
M  V30 3643 H 367.285 3.24627 -2.59981 0
M  V30 3644 H 365.862 3.63972 -0.811108 0
M  V30 3645 N 368.047 0.979072 1.23499 0
M  V30 3646 C 368.997 0.489378 2.22686 0
M  V30 3647 C 369.981 -0.434871 1.54912 0
M  V30 3648 O 371.173 -0.263941 1.75021 0
M  V30 3649 C 368.302 -0.208178 3.42668 0
M  V30 3650 C 367.388 0.735563 4.17672 0
M  V30 3651 N 367.779 1.87763 4.69658 0
M  V30 3652 C 366.077 0.548625 4.42613 0
M  V30 3653 C 366.778 2.46886 5.26709 0
M  V30 3654 N 365.754 1.75287 5.14563 0
M  V30 3655 H 369.556 1.36062 2.60508 0
M  V30 3656 H 367.07 0.83958 1.39014 0
M  V30 3657 H 369.067 -0.576295 4.12898 0
M  V30 3658 H 367.727 -1.07572 3.06363 0
M  V30 3659 H 368.738 2.25885 4.66043 0
M  V30 3660 H 365.415 -0.274006 4.166 0
M  V30 3661 H 366.805 3.43326 5.77561 0
M  V30 3662 N 369.525 -1.3858 0.750561 0
M  V30 3663 C 370.75 -2.04997 0.314812 0
M  V30 3664 C 371.175 -1.56235 -1.04749 0
M  V30 3665 O 370.533 -0.712981 -1.66692 0
M  V30 3666 C 370.581 -3.58961 0.343415 0
M  V30 3667 O 369.685 -4.07025 -0.663628 0
M  V30 3668 H 369.026 -0.649081 0.139962 0
M  V30 3669 H 371.556 -1.77313 1.02084 0
M  V30 3670 H 371.566 -4.07542 0.193233 0
M  V30 3671 H 370.241 -3.93811 1.33738 0
M  V30 3672 H 368.818 -3.6982 -0.478307 0
M  V30 3673 N 371.003 -0.499398 -1.49478 0
M  V30 3674 C 371.966 0.268838 -2.27618 0
M  V30 3675 C 372.966 0.895383 -1.33565 0
M  V30 3676 O 374.156 0.760164 -1.56739 0
M  V30 3677 C 371.288 1.38559 -3.11471 0
M  V30 3678 H 372.481 -0.416812 -2.96989 0
M  V30 3679 H 370.034 -0.254313 -1.54217 0
M  V30 3680 H 370.769 2.10544 -2.46661 0
M  V30 3681 H 370.554 0.941797 -3.80621 0
M  V30 3682 H 372.044 1.92678 -3.70493 0
M  V30 3683 N 372.481 1.55866 -0.233164 0
M  V30 3684 C 373.892 1.847 0.272554 0
M  V30 3685 C 374.243 1.15477 1.58617 0
M  V30 3686 O 373.368 0.42841 2.12117 0
M  V30 3687 C 373.963 3.35071 0.501299 0
M  V30 3688 C 372.522 3.6418 0.951304 0
M  V30 3689 C 371.669 2.77292 0.0208209 0
M  V30 3690 H 374.62 1.52005 -0.456074 0
M  V30 3691 H 374.641 3.55906 1.34577 0
M  V30 3692 H 374.153 3.85424 -0.454936 0
M  V30 3693 H 372.254 3.19293 1.92049 0
M  V30 3694 H 372.367 4.72071 0.817675 0
M  V30 3695 H 370.731 2.49131 0.529723 0
M  V30 3696 H 371.514 3.30448 -0.93054 0
M  V30 3697 N 373.959 -0.0401083 1.57549 0
M  V30 3698 C 375.236 -0.767917 1.79896 0
M  V30 3699 C 375.616 -1.9416 0.82856 0
M  V30 3700 O 374.964 -2.2812 -0.131671 0
M  V30 3701 C 375.174 -1.2113 3.27305 0
M  V30 3702 C 376.522 -1.63175 3.91994 0
M  V30 3703 O 377.546 -1.30616 3.31388 0
M  V30 3704 O 376.405 -2.23565 4.98679 0
M  V30 3705 H 373.499 -0.370441 0.739393 0
M  V30 3706 H 376.045 -0.017737 1.69691 0
M  V30 3707 H 374.817 -0.372937 3.89519 0
M  V30 3708 H 374.44 -2.02183 3.42356 0
M  V30 3709 N 375.437 -1.54477 -0.31217 0
M  V30 3710 C 376.662 -1.77526 -1.07235 0
M  V30 3711 C 377.087 -0.527775 -1.80544 0
M  V30 3712 O 376.445 0.52121 -1.73646 0
M  V30 3713 C 376.493 -2.97535 -2.03728 0
M  V30 3714 O 375.597 -2.69878 -3.11833 0
M  V30 3715 H 374.938 -0.58792 -0.30862 0
M  V30 3716 H 377.468 -2.01532 -0.352993 0
M  V30 3717 H 377.478 -3.25198 -2.46395 0
M  V30 3718 H 376.153 -3.87996 -1.49774 0
M  V30 3719 H 374.73 -2.53199 -2.7376 0
M  V30 3720 N 376.915 0.57481 -1.46744 0
M  V30 3721 C 378.331 0.898981 -1.31873 0
M  V30 3722 C 378.531 1.99313 -0.29605 0
M  V30 3723 O 377.587 2.50728 0.298621 0
M  V30 3724 C 378.9 1.30886 -2.7072 0
M  V30 3725 C 380.448 1.42127 -2.78871 0
M  V30 3726 C 380.923 1.86478 -4.18318 0
M  V30 3727 N 382.414 1.93658 -4.20774 0
M  V30 3728 C 383.149 2.29267 -5.2557 0
M  V30 3729 N 382.645 2.63612 -6.40688 0
M  V30 3730 N 384.438 2.29889 -5.1294 0
M  V30 3731 H 376.589 -0.147839 -2.11885 0
M  V30 3732 H 378.852 -0.00347013 -0.947994 0
M  V30 3733 H 378.558 0.578853 -3.46904 0
M  V30 3734 H 378.432 2.26874 -3.01343 0
M  V30 3735 H 380.819 2.14213 -2.0297 0
M  V30 3736 H 380.9 0.443705 -2.51922 0
M  V30 3737 H 380.544 1.14968 -4.94717 0
M  V30 3738 H 380.474 2.85207 -4.42679 0
M  V30 3739 H 382.965 1.69574 -3.37718 0
M  V30 3740 H 383.278 2.89759 -7.16421 0
M  V30 3741 H 381.623 2.61232 -6.44036 0
M  V30 3742 H 384.814 2.02485 -4.22039 0
M  V30 3743 H 384.987 2.57312 -5.94722 0
M  V30 3744 N 378.394 1.34581 0.820102 0
M  V30 3745 C 379.357 1.2628 1.91275 0
M  V30 3746 C 380.357 0.177344 1.59819 0
M  V30 3747 O 381.547 0.430156 1.68806 0
M  V30 3748 C 378.679 0.950327 3.27386 0
M  V30 3749 H 379.872 2.23421 2.00057 0
M  V30 3750 H 377.425 1.1891 1.0144 0
M  V30 3751 H 378.16 -0.0177938 3.24295 0
M  V30 3752 H 377.945 1.73549 3.51601 0
M  V30 3753 H 379.435 0.917492 4.07396 0
M  V30 3754 N 379.872 -1.04064 1.18357 0
M  V30 3755 C 380.835 -2.10243 0.912707 0
M  V30 3756 C 381.835 -1.60477 -0.101928 0
M  V30 3757 O 383.025 -1.73703 0.131517 0
M  V30 3758 C 380.157 -3.38893 0.369387 0
M  V30 3759 H 381.35 -2.35706 1.85426 0
M  V30 3760 H 378.903 -1.20489 0.995594 0
M  V30 3761 H 379.638 -3.19094 -0.578776 0
M  V30 3762 H 379.423 -3.76331 1.1008 0
M  V30 3763 H 380.913 -4.17128 0.198575 0
M  V30 3764 N 381.35 -0.985608 -1.22978 0
M  V30 3765 C 382.599 -0.652881 -1.90841 0
M  V30 3766 C 382.912 0.817842 -1.77681 0
M  V30 3767 O 384.118 1.26185 -2.40395 0
M  V30 3768 C 382.574 -1.11717 -3.42122 0
M  V30 3769 C 382.182 -2.6126 -3.63933 0
M  V30 3770 C 383.926 -0.85843 -4.1573 0
M  V30 3771 C 381.833 -3.0133 -5.08876 0
M  V30 3772 H 380.763 -0.240491 -0.714619 0
M  V30 3773 H 383.414 -1.1942 -1.39324 0
M  V30 3774 H 381.796 -0.504027 -3.92779 0
M  V30 3775 H 382.97 -3.27858 -3.23799 0
M  V30 3776 H 381.285 -2.84937 -3.03644 0
M  V30 3777 H 383.882 -1.13359 -5.22546 0
M  V30 3778 H 384.225 0.205461 -4.15793 0
M  V30 3779 H 384.758 -1.43341 -3.71077 0
M  V30 3780 H 381.497 -4.06864 -5.13947 0
M  V30 3781 H 381.017 -2.3943 -5.49939 0
M  V30 3782 H 382.696 -2.92224 -5.77247 0
M  V30 3783 N 382.828 1.3818 -0.7579 0
M  V30 3784 C 384.056 2.04301 -0.326937 0
M  V30 3785 C 384.471 1.57163 1.0462 0
M  V30 3786 O 383.828 0.746626 1.66529 0
M  V30 3787 C 383.879 3.59846 -0.345363 0
M  V30 3788 O 383.6 4.05256 -1.66432 0
M  V30 3789 C 385.101 4.4319 0.098927 0
M  V30 3790 H 382.321 0.656443 -0.139012 0
M  V30 3791 H 384.865 1.76786 -1.02796 0
M  V30 3792 H 383.02 3.86182 0.306955 0
M  V30 3793 H 383.434 4.99709 -1.59345 0
M  V30 3794 H 384.908 5.51989 0.0348745 0
M  V30 3795 H 385.385 4.23947 1.14741 0
M  V30 3796 H 385.991 4.22051 -0.52468 0
M  V30 3797 N 384.306 0.507319 1.49211 0
M  V30 3798 C 385.256 -0.287112 2.26185 0
M  V30 3799 C 386.24 -0.929983 1.31302 0
M  V30 3800 O 387.432 -0.836538 1.55984 0
M  V30 3801 C 384.561 -1.34718 3.15763 0
M  V30 3802 C 383.647 -0.710235 4.18111 0
M  V30 3803 N 384.038 0.190836 5.0544 0
M  V30 3804 C 382.336 -0.97009 4.35322 0
M  V30 3805 C 383.037 0.55606 5.79036 0
M  V30 3806 N 382.013 -0.0775232 5.43545 0
M  V30 3807 H 385.815 0.406445 2.91076 0
M  V30 3808 H 383.329 0.323814 1.59139 0
M  V30 3809 H 385.326 -1.92982 3.69545 0
M  V30 3810 H 383.986 -2.04235 2.52424 0
M  V30 3811 H 384.997 0.562047 5.14841 0
M  V30 3812 H 381.674 -1.65753 3.83187 0
M  V30 3813 H 383.064 1.2936 6.5933 0
M  V30 3814 N 385.784 -1.5574 0.241426 0
M  V30 3815 C 387.012 -2.03208 -0.389134 0
M  V30 3816 C 387.427 -1.12082 -1.51931 0
M  V30 3817 O 386.784 -0.134183 -1.82006 0
M  V30 3818 C 386.835 -3.50064 -0.902087 0
M  V30 3819 O 386.556 -4.37717 0.18305 0
M  V30 3820 C 388.057 -4.13268 -1.60389 0
M  V30 3821 H 385.277 -0.664509 -0.0931053 0
M  V30 3822 H 387.821 -2.0124 0.36369 0
M  V30 3823 H 385.976 -3.52583 -1.60511 0
M  V30 3824 H 386.39 -5.24097 -0.205579 0
M  V30 3825 H 387.864 -5.17733 -1.91458 0
M  V30 3826 H 388.341 -3.59434 -2.52397 0
M  V30 3827 H 388.947 -4.14655 -0.945576 0
M  V30 3828 N 387.262 0.0317525 -1.57568 0
M  V30 3829 C 388.225 1.01783 -2.0536 0
M  V30 3830 C 389.225 1.29203 -0.957253 0
M  V30 3831 O 390.415 1.24251 -1.22095 0
M  V30 3832 C 387.547 2.35137 -2.46827 0
M  V30 3833 H 388.74 0.605062 -2.93733 0
M  V30 3834 H 386.293 0.278514 -1.53799 0
M  V30 3835 H 387.028 2.81168 -1.61602 0
M  V30 3836 H 386.813 2.16566 -3.26866 0
M  V30 3837 H 388.303 3.05938 -2.84239 0
M  V30 3838 N 388.74 1.54641 0.303973 0
M  V30 3839 C 390.156 1.45788 0.649463 0
M  V30 3840 C 390.356 0.64666 1.90842 0
M  V30 3841 O 389.412 0.153183 2.52035 0
M  V30 3842 C 390.725 2.89718 0.805227 0
M  V30 3843 C 392.273 2.99742 0.901305 0
M  V30 3844 C 392.748 4.44863 1.08909 0
M  V30 3845 N 394.239 4.48559 1.15536 0
M  V30 3846 C 394.974 5.58026 1.3189 0
M  V30 3847 N 394.47 6.77422 1.45161 0
M  V30 3848 N 396.263 5.45708 1.34755 0
M  V30 3849 H 388.414 2.05854 -0.523237 0
M  V30 3850 H 390.677 0.932186 -0.172431 0
M  V30 3851 H 390.383 3.51666 -0.0489108 0
M  V30 3852 H 390.257 3.36964 1.69513 0
M  V30 3853 H 392.644 2.3791 1.74593 0
M  V30 3854 H 392.725 2.55797 -0.0125531 0
M  V30 3855 H 392.369 5.07288 0.249241 0
M  V30 3856 H 392.299 4.86436 2.01713 0
M  V30 3857 H 394.79 3.6254 1.06646 0
M  V30 3858 H 395.103 7.56604 1.57387 0
M  V30 3859 H 393.448 6.80292 1.42223 0
M  V30 3860 H 396.639 4.51378 1.23996 0
M  V30 3861 H 396.812 6.3107 1.47157 0
M  V30 3862 N 390.218 -0.567019 1.47046 0
M  V30 3863 C 391.151 -1.69016 1.53326 0
M  V30 3864 C 392.129 -1.57949 0.386126 0
M  V30 3865 O 393.313 -1.78945 0.592529 0
M  V30 3866 C 390.44 -3.07191 1.42658 0
M  V30 3867 C 389.486 -3.36733 2.6175 0
M  V30 3868 S 390.319 -3.27069 4.24012 0
M  V30 3869 C 391.475 -4.67755 4.1588 0
M  V30 3870 H 391.708 -1.63434 2.48348 0
M  V30 3871 H 389.241 -0.747048 1.35124 0
M  V30 3872 H 391.199 -3.86897 1.37191 0
M  V30 3873 H 389.86 -3.10249 0.490369 0
M  V30 3874 H 389.053 -4.37441 2.50323 0
M  V30 3875 H 388.655 -2.64627 2.64289 0
M  V30 3876 H 390.947 -5.58491 3.83529 0
M  V30 3877 H 391.89 -4.84239 5.16641 0
M  V30 3878 H 392.298 -4.45341 3.46889 0
M  V30 3879 N 391.696 -1.35014 -0.812953 0
M  V30 3880 C 392.659 -1.27292 -1.90602 0
M  V30 3881 C 393.659 -0.185817 -1.59723 0
M  V30 3882 O 394.849 -0.439102 -1.68575 0
M  V30 3883 C 391.981 -0.967676 -3.26877 0
M  V30 3884 H 393.174 -2.24479 -1.9887 0
M  V30 3885 H 390.727 -1.19446 -1.00808 0
M  V30 3886 H 391.462 0.0005954 -3.243 0
M  V30 3887 H 391.247 -1.75412 -3.50675 0
M  V30 3888 H 392.737 -0.939085 -4.06904 0
M  V30 3889 N 393.175 1.03435 -1.18907 0
M  V30 3890 C 394.452 1.73778 -0.89781 0
M  V30 3891 C 394.832 2.02458 0.597832 0
M  V30 3892 O 394.18 1.67482 1.55441 0
M  V30 3893 C 394.39 3.01845 -1.75187 0
M  V30 3894 C 395.738 3.7546 -1.9828 0
M  V30 3895 O 396.762 3.11759 -1.72293 0
M  V30 3896 O 395.621 4.89966 -2.42065 0
M  V30 3897 H 392.715 0.75651 -0.334098 0
M  V30 3898 H 395.261 1.09444 -1.29693 0
M  V30 3899 H 394.033 2.76836 -2.76545 0
M  V30 3900 H 393.656 3.73919 -1.35167 0
M  V30 3901 N 394.653 0.992116 1.22453 0
M  V30 3902 C 395.6 0.541731 2.24352 0
M  V30 3903 C 396.57 -0.425519 1.60557 0
M  V30 3904 O 397.755 -0.330453 1.87917 0
M  V30 3905 C 394.895 -0.138248 3.44823 0
M  V30 3906 C 394.008 0.870649 4.23136 0
M  V30 3907 C 393.143 0.164269 5.30946 0
M  V30 3908 C 392.182 1.16159 6.00977 0
M  V30 3909 N 391.319 0.483568 7.00433 0
M  V30 3910 H 396.159 1.41541 2.62241 0
M  V30 3911 H 393.696 0.709013 1.28885 0
M  V30 3912 H 395.654 -0.5494 4.13567 0
M  V30 3913 H 394.284 -0.975721 3.077 0
M  V30 3914 H 393.336 1.40013 3.53696 0
M  V30 3915 H 394.648 1.63014 4.7141 0
M  V30 3916 H 393.802 -0.303653 6.0594 0
M  V30 3917 H 392.541 -0.627733 4.83643 0
M  V30 3918 H 391.546 1.64015 5.24766 0
M  V30 3919 H 392.771 1.95445 6.50368 0
M  V30 3920 H 390.717 -0.289012 6.55363 0
M  V30 3921 H 390.634 1.18152 7.4671 0
M  V30 3922 H 391.902 0.0384219 7.79491 0
M  V30 3923 N 396.131 -1.37776 0.765217 0
M  V30 3924 C 397.061 -2.32945 0.160953 0
M  V30 3925 C 398.042 -1.55454 -0.690516 0
M  V30 3926 O 399.227 -1.83721 -0.629318 0
M  V30 3927 C 396.357 -3.39669 -0.724031 0
M  V30 3928 C 395.311 -4.27992 0.0256173 0
M  V30 3929 C 394.637 -5.25673 -0.978383 0
M  V30 3930 C 395.937 -5.08309 1.20082 0
M  V30 3931 H 397.631 -2.83728 0.955969 0
M  V30 3932 H 395.177 -1.36416 0.461149 0
M  V30 3933 H 397.13 -4.05219 -1.15652 0
M  V30 3934 H 395.854 -2.87396 -1.5515 0
M  V30 3935 H 394.513 -3.63964 0.438812 0
M  V30 3936 H 394.161 -4.69682 -1.80022 0
M  V30 3937 H 393.861 -5.85625 -0.481378 0
M  V30 3938 H 395.385 -5.94098 -1.40995 0
M  V30 3939 H 396.799 -5.67034 0.845307 0
M  V30 3940 H 395.196 -5.77554 1.62947 0
M  V30 3941 H 396.266 -4.41365 2.00811 0
M  V30 3942 N 397.609 -0.515225 -1.4894 0
M  V30 3943 C 399.025 -0.172099 -1.58669 0
M  V30 3944 C 399.225 1.32405 -1.51892 0
M  V30 3945 O 398.281 2.10116 -1.40027 0
M  V30 3946 C 399.594 -0.761533 -2.90897 0
M  V30 3947 C 401.142 -0.728926 -3.04394 0
M  V30 3948 C 401.617 -1.29667 -4.39261 0
M  V30 3949 N 403.108 -1.25799 -4.4579 0
M  V30 3950 C 403.843 -1.66733 -5.48623 0
M  V30 3951 N 403.339 -2.15327 -6.58488 0
M  V30 3952 N 405.132 -1.58061 -5.39419 0
M  V30 3953 H 397.283 -1.48778 -1.51588 0
M  V30 3954 H 399.546 -0.617968 -0.718901 0
M  V30 3955 H 399.252 -1.81136 -3.01468 0
M  V30 3956 H 399.126 -0.230106 -3.76497 0
M  V30 3957 H 401.513 0.312098 -2.93445 0
M  V30 3958 H 401.594 -1.29766 -2.20442 0
M  V30 3959 H 401.238 -2.33655 -4.50963 0
M  V30 3960 H 401.168 -0.703752 -5.21876 0
M  V30 3961 H 403.659 -0.902102 -3.66975 0
M  V30 3962 H 403.972 -2.44594 -7.33071 0
M  V30 3963 H 402.317 -2.19311 -6.59491 0
M  V30 3964 H 405.508 -1.19906 -4.52482 0
M  V30 3965 H 405.681 -1.90284 -6.19432 0
M  V30 3966 O 399.126 1.56684 -0.391475 0
M  V30 3967 H 399.817 1.93093 0.153177 0
M  V30 END ATOM
M  V30 BEGIN BOND
M  V30 END BOND
M  V30 END CTAB
M  END
$$$$
