drugbank_target|C9EH48 Multidrug translocase MdfA (DB00759)
 OpenBabel12092121043D

  0  0  0     0  0            999 V3000
M  V30 BEGIN CTAB
M  V30 COUNTS 1452 1469 0 0 0
M  V30 BEGIN ATOM
M  V30 1 H -0.908 1.98254 -0.117106 0
M  V30 2 N 0 1.576 0 0
M  V30 3 C 1.249 1.89747 0.684041 0
M  V30 4 C 1.562 0.87501 1.74937 0
M  V30 5 O 2.768 1.0867 2.48803 0
M  V30 6 C 1.224 3.36829 1.26783 0
M  V30 7 C 0.832 4.47371 0.237329 0
M  V30 8 C 2.576 3.78085 1.93007 0
M  V30 9 C 0.483 5.85531 0.831114 0
M  V30 10 H -0.587 0.708028 0.259253 0
M  V30 11 H 2.064 1.834 -0.060544 0
M  V30 12 H 0.446 3.38013 2.06309 0
M  V30 13 H 1.62 4.57703 -0.53333 0
M  V30 14 H -0.065 4.15134 -0.324463 0
M  V30 15 H 2.532 4.78644 2.38337 0
M  V30 16 H 2.875 3.116 2.76063 0
M  V30 17 H 3.408 3.79201 1.20215 0
M  V30 18 H 0.147 6.55488 0.0393298 0
M  V30 19 H -0.333 5.78862 1.57093 0
M  V30 20 H 1.346 6.33188 1.32975 0
M  V30 21 N 1.4781 -0.272755 1.55222 0
M  V30 22 C 2.4101 -1.35946 1.8453 0
M  V30 23 C 3.4231 -1.45525 0.729818 0
M  V30 24 O 4.6121 -1.47337 1.00767 0
M  V30 25 C 1.7121 -2.74069 1.99347 0
M  V30 26 C 0.8851 -2.87079 3.30007 0
M  V30 27 C -0.0559 -4.05879 3.34886 0
M  V30 28 O -1.0299 -3.96626 4.08261 0
M  V30 29 N 0.1721 -5.17857 2.62307 0
M  V30 30 H 2.9371 -1.11149 2.78327 0
M  V30 31 H 0.4981 -0.462869 1.55142 0
M  V30 32 H 2.4901 -3.51838 1.99981 0
M  V30 33 H 1.0601 -2.91688 1.12415 0
M  V30 34 H 0.2801 -1.96193 3.41909 0
M  V30 35 H 1.5681 -2.92701 4.16177 0
M  V30 36 H 0.9661 -5.28261 2.02377 0
M  V30 37 H -0.4769 -5.93855 2.68663 0
M  V30 38 N 2.9562 -1.48159 -0.537278 0
M  V30 39 C 4.3672 -1.49429 -1.11928 0
M  V30 40 C 4.7182 -0.26 -1.9447 0
M  V30 41 O 3.8432 0.633489 -2.0692 0
M  V30 42 C 4.4382 -2.70758 -2.03656 0
M  V30 43 C 2.9972 -2.74923 -2.57088 0
M  V30 44 C 2.1442 -2.42835 -1.3389 0
M  V30 45 H 5.0952 -1.55381 -0.322886 0
M  V30 46 H 5.1162 -2.48861 -2.87834 0
M  V30 47 H 4.6282 -3.60575 -1.43553 0
M  V30 48 H 2.7292 -1.89296 -3.20933 0
M  V30 49 H 2.8422 -3.76157 -2.9672 0
M  V30 50 H 1.2062 -1.93836 -1.65226 0
M  V30 51 H 1.9892 -3.34884 -0.755504 0
M  V30 52 N 4.4343 0.785586 -1.36625 0
M  V30 53 C 5.6823 1.54057 -1.30808 0
M  V30 54 C 6.0033 1.94683 0.111157 0
M  V30 55 O 5.2733 1.65241 1.05224 0
M  V30 56 H 3.8533 0.571354 -0.481211 0
M  V30 57 H 6.5153 0.935821 -1.70963 0
M  V30 58 H 5.6113 2.44637 -1.93801 0
M  V30 59 N 5.9124 1.20967 1.01018 0
M  V30 60 C 6.8454 0.907578 2.09376 0
M  V30 61 C 7.8234 -0.142868 1.61971 0
M  V30 62 O 9.0074 -0.0150391 1.88494 0
M  V30 63 C 6.1344 0.361791 3.36762 0
M  V30 64 C 5.1804 1.39423 4.03068 0
M  V30 65 S 6.0134 2.96159 4.4615 0
M  V30 66 C 7.1694 2.43173 5.7673 0
M  V30 67 H 7.4024 1.82519 2.34678 0
M  V30 68 H 4.9354 1.03884 1.14225 0
M  V30 69 H 6.8934 0.0534523 4.10465 0
M  V30 70 H 5.5544 -0.53443 3.0952 0
M  V30 71 H 4.7474 0.961853 4.94737 0
M  V30 72 H 4.3494 1.65038 3.35617 0
M  V30 73 H 6.6414 1.83335 6.52223 0
M  V30 74 H 7.5844 3.33264 6.24773 0
M  V30 75 H 7.9924 1.85069 5.33301 0
M  V30 76 N 7.3905 -1.2043 1.01659 0
M  V30 77 C 8.3205 -2.25466 0.607226 0
M  V30 78 C 9.3015 -1.65853 -0.377716 0
M  V30 79 O 10.4865 -1.92409 -0.263149 0
M  V30 80 C 7.6165 -3.47256 -0.0552949 0
M  V30 81 C 6.5705 -4.19462 0.850632 0
M  V30 82 C 5.8965 -5.34673 0.0538859 0
M  V30 83 C 7.1965 -4.75603 2.15868 0
M  V30 84 H 8.8905 -2.59962 1.48526 0
M  V30 85 H 6.4365 -1.2496 0.715605 0
M  V30 86 H 8.3895 -4.19917 -0.353233 0
M  V30 87 H 7.1135 -3.11924 -0.968045 0
M  V30 88 H 5.7725 -3.48667 1.13257 0
M  V30 89 H 5.4205 -4.95585 -0.860514 0
M  V30 90 H 5.1205 -5.83913 0.657192 0
M  V30 91 H 6.6445 -6.10138 -0.237598 0
M  V30 92 H 8.0585 -5.40083 1.92311 0
M  V30 93 H 6.4555 -5.3528 2.71284 0
M  V30 94 H 7.5255 -3.94346 2.82169 0
M  V30 95 N 8.8686 -0.792821 -1.36206 0
M  V30 96 C 9.8316 -0.199459 -2.2833 0
M  V30 97 C 10.8316 0.605189 -1.48977 0
M  V30 98 O 12.0216 0.425685 -1.68919 0
M  V30 99 C 9.1536 0.723523 -3.33134 0
M  V30 100 H 10.3466 -1.01181 -2.82316 0
M  V30 101 H 7.8996 -0.562485 -1.45828 0
M  V30 102 H 8.6346 1.56008 -2.84309 0
M  V30 103 H 8.4196 0.148436 -3.91819 0
M  V30 104 H 9.9096 1.13344 -4.01924 0
M  V30 105 N 10.3467 1.47872 -0.545128 0
M  V30 106 C 11.5927 2.02793 -0.0166104 0
M  V30 107 C 11.9257 1.41987 1.32489 0
M  V30 108 O 11.2007 0.571045 1.85928 0
M  V30 109 C 11.4837 3.59989 0.0893294 0
M  V30 110 C 11.3367 4.3125 -1.27841 0
M  V30 111 C 12.6557 4.32606 0.808724 0
M  V30 112 H 9.7747 0.736962 -0.00751035 0
M  V30 113 H 12.4167 1.76433 -0.705085 0
M  V30 114 H 10.5667 3.82579 0.675681 0
M  V30 115 H 12.2387 4.20035 -1.90704 0
M  V30 116 H 10.4817 3.92076 -1.85632 0
M  V30 117 H 11.1527 5.39736 -1.15713 0
M  V30 118 H 13.6287 4.14936 0.310992 0
M  V30 119 H 12.5047 5.42251 0.851782 0
M  V30 120 H 12.7657 4.00963 1.86229 0
M  V30 121 N 11.8248 0.280983 1.55075 0
M  V30 122 C 13.0708 -0.33461 2.00021 0
M  V30 123 C 13.4038 -1.55063 1.16915 0
M  V30 124 O 12.6788 -1.93006 0.240646 0
M  V30 125 C 12.9618 -0.711007 3.53011 0
M  V30 126 C 12.8148 0.512766 4.46868 0
M  V30 127 C 14.1338 -1.54522 4.12081 0
M  V30 128 H 11.2528 -0.120147 0.727141 0
M  V30 129 H 13.8948 0.389097 1.85973 0
M  V30 130 H 12.0448 -1.32761 3.65112 0
M  V30 131 H 13.7168 1.15131 4.46702 0
M  V30 132 H 11.9598 1.14975 4.18286 0
M  V30 133 H 12.6308 0.205556 5.51617 0
M  V30 134 H 15.1068 -1.02442 4.03293 0
M  V30 135 H 13.9828 -1.77739 5.19327 0
M  V30 136 H 14.2438 -2.52813 3.62682 0
M  V30 137 N 13.3029 -1.57598 0.00835791 0
M  V30 138 C 14.2129 -2.12385 -0.996487 0
M  V30 139 C 15.2289 -1.07108 -1.37127 0
M  V30 140 O 16.4049 -1.39055 -1.4569 0
M  V30 141 C 13.4699 -2.62314 -2.26699 0
M  V30 142 C 12.5309 -3.82225 -1.95456 0
M  V30 143 C 11.7639 -4.29763 -3.16449 0
M  V30 144 O 11.9869 -3.76584 -4.28416 0
M  V30 145 O 10.9209 -5.21832 -2.99958 0
M  V30 146 H 14.7469 -2.98479 -0.560725 0
M  V30 147 H 12.3319 -1.47903 -0.210987 0
M  V30 148 H 14.2139 -2.94589 -3.01322 0
M  V30 149 H 12.8889 -1.79313 -2.69497 0
M  V30 150 H 11.7959 -3.54909 -1.18282 0
M  V30 151 H 13.1289 -4.66324 -1.57489 0
M  V30 152 N 14.781 0.264519 -1.55364 0
M  V30 153 C 15.713 1.34965 -1.85248 0
M  V30 154 C 16.726 1.45136 -0.737525 0
M  V30 155 O 17.915 1.46801 -1.01547 0
M  V30 156 C 15.015 2.73008 -2.00797 0
M  V30 157 C 14.188 2.85324 -3.31525 0
M  V30 158 C 13.247 4.04097 -3.37034 0
M  V30 159 O 12.273 3.94455 -4.10358 0
M  V30 160 N 13.475 5.16458 -2.65049 0
M  V30 161 H 16.24 1.09672 -2.78913 0
M  V30 162 H 13.801 0.454635 -1.55386 0
M  V30 163 H 15.793 3.50772 -2.01844 0
M  V30 164 H 14.363 2.91087 -1.1396 0
M  V30 165 H 13.583 1.94377 -3.42945 0
M  V30 166 H 14.871 2.9049 -4.17724 0
M  V30 167 H 14.269 5.27181 -2.05175 0
M  V30 168 H 12.826 5.92422 -2.71809 0
M  V30 169 N 16.2591 1.48442 0.529413 0
M  V30 170 C 17.4891 1.59919 1.30804 0
M  V30 171 C 17.8971 0.258792 1.87422 0
M  V30 172 O 17.2401 -0.762096 1.67146 0
M  V30 173 C 17.3021 2.58693 2.49636 0
M  V30 174 C 16.9661 4.03745 2.14101 0
M  V30 175 C 17.9631 4.9141 1.6974 0
M  V30 176 C 15.6481 4.49285 2.24607 0
M  V30 177 C 17.6421 6.22645 1.36351 0
M  V30 178 C 15.3291 5.8054 1.9083 0
M  V30 179 C 16.3271 6.67043 1.46773 0
M  V30 180 O 16.0151 7.95856 1.1344 0
M  V30 181 H 15.7471 0.541981 0.404021 0
M  V30 182 H 18.3011 1.95 0.645309 0
M  V30 183 H 16.5311 2.18734 3.18892 0
M  V30 184 H 18.2201 2.59999 3.11698 0
M  V30 185 H 18.9861 4.57465 1.61094 0
M  V30 186 H 14.8651 3.82142 2.57854 0
M  V30 187 H 18.4091 6.90119 1.01891 0
M  V30 188 H 14.3061 6.14022 1.99117 0
M  V30 189 H 15.0741 8.08613 1.26832 0
M  V30 190 N 17.7372 -0.778329 1.37039 0
M  V30 191 C 18.6692 -1.90034 1.2814 0
M  V30 192 C 19.6822 -1.61585 0.198558 0
M  V30 193 O 20.8712 -1.72625 0.454175 0
M  V30 194 C 17.9712 -3.25108 0.956968 0
M  V30 195 C 17.1442 -3.81253 2.14394 0
M  V30 196 C 16.2032 -4.94789 1.79082 0
M  V30 197 O 15.2292 -5.10721 2.51301 0
M  V30 198 N 16.4312 -5.75878 0.731043 0
M  V30 199 H 19.1962 -1.98186 2.24816 0
M  V30 200 H 16.7572 -0.957129 1.30578 0
M  V30 201 H 18.7492 -3.9857 0.701701 0
M  V30 202 H 17.3192 -3.125 0.0789812 0
M  V30 203 H 16.5392 -2.99647 2.56135 0
M  V30 204 H 17.8272 -4.15495 2.93668 0
M  V30 205 H 17.2252 -5.65547 0.131618 0
M  V30 206 H 15.7822 -6.49596 0.535622 0
M  V30 207 N 19.2153 -1.21501 -1.00376 0
M  V30 208 C 20.1783 -0.976927 -2.07337 0
M  V30 209 C 21.1783 0.0525322 -1.60714 0
M  V30 210 O 22.3683 -0.184869 -1.73216 0
M  V30 211 C 19.5003 -0.473423 -3.37597 0
M  V30 212 H 20.6933 -1.92587 -2.29892 0
M  V30 213 H 18.2463 -1.03217 -1.17371 0
M  V30 214 H 18.9813 0.480379 -3.20722 0
M  V30 215 H 18.7663 -1.216 -3.72768 0
M  V30 216 H 20.2563 -0.32675 -4.1632 0
M  V30 217 N 20.6934 1.19889 -1.02296 0
M  V30 218 C 21.9414 1.89046 -0.714558 0
M  V30 219 C 22.2624 1.79636 0.758681 0
M  V30 220 O 21.5324 1.20292 1.54618 0
M  V30 221 H 20.1124 0.699802 -0.261317 0
M  V30 222 H 22.7744 1.45574 -1.29592 0
M  V30 223 H 21.8704 2.95524 -1.0036 0
M  V30 224 N 22.1715 0.800033 1.35784 0
M  V30 225 C 23.4205 0.37387 1.98205 0
M  V30 226 C 23.7335 -1.06302 1.64193 0
M  V30 227 O 24.9395 -1.59198 2.19928 0
M  V30 228 C 23.3955 0.617532 3.54562 0
M  V30 229 C 23.0035 2.06654 3.9749 0
M  V30 230 C 24.7475 0.256401 4.23725 0
M  V30 231 C 22.6545 2.2563 5.46667 0
M  V30 232 H 21.5845 0.136055 0.741623 0
M  V30 233 H 24.2355 0.983166 1.54939 0
M  V30 234 H 22.6175 -0.0616248 3.95952 0
M  V30 235 H 23.7915 2.78296 3.67271 0
M  V30 236 H 22.1065 2.38691 3.41197 0
M  V30 237 H 24.7035 0.376318 5.33374 0
M  V30 238 H 25.0465 -0.796692 4.08606 0
M  V30 239 H 25.5795 0.889214 3.87734 0
M  V30 240 H 22.3185 3.2936 5.66747 0
M  V30 241 H 21.8385 1.58504 5.78478 0
M  V30 242 H 23.5175 2.06861 6.1304 0
M  V30 243 N 23.6496 -1.47581 0.552962 0
M  V30 244 C 24.9266 -1.95563 -0.0381515 0
M  V30 245 C 25.3066 -1.49552 -1.48988 0
M  V30 246 O 24.6546 -0.732414 -2.16444 0
M  V30 247 C 24.8646 -3.48848 0.102919 0
M  V30 248 C 26.2126 -4.24577 -0.0446082 0
M  V30 249 O 27.2366 -3.56187 0.0302548 0
M  V30 250 O 26.0956 -5.46116 -0.204923 0
M  V30 251 H 23.1896 -0.824321 -0.0665067 0
M  V30 252 H 25.7356 -1.58001 0.619186 0
M  V30 253 H 24.5076 -3.75129 1.11328 0
M  V30 254 H 24.1306 -3.93165 -0.592224 0
M  V30 255 N 25.1277 -0.289203 -1.54924 0
M  V30 256 C 26.3737 0.316922 -2.00916 0
M  V30 257 C 26.7287 1.52424 -1.17408 0
M  V30 258 O 26.0217 1.90097 -0.239536 0
M  V30 259 C 26.2157 0.736119 -3.49737 0
M  V30 260 C 26.0447 -0.429036 -4.47649 0
M  V30 261 C 24.8147 -0.917311 -4.96904 0
M  V30 262 C 27.0127 -1.27016 -4.98369 0
M  V30 263 N 24.9947 -2.05046 -5.78644 0
M  V30 264 C 26.3657 -2.25097 -5.77695 0
M  V30 265 C 28.4207 -1.30188 -4.80578 0
M  V30 266 C 27.1237 -3.26114 -6.41126 0
M  V30 267 C 29.1497 -2.30057 -5.44819 0
M  V30 268 C 28.5117 -3.2687 -6.23968 0
M  V30 269 H 24.6107 0.0807535 -0.777819 0
M  V30 270 H 27.1947 -0.416434 -1.90194 0
M  V30 271 H 25.3657 1.43867 -3.60773 0
M  V30 272 H 27.0977 1.32078 -3.82541 0
M  V30 273 H 23.8527 -0.494248 -4.71014 0
M  V30 274 H 24.2767 -2.62108 -6.24202 0
M  V30 275 H 28.9187 -0.567163 -4.18979 0
M  V30 276 H 26.6367 -4.00512 -7.01866 0
M  V30 277 H 30.2227 -2.33271 -5.32988 0
M  V30 278 H 29.1027 -4.02883 -6.72796 0
M  V30 279 N 26.6058 1.57591 -0.0167156 0
M  V30 280 C 27.8518 1.91567 0.665582 0
M  V30 281 C 28.1848 0.892298 1.72487 0
M  V30 282 O 27.4598 -0.0867127 1.94307 0
M  V30 283 C 27.7428 3.36069 1.29342 0
M  V30 284 C 27.5958 4.49135 0.244541 0
M  V30 285 C 28.9148 3.803 2.21495 0
M  V30 286 H 26.0338 0.69666 0.240488 0
M  V30 287 H 28.6758 1.89866 -0.0714356 0
M  V30 288 H 26.8258 3.3765 1.92158 0
M  V30 289 H 28.4978 4.59689 -0.385228 0
M  V30 290 H 26.7408 4.3165 -0.431379 0
M  V30 291 H 27.4118 5.47242 0.723207 0
M  V30 292 H 29.8878 3.80377 1.68678 0
M  V30 293 H 28.7638 4.82127 2.62382 0
M  V30 294 H 29.0248 3.15104 3.101 0
M  V30 295 N 28.0839 -0.256276 1.55502 0
M  V30 296 C 29.4949 -0.826068 1.67431 0
M  V30 297 C 29.8459 -1.86396 0.612446 0
M  V30 298 O 28.9709 -2.15031 -0.243025 0
M  V30 299 C 29.5659 -1.50512 3.03532 0
M  V30 300 C 28.1249 -2.02273 3.17431 0
M  V30 301 C 27.2719 -0.870548 2.63281 0
M  V30 302 H 30.2229 -0.0322728 1.58667 0
M  V30 303 H 30.2439 -2.37279 2.97454 0
M  V30 304 H 29.7559 -0.749484 3.80794 0
M  V30 305 H 27.8569 -2.80746 2.44974 0
M  V30 306 H 27.9699 -2.22655 4.24219 0
M  V30 307 H 26.3339 -1.26851 2.20864 0
M  V30 308 H 27.1169 -0.128149 3.43061 0
M  V30 309 N 29.562 -1.4872 -0.521534 0
M  V30 310 C 30.79 -1.60843 -1.30142 0
M  V30 311 C 31.205 -0.271897 -1.86832 0
M  V30 312 O 30.562 0.739969 -1.66825 0
M  V30 313 C 30.613 -2.66155 -2.4463 0
M  V30 314 O 30.334 -3.94623 -1.90275 0
M  V30 315 C 31.835 -2.88795 -3.36322 0
M  V30 316 H 29.055 -0.542075 -0.395468 0
M  V30 317 H 31.599 -1.94609 -0.628285 0
M  V30 318 H 29.754 -2.35224 -3.07812 0
M  V30 319 H 30.168 -4.52468 -2.65279 0
M  V30 320 H 31.642 -3.66264 -4.12983 0
M  V30 321 H 32.119 -1.97934 -3.9207 0
M  V30 322 H 32.725 -3.21063 -2.78924 0
M  V30 323 N 31.0401 0.771051 -1.3745 0
M  V30 324 C 32.2651 1.56529 -1.36065 0
M  V30 325 C 32.6901 1.88029 0.0515859 0
M  V30 326 O 32.0481 1.49282 1.02882 0
M  V30 327 C 32.0961 2.85187 -2.20683 0
M  V30 328 O 31.2001 3.79593 -1.61193 0
M  V30 329 H 30.5411 0.47411 -0.464883 0
M  V30 330 H 33.0711 0.954269 -1.80983 0
M  V30 331 H 33.0811 3.34283 -2.33921 0
M  V30 332 H 31.7561 2.61588 -3.23334 0
M  V30 333 H 30.3331 3.38239 -1.56999 0
M  V30 334 N 32.5182 1.22032 0.997298 0
M  V30 335 C 33.4512 0.929735 2.08401 0
M  V30 336 C 34.4292 -0.125681 1.62114 0
M  V30 337 O 35.6132 0.00495409 1.88499 0
M  V30 338 C 32.7402 0.397488 3.3636 0
M  V30 339 C 31.7862 1.4369 4.01566 0
M  V30 340 S 32.6192 3.00874 4.42984 0
M  V30 341 C 33.7752 2.49276 5.74119 0
M  V30 342 H 34.0082 1.84998 2.32729 0
M  V30 343 H 31.5412 1.0509 1.13117 0
M  V30 344 H 33.4992 0.0969846 4.10385 0
M  V30 345 H 32.1602 -0.501571 3.10069 0
M  V30 346 H 31.3532 1.01427 4.93689 0
M  V30 347 H 30.9552 1.68588 3.33847 0
M  V30 348 H 33.2472 1.90242 6.50242 0
M  V30 349 H 34.1902 3.39872 6.21203 0
M  V30 350 H 34.5982 1.90714 5.31308 0
M  V30 351 N 33.9963 -1.19345 1.0293 0
M  V30 352 C 35.2243 -1.92997 0.745644 0
M  V30 353 C 35.6393 -1.75519 -0.695589 0
M  V30 354 O 34.9963 -1.07737 -1.47306 0
M  V30 355 C 35.0473 -3.44741 1.08792 0
M  V30 356 O 34.7683 -3.61658 2.47256 0
M  V30 357 C 36.2693 -4.35515 0.827129 0
M  V30 358 H 33.4893 -0.613042 0.272801 0
M  V30 359 H 36.0333 -1.51473 1.3739 0
M  V30 360 H 34.1883 -3.84097 0.504832 0
M  V30 361 H 34.6023 -4.55514 2.60015 0
M  V30 362 H 36.0763 -5.40589 1.11658 0
M  V30 363 H 36.5533 -4.38552 -0.238436 0
M  V30 364 H 37.1593 -4.01841 1.39297 0
M  V30 365 N 35.4744 -0.807222 -1.35358 0
M  V30 366 C 36.4374 -0.223665 -2.28106 0
M  V30 367 C 37.4374 0.589354 -1.4961 0
M  V30 368 O 38.6274 0.407745 -1.69361 0
M  V30 369 C 35.7594 0.688149 -3.33882 0
M  V30 370 H 36.9524 -1.04169 -2.81227 0
M  V30 371 H 34.5054 -0.577921 -1.45223 0
M  V30 372 H 35.2404 1.52984 -2.85948 0
M  V30 373 H 35.0254 0.10687 -3.91954 0
M  V30 374 H 36.5154 1.09075 -4.03104 0
M  V30 375 N 36.9525 1.47285 -0.560781 0
M  V30 376 C 38.1825 2.06555 -0.0429638 0
M  V30 377 C 38.5905 1.41339 1.25777 0
M  V30 378 O 37.9335 0.505182 1.76617 0
M  V30 379 C 37.9955 3.58827 0.219887 0
M  V30 380 C 37.6595 4.46105 -0.991944 0
M  V30 381 C 38.6565 4.84 -1.89843 0
M  V30 382 C 36.3415 4.87567 -1.20762 0
M  V30 383 C 38.3355 5.6216 -3.00425 0
M  V30 384 C 36.0225 5.65491 -2.31653 0
M  V30 385 C 37.0205 6.02699 -3.21315 0
M  V30 386 O 36.7085 6.79052 -4.30283 0
M  V30 387 H 36.4405 0.674537 -0.0444468 0
M  V30 388 H 38.9945 1.90225 -0.774818 0
M  V30 389 H 37.2245 3.73383 1.00609 0
M  V30 390 H 38.9135 4.00103 0.683522 0
M  V30 391 H 39.6795 4.52564 -1.74387 0
M  V30 392 H 35.5585 4.5807 -0.518893 0
M  V30 393 H 39.1025 5.9112 -3.70436 0
M  V30 394 H 34.9995 5.9634 -2.47081 0
M  V30 395 H 35.7675 6.9745 -4.28376 0
M  V30 396 N 38.4306 0.297415 1.54768 0
M  V30 397 C 39.3606 -0.573494 2.26348 0
M  V30 398 C 40.3416 -1.14085 1.26169 0
M  V30 399 O 41.5266 -1.17086 1.54934 0
M  V30 400 C 38.6566 -1.74716 3.00153 0
M  V30 401 C 37.6106 -1.31032 4.07449 0
M  V30 402 C 36.9366 -2.56887 4.68949 0
M  V30 403 C 38.2366 -0.444183 5.20408 0
M  V30 404 H 39.9306 0.0235131 2.99391 0
M  V30 405 H 37.4766 0.0127488 1.43994 0
M  V30 406 H 39.4296 -2.3625 3.48947 0
M  V30 407 H 38.1536 -2.37035 2.24682 0
M  V30 408 H 36.8126 -0.718066 3.59499 0
M  V30 409 H 36.4606 -3.17512 3.90122 0
M  V30 410 H 36.1606 -2.2836 5.41411 0
M  V30 411 H 37.6846 -3.19229 5.20505 0
M  V30 412 H 39.0986 -0.9651 5.65118 0
M  V30 413 H 37.4956 -0.252846 5.99567 0
M  V30 414 H 38.5656 0.531609 4.81977 0
M  V30 415 N 39.9087 -1.5758 0.0250728 0
M  V30 416 C 40.8717 -2.08896 -0.943139 0
M  V30 417 C 41.8717 -1.00321 -1.25668 0
M  V30 418 O 43.0617 -1.26495 -1.19769 0
M  V30 419 C 40.1937 -2.55143 -2.26086 0
M  V30 420 H 41.3867 -2.95723 -0.498775 0
M  V30 421 H 38.9397 -1.54703 -0.222888 0
M  V30 422 H 39.6747 -1.71633 -2.75159 0
M  V30 423 H 39.4597 -3.34461 -2.04641 0
M  V30 424 H 40.9497 -2.95083 -2.95492 0
M  V30 425 N 41.3868 0.248026 -1.55636 0
M  V30 426 C 42.6348 0.974295 -1.77065 0
M  V30 427 C 42.9558 1.85897 -0.588849 0
M  V30 428 O 42.2258 1.91868 0.395407 0
M  V30 429 H 40.8058 0.362733 -0.653019 0
M  V30 430 H 43.4678 0.266244 -1.93073 0
M  V30 431 H 42.5638 1.59667 -2.68166 0
M  V30 432 N 42.8649 1.48995 0.513639 0
M  V30 433 C 44.1129 1.57531 1.26604 0
M  V30 434 C 44.4339 0.258236 1.93283 0
M  V30 435 O 43.7039 -0.721502 1.8213 0
M  V30 436 H 42.2839 0.580387 0.470276 0
M  V30 437 H 44.9459 1.85552 0.596373 0
M  V30 438 H 44.0419 2.36486 2.03669 0
M  V30 439 N 44.343 -0.763751 1.37857 0
M  V30 440 C 45.276 -1.88486 1.28639 0
M  V30 441 C 46.254 -1.61757 0.165363 0
M  V30 442 O 47.438 -1.85391 0.340948 0
M  V30 443 C 44.565 -3.23884 0.990811 0
M  V30 444 C 43.611 -3.69514 2.12983 0
M  V30 445 S 44.444 -3.82244 3.75033 0
M  V30 446 C 45.6 -5.20477 3.47641 0
M  V30 447 H 45.833 -1.96017 2.23527 0
M  V30 448 H 43.366 -0.925684 1.23574 0
M  V30 449 H 45.324 -4.02081 0.827101 0
M  V30 450 H 43.985 -3.14044 0.0592832 0
M  V30 451 H 43.178 -4.67696 1.87821 0
M  V30 452 H 42.78 -2.98441 2.25408 0
M  V30 453 H 45.072 -6.05905 3.03125 0
M  V30 454 H 46.015 -5.50655 4.4518 0
M  V30 455 H 46.423 -4.88793 2.82385 0
M  V30 456 N 45.8211 -1.22559 -0.990812 0
M  V30 457 C 47.0681 -1.05141 -1.73065 0
M  V30 458 C 47.3961 0.413191 -1.9006 0
M  V30 459 O 46.6511 1.32257 -1.44245 0
M  V30 460 C 46.9501 -1.71011 -3.13831 0
M  V30 461 C 46.6161 -3.20911 -3.16745 0
M  V30 462 C 45.2781 -3.61812 -3.17247 0
M  V30 463 C 47.6301 -4.16846 -3.12872 0
M  V30 464 C 44.9581 -4.97127 -3.1158 0
M  V30 465 C 47.3101 -5.5214 -3.08746 0
M  V30 466 C 45.9741 -5.92419 -3.07565 0
M  V30 467 H 45.2441 -0.384738 -0.633291 0
M  V30 468 H 47.8911 -1.5235 -1.16025 0
M  V30 469 H 46.1961 -1.16133 -3.74193 0
M  V30 470 H 47.8931 -1.55023 -3.69823 0
M  V30 471 H 44.4831 -2.88344 -3.17105 0
M  V30 472 H 48.6671 -3.86263 -3.11632 0
M  V30 473 H 43.9231 -5.27562 -3.09012 0
M  V30 474 H 48.0971 -6.26201 -3.04705 0
M  V30 475 H 45.7241 -6.97236 -3.02929 0
M  V30 476 N 47.2992 1.18797 -1.03562 0
M  V30 477 C 48.2292 2.24472 -0.643019 0
M  V30 478 C 49.2102 1.66433 0.351283 0
M  V30 479 O 50.3952 1.92803 0.232505 0
M  V30 480 C 47.5252 3.473 4.24935e-05 0
M  V30 481 C 46.4792 4.18055 -0.917257 0
M  V30 482 C 45.8052 5.34519 -0.138941 0
M  V30 483 C 47.1052 4.72109 -2.23407 0
M  V30 484 H 48.7992 2.57566 -1.52643 0
M  V30 485 H 46.3452 1.23806 -0.735394 0
M  V30 486 H 48.2982 4.20426 0.286383 0
M  V30 487 H 47.0222 3.13424 0.918299 0
M  V30 488 H 45.6812 3.46821 -1.1879 0
M  V30 489 H 45.3292 4.96891 0.781562 0
M  V30 490 H 45.0292 5.82794 -0.750005 0
M  V30 491 H 46.5532 6.10438 0.1405 0
M  V30 492 H 47.9672 5.36955 -2.00879 0
M  V30 493 H 46.3642 5.30897 -2.79765 0
M  V30 494 H 47.4342 3.89807 -2.88407 0
M  V30 495 N 48.7773 0.814389 1.34928 0
M  V30 496 C 49.7093 0.187834 2.28429 0
M  V30 497 C 50.7223 -0.617374 1.5064 0
M  V30 498 O 51.9113 -0.448454 1.72775 0
M  V30 499 C 49.0113 -0.755962 3.30361 0
M  V30 500 C 48.1843 0.00456686 4.374 0
M  V30 501 C 47.2433 -0.858876 5.19143 0
M  V30 502 O 46.2693 -0.306968 5.68372 0
M  V30 503 N 47.4713 -2.17988 5.38016 0
M  V30 504 H 50.2363 0.991105 2.82838 0
M  V30 505 H 47.7973 0.670561 1.4736 0
M  V30 506 H 49.7893 -1.338 3.81942 0
M  V30 507 H 48.3593 -1.46001 2.7641 0
M  V30 508 H 47.5793 0.767865 3.86649 0
M  V30 509 H 48.8673 0.528422 5.06049 0
M  V30 510 H 48.2653 -2.65212 4.99679 0
M  V30 511 H 46.8223 -2.71098 5.92747 0
M  V30 512 N 50.2554 -1.46986 0.568584 0
M  V30 513 C 51.5014 -2.0332 0.0571487 0
M  V30 514 C 51.8564 -1.43384 -1.28291 0
M  V30 515 O 51.1494 -0.584304 -1.82473 0
M  V30 516 C 51.3434 -3.57306 -0.081836 0
M  V30 517 C 51.1724 -4.32174 1.24321 0
M  V30 518 C 49.9424 -4.71633 1.81358 0
M  V30 519 C 52.1404 -4.66598 2.16312 0
M  V30 520 N 50.1224 -5.31191 3.07748 0
M  V30 521 C 51.4934 -5.26578 3.27285 0
M  V30 522 C 53.5484 -4.48527 2.16166 0
M  V30 523 C 52.2514 -5.70395 4.38226 0
M  V30 524 C 54.2774 -4.93351 3.26127 0
M  V30 525 C 53.6394 -5.5339 4.3582 0
M  V30 526 H 49.7384 -0.77943 0.063351 0
M  V30 527 H 52.3224 -1.79323 0.758378 0
M  V30 528 H 50.4934 -3.81046 -0.752207 0
M  V30 529 H 52.2254 -4.00282 -0.59637 0
M  V30 530 H 48.9804 -4.53946 1.35019 0
M  V30 531 H 49.4044 -5.65505 3.72201 0
M  V30 532 H 54.0464 -4.01456 1.32638 0
M  V30 533 H 51.7644 -6.16452 5.22506 0
M  V30 534 H 55.3504 -4.81131 3.27115 0
M  V30 535 H 54.2304 -5.87441 5.19503 0
M  V30 536 N 51.7335 -0.305618 -1.54608 0
M  V30 537 C 52.6635 0.561482 -2.26649 0
M  V30 538 C 53.6445 1.13415 -1.26772 0
M  V30 539 O 54.8295 1.16262 -1.55553 0
M  V30 540 C 51.9595 1.73122 -3.01075 0
M  V30 541 C 50.9135 1.2887 -4.08138 0
M  V30 542 C 50.2395 2.54396 -4.70305 0
M  V30 543 C 51.5395 0.416578 -5.20636 0
M  V30 544 H 53.2335 -0.0393902 -2.99374 0
M  V30 545 H 50.7795 -0.020385 -1.43986 0
M  V30 546 H 52.7325 2.34396 -3.50195 0
M  V30 547 H 51.4565 2.3584 -2.25936 0
M  V30 548 H 50.1155 0.698991 -3.59875 0
M  V30 549 H 49.7635 3.15439 -3.918 0
M  V30 550 H 49.4635 2.25486 -5.42614 0
M  V30 551 H 50.9875 3.16464 -5.2219 0
M  V30 552 H 52.4015 0.935116 -5.65622 0
M  V30 553 H 50.7985 0.221046 -5.99693 0
M  V30 554 H 51.8685 -0.557162 -4.81688 0
M  V30 555 N 53.2116 1.57565 -0.0334293 0
M  V30 556 C 54.1416 2.13511 0.945265 0
M  V30 557 C 55.1226 1.05231 1.33643 0
M  V30 558 O 56.3076 1.33084 1.41429 0
M  V30 559 C 53.4376 2.6657 2.22616 0
M  V30 560 C 52.3916 3.79676 1.97561 0
M  V30 561 C 51.7176 4.1918 3.31952 0
M  V30 562 C 53.0176 5.0557 1.31135 0
M  V30 563 H 54.7116 2.95538 0.479325 0
M  V30 564 H 52.2576 1.42166 0.229115 0
M  V30 565 H 54.2106 3.04344 2.91466 0
M  V30 566 H 52.9346 1.8171 2.71384 0
M  V30 567 H 51.5936 3.42347 1.31127 0
M  V30 568 H 51.2416 3.31296 3.78487 0
M  V30 569 H 50.9416 4.95402 3.15992 0
M  V30 570 H 52.4656 4.59541 4.02063 0
M  V30 571 H 53.8796 5.40903 1.89992 0
M  V30 572 H 52.2766 5.86818 1.25559 0
M  V30 573 H 53.3466 4.84062 0.284894 0
M  V30 574 N 54.6897 -0.239769 1.55765 0
M  V30 575 C 55.9377 -0.964892 1.77579 0
M  V30 576 C 56.2587 -1.85582 0.598699 0
M  V30 577 O 55.5287 -1.92075 -0.385226 0
M  V30 578 H 54.1087 -0.359265 0.654933 0
M  V30 579 H 56.7707 -0.256001 1.93211 0
M  V30 580 H 55.8667 -1.58243 2.69009 0
M  V30 581 N 56.1678 -1.49265 -0.50573 0
M  V30 582 C 57.5788 -1.51769 -1.08734 0
M  V30 583 C 57.9298 -0.301192 -1.93874 0
M  V30 584 O 57.0548 0.589456 -2.08217 0
M  V30 585 C 57.6498 -2.75017 -1.97867 0
M  V30 586 C 56.2088 -2.80314 -2.51199 0
M  V30 587 C 55.3558 -2.4562 -1.28709 0
M  V30 588 H 58.3068 -1.56031 -0.289855 0
M  V30 589 H 58.3278 -2.5491 -2.82491 0
M  V30 590 H 57.8398 -3.63539 -1.35873 0
M  V30 591 H 55.9408 -1.96061 -3.16845 0
M  V30 592 H 56.0538 -3.82366 -2.88675 0
M  V30 593 H 54.4178 -1.97297 -1.61078 0
M  V30 594 H 55.2008 -3.36411 -0.6843 0
M  V30 595 N 57.6459 0.756429 -1.3826 0
M  V30 596 C 58.5759 1.88374 -1.37976 0
M  V30 597 C 59.5569 1.68311 -0.246082 0
M  V30 598 O 60.7419 1.88944 -0.44874 0
M  V30 599 C 57.8719 3.25864 -1.20125 0
M  V30 600 C 56.8259 3.60523 -2.30666 0
M  V30 601 C 56.1519 4.9672 -1.97923 0
M  V30 602 C 57.4519 3.65692 -3.72916 0
M  V30 603 H 59.1459 1.88869 -2.32312 0
M  V30 604 H 56.6919 0.907272 -1.11824 0
M  V30 605 H 58.6449 4.0438 -1.18552 0
M  V30 606 H 57.3689 3.25841 -0.222498 0
M  V30 607 H 56.0279 2.84324 -2.3142 0
M  V30 608 H 55.6759 4.93253 -0.985393 0
M  V30 609 H 55.3759 5.20878 -2.71955 0
M  V30 610 H 56.8999 5.77618 -1.97964 0
M  V30 611 H 58.3139 4.34328 -3.74208 0
M  V30 612 H 56.7109 4.01358 -4.4613 0
M  V30 613 H 57.7809 2.65987 -4.05436 0
M  V30 614 N 59.124 1.23083 0.984299 0
M  V30 615 C 60.349 1.088 1.76571 0
M  V30 616 C 60.774 -0.356657 1.84688 0
M  V30 617 O 60.132 -1.25788 1.30565 0
M  V30 618 C 60.18 1.71371 3.17277 0
M  V30 619 O 59.284 0.973213 4.00752 0
M  V30 620 H 58.625 0.381599 0.543395 0
M  V30 621 H 61.155 1.63057 1.23587 0
M  V30 622 H 61.165 1.76449 3.67872 0
M  V30 623 H 59.84 2.76493 3.10684 0
M  V30 624 H 58.417 0.999078 3.59267 0
M  V30 625 N 60.6021 -1.18246 1.0419 0
M  V30 626 C 61.8791 -1.84121 0.660208 0
M  V30 627 C 62.2591 -1.92778 -0.860221 0
M  V30 628 O 61.6071 -1.45464 -1.76217 0
M  V30 629 C 61.8171 -3.22355 1.33747 0
M  V30 630 C 63.1651 -3.98376 1.46906 0
M  V30 631 O 64.1891 -3.31799 1.29568 0
M  V30 632 O 63.0481 -5.17665 1.75171 0
M  V30 633 H 60.1421 -0.794036 0.231161 0
M  V30 634 H 62.6881 -1.25628 1.14087 0
M  V30 635 H 61.4601 -3.10964 2.37522 0
M  V30 636 H 61.0831 -3.88506 0.845515 0
M  V30 637 N 62.0802 -0.821533 -1.34494 0
M  V30 638 C 63.4962 -0.507117 -1.51329 0
M  V30 639 C 63.6962 0.968964 -1.76673 0
M  V30 640 O 62.7522 1.75348 -1.81685 0
M  V30 641 C 64.0652 -1.36544 -2.67911 0
M  V30 642 C 65.6132 -1.36242 -2.81793 0
M  V30 643 C 66.0882 -2.2052 -4.01416 0
M  V30 644 N 67.5792 -2.18136 -4.08621 0
M  V30 645 C 68.3142 -2.80095 -5.00334 0
M  V30 646 N 67.8102 -3.51039 -5.9728 0
M  V30 647 N 69.6032 -2.69656 -4.93196 0
M  V30 648 H 61.7542 -1.77729 -1.16302 0
M  V30 649 H 64.0172 -0.757291 -0.570276 0
M  V30 650 H 63.7232 -2.41361 -2.55808 0
M  V30 651 H 63.5972 -1.02917 -3.62888 0
M  V30 652 H 65.9842 -0.322041 -2.93338 0
M  V30 653 H 66.0652 -1.73866 -1.87628 0
M  V30 654 H 65.7092 -3.24607 -3.90631 0
M  V30 655 H 65.6392 -1.80247 -4.94791 0
M  V30 656 H 68.1302 -1.6653 -3.39229 0
M  V30 657 H 68.4432 -3.95565 -6.63889 0
M  V30 658 H 66.7882 -3.55145 -5.97409 0
M  V30 659 H 69.9792 -2.13808 -4.16418 0
M  V30 660 H 70.1522 -3.1823 -5.64476 0
M  V30 661 N 63.5583 1.46682 -0.576371 0
M  V30 662 C 64.8073 2.01619 -0.0572825 0
M  V30 663 C 65.1203 1.45417 1.30818 0
M  V30 664 O 66.3263 1.92133 1.91825 0
M  V30 665 C 64.7823 3.59863 -0.0518371 0
M  V30 666 C 64.3903 4.25059 -1.41523 0
M  V30 667 C 66.1343 4.2248 0.413639 0
M  V30 668 C 64.0413 5.75364 -1.36785 0
M  V30 669 H 62.9713 0.753794 -0.0176448 0
M  V30 670 H 65.6223 1.68481 -0.727076 0
M  V30 671 H 64.0043 3.90048 0.683994 0
M  V30 672 H 65.1783 4.06491 -2.17029 0
M  V30 673 H 63.4933 3.7451 -1.8202 0
M  V30 674 H 66.0903 5.3265 0.467779 0
M  V30 675 H 66.4333 3.90976 1.42982 0
M  V30 676 H 66.9663 3.96897 -0.267929 0
M  V30 677 H 63.7053 6.11518 -2.36063 0
M  V30 678 H 63.2253 5.96214 -0.654895 0
M  V30 679 H 64.9043 6.37955 -1.07805 0
M  V30 680 N 65.0364 0.313813 1.54444 0
M  V30 681 C 66.2844 -0.291099 1.99993 0
M  V30 682 C 66.6054 -1.53418 1.20366 0
M  V30 683 O 65.8754 -1.93544 0.302927 0
M  V30 684 H 64.4554 -0.110552 0.738774 0
M  V30 685 H 67.1174 0.428106 1.9014 0
M  V30 686 H 66.2134 -0.554268 3.07139 0
M  V30 687 N 66.5145 -1.57545 0.0417849 0
M  V30 688 C 67.9305 -1.56467 -0.314704 0
M  V30 689 C 68.1305 -1.04859 -1.72066 0
M  V30 690 O 67.1865 -0.700983 -2.42575 0
M  V30 691 C 68.4995 -3.00317 -0.15174 0
M  V30 692 C 70.0475 -3.12201 -0.223553 0
M  V30 693 C 70.5225 -4.57913 -0.0892295 0
M  V30 694 N 72.0135 -4.6297 -0.145808 0
M  V30 695 C 72.7485 -5.73362 -0.0658459 0
M  V30 696 N 72.2445 -6.92769 0.0659282 0
M  V30 697 N 74.0375 -5.6197 -0.12075 0
M  V30 698 H 66.1885 -1.89416 0.961014 0
M  V30 699 H 68.4515 -0.871862 0.372237 0
M  V30 700 H 68.1575 -3.42073 0.817254 0
M  V30 701 H 68.0315 -3.65892 -0.916692 0
M  V30 702 H 70.4185 -2.70349 -1.18301 0
M  V30 703 H 70.4995 -2.49323 0.571994 0
M  V30 704 H 70.1435 -5.00448 0.866867 0
M  V30 705 H 70.0735 -5.18786 -0.903802 0
M  V30 706 H 72.5645 -3.7709 -0.247286 0
M  V30 707 H 72.8775 -7.72707 0.119905 0
M  V30 708 H 71.2225 -6.94927 0.100885 0
M  V30 709 H 74.4135 -4.67572 -0.222187 0
M  V30 710 H 74.5865 -6.47977 -0.0549735 0
M  V30 711 N 67.9926 0.231505 -1.5589 0
M  V30 712 C 69.4086 0.580748 -1.48659 0
M  V30 713 C 69.6086 1.87617 -0.73498 0
M  V30 714 O 68.6646 2.51046 -0.270586 0
M  V30 715 C 69.9776 0.669202 -2.93159 0
M  V30 716 C 71.5256 0.760499 -3.03621 0
M  V30 717 C 72.0006 0.880383 -4.49459 0
M  V30 718 N 73.4916 0.944861 -4.53461 0
M  V30 719 C 74.2266 1.05716 -5.63571 0
M  V30 720 N 73.7226 1.13403 -6.83456 0
M  V30 721 N 75.5156 1.09152 -5.514 0
M  V30 722 H 67.6666 -0.618695 -2.03189 0
M  V30 723 H 69.9296 -0.215728 -0.923128 0
M  V30 724 H 69.6356 -0.212904 -3.51055 0
M  V30 725 H 69.5096 1.5361 -3.44505 0
M  V30 726 H 71.8966 1.63305 -2.45796 0
M  V30 727 H 71.9776 -0.131864 -2.5546 0
M  V30 728 H 71.6216 0.0123284 -5.07899 0
M  V30 729 H 71.5516 1.78802 -4.95316 0
M  V30 730 H 74.0426 0.896176 -3.6712 0
M  V30 731 H 74.3556 1.21921 -7.63122 0
M  V30 732 H 72.7006 1.10333 -6.86186 0
M  V30 733 H 75.8916 1.02805 -4.56671 0
M  V30 734 H 76.0646 1.17558 -6.37247 0
M  V30 735 N 69.4707 1.49531 0.497807 0
M  V30 736 C 70.8817 1.52344 1.07927 0
M  V30 737 C 71.2327 0.311469 1.93712 0
M  V30 738 O 70.3577 -0.578405 2.08527 0
M  V30 739 C 70.9527 2.76062 1.96405 0
M  V30 740 C 69.5117 2.81643 2.49709 0
M  V30 741 C 68.6587 2.46299 1.27404 0
M  V30 742 H 71.6097 1.56182 0.281576 0
M  V30 743 H 71.6307 2.56405 2.81135 0
M  V30 744 H 71.1427 3.64254 1.33943 0
M  V30 745 H 69.2437 1.97739 3.15801 0
M  V30 746 H 69.3567 3.83891 2.86643 0
M  V30 747 H 67.7207 1.98148 1.60029 0
M  V30 748 H 68.5037 3.36769 0.66645 0
M  V30 749 N 70.9488 -0.749086 1.3866 0
M  V30 750 C 72.1948 -1.51056 1.35314 0
M  V30 751 C 72.5278 -1.94121 -0.0553751 0
M  V30 752 O 71.8028 -1.65763 -1.01749 0
M  V30 753 C 72.0858 -2.76003 2.31288 0
M  V30 754 C 71.9388 -2.39047 3.8102 0
M  V30 755 C 73.2578 -3.78046 2.2532 0
M  V30 756 H 70.3768 -0.547972 0.492844 0
M  V30 757 H 73.0188 -0.857628 1.69543 0
M  V30 758 H 71.1688 -3.31716 2.02229 0
M  V30 759 H 72.8408 -1.89074 4.20771 0
M  V30 760 H 71.0838 -1.71449 3.98482 0
M  V30 761 H 71.7548 -3.28462 4.4364 0
M  V30 762 H 74.2308 -3.31884 2.50983 0
M  V30 763 H 73.1068 -4.63159 2.94576 0
M  V30 764 H 73.3678 -4.23957 1.25352 0
M  V30 765 N 72.4269 -1.23603 -0.977757 0
M  V30 766 C 73.3599 -0.962772 -2.06896 0
M  V30 767 C 74.3379 0.0998743 -1.62293 0
M  V30 768 O 75.5219 -0.0349421 -1.88468 0
M  V30 769 C 72.6489 -0.45095 -3.35685 0
M  V30 770 C 71.6949 -1.50061 -3.99229 0
M  V30 771 S 72.5279 -3.07884 -4.38142 0
M  V30 772 C 73.6839 -2.58378 -5.7008 0
M  V30 773 H 73.9169 -1.88677 -2.29757 0
M  V30 774 H 71.4499 -1.06876 -1.11431 0
M  V30 775 H 73.4079 -0.162261 -4.10179 0
M  V30 776 H 72.0689 0.452179 -3.10828 0
M  V30 777 H 71.2619 -1.09269 -4.92013 0
M  V30 778 H 70.8639 -1.73878 -3.31123 0
M  V30 779 H 73.1559 -2.00563 -6.47133 0
M  V30 780 H 74.0989 -3.49711 -6.15717 0
M  V30 781 H 74.5069 -1.99143 -5.28207 0
M  V30 782 N 73.905 1.17692 -1.04816 0
M  V30 783 C 74.835 2.23777 -0.666791 0
M  V30 784 C 75.816 1.66796 0.33361 0
M  V30 785 O 77.001 1.93039 0.212042 0
M  V30 786 C 74.131 3.47281 -0.0367933 0
M  V30 787 C 73.085 4.17059 -0.961546 0
M  V30 788 C 72.411 5.34342 -0.195626 0
M  V30 789 C 73.711 4.69713 -2.28402 0
M  V30 790 H 75.405 2.55933 -1.55367 0
M  V30 791 H 72.951 1.23019 -0.748484 0
M  V30 792 H 74.904 4.20706 0.241775 0
M  V30 793 H 73.628 3.14381 0.885004 0
M  V30 794 H 72.287 3.45541 -1.22462 0
M  V30 795 H 71.935 4.97692 0.728816 0
M  V30 796 H 71.635 5.81966 -0.811775 0
M  V30 797 H 73.159 6.10553 0.0757473 0
M  V30 798 H 74.573 5.34794 -2.06563 0
M  V30 799 H 72.97 5.279 -2.8538 0
M  V30 800 H 74.04 3.86726 -2.92525 0
M  V30 801 N 75.3831 0.828654 1.34056 0
M  V30 802 C 76.3461 0.259927 2.27721 0
M  V30 803 C 77.3461 -0.565478 1.50529 0
M  V30 804 O 78.5361 -0.38075 1.69988 0
M  V30 805 C 75.6681 -0.634944 3.34935 0
M  V30 806 H 76.8611 1.0863 2.79534 0
M  V30 807 H 74.4141 0.600951 1.44285 0
M  V30 808 H 75.1491 -1.48416 2.88346 0
M  V30 809 H 74.9341 -0.0444999 3.92075 0
M  V30 810 H 76.4241 -1.02648 4.04788 0
M  V30 811 N 76.8612 -1.46375 0.584142 0
M  V30 812 C 78.1092 -2.01978 0.0701287 0
M  V30 813 C 78.4302 -1.4579 -1.295 0
M  V30 814 O 77.7002 -0.64314 -1.85042 0
M  V30 815 H 76.2802 -0.746648 0.0229345 0
M  V30 816 H 78.9422 -1.79461 0.760245 0
M  V30 817 H 78.0382 -3.121 0.0022064 0
M  V30 818 N 78.3393 -0.321999 -1.54275 0
M  V30 819 C 79.5853 0.281461 -2.00837 0
M  V30 820 C 79.9183 1.51909 -1.20985 0
M  V30 821 O 79.1933 1.923 -0.291733 0
M  V30 822 C 79.4763 0.617162 -3.54772 0
M  V30 823 C 79.3293 -0.631064 -4.45351 0
M  V30 824 C 80.6483 1.43542 -4.16033 0
M  V30 825 H 77.7673 0.100826 -0.730071 0
M  V30 826 H 80.4093 -0.438268 -1.84876 0
M  V30 827 H 78.5593 1.23034 -3.68504 0
M  V30 828 H 80.2313 -1.26934 -4.43492 0
M  V30 829 H 78.4743 -1.26025 -4.15091 0
M  V30 830 H 79.1453 -0.351735 -5.50878 0
M  V30 831 H 81.6213 0.917134 -4.05867 0
M  V30 832 H 80.4973 1.63907 -5.23856 0
M  V30 833 H 80.7583 2.43108 -3.69257 0
M  V30 834 N 79.8174 1.5752 -0.0501392 0
M  V30 835 C 81.0634 1.92936 0.624798 0
M  V30 836 C 81.3964 0.928685 1.70555 0
M  V30 837 O 80.6714 -0.0454779 1.94447 0
M  V30 838 C 80.9544 3.38737 1.22185 0
M  V30 839 C 80.8074 4.49552 0.149218 0
M  V30 840 C 82.1264 3.84913 2.13378 0
M  V30 841 H 79.2454 0.701604 0.225657 0
M  V30 842 H 81.8874 1.89671 -0.111693 0
M  V30 843 H 80.0374 3.4165 1.84953 0
M  V30 844 H 81.7094 4.58768 -0.482648 0
M  V30 845 H 79.9524 4.30638 -0.522841 0
M  V30 846 H 80.6234 5.48653 0.606966 0
M  V30 847 H 83.0994 3.8387 1.60572 0
M  V30 848 H 81.9754 4.87584 2.52097 0
M  V30 849 H 82.2364 3.21611 3.03346 0
M  V30 850 N 81.2955 -0.223234 1.56011 0
M  V30 851 C 82.5415 -0.944891 1.8012 0
M  V30 852 C 82.8965 -1.82039 0.622862 0
M  V30 853 O 82.1895 -1.8773 -0.383143 0
M  V30 854 C 82.3835 -1.81948 3.0762 0
M  V30 855 C 82.2125 -1.03014 4.37742 0
M  V30 856 C 80.9825 -0.72574 5.00061 0
M  V30 857 C 83.1805 -0.396256 5.12771 0
M  V30 858 N 81.1625 0.0851816 6.13841 0
M  V30 859 C 82.5335 0.278137 6.19376 0
M  V30 860 C 84.5885 -0.309117 4.9694 0
M  V30 861 C 83.2915 1.03133 7.11868 0
M  V30 862 C 85.3175 0.430607 5.8983 0
M  V30 863 C 84.6795 1.09355 6.9586 0
M  V30 864 H 80.7785 -0.326081 0.710771 0
M  V30 865 H 83.3625 -0.215914 1.93499 0
M  V30 866 H 81.5335 -2.52029 2.95527 0
M  V30 867 H 83.2655 -2.47848 3.19927 0
M  V30 868 H 80.0205 -1.04335 4.61964 0
M  V30 869 H 80.4445 0.479428 6.753 0
M  V30 870 H 85.0865 -0.807313 4.15021 0
M  V30 871 H 82.8045 1.54105 7.9327 0
M  V30 872 H 86.3905 0.499012 5.79656 0
M  V30 873 H 85.2705 1.65679 7.66499 0
M  V30 874 N 82.7736 -1.49793 -0.48987 0
M  V30 875 C 84.0206 -1.59841 -1.24327 0
M  V30 876 C 84.3486 -0.290135 -1.92324 0
M  V30 877 O 83.6036 0.722749 -1.81865 0
M  V30 878 C 83.9026 -2.71488 -2.32441 0
M  V30 879 C 83.5686 -4.12614 -1.81826 0
M  V30 880 C 82.2306 -4.51017 -1.67742 0
M  V30 881 C 84.5826 -5.00892 -1.4407 0
M  V30 882 C 81.9106 -5.75459 -1.14297 0
M  V30 883 C 84.2626 -6.25863 -0.920742 0
M  V30 884 C 82.9266 -6.63086 -0.766383 0
M  V30 885 H 82.1966 -0.584899 -0.454944 0
M  V30 886 H 84.8436 -1.83663 -0.542215 0
M  V30 887 H 83.1486 -2.4168 -3.0838 0
M  V30 888 H 84.8456 -2.76469 -2.90458 0
M  V30 889 H 81.4356 -3.82307 -1.93751 0
M  V30 890 H 85.6196 -4.7187 -1.53794 0
M  V30 891 H 80.8756 -6.02989 -1.01068 0
M  V30 892 H 85.0496 -6.9364 -0.619448 0
M  V30 893 H 82.6766 -7.59393 -0.350083 0
M  V30 894 N 84.2517 0.741722 -1.39055 0
M  V30 895 C 85.5007 1.49656 -1.35225 0
M  V30 896 C 85.8137 1.95533 0.0512708 0
M  V30 897 O 87.0197 2.7067 0.212138 0
M  V30 898 C 85.4757 2.70389 -2.37525 0
M  V30 899 C 85.0837 2.31489 -3.83558 0
M  V30 900 C 86.8277 3.48236 -2.42759 0
M  V30 901 C 84.7347 3.48903 -4.77515 0
M  V30 902 H 83.6647 0.56197 -0.502699 0
M  V30 903 H 86.3157 0.809727 -1.64668 0
M  V30 904 H 84.6977 3.41113 -2.01142 0
M  V30 905 H 85.8717 1.68354 -4.28945 0
M  V30 906 H 84.1867 1.66749 -3.81554 0
M  V30 907 H 86.7837 4.35558 -3.1015 0
M  V30 908 H 87.1267 3.90229 -1.45008 0
M  V30 909 H 87.6597 2.84535 -2.78002 0
M  V30 910 H 84.3987 3.11966 -5.76504 0
M  V30 911 H 83.9187 4.11041 -4.36813 0
M  V30 912 H 85.5977 4.15328 -4.96096 0
M  V30 913 N 85.7298 1.2412 0.971189 0
M  V30 914 C 86.9758 1.08041 1.71625 0
M  V30 915 C 87.3088 -0.380407 1.90438 0
M  V30 916 O 86.5838 -1.28127 1.46334 0
M  V30 917 C 86.8668 1.81682 3.10908 0
M  V30 918 C 86.7198 3.35493 2.99608 0
M  V30 919 C 88.0388 1.58671 4.10501 0
M  V30 920 H 85.1578 0.39388 0.622919 0
M  V30 921 H 87.7998 1.52743 1.13003 0
M  V30 922 H 85.9498 1.43684 3.60953 0
M  V30 923 H 87.6218 3.83068 2.57015 0
M  V30 924 H 85.8648 3.64052 2.35899 0
M  V30 925 H 86.5358 3.82217 3.98264 0
M  V30 926 H 89.0118 1.91719 3.69301 0
M  V30 927 H 87.8878 2.1266 5.06031 0
M  V30 928 H 88.1488 0.524161 4.38982 0
M  V30 929 N 87.2079 -1.17134 1.05439 0
M  V30 930 C 88.4359 -1.91372 0.786414 0
M  V30 931 C 88.8509 -1.76955 -0.658202 0
M  V30 932 O 88.2079 -1.10838 -1.44987 0
M  V30 933 C 88.2589 -3.42356 1.1608 0
M  V30 934 O 87.9799 -3.56332 2.54871 0
M  V30 935 C 89.4809 -4.33663 0.919322 0
M  V30 936 H 86.7009 -0.607118 0.285743 0
M  V30 937 H 89.2449 -1.48525 1.40572 0
M  V30 938 H 87.3999 -3.82939 0.586191 0
M  V30 939 H 87.8139 -4.49896 2.69618 0
M  V30 940 H 89.2879 -5.38099 1.231 0
M  V30 941 H 89.7649 -4.38959 -0.145359 0
M  V30 942 H 90.3709 -3.98796 1.47789 0
M  V30 943 N 88.686 -0.835752 -1.33615 0
M  V30 944 C 89.926 -0.43599 -1.99696 0
M  V30 945 C 90.29 0.98557 -1.64774 0
M  V30 946 O 91.491 1.48889 -2.23798 0
M  V30 947 C 89.762 -0.646721 -3.515 0
M  V30 948 S 91.321 -0.341715 -4.37467 0
M  V30 949 H 88.139 -0.164136 -0.691795 0
M  V30 950 H 90.741 -1.08436 -1.62671 0
M  V30 951 H 89.445 -1.68077 -3.74404 0
M  V30 952 H 88.976 0.0159173 -3.93397 0
M  V30 953 H 90.991 0.839708 -4.89043 0
M  V30 954 N 90.1641 1.46063 -0.591896 0
M  V30 955 C 91.0941 2.33172 0.123673 0
M  V30 956 C 92.0751 1.45897 0.87453 0
M  V30 957 O 93.2601 1.74698 0.848181 0
M  V30 958 C 90.3901 3.28336 1.13194 0
M  V30 959 C 89.3441 4.25124 0.495324 0
M  V30 960 C 88.6701 5.09863 1.61071 0
M  V30 961 C 89.9701 5.19143 -0.573425 0
M  V30 962 H 91.6641 2.93252 -0.603646 0
M  V30 963 H 89.2101 1.41014 -0.291741 0
M  V30 964 H 91.1631 3.88137 1.64097 0
M  V30 965 H 89.8871 2.66383 1.88965 0
M  V30 966 H 88.5461 3.66599 0.00729452 0
M  V30 967 H 88.1941 4.44288 2.35832 0
M  V30 968 H 87.8941 5.75417 1.19035 0
M  V30 969 H 89.4181 5.72529 2.12233 0
M  V30 970 H 90.8321 5.73106 -0.1491 0
M  V30 971 H 89.2291 5.93089 -0.914636 0
M  V30 972 H 90.2991 4.62519 -1.45617 0
M  V30 973 N 91.6422 0.330177 1.54103 0
M  V30 974 C 92.6052 -0.520144 2.2322 0
M  V30 975 C 93.6052 -1.03828 1.22786 0
M  V30 976 O 94.7952 -0.929652 1.4732 0
M  V30 977 C 91.9272 -1.72317 2.94142 0
M  V30 978 H 93.1202 0.0841605 2.99782 0
M  V30 979 H 90.6732 0.0813433 1.56088 0
M  V30 980 H 91.4082 -2.36653 2.21734 0
M  V30 981 H 91.1932 -1.35898 3.67796 0
M  V30 982 H 92.6832 -2.3266 3.46784 0
M  V30 983 N 93.1203 -1.57491 0.0584922 0
M  V30 984 C 94.3693 -1.92155 -0.613146 0
M  V30 985 C 94.6823 -0.939334 -1.71569 0
M  V30 986 O 95.8883 -1.17829 -2.44599 0
M  V30 987 C 94.3443 -3.41303 -1.14195 0
M  V30 988 C 93.9523 -4.47944 -0.0711265 0
M  V30 989 C 95.6963 -3.84988 -1.78841 0
M  V30 990 C 93.6033 -5.88212 -0.613225 0
M  V30 991 H 92.5333 -0.717162 -0.232796 0
M  V30 992 H 95.1843 -1.83049 0.12857 0
M  V30 993 H 93.5663 -3.45437 -1.93621 0
M  V30 994 H 94.7403 -4.55408 0.702836 0
M  V30 995 H 93.0553 -4.13644 0.478313 0
M  V30 996 H 95.6523 -4.87159 -2.20408 0
M  V30 997 H 95.9953 -3.21632 -2.64308 0
M  V30 998 H 96.5283 -3.83401 -1.06059 0
M  V30 999 H 93.2673 -6.55183 0.203978 0
M  V30 1000 H 92.7873 -5.84294 -1.35501 0
M  V30 1001 H 94.4663 -6.37687 -1.09383 0
M  V30 1002 N 94.5984 0.214957 -1.56127 0
M  V30 1003 C 95.5284 1.2695 -1.95974 0
M  V30 1004 C 96.5094 1.48539 -0.828868 0
M  V30 1005 O 97.6944 1.60611 -1.09168 0
M  V30 1006 C 94.8244 2.61794 -2.28214 0
M  V30 1007 C 93.7784 2.54851 -3.43853 0
M  V30 1008 C 93.1044 3.93785 -3.61715 0
M  V30 1009 C 94.4044 2.09065 -4.78632 0
M  V30 1010 H 96.0984 0.93846 -2.84312 0
M  V30 1011 H 93.6444 0.449996 -1.36788 0
M  V30 1012 H 95.5974 3.35731 -2.54682 0
M  V30 1013 H 94.3214 2.96599 -1.36736 0
M  V30 1014 H 92.9804 1.8337 -3.17444 0
M  V30 1015 H 92.6284 4.25908 -2.67602 0
M  V30 1016 H 92.3284 3.90019 -4.39498 0
M  V30 1017 H 93.8524 4.69374 -3.90539 0
M  V30 1018 H 95.2664 2.7275 -5.04262 0
M  V30 1019 H 93.6634 2.16346 -5.59745 0
M  V30 1020 H 94.7334 1.04315 -4.73547 0
M  V30 1021 N 96.0765 1.50051 0.48192 0
M  V30 1022 C 97.0065 1.71046 1.58951 0
M  V30 1023 C 97.9875 0.559288 1.60642 0
M  V30 1024 O 99.1725 0.797243 1.77081 0
M  V30 1025 C 96.3025 1.79462 2.97339 0
M  V30 1026 C 95.2565 2.94558 3.10515 0
M  V30 1027 C 94.5825 2.88105 4.50444 0
M  V30 1028 C 95.8825 4.35227 2.88747 0
M  V30 1029 H 97.5765 2.6378 1.41635 0
M  V30 1030 H 95.1225 1.26936 0.679942 0
M  V30 1031 H 97.0755 1.92734 3.74742 0
M  V30 1032 H 95.7995 0.833412 3.15788 0
M  V30 1033 H 94.4585 2.80918 2.35543 0
M  V30 1034 H 94.1065 1.89853 4.65795 0
M  V30 1035 H 93.8065 3.65366 4.60197 0
M  V30 1036 H 95.3305 3.03412 5.29881 0
M  V30 1037 H 96.7445 4.49449 3.55905 0
M  V30 1038 H 95.1415 5.13856 3.09955 0
M  V30 1039 H 96.2115 4.48347 1.84696 0
M  V30 1040 N 97.5546 -0.734337 1.39446 0
M  V30 1041 C 98.5176 -1.83004 1.37994 0
M  V30 1042 C 99.5176 -1.58397 0.276938 0
M  V30 1043 O 100.708 -1.65785 0.534875 0
M  V30 1044 C 97.8396 -3.20802 1.1532 0
M  V30 1045 H 99.0326 -1.85694 2.35494 0
M  V30 1046 H 96.5856 -0.938059 1.25021 0
M  V30 1047 H 97.3206 -3.23772 0.185036 0
M  V30 1048 H 97.1056 -3.4006 1.95197 0
M  V30 1049 H 98.5956 -4.00862 1.17046 0
M  V30 1050 N 99.0327 -1.24633 -0.964593 0
M  V30 1051 C 99.9647 -0.999302 -2.06268 0
M  V30 1052 C 100.978 0.0323226 -1.62768 0
M  V30 1053 O 102.167 -0.205079 -1.77318 0
M  V30 1054 C 99.2667 -0.486816 -3.35385 0
M  V30 1055 C 98.4397 -1.5823 -4.07777 0
M  V30 1056 C 97.4987 -1.07191 -5.15166 0
M  V30 1057 O 96.5247 -1.76426 -5.41168 0
M  V30 1058 N 97.7267 0.0920373 -5.80427 0
M  V30 1059 H 100.492 -1.94477 -2.28033 0
M  V30 1060 H 98.0527 -1.15704 -1.13244 0
M  V30 1061 H 100.045 -0.130066 -4.04491 0
M  V30 1062 H 98.6147 0.364459 -3.10468 0
M  V30 1063 H 97.8347 -2.11109 -3.32906 0
M  V30 1064 H 99.1227 -2.31854 -4.52903 0
M  V30 1065 H 98.5207 0.670784 -5.61709 0
M  V30 1066 H 97.0777 0.389905 -6.50633 0
M  V30 1067 N 100.511 1.16574 -1.06058 0
M  V30 1068 C 101.459 2.22941 -0.663343 0
M  V30 1069 C 102.453 1.66358 0.319593 0
M  V30 1070 O 103.659 1.7905 0.184713 0
M  V30 1071 H 100.034 0.725907 -0.196376 0
M  V30 1072 H 102.005 2.53736 -1.57037 0
M  V30 1073 C 100.754 3.47642 -0.0632808 0
M  V30 1074 H 100.077 3.91493 -0.810733 0
M  V30 1075 H 101.517 4.2363 0.177177 0
M  V30 1076 C 99.9758 3.1509 1.19248 0
M  V30 1077 O 100.506 3.30673 2.28075 0
M  V30 1078 N 98.7118 2.6924 1.09353 0
M  V30 1079 H 98.2588 2.5676 0.207912 0
M  V30 1080 H 98.2168 2.47833 1.93458 0
M  V30 1081 N 101.989 0.842826 1.3317 0
M  V30 1082 C 103.238 0.436738 1.96915 0
M  V30 1083 C 103.551 -1.01025 1.67491 0
M  V30 1084 O 104.757 -1.5212 2.24881 0
M  V30 1085 C 103.213 0.730021 3.52418 0
M  V30 1086 C 102.821 2.19195 3.90714 0
M  V30 1087 C 104.565 0.391076 4.22695 0
M  V30 1088 C 102.472 2.42907 5.39212 0
M  V30 1089 H 101.402 0.15958 0.736919 0
M  V30 1090 H 104.053 1.03196 1.51733 0
M  V30 1091 H 102.435 0.0643755 3.95948 0
M  V30 1092 H 103.609 2.8984 3.58231 0
M  V30 1093 H 101.924 2.49425 3.33431 0
M  V30 1094 H 104.521 0.545817 5.31907 0
M  V30 1095 H 104.864 -0.666294 4.10933 0
M  V30 1096 H 105.397 1.01212 3.84709 0
M  V30 1097 H 102.136 3.47224 5.55982 0
M  V30 1098 H 101.656 1.76827 5.73142 0
M  V30 1099 H 103.335 2.2626 6.06148 0
M  V30 1100 N 103.467 -1.45747 0.599634 0
M  V30 1101 C 104.377 -2.34262 -0.125888 0
M  V30 1102 C 105.393 -1.50768 -0.868625 0
M  V30 1103 O 106.569 -1.83592 -0.828003 0
M  V30 1104 C 103.634 -3.28252 -1.11587 0
M  V30 1105 C 102.695 -4.27651 -0.375956 0
M  V30 1106 C 101.928 -5.1715 -1.31877 0
M  V30 1107 O 102.151 -5.09916 -2.55621 0
M  V30 1108 O 101.085 -5.96286 -0.820157 0
M  V30 1109 H 104.911 -2.97688 0.601315 0
M  V30 1110 H 102.496 -1.44999 0.359934 0
M  V30 1111 H 104.378 -3.86191 -1.68626 0
M  V30 1112 H 103.053 -2.67401 -1.82424 0
M  V30 1113 H 101.96 -3.7335 0.236698 0
M  V30 1114 H 103.293 -4.91334 0.29177 0
M  V30 1115 N 104.945 -0.338344 -1.53925 0
M  V30 1116 C 105.877 0.555117 -2.22376 0
M  V30 1117 C 106.89 1.06812 -1.22862 0
M  V30 1118 O 108.079 0.979163 -1.49247 0
M  V30 1119 C 105.179 1.77609 -2.88631 0
M  V30 1120 C 104.352 1.39927 -4.14414 0
M  V30 1121 C 103.411 2.47936 -4.64127 0
M  V30 1122 O 102.437 2.11461 -5.28463 0
M  V30 1123 N 103.639 3.79107 -4.39612 0
M  V30 1124 H 106.404 -0.0310778 -2.99684 0
M  V30 1125 H 103.965 -0.162226 -1.61085 0
M  V30 1126 H 105.957 2.49287 -3.18807 0
M  V30 1127 H 104.527 2.26978 -2.14941 0
M  V30 1128 H 103.747 0.513481 -3.90841 0
M  V30 1129 H 105.035 1.12341 -4.96243 0
M  V30 1130 H 104.433 4.11531 -3.88148 0
M  V30 1131 H 102.99 4.4697 -4.74406 0
M  V30 1132 N 106.423 1.57458 -0.0668435 0
M  V30 1133 C 107.67 1.93301 0.603406 0
M  V30 1134 C 107.998 0.946486 1.69917 0
M  V30 1135 O 107.253 -0.0387021 1.95662 0
M  V30 1136 C 107.552 3.35784 1.22409 0
M  V30 1137 C 107.218 4.50179 0.254955 0
M  V30 1138 C 105.88 4.81199 -0.0116746 0
M  V30 1139 C 108.232 5.19598 -0.408338 0
M  V30 1140 C 105.56 5.78978 -0.94877 0
M  V30 1141 C 107.912 6.18381 -1.33372 0
M  V30 1142 C 106.576 6.47821 -1.60887 0
M  V30 1143 H 105.846 0.707338 0.220802 0
M  V30 1144 H 108.493 1.91012 -0.136665 0
M  V30 1145 H 106.798 3.34515 2.03978 0
M  V30 1146 H 108.495 3.60804 1.74989 0
M  V30 1147 H 105.085 4.25983 0.472954 0
M  V30 1148 H 109.269 4.95832 -0.215456 0
M  V30 1149 H 104.525 6.00115 -1.16925 0
M  V30 1150 H 108.699 6.71277 -1.85367 0
M  V30 1151 H 106.326 7.23399 -2.33661 0
M  V30 1152 N 107.901 -0.206675 1.56239 0
M  V30 1153 C 109.129 -0.945345 1.8404 0
M  V30 1154 C 109.544 -1.77336 0.647885 0
M  V30 1155 O 108.901 -1.78425 -0.383511 0
M  V30 1156 C 108.952 -1.8509 3.10522 0
M  V30 1157 O 108.673 -1.05634 4.25174 0
M  V30 1158 C 110.174 -2.70222 3.51418 0
M  V30 1159 H 107.394 -0.276372 0.61144 0
M  V30 1160 H 109.938 -0.217417 2.03341 0
M  V30 1161 H 108.093 -2.53259 2.93153 0
M  V30 1162 H 108.507 -1.67238 4.97124 0
M  V30 1163 H 109.981 -3.29438 4.42916 0
M  V30 1164 H 110.458 -3.43358 2.73864 0
M  V30 1165 H 111.064 -2.07443 3.71278 0
M  V30 1166 N 109.379 -1.50304 -0.473955 0
M  V30 1167 C 110.309 -1.71886 -1.58042 0
M  V30 1168 C 111.29 -0.567799 -1.60344 0
M  V30 1169 O 112.475 -0.806623 -1.76656 0
M  V30 1170 C 109.605 -1.81036 -2.96384 0
M  V30 1171 C 108.559 -2.962 -3.08949 0
M  V30 1172 C 107.885 -2.9049 -4.48909 0
M  V30 1173 C 109.185 -4.36752 -2.86434 0
M  V30 1174 H 110.879 -2.64527 -1.40234 0
M  V30 1175 H 108.425 -1.27295 -0.673201 0
M  V30 1176 H 110.378 -1.94719 -3.73714 0
M  V30 1177 H 109.102 -0.850147 -3.15341 0
M  V30 1178 H 107.761 -2.82164 -2.3405 0
M  V30 1179 H 107.409 -1.92321 -4.64781 0
M  V30 1180 H 107.109 -3.67802 -4.58253 0
M  V30 1181 H 108.633 -3.06218 -5.28264 0
M  V30 1182 H 110.047 -4.5133 -3.53517 0
M  V30 1183 H 108.444 -5.15493 -3.07225 0
M  V30 1184 H 109.514 -4.49321 -1.82316 0
M  V30 1185 N 110.857 0.726932 -1.39834 0
M  V30 1186 C 111.787 1.85405 -1.41941 0
M  V30 1187 C 112.768 1.67751 -0.281728 0
M  V30 1188 O 113.953 1.8795 -0.488717 0
M  V30 1189 C 111.083 3.23243 -1.2701 0
M  V30 1190 C 110.037 3.55549 -2.38262 0
M  V30 1191 C 109.363 4.9241 -2.08415 0
M  V30 1192 C 110.663 3.577 -3.80589 0
M  V30 1193 H 112.357 1.83899 -2.36266 0
M  V30 1194 H 109.903 0.883349 -1.13723 0
M  V30 1195 H 111.856 4.01775 -1.27103 0
M  V30 1196 H 110.58 3.25296 -0.291564 0
M  V30 1197 H 109.239 2.79351 -2.37399 0
M  V30 1198 H 108.887 4.91052 -1.0898 0
M  V30 1199 H 108.587 5.14992 -2.82943 0
M  V30 1200 H 110.111 5.73289 -2.10171 0
M  V30 1201 H 111.525 4.26293 -3.83337 0
M  V30 1202 H 109.922 3.91804 -4.54543 0
M  V30 1203 H 110.992 2.57328 -4.10987 0
M  V30 1204 N 112.336 1.25143 0.95797 0
M  V30 1205 C 113.752 1.01892 1.22842 0
M  V30 1206 C 113.952 -0.266311 1.99732 0
M  V30 1207 O 113.008 -0.979913 2.3271 0
M  V30 1208 C 114.321 2.24004 2.00606 0
M  V30 1209 C 115.869 2.28731 2.13662 0
M  V30 1210 C 116.344 3.5049 2.94823 0
M  V30 1211 N 117.835 3.50866 3.02403 0
M  V30 1212 C 118.57 4.4174 3.65586 0
M  V30 1213 N 118.066 5.42882 4.30408 0
M  V30 1214 N 119.859 4.29429 3.62694 0
M  V30 1215 H 112.01 2.07718 0.443493 0
M  V30 1216 H 114.273 0.912031 0.258657 0
M  V30 1217 H 113.979 3.17395 1.51503 0
M  V30 1218 H 113.853 2.26907 3.01319 0
M  V30 1219 H 116.24 1.35865 2.61963 0
M  V30 1220 H 116.321 2.29848 1.12265 0
M  V30 1221 H 115.965 4.43676 2.47213 0
M  V30 1222 H 115.895 3.46617 3.96439 0
M  V30 1223 H 118.386 2.777 2.56302 0
M  V30 1224 H 118.699 6.0844 4.76467 0
M  V30 1225 H 117.044 5.46758 4.29047 0
M  V30 1226 H 120.235 3.49643 3.11236 0
M  V30 1227 H 120.408 5.00448 4.1165 0
M  V30 1228 N 113.814 -1.1601 1.06675 0
M  V30 1229 C 115.061 -1.86633 0.785781 0
M  V30 1230 C 115.389 -1.81929 -0.687896 0
M  V30 1231 O 114.644 -1.23253 -1.52011 0
M  V30 1232 C 114.943 -3.35547 1.23057 0
M  V30 1233 C 114.609 -3.60448 2.70902 0
M  V30 1234 C 113.271 -3.66954 3.11285 0
M  V30 1235 C 115.623 -3.7071 3.66365 0
M  V30 1236 C 112.951 -3.81225 4.45965 0
M  V30 1237 C 115.303 -3.86503 5.00797 0
M  V30 1238 C 113.967 -3.91252 5.40813 0
M  V30 1239 H 113.237 -0.682937 0.287538 0
M  V30 1240 H 115.884 -1.37146 1.33654 0
M  V30 1241 H 114.189 -3.87193 0.59907 0
M  V30 1242 H 115.886 -3.88583 0.990163 0
M  V30 1243 H 112.476 -3.56021 2.38636 0
M  V30 1244 H 116.66 -3.64991 3.36296 0
M  V30 1245 H 111.916 -3.83155 4.76447 0
M  V30 1246 H 116.09 -3.93385 5.74649 0
M  V30 1247 H 113.717 -4.02062 6.45174 0
M  V30 1248 N 115.292 -0.849877 -1.32721 0
M  V30 1249 C 116.222 -0.306308 -2.31482 0
M  V30 1250 C 117.203 0.591952 -1.59468 0
M  V30 1251 O 118.388 0.513199 -1.87296 0
M  V30 1252 C 115.518 0.510204 -3.43532 0
M  V30 1253 C 114.472 -0.293209 -4.26994 0
M  V30 1254 C 113.798 0.647743 -5.30762 0
M  V30 1255 C 115.098 -1.51634 -4.99804 0
M  V30 1256 H 116.792 -1.13153 -2.77195 0
M  V30 1257 H 114.338 -0.545553 -1.33266 0
M  V30 1258 H 116.291 0.900856 -4.11658 0
M  V30 1259 H 115.015 1.36874 -2.96535 0
M  V30 1260 H 113.674 -0.665555 -3.60508 0
M  V30 1261 H 113.322 1.50299 -4.8002 0
M  V30 1262 H 113.022 0.11422 -5.87489 0
M  V30 1263 H 114.546 1.03567 -6.01753 0
M  V30 1264 H 115.96 -1.19824 -5.60638 0
M  V30 1265 H 114.357 -1.98745 -5.66234 0
M  V30 1266 H 115.427 -2.28018 -4.27943 0
M  V30 1267 N 116.77 1.45427 -0.607355 0
M  V30 1268 C 117.702 2.2871 0.149752 0
M  V30 1269 C 118.715 1.39937 0.831958 0
M  V30 1270 O 119.904 1.64313 0.697385 0
M  V30 1271 C 117.004 3.15673 1.23304 0
M  V30 1272 C 116.177 4.32722 0.637996 0
M  V30 1273 C 115.236 5.00895 1.61215 0
M  V30 1274 O 114.262 5.57697 1.13854 0
M  V30 1275 N 115.464 5.00159 2.94655 0
M  V30 1276 H 118.229 2.94328 -0.564882 0
M  V30 1277 H 115.79 1.55612 -0.446823 0
M  V30 1278 H 117.782 3.58144 1.88454 0
M  V30 1279 H 116.352 2.51965 1.8502 0
M  V30 1280 H 115.572 3.93734 -0.191572 0
M  V30 1281 H 116.86 5.08321 0.220665 0
M  V30 1282 H 116.258 4.553 3.35735 0
M  V30 1283 H 114.815 5.46495 3.55228 0
M  V30 1284 N 118.248 0.346503 1.53744 0
M  V30 1285 C 119.496 -0.248612 2.00565 0
M  V30 1286 C 119.817 -1.5083 1.23593 0
M  V30 1287 O 119.087 -1.92858 0.343912 0
M  V30 1288 H 117.667 -0.0948564 0.740953 0
M  V30 1289 H 120.329 0.468341 1.89189 0
M  V30 1290 H 119.425 -0.488994 3.08245 0
M  V30 1291 N 119.726 -1.57421 0.075193 0
M  V30 1292 C 120.975 -1.92794 -0.592731 0
M  V30 1293 C 121.288 -0.957478 -1.70563 0
M  V30 1294 O 122.494 -1.20417 -2.43335 0
M  V30 1295 C 120.95 -3.42495 -1.10569 0
M  V30 1296 C 120.558 -4.47994 -0.0236121 0
M  V30 1297 C 122.302 -3.86864 -1.74748 0
M  V30 1298 C 120.209 -5.88829 -0.550803 0
M  V30 1299 H 119.139 -0.719591 -0.225177 0
M  V30 1300 H 121.79 -1.82902 0.147978 0
M  V30 1301 H 120.172 -3.47471 -1.89947 0
M  V30 1302 H 121.346 -4.54637 0.751099 0
M  V30 1303 H 119.661 -4.13113 0.522159 0
M  V30 1304 H 122.258 -4.8947 -2.15229 0
M  V30 1305 H 122.601 -3.24417 -2.60882 0
M  V30 1306 H 123.134 -3.84504 -1.01986 0
M  V30 1307 H 119.873 -6.54929 0.273457 0
M  V30 1308 H 119.393 -5.85698 -1.29296 0
M  V30 1309 H 121.072 -6.38811 -1.02613 0
M  V30 1310 N 121.204 0.198386 -1.56346 0
M  V30 1311 C 122.429 0.939682 -1.84891 0
M  V30 1312 C 122.854 1.76202 -0.658369 0
M  V30 1313 O 122.212 1.76993 0.392851 0
M  V30 1314 C 122.26 1.81428 -3.11635 0
M  V30 1315 O 121.364 2.91265 -2.91956 0
M  V30 1316 H 120.705 0.264807 -0.608912 0
M  V30 1317 H 123.235 0.204695 -2.03573 0
M  V30 1318 H 123.245 2.21958 -3.42343 0
M  V30 1319 H 121.92 1.21004 -3.97908 0
M  V30 1320 H 120.497 2.54514 -2.72538 0
M  V30 1321 N 122.682 1.50554 0.465978 0
M  V30 1322 C 123.612 1.72722 1.57128 0
M  V30 1323 C 124.593 0.576294 1.6004 0
M  V30 1324 O 125.778 0.81598 1.76225 0
M  V30 1325 C 122.908 1.82605 2.95419 0
M  V30 1326 C 121.862 2.97835 3.07373 0
M  V30 1327 C 121.188 2.92867 4.47363 0
M  V30 1328 C 122.488 4.38265 2.84114 0
M  V30 1329 H 124.182 2.65267 1.38829 0
M  V30 1330 H 121.728 1.2765 0.666441 0
M  V30 1331 H 123.681 1.96698 3.72677 0
M  V30 1332 H 122.405 0.866858 3.14886 0
M  V30 1333 H 121.064 2.83401 2.3255 0
M  V30 1334 H 120.712 1.94783 4.63755 0
M  V30 1335 H 120.412 3.70227 4.56296 0
M  V30 1336 H 121.936 3.09015 5.26633 0
M  V30 1337 H 123.35 4.53198 3.51118 0
M  V30 1338 H 121.747 5.17115 3.04487 0
M  V30 1339 H 122.817 4.50281 1.7993 0
M  V30 1340 N 124.16 -0.719506 1.40217 0
M  V30 1341 C 125.4 -1.49181 1.39729 0
M  V30 1342 C 125.764 -1.92 -0.00250614 0
M  V30 1343 O 126.965 -2.68473 -0.132479 0
M  V30 1344 C 125.236 -2.68767 2.35582 0
M  V30 1345 S 126.795 -3.58224 2.53418 0
M  V30 1346 H 123.613 -0.510091 0.495307 0
M  V30 1347 H 126.215 -0.841724 1.76452 0
M  V30 1348 H 124.919 -2.35475 3.36124 0
M  V30 1349 H 124.45 -3.38691 2.0013 0
M  V30 1350 H 126.465 -4.63033 1.78367 0
M  V30 1351 N 125.638 -1.25649 -0.95132 0
M  V30 1352 C 126.885 -1.10594 -1.69633 0
M  V30 1353 C 127.213 0.352515 -1.91279 0
M  V30 1354 O 126.468 1.27601 -1.4838 0
M  V30 1355 C 126.767 -1.80909 -3.08231 0
M  V30 1356 C 126.433 -3.30825 -3.06375 0
M  V30 1357 C 125.095 -3.71722 -3.05576 0
M  V30 1358 C 127.447 -4.26589 -2.99452 0
M  V30 1359 C 124.775 -5.06788 -2.95606 0
M  V30 1360 C 127.127 -5.61683 -2.91024 0
M  V30 1361 C 125.791 -6.01904 -2.88562 0
M  V30 1362 H 125.061 -0.404691 -0.620731 0
M  V30 1363 H 127.708 -1.55964 -1.11119 0
M  V30 1364 H 126.013 -1.27979 -3.70309 0
M  V30 1365 H 127.71 -1.6671 -3.64704 0
M  V30 1366 H 124.3 -2.98287 -3.07771 0
M  V30 1367 H 128.484 -3.95982 -2.99185 0
M  V30 1368 H 123.74 -5.37126 -2.92071 0
M  V30 1369 H 127.914 -6.35578 -2.84629 0
M  V30 1370 H 125.541 -7.06521 -2.80593 0
M  V30 1371 N 127.117 1.15442 -1.07289 0
M  V30 1372 C 128.366 1.85557 -0.790669 0
M  V30 1373 C 128.679 1.83186 0.685739 0
M  V30 1374 O 129.885 2.48977 1.0827 0
M  V30 1375 C 128.341 3.33038 -1.36433 0
M  V30 1376 C 127.949 3.43856 -2.8717 0
M  V30 1377 C 129.693 4.0834 -1.1601 0
M  V30 1378 C 127.6 4.85482 -3.3773 0
M  V30 1379 H 126.53 0.695122 -0.292098 0
M  V30 1380 H 129.181 1.30219 -1.29287 0
M  V30 1381 H 127.563 3.88043 -0.789864 0
M  V30 1382 H 128.737 2.98961 -3.50655 0
M  V30 1383 H 127.052 2.81998 -3.06376 0
M  V30 1384 H 129.649 5.12859 -1.51262 0
M  V30 1385 H 129.992 4.16182 -0.0991007 0
M  V30 1386 H 130.525 3.59603 -1.70089 0
M  V30 1387 H 127.264 4.82823 -4.43353 0
M  V30 1388 H 126.784 5.30961 -2.78999 0
M  V30 1389 H 128.463 5.54335 -3.33648 0
M  V30 1390 N 128.595 0.856903 1.32268 0
M  V30 1391 C 129.843 0.460474 1.96784 0
M  V30 1392 C 130.164 -0.987701 1.68135 0
M  V30 1393 O 129.434 -1.69058 0.989765 0
M  V30 1394 H 128.014 0.167289 0.728027 0
M  V30 1395 H 130.676 1.09383 1.61312 0
M  V30 1396 H 129.772 0.60739 3.06133 0
M  V30 1397 N 130.073 -1.45103 0.615059 0
M  V30 1398 C 131.036 -2.29025 -0.0895485 0
M  V30 1399 C 132.036 -1.40174 -0.787906 0
M  V30 1400 O 133.226 -1.62217 -0.634933 0
M  V30 1401 C 130.358 -3.21376 -1.13711 0
M  V30 1402 H 131.551 -2.92807 0.648382 0
M  V30 1403 H 129.104 -1.51749 0.374444 0
M  V30 1404 H 129.839 -2.6241 -1.90556 0
M  V30 1405 H 129.624 -3.86834 -0.640475 0
M  V30 1406 H 131.114 -3.84459 -1.63036 0
M  V30 1407 N 131.551 -0.354651 -1.53558 0
M  V30 1408 C 132.797 0.238797 -2.01389 0
M  V30 1409 C 133.13 1.49309 -1.2418 0
M  V30 1410 O 132.405 1.91638 -0.332457 0
M  V30 1411 C 132.688 0.541771 -3.56001 0
M  V30 1412 C 132.541 -0.725388 -4.43912 0
M  V30 1413 C 133.86 1.34685 -4.18984 0
M  V30 1414 H 130.979 0.0853177 -0.732045 0
M  V30 1415 H 133.621 -0.477384 -1.83905 0
M  V30 1416 H 131.771 1.15189 -3.71031 0
M  V30 1417 H 133.443 -1.36313 -4.407 0
M  V30 1418 H 131.686 -1.34801 -4.12324 0
M  V30 1419 H 132.357 -0.468505 -5.50008 0
M  V30 1420 H 134.833 0.830837 -4.07721 0
M  V30 1421 H 133.709 1.52759 -5.27215 0
M  V30 1422 H 133.97 2.35221 -3.74331 0
M  V30 1423 N 133.029 1.57378 -0.0835403 0
M  V30 1424 C 134.277 1.93547 0.581718 0
M  V30 1425 C 134.598 0.96524 1.69435 0
M  V30 1426 O 133.868 0.0153369 1.95894 0
M  V30 1427 H 132.448 0.714521 0.217874 0
M  V30 1428 H 135.11 1.94366 -0.144158 0
M  V30 1429 H 134.206 2.95665 0.999423 0
M  V30 1430 N 134.507 -0.190092 1.56449 0
M  V30 1431 C 135.737 -0.92443 1.84764 0
M  V30 1432 C 136.145 -1.77146 0.664529 0
M  V30 1433 O 135.488 -1.79812 -0.375957 0
M  V30 1434 C 135.55 -1.86651 3.07248 0
M  V30 1435 C 135.214 -1.20094 4.40938 0
M  V30 1436 C 136.211 -0.575445 5.16706 0
M  V30 1437 C 133.896 -1.2033 4.87674 0
M  V30 1438 C 135.89 0.0388111 6.37388 0
M  V30 1439 C 133.577 -0.585214 6.08291 0
M  V30 1440 C 134.575 0.0347578 6.82991 0
M  V30 1441 O 134.263 0.643147 8.01323 0
M  V30 1442 H 133.995 -0.274974 0.617548 0
M  V30 1443 H 136.549 -0.200788 2.04416 0
M  V30 1444 H 134.779 -2.62998 2.83494 0
M  V30 1445 H 136.468 -2.46907 3.22167 0
M  V30 1446 H 137.234 -0.565728 4.81689 0
M  V30 1447 H 133.113 -1.67526 4.29484 0
M  V30 1448 H 136.657 0.523329 6.95634 0
M  V30 1449 H 132.554 -0.592451 6.42775 0
M  V30 1450 H 133.322 0.540545 8.16713 0
M  V30 1451 O 136.024 -1.57982 -0.335264 0
M  V30 1452 H 136.715 -1.6682 -0.984419 0
M  V30 END ATOM
M  V30 BEGIN BOND
M  V30 END BOND
M  V30 END CTAB
M  END
$$$$
