drugbank_target|F1T0I5 Arylalkylamine N-acetyltransferase (DB09061; DB14009; DB14011)
 OpenBabel12092121093D

  0  0  0     0  0            999 V3000
M  V30 BEGIN CTAB
M  V30 COUNTS 3269 3318 0 0 0
M  V30 BEGIN ATOM
M  V30 1 H -0.908 1.98254 -0.117106 0
M  V30 2 N 0 1.576 0 0
M  V30 3 C 0.933 2.03868 1.02534 0
M  V30 4 C 1.911 0.928543 1.3348 0
M  V30 5 O 3.095 1.19667 1.45644 0
M  V30 6 C 0.222 2.43627 2.35294 0
M  V30 7 C -0.732 3.65373 2.2001 0
M  V30 8 S 0.101 5.13292 1.52614 0
M  V30 9 C 1.257 5.56322 2.86805 0
M  V30 10 H 1.49 2.90518 0.631377 0
M  V30 11 H -0.977 1.52953 0.210867 0
M  V30 12 H 0.981 2.67203 3.11629 0
M  V30 13 H -0.358 1.57376 2.7183 0
M  V30 14 H -1.165 3.90944 3.18086 0
M  V30 15 H -1.563 3.418 1.51819 0
M  V30 16 H 0.729 5.58782 3.83104 0
M  V30 17 H 1.672 6.56266 2.65933 0
M  V30 18 H 2.08 4.83886 2.90714 0
M  V30 19 N 1.4781 -0.272755 1.55222 0
M  V30 20 C 2.7031 -1.02683 1.80197 0
M  V30 21 C 3.1281 -1.79142 0.573551 0
M  V30 22 O 2.4861 -1.74917 -0.476849 0
M  V30 23 C 2.5341 -1.9609 3.02624 0
M  V30 24 O 1.6381 -3.04863 2.77727 0
M  V30 25 H 0.9791 -0.293557 0.595584 0
M  V30 26 H 3.5091 -0.30159 2.02365 0
M  V30 27 H 3.5191 -2.38039 3.31363 0
M  V30 28 H 2.1941 -1.39851 3.91682 0
M  V30 29 H 0.7711 -2.67228 2.60084 0
M  V30 30 N 2.9562 -1.48159 -0.537278 0
M  V30 31 C 4.1842 -1.59454 -1.31841 0
M  V30 32 C 4.5992 -0.252065 -1.8711 0
M  V30 33 O 3.9562 0.757621 -1.66031 0
M  V30 34 C 4.0072 -2.63546 -2.47439 0
M  V30 35 O 3.7282 -3.92583 -1.94449 0
M  V30 36 C 5.2292 -2.85212 -3.39366 0
M  V30 37 H 2.4492 -0.53785 -0.401196 0
M  V30 38 H 4.9932 -1.93932 -0.648891 0
M  V30 39 H 3.1482 -2.31946 -3.1029 0
M  V30 40 H 3.5622 -4.49629 -2.70063 0
M  V30 41 H 5.0362 -3.61863 -4.16844 0
M  V30 42 H 5.5132 -1.93765 -3.94147 0
M  V30 43 H 6.1192 -3.18086 -2.82314 0
M  V30 44 N 4.4343 0.785586 -1.36625 0
M  V30 45 C 5.3663 1.90711 -1.2713 0
M  V30 46 C 6.3793 1.61688 -0.189986 0
M  V30 47 O 7.5683 1.72864 -0.445014 0
M  V30 48 C 4.6683 3.25611 -0.939713 0
M  V30 49 C 3.8413 3.82385 -2.12369 0
M  V30 50 C 2.9003 4.95732 -1.76456 0
M  V30 51 O 1.9263 5.12047 -2.48589 0
M  V30 52 N 3.1283 5.76258 -0.700492 0
M  V30 53 H 5.8933 1.99376 -2.23762 0
M  V30 54 H 3.4543 0.964041 -1.30069 0
M  V30 55 H 5.4463 3.98937 -0.680554 0
M  V30 56 H 4.0163 3.12538 -0.0624074 0
M  V30 57 H 3.2363 3.01001 -2.54543 0
M  V30 58 H 4.5243 4.17047 -2.9146 0
M  V30 59 H 3.9223 5.65609 -0.101624 0
M  V30 60 H 2.4793 6.4987 -0.501165 0
M  V30 61 N 5.9124 1.20967 1.01018 0
M  V30 62 C 7.1374 1.0503 1.78839 0
M  V30 63 C 7.5624 -0.395752 1.8389 0
M  V30 64 O 6.9204 -1.28529 1.27867 0
M  V30 65 C 6.9684 1.64602 3.2084 0
M  V30 66 O 6.0724 0.887988 4.02726 0
M  V30 67 H 5.4134 0.369987 0.551367 0
M  V30 68 H 7.9434 1.60399 1.27018 0
M  V30 69 H 7.9534 1.68607 3.71532 0
M  V30 70 H 6.6284 2.69841 3.16479 0
M  V30 71 H 5.2054 0.922648 3.61305 0
M  V30 72 N 7.3905 -1.2043 1.01659 0
M  V30 73 C 8.6185 -1.93777 0.725132 0
M  V30 74 C 9.0335 -1.74772 -0.714166 0
M  V30 75 O 8.3905 -1.06169 -1.4844 0
M  V30 76 C 8.4415 -3.45876 1.05129 0
M  V30 77 O 8.1625 -3.6426 2.43406 0
M  V30 78 C 9.6635 -4.36368 0.780891 0
M  V30 79 H 6.8835 -0.615901 0.266284 0
M  V30 80 H 9.4275 -1.52922 1.35776 0
M  V30 81 H 7.5825 -3.8461 0.464065 0
M  V30 82 H 7.9965 -4.58246 2.55169 0
M  V30 83 H 9.4705 -5.41743 1.05918 0
M  V30 84 H 9.9475 -4.38275 -0.284937 0
M  V30 85 H 10.5535 -4.03296 1.35027 0
M  V30 86 N 8.8686 -0.792821 -1.36206 0
M  V30 87 C 9.8186 -0.166598 -2.27391 0
M  V30 88 C 10.8026 0.651479 -1.47121 0
M  V30 89 O 11.9946 0.510994 -1.69463 0
M  V30 90 C 9.1236 0.695033 -3.36191 0
M  V30 91 C 8.2096 -0.132019 -4.23894 0
M  V30 92 N 8.6006 -1.18822 -4.91645 0
M  V30 93 C 6.8986 0.0885952 -4.45912 0
M  V30 94 C 7.5996 -1.69198 -5.56549 0
M  V30 95 N 6.5756 -1.00065 -5.34311 0
M  V30 96 H 10.3776 -0.974947 -2.77258 0
M  V30 97 H 7.8916 -0.632616 -1.49572 0
M  V30 98 H 9.8886 1.1596 -4.00448 0
M  V30 99 H 8.5486 1.50189 -2.87877 0
M  V30 100 H 9.5596 -1.57069 -4.93507 0
M  V30 101 H 6.2366 0.865688 -4.08426 0
M  V30 102 H 7.6266 -2.57395 -6.20643 0
M  V30 103 N 10.3467 1.47872 -0.545128 0
M  V30 104 C 11.7577 1.86384 -0.108581 0
M  V30 105 C 12.1087 1.45309 1.31832 0
M  V30 106 O 11.2337 0.850641 1.9898 0
M  V30 107 C 11.8287 3.38265 -0.190274 0
M  V30 108 C 10.3877 3.75914 0.191164 0
M  V30 109 C 9.5347 2.71926 -0.543273 0
M  V30 110 H 12.4857 1.39561 -0.755537 0
M  V30 111 H 12.5067 3.75831 0.594217 0
M  V30 112 H 12.0187 3.6813 -1.2289 0
M  V30 113 H 10.1197 3.51665 1.23136 0
M  V30 114 H 10.2327 4.78836 -0.158987 0
M  V30 115 H 8.5967 2.54697 0.0122495 0
M  V30 116 H 9.3797 3.04634 -1.58282 0
M  V30 117 N 11.8248 0.280983 1.55075 0
M  V30 118 C 12.7548 -0.597469 2.25727 0
M  V30 119 C 13.7358 -1.15417 1.24952 0
M  V30 120 O 14.9208 -1.18722 1.53684 0
M  V30 121 C 12.0508 -1.7789 2.98283 0
M  V30 122 C 11.0048 -1.35347 4.06036 0
M  V30 123 C 10.3308 -2.61846 4.66198 0
M  V30 124 C 11.6308 -0.499354 5.19907 0
M  V30 125 H 13.3248 -0.00824265 2.99399 0
M  V30 126 H 10.8708 -0.0025244 1.44 0
M  V30 127 H 12.8238 -2.39937 3.46422 0
M  V30 128 H 11.5478 -2.39405 2.22155 0
M  V30 129 H 10.2068 -0.756156 3.58717 0
M  V30 130 H 9.8548 -3.21632 3.86732 0
M  V30 131 H 9.5548 -2.3409 5.38958 0
M  V30 132 H 11.0788 -3.24732 5.1709 0
M  V30 133 H 12.4928 -1.02498 5.64063 0
M  V30 134 H 10.8898 -0.316424 5.99265 0
M  V30 135 H 11.9598 0.480459 4.82514 0
M  V30 136 N 13.3029 -1.57598 0.00835791 0
M  V30 137 C 14.2499 -2.08945 -0.980346 0
M  V30 138 C 15.2199 -0.986738 -1.33614 0
M  V30 139 O 16.4049 -1.25968 -1.43306 0
M  V30 140 C 13.5449 -2.60425 -2.26435 0
M  V30 141 C 12.6579 -3.84628 -1.96685 0
M  V30 142 C 11.7929 -4.24579 -3.19228 0
M  V30 143 C 10.8319 -5.41596 -2.85202 0
M  V30 144 N 9.9689 -5.768 -4.00307 0
M  V30 145 H 14.8089 -2.93148 -0.535551 0
M  V30 146 H 12.3459 -1.44912 -0.252776 0
M  V30 147 H 14.3039 -2.88354 -3.01509 0
M  V30 148 H 12.9339 -1.79083 -2.68568 0
M  V30 149 H 11.9859 -3.63556 -1.11942 0
M  V30 150 H 13.2979 -4.69796 -1.67611 0
M  V30 151 H 12.4519 -4.53834 -4.02641 0
M  V30 152 H 11.1909 -3.38137 -3.51447 0
M  V30 153 H 10.1959 -5.12056 -2.00198 0
M  V30 154 H 11.4209 -6.29721 -2.54222 0
M  V30 155 H 9.3669 -4.93316 -4.32407 0
M  V30 156 H 9.2839 -6.5656 -3.74786 0
M  V30 157 H 10.5519 -6.10652 -4.84484 0
M  V30 158 N 14.781 0.264519 -1.55364 0
M  V30 159 C 16.192 0.834936 -1.6699 0
M  V30 160 C 16.543 1.86718 -0.602552 0
M  V30 161 O 15.668 2.14899 0.254425 0
M  V30 162 C 16.263 1.5212 -3.02729 0
M  V30 163 C 14.822 2.03954 -3.16354 0
M  V30 164 C 13.969 0.884498 -2.62815 0
M  V30 165 H 16.92 0.0406869 -1.58648 0
M  V30 166 H 16.941 2.38853 -2.96191 0
M  V30 167 H 16.453 0.769668 -3.80392 0
M  V30 168 H 14.554 2.82041 -2.43482 0
M  V30 169 H 14.667 2.24902 -4.23032 0
M  V30 170 H 13.031 1.2802 -2.20188 0
M  V30 171 H 13.814 0.14634 -3.42988 0
M  V30 172 N 16.2591 1.48442 0.529413 0
M  V30 173 C 17.1691 1.6569 1.66084 0
M  V30 174 C 18.1851 0.539432 1.65427 0
M  V30 175 O 19.3611 0.810572 1.84368 0
M  V30 176 C 16.4261 1.69315 3.02545 0
M  V30 177 C 15.4871 2.92694 3.14052 0
M  V30 178 C 14.7201 2.96137 4.44003 0
M  V30 179 O 14.9431 2.07973 5.31134 0
M  V30 180 O 13.8771 3.88312 4.59888 0
M  V30 181 H 17.7031 2.61483 1.54469 0
M  V30 182 H 15.2881 1.3185 0.702567 0
M  V30 183 H 17.1701 1.74217 3.83701 0
M  V30 184 H 15.8451 0.766966 3.14483 0
M  V30 185 H 14.7521 2.93324 2.32189 0
M  V30 186 H 16.0851 3.84699 3.0703 0
M  V30 187 N 17.7372 -0.778329 1.37039 0
M  V30 188 C 18.7002 -1.87301 1.32102 0
M  V30 189 C 19.7002 -1.59198 0.226405 0
M  V30 190 O 20.8902 -1.67403 0.481861 0
M  V30 191 C 18.0222 -3.24309 1.05055 0
M  V30 192 H 19.2152 -1.93093 2.29467 0
M  V30 193 H 16.7682 -0.977358 1.21973 0
M  V30 194 H 17.5032 -3.24196 0.0819373 0
M  V30 195 H 17.2882 -3.46098 1.84279 0
M  V30 196 H 18.7782 -4.04382 1.04234 0
M  V30 197 N 19.2153 -1.21501 -1.00376 0
M  V30 198 C 20.6263 -1.03146 -1.55621 0
M  V30 199 C 20.9773 0.408375 -1.91903 0
M  V30 200 O 20.1023 1.29177 -1.73616 0
M  V30 201 C 20.6973 -1.86612 -2.82775 0
M  V30 202 C 19.2563 -1.72586 -3.34501 0
M  V30 203 C 18.4033 -1.83747 -2.07683 0
M  V30 204 H 21.3543 -1.35505 -0.826081 0
M  V30 205 H 21.3753 -1.3771 -3.54706 0
M  V30 206 H 20.8873 -2.91399 -2.56336 0
M  V30 207 H 18.9883 -0.704877 -3.65872 0
M  V30 208 H 19.1013 -2.54623 -4.05837 0
M  V30 209 H 17.4653 -1.27069 -2.20739 0
M  V30 210 H 18.2483 -2.90044 -1.83655 0
M  V30 211 N 20.6934 1.19889 -1.02296 0
M  V30 212 C 22.1094 1.41462 -0.738954 0
M  V30 213 C 22.3094 1.89721 0.678846 0
M  V30 214 O 21.3654 2.07016 1.4457 0
M  V30 215 C 22.6784 2.43083 -1.77005 0
M  V30 216 C 24.2264 2.5684 -1.78892 0
M  V30 217 C 24.7014 3.61709 -2.80945 0
M  V30 218 N 26.1924 3.69199 -2.79725 0
M  V30 219 C 26.9274 4.50019 -3.55345 0
M  V30 220 N 26.4234 5.34592 -4.40662 0
M  V30 221 N 28.2164 4.44612 -3.43914 0
M  V30 222 H 20.3674 0.868827 -1.93817 0
M  V30 223 H 22.6304 0.44399 -0.837602 0
M  V30 224 H 22.3364 2.14636 -2.78612 0
M  V30 225 H 22.2104 3.4217 -1.58744 0
M  V30 226 H 24.5974 2.84614 -0.779674 0
M  V30 227 H 24.6784 1.57927 -2.01228 0
M  V30 228 H 24.3224 3.34678 -3.82038 0
M  V30 229 H 24.2524 4.60259 -2.5587 0
M  V30 230 H 26.7434 3.08794 -2.17842 0
M  V30 231 H 27.0564 5.93363 -4.95116 0
M  V30 232 H 25.4014 5.34073 -4.44737 0
M  V30 233 H 28.5924 3.7758 -2.76679 0
M  V30 234 H 28.7654 5.0736 -4.031 0
M  V30 235 N 22.1715 0.800033 1.35784 0
M  V30 236 C 23.1015 0.220184 2.3246 0
M  V30 237 C 24.0825 -0.65073 1.57161 0
M  V30 238 O 25.2675 -0.582359 1.85263 0
M  V30 239 C 22.3975 -0.637353 3.41402 0
M  V30 240 C 21.3515 0.134531 4.27789 0
M  V30 241 C 20.6775 -0.844285 5.27992 0
M  V30 242 C 21.9775 1.32979 5.05088 0
M  V30 243 H 23.6715 1.02787 2.81203 0
M  V30 244 H 21.2175 0.495717 1.35199 0
M  V30 245 H 23.1705 -1.05302 4.08031 0
M  V30 246 H 21.8945 -1.47785 2.91251 0
M  V30 247 H 20.5535 0.531296 3.6273 0
M  V30 248 H 20.2015 -1.68011 4.74111 0
M  V30 249 H 19.9015 -0.332184 5.8666 0
M  V30 250 H 21.4255 -1.2583 5.97494 0
M  V30 251 H 22.8395 0.98934 5.64699 0
M  V30 252 H 21.2365 1.77593 5.7322 0
M  V30 253 H 22.3065 2.11978 4.36111 0
M  V30 254 N 23.6496 -1.47581 0.552962 0
M  V30 255 C 25.0606 -1.86324 0.118463 0
M  V30 256 C 25.4116 -1.46006 -1.3106 0
M  V30 257 O 24.5366 -0.861182 -1.98526 0
M  V30 258 C 25.1316 -3.3816 0.20821 0
M  V30 259 C 23.6906 -3.7601 -0.171226 0
M  V30 260 C 22.8376 -2.71634 0.557686 0
M  V30 261 H 25.7886 -1.39159 0.762928 0
M  V30 262 H 25.8096 -3.76141 -0.574278 0
M  V30 263 H 25.3216 -3.67473 1.24841 0
M  V30 264 H 23.4226 -3.52313 -1.21269 0
M  V30 265 H 23.5356 -4.78745 0.184379 0
M  V30 266 H 21.8996 -2.547 0.00125792 0
M  V30 267 H 22.6826 -3.0379 1.59896 0
M  V30 268 N 25.1277 -0.289203 -1.54924 0
M  V30 269 C 26.5387 0.205791 -1.85562 0
M  V30 270 C 26.8897 1.54351 -1.2112 0
M  V30 271 O 26.0147 2.10435 -0.504601 0
M  V30 272 C 26.6097 0.380177 -3.3666 0
M  V30 273 C 25.1687 0.819395 -3.67373 0
M  V30 274 C 24.3157 -0.079159 -2.77187 0
M  V30 275 H 27.2667 -0.510577 -1.50262 0
M  V30 276 H 27.2877 1.21659 -3.60526 0
M  V30 277 H 26.7997 -0.593589 -3.83534 0
M  V30 278 H 24.9007 1.80413 -3.26009 0
M  V30 279 H 25.0137 0.646957 -4.74712 0
M  V30 280 H 23.3777 0.439565 -2.50878 0
M  V30 281 H 24.1607 -1.04906 -3.26878 0
M  V30 282 N 26.6058 1.57591 -0.0167156 0
M  V30 283 C 27.8538 1.90906 0.663285 0
M  V30 284 C 28.1748 0.892509 1.73376 0
M  V30 285 O 27.4448 -0.0677623 1.95783 0
M  V30 286 H 26.0248 0.704637 0.247983 0
M  V30 287 H 28.6868 1.94803 -0.0615909 0
M  V30 288 H 27.7828 2.9116 1.12393 0
M  V30 289 N 28.0839 -0.256276 1.55502 0
M  V30 290 C 29.3329 -0.983486 1.76098 0
M  V30 291 C 29.6459 -1.86837 0.578896 0
M  V30 292 O 30.8519 -2.63163 0.667648 0
M  V30 293 C 29.3079 -1.79868 3.1173 0
M  V30 294 C 28.9159 -0.961648 4.37557 0
M  V30 295 C 30.6599 -2.51919 3.41668 0
M  V30 296 C 28.5669 -1.77219 5.64223 0
M  V30 297 H 27.4969 -0.370936 0.656447 0
M  V30 298 H 30.1479 -0.238492 1.81944 0
M  V30 299 H 28.5299 -2.58527 2.99966 0
M  V30 300 H 29.7039 -0.218048 4.60284 0
M  V30 301 H 28.0189 -0.354913 4.14885 0
M  V30 302 H 30.6159 -3.12998 4.33516 0
M  V30 303 H 30.9589 -3.23059 2.62562 0
M  V30 304 H 31.4919 -1.80278 3.54605 0
M  V30 305 H 28.2309 -1.10471 6.46124 0
M  V30 306 H 27.7509 -2.49132 5.45613 0
M  V30 307 H 29.4299 -2.34169 6.03137 0
M  V30 308 N 29.562 -1.4872 -0.521534 0
M  V30 309 C 30.973 -1.50607 -1.10337 0
M  V30 310 C 31.324 -0.280612 -1.94183 0
M  V30 311 O 30.449 0.611507 -2.0758 0
M  V30 312 C 31.044 -2.72903 -2.00772 0
M  V30 313 C 29.603 -2.77634 -2.54158 0
M  V30 314 C 28.75 -2.44241 -1.31307 0
M  V30 315 H 31.701 -1.55714 -0.306388 0
M  V30 316 H 31.722 -2.519 -2.85178 0
M  V30 317 H 31.234 -3.62077 -1.39721 0
M  V30 318 H 29.335 -1.92689 -3.18907 0
M  V30 319 H 29.448 -3.79283 -2.92714 0
M  V30 320 H 27.812 -1.95577 -1.63161 0
M  V30 321 H 28.595 -3.35666 -0.719943 0
M  V30 322 N 31.0401 0.771051 -1.3745 0
M  V30 323 C 31.9501 1.91538 -1.35464 0
M  V30 324 C 32.9661 1.72134 -0.254123 0
M  V30 325 O 34.1421 1.95358 -0.489626 0
M  V30 326 C 31.2071 3.26671 -1.16134 0
M  V30 327 C 30.2681 3.58723 -2.35831 0
M  V30 328 C 29.5011 4.87409 -2.17413 0
M  V30 329 O 29.7241 5.58506 -1.15876 0
M  V30 330 O 28.6581 5.18539 -3.05615 0
M  V30 331 H 32.4841 1.96165 -2.31847 0
M  V30 332 H 30.0691 0.9139 -1.18187 0
M  V30 333 H 31.9511 4.07499 -1.07345 0
M  V30 334 H 30.6261 3.22894 -0.228251 0
M  V30 335 H 29.5331 2.78127 -2.50192 0
M  V30 336 H 30.8661 3.67243 -3.27709 0
M  V30 337 N 32.5182 1.22032 0.997298 0
M  V30 338 C 33.7432 1.06921 1.77715 0
M  V30 339 C 34.1682 -0.376226 1.84299 0
M  V30 340 O 33.5262 -1.27165 1.29223 0
M  V30 341 C 33.5742 1.67996 3.19076 0
M  V30 342 O 32.6782 0.930653 4.01762 0
M  V30 343 H 32.0192 0.375814 0.547412 0
M  V30 344 H 34.5492 1.61737 1.25309 0
M  V30 345 H 34.5592 1.72538 3.69723 0
M  V30 346 H 33.2342 2.73182 3.13599 0
M  V30 347 H 31.8112 0.960917 3.60307 0
M  V30 348 N 33.9963 -1.19345 1.0293 0
M  V30 349 C 35.4073 -1.70725 0.755633 0
M  V30 350 C 35.7583 -1.82326 -0.724676 0
M  V30 351 O 34.8833 -1.49471 -1.56484 0
M  V30 352 C 35.4783 -3.10084 1.36503 0
M  V30 353 C 34.0373 -3.58723 1.13994 0
M  V30 354 C 33.1843 -2.35577 1.46283 0
M  V30 355 H 36.1353 -1.0418 1.19718 0
M  V30 356 H 36.1563 -3.72787 0.762217 0
M  V30 357 H 35.6683 -3.01609 2.44241 0
M  V30 358 H 33.7693 -3.72512 0.0807901 0
M  V30 359 H 33.8823 -4.42816 1.82894 0
M  V30 360 H 32.2463 -2.38935 0.88217 0
M  V30 361 H 33.0293 -2.29731 2.55105 0
M  V30 362 N 35.4744 -0.807222 -1.35358 0
M  V30 363 C 36.6994 -0.399309 -2.0352 0
M  V30 364 C 37.1244 0.981986 -1.60433 0
M  V30 365 O 36.4824 1.63601 -0.781299 0
M  V30 366 C 36.5304 -0.491552 -3.57234 0
M  V30 367 O 35.6344 0.494754 -4.09421 0
M  V30 368 H 34.9754 -0.166682 -0.642739 0
M  V30 369 H 37.5054 -1.09328 -1.72941 0
M  V30 370 H 37.5154 -0.361588 -4.06395 0
M  V30 371 H 36.1904 -1.49907 -3.87944 0
M  V30 372 H 34.7674 0.324977 -3.71481 0
M  V30 373 N 36.9525 1.47285 -0.560781 0
M  V30 374 C 38.1925 2.0436 -0.0404627 0
M  V30 375 C 38.5565 1.42534 1.28639 0
M  V30 376 O 39.7575 1.90677 1.89462 0
M  V30 377 C 38.0285 3.57369 0.0471856 0
M  V30 378 S 39.5875 4.3579 0.513109 0
M  V30 379 H 36.4055 0.710492 -0.0268674 0
M  V30 380 H 39.0075 1.80611 -0.748323 0
M  V30 381 H 37.7115 3.9989 -0.922817 0
M  V30 382 H 37.2425 3.8562 0.778491 0
M  V30 383 H 39.2575 4.63476 1.77212 0
M  V30 384 N 38.4306 0.297415 1.54768 0
M  V30 385 C 39.3626 -0.613881 2.20826 0
M  V30 386 C 40.3756 -1.10032 1.19987 0
M  V30 387 O 41.5646 -1.01839 1.46598 0
M  V30 388 C 38.6646 -1.852 2.83821 0
M  V30 389 C 37.8376 -1.50865 4.10559 0
M  V30 390 C 36.8966 -2.60154 4.57391 0
M  V30 391 O 35.9226 -2.25398 5.2267 0
M  V30 392 N 37.1246 -3.90629 4.29406 0
M  V30 393 H 39.8896 -0.048389 2.99661 0
M  V30 394 H 37.4506 0.11946 1.61459 0
M  V30 395 H 39.4426 -2.57652 3.12086 0
M  V30 396 H 38.0126 -2.32597 2.08847 0
M  V30 397 H 37.2326 -0.616925 3.89343 0
M  V30 398 H 38.5206 -1.25458 4.9309 0
M  V30 399 H 37.9186 -4.21677 3.77101 0
M  V30 400 H 36.4756 -4.59391 4.62388 0
M  V30 401 N 39.9087 -1.5758 0.0250728 0
M  V30 402 C 41.3247 -1.56124 -0.331282 0
M  V30 403 C 41.5247 -1.03029 -1.73169 0
M  V30 404 O 40.5807 -0.675215 -2.43305 0
M  V30 405 C 41.8937 -3.00139 -0.183584 0
M  V30 406 C 43.4417 -3.11946 -0.256654 0
M  V30 407 C 43.9167 -4.57793 -0.137792 0
M  V30 408 N 45.4077 -4.6279 -0.194904 0
M  V30 409 C 46.1427 -5.7326 -0.126655 0
M  V30 410 N 45.6387 -6.928 -0.00755288 0
M  V30 411 N 47.4317 -5.61811 -0.180348 0
M  V30 412 H 39.5827 -1.90424 0.94087 0
M  V30 413 H 41.8457 -0.875761 0.362968 0
M  V30 414 H 41.5517 -3.4292 0.780927 0
M  V30 415 H 41.4257 -3.64899 -0.955448 0
M  V30 416 H 43.8127 -2.69079 -1.21162 0
M  V30 417 H 43.8937 -2.49915 0.545517 0
M  V30 418 H 43.5377 -5.01339 0.813739 0
M  V30 419 H 43.4677 -5.17798 -0.958775 0
M  V30 420 H 45.9587 -3.76807 -0.287267 0
M  V30 421 H 46.2717 -7.72791 0.0379428 0
M  V30 422 H 44.6167 -6.94995 0.0271731 0
M  V30 423 H 47.8077 -4.6731 -0.271767 0
M  V30 424 H 47.9807 -6.47882 -0.123697 0
M  V30 425 N 41.3868 0.248026 -1.55636 0
M  V30 426 C 42.8028 0.596483 -1.48035 0
M  V30 427 C 43.0028 1.88386 -0.715039 0
M  V30 428 O 42.0588 2.51319 -0.243944 0
M  V30 429 C 43.3718 0.700258 -2.92433 0
M  V30 430 C 44.9198 0.792659 -3.02797 0
M  V30 431 C 45.3948 0.928005 -4.485 0
M  V30 432 N 46.8858 0.992903 -4.52433 0
M  V30 433 C 47.6208 1.11687 -5.62418 0
M  V30 434 N 47.1168 1.20645 -6.82214 0
M  V30 435 N 48.9098 1.14994 -5.50212 0
M  V30 436 H 41.0608 -0.597109 -2.03834 0
M  V30 437 H 43.3238 -0.205925 -0.925364 0
M  V30 438 H 43.0298 -0.175658 -3.51261 0
M  V30 439 H 42.9038 1.57255 -3.42857 0
M  V30 440 H 45.2908 1.65903 -2.4405 0
M  V30 441 H 45.3718 -0.104762 -2.55585 0
M  V30 442 H 45.0158 0.0661971 -5.07857 0
M  V30 443 H 44.9458 1.84045 -4.93391 0
M  V30 444 H 47.4368 0.935064 -3.66149 0
M  V30 445 H 47.7498 1.30008 -7.61786 0
M  V30 446 H 46.0948 1.17605 -6.84977 0
M  V30 447 H 49.2858 1.07643 -4.55555 0
M  V30 448 H 49.4588 1.24311 -6.35965 0
M  V30 449 N 42.8649 1.48995 0.513639 0
M  V30 450 C 43.8149 1.61127 1.61314 0
M  V30 451 C 44.7989 0.467521 1.53958 0
M  V30 452 O 45.9909 0.719826 1.61702 0
M  V30 453 C 43.1199 1.66937 2.99978 0
M  V30 454 C 42.2059 2.86847 3.12377 0
M  V30 455 N 42.5969 4.11078 2.94701 0
M  V30 456 C 40.8949 2.84521 3.43459 0
M  V30 457 C 41.5959 4.91615 3.10949 0
M  V30 458 N 40.5719 4.24739 3.3926 0
M  V30 459 H 44.3739 2.54909 1.46282 0
M  V30 460 H 41.8879 1.45593 0.719483 0
M  V30 461 H 43.8849 1.73725 3.78979 0
M  V30 462 H 42.5449 0.742831 3.16089 0
M  V30 463 H 43.5559 4.41258 2.71131 0
M  V30 464 H 40.2329 2.01192 3.65825 0
M  V30 465 H 41.6229 6.00264 3.01882 0
M  V30 466 N 44.343 -0.763751 1.37857 0
M  V30 467 C 45.571 -1.55293 1.36718 0
M  V30 468 C 45.986 -1.88745 -0.0455434 0
M  V30 469 O 45.343 -1.52039 -1.00947 0
M  V30 470 C 45.394 -2.85831 2.2132 0
M  V30 471 O 45.115 -2.5381 3.57089 0
M  V30 472 C 46.616 -3.80023 2.28249 0
M  V30 473 H 43.836 -0.480841 0.468009 0
M  V30 474 H 46.38 -0.946009 1.81303 0
M  V30 475 H 44.535 -3.42926 1.80223 0
M  V30 476 H 44.949 -3.37459 4.01524 0
M  V30 477 H 46.423 -4.68599 2.91752 0
M  V30 478 H 46.9 -4.1973 1.2932 0
M  V30 479 H 47.506 -3.28855 2.69693 0
M  V30 480 N 45.8211 -1.22559 -0.990812 0
M  V30 481 C 46.7511 -1.0218 -2.09956 0
M  V30 482 C 47.7321 0.0579394 -1.70001 0
M  V30 483 O 48.9171 -0.104684 -1.93918 0
M  V30 484 C 46.0471 -0.601023 -3.4206 0
M  V30 485 C 45.0011 -1.62694 -3.95872 0
M  V30 486 C 44.3271 -1.06193 -5.24049 0
M  V30 487 C 45.6271 -3.01743 -4.2632 0
M  V30 488 H 47.3211 -1.94916 -2.27262 0
M  V30 489 H 44.8671 -0.938566 -1.09211 0
M  V30 490 H 46.8201 -0.445561 -4.19038 0
M  V30 491 H 45.5441 0.362005 -3.24588 0
M  V30 492 H 44.2031 -1.77021 -3.21028 0
M  V30 493 H 43.8511 -0.0901903 -5.02919 0
M  V30 494 H 43.5511 -1.74732 -5.61019 0
M  V30 495 H 45.0751 -0.918092 -6.03658 0
M  V30 496 H 46.4891 -2.90777 -4.94087 0
M  V30 497 H 44.8861 -3.67425 -4.74467 0
M  V30 498 H 45.9561 -3.51518 -3.34011 0
M  V30 499 N 47.2992 1.18797 -1.03562 0
M  V30 500 C 48.7102 1.70322 -0.764676 0
M  V30 501 C 49.0612 1.82708 0.714996 0
M  V30 502 O 48.1862 1.50299 1.55689 0
M  V30 503 C 48.7812 3.09356 -1.38145 0
M  V30 504 C 47.3402 3.58114 -1.15895 0
M  V30 505 C 46.4872 2.34798 -1.4753 0
M  V30 506 H 49.4382 1.03543 -1.20268 0
M  V30 507 H 49.4592 3.72378 -0.781977 0
M  V30 508 H 48.9712 3.00309 -2.45837 0
M  V30 509 H 47.0722 3.72464 -0.100544 0
M  V30 510 H 47.1852 4.4184 -1.8524 0
M  V30 511 H 45.5492 2.38464 -0.894829 0
M  V30 512 H 46.3322 2.28375 -2.56319 0
M  V30 513 N 48.7773 0.814389 1.34928 0
M  V30 514 C 49.7403 0.235759 2.27984 0
M  V30 515 C 50.7403 -0.581412 1.49921 0
M  V30 516 O 51.9303 -0.398758 1.69575 0
M  V30 517 C 49.0623 -0.670433 3.34242 0
M  V30 518 H 50.2553 1.05659 2.80671 0
M  V30 519 H 47.8083 0.585614 1.44915 0
M  V30 520 H 48.5433 -1.51466 2.86755 0
M  V30 521 H 48.3283 -0.0860822 3.92005 0
M  V30 522 H 49.8183 -1.06935 4.03676 0
M  V30 523 N 50.2554 -1.46986 0.568584 0
M  V30 524 C 51.4804 -2.07335 0.0520528 0
M  V30 525 C 51.9054 -1.41675 -1.23733 0
M  V30 526 O 51.2634 -0.495623 -1.74394 0
M  V30 527 C 51.3114 -3.60417 -0.11501 0
M  V30 528 O 50.4154 -3.95309 -1.17492 0
M  V30 529 H 49.7564 -0.661597 0.0564385 0
M  V30 530 H 52.2864 -1.88837 0.787507 0
M  V30 531 H 52.2964 -4.06698 -0.325644 0
M  V30 532 H 50.9714 -4.07601 0.826675 0
M  V30 533 H 49.5484 -3.60757 -0.943869 0
M  V30 534 N 51.7335 -0.305618 -1.54608 0
M  V30 535 C 52.6435 0.57778 -2.27374 0
M  V30 536 C 53.6595 1.14451 -1.31061 0
M  V30 537 O 54.8355 1.16831 -1.6405 0
M  V30 538 C 51.9005 1.73123 -3.00382 0
M  V30 539 C 50.9615 1.19812 -4.12242 0
M  V30 540 C 50.1945 2.2966 -4.81759 0
M  V30 541 O 50.4175 3.49651 -4.50666 0
M  V30 542 O 49.3515 1.96091 -5.69062 0
M  V30 543 H 53.1775 -0.012624 -3.03697 0
M  V30 544 H 50.7625 -0.0719184 -1.49227 0
M  V30 545 H 52.6445 2.40315 -3.4616 0
M  V30 546 H 51.3195 2.30815 -2.26949 0
M  V30 547 H 50.2265 0.491798 -3.70853 0
M  V30 548 H 51.5595 0.666566 -4.87666 0
M  V30 549 N 53.2116 1.57565 -0.0334293 0
M  V30 550 C 54.4586 1.91978 0.644272 0
M  V30 551 C 54.7866 0.910231 1.71887 0
M  V30 552 O 54.0416 -0.0801961 1.95536 0
M  V30 553 C 54.3406 3.33112 1.29504 0
M  V30 554 C 54.0066 4.49537 0.350388 0
M  V30 555 C 52.6686 4.81115 0.0903974 0
M  V30 556 C 55.0206 5.20347 -0.298032 0
M  V30 557 C 52.3486 5.8086 -0.825746 0
M  V30 558 C 54.7006 6.2107 -1.20226 0
M  V30 559 C 53.3646 6.51088 -1.4711 0
M  V30 560 H 52.6346 0.702496 0.235756 0
M  V30 561 H 55.2816 1.91259 -0.0961176 0
M  V30 562 H 53.5866 3.30113 2.11028 0
M  V30 563 H 55.2836 3.57011 1.82603 0
M  V30 564 H 51.8736 4.24883 0.563205 0
M  V30 565 H 56.0576 4.96178 -0.110234 0
M  V30 566 H 51.3136 6.02461 -1.04169 0
M  V30 567 H 55.4876 6.75057 -1.71086 0
M  V30 568 H 53.1146 7.28193 -2.18264 0
M  V30 569 N 54.6897 -0.239769 1.55765 0
M  V30 570 C 56.1057 -0.588624 1.48349 0
M  V30 571 C 56.3057 -1.88005 0.72502 0
M  V30 572 O 55.3617 -2.51186 0.257269 0
M  V30 573 C 56.6747 -0.68474 2.928 0
M  V30 574 C 58.2227 -0.77659 3.03213 0
M  V30 575 C 58.6977 -0.904207 4.48986 0
M  V30 576 N 60.1887 -0.968896 4.52953 0
M  V30 577 C 60.9237 -1.08703 5.63002 0
M  V30 578 N 60.4197 -1.17026 6.82845 0
M  V30 579 N 62.2127 -1.12074 5.50814 0
M  V30 580 H 54.3637 0.607911 2.03515 0
M  V30 581 H 56.6267 0.21083 0.924259 0
M  V30 582 H 56.3327 0.194284 3.51163 0
M  V30 583 H 56.2067 -1.55435 3.43686 0
M  V30 584 H 58.5937 -1.64606 2.44926 0
M  V30 585 H 58.6747 0.118315 2.55526 0
M  V30 586 H 58.3187 -0.0392633 5.07885 0
M  V30 587 H 58.2487 -1.81426 4.9436 0
M  V30 588 H 60.7397 -0.915633 3.6664 0
M  V30 589 H 61.0527 -1.25966 7.62465 0
M  V30 590 H 59.3977 -1.13971 6.85591 0
M  V30 591 H 62.5887 -1.05226 4.5612 0
M  V30 592 H 62.7617 -1.20936 6.36615 0
M  V30 593 N 56.1678 -1.49265 -0.50573 0
M  V30 594 C 57.4078 -1.60128 -1.27038 0
M  V30 595 C 57.7718 -0.279557 -1.89954 0
M  V30 596 O 58.9728 -0.263329 -2.67507 0
M  V30 597 C 57.2438 -2.72507 -2.31246 0
M  V30 598 S 58.8028 -3.0329 -3.17113 0
M  V30 599 H 55.6208 -0.564863 -0.4318 0
M  V30 600 H 58.2228 -1.86902 -0.573397 0
M  V30 601 H 56.9268 -3.67068 -1.83546 0
M  V30 602 H 56.4578 -2.4771 -3.05619 0
M  V30 603 H 58.4728 -2.44448 -4.31809 0
M  V30 604 N 57.6459 0.756429 -1.3826 0
M  V30 605 C 58.5759 1.88374 -1.37976 0
M  V30 606 C 59.5569 1.68311 -0.246082 0
M  V30 607 O 60.7419 1.88944 -0.44874 0
M  V30 608 C 57.8719 3.25864 -1.20125 0
M  V30 609 C 56.8259 3.60523 -2.30666 0
M  V30 610 C 56.1519 4.9672 -1.97923 0
M  V30 611 C 57.4519 3.65692 -3.72916 0
M  V30 612 H 59.1459 1.88869 -2.32312 0
M  V30 613 H 56.6919 0.907272 -1.11824 0
M  V30 614 H 58.6449 4.0438 -1.18552 0
M  V30 615 H 57.3689 3.25841 -0.222498 0
M  V30 616 H 56.0279 2.84324 -2.3142 0
M  V30 617 H 55.6759 4.93253 -0.985393 0
M  V30 618 H 55.3759 5.20878 -2.71955 0
M  V30 619 H 56.8999 5.77618 -1.97964 0
M  V30 620 H 58.3139 4.34328 -3.74208 0
M  V30 621 H 56.7109 4.01358 -4.4613 0
M  V30 622 H 57.7809 2.65987 -4.05436 0
M  V30 623 N 59.124 1.23083 0.984299 0
M  V30 624 C 60.352 1.08714 1.76037 0
M  V30 625 C 60.767 -0.361691 1.85303 0
M  V30 626 O 60.124 -1.25034 1.32939 0
M  V30 627 C 60.175 1.70206 3.18923 0
M  V30 628 O 59.896 3.09423 3.10144 0
M  V30 629 C 61.397 1.61227 4.12941 0
M  V30 630 H 58.617 0.380664 0.552572 0
M  V30 631 H 61.161 1.62853 1.23689 0
M  V30 632 H 59.316 1.20109 3.6831 0
M  V30 633 H 59.73 3.39188 4.00065 0
M  V30 634 H 61.204 2.08962 5.10919 0
M  V30 635 H 61.681 0.570375 4.35481 0
M  V30 636 H 62.287 2.10671 3.69456 0
M  V30 637 N 60.6021 -1.18246 1.0419 0
M  V30 638 C 62.0131 -1.69914 0.773698 0
M  V30 639 C 62.3641 -1.83085 -0.705297 0
M  V30 640 O 61.4891 -1.51123 -1.5489 0
M  V30 641 C 62.0841 -3.08619 1.39784 0
M  V30 642 C 60.6431 -3.57494 1.17792 0
M  V30 643 C 59.7901 -2.34013 1.48773 0
M  V30 644 H 62.7411 -1.02904 1.20816 0
M  V30 645 H 62.7621 -3.71958 0.801714 0
M  V30 646 H 62.2741 -2.99001 2.47426 0
M  V30 647 H 60.3751 -3.72406 0.120295 0
M  V30 648 H 60.4881 -4.40852 1.87581 0
M  V30 649 H 58.8521 -2.37986 0.907463 0
M  V30 650 H 59.6351 -2.27013 2.57527 0
M  V30 651 N 62.0802 -0.821533 -1.34494 0
M  V30 652 C 62.9902 -0.244355 -2.33324 0
M  V30 653 C 64.0062 0.620527 -1.62559 0
M  V30 654 O 65.1822 0.528754 -1.94335 0
M  V30 655 C 62.2472 0.585368 -3.41723 0
M  V30 656 C 61.3082 -0.301752 -4.28238 0
M  V30 657 C 60.5412 0.488466 -5.3146 0
M  V30 658 O 60.7642 1.72186 -5.4379 0
M  V30 659 O 59.6982 -0.12848 -6.01763 0
M  V30 660 H 63.5242 -1.06231 -2.84515 0
M  V30 661 H 61.1092 -0.583645 -1.37528 0
M  V30 662 H 62.9912 1.05747 -4.07916 0
M  V30 663 H 61.6662 1.38068 -2.92778 0
M  V30 664 H 60.5732 -0.821315 -3.64973 0
M  V30 665 H 61.9062 -1.06138 -4.8062 0
M  V30 666 N 63.5583 1.46682 -0.576371 0
M  V30 667 C 64.8353 1.95599 0.00703437 0
M  V30 668 C 65.2153 1.51904 1.46589 0
M  V30 669 O 64.5633 0.766755 2.15251 0
M  V30 670 C 64.7733 3.4864 -0.158404 0
M  V30 671 C 66.1213 4.24594 -0.0229439 0
M  V30 672 O 67.1453 3.56094 -0.0869173 0
M  V30 673 O 66.0043 5.46373 0.118015 0
M  V30 674 H 63.0983 0.825275 0.053384 0
M  V30 675 H 65.6443 1.56996 -0.644244 0
M  V30 676 H 64.4163 3.7331 -1.17282 0
M  V30 677 H 64.0393 3.94057 0.5296 0
M  V30 678 N 65.0364 0.313813 1.54444 0
M  V30 679 C 65.9994 -0.54379 2.22656 0
M  V30 680 C 66.9994 -1.05124 1.21678 0
M  V30 681 O 68.1894 -0.945225 1.46325 0
M  V30 682 C 65.3214 -1.75427 2.92298 0
M  V30 683 H 66.5144 0.0523599 2.99854 0
M  V30 684 H 64.0674 0.0647834 1.56166 0
M  V30 685 H 64.8024 -2.38991 2.19211 0
M  V30 686 H 64.5874 -1.39791 3.66334 0
M  V30 687 H 66.0774 -2.36325 3.44297 0
M  V30 688 N 66.5145 -1.57545 0.0417849 0
M  V30 689 C 67.7605 -1.92601 -0.635021 0
M  V30 690 C 68.0935 -0.919627 -1.71045 0
M  V30 691 O 67.3685 0.0557892 -1.9442 0
M  V30 692 C 67.6515 -3.38085 -1.23979 0
M  V30 693 C 67.5045 -4.49467 -0.173057 0
M  V30 694 C 68.8235 -3.83776 -2.15416 0
M  V30 695 H 65.9425 -0.700397 -0.229374 0
M  V30 696 H 68.5845 -1.89728 0.101633 0
M  V30 697 H 66.7345 -3.40664 -1.86762 0
M  V30 698 H 68.4065 -4.59018 0.458312 0
M  V30 699 H 66.6495 -4.30909 0.499996 0
M  V30 700 H 67.3205 -5.48323 -0.636054 0
M  V30 701 H 69.7965 -3.83013 -1.62605 0
M  V30 702 H 68.6725 -4.8624 -2.54679 0
M  V30 703 H 68.9335 -3.19998 -3.05047 0
M  V30 704 N 67.9926 0.231505 -1.5589 0
M  V30 705 C 69.2176 0.978689 -1.82856 0
M  V30 706 C 69.6426 1.77559 -0.620846 0
M  V30 707 O 69.0006 1.76119 0.430305 0
M  V30 708 C 69.0486 1.87997 -3.07716 0
M  V30 709 O 68.1526 2.97393 -2.85712 0
M  V30 710 H 67.4936 0.277663 -0.603158 0
M  V30 711 H 70.0236 0.24783 -2.03093 0
M  V30 712 H 70.0336 2.2917 -3.37558 0
M  V30 713 H 68.7086 1.29417 -3.95252 0
M  V30 714 H 67.2856 2.60238 -2.67078 0
M  V30 715 N 69.4707 1.49531 0.497807 0
M  V30 716 C 70.4337 1.65916 1.58128 0
M  V30 717 C 71.4337 0.530825 1.51786 0
M  V30 718 O 72.6237 0.797342 1.54881 0
M  V30 719 C 69.7557 1.65951 2.9778 0
M  V30 720 H 70.9487 2.62556 1.44929 0
M  V30 721 H 68.5017 1.38611 0.722275 0
M  V30 722 H 69.2367 0.709065 3.16453 0
M  V30 723 H 69.0217 2.47897 3.03792 0
M  V30 724 H 70.5117 1.80673 3.76493 0
M  V30 725 N 70.9488 -0.749086 1.3866 0
M  V30 726 C 72.1958 -1.50833 1.35114 0
M  V30 727 C 72.5238 -1.94415 -0.0574049 0
M  V30 728 O 71.7788 -1.66065 -1.03541 0
M  V30 729 C 72.0778 -2.7712 2.25697 0
M  V30 730 C 71.7438 -2.52477 3.73585 0
M  V30 731 C 70.4058 -2.45466 4.13884 0
M  V30 732 C 72.7578 -2.31066 4.67181 0
M  V30 733 C 70.0858 -2.15064 5.45861 0
M  V30 734 C 72.4378 -2.02183 5.9942 0
M  V30 735 C 71.1018 -1.93631 6.38798 0
M  V30 736 H 70.3718 -0.551936 0.494416 0
M  V30 737 H 73.0188 -0.860979 1.71054 0
M  V30 738 H 71.3238 -3.46528 1.82827 0
M  V30 739 H 73.0208 -3.35096 2.20254 0
M  V30 740 H 69.6108 -2.58807 3.41638 0
M  V30 741 H 73.7948 -2.35459 4.3689 0
M  V30 742 H 69.0508 -2.06954 5.75308 0
M  V30 743 H 73.2248 -1.8462 6.71482 0
M  V30 744 H 70.8518 -1.69839 7.40985 0
M  V30 745 N 72.4269 -1.23603 -0.977757 0
M  V30 746 C 73.3369 -1.03632 -2.1047 0
M  V30 747 C 74.3529 0.0199435 -1.73989 0
M  V30 748 O 75.5289 -0.176076 -2.00629 0
M  V30 749 C 72.5939 -0.63276 -3.40877 0
M  V30 750 C 71.6549 -1.76437 -3.91367 0
M  V30 751 C 70.8879 -1.37997 -5.15551 0
M  V30 752 O 71.1109 -0.265357 -5.69782 0
M  V30 753 O 70.0449 -2.20201 -5.60174 0
M  V30 754 H 73.8709 -1.98086 -2.30208 0
M  V30 755 H 71.4559 -1.02332 -1.08851 0
M  V30 756 H 73.3379 -0.418761 -4.19314 0
M  V30 757 H 72.0129 0.282754 -3.22463 0
M  V30 758 H 70.9199 -2.03304 -3.14036 0
M  V30 759 H 72.2529 -2.6583 -4.14241 0
M  V30 760 N 73.905 1.17692 -1.04816 0
M  V30 761 C 75.154 1.87192 -0.751132 0
M  V30 762 C 75.467 1.8169 0.724441 0
M  V30 763 O 76.673 2.46625 1.13527 0
M  V30 764 C 75.129 3.35857 -1.29338 0
M  V30 765 C 74.737 3.4987 -2.79812 0
M  V30 766 C 76.481 4.10709 -1.07322 0
M  V30 767 C 74.388 4.92536 -3.27356 0
M  V30 768 H 73.318 0.701162 -0.277288 0
M  V30 769 H 75.969 1.32932 -1.26496 0
M  V30 770 H 74.351 3.89631 -0.707376 0
M  V30 771 H 75.525 3.06332 -3.44235 0
M  V30 772 H 73.84 2.88433 -3.00325 0
M  V30 773 H 76.437 5.15952 -1.4035 0
M  V30 774 H 76.78 4.16299 -0.0108001 0
M  V30 775 H 77.313 3.6313 -1.62423 0
M  V30 776 H 74.052 4.92119 -4.33012 0
M  V30 777 H 73.572 5.3676 -2.67673 0
M  V30 778 H 75.251 5.61288 -3.21815 0
M  V30 779 N 75.3831 0.828654 1.34056 0
M  V30 780 C 76.2931 0.256725 2.33191 0
M  V30 781 C 77.3091 -0.611898 1.62886 0
M  V30 782 O 78.4851 -0.51844 1.94613 0
M  V30 783 C 75.5501 -0.567238 3.42028 0
M  V30 784 C 74.6111 0.324458 4.28072 0
M  V30 785 C 73.8441 -0.460274 5.31712 0
M  V30 786 O 74.0671 -1.693 5.44696 0
M  V30 787 O 73.0011 0.160391 6.01686 0
M  V30 788 H 76.8271 1.07739 2.83947 0
M  V30 789 H 74.4121 0.59093 1.37217 0
M  V30 790 H 76.2941 -1.03582 4.08471 0
M  V30 791 H 74.9691 -1.36513 2.93506 0
M  V30 792 H 73.8761 0.840659 3.64532 0
M  V30 793 H 75.2091 1.08685 4.8005 0
M  V30 794 N 76.8612 -1.46375 0.584142 0
M  V30 795 C 78.2772 -1.57694 0.245929 0
M  V30 796 C 78.4772 -1.57903 -1.25175 0
M  V30 797 O 77.5332 -1.49676 -2.03355 0
M  V30 798 C 78.8462 -2.87028 0.896402 0
M  V30 799 C 80.3942 -3.00662 0.870127 0
M  V30 800 C 80.8692 -4.32734 1.50017 0
M  V30 801 N 82.3602 -4.39436 1.46458 0
M  V30 802 C 83.0952 -5.40248 1.92144 0
M  V30 803 N 82.5912 -6.47726 2.4581 0
M  V30 804 N 84.3842 -5.31459 1.83052 0
M  V30 805 H 76.5352 -1.44483 1.55687 0
M  V30 806 H 78.7982 -0.689291 0.650831 0
M  V30 807 H 78.5042 -2.9269 1.95002 0
M  V30 808 H 78.3782 -3.75014 0.405486 0
M  V30 809 H 80.7652 -2.94581 -0.174871 0
M  V30 810 H 80.8462 -2.14148 1.39908 0
M  V30 811 H 80.4902 -4.39573 2.54437 0
M  V30 812 H 80.4202 -5.18025 0.946432 0
M  V30 813 H 82.9112 -3.62367 1.07231 0
M  V30 814 H 83.2242 -7.20863 2.78525 0
M  V30 815 H 81.5692 -6.48542 2.49836 0
M  V30 816 H 84.7602 -4.46396 1.40883 0
M  V30 817 H 84.9332 -6.09881 2.18973 0
M  V30 818 N 78.3393 -0.321999 -1.54275 0
M  V30 819 C 79.2493 0.553631 -2.27974 0
M  V30 820 C 80.2653 1.13054 -1.32268 0
M  V30 821 O 81.4413 1.15084 -1.6528 0
M  V30 822 C 78.5063 1.69927 -3.02201 0
M  V30 823 C 77.5673 1.15433 -4.1349 0
M  V30 824 C 76.8003 2.24537 -4.84168 0
M  V30 825 O 77.0233 3.44852 -4.5435 0
M  V30 826 O 75.9573 1.90044 -5.7111 0
M  V30 827 H 79.7833 -0.0448345 -3.03667 0
M  V30 828 H 77.3683 -0.0877418 -1.49142 0
M  V30 829 H 79.2503 2.3663 -3.48689 0
M  V30 830 H 77.9253 2.28395 -2.29385 0
M  V30 831 H 76.8323 0.452436 -3.71354 0
M  V30 832 H 78.1653 0.614805 -4.88345 0
M  V30 833 N 79.8174 1.5752 -0.0501392 0
M  V30 834 C 80.7804 2.1037 0.909786 0
M  V30 835 C 81.7804 1.02308 1.24056 0
M  V30 836 O 82.9704 1.28385 1.17741 0
M  V30 837 C 80.1024 2.58708 2.21998 0
M  V30 838 H 81.2954 2.96479 0.451665 0
M  V30 839 H 78.8484 1.55038 0.198248 0
M  V30 840 H 79.5834 1.75989 2.72394 0
M  V30 841 H 79.3684 3.37675 1.99295 0
M  V30 842 H 80.8584 2.99747 2.9076 0
M  V30 843 N 81.2955 -0.223234 1.56011 0
M  V30 844 C 82.5425 -0.947875 1.78946 0
M  V30 845 C 82.8705 -1.844 0.618608 0
M  V30 846 O 82.1255 -1.91629 -0.397093 0
M  V30 847 C 82.4245 -1.81948 3.0762 0
M  V30 848 C 82.0905 -1.07672 4.37856 0
M  V30 849 C 80.7525 -0.871544 4.73242 0
M  V30 850 C 83.1045 -0.552081 5.18268 0
M  V30 851 C 80.4325 -0.129791 5.86556 0
M  V30 852 C 82.7845 0.17632 6.32354 0
M  V30 853 C 81.4485 0.39277 6.66343 0
M  V30 854 H 80.7185 -0.346852 0.654809 0
M  V30 855 H 83.3655 -0.216171 1.90276 0
M  V30 856 H 81.6705 -2.61899 2.91404 0
M  V30 857 H 83.3675 -2.38227 3.22566 0
M  V30 858 H 79.9575 -1.24662 4.1007 0
M  V30 859 H 84.1415 -0.698076 4.91366 0
M  V30 860 H 79.3975 0.048153 6.11381 0
M  V30 861 H 83.5715 0.590367 6.93893 0
M  V30 862 H 81.1985 0.969466 7.53993 0
M  V30 863 N 82.7736 -1.49793 -0.48987 0
M  V30 864 C 84.0226 -1.59085 -1.23995 0
M  V30 865 C 84.3356 -0.287907 -1.9347 0
M  V30 866 O 85.5416 -0.259506 -2.70257 0
M  V30 867 C 83.9976 -2.80736 -2.252 0
M  V30 868 C 83.6056 -4.17833 -1.61614 0
M  V30 869 C 85.3496 -2.99364 -3.00967 0
M  V30 870 C 83.2566 -5.30693 -2.60996 0
M  V30 871 H 82.1866 -0.592372 -0.466488 0
M  V30 872 H 84.8376 -1.76197 -0.51252 0
M  V30 873 H 83.2196 -2.57142 -3.01154 0
M  V30 874 H 84.3936 -4.51608 -0.915774 0
M  V30 875 H 82.7086 -4.04656 -0.981977 0
M  V30 876 H 85.3056 -3.80851 -3.75308 0
M  V30 877 H 85.6486 -2.10356 -3.59244 0
M  V30 878 H 86.1816 -3.2305 -2.32128 0
M  V30 879 H 82.9206 -6.21796 -2.07485 0
M  V30 880 H 82.4406 -5.01359 -3.2924 0
M  V30 881 H 84.1196 -5.6049 -3.23202 0
M  V30 882 N 84.2517 0.741722 -1.39055 0
M  V30 883 C 85.4767 1.53607 -1.39354 0
M  V30 884 C 85.9017 1.88096 0.0116905 0
M  V30 885 O 85.2597 1.5143 0.996924 0
M  V30 886 C 85.3077 2.80441 -2.26682 0
M  V30 887 O 84.4117 3.76088 -1.69208 0
M  V30 888 H 83.7527 0.464142 -0.474835 0
M  V30 889 H 86.2827 0.915665 -1.82967 0
M  V30 890 H 86.2927 3.29246 -2.40959 0
M  V30 891 H 84.9677 2.5467 -3.2881 0
M  V30 892 H 83.5447 3.34833 -1.64138 0
M  V30 893 N 85.7298 1.2412 0.971189 0
M  V30 894 C 86.9758 1.08041 1.71625 0
M  V30 895 C 87.3088 -0.380407 1.90438 0
M  V30 896 O 86.5838 -1.28127 1.46334 0
M  V30 897 C 86.8668 1.81682 3.10908 0
M  V30 898 C 86.7198 3.35493 2.99608 0
M  V30 899 C 88.0388 1.58671 4.10501 0
M  V30 900 H 85.1578 0.39388 0.622919 0
M  V30 901 H 87.7998 1.52743 1.13003 0
M  V30 902 H 85.9498 1.43684 3.60953 0
M  V30 903 H 87.6218 3.83068 2.57015 0
M  V30 904 H 85.8648 3.64052 2.35899 0
M  V30 905 H 86.5358 3.82217 3.98264 0
M  V30 906 H 89.0118 1.91719 3.69301 0
M  V30 907 H 87.8878 2.1266 5.06031 0
M  V30 908 H 88.1488 0.524161 4.38982 0
M  V30 909 N 87.2079 -1.17134 1.05439 0
M  V30 910 C 88.1379 -2.2342 0.678649 0
M  V30 911 C 89.1189 -1.66971 -0.32476 0
M  V30 912 O 90.3039 -1.93149 -0.201802 0
M  V30 913 C 87.4339 -3.47256 0.0552099 0
M  V30 914 C 86.3879 -4.16543 0.98365 0
M  V30 915 C 85.7139 -5.34231 0.223961 0
M  V30 916 C 87.0139 -4.68495 2.3089 0
M  V30 917 H 88.7079 -2.55105 1.56722 0
M  V30 918 H 86.2539 -1.2262 0.754998 0
M  V30 919 H 88.2069 -4.20828 -0.21946 0
M  V30 920 H 86.9309 -3.14846 -0.868319 0
M  V30 921 H 85.5899 -3.44887 1.24293 0
M  V30 922 H 85.2379 -4.98071 -0.702412 0
M  V30 923 H 84.9379 -5.81527 0.842627 0
M  V30 924 H 86.4619 -6.10585 -0.0433671 0
M  V30 925 H 87.8759 -5.33691 2.09396 0
M  V30 926 H 86.2729 -5.26379 2.88176 0
M  V30 927 H 87.3429 -3.85169 2.94572 0
M  V30 928 N 88.686 -0.835752 -1.33615 0
M  V30 929 C 89.934 -0.429109 -1.97492 0
M  V30 930 C 90.255 1.01433 -1.66543 0
M  V30 931 O 89.525 1.70611 -0.962744 0
M  V30 932 H 88.105 -0.155686 -0.730596 0
M  V30 933 H 90.767 -1.06802 -1.63031 0
M  V30 934 H 89.863 -0.55861 -3.0706 0
M  V30 935 N 90.1641 1.46063 -0.591896 0
M  V30 936 C 91.4101 2.02638 -0.0811191 0
M  V30 937 C 91.7431 1.4613 1.27905 0
M  V30 938 O 91.0181 0.629908 1.84017 0
M  V30 939 C 91.3011 3.60091 -0.0252436 0
M  V30 940 C 91.1541 4.26965 -1.41496 0
M  V30 941 C 92.4731 4.3496 0.670685 0
M  V30 942 H 89.5921 0.73635 -0.0309524 0
M  V30 943 H 92.2341 1.741 -0.760859 0
M  V30 944 H 90.3841 3.84535 0.553624 0
M  V30 945 H 92.0561 4.13756 -2.0397 0
M  V30 946 H 90.2991 3.85971 -1.98011 0
M  V30 947 H 90.9701 5.35781 -1.32825 0
M  V30 948 H 93.4461 4.15716 0.178825 0
M  V30 949 H 92.3221 5.44686 0.678837 0
M  V30 950 H 92.5831 4.06685 1.73379 0
M  V30 951 N 91.6422 0.330177 1.54103 0
M  V30 952 C 92.8822 -0.270916 2.02597 0
M  V30 953 C 93.2462 -1.48826 1.21304 0
M  V30 954 O 94.4472 -2.16266 1.59633 0
M  V30 955 C 92.7182 -0.590328 3.52491 0
M  V30 956 S 94.2772 -1.17014 4.2291 0
M  V30 957 H 91.0952 -0.0815379 0.706309 0
M  V30 958 H 93.6972 0.464835 1.89893 0
M  V30 959 H 92.4012 0.303691 4.09275 0
M  V30 960 H 91.9322 -1.3561 3.69288 0
M  V30 961 H 93.9472 -2.45662 4.3112 0
M  V30 962 N 93.1203 -1.57491 0.0584922 0
M  V30 963 C 94.5313 -1.80526 -0.476138 0
M  V30 964 C 94.8823 -0.971334 -1.70469 0
M  V30 965 O 94.0073 -0.190012 -2.15564 0
M  V30 966 C 94.6023 -3.27424 -0.870587 0
M  V30 967 C 93.1613 -3.51351 -1.35015 0
M  V30 968 C 92.3083 -2.75343 -0.32887 0
M  V30 969 H 95.2593 -1.56133 0.284312 0
M  V30 970 H 95.2803 -3.38745 -1.73299 0
M  V30 971 H 94.7923 -3.88093 0.0237627 0
M  V30 972 H 92.8933 -2.95971 -2.26345 0
M  V30 973 H 93.0063 -4.60059 -1.33726 0
M  V30 974 H 91.3703 -2.417 -0.803321 0
M  V30 975 H 92.1533 -3.38743 0.557521 0
M  V30 976 N 94.5984 0.214957 -1.56127 0
M  V30 977 C 95.5284 1.2695 -1.95974 0
M  V30 978 C 96.5094 1.48539 -0.828868 0
M  V30 979 O 97.6944 1.60611 -1.09168 0
M  V30 980 C 94.8244 2.61794 -2.28214 0
M  V30 981 C 93.7784 2.54851 -3.43853 0
M  V30 982 C 93.1044 3.93785 -3.61715 0
M  V30 983 C 94.4044 2.09065 -4.78632 0
M  V30 984 H 96.0984 0.93846 -2.84312 0
M  V30 985 H 93.6444 0.449996 -1.36788 0
M  V30 986 H 95.5974 3.35731 -2.54682 0
M  V30 987 H 94.3214 2.96599 -1.36736 0
M  V30 988 H 92.9804 1.8337 -3.17444 0
M  V30 989 H 92.6284 4.25908 -2.67602 0
M  V30 990 H 92.3284 3.90019 -4.39498 0
M  V30 991 H 93.8524 4.69374 -3.90539 0
M  V30 992 H 95.2664 2.7275 -5.04262 0
M  V30 993 H 93.6634 2.16346 -5.59745 0
M  V30 994 H 94.7334 1.04315 -4.73547 0
M  V30 995 N 96.0765 1.50051 0.48192 0
M  V30 996 C 97.3065 1.63999 1.2565 0
M  V30 997 C 97.7145 0.318288 1.86504 0
M  V30 998 O 97.0575 -0.708534 1.69486 0
M  V30 999 C 97.1195 2.66504 2.4128 0
M  V30 1000 C 96.7835 4.10352 2.01148 0
M  V30 1001 C 97.7805 4.96562 1.54021 0
M  V30 1002 C 95.4655 4.56203 2.10199 0
M  V30 1003 C 97.4595 6.26668 1.16473 0
M  V30 1004 C 95.1465 5.86318 1.72264 0
M  V30 1005 C 96.1445 6.71375 1.25477 0
M  V30 1006 O 95.8325 7.99062 0.880626 0
M  V30 1007 H 95.5645 0.55456 0.386574 0
M  V30 1008 H 98.1185 1.96954 0.582944 0
M  V30 1009 H 96.3485 2.28769 3.11772 0
M  V30 1010 H 98.0375 2.69783 3.03268 0
M  V30 1011 H 98.8035 4.62358 1.46458 0
M  V30 1012 H 94.6825 3.90152 2.45566 0
M  V30 1013 H 98.2265 6.93011 0.798841 0
M  V30 1014 H 94.1235 6.20046 1.79482 0
M  V30 1015 H 94.8915 8.12239 1.01043 0
M  V30 1016 N 97.5546 -0.734337 1.39446 0
M  V30 1017 C 98.4846 -1.86155 1.40955 0
M  V30 1018 C 99.4656 -1.67898 0.272827 0
M  V30 1019 O 100.651 -1.88207 0.478743 0
M  V30 1020 C 97.7806 -3.23912 1.25294 0
M  V30 1021 C 96.7346 -3.56808 2.36373 0
M  V30 1022 C 96.0606 -4.93508 2.058 0
M  V30 1023 C 97.3606 -3.59713 3.78687 0
M  V30 1024 H 99.0546 -1.8515 2.35287 0
M  V30 1025 H 96.6006 -0.889367 1.13253 0
M  V30 1026 H 98.5536 -4.02443 1.2497 0
M  V30 1027 H 97.2776 -3.25446 0.274308 0
M  V30 1028 H 95.9366 -2.80606 2.35914 0
M  V30 1029 H 95.5846 -4.91623 1.06374 0
M  V30 1030 H 95.2846 -5.16486 2.80208 0
M  V30 1031 H 96.8086 -5.74396 2.07128 0
M  V30 1032 H 98.2226 -4.2832 3.81071 0
M  V30 1033 H 96.6196 -3.94209 4.52459 0
M  V30 1034 H 97.6896 -2.59504 4.09617 0
M  V30 1035 N 99.0327 -1.24633 -0.964593 0
M  V30 1036 C 100.31 -0.995809 -1.68354 0
M  V30 1037 C 100.69 0.480964 -2.05548 0
M  V30 1038 O 100.038 1.45599 -1.76105 0
M  V30 1039 C 100.248 -1.92177 -2.91323 0
M  V30 1040 C 101.596 -2.19446 -3.63495 0
M  V30 1041 O 102.62 -1.89855 -3.01386 0
M  V30 1042 O 101.479 -2.69714 -4.75307 0
M  V30 1043 H 98.5727 -0.376854 -0.736146 0
M  V30 1044 H 101.119 -1.35745 -1.0184 0
M  V30 1045 H 99.8907 -2.91938 -2.60553 0
M  V30 1046 H 99.5137 -1.56349 -3.65569 0
M  V30 1047 N 100.511 1.16574 -1.06058 0
M  V30 1048 C 101.421 2.2452 -0.680282 0
M  V30 1049 C 102.437 1.71348 0.302604 0
M  V30 1050 O 103.613 2.00822 0.152513 0
M  V30 1051 C 100.678 3.46629 -0.0700315 0
M  V30 1052 C 99.7388 4.14849 -1.10448 0
M  V30 1053 C 98.9718 5.31129 -0.523256 0
M  V30 1054 O 99.1948 5.66514 0.664709 0
M  V30 1055 O 98.1288 5.88526 -1.26179 0
M  V30 1056 H 101.955 2.59355 -1.58015 0
M  V30 1057 H 99.5398 1.24043 -0.832694 0
M  V30 1058 H 101.422 4.20543 0.268667 0
M  V30 1059 H 100.097 3.13573 0.803353 0
M  V30 1060 H 99.0038 3.42916 -1.49532 0
M  V30 1061 H 100.337 4.51954 -1.94931 0
M  V30 1062 N 101.989 0.842826 1.3317 0
M  V30 1063 C 103.238 0.436738 1.96915 0
M  V30 1064 C 103.551 -1.01025 1.67491 0
M  V30 1065 O 104.757 -1.5212 2.24881 0
M  V30 1066 C 103.213 0.730021 3.52418 0
M  V30 1067 C 102.821 2.19195 3.90714 0
M  V30 1068 C 104.565 0.391076 4.22695 0
M  V30 1069 C 102.472 2.42907 5.39212 0
M  V30 1070 H 101.402 0.15958 0.736919 0
M  V30 1071 H 104.053 1.03196 1.51733 0
M  V30 1072 H 102.435 0.0643755 3.95948 0
M  V30 1073 H 103.609 2.8984 3.58231 0
M  V30 1074 H 101.924 2.49425 3.33431 0
M  V30 1075 H 104.521 0.545817 5.31907 0
M  V30 1076 H 104.864 -0.666294 4.10933 0
M  V30 1077 H 105.397 1.01212 3.84709 0
M  V30 1078 H 102.136 3.47224 5.55982 0
M  V30 1079 H 101.656 1.76827 5.73142 0
M  V30 1080 H 103.335 2.2626 6.06148 0
M  V30 1081 N 103.467 -1.45747 0.599634 0
M  V30 1082 C 104.883 -1.57424 0.26264 0
M  V30 1083 C 105.083 -1.59222 -1.23493 0
M  V30 1084 O 104.139 -1.51825 -2.01756 0
M  V30 1085 C 105.452 -2.86061 0.926795 0
M  V30 1086 C 107 -2.99722 0.901967 0
M  V30 1087 C 107.475 -4.31119 1.54598 0
M  V30 1088 N 108.966 -4.37858 1.5111 0
M  V30 1089 C 109.701 -5.3818 1.97863 0
M  V30 1090 N 109.197 -6.45083 2.52666 0
M  V30 1091 N 110.99 -5.29487 1.88679 0
M  V30 1092 H 103.141 -1.42823 1.57211 0
M  V30 1093 H 105.404 -0.68235 0.658105 0
M  V30 1094 H 105.11 -2.90605 1.98095 0
M  V30 1095 H 104.984 -3.74563 0.445238 0
M  V30 1096 H 107.371 -2.9475 -0.143617 0
M  V30 1097 H 107.452 -2.12652 1.42171 0
M  V30 1098 H 107.096 -4.36849 2.59085 0
M  V30 1099 H 107.026 -5.16992 1.00132 0
M  V30 1100 H 109.517 -3.61209 1.11068 0
M  V30 1101 H 109.83 -7.17869 2.86155 0
M  V30 1102 H 108.175 -6.45856 2.56701 0
M  V30 1103 H 111.366 -4.44877 1.4561 0
M  V30 1104 H 111.539 -6.07524 2.25429 0
M  V30 1105 N 104.945 -0.338344 -1.53925 0
M  V30 1106 C 105.895 0.536712 -2.21593 0
M  V30 1107 C 106.879 1.07015 -1.20153 0
M  V30 1108 O 108.071 1.00471 -1.45721 0
M  V30 1109 C 105.2 1.68977 -2.98834 0
M  V30 1110 C 104.286 1.17052 -4.07627 0
M  V30 1111 N 104.677 0.372085 -5.0443 0
M  V30 1112 C 102.975 1.44789 -4.21844 0
M  V30 1113 C 103.676 0.0909171 -5.81629 0
M  V30 1114 N 102.652 0.681131 -5.39316 0
M  V30 1115 H 106.454 -0.0804298 -2.9379 0
M  V30 1116 H 103.968 -0.144943 -1.61752 0
M  V30 1117 H 105.965 2.32857 -3.45808 0
M  V30 1118 H 104.625 2.31024 -2.28162 0
M  V30 1119 H 105.636 0.0136217 -5.17898 0
M  V30 1120 H 102.313 2.07313 -3.62391 0
M  V30 1121 H 103.703 -0.552817 -6.69622 0
M  V30 1122 N 106.423 1.57458 -0.0668435 0
M  V30 1123 C 107.67 1.93301 0.603406 0
M  V30 1124 C 107.998 0.946486 1.69917 0
M  V30 1125 O 107.253 -0.0387021 1.95662 0
M  V30 1126 C 107.552 3.35784 1.22409 0
M  V30 1127 C 107.218 4.50179 0.254955 0
M  V30 1128 C 105.88 4.81199 -0.0116746 0
M  V30 1129 C 108.232 5.19598 -0.408338 0
M  V30 1130 C 105.56 5.78978 -0.94877 0
M  V30 1131 C 107.912 6.18381 -1.33372 0
M  V30 1132 C 106.576 6.47821 -1.60887 0
M  V30 1133 H 105.846 0.707338 0.220802 0
M  V30 1134 H 108.493 1.91012 -0.136665 0
M  V30 1135 H 106.798 3.34515 2.03978 0
M  V30 1136 H 108.495 3.60804 1.74989 0
M  V30 1137 H 105.085 4.25983 0.472954 0
M  V30 1138 H 109.269 4.95832 -0.215456 0
M  V30 1139 H 104.525 6.00115 -1.16925 0
M  V30 1140 H 108.699 6.71277 -1.85367 0
M  V30 1141 H 106.326 7.23399 -2.33661 0
M  V30 1142 N 107.901 -0.206675 1.56239 0
M  V30 1143 C 108.831 -1.25909 1.96645 0
M  V30 1144 C 109.812 -1.48097 0.836734 0
M  V30 1145 O 110.997 -1.6003 1.10019 0
M  V30 1146 C 108.127 -2.6058 2.29599 0
M  V30 1147 C 107.081 -2.53024 3.452 0
M  V30 1148 C 106.407 -3.91861 3.63798 0
M  V30 1149 C 107.707 -2.06524 4.79734 0
M  V30 1150 H 109.401 -0.923369 2.84806 0
M  V30 1151 H 106.947 -0.442735 1.37025 0
M  V30 1152 H 108.9 -3.34375 2.56459 0
M  V30 1153 H 107.624 -2.95869 1.38307 0
M  V30 1154 H 106.283 -1.81684 3.18412 0
M  V30 1155 H 105.931 -4.24483 2.69857 0
M  V30 1156 H 105.631 -3.87683 4.4156 0
M  V30 1157 H 107.155 -4.67296 3.93022 0
M  V30 1158 H 108.569 -2.70072 5.05702 0
M  V30 1159 H 106.966 -2.13374 5.60885 0
M  V30 1160 H 108.036 -1.01802 4.74093 0
M  V30 1161 N 109.379 -1.50304 -0.473955 0
M  V30 1162 C 110.607 -1.64902 -1.24959 0
M  V30 1163 C 111.022 -0.331198 -1.85872 0
M  V30 1164 O 110.379 0.68652 -1.69095 0
M  V30 1165 C 110.43 -2.73803 -2.36038 0
M  V30 1166 O 110.151 -4.00477 -1.77624 0
M  V30 1167 C 111.652 -2.99349 -3.26964 0
M  V30 1168 H 108.872 -0.554383 -0.378022 0
M  V30 1169 H 111.416 -1.9651 -0.566054 0
M  V30 1170 H 109.571 -2.44898 -3.00173 0
M  V30 1171 H 109.985 -4.60678 -2.5075 0
M  V30 1172 H 111.459 -3.79217 -4.01121 0
M  V30 1173 H 111.936 -2.10307 -3.85574 0
M  V30 1174 H 112.542 -3.29774 -2.68569 0
M  V30 1175 N 110.857 0.726932 -1.39834 0
M  V30 1176 C 111.787 1.85405 -1.41941 0
M  V30 1177 C 112.768 1.67751 -0.281728 0
M  V30 1178 O 113.953 1.8795 -0.488717 0
M  V30 1179 C 111.083 3.23243 -1.2701 0
M  V30 1180 C 110.037 3.55549 -2.38262 0
M  V30 1181 C 109.363 4.9241 -2.08415 0
M  V30 1182 C 110.663 3.577 -3.80589 0
M  V30 1183 H 112.357 1.83899 -2.36266 0
M  V30 1184 H 109.903 0.883349 -1.13723 0
M  V30 1185 H 111.856 4.01775 -1.27103 0
M  V30 1186 H 110.58 3.25296 -0.291564 0
M  V30 1187 H 109.239 2.79351 -2.37399 0
M  V30 1188 H 108.887 4.91052 -1.0898 0
M  V30 1189 H 108.587 5.14992 -2.82943 0
M  V30 1190 H 110.111 5.73289 -2.10171 0
M  V30 1191 H 111.525 4.26293 -3.83337 0
M  V30 1192 H 109.922 3.91804 -4.54543 0
M  V30 1193 H 110.992 2.57328 -4.10987 0
M  V30 1194 N 112.336 1.25143 0.95797 0
M  V30 1195 C 113.576 1.10893 1.71703 0
M  V30 1196 C 113.94 -0.34478 1.88879 0
M  V30 1197 O 115.141 -0.609014 2.6181 0
M  V30 1198 C 113.412 1.83889 3.06463 0
M  V30 1199 S 114.971 1.85491 3.97666 0
M  V30 1200 H 111.789 0.396428 0.590226 0
M  V30 1201 H 114.391 1.58618 1.14283 0
M  V30 1202 H 113.095 2.88756 2.9163 0
M  V30 1203 H 112.626 1.36538 3.68946 0
M  V30 1204 H 114.641 0.929553 4.87415 0
M  V30 1205 N 113.814 -1.1601 1.06675 0
M  V30 1206 C 115.225 -1.68235 0.809565 0
M  V30 1207 C 115.576 -1.8454 -0.666303 0
M  V30 1208 O 114.701 -1.54374 -1.5165 0
M  V30 1209 C 115.296 -3.05585 1.46299 0
M  V30 1210 C 113.855 -3.54915 1.25349 0
M  V30 1211 C 113.002 -2.30804 1.53703 0
M  V30 1212 H 115.953 -1.00318 1.22971 0
M  V30 1213 H 115.974 -3.70174 0.880431 0
M  V30 1214 H 115.486 -2.93686 2.53713 0
M  V30 1215 H 113.587 -3.72067 0.199261 0
M  V30 1216 H 113.7 -4.36774 1.9689 0
M  V30 1217 H 112.064 -2.36007 0.957739 0
M  V30 1218 H 112.847 -2.21499 2.62284 0
M  V30 1219 N 115.292 -0.849877 -1.32721 0
M  V30 1220 C 116.202 -0.293791 -2.32753 0
M  V30 1221 C 117.218 0.585906 -1.63839 0
M  V30 1222 O 118.394 0.487413 -1.95413 0
M  V30 1223 C 115.459 0.512752 -3.42887 0
M  V30 1224 C 114.52 -0.39252 -4.27502 0
M  V30 1225 C 113.753 0.375625 -5.32377 0
M  V30 1226 O 113.976 1.60613 -5.4732 0
M  V30 1227 O 112.91 -0.256094 -6.01355 0
M  V30 1228 H 116.736 -1.12242 -2.82197 0
M  V30 1229 H 114.321 -0.612685 -1.36259 0
M  V30 1230 H 116.203 0.970704 -4.10067 0
M  V30 1231 H 114.878 1.31826 -2.95641 0
M  V30 1232 H 113.785 -0.898547 -3.63149 0
M  V30 1233 H 115.118 -1.16309 -4.7826 0
M  V30 1234 N 116.77 1.45427 -0.607355 0
M  V30 1235 C 117.7 2.3329 0.0989352 0
M  V30 1236 C 118.681 1.46816 0.859007 0
M  V30 1237 O 119.866 1.75588 0.829604 0
M  V30 1238 C 116.996 3.29518 1.09705 0
M  V30 1239 C 115.95 4.25626 0.450206 0
M  V30 1240 C 115.276 5.11542 1.55655 0
M  V30 1241 C 116.576 5.18505 -0.628455 0
M  V30 1242 H 118.27 2.92595 -0.634716 0
M  V30 1243 H 115.816 1.40696 -0.306681 0
M  V30 1244 H 117.769 3.89855 1.59971 0
M  V30 1245 H 116.493 2.68372 1.86129 0
M  V30 1246 H 115.152 3.66586 -0.0315886 0
M  V30 1247 H 114.8 4.46765 2.31107 0
M  V30 1248 H 114.5 5.76647 1.12925 0
M  V30 1249 H 116.024 5.74748 2.06148 0
M  V30 1250 H 117.438 5.72916 -0.209877 0
M  V30 1251 H 115.835 5.92085 -0.977489 0
M  V30 1252 H 116.905 4.60948 -1.50514 0
M  V30 1253 N 118.248 0.346503 1.53744 0
M  V30 1254 C 119.473 -0.253074 2.0585 0
M  V30 1255 C 119.898 -1.43202 1.21962 0
M  V30 1256 O 119.256 -1.79783 0.234073 0
M  V30 1257 C 119.304 -0.643193 3.54817 0
M  V30 1258 O 118.408 -1.74286 3.73762 0
M  V30 1259 H 117.749 -0.0413583 0.662711 0
M  V30 1260 H 120.279 0.501574 1.98357 0
M  V30 1261 H 120.289 -0.919526 3.97503 0
M  V30 1262 H 118.964 0.218966 4.15323 0
M  V30 1263 H 117.541 -1.46356 3.42979 0
M  V30 1264 N 119.726 -1.57421 0.075193 0
M  V30 1265 C 120.656 -2.15942 -0.888324 0
M  V30 1266 C 121.637 -1.08737 -1.30806 0
M  V30 1267 O 122.822 -1.36787 -1.37851 0
M  V30 1268 C 119.952 -2.72379 -2.1547 0
M  V30 1269 C 118.906 -3.8478 -1.87425 0
M  V30 1270 C 118.232 -4.27834 -3.20721 0
M  V30 1271 C 119.532 -5.08869 -1.17684 0
M  V30 1272 H 121.226 -2.96705 -0.400799 0
M  V30 1273 H 118.772 -1.42723 -0.191342 0
M  V30 1274 H 120.725 -3.11965 -2.83295 0
M  V30 1275 H 119.449 -1.88841 -2.6647 0
M  V30 1276 H 118.108 -3.45703 -1.22004 0
M  V30 1277 H 117.756 -3.41214 -3.6957 0
M  V30 1278 H 117.456 -5.03605 -3.02746 0
M  V30 1279 H 118.98 -4.70039 -3.89738 0
M  V30 1280 H 120.394 -5.4575 -1.75584 0
M  V30 1281 H 118.791 -5.8994 -1.09956 0
M  V30 1282 H 119.861 -4.84648 -0.156453 0
M  V30 1283 N 121.204 0.198386 -1.56346 0
M  V30 1284 C 122.452 0.91747 -1.80075 0
M  V30 1285 C 122.773 1.83929 -0.647692 0
M  V30 1286 O 122.043 1.93029 0.334166 0
M  V30 1287 H 120.623 0.341774 -0.664228 0
M  V30 1288 H 123.285 0.204684 -1.93822 0
M  V30 1289 H 122.381 1.51055 -2.7311 0
M  V30 1290 N 122.682 1.50554 0.465978 0
M  V30 1291 C 123.928 1.63006 1.21658 0
M  V30 1292 C 124.283 0.328613 1.89573 0
M  V30 1293 O 123.576 -0.673813 1.79361 0
M  V30 1294 C 123.77 2.75152 2.28093 0
M  V30 1295 C 123.599 4.16075 1.7062 0
M  V30 1296 C 122.369 4.82408 1.50368 0
M  V30 1297 C 124.567 5.00145 1.1983 0
M  V30 1298 N 122.549 6.07532 0.881924 0
M  V30 1299 C 123.92 6.16035 0.700083 0
M  V30 1300 C 125.975 4.85882 1.08733 0
M  V30 1301 C 124.678 7.19228 0.101835 0
M  V30 1302 C 126.704 5.89257 0.503016 0
M  V30 1303 C 126.066 7.04398 0.0152005 0
M  V30 1304 H 122.165 0.650596 0.433877 0
M  V30 1305 H 124.749 1.8769 0.517746 0
M  V30 1306 H 122.92 2.52181 2.95397 0
M  V30 1307 H 124.652 2.76935 2.95109 0
M  V30 1308 H 121.407 4.39788 1.75737 0
M  V30 1309 H 121.831 6.7443 0.589312 0
M  V30 1310 H 126.473 3.97144 1.4504 0
M  V30 1311 H 124.191 8.07637 -0.273426 0
M  V30 1312 H 127.777 5.80286 0.419451 0
M  V30 1313 H 126.657 7.83021 -0.429856 0
M  V30 1314 N 124.16 -0.719506 1.40217 0
M  V30 1315 C 125.407 -1.47933 1.38283 0
M  V30 1316 C 125.735 -1.94493 -0.0161536 0
M  V30 1317 O 124.99 -1.68224 -0.999956 0
M  V30 1318 C 125.289 -2.72271 2.31524 0
M  V30 1319 C 124.955 -2.44496 3.78857 0
M  V30 1320 C 123.617 -2.36631 4.18998 0
M  V30 1321 C 125.969 -2.21104 4.71977 0
M  V30 1322 C 123.297 -2.03437 5.503 0
M  V30 1323 C 125.649 -1.89423 6.03574 0
M  V30 1324 C 124.313 -1.80038 6.42762 0
M  V30 1325 H 123.583 -0.541325 0.506012 0
M  V30 1326 H 126.23 -0.824502 1.72842 0
M  V30 1327 H 124.535 -3.42572 1.90137 0
M  V30 1328 H 126.232 -3.30348 2.27313 0
M  V30 1329 H 122.822 -2.51503 3.47051 0
M  V30 1330 H 127.006 -2.26139 4.41786 0
M  V30 1331 H 122.262 -1.94705 5.79569 0
M  V30 1332 H 126.436 -1.70336 6.75247 0
M  V30 1333 H 124.063 -1.54083 7.44421 0
M  V30 1334 N 125.638 -1.25649 -0.95132 0
M  V30 1335 C 126.548 -1.08073 -2.08224 0
M  V30 1336 C 127.564 -0.0169666 -1.73992 0
M  V30 1337 O 128.74 -0.218593 -2.0021 0
M  V30 1338 C 125.805 -0.704922 -3.39458 0
M  V30 1339 C 124.866 -1.84699 -3.87537 0
M  V30 1340 C 124.099 -1.48902 -5.12508 0
M  V30 1341 O 124.322 -0.386156 -5.69091 0
M  V30 1342 O 123.256 -2.32033 -5.55378 0
M  V30 1343 H 127.082 -2.02924 -2.25954 0
M  V30 1344 H 124.667 -1.04618 -1.06656 0
M  V30 1345 H 126.549 -0.507609 -4.18332 0
M  V30 1346 H 125.224 0.214291 -3.2299 0
M  V30 1347 H 124.131 -2.09919 -3.09653 0
M  V30 1348 H 125.464 -2.74557 -4.08509 0
M  V30 1349 N 127.117 1.15442 -1.07289 0
M  V30 1350 C 128.027 2.23786 -0.704057 0
M  V30 1351 C 129.043 1.7166 0.284413 0
M  V30 1352 O 130.219 2.00972 0.131205 0
M  V30 1353 C 127.284 3.46535 -0.106792 0
M  V30 1354 C 126.345 4.13654 -1.14842 0
M  V30 1355 C 125.578 5.30544 -0.57956 0
M  V30 1356 O 125.801 5.67187 0.604585 0
M  V30 1357 O 124.735 5.87154 -1.32414 0
M  V30 1358 H 128.561 2.57664 -1.60757 0
M  V30 1359 H 126.146 1.23152 -0.845803 0
M  V30 1360 H 128.028 4.20804 0.224048 0
M  V30 1361 H 126.703 3.14407 0.770049 0
M  V30 1362 H 125.61 3.4131 -1.5316 0
M  V30 1363 H 126.943 4.49861 -1.99714 0
M  V30 1364 N 128.595 0.856903 1.32268 0
M  V30 1365 C 129.843 0.460474 1.96784 0
M  V30 1366 C 130.164 -0.987701 1.68135 0
M  V30 1367 O 129.434 -1.69058 0.989765 0
M  V30 1368 H 128.014 0.167289 0.728027 0
M  V30 1369 H 130.676 1.09383 1.61312 0
M  V30 1370 H 129.772 0.60739 3.06133 0
M  V30 1371 N 130.073 -1.45103 0.615059 0
M  V30 1372 C 131.313 -2.04069 0.116282 0
M  V30 1373 C 131.677 -1.4721 -1.2326 0
M  V30 1374 O 132.878 -1.97577 -1.82255 0
M  V30 1375 C 131.149 -3.57298 0.085482 0
M  V30 1376 S 132.708 -4.37394 -0.351015 0
M  V30 1377 H 129.526 -0.709006 0.0532183 0
M  V30 1378 H 132.128 -1.77709 0.81484 0
M  V30 1379 H 130.832 -3.9619 1.0706 0
M  V30 1380 H 130.363 -3.88244 -0.634835 0
M  V30 1381 H 132.378 -4.69734 -1.59889 0
M  V30 1382 N 131.551 -0.354651 -1.53558 0
M  V30 1383 C 132.481 0.489091 -2.2832 0
M  V30 1384 C 133.462 1.09324 -1.30316 0
M  V30 1385 O 134.647 1.11255 -1.59173 0
M  V30 1386 C 131.777 1.63456 -3.0643 0
M  V30 1387 C 130.731 1.1582 -4.12031 0
M  V30 1388 C 130.057 2.39305 -4.7816 0
M  V30 1389 C 131.357 0.250731 -5.21698 0
M  V30 1390 H 133.051 -0.134614 -2.99097 0
M  V30 1391 H 130.597 -0.0661826 -1.43848 0
M  V30 1392 H 132.55 2.23136 -3.57475 0
M  V30 1393 H 131.274 2.28533 -2.33325 0
M  V30 1394 H 129.933 0.584146 -3.61916 0
M  V30 1395 H 129.581 3.02814 -4.01637 0
M  V30 1396 H 129.281 2.08109 -5.49513 0
M  V30 1397 H 130.805 2.99691 -5.31994 0
M  V30 1398 H 132.219 0.754695 -5.68311 0
M  V30 1399 H 130.616 0.0301468 -6.00092 0
M  V30 1400 H 131.686 -0.710125 -4.79672 0
M  V30 1401 N 133.029 1.57378 -0.0835403 0
M  V30 1402 C 134.275 1.94217 0.583733 0
M  V30 1403 C 134.608 0.964653 1.68547 0
M  V30 1404 O 133.883 -0.00422258 1.945 0
M  V30 1405 C 134.166 3.41253 1.14972 0
M  V30 1406 C 134.019 4.49768 0.0538277 0
M  V30 1407 C 135.338 3.89352 2.05166 0
M  V30 1408 H 132.457 0.706233 0.210724 0
M  V30 1409 H 135.099 1.89392 -0.1519 0
M  V30 1410 H 133.249 3.45496 1.77665 0
M  V30 1411 H 134.921 4.57641 -0.579851 0
M  V30 1412 H 133.164 4.29432 -0.614068 0
M  V30 1413 H 133.835 5.49817 0.490452 0
M  V30 1414 H 136.311 3.87189 1.52393 0
M  V30 1415 H 135.187 4.92822 2.41698 0
M  V30 1416 H 135.448 3.27973 2.96456 0
M  V30 1417 N 134.507 -0.190092 1.56449 0
M  V30 1418 C 135.47 -1.21925 1.9408 0
M  V30 1419 C 136.47 -1.38176 0.822431 0
M  V30 1420 O 137.66 -1.35903 1.08977 0
M  V30 1421 C 134.792 -2.58773 2.21922 0
M  V30 1422 H 135.985 -0.897464 2.86157 0
M  V30 1423 H 133.538 -0.43181 1.50217 0
M  V30 1424 H 134.273 -2.95998 1.32499 0
M  V30 1425 H 134.058 -2.48348 3.03424 0
M  V30 1426 H 135.548 -3.32978 2.52022 0
M  V30 1427 N 135.985 -1.50799 -0.457987 0
M  V30 1428 C 137.232 -1.62442 -1.20908 0
M  V30 1429 C 137.56 -0.330865 -1.91665 0
M  V30 1430 O 136.815 0.68401 -1.83357 0
M  V30 1431 C 137.114 -2.76358 -2.2663 0
M  V30 1432 C 136.78 -4.16378 -1.73033 0
M  V30 1433 C 135.442 -4.54473 -1.58138 0
M  V30 1434 C 137.794 -5.03836 -1.33413 0
M  V30 1435 C 135.122 -5.77754 -1.02065 0
M  V30 1436 C 137.474 -6.27676 -0.78778 0
M  V30 1437 C 136.138 -6.64562 -0.625561 0
M  V30 1438 H 135.408 -0.594417 -0.442435 0
M  V30 1439 H 138.055 -1.84772 -0.503136 0
M  V30 1440 H 136.36 -2.48167 -3.03184 0
M  V30 1441 H 138.057 -2.82568 -2.84528 0
M  V30 1442 H 134.647 -3.86331 -1.85598 0
M  V30 1443 H 138.831 -4.75026 -1.4375 0
M  V30 1444 H 134.087 -6.04997 -0.882547 0
M  V30 1445 H 138.261 -6.94797 -0.472177 0
M  V30 1446 H 135.888 -7.59965 -0.188926 0
M  V30 1447 N 137.463 0.71206 -1.40597 0
M  V30 1448 C 138.712 1.46754 -1.38369 0
M  V30 1449 C 139.025 1.95598 0.0097839 0
M  V30 1450 O 140.231 2.71059 0.154677 0
M  V30 1451 C 138.687 2.65289 -2.43207 0
M  V30 1452 C 138.295 2.23301 -3.88382 0
M  V30 1453 C 140.039 3.43008 -2.50091 0
M  V30 1454 C 137.946 3.38696 -4.84808 0
M  V30 1455 H 136.876 0.55118 -0.514506 0
M  V30 1456 H 139.527 0.774616 -1.66349 0
M  V30 1457 H 137.909 3.36769 -2.08332 0
M  V30 1458 H 139.083 1.59218 -4.32419 0
M  V30 1459 H 137.398 1.58618 -3.85006 0
M  V30 1460 H 139.995 4.28881 -3.1932 0
M  V30 1461 H 140.338 3.87065 -1.53253 0
M  V30 1462 H 140.871 2.78574 -2.83974 0
M  V30 1463 H 137.61 2.99668 -5.82992 0
M  V30 1464 H 137.13 4.01683 -4.45433 0
M  V30 1465 H 138.809 4.04712 -5.04794 0
M  V30 1466 N 138.941 1.26152 0.944643 0
M  V30 1467 C 140.19 1.10883 1.68487 0
M  V30 1468 C 140.503 -0.348153 1.92477 0
M  V30 1469 O 141.709 -0.621459 2.64292 0
M  V30 1470 C 140.165 1.93624 3.03377 0
M  V30 1471 C 139.773 3.43875 2.87148 0
M  V30 1472 C 141.517 1.86954 3.81115 0
M  V30 1473 C 139.424 4.18875 4.1749 0
M  V30 1474 H 138.354 0.41135 0.631907 0
M  V30 1475 H 141.005 1.50433 1.05082 0
M  V30 1476 H 139.387 1.46904 3.67743 0
M  V30 1477 H 140.561 3.98338 2.31653 0
M  V30 1478 H 138.876 3.51744 2.22856 0
M  V30 1479 H 141.473 2.40275 4.77673 0
M  V30 1480 H 141.816 0.839518 4.07747 0
M  V30 1481 H 142.349 2.31477 3.23517 0
M  V30 1482 H 139.088 5.22332 3.96043 0
M  V30 1483 H 138.608 3.69193 4.72712 0
M  V30 1484 H 140.287 4.27134 4.85968 0
M  V30 1485 N 140.419 -1.14872 1.07899 0
M  V30 1486 C 141.667 -1.85422 0.803941 0
M  V30 1487 C 141.988 -1.83051 -0.67211 0
M  V30 1488 O 141.258 -1.27532 -1.48703 0
M  V30 1489 H 139.838 -0.686537 0.294408 0
M  V30 1490 H 142.5 -1.39226 1.3639 0
M  V30 1491 H 141.596 -2.90399 1.14346 0
M  V30 1492 N 141.898 -0.863906 -1.31812 0
M  V30 1493 C 143.123 -0.48527 -2.01643 0
M  V30 1494 C 143.548 0.913058 -1.64453 0
M  V30 1495 O 142.906 1.6014 -0.849985 0
M  V30 1496 C 142.954 -0.642625 -3.54828 0
M  V30 1497 O 142.058 0.320659 -4.11151 0
M  V30 1498 H 141.399 -0.193793 -0.635091 0
M  V30 1499 H 143.929 -1.16565 -1.68148 0
M  V30 1500 H 143.939 -0.533628 -4.04495 0
M  V30 1501 H 142.614 -1.66227 -3.81237 0
M  V30 1502 H 141.191 0.167126 -3.72525 0
M  V30 1503 N 143.376 1.44774 -0.622745 0
M  V30 1504 C 144.306 2.33382 0.0741861 0
M  V30 1505 C 145.287 1.47719 0.843387 0
M  V30 1506 O 146.472 1.76458 0.810934 0
M  V30 1507 C 143.602 3.30663 1.06204 0
M  V30 1508 C 142.556 4.26079 0.405037 0
M  V30 1509 C 141.882 5.13165 1.5022 0
M  V30 1510 C 143.182 5.1781 -0.683414 0
M  V30 1511 H 144.876 2.91905 -0.665713 0
M  V30 1512 H 142.422 1.40363 -0.321587 0
M  V30 1513 H 144.375 3.9153 1.55827 0
M  V30 1514 H 143.099 2.70331 1.83272 0
M  V30 1515 H 141.758 3.66532 -0.0704683 0
M  V30 1516 H 141.406 4.49191 2.26355 0
M  V30 1517 H 141.106 5.77812 1.06803 0
M  V30 1518 H 142.63 5.76902 2.00041 0
M  V30 1519 H 144.044 5.72661 -0.270631 0
M  V30 1520 H 142.441 5.91015 -1.04023 0
M  V30 1521 H 143.511 4.59326 -1.55395 0
M  V30 1522 N 144.854 0.36279 1.53368 0
M  V30 1523 C 146.1 -0.220702 2.02199 0
M  V30 1524 C 146.455 -1.46649 1.24546 0
M  V30 1525 O 145.748 -1.88737 0.32996 0
M  V30 1526 C 145.942 -0.568417 3.52851 0
M  V30 1527 C 145.771 0.642126 4.45092 0
M  V30 1528 C 144.541 1.15335 4.91961 0
M  V30 1529 C 146.739 1.50649 4.91741 0
M  V30 1530 N 144.721 2.3242 5.68202 0
M  V30 1531 C 146.092 2.52404 5.66297 0
M  V30 1532 C 148.147 1.52969 4.73819 0
M  V30 1533 C 146.85 3.56331 6.24836 0
M  V30 1534 C 148.876 2.55789 5.33222 0
M  V30 1535 C 148.238 3.56268 6.07662 0
M  V30 1536 H 144.337 -0.0435508 0.780786 0
M  V30 1537 H 146.921 0.506704 1.87991 0
M  V30 1538 H 145.092 -1.2649 3.67226 0
M  V30 1539 H 146.824 -1.13676 3.88407 0
M  V30 1540 H 143.579 0.718412 4.68119 0
M  V30 1541 H 144.003 2.91591 6.10986 0
M  V30 1542 H 148.645 0.766418 4.15795 0
M  V30 1543 H 146.363 4.33543 6.81958 0
M  V30 1544 H 149.949 2.58435 5.21251 0
M  V30 1545 H 148.829 4.34524 6.52808 0
M  V30 1546 N 146.332 -1.57332 0.0918853 0
M  V30 1547 C 147.609 -1.85691 -0.614668 0
M  V30 1548 C 147.989 -0.988146 -1.86545 0
M  V30 1549 O 147.337 -0.0597055 -2.28422 0
M  V30 1550 C 147.547 -3.36294 -0.933126 0
M  V30 1551 C 148.895 -4.04275 -1.29796 0
M  V30 1552 O 149.919 -3.41157 -1.02424 0
M  V30 1553 O 148.778 -5.1564 -1.81047 0
M  V30 1554 H 145.872 -0.767802 -0.307261 0
M  V30 1555 H 148.418 -1.69244 0.12434 0
M  V30 1556 H 147.19 -3.91273 -0.0456404 0
M  V30 1557 H 146.813 -3.58076 -1.72822 0
M  V30 1558 N 147.81 0.181792 -1.56548 0
M  V30 1559 C 148.757 1.22521 -1.95595 0
M  V30 1560 C 149.727 1.4454 -0.818373 0
M  V30 1561 O 150.912 1.57454 -1.07763 0
M  V30 1562 C 148.052 2.56193 -2.31212 0
M  V30 1563 C 147.165 2.41641 -3.58097 0
M  V30 1564 C 146.3 3.68108 -3.82975 0
M  V30 1565 C 145.339 3.48445 -5.03242 0
M  V30 1566 N 144.476 4.66956 -5.24306 0
M  V30 1567 H 149.316 0.885226 -2.84548 0
M  V30 1568 H 146.853 0.425718 -1.40805 0
M  V30 1569 H 148.811 3.34088 -2.49882 0
M  V30 1570 H 147.441 2.88208 -1.45382 0
M  V30 1571 H 146.493 1.54976 -3.474 0
M  V30 1572 H 147.805 2.23052 -4.46149 0
M  V30 1573 H 146.959 4.54441 -4.01956 0
M  V30 1574 H 145.698 3.89666 -2.93278 0
M  V30 1575 H 144.703 2.60499 -4.8417 0
M  V30 1576 H 145.928 3.2832 -5.9446 0
M  V30 1577 H 143.874 4.88752 -4.37559 0
M  V30 1578 H 143.791 4.51242 -6.06561 0
M  V30 1579 H 145.059 5.54602 -5.47756 0
M  V30 1580 N 149.288 1.51039 0.449983 0
M  V30 1581 C 150.198 1.74261 1.57067 0
M  V30 1582 C 151.214 0.626363 1.62335 0
M  V30 1583 O 152.39 0.907162 1.79812 0
M  V30 1584 C 149.455 1.85114 2.93144 0
M  V30 1585 C 148.516 3.0893 2.98095 0
M  V30 1586 C 147.749 3.19256 4.27681 0
M  V30 1587 O 147.972 2.35835 5.19363 0
M  V30 1588 O 146.906 4.12144 4.38658 0
M  V30 1589 H 150.732 2.69303 1.40391 0
M  V30 1590 H 148.317 1.35389 0.631688 0
M  V30 1591 H 150.199 1.94311 3.73926 0
M  V30 1592 H 148.874 0.932588 3.09975 0
M  V30 1593 H 147.781 3.0522 2.16314 0
M  V30 1594 H 149.114 4.00433 2.86206 0
M  V30 1595 N 150.766 -0.704594 1.40972 0
M  V30 1596 C 152.182 -1.01406 1.23244 0
M  V30 1597 C 152.382 -2.01169 0.115399 0
M  V30 1598 O 151.438 -2.47021 -0.523147 0
M  V30 1599 C 152.751 -1.54728 2.57836 0
M  V30 1600 C 154.299 -1.66658 2.64942 0
M  V30 1601 C 154.774 -2.23383 3.9983 0
M  V30 1602 N 156.265 -2.30756 4.01629 0
M  V30 1603 C 157 -2.75655 5.02794 0
M  V30 1604 N 156.496 -3.20225 6.14352 0
M  V30 1605 N 158.289 -2.75138 4.90159 0
M  V30 1606 H 150.44 -0.0435285 2.12355 0
M  V30 1607 H 152.703 -0.0818951 0.944456 0
M  V30 1608 H 152.409 -0.888832 3.40283 0
M  V30 1609 H 152.283 -2.53084 2.79693 0
M  V30 1610 H 154.67 -2.31617 1.8286 0
M  V30 1611 H 154.751 -0.668717 2.46904 0
M  V30 1612 H 154.395 -1.59043 4.82357 0
M  V30 1613 H 154.325 -3.23904 4.15203 0
M  V30 1614 H 156.816 -1.99291 3.21079 0
M  V30 1615 H 157.129 -3.53084 6.87424 0
M  V30 1616 H 155.474 -3.18156 6.17901 0
M  V30 1617 H 158.665 -2.39661 4.02095 0
M  V30 1618 H 158.838 -3.09812 5.6914 0
M  V30 1619 N 152.244 -1.26651 -0.937939 0
M  V30 1620 C 153.174 -1.10993 -2.05433 0
M  V30 1621 C 154.155 -0.0142161 -1.70094 0
M  V30 1622 O 155.34 -0.186837 -1.93299 0
M  V30 1623 C 152.47 -0.745561 -3.39203 0
M  V30 1624 C 151.424 -1.79337 -3.88616 0
M  V30 1625 C 150.75 -1.28324 -5.19073 0
M  V30 1626 C 152.05 -3.19553 -4.13138 0
M  V30 1627 H 153.744 -2.0438 -2.1879 0
M  V30 1628 H 151.29 -0.984041 -1.05131 0
M  V30 1629 H 153.243 -0.622888 -4.16771 0
M  V30 1630 H 151.967 0.22401 -3.25831 0
M  V30 1631 H 150.626 -1.90477 -3.13231 0
M  V30 1632 H 150.274 -0.303414 -5.02084 0
M  V30 1633 H 149.974 -1.98369 -5.53103 0
M  V30 1634 H 151.498 -1.1733 -5.99221 0
M  V30 1635 H 152.912 -3.11471 -4.81309 0
M  V30 1636 H 151.309 -3.87218 -4.58457 0
M  V30 1637 H 152.379 -3.65368 -3.18801 0
M  V30 1638 N 153.722 1.14298 -1.08507 0
M  V30 1639 C 154.655 2.18447 -0.660004 0
M  V30 1640 C 155.633 1.59242 0.328749 0
M  V30 1641 O 156.817 1.87062 0.232367 0
M  V30 1642 C 153.944 3.38688 0.0290807 0
M  V30 1643 C 152.99 4.1646 -0.919982 0
M  V30 1644 S 153.823 4.77334 -2.42718 0
M  V30 1645 C 154.979 6.00931 -1.75024 0
M  V30 1646 H 155.212 2.54166 -1.54231 0
M  V30 1647 H 152.745 1.25446 -0.900149 0
M  V30 1648 H 154.703 4.08342 0.420378 0
M  V30 1649 H 153.364 3.01289 0.887895 0
M  V30 1650 H 152.557 5.02529 -0.384751 0
M  V30 1651 H 152.159 3.52414 -1.25223 0
M  V30 1652 H 154.451 6.69017 -1.06877 0
M  V30 1653 H 155.394 6.59044 -2.58971 0
M  V30 1654 H 155.802 5.51089 -1.22317 0
M  V30 1655 N 155.201 0.870884 1.31352 0
M  V30 1656 C 156.133 0.28455 2.27427 0
M  V30 1657 C 157.146 -0.552927 1.53123 0
M  V30 1658 O 158.335 -0.374771 1.74521 0
M  V30 1659 C 155.435 -0.615164 3.3327 0
M  V30 1660 C 154.608 0.190079 4.36987 0
M  V30 1661 C 153.667 -0.637917 5.22319 0
M  V30 1662 O 152.693 -0.065626 5.69162 0
M  V30 1663 N 153.895 -1.94973 5.46778 0
M  V30 1664 H 156.66 1.11017 2.7838 0
M  V30 1665 H 154.221 0.732458 1.44384 0
M  V30 1666 H 156.213 -1.1748 3.87273 0
M  V30 1667 H 154.783 -1.34146 2.82354 0
M  V30 1668 H 154.003 0.931165 3.83044 0
M  V30 1669 H 155.291 0.742579 5.03352 0
M  V30 1670 H 154.689 -2.4378 5.10478 0
M  V30 1671 H 153.246 -2.45713 6.03712 0
M  V30 1672 N 156.679 -1.44442 0.630414 0
M  V30 1673 C 157.589 -2.34476 -0.0761693 0
M  V30 1674 C 158.605 -1.52576 -0.836449 0
M  V30 1675 O 159.781 -1.85307 -0.788874 0
M  V30 1676 C 156.846 -3.30545 -1.04599 0
M  V30 1677 C 155.907 -4.28352 -0.28516 0
M  V30 1678 C 155.14 -5.19831 -1.20878 0
M  V30 1679 O 155.363 -5.15223 -2.44747 0
M  V30 1680 O 154.297 -5.97892 -0.693491 0
M  V30 1681 H 158.123 -2.96345 0.664324 0
M  V30 1682 H 155.708 -1.44203 0.39061 0
M  V30 1683 H 157.59 -3.89681 -1.60396 0
M  V30 1684 H 156.265 -2.7121 -1.76711 0
M  V30 1685 H 155.172 -3.72764 0.315837 0
M  V30 1686 H 156.505 -4.90605 0.395924 0
M  V30 1687 N 158.157 -0.370918 -1.53173 0
M  V30 1688 C 159.382 0.220293 -2.06227 0
M  V30 1689 C 159.807 1.41243 -1.24225 0
M  V30 1690 O 159.165 1.79387 -0.262645 0
M  V30 1691 C 159.213 0.586663 -3.55796 0
M  V30 1692 O 158.317 1.68317 -3.76488 0
M  V30 1693 H 157.658 0.0308099 -0.663285 0
M  V30 1694 H 160.188 -0.533068 -1.97534 0
M  V30 1695 H 160.198 0.85617 -3.98916 0
M  V30 1696 H 158.873 -0.285013 -4.14922 0
M  V30 1697 H 157.45 1.40881 -3.45264 0
M  V30 1698 N 159.635 1.57281 -0.100228 0
M  V30 1699 C 160.565 2.17328 0.853857 0
M  V30 1700 C 161.546 1.10804 1.2906 0
M  V30 1701 O 162.731 1.38963 1.35657 0
M  V30 1702 C 159.861 2.75772 2.11109 0
M  V30 1703 C 158.815 3.87713 1.81279 0
M  V30 1704 C 158.141 4.32882 3.13874 0
M  V30 1705 C 159.441 5.10677 1.09574 0
M  V30 1706 H 161.135 2.97305 0.353545 0
M  V30 1707 H 158.681 1.43009 0.168612 0
M  V30 1708 H 160.634 3.16433 2.78296 0
M  V30 1709 H 159.358 1.93057 2.63432 0
M  V30 1710 H 158.017 3.476 1.16489 0
M  V30 1711 H 157.665 3.47051 3.64095 0
M  V30 1712 H 157.365 5.08358 2.94696 0
M  V30 1713 H 158.889 4.7618 3.82211 0
M  V30 1714 H 160.303 5.48474 1.66879 0
M  V30 1715 H 158.7 5.91615 1.00557 0
M  V30 1716 H 159.77 4.84835 0.0793299 0
M  V30 1717 N 161.113 -0.173488 1.56642 0
M  V30 1718 C 162.341 -0.906095 1.86004 0
M  V30 1719 C 162.756 -1.75921 0.685355 0
M  V30 1720 O 162.113 -1.79198 -0.345578 0
M  V30 1721 C 162.164 -1.78462 3.14378 0
M  V30 1722 O 161.885 -0.965914 4.27319 0
M  V30 1723 C 163.386 -2.62707 3.57071 0
M  V30 1724 H 160.606 -0.263341 0.617165 0
M  V30 1725 H 163.15 -0.174236 2.03756 0
M  V30 1726 H 161.305 -2.46984 2.98459 0
M  V30 1727 H 161.719 -1.56655 5.00559 0
M  V30 1728 H 163.193 -3.19969 4.49804 0
M  V30 1729 H 163.67 -3.37472 2.81086 0
M  V30 1730 H 164.276 -1.99521 3.75595 0
M  V30 1731 N 162.591 -1.51276 -0.441967 0
M  V30 1732 C 163.521 -1.752 -1.54361 0
M  V30 1733 C 164.502 -0.601682 -1.59103 0
M  V30 1734 O 165.687 -0.843913 -1.74905 0
M  V30 1735 C 162.817 -1.87282 -2.92477 0
M  V30 1736 C 161.771 -3.02687 -3.02596 0
M  V30 1737 C 161.097 -2.99947 -4.42647 0
M  V30 1738 C 162.397 -4.4273 -2.77106 0
M  V30 1739 H 164.091 -2.67442 -1.34592 0
M  V30 1740 H 161.637 -1.28694 -0.646048 0
M  V30 1741 H 163.59 -2.02602 -3.695 0
M  V30 1742 H 162.314 -0.916844 -3.13467 0
M  V30 1743 H 160.973 -2.87065 -2.28012 0
M  V30 1744 H 160.621 -2.02136 -4.60597 0
M  V30 1745 H 160.321 -3.77439 -4.50348 0
M  V30 1746 H 161.845 -3.17354 -5.2165 0
M  V30 1747 H 163.259 -4.58727 -3.43864 0
M  V30 1748 H 161.656 -5.21893 -2.96222 0
M  V30 1749 H 162.726 -4.53087 -1.72744 0
M  V30 1750 N 164.069 0.697108 -1.41344 0
M  V30 1751 C 165.019 1.80313 -1.39539 0
M  V30 1752 C 166.003 1.58618 -0.270001 0
M  V30 1753 O 167.195 1.69477 -0.510551 0
M  V30 1754 C 164.324 3.18606 -1.27848 0
M  V30 1755 C 163.41 3.46001 -2.45244 0
M  V30 1756 N 163.801 3.44103 -3.70711 0
M  V30 1757 C 162.099 3.76542 -2.39023 0
M  V30 1758 C 162.8 3.7036 -4.48563 0
M  V30 1759 N 161.776 3.90027 -3.78655 0
M  V30 1760 H 165.578 1.77207 -2.34468 0
M  V30 1761 H 163.092 0.897031 -1.35378 0
M  V30 1762 H 165.089 3.97833 -1.24637 0
M  V30 1763 H 163.749 3.22925 -0.339032 0
M  V30 1764 H 164.76 3.2452 -4.03618 0
M  V30 1765 H 161.437 3.88241 -1.53542 0
M  V30 1766 H 162.827 3.75042 -5.57488 0
M  V30 1767 N 165.547 1.27147 0.931209 0
M  V30 1768 C 166.963 1.04475 1.20653 0
M  V30 1769 C 167.163 -0.223885 2.00252 0
M  V30 1770 O 166.219 -0.930332 2.34736 0
M  V30 1771 C 167.532 2.28209 1.95809 0
M  V30 1772 C 169.08 2.33211 2.08762 0
M  V30 1773 C 169.555 3.56665 2.87323 0
M  V30 1774 N 171.046 3.57201 2.94892 0
M  V30 1775 C 171.781 4.49395 3.56134 0
M  V30 1776 N 171.277 5.51889 4.18796 0
M  V30 1777 N 173.07 4.37026 3.53504 0
M  V30 1778 H 165.221 2.08612 0.399333 0
M  V30 1779 H 167.484 0.917312 0.239253 0
M  V30 1780 H 167.19 3.20538 1.44736 0
M  V30 1781 H 167.064 2.33247 2.96438 0
M  V30 1782 H 169.451 1.41391 2.59023 0
M  V30 1783 H 169.532 2.32178 1.07364 0
M  V30 1784 H 169.176 4.4882 2.37746 0
M  V30 1785 H 169.106 3.54948 3.88998 0
M  V30 1786 H 171.597 2.83074 2.50354 0
M  V30 1787 H 171.91 6.18409 4.63454 0
M  V30 1788 H 170.255 5.55735 4.17353 0
M  V30 1789 H 173.446 3.56166 3.03749 0
M  V30 1790 H 173.619 5.09067 4.00942 0
M  V30 1791 N 167.025 -1.13721 1.09112 0
M  V30 1792 C 168.25 -1.89314 0.847053 0
M  V30 1793 C 168.675 -1.78416 -0.595774 0
M  V30 1794 O 168.033 -1.12942 -1.41823 0
M  V30 1795 C 168.081 -3.3701 1.28284 0
M  V30 1796 O 167.185 -4.10054 0.439267 0
M  V30 1797 H 166.526 -0.588745 0.307044 0
M  V30 1798 H 169.056 -1.43902 1.45442 0
M  V30 1799 H 169.066 -3.87834 1.26683 0
M  V30 1800 H 167.741 -3.4426 2.33363 0
M  V30 1801 H 166.318 -3.69266 0.519312 0
M  V30 1802 N 168.503 -0.877838 -1.30888 0
M  V30 1803 C 169.751 -0.491723 -1.96027 0
M  V30 1804 C 170.072 0.960827 -1.69685 0
M  V30 1805 O 169.342 1.67462 -1.01654 0
M  V30 1806 H 167.922 -0.17885 -0.725273 0
M  V30 1807 H 170.584 -1.11935 -1.59551 0
M  V30 1808 H 169.68 -0.656016 -3.05128 0
M  V30 1809 N 169.982 1.44106 -0.638065 0
M  V30 1810 C 171.23 2.01579 -0.145043 0
M  V30 1811 C 171.551 1.50496 1.24 0
M  V30 1812 O 170.821 0.711374 1.82527 0
M  V30 1813 H 169.401 0.745282 -0.05063 0
M  V30 1814 H 172.063 1.76516 -0.826327 0
M  V30 1815 H 171.159 3.11877 -0.118039 0
M  V30 1816 N 171.46 0.379036 1.52974 0
M  V30 1817 C 172.41 -0.477772 2.22938 0
M  V30 1818 C 173.394 -1.03792 1.22948 0
M  V30 1819 O 174.586 -0.965725 1.48333 0
M  V30 1820 C 171.715 -1.60994 3.03209 0
M  V30 1821 C 170.801 -1.06203 4.10587 0
M  V30 1822 N 171.192 -0.238214 5.05239 0
M  V30 1823 C 169.49 -1.33554 4.25534 0
M  V30 1824 C 170.191 0.0633235 5.81666 0
M  V30 1825 N 169.167 -0.537901 5.40932 0
M  V30 1826 H 172.969 0.158295 2.93473 0
M  V30 1827 H 170.483 0.187778 1.61311 0
M  V30 1828 H 172.48 -2.23607 3.5186 0
M  V30 1829 H 171.14 -2.24893 2.34207 0
M  V30 1830 H 172.151 0.123695 5.17752 0
M  V30 1831 H 168.828 -1.97632 3.6776 0
M  V30 1832 H 170.218 0.730161 6.67921 0
M  V30 1833 N 172.938 -1.57226 0.108567 0
M  V30 1834 C 174.187 -1.94008 -0.551703 0
M  V30 1835 C 174.5 -0.993442 -1.68494 0
M  V30 1836 O 175.706 -1.25551 -2.40726 0
M  V30 1837 C 174.162 -3.44763 -1.03279 0
M  V30 1838 C 173.77 -4.47943 0.0714193 0
M  V30 1839 C 175.514 -3.90483 -1.66503 0
M  V30 1840 C 173.421 -5.89865 -0.425779 0
M  V30 1841 H 172.351 -0.724206 -0.209863 0
M  V30 1842 H 175.002 -1.82547 0.186741 0
M  V30 1843 H 173.384 -3.51422 -1.82533 0
M  V30 1844 H 174.558 -4.52942 0.847365 0
M  V30 1845 H 172.873 -4.11913 0.609669 0
M  V30 1846 H 175.47 -4.93925 -2.04798 0
M  V30 1847 H 175.813 -3.29877 -2.53942 0
M  V30 1848 H 176.346 -3.86581 -0.938074 0
M  V30 1849 H 173.085 -6.54202 0.412316 0
M  V30 1850 H 172.605 -5.88309 -1.16843 0
M  V30 1851 H 174.284 -6.40844 -0.890397 0
M  V30 1852 N 174.416 0.165178 -1.56732 0
M  V30 1853 C 175.379 1.18822 -1.95995 0
M  V30 1854 C 176.379 1.3685 -0.84431 0
M  V30 1855 O 177.569 1.34152 -1.11126 0
M  V30 1856 C 174.701 2.5521 -2.26011 0
M  V30 1857 H 175.894 0.851825 -2.87548 0
M  V30 1858 H 173.447 0.407857 -1.50885 0
M  V30 1859 H 174.182 2.93852 -1.37191 0
M  V30 1860 H 173.967 2.43489 -3.07336 0
M  V30 1861 H 175.457 3.28927 -2.57288 0
M  V30 1862 N 175.894 1.51508 0.433938 0
M  V30 1863 C 176.844 1.69451 1.52546 0
M  V30 1864 C 177.828 0.548474 1.51263 0
M  V30 1865 O 179.02 0.804529 1.57659 0
M  V30 1866 C 176.149 1.82604 2.90707 0
M  V30 1867 C 175.235 3.03002 2.96733 0
M  V30 1868 N 175.626 4.26121 2.72496 0
M  V30 1869 C 173.924 3.02327 3.27894 0
M  V30 1870 C 174.625 5.07407 2.84452 0
M  V30 1871 N 173.601 4.42126 3.16269 0
M  V30 1872 H 177.403 2.62305 1.32564 0
M  V30 1873 H 174.917 1.49202 0.641297 0
M  V30 1874 H 176.914 1.93569 3.69238 0
M  V30 1875 H 175.574 0.909339 3.11707 0
M  V30 1876 H 176.585 4.55009 2.4736 0
M  V30 1877 H 173.262 2.20301 3.54646 0
M  V30 1878 H 174.652 6.15422 2.69639 0
M  V30 1879 N 177.372 -0.689602 1.41712 0
M  V30 1880 C 178.302 -1.81577 1.46806 0
M  V30 1881 C 179.283 -1.66945 0.326105 0
M  V30 1882 O 180.468 -1.86588 0.538377 0
M  V30 1883 C 177.598 -3.19762 1.35535 0
M  V30 1884 C 176.552 -3.49107 2.47605 0
M  V30 1885 C 175.878 -4.86711 2.21397 0
M  V30 1886 C 177.178 -3.47483 3.89939 0
M  V30 1887 H 178.872 -1.7757 2.41058 0
M  V30 1888 H 176.418 -0.852887 1.16025 0
M  V30 1889 H 178.371 -3.98263 1.3771 0
M  V30 1890 H 177.095 -3.24409 0.377708 0
M  V30 1891 H 175.754 -2.72959 2.44722 0
M  V30 1892 H 175.402 -4.8799 1.21961 0
M  V30 1893 H 175.102 -5.0731 2.96497 0
M  V30 1894 H 176.626 -5.67515 2.25297 0
M  V30 1895 H 178.04 -4.1598 3.94505 0
M  V30 1896 H 176.437 -3.79615 4.64771 0
M  V30 1897 H 177.507 -2.46341 4.17665 0
M  V30 1898 N 178.85 -1.27639 -0.924453 0
M  V30 1899 C 179.8 -1.07295 -2.01176 0
M  V30 1900 C 180.784 5.77352e-05 -1.609 0
M  V30 1901 O 181.976 -0.218855 -1.75642 0
M  V30 1902 C 179.105 -0.725592 -3.35544 0
M  V30 1903 C 178.191 -1.83691 -3.82254 0
M  V30 1904 N 178.582 -3.07697 -4.01443 0
M  V30 1905 C 176.88 -1.72433 -4.11319 0
M  V30 1906 C 177.581 -3.80037 -4.40394 0
M  V30 1907 N 176.557 -3.0782 -4.48049 0
M  V30 1908 H 180.359 -2.01399 -2.14046 0
M  V30 1909 H 177.873 -1.18401 -1.11153 0
M  V30 1910 H 179.87 -0.560959 -4.13109 0
M  V30 1911 H 178.53 0.207782 -3.24034 0
M  V30 1912 H 179.541 -3.43424 -3.8766 0
M  V30 1913 H 176.218 -0.862005 -4.08504 0
M  V30 1914 H 177.608 -4.86632 -4.63291 0
M  V30 1915 N 180.328 1.1314 -1.09713 0
M  V30 1916 C 181.574 1.84757 -0.836224 0
M  V30 1917 C 181.907 1.8347 0.636598 0
M  V30 1918 O 181.182 1.27491 1.46889 0
M  V30 1919 C 181.465 3.32782 -1.37578 0
M  V30 1920 C 181.318 3.42567 -2.91493 0
M  V30 1921 C 182.637 4.28307 -1.01198 0
M  V30 1922 H 179.756 0.67082 -0.305236 0
M  V30 1923 H 182.398 1.3278 -1.35903 0
M  V30 1924 H 180.548 3.77177 -0.931097 0
M  V30 1925 H 182.22 3.06862 -3.44432 0
M  V30 1926 H 180.463 2.83349 -3.28475 0
M  V30 1927 H 181.134 4.46674 -3.24324 0
M  V30 1928 H 183.61 3.91999 -1.39556 0
M  V30 1929 H 182.486 5.30307 -1.41653 0
M  V30 1930 H 182.747 4.42029 0.0794833 0
M  V30 1931 N 181.806 0.884767 1.30421 0
M  V30 1932 C 182.736 0.367574 2.30589 0
M  V30 1933 C 183.717 -0.549464 1.60981 0
M  V30 1934 O 184.902 -0.46336 1.88591 0
M  V30 1935 C 182.032 -0.418944 3.44764 0
M  V30 1936 C 180.986 0.406316 4.26067 0
M  V30 1937 C 180.312 -0.506793 5.32293 0
M  V30 1938 C 181.612 1.64832 4.95608 0
M  V30 1939 H 183.306 1.20462 2.74097 0
M  V30 1940 H 180.852 0.580695 1.31772 0
M  V30 1941 H 182.805 -0.791395 4.13902 0
M  V30 1942 H 181.529 -1.28964 3.0006 0
M  V30 1943 H 180.188 0.760903 3.58617 0
M  V30 1944 H 179.836 -1.37519 4.83836 0
M  V30 1945 H 179.536 0.0415828 5.87585 0
M  V30 1946 H 181.06 -0.875764 6.04287 0
M  V30 1947 H 182.474 1.34646 5.57264 0
M  V30 1948 H 180.871 2.13688 5.60765 0
M  V30 1949 H 181.941 2.39284 4.21748 0
M  V30 1950 N 183.284 -1.43765 0.645699 0
M  V30 1951 C 184.247 -2.29163 -0.0409488 0
M  V30 1952 C 185.247 -1.41813 -0.757996 0
M  V30 1953 O 186.437 -1.63527 -0.600382 0
M  V30 1954 C 183.569 -3.23716 -1.06869 0
M  V30 1955 H 184.762 -2.91366 0.710345 0
M  V30 1956 H 182.315 -1.5092 0.406547 0
M  V30 1957 H 183.05 -2.66393 -1.84947 0
M  V30 1958 H 182.835 -3.88105 -0.558277 0
M  V30 1959 H 184.325 -3.87831 -1.54845 0
M  V30 1960 N 184.763 -0.387143 -1.52771 0
M  V30 1961 C 186.009 0.196025 -2.0185 0
M  V30 1962 C 186.342 1.46641 -1.27319 0
M  V30 1963 O 185.617 1.90889 -0.373032 0
M  V30 1964 C 185.9 0.466136 -3.5707 0
M  V30 1965 C 185.753 -0.819385 -4.42274 0
M  V30 1966 C 187.072 1.25768 -4.21747 0
M  V30 1967 H 184.191 0.0697708 -0.73369 0
M  V30 1968 H 186.833 -0.516286 -1.82851 0
M  V30 1969 H 184.983 1.07293 -3.7339 0
M  V30 1970 H 186.655 -1.4563 -4.37709 0
M  V30 1971 H 184.898 -1.43517 -4.09372 0
M  V30 1972 H 185.569 -0.585065 -5.48891 0
M  V30 1973 H 188.045 0.744167 -4.09391 0
M  V30 1974 H 186.921 1.41541 -5.30337 0
M  V30 1975 H 187.182 2.27228 -3.79236 0
M  V30 1976 N 186.241 1.57166 -0.116904 0
M  V30 1977 C 187.191 2.11756 0.845178 0
M  V30 1978 C 188.175 1.03783 1.22955 0
M  V30 1979 O 189.367 1.3002 1.20099 0
M  V30 1980 C 186.496 2.71886 2.09602 0
M  V30 1981 C 185.582 3.86937 1.7361 0
M  V30 1982 N 185.973 4.94073 1.08284 0
M  V30 1983 C 184.271 3.97082 2.03082 0
M  V30 1984 C 184.972 5.74477 0.913855 0
M  V30 1985 N 183.948 5.2423 1.43818 0
M  V30 1986 H 187.75 2.91967 0.336523 0
M  V30 1987 H 185.264 1.62174 0.0856332 0
M  V30 1988 H 187.261 3.09338 2.79492 0
M  V30 1989 H 185.921 1.93138 2.61013 0
M  V30 1990 H 186.932 5.12483 0.747067 0
M  V30 1991 H 183.609 3.29372 2.56554 0
M  V30 1992 H 184.999 6.70701 0.40125 0
M  V30 1993 N 187.719 -0.156864 1.56817 0
M  V30 1994 C 189.135 -0.50916 1.5126 0
M  V30 1995 C 189.335 -1.83897 0.823658 0
M  V30 1996 O 188.391 -2.49469 0.390055 0
M  V30 1997 C 189.704 -0.52857 2.96018 0
M  V30 1998 C 191.252 -0.614771 3.06903 0
M  V30 1999 C 191.727 -0.664938 4.53147 0
M  V30 2000 N 193.218 -0.727433 4.57452 0
M  V30 2001 C 193.953 -0.787067 5.67973 0
M  V30 2002 N 193.449 -0.806649 6.88088 0
M  V30 2003 N 195.242 -0.827195 5.5598 0
M  V30 2004 H 187.393 0.714935 2.00006 0
M  V30 2005 H 189.656 0.259526 0.911784 0
M  V30 2006 H 189.362 0.380154 3.49639 0
M  V30 2007 H 189.236 -1.36998 3.51442 0
M  V30 2008 H 191.623 -1.51392 2.53307 0
M  V30 2009 H 191.704 0.253597 2.5454 0
M  V30 2010 H 191.348 0.230011 5.07379 0
M  V30 2011 H 191.278 -1.54966 5.03282 0
M  V30 2012 H 193.769 -0.719998 3.70978 0
M  V30 2013 H 194.082 -0.853727 7.6807 0
M  V30 2014 H 192.427 -0.774687 6.90669 0
M  V30 2015 H 195.618 -0.808998 4.61056 0
M  V30 2016 H 195.791 -0.870206 6.4213 0
M  V30 2017 N 189.197 -1.51736 -0.425897 0
M  V30 2018 C 190.16 -1.73271 -1.50032 0
M  V30 2019 C 191.16 -0.602639 -1.4908 0
M  V30 2020 O 192.35 -0.87033 -1.509 0
M  V30 2021 C 189.482 -1.79969 -2.89523 0
M  V30 2022 H 190.675 -2.69172 -1.32237 0
M  V30 2023 H 188.228 -1.41899 -0.65532 0
M  V30 2024 H 188.963 -0.859241 -3.1271 0
M  V30 2025 H 188.748 -2.62109 -2.91619 0
M  V30 2026 H 190.238 -1.9843 -3.67444 0
M  V30 2027 N 190.675 0.682077 -1.42076 0
M  V30 2028 C 191.922 1.44215 -1.42156 0
M  V30 2029 C 192.25 1.94468 -0.0354186 0
M  V30 2030 O 191.505 1.70816 0.955002 0
M  V30 2031 C 191.804 2.66036 -2.38662 0
M  V30 2032 C 191.47 2.34366 -3.85206 0
M  V30 2033 C 190.132 2.25439 -4.25124 0
M  V30 2034 C 192.484 2.08513 -4.77673 0
M  V30 2035 C 189.812 1.88775 -5.55501 0
M  V30 2036 C 192.164 1.73354 -6.08384 0
M  V30 2037 C 190.828 1.62933 -6.47309 0
M  V30 2038 H 190.098 0.527718 -0.520187 0
M  V30 2039 H 192.745 0.778387 -1.74967 0
M  V30 2040 H 191.05 3.3741 -1.99152 0
M  V30 2041 H 192.747 3.24205 -2.35991 0
M  V30 2042 H 189.337 2.42213 -3.53597 0
M  V30 2043 H 193.521 2.14346 -4.47626 0
M  V30 2044 H 188.777 1.7927 -5.84527 0
M  V30 2045 H 192.951 1.52373 -6.79526 0
M  V30 2046 H 190.578 1.34292 -7.48244 0
M  V30 2047 N 192.153 1.28127 0.917671 0
M  V30 2048 C 193.569 1.05749 1.19538 0
M  V30 2049 C 193.769 -0.202633 2.00479 0
M  V30 2050 O 192.825 -0.905382 2.3571 0
M  V30 2051 C 194.138 2.30273 1.93378 0
M  V30 2052 C 195.686 2.35412 2.06277 0
M  V30 2053 C 196.161 3.59692 2.83524 0
M  V30 2054 N 197.652 3.60309 2.91087 0
M  V30 2055 C 198.387 4.53147 3.51348 0
M  V30 2056 N 197.883 5.563 4.12919 0
M  V30 2057 N 199.676 4.40751 3.48849 0
M  V30 2058 H 191.827 2.09024 0.377184 0
M  V30 2059 H 194.09 0.919798 0.22951 0
M  V30 2060 H 193.796 3.22055 1.41328 0
M  V30 2061 H 193.67 2.36378 2.93947 0
M  V30 2062 H 196.057 1.4413 2.57508 0
M  V30 2063 H 196.138 2.33304 1.04895 0
M  V30 2064 H 195.782 4.51316 2.32973 0
M  V30 2065 H 195.712 3.59054 3.85211 0
M  V30 2066 H 198.203 2.85714 2.47338 0
M  V30 2067 H 198.516 6.2329 4.56869 0
M  V30 2068 H 196.861 5.60131 4.11435 0
M  V30 2069 H 200.052 3.59367 2.99955 0
M  V30 2070 H 200.225 5.13291 3.9552 0
M  V30 2071 N 193.631 -1.12557 1.10312 0
M  V30 2072 C 194.563 -2.17971 0.708625 0
M  V30 2073 C 195.576 -1.60806 -0.254027 0
M  V30 2074 O 196.765 -1.78458 -0.0386891 0
M  V30 2075 C 193.865 -3.38891 0.0248198 0
M  V30 2076 C 193.038 -4.25548 1.01132 0
M  V30 2077 C 192.097 -5.24972 0.35924 0
M  V30 2078 O 191.123 -5.60174 1.00965 0
M  V30 2079 N 192.325 -5.73747 -0.882847 0
M  V30 2080 H 195.09 -2.52427 1.61557 0
M  V30 2081 H 192.651 -1.27967 0.991771 0
M  V30 2082 H 194.643 -4.02485 -0.422852 0
M  V30 2083 H 193.213 -3.02596 -0.784514 0
M  V30 2084 H 192.433 -3.58589 1.6373 0
M  V30 2085 H 193.721 -4.80294 1.67914 0
M  V30 2086 H 193.119 -5.4731 -1.43065 0
M  V30 2087 H 191.676 -6.39234 -1.27369 0
M  V30 2088 N 195.109 -0.891671 -1.2995 0
M  V30 2089 C 196.041 -0.320695 -2.26945 0
M  V30 2090 C 197.054 0.528497 -1.53983 0
M  V30 2091 O 198.243 0.346959 -1.75096 0
M  V30 2092 C 195.343 0.562066 -3.34207 0
M  V30 2093 C 194.516 -0.259576 -4.36629 0
M  V30 2094 C 193.575 0.554739 -5.23268 0
M  V30 2095 O 192.601 -0.0249311 -5.69195 0
M  V30 2096 N 193.803 1.8625 -5.4981 0
M  V30 2097 H 196.568 -1.15432 -2.76578 0
M  V30 2098 H 194.129 -0.755336 -1.432 0
M  V30 2099 H 196.121 1.11304 -3.89093 0
M  V30 2100 H 194.691 1.29637 -2.84452 0
M  V30 2101 H 193.911 -0.991986 -3.81514 0
M  V30 2102 H 195.199 -0.822564 -5.02107 0
M  V30 2103 H 194.597 2.35628 -5.14292 0
M  V30 2104 H 193.154 2.36078 -6.07545 0
M  V30 2105 N 196.587 1.43421 -0.653314 0
M  V30 2106 C 197.835 2.01414 -0.166415 0
M  V30 2107 C 198.156 1.51803 1.22397 0
M  V30 2108 O 197.426 0.730693 1.81763 0
M  V30 2109 H 196.006 0.744703 -0.0585319 0
M  V30 2110 H 198.668 1.75629 -0.845003 0
M  V30 2111 H 197.764 3.11734 -0.151111 0
M  V30 2112 N 198.065 0.39524 1.52563 0
M  V30 2113 C 199.481 0.0454682 1.59535 0
M  V30 2114 C 199.681 -1.44056 1.4089 0
M  V30 2115 O 198.737 -2.20579 1.22888 0
M  V30 2116 C 200.05 0.527963 2.96029 0
M  V30 2117 C 201.598 0.484733 3.09224 0
M  V30 2118 C 202.073 0.943512 4.48176 0
M  V30 2119 N 203.564 0.899765 4.54377 0
M  V30 2120 C 204.299 1.22609 5.60138 0
M  V30 2121 N 203.795 1.62319 6.73516 0
M  V30 2122 N 205.588 1.14696 5.50274 0
M  V30 2123 H 197.739 1.36261 1.62931 0
M  V30 2124 H 200.002 0.558887 0.765735 0
M  V30 2125 H 199.708 1.56607 3.14908 0
M  V30 2126 H 199.582 -0.0698056 3.77135 0
M  V30 2127 H 201.969 -0.544298 2.90037 0
M  V30 2128 H 202.05 1.11838 2.30056 0
M  V30 2129 H 201.694 1.9708 4.68104 0
M  V30 2130 H 201.624 0.286817 5.25818 0
M  V30 2131 H 204.115 0.607632 3.72983 0
M  V30 2132 H 204.428 1.85567 7.5019 0
M  V30 2133 H 202.773 1.66211 6.74833 0
M  V30 2134 H 205.964 0.835701 4.6058 0
M  V30 2135 H 206.137 1.40459 6.32594 0
M  V30 2136 N 199.544 -1.57102 0.125237 0
M  V30 2137 C 200.792 -1.95021 -0.530198 0
M  V30 2138 C 201.113 -1.00982 -1.66816 0
M  V30 2139 O 200.383 -0.0672693 -1.95784 0
M  V30 2140 H 198.963 -0.720046 -0.198853 0
M  V30 2141 H 201.625 -1.93916 0.19564 0
M  V30 2142 H 200.721 -2.98211 -0.920681 0
M  V30 2143 N 201.022 0.148545 -1.56898 0
M  V30 2144 C 202.433 0.708766 -1.72723 0
M  V30 2145 C 202.784 1.81734 -0.739395 0
M  V30 2146 O 201.909 2.16194 0.0943169 0
M  V30 2147 C 202.504 1.29245 -3.13179 0
M  V30 2148 C 201.063 1.79925 -3.30611 0
M  V30 2149 C 200.21 0.687111 -2.68652 0
M  V30 2150 H 203.161 -0.0771063 -1.58513 0
M  V30 2151 H 203.182 2.16224 -3.13093 0
M  V30 2152 H 202.694 0.485382 -3.85053 0
M  V30 2153 H 200.795 2.63203 -2.63732 0
M  V30 2154 H 200.908 1.92903 -4.38549 0
M  V30 2155 H 199.272 1.11335 -2.29078 0
M  V30 2156 H 200.055 -0.108483 -3.43129 0
M  V30 2157 N 202.5 1.5196 0.417844 0
M  V30 2158 C 203.749 1.6482 1.16264 0
M  V30 2159 C 204.062 0.379886 1.91876 0
M  V30 2160 O 205.268 0.388154 2.68711 0
M  V30 2161 C 203.724 2.91161 2.1155 0
M  V30 2162 C 203.332 4.25068 1.41495 0
M  V30 2163 C 205.076 3.13383 2.86341 0
M  V30 2164 C 202.983 5.42541 2.35379 0
M  V30 2165 H 201.913 0.613954 0.437694 0
M  V30 2166 H 204.564 1.78442 0.427871 0
M  V30 2167 H 202.946 2.71218 2.88543 0
M  V30 2168 H 204.12 4.55463 0.699263 0
M  V30 2169 H 202.435 4.0888 0.787792 0
M  V30 2170 H 205.032 3.98324 3.5671 0
M  V30 2171 H 205.375 2.27256 3.48798 0
M  V30 2172 H 205.908 3.33757 2.1645 0
M  V30 2173 H 202.647 6.30987 1.77582 0
M  V30 2174 H 202.167 5.16497 3.04945 0
M  V30 2175 H 203.846 5.75272 2.96093 0
M  V30 2176 N 203.978 -0.674533 1.42435 0
M  V30 2177 C 204.908 -1.80009 1.48724 0
M  V30 2178 C 205.889 -1.6659 0.343793 0
M  V30 2179 O 207.074 -1.86007 0.558137 0
M  V30 2180 C 204.204 -3.18306 1.38919 0
M  V30 2181 C 203.158 -3.46461 2.51294 0
M  V30 2182 C 202.484 -4.84335 2.26547 0
M  V30 2183 C 203.784 -3.43328 3.93603 0
M  V30 2184 H 205.478 -1.75004 2.42928 0
M  V30 2185 H 203.024 -0.840533 1.16923 0
M  V30 2186 H 204.977 -3.9678 1.41927 0
M  V30 2187 H 203.701 -3.2399 0.412094 0
M  V30 2188 H 202.36 -2.70348 2.47604 0
M  V30 2189 H 202.008 -4.86669 1.2713 0
M  V30 2190 H 201.708 -5.04136 3.01861 0
M  V30 2191 H 203.232 -5.65094 2.31304 0
M  V30 2192 H 204.646 -4.11772 3.98894 0
M  V30 2193 H 203.043 -3.74664 4.68771 0
M  V30 2194 H 204.113 -2.41897 4.20255 0
M  V30 2195 N 205.456 -1.28612 -0.910864 0
M  V30 2196 C 206.386 -1.15326 -2.03032 0
M  V30 2197 C 207.367 -0.0502924 -1.70026 0
M  V30 2198 O 208.552 -0.227797 -1.92859 0
M  V30 2199 C 205.682 -0.817343 -3.37545 0
M  V30 2200 C 204.636 -1.8754 -3.84724 0
M  V30 2201 C 203.962 -1.39305 -5.16235 0
M  V30 2202 C 205.262 -3.28244 -4.06267 0
M  V30 2203 H 206.956 -2.08975 -2.14406 0
M  V30 2204 H 204.502 -1.00612 -1.03021 0
M  V30 2205 H 206.455 -0.711151 -4.15356 0
M  V30 2206 H 205.179 0.154846 -3.26233 0
M  V30 2207 H 203.838 -1.97079 -3.09121 0
M  V30 2208 H 203.486 -0.409846 -5.01328 0
M  V30 2209 H 203.186 -2.10057 -5.48771 0
M  V30 2210 H 204.71 -1.30014 -5.96598 0
M  V30 2211 H 206.124 -3.21611 -4.74594 0
M  V30 2212 H 204.521 -3.96855 -4.5014 0
M  V30 2213 H 205.591 -3.72048 -3.10979 0
M  V30 2214 N 206.934 1.1197 -1.10907 0
M  V30 2215 C 208.18 1.84059 -0.865674 0
M  V30 2216 C 208.535 1.82731 0.602254 0
M  V30 2217 O 207.828 1.26543 1.43866 0
M  V30 2218 C 208.022 3.30749 -1.35425 0
M  V30 2219 C 207.851 3.46363 -2.86815 0
M  V30 2220 C 206.621 3.59712 -3.54874 0
M  V30 2221 C 208.819 3.41116 -3.84895 0
M  V30 2222 N 206.801 3.63741 -4.94536 0
M  V30 2223 C 208.172 3.51698 -5.10596 0
M  V30 2224 C 210.227 3.24612 -3.77533 0
M  V30 2225 C 208.93 3.4748 -6.29802 0
M  V30 2226 C 210.956 3.21708 -4.96244 0
M  V30 2227 C 210.318 3.32856 -6.20795 0
M  V30 2228 H 206.417 0.689015 -0.369841 0
M  V30 2229 H 209.001 1.34016 -1.41237 0
M  V30 2230 H 207.172 3.79322 -0.834814 0
M  V30 2231 H 208.904 3.90718 -1.05458 0
M  V30 2232 H 205.659 3.62038 -3.05329 0
M  V30 2233 H 206.083 3.69408 -5.67333 0
M  V30 2234 H 210.725 3.14883 -2.8215 0
M  V30 2235 H 208.443 3.55978 -7.25469 0
M  V30 2236 H 212.029 3.10113 -4.92261 0
M  V30 2237 H 210.909 3.3059 -7.11112 0
M  V30 2238 N 208.412 0.89855 1.29475 0
M  V30 2239 C 209.828 0.594483 1.48115 0
M  V30 2240 C 210.028 -0.86431 1.82022 0
M  V30 2241 O 209.084 -1.64457 1.91599 0
M  V30 2242 C 210.397 1.51932 2.59494 0
M  V30 2243 C 211.945 1.5244 2.7337 0
M  V30 2244 C 212.42 2.43548 3.87877 0
M  V30 2245 N 213.911 2.41589 3.95208 0
M  V30 2246 C 214.646 3.08789 4.83153 0
M  V30 2247 N 214.142 3.85265 5.75798 0
M  V30 2248 N 215.935 2.97952 4.76635 0
M  V30 2249 H 208.086 1.84207 1.05742 0
M  V30 2250 H 210.349 0.789251 0.525154 0
M  V30 2251 H 210.055 2.55865 2.41301 0
M  V30 2252 H 209.929 1.23899 3.56271 0
M  V30 2253 H 212.316 0.492518 2.90961 0
M  V30 2254 H 212.397 1.8451 1.77172 0
M  V30 2255 H 212.041 3.46829 3.71041 0
M  V30 2256 H 211.971 2.08788 4.83441 0
M  V30 2257 H 214.462 1.86025 3.28943 0
M  V30 2258 H 214.775 4.33598 6.39697 0
M  V30 2259 H 213.12 3.89371 5.75687 0
M  V30 2260 H 216.311 2.37723 4.03244 0
M  V30 2261 H 216.484 3.50599 5.44962 0
M  V30 2262 N 209.89 -1.43072 0.660911 0
M  V30 2263 C 211.12 -2.05769 0.185153 0
M  V30 2264 C 211.528 -1.49668 -1.15742 0
M  V30 2265 O 210.871 -0.625649 -1.72717 0
M  V30 2266 C 210.933 -3.59489 0.0278237 0
M  V30 2267 C 210.597 -4.38212 1.2969 0
M  V30 2268 C 211.594 -4.69772 2.22734 0
M  V30 2269 C 209.279 -4.7809 1.54063 0
M  V30 2270 C 211.273 -5.40129 3.38437 0
M  V30 2271 C 208.96 -5.4819 2.70058 0
M  V30 2272 C 209.958 -5.79132 3.62071 0
M  V30 2273 O 209.646 -6.47798 4.76039 0
M  V30 2274 H 209.378 -0.669873 0.0908086 0
M  V30 2275 H 211.932 -1.84436 0.90402 0
M  V30 2276 H 210.162 -3.79426 -0.746489 0
M  V30 2277 H 211.851 -4.03862 -0.406275 0
M  V30 2278 H 212.617 -4.39476 2.05149 0
M  V30 2279 H 208.496 -4.53408 0.833215 0
M  V30 2280 H 212.04 -5.64198 4.10277 0
M  V30 2281 H 207.937 -5.77902 2.87574 0
M  V30 2282 H 208.705 -6.66283 4.75404 0
M  V30 2283 N 211.368 -0.403325 -1.52352 0
M  V30 2284 C 212.298 0.416205 -2.29761 0
M  V30 2285 C 213.279 1.05123 -1.33728 0
M  V30 2286 O 214.464 1.06134 -1.62632 0
M  V30 2287 C 211.594 1.53624 -3.11475 0
M  V30 2288 C 210.548 1.02653 -4.15507 0
M  V30 2289 C 209.874 2.23971 -4.85532 0
M  V30 2290 C 211.174 0.08463 -5.22231 0
M  V30 2291 H 212.868 -0.229701 -2.98518 0
M  V30 2292 H 210.414 -0.111913 -1.43564 0
M  V30 2293 H 212.367 2.1165 -3.64393 0
M  V30 2294 H 211.091 2.20994 -2.40477 0
M  V30 2295 H 209.75 0.46871 -3.63591 0
M  V30 2296 H 209.398 2.89883 -4.11068 0
M  V30 2297 H 209.098 1.90521 -5.55856 0
M  V30 2298 H 210.622 2.82614 -5.41259 0
M  V30 2299 H 212.036 0.573509 -5.70424 0
M  V30 2300 H 210.433 -0.160783 -5.99885 0
M  V30 2301 H 211.503 -0.86237 -4.7717 0
M  V30 2302 N 212.846 1.57033 -0.133567 0
M  V30 2303 C 213.796 2.12641 0.822671 0
M  V30 2304 C 214.78 1.05081 1.21847 0
M  V30 2305 O 215.972 1.31287 1.18713 0
M  V30 2306 C 213.101 2.74094 2.06706 0
M  V30 2307 C 212.187 3.88757 1.69497 0
M  V30 2308 N 212.578 4.95194 1.03037 0
M  V30 2309 C 210.876 3.99213 1.98859 0
M  V30 2310 C 211.577 5.75414 0.852873 0
M  V30 2311 N 210.553 5.25726 1.3825 0
M  V30 2312 H 214.355 2.92308 0.305537 0
M  V30 2313 H 211.869 1.62256 0.0684276 0
M  V30 2314 H 213.866 3.12285 2.76195 0
M  V30 2315 H 212.526 1.95896 2.5895 0
M  V30 2316 H 213.537 5.13247 0.692669 0
M  V30 2317 H 210.214 3.32075 2.53047 0
M  V30 2318 H 211.604 6.71089 0.330091 0
M  V30 2319 N 214.325 -0.140222 1.56975 0
M  V30 2320 C 215.275 -1.17827 1.95194 0
M  V30 2321 C 216.259 -1.38195 0.824075 0
M  V30 2322 O 217.451 -1.39643 1.0876 0
M  V30 2323 C 214.58 -2.51024 2.34184 0
M  V30 2324 C 213.666 -2.3422 3.53556 0
M  V30 2325 N 214.057 -1.87185 4.69889 0
M  V30 2326 C 212.355 -2.64949 3.58773 0
M  V30 2327 C 213.056 -1.83586 5.5197 0
M  V30 2328 N 212.032 -2.2715 4.93866 0
M  V30 2329 H 215.834 -0.806817 2.82609 0
M  V30 2330 H 213.348 -0.348208 1.58623 0
M  V30 2331 H 215.345 -3.26074 2.59772 0
M  V30 2332 H 214.005 -2.88945 1.48124 0
M  V30 2333 H 215.016 -1.57048 4.93514 0
M  V30 2334 H 211.693 -3.067 2.8327 0
M  V30 2335 H 213.083 -1.48655 6.55249 0
M  V30 2336 N 215.803 -1.52179 -0.40978 0
M  V30 2337 C 216.733 -1.78435 -1.5061 0
M  V30 2338 C 217.714 -0.635295 -1.57791 0
M  V30 2339 O 218.899 -0.880823 -1.73076 0
M  V30 2340 C 216.029 -1.93444 -2.88439 0
M  V30 2341 C 214.983 -3.09038 -2.96108 0
M  V30 2342 C 214.309 -3.09268 -4.36185 0
M  V30 2343 C 215.609 -4.48508 -2.67652 0
M  V30 2344 H 217.303 -2.70237 -1.28889 0
M  V30 2345 H 214.849 -1.30036 -0.618605 0
M  V30 2346 H 216.802 -2.10394 -3.65119 0
M  V30 2347 H 215.526 -0.983129 -3.11452 0
M  V30 2348 H 214.185 -2.91837 -2.21872 0
M  V30 2349 H 213.833 -2.11861 -4.56206 0
M  V30 2350 H 213.533 -3.86907 -4.42241 0
M  V30 2351 H 215.057 -3.28348 -5.14801 0
M  V30 2352 H 216.471 -4.65918 -3.34056 0
M  V30 2353 H 214.868 -5.28059 -2.85085 0
M  V30 2354 H 215.938 -4.56649 -1.63095 0
M  V30 2355 N 217.281 0.66697 -1.42791 0
M  V30 2356 C 218.529 1.42417 -1.43394 0
M  V30 2357 C 218.85 1.94925 -0.0542373 0
M  V30 2358 O 218.12 1.73564 0.908415 0
M  V30 2359 H 216.7 0.528515 -0.527902 0
M  V30 2360 H 219.362 0.787562 -1.78279 0
M  V30 2361 H 218.458 2.27333 -2.13837 0
M  V30 2362 N 218.759 1.29093 0.90403 0
M  V30 2363 C 219.984 1.19809 1.69294 0
M  V30 2364 C 220.409 -0.238481 1.86582 0
M  V30 2365 O 219.767 -1.1723 1.383 0
M  V30 2366 C 219.815 1.91202 3.05736 0
M  V30 2367 O 218.919 1.22611 3.93752 0
M  V30 2368 H 218.26 0.415385 0.518027 0
M  V30 2369 H 220.79 1.70586 1.12967 0
M  V30 2370 H 220.8 1.99487 3.55906 0
M  V30 2371 H 219.475 2.95692 2.92471 0
M  V30 2372 H 218.052 1.22554 3.52186 0
M  V30 2373 N 220.237 -1.11381 1.11499 0
M  V30 2374 C 221.169 -2.17207 0.731704 0
M  V30 2375 C 222.182 -1.61066 -0.236957 0
M  V30 2376 O 223.371 -1.78489 -0.0197591 0
M  V30 2377 C 220.471 -3.38846 0.0607624 0
M  V30 2378 C 219.644 -4.24451 1.0564 0
M  V30 2379 C 218.703 -5.24562 0.4149 0
M  V30 2380 O 217.729 -5.59071 1.069 0
M  V30 2381 N 218.931 -5.74651 -0.821943 0
M  V30 2382 H 221.696 -2.50699 1.64225 0
M  V30 2383 H 219.257 -1.26908 1.00529 0
M  V30 2384 H 221.249 -4.02911 -0.380139 0
M  V30 2385 H 219.819 -3.03411 -0.752376 0
M  V30 2386 H 219.039 -3.56833 1.67524 0
M  V30 2387 H 220.327 -4.78486 1.72998 0
M  V30 2388 H 219.725 -5.48797 -1.37252 0
M  V30 2389 H 218.282 -6.40549 -1.20582 0
M  V30 2390 N 221.715 -0.905404 -1.28997 0
M  V30 2391 C 223.126 -0.581953 -1.77398 0
M  V30 2392 C 223.477 0.902552 -1.74208 0
M  V30 2393 O 222.602 1.70584 -1.33154 0
M  V30 2394 C 223.197 -1.04961 -3.22131 0
M  V30 2395 C 221.756 -0.777229 -3.68288 0
M  V30 2396 C 220.903 -1.22109 -2.48967 0
M  V30 2397 H 223.854 -1.08754 -1.15578 0
M  V30 2398 H 223.875 -0.387387 -3.78523 0
M  V30 2399 H 223.387 -2.13008 -3.24421 0
M  V30 2400 H 221.488 0.290383 -3.71467 0
M  V30 2401 H 221.601 -1.37911 -4.58822 0
M  V30 2402 H 219.965 -0.639971 -2.46529 0
M  V30 2403 H 220.748 -2.30972 -2.53982 0
M  V30 2404 N 223.193 1.4272 -0.668489 0
M  V30 2405 C 224.156 2.292 0.00448567 0
M  V30 2406 C 225.156 1.43001 0.735339 0
M  V30 2407 O 226.346 1.64461 0.57429 0
M  V30 2408 C 223.478 3.25375 1.01705 0
M  V30 2409 H 224.671 2.90199 -0.756608 0
M  V30 2410 H 222.224 1.50254 -0.430506 0
M  V30 2411 H 222.959 2.69301 1.80686 0
M  V30 2412 H 222.744 3.88944 0.496463 0
M  V30 2413 H 224.234 3.90245 1.48655 0
M  V30 2414 N 224.671 0.411399 1.52136 0
M  V30 2415 C 225.917 -0.163888 2.02137 0
M  V30 2416 C 226.25 -1.44597 1.29636 0
M  V30 2417 O 225.525 -1.90272 0.403353 0
M  V30 2418 C 225.808 -0.40927 3.57767 0
M  V30 2419 C 225.661 0.889643 4.40914 0
M  V30 2420 C 226.98 -1.19042 4.23694 0
M  V30 2421 H 224.099 -0.0580896 0.734707 0
M  V30 2422 H 226.741 0.54531 1.82007 0
M  V30 2423 H 224.891 -1.0134 3.7505 0
M  V30 2424 H 226.563 1.52575 4.35337 0
M  V30 2425 H 224.806 1.50011 4.07037 0
M  V30 2426 H 225.477 0.672314 5.4789 0
M  V30 2427 H 227.953 -0.678942 4.10524 0
M  V30 2428 H 226.829 -1.33086 5.32522 0
M  V30 2429 H 227.09 -2.21166 3.82803 0
M  V30 2430 N 226.149 -1.5696 0.141893 0
M  V30 2431 C 227.565 -1.58151 -0.21456 0
M  V30 2432 C 227.765 -1.1559 -1.65049 0
M  V30 2433 O 226.821 -0.853832 -2.37626 0
M  V30 2434 C 228.134 -3.00674 0.0395576 0
M  V30 2435 C 229.682 -3.1299 -0.0245529 0
M  V30 2436 C 230.157 -4.57554 0.202167 0
M  V30 2437 N 231.648 -4.62961 0.148919 0
M  V30 2438 C 232.383 -5.7262 0.298924 0
M  V30 2439 N 231.879 -6.90947 0.50637 0
M  V30 2440 N 233.672 -5.61601 0.236886 0
M  V30 2441 H 225.823 -1.8292 1.07953 0
M  V30 2442 H 228.086 -0.846425 0.42693 0
M  V30 2443 H 227.792 -3.36183 1.03315 0
M  V30 2444 H 227.666 -3.70981 -0.682143 0
M  V30 2445 H 230.053 -2.77326 -1.00869 0
M  V30 2446 H 230.134 -2.4518 0.729396 0
M  V30 2447 H 229.778 -4.93922 1.18338 0
M  V30 2448 H 229.708 -5.23484 -0.572044 0
M  V30 2449 H 232.199 -3.77899 -0.00697015 0
M  V30 2450 H 232.512 -7.7038 0.611076 0
M  V30 2451 H 230.857 -6.92878 0.542628 0
M  V30 2452 H 234.048 -4.68039 0.0756209 0
M  V30 2453 H 234.221 -6.47015 0.357227 0
M  V30 2454 N 227.627 0.131896 -1.57047 0
M  V30 2455 C 229.043 0.485031 -1.52051 0
M  V30 2456 C 229.243 1.82563 -0.85281 0
M  V30 2457 O 228.299 2.48817 -0.429694 0
M  V30 2458 C 229.612 0.481409 -2.96821 0
M  V30 2459 C 231.16 0.565868 -3.07842 0
M  V30 2460 C 231.635 0.592762 -4.54148 0
M  V30 2461 N 233.126 0.654564 -4.58552 0
M  V30 2462 C 233.861 0.696608 -5.69153 0
M  V30 2463 N 233.357 0.697078 -6.89284 0
M  V30 2464 N 235.15 0.738639 -5.57226 0
M  V30 2465 H 227.301 -0.746664 -1.98843 0
M  V30 2466 H 229.564 -0.273999 -0.90754 0
M  V30 2467 H 229.27 -0.435731 -3.4899 0
M  V30 2468 H 229.144 1.3139 -3.53577 0
M  V30 2469 H 231.531 1.47343 -2.55684 0
M  V30 2470 H 231.612 -0.29406 -2.54104 0
M  V30 2471 H 231.256 -0.310701 -5.06949 0
M  V30 2472 H 231.186 1.46939 -5.05684 0
M  V30 2473 H 233.677 0.660887 -3.72076 0
M  V30 2474 H 233.99 0.731426 -7.69331 0
M  V30 2475 H 232.335 0.66471 -6.91814 0
M  V30 2476 H 235.526 0.735545 -4.62285 0
M  V30 2477 H 235.699 0.767938 -6.43434 0
M  V30 2478 N 229.106 1.52395 0.401703 0
M  V30 2479 C 230.069 1.75636 1.47257 0
M  V30 2480 C 231.069 0.62628 1.48103 0
M  V30 2481 O 232.259 0.894227 1.49497 0
M  V30 2482 C 229.391 1.84553 2.86624 0
M  V30 2483 H 230.584 2.71241 1.27938 0
M  V30 2484 H 228.137 1.42923 0.632662 0
M  V30 2485 H 228.872 0.908882 3.11303 0
M  V30 2486 H 228.657 2.66715 2.87412 0
M  V30 2487 H 230.147 2.04251 3.64241 0
M  V30 2488 N 230.584 -0.659388 1.43143 0
M  V30 2489 C 231.547 -1.75432 1.47501 0
M  V30 2490 C 232.547 -1.56707 0.360512 0
M  V30 2491 O 233.737 -1.62717 0.622002 0
M  V30 2492 C 230.869 -3.14239 1.32162 0
M  V30 2493 H 232.062 -1.7295 2.45006 0
M  V30 2494 H 229.615 -0.870469 1.29817 0
M  V30 2495 H 230.35 -3.22336 0.356401 0
M  V30 2496 H 230.135 -3.29235 2.12948 0
M  V30 2497 H 231.625 -3.94094 1.3813 0
M  V30 2498 N 232.062 -1.29571 -0.897171 0
M  V30 2499 C 232.992 -1.17473 -2.01798 0
M  V30 2500 C 233.973 -0.068323 -1.69963 0
M  V30 2501 O 235.158 -0.248239 -1.92607 0
M  V30 2502 C 232.288 -0.853099 -3.36659 0
M  V30 2503 C 231.242 -1.9161 -3.82713 0
M  V30 2504 C 230.568 -1.44773 -5.14728 0
M  V30 2505 C 231.868 -3.32535 -4.02763 0
M  V30 2506 H 233.562 -2.11237 -2.12177 0
M  V30 2507 H 231.108 -1.01699 -1.01948 0
M  V30 2508 H 233.061 -0.755165 -4.14578 0
M  V30 2509 H 231.785 0.120236 -3.26379 0
M  V30 2510 H 230.444 -2.00346 -3.07013 0
M  V30 2511 H 230.092 -0.462995 -5.00865 0
M  V30 2512 H 229.792 -2.15865 -5.46513 0
M  V30 2513 H 231.316 -1.36334 -5.95185 0
M  V30 2514 H 232.73 -3.26626 -4.71156 0
M  V30 2515 H 231.127 -4.01607 -4.45905 0
M  V30 2516 H 232.197 -3.75326 -3.07016 0
M  V30 2517 N 233.54 1.10788 -1.12088 0
M  V30 2518 C 234.473 2.16237 -0.729168 0
M  V30 2519 C 235.451 1.60207 0.277921 0
M  V30 2520 O 236.635 1.87707 0.172737 0
M  V30 2521 C 233.762 3.38609 -0.0786848 0
M  V30 2522 C 232.808 4.13322 -1.05201 0
M  V30 2523 S 233.641 4.69371 -2.57781 0
M  V30 2524 C 234.797 5.95058 -1.94053 0
M  V30 2525 H 235.03 2.4913 -1.62239 0
M  V30 2526 H 232.563 1.22519 -0.939603 0
M  V30 2527 H 234.521 4.09473 0.290254 0
M  V30 2528 H 233.182 3.03962 0.791593 0
M  V30 2529 H 232.375 5.01051 -0.544433 0
M  V30 2530 H 231.977 3.48251 -1.36371 0
M  V30 2531 H 234.269 6.65278 -1.28107 0
M  V30 2532 H 235.212 6.50472 -2.79807 0
M  V30 2533 H 235.62 5.46918 -1.39787 0
M  V30 2534 N 235.018 0.912232 1.28515 0
M  V30 2535 C 236.258 0.551677 1.96814 0
M  V30 2536 C 236.622 -0.887825 1.7024 0
M  V30 2537 O 237.823 -1.35588 2.32098 0
M  V30 2538 C 236.094 0.850555 3.47132 0
M  V30 2539 S 237.653 0.59619 4.34731 0
M  V30 2540 H 234.471 0.204191 0.681049 0
M  V30 2541 H 237.073 1.17736 1.56072 0
M  V30 2542 H 235.777 1.8962 3.63968 0
M  V30 2543 H 235.308 0.213471 3.9282 0
M  V30 2544 H 237.323 -0.553154 4.93107 0
M  V30 2545 N 236.496 -1.42363 0.676048 0
M  V30 2546 C 237.406 -2.346 -0.00153389 0
M  V30 2547 C 238.422 -1.5516 -0.787485 0
M  V30 2548 O 239.598 -1.87723 -0.729521 0
M  V30 2549 C 236.663 -3.33705 -0.940298 0
M  V30 2550 C 235.724 -4.29042 -0.148739 0
M  V30 2551 C 234.957 -5.23413 -1.04279 0
M  V30 2552 O 235.18 -5.22749 -2.28232 0
M  V30 2553 O 234.114 -5.99795 -0.502925 0
M  V30 2554 H 237.94 -2.94082 0.758268 0
M  V30 2555 H 235.525 -1.42888 0.436289 0
M  V30 2556 H 237.407 -3.94586 -1.47917 0
M  V30 2557 H 236.082 -2.76695 -1.67993 0
M  V30 2558 H 234.989 -3.71571 0.43427 0
M  V30 2559 H 236.322 -4.89097 0.551805 0
M  V30 2560 N 237.974 -0.419461 -1.51915 0
M  V30 2561 C 239.251 0.211999 -1.94448 0
M  V30 2562 C 239.631 1.61703 -1.35703 0
M  V30 2563 O 238.979 2.22102 -0.536931 0
M  V30 2564 C 239.189 0.207872 -3.4838 0
M  V30 2565 C 240.537 0.422192 -4.22496 0
M  V30 2566 O 241.561 0.286778 -3.55044 0
M  V30 2567 O 240.42 0.690009 -5.42126 0
M  V30 2568 H 237.514 0.139586 -0.815135 0
M  V30 2569 H 240.06 -0.476151 -1.62883 0
M  V30 2570 H 238.832 -0.775102 -3.83546 0
M  V30 2571 H 238.455 0.939688 -3.86336 0
M  V30 2572 N 239.452 1.56882 -0.150215 0
M  V30 2573 C 240.415 2.1573 0.774157 0
M  V30 2574 C 241.415 1.0999 1.17298 0
M  V30 2575 O 242.605 1.35613 1.09338 0
M  V30 2576 C 239.737 2.72302 2.05096 0
M  V30 2577 H 240.93 2.98752 0.262201 0
M  V30 2578 H 238.483 1.55985 0.099248 0
M  V30 2579 H 239.218 1.92956 2.6065 0
M  V30 2580 H 239.003 3.49665 1.77416 0
M  V30 2581 H 240.493 3.17632 2.71109 0
M  V30 2582 N 240.93 -0.123565 1.57115 0
M  V30 2583 C 241.86 -1.15309 2.03042 0
M  V30 2584 C 242.841 -1.43454 0.914061 0
M  V30 2585 O 244.026 -1.53973 1.18347 0
M  V30 2586 C 241.156 -2.48043 2.43089 0
M  V30 2587 C 240.11 -2.3437 3.58127 0
M  V30 2588 C 239.436 -3.72026 3.84059 0
M  V30 2589 C 240.736 -1.80804 4.90007 0
M  V30 2590 H 242.43 -0.771102 2.893 0
M  V30 2591 H 239.976 -0.369479 1.39179 0
M  V30 2592 H 241.929 -3.20311 2.73823 0
M  V30 2593 H 240.653 -2.88122 1.53796 0
M  V30 2594 H 239.312 -1.64551 3.27595 0
M  V30 2595 H 238.96 -4.09582 2.91979 0
M  V30 2596 H 238.66 -3.63732 4.6149 0
M  V30 2597 H 240.184 -4.45806 4.1724 0
M  V30 2598 H 241.598 -2.42886 5.19307 0
M  V30 2599 H 239.995 -1.83343 5.71407 0
M  V30 2600 H 241.065 -0.76528 4.78823 0
M  V30 2601 N 242.408 -1.52605 -0.393616 0
M  V30 2602 C 243.654 -1.67672 -1.14079 0
M  V30 2603 C 243.987 -0.413121 -1.89755 0
M  V30 2604 O 243.262 0.588952 -1.85369 0
M  V30 2605 C 243.545 -2.9088 -2.12276 0
M  V30 2606 C 243.398 -4.27329 -1.40394 0
M  V30 2607 C 244.717 -3.09628 -3.12759 0
M  V30 2608 H 241.836 -0.610168 -0.413356 0
M  V30 2609 H 244.478 -1.85193 -0.424696 0
M  V30 2610 H 242.628 -2.76073 -2.73342 0
M  V30 2611 H 244.3 -4.53894 -0.82327 0
M  V30 2612 H 242.543 -4.2802 -0.705801 0
M  V30 2613 H 243.214 -5.09615 -2.12123 0
M  V30 2614 H 245.69 -3.23436 -2.61779 0
M  V30 2615 H 244.566 -3.97322 -3.78717 0
M  V30 2616 H 244.827 -2.23637 -3.81365 0
M  V30 2617 N 243.887 0.651787 -1.4349 0
M  V30 2618 C 245.298 1.233 -1.40193 0
M  V30 2619 C 245.649 1.9591 -0.106727 0
M  V30 2620 O 244.774 2.01316 0.793773 0
M  V30 2621 C 245.369 2.24257 -2.53957 0
M  V30 2622 C 243.928 2.77852 -2.5392 0
M  V30 2623 C 243.075 1.52517 -2.3159 0
M  V30 2624 H 246.026 0.443717 -1.52371 0
M  V30 2625 H 246.047 3.0646 -2.25528 0
M  V30 2626 H 245.559 1.71382 -3.4821 0
M  V30 2627 H 243.66 3.34786 -1.63551 0
M  V30 2628 H 243.773 3.25299 -3.51735 0
M  V30 2629 H 242.137 1.79915 -1.80285 0
M  V30 2630 H 242.92 1.01574 -3.27929 0
M  V30 2631 N 245.365 1.30045 0.890287 0
M  V30 2632 C 246.612 1.18561 1.64163 0
M  V30 2633 C 246.94 -0.260852 1.92743 0
M  V30 2634 O 246.195 -1.20376 1.54299 0
M  V30 2635 C 246.494 1.95409 2.99249 0
M  V30 2636 C 246.16 3.45066 2.90242 0
M  V30 2637 C 244.822 3.85878 2.87492 0
M  V30 2638 C 247.174 4.4039 2.78758 0
M  V30 2639 C 244.502 5.20314 2.7109 0
M  V30 2640 C 246.854 5.74928 2.63894 0
M  V30 2641 C 245.518 6.14986 2.59516 0
M  V30 2642 H 244.788 0.433846 0.600715 0
M  V30 2643 H 247.435 1.61088 1.03552 0
M  V30 2644 H 245.74 1.45501 3.63781 0
M  V30 2645 H 247.437 1.8392 3.56334 0
M  V30 2646 H 244.027 3.12631 2.93189 0
M  V30 2647 H 248.211 4.09806 2.79952 0
M  V30 2648 H 243.467 5.50449 2.66112 0
M  V30 2649 H 247.641 6.48434 2.53981 0
M  V30 2650 H 245.268 7.19104 2.46565 0
M  V30 2651 N 246.843 -1.10192 1.12674 0
M  V30 2652 C 248.073 -1.85713 0.905213 0
M  V30 2653 C 248.481 -1.81056 -0.549108 0
M  V30 2654 O 247.824 -1.19927 -1.39151 0
M  V30 2655 C 247.886 -3.34972 1.30516 0
M  V30 2656 C 247.55 -3.63385 2.77129 0
M  V30 2657 C 248.547 -3.59772 3.75313 0
M  V30 2658 C 246.232 -3.91981 3.14096 0
M  V30 2659 C 248.226 -3.84354 5.08479 0
M  V30 2660 C 245.913 -4.16218 4.47443 0
M  V30 2661 C 246.911 -4.12395 5.44444 0
M  V30 2662 O 246.599 -4.36014 6.75387 0
M  V30 2663 H 246.331 -0.593719 0.323223 0
M  V30 2664 H 248.885 -1.40198 1.50112 0
M  V30 2665 H 247.115 -3.81156 0.652463 0
M  V30 2666 H 248.804 -3.91886 1.05736 0
M  V30 2667 H 249.57 -3.37716 3.48099 0
M  V30 2668 H 245.449 -3.94085 2.39202 0
M  V30 2669 H 248.993 -3.81285 5.84181 0
M  V30 2670 H 244.89 -4.37754 4.74386 0
M  V30 2671 H 245.658 -4.53516 6.8137 0
M  V30 2672 N 248.321 -0.919034 -1.28029 0
M  V30 2673 C 249.231 -0.416756 -2.30869 0
M  V30 2674 C 250.247 0.498235 -1.66714 0
M  V30 2675 O 251.423 0.383144 -1.97722 0
M  V30 2676 C 248.488 0.330274 -3.45123 0
M  V30 2677 C 247.549 -0.618578 -4.2482 0
M  V30 2678 C 246.782 0.0928959 -5.33619 0
M  V30 2679 O 247.005 1.31375 -5.55065 0
M  V30 2680 O 245.939 -0.574499 -5.99152 0
M  V30 2681 H 249.765 -1.27043 -2.75851 0
M  V30 2682 H 247.35 -0.684052 -1.3282 0
M  V30 2683 H 249.232 0.751972 -4.14636 0
M  V30 2684 H 247.907 1.1597 -3.02213 0
M  V30 2685 H 246.814 -1.08978 -3.57875 0
M  V30 2686 H 248.147 -1.41497 -4.71423 0
M  V30 2687 N 249.799 1.42003 -0.683588 0
M  V30 2688 C 251.215 1.55625 -0.353976 0
M  V30 2689 C 251.415 1.66151 1.14 0
M  V30 2690 O 250.471 1.63329 1.92561 0
M  V30 2691 C 251.784 2.80171 -1.092 0
M  V30 2692 C 253.332 2.93954 -1.07518 0
M  V30 2693 C 253.807 4.21372 -1.79471 0
M  V30 2694 N 255.298 4.28303 -1.76381 0
M  V30 2695 C 256.033 5.25729 -2.28904 0
M  V30 2696 N 255.529 6.29254 -2.89846 0
M  V30 2697 N 257.322 5.17586 -2.19228 0
M  V30 2698 H 249.473 1.33415 -1.6527 0
M  V30 2699 H 251.736 0.64282 -0.696769 0
M  V30 2700 H 251.442 2.78561 -2.14701 0
M  V30 2701 H 251.316 3.7133 -0.662862 0
M  V30 2702 H 253.703 2.95086 -0.028475 0
M  V30 2703 H 253.784 2.04002 -1.54328 0
M  V30 2704 H 253.428 4.21001 -2.84114 0
M  V30 2705 H 253.358 5.10275 -1.30104 0
M  V30 2706 H 255.849 3.54119 -1.31939 0
M  V30 2707 H 256.162 6.99964 -3.27522 0
M  V30 2708 H 254.507 6.29791 -2.93919 0
M  V30 2709 H 257.698 4.35631 -1.71299 0
M  V30 2710 H 257.871 5.93348 -2.60466 0
M  V30 2711 N 251.277 0.427512 1.51691 0
M  V30 2712 C 252.524 -0.142229 2.02 0
M  V30 2713 C 252.852 -1.43566 1.31221 0
M  V30 2714 O 252.107 -1.91298 0.412744 0
M  V30 2715 C 252.406 -0.418249 3.54944 0
M  V30 2716 C 252.072 0.788187 4.43958 0
M  V30 2717 C 250.734 1.11906 4.68007 0
M  V30 2718 C 253.086 1.59347 4.96244 0
M  V30 2719 C 250.414 2.25608 5.41588 0
M  V30 2720 C 252.766 2.7214 5.71072 0
M  V30 2721 C 251.43 3.05692 5.93387 0
M  V30 2722 H 250.7 -0.0520451 0.73917 0
M  V30 2723 H 253.347 0.572697 1.82736 0
M  V30 2724 H 251.652 -1.21496 3.72486 0
M  V30 2725 H 253.349 -0.872339 3.91397 0
M  V30 2726 H 249.939 0.520344 4.2543 0
M  V30 2727 H 254.123 1.35106 4.77556 0
M  V30 2728 H 249.379 2.51929 5.57083 0
M  V30 2729 H 253.553 3.34914 6.10578 0
M  V30 2730 H 251.18 3.9391 6.50184 0
M  V30 2731 N 252.755 -1.56801 0.158532 0
M  V30 2732 C 253.98 -2.01295 -0.499516 0
M  V30 2733 C 254.405 -1.03799 -1.56867 0
M  V30 2734 O 253.763 -0.0155162 -1.81293 0
M  V30 2735 C 253.811 -3.44469 -1.06647 0
M  V30 2736 O 252.915 -3.50012 -2.18095 0
M  V30 2737 H 252.256 -0.652884 -0.12099 0
M  V30 2738 H 254.786 -2.02958 0.258661 0
M  V30 2739 H 254.796 -3.8351 -1.39227 0
M  V30 2740 H 253.471 -4.14932 -0.283581 0
M  V30 2741 H 252.048 -3.22822 -1.86656 0
M  V30 2742 N 254.233 0.115231 -1.57178 0
M  V30 2743 C 255.48 0.822351 -1.8505 0
M  V30 2744 C 255.808 1.79701 -0.744168 0
M  V30 2745 O 255.063 1.93909 0.26414 0
M  V30 2746 C 255.362 1.60324 -3.19423 0
M  V30 2747 C 255.028 0.772536 -4.44233 0
M  V30 2748 C 253.69 0.543468 -4.78121 0
M  V30 2749 C 256.042 0.193746 -5.2084 0
M  V30 2750 C 253.37 -0.274583 -5.86057 0
M  V30 2751 C 255.722 -0.611517 -6.29637 0
M  V30 2752 C 254.386 -0.850867 -6.62055 0
M  V30 2753 H 253.656 0.30092 -0.677147 0
M  V30 2754 H 256.303 0.0845802 -1.91313 0
M  V30 2755 H 254.608 2.41203 -3.08753 0
M  V30 2756 H 256.305 2.1544 -3.38211 0
M  V30 2757 H 252.895 0.96117 -4.17683 0
M  V30 2758 H 257.079 0.357926 -4.95008 0
M  V30 2759 H 252.335 -0.469206 -6.09597 0
M  V30 2760 H 256.509 -1.06697 -6.88178 0
M  V30 2761 H 254.136 -1.48657 -7.45523 0
M  V30 2762 N 255.711 1.52812 0.385517 0
M  V30 2763 C 256.661 1.74219 1.47078 0
M  V30 2764 C 257.645 0.59632 1.49442 0
M  V30 2765 O 258.837 0.85428 1.5502 0
M  V30 2766 C 255.966 1.9176 2.84751 0
M  V30 2767 C 255.052 3.12289 2.86943 0
M  V30 2768 N 255.443 4.34575 2.58802 0
M  V30 2769 C 253.741 3.12605 3.1811 0
M  V30 2770 C 254.442 5.162 2.68166 0
M  V30 2771 N 253.418 4.51964 3.02043 0
M  V30 2772 H 257.22 2.6639 1.24152 0
M  V30 2773 H 254.734 1.51166 0.593504 0
M  V30 2774 H 256.731 2.05218 3.62893 0
M  V30 2775 H 255.391 1.00805 3.08656 0
M  V30 2776 H 256.402 4.62649 2.32759 0
M  V30 2777 H 253.079 2.31472 3.47458 0
M  V30 2778 H 254.469 6.23689 2.49923 0
M  V30 2779 N 257.189 -0.644168 1.43834 0
M  V30 2780 C 258.152 -1.73857 1.49353 0
M  V30 2781 C 259.152 -1.56315 0.377112 0
M  V30 2782 O 260.342 -1.62048 0.639226 0
M  V30 2783 C 257.474 -3.12819 1.35488 0
M  V30 2784 H 258.667 -1.70342 2.46827 0
M  V30 2785 H 256.22 -0.856652 1.30733 0
M  V30 2786 H 256.955 -3.2194 0.390569 0
M  V30 2787 H 256.74 -3.26958 2.16428 0
M  V30 2788 H 258.23 -3.92606 1.42302 0
M  V30 2789 N 258.668 -1.30515 -0.883378 0
M  V30 2790 C 259.914 -1.19607 -1.63774 0
M  V30 2791 C 260.247 0.248314 -1.92606 0
M  V30 2792 O 259.522 1.17742 -1.54813 0
M  V30 2793 C 259.805 -2.02669 -2.97653 0
M  V30 2794 C 259.658 -3.55335 -2.75784 0
M  V30 2795 C 260.977 -1.86573 -3.98596 0
M  V30 2796 H 258.096 -0.435856 -0.594305 0
M  V30 2797 H 260.738 -1.60165 -1.02212 0
M  V30 2798 H 258.888 -1.68208 -3.50197 0
M  V30 2799 H 260.56 -3.99863 -2.30016 0
M  V30 2800 H 258.803 -3.79438 -2.1026 0
M  V30 2801 H 259.474 -4.08745 -3.70988 0
M  V30 2802 H 261.95 -2.16703 -3.55217 0
M  V30 2803 H 260.826 -2.47014 -4.90179 0
M  V30 2804 H 261.087 -0.825321 -4.34328 0
M  V30 2805 N 260.146 1.09593 -1.13257 0
M  V30 2806 C 261.394 1.81375 -0.891492 0
M  V30 2807 C 261.715 1.86049 0.584009 0
M  V30 2808 O 260.985 1.34481 1.42449 0
M  V30 2809 H 259.565 0.671708 -0.326828 0
M  V30 2810 H 262.227 1.3256 -1.42877 0
M  V30 2811 H 261.323 2.84612 -1.28071 0
M  V30 2812 N 261.624 0.925811 1.2754 0
M  V30 2813 C 263.035 0.610102 1.7645 0
M  V30 2814 C 263.386 -0.874723 1.75622 0
M  V30 2815 O 262.511 -1.68444 1.35851 0
M  V30 2816 C 263.106 1.10073 3.20421 0
M  V30 2817 C 261.665 0.835723 3.67005 0
M  V30 2818 C 260.812 1.26054 2.46993 0
M  V30 2819 H 263.763 1.10579 1.13833 0
M  V30 2820 H 263.784 0.447557 3.77859 0
M  V30 2821 H 263.296 2.18143 3.20991 0
M  V30 2822 H 261.397 -0.231249 3.71882 0
M  V30 2823 H 261.51 1.45193 4.56569 0
M  V30 2824 H 259.874 0.679111 2.45479 0
M  V30 2825 H 260.657 2.34984 2.50275 0
M  V30 2826 N 263.102 -1.41638 0.69111 0
M  V30 2827 C 264.342 -2.03166 0.224291 0
M  V30 2828 C 264.706 -1.53537 -1.15284 0
M  V30 2829 O 265.907 -2.0696 -1.71525 0
M  V30 2830 C 264.178 -3.56342 0.274758 0
M  V30 2831 S 265.737 -4.3864 -0.118669 0
M  V30 2832 H 262.555 -0.705188 0.0907263 0
M  V30 2833 H 265.157 -1.7314 0.907895 0
M  V30 2834 H 263.861 -3.89958 1.2791 0
M  V30 2835 H 263.392 -3.91063 -0.428142 0
M  V30 2836 H 265.407 -4.77549 -1.34764 0
M  V30 2837 N 264.58 -0.43555 -1.51462 0
M  V30 2838 C 265.543 0.365137 -2.26273 0
M  V30 2839 C 266.543 0.951227 -1.29647 0
M  V30 2840 O 267.733 0.825958 -1.53374 0
M  V30 2841 C 264.865 1.51645 -3.05314 0
M  V30 2842 H 266.058 -0.290474 -2.9849 0
M  V30 2843 H 263.611 -0.188676 -1.55157 0
M  V30 2844 H 264.346 2.20816 -2.3751 0
M  V30 2845 H 264.131 1.10238 -3.76284 0
M  V30 2846 H 265.621 2.08218 -3.61987 0
M  V30 2847 N 266.058 1.56714 -0.166846 0
M  V30 2848 C 267.307 1.95922 0.479318 0
M  V30 2849 C 267.62 1.05529 1.6469 0
M  V30 2850 O 268.826 1.34399 2.35901 0
M  V30 2851 C 267.282 3.48359 0.90412 0
M  V30 2852 C 266.89 4.47369 -0.237621 0
M  V30 2853 C 268.634 3.96394 1.51896 0
M  V30 2854 C 266.541 5.91039 0.206561 0
M  V30 2855 H 265.471 0.731495 0.18284 0
M  V30 2856 H 268.122 1.81728 -0.254363 0
M  V30 2857 H 266.504 3.57955 1.69365 0
M  V30 2858 H 267.678 4.49485 -1.01489 0
M  V30 2859 H 265.993 4.09366 -0.762128 0
M  V30 2860 H 268.59 5.01186 1.86325 0
M  V30 2861 H 268.933 3.39075 2.41524 0
M  V30 2862 H 269.466 3.89796 0.79395 0
M  V30 2863 H 266.205 6.52221 -0.654834 0
M  V30 2864 H 265.725 5.9224 0.949282 0
M  V30 2865 H 267.404 6.43707 0.651939 0
M  V30 2866 N 267.536 -0.106894 1.57237 0
M  V30 2867 C 268.764 -0.826389 1.8968 0
M  V30 2868 C 269.179 -1.72856 0.759353 0
M  V30 2869 O 268.536 -1.80503 -0.269263 0
M  V30 2870 C 268.587 -1.64967 3.21665 0
M  V30 2871 O 268.308 -0.783804 4.31031 0
M  V30 2872 C 269.809 -2.47326 3.67892 0
M  V30 2873 H 267.029 -0.236927 0.627779 0
M  V30 2874 H 269.573 -0.0876593 2.04312 0
M  V30 2875 H 267.728 -2.34103 3.08666 0
M  V30 2876 H 268.142 -1.35284 5.06753 0
M  V30 2877 H 269.616 -3.00604 4.6297 0
M  V30 2878 H 270.093 -3.25247 2.95146 0
M  V30 2879 H 270.699 -1.83411 3.83719 0
M  V30 2880 N 269.014 -1.53014 -0.377408 0
M  V30 2881 C 270.26 -1.68872 -1.12294 0
M  V30 2882 C 270.593 -0.433224 -1.89306 0
M  V30 2883 O 269.868 0.569258 -1.85983 0
M  V30 2884 C 270.151 -2.93115 -2.09179 0
M  V30 2885 C 270.004 -4.28794 -1.35853 0
M  V30 2886 C 271.323 -3.12928 -3.09458 0
M  V30 2887 H 268.442 -0.614518 -0.406862 0
M  V30 2888 H 271.084 -1.85633 -0.40503 0
M  V30 2889 H 269.234 -2.78956 -2.70399 0
M  V30 2890 H 270.906 -4.54742 -0.775082 0
M  V30 2891 H 269.149 -4.28744 -0.660364 0
M  V30 2892 H 269.82 -5.11837 -2.06706 0
M  V30 2893 H 272.296 -3.26194 -2.58334 0
M  V30 2894 H 271.172 -4.01316 -3.74482 0
M  V30 2895 H 271.433 -2.27669 -3.78971 0
M  V30 2896 N 270.492 0.636531 -1.44174 0
M  V30 2897 C 271.74 1.39343 -1.46383 0
M  V30 2898 C 272.061 1.94766 -0.0955715 0
M  V30 2899 O 271.331 1.75452 0.871395 0
M  V30 2900 H 269.911 0.517199 -0.538994 0
M  V30 2901 H 272.573 0.74957 -1.7991 0
M  V30 2902 H 271.669 2.22746 -2.18611 0
M  V30 2903 N 271.97 1.30982 0.876444 0
M  V30 2904 C 273.195 1.23373 1.66715 0
M  V30 2905 C 273.62 -0.19885 1.87046 0
M  V30 2906 O 272.978 -1.1427 1.40756 0
M  V30 2907 C 273.026 1.97644 3.01611 0
M  V30 2908 O 272.13 1.30935 3.91062 0
M  V30 2909 H 271.471 0.426279 0.509099 0
M  V30 2910 H 274.001 1.72944 1.09323 0
M  V30 2911 H 274.011 2.06992 3.51594 0
M  V30 2912 H 272.686 3.01829 2.86133 0
M  V30 2913 H 271.263 1.29996 3.49507 0
M  V30 2914 N 273.449 -1.08991 1.13837 0
M  V30 2915 C 274.379 -2.17771 0.842507 0
M  V30 2916 C 275.36 -1.6892 -0.20001 0
M  V30 2917 O 276.545 -1.94113 -0.0579731 0
M  V30 2918 C 273.675 -3.4589 0.312644 0
M  V30 2919 C 272.629 -4.08099 1.28992 0
M  V30 2920 C 271.955 -5.31098 0.619623 0
M  V30 2921 C 273.255 -4.50077 2.65005 0
M  V30 2922 H 274.949 -2.42777 1.75213 0
M  V30 2923 H 272.495 -1.16682 0.843875 0
M  V30 2924 H 274.448 -4.21297 0.0933043 0
M  V30 2925 H 273.172 -3.20419 -0.632382 0
M  V30 2926 H 271.831 -3.34717 1.49533 0
M  V30 2927 H 271.479 -5.0191 -0.33102 0
M  V30 2928 H 271.179 -5.73674 1.27167 0
M  V30 2929 H 272.703 -6.09224 0.409669 0
M  V30 2930 H 274.117 -5.16688 2.48407 0
M  V30 2931 H 272.514 -5.03553 3.26427 0
M  V30 2932 H 273.584 -3.62257 3.22332 0
M  V30 2933 N 274.927 -0.932562 -1.27047 0
M  V30 2934 C 276.155 -0.592031 -1.98249 0
M  V30 2935 C 276.57 0.831062 -1.69525 0
M  V30 2936 O 275.927 1.55299 -0.958561 0
M  V30 2937 C 275.978 -0.814279 -3.5221 0
M  V30 2938 O 275.699 -2.18139 -3.7993 0
M  V30 2939 C 277.2 -0.483121 -4.4066 0
M  V30 2940 H 274.42 -0.223896 -0.632544 0
M  V30 2941 H 276.964 -1.25091 -1.61779 0
M  V30 2942 H 275.119 -0.20213 -3.86872 0
M  V30 2943 H 275.533 -2.235 -4.74498 0
M  V30 2944 H 277.007 -0.689298 -5.47679 0
M  V30 2945 H 277.484 0.581546 -4.35333 0
M  V30 2946 H 278.09 -1.07362 -4.11526 0
M  V30 2947 N 276.405 1.4127 -0.698611 0
M  V30 2948 C 277.652 2.0118 -0.230865 0
M  V30 2949 C 277.98 1.55338 1.17049 0
M  V30 2950 O 277.235 0.756775 1.80475 0
M  V30 2951 C 277.534 3.56592 -0.240192 0
M  V30 2952 C 277.2 4.21955 -1.58948 0
M  V30 2953 C 275.862 4.39524 -1.95887 0
M  V30 2954 C 278.214 4.58576 -2.47704 0
M  V30 2955 C 275.542 4.90992 -3.2116 0
M  V30 2956 C 277.894 5.11435 -3.72313 0
M  V30 2957 C 276.558 5.27215 -4.0939 0
M  V30 2958 H 275.828 0.736169 -0.0844796 0
M  V30 2959 H 278.475 1.69124 -0.8983 0
M  V30 2960 H 276.78 3.88456 0.510797 0
M  V30 2961 H 278.477 4.00758 0.139296 0
M  V30 2962 H 275.067 4.08657 -1.29219 0
M  V30 2963 H 279.251 4.44654 -2.20445 0
M  V30 2964 H 274.507 5.01393 -3.49878 0
M  V30 2965 H 278.681 5.38752 -4.4127 0
M  V30 2966 H 276.308 5.66859 -5.06533 0
M  V30 2967 N 277.883 0.443576 1.51229 0
M  V30 2968 C 278.816 -0.410089 2.24485 0
M  V30 2969 C 279.794 -1.01949 1.26669 0
M  V30 2970 O 280.978 -1.06075 1.55821 0
M  V30 2971 C 278.105 -1.57211 3.00004 0
M  V30 2972 C 277.151 -1.08279 4.12526 0
M  V30 2973 S 277.984 -0.0197476 5.35496 0
M  V30 2974 C 279.14 -1.18629 6.14555 0
M  V30 2975 H 279.373 0.211832 2.96544 0
M  V30 2976 H 276.906 0.228156 1.52705 0
M  V30 2977 H 278.864 -2.23825 3.44111 0
M  V30 2978 H 277.525 -2.16547 2.27522 0
M  V30 2979 H 276.718 -1.95193 4.64667 0
M  V30 2980 H 276.32 -0.494797 3.70713 0
M  V30 2981 H 278.612 -2.10344 6.4402 0
M  V30 2982 H 279.555 -0.70472 7.04584 0
M  V30 2983 H 279.963 -1.42768 5.46148 0
M  V30 2984 N 279.361 -1.56624 0.175154 0
M  V30 2985 C 280.271 -2.21741 -0.766042 0
M  V30 2986 C 281.287 -1.21023 -1.25018 0
M  V30 2987 O 282.463 -1.53697 -1.3015 0
M  V30 2988 C 279.528 -2.84839 -1.97655 0
M  V30 2989 C 278.589 -4.00769 -1.53892 0
M  V30 2990 C 277.822 -4.60849 -2.69173 0
M  V30 2991 O 278.045 -4.19823 -3.86141 0
M  V30 2992 O 276.979 -5.50655 -2.43028 0
M  V30 2993 H 280.805 -3.02738 -0.241585 0
M  V30 2994 H 278.39 -1.49305 -0.053222 0
M  V30 2995 H 280.272 -3.24834 -2.68442 0
M  V30 2996 H 278.947 -2.06836 -2.48999 0
M  V30 2997 H 277.854 -3.65436 -0.80044 0
M  V30 2998 H 279.187 -4.80376 -1.07236 0
M  V30 2999 N 280.839 0.0985539 -1.57292 0
M  V30 3000 C 281.769 1.12064 -2.04851 0
M  V30 3001 C 282.75 1.41981 -0.936767 0
M  V30 3002 O 283.935 1.52071 -1.20781 0
M  V30 3003 C 281.065 2.44144 -2.47004 0
M  V30 3004 C 280.019 2.28643 -3.6181 0
M  V30 3005 C 279.345 3.65869 -3.89929 0
M  V30 3006 C 280.645 1.72986 -4.92822 0
M  V30 3007 H 282.339 0.724979 -2.9049 0
M  V30 3008 H 279.885 0.34729 -1.39749 0
M  V30 3009 H 281.838 3.15914 -2.78884 0
M  V30 3010 H 280.562 2.85639 -1.5836 0
M  V30 3011 H 279.221 1.59318 -3.30172 0
M  V30 3012 H 278.869 4.04885 -2.98458 0
M  V30 3013 H 278.569 3.56344 -4.67218 0
M  V30 3014 H 280.093 4.39112 -4.2428 0
M  V30 3015 H 281.507 2.34593 -5.23105 0
M  V30 3016 H 279.904 1.74229 -5.74251 0
M  V30 3017 H 280.974 0.689007 -4.7998 0
M  V30 3018 N 282.317 1.53212 0.369288 0
M  V30 3019 C 283.267 1.75769 1.45222 0
M  V30 3020 C 284.251 0.612136 1.48801 0
M  V30 3021 O 285.443 0.870674 1.54105 0
M  V30 3022 C 282.572 1.94769 2.82701 0
M  V30 3023 C 281.658 3.15315 2.83615 0
M  V30 3024 N 282.049 4.37295 2.54178 0
M  V30 3025 C 280.347 3.15962 3.14776 0
M  V30 3026 C 281.048 5.19015 2.62675 0
M  V30 3027 N 280.024 4.55142 2.97232 0
M  V30 3028 H 283.826 2.67691 1.2132 0
M  V30 3029 H 281.34 1.51787 0.577438 0
M  V30 3030 H 283.337 2.09056 3.60696 0
M  V30 3031 H 281.997 1.04073 3.07569 0
M  V30 3032 H 283.008 4.65091 2.27839 0
M  V30 3033 H 279.685 2.35144 3.44983 0
M  V30 3034 H 281.075 6.26305 2.43294 0
M  V30 3035 N 283.795 -0.628877 1.44509 0
M  V30 3036 C 285.035 -1.39993 1.48934 0
M  V30 3037 C 285.399 -1.91627 0.119604 0
M  V30 3038 O 286.6 -2.68772 0.0385283 0
M  V30 3039 C 284.871 -2.53241 2.52198 0
M  V30 3040 S 286.43 -3.41383 2.75687 0
M  V30 3041 H 283.248 -0.477558 0.526744 0
M  V30 3042 H 285.85 -0.727804 1.81448 0
M  V30 3043 H 284.554 -2.13622 3.50419 0
M  V30 3044 H 284.085 -3.25278 2.21264 0
M  V30 3045 H 286.1 -4.50752 2.07453 0
M  V30 3046 N 285.273 -1.31445 -0.869486 0
M  V30 3047 C 286.498 -1.24256 -1.66058 0
M  V30 3048 C 286.923 0.188928 -1.87149 0
M  V30 3049 O 286.281 1.13522 -1.4136 0
M  V30 3050 C 286.329 -1.9924 -3.00559 0
M  V30 3051 O 285.433 -1.33007 -3.90362 0
M  V30 3052 H 284.774 -0.428973 -0.506831 0
M  V30 3053 H 287.304 -1.73521 -1.08404 0
M  V30 3054 H 287.314 -2.08854 -3.50491 0
M  V30 3055 H 285.989 -3.03342 -2.84528 0
M  V30 3056 H 284.566 -1.31848 -3.48813 0
M  V30 3057 N 286.751 1.08385 -1.14413 0
M  V30 3058 C 287.681 2.17321 -0.854044 0
M  V30 3059 C 288.662 1.69024 0.191049 0
M  V30 3060 O 289.847 1.94141 0.0476779 0
M  V30 3061 C 286.977 3.45719 -0.330983 0
M  V30 3062 C 285.931 4.07409 -1.31155 0
M  V30 3063 C 285.257 5.30762 -0.64778 0
M  V30 3064 C 286.557 4.48665 -2.67388 0
M  V30 3065 H 288.251 2.41845 -1.76498 0
M  V30 3066 H 285.797 1.16233 -0.850051 0
M  V30 3067 H 287.75 4.21241 -0.115645 0
M  V30 3068 H 286.474 3.2075 0.615381 0
M  V30 3069 H 285.133 3.33919 -1.51306 0
M  V30 3070 H 284.781 5.02078 0.304398 0
M  V30 3071 H 284.481 5.72992 -1.30207 0
M  V30 3072 H 286.005 6.08998 -0.441972 0
M  V30 3073 H 287.419 5.15364 -2.51143 0
M  V30 3074 H 285.816 5.01814 -3.29093 0
M  V30 3075 H 286.886 3.60543 -3.24248 0
M  V30 3076 N 288.23 0.939286 1.26551 0
M  V30 3077 C 289.646 0.641304 1.46149 0
M  V30 3078 C 289.846 -0.805964 1.84679 0
M  V30 3079 O 288.902 -1.58278 1.96734 0
M  V30 3080 C 290.215 1.6011 2.54529 0
M  V30 3081 C 291.763 1.6106 2.68382 0
M  V30 3082 C 292.238 2.55765 3.79932 0
M  V30 3083 N 293.729 2.5404 3.87322 0
M  V30 3084 C 294.464 3.24004 4.73085 0
M  V30 3085 N 293.96 4.03388 5.63249 0
M  V30 3086 N 295.753 3.12965 4.66914 0
M  V30 3087 H 287.904 1.87478 0.998285 0
M  V30 3088 H 290.167 0.805559 0.499779 0
M  V30 3089 H 289.873 2.63412 2.33039 0
M  V30 3090 H 289.747 1.35171 3.52149 0
M  V30 3091 H 292.134 0.584835 2.89247 0
M  V30 3092 H 292.215 1.90053 1.71212 0
M  V30 3093 H 291.859 3.58458 3.5982 0
M  V30 3094 H 291.789 2.24063 4.76554 0
M  V30 3095 H 294.28 1.96396 3.22858 0
M  V30 3096 H 294.593 4.5373 6.25579 0
M  V30 3097 H 292.938 4.07489 5.63008 0
M  V30 3098 H 296.129 2.50432 3.95476 0
M  V30 3099 H 296.302 3.67759 5.33533 0
M  V30 3100 N 289.708 -1.40897 0.706093 0
M  V30 3101 C 290.956 -2.00657 0.241054 0
M  V30 3102 C 291.277 -1.56241 -1.16678 0
M  V30 3103 O 290.547 -0.79765 -1.78926 0
M  V30 3104 H 289.127 -0.742018 0.0861308 0
M  V30 3105 H 291.789 -1.72372 0.909604 0
M  V30 3106 H 290.885 -3.10958 0.266705 0
M  V30 3107 N 291.186 -0.45159 -1.50991 0
M  V30 3108 C 292.136 0.370861 -2.24964 0
M  V30 3109 C 293.12 0.978074 -1.2776 0
M  V30 3110 O 294.312 0.893854 -1.52772 0
M  V30 3111 C 291.441 1.46344 -3.10545 0
M  V30 3112 C 290.527 0.864924 -4.15187 0
M  V30 3113 N 290.918 -0.00311354 -5.058 0
M  V30 3114 C 289.216 1.13099 -4.31422 0
M  V30 3115 C 289.917 -0.340772 -5.80701 0
M  V30 3116 N 288.893 0.279203 -5.42883 0
M  V30 3117 H 292.695 -0.298134 -2.92384 0
M  V30 3118 H 290.209 -0.264528 -1.60231 0
M  V30 3119 H 292.206 2.06565 -3.62128 0
M  V30 3120 H 290.866 2.13463 -2.4467 0
M  V30 3121 H 291.877 -0.37058 -5.16572 0
M  V30 3122 H 288.554 1.79861 -3.76771 0
M  V30 3123 H 289.944 -1.048 -6.63677 0
M  V30 3124 N 292.664 1.56529 -0.183458 0
M  V30 3125 C 294.075 1.83739 0.331177 0
M  V30 3126 C 294.426 1.10373 1.62211 0
M  V30 3127 O 293.551 0.36071 2.13373 0
M  V30 3128 C 294.146 3.33306 0.607646 0
M  V30 3129 C 292.705 3.60969 1.06668 0
M  V30 3130 C 291.852 2.77086 0.109029 0
M  V30 3131 H 294.803 1.53379 -0.407484 0
M  V30 3132 H 294.824 3.51444 1.45832 0
M  V30 3133 H 294.336 3.86677 -0.332086 0
M  V30 3134 H 292.437 3.13021 2.0211 0
M  V30 3135 H 292.55 4.69231 0.967447 0
M  V30 3136 H 290.914 2.47319 0.608714 0
M  V30 3137 H 291.697 3.33241 -0.82494 0
M  V30 3138 N 294.142 -0.090211 1.57342 0
M  V30 3139 C 295.389 -0.792807 1.86335 0
M  V30 3140 C 295.717 -1.78494 0.772662 0
M  V30 3141 O 294.972 -1.94305 -0.233258 0
M  V30 3142 C 295.271 -1.55222 3.21933 0
M  V30 3143 C 294.937 -0.701765 4.45406 0
M  V30 3144 C 293.599 -0.467334 4.78925 0
M  V30 3145 C 295.951 -0.11086 5.21082 0
M  V30 3146 C 293.279 0.367785 5.85546 0
M  V30 3147 C 295.631 0.711609 6.28585 0
M  V30 3148 C 294.295 0.956086 6.60617 0
M  V30 3149 H 293.565 -0.290109 0.681849 0
M  V30 3150 H 296.212 -0.0541332 1.91423 0
M  V30 3151 H 294.517 -2.3626 3.12551 0
M  V30 3152 H 296.214 -2.10032 3.41595 0
M  V30 3153 H 292.804 -0.894598 4.1916 0
M  V30 3154 H 296.988 -0.279129 4.95514 0
M  V30 3155 H 292.244 0.566128 6.08773 0
M  V30 3156 H 296.418 1.17632 6.86393 0
M  V30 3157 H 294.045 1.60499 7.43064 0
M  V30 3158 N 295.62 -1.53406 -0.361157 0
M  V30 3159 C 296.55 -1.83136 -1.44857 0
M  V30 3160 C 297.531 -0.685174 -1.5569 0
M  V30 3161 O 298.716 -0.93544 -1.70186 0
M  V30 3162 C 295.846 -2.02522 -2.82138 0
M  V30 3163 C 294.8 -3.18302 -2.86126 0
M  V30 3164 C 294.126 -3.22989 -4.26125 0
M  V30 3165 C 295.426 -4.56796 -2.53248 0
M  V30 3166 H 297.12 -2.74201 -1.20226 0
M  V30 3167 H 294.666 -1.31938 -0.576922 0
M  V30 3168 H 296.619 -2.21904 -3.58241 0
M  V30 3169 H 295.343 -1.08172 -3.08166 0
M  V30 3170 H 294.002 -2.98747 -2.12475 0
M  V30 3171 H 293.65 -2.26267 -4.49235 0
M  V30 3172 H 293.35 -4.00781 -4.29708 0
M  V30 3173 H 294.874 -3.44559 -5.04094 0
M  V30 3174 H 296.288 -4.7631 -3.19064 0
M  V30 3175 H 294.685 -5.36862 -2.68141 0
M  V30 3176 H 295.755 -4.61606 -1.48484 0
M  V30 3177 N 297.098 0.621204 -1.44841 0
M  V30 3178 C 298.514 0.94048 -1.28946 0
M  V30 3179 C 298.714 2.00154 -0.23249 0
M  V30 3180 O 297.77 2.49651 0.378237 0
M  V30 3181 C 299.083 1.39433 -2.66419 0
M  V30 3182 C 300.631 1.50927 -2.74208 0
M  V30 3183 C 301.106 1.99692 -4.12174 0
M  V30 3184 N 302.597 2.06947 -4.144 0
M  V30 3185 C 303.332 2.45871 -5.1801 0
M  V30 3186 N 302.828 2.83862 -6.31977 0
M  V30 3187 N 304.621 2.46092 -5.05366 0
M  V30 3188 H 296.772 -0.0803548 -2.12248 0
M  V30 3189 H 299.035 0.0266913 -0.947624 0
M  V30 3190 H 298.741 0.688925 -3.44887 0
M  V30 3191 H 298.615 2.36347 -2.93973 0
M  V30 3192 H 301.002 2.20561 -1.96053 0
M  V30 3193 H 301.083 0.523627 -2.50383 0
M  V30 3194 H 300.727 1.30649 -4.90809 0
M  V30 3195 H 300.657 2.99146 -4.33381 0
M  V30 3196 H 303.148 1.80232 -3.32152 0
M  V30 3197 H 303.461 3.12405 -7.0684 0
M  V30 3198 H 301.806 2.8159 -6.35399 0
M  V30 3199 H 304.997 2.1581 -4.15384 0
M  V30 3200 H 305.17 2.76102 -5.86235 0
M  V30 3201 N 298.576 1.31904 0.862503 0
M  V30 3202 C 299.992 1.10724 1.14945 0
M  V30 3203 C 300.192 -0.117421 2.01158 0
M  V30 3204 O 299.248 -0.804595 2.39338 0
M  V30 3205 C 300.561 2.38267 1.83437 0
M  V30 3206 C 302.109 2.43949 1.96106 0
M  V30 3207 C 302.584 3.71394 2.68013 0
M  V30 3208 N 304.075 3.72331 2.75543 0
M  V30 3209 C 304.81 4.67641 3.31812 0
M  V30 3210 N 304.306 5.73313 3.88953 0
M  V30 3211 N 306.099 4.5515 3.29841 0
M  V30 3212 H 298.25 2.10436 0.288191 0
M  V30 3213 H 300.513 0.928705 0.190292 0
M  V30 3214 H 300.219 3.27759 1.27542 0
M  V30 3215 H 300.093 2.48633 2.83657 0
M  V30 3216 H 302.48 1.54922 2.51164 0
M  V30 3217 H 302.561 2.37543 0.949059 0
M  V30 3218 H 302.205 4.60791 2.13621 0
M  V30 3219 H 302.135 3.75069 3.69636 0
M  V30 3220 H 304.626 2.95947 2.34997 0
M  V30 3221 H 304.939 6.42107 4.30022 0
M  V30 3222 H 303.284 5.77077 3.87308 0
M  V30 3223 H 306.475 3.71766 2.84443 0
M  V30 3224 H 306.648 5.29604 3.73394 0
M  V30 3225 N 300.054 -1.07777 1.14986 0
M  V30 3226 C 301.002 -2.16964 0.838406 0
M  V30 3227 C 301.996 -1.68372 -0.186386 0
M  V30 3228 O 303.202 -1.79951 -0.0418465 0
M  V30 3229 H 299.577 -0.708006 0.253439 0
M  V30 3230 H 301.548 -2.40454 1.76704 0
M  V30 3231 C 300.297 -3.4604 0.339335 0
M  V30 3232 H 299.62 -3.83813 1.11927 0
M  V30 3233 H 301.06 -4.23698 0.160021 0
M  V30 3234 C 299.519 -3.23569 -0.938325 0
M  V30 3235 O 300.049 -3.47752 -2.01077 0
M  V30 3236 N 298.255 -2.77079 -0.876117 0
M  V30 3237 H 297.802 -2.576 -0.00322037 0
M  V30 3238 H 297.76 -2.62422 -1.73153 0
M  V30 3239 N 301.532 -0.945985 -1.26051 0
M  V30 3240 C 302.757 -0.612525 -1.98149 0
M  V30 3241 C 303.182 0.806623 -1.69927 0
M  V30 3242 O 302.54 1.54411 -0.950108 0
M  V30 3243 C 302.588 -0.866981 -3.50023 0
M  V30 3244 O 301.692 0.0585333 -4.12358 0
M  V30 3245 H 301.033 -0.23379 -0.621481 0
M  V30 3246 H 303.563 -1.27023 -1.60395 0
M  V30 3247 H 303.573 -0.789792 -4.00283 0
M  V30 3248 H 302.248 -1.90135 -3.69894 0
M  V30 3249 H 300.825 -0.0701241 -3.72834 0
M  V30 3250 N 303.011 1.40521 -0.713556 0
M  V30 3251 C 304.259 2.00527 -0.251692 0
M  V30 3252 C 304.58 1.56857 1.15848 0
M  V30 3253 O 303.85 0.807127 1.785 0
M  V30 3254 H 302.43 0.741551 -0.0900646 0
M  V30 3255 H 305.092 1.71887 -0.918733 0
M  V30 3256 H 304.188 3.10813 -0.283192 0
M  V30 3257 N 304.489 0.459591 1.5075 0
M  V30 3258 C 305.729 -0.09824 2.04164 0
M  V30 3259 C 306.093 -1.3801 1.33481 0
M  V30 3260 O 307.294 -2.01959 1.77387 0
M  V30 3261 C 305.565 -0.289467 3.56226 0
M  V30 3262 S 307.124 -0.807507 4.31306 0
M  V30 3263 H 303.942 -0.0213845 0.710678 0
M  V30 3264 H 306.544 0.624098 1.85271 0
M  V30 3265 H 305.248 0.649461 4.05229 0
M  V30 3266 H 304.779 -1.03825 3.79452 0
M  V30 3267 H 306.794 -2.0824 4.50389 0
M  V30 3268 O 306.006 -1.58029 0.333053 0
M  V30 3269 H 306.697 -1.92392 -0.224736 0
M  V30 END ATOM
M  V30 BEGIN BOND
M  V30 END BOND
M  V30 END CTAB
M  END
$$$$
