drugbank_target|F5HC79 Tripartite terminase subunit 1 (DB12070)
 OpenBabel12092121093D

  0  0  0     0  0            999 V3000
M  V30 BEGIN CTAB
M  V30 COUNTS 13420 13549 0 0 0
M  V30 BEGIN ATOM
M  V30 1 H -0.908 1.98254 -0.117106 0
M  V30 2 N 0 1.576 0 0
M  V30 3 C 0.933 2.03868 1.02534 0
M  V30 4 C 1.911 0.928543 1.3348 0
M  V30 5 O 3.095 1.19667 1.45644 0
M  V30 6 C 0.222 2.43627 2.35294 0
M  V30 7 C -0.732 3.65373 2.2001 0
M  V30 8 S 0.101 5.13292 1.52614 0
M  V30 9 C 1.257 5.56322 2.86805 0
M  V30 10 H 1.49 2.90518 0.631377 0
M  V30 11 H -0.977 1.52953 0.210867 0
M  V30 12 H 0.981 2.67203 3.11629 0
M  V30 13 H -0.358 1.57376 2.7183 0
M  V30 14 H -1.165 3.90944 3.18086 0
M  V30 15 H -1.563 3.418 1.51819 0
M  V30 16 H 0.729 5.58782 3.83104 0
M  V30 17 H 1.672 6.56266 2.65933 0
M  V30 18 H 2.08 4.83886 2.90714 0
M  V30 19 N 1.4781 -0.272755 1.55222 0
M  V30 20 C 2.3881 -1.35918 1.91216 0
M  V30 21 C 3.4041 -1.54026 0.809436 0
M  V30 22 O 4.5801 -1.68148 1.10852 0
M  V30 23 C 1.6451 -2.69834 2.17693 0
M  V30 24 C 0.7061 -2.6047 3.41253 0
M  V30 25 C -0.0609 -3.88 3.66458 0
M  V30 26 O 0.1621 -4.88693 2.94169 0
M  V30 27 O -0.9039 -3.88189 4.59992 0
M  V30 28 H 2.9221 -1.0839 2.83699 0
M  V30 29 H 0.5071 -0.471301 1.41771 0
M  V30 30 H 2.3891 -3.49017 2.36147 0
M  V30 31 H 1.0641 -2.97148 1.28392 0
M  V30 32 H -0.0289 -1.79663 3.28134 0
M  V30 33 H 1.3041 -2.38106 4.30774 0
M  V30 34 N 2.9562 -1.48159 -0.537278 0
M  V30 35 C 3.8892 -1.567 -1.65893 0
M  V30 36 C 4.8672 -0.41787 -1.57139 0
M  V30 37 O 6.0512 -0.628461 -1.77715 0
M  V30 38 C 3.1782 -1.48818 -3.04255 0
M  V30 39 C 2.2242 -2.68482 -3.31391 0
M  V30 40 S 3.0572 -4.30516 -3.1846 0
M  V30 41 C 4.2132 -4.2522 -4.59281 0
M  V30 42 H 4.4462 -2.5159 -1.58397 0
M  V30 43 H 1.9792 -1.36602 -0.719672 0
M  V30 44 H 3.9372 -1.44958 -3.84054 0
M  V30 45 H 2.5982 -0.552777 -3.09198 0
M  V30 46 H 1.7912 -2.59085 -4.32309 0
M  V30 47 H 1.3932 -2.69567 -2.59248 0
M  V30 48 H 3.6852 -3.94703 -5.5065 0
M  V30 49 H 4.6282 -5.26292 -4.73732 0
M  V30 50 H 5.0362 -3.55791 -4.38261 0
M  V30 51 N 4.4343 0.785586 -1.36625 0
M  V30 52 C 5.3823 1.91978 -1.31329 0
M  V30 53 C 6.3763 1.68162 -0.204416 0
M  V30 54 O 7.5823 1.76122 -0.371645 0
M  V30 55 H 3.9573 0.631087 -0.408942 0
M  V30 56 H 5.9283 1.93562 -2.27104 0
M  V30 57 C 4.6773 3.29055 -1.12329 0
M  V30 58 H 4.0003 3.4795 -1.96903 0
M  V30 59 H 5.4403 4.08756 -1.12671 0
M  V30 60 C 3.8993 3.36461 0.171861 0
M  V30 61 O 4.4293 3.84576 1.16035 0
M  V30 62 N 2.6353 2.89782 0.217846 0
M  V30 63 H 2.1823 2.50819 -0.587183 0
M  V30 64 H 2.1403 2.95119 1.08408 0
M  V30 65 N 5.9124 1.20967 1.01018 0
M  V30 66 C 6.8424 0.988272 2.11555 0
M  V30 67 C 7.8234 -0.0849778 1.69888 0
M  V30 68 O 9.0084 0.0738202 1.9406 0
M  V30 69 C 6.1384 0.546528 3.42973 0
M  V30 70 C 5.0924 1.56375 3.9841 0
M  V30 71 C 4.4184 0.97842 5.25672 0
M  V30 72 C 5.7184 2.94922 4.31066 0
M  V30 73 H 7.4124 1.91276 2.30334 0
M  V30 74 H 4.9584 0.921073 1.1069 0
M  V30 75 H 6.9114 0.378839 4.19694 0
M  V30 76 H 5.6354 -0.413598 3.23971 0
M  V30 77 H 4.2944 1.71891 3.23804 0
M  V30 78 H 3.9424 0.0101688 5.02999 0
M  V30 79 H 3.6424 1.65784 5.63728 0
M  V30 80 H 5.1664 0.821939 6.05043 0
M  V30 81 H 6.5804 2.8288 4.9865 0
M  V30 82 H 4.9774 3.5983 4.80253 0
M  V30 83 H 6.0474 3.4616 3.39561 0
M  V30 84 N 7.3905 -1.2043 1.01659 0
M  V30 85 C 8.3205 -2.25466 0.607226 0
M  V30 86 C 9.3015 -1.65853 -0.377716 0
M  V30 87 O 10.4865 -1.92409 -0.263149 0
M  V30 88 C 7.6165 -3.47256 -0.0552949 0
M  V30 89 C 6.5705 -4.19462 0.850632 0
M  V30 90 C 5.8965 -5.34673 0.0538859 0
M  V30 91 C 7.1965 -4.75603 2.15868 0
M  V30 92 H 8.8905 -2.59962 1.48526 0
M  V30 93 H 6.4365 -1.2496 0.715605 0
M  V30 94 H 8.3895 -4.19917 -0.353233 0
M  V30 95 H 7.1135 -3.11924 -0.968045 0
M  V30 96 H 5.7725 -3.48667 1.13257 0
M  V30 97 H 5.4205 -4.95585 -0.860514 0
M  V30 98 H 5.1205 -5.83913 0.657192 0
M  V30 99 H 6.6445 -6.10138 -0.237598 0
M  V30 100 H 8.0585 -5.40083 1.92311 0
M  V30 101 H 6.4555 -5.3528 2.71284 0
M  V30 102 H 7.5255 -3.94346 2.82169 0
M  V30 103 N 8.8686 -0.792821 -1.36206 0
M  V30 104 C 9.8006 -0.151469 -2.28699 0
M  V30 105 C 10.8136 0.641262 -1.49638 0
M  V30 106 O 12.0026 0.475885 -1.72039 0
M  V30 107 C 9.1026 0.808424 -3.29117 0
M  V30 108 C 8.2756 0.0650202 -4.37352 0
M  V30 109 C 7.3346 0.941358 -5.17711 0
M  V30 110 O 6.3606 0.397352 -5.67811 0
M  V30 111 N 7.5626 2.2652 -5.3448 0
M  V30 112 H 10.3276 -0.945982 -2.84379 0
M  V30 113 H 7.8886 -0.647032 -1.48409 0
M  V30 114 H 9.8806 1.3986 -3.79765 0
M  V30 115 H 8.4506 1.5038 -2.74052 0
M  V30 116 H 7.6706 -0.706255 -3.87822 0
M  V30 117 H 8.9586 -0.447847 -5.06825 0
M  V30 118 H 8.3566 2.73128 -4.95396 0
M  V30 119 H 6.9136 2.80493 -5.88359 0
M  V30 120 N 10.3467 1.47872 -0.545128 0
M  V30 121 C 11.2937 2.29849 0.2093 0
M  V30 122 C 12.2637 1.38313 0.919707 0
M  V30 123 O 13.4487 1.67277 0.917772 0
M  V30 124 C 10.5887 3.22019 1.24088 0
M  V30 125 C 9.7017 4.2864 0.537778 0
M  V30 126 C 8.8367 5.07973 1.5536 0
M  V30 127 C 7.8757 6.06381 0.8348 0
M  V30 128 N 7.0127 6.78717 1.79688 0
M  V30 129 H 11.8527 2.93845 -0.49591 0
M  V30 130 H 9.3897 1.44848 -0.256389 0
M  V30 131 H 11.3477 3.73868 1.85144 0
M  V30 132 H 9.9777 2.59914 1.91428 0
M  V30 133 H 9.0297 3.7994 -0.187046 0
M  V30 134 H 10.3417 4.98793 -0.0258907 0
M  V30 135 H 9.4957 5.63912 2.23803 0
M  V30 136 H 8.2347 4.37693 2.15118 0
M  V30 137 H 7.2397 5.49631 0.136388 0
M  V30 138 H 8.4647 6.78665 0.24313 0
M  V30 139 H 6.4107 6.11177 2.38326 0
M  V30 140 H 6.3277 7.44998 1.28505 0
M  V30 141 H 7.5957 7.39237 2.47282 0
M  V30 142 N 11.8248 0.280983 1.55075 0
M  V30 143 C 12.7548 -0.597469 2.25727 0
M  V30 144 C 13.7358 -1.15417 1.24952 0
M  V30 145 O 14.9208 -1.18722 1.53684 0
M  V30 146 C 12.0508 -1.7789 2.98283 0
M  V30 147 C 11.0048 -1.35347 4.06036 0
M  V30 148 C 10.3308 -2.61846 4.66198 0
M  V30 149 C 11.6308 -0.499354 5.19907 0
M  V30 150 H 13.3248 -0.00824265 2.99399 0
M  V30 151 H 10.8708 -0.0025244 1.44 0
M  V30 152 H 12.8238 -2.39937 3.46422 0
M  V30 153 H 11.5478 -2.39405 2.22155 0
M  V30 154 H 10.2068 -0.756156 3.58717 0
M  V30 155 H 9.8548 -3.21632 3.86732 0
M  V30 156 H 9.5548 -2.3409 5.38958 0
M  V30 157 H 11.0788 -3.24732 5.1709 0
M  V30 158 H 12.4928 -1.02498 5.64063 0
M  V30 159 H 10.8898 -0.316424 5.99265 0
M  V30 160 H 11.9598 0.480459 4.82514 0
M  V30 161 N 13.3029 -1.57598 0.00835791 0
M  V30 162 C 14.5429 -1.92788 -0.679136 0
M  V30 163 C 14.9069 -0.883378 -1.70471 0
M  V30 164 O 16.1079 -1.12079 -2.44319 0
M  V30 165 C 14.3789 -3.32994 -1.29807 0
M  V30 166 S 15.9379 -3.90082 -2.00952 0
M  V30 167 H 12.7559 -0.67475 -0.224127 0
M  V30 168 H 15.3579 -1.95385 0.0670497 0
M  V30 169 H 14.0619 -4.06846 -0.538922 0
M  V30 170 H 13.5929 -3.33791 -2.082 0
M  V30 171 H 15.6079 -3.71834 -3.28563 0
M  V30 172 N 14.781 0.264519 -1.55364 0
M  V30 173 C 16.027 0.99646 -1.76631 0
M  V30 174 C 16.36 1.85632 -0.570478 0
M  V30 175 O 15.635 1.89647 0.43175 0
M  V30 176 C 15.918 1.87187 -3.07625 0
M  V30 177 C 15.771 1.04138 -4.37579 0
M  V30 178 C 17.09 2.85749 -3.34717 0
M  V30 179 H 14.209 0.360841 -0.642622 0
M  V30 180 H 16.851 0.268218 -1.88097 0
M  V30 181 H 15.001 2.49279 -2.9798 0
M  V30 182 H 16.673 0.440517 -4.59192 0
M  V30 183 H 14.916 0.345115 -4.32425 0
M  V30 184 H 15.587 1.68729 -5.2558 0
M  V30 185 H 18.063 2.33793 -3.4421 0
M  V30 186 H 16.939 3.44136 -4.27623 0
M  V30 187 H 17.2 3.61311 -2.54768 0
M  V30 188 N 16.2591 1.48442 0.529413 0
M  V30 189 C 17.5051 1.5672 1.28711 0
M  V30 190 C 17.8381 0.2406 1.92704 0
M  V30 191 O 17.1131 -0.753454 1.79313 0
M  V30 192 C 17.3961 2.70587 2.37603 0
M  V30 193 C 17.2491 4.12953 1.78297 0
M  V30 194 C 18.5681 2.80212 3.39366 0
M  V30 195 H 15.6871 0.570474 0.466613 0
M  V30 196 H 18.3291 1.80617 0.589706 0
M  V30 197 H 16.4791 2.50342 2.97088 0
M  V30 198 H 18.1511 4.44639 1.22858 0
M  V30 199 H 16.3941 4.19927 1.0883 0
M  V30 200 H 17.0651 4.88448 2.57144 0
M  V30 201 H 19.5411 2.98553 2.89836 0
M  V30 202 H 18.4171 3.61611 4.12951 0
M  V30 203 H 18.6781 1.88393 3.99951 0
M  V30 204 N 17.7372 -0.778329 1.37039 0
M  V30 205 C 18.9772 -1.54973 1.33276 0
M  V30 206 C 19.3412 -1.91816 -0.0839376 0
M  V30 207 O 20.5422 -2.6767 -0.246228 0
M  V30 208 C 18.8132 -2.78517 2.23971 0
M  V30 209 S 20.3722 -3.6865 2.37997 0
M  V30 210 H 17.1902 -0.530639 0.473226 0
M  V30 211 H 19.7922 -0.915806 1.72723 0
M  V30 212 H 18.4962 -2.4952 3.25835 0
M  V30 213 H 18.0272 -3.46875 1.85584 0
M  V30 214 H 20.0422 -4.70182 1.58567 0
M  V30 215 N 19.2153 -1.21501 -1.00376 0
M  V30 216 C 20.4403 -1.05977 -1.78279 0
M  V30 217 C 20.8653 0.385994 -1.84097 0
M  V30 218 O 20.2233 1.27849 -1.28547 0
M  V30 219 C 20.2713 -1.66302 -3.19963 0
M  V30 220 O 19.3753 -0.909333 -4.0225 0
M  V30 221 H 18.7163 -0.372906 -0.549397 0
M  V30 222 H 21.2463 -1.6107 -1.26165 0
M  V30 223 H 21.2563 -1.70574 -3.70632 0
M  V30 224 H 19.9313 -2.71515 -3.15043 0
M  V30 225 H 18.5083 -0.941795 -3.60811 0
M  V30 226 N 20.6934 1.19889 -1.02296 0
M  V30 227 C 21.6404 2.22901 -0.598651 0
M  V30 228 C 22.6104 1.61588 0.384521 0
M  V30 229 O 23.7954 1.88697 0.282522 0
M  V30 230 C 20.9354 3.45063 0.0504476 0
M  V30 231 C 20.0484 4.20783 -0.978053 0
M  V30 232 C 19.1834 5.30356 -0.299338 0
M  V30 233 C 18.2224 5.97826 -1.31416 0
M  V30 234 N 17.3594 6.98975 -0.661667 0
M  V30 235 H 22.1994 2.58554 -1.48169 0
M  V30 236 H 19.7364 1.27039 -0.741584 0
M  V30 237 H 21.6944 4.14831 0.443971 0
M  V30 238 H 20.3244 3.10084 0.897097 0
M  V30 239 H 19.3764 3.50018 -1.48969 0
M  V30 240 H 20.6884 4.67109 -1.74958 0
M  V30 241 H 19.8424 6.06516 0.149347 0
M  V30 242 H 18.5814 4.85084 0.504445 0
M  V30 243 H 17.5864 5.20422 -1.77317 0
M  V30 244 H 18.8114 6.45183 -2.11933 0
M  V30 245 H 16.7574 6.55886 0.122132 0
M  V30 246 H 16.6744 7.43461 -1.37117 0
M  V30 247 H 17.9424 7.7914 -0.236785 0
M  V30 248 N 22.1715 0.800033 1.35784 0
M  V30 249 C 23.4115 0.382891 2.00782 0
M  V30 250 C 23.7755 -1.02891 1.62103 0
M  V30 251 O 24.9765 -1.54771 2.19771 0
M  V30 252 C 23.2475 0.553299 3.53091 0
M  V30 253 S 24.8065 0.225608 4.3822 0
M  V30 254 H 21.6245 0.145737 0.695904 0
M  V30 255 H 24.2265 1.04085 1.65489 0
M  V30 256 H 22.9305 1.58091 3.78729 0
M  V30 257 H 22.4615 -0.120214 3.93216 0
M  V30 258 H 24.4765 -0.969074 4.86645 0
M  V30 259 N 23.6496 -1.47581 0.552962 0
M  V30 260 C 24.5976 -2.31648 -0.21023 0
M  V30 261 C 25.5916 -1.42663 -0.913432 0
M  V30 262 O 26.7976 -1.5945 -0.835201 0
M  V30 263 H 23.1726 -0.746989 -0.0866676 0
M  V30 264 H 25.1436 -2.93869 0.518051 0
M  V30 265 C 23.8926 -3.25226 -1.22976 0
M  V30 266 H 23.2156 -3.93658 -0.698077 0
M  V30 267 H 24.6556 -3.86889 -1.73473 0
M  V30 268 C 23.1146 -2.48448 -2.27542 0
M  V30 269 O 23.6446 -2.22585 -3.34393 0
M  V30 270 N 21.8506 -2.09532 -2.01357 0
M  V30 271 H 21.3976 -2.30765 -1.14478 0
M  V30 272 H 21.3556 -1.58476 -2.71538 0
M  V30 273 N 25.1277 -0.289203 -1.54924 0
M  V30 274 C 26.0377 0.601863 -2.26748 0
M  V30 275 C 27.0537 1.15834 -1.2984 0
M  V30 276 O 28.2297 1.18564 -1.62802 0
M  V30 277 C 25.2947 1.76299 -2.98529 0
M  V30 278 C 24.3557 1.24178 -4.10948 0
M  V30 279 C 23.5887 2.34757 -4.79296 0
M  V30 280 O 23.8117 3.54411 -4.46933 0
M  V30 281 O 22.7457 2.02115 -5.66951 0
M  V30 282 H 26.5717 0.0195879 -3.03694 0
M  V30 283 H 24.1567 -0.0560868 -1.49295 0
M  V30 284 H 26.0387 2.43973 -3.43592 0
M  V30 285 H 24.7137 2.33209 -2.24488 0
M  V30 286 H 23.6207 0.531104 -3.70311 0
M  V30 287 H 24.9537 0.718252 -4.86931 0
M  V30 288 N 26.6058 1.57591 -0.0167156 0
M  V30 289 C 27.8358 1.95292 0.674149 0
M  V30 290 C 28.2438 0.891097 1.66901 0
M  V30 291 O 27.5868 -0.136908 1.83189 0
M  V30 292 C 27.6488 3.29072 1.44747 0
M  V30 293 C 27.3128 4.52879 0.612331 0
M  V30 294 C 28.3098 5.1979 -0.107126 0
M  V30 295 C 25.9948 4.99242 0.553381 0
M  V30 296 C 27.9888 6.31375 -0.874339 0
M  V30 297 C 25.6758 6.10713 -0.217546 0
M  V30 298 C 26.6738 6.76637 -0.930123 0
M  V30 299 O 26.3618 7.85969 -1.68844 0
M  V30 300 H 26.0938 0.648275 0.191615 0
M  V30 301 H 28.6478 2.05284 -0.0690148 0
M  V30 302 H 26.8778 3.15535 2.2355 0
M  V30 303 H 28.5668 3.51764 2.02526 0
M  V30 304 H 29.3328 4.84948 -0.0708392 0
M  V30 305 H 25.2118 4.47744 1.09757 0
M  V30 306 H 28.7558 6.82764 -1.43106 0
M  V30 307 H 24.6528 6.44994 -0.255593 0
M  V30 308 H 25.4208 8.02571 -1.6069 0
M  V30 309 N 28.0839 -0.256276 1.55502 0
M  V30 310 C 29.0469 -1.30047 1.88734 0
M  V30 311 C 30.0469 -1.4154 0.763086 0
M  V30 312 O 31.2369 -1.40403 1.03115 0
M  V30 313 C 28.3689 -2.67953 2.10747 0
M  V30 314 H 29.5619 -1.01802 2.82093 0
M  V30 315 H 27.1149 -0.495134 1.4825 0
M  V30 316 H 27.8499 -3.01351 1.19825 0
M  V30 317 H 27.6349 -2.60993 2.92617 0
M  V30 318 H 29.1249 -3.43368 2.37673 0
M  V30 319 N 29.562 -1.4872 -0.521534 0
M  V30 320 C 30.495 -1.58451 -1.64221 0
M  V30 321 C 31.473 -0.434513 -1.56687 0
M  V30 322 O 32.657 -0.647275 -1.77038 0
M  V30 323 C 29.784 -1.52037 -3.02659 0
M  V30 324 C 28.83 -2.71981 -3.28525 0
M  V30 325 S 29.663 -4.33869 -3.13876 0
M  V30 326 C 30.819 -4.30067 -4.54745 0
M  V30 327 H 31.052 -2.53256 -1.55719 0
M  V30 328 H 28.585 -1.37358 -0.705143 0
M  V30 329 H 30.543 -1.49023 -3.82495 0
M  V30 330 H 29.204 -0.585541 -3.08594 0
M  V30 331 H 28.397 -2.63656 -4.29536 0
M  V30 332 H 27.999 -2.72302 -2.56374 0
M  V30 333 H 30.291 -4.00521 -5.46433 0
M  V30 334 H 31.234 -5.31287 -4.68123 0
M  V30 335 H 31.642 -3.60419 -4.34463 0
M  V30 336 N 31.0401 0.771051 -1.3745 0
M  V30 337 C 31.9501 1.91538 -1.35464 0
M  V30 338 C 32.9661 1.72134 -0.254123 0
M  V30 339 O 34.1421 1.95358 -0.489626 0
M  V30 340 C 31.2071 3.26671 -1.16134 0
M  V30 341 C 30.2681 3.58723 -2.35831 0
M  V30 342 C 29.5011 4.87409 -2.17413 0
M  V30 343 O 29.7241 5.58506 -1.15876 0
M  V30 344 O 28.6581 5.18539 -3.05615 0
M  V30 345 H 32.4841 1.96165 -2.31847 0
M  V30 346 H 30.0691 0.9139 -1.18187 0
M  V30 347 H 31.9511 4.07499 -1.07345 0
M  V30 348 H 30.6261 3.22894 -0.228251 0
M  V30 349 H 29.5331 2.78127 -2.50192 0
M  V30 350 H 30.8661 3.67243 -3.27709 0
M  V30 351 N 32.5182 1.22032 0.997298 0
M  V30 352 C 33.4482 1.01065 2.10495 0
M  V30 353 C 34.4292 -0.0669542 1.69968 0
M  V30 354 O 35.6142 0.0943987 1.9397 0
M  V30 355 C 32.7442 0.582874 3.42374 0
M  V30 356 C 31.6982 1.60592 3.96729 0
M  V30 357 C 31.0242 1.03412 5.24605 0
M  V30 358 C 32.3242 2.99478 4.27914 0
M  V30 359 H 34.0182 1.93708 2.28292 0
M  V30 360 H 31.5642 0.932761 1.09707 0
M  V30 361 H 33.5172 0.423332 4.19268 0
M  V30 362 H 32.2412 -0.379213 3.24391 0
M  V30 363 H 30.9002 1.75316 3.21963 0
M  V30 364 H 30.5482 0.063518 5.0296 0
M  V30 365 H 30.2482 1.71754 5.61938 0
M  V30 366 H 31.7722 0.886066 6.04137 0
M  V30 367 H 33.1862 2.88153 4.95622 0
M  V30 368 H 31.5832 3.64903 4.76409 0
M  V30 369 H 32.6532 3.49742 3.3587 0
M  V30 370 N 33.9963 -1.19345 1.0293 0
M  V30 371 C 34.9063 -2.26245 0.620515 0
M  V30 372 C 35.9223 -1.70486 -0.347928 0
M  V30 373 O 37.0983 -2.00347 -0.205704 0
M  V30 374 C 34.1633 -3.46693 -0.0218957 0
M  V30 375 C 33.2243 -4.17632 0.994102 0
M  V30 376 C 32.4573 -5.32329 0.382253 0
M  V30 377 O 32.6803 -5.64552 -0.814676 0
M  V30 378 O 31.6143 -5.91664 1.10531 0
M  V30 379 H 35.4403 -2.63453 1.51083 0
M  V30 380 H 33.0253 -1.26207 0.799513 0
M  V30 381 H 34.9073 -4.19683 -0.380072 0
M  V30 382 H 33.5823 -3.11333 -0.886209 0
M  V30 383 H 32.4893 -3.4676 1.40387 0
M  V30 384 H 33.8223 -4.56964 1.8288 0
M  V30 385 N 35.4744 -0.807222 -1.35358 0
M  V30 386 C 36.7144 -0.393534 -2.00576 0
M  V30 387 C 37.0784 1.0203 -1.62647 0
M  V30 388 O 38.2794 1.53603 -2.20589 0
M  V30 389 C 36.5504 -0.572017 -3.52793 0
M  V30 390 S 38.1094 -0.248845 -4.38094 0
M  V30 391 H 34.9274 -0.149425 -0.695121 0
M  V30 392 H 37.5294 -1.04961 -1.64935 0
M  V30 393 H 36.2334 -1.60097 -3.77885 0
M  V30 394 H 35.7644 0.099359 -3.93275 0
M  V30 395 H 37.7794 0.943253 -4.87152 0
M  V30 396 N 36.9525 1.47285 -0.560781 0
M  V30 397 C 37.8825 2.32857 0.173105 0
M  V30 398 C 38.8635 1.44009 0.905281 0
M  V30 399 O 40.0485 1.7286 0.885046 0
M  V30 400 C 37.1785 3.25861 1.20133 0
M  V30 401 C 36.1325 4.23978 0.585388 0
M  V30 402 C 35.4585 5.06332 1.7185 0
M  V30 403 C 36.7585 5.20242 -0.463178 0
M  V30 404 H 38.4525 2.94466 -0.541307 0
M  V30 405 H 35.9985 1.41601 -0.261764 0
M  V30 406 H 37.9515 3.84569 1.72293 0
M  V30 407 H 36.6755 2.62315 1.94573 0
M  V30 408 H 35.3345 3.66501 0.085054 0
M  V30 409 H 34.9825 4.39186 2.45203 0
M  V30 410 H 34.6825 5.72762 1.31213 0
M  V30 411 H 36.2065 5.67899 2.24329 0
M  V30 412 H 37.6205 5.73293 -0.027502 0
M  V30 413 H 36.0175 5.94896 -0.788627 0
M  V30 414 H 37.0875 4.65504 -1.35773 0
M  V30 415 N 38.4306 0.297415 1.54768 0
M  V30 416 C 39.3776 -0.580276 2.23386 0
M  V30 417 C 40.3476 -1.13238 1.21517 0
M  V30 418 O 41.5326 -1.17757 1.50126 0
M  V30 419 C 38.6726 -1.74801 2.97555 0
M  V30 420 C 37.7856 -1.22764 4.1419 0
M  V30 421 C 36.9206 -2.35895 4.75949 0
M  V30 422 C 35.9596 -1.80974 5.84735 0
M  V30 423 N 35.0966 -2.87664 6.40464 0
M  V30 424 H 39.9366 0.0114833 2.97998 0
M  V30 425 H 37.4736 0.0174361 1.4709 0
M  V30 426 H 39.4316 -2.43475 3.38786 0
M  V30 427 H 38.0616 -2.31145 2.25326 0
M  V30 428 H 37.1136 -0.433271 3.77924 0
M  V30 429 H 38.4256 -0.785551 4.92575 0
M  V30 430 H 37.5796 -3.12523 5.20014 0
M  V30 431 H 36.3186 -2.83429 3.96887 0
M  V30 432 H 35.3236 -1.02834 5.40097 0
M  V30 433 H 36.5486 -1.34348 6.65678 0
M  V30 434 H 34.4946 -3.34538 5.64287 0
M  V30 435 H 34.4116 -2.4794 7.14186 0
M  V30 436 H 35.6796 -3.642 6.89187 0
M  V30 437 N 39.9087 -1.5758 0.0250728 0
M  V30 438 C 41.1387 -1.95646 -0.663783 0
M  V30 439 C 41.5467 -0.899935 -1.66427 0
M  V30 440 O 40.8897 0.127191 -1.83259 0
M  V30 441 C 40.9517 -3.29835 -1.43 0
M  V30 442 C 40.6157 -4.53197 -0.588305 0
M  V30 443 C 41.6127 -5.19726 0.13469 0
M  V30 444 C 39.2977 -4.99529 -0.526897 0
M  V30 445 C 41.2917 -6.30902 0.90781 0
M  V30 446 C 38.9787 -6.10589 0.24993 0
M  V30 447 C 39.9767 -6.76134 0.965994 0
M  V30 448 O 39.6647 -7.85062 1.7301 0
M  V30 449 H 39.3967 -0.649282 -0.188174 0
M  V30 450 H 41.9507 -2.05245 0.0799006 0
M  V30 451 H 40.1807 -3.16716 -2.21873 0
M  V30 452 H 41.8697 -3.52833 -2.00658 0
M  V30 453 H 42.6357 -4.84904 0.0965562 0
M  V30 454 H 38.5147 -4.48319 -1.07381 0
M  V30 455 H 42.0587 -6.81995 1.46724 0
M  V30 456 H 37.9557 -6.44849 0.289795 0
M  V30 457 H 38.7237 -8.01708 1.64944 0
M  V30 458 N 41.3868 0.248026 -1.55636 0
M  V30 459 C 42.6268 0.983592 -1.79178 0
M  V30 460 C 42.9908 1.82567 -0.594414 0
M  V30 461 O 44.1918 2.59292 -0.708583 0
M  V30 462 C 42.4628 1.82228 -3.07454 0
M  V30 463 S 44.0218 2.61709 -3.52213 0
M  V30 464 H 40.8398 0.330866 -0.629324 0
M  V30 465 H 43.4418 0.251562 -1.93875 0
M  V30 466 H 42.1458 1.19333 -3.92668 0
M  V30 467 H 41.6768 2.59708 -2.95492 0
M  V30 468 H 43.6918 3.84655 -3.13457 0
M  V30 469 N 42.8649 1.48995 0.513639 0
M  V30 470 C 44.1419 1.48338 1.27495 0
M  V30 471 C 44.5219 0.204065 2.10111 0
M  V30 472 O 43.8699 -0.813881 2.13514 0
M  V30 473 C 44.0799 2.75498 2.14247 0
M  V30 474 C 45.4279 3.24484 2.73852 0
M  V30 475 O 46.4519 2.76528 2.24523 0
M  V30 476 O 45.3109 4.07974 3.6362 0
M  V30 477 H 42.4049 0.593149 0.576284 0
M  V30 478 H 44.9509 1.61246 0.528948 0
M  V30 479 H 43.7229 3.60109 1.53092 0
M  V30 480 H 43.3459 2.6539 2.96064 0
M  V30 481 N 44.343 -0.763751 1.37857 0
M  V30 482 C 45.754 -1.3405 1.29952 0
M  V30 483 C 46.105 -1.96138 -0.0492898 0
M  V30 484 O 45.23 -1.94372 -0.951239 0
M  V30 485 C 45.825 -2.43729 2.35333 0
M  V30 486 C 44.384 -2.97151 2.31037 0
M  V30 487 C 43.531 -1.70438 2.18738 0
M  V30 488 H 46.482 -0.563396 1.48363 0
M  V30 489 H 46.503 -3.23412 2.00462 0
M  V30 490 H 46.015 -1.9851 3.33489 0
M  V30 491 H 44.116 -3.46724 1.3643 0
M  V30 492 H 44.229 -3.52221 3.24772 0
M  V30 493 H 42.593 -1.93673 1.65418 0
M  V30 494 H 43.376 -1.27312 3.18821 0
M  V30 495 N 45.8211 -1.22559 -0.990812 0
M  V30 496 C 46.7691 -0.994798 -2.10253 0
M  V30 497 C 47.7631 0.0627798 -1.69284 0
M  V30 498 O 48.9691 -0.0898392 -1.79776 0
M  V30 499 H 45.3441 -0.304527 -0.687581 0
M  V30 500 H 47.3151 -1.93812 -2.26891 0
M  V30 501 C 46.0641 -0.591439 -3.42633 0
M  V30 502 H 45.3871 -1.3969 -3.74602 0
M  V30 503 H 46.8271 -0.469385 -4.21394 0
M  V30 504 C 45.2861 0.699232 -3.29564 0
M  V30 505 O 45.8161 1.75112 -3.61523 0
M  V30 506 N 44.0221 0.671182 -2.82743 0
M  V30 507 H 43.5691 -0.185136 -2.56934 0
M  V30 508 H 43.5271 1.53502 -2.7438 0
M  V30 509 N 47.2992 1.18797 -1.03562 0
M  V30 510 C 48.5452 1.8893 -0.737113 0
M  V30 511 C 48.8782 1.79837 0.732956 0
M  V30 512 O 48.1532 1.19525 1.5344 0
M  V30 513 C 48.4362 3.39607 -1.19745 0
M  V30 514 C 48.2892 3.57537 -2.72924 0
M  V30 515 C 49.6082 4.33069 -0.783526 0
M  V30 516 H 46.7272 0.686057 -0.269249 0
M  V30 517 H 49.3692 1.39797 -1.28673 0
M  V30 518 H 47.5192 3.81583 -0.729855 0
M  V30 519 H 49.1912 3.24688 -3.27682 0
M  V30 520 H 47.4342 3.00363 -3.12993 0
M  V30 521 H 48.1052 4.63238 -3.00191 0
M  V30 522 H 50.5812 3.98846 -1.18581 0
M  V30 523 H 49.4572 5.3707 -1.13343 0
M  V30 524 H 49.7182 4.40986 0.313681 0
M  V30 525 N 48.7773 0.814389 1.34928 0
M  V30 526 C 49.7073 0.244827 2.32213 0
M  V30 527 C 50.6883 -0.634024 1.57842 0
M  V30 528 O 51.8733 -0.562676 1.8587 0
M  V30 529 C 49.0033 -0.601106 3.42058 0
M  V30 530 C 47.9573 0.179896 4.27622 0
M  V30 531 C 47.2833 -0.788237 5.28858 0
M  V30 532 C 48.5833 1.38329 5.03649 0
M  V30 533 H 50.2773 1.05763 2.80097 0
M  V30 534 H 47.8233 0.510029 1.34665 0
M  V30 535 H 49.7763 -1.00968 4.09125 0
M  V30 536 H 48.5003 -1.44688 2.92802 0
M  V30 537 H 47.1593 0.569739 3.62146 0
M  V30 538 H 46.8073 -1.62973 4.75866 0
M  V30 539 H 46.5073 -0.269942 5.8698 0
M  V30 540 H 48.0313 -1.19485 5.98795 0
M  V30 541 H 49.4453 1.04918 5.63618 0
M  V30 542 H 47.8423 1.83662 5.71304 0
M  V30 543 H 48.9123 2.16592 4.33839 0
M  V30 544 N 50.2554 -1.46986 0.568584 0
M  V30 545 C 51.1854 -2.32946 -0.160753 0
M  V30 546 C 52.1664 -1.44487 -0.897631 0
M  V30 547 O 53.3514 -1.73327 -0.875867 0
M  V30 548 C 50.4814 -3.26494 -1.18403 0
M  V30 549 C 49.4354 -4.24282 -0.562895 0
M  V30 550 C 48.7614 -5.07236 -1.69163 0
M  V30 551 C 50.0614 -5.19989 0.490761 0
M  V30 552 H 51.7554 -2.94175 0.556916 0
M  V30 553 H 49.3014 -1.4146 0.26927 0
M  V30 554 H 51.2544 -3.85477 -1.70251 0
M  V30 555 H 49.9784 -2.63343 -1.93179 0
M  V30 556 H 48.6374 -3.66541 -0.0656164 0
M  V30 557 H 48.2854 -4.4048 -2.42871 0
M  V30 558 H 47.9854 -5.7345 -1.28174 0
M  V30 559 H 49.5094 -5.6908 -2.21314 0
M  V30 560 H 50.9234 -5.73271 0.0579047 0
M  V30 561 H 49.3204 -5.94469 0.820165 0
M  V30 562 H 50.3904 -4.64777 1.3824 0
M  V30 563 N 51.7335 -0.305618 -1.54608 0
M  V30 564 C 52.6965 0.555591 -2.22364 0
M  V30 565 C 53.6965 1.05768 -1.21119 0
M  V30 566 O 54.8865 0.952972 -1.45822 0
M  V30 567 C 52.0185 1.76974 -2.91364 0
M  V30 568 H 53.2115 -0.0364572 -2.99878 0
M  V30 569 H 50.7645 -0.0565007 -1.56198 0
M  V30 570 H 51.4995 2.40151 -2.17941 0
M  V30 571 H 51.2845 1.41732 -3.65588 0
M  V30 572 H 52.7745 2.38148 -3.43038 0
M  V30 573 N 53.2116 1.57565 -0.0334293 0
M  V30 574 C 54.1216 2.13943 0.962572 0
M  V30 575 C 55.1376 1.09276 1.35406 0
M  V30 576 O 56.3136 1.41355 1.4346 0
M  V30 577 C 53.3786 2.65887 2.22497 0
M  V30 578 C 52.4396 3.85286 1.8935 0
M  V30 579 C 51.6726 4.34743 3.09571 0
M  V30 580 O 51.8956 3.83352 4.22371 0
M  V30 581 O 50.8296 5.26538 2.91618 0
M  V30 582 H 54.6556 2.99333 0.513169 0
M  V30 583 H 52.2406 1.4822 0.18743 0
M  V30 584 H 54.1226 2.99346 2.96598 0
M  V30 585 H 52.7976 1.83578 2.6661 0
M  V30 586 H 51.7046 3.56746 1.1262 0
M  V30 587 H 53.0376 4.68771 1.5005 0
M  V30 588 N 54.6897 -0.239769 1.55765 0
M  V30 589 C 55.9147 -0.988373 1.82335 0
M  V30 590 C 56.3397 -1.77886 0.611421 0
M  V30 591 O 55.6977 -1.75889 -0.439639 0
M  V30 592 C 55.7457 -1.89627 3.06715 0
M  V30 593 O 54.8497 -2.98904 2.84131 0
M  V30 594 H 54.1907 -0.280858 0.601677 0
M  V30 595 H 56.7207 -0.258597 2.02959 0
M  V30 596 H 56.7307 -2.30957 3.36338 0
M  V30 597 H 55.4057 -1.31511 3.9456 0
M  V30 598 H 53.9827 -2.61651 2.65694 0
M  V30 599 N 56.1678 -1.49265 -0.50573 0
M  V30 600 C 57.3958 -1.62215 -1.28429 0
M  V30 601 C 57.8108 -0.291697 -1.86533 0
M  V30 602 O 57.1678 0.722233 -1.67601 0
M  V30 603 C 57.2188 -2.68735 -2.41793 0
M  V30 604 O 56.9398 -3.96619 -1.86078 0
M  V30 605 C 58.4408 -2.92346 -3.3324 0
M  V30 606 H 55.6608 -0.546239 -0.389697 0
M  V30 607 H 58.2048 -1.95265 -0.607609 0
M  V30 608 H 56.3598 -2.38476 -3.053 0
M  V30 609 H 56.7738 -4.55256 -2.60465 0
M  V30 610 H 58.2478 -3.70623 -4.09075 0
M  V30 611 H 58.7248 -2.02081 -3.89948 0
M  V30 612 H 59.3308 -3.24003 -2.75503 0
M  V30 613 N 57.6459 0.756429 -1.3826 0
M  V30 614 C 59.0569 1.33359 -1.30661 0
M  V30 615 C 59.4079 1.96161 0.0388875 0
M  V30 616 O 58.5329 1.94874 0.940918 0
M  V30 617 C 59.1279 2.42477 -2.36622 0
M  V30 618 C 57.6869 2.95922 -2.3261 0
M  V30 619 C 56.8339 1.69275 -2.19639 0
M  V30 620 H 59.7849 0.55552 -1.4866 0
M  V30 621 H 59.8059 3.22345 -2.02174 0
M  V30 622 H 59.3179 1.96739 -3.34538 0
M  V30 623 H 57.4189 3.45996 -1.38267 0
M  V30 624 H 57.5319 3.50494 -3.26636 0
M  V30 625 H 55.8959 1.92793 -1.66442 0
M  V30 626 H 56.6789 1.25619 -3.19491 0
M  V30 627 N 59.124 1.23083 0.984299 0
M  V30 628 C 60.371 1.06057 1.72505 0
M  V30 629 C 60.699 -0.403105 1.90277 0
M  V30 630 O 59.954 -1.3149 1.44944 0
M  V30 631 C 60.253 1.72673 3.1292 0
M  V30 632 C 59.919 3.22586 3.15038 0
M  V30 633 C 58.581 3.63489 3.15324 0
M  V30 634 C 60.933 4.185 3.10657 0
M  V30 635 C 58.261 4.98772 3.08939 0
M  V30 636 C 60.613 5.53769 3.05814 0
M  V30 637 C 59.277 5.94041 3.04419 0
M  V30 638 H 58.547 0.388091 0.631242 0
M  V30 639 H 61.194 1.52963 1.15215 0
M  V30 640 H 59.499 1.18116 3.73572 0
M  V30 641 H 61.196 1.56982 3.68996 0
M  V30 642 H 57.786 2.90022 3.15571 0
M  V30 643 H 61.97 3.87911 3.09579 0
M  V30 644 H 57.226 5.29193 3.0621 0
M  V30 645 H 61.4 6.27808 3.0138 0
M  V30 646 H 59.027 6.98833 2.99227 0
M  V30 647 N 60.6021 -1.18246 1.0419 0
M  V30 648 C 61.5491 -2.2192 0.634037 0
M  V30 649 C 62.5191 -1.62179 -0.358765 0
M  V30 650 O 63.7041 -1.89122 -0.252466 0
M  V30 651 C 60.8441 -3.451 0.00445535 0
M  V30 652 C 59.9571 -4.19174 1.04487 0
M  V30 653 C 59.0921 -5.29813 0.383676 0
M  V30 654 C 58.1311 -5.9566 1.4091 0
M  V30 655 N 57.2681 -6.97834 0.772784 0
M  V30 656 H 62.1081 -2.56164 1.52263 0
M  V30 657 H 59.6451 -1.25843 0.761701 0
M  V30 658 H 61.6031 -4.15485 -0.377919 0
M  V30 659 H 60.2331 -3.11472 -0.847652 0
M  V30 660 H 59.2851 -3.47604 1.54518 0
M  V30 661 H 60.5971 -4.64267 1.82368 0
M  V30 662 H 59.7511 -6.06677 -0.0528366 0
M  V30 663 H 58.4901 -4.85825 -0.427208 0
M  V30 664 H 57.4951 -5.17535 1.85574 0
M  V30 665 H 58.7201 -6.4173 2.22171 0
M  V30 666 H 56.6661 -6.55998 -0.0177708 0
M  V30 667 H 56.5831 -7.41186 1.48928 0
M  V30 668 H 57.8511 -7.78665 0.36071 0
M  V30 669 N 62.0802 -0.821533 -1.34494 0
M  V30 670 C 63.4962 -0.507117 -1.51329 0
M  V30 671 C 63.6962 0.968964 -1.76673 0
M  V30 672 O 62.7522 1.75348 -1.81685 0
M  V30 673 C 64.0652 -1.36544 -2.67911 0
M  V30 674 C 65.6132 -1.36242 -2.81793 0
M  V30 675 C 66.0882 -2.2052 -4.01416 0
M  V30 676 N 67.5792 -2.18136 -4.08621 0
M  V30 677 C 68.3142 -2.80095 -5.00334 0
M  V30 678 N 67.8102 -3.51039 -5.9728 0
M  V30 679 N 69.6032 -2.69656 -4.93196 0
M  V30 680 H 61.7542 -1.77729 -1.16302 0
M  V30 681 H 64.0172 -0.757291 -0.570276 0
M  V30 682 H 63.7232 -2.41361 -2.55808 0
M  V30 683 H 63.5972 -1.02917 -3.62888 0
M  V30 684 H 65.9842 -0.322041 -2.93338 0
M  V30 685 H 66.0652 -1.73866 -1.87628 0
M  V30 686 H 65.7092 -3.24607 -3.90631 0
M  V30 687 H 65.6392 -1.80247 -4.94791 0
M  V30 688 H 68.1302 -1.6653 -3.39229 0
M  V30 689 H 68.4432 -3.95565 -6.63889 0
M  V30 690 H 66.7882 -3.55145 -5.97409 0
M  V30 691 H 69.9792 -2.13808 -4.16418 0
M  V30 692 H 70.1522 -3.1823 -5.64476 0
M  V30 693 N 63.5583 1.46682 -0.576371 0
M  V30 694 C 64.5063 2.31953 0.17335 0
M  V30 695 C 65.5003 1.44098 0.89062 0
M  V30 696 O 66.7063 1.60759 0.809728 0
M  V30 697 H 63.0813 0.748273 0.0747727 0
M  V30 698 H 65.0523 2.93007 -0.564738 0
M  V30 699 C 63.8013 3.27142 1.17786 0
M  V30 700 H 63.1243 3.94719 0.635361 0
M  V30 701 H 64.5643 3.896 1.67296 0
M  V30 702 C 63.0233 2.52036 2.23561 0
M  V30 703 O 63.5533 2.27877 3.3081 0
M  V30 704 N 61.7593 2.12709 1.97998 0
M  V30 705 H 61.3063 2.32557 1.10792 0
M  V30 706 H 61.2643 1.62776 2.68982 0
M  V30 707 N 65.0364 0.313813 1.54444 0
M  V30 708 C 65.9994 -0.54379 2.22656 0
M  V30 709 C 66.9994 -1.05124 1.21678 0
M  V30 710 O 68.1894 -0.945225 1.46325 0
M  V30 711 C 65.3214 -1.75427 2.92298 0
M  V30 712 H 66.5144 0.0523599 2.99854 0
M  V30 713 H 64.0674 0.0647834 1.56166 0
M  V30 714 H 64.8024 -2.38991 2.19211 0
M  V30 715 H 64.5874 -1.39791 3.66334 0
M  V30 716 H 66.0774 -2.36325 3.44297 0
M  V30 717 N 66.5145 -1.57545 0.0417849 0
M  V30 718 C 67.4775 -2.09885 -0.92093 0
M  V30 719 C 68.4775 -1.01648 -1.24596 0
M  V30 720 O 69.6675 -1.27759 -1.1842 0
M  V30 721 C 66.7995 -2.57527 -2.23367 0
M  V30 722 H 67.9925 -2.96236 -0.467382 0
M  V30 723 H 65.5455 -1.5493 -0.206467 0
M  V30 724 H 66.2805 -1.74542 -2.73323 0
M  V30 725 H 66.0655 -3.36613 -2.01083 0
M  V30 726 H 67.5555 -2.98201 -2.92346 0
M  V30 727 N 67.9926 0.231505 -1.5589 0
M  V30 728 C 68.9556 1.27028 -1.90779 0
M  V30 729 C 69.9556 1.40308 -0.785507 0
M  V30 730 O 71.1456 1.38744 -1.05336 0
M  V30 731 C 68.2776 2.64566 -2.14983 0
M  V30 732 H 69.4706 0.973017 -2.83677 0
M  V30 733 H 67.0236 0.471486 -1.49019 0
M  V30 734 H 67.7586 2.99406 -1.24604 0
M  V30 735 H 67.5436 2.56305 -2.96732 0
M  V30 736 H 69.0336 3.39543 -2.43105 0
M  V30 737 N 69.4707 1.49531 0.497807 0
M  V30 738 C 70.7197 1.58426 1.24837 0
M  V30 739 C 71.0327 0.277643 1.93619 0
M  V30 740 O 72.2387 0.24517 2.70391 0
M  V30 741 C 70.6947 2.79538 2.26686 0
M  V30 742 C 70.3027 4.16971 1.63828 0
M  V30 743 C 72.0467 2.97764 3.0255 0
M  V30 744 C 69.9537 5.29301 2.63807 0
M  V30 745 H 68.8837 0.58989 0.469623 0
M  V30 746 H 71.5347 1.75923 0.521857 0
M  V30 747 H 69.9167 2.55542 3.02514 0
M  V30 748 H 71.0907 4.51116 0.939711 0
M  V30 749 H 69.4057 4.04129 1.00342 0
M  V30 750 H 72.0027 3.78856 3.77323 0
M  V30 751 H 72.3457 2.08448 3.60354 0
M  V30 752 H 72.8787 3.21815 2.33838 0
M  V30 753 H 69.6177 6.20687 2.10779 0
M  V30 754 H 69.1377 4.99606 3.31894 0
M  V30 755 H 70.8167 5.58768 3.2617 0
M  V30 756 N 70.9488 -0.749086 1.3866 0
M  V30 757 C 72.1948 -1.51056 1.35314 0
M  V30 758 C 72.5278 -1.94121 -0.0553751 0
M  V30 759 O 71.8028 -1.65763 -1.01749 0
M  V30 760 C 72.0858 -2.76003 2.31288 0
M  V30 761 C 71.9388 -2.39047 3.8102 0
M  V30 762 C 73.2578 -3.78046 2.2532 0
M  V30 763 H 70.3768 -0.547972 0.492844 0
M  V30 764 H 73.0188 -0.857628 1.69543 0
M  V30 765 H 71.1688 -3.31716 2.02229 0
M  V30 766 H 72.8408 -1.89074 4.20771 0
M  V30 767 H 71.0838 -1.71449 3.98482 0
M  V30 768 H 71.7548 -3.28462 4.4364 0
M  V30 769 H 74.2308 -3.31884 2.50983 0
M  V30 770 H 73.1068 -4.63159 2.94576 0
M  V30 771 H 73.3678 -4.23957 1.25352 0
M  V30 772 N 72.4269 -1.23603 -0.977757 0
M  V30 773 C 73.6569 -1.09487 -1.75203 0
M  V30 774 C 74.0649 0.356321 -1.85814 0
M  V30 775 O 73.4079 1.25816 -1.33851 0
M  V30 776 C 73.4699 -1.64905 -3.19447 0
M  V30 777 C 73.1339 -3.13688 -3.32338 0
M  V30 778 C 74.1309 -4.10953 -3.18455 0
M  V30 779 C 71.8159 -3.53449 -3.56902 0
M  V30 780 C 73.8099 -5.45962 -3.28944 0
M  V30 781 C 71.4969 -4.88602 -3.6703 0
M  V30 782 C 72.4949 -5.84668 -3.53062 0
M  V30 783 O 72.1829 -7.17365 -3.62826 0
M  V30 784 H 71.9149 -0.38367 -0.556573 0
M  V30 785 H 74.4689 -1.6398 -1.23693 0
M  V30 786 H 72.6989 -1.04835 -3.72218 0
M  V30 787 H 74.3879 -1.46226 -3.78646 0
M  V30 788 H 75.1539 -3.81577 -2.99372 0
M  V30 789 H 71.0329 -2.79188 -3.66844 0
M  V30 790 H 74.5769 -6.20925 -3.17958 0
M  V30 791 H 70.4739 -5.17653 -3.85623 0
M  V30 792 H 71.2419 -7.2515 -3.79605 0
M  V30 793 N 73.905 1.17692 -1.04816 0
M  V30 794 C 74.835 2.23777 -0.666791 0
M  V30 795 C 75.816 1.66796 0.33361 0
M  V30 796 O 77.001 1.93039 0.212042 0
M  V30 797 C 74.131 3.47281 -0.0367933 0
M  V30 798 C 73.085 4.17059 -0.961546 0
M  V30 799 C 72.411 5.34342 -0.195626 0
M  V30 800 C 73.711 4.69713 -2.28402 0
M  V30 801 H 75.405 2.55933 -1.55367 0
M  V30 802 H 72.951 1.23019 -0.748484 0
M  V30 803 H 74.904 4.20706 0.241775 0
M  V30 804 H 73.628 3.14381 0.885004 0
M  V30 805 H 72.287 3.45541 -1.22462 0
M  V30 806 H 71.935 4.97692 0.728816 0
M  V30 807 H 71.635 5.81966 -0.811775 0
M  V30 808 H 73.159 6.10553 0.0757473 0
M  V30 809 H 74.573 5.34794 -2.06563 0
M  V30 810 H 72.97 5.279 -2.8538 0
M  V30 811 H 74.04 3.86726 -2.92525 0
M  V30 812 N 75.3831 0.828654 1.34056 0
M  V30 813 C 76.6131 0.431993 2.02033 0
M  V30 814 C 77.0211 -0.96844 1.62536 0
M  V30 815 O 76.3641 -1.6391 0.829408 0
M  V30 816 C 76.4261 0.461224 3.56529 0
M  V30 817 C 76.0901 1.81599 4.1937 0
M  V30 818 C 77.0871 2.7777 4.39477 0
M  V30 819 C 74.7721 2.10604 4.56017 0
M  V30 820 C 76.7661 4.01115 4.95364 0
M  V30 821 C 74.4531 3.34207 5.11614 0
M  V30 822 C 75.4511 4.2928 5.31232 0
M  V30 823 O 75.1391 5.50699 5.8565 0
M  V30 824 H 74.8711 0.170943 0.654029 0
M  V30 825 H 77.4251 1.11988 1.72185 0
M  V30 826 H 75.6551 -0.283388 3.8566 0
M  V30 827 H 77.3441 0.0838149 4.05813 0
M  V30 828 H 78.1101 2.56659 4.11523 0
M  V30 829 H 73.9891 1.37402 4.40047 0
M  V30 830 H 77.5331 4.75333 5.10592 0
M  V30 831 H 73.4301 3.55179 5.38997 0
M  V30 832 H 74.1981 5.52298 6.04077 0
M  V30 833 N 76.8612 -1.46375 0.584142 0
M  V30 834 C 78.2772 -1.57694 0.245929 0
M  V30 835 C 78.4772 -1.57903 -1.25175 0
M  V30 836 O 77.5332 -1.49676 -2.03355 0
M  V30 837 C 78.8462 -2.87028 0.896402 0
M  V30 838 C 80.3942 -3.00662 0.870127 0
M  V30 839 C 80.8692 -4.32734 1.50017 0
M  V30 840 N 82.3602 -4.39436 1.46458 0
M  V30 841 C 83.0952 -5.40248 1.92144 0
M  V30 842 N 82.5912 -6.47726 2.4581 0
M  V30 843 N 84.3842 -5.31459 1.83052 0
M  V30 844 H 76.5352 -1.44483 1.55687 0
M  V30 845 H 78.7982 -0.689291 0.650831 0
M  V30 846 H 78.5042 -2.9269 1.95002 0
M  V30 847 H 78.3782 -3.75014 0.405486 0
M  V30 848 H 80.7652 -2.94581 -0.174871 0
M  V30 849 H 80.8462 -2.14148 1.39908 0
M  V30 850 H 80.4902 -4.39573 2.54437 0
M  V30 851 H 80.4202 -5.18025 0.946432 0
M  V30 852 H 82.9112 -3.62367 1.07231 0
M  V30 853 H 83.2242 -7.20863 2.78525 0
M  V30 854 H 81.5692 -6.48542 2.49836 0
M  V30 855 H 84.7602 -4.46396 1.40883 0
M  V30 856 H 84.9332 -6.09881 2.18973 0
M  V30 857 N 78.3393 -0.321999 -1.54275 0
M  V30 858 C 79.2863 0.544664 -2.24281 0
M  V30 859 C 80.2563 1.1129 -1.23303 0
M  V30 860 O 81.4413 1.15354 -1.51981 0
M  V30 861 C 78.5813 1.70045 -3.00298 0
M  V30 862 C 77.6943 1.16159 -4.1609 0
M  V30 863 C 76.8293 2.28293 -4.79641 0
M  V30 864 C 75.8683 1.71648 -5.8754 0
M  V30 865 N 75.0053 2.77438 -6.44959 0
M  V30 866 H 79.8453 -0.0588907 -2.97942 0
M  V30 867 H 77.3823 -0.0408345 -1.47043 0
M  V30 868 H 79.3403 2.38054 -3.42616 0
M  V30 869 H 77.9703 2.27531 -2.28975 0
M  V30 870 H 77.0223 0.373092 -3.78566 0
M  V30 871 H 78.3343 0.707087 -4.93763 0
M  V30 872 H 77.4883 3.0421 -5.2492 0
M  V30 873 H 76.2273 2.77079 -4.01346 0
M  V30 874 H 75.2323 0.942282 -5.41665 0
M  V30 875 H 76.4573 1.23741 -6.67731 0
M  V30 876 H 74.4033 3.25519 -5.69538 0
M  V30 877 H 74.3203 2.36547 -7.1804 0
M  V30 878 H 75.5883 3.53189 -6.94894 0
M  V30 879 N 79.8174 1.5752 -0.0501392 0
M  V30 880 C 81.0664 1.91827 0.623328 0
M  V30 881 C 81.3794 0.930222 1.72065 0
M  V30 882 O 82.5854 1.1653 2.4522 0
M  V30 883 C 81.0414 3.40692 1.16003 0
M  V30 884 C 80.6494 4.479 0.0948811 0
M  V30 885 C 82.3934 3.84034 1.80881 0
M  V30 886 C 80.3004 5.87879 0.644411 0
M  V30 887 H 79.2304 0.715918 0.236596 0
M  V30 888 H 81.8814 1.83115 -0.118861 0
M  V30 889 H 80.2634 3.44405 1.9545 0
M  V30 890 H 81.4374 4.55775 -0.678675 0
M  V30 891 H 79.7524 4.13892 -0.45637 0
M  V30 892 H 82.3494 4.85984 2.22988 0
M  V30 893 H 82.6924 3.20225 2.6601 0
M  V30 894 H 83.2254 3.82833 1.0809 0
M  V30 895 H 79.9644 6.55282 -0.169229 0
M  V30 896 H 79.4844 5.83567 1.38598 0
M  V30 897 H 81.1634 6.37098 1.12763 0
M  V30 898 N 81.2955 -0.223234 1.56011 0
M  V30 899 C 82.5255 -0.963413 1.82762 0
M  V30 900 C 82.9335 -1.78516 0.626804 0
M  V30 901 O 82.2765 -1.78974 -0.414014 0
M  V30 902 C 82.3385 -1.93126 3.0322 0
M  V30 903 C 82.0025 -1.2942 4.38291 0
M  V30 904 C 82.9995 -0.684916 5.15369 0
M  V30 905 C 80.6845 -1.30647 4.85012 0
M  V30 906 C 82.6785 -0.0963971 6.37327 0
M  V30 907 C 80.3655 -0.71411 6.06913 0
M  V30 908 C 81.3635 -0.110123 6.82911 0
M  V30 909 O 81.0515 0.47303 8.02507 0
M  V30 910 H 80.7835 -0.288011 0.611576 0
M  V30 911 H 83.3375 -0.244103 2.03944 0
M  V30 912 H 81.5675 -2.68952 2.77852 0
M  V30 913 H 83.2565 -2.53685 3.16857 0
M  V30 914 H 84.0225 -0.667774 4.80381 0
M  V30 915 H 79.9015 -1.76598 4.25833 0
M  V30 916 H 83.4455 0.375657 6.96588 0
M  V30 917 H 79.3425 -0.728659 6.41374 0
M  V30 918 H 80.1105 0.367186 8.17676 0
M  V30 919 N 82.7736 -1.49793 -0.48987 0
M  V30 920 C 84.1846 -1.52914 -1.07118 0
M  V30 921 C 84.5356 -0.321738 -1.93544 0
M  V30 922 O 83.6606 0.567338 -2.08831 0
M  V30 923 C 84.2556 -2.771 -1.94938 0
M  V30 924 C 82.8146 -2.82963 -2.48212 0
M  V30 925 C 81.9616 -2.46972 -1.26096 0
M  V30 926 H 84.9126 -1.56329 -0.273289 0
M  V30 927 H 84.9336 -2.57892 -2.79771 0
M  V30 928 H 84.4456 -3.64959 -1.32009 0
M  V30 929 H 82.5466 -1.99411 -3.14748 0
M  V30 930 H 82.6596 -3.85406 -2.84603 0
M  V30 931 H 81.0236 -1.98994 -1.58976 0
M  V30 932 H 81.8066 -3.37118 -0.648581 0
M  V30 933 N 84.2517 0.741722 -1.39055 0
M  V30 934 C 85.1617 1.88621 -1.39496 0
M  V30 935 C 86.1777 1.71557 -0.290578 0
M  V30 936 O 87.3537 1.94275 -0.530954 0
M  V30 937 C 84.4187 3.24134 -1.23037 0
M  V30 938 C 83.4797 3.5364 -2.43387 0
M  V30 939 C 82.7127 4.82687 -2.27703 0
M  V30 940 O 82.9357 5.55922 -1.27696 0
M  V30 941 O 81.8697 5.1194 -3.16545 0
M  V30 942 H 85.6957 1.91203 -2.35956 0
M  V30 943 H 83.2807 0.888625 -1.20099 0
M  V30 944 H 85.1627 4.0513 -1.15964 0
M  V30 945 H 83.8377 3.22337 -0.296691 0
M  V30 946 H 82.7447 2.72758 -2.56035 0
M  V30 947 H 84.0777 3.60209 -3.35425 0
M  V30 948 N 85.7298 1.2412 0.971189 0
M  V30 949 C 86.9758 1.08041 1.71625 0
M  V30 950 C 87.3088 -0.380407 1.90438 0
M  V30 951 O 86.5838 -1.28127 1.46334 0
M  V30 952 C 86.8668 1.81682 3.10908 0
M  V30 953 C 86.7198 3.35493 2.99608 0
M  V30 954 C 88.0388 1.58671 4.10501 0
M  V30 955 H 85.1578 0.39388 0.622919 0
M  V30 956 H 87.7998 1.52743 1.13003 0
M  V30 957 H 85.9498 1.43684 3.60953 0
M  V30 958 H 87.6218 3.83068 2.57015 0
M  V30 959 H 85.8648 3.64052 2.35899 0
M  V30 960 H 86.5358 3.82217 3.98264 0
M  V30 961 H 89.0118 1.91719 3.69301 0
M  V30 962 H 87.8878 2.1266 5.06031 0
M  V30 963 H 88.1488 0.524161 4.38982 0
M  V30 964 N 87.2079 -1.17134 1.05439 0
M  V30 965 C 88.4539 -1.87733 0.767077 0
M  V30 966 C 88.7869 -1.8098 -0.704253 0
M  V30 967 O 88.0619 -1.21951 -1.5152 0
M  V30 968 C 88.3449 -3.37659 1.25133 0
M  V30 969 C 88.1979 -3.53149 2.78578 0
M  V30 970 C 89.5169 -4.31768 0.852324 0
M  V30 971 H 86.6359 -0.681687 0.280129 0
M  V30 972 H 89.2779 -1.37732 1.30881 0
M  V30 973 H 87.4279 -3.80373 0.790469 0
M  V30 974 H 89.0999 -3.19434 3.32806 0
M  V30 975 H 87.3429 -2.95345 3.17732 0
M  V30 976 H 88.0139 -4.58403 3.07523 0
M  V30 977 H 90.4899 -3.96909 1.24911 0
M  V30 978 H 89.3659 -5.35199 1.21873 0
M  V30 979 H 89.6269 -4.41429 -0.243485 0
M  V30 980 N 88.686 -0.835752 -1.33615 0
M  V30 981 C 89.649 -0.272 -2.2758 0
M  V30 982 C 90.649 0.557487 -1.50827 0
M  V30 983 O 91.839 0.37173 -1.70188 0
M  V30 984 C 88.971 0.617173 -3.35267 0
M  V30 985 H 90.164 -1.10111 -2.78954 0
M  V30 986 H 87.717 -0.608594 -1.43965 0
M  V30 987 H 88.452 1.46884 -2.89129 0
M  V30 988 H 88.237 0.0237066 -3.92093 0
M  V30 989 H 89.727 1.005 -4.05326 0
M  V30 990 N 90.1641 1.46063 -0.591896 0
M  V30 991 C 91.0961 2.28539 0.174001 0
M  V30 992 C 92.1091 1.39047 0.846753 0
M  V30 993 O 93.2981 1.63564 0.714774 0
M  V30 994 C 90.3981 3.14347 1.26645 0
M  V30 995 C 89.5711 4.32021 0.683856 0
M  V30 996 C 88.6301 4.99157 1.66518 0
M  V30 997 O 87.6561 5.56458 1.19763 0
M  V30 998 N 88.8581 4.97005 2.99943 0
M  V30 999 H 91.6231 2.94911 -0.533633 0
M  V30 1000 H 89.1841 1.56077 -0.430294 0
M  V30 1001 H 91.1761 3.56125 1.92242 0
M  V30 1002 H 89.7461 2.49988 1.87682 0
M  V30 1003 H 88.9661 3.93915 -0.1498 0
M  V30 1004 H 90.2541 5.08059 0.274567 0
M  V30 1005 H 89.6521 4.51714 3.40545 0
M  V30 1006 H 88.2091 5.42696 3.61004 0
M  V30 1007 N 91.6422 0.330177 1.54103 0
M  V30 1008 C 92.5902 -0.548226 2.26047 0
M  V30 1009 C 93.5842 -1.11309 1.27698 0
M  V30 1010 O 94.7902 -1.06036 1.45452 0
M  V30 1011 H 91.1652 -0.195456 0.726155 0
M  V30 1012 H 93.1362 0.0807567 2.98291 0
M  V30 1013 C 91.8852 -1.69415 3.03634 0
M  V30 1014 H 91.2082 -1.26876 3.79134 0
M  V30 1015 H 92.6482 -2.28423 3.5721 0
M  V30 1016 C 91.1072 -2.61569 2.12328 0
M  V30 1017 O 91.6372 -3.63462 1.7105 0
M  V30 1018 N 89.8432 -2.29952 1.77681 0
M  V30 1019 H 89.3902 -1.47134 2.11446 0
M  V30 1020 H 89.3482 -2.91871 1.16869 0
M  V30 1021 N 93.1203 -1.57491 0.0584922 0
M  V30 1022 C 94.5363 -1.56792 -0.298091 0
M  V30 1023 C 94.7363 -1.06679 -1.70944 0
M  V30 1024 O 93.7923 -0.726672 -2.41818 0
M  V30 1025 C 95.1053 -3.00461 -0.119879 0
M  V30 1026 C 96.6533 -3.1242 -0.190428 0
M  V30 1027 C 97.1283 -4.57982 -0.0406567 0
M  V30 1028 N 98.6193 -4.63099 -0.0966958 0
M  V30 1029 C 99.3543 -5.734 -0.00502943 0
M  V30 1030 N 98.8503 -6.9266 0.139402 0
M  V30 1031 N 100.643 -5.62067 -0.0611391 0
M  V30 1032 H 92.7943 -1.88386 0.98105 0
M  V30 1033 H 95.0573 -0.867865 0.381463 0
M  V30 1034 H 94.7633 -3.41187 0.85349 0
M  V30 1035 H 94.6373 -3.66843 -0.877833 0
M  V30 1036 H 97.0243 -2.71589 -1.15427 0
M  V30 1037 H 97.1053 -2.48702 0.598405 0
M  V30 1038 H 96.7493 -4.995 0.919897 0
M  V30 1039 H 96.6793 -5.19715 -0.848727 0
M  V30 1040 H 99.1703 -3.77331 -0.207277 0
M  V30 1041 H 99.4833 -7.72536 0.201855 0
M  V30 1042 H 97.8283 -6.94781 0.174586 0
M  V30 1043 H 101.019 -4.67782 -0.172583 0
M  V30 1044 H 101.192 -6.47999 0.0137562 0
M  V30 1045 N 94.5984 0.214957 -1.56127 0
M  V30 1046 C 95.8264 0.955092 -1.83536 0
M  V30 1047 C 96.2414 1.77677 -0.638472 0
M  V30 1048 O 95.5984 1.78219 0.392968 0
M  V30 1049 C 95.6494 1.86734 -3.09536 0
M  V30 1050 O 95.3704 1.07887 -4.24608 0
M  V30 1051 C 96.8714 2.72082 -3.4998 0
M  V30 1052 H 94.0914 0.279611 -0.609966 0
M  V30 1053 H 96.6354 0.228197 -2.03223 0
M  V30 1054 H 94.7904 2.5481 -2.91806 0
M  V30 1055 H 95.2044 1.69872 -4.9623 0
M  V30 1056 H 96.6784 3.31782 -4.41163 0
M  V30 1057 H 97.1554 3.44806 -2.7204 0
M  V30 1058 H 97.7614 2.09409 -3.70173 0
M  V30 1059 N 96.0765 1.50051 0.48192 0
M  V30 1060 C 97.0085 1.64263 1.59844 0
M  V30 1061 C 98.0215 0.52451 1.54119 0
M  V30 1062 O 99.2105 0.797293 1.59704 0
M  V30 1063 C 96.3105 1.60102 2.98698 0
M  V30 1064 C 95.4835 2.87767 3.29407 0
M  V30 1065 C 94.5425 2.76397 4.47762 0
M  V30 1066 O 93.5685 3.50348 4.48603 0
M  V30 1067 N 94.7705 1.89222 5.48794 0
M  V30 1068 H 97.5355 2.60566 1.48073 0
M  V30 1069 H 95.0965 1.47379 0.670149 0
M  V30 1070 H 97.0885 1.50123 3.75826 0
M  V30 1071 H 95.6585 0.715798 3.04294 0
M  V30 1072 H 94.8785 3.11954 2.40994 0
M  V30 1073 H 96.1665 3.72365 3.4673 0
M  V30 1074 H 95.5645 1.28434 5.50928 0
M  V30 1075 H 94.1215 1.85154 6.24949 0
M  V30 1076 N 97.5546 -0.734337 1.39446 0
M  V30 1077 C 98.7796 -1.52866 1.40167 0
M  V30 1078 C 99.2046 -1.881 -0.00171513 0
M  V30 1079 O 98.5626 -1.51957 -0.988879 0
M  V30 1080 C 98.6106 -2.79235 2.28167 0
M  V30 1081 O 97.7146 -3.75185 1.71201 0
M  V30 1082 H 97.0556 -0.461618 0.477289 0
M  V30 1083 H 99.5856 -0.905949 1.8345 0
M  V30 1084 H 99.5956 -3.27963 2.42702 0
M  V30 1085 H 98.2706 -2.52923 3.30156 0
M  V30 1086 H 96.8476 -3.33958 1.65912 0
M  V30 1087 N 99.0327 -1.24633 -0.964593 0
M  V30 1088 C 100.258 -1.11596 -1.74818 0
M  V30 1089 C 100.683 0.32723 -1.85232 0
M  V30 1090 O 100.041 1.23695 -1.32549 0
M  V30 1091 C 100.089 -1.76397 -3.1451 0
M  V30 1092 O 99.1927 -1.03685 -3.99153 0
M  V30 1093 H 98.5337 -0.390196 -0.537255 0
M  V30 1094 H 101.064 -1.65002 -1.20977 0
M  V30 1095 H 101.074 -1.8228 -3.65018 0
M  V30 1096 H 99.7487 -2.81401 -3.06246 0
M  V30 1097 H 98.3257 -1.05611 -3.57632 0
M  V30 1098 N 100.511 1.16574 -1.06058 0
M  V30 1099 C 101.441 2.23057 -0.690488 0
M  V30 1100 C 102.422 1.67141 0.315901 0
M  V30 1101 O 103.607 1.93253 0.191556 0
M  V30 1102 C 100.737 3.47222 -0.073625 0
M  V30 1103 C 99.6908 4.16016 -1.00573 0
M  V30 1104 C 99.0168 5.34104 -0.252289 0
M  V30 1105 C 100.317 4.67264 -2.33371 0
M  V30 1106 H 102.011 2.54271 -1.58072 0
M  V30 1107 H 99.5568 1.22218 -0.76149 0
M  V30 1108 H 101.51 4.20939 0.19714 0
M  V30 1109 H 100.234 3.15302 0.85161 0
M  V30 1110 H 98.8928 3.44223 -1.2612 0
M  V30 1111 H 98.5408 4.98437 0.675988 0
M  V30 1112 H 98.2408 5.81072 -0.873455 0
M  V30 1113 H 99.7648 6.10599 0.0109857 0
M  V30 1114 H 101.179 5.32573 -2.12223 0
M  V30 1115 H 99.5758 5.24843 -2.90963 0
M  V30 1116 H 100.646 3.83602 -2.96611 0
M  V30 1117 N 101.989 0.842826 1.3317 0
M  V30 1118 C 102.919 0.294028 2.31641 0
M  V30 1119 C 103.9 -0.600401 1.59151 0
M  V30 1120 O 105.085 -0.523124 1.87022 0
M  V30 1121 C 102.215 -0.528416 3.43257 0
M  V30 1122 C 101.169 0.27056 4.27144 0
M  V30 1123 C 100.495 -0.675881 5.30411 0
M  V30 1124 C 101.795 1.48981 5.00602 0
M  V30 1125 H 103.489 1.11681 2.77791 0
M  V30 1126 H 101.035 0.538478 1.33553 0
M  V30 1127 H 102.988 -0.922674 4.11175 0
M  V30 1128 H 101.712 -1.38445 2.95805 0
M  V30 1129 H 100.371 0.646427 3.60856 0
M  V30 1130 H 100.019 -1.52842 4.79216 0
M  V30 1131 H 99.7189 -0.145374 5.8742 0
M  V30 1132 H 101.243 -1.06757 6.01195 0
M  V30 1133 H 102.657 1.16849 5.61266 0
M  V30 1134 H 101.054 1.95739 5.6728 0
M  V30 1135 H 102.124 2.25746 4.29147 0
M  V30 1136 N 103.467 -1.45747 0.599634 0
M  V30 1137 C 104.695 -2.06668 0.0978551 0
M  V30 1138 C 105.11 -1.44562 -1.21439 0
M  V30 1139 O 104.467 -0.556923 -1.73795 0
M  V30 1140 C 104.518 -3.61456 -0.0567044 0
M  V30 1141 O 104.239 -4.21242 1.20361 0
M  V30 1142 C 105.74 -4.39345 -0.590869 0
M  V30 1143 H 102.96 -0.667825 0.0651943 0
M  V30 1144 H 105.504 -1.87115 0.82511 0
M  V30 1145 H 103.659 -3.80378 -0.734251 0
M  V30 1146 H 104.073 -5.14323 1.02821 0
M  V30 1147 H 105.547 -5.48182 -0.648131 0
M  V30 1148 H 106.024 -4.08568 -1.61147 0
M  V30 1149 H 106.63 -4.25268 0.0523679 0
M  V30 1150 N 104.945 -0.338344 -1.53925 0
M  V30 1151 C 105.875 0.51328 -2.27789 0
M  V30 1152 C 106.856 1.107 -1.29149 0
M  V30 1153 O 108.041 1.12937 -1.57984 0
M  V30 1154 C 105.171 1.66697 -3.04679 0
M  V30 1155 C 104.125 1.20183 -4.1078 0
M  V30 1156 C 103.451 2.44363 -4.75595 0
M  V30 1157 C 104.751 0.30605 -5.21403 0
M  V30 1158 H 106.445 -0.102883 -2.99223 0
M  V30 1159 H 103.991 -0.0509219 -1.4391 0
M  V30 1160 H 105.944 2.26915 -3.55088 0
M  V30 1161 H 104.668 2.30995 -2.30887 0
M  V30 1162 H 103.327 0.622499 -3.61276 0
M  V30 1163 H 102.975 3.07057 -3.98403 0
M  V30 1164 H 102.675 2.13925 -5.47275 0
M  V30 1165 H 104.199 3.05317 -5.28786 0
M  V30 1166 H 105.613 0.814929 -5.67478 0
M  V30 1167 H 104.01 0.0937929 -6.00027 0
M  V30 1168 H 105.08 -0.65921 -4.80398 0
M  V30 1169 N 106.423 1.57458 -0.0668435 0
M  V30 1170 C 107.653 1.97337 0.611677 0
M  V30 1171 C 108.061 0.943744 1.63982 0
M  V30 1172 O 107.404 -0.0785584 1.83532 0
M  V30 1173 C 107.466 3.33511 1.34205 0
M  V30 1174 C 107.13 4.54598 0.467941 0
M  V30 1175 C 108.127 5.19186 -0.272439 0
M  V30 1176 C 105.812 5.0075 0.39427 0
M  V30 1177 C 107.806 6.28274 -1.07476 0
M  V30 1178 C 105.493 6.09711 -0.411729 0
M  V30 1179 C 106.491 6.73335 -1.14492 0
M  V30 1180 O 106.179 7.80199 -1.93763 0
M  V30 1181 H 105.911 0.654042 0.170893 0
M  V30 1182 H 108.465 2.04961 -0.134289 0
M  V30 1183 H 106.695 3.22487 2.13398 0
M  V30 1184 H 108.384 3.58029 1.91233 0
M  V30 1185 H 109.15 4.84477 -0.225086 0
M  V30 1186 H 105.029 4.51009 0.954569 0
M  V30 1187 H 108.573 6.77866 -1.64755 0
M  V30 1188 H 104.47 6.43854 -0.460664 0
M  V30 1189 H 105.238 7.97053 -1.86142 0
M  V30 1190 N 107.901 -0.206675 1.56239 0
M  V30 1191 C 108.831 -1.25909 1.96645 0
M  V30 1192 C 109.812 -1.48097 0.836734 0
M  V30 1193 O 110.997 -1.6003 1.10019 0
M  V30 1194 C 108.127 -2.6058 2.29599 0
M  V30 1195 C 107.081 -2.53024 3.452 0
M  V30 1196 C 106.407 -3.91861 3.63798 0
M  V30 1197 C 107.707 -2.06524 4.79734 0
M  V30 1198 H 109.401 -0.923369 2.84806 0
M  V30 1199 H 106.947 -0.442735 1.37025 0
M  V30 1200 H 108.9 -3.34375 2.56459 0
M  V30 1201 H 107.624 -2.95869 1.38307 0
M  V30 1202 H 106.283 -1.81684 3.18412 0
M  V30 1203 H 105.931 -4.24483 2.69857 0
M  V30 1204 H 105.631 -3.87683 4.4156 0
M  V30 1205 H 107.155 -4.67296 3.93022 0
M  V30 1206 H 108.569 -2.70072 5.05702 0
M  V30 1207 H 106.966 -2.13374 5.60885 0
M  V30 1208 H 108.036 -1.01802 4.74093 0
M  V30 1209 N 109.379 -1.50304 -0.473955 0
M  V30 1210 C 110.289 -1.7174 -1.5982 0
M  V30 1211 C 111.305 -0.600457 -1.63311 0
M  V30 1212 O 112.481 -0.878441 -1.81233 0
M  V30 1213 C 109.546 -1.80427 -2.96052 0
M  V30 1214 C 108.607 -3.04148 -3.02972 0
M  V30 1215 C 107.84 -3.12411 -4.32706 0
M  V30 1216 O 108.063 -2.27542 -5.23049 0
M  V30 1217 O 106.997 -4.05113 -4.45159 0
M  V30 1218 H 110.823 -2.67035 -1.44657 0
M  V30 1219 H 108.408 -1.34366 -0.653148 0
M  V30 1220 H 110.29 -1.88338 -3.7697 0
M  V30 1221 H 108.965 -0.883156 -3.11419 0
M  V30 1222 H 107.872 -3.0174 -2.21142 0
M  V30 1223 H 109.205 -3.95829 -2.92541 0
M  V30 1224 N 110.857 0.726932 -1.39834 0
M  V30 1225 C 111.79 1.8501 -1.33592 0
M  V30 1226 C 112.768 1.61262 -0.208191 0
M  V30 1227 O 113.952 1.84422 -0.389981 0
M  V30 1228 C 111.079 3.21143 -1.07633 0
M  V30 1229 C 110.125 3.63737 -2.22705 0
M  V30 1230 S 110.958 3.72167 -3.85035 0
M  V30 1231 C 112.114 5.11077 -3.61318 0
M  V30 1232 H 112.347 1.90022 -2.28646 0
M  V30 1233 H 109.88 0.892595 -1.25985 0
M  V30 1234 H 111.838 3.99747 -0.933415 0
M  V30 1235 H 110.499 3.13776 -0.142526 0
M  V30 1236 H 109.692 4.62551 -2.00155 0
M  V30 1237 H 109.294 2.9236 -2.33242 0
M  V30 1238 H 111.586 5.97656 -3.19083 0
M  V30 1239 H 112.529 5.38658 -4.59623 0
M  V30 1240 H 112.937 4.81135 -2.95245 0
M  V30 1241 N 112.336 1.25143 0.95797 0
M  V30 1242 C 113.266 1.07711 2.07173 0
M  V30 1243 C 114.247 -0.0128462 1.70095 0
M  V30 1244 O 115.432 0.156061 1.93572 0
M  V30 1245 C 112.562 0.691503 3.40346 0
M  V30 1246 C 111.516 1.73132 3.9142 0
M  V30 1247 C 110.842 1.20049 5.21049 0
M  V30 1248 C 112.142 3.1294 4.1817 0
M  V30 1249 H 113.836 2.00873 2.22014 0
M  V30 1250 H 111.382 0.967191 1.06684 0
M  V30 1251 H 113.335 0.556505 4.17709 0
M  V30 1252 H 112.059 -0.275819 3.25433 0
M  V30 1253 H 110.718 1.8547 3.16222 0
M  V30 1254 H 110.366 0.223499 5.02503 0
M  V30 1255 H 110.066 1.89545 5.56189 0
M  V30 1256 H 111.59 1.07782 6.01012 0
M  V30 1257 H 113.004 3.03775 4.86203 0
M  V30 1258 H 111.401 3.79875 4.64559 0
M  V30 1259 H 112.471 3.6025 3.24573 0
M  V30 1260 N 113.814 -1.1601 1.06675 0
M  V30 1261 C 114.744 -2.22688 0.702307 0
M  V30 1262 C 115.725 -1.67306 -0.307032 0
M  V30 1263 O 116.91 -1.93352 -0.181305 0
M  V30 1264 C 114.04 -3.47178 0.092038 0
M  V30 1265 C 112.994 -4.15477 1.02777 0
M  V30 1266 C 112.32 -5.33963 0.28061 0
M  V30 1267 C 113.62 -4.66019 2.35846 0
M  V30 1268 H 115.314 -2.53429 1.59419 0
M  V30 1269 H 112.86 -1.21813 0.767961 0
M  V30 1270 H 114.813 -4.21037 -0.174814 0
M  V30 1271 H 113.537 -3.15749 -0.834877 0
M  V30 1272 H 112.196 -3.43549 1.27944 0
M  V30 1273 H 111.844 -4.98788 -0.649545 0
M  V30 1274 H 111.544 -5.806 0.904258 0
M  V30 1275 H 113.068 -6.10596 0.021396 0
M  V30 1276 H 114.482 -5.3144 2.15045 0
M  V30 1277 H 112.879 -5.23293 2.93743 0
M  V30 1278 H 113.949 -3.82023 2.98641 0
M  V30 1279 N 115.292 -0.849877 -1.32721 0
M  V30 1280 C 116.239 -0.289033 -2.28983 0
M  V30 1281 C 117.209 0.601324 -1.54833 0
M  V30 1282 O 118.394 0.537253 -1.8308 0
M  V30 1283 C 115.534 0.520623 -3.4115 0
M  V30 1284 C 114.647 -0.394989 -4.3019 0
M  V30 1285 C 113.782 0.426834 -5.29482 0
M  V30 1286 C 112.821 -0.486476 -6.10164 0
M  V30 1287 N 111.958 0.297879 -7.01468 0
M  V30 1288 H 116.798 -1.11519 -2.76347 0
M  V30 1289 H 114.335 -0.56138 -1.35967 0
M  V30 1290 H 116.293 1.00563 -4.04899 0
M  V30 1291 H 114.923 1.31165 -2.9495 0
M  V30 1292 H 113.975 -0.99836 -3.67065 0
M  V30 1293 H 115.287 -1.09612 -4.86607 0
M  V30 1294 H 114.441 0.975205 -5.98811 0
M  V30 1295 H 113.18 1.16136 -4.73671 0
M  V30 1296 H 112.185 -1.04677 -5.39743 0
M  V30 1297 H 113.41 -1.21953 -6.6806 0
M  V30 1298 H 111.356 1.01558 -6.48091 0
M  V30 1299 H 111.273 -0.344318 -7.55216 0
M  V30 1300 H 112.541 0.828131 -7.75089 0
M  V30 1301 N 116.77 1.45427 -0.607355 0
M  V30 1302 C 117.733 2.28974 0.101693 0
M  V30 1303 C 118.733 1.39754 0.795329 0
M  V30 1304 O 119.923 1.61878 0.643527 0
M  V30 1305 C 117.055 3.20768 1.15414 0
M  V30 1306 H 118.248 2.93147 -0.632844 0
M  V30 1307 H 115.801 1.51945 -0.366391 0
M  V30 1308 H 116.536 2.61395 1.91945 0
M  V30 1309 H 116.321 3.86489 0.66098 0
M  V30 1310 H 117.811 3.83589 1.65073 0
M  V30 1311 N 118.248 0.346503 1.53744 0
M  V30 1312 C 119.178 -0.501193 2.28058 0
M  V30 1313 C 120.159 -1.10014 1.29734 0
M  V30 1314 O 121.344 -1.12097 1.58581 0
M  V30 1315 C 118.474 -1.65078 3.05559 0
M  V30 1316 C 117.428 -1.18003 4.11411 0
M  V30 1317 C 116.754 -2.41837 4.76884 0
M  V30 1318 C 118.054 -0.278394 5.21558 0
M  V30 1319 H 119.748 0.11875 2.99164 0
M  V30 1320 H 117.294 0.0585531 1.43881 0
M  V30 1321 H 119.247 -2.25028 3.56287 0
M  V30 1322 H 117.971 -2.29767 2.32109 0
M  V30 1323 H 116.63 -0.603331 3.61601 0
M  V30 1324 H 116.278 -3.0494 4.00026 0
M  V30 1325 H 115.978 -2.1102 5.48402 0
M  V30 1326 H 117.502 -3.02508 5.30397 0
M  V30 1327 H 118.916 -0.784823 5.67903 0
M  V30 1328 H 117.313 -0.0619707 6.00068 0
M  V30 1329 H 118.383 0.684677 4.80042 0
M  V30 1330 N 119.726 -1.57421 0.075193 0
M  V30 1331 C 120.676 -2.09441 -0.901025 0
M  V30 1332 C 121.66 -1.00486 -1.25663 0
M  V30 1333 O 122.852 -1.2679 -1.23504 0
M  V30 1334 C 119.981 -2.66233 -2.16737 0
M  V30 1335 C 119.067 -3.82198 -1.83808 0
M  V30 1336 N 119.458 -4.91028 -1.21345 0
M  V30 1337 C 117.756 -3.91558 -2.13538 0
M  V30 1338 C 118.457 -5.71852 -1.06585 0
M  V30 1339 N 117.433 -5.20233 -1.57667 0
M  V30 1340 H 121.235 -2.90972 -0.413815 0
M  V30 1341 H 118.749 -1.6189 -0.128601 0
M  V30 1342 H 120.746 -3.01819 -2.87595 0
M  V30 1343 H 119.406 -1.8615 -2.66042 0
M  V30 1344 H 120.417 -5.10323 -0.88268 0
M  V30 1345 H 117.094 -3.22454 -2.65197 0
M  V30 1346 H 118.484 -6.69401 -0.578933 0
M  V30 1347 N 121.204 0.198386 -1.56346 0
M  V30 1348 C 122.114 1.2664 -1.97483 0
M  V30 1349 C 123.13 1.49989 -0.882002 0
M  V30 1350 O 124.306 1.62668 -1.18748 0
M  V30 1351 C 121.371 2.59141 -2.30319 0
M  V30 1352 C 120.432 2.43892 -3.53292 0
M  V30 1353 C 119.665 3.70074 -3.84553 0
M  V30 1354 O 119.888 4.74101 -3.1715 0
M  V30 1355 O 118.822 3.658 -4.7799 0
M  V30 1356 H 122.648 0.947304 -2.88548 0
M  V30 1357 H 120.233 0.403123 -1.43859 0
M  V30 1358 H 122.115 3.37352 -2.5253 0
M  V30 1359 H 120.79 2.90684 -1.42423 0
M  V30 1360 H 119.697 1.63803 -3.36332 0
M  V30 1361 H 121.03 2.17282 -4.41644 0
M  V30 1362 N 122.682 1.50554 0.465978 0
M  V30 1363 C 123.959 1.5232 1.22712 0
M  V30 1364 C 124.339 0.270807 2.09356 0
M  V30 1365 O 123.687 -0.745541 2.15995 0
M  V30 1366 C 123.897 2.82175 2.05374 0
M  V30 1367 C 125.245 3.33033 2.6339 0
M  V30 1368 O 126.269 2.83531 2.15612 0
M  V30 1369 O 125.128 4.19336 3.50456 0
M  V30 1370 H 122.222 0.611183 0.557122 0
M  V30 1371 H 124.768 1.62847 0.477381 0
M  V30 1372 H 123.54 3.64797 1.41558 0
M  V30 1373 H 123.163 2.74675 2.87471 0
M  V30 1374 N 124.16 -0.719506 1.40217 0
M  V30 1375 C 125.388 -1.50864 1.41589 0
M  V30 1376 C 125.803 -1.88794 0.0145275 0
M  V30 1377 O 125.16 -1.55174 -0.960594 0
M  V30 1378 C 125.211 -2.78646 2.30302 0
M  V30 1379 O 124.932 -2.42321 3.64983 0
M  V30 1380 C 126.433 -3.72569 2.40224 0
M  V30 1381 H 123.653 -0.465709 0.48307 0
M  V30 1382 H 126.197 -0.88785 1.84221 0
M  V30 1383 H 124.352 -3.37019 1.91042 0
M  V30 1384 H 124.766 -3.24514 4.12057 0
M  V30 1385 H 126.24 -4.5908 3.06512 0
M  V30 1386 H 126.717 -4.15403 1.42608 0
M  V30 1387 H 127.323 -3.20109 2.80019 0
M  V30 1388 N 125.638 -1.25649 -0.95132 0
M  V30 1389 C 126.601 -1.06399 -2.03007 0
M  V30 1390 C 127.601 -0.0156794 -1.60792 0
M  V30 1391 O 128.791 -0.25817 -1.72276 0
M  V30 1392 C 125.923 -0.616184 -3.35285 0
M  V30 1393 H 127.116 -2.02164 -2.21517 0
M  V30 1394 H 124.669 -1.08103 -1.12887 0
M  V30 1395 H 125.404 0.343917 -3.22471 0
M  V30 1396 H 125.189 -1.37301 -3.67275 0
M  V30 1397 H 126.679 -0.503032 -4.14559 0
M  V30 1398 N 127.117 1.15442 -1.07289 0
M  V30 1399 C 128.047 2.22312 -0.714107 0
M  V30 1400 C 129.028 1.67467 0.298155 0
M  V30 1401 O 130.213 1.93445 0.171048 0
M  V30 1402 C 127.343 3.47124 -0.110448 0
M  V30 1403 C 126.297 4.14926 -1.04979 0
M  V30 1404 C 125.623 5.33807 -0.308924 0
M  V30 1405 C 126.923 4.64762 -2.38314 0
M  V30 1406 H 128.617 2.5258 -1.6076 0
M  V30 1407 H 126.163 1.21404 -0.77441 0
M  V30 1408 H 128.116 4.21124 0.152482 0
M  V30 1409 H 126.84 3.16187 0.81812 0
M  V30 1410 H 125.499 3.42866 -1.29764 0
M  V30 1411 H 125.147 4.99126 0.623084 0
M  V30 1412 H 124.847 5.80113 -0.935036 0
M  V30 1413 H 126.371 6.10576 -0.0537771 0
M  V30 1414 H 127.785 5.30292 -2.1786 0
M  V30 1415 H 126.182 5.21728 -2.96514 0
M  V30 1416 H 127.252 3.80434 -3.00663 0
M  V30 1417 N 128.595 0.856903 1.32268 0
M  V30 1418 C 129.525 0.31858 2.31316 0
M  V30 1419 C 130.506 -0.583487 1.59779 0
M  V30 1420 O 131.691 -0.503259 1.87566 0
M  V30 1421 C 128.821 -0.491979 3.43798 0
M  V30 1422 C 127.775 0.315849 4.26833 0
M  V30 1423 C 127.101 -0.619586 5.31098 0
M  V30 1424 C 128.401 1.54282 4.98993 0
M  V30 1425 H 130.095 1.14621 2.76591 0
M  V30 1426 H 127.641 0.552613 1.32974 0
M  V30 1427 H 129.594 -0.879012 4.1213 0
M  V30 1428 H 128.318 -1.35299 2.97257 0
M  V30 1429 H 126.977 0.684664 3.6015 0
M  V30 1430 H 126.625 -1.47751 4.8081 0
M  V30 1431 H 126.325 -0.0830621 5.87541 0
M  V30 1432 H 127.849 -1.00375 6.02293 0
M  V30 1433 H 129.263 1.22796 5.59995 0
M  V30 1434 H 127.66 2.01745 5.65172 0
M  V30 1435 H 128.73 2.30285 4.26728 0
M  V30 1436 N 130.073 -1.45103 0.615059 0
M  V30 1437 C 131.35 -1.95549 0.0448276 0
M  V30 1438 C 131.73 -1.55737 -1.4251 0
M  V30 1439 O 131.078 -0.823556 -2.13143 0
M  V30 1440 C 131.288 -3.48098 0.250785 0
M  V30 1441 C 132.636 -4.24384 0.135509 0
M  V30 1442 O 133.66 -3.55738 0.181299 0
M  V30 1443 O 132.519 -5.46493 0.0268878 0
M  V30 1444 H 129.613 -0.8264 -0.0314845 0
M  V30 1445 H 132.159 -1.55232 0.685642 0
M  V30 1446 H 130.931 -3.7007 1.27139 0
M  V30 1447 H 130.554 -3.95323 -0.424937 0
M  V30 1448 N 131.551 -0.354651 -1.53558 0
M  V30 1449 C 132.967 -0.00315426 -1.596 0
M  V30 1450 C 133.167 1.47741 -1.37021 0
M  V30 1451 O 132.223 2.23759 -1.16996 0
M  V30 1452 C 133.536 -0.44929 -2.97325 0
M  V30 1453 C 135.084 -0.402578 -3.104 0
M  V30 1454 C 135.559 -0.824355 -4.5052 0
M  V30 1455 N 137.05 -0.778979 -4.56603 0
M  V30 1456 C 137.785 -1.07715 -5.63192 0
M  V30 1457 N 137.281 -1.44405 -6.77583 0
M  V30 1458 N 139.074 -1.00066 -5.53121 0
M  V30 1459 H 131.225 -1.31893 -1.66487 0
M  V30 1460 H 133.488 -0.538388 -0.780284 0
M  V30 1461 H 133.194 -1.48202 -3.1895 0
M  V30 1462 H 133.068 0.169772 -3.76818 0
M  V30 1463 H 135.455 0.621004 -2.88492 0
M  V30 1464 H 135.536 -1.05699 -2.32941 0
M  V30 1465 H 135.18 -1.846 -4.73165 0
M  V30 1466 H 135.11 -0.147304 -5.26394 0
M  V30 1467 H 137.601 -0.508528 -3.74463 0
M  V30 1468 H 137.914 -1.65612 -7.54846 0
M  V30 1469 H 136.259 -1.4826 -6.79002 0
M  V30 1470 H 139.45 -0.713293 -4.62633 0
M  V30 1471 H 139.623 -1.23638 -6.36096 0
M  V30 1472 N 133.029 1.57378 -0.0835403 0
M  V30 1473 C 133.992 2.12252 0.864959 0
M  V30 1474 C 134.992 1.04916 1.21858 0
M  V30 1475 O 136.182 1.30853 1.14991 0
M  V30 1476 C 133.314 2.63358 2.16461 0
M  V30 1477 H 134.507 2.97371 0.388676 0
M  V30 1478 H 132.06 1.55423 0.165317 0
M  V30 1479 H 132.795 1.81727 2.686 0
M  V30 1480 H 132.58 3.41826 1.92087 0
M  V30 1481 H 134.07 3.05847 2.84337 0
M  V30 1482 N 134.507 -0.190092 1.56449 0
M  V30 1483 C 135.437 -1.23816 1.97969 0
M  V30 1484 C 136.418 -1.47201 0.852395 0
M  V30 1485 O 137.603 -1.58854 1.1171 0
M  V30 1486 C 134.733 -2.5813 2.3235 0
M  V30 1487 C 133.687 -2.49348 3.47864 0
M  V30 1488 C 133.013 -3.8798 3.67934 0
M  V30 1489 C 134.313 -2.01424 4.81898 0
M  V30 1490 H 136.007 -0.89311 2.85769 0
M  V30 1491 H 133.553 -0.428177 1.37487 0
M  V30 1492 H 135.506 -3.31637 2.59991 0
M  V30 1493 H 134.23 -2.94386 1.41438 0
M  V30 1494 H 132.889 -1.78297 3.20321 0
M  V30 1495 H 132.537 -4.21597 2.74344 0
M  V30 1496 H 132.237 -3.82978 4.45648 0
M  V30 1497 H 133.761 -4.63101 3.97957 0
M  V30 1498 H 135.175 -2.64693 5.08538 0
M  V30 1499 H 133.572 -2.07413 5.63116 0
M  V30 1500 H 134.642 -0.967677 4.75146 0
M  V30 1501 N 135.985 -1.50799 -0.457987 0
M  V30 1502 C 136.918 -1.65273 -1.57353 0
M  V30 1503 C 137.896 -0.500578 -1.54703 0
M  V30 1504 O 139.08 -0.721781 -1.74134 0
M  V30 1505 C 136.207 -1.64737 -2.95938 0
M  V30 1506 C 135.253 -2.8567 -3.16693 0
M  V30 1507 S 136.086 -4.46791 -2.95191 0
M  V30 1508 C 137.242 -4.48968 -4.36095 0
M  V30 1509 H 137.475 -2.59633 -1.44838 0
M  V30 1510 H 135.008 -1.40225 -0.64625 0
M  V30 1511 H 136.966 -1.65112 -3.7583 0
M  V30 1512 H 135.627 -0.715899 -3.05833 0
M  V30 1513 H 134.82 -2.81637 -4.17967 0
M  V30 1514 H 134.422 -2.8293 -2.44594 0
M  V30 1515 H 136.714 -4.23337 -5.28954 0
M  V30 1516 H 137.657 -5.50664 -4.45168 0
M  V30 1517 H 138.065 -3.78522 -4.18786 0
M  V30 1518 N 137.463 0.71206 -1.40597 0
M  V30 1519 C 138.426 1.80785 -1.40888 0
M  V30 1520 C 139.426 1.57937 -0.302103 0
M  V30 1521 O 140.616 1.64913 -0.561182 0
M  V30 1522 C 137.748 3.18927 -1.20409 0
M  V30 1523 H 138.941 1.81924 -2.38419 0
M  V30 1524 H 136.494 0.91805 -1.26497 0
M  V30 1525 H 137.229 3.23436 -0.236522 0
M  V30 1526 H 137.014 3.36911 -2.00582 0
M  V30 1527 H 138.504 3.98949 -1.23408 0
M  V30 1528 N 138.941 1.26152 0.944643 0
M  V30 1529 C 140.171 1.14094 1.72239 0
M  V30 1530 C 140.579 -0.306931 1.86694 0
M  V30 1531 O 139.922 -1.22222 1.3714 0
M  V30 1532 C 139.984 1.73316 3.14963 0
M  V30 1533 C 139.648 3.2239 3.23904 0
M  V30 1534 C 140.645 4.19252 3.07447 0
M  V30 1535 C 138.33 3.62788 3.47405 0
M  V30 1536 C 140.324 5.54491 3.14353 0
M  V30 1537 C 138.011 4.98162 3.53947 0
M  V30 1538 C 139.009 5.93823 3.37436 0
M  V30 1539 O 138.697 7.26732 3.43679 0
M  V30 1540 H 138.429 0.398292 0.546205 0
M  V30 1541 H 140.983 1.67201 1.19301 0
M  V30 1542 H 139.213 1.14667 3.69308 0
M  V30 1543 H 140.902 1.56214 3.74636 0
M  V30 1544 H 141.668 3.8938 2.8915 0
M  V30 1545 H 137.547 2.88816 3.59313 0
M  V30 1546 H 141.091 6.29137 3.01384 0
M  V30 1547 H 136.988 5.27695 3.71763 0
M  V30 1548 H 137.756 7.3496 3.60245 0
M  V30 1549 N 140.419 -1.14872 1.07899 0
M  V30 1550 C 141.644 -1.90202 0.826926 0
M  V30 1551 C 142.069 -1.77774 -0.614664 0
M  V30 1552 O 141.427 -1.11431 -1.43013 0
M  V30 1553 C 141.475 -3.38352 1.24702 0
M  V30 1554 O 140.579 -4.10497 0.39575 0
M  V30 1555 H 139.92 -0.591968 0.300782 0
M  V30 1556 H 142.45 -1.45437 1.43907 0
M  V30 1557 H 142.46 -3.89156 1.22563 0
M  V30 1558 H 141.135 -3.46715 2.29698 0
M  V30 1559 H 139.712 -3.69796 0.480117 0
M  V30 1560 N 141.898 -0.863906 -1.31812 0
M  V30 1561 C 143.314 -0.555004 -1.49639 0
M  V30 1562 C 143.514 0.912266 -1.79666 0
M  V30 1563 O 142.57 1.69479 -1.87171 0
M  V30 1564 C 143.883 -1.44998 -2.63431 0
M  V30 1565 C 145.431 -1.45138 -2.77316 0
M  V30 1566 C 145.906 -2.33179 -3.94197 0
M  V30 1567 N 147.397 -2.31025 -4.01474 0
M  V30 1568 C 148.132 -2.95871 -4.9117 0
M  V30 1569 N 147.628 -3.69863 -5.8581 0
M  V30 1570 N 149.421 -2.85211 -4.84367 0
M  V30 1571 H 141.572 -1.81339 -1.10589 0
M  V30 1572 H 143.835 -0.77505 -0.545895 0
M  V30 1573 H 143.541 -2.49377 -2.48 0
M  V30 1574 H 143.415 -1.14409 -3.59431 0
M  V30 1575 H 145.802 -0.415201 -2.92164 0
M  V30 1576 H 145.883 -1.79747 -1.82001 0
M  V30 1577 H 145.527 -3.3687 -3.80107 0
M  V30 1578 H 145.457 -1.95897 -4.88807 0
M  V30 1579 H 147.948 -1.77238 -3.33759 0
M  V30 1580 H 148.261 -4.16486 -6.50968 0
M  V30 1581 H 146.606 -3.73971 -5.85808 0
M  V30 1582 H 149.797 -2.26948 -4.09405 0
M  V30 1583 H 149.97 -3.36027 -5.54066 0
M  V30 1584 N 143.376 1.44774 -0.622745 0
M  V30 1585 C 144.308 2.28856 0.125485 0
M  V30 1586 C 145.321 1.40811 0.817069 0
M  V30 1587 O 146.51 1.65044 0.679918 0
M  V30 1588 C 143.61 3.16963 1.19949 0
M  V30 1589 C 142.783 4.33374 0.592064 0
M  V30 1590 C 141.842 5.02577 1.55893 0
M  V30 1591 O 140.868 5.58873 1.07933 0
M  V30 1592 N 142.07 5.03256 2.89334 0
M  V30 1593 H 144.835 2.93713 -0.596068 0
M  V30 1594 H 142.396 1.55129 -0.463303 0
M  V30 1595 H 144.388 3.60123 1.84644 0
M  V30 1596 H 142.958 2.53913 1.82337 0
M  V30 1597 H 142.178 3.93509 -0.233322 0
M  V30 1598 H 143.466 5.08527 0.166738 0
M  V30 1599 H 142.864 4.58836 3.30887 0
M  V30 1600 H 141.421 5.50232 3.49412 0
M  V30 1601 N 144.854 0.36279 1.53368 0
M  V30 1602 C 146.265 -0.117022 1.86333 0
M  V30 1603 C 146.616 -1.48397 1.28347 0
M  V30 1604 O 145.741 -2.07787 0.604428 0
M  V30 1605 C 146.336 -0.21912 3.38091 0
M  V30 1606 C 144.895 -0.643184 3.70864 0
M  V30 1607 C 144.042 0.211318 2.76494 0
M  V30 1608 H 146.993 0.581687 1.47655 0
M  V30 1609 H 147.014 -1.04319 3.6592 0
M  V30 1610 H 146.526 0.775902 3.80265 0
M  V30 1611 H 144.627 -1.64654 3.34245 0
M  V30 1612 H 144.74 -0.41973 4.77258 0
M  V30 1613 H 143.104 -0.319367 2.5269 0
M  V30 1614 H 143.887 1.20383 3.21501 0
M  V30 1615 N 146.332 -1.57332 0.0918853 0
M  V30 1616 C 147.609 -1.85691 -0.614668 0
M  V30 1617 C 147.989 -0.988146 -1.86545 0
M  V30 1618 O 147.337 -0.0597055 -2.28422 0
M  V30 1619 C 147.547 -3.36294 -0.933126 0
M  V30 1620 C 148.895 -4.04275 -1.29796 0
M  V30 1621 O 149.919 -3.41157 -1.02424 0
M  V30 1622 O 148.778 -5.1564 -1.81047 0
M  V30 1623 H 145.872 -0.767802 -0.307261 0
M  V30 1624 H 148.418 -1.69244 0.12434 0
M  V30 1625 H 147.19 -3.91273 -0.0456404 0
M  V30 1626 H 146.813 -3.58076 -1.72822 0
M  V30 1627 N 147.81 0.181792 -1.56548 0
M  V30 1628 C 149.226 0.53316 -1.50431 0
M  V30 1629 C 149.426 1.85184 -0.794297 0
M  V30 1630 O 148.482 2.50058 -0.350318 0
M  V30 1631 C 149.795 0.575597 -2.9514 0
M  V30 1632 C 151.343 0.663519 -3.05886 0
M  V30 1633 C 151.818 0.736946 -4.52032 0
M  V30 1634 N 153.309 0.800118 -4.56237 0
M  V30 1635 C 154.044 0.877327 -5.66649 0
M  V30 1636 N 153.54 0.916016 -6.86718 0
M  V30 1637 N 155.333 0.915542 -5.54594 0
M  V30 1638 H 147.484 -0.683025 -2.01118 0
M  V30 1639 H 149.747 -0.244988 -0.915797 0
M  V30 1640 H 149.453 -0.324482 -3.502 0
M  V30 1641 H 149.327 1.42572 -3.49218 0
M  V30 1642 H 151.714 1.55403 -2.50867 0
M  V30 1643 H 151.795 -0.21307 -2.54911 0
M  V30 1644 H 151.439 -0.149262 -5.07681 0
M  V30 1645 H 151.369 1.62953 -5.00753 0
M  V30 1646 H 153.86 0.778926 -3.69785 0
M  V30 1647 H 154.173 0.975813 -7.66614 0
M  V30 1648 H 152.518 0.884469 -6.89349 0
M  V30 1649 H 155.709 0.882245 -4.59711 0
M  V30 1650 H 155.882 0.972253 -6.40665 0
M  V30 1651 N 149.288 1.51039 0.449983 0
M  V30 1652 C 150.251 1.70863 1.5277 0
M  V30 1653 C 151.251 0.578846 1.5002 0
M  V30 1654 O 152.441 0.846213 1.52266 0
M  V30 1655 C 149.573 1.75341 2.9235 0
M  V30 1656 H 150.766 2.67034 1.36502 0
M  V30 1657 H 148.319 1.40838 0.677812 0
M  V30 1658 H 149.054 0.809383 3.14037 0
M  V30 1659 H 148.839 2.57436 2.95752 0
M  V30 1660 H 150.329 1.92559 3.70555 0
M  V30 1661 N 150.766 -0.704594 1.40972 0
M  V30 1662 C 151.729 -1.80035 1.41845 0
M  V30 1663 C 152.729 -1.57774 0.310474 0
M  V30 1664 O 153.919 -1.64613 0.56992 0
M  V30 1665 C 151.051 -3.18284 1.22098 0
M  V30 1666 H 152.244 -1.80658 2.3938 0
M  V30 1667 H 149.797 -0.911329 1.26982 0
M  V30 1668 H 150.532 -3.23306 0.253672 0
M  V30 1669 H 150.317 -3.35843 2.02366 0
M  V30 1670 H 151.807 -3.98289 1.25522 0
M  V30 1671 N 152.244 -1.26651 -0.937939 0
M  V30 1672 C 153.491 -1.12387 -1.6845 0
M  V30 1673 C 153.819 0.332208 -1.91642 0
M  V30 1674 O 153.074 1.2602 -1.49725 0
M  V30 1675 C 153.373 -1.84168 -3.06295 0
M  V30 1676 C 153.039 -3.34056 -3.02849 0
M  V30 1677 C 151.701 -3.74942 -3.01616 0
M  V30 1678 C 154.053 -4.29741 -2.9491 0
M  V30 1679 C 151.381 -5.09894 -2.90215 0
M  V30 1680 C 153.733 -5.64738 -2.8505 0
M  V30 1681 C 152.397 -6.0493 -2.82162 0
M  V30 1682 H 151.667 -0.411252 -0.616403 0
M  V30 1683 H 154.314 -1.57134 -1.09459 0
M  V30 1684 H 152.619 -1.319 -3.6893 0
M  V30 1685 H 154.316 -1.70569 -3.62915 0
M  V30 1686 H 150.906 -3.01534 -3.0459 0
M  V30 1687 H 155.09 -3.99133 -2.94969 0
M  V30 1688 H 150.346 -5.40194 -2.86358 0
M  V30 1689 H 154.52 -6.38561 -2.77872 0
M  V30 1690 H 152.147 -7.09457 -2.73084 0
M  V30 1691 N 153.722 1.14298 -1.08507 0
M  V30 1692 C 154.952 1.88945 -0.835663 0
M  V30 1693 C 155.36 1.78894 0.615928 0
M  V30 1694 O 154.703 1.1468 1.43506 0
M  V30 1695 C 154.765 3.39585 -1.17994 0
M  V30 1696 C 154.429 3.7342 -2.63451 0
M  V30 1697 C 155.426 3.73454 -3.61702 0
M  V30 1698 C 153.111 4.03368 -2.99332 0
M  V30 1699 C 155.105 4.02961 -4.93864 0
M  V30 1700 C 152.792 4.32538 -4.31687 0
M  V30 1701 C 153.79 4.32318 -5.28763 0
M  V30 1702 O 153.478 4.6078 -6.58739 0
M  V30 1703 H 153.21 0.605307 -0.300965 0
M  V30 1704 H 155.764 1.45673 -1.44806 0
M  V30 1705 H 153.994 3.83315 -0.51055 0
M  V30 1706 H 155.683 3.9554 -0.911182 0
M  V30 1707 H 156.449 3.50403 -3.35325 0
M  V30 1708 H 152.328 4.02692 -2.24411 0
M  V30 1709 H 155.872 4.02704 -5.69627 0
M  V30 1710 H 151.769 4.55059 -4.57812 0
M  V30 1711 H 152.537 4.78492 -6.64069 0
M  V30 1712 N 155.201 0.870884 1.31352 0
M  V30 1713 C 156.617 0.562932 1.49343 0
M  V30 1714 C 156.817 -0.902725 1.80148 0
M  V30 1715 O 155.873 -1.68484 1.88067 0
M  V30 1716 C 157.186 1.46393 2.62659 0
M  V30 1717 C 158.734 1.46607 2.76542 0
M  V30 1718 C 159.209 2.35266 3.92955 0
M  V30 1719 N 160.7 2.33151 4.00243 0
M  V30 1720 C 161.435 2.98471 4.89594 0
M  V30 1721 N 160.931 3.72964 5.8384 0
M  V30 1722 N 162.724 2.87775 4.82848 0
M  V30 1723 H 154.875 1.81923 1.09626 0
M  V30 1724 H 157.138 0.777934 0.541777 0
M  V30 1725 H 156.844 2.50689 2.46674 0
M  V30 1726 H 156.718 1.16314 3.58819 0
M  V30 1727 H 159.105 0.43069 2.9194 0
M  V30 1728 H 159.186 1.8071 1.81046 0
M  V30 1729 H 158.83 3.38881 3.78315 0
M  V30 1730 H 158.76 1.98487 4.87761 0
M  V30 1731 H 161.251 1.79006 3.32814 0
M  V30 1732 H 161.564 4.19932 6.4875 0
M  V30 1733 H 159.909 3.77073 5.83816 0
M  V30 1734 H 163.1 2.29116 4.08195 0
M  V30 1735 H 163.273 3.38961 5.52277 0
M  V30 1736 N 156.679 -1.44442 0.630414 0
M  V30 1737 C 157.907 -2.06414 0.141671 0
M  V30 1738 C 158.322 -1.47105 -1.18345 0
M  V30 1739 O 157.679 -0.593662 -1.72574 0
M  V30 1740 C 157.73 -3.61494 0.0199784 0
M  V30 1741 O 157.451 -4.18594 1.29269 0
M  V30 1742 C 158.952 -4.40499 -0.497544 0
M  V30 1743 H 156.172 -0.666292 0.0793452 0
M  V30 1744 H 158.716 -1.85323 0.864614 0
M  V30 1745 H 156.871 -3.8185 -0.653402 0
M  V30 1746 H 157.285 -5.12026 1.13707 0
M  V30 1747 H 158.759 -5.49433 -0.531708 0
M  V30 1748 H 159.236 -4.11895 -1.52445 0
M  V30 1749 H 159.842 -4.25061 0.142562 0
M  V30 1750 N 158.157 -0.370918 -1.53173 0
M  V30 1751 C 159.403 0.217423 -2.01631 0
M  V30 1752 C 159.736 1.47983 -1.25756 0
M  V30 1753 O 159.011 1.91274 -0.352764 0
M  V30 1754 C 159.294 0.503982 -3.56556 0
M  V30 1755 C 159.147 -0.77243 -4.43118 0
M  V30 1756 C 160.466 1.30234 -4.20389 0
M  V30 1757 H 157.585 0.0775486 -0.732909 0
M  V30 1758 H 160.227 -0.496863 -1.83388 0
M  V30 1759 H 158.377 1.11248 -3.72231 0
M  V30 1760 H 160.049 -1.4098 -4.39229 0
M  V30 1761 H 158.292 -1.39167 -4.10871 0
M  V30 1762 H 158.963 -0.526815 -5.4948 0
M  V30 1763 H 161.439 0.787546 -4.08579 0
M  V30 1764 H 160.315 1.47158 -5.28806 0
M  V30 1765 H 160.576 2.31237 -3.76805 0
M  V30 1766 N 159.635 1.57281 -0.100228 0
M  V30 1767 C 160.565 2.17328 0.853857 0
M  V30 1768 C 161.546 1.10804 1.2906 0
M  V30 1769 O 162.731 1.38963 1.35657 0
M  V30 1770 C 159.861 2.75772 2.11109 0
M  V30 1771 C 158.815 3.87713 1.81279 0
M  V30 1772 C 158.141 4.32882 3.13874 0
M  V30 1773 C 159.441 5.10677 1.09574 0
M  V30 1774 H 161.135 2.97305 0.353545 0
M  V30 1775 H 158.681 1.43009 0.168612 0
M  V30 1776 H 160.634 3.16433 2.78296 0
M  V30 1777 H 159.358 1.93057 2.63432 0
M  V30 1778 H 158.017 3.476 1.16489 0
M  V30 1779 H 157.665 3.47051 3.64095 0
M  V30 1780 H 157.365 5.08358 2.94696 0
M  V30 1781 H 158.889 4.7618 3.82211 0
M  V30 1782 H 160.303 5.48474 1.66879 0
M  V30 1783 H 158.7 5.91615 1.00557 0
M  V30 1784 H 159.77 4.84835 0.0793299 0
M  V30 1785 N 161.113 -0.173488 1.56642 0
M  V30 1786 C 162.529 -0.525174 1.50712 0
M  V30 1787 C 162.729 -1.8476 0.804107 0
M  V30 1788 O 161.785 -2.49869 0.363574 0
M  V30 1789 C 163.098 -0.559937 2.95441 0
M  V30 1790 C 164.646 -0.647288 3.06234 0
M  V30 1791 C 165.121 -0.712963 4.52417 0
M  V30 1792 N 166.612 -0.775911 4.56655 0
M  V30 1793 C 167.347 -0.847264 5.67106 0
M  V30 1794 N 166.843 -0.879585 6.87194 0
M  V30 1795 N 168.636 -0.886117 5.55071 0
M  V30 1796 H 160.787 0.693681 2.00753 0
M  V30 1797 H 163.05 0.249841 0.914485 0
M  V30 1798 H 162.756 0.343049 3.50023 0
M  V30 1799 H 162.63 -1.40718 3.49969 0
M  V30 1800 H 165.017 -1.5407 2.51687 0
M  V30 1801 H 165.098 0.226586 2.54794 0
M  V30 1802 H 164.742 0.176183 5.07594 0
M  V30 1803 H 164.672 -1.60295 5.0161 0
M  V30 1804 H 167.163 -0.759304 3.70193 0
M  V30 1805 H 167.476 -0.935144 7.67121 0
M  V30 1806 H 165.821 -0.847898 6.89808 0
M  V30 1807 H 169.012 -0.857853 4.60172 0
M  V30 1808 H 169.185 -0.938263 6.41171 0
M  V30 1809 N 162.591 -1.51276 -0.441967 0
M  V30 1810 C 163.521 -1.752 -1.54361 0
M  V30 1811 C 164.502 -0.601682 -1.59103 0
M  V30 1812 O 165.687 -0.843913 -1.74905 0
M  V30 1813 C 162.817 -1.87282 -2.92477 0
M  V30 1814 C 161.771 -3.02687 -3.02596 0
M  V30 1815 C 161.097 -2.99947 -4.42647 0
M  V30 1816 C 162.397 -4.4273 -2.77106 0
M  V30 1817 H 164.091 -2.67442 -1.34592 0
M  V30 1818 H 161.637 -1.28694 -0.646048 0
M  V30 1819 H 163.59 -2.02602 -3.695 0
M  V30 1820 H 162.314 -0.916844 -3.13467 0
M  V30 1821 H 160.973 -2.87065 -2.28012 0
M  V30 1822 H 160.621 -2.02136 -4.60597 0
M  V30 1823 H 160.321 -3.77439 -4.50348 0
M  V30 1824 H 161.845 -3.17354 -5.2165 0
M  V30 1825 H 163.259 -4.58727 -3.43864 0
M  V30 1826 H 161.656 -5.21893 -2.96222 0
M  V30 1827 H 162.726 -4.53087 -1.72744 0
M  V30 1828 N 164.069 0.697108 -1.41344 0
M  V30 1829 C 165.346 1.45154 -1.31109 0
M  V30 1830 C 165.726 2.11009 0.0620449 0
M  V30 1831 O 165.074 2.01571 1.07618 0
M  V30 1832 C 165.284 2.47223 -2.46337 0
M  V30 1833 C 166.632 3.1252 -2.87431 0
M  V30 1834 O 167.656 2.57547 -2.46065 0
M  V30 1835 O 166.515 4.12083 -3.58957 0
M  V30 1836 H 163.609 0.646365 -0.515889 0
M  V30 1837 H 166.155 0.727716 -1.53305 0
M  V30 1838 H 164.927 1.97204 -3.37974 0
M  V30 1839 H 164.55 3.27116 -2.2601 0
M  V30 1840 N 165.547 1.27147 0.931209 0
M  V30 1841 C 166.963 1.04475 1.20653 0
M  V30 1842 C 167.163 -0.223885 2.00252 0
M  V30 1843 O 166.219 -0.930332 2.34736 0
M  V30 1844 C 167.532 2.28209 1.95809 0
M  V30 1845 C 169.08 2.33211 2.08762 0
M  V30 1846 C 169.555 3.56665 2.87323 0
M  V30 1847 N 171.046 3.57201 2.94892 0
M  V30 1848 C 171.781 4.49395 3.56134 0
M  V30 1849 N 171.277 5.51889 4.18796 0
M  V30 1850 N 173.07 4.37026 3.53504 0
M  V30 1851 H 165.221 2.08612 0.399333 0
M  V30 1852 H 167.484 0.917312 0.239253 0
M  V30 1853 H 167.19 3.20538 1.44736 0
M  V30 1854 H 167.064 2.33247 2.96438 0
M  V30 1855 H 169.451 1.41391 2.59023 0
M  V30 1856 H 169.532 2.32178 1.07364 0
M  V30 1857 H 169.176 4.4882 2.37746 0
M  V30 1858 H 169.106 3.54948 3.88998 0
M  V30 1859 H 171.597 2.83074 2.50354 0
M  V30 1860 H 171.91 6.18409 4.63454 0
M  V30 1861 H 170.255 5.55735 4.17353 0
M  V30 1862 H 173.446 3.56166 3.03749 0
M  V30 1863 H 173.619 5.09067 4.00942 0
M  V30 1864 N 167.025 -1.13721 1.09112 0
M  V30 1865 C 168.265 -1.86576 0.834801 0
M  V30 1866 C 168.629 -1.81435 -0.628122 0
M  V30 1867 O 169.83 -2.49497 -1.00024 0
M  V30 1868 C 168.101 -3.30872 1.35124 0
M  V30 1869 S 169.66 -4.21257 1.22832 0
M  V30 1870 H 166.478 -0.643666 0.302017 0
M  V30 1871 H 169.08 -1.37085 1.39385 0
M  V30 1872 H 167.784 -3.32166 2.41027 0
M  V30 1873 H 167.315 -3.85423 0.788185 0
M  V30 1874 H 169.33 -4.95884 0.177191 0
M  V30 1875 N 168.503 -0.877838 -1.30888 0
M  V30 1876 C 169.78 -0.413052 -1.91189 0
M  V30 1877 C 170.16 1.1056 -1.79832 0
M  V30 1878 O 169.508 1.93771 -1.21099 0
M  V30 1879 C 169.718 -0.903191 -3.3711 0
M  V30 1880 C 171.066 -0.93395 -4.14201 0
M  V30 1881 O 172.09 -0.849373 -3.45925 0
M  V30 1882 O 170.949 -1.05772 -5.36167 0
M  V30 1883 H 168.043 -0.125035 -0.817493 0
M  V30 1884 H 170.589 -0.966269 -1.39504 0
M  V30 1885 H 169.361 -1.94692 -3.39427 0
M  V30 1886 H 168.984 -0.328732 -3.96239 0
M  V30 1887 N 169.982 1.44106 -0.638065 0
M  V30 1888 C 171.398 1.56672 -0.304286 0
M  V30 1889 C 171.598 1.6244 1.19228 0
M  V30 1890 O 170.654 1.57121 1.9766 0
M  V30 1891 C 171.967 2.83503 -1.00231 0
M  V30 1892 C 173.515 2.97226 -0.981116 0
M  V30 1893 C 173.99 4.26868 -1.65974 0
M  V30 1894 N 175.481 4.33698 -1.62666 0
M  V30 1895 C 176.216 5.32745 -2.12063 0
M  V30 1896 N 175.712 6.38157 -2.6968 0
M  V30 1897 N 177.505 5.24299 -2.02651 0
M  V30 1898 H 169.656 1.38605 -1.60942 0
M  V30 1899 H 171.919 0.664661 -0.675965 0
M  V30 1900 H 171.625 2.85251 -2.0573 0
M  V30 1901 H 171.499 3.73251 -0.54439 0
M  V30 1902 H 173.886 2.95027 0.0654188 0
M  V30 1903 H 173.967 2.08808 -1.47759 0
M  V30 1904 H 173.611 4.29826 -2.70576 0
M  V30 1905 H 173.541 5.14156 -1.13804 0
M  V30 1906 H 176.032 3.58138 -1.20606 0
M  V30 1907 H 176.345 7.10029 -3.05087 0
M  V30 1908 H 174.69 6.38823 -2.73734 0
M  V30 1909 H 177.881 4.4086 -1.57353 0
M  V30 1910 H 178.054 6.01334 -2.41457 0
M  V30 1911 N 171.46 0.379036 1.52974 0
M  V30 1912 C 172.41 -0.477772 2.22938 0
M  V30 1913 C 173.394 -1.03792 1.22948 0
M  V30 1914 O 174.586 -0.965725 1.48333 0
M  V30 1915 C 171.715 -1.60994 3.03209 0
M  V30 1916 C 170.801 -1.06203 4.10587 0
M  V30 1917 N 171.192 -0.238214 5.05239 0
M  V30 1918 C 169.49 -1.33554 4.25534 0
M  V30 1919 C 170.191 0.0633235 5.81666 0
M  V30 1920 N 169.167 -0.537901 5.40932 0
M  V30 1921 H 172.969 0.158295 2.93473 0
M  V30 1922 H 170.483 0.187778 1.61311 0
M  V30 1923 H 172.48 -2.23607 3.5186 0
M  V30 1924 H 171.14 -2.24893 2.34207 0
M  V30 1925 H 172.151 0.123695 5.17752 0
M  V30 1926 H 168.828 -1.97632 3.6776 0
M  V30 1927 H 170.218 0.730161 6.67921 0
M  V30 1928 N 172.938 -1.57226 0.108567 0
M  V30 1929 C 173.888 -2.11305 -0.856396 0
M  V30 1930 C 174.872 -1.03129 -1.23504 0
M  V30 1931 O 176.064 -1.29381 -1.20787 0
M  V30 1932 C 173.193 -2.70771 -2.11041 0
M  V30 1933 C 172.279 -3.86011 -1.7566 0
M  V30 1934 N 172.67 -4.93492 -1.10902 0
M  V30 1935 C 170.968 -3.95999 -2.05185 0
M  V30 1936 C 171.669 -5.73984 -0.944308 0
M  V30 1937 N 170.645 -5.2346 -1.46596 0
M  V30 1938 H 174.447 -2.91784 -0.352002 0
M  V30 1939 H 171.961 -1.62126 -0.0942324 0
M  V30 1940 H 173.958 -3.07851 -2.81128 0
M  V30 1941 H 172.618 -1.91751 -2.62034 0
M  V30 1942 H 173.629 -5.1208 -0.774235 0
M  V30 1943 H 170.306 -3.28007 -2.58298 0
M  V30 1944 H 171.696 -6.70479 -0.436813 0
M  V30 1945 N 174.416 0.165178 -1.56732 0
M  V30 1946 C 175.644 0.896218 -1.86482 0
M  V30 1947 C 176.059 1.75555 -0.694675 0
M  V30 1948 O 175.416 1.79379 0.33607 0
M  V30 1949 C 175.467 1.76792 -3.1532 0
M  V30 1950 O 175.188 0.943239 -4.27825 0
M  V30 1951 C 176.689 2.6081 -3.58459 0
M  V30 1952 H 173.909 0.260064 -0.618553 0
M  V30 1953 H 176.453 0.163428 -2.03846 0
M  V30 1954 H 174.608 2.45398 -2.99764 0
M  V30 1955 H 175.022 1.53998 -5.01383 0
M  V30 1956 H 176.496 3.17579 -4.51495 0
M  V30 1957 H 176.973 3.35977 -2.82872 0
M  V30 1958 H 177.579 1.97526 -3.76648 0
M  V30 1959 N 175.894 1.51508 0.433938 0
M  V30 1960 C 177.14 1.64588 1.18484 0
M  V30 1961 C 177.473 0.362666 1.90784 0
M  V30 1962 O 176.748 -0.637892 1.83742 0
M  V30 1963 C 177.031 2.85149 2.19913 0
M  V30 1964 C 176.884 4.23456 1.51674 0
M  V30 1965 C 178.203 3.01227 3.20858 0
M  V30 1966 H 175.322 0.598994 0.429389 0
M  V30 1967 H 177.964 1.84002 0.473647 0
M  V30 1968 H 176.114 2.68729 2.80566 0
M  V30 1969 H 177.786 4.51552 0.943322 0
M  V30 1970 H 176.029 4.25998 0.819035 0
M  V30 1971 H 176.7 5.03812 2.2556 0
M  V30 1972 H 179.176 3.16382 2.70263 0
M  V30 1973 H 178.052 3.87141 3.89118 0
M  V30 1974 H 178.313 2.13447 3.8716 0
M  V30 1975 N 177.372 -0.689602 1.41712 0
M  V30 1976 C 178.282 -1.83314 1.46401 0
M  V30 1977 C 179.298 -1.7036 0.35405 0
M  V30 1978 O 180.474 -1.92171 0.602692 0
M  V30 1979 C 177.539 -3.19344 1.34982 0
M  V30 1980 C 176.6 -3.44363 2.56344 0
M  V30 1981 C 175.833 -4.73904 2.45461 0
M  V30 1982 O 176.056 -5.508 1.48241 0
M  V30 1983 O 174.99 -4.99839 3.35328 0
M  V30 1984 H 178.816 -1.82314 2.42889 0
M  V30 1985 H 176.401 -0.843438 1.23315 0
M  V30 1986 H 178.283 -4.00547 1.3092 0
M  V30 1987 H 176.958 -3.21014 0.41612 0
M  V30 1988 H 175.865 -2.63067 2.65982 0
M  V30 1989 H 177.198 -3.47512 3.48563 0
M  V30 1990 N 178.85 -1.27639 -0.924453 0
M  V30 1991 C 179.78 -1.13166 -2.04244 0
M  V30 1992 C 180.761 -0.032256 -1.70069 0
M  V30 1993 O 181.946 -0.207328 -1.9309 0
M  V30 1994 C 179.076 -0.781496 -3.38393 0
M  V30 1995 C 178.03 -1.83449 -3.86692 0
M  V30 1996 C 177.356 -1.33822 -5.17683 0
M  V30 1997 C 178.656 -3.23917 -4.09726 0
M  V30 1998 H 180.35 -2.06689 -2.1661 0
M  V30 1999 H 177.896 -0.995136 -1.04082 0
M  V30 2000 H 179.849 -0.667057 -4.16087 0
M  V30 2001 H 178.573 0.189439 -3.2605 0
M  V30 2002 H 177.232 -1.93789 -3.11193 0
M  V30 2003 H 176.88 -0.35665 -5.01734 0
M  V30 2004 H 176.58 -2.04224 -5.50968 0
M  V30 2005 H 178.104 -1.23679 -5.97943 0
M  V30 2006 H 179.518 -3.16559 -4.77978 0
M  V30 2007 H 177.915 -3.92059 -4.54324 0
M  V30 2008 H 178.985 -3.68729 -3.14908 0
M  V30 2009 N 180.328 1.1314 -1.09713 0
M  V30 2010 C 181.26 2.18343 -0.697056 0
M  V30 2011 C 182.273 1.60669 0.262551 0
M  V30 2012 O 183.462 1.78435 0.0481527 0
M  V30 2013 C 180.562 3.38899 -0.00684728 0
M  V30 2014 C 179.735 4.26078 -0.988741 0
M  V30 2015 C 178.794 5.25155 -0.331394 0
M  V30 2016 O 177.82 5.60701 -0.979926 0
M  V30 2017 N 179.022 5.73271 0.913261 0
M  V30 2018 H 181.787 2.5328 -1.60216 0
M  V30 2019 H 179.348 1.28491 -0.984971 0
M  V30 2020 H 181.34 4.02255 0.444191 0
M  V30 2021 H 179.91 3.02175 0.800551 0
M  V30 2022 H 179.13 3.59453 -1.61826 0
M  V30 2023 H 180.418 4.81178 -1.65364 0
M  V30 2024 H 179.816 5.46544 1.45966 0
M  V30 2025 H 178.373 6.3855 1.30757 0
M  V30 2026 N 181.806 0.884767 1.30421 0
M  V30 2027 C 183.053 0.503105 1.96151 0
M  V30 2028 C 183.381 -0.947676 1.69851 0
M  V30 2029 O 182.636 -1.68467 0.995861 0
M  V30 2030 C 182.935 0.724318 3.49983 0
M  V30 2031 C 182.601 2.15015 3.96332 0
M  V30 2032 C 181.263 2.54005 4.08699 0
M  V30 2033 C 183.615 3.07936 4.20505 0
M  V30 2034 C 180.943 3.85128 4.42599 0
M  V30 2035 C 183.295 4.3859 4.55874 0
M  V30 2036 C 181.959 4.77474 4.66449 0
M  V30 2037 H 181.229 0.184099 0.717766 0
M  V30 2038 H 183.876 1.12058 1.55291 0
M  V30 2039 H 182.181 0.0238086 3.91793 0
M  V30 2040 H 183.878 0.408617 3.98913 0
M  V30 2041 H 180.468 1.8375 3.87213 0
M  V30 2042 H 184.652 2.79033 4.10431 0
M  V30 2043 H 179.908 4.14996 4.48986 0
M  V30 2044 H 184.082 5.10629 4.7353 0
M  V30 2045 H 181.709 5.79115 4.92473 0
M  V30 2046 N 183.284 -1.43765 0.645699 0
M  V30 2047 C 184.512 -2.06253 0.163556 0
M  V30 2048 C 184.927 -1.48352 -1.16778 0
M  V30 2049 O 184.284 -0.611932 -1.71935 0
M  V30 2050 C 184.335 -3.61453 0.0583186 0
M  V30 2051 O 184.056 -4.172 1.33702 0
M  V30 2052 C 185.557 -4.41002 -0.450795 0
M  V30 2053 H 182.777 -0.665413 0.0864077 0
M  V30 2054 H 185.321 -1.84396 0.884222 0
M  V30 2055 H 183.476 -3.82522 -0.612865 0
M  V30 2056 H 183.89 -5.10791 1.19131 0
M  V30 2057 H 185.364 -5.49966 -0.473403 0
M  V30 2058 H 185.841 -4.13488 -1.48068 0
M  V30 2059 H 186.447 -4.24886 0.187637 0
M  V30 2060 N 184.763 -0.387143 -1.52771 0
M  V30 2061 C 186.04 0.253197 -1.93954 0
M  V30 2062 C 186.42 1.64545 -1.32243 0
M  V30 2063 O 185.768 2.23191 -0.489699 0
M  V30 2064 C 185.978 0.281722 -3.47861 0
M  V30 2065 C 187.326 0.511715 -4.21505 0
M  V30 2066 O 188.35 0.362023 -3.54356 0
M  V30 2067 O 187.209 0.804847 -5.40541 0
M  V30 2068 H 184.303 0.156845 -0.811991 0
M  V30 2069 H 186.849 -0.441494 -1.63856 0
M  V30 2070 H 185.621 -0.693571 -3.85104 0
M  V30 2071 H 185.244 1.02142 -3.84256 0
M  V30 2072 N 186.241 1.57166 -0.116904 0
M  V30 2073 C 187.189 2.16457 0.851418 0
M  V30 2074 C 188.183 1.11323 1.27686 0
M  V30 2075 O 189.389 1.2963 1.24884 0
M  V30 2076 H 185.764 0.69271 0.292672 0
M  V30 2077 H 187.735 2.96605 0.32685 0
M  V30 2078 C 186.484 2.77689 2.09246 0
M  V30 2079 H 185.807 3.58285 1.77402 0
M  V30 2080 H 187.247 3.22716 2.7501 0
M  V30 2081 C 185.706 1.74667 2.88085 0
M  V30 2082 O 186.236 1.19877 3.83396 0
M  V30 2083 N 184.442 1.44656 2.52038 0
M  V30 2084 H 183.989 1.89402 1.74599 0
M  V30 2085 H 183.947 0.759675 3.05084 0
M  V30 2086 N 187.719 -0.156864 1.56817 0
M  V30 2087 C 188.965 -0.872416 1.83076 0
M  V30 2088 C 189.298 -1.81261 0.697001 0
M  V30 2089 O 188.573 -1.92171 -0.30008 0
M  V30 2090 C 188.856 -1.65551 3.19789 0
M  V30 2091 C 188.709 -0.737467 4.43713 0
M  V30 2092 C 190.028 -2.62012 3.53606 0
M  V30 2093 H 187.147 -0.315715 0.665953 0
M  V30 2094 H 189.789 -0.138004 1.89498 0
M  V30 2095 H 187.939 -2.28159 3.14445 0
M  V30 2096 H 189.611 -0.123143 4.61136 0
M  V30 2097 H 187.854 -0.0464067 4.33775 0
M  V30 2098 H 188.525 -1.32122 5.35955 0
M  V30 2099 H 191.001 -2.09525 3.59497 0
M  V30 2100 H 189.877 -3.13861 4.50314 0
M  V30 2101 H 190.138 -3.42902 2.79053 0
M  V30 2102 N 189.197 -1.51736 -0.425897 0
M  V30 2103 C 190.613 -1.40166 -0.76326 0
M  V30 2104 C 190.813 -0.492962 -1.95377 0
M  V30 2105 O 189.869 0.0475815 -2.52455 0
M  V30 2106 C 191.182 -2.82403 -1.03291 0
M  V30 2107 C 192.73 -2.91632 -1.13665 0
M  V30 2108 C 193.205 -4.34801 -1.43916 0
M  V30 2109 N 194.696 -4.3796 -1.50816 0
M  V30 2110 C 195.431 -5.4578 -1.75817 0
M  V30 2111 N 194.927 -6.63744 -1.98534 0
M  V30 2112 N 196.72 -5.33274 -1.77694 0
M  V30 2113 H 188.871 -2.09361 0.358 0
M  V30 2114 H 191.134 -0.942941 0.0978094 0
M  V30 2115 H 190.84 -3.50943 -0.230696 0
M  V30 2116 H 190.714 -3.22428 -1.95754 0
M  V30 2117 H 193.101 -2.23284 -1.92947 0
M  V30 2118 H 193.182 -2.55088 -0.190756 0
M  V30 2119 H 192.826 -5.03703 -0.65157 0
M  V30 2120 H 192.756 -4.68868 -2.39729 0
M  V30 2121 H 195.247 -3.52919 -1.35118 0
M  V30 2122 H 195.56 -7.41704 -2.17013 0
M  V30 2123 H 193.905 -6.66839 -1.95832 0
M  V30 2124 H 197.096 -4.40098 -1.59473 0
M  V30 2125 H 197.269 -6.1738 -1.9684 0
M  V30 2126 N 190.675 0.682077 -1.42076 0
M  V30 2127 C 191.922 1.44215 -1.42156 0
M  V30 2128 C 192.25 1.94468 -0.0354186 0
M  V30 2129 O 191.505 1.70816 0.955002 0
M  V30 2130 C 191.804 2.66036 -2.38662 0
M  V30 2131 C 191.47 2.34366 -3.85206 0
M  V30 2132 C 190.132 2.25439 -4.25124 0
M  V30 2133 C 192.484 2.08513 -4.77673 0
M  V30 2134 C 189.812 1.88775 -5.55501 0
M  V30 2135 C 192.164 1.73354 -6.08384 0
M  V30 2136 C 190.828 1.62933 -6.47309 0
M  V30 2137 H 190.098 0.527718 -0.520187 0
M  V30 2138 H 192.745 0.778387 -1.74967 0
M  V30 2139 H 191.05 3.3741 -1.99152 0
M  V30 2140 H 192.747 3.24205 -2.35991 0
M  V30 2141 H 189.337 2.42213 -3.53597 0
M  V30 2142 H 193.521 2.14346 -4.47626 0
M  V30 2143 H 188.777 1.7927 -5.84527 0
M  V30 2144 H 192.951 1.52373 -6.79526 0
M  V30 2145 H 190.578 1.34292 -7.48244 0
M  V30 2146 N 192.153 1.28127 0.917671 0
M  V30 2147 C 193.378 1.18007 1.70555 0
M  V30 2148 C 193.803 -0.258257 1.86319 0
M  V30 2149 O 193.161 -1.1869 1.37049 0
M  V30 2150 C 193.209 1.87948 3.07746 0
M  V30 2151 O 192.313 1.18427 3.9503 0
M  V30 2152 H 191.654 0.409867 0.522403 0
M  V30 2153 H 194.184 1.69379 1.1477 0
M  V30 2154 H 194.194 1.95701 3.58001 0
M  V30 2155 H 192.869 2.92573 2.95591 0
M  V30 2156 H 191.446 1.18811 3.53466 0
M  V30 2157 N 193.631 -1.12557 1.10312 0
M  V30 2158 C 194.877 -1.84311 0.846011 0
M  V30 2159 C 195.21 -1.83805 -0.626859 0
M  V30 2160 O 194.485 -1.28268 -1.46211 0
M  V30 2161 C 194.768 -3.32048 1.39341 0
M  V30 2162 C 194.621 -3.41016 2.93305 0
M  V30 2163 C 195.94 -4.27764 1.03468 0
M  V30 2164 H 193.059 -0.669192 0.30879 0
M  V30 2165 H 195.701 -1.32057 1.36605 0
M  V30 2166 H 193.851 -3.76678 0.951087 0
M  V30 2167 H 195.523 -3.05031 3.46055 0
M  V30 2168 H 193.766 -2.81603 3.29973 0
M  V30 2169 H 194.437 -4.44948 3.26689 0
M  V30 2170 H 196.913 -3.91253 1.41633 0
M  V30 2171 H 195.789 -5.29549 1.44463 0
M  V30 2172 H 196.05 -4.42064 -0.0560404 0
M  V30 2173 N 195.109 -0.891671 -1.2995 0
M  V30 2174 C 196.334 -0.527932 -2.00568 0
M  V30 2175 C 196.759 0.877969 -1.66353 0
M  V30 2176 O 196.117 1.58301 -0.883762 0
M  V30 2177 C 196.165 -0.717745 -3.53385 0
M  V30 2178 O 195.269 0.233376 -4.11739 0
M  V30 2179 H 194.61 -0.20722 -0.630837 0
M  V30 2180 H 197.14 -1.20105 -1.65638 0
M  V30 2181 H 197.15 -0.619307 -4.03272 0
M  V30 2182 H 195.825 -1.74276 -3.77625 0
M  V30 2183 H 194.402 0.0880706 -3.72796 0
M  V30 2184 N 196.587 1.43421 -0.653314 0
M  V30 2185 C 197.517 2.33487 0.0246656 0
M  V30 2186 C 198.498 1.49475 0.811863 0
M  V30 2187 O 199.683 1.78139 0.773322 0
M  V30 2188 C 196.813 3.32841 0.99166 0
M  V30 2189 C 195.767 4.26842 0.314568 0
M  V30 2190 C 195.093 5.16236 1.39302 0
M  V30 2191 C 196.393 5.16243 -0.793095 0
M  V30 2192 H 198.087 2.90427 -0.727481 0
M  V30 2193 H 195.633 1.39649 -0.351287 0
M  V30 2194 H 197.586 3.94747 1.47487 0
M  V30 2195 H 196.31 2.74158 1.77497 0
M  V30 2196 H 194.969 3.663 -0.148199 0
M  V30 2197 H 194.617 4.53891 2.16776 0
M  V30 2198 H 194.317 5.79948 0.945223 0
M  V30 2199 H 195.841 5.81015 1.87759 0
M  V30 2200 H 197.255 5.71958 -0.392039 0
M  V30 2201 H 195.652 5.88676 -1.16536 0
M  V30 2202 H 196.722 4.55927 -1.65103 0
M  V30 2203 N 198.065 0.39524 1.52563 0
M  V30 2204 C 199.028 -0.425001 2.25225 0
M  V30 2205 C 200.028 -0.985266 1.27079 0
M  V30 2206 O 201.218 -0.866332 1.5113 0
M  V30 2207 C 198.35 -1.59686 3.01186 0
M  V30 2208 H 199.543 0.211233 2.99155 0
M  V30 2209 H 197.096 0.147472 1.55603 0
M  V30 2210 H 197.831 -2.27035 2.31572 0
M  V30 2211 H 197.616 -1.20176 3.73229 0
M  V30 2212 H 199.106 -2.17743 3.5634 0
M  V30 2213 N 199.544 -1.57102 0.125237 0
M  V30 2214 C 200.772 -1.99761 -0.538797 0
M  V30 2215 C 201.187 -1.00503 -1.59827 0
M  V30 2216 O 200.544 0.00119474 -1.825 0
M  V30 2217 C 200.595 -3.42408 -1.15927 0
M  V30 2218 O 200.316 -4.37869 -0.142143 0
M  V30 2219 C 201.817 -4.00232 -1.90602 0
M  V30 2220 H 199.037 -0.655772 -0.14214 0
M  V30 2221 H 201.581 -2.03383 0.213413 0
M  V30 2222 H 199.736 -3.39706 -1.86223 0
M  V30 2223 H 200.15 -5.21128 -0.593775 0
M  V30 2224 H 201.624 -5.02105 -2.29335 0
M  V30 2225 H 202.101 -3.39721 -2.78363 0
M  V30 2226 H 202.707 -4.06499 -1.25055 0
M  V30 2227 N 201.022 0.148545 -1.56898 0
M  V30 2228 C 201.952 1.18524 -2.01182 0
M  V30 2229 C 202.933 1.4489 -0.891123 0
M  V30 2230 O 204.118 1.55836 -1.15882 0
M  V30 2231 C 201.248 2.51879 -2.39112 0
M  V30 2232 C 200.202 2.40038 -3.54353 0
M  V30 2233 C 199.528 3.78089 -3.78091 0
M  V30 2234 C 200.828 1.88577 -4.87069 0
M  V30 2235 H 202.522 0.817029 -2.88036 0
M  V30 2236 H 200.068 0.391575 -1.38574 0
M  V30 2237 H 202.021 3.24627 -2.68692 0
M  V30 2238 H 200.745 2.90532 -1.49193 0
M  V30 2239 H 199.404 1.69742 -3.24936 0
M  V30 2240 H 199.052 4.14175 -2.85426 0
M  V30 2241 H 198.752 3.71028 -4.55645 0
M  V30 2242 H 200.276 4.52387 -4.10095 0
M  V30 2243 H 201.69 2.51117 -5.15377 0
M  V30 2244 H 200.087 1.9241 -5.68417 0
M  V30 2245 H 201.157 0.84136 -4.77545 0
M  V30 2246 N 202.5 1.5196 0.417844 0
M  V30 2247 C 203.448 1.75278 1.52907 0
M  V30 2248 C 204.442 0.619611 1.57662 0
M  V30 2249 O 205.648 0.801457 1.61173 0
M  V30 2250 H 202.023 0.554141 0.508362 0
M  V30 2251 H 203.994 2.68389 1.30422 0
M  V30 2252 C 202.743 1.91262 2.90369 0
M  V30 2253 H 202.066 2.77872 2.8745 0
M  V30 2254 H 203.506 2.11581 3.67436 0
M  V30 2255 C 201.965 0.677431 3.30019 0
M  V30 2256 O 202.495 -0.158799 4.01386 0
M  V30 2257 N 200.701 0.515851 2.85985 0
M  V30 2258 H 200.248 1.19744 2.28077 0
M  V30 2259 H 200.206 -0.309315 3.12875 0
M  V30 2260 N 203.978 -0.674533 1.42435 0
M  V30 2261 C 205.255 -1.4305 1.33402 0
M  V30 2262 C 205.635 -2.11081 -0.0284674 0
M  V30 2263 O 204.983 -2.03257 -1.04397 0
M  V30 2264 C 205.193 -2.43272 2.50239 0
M  V30 2265 C 206.541 -3.07907 2.92367 0
M  V30 2266 O 207.565 -2.53599 2.50132 0
M  V30 2267 O 206.424 -4.0632 3.65467 0
M  V30 2268 H 203.518 -0.638076 0.526106 0
M  V30 2269 H 206.064 -0.703235 1.54443 0
M  V30 2270 H 204.836 -1.91803 3.41068 0
M  V30 2271 H 204.459 -3.23479 2.31186 0
M  V30 2272 N 205.456 -1.28612 -0.910864 0
M  V30 2273 C 206.705 -1.15311 -1.65488 0
M  V30 2274 C 207.018 0.296999 -1.93332 0
M  V30 2275 O 208.224 0.551168 -2.65847 0
M  V30 2276 C 206.68 -2.01599 -2.98137 0
M  V30 2277 C 206.288 -3.51367 -2.7793 0
M  V30 2278 C 208.032 -1.96993 -3.76024 0
M  V30 2279 C 205.939 -4.29797 -4.06237 0
M  V30 2280 H 204.869 -0.42796 -0.620779 0
M  V30 2281 H 207.52 -1.53166 -1.01057 0
M  V30 2282 H 205.902 -1.56603 -3.63719 0
M  V30 2283 H 207.076 -4.0434 -2.21011 0
M  V30 2284 H 205.391 -3.57529 -2.13452 0
M  V30 2285 H 207.988 -2.52856 -4.71135 0
M  V30 2286 H 208.331 -0.94733 -4.05378 0
M  V30 2287 H 208.864 -2.39973 -3.17266 0
M  V30 2288 H 205.603 -5.32648 -3.82055 0
M  V30 2289 H 205.123 -3.81596 -4.62757 0
M  V30 2290 H 206.802 -4.39869 -4.74473 0
M  V30 2291 N 206.934 1.1197 -1.10907 0
M  V30 2292 C 207.844 2.21433 -0.774896 0
M  V30 2293 C 208.86 1.72478 0.229657 0
M  V30 2294 O 210.036 2.01288 0.0672008 0
M  V30 2295 C 207.101 3.4602 -0.216986 0
M  V30 2296 C 206.162 4.09791 -1.27944 0
M  V30 2297 C 205.395 5.28431 -0.748055 0
M  V30 2298 O 205.618 5.68823 0.423833 0
M  V30 2299 O 204.552 5.82644 -1.51027 0
M  V30 2300 H 208.378 2.5242 -1.68873 0
M  V30 2301 H 205.963 1.20399 -0.884555 0
M  V30 2302 H 207.845 4.21304 0.090059 0
M  V30 2303 H 206.52 3.16698 0.669633 0
M  V30 2304 H 205.427 3.36265 -1.63941 0
M  V30 2305 H 206.76 4.4328 -2.13925 0
M  V30 2306 N 208.412 0.89855 1.29475 0
M  V30 2307 C 209.828 0.594483 1.48115 0
M  V30 2308 C 210.028 -0.86431 1.82022 0
M  V30 2309 O 209.084 -1.64457 1.91599 0
M  V30 2310 C 210.397 1.51932 2.59494 0
M  V30 2311 C 211.945 1.5244 2.7337 0
M  V30 2312 C 212.42 2.43548 3.87877 0
M  V30 2313 N 213.911 2.41589 3.95208 0
M  V30 2314 C 214.646 3.08789 4.83153 0
M  V30 2315 N 214.142 3.85265 5.75798 0
M  V30 2316 N 215.935 2.97952 4.76635 0
M  V30 2317 H 208.086 1.84207 1.05742 0
M  V30 2318 H 210.349 0.789251 0.525154 0
M  V30 2319 H 210.055 2.55865 2.41301 0
M  V30 2320 H 209.929 1.23899 3.56271 0
M  V30 2321 H 212.316 0.492518 2.90961 0
M  V30 2322 H 212.397 1.8451 1.77172 0
M  V30 2323 H 212.041 3.46829 3.71041 0
M  V30 2324 H 211.971 2.08788 4.83441 0
M  V30 2325 H 214.462 1.86025 3.28943 0
M  V30 2326 H 214.775 4.33598 6.39697 0
M  V30 2327 H 213.12 3.89371 5.75687 0
M  V30 2328 H 216.311 2.37723 4.03244 0
M  V30 2329 H 216.484 3.50599 5.44962 0
M  V30 2330 N 209.89 -1.43072 0.660911 0
M  V30 2331 C 211.137 -2.01721 0.177445 0
M  V30 2332 C 211.465 -1.5218 -1.21126 0
M  V30 2333 O 210.72 -0.708659 -1.82419 0
M  V30 2334 C 211.019 -3.57103 0.145563 0
M  V30 2335 C 210.685 -4.26021 1.47705 0
M  V30 2336 C 209.347 -4.44563 1.84165 0
M  V30 2337 C 211.699 -4.64983 2.35458 0
M  V30 2338 C 209.027 -4.99334 3.0803 0
M  V30 2339 C 211.379 -5.21127 3.58622 0
M  V30 2340 C 210.043 -5.37884 3.95268 0
M  V30 2341 H 209.313 -0.73815 0.0649317 0
M  V30 2342 H 211.96 -1.71446 0.853144 0
M  V30 2343 H 210.265 -3.86965 -0.61361 0
M  V30 2344 H 211.962 -4.00248 -0.2455 0
M  V30 2345 H 208.552 -4.11939 1.18339 0
M  V30 2346 H 212.736 -4.50343 2.08579 0
M  V30 2347 H 207.992 -5.10493 3.36462 0
M  V30 2348 H 212.166 -5.50262 4.26831 0
M  V30 2349 H 209.793 -5.80089 4.91325 0
M  V30 2350 N 211.368 -0.403325 -1.52352 0
M  V30 2351 C 212.298 0.416205 -2.29761 0
M  V30 2352 C 213.279 1.05123 -1.33728 0
M  V30 2353 O 214.464 1.06134 -1.62632 0
M  V30 2354 C 211.594 1.53624 -3.11475 0
M  V30 2355 C 210.548 1.02653 -4.15507 0
M  V30 2356 C 209.874 2.23971 -4.85532 0
M  V30 2357 C 211.174 0.08463 -5.22231 0
M  V30 2358 H 212.868 -0.229701 -2.98518 0
M  V30 2359 H 210.414 -0.111913 -1.43564 0
M  V30 2360 H 212.367 2.1165 -3.64393 0
M  V30 2361 H 211.091 2.20994 -2.40477 0
M  V30 2362 H 209.75 0.46871 -3.63591 0
M  V30 2363 H 209.398 2.89883 -4.11068 0
M  V30 2364 H 209.098 1.90521 -5.55856 0
M  V30 2365 H 210.622 2.82614 -5.41259 0
M  V30 2366 H 212.036 0.573509 -5.70424 0
M  V30 2367 H 210.433 -0.160783 -5.99885 0
M  V30 2368 H 211.503 -0.86237 -4.7717 0
M  V30 2369 N 212.846 1.57033 -0.133567 0
M  V30 2370 C 214.086 1.97575 0.523789 0
M  V30 2371 C 214.45 1.01605 1.62912 0
M  V30 2372 O 215.651 1.3114 2.3464 0
M  V30 2373 C 213.922 3.42256 1.02935 0
M  V30 2374 S 215.481 4.04817 1.69319 0
M  V30 2375 H 212.299 0.690427 0.169799 0
M  V30 2376 H 214.901 1.94234 -0.222101 0
M  V30 2377 H 213.605 4.09842 0.213917 0
M  V30 2378 H 213.136 3.4928 1.81017 0
M  V30 2379 H 215.151 3.96767 2.97977 0
M  V30 2380 N 214.325 -0.140222 1.56975 0
M  V30 2381 C 215.272 -1.17292 1.98774 0
M  V30 2382 C 216.242 -1.4232 0.856408 0
M  V30 2383 O 217.427 -1.54541 1.119 0
M  V30 2384 C 214.567 -2.49973 2.37923 0
M  V30 2385 C 213.68 -2.32062 3.64378 0
M  V30 2386 C 212.815 -3.57825 3.926 0
M  V30 2387 C 211.854 -3.3498 5.12303 0
M  V30 2388 N 210.991 -4.52891 5.36502 0
M  V30 2389 H 215.831 -0.809472 2.86795 0
M  V30 2390 H 213.368 -0.388237 1.41884 0
M  V30 2391 H 215.326 -3.27346 2.58652 0
M  V30 2392 H 213.956 -2.84252 1.52972 0
M  V30 2393 H 213.008 -1.45711 3.51387 0
M  V30 2394 H 214.32 -2.11145 4.51906 0
M  V30 2395 H 213.474 -4.43624 4.13863 0
M  V30 2396 H 212.213 -3.81753 3.03506 0
M  V30 2397 H 211.218 -2.4757 4.90906 0
M  V30 2398 H 212.443 -3.12444 6.02956 0
M  V30 2399 H 210.389 -4.76979 4.50363 0
M  V30 2400 H 210.306 -4.35001 6.18312 0
M  V30 2401 H 211.574 -5.39884 5.62268 0
M  V30 2402 N 215.803 -1.52179 -0.40978 0
M  V30 2403 C 216.736 -1.70196 -1.52015 0
M  V30 2404 C 217.714 -0.549542 -1.53032 0
M  V30 2405 O 218.898 -0.776815 -1.71749 0
M  V30 2406 C 216.025 -1.74069 -2.90547 0
M  V30 2407 C 215.071 -2.95601 -3.07445 0
M  V30 2408 S 215.904 -4.55956 -2.80827 0
M  V30 2409 C 217.06 -4.62614 -4.21591 0
M  V30 2410 H 217.293 -2.64109 -1.36504 0
M  V30 2411 H 214.826 -1.4221 -0.601312 0
M  V30 2412 H 216.784 -1.76985 -3.70387 0
M  V30 2413 H 215.445 -0.812835 -3.034 0
M  V30 2414 H 214.638 -2.94791 -4.08796 0
M  V30 2415 H 214.24 -2.90569 -2.35469 0
M  V30 2416 H 216.532 -4.39951 -5.15218 0
M  V30 2417 H 217.475 -5.64548 -4.27424 0
M  V30 2418 H 217.883 -3.91654 -4.06531 0
M  V30 2419 N 217.281 0.66697 -1.42791 0
M  V30 2420 C 218.229 1.80157 -1.47127 0
M  V30 2421 C 219.223 1.65825 -0.346199 0
M  V30 2422 O 220.429 1.72338 -0.519572 0
M  V30 2423 H 216.804 0.594158 -0.460956 0
M  V30 2424 H 218.775 1.73619 -2.42692 0
M  V30 2425 C 217.524 3.18351 -1.39813 0
M  V30 2426 H 216.847 3.3001 -2.25684 0
M  V30 2427 H 218.287 3.97736 -1.46908 0
M  V30 2428 C 216.746 3.36707 -0.11391 0
M  V30 2429 O 217.276 3.93027 0.830241 0
M  V30 2430 N 215.482 2.90586 -0.0285295 0
M  V30 2431 H 215.029 2.4494 -0.79764 0
M  V30 2432 H 214.987 3.03245 0.830063 0
M  V30 2433 N 218.759 1.29093 0.90403 0
M  V30 2434 C 219.989 1.19516 1.68522 0
M  V30 2435 C 220.397 -0.24738 1.87576 0
M  V30 2436 O 219.74 -1.17798 1.40959 0
M  V30 2437 C 219.802 1.83249 3.0929 0
M  V30 2438 C 219.466 3.32531 3.13484 0
M  V30 2439 C 220.463 4.28821 2.93953 0
M  V30 2440 C 218.148 3.73656 3.35688 0
M  V30 2441 C 220.142 5.64212 2.96553 0
M  V30 2442 C 217.829 5.0917 3.37919 0
M  V30 2443 C 218.827 6.04258 3.18373 0
M  V30 2444 O 218.515 7.37298 3.20385 0
M  V30 2445 H 218.247 0.415467 0.533257 0
M  V30 2446 H 220.801 1.70912 1.13922 0
M  V30 2447 H 219.031 1.26358 3.65473 0
M  V30 2448 H 220.72 1.68054 3.69476 0
M  V30 2449 H 221.486 3.98382 2.76616 0
M  V30 2450 H 217.365 3.00101 3.49943 0
M  V30 2451 H 220.909 6.38407 2.81216 0
M  V30 2452 H 216.806 5.39256 3.54787 0
M  V30 2453 H 217.574 7.46048 3.36681 0
M  V30 2454 N 220.237 -1.11381 1.11499 0
M  V30 2455 C 221.483 -1.83403 0.865512 0
M  V30 2456 C 221.816 -1.84459 -0.607329 0
M  V30 2457 O 221.091 -1.29811 -1.44842 0
M  V30 2458 C 221.374 -3.30552 1.42855 0
M  V30 2459 C 221.227 -3.37886 2.96906 0
M  V30 2460 C 222.546 -4.26643 1.08 0
M  V30 2461 H 219.665 -0.665879 0.31587 0
M  V30 2462 H 222.307 -1.30601 1.37998 0
M  V30 2463 H 220.457 -3.75648 0.990985 0
M  V30 2464 H 222.129 -3.01343 3.49271 0
M  V30 2465 H 220.372 -2.78088 3.32941 0
M  V30 2466 H 221.043 -4.41458 3.31389 0
M  V30 2467 H 223.519 -3.89729 1.45775 0
M  V30 2468 H 222.395 -5.27986 1.50072 0
M  V30 2469 H 222.656 -4.42099 -0.00915037 0
M  V30 2470 N 221.715 -0.905404 -1.28997 0
M  V30 2471 C 222.945 -0.549049 -1.99171 0
M  V30 2472 C 223.353 0.87203 -1.67906 0
M  V30 2473 O 222.696 1.58796 -0.923561 0
M  V30 2474 C 222.758 -0.668306 -3.53234 0
M  V30 2475 C 222.422 -2.0574 -4.08069 0
M  V30 2476 C 223.419 -3.0292 -4.22534 0
M  V30 2477 C 221.104 -2.36833 -4.42962 0
M  V30 2478 C 223.098 -4.29314 -4.71135 0
M  V30 2479 C 220.785 -3.63467 -4.91258 0
M  V30 2480 C 221.783 -4.59522 -5.053 0
M  V30 2481 O 221.471 -5.83907 -5.52546 0
M  V30 2482 H 221.203 -0.208784 -0.64295 0
M  V30 2483 H 223.757 -1.21836 -1.65363 0
M  V30 2484 H 221.987 0.0580547 -3.86656 0
M  V30 2485 H 223.676 -0.320273 -4.04634 0
M  V30 2486 H 224.442 -2.80216 -3.95859 0
M  V30 2487 H 220.321 -1.62824 -4.31288 0
M  V30 2488 H 223.865 -5.04293 -4.8201 0
M  V30 2489 H 219.762 -3.86 -5.17372 0
M  V30 2490 H 220.53 -5.86578 -5.70849 0
M  V30 2491 N 223.193 1.4272 -0.668489 0
M  V30 2492 C 224.441 2.01226 -0.187769 0
M  V30 2493 C 224.762 1.53092 1.2078 0
M  V30 2494 O 224.032 0.74993 1.80977 0
M  V30 2495 H 222.612 0.744041 -0.0664272 0
M  V30 2496 H 225.274 1.74723 -0.863583 0
M  V30 2497 H 224.37 3.11556 -0.184166 0
M  V30 2498 N 224.671 0.411399 1.52136 0
M  V30 2499 C 225.92 -0.165009 2.01024 0
M  V30 2500 C 226.233 -1.4603 1.30133 0
M  V30 2501 O 227.439 -2.1181 1.69849 0
M  V30 2502 C 225.895 -0.344618 3.58246 0
M  V30 2503 C 225.503 0.938716 4.38055 0
M  V30 2504 C 227.247 -0.876195 4.15359 0
M  V30 2505 C 225.154 0.726172 5.86925 0
M  V30 2506 H 224.084 -0.0654407 0.751155 0
M  V30 2507 H 226.735 0.537192 1.75461 0
M  V30 2508 H 225.117 -1.10921 3.80148 0
M  V30 2509 H 226.291 1.70963 4.27912 0
M  V30 2510 H 224.606 1.39688 3.92271 0
M  V30 2511 H 227.203 -1.05128 5.24263 0
M  V30 2512 H 227.546 -1.85152 3.7286 0
M  V30 2513 H 228.079 -0.170607 3.97434 0
M  V30 2514 H 224.818 1.67312 6.33788 0
M  V30 2515 H 224.338 -0.00540283 5.998 0
M  V30 2516 H 226.017 0.369231 6.45946 0
M  V30 2517 N 226.149 -1.5696 0.141893 0
M  V30 2518 C 227.079 -2.19516 -0.795936 0
M  V30 2519 C 228.06 -1.14187 -1.26077 0
M  V30 2520 O 229.245 -1.42511 -1.31925 0
M  V30 2521 C 226.375 -2.81272 -2.03723 0
M  V30 2522 C 225.329 -3.92384 -1.70936 0
M  V30 2523 C 224.655 -4.41052 -3.02287 0
M  V30 2524 C 225.955 -5.13403 -0.959954 0
M  V30 2525 H 227.649 -2.98138 -0.274596 0
M  V30 2526 H 225.195 -1.43406 -0.130636 0
M  V30 2527 H 227.148 -3.237 -2.69808 0
M  V30 2528 H 225.872 -1.99973 -2.58221 0
M  V30 2529 H 224.531 -3.50566 -1.07232 0
M  V30 2530 H 224.179 -3.56582 -3.54765 0
M  V30 2531 H 223.879 -5.15993 -2.81114 0
M  V30 2532 H 225.403 -4.86146 -3.69451 0
M  V30 2533 H 226.817 -5.52706 -1.52279 0
M  V30 2534 H 225.214 -5.94073 -0.848357 0
M  V30 2535 H 226.284 -4.84875 0.0492434 0
M  V30 2536 N 227.627 0.131896 -1.57047 0
M  V30 2537 C 228.59 1.14638 -1.98471 0
M  V30 2538 C 229.59 1.35029 -0.873148 0
M  V30 2539 O 230.78 1.31764 -1.13946 0
M  V30 2540 C 227.912 2.50358 -2.31373 0
M  V30 2541 H 229.105 0.79064 -2.8929 0
M  V30 2542 H 226.658 0.375761 -1.51716 0
M  V30 2543 H 227.393 2.90876 -1.43393 0
M  V30 2544 H 227.178 2.36915 -3.12432 0
M  V30 2545 H 228.668 3.23395 -2.64207 0
M  V30 2546 N 229.106 1.52395 0.401703 0
M  V30 2547 C 230.517 1.58899 0.980202 0
M  V30 2548 C 230.868 0.434032 1.91339 0
M  V30 2549 O 229.993 -0.444619 2.11783 0
M  V30 2550 C 230.588 2.87994 1.78451 0
M  V30 2551 C 229.147 2.96953 2.31292 0
M  V30 2552 C 228.294 2.53903 1.11483 0
M  V30 2553 H 231.245 1.57657 0.18168 0
M  V30 2554 H 231.266 2.73765 2.64259 0
M  V30 2555 H 230.778 3.72035 1.10506 0
M  V30 2556 H 228.879 2.17422 3.02586 0
M  V30 2557 H 228.992 4.01344 2.61649 0
M  V30 2558 H 227.356 2.07925 1.47104 0
M  V30 2559 H 228.139 3.40326 0.450928 0
M  V30 2560 N 230.584 -0.659388 1.43143 0
M  V30 2561 C 231.494 -1.80167 1.50256 0
M  V30 2562 C 232.51 -1.69571 0.390106 0
M  V30 2563 O 233.686 -1.90849 0.643319 0
M  V30 2564 C 230.751 -3.16409 1.41725 0
M  V30 2565 C 229.812 -3.38848 2.63591 0
M  V30 2566 C 229.045 -4.68591 2.55458 0
M  V30 2567 O 229.268 -5.47532 1.59891 0
M  V30 2568 O 228.202 -4.92614 3.45854 0
M  V30 2569 H 232.028 -1.77121 2.46702 0
M  V30 2570 H 229.613 -0.817092 1.25076 0
M  V30 2571 H 231.495 -3.9768 1.39387 0
M  V30 2572 H 230.17 -3.20059 0.484118 0
M  V30 2573 H 229.077 -2.57366 2.71502 0
M  V30 2574 H 230.41 -3.4004 3.55856 0
M  V30 2575 N 232.062 -1.29571 -0.897171 0
M  V30 2576 C 233.025 -1.14913 -1.98312 0
M  V30 2577 C 234.025 -0.0838629 -1.60581 0
M  V30 2578 O 235.215 -0.331006 -1.71026 0
M  V30 2579 C 232.347 -0.757835 -3.3237 0
M  V30 2580 H 233.54 -2.11377 -2.12743 0
M  V30 2581 H 231.093 -1.12793 -1.08201 0
M  V30 2582 H 231.828 0.206837 -3.2364 0
M  V30 2583 H 231.613 -1.52755 -3.61121 0
M  V30 2584 H 233.103 -0.678408 -4.12053 0
M  V30 2585 N 233.54 1.10788 -1.12088 0
M  V30 2586 C 234.788 1.8231 -0.872205 0
M  V30 2587 C 235.109 1.85419 0.603709 0
M  V30 2588 O 234.379 1.32963 1.43867 0
M  V30 2589 H 232.959 0.675137 -0.319686 0
M  V30 2590 H 235.621 1.34068 -1.41463 0
M  V30 2591 H 234.717 2.85955 -1.25045 0
M  V30 2592 N 235.018 0.912232 1.28515 0
M  V30 2593 C 235.948 0.416403 2.29757 0
M  V30 2594 C 236.929 -0.515194 1.6211 0
M  V30 2595 O 238.114 -0.423253 1.89532 0
M  V30 2596 C 235.244 -0.34572 3.45575 0
M  V30 2597 C 234.198 0.496599 4.25109 0
M  V30 2598 C 233.524 -0.393771 5.33248 0
M  V30 2599 C 234.824 1.75307 4.92001 0
M  V30 2600 H 236.518 1.26249 2.7148 0
M  V30 2601 H 234.064 0.608515 1.30511 0
M  V30 2602 H 236.017 -0.703422 4.15488 0
M  V30 2603 H 234.741 -1.2257 3.02728 0
M  V30 2604 H 233.4 0.8368 3.56922 0
M  V30 2605 H 233.048 -1.27225 4.86644 0
M  V30 2606 H 232.748 0.166209 5.87365 0
M  V30 2607 H 234.272 -0.747389 6.06009 0
M  V30 2608 H 235.686 1.46437 5.54283 0
M  V30 2609 H 234.083 2.25534 5.56106 0
M  V30 2610 H 235.153 2.48176 4.16577 0
M  V30 2611 N 236.496 -1.42363 0.676048 0
M  V30 2612 C 237.406 -2.346 -0.00153389 0
M  V30 2613 C 238.422 -1.5516 -0.787485 0
M  V30 2614 O 239.598 -1.87723 -0.729521 0
M  V30 2615 C 236.663 -3.33705 -0.940298 0
M  V30 2616 C 235.724 -4.29042 -0.148739 0
M  V30 2617 C 234.957 -5.23413 -1.04279 0
M  V30 2618 O 235.18 -5.22749 -2.28232 0
M  V30 2619 O 234.114 -5.99795 -0.502925 0
M  V30 2620 H 237.94 -2.94082 0.758268 0
M  V30 2621 H 235.525 -1.42888 0.436289 0
M  V30 2622 H 237.407 -3.94586 -1.47917 0
M  V30 2623 H 236.082 -2.76695 -1.67993 0
M  V30 2624 H 234.989 -3.71571 0.43427 0
M  V30 2625 H 236.322 -4.89097 0.551805 0
M  V30 2626 N 237.974 -0.419461 -1.51915 0
M  V30 2627 C 239.22 0.153166 -2.02221 0
M  V30 2628 C 239.553 1.43907 -1.30401 0
M  V30 2629 O 238.828 1.90055 -0.413438 0
M  V30 2630 C 239.111 0.390291 -3.57979 0
M  V30 2631 C 238.964 -0.913014 -4.40436 0
M  V30 2632 C 240.283 1.16794 -4.2432 0
M  V30 2633 H 237.402 0.0541924 -0.735005 0
M  V30 2634 H 240.044 -0.554955 -1.81715 0
M  V30 2635 H 238.194 0.993491 -3.75582 0
M  V30 2636 H 239.866 -1.54882 -4.34522 0
M  V30 2637 H 238.109 -1.52168 -4.06236 0
M  V30 2638 H 238.78 -0.701361 -5.47526 0
M  V30 2639 H 241.256 0.657161 -4.10878 0
M  V30 2640 H 240.132 1.3026 -5.3322 0
M  V30 2641 H 240.393 2.19132 -3.83971 0
M  V30 2642 N 239.452 1.56882 -0.150215 0
M  V30 2643 C 240.692 1.98119 0.502804 0
M  V30 2644 C 241.056 1.03327 1.61826 0
M  V30 2645 O 242.257 1.33621 2.33236 0
M  V30 2646 C 240.528 3.43329 0.992988 0
M  V30 2647 S 242.087 4.0659 1.65015 0
M  V30 2648 H 238.905 0.692189 0.162467 0
M  V30 2649 H 241.507 1.93988 -0.242689 0
M  V30 2650 H 240.211 4.10046 0.170436 0
M  V30 2651 H 239.742 3.5118 1.77303 0
M  V30 2652 H 241.757 3.99906 2.93752 0
M  V30 2653 N 240.93 -0.123565 1.57115 0
M  V30 2654 C 241.893 -1.13583 1.99076 0
M  V30 2655 C 242.893 -1.34564 0.880296 0
M  V30 2656 O 244.083 -1.31158 1.14644 0
M  V30 2657 C 241.215 -2.49128 2.32698 0
M  V30 2658 H 242.408 -0.775287 2.89706 0
M  V30 2659 H 239.961 -0.36771 1.51913 0
M  V30 2660 H 240.696 -2.90111 1.44934 0
M  V30 2661 H 240.481 -2.35255 3.13684 0
M  V30 2662 H 241.971 -3.2199 2.65918 0
M  V30 2663 N 242.408 -1.52605 -0.393616 0
M  V30 2664 C 243.34 -1.73303 -1.49995 0
M  V30 2665 C 244.353 -0.613473 -1.50799 0
M  V30 2666 O 245.542 -0.889049 -1.54784 0
M  V30 2667 C 242.642 -1.77245 -2.88855 0
M  V30 2668 C 241.815 -3.06483 -3.12069 0
M  V30 2669 C 240.874 -3.02033 -4.30886 0
M  V30 2670 O 239.9 -3.75907 -4.27414 0
M  V30 2671 N 241.102 -2.20897 -5.36828 0
M  V30 2672 H 243.867 -2.68756 -1.32629 0
M  V30 2673 H 241.428 -1.51036 -0.583083 0
M  V30 2674 H 243.42 -1.7178 -3.66434 0
M  V30 2675 H 241.99 -0.891993 -2.99603 0
M  V30 2676 H 241.21 -3.25474 -2.22396 0
M  V30 2677 H 242.498 -3.91947 -3.2443 0
M  V30 2678 H 241.896 -1.60336 -5.42502 0
M  V30 2679 H 240.453 -2.21275 -6.13091 0
M  V30 2680 N 243.887 0.651787 -1.4349 0
M  V30 2681 C 244.817 1.77621 -1.51569 0
M  V30 2682 C 245.798 1.66022 -0.370253 0
M  V30 2683 O 246.983 1.85095 -0.587658 0
M  V30 2684 C 244.113 3.16056 -1.43966 0
M  V30 2685 C 243.067 3.4242 -2.56774 0
M  V30 2686 C 242.393 4.8067 -2.34223 0
M  V30 2687 C 243.693 3.37023 -3.99015 0
M  V30 2688 H 245.387 1.71117 -2.45681 0
M  V30 2689 H 242.933 0.821825 -1.18246 0
M  V30 2690 H 244.886 3.94472 -1.48221 0
M  V30 2691 H 243.61 3.23293 -0.463586 0
M  V30 2692 H 242.269 2.66375 -2.51873 0
M  V30 2693 H 241.917 4.84585 -1.34856 0
M  V30 2694 H 241.617 4.9927 -3.09844 0
M  V30 2695 H 243.141 5.61342 -2.40265 0
M  V30 2696 H 244.555 4.05374 -4.05395 0
M  V30 2697 H 242.952 3.67159 -4.74673 0
M  V30 2698 H 244.022 2.3518 -4.2405 0
M  V30 2699 N 245.365 1.30045 0.890287 0
M  V30 2700 C 246.295 1.18541 2.01172 0
M  V30 2701 C 247.276 0.0773356 1.69924 0
M  V30 2702 O 248.461 0.25845 1.92473 0
M  V30 2703 C 245.591 0.870941 3.36202 0
M  V30 2704 C 244.545 1.93637 3.81692 0
M  V30 2705 C 243.871 1.475 5.13953 0
M  V30 2706 C 245.171 3.34666 4.00994 0
M  V30 2707 H 246.865 2.12359 2.11054 0
M  V30 2708 H 244.411 1.02238 1.01407 0
M  V30 2709 H 246.364 0.777141 4.14172 0
M  V30 2710 H 245.088 -0.102926 3.26438 0
M  V30 2711 H 243.747 2.01972 3.05946 0
M  V30 2712 H 243.395 0.489551 5.00612 0
M  V30 2713 H 243.095 2.1876 5.4536 0
M  V30 2714 H 244.619 1.39489 5.94454 0
M  V30 2715 H 246.033 3.2912 4.69417 0
M  V30 2716 H 244.43 4.03966 4.43769 0
M  V30 2717 H 245.5 3.76949 3.05021 0
M  V30 2718 N 246.843 -1.10192 1.12674 0
M  V30 2719 C 247.753 -2.20172 0.810026 0
M  V30 2720 C 248.769 -1.72821 -0.202188 0
M  V30 2721 O 249.945 -2.01369 -0.0351691 0
M  V30 2722 C 247.01 -3.45631 0.272007 0
M  V30 2723 C 246.071 -4.07704 1.34447 0
M  V30 2724 C 245.304 -5.27175 0.832029 0
M  V30 2725 O 245.527 -5.69425 -0.333284 0
M  V30 2726 O 244.461 -5.80168 1.60277 0
M  V30 2727 H 248.287 -2.49701 1.72867 0
M  V30 2728 H 245.872 -1.18977 0.903597 0
M  V30 2729 H 247.754 -4.21394 -0.0230219 0
M  V30 2730 H 246.429 -3.17723 -0.619164 0
M  V30 2731 H 245.336 -3.33614 1.6927 0
M  V30 2732 H 246.669 -4.3982 2.2095 0
M  V30 2733 N 248.321 -0.919034 -1.28029 0
M  V30 2734 C 249.251 -0.428581 -2.29533 0
M  V30 2735 C 250.232 0.50659 -1.62381 0
M  V30 2736 O 251.417 0.413195 -1.89753 0
M  V30 2737 C 248.547 0.327388 -3.45753 0
M  V30 2738 C 247.501 -0.519137 -4.2484 0
M  V30 2739 C 246.827 0.365486 -5.33449 0
M  V30 2740 C 248.127 -1.77914 -4.91064 0
M  V30 2741 H 249.821 -1.27687 -2.70807 0
M  V30 2742 H 247.367 -0.615428 -1.30186 0
M  V30 2743 H 249.32 0.681378 -4.15855 0
M  V30 2744 H 248.044 1.20963 -3.03374 0
M  V30 2745 H 246.703 -0.855717 -3.56473 0
M  V30 2746 H 246.351 1.24642 -4.87312 0
M  V30 2747 H 246.051 -0.197356 -5.87268 0
M  V30 2748 H 247.575 0.715241 -6.06396 0
M  V30 2749 H 248.989 -1.49374 -5.53498 0
M  V30 2750 H 247.386 -2.2848 -5.54903 0
M  V30 2751 H 248.456 -2.50382 -4.15255 0
M  V30 2752 N 249.799 1.42003 -0.683588 0
M  V30 2753 C 250.729 2.33487 -0.024866 0
M  V30 2754 C 251.71 1.51163 0.779975 0
M  V30 2755 O 252.895 1.79739 0.735362 0
M  V30 2756 C 250.025 3.3487 0.920836 0
M  V30 2757 C 248.979 4.27414 0.223958 0
M  V30 2758 C 248.305 5.19074 1.2832 0
M  V30 2759 C 249.605 5.14445 -0.90242 0
M  V30 2760 H 251.299 2.88819 -0.788921 0
M  V30 2761 H 248.845 1.38873 -0.38083 0
M  V30 2762 H 250.798 3.97787 1.39081 0
M  V30 2763 H 249.522 2.77861 1.71642 0
M  V30 2764 H 248.181 3.65904 -0.225864 0
M  V30 2765 H 247.829 4.58387 2.071 0
M  V30 2766 H 247.529 5.81822 0.821995 0
M  V30 2767 H 249.053 5.84867 1.75392 0
M  V30 2768 H 250.467 5.70998 -0.513272 0
M  V30 2769 H 248.864 5.86072 -1.28997 0
M  V30 2770 H 249.934 4.52322 -1.74737 0
M  V30 2771 N 251.277 0.427512 1.51691 0
M  V30 2772 C 252.693 0.0792977 1.59403 0
M  V30 2773 C 252.893 -1.41035 1.43914 0
M  V30 2774 O 251.949 -2.17922 1.27539 0
M  V30 2775 C 253.262 0.590636 2.94842 0
M  V30 2776 C 254.81 0.550215 3.08126 0
M  V30 2777 C 255.285 1.03836 4.46074 0
M  V30 2778 N 256.776 0.995943 4.52366 0
M  V30 2779 C 257.511 1.34463 5.57411 0
M  V30 2780 N 257.007 1.76569 6.69922 0
M  V30 2781 N 258.8 1.26343 5.47717 0
M  V30 2782 H 250.951 1.39687 1.60004 0
M  V30 2783 H 253.214 0.575003 0.753708 0
M  V30 2784 H 252.92 1.63251 3.11516 0
M  V30 2785 H 252.794 0.0102061 3.77199 0
M  V30 2786 H 255.181 -0.482654 2.91126 0
M  V30 2787 H 255.262 1.16693 2.27632 0
M  V30 2788 H 254.906 2.06965 4.63819 0
M  V30 2789 H 254.836 0.398286 5.25092 0
M  V30 2790 H 257.327 0.68661 3.7161 0
M  V30 2791 H 257.64 2.01438 7.46085 0
M  V30 2792 H 255.985 1.80488 6.71155 0
M  V30 2793 H 259.176 0.933209 4.58703 0
M  V30 2794 H 259.349 1.53846 6.29472 0
M  V30 2795 N 252.755 -1.56801 0.158532 0
M  V30 2796 C 254.171 -1.5837 -0.197774 0
M  V30 2797 C 254.371 -1.17334 -1.63814 0
M  V30 2798 O 253.427 -0.878988 -2.36707 0
M  V30 2799 C 254.74 -3.00615 0.0714459 0
M  V30 2800 C 256.288 -3.12999 0.00864533 0
M  V30 2801 C 256.763 -4.57313 0.250685 0
M  V30 2802 N 258.254 -4.62777 0.198014 0
M  V30 2803 C 258.989 -5.72271 0.359642 0
M  V30 2804 N 258.485 -6.90371 0.579625 0
M  V30 2805 N 260.278 -5.61318 0.296438 0
M  V30 2806 H 252.429 -1.81765 1.09887 0
M  V30 2807 H 254.692 -0.841849 0.435884 0
M  V30 2808 H 254.398 -3.35068 1.06874 0
M  V30 2809 H 254.272 -3.71683 -0.642757 0
M  V30 2810 H 256.659 -2.7838 -0.979217 0
M  V30 2811 H 256.74 -2.44393 0.755359 0
M  V30 2812 H 256.384 -4.92639 1.2357 0
M  V30 2813 H 256.314 -5.24061 -0.516489 0
M  V30 2814 H 258.805 -3.77885 0.0331115 0
M  V30 2815 H 259.118 -7.69689 0.69275 0
M  V30 2816 H 257.463 -6.92264 0.616087 0
M  V30 2817 H 260.654 -4.67932 0.125258 0
M  V30 2818 H 260.827 -6.46599 0.425831 0
M  V30 2819 N 254.233 0.115231 -1.57178 0
M  V30 2820 C 255.163 1.1423 -2.03651 0
M  V30 2821 C 256.144 1.42967 -0.921655 0
M  V30 2822 O 257.329 1.53343 -1.19162 0
M  V30 2823 C 254.459 2.4675 -2.44401 0
M  V30 2824 C 253.413 2.32467 -3.59365 0
M  V30 2825 C 252.739 3.69984 -3.86026 0
M  V30 2826 C 254.039 1.78203 -4.90959 0
M  V30 2827 H 255.733 0.755749 -2.89705 0
M  V30 2828 H 253.279 0.362093 -1.39373 0
M  V30 2829 H 255.232 3.18854 -2.75517 0
M  V30 2830 H 253.956 2.87302 -1.55322 0
M  V30 2831 H 252.615 1.62811 -3.28463 0
M  V30 2832 H 252.263 4.08028 -2.94147 0
M  V30 2833 H 251.963 3.61279 -4.63412 0
M  V30 2834 H 253.487 4.43587 -4.19599 0
M  V30 2835 H 254.901 2.40128 -5.20587 0
M  V30 2836 H 253.298 1.8031 -5.72371 0
M  V30 2837 H 254.368 0.739876 -4.79222 0
M  V30 2838 N 255.711 1.52812 0.385517 0
M  V30 2839 C 256.951 1.69716 1.13911 0
M  V30 2840 C 257.315 0.42962 1.87132 0
M  V30 2841 O 258.516 0.475071 2.64569 0
M  V30 2842 C 256.787 2.90021 2.0886 0
M  V30 2843 S 258.346 3.27531 2.92009 0
M  V30 2844 H 255.164 0.59739 0.385547 0
M  V30 2845 H 257.766 1.90868 0.423061 0
M  V30 2846 H 256.47 3.80493 1.53797 0
M  V30 2847 H 256.001 2.71213 2.84969 0
M  V30 2848 H 258.016 2.77989 4.11019 0
M  V30 2849 N 257.189 -0.644168 1.43834 0
M  V30 2850 C 258.437 -1.40117 1.45642 0
M  V30 2851 C 258.758 -1.94814 0.0852413 0
M  V30 2852 O 258.028 -1.74988 -0.880688 0
M  V30 2853 H 256.608 -0.52005 0.536243 0
M  V30 2854 H 259.27 -0.7591 1.7951 0
M  V30 2855 H 258.366 -2.23902 2.17427 0
M  V30 2856 N 258.668 -1.30515 -0.883378 0
M  V30 2857 C 259.917 -1.18795 -1.63005 0
M  V30 2858 C 260.23 0.255923 -1.93919 0
M  V30 2859 O 261.436 0.494654 -2.66956 0
M  V30 2860 C 259.892 -2.07878 -2.93794 0
M  V30 2861 C 259.5 -3.57184 -2.70414 0
M  V30 2862 C 261.244 -2.04924 -3.71761 0
M  V30 2863 C 259.151 -4.38317 -3.97029 0
M  V30 2864 H 258.081 -0.441031 -0.611562 0
M  V30 2865 H 260.732 -1.55275 -0.977854 0
M  V30 2866 H 259.114 -1.64283 -3.60315 0
M  V30 2867 H 260.288 -4.08937 -2.12384 0
M  V30 2868 H 258.603 -3.61976 -2.0582 0
M  V30 2869 H 261.2 -2.62792 -4.65665 0
M  V30 2870 H 261.543 -1.0331 -4.03277 0
M  V30 2871 H 262.076 -2.46649 -3.12104 0
M  V30 2872 H 258.815 -5.40632 -3.70671 0
M  V30 2873 H 258.335 -3.91326 -4.54559 0
M  V30 2874 H 260.014 -4.49834 -4.65036 0
M  V30 2875 N 260.146 1.09593 -1.13257 0
M  V30 2876 C 261.371 1.8604 -0.916732 0
M  V30 2877 C 261.796 1.80504 0.529146 0
M  V30 2878 O 261.154 1.18127 1.37534 0
M  V30 2879 C 261.202 3.32017 -1.40703 0
M  V30 2880 O 260.306 4.08141 -0.591153 0
M  V30 2881 H 259.647 0.576943 -0.328683 0
M  V30 2882 H 262.177 1.38405 -1.50682 0
M  V30 2883 H 262.187 3.82865 -1.4099 0
M  V30 2884 H 260.862 3.35361 -2.45979 0
M  V30 2885 H 259.439 3.67084 -0.656005 0
M  V30 2886 N 261.624 0.925811 1.2754 0
M  V30 2887 C 263.035 0.610102 1.7645 0
M  V30 2888 C 263.386 -0.874723 1.75622 0
M  V30 2889 O 262.511 -1.68444 1.35851 0
M  V30 2890 C 263.106 1.10073 3.20421 0
M  V30 2891 C 261.665 0.835723 3.67005 0
M  V30 2892 C 260.812 1.26054 2.46993 0
M  V30 2893 H 263.763 1.10579 1.13833 0
M  V30 2894 H 263.784 0.447557 3.77859 0
M  V30 2895 H 263.296 2.18143 3.20991 0
M  V30 2896 H 261.397 -0.231249 3.71882 0
M  V30 2897 H 261.51 1.45193 4.56569 0
M  V30 2898 H 259.874 0.679111 2.45479 0
M  V30 2899 H 260.657 2.34984 2.50275 0
M  V30 2900 N 263.102 -1.41638 0.69111 0
M  V30 2901 C 264.348 -2.01598 0.220519 0
M  V30 2902 C 264.681 -1.54594 -1.17535 0
M  V30 2903 O 263.956 -0.755177 -1.79241 0
M  V30 2904 C 264.239 -3.59062 0.273243 0
M  V30 2905 C 264.092 -4.16203 1.70573 0
M  V30 2906 C 265.411 -4.38546 -0.369457 0
M  V30 2907 H 262.53 -0.732468 0.0816045 0
M  V30 2908 H 265.172 -1.68445 0.878986 0
M  V30 2909 H 263.322 -3.87435 -0.287411 0
M  V30 2910 H 264.994 -3.98722 2.31989 0
M  V30 2911 H 263.237 -3.71414 2.2413 0
M  V30 2912 H 263.908 -5.25358 1.69419 0
M  V30 2913 H 266.384 -4.1596 0.107977 0
M  V30 2914 H 265.26 -5.48069 -0.302002 0
M  V30 2915 H 265.521 -4.17662 -1.44951 0
M  V30 2916 N 264.58 -0.43555 -1.51462 0
M  V30 2917 C 265.543 0.365137 -2.26273 0
M  V30 2918 C 266.543 0.951227 -1.29647 0
M  V30 2919 O 267.733 0.825958 -1.53374 0
M  V30 2920 C 264.865 1.51645 -3.05314 0
M  V30 2921 H 266.058 -0.290474 -2.9849 0
M  V30 2922 H 263.611 -0.188676 -1.55157 0
M  V30 2923 H 264.346 2.20816 -2.3751 0
M  V30 2924 H 264.131 1.10238 -3.76284 0
M  V30 2925 H 265.621 2.08218 -3.61987 0
M  V30 2926 N 266.058 1.56714 -0.166846 0
M  V30 2927 C 267.474 1.58473 0.189372 0
M  V30 2928 C 267.674 1.18201 1.63189 0
M  V30 2929 O 266.73 0.891528 2.36237 0
M  V30 2930 C 268.043 3.00573 -0.0873872 0
M  V30 2931 C 269.591 3.1299 -0.0252443 0
M  V30 2932 C 270.066 4.57174 -0.274934 0
M  V30 2933 N 271.557 4.62665 -0.222553 0
M  V30 2934 C 272.292 5.72072 -0.389985 0
M  V30 2935 N 271.788 6.90054 -0.616229 0
M  V30 2936 N 273.581 5.61153 -0.326202 0
M  V30 2937 H 265.732 1.8118 -1.10849 0
M  V30 2938 H 267.995 0.839525 -0.440342 0
M  V30 2939 H 267.701 3.34497 -1.0865 0
M  V30 2940 H 267.575 3.72019 0.623037 0
M  V30 2941 H 269.962 2.78895 0.96444 0
M  V30 2942 H 270.043 2.43989 -0.768309 0
M  V30 2943 H 269.687 4.91976 -1.26181 0
M  V30 2944 H 269.617 5.24328 0.48869 0
M  V30 2945 H 272.108 3.77863 -0.0531512 0
M  V30 2946 H 272.421 7.69311 -0.733559 0
M  V30 2947 H 270.766 6.91927 -0.652791 0
M  V30 2948 H 273.957 4.67859 -0.150072 0
M  V30 2949 H 274.13 6.46364 -0.460116 0
M  V30 2950 N 267.536 -0.106894 1.57237 0
M  V30 2951 C 268.468 -1.15646 1.97885 0
M  V30 2952 C 269.481 -1.36981 0.879779 0
M  V30 2953 O 270.67 -1.35841 1.15799 0
M  V30 2954 C 267.77 -2.51425 2.27241 0
M  V30 2955 C 266.943 -2.50529 3.58545 0
M  V30 2956 C 266.002 -3.68145 3.75973 0
M  V30 2957 O 265.028 -3.51176 4.47956 0
M  V30 2958 N 266.23 -4.87177 3.15656 0
M  V30 2959 H 268.995 -0.81059 2.8853 0
M  V30 2960 H 266.556 -0.296024 1.59171 0
M  V30 2961 H 268.548 -3.28689 2.36105 0
M  V30 2962 H 267.118 -2.78147 1.42663 0
M  V30 2963 H 266.338 -1.58894 3.60758 0
M  V30 2964 H 267.626 -2.46997 4.44826 0
M  V30 2965 H 267.024 -5.03868 2.57165 0
M  V30 2966 H 265.581 -5.62075 3.30023 0
M  V30 2967 N 269.014 -1.53014 -0.377408 0
M  V30 2968 C 269.924 -1.81557 -1.48574 0
M  V30 2969 C 270.94 -0.703102 -1.59162 0
M  V30 2970 O 272.116 -0.99192 -1.75279 0
M  V30 2971 C 269.181 -1.9889 -2.83978 0
M  V30 2972 C 268.242 -3.22801 -2.83016 0
M  V30 2973 C 267.475 -3.39298 -4.11962 0
M  V30 2974 O 267.698 -2.60345 -5.0752 0
M  V30 2975 O 266.632 -4.32604 -4.18494 0
M  V30 2976 H 270.458 -2.75695 -1.27382 0
M  V30 2977 H 268.043 -1.38248 -0.566373 0
M  V30 2978 H 269.925 -2.11931 -3.6423 0
M  V30 2979 H 268.6 -1.07942 -3.05172 0
M  V30 2980 H 267.507 -3.15193 -2.01505 0
M  V30 2981 H 268.84 -4.13632 -2.66775 0
M  V30 2982 N 270.492 0.636531 -1.44174 0
M  V30 2983 C 271.738 1.39826 -1.4689 0
M  V30 2984 C 272.071 1.93947 -0.0990585 0
M  V30 2985 O 271.346 1.73325 0.882544 0
M  V30 2986 C 271.629 2.56751 -2.5249 0
M  V30 2987 C 271.482 2.08014 -3.98811 0
M  V30 2988 C 272.801 3.58946 -2.54649 0
M  V30 2989 H 269.92 0.507075 -0.53483 0
M  V30 2990 H 272.562 0.720188 -1.75822 0
M  V30 2991 H 270.712 3.14597 -2.2795 0
M  V30 2992 H 272.384 1.5504 -4.34466 0
M  V30 2993 H 270.627 1.39242 -4.10846 0
M  V30 2994 H 271.298 2.92169 -4.68339 0
M  V30 2995 H 273.774 3.1089 -2.76563 0
M  V30 2996 H 272.65 4.38286 -3.3045 0
M  V30 2997 H 272.911 4.12655 -1.58646 0
M  V30 2998 N 271.97 1.30982 0.876444 0
M  V30 2999 C 273.2 1.23063 1.65949 0
M  V30 3000 C 273.608 -0.207537 1.88058 0
M  V30 3001 O 272.951 -1.14781 1.43426 0
M  V30 3002 C 273.013 1.89768 3.05333 0
M  V30 3003 C 272.677 3.39106 3.0636 0
M  V30 3004 C 273.674 4.3496 2.84791 0
M  V30 3005 C 271.359 3.80693 3.27686 0
M  V30 3006 C 273.353 5.70375 2.84519 0
M  V30 3007 C 271.04 5.16223 3.27043 0
M  V30 3008 C 272.038 6.10875 3.05485 0
M  V30 3009 O 271.726 7.43928 3.04674 0
M  V30 3010 H 271.458 0.426685 0.524324 0
M  V30 3011 H 274.012 1.7329 1.10271 0
M  V30 3012 H 272.242 1.34082 3.6271 0
M  V30 3013 H 273.931 1.75853 3.65829 0
M  V30 3014 H 274.697 4.0416 2.68103 0
M  V30 3015 H 270.576 3.07457 3.43499 0
M  V30 3016 H 274.12 6.44228 2.67611 0
M  V30 3017 H 270.017 5.4666 3.43269 0
M  V30 3018 H 270.785 7.53022 3.2078 0
M  V30 3019 N 273.449 -1.08991 1.13837 0
M  V30 3020 C 274.695 -1.81526 0.90422 0
M  V30 3021 C 275.028 -1.85706 -0.568066 0
M  V30 3022 O 274.303 -1.32855 -1.42056 0
M  V30 3023 C 274.586 -3.27447 1.49835 0
M  V30 3024 C 274.439 -3.31512 3.04006 0
M  V30 3025 C 275.758 -4.24256 1.17025 0
M  V30 3026 H 272.877 -0.659029 0.329923 0
M  V30 3027 H 275.519 -1.27644 1.40737 0
M  V30 3028 H 273.669 -3.73462 1.07044 0
M  V30 3029 H 275.341 -2.93867 3.55584 0
M  V30 3030 H 273.584 -2.70963 3.38765 0
M  V30 3031 H 274.255 -4.34329 3.40679 0
M  V30 3032 H 276.731 -3.86549 1.54009 0
M  V30 3033 H 275.607 -5.24684 1.61237 0
M  V30 3034 H 275.868 -4.42019 0.0846274 0
M  V30 3035 N 274.927 -0.932562 -1.27047 0
M  V30 3036 C 275.837 -0.441219 -2.30414 0
M  V30 3037 C 276.853 0.480525 -1.67233 0
M  V30 3038 O 278.029 0.362151 -1.98117 0
M  V30 3039 C 275.094 0.293651 -3.45454 0
M  V30 3040 C 274.155 -0.663601 -4.2414 0
M  V30 3041 C 273.388 0.0362932 -5.33688 0
M  V30 3042 O 273.611 1.2548 -5.56427 0
M  V30 3043 O 272.545 -0.638015 -5.98509 0
M  V30 3044 H 276.371 -1.29962 -2.74488 0
M  V30 3045 H 273.956 -0.6981 -1.32087 0
M  V30 3046 H 275.838 0.707951 -4.15411 0
M  V30 3047 H 274.513 1.12758 -3.03426 0
M  V30 3048 H 273.42 -1.12768 -3.56699 0
M  V30 3049 H 274.753 -1.46489 -4.69896 0
M  V30 3050 N 276.405 1.4127 -0.698611 0
M  V30 3051 C 277.653 2.00782 -0.230409 0
M  V30 3052 C 277.974 1.5562 1.17505 0
M  V30 3053 O 277.244 0.78815 1.79346 0
M  V30 3054 H 275.824 0.742464 -0.0821944 0
M  V30 3055 H 278.486 1.72852 -0.90045 0
M  V30 3056 H 277.582 3.11095 -0.25021 0
M  V30 3057 N 277.883 0.443576 1.51229 0
M  V30 3058 C 279.111 -0.11929 2.06556 0
M  V30 3059 C 279.526 -1.35921 1.31038 0
M  V30 3060 O 278.883 -1.78675 0.371704 0
M  V30 3061 C 278.934 -0.435228 3.5887 0
M  V30 3062 O 278.655 0.755486 4.31537 0
M  V30 3063 C 280.156 -1.04808 4.30732 0
M  V30 3064 H 277.376 -0.0051584 0.67098 0
M  V30 3065 H 279.92 0.624453 1.94733 0
M  V30 3066 H 278.075 -1.12887 3.70588 0
M  V30 3067 H 278.489 0.483491 5.22267 0
M  V30 3068 H 279.963 -1.2191 5.3837 0
M  V30 3069 H 280.44 -2.03081 3.89429 0
M  V30 3070 H 281.046 -0.393637 4.23474 0
M  V30 3071 N 279.361 -1.56624 0.175154 0
M  V30 3072 C 280.589 -2.01374 -0.474971 0
M  V30 3073 C 281.004 -1.05537 -1.56548 0
M  V30 3074 O 280.361 -0.0568668 -1.82411 0
M  V30 3075 C 280.412 -3.45923 -1.04975 0
M  V30 3076 O 280.133 -4.381 -0.00276605 0
M  V30 3077 C 281.634 -4.06093 -1.77773 0
M  V30 3078 H 278.854 -0.659962 -0.121206 0
M  V30 3079 H 281.398 -2.02601 0.27801 0
M  V30 3080 H 279.553 -3.45458 -1.75321 0
M  V30 3081 H 279.967 -5.22753 -0.427681 0
M  V30 3082 H 281.441 -5.09147 -2.13245 0
M  V30 3083 H 281.918 -3.48405 -2.67414 0
M  V30 3084 H 282.524 -4.10272 -1.12059 0
M  V30 3085 N 280.839 0.0985539 -1.57292 0
M  V30 3086 C 282.079 0.808332 -1.87737 0
M  V30 3087 C 282.443 1.7607 -0.76572 0
M  V30 3088 O 283.644 2.51358 -0.952499 0
M  V30 3089 C 281.915 1.52093 -3.23423 0
M  V30 3090 S 283.474 2.26947 -3.75554 0
M  V30 3091 H 280.292 0.269377 -0.657995 0
M  V30 3092 H 282.894 0.0656269 -1.9539 0
M  V30 3093 H 281.598 0.81363 -4.02254 0
M  V30 3094 H 281.129 2.30361 -3.189 0
M  V30 3095 H 283.144 3.53027 -3.48692 0
M  V30 3096 N 282.317 1.53212 0.369288 0
M  V30 3097 C 283.28 1.7872 1.43498 0
M  V30 3098 C 284.28 0.657554 1.46741 0
M  V30 3099 O 285.47 0.925736 1.47566 0
M  V30 3100 C 282.602 1.90591 2.82645 0
M  V30 3101 H 283.795 2.73894 1.22156 0
M  V30 3102 H 281.348 1.44233 0.602203 0
M  V30 3103 H 282.083 0.974709 3.09306 0
M  V30 3104 H 281.868 2.72751 2.8169 0
M  V30 3105 H 283.358 2.11931 3.59826 0
M  V30 3106 N 283.795 -0.628877 1.44509 0
M  V30 3107 C 284.727 -1.754 1.47538 0
M  V30 3108 C 285.74 -1.58575 0.368506 0
M  V30 3109 O 286.929 -1.66847 0.634376 0
M  V30 3110 C 284.029 -3.1315 1.29577 0
M  V30 3111 C 283.202 -3.56413 2.53551 0
M  V30 3112 C 282.261 -4.7305 2.30457 0
M  V30 3113 O 281.287 -4.81247 3.03957 0
M  V30 3114 N 282.489 -5.64903 1.3366 0
M  V30 3115 H 285.254 -1.73272 2.44534 0
M  V30 3116 H 282.815 -0.813512 1.39977 0
M  V30 3117 H 284.807 -3.88902 1.11971 0
M  V30 3118 H 283.377 -3.09908 0.409371 0
M  V30 3119 H 282.597 -2.70847 2.86419 0
M  V30 3120 H 283.885 -3.82071 3.36005 0
M  V30 3121 H 283.283 -5.60975 0.729604 0
M  V30 3122 H 281.84 -6.40275 1.22032 0
M  V30 3123 N 285.273 -1.31445 -0.869486 0
M  V30 3124 C 286.513 -1.22458 -1.63656 0
M  V30 3125 C 286.877 0.213846 -1.90805 0
M  V30 3126 O 288.078 0.427212 -2.65383 0
M  V30 3127 C 286.349 -2.04564 -2.93067 0
M  V30 3128 S 287.908 -2.12445 -3.83944 0
M  V30 3129 H 284.726 -0.436145 -0.561514 0
M  V30 3130 H 287.328 -1.66114 -1.03085 0
M  V30 3131 H 286.032 -3.0816 -2.71045 0
M  V30 3132 H 285.563 -1.6163 -3.58663 0
M  V30 3133 H 287.578 -1.26312 -4.79854 0
M  V30 3134 N 286.751 1.08385 -1.14413 0
M  V30 3135 C 287.981 1.8425 -0.934644 0
M  V30 3136 C 288.389 1.81907 0.520234 0
M  V30 3137 O 287.732 1.22126 1.37226 0
M  V30 3138 C 287.794 3.32853 -1.35828 0
M  V30 3139 C 287.458 3.5893 -2.82875 0
M  V30 3140 C 288.455 3.53756 -3.80989 0
M  V30 3141 C 286.14 3.86934 -3.20293 0
M  V30 3142 C 288.134 3.76216 -5.14529 0
M  V30 3143 C 285.821 4.09047 -4.54008 0
M  V30 3144 C 286.819 4.03682 -5.50936 0
M  V30 3145 O 286.507 4.25214 -6.82238 0
M  V30 3146 H 286.239 0.588502 -0.332628 0
M  V30 3147 H 288.793 1.37792 -1.52324 0
M  V30 3148 H 287.023 3.8007 -0.713019 0
M  V30 3149 H 288.712 3.90154 -1.11957 0
M  V30 3150 H 289.478 3.32135 -3.53428 0
M  V30 3151 H 285.357 3.9023 -2.45442 0
M  V30 3152 H 288.901 3.71943 -5.90173 0
M  V30 3153 H 284.798 4.30151 -4.8129 0
M  V30 3154 H 285.566 4.42619 -6.88499 0
M  V30 3155 N 288.23 0.939286 1.26551 0
M  V30 3156 C 289.14 0.453432 2.30176 0
M  V30 3157 C 290.156 -0.471649 1.67486 0
M  V30 3158 O 291.332 -0.35164 1.98306 0
M  V30 3159 C 288.397 -0.275326 3.45605 0
M  V30 3160 C 287.458 0.686084 4.23782 0
M  V30 3161 C 286.691 -0.00798994 5.33699 0
M  V30 3162 O 286.914 -1.22528 5.57085 0
M  V30 3163 O 285.848 0.669746 5.98162 0
M  V30 3164 H 289.674 1.31416 2.73795 0
M  V30 3165 H 287.259 0.705095 1.31715 0
M  V30 3166 H 289.141 -0.685911 4.1578 0
M  V30 3167 H 287.816 -1.11147 3.0402 0
M  V30 3168 H 286.723 1.14658 3.56096 0
M  V30 3169 H 288.056 1.48979 4.69112 0
M  V30 3170 N 289.708 -1.40897 0.706093 0
M  V30 3171 C 290.618 -2.3455 0.0482286 0
M  V30 3172 C 291.634 -1.56796 -0.754396 0
M  V30 3173 O 292.81 -1.89228 -0.689538 0
M  V30 3174 C 289.875 -3.35625 -0.869303 0
M  V30 3175 C 288.936 -4.29261 -0.0576994 0
M  V30 3176 C 288.169 -5.25508 -0.931531 0
M  V30 3177 O 288.392 -5.27472 -2.17092 0
M  V30 3178 O 287.326 -6.00727 -0.375587 0
M  V30 3179 H 291.152 -2.92407 0.820476 0
M  V30 3180 H 288.737 -1.4193 0.4665 0
M  V30 3181 H 290.619 -3.97635 -1.39514 0
M  V30 3182 H 289.294 -2.80196 -1.62086 0
M  V30 3183 H 288.201 -3.70566 0.512988 0
M  V30 3184 H 289.534 -4.87817 0.655426 0
M  V30 3185 N 291.186 -0.45159 -1.50991 0
M  V30 3186 C 292.116 0.342898 -2.30969 0
M  V30 3187 C 293.097 1.00815 -1.37005 0
M  V30 3188 O 294.282 1.00907 -1.65926 0
M  V30 3189 C 291.412 1.43637 -3.16205 0
M  V30 3190 C 290.366 0.893818 -4.18563 0
M  V30 3191 C 289.692 2.08411 -4.92411 0
M  V30 3192 C 290.992 -0.0815568 -5.22236 0
M  V30 3193 H 292.686 -0.324556 -2.97636 0
M  V30 3194 H 290.232 -0.157531 -1.43136 0
M  V30 3195 H 292.185 1.9995 -3.70942 0
M  V30 3196 H 290.909 2.13232 -2.47386 0
M  V30 3197 H 289.568 0.352798 -3.64898 0
M  V30 3198 H 289.216 2.76658 -4.20082 0
M  V30 3199 H 288.916 1.72741 -5.61636 0
M  V30 3200 H 290.44 2.65251 -5.49976 0
M  V30 3201 H 291.854 0.391742 -5.7196 0
M  V30 3202 H 290.251 -0.351551 -5.99069 0
M  V30 3203 H 291.321 -1.01374 -4.74185 0
M  V30 3204 N 292.664 1.56529 -0.183458 0
M  V30 3205 C 293.892 2.01623 0.464285 0
M  V30 3206 C 294.307 1.06366 1.55986 0
M  V30 3207 O 293.664 0.0665398 1.82379 0
M  V30 3208 C 293.715 3.46475 1.03139 0
M  V30 3209 O 293.436 4.38095 -0.0204675 0
M  V30 3210 C 294.937 4.0703 1.75617 0
M  V30 3211 H 292.157 0.660596 0.117704 0
M  V30 3212 H 294.701 2.02451 -0.288751 0
M  V30 3213 H 292.856 3.46383 1.73486 0
M  V30 3214 H 293.27 5.22973 0.399952 0
M  V30 3215 H 294.744 5.10271 2.10542 0
M  V30 3216 H 295.221 3.49819 2.65563 0
M  V30 3217 H 295.827 4.1086 1.09882 0
M  V30 3218 N 294.142 -0.090211 1.57342 0
M  V30 3219 C 295.391 -0.791531 1.8552 0
M  V30 3220 C 295.704 -1.79659 0.773441 0
M  V30 3221 O 296.91 -2.54616 0.942497 0
M  V30 3222 C 295.366 -1.45856 3.2902 0
M  V30 3223 C 294.974 -0.493017 4.45279 0
M  V30 3224 C 296.718 -2.14332 3.66418 0
M  V30 3225 C 294.625 -1.16491 5.79814 0
M  V30 3226 H 293.555 -0.299356 0.692027 0
M  V30 3227 H 296.206 -0.0445343 1.83446 0
M  V30 3228 H 294.588 -2.25318 3.2565 0
M  V30 3229 H 295.762 0.270464 4.60006 0
M  V30 3230 H 294.077 0.0863061 4.16311 0
M  V30 3231 H 296.674 -2.65344 4.64216 0
M  V30 3232 H 297.017 -2.93447 2.95287 0
M  V30 3233 H 297.55 -1.41724 3.71698 0
M  V30 3234 H 294.289 -0.41447 6.54188 0
M  V30 3235 H 293.809 -1.8997 5.68921 0
M  V30 3236 H 295.488 -1.69001 6.24538 0
M  V30 3237 N 295.62 -1.53406 -0.361157 0
M  V30 3238 C 296.869 -1.69022 -1.10066 0
M  V30 3239 C 297.182 -0.450838 -1.90333 0
M  V30 3240 O 298.388 -0.487617 -2.67085 0
M  V30 3241 C 296.844 -2.98812 -2.00598 0
M  V30 3242 C 296.452 -4.30027 -1.25621 0
M  V30 3243 C 298.196 -3.23795 -2.74513 0
M  V30 3244 C 296.103 -5.50903 -2.1508 0
M  V30 3245 H 295.033 -0.629776 -0.414606 0
M  V30 3246 H 297.684 -1.79907 -0.361348 0
M  V30 3247 H 296.066 -2.8174 -2.78278 0
M  V30 3248 H 297.24 -4.57745 -0.529739 0
M  V30 3249 H 295.555 -4.11522 -0.635496 0
M  V30 3250 H 298.152 -4.11289 -3.41681 0
M  V30 3251 H 298.495 -2.40045 -3.40123 0
M  V30 3252 H 299.028 -3.41561 -2.03914 0
M  V30 3253 H 295.767 -6.37143 -1.54041 0
M  V30 3254 H 295.287 -5.27459 -2.85565 0
M  V30 3255 H 296.966 -5.85865 -2.74538 0
M  V30 3256 N 297.098 0.621204 -1.44841 0
M  V30 3257 C 298.509 1.20298 -1.42777 0
M  V30 3258 C 298.86 1.95639 -0.148259 0
M  V30 3259 O 297.985 2.02955 0.750892 0
M  V30 3260 C 298.58 2.1882 -2.58657 0
M  V30 3261 C 297.139 2.72403 -2.59756 0
M  V30 3262 C 296.286 1.4757 -2.34773 0
M  V30 3263 H 299.237 0.411297 -1.53278 0
M  V30 3264 H 299.258 3.01607 -2.31977 0
M  V30 3265 H 298.77 1.63957 -3.51766 0
M  V30 3266 H 296.871 3.31242 -1.70615 0
M  V30 3267 H 296.984 3.17765 -3.58556 0
M  V30 3268 H 295.348 1.76051 -1.8406 0
M  V30 3269 H 296.131 0.945954 -3.3001 0
M  V30 3270 N 298.576 1.31904 0.862503 0
M  V30 3271 C 299.524 1.20125 1.9918 0
M  V30 3272 C 300.518 0.107824 1.69056 0
M  V30 3273 O 301.724 0.270223 1.7796 0
M  V30 3274 H 298.099 0.372148 0.65346 0
M  V30 3275 H 300.07 2.15652 2.06244 0
M  V30 3276 C 298.819 0.933099 3.34946 0
M  V30 3277 H 298.142 1.76664 3.5865 0
M  V30 3278 H 299.582 0.890892 4.14535 0
M  V30 3279 C 298.041 -0.364172 3.34926 0
M  V30 3280 O 298.571 -1.37858 3.77304 0
M  V30 3281 N 296.777 -0.383362 2.8806 0
M  V30 3282 H 296.324 0.442651 2.53768 0
M  V30 3283 H 296.282 -1.25123 2.8843 0
M  V30 3284 N 300.054 -1.07777 1.14986 0
M  V30 3285 C 300.986 -2.14769 0.800436 0
M  V30 3286 C 301.999 -1.61739 -0.185595 0
M  V30 3287 O 303.188 -1.78462 0.0370358 0
M  V30 3288 C 300.288 -3.38481 0.168533 0
M  V30 3289 C 299.461 -4.20876 1.1909 0
M  V30 3290 C 298.52 -5.22976 0.581575 0
M  V30 3291 O 297.546 -5.55388 1.24633 0
M  V30 3292 N 298.748 -5.76976 -0.638706 0
M  V30 3293 H 301.513 -2.45348 1.72118 0
M  V30 3294 H 299.074 -1.23645 1.04515 0
M  V30 3295 H 301.066 -4.03916 -0.251764 0
M  V30 3296 H 299.636 -3.05651 -0.655467 0
M  V30 3297 H 298.856 -3.51322 1.78791 0
M  V30 3298 H 300.144 -4.7274 1.88133 0
M  V30 3299 H 299.542 -5.52886 -1.19723 0
M  V30 3300 H 298.099 -6.44061 -1.00142 0
M  V30 3301 N 301.532 -0.945985 -1.26051 0
M  V30 3302 C 302.78 -0.594941 -1.93145 0
M  V30 3303 C 303.101 0.86953 -1.7454 0
M  V30 3304 O 302.371 1.61838 -1.10387 0
M  V30 3305 H 300.951 -0.217044 -0.714773 0
M  V30 3306 H 303.613 -1.20235 -1.53393 0
M  V30 3307 H 302.709 -0.816835 -3.01221 0
M  V30 3308 N 303.011 1.40521 -0.713556 0
M  V30 3309 C 304.427 1.54839 -0.386907 0
M  V30 3310 C 304.627 1.68532 1.1045 0
M  V30 3311 O 303.683 1.67377 1.89053 0
M  V30 3312 C 304.996 2.77792 -1.15118 0
M  V30 3313 C 306.544 2.91607 -1.13729 0
M  V30 3314 C 307.019 4.1747 -1.88368 0
M  V30 3315 N 308.51 4.24466 -1.85427 0
M  V30 3316 C 309.245 5.20755 -2.40004 0
M  V30 3317 N 308.741 6.22965 -3.03129 0
M  V30 3318 N 310.534 5.1282 -2.30158 0
M  V30 3319 H 302.685 1.29879 -1.68063 0
M  V30 3320 H 304.948 0.627896 -0.710247 0
M  V30 3321 H 304.654 2.73944 -2.20561 0
M  V30 3322 H 304.528 3.6984 -0.741477 0
M  V30 3323 H 306.915 2.94959 -0.0910608 0
M  V30 3324 H 306.996 2.00682 -1.5862 0
M  V30 3325 H 306.64 4.1488 -2.9298 0
M  V30 3326 H 306.57 5.074 -1.40898 0
M  V30 3327 H 309.061 3.51241 -1.3942 0
M  V30 3328 H 309.374 6.92859 -3.42295 0
M  V30 3329 H 307.719 6.23415 -3.07212 0
M  V30 3330 H 310.91 4.31899 -1.80501 0
M  V30 3331 H 311.083 5.87689 -2.72993 0
M  V30 3332 N 304.489 0.459591 1.5075 0
M  V30 3333 C 305.714 -0.0996819 2.0716 0
M  V30 3334 C 306.139 -1.33761 1.32249 0
M  V30 3335 O 305.497 -1.77551 0.366786 0
M  V30 3336 C 305.545 -0.378226 3.58611 0
M  V30 3337 O 304.649 -1.46081 3.85661 0
M  V30 3338 H 303.99 0.00791392 0.663953 0
M  V30 3339 H 306.52 0.647329 1.9409 0
M  V30 3340 H 306.53 -0.622135 4.03229 0
M  V30 3341 H 305.205 0.526439 4.12555 0
M  V30 3342 H 303.782 -1.20511 3.5289 0
M  V30 3343 N 305.967 -1.56429 0.191757 0
M  V30 3344 C 306.897 -2.21937 -0.725696 0
M  V30 3345 C 307.878 -1.1814 -1.2238 0
M  V30 3346 O 309.063 -1.46636 -1.27325 0
M  V30 3347 C 306.193 -2.87611 -1.94672 0
M  V30 3348 C 305.147 -3.97623 -1.58366 0
M  V30 3349 C 304.473 -4.50446 -2.88102 0
M  V30 3350 C 305.773 -5.16197 -0.796133 0
M  V30 3351 H 307.467 -2.98861 -0.179606 0
M  V30 3352 H 305.013 -1.43749 -0.0849464 0
M  V30 3353 H 306.966 -3.3212 -2.59373 0
M  V30 3354 H 305.69 -2.08087 -2.51728 0
M  V30 3355 H 304.349 -3.53801 -0.960247 0
M  V30 3356 H 303.997 -3.67688 -3.43241 0
M  V30 3357 H 303.697 -5.24675 -2.64556 0
M  V30 3358 H 305.221 -4.97654 -3.53798 0
M  V30 3359 H 306.635 -5.57271 -1.34618 0
M  V30 3360 H 305.032 -5.96471 -0.658928 0
M  V30 3361 H 306.102 -4.84473 0.203478 0
M  V30 3362 N 307.445 0.0818655 -1.57387 0
M  V30 3363 C 308.393 1.11712 -2.04018 0
M  V30 3364 C 309.387 1.40683 -0.94364 0
M  V30 3365 O 310.593 1.40209 -1.12878 0
M  V30 3366 H 306.968 0.377542 -0.650358 0
M  V30 3367 H 308.939 0.697614 -2.90131 0
M  V30 3368 C 307.688 2.42537 -2.49141 0
M  V30 3369 H 307.011 2.21092 -3.33104 0
M  V30 3370 H 308.451 3.13446 -2.85531 0
M  V30 3371 C 306.91 3.0778 -1.37014 0
M  V30 3372 O 307.44 3.95436 -0.706621 0
M  V30 3373 N 305.646 2.68242 -1.11779 0
M  V30 3374 H 305.193 1.97052 -1.65917 0
M  V30 3375 H 305.151 3.1222 -0.369594 0
M  V30 3376 N 308.923 1.53595 0.353017 0
M  V30 3377 C 309.87 1.80919 1.43308 0
M  V30 3378 C 310.84 0.654288 1.5267 0
M  V30 3379 O 312.025 0.897759 1.6836 0
M  V30 3380 C 309.165 2.01605 2.80089 0
M  V30 3381 C 308.278 3.29321 2.79593 0
M  V30 3382 C 307.413 3.40125 4.0803 0
M  V30 3383 C 306.452 4.61826 4.01725 0
M  V30 3384 N 305.589 4.69716 5.21834 0
M  V30 3385 H 310.429 2.73074 1.19308 0
M  V30 3386 H 307.966 1.35263 0.578131 0
M  V30 3387 H 309.924 2.11586 3.59565 0
M  V30 3388 H 308.554 1.12772 3.0246 0
M  V30 3389 H 307.606 3.28229 1.92276 0
M  V30 3390 H 308.918 4.18884 2.70809 0
M  V30 3391 H 308.072 3.49488 4.95927 0
M  V30 3392 H 306.811 2.48601 4.19582 0
M  V30 3393 H 305.816 4.52552 3.12213 0
M  V30 3394 H 307.041 5.54705 3.91764 0
M  V30 3395 H 304.987 3.81097 5.33948 0
M  V30 3396 H 304.904 5.53202 5.1527 0
M  V30 3397 H 306.172 4.83376 6.11529 0
M  V30 3398 N 310.401 -0.613514 1.45168 0
M  V30 3399 C 311.817 -0.933629 1.29443 0
M  V30 3400 C 312.017 -2.00028 0.243101 0
M  V30 3401 O 311.073 -2.49848 -0.364992 0
M  V30 3402 C 312.386 -1.38018 2.67155 0
M  V30 3403 C 313.934 -1.49471 2.75004 0
M  V30 3404 C 314.409 -1.97503 4.13227 0
M  V30 3405 N 315.9 -2.04746 4.15491 0
M  V30 3406 C 316.635 -2.43121 5.19307 0
M  V30 3407 N 316.131 -2.80506 6.33473 0
M  V30 3408 N 317.924 -2.43408 5.06664 0
M  V30 3409 H 310.075 0.0916097 2.12202 0
M  V30 3410 H 312.338 -0.0216655 0.947752 0
M  V30 3411 H 312.044 -0.670625 3.45247 0
M  V30 3412 H 311.918 -2.34784 2.95222 0
M  V30 3413 H 314.305 -2.19519 1.9722 0
M  V30 3414 H 314.386 -0.510342 2.50657 0
M  V30 3415 H 314.03 -1.28045 4.91495 0
M  V30 3416 H 313.96 -2.96843 4.34962 0
M  V30 3417 H 316.451 -1.78468 3.33103 0
M  V30 3418 H 316.764 -3.08652 7.08487 0
M  V30 3419 H 315.109 -2.78216 6.36884 0
M  V30 3420 H 318.3 -2.13604 4.16523 0
M  V30 3421 H 318.473 -2.72989 5.87691 0
M  V30 3422 N 311.879 -1.3236 -0.855495 0
M  V30 3423 C 312.809 -1.23833 -1.97958 0
M  V30 3424 C 313.79 -0.122361 -1.69659 0
M  V30 3425 O 314.975 -0.30939 -1.9172 0
M  V30 3426 C 312.105 -0.959772 -3.33775 0
M  V30 3427 C 311.059 -2.03689 -3.76424 0
M  V30 3428 C 310.385 -1.61075 -5.09862 0
M  V30 3429 C 311.685 -3.4518 -3.9198 0
M  V30 3430 H 313.379 -2.1788 -2.0535 0
M  V30 3431 H 310.925 -1.04891 -0.986605 0
M  V30 3432 H 312.878 -0.886678 -4.11966 0
M  V30 3433 H 311.602 0.0163404 -3.26596 0
M  V30 3434 H 310.261 -2.10012 -3.00484 0
M  V30 3435 H 309.909 -0.622107 -4.99138 0
M  V30 3436 H 309.609 -2.33143 -5.39368 0
M  V30 3437 H 311.133 -1.55201 -5.90546 0
M  V30 3438 H 312.547 -3.4145 -4.60526 0
M  V30 3439 H 310.944 -4.1559 -4.32903 0
M  V30 3440 H 312.014 -3.84903 -2.94919 0
M  V30 3441 N 313.357 1.07166 -1.15556 0
M  V30 3442 C 314.289 2.14341 -0.811815 0
M  V30 3443 C 315.302 1.61835 0.177015 0
M  V30 3444 O 316.491 1.78439 -0.0464996 0
M  V30 3445 C 313.591 3.38387 -0.186481 0
M  V30 3446 C 312.764 4.20238 -1.21321 0
M  V30 3447 C 311.823 5.2266 -0.609302 0
M  V30 3448 O 310.849 5.54719 -1.27576 0
M  V30 3449 N 312.051 5.77306 0.608099 0
M  V30 3450 H 314.816 2.44431 -1.73417 0
M  V30 3451 H 312.377 1.23089 -1.0517 0
M  V30 3452 H 314.369 4.04044 0.230339 0
M  V30 3453 H 312.939 3.05994 0.639249 0
M  V30 3454 H 312.159 3.50369 -1.80652 0
M  V30 3455 H 313.447 4.71736 -1.90638 0
M  V30 3456 H 312.845 5.53513 1.1679 0
M  V30 3457 H 311.402 6.44583 0.96725 0
M  V30 3458 N 314.835 0.952656 1.25548 0
M  V30 3459 C 316.083 0.605176 1.92826 0
M  V30 3460 C 316.404 -0.860261 1.74999 0
M  V30 3461 O 315.674 -1.6125 1.11244 0
M  V30 3462 H 314.254 0.220832 0.713612 0
M  V30 3463 H 316.916 1.21047 1.52754 0
M  V30 3464 H 316.012 0.832798 3.00784 0
M  V30 3465 N 316.313 -1.40141 0.720998 0
M  V30 3466 C 317.243 -2.33339 0.0867621 0
M  V30 3467 C 318.224 -1.53178 -0.739622 0
M  V30 3468 O 319.409 -1.81625 -0.687449 0
M  V30 3469 C 316.539 -3.37194 -0.831728 0
M  V30 3470 C 315.493 -4.27857 -0.110558 0
M  V30 3471 C 314.819 -5.22294 -1.14513 0
M  V30 3472 C 316.119 -5.11872 1.0385 0
M  V30 3473 H 317.813 -2.86626 0.865219 0
M  V30 3474 H 315.359 -1.37814 0.417516 0
M  V30 3475 H 317.312 -4.01335 -1.28485 0
M  V30 3476 H 316.036 -2.82314 -1.64214 0
M  V30 3477 H 314.695 -3.65176 0.322797 0
M  V30 3478 H 314.343 -4.63717 -1.94874 0
M  V30 3479 H 314.043 -5.83797 -0.667446 0
M  V30 3480 H 315.567 -5.89312 -1.59824 0
M  V30 3481 H 316.981 -5.69436 0.664482 0
M  V30 3482 H 315.378 -5.82445 1.4449 0
M  V30 3483 H 316.448 -4.4753 1.86668 0
M  V30 3484 N 317.792 -0.46758 -1.50504 0
M  V30 3485 C 318.722 0.318381 -2.31319 0
M  V30 3486 C 319.703 0.993564 -1.38066 0
M  V30 3487 O 320.888 0.991411 -1.66987 0
M  V30 3488 C 318.018 1.40275 -3.17711 0
M  V30 3489 C 316.972 0.849373 -4.19487 0
M  V30 3490 C 316.298 2.03177 -4.94594 0
M  V30 3491 C 317.598 -0.136942 -5.2212 0
M  V30 3492 H 319.292 -0.356106 -2.97275 0
M  V30 3493 H 316.838 -0.172703 -1.42961 0
M  V30 3494 H 318.791 1.96004 -3.73042 0
M  V30 3495 H 317.515 2.10596 -2.49634 0
M  V30 3496 H 316.174 0.314076 -3.65252 0
M  V30 3497 H 315.822 2.72187 -4.22993 0
M  V30 3498 H 315.522 1.66774 -5.63436 0
M  V30 3499 H 317.046 2.59403 -5.52759 0
M  V30 3500 H 318.46 0.331056 -5.72343 0
M  V30 3501 H 316.857 -0.41507 -5.98663 0
M  V30 3502 H 317.927 -1.06398 -4.73083 0
M  V30 3503 N 319.27 1.56325 -0.20005 0
M  V30 3504 C 320.51 1.99619 0.439519 0
M  V30 3505 C 320.874 1.08423 1.58456 0
M  V30 3506 O 322.075 1.40973 2.28867 0
M  V30 3507 C 320.346 3.46314 0.883258 0
M  V30 3508 S 321.905 4.11634 1.51997 0
M  V30 3509 H 318.723 0.697007 0.140363 0
M  V30 3510 H 321.325 1.93118 -0.304282 0
M  V30 3511 H 320.029 4.10381 0.0398967 0
M  V30 3512 H 319.56 3.56643 1.6604 0
M  V30 3513 H 321.575 4.09049 2.8088 0
M  V30 3514 N 320.748 -0.0735177 1.57428 0
M  V30 3515 C 321.696 -1.10628 2.04607 0
M  V30 3516 C 322.69 -1.40181 0.951088 0
M  V30 3517 O 323.896 -1.39608 1.1362 0
M  V30 3518 H 320.271 -0.374088 0.652351 0
M  V30 3519 H 322.242 -0.682218 2.90497 0
M  V30 3520 C 320.991 -2.41212 2.50423 0
M  V30 3521 H 320.314 -2.19322 3.34272 0
M  V30 3522 H 321.754 -3.11927 2.87189 0
M  V30 3523 C 320.213 -3.0705 1.38644 0
M  V30 3524 O 320.743 -3.95056 0.727582 0
M  V30 3525 N 318.949 -2.67645 1.132 0
M  V30 3526 H 318.496 -1.96169 1.66959 0
M  V30 3527 H 318.454 -3.1202 0.386147 0
M  V30 3528 N 322.226 -1.5378 -0.344866 0
M  V30 3529 C 323.176 -1.78057 -1.42407 0
M  V30 3530 C 324.16 -0.635732 -1.47808 0
M  V30 3531 O 325.352 -0.89508 -1.527 0
M  V30 3532 C 322.481 -1.99242 -2.79566 0
M  V30 3533 C 321.567 -3.19787 -2.78562 0
M  V30 3534 N 321.958 -4.41284 -2.47189 0
M  V30 3535 C 320.256 -3.2093 -3.0971 0
M  V30 3536 C 320.957 -5.23128 -2.54385 0
M  V30 3537 N 319.933 -4.59813 -2.89953 0
M  V30 3538 H 323.735 -2.69588 -1.17046 0
M  V30 3539 H 321.249 -1.52687 -0.553217 0
M  V30 3540 H 323.246 -2.14768 -3.57324 0
M  V30 3541 H 321.906 -1.08953 -3.05875 0
M  V30 3542 H 322.917 -4.68657 -2.20411 0
M  V30 3543 H 319.594 -2.40603 -3.41199 0
M  V30 3544 H 320.984 -6.30096 -2.333 0
M  V30 3545 N 323.704 0.605807 -1.45491 0
M  V30 3546 C 324.953 1.36086 -1.48874 0
M  V30 3547 C 325.266 1.95131 -0.135333 0
M  V30 3548 O 326.472 2.7146 -0.0468144 0
M  V30 3549 C 324.928 2.46518 -2.62215 0
M  V30 3550 C 324.536 1.93877 -4.03876 0
M  V30 3551 C 326.28 3.23512 -2.74846 0
M  V30 3552 C 324.187 3.01801 -5.08596 0
M  V30 3553 H 323.117 0.511497 -0.553974 0
M  V30 3554 H 325.768 0.649089 -1.71636 0
M  V30 3555 H 324.15 3.20388 -2.32739 0
M  V30 3556 H 325.324 1.26704 -4.43038 0
M  V30 3557 H 323.639 1.29622 -3.95711 0
M  V30 3558 H 326.236 4.04013 -3.50253 0
M  V30 3559 H 326.579 3.74631 -1.81542 0
M  V30 3560 H 327.112 2.56742 -3.03856 0
M  V30 3561 H 323.851 2.55597 -6.03614 0
M  V30 3562 H 323.371 3.67535 -4.74002 0
M  V30 3563 H 325.05 3.66152 -5.33424 0
M  V30 3564 N 325.182 1.32811 0.848464 0
M  V30 3565 C 326.145 1.22194 1.9391 0
M  V30 3566 C 327.145 0.143404 1.60159 0
M  V30 3567 O 328.335 0.394253 1.6968 0
M  V30 3568 C 325.467 0.88067 3.29328 0
M  V30 3569 H 326.66 2.19127 2.04752 0
M  V30 3570 H 324.213 1.16731 1.0394 0
M  V30 3571 H 324.948 -0.0865776 3.24184 0
M  V30 3572 H 324.733 1.66052 3.55203 0
M  V30 3573 H 326.223 0.830871 4.09251 0
M  V30 3574 N 326.66 -1.06551 1.16123 0
M  V30 3575 C 327.906 -1.79567 0.94252 0
M  V30 3576 C 328.239 -1.86869 -0.528547 0
M  V30 3577 O 327.514 -1.35838 -1.39206 0
M  V30 3578 C 327.797 -3.24195 1.56747 0
M  V30 3579 C 327.65 -3.24989 3.10969 0
M  V30 3580 C 328.969 -4.21678 1.25998 0
M  V30 3581 H 326.088 -0.651883 0.343828 0
M  V30 3582 H 328.73 -1.2463 1.43413 0
M  V30 3583 H 326.88 -3.71107 1.14942 0
M  V30 3584 H 328.552 -2.86258 3.61737 0
M  V30 3585 H 326.795 -2.63716 3.44436 0
M  V30 3586 H 327.466 -4.27005 3.49815 0
M  V30 3587 H 329.942 -3.83196 1.62174 0
M  V30 3588 H 328.818 -5.21146 1.7233 0
M  V30 3589 H 329.079 -4.4174 0.178367 0
M  V30 3590 N 328.138 -0.959301 -1.25041 0
M  V30 3591 C 329.088 -0.453888 -2.23436 0
M  V30 3592 C 330.072 0.459461 -1.542 0
M  V30 3593 O 331.264 0.291752 -1.74579 0
M  V30 3594 C 328.393 0.262667 -3.42294 0
M  V30 3595 C 327.479 -0.669022 -4.1879 0
M  V30 3596 N 327.87 -1.80267 -4.72586 0
M  V30 3597 C 326.168 -0.47814 -4.4343 0
M  V30 3598 C 326.869 -2.38475 -5.3057 0
M  V30 3599 N 325.845 -1.67078 -5.17287 0
M  V30 3600 H 329.647 -1.319 -2.6264 0
M  V30 3601 H 327.161 -0.817358 -1.40332 0
M  V30 3602 H 329.158 0.641911 -4.11929 0
M  V30 3603 H 327.818 1.12432 -3.04613 0
M  V30 3604 H 328.829 -2.18442 -4.69578 0
M  V30 3605 H 325.506 0.340249 -4.16111 0
M  V30 3606 H 326.896 -3.34094 -5.8295 0
M  V30 3607 N 329.616 1.39756 -0.72842 0
M  V30 3608 C 331.032 1.5442 -0.403308 0
M  V30 3609 C 331.232 1.69694 1.08656 0
M  V30 3610 O 330.288 1.69373 1.87267 0
M  V30 3611 C 331.601 2.76555 -1.18058 0
M  V30 3612 C 333.149 2.90384 -1.16815 0
M  V30 3613 C 333.624 4.15449 -1.92785 0
M  V30 3614 N 335.115 4.22475 -1.89918 0
M  V30 3615 C 335.85 5.1818 -2.45514 0
M  V30 3616 N 335.346 6.19714 -3.09719 0
M  V30 3617 N 337.139 5.1035 -2.35584 0
M  V30 3618 H 329.29 1.28089 -1.69431 0
M  V30 3619 H 331.553 0.620327 -0.716867 0
M  V30 3620 H 331.259 2.7159 -2.23455 0
M  V30 3621 H 331.133 3.69033 -0.780662 0
M  V30 3622 H 333.52 2.94846 -0.12234 0
M  V30 3623 H 333.601 1.98988 -1.6074 0
M  V30 3624 H 333.245 4.11749 -2.97364 0
M  V30 3625 H 333.175 5.05877 -1.46272 0
M  V30 3626 H 335.666 3.49743 -1.43138 0
M  V30 3627 H 335.979 6.8919 -3.49625 0
M  V30 3628 H 334.324 6.20121 -3.13807 0
M  V30 3629 H 337.515 4.2996 -1.85072 0
M  V30 3630 H 337.688 5.84761 -2.79211 0
M  V30 3631 N 331.094 0.475555 1.50254 0
M  V30 3632 C 332.505 0.0215174 1.86688 0
M  V30 3633 C 332.856 -1.38467 1.39001 0
M  V30 3634 O 331.981 -2.02732 0.756894 0
M  V30 3635 C 332.576 0.0322715 3.38785 0
M  V30 3636 C 331.135 -0.366314 3.74613 0
M  V30 3637 C 330.282 0.415832 2.74164 0
M  V30 3638 H 333.233 0.689612 1.42934 0
M  V30 3639 H 333.254 -0.76889 3.7265 0
M  V30 3640 H 332.766 1.05584 3.73462 0
M  V30 3641 H 330.867 -1.39406 3.45538 0
M  V30 3642 H 330.98 -0.064555 4.79057 0
M  V30 3643 H 329.344 -0.131048 2.54363 0
M  V30 3644 H 330.127 1.43899 3.11686 0
M  V30 3645 N 332.573 -1.56217 0.208337 0
M  V30 3646 C 333.798 -2.02782 -0.435222 0
M  V30 3647 C 334.223 -1.08738 -1.53485 0
M  V30 3648 O 333.581 -0.0731855 -1.81152 0
M  V30 3649 C 333.629 -3.47687 -0.956335 0
M  V30 3650 O 332.733 -3.56773 -2.06849 0
M  V30 3651 H 332.074 -0.656403 -0.100158 0
M  V30 3652 H 334.604 -2.02033 0.3231 0
M  V30 3653 H 334.614 -3.87745 -1.26955 0
M  V30 3654 H 333.289 -4.15624 -0.15143 0
M  V30 3655 H 331.866 -3.28597 -1.76292 0
M  V30 3656 N 334.051 0.0651679 -1.57465 0
M  V30 3657 C 335.276 0.779605 -1.9219 0
M  V30 3658 C 335.701 1.69988 -0.805333 0
M  V30 3659 O 335.059 1.79685 0.241435 0
M  V30 3660 C 335.107 1.54364 -3.2589 0
M  V30 3661 O 334.211 2.65474 -3.1559 0
M  V30 3662 H 333.552 0.212249 -0.629163 0
M  V30 3663 H 336.082 0.0314294 -2.04576 0
M  V30 3664 H 336.092 1.92146 -3.59922 0
M  V30 3665 H 334.767 0.868457 -4.06732 0
M  V30 3666 H 333.344 2.30501 -2.93128 0
M  V30 3667 N 335.529 1.53961 0.336706 0
M  V30 3668 C 336.461 1.78751 1.4346 0
M  V30 3669 C 337.474 0.669019 1.48418 0
M  V30 3670 O 338.663 0.945884 1.51378 0
M  V30 3671 C 335.763 1.87844 2.82078 0
M  V30 3672 C 334.936 3.17854 3.00479 0
M  V30 3673 C 333.995 3.17816 4.19379 0
M  V30 3674 O 333.021 3.91511 4.13168 0
M  V30 3675 N 334.223 2.40669 5.2826 0
M  V30 3676 H 336.988 2.73493 1.22563 0
M  V30 3677 H 334.549 1.53096 0.526625 0
M  V30 3678 H 336.541 1.85261 3.59806 0
M  V30 3679 H 335.111 1.00257 2.96086 0
M  V30 3680 H 334.331 3.33504 2.10163 0
M  V30 3681 H 335.619 4.03718 3.0966 0
M  V30 3682 H 335.017 1.8036 5.36178 0
M  V30 3683 H 333.574 2.43877 6.04456 0
M  V30 3684 N 337.007 -0.598083 1.45811 0
M  V30 3685 C 338.232 -1.3881 1.54099 0
M  V30 3686 C 338.657 -1.8726 0.177578 0
M  V30 3687 O 338.015 -1.6069 -0.839541 0
M  V30 3688 C 338.063 -2.56217 2.53743 0
M  V30 3689 O 337.167 -3.5716 2.06182 0
M  V30 3690 H 336.508 -0.414024 0.519115 0
M  V30 3691 H 339.038 -0.726971 1.91249 0
M  V30 3692 H 339.048 -3.03337 2.72856 0
M  V30 3693 H 337.723 -2.20303 3.5276 0
M  V30 3694 H 336.3 -3.16624 1.96987 0
M  V30 3695 N 338.485 -1.33259 -0.841409 0
M  V30 3696 C 339.762 -1.15174 -1.58096 0
M  V30 3697 C 340.142 0.282858 -2.09196 0
M  V30 3698 O 339.49 1.28151 -1.89181 0
M  V30 3699 C 339.7 -2.1907 -2.71679 0
M  V30 3700 C 341.048 -2.53093 -3.40924 0
M  V30 3701 O 342.072 -2.17717 -2.81918 0
M  V30 3702 O 340.931 -3.1379 -4.47435 0
M  V30 3703 H 338.025 -0.445303 -0.696875 0
M  V30 3704 H 340.571 -1.44833 -0.884385 0
M  V30 3705 H 339.343 -3.15443 -2.31541 0
M  V30 3706 H 338.966 -1.90481 -3.49002 0
M  V30 3707 N 339.963 1.05934 -1.16686 0
M  V30 3708 C 341.209 1.79065 -0.95203 0
M  V30 3709 C 341.542 1.87147 0.518629 0
M  V30 3710 O 340.817 1.36574 1.38484 0
M  V30 3711 C 341.1 3.23359 -1.58464 0
M  V30 3712 C 340.953 3.23336 -3.12689 0
M  V30 3713 C 342.272 4.21004 -1.28232 0
M  V30 3714 H 339.391 0.65005 -0.34728 0
M  V30 3715 H 342.033 1.23868 -1.44072 0
M  V30 3716 H 340.183 3.70493 -1.16908 0
M  V30 3717 H 341.855 2.84336 -3.6325 0
M  V30 3718 H 340.098 2.61886 -3.4583 0
M  V30 3719 H 340.769 4.25144 -3.52075 0
M  V30 3720 H 343.245 3.8233 -1.64203 0
M  V30 3721 H 342.121 5.20225 -1.75092 0
M  V30 3722 H 342.382 4.41639 -0.201791 0
M  V30 3723 N 341.441 0.965919 1.2453 0
M  V30 3724 C 342.389 0.486506 2.27455 0
M  V30 3725 C 343.383 -0.449041 1.6334 0
M  V30 3726 O 344.589 -0.324527 1.7705 0
M  V30 3727 H 340.964 0.138857 0.739069 0
M  V30 3728 H 342.935 1.3666 2.65267 0
M  V30 3729 C 341.684 -0.209481 3.47068 0
M  V30 3730 H 341.007 0.50129 3.96645 0
M  V30 3731 H 342.447 -0.508775 4.20936 0
M  V30 3732 C 340.906 -1.43586 3.0477 0
M  V30 3733 O 341.436 -2.53299 3.11773 0
M  V30 3734 N 339.642 -1.30126 2.59838 0
M  V30 3735 H 339.189 -0.408583 2.54339 0
M  V30 3736 H 339.147 -2.12294 2.31902 0
M  V30 3737 N 342.919 -1.39368 0.735821 0
M  V30 3738 C 344.168 -1.99733 0.281004 0
M  V30 3739 C 344.481 -1.59055 -1.13846 0
M  V30 3740 O 345.687 -2.12262 -1.69284 0
M  V30 3741 C 344.143 -3.57057 0.451462 0
M  V30 3742 C 343.751 -4.06697 1.87886 0
M  V30 3743 C 345.495 -4.2446 0.0584616 0
M  V30 3744 C 343.402 -5.56598 1.99883 0
M  V30 3745 H 342.332 -0.747163 0.101311 0
M  V30 3746 H 344.983 -1.59357 0.909819 0
M  V30 3747 H 343.365 -3.95234 -0.246263 0
M  V30 3748 H 344.539 -3.79853 2.60861 0
M  V30 3749 H 342.854 -3.5196 2.22515 0
M  V30 3750 H 345.451 -5.34549 0.127099 0
M  V30 3751 H 345.794 -4.04444 -0.986433 0
M  V30 3752 H 346.327 -3.9146 0.707374 0
M  V30 3753 H 343.066 -5.81494 3.02564 0
M  V30 3754 H 342.586 -5.85242 1.31346 0
M  V30 3755 H 344.265 -6.22022 1.78039 0
M  V30 3756 N 344.397 -0.483516 -1.5 0
M  V30 3757 C 345.329 0.340634 -2.26655 0
M  V30 3758 C 346.342 0.946152 -1.32483 0
M  V30 3759 O 347.531 0.832453 -1.579 0
M  V30 3760 C 344.631 1.4929 -3.04246 0
M  V30 3761 C 343.804 0.997903 -4.25865 0
M  V30 3762 C 342.863 2.02569 -4.85646 0
M  V30 3763 O 341.889 1.60128 -5.46212 0
M  V30 3764 N 343.091 3.3548 -4.73744 0
M  V30 3765 H 345.856 -0.316577 -2.98023 0
M  V30 3766 H 343.417 -0.315024 -1.58806 0
M  V30 3767 H 345.409 2.17766 -3.41116 0
M  V30 3768 H 343.979 2.05458 -2.35597 0
M  V30 3769 H 343.199 0.138617 -3.93956 0
M  V30 3770 H 344.487 0.645305 -5.04691 0
M  V30 3771 H 343.885 3.72661 -4.25605 0
M  V30 3772 H 342.442 3.99718 -5.14848 0
M  V30 3773 N 345.875 1.56104 -0.216619 0
M  V30 3774 C 347.103 2.02563 0.421413 0
M  V30 3775 C 347.518 1.0965 1.53695 0
M  V30 3776 O 346.875 0.10521 1.82196 0
M  V30 3777 C 346.926 3.48584 0.957665 0
M  V30 3778 O 346.647 4.37953 -0.113389 0
M  V30 3779 C 348.148 4.10664 1.66943 0
M  V30 3780 H 345.368 0.662944 0.103665 0
M  V30 3781 H 347.912 2.01793 -0.331629 0
M  V30 3782 H 346.067 3.49985 1.661 0
M  V30 3783 H 346.481 5.23704 0.288932 0
M  V30 3784 H 347.955 5.14622 1.99671 0
M  V30 3785 H 348.432 3.55373 2.58083 0
M  V30 3786 H 349.038 4.13098 1.01142 0
M  V30 3787 N 347.353 -0.0568162 1.57498 0
M  V30 3788 C 348.599 -0.75422 1.88253 0
M  V30 3789 C 348.932 -1.76461 0.810865 0
M  V30 3790 O 348.207 -1.93691 -0.177259 0
M  V30 3791 C 348.49 -1.44878 3.2967 0
M  V30 3792 C 348.343 -0.453789 4.47505 0
M  V30 3793 C 349.662 -2.38994 3.69554 0
M  V30 3794 H 346.781 -0.272724 0.684683 0
M  V30 3795 H 349.423 -0.0172113 1.89992 0
M  V30 3796 H 347.573 -2.077 3.28318 0
M  V30 3797 H 349.245 0.170371 4.60985 0
M  V30 3798 H 347.488 0.229552 4.33192 0
M  V30 3799 H 348.159 -0.977699 5.43273 0
M  V30 3800 H 350.635 -1.86239 3.72095 0
M  V30 3801 H 349.511 -2.84587 4.69363 0
M  V30 3802 H 349.772 -3.24461 3.00296 0
M  V30 3803 N 348.832 -1.54138 -0.328536 0
M  V30 3804 C 349.742 -1.86192 -1.42723 0
M  V30 3805 C 350.758 -0.753382 -1.56844 0
M  V30 3806 O 351.934 -1.04718 -1.72035 0
M  V30 3807 C 348.999 -2.07824 -2.77507 0
M  V30 3808 C 348.06 -3.31641 -2.72603 0
M  V30 3809 C 347.293 -3.52232 -4.00959 0
M  V30 3810 O 347.516 -2.7636 -4.9898 0
M  V30 3811 O 346.45 -4.45699 -4.0452 0
M  V30 3812 H 350.276 -2.79608 -1.18547 0
M  V30 3813 H 347.861 -1.3998 -0.522104 0
M  V30 3814 H 349.743 -2.23411 -3.57303 0
M  V30 3815 H 348.418 -1.17596 -3.01584 0
M  V30 3816 H 347.325 -3.21444 -1.91376 0
M  V30 3817 H 348.658 -4.2191 -2.53481 0
M  V30 3818 N 350.31 0.590341 -1.46126 0
M  V30 3819 C 351.242 1.71427 -1.52136 0
M  V30 3820 C 352.255 1.57542 -0.41042 0
M  V30 3821 O 353.444 1.65106 -0.678389 0
M  V30 3822 C 350.544 3.09605 -1.37834 0
M  V30 3823 C 349.717 3.49566 -2.62912 0
M  V30 3824 C 348.776 4.66773 -2.42918 0
M  V30 3825 O 347.802 4.73019 -3.1661 0
M  V30 3826 N 349.004 5.61161 -1.4859 0
M  V30 3827 H 351.769 1.66728 -2.49042 0
M  V30 3828 H 349.33 0.776113 -1.42085 0
M  V30 3829 H 351.322 3.85796 -1.22243 0
M  V30 3830 H 349.892 3.08714 -0.491393 0
M  V30 3831 H 349.112 2.63158 -2.93499 0
M  V30 3832 H 350.4 3.73028 -3.46017 0
M  V30 3833 H 349.798 5.58844 -0.87808 0
M  V30 3834 H 348.355 6.36814 -1.38965 0
M  V30 3835 N 351.788 1.33704 0.83433 0
M  V30 3836 C 353.065 1.16011 1.57483 0
M  V30 3837 C 353.445 -0.27176 2.09343 0
M  V30 3838 O 352.793 -1.27146 1.89858 0
M  V30 3839 C 353.003 2.20507 2.70514 0
M  V30 3840 C 354.351 2.54898 3.39577 0
M  V30 3841 O 355.375 2.19209 2.80759 0
M  V30 3842 O 354.234 3.16158 4.45765 0
M  V30 3843 H 351.328 0.448992 0.694503 0
M  V30 3844 H 353.874 1.453 0.876691 0
M  V30 3845 H 352.646 3.16667 2.29865 0
M  V30 3846 H 352.269 1.92329 3.47987 0
M  V30 3847 N 353.266 -1.05314 1.17247 0
M  V30 3848 C 354.196 -2.1498 0.911362 0
M  V30 3849 C 355.177 -1.69471 -0.146169 0
M  V30 3850 O 356.362 -1.942 0.003812 0
M  V30 3851 C 353.492 -3.4472 0.422528 0
M  V30 3852 C 352.446 -4.03789 1.4191 0
M  V30 3853 C 351.772 -5.28858 0.788274 0
M  V30 3854 C 353.072 -4.41418 2.7919 0
M  V30 3855 H 354.766 -2.3708 1.82848 0
M  V30 3856 H 352.312 -1.13938 0.880569 0
M  V30 3857 H 354.265 -4.20787 0.227289 0
M  V30 3858 H 352.989 -3.22269 -0.530123 0
M  V30 3859 H 351.648 -3.2979 1.60106 0
M  V30 3860 H 351.296 -5.02709 -0.171173 0
M  V30 3861 H 350.996 -5.69338 1.45353 0
M  V30 3862 H 352.52 -6.07612 0.603282 0
M  V30 3863 H 353.934 -5.08524 2.64719 0
M  V30 3864 H 352.331 -4.92913 3.42282 0
M  V30 3865 H 353.401 -3.51819 3.33693 0
M  V30 3866 N 354.744 -0.972509 -1.24016 0
M  V30 3867 C 355.674 -0.525548 -2.27509 0
M  V30 3868 C 356.655 0.437262 -1.64384 0
M  V30 3869 O 357.84 0.332343 -1.91335 0
M  V30 3870 C 354.97 0.180448 -3.46831 0
M  V30 3871 C 353.924 -0.698859 -4.22256 0
M  V30 3872 C 353.25 0.138903 -5.3452 0
M  V30 3873 C 354.55 -1.98582 -4.83076 0
M  V30 3874 H 356.244 -1.39058 -2.65148 0
M  V30 3875 H 353.79 -0.67009 -1.27459 0
M  V30 3876 H 355.743 0.504387 -4.18371 0
M  V30 3877 H 354.467 1.07987 -3.08231 0
M  V30 3878 H 353.126 -1.00614 -3.52523 0
M  V30 3879 H 352.774 1.03862 -4.9216 0
M  V30 3880 H 352.474 -0.446259 -5.85903 0
M  V30 3881 H 353.998 0.457404 -6.08884 0
M  V30 3882 H 355.412 -1.72715 -5.46665 0
M  V30 3883 H 353.809 -2.5181 -5.44713 0
M  V30 3884 H 354.879 -2.67769 -4.04262 0
M  V30 3885 N 356.222 1.38976 -0.743202 0
M  V30 3886 C 357.499 1.94351 -0.220705 0
M  V30 3887 C 357.879 1.67935 1.2791 0
M  V30 3888 O 357.227 1.01211 2.04862 0
M  V30 3889 C 357.437 3.44426 -0.563171 0
M  V30 3890 C 358.785 4.2144 -0.517046 0
M  V30 3891 O 359.809 3.52661 -0.500846 0
M  V30 3892 O 358.668 5.44032 -0.518806 0
M  V30 3893 H 355.762 0.825879 -0.043047 0
M  V30 3894 H 358.308 1.48429 -0.822618 0
M  V30 3895 H 357.08 3.5712 -1.59941 0
M  V30 3896 H 356.703 3.97543 0.0672883 0
M  V30 3897 N 357.7 0.491464 1.49741 0
M  V30 3898 C 358.63 -0.28154 2.31796 0
M  V30 3899 C 359.611 -0.971473 1.3963 0
M  V30 3900 O 360.796 -0.964719 1.68543 0
M  V30 3901 C 357.926 -1.35203 3.19902 0
M  V30 3902 C 356.88 -0.782529 4.20786 0
M  V30 3903 C 356.206 -1.95283 4.97764 0
M  V30 3904 C 357.506 0.21999 5.21837 0
M  V30 3905 H 359.2 0.403355 2.96671 0
M  V30 3906 H 356.746 0.195425 1.42668 0
M  V30 3907 H 358.699 -1.90045 3.76113 0
M  V30 3908 H 357.423 -2.06598 2.52953 0
M  V30 3909 H 356.082 -0.255928 3.65706 0
M  V30 3910 H 355.73 -2.65423 4.2727 0
M  V30 3911 H 355.43 -1.57789 5.66018 0
M  V30 3912 H 356.954 -2.50577 5.56816 0
M  V30 3913 H 358.368 -0.23996 5.72798 0
M  V30 3914 H 356.765 0.51026 5.97927 0
M  V30 3915 H 357.835 1.13911 4.7133 0
M  V30 3916 N 359.178 -1.55987 0.224894 0
M  V30 3917 C 360.406 -2.02784 -0.410665 0
M  V30 3918 C 360.821 -1.10464 -1.53112 0
M  V30 3919 O 360.178 -0.114871 -1.82138 0
M  V30 3920 C 360.229 -3.49087 -0.939165 0
M  V30 3921 O 359.95 -4.37887 0.136614 0
M  V30 3922 C 361.451 -4.11543 -1.64763 0
M  V30 3923 H 358.671 -0.663484 -0.100148 0
M  V30 3924 H 361.215 -2.01614 0.342326 0
M  V30 3925 H 359.37 -3.50861 -1.64242 0
M  V30 3926 H 359.784 -5.23849 -0.261155 0
M  V30 3927 H 361.258 -5.15673 -1.96939 0
M  V30 3928 H 361.735 -3.56736 -2.56195 0
M  V30 3929 H 362.341 -4.13629 -0.989503 0
M  V30 3930 N 360.656 0.0484629 -1.57525 0
M  V30 3931 C 361.884 0.755421 -1.92616 0
M  V30 3932 C 362.299 1.69919 -0.822984 0
M  V30 3933 O 361.656 1.81378 0.202085 0
M  V30 3934 C 361.707 1.52915 -3.27566 0
M  V30 3935 O 361.428 0.62329 -4.33644 0
M  V30 3936 C 362.929 2.33502 -3.76818 0
M  V30 3937 H 360.149 0.213465 -0.63614 0
M  V30 3938 H 362.693 0.0117698 -2.04497 0
M  V30 3939 H 360.848 2.22486 -3.17142 0
M  V30 3940 H 361.262 1.16383 -5.11425 0
M  V30 3941 H 362.736 2.83214 -4.73808 0
M  V30 3942 H 363.213 3.14068 -3.07014 0
M  V30 3943 H 363.819 1.69043 -3.90262 0
M  V30 3944 N 362.134 1.5431 0.320358 0
M  V30 3945 C 363.55 1.45091 0.664889 0
M  V30 3946 C 363.75 0.626382 1.91517 0
M  V30 3947 O 362.806 0.126443 2.52183 0
M  V30 3948 C 364.119 2.88848 0.83591 0
M  V30 3949 C 365.667 2.9877 0.933046 0
M  V30 3950 C 366.142 4.43683 1.13621 0
M  V30 3951 N 367.633 4.47309 1.20287 0
M  V30 3952 C 368.368 5.56595 1.37801 0
M  V30 3953 N 367.864 6.75844 1.52338 0
M  V30 3954 N 369.657 5.44248 1.40535 0
M  V30 3955 H 361.808 2.06398 -0.501374 0
M  V30 3956 H 364.071 0.933963 -0.162534 0
M  V30 3957 H 363.777 3.51698 -0.0116092 0
M  V30 3958 H 363.651 3.35148 1.73078 0
M  V30 3959 H 366.038 2.36045 1.77107 0
M  V30 3960 H 366.119 2.55796 0.0145782 0
M  V30 3961 H 365.763 5.06995 0.303032 0
M  V30 3962 H 365.693 4.84269 2.0686 0
M  V30 3963 H 368.184 3.61388 1.10485 0
M  V30 3964 H 368.497 7.54892 1.65403 0
M  V30 3965 H 366.842 6.78746 1.4943 0
M  V30 3966 H 370.033 4.50038 1.28777 0
M  V30 3967 H 370.206 6.29473 1.53842 0
M  V30 3968 N 363.613 -0.582584 1.46437 0
M  V30 3969 C 364.862 -1.337 1.5102 0
M  V30 3970 C 365.175 -1.94891 0.166359 0
M  V30 3971 O 366.381 -2.71351 0.0899954 0
M  V30 3972 C 364.837 -2.42315 2.66104 0
M  V30 3973 C 364.445 -1.87427 4.06909 0
M  V30 3974 C 366.189 -3.19099 2.79958 0
M  V30 3975 C 364.096 -2.93672 5.13333 0
M  V30 3976 H 363.026 -0.502619 0.562041 0
M  V30 3977 H 365.677 -0.621701 1.72647 0
M  V30 3978 H 364.059 -3.16645 2.37807 0
M  V30 3979 H 365.233 -1.19639 4.44998 0
M  V30 3980 H 363.548 -1.2331 3.97723 0
M  V30 3981 H 366.145 -3.9839 3.56636 0
M  V30 3982 H 366.488 -3.71695 1.87479 0
M  V30 3983 H 367.021 -2.51875 3.07902 0
M  V30 3984 H 363.76 -2.45962 6.07604 0
M  V30 3985 H 363.28 -3.59948 4.79789 0
M  V30 3986 H 364.959 -3.5762 5.39182 0
M  V30 3987 N 365.091 -1.34144 -0.827227 0
M  V30 3988 C 366.502 -1.23557 -1.39966 0
M  V30 3989 C 366.853 0.140731 -1.95695 0
M  V30 3990 O 365.978 1.04087 -1.89723 0
M  V30 3991 C 366.573 -2.23708 -2.54441 0
M  V30 3992 C 365.132 -2.16924 -3.07605 0
M  V30 3993 C 364.279 -2.10549 -1.80456 0
M  V30 3994 H 367.23 -1.45573 -0.631991 0
M  V30 3995 H 367.251 -1.85157 -3.32411 0
M  V30 3996 H 366.763 -3.23866 -2.13851 0
M  V30 3997 H 364.864 -1.20107 -3.52711 0
M  V30 3998 H 364.977 -3.07988 -3.66988 0
M  V30 3999 H 363.341 -1.56203 -2.01178 0
M  V30 4000 H 364.124 -3.12535 -1.42046 0
M  V30 4001 N 366.569 1.04691 -1.17803 0
M  V30 4002 C 367.519 2.10856 -0.867391 0
M  V30 4003 C 368.503 1.601 0.160206 0
M  V30 4004 O 369.695 1.76948 -0.042947 0
M  V30 4005 C 366.824 3.411 -0.388012 0
M  V30 4006 C 365.91 3.9864 -1.44732 0
M  V30 4007 N 366.301 4.30075 -2.66212 0
M  V30 4008 C 364.599 4.26439 -1.30637 0
M  V30 4009 C 365.3 4.76033 -3.34317 0
M  V30 4010 N 364.276 4.76462 -2.61696 0
M  V30 4011 H 368.078 2.33029 -1.79094 0
M  V30 4012 H 365.592 1.22386 -1.0675 0
M  V30 4013 H 367.589 4.16641 -0.146994 0
M  V30 4014 H 366.249 3.20357 0.529271 0
M  V30 4015 H 367.26 4.19917 -3.03134 0
M  V30 4016 H 363.937 4.15056 -0.451129 0
M  V30 4017 H 365.327 5.09427 -4.38103 0
M  V30 4018 N 368.047 0.979072 1.23499 0
M  V30 4019 C 368.977 0.537606 2.27227 0
M  V30 4020 C 369.958 -0.428539 1.64613 0
M  V30 4021 O 371.143 -0.322191 1.91509 0
M  V30 4022 C 368.273 -0.162052 3.46922 0
M  V30 4023 C 367.227 0.721242 4.21879 0
M  V30 4024 C 366.553 -0.110555 5.34586 0
M  V30 4025 C 367.853 2.01141 4.82016 0
M  V30 4026 H 369.547 1.40462 2.64406 0
M  V30 4027 H 367.093 0.67684 1.27102 0
M  V30 4028 H 369.046 -0.482192 4.18632 0
M  V30 4029 H 367.77 -1.06351 3.08799 0
M  V30 4030 H 366.429 1.02482 3.51984 0
M  V30 4031 H 366.077 -1.0125 4.92704 0
M  V30 4032 H 365.777 0.477325 5.85658 0
M  V30 4033 H 367.301 -0.425107 6.09118 0
M  V30 4034 H 368.715 1.75612 5.45741 0
M  V30 4035 H 367.112 2.54695 5.43369 0
M  V30 4036 H 368.182 2.69909 4.02836 0
M  V30 4037 N 369.525 -1.3858 0.750561 0
M  V30 4038 C 370.488 -2.28836 0.129152 0
M  V30 4039 C 371.488 -1.47045 -0.650714 0
M  V30 4040 O 372.678 -1.6753 -0.477428 0
M  V30 4041 C 369.81 -3.30751 -0.825622 0
M  V30 4042 H 371.003 -2.85294 0.924516 0
M  V30 4043 H 368.556 -1.47489 0.517376 0
M  V30 4044 H 369.291 -2.79378 -1.64677 0
M  V30 4045 H 369.076 -3.91177 -0.268852 0
M  V30 4046 H 370.566 -3.98249 -1.2565 0
M  V30 4047 N 371.003 -0.499398 -1.49478 0
M  V30 4048 C 372.251 0.0455996 -2.02049 0
M  V30 4049 C 372.572 1.37633 -1.38138 0
M  V30 4050 O 371.842 1.8842 -0.536166 0
M  V30 4051 H 370.422 0.0198416 -0.746736 0
M  V30 4052 H 373.084 -0.656274 -1.83519 0
M  V30 4053 H 372.18 0.176445 -3.11601 0
M  V30 4054 N 372.481 1.55866 -0.233164 0
M  V30 4055 C 373.727 1.98897 0.395959 0
M  V30 4056 C 374.06 1.12091 1.58585 0
M  V30 4057 O 373.335 0.181182 1.93654 0
M  V30 4058 C 373.618 3.50658 0.819224 0
M  V30 4059 C 373.471 4.48233 -0.375109 0
M  V30 4060 C 374.79 4.07135 1.67121 0
M  V30 4061 H 371.909 0.723102 0.142451 0
M  V30 4062 H 374.551 1.87082 -0.331725 0
M  V30 4063 H 372.701 3.60857 1.43925 0
M  V30 4064 H 374.373 4.50031 -1.01341 0
M  V30 4065 H 372.616 4.21624 -1.02058 0
M  V30 4066 H 373.287 5.51988 -0.0358328 0
M  V30 4067 H 375.763 3.99952 1.14795 0
M  V30 4068 H 374.639 5.13615 1.93625 0
M  V30 4069 H 374.9 3.54736 2.63846 0
M  V30 4070 N 373.959 -0.0401083 1.57549 0
M  V30 4071 C 374.889 -1.04384 2.08869 0
M  V30 4072 C 375.87 -1.38407 0.988817 0
M  V30 4073 O 377.055 -1.47483 1.26342 0
M  V30 4074 C 374.185 -2.34808 2.55895 0
M  V30 4075 C 373.139 -2.15057 3.70047 0
M  V30 4076 C 372.465 -3.51145 4.03239 0
M  V30 4077 C 373.765 -1.54576 4.98902 0
M  V30 4078 H 375.459 -0.616666 2.92981 0
M  V30 4079 H 373.005 -0.295184 1.40942 0
M  V30 4080 H 374.958 -3.05346 2.90417 0
M  V30 4081 H 373.682 -2.79565 1.68853 0
M  V30 4082 H 372.341 -1.46954 3.35857 0
M  V30 4083 H 371.989 -3.93529 3.13279 0
M  V30 4084 H 371.689 -3.38758 4.80122 0
M  V30 4085 H 373.213 -4.23062 4.40285 0
M  V30 4086 H 374.627 -2.15017 5.31451 0
M  V30 4087 H 373.024 -1.52796 5.80322 0
M  V30 4088 H 374.094 -0.51039 4.82206 0
M  V30 4089 N 375.437 -1.54477 -0.31217 0
M  V30 4090 C 376.662 -1.77526 -1.07235 0
M  V30 4091 C 377.087 -0.527775 -1.80544 0
M  V30 4092 O 376.445 0.52121 -1.73646 0
M  V30 4093 C 376.493 -2.97535 -2.03728 0
M  V30 4094 O 375.597 -2.69878 -3.11833 0
M  V30 4095 H 374.938 -0.58792 -0.30862 0
M  V30 4096 H 377.468 -2.01532 -0.352993 0
M  V30 4097 H 377.478 -3.25198 -2.46395 0
M  V30 4098 H 376.153 -3.87996 -1.49774 0
M  V30 4099 H 374.73 -2.53199 -2.7376 0
M  V30 4100 N 376.915 0.57481 -1.46744 0
M  V30 4101 C 377.878 1.66533 -1.57478 0
M  V30 4102 C 378.878 1.54338 -0.451263 0
M  V30 4103 O 380.068 1.58814 -0.715813 0
M  V30 4104 C 377.2 3.05999 -1.50259 0
M  V30 4105 H 378.393 1.58372 -2.54673 0
M  V30 4106 H 375.946 0.793301 -1.34672 0
M  V30 4107 H 376.681 3.19709 -0.543725 0
M  V30 4108 H 376.466 3.16259 -2.31781 0
M  V30 4109 H 377.956 3.8537 -1.60872 0
M  V30 4110 N 378.394 1.34581 0.820102 0
M  V30 4111 C 379.324 1.29038 1.94606 0
M  V30 4112 C 380.305 0.1673 1.69275 0
M  V30 4113 O 381.49 0.360112 1.90832 0
M  V30 4114 C 378.62 1.04793 3.31113 0
M  V30 4115 C 377.574 2.13597 3.70891 0
M  V30 4116 C 376.9 1.74537 5.05412 0
M  V30 4117 C 378.2 3.55451 3.8269 0
M  V30 4118 H 379.894 2.23248 1.99501 0
M  V30 4119 H 377.44 1.0747 0.958449 0
M  V30 4120 H 379.393 0.995592 4.0947 0
M  V30 4121 H 378.117 0.0702565 3.26524 0
M  V30 4122 H 376.776 2.17905 2.9481 0
M  V30 4123 H 376.424 0.754226 4.97313 0
M  V30 4124 H 376.124 2.47361 5.32997 0
M  V30 4125 H 377.648 1.70803 5.86224 0
M  V30 4126 H 379.062 3.5354 4.51312 0
M  V30 4127 H 377.459 4.26922 4.21732 0
M  V30 4128 H 378.529 3.92587 2.84611 0
M  V30 4129 N 379.872 -1.04064 1.18357 0
M  V30 4130 C 380.819 -2.12077 0.910603 0
M  V30 4131 C 381.789 -1.65421 -0.15 0
M  V30 4132 O 382.974 -1.90797 -0.0103614 0
M  V30 4133 C 380.114 -3.42252 0.442472 0
M  V30 4134 C 379.227 -4.0252 1.5685 0
M  V30 4135 C 378.362 -5.20657 1.05309 0
M  V30 4136 C 377.401 -5.72955 2.1538 0
M  V30 4137 N 376.538 -6.8238 1.65233 0
M  V30 4138 H 381.378 -2.34764 1.83548 0
M  V30 4139 H 378.915 -1.15157 0.915279 0
M  V30 4140 H 380.873 -4.16921 0.152534 0
M  V30 4141 H 379.503 -3.19712 -0.445428 0
M  V30 4142 H 378.555 -3.25178 1.97391 0
M  V30 4143 H 379.867 -4.37362 2.39824 0
M  V30 4144 H 379.021 -6.0244 0.717677 0
M  V30 4145 H 377.76 -4.87318 0.19293 0
M  V30 4146 H 376.765 -4.89793 2.49766 0
M  V30 4147 H 377.99 -6.08337 3.01832 0
M  V30 4148 H 375.936 -6.50917 0.815064 0
M  V30 4149 H 375.853 -7.16286 2.41805 0
M  V30 4150 H 377.121 -7.67788 1.34619 0
M  V30 4151 N 381.35 -0.985608 -1.22978 0
M  V30 4152 C 382.575 -0.675254 -1.961 0
M  V30 4153 C 383 0.752154 -1.72407 0
M  V30 4154 O 382.358 1.5131 -0.998751 0
M  V30 4155 C 382.406 -0.977899 -3.47087 0
M  V30 4156 O 381.51 -0.072685 -4.12336 0
M  V30 4157 H 380.851 -0.253443 -0.613728 0
M  V30 4158 H 383.381 -1.32061 -1.56272 0
M  V30 4159 H 383.391 -0.916739 -3.97567 0
M  V30 4160 H 382.066 -2.01807 -3.63657 0
M  V30 4161 H 380.643 -0.188703 -3.72422 0
M  V30 4162 N 382.828 1.3818 -0.7579 0
M  V30 4163 C 383.758 2.33027 -0.148597 0
M  V30 4164 C 384.739 1.55085 0.69875 0
M  V30 4165 O 385.924 1.83384 0.639053 0
M  V30 4166 C 383.054 3.3928 0.742034 0
M  V30 4167 C 382.008 4.28 -0.00291946 0
M  V30 4168 C 381.334 5.25146 1.00625 0
M  V30 4169 C 382.634 5.08938 -1.17385 0
M  V30 4170 H 384.328 2.84231 -0.940909 0
M  V30 4171 H 381.874 1.36659 -0.453908 0
M  V30 4172 H 383.827 4.046 1.17799 0
M  V30 4173 H 382.551 2.86569 1.56671 0
M  V30 4174 H 381.21 3.64192 -0.419504 0
M  V30 4175 H 380.858 4.68721 1.8251 0
M  V30 4176 H 380.558 5.85361 0.512428 0
M  V30 4177 H 382.082 5.93342 1.44143 0
M  V30 4178 H 383.496 5.67474 -0.815224 0
M  V30 4179 H 381.893 5.7841 -1.59882 0
M  V30 4180 H 382.963 4.42424 -1.98468 0
M  V30 4181 N 384.306 0.507319 1.49211 0
M  V30 4182 C 385.553 -0.0349529 2.0247 0
M  V30 4183 C 385.881 -1.36409 1.38647 0
M  V30 4184 O 385.136 -1.88841 0.513566 0
M  V30 4185 C 385.435 -0.229513 3.56662 0
M  V30 4186 C 385.101 1.02241 4.39156 0
M  V30 4187 C 383.763 1.36557 4.61417 0
M  V30 4188 C 386.115 1.85428 4.871 0
M  V30 4189 C 383.443 2.53999 5.28868 0
M  V30 4190 C 385.795 3.02028 5.55843 0
M  V30 4191 C 384.459 3.36717 5.76349 0
M  V30 4192 H 383.729 -0.0127902 0.74089 0
M  V30 4193 H 386.376 0.668756 1.79443 0
M  V30 4194 H 384.681 -1.0158 3.78403 0
M  V30 4195 H 386.378 -0.663641 3.9547 0
M  V30 4196 H 382.968 0.745124 4.22073 0
M  V30 4197 H 387.152 1.6023 4.69723 0
M  V30 4198 H 382.408 2.81105 5.42946 0
M  V30 4199 H 386.582 3.66808 5.91967 0
M  V30 4200 H 384.209 4.27821 6.28389 0
M  V30 4201 N 385.784 -1.5574 0.241426 0
M  V30 4202 C 387.009 -2.0366 -0.392111 0
M  V30 4203 C 387.434 -1.11969 -1.51144 0
M  V30 4204 O 386.792 -0.111594 -1.80956 0
M  V30 4205 C 386.84 -3.49638 -0.882371 0
M  V30 4206 O 385.944 -3.6108 -1.99235 0
M  V30 4207 H 385.285 -0.658379 -0.0862122 0
M  V30 4208 H 387.815 -2.01302 0.365881 0
M  V30 4209 H 387.825 -3.90351 -1.18702 0
M  V30 4210 H 386.5 -4.15852 -0.0632361 0
M  V30 4211 H 385.077 -3.32262 -1.69282 0
M  V30 4212 N 387.262 0.0317525 -1.57568 0
M  V30 4213 C 388.487 0.738664 -1.938 0
M  V30 4214 C 388.912 1.68242 -0.841208 0
M  V30 4215 O 388.27 1.80157 0.203267 0
M  V30 4216 C 388.318 1.47417 -3.29091 0
M  V30 4217 O 387.422 2.5872 -3.2115 0
M  V30 4218 H 386.763 0.198856 -0.633524 0
M  V30 4219 H 389.293 -0.0119713 -2.04596 0
M  V30 4220 H 389.303 1.84468 -3.63917 0
M  V30 4221 H 387.978 0.781988 -4.08482 0
M  V30 4222 H 386.555 2.24231 -2.97951 0
M  V30 4223 N 388.74 1.54641 0.303973 0
M  V30 4224 C 389.965 1.78092 1.06292 0
M  V30 4225 C 390.39 0.537342 1.80262 0
M  V30 4226 O 389.748 -0.511993 1.7392 0
M  V30 4227 C 389.796 2.98612 2.02147 0
M  V30 4228 O 388.9 2.71528 3.10397 0
M  V30 4229 H 388.241 0.589548 0.305497 0
M  V30 4230 H 390.771 2.01716 0.3423 0
M  V30 4231 H 390.781 3.265 2.44667 0
M  V30 4232 H 389.456 3.88785 1.47714 0
M  V30 4233 H 388.033 2.54648 2.72413 0
M  V30 4234 N 390.218 -0.567019 1.47046 0
M  V30 4235 C 391.443 -1.3551 1.57009 0
M  V30 4236 C 391.868 -1.86841 0.217259 0
M  V30 4237 O 391.226 -1.62435 -0.805268 0
M  V30 4238 C 391.274 -2.50777 2.5912 0
M  V30 4239 O 390.378 -3.52706 2.13711 0
M  V30 4240 H 389.719 -0.402919 0.52778 0
M  V30 4241 H 392.249 -0.686241 1.92748 0
M  V30 4242 H 392.259 -2.97481 2.79229 0
M  V30 4243 H 390.934 -2.12771 3.57353 0
M  V30 4244 H 389.511 -3.12374 2.03659 0
M  V30 4245 N 391.696 -1.35014 -0.812953 0
M  V30 4246 C 392.659 -1.27292 -1.90602 0
M  V30 4247 C 393.659 -0.185817 -1.59723 0
M  V30 4248 O 394.849 -0.439102 -1.68575 0
M  V30 4249 C 391.981 -0.967676 -3.26877 0
M  V30 4250 H 393.174 -2.24479 -1.9887 0
M  V30 4251 H 390.727 -1.19446 -1.00808 0
M  V30 4252 H 391.462 0.0005954 -3.243 0
M  V30 4253 H 391.247 -1.75412 -3.50675 0
M  V30 4254 H 392.737 -0.939085 -4.06904 0
M  V30 4255 N 393.175 1.03435 -1.18907 0
M  V30 4256 C 394.405 1.8012 -1.01195 0
M  V30 4257 C 394.813 1.8395 0.442613 0
M  V30 4258 O 394.156 1.27836 1.31923 0
M  V30 4259 C 394.218 3.26792 -1.49823 0
M  V30 4260 C 393.882 3.46609 -2.97844 0
M  V30 4261 C 394.879 3.37278 -3.95651 0
M  V30 4262 C 392.564 3.73001 -3.36416 0
M  V30 4263 C 394.558 3.54054 -5.30023 0
M  V30 4264 C 392.245 3.89423 -4.70949 0
M  V30 4265 C 393.243 3.79951 -5.67562 0
M  V30 4266 O 392.931 3.95895 -6.99659 0
M  V30 4267 H 392.663 0.573865 -0.357289 0
M  V30 4268 H 395.217 1.31207 -1.58031 0
M  V30 4269 H 393.447 3.76703 -0.873578 0
M  V30 4270 H 395.136 3.85055 -1.28404 0
M  V30 4271 H 395.902 3.16846 -3.67197 0
M  V30 4272 H 391.781 3.79469 -2.61772 0
M  V30 4273 H 395.325 3.46577 -6.05417 0
M  V30 4274 H 391.222 4.09351 -4.99101 0
M  V30 4275 H 391.99 4.13019 -7.06653 0
M  V30 4276 N 394.653 0.992116 1.22453 0
M  V30 4277 C 395.603 0.512969 2.22155 0
M  V30 4278 C 396.587 -0.418416 1.55364 0
M  V30 4279 O 397.779 -0.245363 1.75291 0
M  V30 4280 C 394.908 -0.171822 3.4287 0
M  V30 4281 C 393.994 0.779822 4.16869 0
M  V30 4282 N 394.385 1.92734 4.6764 0
M  V30 4283 C 392.683 0.59554 4.42006 0
M  V30 4284 C 393.384 2.52458 5.24061 0
M  V30 4285 N 392.36 1.80735 5.12675 0
M  V30 4286 H 396.162 1.38817 2.5905 0
M  V30 4287 H 393.676 0.854277 1.38115 0
M  V30 4288 H 395.673 -0.532469 4.13486 0
M  V30 4289 H 394.333 -1.04317 3.07487 0
M  V30 4290 H 395.344 2.30816 4.63621 0
M  V30 4291 H 392.021 -0.229805 4.16867 0
M  V30 4292 H 393.411 3.49433 5.73887 0
M  V30 4293 N 396.131 -1.37776 0.765217 0
M  V30 4294 C 397.356 -2.04651 0.336537 0
M  V30 4295 C 397.781 -1.57337 -1.03086 0
M  V30 4296 O 397.139 -0.730621 -1.65927 0
M  V30 4297 C 397.187 -3.58577 0.381468 0
M  V30 4298 O 396.291 -4.07706 -0.62042 0
M  V30 4299 H 395.632 -0.64756 0.146838 0
M  V30 4300 H 398.162 -1.76221 1.03959 0
M  V30 4301 H 398.172 -4.07314 0.236448 0
M  V30 4302 H 396.847 -3.9237 1.37907 0
M  V30 4303 H 395.424 -3.70306 -0.439056 0
M  V30 4304 N 397.609 -0.515225 -1.4894 0
M  V30 4305 C 398.839 0.0205735 -2.0659 0
M  V30 4306 C 399.247 1.30064 -1.37405 0
M  V30 4307 O 398.59 1.78087 -0.450632 0
M  V30 4308 C 398.652 0.330124 -3.57981 0
M  V30 4309 C 398.316 -0.854295 -4.48944 0
M  V30 4310 C 399.313 -1.7487 -4.89609 0
M  V30 4311 C 396.998 -1.05712 -4.9105 0
M  V30 4312 C 398.992 -2.82996 -5.71132 0
M  V30 4313 C 396.679 -2.14154 -5.72347 0
M  V30 4314 C 397.677 -3.0263 -6.12294 0
M  V30 4315 O 397.365 -4.09198 -6.91962 0
M  V30 4316 H 397.097 -0.0236833 -0.675585 0
M  V30 4317 H 399.651 -0.715956 -1.92518 0
M  V30 4318 H 397.881 1.12044 -3.70112 0
M  V30 4319 H 399.57 0.806233 -3.97812 0
M  V30 4320 H 400.336 -1.60388 -4.57712 0
M  V30 4321 H 396.215 -0.377788 -4.59449 0
M  V30 4322 H 399.759 -3.52083 -6.02232 0
M  V30 4323 H 395.656 -2.28626 -6.03656 0
M  V30 4324 H 396.424 -4.06726 -7.10293 0
M  V30 4325 N 399.087 1.5561 -0.249682 0
M  V30 4326 C 400.336 1.98187 0.37479 0
M  V30 4327 C 400.649 1.14111 1.58865 0
M  V30 4328 O 401.855 1.46714 2.28445 0
M  V30 4329 C 400.311 3.52661 0.718192 0
M  V30 4330 C 399.919 4.45481 -0.474428 0
M  V30 4331 C 401.663 4.03888 1.3067 0
M  V30 4332 C 399.57 5.91303 -0.107026 0
M  V30 4333 H 398.5 0.740159 0.143808 0
M  V30 4334 H 401.151 1.80125 -0.350336 0
M  V30 4335 H 399.533 3.66429 1.50152 0
M  V30 4336 H 400.707 4.43473 -1.25172 0
M  V30 4337 H 399.022 4.04751 -0.978052 0
M  V30 4338 H 401.619 5.10358 1.59496 0
M  V30 4339 H 401.962 3.51401 2.23211 0
M  V30 4340 H 402.495 3.93457 0.586211 0
M  V30 4341 H 399.234 6.47833 -0.999642 0
M  V30 4342 H 398.754 5.9644 0.634013 0
M  V30 4343 H 400.433 6.46258 0.309807 0
M  V30 4344 N 400.565 -0.0233959 1.57583 0
M  V30 4345 C 401.497 -1.04994 2.03737 0
M  V30 4346 C 402.51 -1.32125 0.951152 0
M  V30 4347 O 403.699 -1.29512 1.22837 0
M  V30 4348 C 400.799 -2.39026 2.40249 0
M  V30 4349 C 399.972 -2.31171 3.7132 0
M  V30 4350 C 399.031 -3.47698 3.94959 0
M  V30 4351 O 398.057 -3.26937 4.65941 0
M  V30 4352 N 399.259 -4.6976 3.41037 0
M  V30 4353 H 402.024 -0.656507 2.92421 0
M  V30 4354 H 399.585 -0.211235 1.60516 0
M  V30 4355 H 401.577 -3.15712 2.53196 0
M  V30 4356 H 400.147 -2.70194 1.57207 0
M  V30 4357 H 399.367 -1.39547 3.68674 0
M  V30 4358 H 400.655 -2.23071 4.57293 0
M  V30 4359 H 400.053 -4.89528 2.83512 0
M  V30 4360 H 398.61 -5.43791 3.59353 0
M  V30 4361 N 402.043 -1.548 -0.295768 0
M  V30 4362 C 402.953 -1.89177 -1.38742 0
M  V30 4363 C 403.969 -0.786481 -1.55211 0
M  V30 4364 O 405.145 -1.08344 -1.69775 0
M  V30 4365 C 402.21 -2.13663 -2.73036 0
M  V30 4366 C 401.271 -3.37349 -2.65508 0
M  V30 4367 C 400.504 -3.60658 -3.93398 0
M  V30 4368 O 400.727 -2.86882 -4.93006 0
M  V30 4369 O 399.661 -4.54179 -3.94975 0
M  V30 4370 H 403.487 -2.82059 -1.12589 0
M  V30 4371 H 401.072 -1.41056 -0.492295 0
M  V30 4372 H 402.954 -2.3094 -3.52484 0
M  V30 4373 H 401.629 -1.23967 -2.99022 0
M  V30 4374 H 400.536 -3.25431 -1.84514 0
M  V30 4375 H 401.869 -4.27192 -2.44474 0
M  V30 4376 N 403.521 0.559213 -1.47345 0
M  V30 4377 C 404.484 1.64854 -1.59235 0
M  V30 4378 C 405.484 1.53851 -0.467607 0
M  V30 4379 O 406.674 1.58045 -0.732617 0
M  V30 4380 C 403.806 3.04388 -1.53496 0
M  V30 4381 H 404.999 1.55662 -2.56339 0
M  V30 4382 H 402.552 0.778973 -1.35505 0
M  V30 4383 H 403.287 3.19115 -0.577604 0
M  V30 4384 H 403.072 3.13783 -2.35123 0
M  V30 4385 H 404.562 3.83642 -1.6495 0
M  V30 4386 N 404.999 1.35443 0.805782 0
M  V30 4387 C 405.909 1.30546 1.94923 0
M  V30 4388 C 406.925 0.210233 1.72725 0
M  V30 4389 O 408.101 0.43975 1.9654 0
M  V30 4390 C 405.166 1.07782 3.29521 0
M  V30 4391 C 404.227 2.26625 3.64609 0
M  V30 4392 C 403.46 2.04938 4.92784 0
M  V30 4393 O 403.683 1.01624 5.61274 0
M  V30 4394 O 402.617 2.9232 5.26149 0
M  V30 4395 H 406.443 2.26779 2.02002 0
M  V30 4396 H 404.028 1.15823 0.943682 0
M  V30 4397 H 405.91 0.969392 4.10098 0
M  V30 4398 H 404.585 0.146003 3.23371 0
M  V30 4399 H 403.492 2.43033 2.84404 0
M  V30 4400 H 404.825 3.18257 3.75464 0
M  V30 4401 N 406.477 -1.02803 1.19454 0
M  V30 4402 C 407.387 -2.14575 0.948408 0
M  V30 4403 C 408.403 -1.73757 -0.091871 0
M  V30 4404 O 409.579 -2.01185 0.0929654 0
M  V30 4405 C 406.644 -3.43202 0.491265 0
M  V30 4406 C 405.705 -3.98328 1.60103 0
M  V30 4407 C 404.938 -5.20816 1.16561 0
M  V30 4408 O 405.161 -5.70392 0.0295238 0
M  V30 4409 O 404.095 -5.68801 1.96849 0
M  V30 4410 H 407.921 -2.38202 1.88397 0
M  V30 4411 H 405.506 -1.12989 0.977433 0
M  V30 4412 H 407.388 -4.20687 0.245015 0
M  V30 4413 H 406.063 -3.21018 -0.415851 0
M  V30 4414 H 404.97 -3.22174 1.90144 0
M  V30 4415 H 406.303 -4.24879 2.48473 0
M  V30 4416 N 407.956 -0.998596 -1.21925 0
M  V30 4417 C 408.919 -0.558679 -2.22287 0
M  V30 4418 C 409.919 0.361525 -1.56683 0
M  V30 4419 O 411.109 0.152695 -1.73529 0
M  V30 4420 C 408.241 0.18661 -3.40389 0
M  V30 4421 H 409.434 -1.4463 -2.62721 0
M  V30 4422 H 406.987 -0.786413 -1.35075 0
M  V30 4423 H 407.722 1.08996 -3.05435 0
M  V30 4424 H 407.507 -0.474188 -3.89222 0
M  V30 4425 H 408.997 0.482367 -4.14805 0
M  V30 4426 N 409.434 1.37368 -0.772513 0
M  V30 4427 C 410.364 2.32856 -0.173304 0
M  V30 4428 C 411.345 1.55818 0.682262 0
M  V30 4429 O 412.53 1.84052 0.619566 0
M  V30 4430 C 409.66 3.40048 0.706007 0
M  V30 4431 C 408.614 4.27973 -0.0483144 0
M  V30 4432 C 407.94 5.26184 0.950491 0
M  V30 4433 C 409.24 5.07665 -1.22776 0
M  V30 4434 H 410.934 2.83217 -0.971002 0
M  V30 4435 H 408.48 1.3617 -0.468377 0
M  V30 4436 H 410.433 4.05827 1.13501 0
M  V30 4437 H 409.157 2.88214 1.53623 0
M  V30 4438 H 407.816 3.63726 -0.458107 0
M  V30 4439 H 407.464 4.7063 1.77529 0
M  V30 4440 H 407.164 5.85872 0.450314 0
M  V30 4441 H 408.688 5.94838 1.37842 0
M  V30 4442 H 410.102 5.66578 -0.875366 0
M  V30 4443 H 408.499 5.76681 -1.66007 0
M  V30 4444 H 409.569 4.40294 -2.03149 0
M  V30 4445 N 410.912 0.523116 1.48665 0
M  V30 4446 C 412.328 0.180511 1.58576 0
M  V30 4447 C 412.528 -1.31597 1.52592 0
M  V30 4448 O 411.584 -2.0937 1.4114 0
M  V30 4449 C 412.897 0.776949 2.90489 0
M  V30 4450 C 414.445 0.745058 3.04003 0
M  V30 4451 C 414.92 1.31995 4.38567 0
M  V30 4452 N 416.411 1.28162 4.45117 0
M  V30 4453 C 417.146 1.6964 5.47731 0
M  V30 4454 N 416.642 2.18816 6.57337 0
M  V30 4455 N 418.435 1.6092 5.38573 0
M  V30 4456 H 410.586 1.4958 1.50797 0
M  V30 4457 H 412.849 0.621772 0.715614 0
M  V30 4458 H 412.555 1.82732 3.00503 0
M  V30 4459 H 412.429 0.25007 3.7637 0
M  V30 4460 H 414.816 -0.296532 2.93606 0
M  V30 4461 H 414.897 1.30933 2.1975 0
M  V30 4462 H 414.541 2.36043 4.49718 0
M  V30 4463 H 414.471 0.731418 5.21496 0
M  V30 4464 H 416.962 0.92155 3.66491 0
M  V30 4465 H 417.275 2.48478 7.31764 0
M  V30 4466 H 415.62 2.22805 6.58318 0
M  V30 4467 H 418.811 1.22304 4.5184 0
M  V30 4468 H 418.984 1.93567 6.18414 0
M  V30 4469 N 412.39 -1.55475 0.257931 0
M  V30 4470 C 413.3 -2.2549 -0.647425 0
M  V30 4471 C 414.316 -1.2748 -1.18427 0
M  V30 4472 O 415.492 -1.6038 -1.2182 0
M  V30 4473 C 412.557 -2.94916 -1.82278 0
M  V30 4474 C 411.618 -4.08363 -1.32432 0
M  V30 4475 C 410.851 -4.74469 -2.44366 0
M  V30 4476 O 411.074 -4.39701 -3.63344 0
M  V30 4477 O 410.008 -5.62763 -2.13497 0
M  V30 4478 H 413.834 -3.03593 -0.0807707 0
M  V30 4479 H 411.419 -1.49377 0.0259962 0
M  V30 4480 H 413.301 -3.38606 -2.50846 0
M  V30 4481 H 411.976 -2.19744 -2.37685 0
M  V30 4482 H 410.883 -3.69166 -0.605605 0
M  V30 4483 H 412.216 -4.85385 -0.816211 0
M  V30 4484 N 413.868 0.0150385 -1.57593 0
M  V30 4485 C 415.098 0.713359 -1.93894 0
M  V30 4486 C 415.506 1.68663 -0.857289 0
M  V30 4487 O 414.849 1.82876 0.173788 0
M  V30 4488 C 414.911 1.51348 -3.26089 0
M  V30 4489 C 414.575 0.703451 -4.51554 0
M  V30 4490 C 415.572 -0.00237924 -5.199 0
M  V30 4491 C 413.257 0.653854 -4.98026 0
M  V30 4492 C 415.251 -0.746955 -6.33008 0
M  V30 4493 C 412.938 -0.0944578 -6.11027 0
M  V30 4494 C 413.936 -0.793609 -6.78374 0
M  V30 4495 O 413.624 -1.52974 -7.89211 0
M  V30 4496 H 413.356 0.204637 -0.644282 0
M  V30 4497 H 415.91 -0.0276411 -2.05381 0
M  V30 4498 H 414.14 2.29862 -3.10967 0
M  V30 4499 H 415.829 2.09572 -3.47612 0
M  V30 4500 H 416.595 0.0268803 -4.84993 0
M  V30 4501 H 412.474 1.18756 -4.45441 0
M  V30 4502 H 416.018 -1.2932 -6.85509 0
M  V30 4503 H 411.915 -0.125591 -6.45378 0
M  V30 4504 H 412.683 -1.44488 -8.05646 0
M  V30 4505 N 415.346 1.54954 0.287554 0
M  V30 4506 C 416.294 1.87606 1.37502 0
M  V30 4507 C 417.288 0.751001 1.51843 0
M  V30 4508 O 418.494 0.935169 1.53801 0
M  V30 4509 H 414.869 0.595231 0.459569 0
M  V30 4510 H 416.84 2.78477 1.07206 0
M  V30 4511 C 415.589 2.15183 2.73115 0
M  V30 4512 H 414.912 3.01234 2.62866 0
M  V30 4513 H 416.352 2.4196 3.48183 0
M  V30 4514 C 414.811 0.954686 3.2309 0
M  V30 4515 O 415.341 0.181949 4.01288 0
M  V30 4516 N 413.547 0.756368 2.80584 0
M  V30 4517 H 413.094 1.38643 2.17108 0
M  V30 4518 H 413.052 -0.0430391 3.14371 0
M  V30 4519 N 416.824 -0.551391 1.4764 0
M  V30 4520 C 417.754 -1.66757 1.63445 0
M  V30 4521 C 418.735 -1.63077 0.483742 0
M  V30 4522 O 419.92 -1.80607 0.71377 0
M  V30 4523 C 417.05 -3.05387 1.65396 0
M  V30 4524 C 416.004 -3.23918 2.79752 0
M  V30 4525 C 415.33 -4.63393 2.66779 0
M  V30 4526 C 416.63 -3.08735 4.21284 0
M  V30 4527 H 418.324 -1.53786 2.56886 0
M  V30 4528 H 415.87 -0.738415 1.23626 0
M  V30 4529 H 417.823 -3.83325 1.75043 0
M  V30 4530 H 416.547 -3.19332 0.685195 0
M  V30 4531 H 415.206 -2.48391 2.69625 0
M  V30 4532 H 414.854 -4.74144 1.67918 0
M  V30 4533 H 414.554 -4.7674 3.43501 0
M  V30 4534 H 416.078 -5.43458 2.78364 0
M  V30 4535 H 417.492 -3.76484 4.32357 0
M  V30 4536 H 415.889 -3.33588 4.98838 0
M  V30 4537 H 416.959 -2.0541 4.39243 0
M  V30 4538 N 418.302 -1.35869 -0.798587 0
M  V30 4539 C 419.549 -1.29588 -1.55606 0
M  V30 4540 C 419.877 0.127456 -1.94082 0
M  V30 4541 O 419.132 1.09461 -1.62225 0
M  V30 4542 C 419.431 -2.1556 -2.85077 0
M  V30 4543 C 419.097 -3.6424 -2.65781 0
M  V30 4544 C 417.759 -4.04766 -2.60227 0
M  V30 4545 C 420.111 -4.58547 -2.47758 0
M  V30 4546 C 417.439 -5.37753 -2.34603 0
M  V30 4547 C 419.791 -5.91742 -2.23662 0
M  V30 4548 C 418.455 -6.31402 -2.16534 0
M  V30 4549 H 417.725 -0.474197 -0.569402 0
M  V30 4550 H 420.372 -1.67839 -0.922086 0
M  V30 4551 H 418.677 -1.70216 -3.52893 0
M  V30 4552 H 420.374 -2.08031 -3.42818 0
M  V30 4553 H 416.964 -3.32086 -2.70956 0
M  V30 4554 H 421.148 -4.28117 -2.51056 0
M  V30 4555 H 416.404 -5.67474 -2.2756 0
M  V30 4556 H 420.578 -6.6439 -2.08708 0
M  V30 4557 H 418.205 -7.34381 -1.96441 0
M  V30 4558 N 419.78 1.02168 -1.19998 0
M  V30 4559 C 421.008 1.79296 -1.03249 0
M  V30 4560 C 421.423 1.84103 0.418502 0
M  V30 4561 O 420.78 1.29031 1.29063 0
M  V30 4562 C 420.831 3.24007 -1.60319 0
M  V30 4563 O 420.552 3.19512 -2.99739 0
M  V30 4564 C 422.053 4.17704 -1.48453 0
M  V30 4565 H 419.273 0.564016 -0.363493 0
M  V30 4566 H 421.817 1.28639 -1.58973 0
M  V30 4567 H 419.972 3.7183 -1.08727 0
M  V30 4568 H 420.386 4.10306 -3.26725 0
M  V30 4569 H 421.86 5.17104 -1.93153 0
M  V30 4570 H 422.337 4.37029 -0.436193 0
M  V30 4571 H 422.943 3.7576 -1.99211 0
M  V30 4572 N 421.258 1.00505 1.21394 0
M  V30 4573 C 422.535 0.603277 1.86064 0
M  V30 4574 C 422.915 -0.919095 1.90042 0
M  V30 4575 O 422.263 -1.80607 1.39977 0
M  V30 4576 C 422.473 1.23772 3.26315 0
M  V30 4577 C 423.821 1.34586 4.02705 0
M  V30 4578 O 424.845 1.19304 3.35626 0
M  V30 4579 O 423.704 1.59169 5.22807 0
M  V30 4580 H 420.798 0.206634 0.800769 0
M  V30 4581 H 423.344 1.1017 1.29076 0
M  V30 4582 H 422.116 2.27848 3.18121 0
M  V30 4583 H 421.739 0.725648 3.90922 0
M  V30 4584 N 422.737 -1.36956 0.779787 0
M  V30 4585 C 423.986 -1.98738 0.344405 0
M  V30 4586 C 424.299 -1.62596 -1.08728 0
M  V30 4587 O 425.505 -2.1754 -1.62445 0
M  V30 4588 C 423.961 -3.5544 0.564829 0
M  V30 4589 C 423.569 -4.00514 2.0073 0
M  V30 4590 C 425.313 -4.24059 0.193471 0
M  V30 4591 C 423.22 -5.49957 2.17489 0
M  V30 4592 H 422.15 -0.743561 0.12503 0
M  V30 4593 H 424.801 -1.56381 0.960057 0
M  V30 4594 H 423.183 -3.95817 -0.120397 0
M  V30 4595 H 424.357 -3.71362 2.72814 0
M  V30 4596 H 422.672 -3.44703 2.336 0
M  V30 4597 H 425.269 -5.33874 0.297097 0
M  V30 4598 H 425.612 -4.07378 -0.857263 0
M  V30 4599 H 426.145 -3.89012 0.831556 0
M  V30 4600 H 422.884 -5.71574 3.2091 0
M  V30 4601 H 422.404 -5.80767 1.49899 0
M  V30 4602 H 424.083 -6.16043 1.97738 0
M  V30 4603 N 424.215 -0.530993 -1.48385 0
M  V30 4604 C 425.626 -0.0907905 -1.86479 0
M  V30 4605 C 425.977 1.33213 -1.44044 0
M  V30 4606 O 425.102 1.99783 -0.831615 0
M  V30 4607 C 425.697 -0.157987 -3.38431 0
M  V30 4608 C 424.256 0.227026 -3.75715 0
M  V30 4609 C 423.403 -0.5173 -2.72432 0
M  V30 4610 H 426.354 -0.742186 -1.40276 0
M  V30 4611 H 426.375 0.630053 -3.75247 0
M  V30 4612 H 425.887 -1.19372 -3.69286 0
M  V30 4613 H 423.988 1.26486 -3.50474 0
M  V30 4614 H 424.101 -0.113288 -4.78966 0
M  V30 4615 H 422.465 0.0365527 -2.54674 0
M  V30 4616 H 423.248 -1.55368 -3.0613 0
M  V30 4617 N 425.693 1.55336 -0.266172 0
M  V30 4618 C 426.603 2.2583 0.635458 0
M  V30 4619 C 427.619 1.28106 1.17749 0
M  V30 4620 O 428.795 1.61024 1.20968 0
M  V30 4621 C 425.86 2.95879 1.80712 0
M  V30 4622 C 424.921 4.09059 1.30265 0
M  V30 4623 C 424.154 4.75759 2.41846 0
M  V30 4624 O 424.377 4.41622 3.61007 0
M  V30 4625 O 423.311 5.63888 2.1051 0
M  V30 4626 H 427.137 3.03631 0.0646693 0
M  V30 4627 H 424.722 1.49361 -0.0339177 0
M  V30 4628 H 426.604 3.39932 2.49047 0
M  V30 4629 H 425.279 2.21002 2.36516 0
M  V30 4630 H 424.186 3.69482 0.586019 0
M  V30 4631 H 425.519 4.85811 0.790458 0
M  V30 4632 N 427.171 -0.0066808 1.57599 0
M  V30 4633 C 428.587 -0.36267 1.55425 0
M  V30 4634 C 428.787 -1.75209 0.995187 0
M  V30 4635 O 427.843 -2.44616 0.626058 0
M  V30 4636 C 429.156 -0.244017 2.99708 0
M  V30 4637 C 430.704 -0.319451 3.11366 0
M  V30 4638 C 431.179 -0.229998 4.57422 0
M  V30 4639 N 432.67 -0.288105 4.62303 0
M  V30 4640 C 433.405 -0.242127 5.72889 0
M  V30 4641 N 432.901 -0.147133 6.92644 0
M  V30 4642 N 434.694 -0.293502 5.61333 0
M  V30 4643 H 426.845 0.902314 1.92281 0
M  V30 4644 H 429.108 0.34525 0.882896 0
M  V30 4645 H 428.814 0.711678 3.44424 0
M  V30 4646 H 428.688 -1.02877 3.629 0
M  V30 4647 H 431.075 -1.26559 2.66584 0
M  V30 4648 H 431.156 0.495055 2.50964 0
M  V30 4649 H 430.8 0.712566 5.02877 0
M  V30 4650 H 430.73 -1.0629 5.15761 0
M  V30 4651 H 433.221 -0.363126 3.76151 0
M  V30 4652 H 433.534 -0.117763 7.7271 0
M  V30 4653 H 431.879 -0.112857 6.94908 0
M  V30 4654 H 435.07 -0.365864 4.66668 0
M  V30 4655 H 435.243 -0.254204 6.47501 0
M  V30 4656 N 428.649 -1.55105 -0.279332 0
M  V30 4657 C 429.898 -1.74618 -1.00952 0
M  V30 4658 C 430.211 -0.551096 -1.87676 0
M  V30 4659 O 431.417 -0.628507 -2.64125 0
M  V30 4660 C 429.873 -3.09025 -1.84476 0
M  V30 4661 C 429.481 -4.36081 -1.0265 0
M  V30 4662 C 431.225 -3.37891 -2.56963 0
M  V30 4663 C 429.132 -5.6153 -1.85576 0
M  V30 4664 H 428.062 -0.650868 -0.38064 0
M  V30 4665 H 430.713 -1.81569 -0.265475 0
M  V30 4666 H 429.095 -2.96095 -2.62952 0
M  V30 4667 H 430.269 -4.59909 -0.286354 0
M  V30 4668 H 428.584 -4.14312 -0.416464 0
M  V30 4669 H 431.181 -4.28822 -3.19399 0
M  V30 4670 H 431.524 -2.57737 -3.26921 0
M  V30 4671 H 432.057 -3.5189 -1.85522 0
M  V30 4672 H 428.796 -6.44413 -1.2005 0
M  V30 4673 H 428.316 -5.41854 -2.57204 0
M  V30 4674 H 429.995 -5.99594 -2.43096 0
M  V30 4675 N 430.127 0.543554 -1.4793 0
M  V30 4676 C 431.357 1.32324 -1.58663 0
M  V30 4677 C 431.765 1.8766 -0.240896 0
M  V30 4678 O 431.108 1.66411 0.778011 0
M  V30 4679 C 431.17 2.52094 -2.56299 0
M  V30 4680 C 430.834 2.17944 -4.01683 0
M  V30 4681 C 431.831 1.74422 -4.89768 0
M  V30 4682 C 429.516 2.28884 -4.47121 0
M  V30 4683 C 431.51 1.42287 -6.21316 0
M  V30 4684 C 429.197 1.96361 -5.78693 0
M  V30 4685 C 430.195 1.53132 -6.65612 0
M  V30 4686 O 429.883 1.21029 -7.94737 0
M  V30 4687 H 429.615 0.409174 -0.538101 0
M  V30 4688 H 432.169 0.663887 -1.94375 0
M  V30 4689 H 430.399 3.20965 -2.15681 0
M  V30 4690 H 432.088 3.14165 -2.57012 0
M  V30 4691 H 432.854 1.65452 -4.55907 0
M  V30 4692 H 428.733 2.61488 -3.79664 0
M  V30 4693 H 432.277 1.08472 -6.89115 0
M  V30 4694 H 428.174 2.04967 -6.12094 0
M  V30 4695 H 428.942 1.34543 -8.07366 0
M  V30 4696 N 431.605 1.3629 0.791371 0
M  V30 4697 C 432.83 1.33726 1.58531 0
M  V30 4698 C 433.255 -0.0794933 1.87932 0
M  V30 4699 O 432.613 -1.05087 1.47738 0
M  V30 4700 C 432.661 2.16425 2.88431 0
M  V30 4701 O 431.765 1.5554 3.81944 0
M  V30 4702 H 431.106 0.457793 0.480959 0
M  V30 4703 H 433.636 1.79547 0.981031 0
M  V30 4704 H 433.646 2.28933 3.37718 0
M  V30 4705 H 432.321 3.19415 2.66359 0
M  V30 4706 H 430.898 1.51961 3.40532 0
M  V30 4707 N 433.083 -1.0153 1.20538 0
M  V30 4708 C 434.013 -2.11972 0.979295 0
M  V30 4709 C 434.994 -1.6985 -0.0921787 0
M  V30 4710 O 436.179 -1.94089 0.0655932 0
M  V30 4711 C 433.309 -3.43201 0.531984 0
M  V30 4712 C 432.263 -3.9907 1.54685 0
M  V30 4713 C 431.589 -5.26082 0.956127 0
M  V30 4714 C 432.889 -4.32313 2.93092 0
M  V30 4715 H 434.583 -2.31143 1.90298 0
M  V30 4716 H 432.129 -1.11079 0.916372 0
M  V30 4717 H 434.082 -4.1985 0.361044 0
M  V30 4718 H 432.806 -3.23792 -0.427327 0
M  V30 4719 H 431.465 -3.2453 1.70517 0
M  V30 4720 H 431.113 -5.02999 -0.0111538 0
M  V30 4721 H 430.813 -5.64426 1.63393 0
M  V30 4722 H 432.337 -6.05386 0.796284 0
M  V30 4723 H 433.751 -4.99845 2.80763 0
M  V30 4724 H 432.148 -4.81774 3.57791 0
M  V30 4725 H 433.218 -3.41025 3.44717 0
M  V30 4726 N 434.561 -1.01147 -1.20859 0
M  V30 4727 C 435.786 -0.716698 -1.94623 0
M  V30 4728 C 436.211 0.715415 -1.73964 0
M  V30 4729 O 435.569 1.49157 -1.03062 0
M  V30 4730 C 435.617 -1.0513 -3.44935 0
M  V30 4731 O 434.721 -0.160131 -4.12089 0
M  V30 4732 H 434.062 -0.266404 -0.608214 0
M  V30 4733 H 436.592 -1.35346 -1.53436 0
M  V30 4734 H 436.602 -1.00086 -3.95533 0
M  V30 4735 H 435.277 -2.09475 -3.59295 0
M  V30 4736 H 433.854 -0.267657 -3.71938 0
M  V30 4737 N 436.039 1.36541 -0.78704 0
M  V30 4738 C 437.316 1.9355 -0.282424 0
M  V30 4739 C 437.696 1.71919 1.22503 0
M  V30 4740 O 437.044 1.07677 2.01539 0
M  V30 4741 C 437.254 3.4246 -0.672462 0
M  V30 4742 C 438.602 4.19582 -0.650863 0
M  V30 4743 O 439.626 3.50889 -0.612789 0
M  V30 4744 O 438.485 5.42106 -0.691623 0
M  V30 4745 H 435.579 0.824091 -0.0693 0
M  V30 4746 H 438.125 1.45736 -0.869423 0
M  V30 4747 H 436.897 3.51851 -1.71221 0
M  V30 4748 H 436.52 3.97556 -0.0592211 0
M  V30 4749 N 437.518 0.538854 1.48102 0
M  V30 4750 C 438.765 0.0080018 2.02498 0
M  V30 4751 C 439.093 -1.33437 1.41509 0
M  V30 4752 O 438.348 -1.87709 0.553507 0
M  V30 4753 C 438.647 -0.153808 3.57069 0
M  V30 4754 C 438.313 1.11533 4.36888 0
M  V30 4755 C 436.975 1.46314 4.58417 0
M  V30 4756 C 439.327 1.95718 4.83057 0
M  V30 4757 C 436.655 2.6516 5.23361 0
M  V30 4758 C 439.007 3.13751 5.49312 0
M  V30 4759 C 437.671 3.48866 5.69077 0
M  V30 4760 H 436.941 0.00292807 0.740994 0
M  V30 4761 H 439.588 0.706668 1.77984 0
M  V30 4762 H 437.893 -0.935309 3.80472 0
M  V30 4763 H 439.59 -0.579607 3.96789 0
M  V30 4764 H 436.18 0.834484 4.20398 0
M  V30 4765 H 440.364 1.70158 4.66219 0
M  V30 4766 H 435.62 2.92558 5.36861 0
M  V30 4767 H 439.794 3.79282 5.84053 0
M  V30 4768 H 437.421 4.41054 6.19173 0
M  V30 4769 N 438.996 -1.55193 0.274407 0
M  V30 4770 C 440.224 -2.03987 -0.345943 0
M  V30 4771 C 440.639 -1.15279 -1.4952 0
M  V30 4772 O 439.996 -0.172759 -1.8168 0
M  V30 4773 C 440.047 -3.51898 -0.827631 0
M  V30 4774 O 439.768 -4.37231 0.275855 0
M  V30 4775 C 441.269 -4.16577 -1.51587 0
M  V30 4776 H 438.489 -0.666335 -0.0789892 0
M  V30 4777 H 441.033 -2.00423 0.406294 0
M  V30 4778 H 439.188 -3.55909 -1.52996 0
M  V30 4779 H 439.602 -5.24415 -0.0943638 0
M  V30 4780 H 441.076 -5.21678 -1.80433 0
M  V30 4781 H 441.553 -3.64707 -2.44716 0
M  V30 4782 H 442.159 -4.16568 -0.857409 0
M  V30 4783 N 440.474 -0.00167713 -1.576 0
M  V30 4784 C 441.704 0.692754 -1.94639 0
M  V30 4785 C 442.112 1.67744 -0.87513 0
M  V30 4786 O 441.455 1.8305 0.154382 0
M  V30 4787 C 441.517 1.47881 -3.27676 0
M  V30 4788 C 441.181 0.655518 -4.52274 0
M  V30 4789 C 442.178 -0.0575214 -5.19868 0
M  V30 4790 C 439.863 0.600994 -4.98692 0
M  V30 4791 C 441.857 -0.814052 -6.3218 0
M  V30 4792 C 439.544 -0.15926 -6.10892 0
M  V30 4793 C 440.542 -0.865515 -6.77494 0
M  V30 4794 O 440.23 -1.61336 -7.87544 0
M  V30 4795 H 439.962 0.197792 -0.646417 0
M  V30 4796 H 442.516 -0.049423 -2.05341 0
M  V30 4797 H 440.746 2.2655 -3.13388 0
M  V30 4798 H 442.435 2.05874 -3.49816 0
M  V30 4799 H 443.201 -0.0245611 -4.84994 0
M  V30 4800 H 439.08 1.14025 -4.46676 0
M  V30 4801 H 442.624 -1.36584 -6.84098 0
M  V30 4802 H 438.521 -0.194035 -6.45208 0
M  V30 4803 H 439.289 -1.53025 -8.04068 0
M  V30 4804 N 441.952 1.55251 0.271103 0
M  V30 4805 C 443.198 1.7713 0.999832 0
M  V30 4806 C 443.553 0.56659 1.83868 0
M  V30 4807 O 442.846 -0.44069 1.86463 0
M  V30 4808 C 443.04 3.01879 1.91321 0
M  V30 4809 C 442.869 4.34368 1.16426 0
M  V30 4810 C 441.639 4.97593 0.879169 0
M  V30 4811 C 443.837 5.1131 0.553749 0
M  V30 4812 N 441.819 6.13813 0.103618 0
M  V30 4813 C 443.19 6.19938 -0.0875442 0
M  V30 4814 C 445.245 4.95754 0.461782 0
M  V30 4815 C 443.948 7.14703 -0.811942 0
M  V30 4816 C 445.974 5.90875 -0.249027 0
M  V30 4817 C 445.336 6.98893 -0.879051 0
M  V30 4818 H 441.435 0.700407 0.347784 0
M  V30 4819 H 444.019 1.92744 0.275314 0
M  V30 4820 H 442.19 2.87637 2.60997 0
M  V30 4821 H 443.922 3.12154 2.57569 0
M  V30 4822 H 440.677 4.58538 1.18491 0
M  V30 4823 H 441.101 6.76455 -0.271543 0
M  V30 4824 H 445.743 4.12342 0.934552 0
M  V30 4825 H 443.461 7.97634 -1.29639 0
M  V30 4826 H 447.047 5.80916 -0.320529 0
M  V30 4827 H 445.927 7.71231 -1.42031 0
M  V30 4828 N 443.43 -0.535701 1.48216 0
M  V30 4829 C 444.655 -1.32149 1.59848 0
M  V30 4830 C 445.08 -1.86338 0.256842 0
M  V30 4831 O 444.438 -1.64107 -0.770632 0
M  V30 4832 C 444.486 -2.45224 2.64381 0
M  V30 4833 O 443.59 -3.48093 2.21144 0
M  V30 4834 H 442.931 -0.391634 0.536208 0
M  V30 4835 H 445.461 -0.645202 1.94161 0
M  V30 4836 H 445.471 -2.91491 2.85476 0
M  V30 4837 H 444.146 -2.05143 3.61786 0
M  V30 4838 H 442.723 -3.07984 2.10239 0
M  V30 4839 N 444.908 -1.36708 -0.784132 0
M  V30 4840 C 446.324 -1.17237 -1.08294 0
M  V30 4841 C 446.524 -5.93947e-05 -2.015 0
M  V30 4842 O 445.58 0.663686 -2.43622 0
M  V30 4843 C 446.893 -2.48557 -1.69233 0
M  V30 4844 C 448.441 -2.54968 -1.8155 0
M  V30 4845 C 448.916 -3.86388 -2.45904 0
M  V30 4846 N 450.407 -3.87762 -2.53367 0
M  V30 4847 C 451.142 -4.86191 -3.03983 0
M  V30 4848 N 450.638 -5.95015 -3.54866 0
M  V30 4849 N 452.431 -4.73606 -3.02743 0
M  V30 4850 H 444.582 -2.11758 -0.16501 0
M  V30 4851 H 446.845 -0.93822 -0.135822 0
M  V30 4852 H 446.551 -3.34638 -1.08215 0
M  V30 4853 H 446.425 -2.64748 -2.68679 0
M  V30 4854 H 448.812 -1.69302 -2.41704 0
M  V30 4855 H 448.893 -2.42672 -0.80895 0
M  V30 4856 H 448.537 -4.72462 -1.86392 0
M  V30 4857 H 448.467 -3.95982 -3.4714 0
M  V30 4858 H 450.958 -3.09145 -2.17343 0
M  V30 4859 H 451.271 -6.66086 -3.91854 0
M  V30 4860 H 449.616 -5.98676 -3.53003 0
M  V30 4861 H 452.807 -3.87717 -2.62284 0
M  V30 4862 H 452.98 -5.50473 -3.41881 0
M  V30 4863 N 446.386 1.0089 -1.21074 0
M  V30 4864 C 447.614 1.78191 -1.05145 0
M  V30 4865 C 448.029 1.84537 0.398952 0
M  V30 4866 O 447.386 1.30393 1.27687 0
M  V30 4867 C 447.437 3.22288 -1.63746 0
M  V30 4868 O 447.158 3.16315 -3.03111 0
M  V30 4869 C 448.659 4.16106 -1.52875 0
M  V30 4870 H 445.879 0.560129 -0.369454 0
M  V30 4871 H 448.423 1.26945 -1.60328 0
M  V30 4872 H 446.578 3.70655 -1.12664 0
M  V30 4873 H 446.992 4.06817 -3.31059 0
M  V30 4874 H 448.466 5.15026 -1.98626 0
M  V30 4875 H 448.943 4.36541 -0.482521 0
M  V30 4876 H 449.549 3.73625 -2.03185 0
M  V30 4877 N 447.864 1.01787 1.20321 0
M  V30 4878 C 449.089 0.727009 1.9424 0
M  V30 4879 C 449.514 -0.706179 1.74341 0
M  V30 4880 O 448.872 -1.48609 1.03852 0
M  V30 4881 C 448.92 1.06958 3.44372 0
M  V30 4882 O 448.024 0.181983 4.11998 0
M  V30 4883 H 447.365 0.269626 0.606793 0
M  V30 4884 H 449.895 1.36158 1.52716 0
M  V30 4885 H 449.905 1.02182 3.94997 0
M  V30 4886 H 448.58 2.11378 3.58179 0
M  V30 4887 H 447.157 0.287378 3.71791 0
M  V30 4888 N 449.342 -1.36122 0.79427 0
M  V30 4889 C 450.252 -2.33769 0.197296 0
M  V30 4890 C 451.268 -1.61276 -0.653153 0
M  V30 4891 O 452.444 -1.9323 -0.5678 0
M  V30 4892 C 449.509 -3.40474 -0.654098 0
M  V30 4893 C 448.57 -4.28759 0.215411 0
M  V30 4894 C 447.803 -5.30368 -0.595443 0
M  V30 4895 O 448.026 -5.40211 -1.83107 0
M  V30 4896 O 446.96 -6.019 0.00721351 0
M  V30 4897 H 450.786 -2.86597 1.00478 0
M  V30 4898 H 448.371 -1.38676 0.555818 0
M  V30 4899 H 450.253 -4.05703 -1.13944 0
M  V30 4900 H 448.928 -2.89937 -1.43938 0
M  V30 4901 H 447.835 -3.66554 0.747615 0
M  V30 4902 H 449.168 -4.82661 0.964332 0
M  V30 4903 N 450.82 -0.546701 -1.47814 0
M  V30 4904 C 452.066 -0.0187684 -2.02791 0
M  V30 4905 C 452.399 1.32338 -1.42128 0
M  V30 4906 O 451.674 1.85867 -0.573023 0
M  V30 4907 C 451.957 0.0854985 -3.59998 0
M  V30 4908 C 451.81 -1.283 -4.31114 0
M  V30 4909 C 453.129 0.80412 -4.32691 0
M  V30 4910 H 450.248 -0.0082946 -0.736953 0
M  V30 4911 H 452.89 -0.706962 -1.76358 0
M  V30 4912 H 451.04 0.671609 -3.82651 0
M  V30 4913 H 452.712 -1.91151 -4.19832 0
M  V30 4914 H 450.955 -1.86049 -3.91878 0
M  V30 4915 H 451.626 -1.16287 -5.39612 0
M  V30 4916 H 454.102 0.306576 -4.14969 0
M  V30 4917 H 452.978 0.846011 -5.42341 0
M  V30 4918 H 453.239 1.85802 -4.01161 0
M  V30 4919 N 452.299 1.55045 -0.282633 0
M  V30 4920 C 453.548 1.98938 0.332667 0
M  V30 4921 C 453.861 1.17455 1.56409 0
M  V30 4922 O 455.067 1.51527 2.25282 0
M  V30 4923 C 453.523 3.54105 0.643226 0
M  V30 4924 C 453.131 4.44374 -0.568814 0
M  V30 4925 C 454.875 4.06569 1.22074 0
M  V30 4926 C 452.782 5.90943 -0.232426 0
M  V30 4927 H 451.712 0.743043 0.128075 0
M  V30 4928 H 454.363 1.79341 -0.388464 0
M  V30 4929 H 452.745 3.69532 1.42346 0
M  V30 4930 H 453.919 4.40718 -1.34551 0
M  V30 4931 H 452.234 4.02585 -1.06369 0
M  V30 4932 H 454.831 5.13626 1.48635 0
M  V30 4933 H 455.174 3.56057 2.15707 0
M  V30 4934 H 455.707 3.94612 0.502621 0
M  V30 4935 H 452.446 6.45567 -1.13683 0
M  V30 4936 H 451.966 5.9765 0.507357 0
M  V30 4937 H 453.645 6.4677 0.172657 0
M  V30 4938 N 453.777 0.010035 1.57597 0
M  V30 4939 C 455.023 -0.673697 1.91283 0
M  V30 4940 C 455.356 -1.72863 0.884979 0
M  V30 4941 O 454.631 -1.94268 -0.0949487 0
M  V30 4942 C 454.914 -1.30766 3.35518 0
M  V30 4943 C 454.767 -0.263578 4.49027 0
M  V30 4944 C 456.086 -2.23105 3.79358 0
M  V30 4945 H 453.205 -0.243439 0.695634 0
M  V30 4946 H 455.847 0.0633864 1.89894 0
M  V30 4947 H 453.997 -1.93588 3.36832 0
M  V30 4948 H 455.669 0.365738 4.59848 0
M  V30 4949 H 453.912 0.413077 4.31829 0
M  V30 4950 H 454.583 -0.746398 5.4693 0
M  V30 4951 H 457.059 -1.70289 3.79659 0
M  V30 4952 H 455.935 -2.64424 4.81011 0
M  V30 4953 H 456.196 -3.11433 3.13787 0
M  V30 4954 N 455.255 -1.55392 -0.262866 0
M  V30 4955 C 456.202 -1.88966 -1.32516 0
M  V30 4956 C 457.172 -0.742187 -1.48596 0
M  V30 4957 O 458.357 -0.99439 -1.62839 0
M  V30 4958 C 455.497 -2.17592 -2.67858 0
M  V30 4959 C 454.61 -3.45061 -2.59917 0
M  V30 4960 C 453.745 -3.63336 -3.87505 0
M  V30 4961 C 452.784 -4.84462 -3.74116 0
M  V30 4962 N 451.921 -4.99342 -4.93561 0
M  V30 4963 H 456.761 -2.79566 -1.03184 0
M  V30 4964 H 454.298 -1.38404 -0.498285 0
M  V30 4965 H 456.256 -2.3219 -3.46617 0
M  V30 4966 H 454.886 -1.30215 -2.95371 0
M  V30 4967 H 453.938 -3.38881 -1.72812 0
M  V30 4968 H 455.25 -4.3396 -2.45926 0
M  V30 4969 H 454.404 -3.77807 -4.74707 0
M  V30 4970 H 453.143 -2.72641 -4.04374 0
M  V30 4971 H 452.148 -4.69985 -2.85297 0
M  V30 4972 H 453.373 -5.76603 -3.58757 0
M  V30 4973 H 451.319 -4.1158 -5.10821 0
M  V30 4974 H 451.236 -5.82303 -4.82141 0
M  V30 4975 H 452.504 -5.18208 -5.82306 0
M  V30 4976 N 456.733 0.527833 -1.48498 0
M  V30 4977 C 458.149 0.856571 -1.34666 0
M  V30 4978 C 458.349 1.98271 -0.35931 0
M  V30 4979 O 457.405 2.51551 0.218703 0
M  V30 4980 C 458.718 1.22207 -2.74747 0
M  V30 4981 C 460.266 1.33183 -2.83251 0
M  V30 4982 C 460.741 1.73075 -4.24039 0
M  V30 4983 N 462.232 1.80174 -4.26722 0
M  V30 4984 C 462.967 2.1243 -5.32598 0
M  V30 4985 N 462.463 2.43096 -6.4875 0
M  V30 4986 N 464.256 2.13454 -5.19994 0
M  V30 4987 H 456.407 -0.215174 -2.11307 0
M  V30 4988 H 458.67 -0.0336281 -0.947403 0
M  V30 4989 H 458.376 0.468195 -3.4857 0
M  V30 4990 H 458.25 2.17173 -3.08409 0
M  V30 4991 H 460.637 2.07647 -2.09683 0
M  V30 4992 H 460.718 0.363333 -2.53206 0
M  V30 4993 H 460.362 0.991712 -4.98124 0
M  V30 4994 H 460.292 2.70979 -4.51529 0
M  V30 4995 H 462.783 1.58744 -3.42942 0
M  V30 4996 H 463.096 2.6682 -7.25277 0
M  V30 4997 H 461.441 2.40611 -6.52021 0
M  V30 4998 H 464.632 1.88956 -4.28268 0
M  V30 4999 H 464.805 2.38261 -6.02608 0
M  V30 5000 N 458.211 1.37122 0.776871 0
M  V30 5001 C 459.457 1.32243 1.53752 0
M  V30 5002 C 459.79 -0.0944745 1.9397 0
M  V30 5003 O 459.065 -1.05068 1.6368 0
M  V30 5004 C 459.348 2.25681 2.80607 0
M  V30 5005 C 459.201 3.76127 2.46676 0
M  V30 5006 C 460.52 2.17657 3.82509 0
M  V30 5007 H 457.639 0.481704 0.557791 0
M  V30 5008 H 460.281 1.6778 0.891612 0
M  V30 5009 H 458.431 1.95505 3.35723 0
M  V30 5010 H 460.103 4.16877 1.97513 0
M  V30 5011 H 458.346 3.94946 1.79443 0
M  V30 5012 H 459.017 4.36933 3.37333 0
M  V30 5013 H 461.493 2.44245 3.36873 0
M  V30 5014 H 460.369 2.85185 4.69 0
M  V30 5015 H 460.63 1.16785 4.26396 0
M  V30 5016 N 459.689 -1.00246 1.21608 0
M  V30 5017 C 460.937 -1.73717 1.0328 0
M  V30 5018 C 461.258 -1.90102 -0.434318 0
M  V30 5019 O 460.528 -1.45376 -1.31311 0
M  V30 5020 H 459.108 -0.643613 0.379172 0
M  V30 5021 H 461.77 -1.20787 1.52959 0
M  V30 5022 H 460.866 -2.73535 1.50283 0
M  V30 5023 N 461.167 -1.02423 -1.1978 0
M  V30 5024 C 462.416 -0.713265 -1.88667 0
M  V30 5025 C 462.729 0.7609 -1.80193 0
M  V30 5026 O 463.935 1.18473 -2.44288 0
M  V30 5027 C 462.391 -1.22545 -3.38394 0
M  V30 5028 C 461.999 -2.72706 -3.55437 0
M  V30 5029 C 463.743 -0.990257 -4.12788 0
M  V30 5030 C 461.65 -3.17367 -4.99031 0
M  V30 5031 H 460.58 -0.263105 -0.706606 0
M  V30 5032 H 463.231 -1.23792 -1.35454 0
M  V30 5033 H 461.613 -0.628732 -3.90977 0
M  V30 5034 H 462.787 -3.37993 -3.13205 0
M  V30 5035 H 461.102 -2.94453 -2.94425 0
M  V30 5036 H 463.699 -1.29926 -5.18675 0
M  V30 5037 H 464.042 0.0730761 -4.16236 0
M  V30 5038 H 464.575 -1.55074 -3.66329 0
M  V30 5039 H 461.314 -4.23009 -5.00743 0
M  V30 5040 H 460.834 -2.56805 -5.42044 0
M  V30 5041 H 462.513 -3.10441 -5.67658 0
M  V30 5042 N 462.645 1.35699 -0.801477 0
M  V30 5043 C 463.873 2.03157 -0.391768 0
M  V30 5044 C 464.288 1.60412 0.995668 0
M  V30 5045 O 463.645 0.799228 1.64069 0
M  V30 5046 C 463.696 3.58566 -0.459671 0
M  V30 5047 O 463.417 3.99756 -1.7924 0
M  V30 5048 C 464.918 4.4328 -0.0421205 0
M  V30 5049 H 462.138 0.651688 -0.159825 0
M  V30 5050 H 464.682 1.73426 -1.08368 0
M  V30 5051 H 462.837 3.86963 0.183939 0
M  V30 5052 H 463.251 4.94387 -1.75162 0
M  V30 5053 H 464.725 5.51821 -0.140754 0
M  V30 5054 H 465.202 4.27383 1.01196 0
M  V30 5055 H 465.808 4.20168 -0.658687 0
M  V30 5056 N 464.123 0.554532 1.47522 0
M  V30 5057 C 465.372 0.0273458 2.01681 0
M  V30 5058 C 465.685 -1.32962 1.43459 0
M  V30 5059 O 466.891 -1.94657 1.89265 0
M  V30 5060 C 465.347 -0.00159057 3.599 0
M  V30 5061 C 464.955 1.35197 4.27113 0
M  V30 5062 C 466.699 -0.476311 4.21819 0
M  V30 5063 C 464.606 1.28229 5.77331 0
M  V30 5064 H 463.536 0.00645269 0.753972 0
M  V30 5065 H 466.187 0.701985 1.69542 0
M  V30 5066 H 464.569 -0.741821 3.8899 0
M  V30 5067 H 465.743 2.1097 4.09668 0
M  V30 5068 H 464.058 1.76441 3.77171 0
M  V30 5069 H 466.655 -0.5468 5.31897 0
M  V30 5070 H 466.998 -1.4877 3.8881 0
M  V30 5071 H 467.531 0.20898 3.97251 0
M  V30 5072 H 464.27 2.26959 6.14955 0
M  V30 5073 H 463.79 0.566314 5.97121 0
M  V30 5074 H 465.469 0.983226 6.39485 0
M  V30 5075 N 465.601 -1.54893 0.290851 0
M  V30 5076 C 466.533 -2.20564 -0.623236 0
M  V30 5077 C 467.546 -1.19519 -1.1054 0
M  V30 5078 O 468.735 -1.46165 -1.02459 0
M  V30 5079 C 465.835 -2.83033 -1.86401 0
M  V30 5080 C 465.008 -4.09916 -1.52604 0
M  V30 5081 C 464.067 -4.56284 -2.62091 0
M  V30 5082 O 463.093 -5.2171 -2.27612 0
M  V30 5083 N 464.295 -4.27746 -3.92446 0
M  V30 5084 H 467.06 -2.99638 -0.0610915 0
M  V30 5085 H 464.621 -1.61508 0.112615 0
M  V30 5086 H 466.613 -3.1099 -2.58973 0
M  V30 5087 H 465.183 -2.0786 -2.33481 0
M  V30 5088 H 464.403 -3.89078 -0.633424 0
M  V30 5089 H 465.691 -4.92554 -1.27547 0
M  V30 5090 H 465.089 -3.7531 -4.23272 0
M  V30 5091 H 463.646 -4.60437 -4.61347 0
M  V30 5092 N 467.08 -0.0183926 -1.57589 0
M  V30 5093 C 468.012 0.995557 -2.06449 0
M  V30 5094 C 469.025 1.29556 -0.985849 0
M  V30 5095 O 470.214 1.2621 -1.26227 0
M  V30 5096 C 467.314 2.32572 -2.46502 0
M  V30 5097 C 466.487 2.21245 -3.77319 0
M  V30 5098 C 465.546 3.37104 -4.04039 0
M  V30 5099 O 464.572 3.14468 -4.74445 0
M  V30 5100 N 465.774 4.60553 -3.53372 0
M  V30 5101 H 468.539 0.578746 -2.94059 0
M  V30 5102 H 466.1 0.168603 -1.6102 0
M  V30 5103 H 468.092 3.08887 -2.61478 0
M  V30 5104 H 466.662 2.65931 -1.64315 0
M  V30 5105 H 465.882 1.29723 -3.72244 0
M  V30 5106 H 467.17 2.10868 -4.63047 0
M  V30 5107 H 466.568 4.81839 -2.96391 0
M  V30 5108 H 465.125 5.34072 -3.73644 0
M  V30 5109 N 468.558 1.5553 0.254621 0
M  V30 5110 C 469.488 1.9268 1.31897 0
M  V30 5111 C 470.469 0.790797 1.506 0
M  V30 5112 O 471.654 1.05045 1.63337 0
M  V30 5113 C 468.784 2.21477 2.67517 0
M  V30 5114 C 467.738 3.37256 2.63519 0
M  V30 5115 C 467.064 3.51576 4.02862 0
M  V30 5116 C 468.364 4.73157 2.21179 0
M  V30 5117 H 470.058 2.81832 1.01051 0
M  V30 5118 H 467.604 1.35599 0.484662 0
M  V30 5119 H 469.557 2.46055 3.42104 0
M  V30 5120 H 468.281 1.29144 2.99982 0
M  V30 5121 H 466.94 3.12675 1.9139 0
M  V30 5122 H 466.588 2.56676 4.32581 0
M  V30 5123 H 466.288 4.2943 4.01078 0
M  V30 5124 H 467.812 3.78467 4.79161 0
M  V30 5125 H 469.226 4.97158 2.85494 0
M  V30 5126 H 467.623 5.54058 2.30521 0
M  V30 5127 H 468.693 4.70739 1.16332 0
M  V30 5128 N 470.036 -0.519951 1.48776 0
M  V30 5129 C 470.984 -1.64443 1.64503 0
M  V30 5130 C 471.978 -1.61501 0.511248 0
M  V30 5131 O 473.184 -1.66238 0.690294 0
M  V30 5132 H 469.559 -0.544776 0.518385 0
M  V30 5133 H 471.53 -1.48325 2.58925 0
M  V30 5134 C 470.279 -3.02673 1.71127 0
M  V30 5135 H 469.602 -3.05635 2.57735 0
M  V30 5136 H 471.042 -3.80941 1.86172 0
M  V30 5137 C 469.501 -3.33854 0.452032 0
M  V30 5138 O 470.031 -3.99385 -0.430678 0
M  V30 5139 N 468.237 -2.88825 0.32069 0
M  V30 5140 H 467.784 -2.35674 1.03998 0
M  V30 5141 H 467.742 -3.10056 -0.520814 0
M  V30 5142 N 471.514 -1.37532 -0.769588 0
M  V30 5143 C 472.76 -1.33057 -1.53048 0
M  V30 5144 C 473.093 0.0841865 -1.94017 0
M  V30 5145 O 472.368 1.04198 -1.64235 0
M  V30 5146 C 472.651 -2.27166 -2.79406 0
M  V30 5147 C 472.504 -3.77429 -2.44677 0
M  V30 5148 C 473.823 -2.19683 -3.81349 0
M  V30 5149 H 470.942 -0.484655 -0.555228 0
M  V30 5150 H 473.584 -1.68251 -0.882702 0
M  V30 5151 H 471.734 -1.97283 -3.34682 0
M  V30 5152 H 473.406 -4.17918 -1.953 0
M  V30 5153 H 471.649 -3.95892 -1.77346 0
M  V30 5154 H 472.32 -4.38716 -3.35011 0
M  V30 5155 H 474.796 -2.46029 -3.35573 0
M  V30 5156 H 473.672 -2.87668 -4.67481 0
M  V30 5157 H 473.933 -1.19045 -4.25771 0
M  V30 5158 N 472.992 0.995999 -1.22138 0
M  V30 5159 C 474.222 1.76809 -1.06874 0
M  V30 5160 C 474.63 1.85265 0.383866 0
M  V30 5161 O 473.973 1.31969 1.27789 0
M  V30 5162 C 474.035 3.2186 -1.60144 0
M  V30 5163 C 473.699 3.36958 -3.0872 0
M  V30 5164 C 474.696 3.2452 -4.0618 0
M  V30 5165 C 472.381 3.62109 -3.48112 0
M  V30 5166 C 474.375 3.37013 -5.41019 0
M  V30 5167 C 472.062 3.74243 -4.831 0
M  V30 5168 C 473.06 3.61702 -5.79362 0
M  V30 5169 O 472.748 3.73436 -7.119 0
M  V30 5170 H 472.48 0.562207 -0.375365 0
M  V30 5171 H 475.034 1.26113 -1.62125 0
M  V30 5172 H 473.264 3.73734 -0.992981 0
M  V30 5173 H 474.953 3.80775 -1.40589 0
M  V30 5174 H 475.719 3.05004 -3.77091 0
M  V30 5175 H 471.598 3.70949 -2.73712 0
M  V30 5176 H 475.142 3.27141 -6.16137 0
M  V30 5177 H 471.039 3.93266 -5.11872 0
M  V30 5178 H 471.807 3.90328 -7.19435 0
M  V30 5179 N 474.47 1.03057 1.19235 0
M  V30 5180 C 475.42 0.583386 2.2041 0
M  V30 5181 C 476.404 -0.368776 1.56617 0
M  V30 5182 O 477.596 -0.189471 1.75983 0
M  V30 5183 C 474.725 -0.0626534 3.43243 0
M  V30 5184 C 473.811 0.91205 4.14177 0
M  V30 5185 N 474.202 2.07514 4.61272 0
M  V30 5186 C 472.5 0.735859 4.39888 0
M  V30 5187 C 473.201 2.69003 5.15764 0
M  V30 5188 N 472.177 1.96954 5.06666 0
M  V30 5189 H 475.979 1.46988 2.54503 0
M  V30 5190 H 473.493 0.897785 1.35328 0
M  V30 5191 H 475.49 -0.400653 4.1497 0
M  V30 5192 H 474.15 -0.944813 3.1065 0
M  V30 5193 H 475.161 2.45448 4.56043 0
M  V30 5194 H 471.838 -0.0970656 4.17387 0
M  V30 5195 H 473.228 3.67514 5.6248 0
M  V30 5196 N 475.948 -1.35272 0.808662 0
M  V30 5197 C 476.88 -2.28507 0.178149 0
M  V30 5198 C 477.893 -1.50377 -0.623754 0
M  V30 5199 O 479.082 -1.72583 -0.455774 0
M  V30 5200 C 476.182 -3.30038 -0.769959 0
M  V30 5201 C 475.355 -4.37398 -0.0139749 0
M  V30 5202 C 474.414 -5.18775 -0.880875 0
M  V30 5203 O 473.44 -5.68236 -0.331059 0
M  V30 5204 N 474.642 -5.37087 -2.20267 0
M  V30 5205 H 477.407 -2.83255 0.979106 0
M  V30 5206 H 474.968 -1.47643 0.664308 0
M  V30 5207 H 476.96 -3.81371 -1.35418 0
M  V30 5208 H 475.53 -2.75789 -1.47171 0
M  V30 5209 H 474.75 -3.86971 0.751468 0
M  V30 5210 H 476.038 -5.06268 0.506965 0
M  V30 5211 H 475.436 -4.9855 -2.67328 0
M  V30 5212 H 473.993 -5.91593 -2.73608 0
M  V30 5213 N 477.426 -0.562348 -1.47226 0
M  V30 5214 C 478.356 0.170627 -2.32876 0
M  V30 5215 C 479.337 0.903748 -1.44106 0
M  V30 5216 O 480.522 0.883206 -1.72954 0
M  V30 5217 C 477.652 1.19786 -3.25989 0
M  V30 5218 C 476.606 0.580875 -4.2404 0
M  V30 5219 C 475.932 1.71311 -5.06514 0
M  V30 5220 C 477.232 -0.468714 -5.20193 0
M  V30 5221 H 478.926 -0.544441 -2.94408 0
M  V30 5222 H 476.472 -0.263271 -1.41573 0
M  V30 5223 H 478.425 1.71884 -3.84752 0
M  V30 5224 H 477.149 1.94294 -2.62521 0
M  V30 5225 H 475.808 0.0811538 -3.6651 0
M  V30 5226 H 475.456 2.44736 -4.39447 0
M  V30 5227 H 475.156 1.30604 -5.72902 0
M  V30 5228 H 476.68 2.23725 -5.68137 0
M  V30 5229 H 478.094 -0.0336028 -5.7329 0
M  V30 5230 H 476.491 -0.794957 -5.94811 0
M  V30 5231 H 477.561 -1.36269 -4.65359 0
M  V30 5232 N 478.904 1.54736 -0.299062 0
M  V30 5233 C 480.144 2.0201 0.31168 0
M  V30 5234 C 480.508 1.18281 1.5124 0
M  V30 5235 O 481.709 1.55243 2.19438 0
M  V30 5236 C 479.98 3.5123 0.661227 0
M  V30 5237 S 481.539 4.20467 1.2551 0
M  V30 5238 H 478.357 0.704523 0.0957517 0
M  V30 5239 H 480.959 1.90791 -0.426482 0
M  V30 5240 H 479.663 4.09804 -0.221171 0
M  V30 5241 H 479.194 3.66481 1.43023 0
M  V30 5242 H 481.209 4.26083 2.54298 0
M  V30 5243 N 480.382 0.0267497 1.57577 0
M  V30 5244 C 481.798 -0.32962 1.56159 0
M  V30 5245 C 481.998 -1.73059 1.03213 0
M  V30 5246 O 481.054 -2.43233 0.677804 0
M  V30 5247 C 482.367 -0.18039 3.00158 0
M  V30 5248 C 483.915 -0.253334 3.11973 0
M  V30 5249 C 484.39 -0.132921 4.57807 0
M  V30 5250 N 485.881 -0.189979 4.6281 0
M  V30 5251 C 486.616 -0.120554 5.73273 0
M  V30 5252 N 486.112 -0.000180315 6.928 0
M  V30 5253 N 487.905 -0.174369 5.61829 0
M  V30 5254 H 480.056 0.942896 1.90324 0
M  V30 5255 H 482.319 0.3639 0.875375 0
M  V30 5256 H 482.025 0.784576 3.42837 0
M  V30 5257 H 481.899 -0.951565 3.65 0
M  V30 5258 H 484.286 -1.20876 2.69208 0
M  V30 5259 H 484.367 0.548177 2.49857 0
M  V30 5260 H 484.011 0.819073 5.01252 0
M  V30 5261 H 483.941 -0.953264 5.179 0
M  V30 5262 H 486.432 -0.283257 3.76837 0
M  V30 5263 H 486.745 0.0461666 7.72786 0
M  V30 5264 H 485.09 0.034569 6.94991 0
M  V30 5265 H 488.281 -0.266794 4.67339 0
M  V30 5266 H 488.454 -0.116802 6.47895 0
M  V30 5267 N 481.861 -1.55662 -0.24637 0
M  V30 5268 C 482.824 -1.89558 -1.28842 0
M  V30 5269 C 483.824 -0.772082 -1.41052 0
M  V30 5270 O 485.014 -1.04007 -1.39743 0
M  V30 5271 C 482.146 -2.12449 -2.66605 0
M  V30 5272 H 483.339 -2.82735 -1.00004 0
M  V30 5273 H 480.892 -1.48562 -0.485684 0
M  V30 5274 H 481.627 -1.21742 -3.00582 0
M  V30 5275 H 481.412 -2.94273 -2.59125 0
M  V30 5276 H 482.902 -2.39854 -3.41847 0
M  V30 5277 N 483.339 0.512053 -1.4905 0
M  V30 5278 C 484.269 1.62365 -1.67809 0
M  V30 5279 C 485.25 1.61737 -0.526809 0
M  V30 5280 O 486.435 1.78651 -0.761404 0
M  V30 5281 C 483.565 3.00895 -1.73435 0
M  V30 5282 C 482.519 3.16387 -2.88242 0
M  V30 5283 C 481.845 4.56157 -2.78971 0
M  V30 5284 C 483.145 2.97457 -4.29321 0
M  V30 5285 H 484.839 1.46921 -2.60873 0
M  V30 5286 H 482.385 0.705379 -1.2554 0
M  V30 5287 H 484.338 3.78549 -1.85145 0
M  V30 5288 H 483.062 3.17403 -0.769619 0
M  V30 5289 H 481.721 2.41155 -2.76116 0
M  V30 5290 H 481.369 4.69525 -1.8043 0
M  V30 5291 H 481.069 4.67465 -3.5602 0
M  V30 5292 H 482.593 5.35886 -2.92675 0
M  V30 5293 H 484.007 3.64888 -4.42187 0
M  V30 5294 H 482.404 3.20245 -5.07507 0
M  V30 5295 H 483.474 1.93692 -4.44535 0
M  V30 5296 N 484.817 1.37938 0.762283 0
M  V30 5297 C 485.75 1.2884 1.88349 0
M  V30 5298 C 486.728 0.167084 1.61739 0
M  V30 5299 O 487.912 0.34292 1.85355 0
M  V30 5300 C 485.039 0.994257 3.23778 0
M  V30 5301 C 484.085 2.13376 3.69287 0
M  V30 5302 S 484.918 3.75439 3.81845 0
M  V30 5303 C 486.074 3.48195 5.20107 0
M  V30 5304 H 486.307 2.23736 1.95779 0
M  V30 5305 H 483.84 1.23672 0.924368 0
M  V30 5306 H 485.798 0.83138 4.01993 0
M  V30 5307 H 484.459 0.0626251 3.14038 0
M  V30 5308 H 483.652 1.88319 4.67495 0
M  V30 5309 H 483.254 2.25726 2.98201 0
M  V30 5310 H 485.546 3.0377 6.05583 0
M  V30 5311 H 486.489 4.45765 5.50181 0
M  V30 5312 H 486.897 2.82905 4.88493 0
M  V30 5313 N 486.295 -0.989507 1.22664 0
M  V30 5314 C 487.243 -2.10148 0.997035 0
M  V30 5315 C 488.237 -1.6929 -0.0609783 0
M  V30 5316 O 489.443 -1.79766 0.0917523 0
M  V30 5317 H 485.818 -0.687256 0.305259 0
M  V30 5318 H 487.789 -2.26685 1.94053 0
M  V30 5319 C 486.538 -3.4257 0.595085 0
M  V30 5320 H 485.861 -3.74453 1.40089 0
M  V30 5321 H 487.301 -4.21344 0.473869 0
M  V30 5322 C 485.76 -3.29638 -0.695725 0
M  V30 5323 O 486.29 -3.61709 -1.74727 0
M  V30 5324 N 484.496 -2.82814 -0.668173 0
M  V30 5325 H 484.043 -2.56914 0.18787 0
M  V30 5326 H 484.001 -2.74544 -1.5321 0
M  V30 5327 N 487.773 -1.03688 -1.18687 0
M  V30 5328 C 489.021 -0.736572 -1.88199 0
M  V30 5329 C 489.342 0.737665 -1.80509 0
M  V30 5330 O 488.612 1.53204 -1.22088 0
M  V30 5331 H 487.192 -0.269466 -0.696704 0
M  V30 5332 H 489.854 -1.31282 -1.44052 0
M  V30 5333 H 488.95 -1.03802 -2.94332 0
M  V30 5334 N 489.251 1.34841 -0.815825 0
M  V30 5335 C 490.5 1.97755 -0.396976 0
M  V30 5336 C 490.813 1.65422 1.04379 0
M  V30 5337 O 492.019 2.21771 1.5662 0
M  V30 5338 C 490.475 3.53818 -0.658869 0
M  V30 5339 C 490.083 3.95051 -2.11278 0
M  V30 5340 C 491.827 4.23397 -0.305834 0
M  V30 5341 C 489.734 5.43997 -2.31994 0
M  V30 5342 H 488.664 0.739985 -0.1447 0
M  V30 5343 H 491.315 1.53781 -1.00118 0
M  V30 5344 H 489.697 3.95997 0.0154112 0
M  V30 5345 H 490.871 3.63998 -2.82564 0
M  V30 5346 H 489.186 3.38388 -2.42657 0
M  V30 5347 H 491.783 5.32899 -0.43854 0
M  V30 5348 H 492.126 4.09508 0.748952 0
M  V30 5349 H 492.659 3.8667 -0.934403 0
M  V30 5350 H 489.398 5.62865 -3.35952 0
M  V30 5351 H 488.918 5.76589 -1.65244 0
M  V30 5352 H 490.597 6.10584 -2.14001 0
M  V30 5353 N 490.729 0.570148 1.46925 0
M  V30 5354 C 491.954 0.0542592 2.07329 0
M  V30 5355 C 492.379 -1.23582 1.41806 0
M  V30 5356 O 491.737 -1.74341 0.497479 0
M  V30 5357 C 491.785 -0.111175 3.60429 0
M  V30 5358 O 490.889 -1.17071 3.95434 0
M  V30 5359 H 490.23 0.0571425 0.661537 0
M  V30 5360 H 492.76 0.789516 1.88753 0
M  V30 5361 H 492.77 -0.321315 4.06733 0
M  V30 5362 H 491.445 0.831012 4.07513 0
M  V30 5363 H 490.022 -0.940029 3.60857 0
M  V30 5364 N 492.207 -1.54576 0.307264 0
M  V30 5365 C 493.623 -1.59534 -0.0459251 0
M  V30 5366 C 493.823 -1.32414 -1.51884 0
M  V30 5367 O 492.879 -1.1006 -2.27251 0
M  V30 5368 C 494.192 -2.98566 0.357649 0
M  V30 5369 C 495.74 -3.11491 0.306937 0
M  V30 5370 C 496.215 -4.52842 0.685427 0
M  V30 5371 N 497.706 -4.58782 0.638203 0
M  V30 5372 C 498.441 -5.66238 0.903458 0
M  V30 5373 N 497.937 -6.81703 1.23501 0
M  V30 5374 N 499.73 -5.55937 0.830102 0
M  V30 5375 H 491.881 -1.70464 1.26712 0
M  V30 5376 H 494.144 -0.79647 0.514139 0
M  V30 5377 H 493.85 -3.23356 1.38325 0
M  V30 5378 H 493.724 -3.76117 -0.285565 0
M  V30 5379 H 496.111 -2.86446 -0.709424 0
M  V30 5380 H 496.192 -2.36081 0.984861 0
M  V30 5381 H 495.836 -4.78618 1.69963 0
M  V30 5382 H 495.766 -5.26598 -0.0146346 0
M  V30 5383 H 498.257 -3.75849 0.393138 0
M  V30 5384 H 498.57 -7.59582 1.42322 0
M  V30 5385 H 496.915 -6.8324 1.27311 0
M  V30 5386 H 500.106 -4.64608 0.570693 0
M  V30 5387 H 500.279 -6.39597 1.04019 0
M  V30 5388 N 493.685 -0.035106 -1.57561 0
M  V30 5389 C 494.635 0.954034 -2.0708 0
M  V30 5390 C 495.619 1.2818 -0.972558 0
M  V30 5391 O 496.811 1.26691 -1.23606 0
M  V30 5392 C 493.94 2.23442 -2.60631 0
M  V30 5393 C 493.026 1.93475 -3.77396 0
M  V30 5394 N 493.417 1.33802 -4.87781 0
M  V30 5395 C 491.715 2.23434 -3.85996 0
M  V30 5396 C 492.416 1.21103 -5.68954 0
M  V30 5397 N 491.392 1.70855 -5.16052 0
M  V30 5398 H 495.194 0.487731 -2.89825 0
M  V30 5399 H 492.708 0.169759 -1.6151 0
M  V30 5400 H 494.705 2.95183 -2.94402 0
M  V30 5401 H 493.365 2.70693 -1.79319 0
M  V30 5402 H 494.376 1.01227 -5.07911 0
M  V30 5403 H 491.053 2.73317 -3.15601 0
M  V30 5404 H 492.443 0.749105 -6.67711 0
M  V30 5405 N 495.163 1.55791 0.238111 0
M  V30 5406 C 496.093 1.94068 1.29846 0
M  V30 5407 C 497.074 0.806726 1.49753 0
M  V30 5408 O 498.259 1.06772 1.62214 0
M  V30 5409 C 495.389 2.24302 2.65153 0
M  V30 5410 C 494.343 3.40032 2.59927 0
M  V30 5411 C 493.669 3.55829 3.99111 0
M  V30 5412 C 494.969 4.75476 2.16148 0
M  V30 5413 H 496.663 2.82887 0.980563 0
M  V30 5414 H 494.209 1.36105 0.470253 0
M  V30 5415 H 496.162 2.4967 3.39475 0
M  V30 5416 H 494.886 1.32318 2.98596 0
M  V30 5417 H 493.545 3.14687 1.88063 0
M  V30 5418 H 493.193 2.6125 4.29834 0
M  V30 5419 H 492.893 4.3366 3.96501 0
M  V30 5420 H 494.417 3.83528 4.7512 0
M  V30 5421 H 495.831 5.00158 2.80205 0
M  V30 5422 H 494.228 5.56472 2.24631 0
M  V30 5423 H 495.298 4.71946 1.11333 0
M  V30 5424 N 496.642 -0.504142 1.49319 0
M  V30 5425 C 497.872 -1.28071 1.62116 0
M  V30 5426 C 498.28 -1.86955 0.290566 0
M  V30 5427 O 497.623 -1.68415 -0.733616 0
M  V30 5428 C 497.685 -2.4521 2.62893 0
M  V30 5429 C 497.349 -2.07218 4.0732 0
M  V30 5430 C 498.346 -1.61375 4.94221 0
M  V30 5431 C 496.031 -2.16949 4.53033 0
M  V30 5432 C 498.025 -1.25763 6.2487 0
M  V30 5433 C 495.712 -1.80949 5.83696 0
M  V30 5434 C 496.71 -1.3543 6.69438 0
M  V30 5435 O 496.398 -0.99915 7.97667 0
M  V30 5436 H 496.13 -0.394763 0.54876 0
M  V30 5437 H 498.684 -0.612118 1.96067 0
M  V30 5438 H 496.914 -3.15134 2.24115 0
M  V30 5439 H 498.603 -3.0724 2.65252 0
M  V30 5440 H 499.369 -1.53306 4.60133 0
M  V30 5441 H 495.248 -2.5133 3.86463 0
M  V30 5442 H 498.792 -0.901631 6.91749 0
M  V30 5443 H 494.689 -1.88667 6.17313 0
M  V30 5444 H 495.457 -1.13089 8.1065 0
M  V30 5445 N 498.12 -1.38341 -0.754957 0
M  V30 5446 C 499.368 -1.34208 -1.51105 0
M  V30 5447 C 499.689 0.0677634 -1.94882 0
M  V30 5448 O 498.959 1.01517 -1.67544 0
M  V30 5449 H 497.539 -0.493819 -0.560493 0
M  V30 5450 H 500.201 -1.73005 -0.897507 0
M  V30 5451 H 499.297 -1.99203 -2.4026 0
M  V30 5452 N 499.598 0.982988 -1.23187 0
M  V30 5453 C 500.508 2.10907 -1.02739 0
M  V30 5454 C 501.524 1.73979 0.0273188 0
M  V30 5455 O 502.7 2.00702 -0.16757 0
M  V30 5456 C 499.765 3.41142 -0.618304 0
M  V30 5457 C 498.826 3.92112 -1.74777 0
M  V30 5458 C 498.059 5.16131 -1.3581 0
M  V30 5459 O 498.282 5.6989 -0.241201 0
M  V30 5460 O 497.216 5.61103 -2.17824 0
M  V30 5461 H 501.042 2.31046 -1.97108 0
M  V30 5462 H 498.627 1.09284 -1.01869 0
M  V30 5463 H 500.509 4.19488 -0.400982 0
M  V30 5464 H 499.184 3.2234 0.296421 0
M  V30 5465 H 498.091 3.14895 -2.0197 0
M  V30 5466 H 499.424 4.15364 -2.64071 0
M  V30 5467 N 501.076 1.04316 1.18135 0
M  V30 5468 C 502.353 0.662166 1.84051 0
M  V30 5469 C 502.733 -0.858169 1.9287 0
M  V30 5470 O 502.081 -1.76062 1.45652 0
M  V30 5471 C 502.291 1.3409 3.22212 0
M  V30 5472 C 503.639 1.4733 3.9822 0
M  V30 5473 O 504.663 1.29921 3.31661 0
M  V30 5474 O 503.522 1.75722 5.17479 0
M  V30 5475 H 500.616 0.232005 0.79379 0
M  V30 5476 H 503.162 1.1422 1.25506 0
M  V30 5477 H 501.934 2.37853 3.10711 0
M  V30 5478 H 501.557 0.849649 3.88416 0
M  V30 5479 N 502.554 -1.34406 0.822964 0
M  V30 5480 C 503.8 -1.98578 0.411666 0
M  V30 5481 C 504.133 -1.65093 -1.02264 0
M  V30 5482 O 503.408 -0.92258 -1.71227 0
M  V30 5483 C 503.691 -3.54823 0.614235 0
M  V30 5484 C 503.544 -3.9805 2.09466 0
M  V30 5485 C 504.863 -4.40071 0.050221 0
M  V30 5486 H 501.982 -0.721355 0.151047 0
M  V30 5487 H 504.624 -1.59301 1.03554 0
M  V30 5488 H 502.774 -3.88411 0.0831774 0
M  V30 5489 H 504.446 -3.74795 2.68936 0
M  V30 5490 H 502.689 -3.4836 2.5851 0
M  V30 5491 H 503.36 -5.06819 2.18721 0
M  V30 5492 H 505.836 -4.13037 0.503953 0
M  V30 5493 H 504.712 -5.48452 0.221759 0
M  V30 5494 H 504.973 -4.29576 -1.04482 0
M  V30 5495 N 504.032 -0.577932 -1.46621 0
M  V30 5496 C 504.942 0.160651 -2.34049 0
M  V30 5497 C 505.958 0.890911 -1.49462 0
M  V30 5498 O 507.134 0.855166 -1.82343 0
M  V30 5499 C 504.199 1.16447 -3.26559 0
M  V30 5500 C 503.26 0.4394 -4.27045 0
M  V30 5501 C 502.493 1.3954 -5.15135 0
M  V30 5502 O 502.716 2.63162 -5.06065 0
M  V30 5503 O 501.65 0.908585 -5.95003 0
M  V30 5504 H 505.476 -0.557057 -2.98547 0
M  V30 5505 H 503.061 -0.338369 -1.45518 0
M  V30 5506 H 504.943 1.7434 -3.83645 0
M  V30 5507 H 503.618 1.86373 -2.64663 0
M  V30 5508 H 502.525 -0.181247 -3.73661 0
M  V30 5509 H 503.858 -0.218799 -4.91713 0
M  V30 5510 N 505.51 1.54411 -0.315457 0
M  V30 5511 C 506.787 1.92562 0.343398 0
M  V30 5512 C 507.167 1.24423 1.70535 0
M  V30 5513 O 506.515 0.385051 2.25232 0
M  V30 5514 C 506.725 3.46168 0.443687 0
M  V30 5515 C 508.073 4.18659 0.707783 0
M  V30 5516 O 509.097 3.52281 0.52693 0
M  V30 5517 O 507.956 5.36198 1.05612 0
M  V30 5518 H 505.05 0.80379 0.194552 0
M  V30 5519 H 507.596 1.65738 -0.364577 0
M  V30 5520 H 506.368 3.8792 -0.513172 0
M  V30 5521 H 505.991 3.79073 1.19956 0
M  V30 5522 N 506.988 0.0434614 1.5754 0
M  V30 5523 C 508.237 -0.631454 1.91561 0
M  V30 5524 C 508.55 -1.72457 0.92292 0
M  V30 5525 O 509.756 -2.45712 1.15489 0
M  V30 5526 C 508.212 -1.17447 3.40197 0
M  V30 5527 C 507.82 -0.113867 4.47855 0
M  V30 5528 C 509.564 -1.82507 3.83264 0
M  V30 5529 C 507.471 -0.669326 5.876 0
M  V30 5530 H 506.401 -0.239629 0.714908 0
M  V30 5531 H 509.052 0.111097 1.83163 0
M  V30 5532 H 507.434 -1.96909 3.43574 0
M  V30 5533 H 508.608 0.659348 4.56058 0
M  V30 5534 H 506.923 0.438821 4.14081 0
M  V30 5535 H 509.52 -2.25047 4.85034 0
M  V30 5536 H 509.863 -2.67365 3.19095 0
M  V30 5537 H 510.396 -1.09712 3.82372 0
M  V30 5538 H 507.135 0.141449 6.55347 0
M  V30 5539 H 506.655 -1.4107 5.82974 0
M  V30 5540 H 508.334 -1.15463 6.36614 0
M  V30 5541 N 508.466 -1.55915 -0.229846 0
M  V30 5542 C 509.713 -1.78542 -0.955452 0
M  V30 5543 C 510.041 -0.610785 -1.84661 0
M  V30 5544 O 509.296 0.405213 -1.91459 0
M  V30 5545 C 509.595 -3.06845 -1.8325 0
M  V30 5546 C 509.261 -4.37395 -1.09528 0
M  V30 5547 C 507.923 -4.72868 -0.891598 0
M  V30 5548 C 510.275 -5.18029 -0.574046 0
M  V30 5549 C 507.603 -5.86496 -0.154655 0
M  V30 5550 C 509.955 -6.32423 0.149513 0
M  V30 5551 C 508.619 -6.66504 0.364519 0
M  V30 5552 H 507.889 -0.653333 -0.349625 0
M  V30 5553 H 510.536 -1.90183 -0.224235 0
M  V30 5554 H 508.841 -2.90291 -2.63132 0
M  V30 5555 H 510.538 -3.21553 -2.39592 0
M  V30 5556 H 507.128 -4.09538 -1.26399 0
M  V30 5557 H 511.312 -4.91066 -0.718899 0
M  V30 5558 H 506.568 -6.11396 0.0222356 0
M  V30 5559 H 510.742 -6.94137 0.560947 0
M  V30 5560 H 508.369 -7.54397 0.937495 0
M  V30 5561 N 509.944 0.496216 -1.49584 0
M  V30 5562 C 511.19 1.25189 -1.59548 0
M  V30 5563 C 511.523 1.9212 -0.283466 0
M  V30 5564 O 510.798 1.80947 0.713324 0
M  V30 5565 C 511.081 2.31516 -2.75812 0
M  V30 5566 C 510.934 1.69054 -4.16822 0
M  V30 5567 C 512.253 3.3304 -2.87702 0
M  V30 5568 H 509.372 0.45379 -0.580727 0
M  V30 5569 H 512.014 0.549327 -1.81886 0
M  V30 5570 H 510.164 2.91438 -2.56897 0
M  V30 5571 H 511.836 1.12923 -4.47265 0
M  V30 5572 H 510.079 0.994485 -4.22247 0
M  V30 5573 H 510.75 2.462 -4.94054 0
M  V30 5574 H 513.226 2.83114 -3.04936 0
M  V30 5575 H 512.102 4.04794 -3.7072 0
M  V30 5576 H 512.363 3.95655 -1.97255 0
M  V30 5577 N 511.423 1.38739 0.74761 0
M  V30 5578 C 512.353 1.39173 1.87492 0
M  V30 5579 C 513.334 0.256794 1.6815 0
M  V30 5580 O 514.519 0.460762 1.88655 0
M  V30 5581 C 511.649 1.22197 3.25093 0
M  V30 5582 C 510.603 2.32957 3.59047 0
M  V30 5583 C 509.929 2.01082 4.95449 0
M  V30 5584 C 511.229 3.75237 3.6331 0
M  V30 5585 H 512.923 2.3351 1.87386 0
M  V30 5586 H 510.469 1.12399 0.900134 0
M  V30 5587 H 512.422 1.21124 4.03617 0
M  V30 5588 H 511.146 0.243241 3.25693 0
M  V30 5589 H 509.805 2.33226 2.82845 0
M  V30 5590 H 509.453 1.01678 4.92616 0
M  V30 5591 H 509.153 2.75267 5.19136 0
M  V30 5592 H 510.677 2.01638 5.76346 0
M  V30 5593 H 512.091 3.76966 4.31937 0
M  V30 5594 H 510.488 4.48677 3.98509 0
M  V30 5595 H 511.558 4.07122 2.634 0
M  V30 5596 N 512.901 -0.976442 1.23707 0
M  V30 5597 C 514.149 -1.71487 1.06942 0
M  V30 5598 C 514.47 -1.9098 -0.393897 0
M  V30 5599 O 513.74 -1.48128 -1.28198 0
M  V30 5600 H 512.32 -0.635425 0.392739 0
M  V30 5601 H 514.982 -1.17515 1.55487 0
M  V30 5602 H 514.078 -2.70286 1.56051 0
M  V30 5603 N 514.379 -1.04941 -1.1758 0
M  V30 5604 C 515.289 -0.658826 -2.25159 0
M  V30 5605 C 516.305 0.318941 -1.71052 0
M  V30 5606 O 517.481 0.171669 -2.00667 0
M  V30 5607 C 514.546 -0.0369522 -3.4668 0
M  V30 5608 C 513.607 -1.06484 -4.15884 0
M  V30 5609 C 512.84 -0.472551 -5.31604 0
M  V30 5610 O 513.063 0.718736 -5.65854 0
M  V30 5611 O 511.997 -1.20557 -5.89703 0
M  V30 5612 H 515.823 -1.55533 -2.60851 0
M  V30 5613 H 513.408 -0.820819 -1.24832 0
M  V30 5614 H 515.29 0.308784 -4.20267 0
M  V30 5615 H 513.965 0.833238 -3.12792 0
M  V30 5616 H 512.872 -1.46253 -3.44327 0
M  V30 5617 H 514.205 -1.9061 -4.53794 0
M  V30 5618 N 515.857 1.33968 -0.830081 0
M  V30 5619 C 516.804 2.29387 -0.255008 0
M  V30 5620 C 517.774 1.53923 0.624243 0
M  V30 5621 O 518.959 1.82262 0.564372 0
M  V30 5622 C 516.099 3.4034 0.571209 0
M  V30 5623 C 515.212 4.30729 -0.331083 0
M  V30 5624 C 514.347 5.2879 0.505389 0
M  V30 5625 C 513.386 6.10819 -0.395843 0
M  V30 5626 N 512.523 7.00948 0.401979 0
M  V30 5627 H 517.363 2.77972 -1.07404 0
M  V30 5628 H 514.9 1.36785 -0.541133 0
M  V30 5629 H 516.858 4.03361 1.06562 0
M  V30 5630 H 515.488 2.9297 1.35529 0
M  V30 5631 H 514.54 3.68507 -0.943759 0
M  V30 5632 H 515.852 4.88181 -1.02377 0
M  V30 5633 H 515.006 5.97297 1.06399 0
M  V30 5634 H 513.745 4.71894 1.23155 0
M  V30 5635 H 512.75 5.41238 -0.966529 0
M  V30 5636 H 513.975 6.69797 -1.12023 0
M  V30 5637 H 511.921 6.46512 1.11168 0
M  V30 5638 H 511.838 7.55643 -0.232167 0
M  V30 5639 H 513.106 7.73774 0.943102 0
M  V30 5640 N 517.335 0.585699 1.46312 0
M  V30 5641 C 518.298 -0.135673 2.28798 0
M  V30 5642 C 519.298 -0.815988 1.38558 0
M  V30 5643 O 520.488 -0.667487 1.60904 0
M  V30 5644 C 517.62 -1.20163 3.1902 0
M  V30 5645 H 518.813 0.589257 2.94054 0
M  V30 5646 H 516.366 0.343794 1.52472 0
M  V30 5647 H 517.101 -1.95804 2.58517 0
M  V30 5648 H 516.886 -0.718282 3.85465 0
M  V30 5649 H 518.376 -1.70749 3.81096 0
M  V30 5650 N 518.813 -1.54241 0.323641 0
M  V30 5651 C 519.743 -2.27289 -0.534993 0
M  V30 5652 C 520.724 -1.28087 -1.11927 0
M  V30 5653 O 521.909 -1.56899 -1.14439 0
M  V30 5654 C 519.039 -3.03075 -1.69596 0
M  V30 5655 C 517.993 -4.09614 -1.24098 0
M  V30 5656 C 517.319 -4.73242 -2.4889 0
M  V30 5657 C 518.619 -5.21087 -0.355789 0
M  V30 5658 H 520.313 -2.99308 0.0743257 0
M  V30 5659 H 517.859 -1.43952 0.0371874 0
M  V30 5660 H 519.812 -3.52907 -2.30293 0
M  V30 5661 H 518.536 -2.28673 -2.33187 0
M  V30 5662 H 517.195 -3.60666 -0.656945 0
M  V30 5663 H 516.843 -3.95455 -3.10845 0
M  V30 5664 H 516.543 -5.45209 -2.19138 0
M  V30 5665 H 518.067 -5.25848 -3.10348 0
M  V30 5666 H 519.481 -5.66675 -0.869042 0
M  V30 5667 H 517.878 -5.9991 -0.151045 0
M  V30 5668 H 518.948 -4.81005 0.613339 0
M  V30 5669 N 520.291 -0.0518155 -1.57515 0
M  V30 5670 C 521.568 0.661727 -1.84067 0
M  V30 5671 C 521.948 1.88999 -0.940351 0
M  V30 5672 O 521.296 2.285 -0.00155404 0
M  V30 5673 C 521.506 1.01841 -3.3381 0
M  V30 5674 C 522.854 1.40043 -4.00841 0
M  V30 5675 O 523.878 1.11073 -3.38439 0
M  V30 5676 O 522.737 1.94111 -5.10865 0
M  V30 5677 H 519.831 0.326702 -0.759733 0
M  V30 5678 H 522.377 -0.0812277 -1.69505 0
M  V30 5679 H 521.149 0.145202 -3.91031 0
M  V30 5680 H 520.772 1.81879 -3.53562 0
M  V30 5681 N 521.769 1.56035 0.221574 0
M  V30 5682 C 523.017 1.78693 0.944102 0
M  V30 5683 C 523.338 0.620317 1.8487 0
M  V30 5684 O 522.608 -0.362784 1.92512 0
M  V30 5685 H 521.188 0.659082 0.351597 0
M  V30 5686 H 523.85 1.93497 0.233435 0
M  V30 5687 H 522.946 2.70837 1.55093 0
M  V30 5688 N 523.247 -0.488276 1.49845 0
M  V30 5689 C 524.157 -1.61451 1.70207 0
M  V30 5690 C 525.173 -1.63877 0.584846 0
M  V30 5691 O 526.349 -1.82063 0.861107 0
M  V30 5692 C 523.414 -2.9776 1.77594 0
M  V30 5693 C 522.475 -3.05861 3.01243 0
M  V30 5694 C 521.708 -4.35668 3.08268 0
M  V30 5695 O 521.931 -5.25197 2.22541 0
M  V30 5696 O 520.865 -4.49005 4.00847 0
M  V30 5697 H 524.691 -1.47199 2.65643 0
M  V30 5698 H 522.276 -0.665939 1.33737 0
M  V30 5699 H 524.158 -3.7875 1.84732 0
M  V30 5700 H 522.833 -3.12248 0.8534 0
M  V30 5701 H 521.74 -2.24012 2.99616 0
M  V30 5702 H 523.073 -2.96304 3.9302 0
M  V30 5703 N 524.725 -1.39134 -0.740242 0
M  V30 5704 C 525.635 -1.39697 -1.88473 0
M  V30 5705 C 526.651 -0.292403 -1.71526 0
M  V30 5706 O 527.827 -0.533021 -1.94219 0
M  V30 5707 C 524.892 -1.23382 -3.24003 0
M  V30 5708 C 523.953 -2.43763 -3.53381 0
M  V30 5709 C 523.186 -2.28216 -4.82445 0
M  V30 5710 O 523.409 -1.28288 -5.55786 0
M  V30 5711 O 522.343 -3.1709 -5.11603 0
M  V30 5712 H 526.169 -2.36159 -1.90952 0
M  V30 5713 H 523.754 -1.20194 -0.887346 0
M  V30 5714 H 525.636 -1.16395 -4.05006 0
M  V30 5715 H 524.311 -0.300121 -3.22306 0
M  V30 5716 H 523.218 -2.56325 -2.72485 0
M  V30 5717 H 524.551 -3.35808 -3.59852 0
M  V30 5718 N 526.204 0.969867 -1.24223 0
M  V30 5719 C 527.62 1.23809 -1.00716 0
M  V30 5720 C 527.82 1.99469 0.285358 0
M  V30 5721 O 526.876 2.31764 1.00207 0
M  V30 5722 C 528.189 2.02734 -2.2208 0
M  V30 5723 C 529.737 2.15834 -2.26681 0
M  V30 5724 C 530.212 2.98154 -3.47661 0
M  V30 5725 N 531.703 3.05737 -3.47964 0
M  V30 5726 C 532.438 3.69785 -4.38231 0
M  V30 5727 N 531.934 4.35569 -5.3875 0
M  V30 5728 N 533.727 3.66775 -4.25949 0
M  V30 5729 H 525.878 0.463294 -2.07286 0
M  V30 5730 H 528.141 0.267348 -0.909521 0
M  V30 5731 H 527.847 1.54524 -3.15935 0
M  V30 5732 H 527.721 3.0347 -2.24021 0
M  V30 5733 H 530.108 2.63248 -1.33359 0
M  V30 5734 H 530.189 1.14453 -2.28767 0
M  V30 5735 H 529.833 2.51435 -4.41297 0
M  V30 5736 H 529.763 3.99729 -3.42818 0
M  V30 5737 H 532.254 2.58941 -2.75242 0
M  V30 5738 H 532.567 4.82251 -6.03866 0
M  V30 5739 H 530.912 4.34244 -5.42639 0
M  V30 5740 H 534.103 3.14558 -3.46657 0
M  V30 5741 H 534.276 4.16407 -4.96497 0
M  V30 5742 N 527.682 1.05563 1.17022 0
M  V30 5743 C 528.615 0.604197 2.20056 0
M  V30 5744 C 529.593 -0.369169 1.58354 0
M  V30 5745 O 530.777 -0.279898 1.8641 0
M  V30 5746 C 527.904 -0.115265 3.38504 0
M  V30 5747 C 526.95 0.813698 4.18666 0
M  V30 5748 S 527.783 2.30492 4.83357 0
M  V30 5749 C 528.939 1.59674 6.0519 0
M  V30 5750 H 529.172 1.47713 2.58008 0
M  V30 5751 H 526.705 0.867932 1.27696 0
M  V30 5752 H 528.663 -0.524162 4.0714 0
M  V30 5753 H 527.324 -0.964284 2.98932 0
M  V30 5754 H 526.517 0.256736 5.03346 0
M  V30 5755 H 526.119 1.16213 3.55486 0
M  V30 5756 H 528.411 0.898164 6.7152 0
M  V30 5757 H 529.354 2.42115 6.65422 0
M  V30 5758 H 529.762 1.08252 5.54023 0
M  V30 5759 N 529.16 -1.33526 0.837174 0
M  V30 5760 C 530.407 -1.97837 0.432064 0
M  V30 5761 C 530.735 -1.66324 -1.00829 0
M  V30 5762 O 529.99 -0.93448 -1.71948 0
M  V30 5763 C 530.289 -3.52367 0.597675 0
M  V30 5764 C 529.955 -4.03826 2.00587 0
M  V30 5765 C 528.617 -4.1759 2.39106 0
M  V30 5766 C 530.969 -4.31333 2.92576 0
M  V30 5767 C 528.297 -4.56195 3.68921 0
M  V30 5768 C 530.649 -4.7139 4.2187 0
M  V30 5769 C 529.313 -4.8336 4.60347 0
M  V30 5770 H 528.583 -0.723937 0.158104 0
M  V30 5771 H 531.23 -1.5923 1.06387 0
M  V30 5772 H 529.535 -3.91624 -0.117452 0
M  V30 5773 H 531.232 -4.00126 0.26454 0
M  V30 5774 H 527.822 -3.93586 1.69671 0
M  V30 5775 H 532.006 -4.20224 2.64056 0
M  V30 5776 H 527.262 -4.63655 3.9854 0
M  V30 5777 H 531.436 -4.91631 4.93226 0
M  V30 5778 H 529.063 -5.1303 5.60985 0
M  V30 5779 N 530.638 -0.59345 -1.46 0
M  V30 5780 C 531.884 -0.0832754 -2.02629 0
M  V30 5781 C 532.217 1.27749 -1.46266 0
M  V30 5782 O 531.492 1.8395 -0.631866 0
M  V30 5783 C 531.775 -0.0290756 -3.60088 0
M  V30 5784 C 531.628 -1.41951 -4.26814 0
M  V30 5785 C 532.947 0.666055 -4.35031 0
M  V30 5786 H 530.066 -0.031736 -0.736316 0
M  V30 5787 H 532.708 -0.762711 -1.74019 0
M  V30 5788 H 530.858 0.549532 -3.84594 0
M  V30 5789 H 532.53 -2.04411 -4.13538 0
M  V30 5790 H 530.773 -1.98422 -3.8576 0
M  V30 5791 H 531.444 -1.33395 -5.3564 0
M  V30 5792 H 533.92 0.174401 -4.15734 0
M  V30 5793 H 532.796 0.673041 -5.44758 0
M  V30 5794 H 533.057 1.72946 -4.06869 0
M  V30 5795 N 532.116 1.54067 -0.331816 0
M  V30 5796 C 533.364 2.00319 0.267739 0
M  V30 5797 C 533.685 1.22148 1.52003 0
M  V30 5798 O 532.955 0.325494 1.93177 0
M  V30 5799 H 531.535 0.740014 0.101922 0
M  V30 5800 H 534.197 1.89628 -0.450267 0
M  V30 5801 H 533.293 3.07765 0.518385 0
M  V30 5802 N 533.594 0.0601682 1.57485 0
M  V30 5803 C 534.819 -0.624416 1.97777 0
M  V30 5804 C 535.244 -1.63051 0.937867 0
M  V30 5805 O 534.602 -1.81036 -0.0978845 0
M  V30 5806 C 534.65 -1.27979 3.37126 0
M  V30 5807 O 533.754 -2.39556 3.35688 0
M  V30 5808 H 533.095 -0.161581 0.64404 0
M  V30 5809 H 535.625 0.131237 2.04179 0
M  V30 5810 H 535.635 -1.62937 3.74053 0
M  V30 5811 H 534.31 -0.542501 4.12347 0
M  V30 5812 H 532.887 -2.06478 3.10517 0
M  V30 5813 N 535.072 -1.5615 -0.213296 0
M  V30 5814 C 536.318 -1.79812 -0.937849 0
M  V30 5815 C 536.651 -0.631201 -1.83656 0
M  V30 5816 O 535.926 0.369165 -1.90964 0
M  V30 5817 C 536.209 -3.13613 -1.76972 0
M  V30 5818 C 536.062 -4.40766 -0.89695 0
M  V30 5819 C 537.381 -3.43931 -2.7459 0
M  V30 5820 H 534.5 -0.654138 -0.339518 0
M  V30 5821 H 537.142 -1.88877 -0.20623 0
M  V30 5822 H 535.292 -3.06015 -2.39347 0
M  V30 5823 H 536.964 -4.60392 -0.289306 0
M  V30 5824 H 535.207 -4.33326 -0.202756 0
M  V30 5825 H 535.878 -5.30843 -1.51358 0
M  V30 5826 H 538.354 -3.5171 -2.22349 0
M  V30 5827 H 537.23 -4.38706 -3.29891 0
M  V30 5828 H 537.491 -2.6651 -3.52739 0
M  V30 5829 N 536.55 0.480323 -1.50102 0
M  V30 5830 C 537.797 1.23307 -1.60629 0
M  V30 5831 C 538.125 1.92135 -0.302375 0
M  V30 5832 O 537.38 1.82321 0.711154 0
M  V30 5833 C 537.679 2.30708 -2.72963 0
M  V30 5834 C 537.345 1.79195 -4.13763 0
M  V30 5835 C 536.007 1.64867 -4.52076 0
M  V30 5836 C 538.359 1.40878 -5.018 0
M  V30 5837 C 535.687 1.10631 -5.76175 0
M  V30 5838 C 538.039 0.880872 -6.26437 0
M  V30 5839 C 536.703 0.724146 -6.6356 0
M  V30 5840 H 535.973 0.451211 -0.587784 0
M  V30 5841 H 538.62 0.53051 -1.84005 0
M  V30 5842 H 536.925 3.06834 -2.43639 0
M  V30 5843 H 538.622 2.88692 -2.78313 0
M  V30 5844 H 535.212 1.91313 -3.83533 0
M  V30 5845 H 539.396 1.50786 -4.7284 0
M  V30 5846 H 534.652 0.972263 -6.0362 0
M  V30 5847 H 538.826 0.575269 -6.9402 0
M  V30 5848 H 536.453 0.301722 -7.59601 0
M  V30 5849 N 538.028 1.39524 0.732853 0
M  V30 5850 C 538.991 1.38189 1.82857 0
M  V30 5851 C 539.991 0.278624 1.58368 0
M  V30 5852 O 541.181 0.536639 1.65728 0
M  V30 5853 C 538.313 1.15661 3.2068 0
M  V30 5854 H 539.506 2.35692 1.85444 0
M  V30 5855 H 537.059 1.2512 0.936728 0
M  V30 5856 H 537.794 0.188482 3.23752 0
M  V30 5857 H 537.579 1.95559 3.39852 0
M  V30 5858 H 539.069 1.17472 4.00737 0
M  V30 5859 N 539.506 -0.963266 1.24736 0
M  V30 5860 C 540.469 -2.04013 1.04457 0
M  V30 5861 C 541.469 -1.608 0.000335555 0
M  V30 5862 O 542.659 -1.72515 0.241719 0
M  V30 5863 C 539.791 -3.35858 0.584162 0
M  V30 5864 H 540.984 -2.23436 2.00041 0
M  V30 5865 H 538.537 -1.13914 1.07021 0
M  V30 5866 H 539.272 -3.22128 -0.374673 0
M  V30 5867 H 539.057 -3.68568 1.3379 0
M  V30 5868 H 540.547 -4.1502 0.463451 0
M  V30 5869 N 540.985 -1.06182 -1.16461 0
M  V30 5870 C 542.396 -0.802426 -1.68576 0
M  V30 5871 C 542.747 0.67412 -1.84255 0
M  V30 5872 O 541.872 1.52303 -1.5373 0
M  V30 5873 C 542.467 -1.45002 -3.06202 0
M  V30 5874 C 541.026 -1.23843 -3.55443 0
M  V30 5875 C 540.173 -1.52724 -2.31454 0
M  V30 5876 H 543.124 -1.22545 -1.00839 0
M  V30 5877 H 543.145 -0.864731 -3.70544 0
M  V30 5878 H 542.657 -2.52466 -2.94759 0
M  V30 5879 H 540.758 -0.183487 -3.72148 0
M  V30 5880 H 540.871 -1.95036 -4.37604 0
M  V30 5881 H 539.235 -0.947726 -2.36411 0
M  V30 5882 H 540.018 -2.61343 -2.22609 0
M  V30 5883 N 542.463 1.3308 -0.844243 0
M  V30 5884 C 543.411 2.31028 -0.269954 0
M  V30 5885 C 544.405 1.58381 0.600997 0
M  V30 5886 O 545.611 1.73203 0.48996 0
M  V30 5887 H 541.986 0.748866 -0.0685782 0
M  V30 5888 H 543.957 2.76967 -1.11049 0
M  V30 5889 C 542.706 3.43549 0.535676 0
M  V30 5890 H 542.029 3.99604 -0.125202 0
M  V30 5891 H 543.469 4.14267 0.903262 0
M  V30 5892 C 541.928 2.8988 1.71672 0
M  V30 5893 O 542.458 2.86511 2.81557 0
M  V30 5894 N 540.664 2.46416 1.54037 0
M  V30 5895 H 540.211 2.49356 0.64649 0
M  V30 5896 H 540.169 2.1086 2.33207 0
M  V30 5897 N 543.941 0.601185 1.45683 0
M  V30 5898 C 545.357 0.264315 1.57396 0
M  V30 5899 C 545.557 -1.23324 1.59353 0
M  V30 5900 O 544.613 -2.01594 1.52039 0
M  V30 5901 C 545.926 0.929839 2.85962 0
M  V30 5902 C 547.474 0.905156 2.99626 0
M  V30 5903 C 547.949 1.55057 4.30954 0
M  V30 5904 N 549.44 1.51576 4.37697 0
M  V30 5905 C 550.175 1.98436 5.37969 0
M  V30 5906 N 549.671 2.53352 6.44813 0
M  V30 5907 N 551.464 1.89242 5.29286 0
M  V30 5908 H 543.615 1.57363 1.42656 0
M  V30 5909 H 545.878 0.658831 0.681649 0
M  V30 5910 H 545.584 1.98404 2.90394 0
M  V30 5911 H 545.458 0.449224 3.74515 0
M  V30 5912 H 547.845 -0.14048 2.94765 0
M  V30 5913 H 547.926 1.42397 2.12501 0
M  V30 5914 H 547.57 2.5955 4.36573 0
M  V30 5915 H 547.5 1.00682 5.16886 0
M  V30 5916 H 549.991 1.11452 3.61091 0
M  V30 5917 H 550.304 2.86918 7.17564 0
M  V30 5918 H 548.649 2.57388 6.45582 0
M  V30 5919 H 551.84 1.46083 4.44722 0
M  V30 5920 H 552.013 2.26075 6.07284 0
M  V30 5921 N 545.419 -1.53889 0.339982 0
M  V30 5922 C 546.668 -2.00035 -0.258604 0
M  V30 5923 C 546.981 -1.23179 -1.51942 0
M  V30 5924 O 548.187 -1.59784 -2.19503 0
M  V30 5925 C 546.643 -3.56249 -0.511359 0
M  V30 5926 C 546.251 -4.41957 0.733349 0
M  V30 5927 C 547.995 -4.1082 -1.069 0
M  V30 5928 C 545.902 -5.89673 0.451591 0
M  V30 5929 H 544.832 -0.747284 -0.10041 0
M  V30 5930 H 547.483 -1.77776 0.454758 0
M  V30 5931 H 545.865 -3.7456 -1.28533 0
M  V30 5932 H 547.039 -4.35421 1.50815 0
M  V30 5933 H 545.354 -3.9836 1.21237 0
M  V30 5934 H 547.951 -5.18789 -1.2947 0
M  V30 5935 H 548.294 -3.63817 -2.02343 0
M  V30 5936 H 548.827 -3.96205 -0.355817 0
M  V30 5937 H 545.566 -6.40903 1.37565 0
M  V30 5938 H 545.086 -5.99122 -0.285193 0
M  V30 5939 H 546.765 -6.46965 0.0675067 0
M  V30 5940 N 546.897 -0.0685191 -1.57451 0
M  V30 5941 C 548.146 0.600898 -1.92541 0
M  V30 5942 C 548.459 1.70967 -0.950239 0
M  V30 5943 O 549.665 2.43844 -1.19384 0
M  V30 5944 C 548.121 1.12019 -3.42023 0
M  V30 5945 C 547.729 0.0426028 -4.4798 0
M  V30 5946 C 549.473 1.76386 -3.86119 0
M  V30 5947 C 547.38 0.575759 -5.88591 0
M  V30 5948 H 546.31 0.228225 -0.71863 0
M  V30 5949 H 548.961 -0.140223 -1.82963 0
M  V30 5950 H 547.343 1.91418 -3.46663 0
M  V30 5951 H 548.517 -0.73182 -4.54952 0
M  V30 5952 H 546.832 -0.504642 -4.13331 0
M  V30 5953 H 549.429 2.17302 -4.88553 0
M  V30 5954 H 549.772 2.62255 -3.23308 0
M  V30 5955 H 550.305 1.03615 -3.84069 0
M  V30 5956 H 547.044 -0.245691 -6.55039 0
M  V30 5957 H 546.564 1.31778 -5.85145 0
M  V30 5958 H 548.243 1.0532 -6.3837 0
M  V30 5959 N 548.375 1.56261 0.205012 0
M  V30 5960 C 549.652 1.70856 0.952233 0
M  V30 5961 C 550.032 0.620501 2.01775 0
M  V30 5962 O 549.38 -0.370035 2.25484 0
M  V30 5963 C 549.59 3.12807 1.54767 0
M  V30 5964 C 550.938 3.72733 2.0336 0
M  V30 5965 O 551.962 3.15873 1.64629 0
M  V30 5966 O 550.821 4.72501 2.746 0
M  V30 5967 H 547.915 0.696496 0.445895 0
M  V30 5968 H 550.461 1.6857 0.195489 0
M  V30 5969 H 549.233 3.83465 0.779132 0
M  V30 5970 H 548.856 3.1928 2.36951 0
M  V30 5971 N 549.853 -0.472356 1.50355 0
M  V30 5972 C 550.783 -1.57859 1.72055 0
M  V30 5973 C 551.764 -1.60283 0.569505 0
M  V30 5974 O 552.949 -1.7657 0.808503 0
M  V30 5975 C 550.079 -2.96191 1.81351 0
M  V30 5976 C 549.033 -3.08633 2.96529 0
M  V30 5977 C 548.359 -4.486 2.90968 0
M  V30 5978 C 549.659 -2.85969 4.37057 0
M  V30 5979 H 551.353 -1.39953 2.64676 0
M  V30 5980 H 548.899 -0.671846 1.27367 0
M  V30 5981 H 550.852 -3.73507 1.95117 0
M  V30 5982 H 549.576 -3.15251 0.853502 0
M  V30 5983 H 548.235 -2.33749 2.82413 0
M  V30 5984 H 547.883 -4.64577 1.92815 0
M  V30 5985 H 547.583 -4.57861 3.68289 0
M  V30 5986 H 549.107 -5.27938 3.0678 0
M  V30 5987 H 550.521 -3.53036 4.51706 0
M  V30 5988 H 548.918 -3.06677 5.15819 0
M  V30 5989 H 549.988 -1.81838 4.49514 0
M  V30 5990 N 551.331 -1.39911 -0.725443 0
M  V30 5991 C 552.58 -1.36963 -1.48068 0
M  V30 5992 C 552.893 0.0284478 -1.95579 0
M  V30 5993 O 554.099 0.180535 -2.70899 0
M  V30 5994 C 552.555 -2.40664 -2.67598 0
M  V30 5995 C 552.163 -3.86234 -2.26997 0
M  V30 5996 C 553.907 -2.46807 -3.45379 0
M  V30 5997 C 551.814 -4.81554 -3.43307 0
M  V30 5998 H 550.744 -0.509223 -0.556065 0
M  V30 5999 H 553.395 -1.65602 -0.790454 0
M  V30 6000 H 551.777 -2.05109 -3.38742 0
M  V30 6001 H 552.951 -4.3088 -1.63337 0
M  V30 6002 H 551.266 -3.83475 -1.62284 0
M  V30 6003 H 553.863 -3.15213 -4.31909 0
M  V30 6004 H 554.206 -1.49552 -3.8851 0
M  V30 6005 H 554.739 -2.81303 -2.81271 0
M  V30 6006 H 551.478 -5.80106 -3.05217 0
M  V30 6007 H 550.998 -4.4158 -4.05915 0
M  V30 6008 H 552.677 -5.0091 -4.0951 0
M  V30 6009 N 552.809 0.956637 -1.25245 0
M  V30 6010 C 554.037 1.73571 -1.12608 0
M  V30 6011 C 554.452 1.86063 0.320324 0
M  V30 6012 O 553.809 1.35691 1.22042 0
M  V30 6013 C 553.86 3.15053 -1.77268 0
M  V30 6014 O 553.581 3.03174 -3.16255 0
M  V30 6015 C 555.082 4.09248 -1.70386 0
M  V30 6016 H 552.302 0.543955 -0.392879 0
M  V30 6017 H 554.846 1.20031 -1.65568 0
M  V30 6018 H 553.001 3.65543 -1.28284 0
M  V30 6019 H 553.415 3.9241 -3.48015 0
M  V30 6020 H 554.889 5.06138 -2.20291 0
M  V30 6021 H 555.366 4.34102 -0.667239 0
M  V30 6022 H 555.972 3.64672 -2.18849 0
M  V30 6023 N 554.287 1.06798 1.15896 0
M  V30 6024 C 555.512 0.808739 1.90982 0
M  V30 6025 C 555.937 -0.6316 1.77179 0
M  V30 6026 O 555.295 -1.4407 1.10061 0
M  V30 6027 C 555.343 1.21468 3.39526 0
M  V30 6028 O 554.447 0.356562 4.10856 0
M  V30 6029 H 553.788 0.29512 0.594811 0
M  V30 6030 H 556.318 1.42513 1.46804 0
M  V30 6031 H 556.328 1.18844 3.90308 0
M  V30 6032 H 555.003 2.26379 3.48891 0
M  V30 6033 H 553.58 0.444808 3.70238 0
M  V30 6034 N 555.766 -1.3263 0.851289 0
M  V30 6035 C 556.696 -2.31449 0.308771 0
M  V30 6036 C 557.677 -1.59531 -0.590255 0
M  V30 6037 O 558.862 -1.87351 -0.511205 0
M  V30 6038 C 555.992 -3.43586 -0.506548 0
M  V30 6039 C 554.946 -4.26963 0.297753 0
M  V30 6040 C 554.272 -5.30831 -0.642094 0
M  V30 6041 C 555.572 -4.99643 1.52166 0
M  V30 6042 H 557.266 -2.77074 1.13447 0
M  V30 6043 H 554.812 -1.33207 0.546971 0
M  V30 6044 H 556.765 -4.11754 -0.896474 0
M  V30 6045 H 555.489 -2.96681 -1.36558 0
M  V30 6046 H 554.148 -3.60437 0.669391 0
M  V30 6047 H 553.796 -4.8018 -1.49788 0
M  V30 6048 H 553.496 -5.87501 -0.107968 0
M  V30 6049 H 555.02 -6.01862 -1.02927 0
M  V30 6050 H 556.434 -5.6051 1.20421 0
M  V30 6051 H 554.831 -5.66022 1.99347 0
M  V30 6052 H 555.901 -4.27701 2.28474 0
M  V30 6053 N 557.244 -0.608902 -1.45362 0
M  V30 6054 C 558.469 -0.10921 -2.07112 0
M  V30 6055 C 558.894 1.19779 -1.45033 0
M  V30 6056 O 558.252 1.72961 -0.543527 0
M  V30 6057 C 558.3 0.0155745 -3.60597 0
M  V30 6058 O 557.404 1.06546 -3.98399 0
M  V30 6059 H 556.745 -0.0746619 -0.659789 0
M  V30 6060 H 559.275 -0.839283 -1.86594 0
M  V30 6061 H 559.285 0.213364 -4.07442 0
M  V30 6062 H 557.96 -0.938765 -4.05167 0
M  V30 6063 H 556.537 0.844024 -3.63223 0
M  V30 6064 N 558.722 1.53707 -0.348139 0
M  V30 6065 C 559.971 2.0017 0.247992 0
M  V30 6066 C 560.284 1.23983 1.51286 0
M  V30 6067 O 561.49 1.60946 2.18652 0
M  V30 6068 C 559.946 3.56515 0.492459 0
M  V30 6069 C 559.554 4.41562 -0.756777 0
M  V30 6070 C 561.298 4.11381 1.0472 0
M  V30 6071 C 559.205 5.89426 -0.482856 0
M  V30 6072 H 558.135 0.747806 0.0964452 0
M  V30 6073 H 560.786 1.77532 -0.464179 0
M  V30 6074 H 559.168 3.75236 1.26545 0
M  V30 6075 H 560.342 4.34615 -1.53122 0
M  V30 6076 H 558.657 3.97711 -1.23348 0
M  V30 6077 H 561.254 5.19468 1.26717 0
M  V30 6078 H 561.597 3.64885 2.00411 0
M  V30 6079 H 562.13 3.96389 0.334801 0
M  V30 6080 H 558.869 6.40164 -1.40962 0
M  V30 6081 H 558.389 5.99264 0.253416 0
M  V30 6082 H 560.068 6.4692 -0.101816 0
M  V30 6083 N 560.2 0.0768682 1.57412 0
M  V30 6084 C 561.132 -0.918248 2.10002 0
M  V30 6085 C 562.145 -1.25808 1.03325 0
M  V30 6086 O 563.334 -1.21438 1.30824 0
M  V30 6087 C 560.434 -2.23263 2.54964 0
M  V30 6088 C 559.607 -2.07088 3.8527 0
M  V30 6089 C 558.666 -3.21876 4.16272 0
M  V30 6090 O 557.692 -2.96643 4.8579 0
M  V30 6091 N 558.894 -4.4712 3.70221 0
M  V30 6092 H 561.659 -0.469209 2.96004 0
M  V30 6093 H 559.22 -0.108725 1.61535 0
M  V30 6094 H 561.212 -2.9897 2.72762 0
M  V30 6095 H 559.782 -2.59649 1.74072 0
M  V30 6096 H 559.002 -1.15818 3.76802 0
M  V30 6097 H 560.29 -1.93537 4.70554 0
M  V30 6098 H 559.688 -4.70506 3.1407 0
M  V30 6099 H 558.245 -5.19837 3.93209 0
M  V30 6100 N 561.678 -1.56367 -0.196722 0
M  V30 6101 C 562.641 -1.93561 -1.22746 0
M  V30 6102 C 563.641 -0.816566 -1.38524 0
M  V30 6103 O 564.831 -1.084 -1.36363 0
M  V30 6104 C 561.963 -2.20823 -2.59712 0
M  V30 6105 H 563.156 -2.85774 -0.909586 0
M  V30 6106 H 560.709 -1.50032 -0.438174 0
M  V30 6107 H 561.444 -1.31243 -2.96557 0
M  V30 6108 H 561.229 -3.02368 -2.49632 0
M  V30 6109 H 562.719 -2.50608 -3.34044 0
M  V30 6110 N 563.156 0.464375 -1.50603 0
M  V30 6111 C 564.403 1.21596 -1.61928 0
M  V30 6112 C 564.731 1.91804 -0.322737 0
M  V30 6113 O 563.986 1.83065 0.691776 0
M  V30 6114 C 564.285 2.278 -2.75394 0
M  V30 6115 C 563.951 1.74797 -4.1564 0
M  V30 6116 C 562.613 1.60063 -4.53799 0
M  V30 6117 C 564.965 1.35548 -5.03266 0
M  V30 6118 C 562.293 1.04514 -5.77316 0
M  V30 6119 C 564.645 0.814381 -6.27336 0
M  V30 6120 C 563.309 0.653726 -6.64291 0
M  V30 6121 H 562.579 0.444951 -0.592536 0
M  V30 6122 H 565.226 0.510964 -1.84557 0
M  V30 6123 H 563.531 3.04233 -2.46879 0
M  V30 6124 H 565.228 2.85723 -2.81359 0
M  V30 6125 H 561.818 1.87234 -3.8554 0
M  V30 6126 H 566.002 1.45763 -4.74412 0
M  V30 6127 H 561.258 0.908186 -6.04617 0
M  V30 6128 H 565.432 0.501626 -6.94591 0
M  V30 6129 H 563.059 0.22114 -7.59878 0
M  V30 6130 N 564.634 1.40294 0.718013 0
M  V30 6131 C 565.544 1.42678 1.86226 0
M  V30 6132 C 566.56 0.319655 1.71039 0
M  V30 6133 O 567.736 0.563852 1.93346 0
M  V30 6134 C 564.801 1.2852 3.21999 0
M  V30 6135 C 563.862 2.49354 3.49458 0
M  V30 6136 C 563.095 2.35863 4.78753 0
M  V30 6137 O 563.318 1.37114 5.53675 0
M  V30 6138 O 562.252 3.25189 5.06494 0
M  V30 6139 H 566.078 2.39167 1.87171 0
M  V30 6140 H 563.663 1.2159 0.868112 0
M  V30 6141 H 565.545 1.22824 4.03103 0
M  V30 6142 H 564.22 0.351359 3.21787 0
M  V30 6143 H 563.127 2.60628 2.68373 0
M  V30 6144 H 564.46 3.41491 3.54464 0
M  V30 6145 N 566.112 -0.949982 1.2575 0
M  V30 6146 C 567.389 -1.6718 1.01539 0
M  V30 6147 C 567.769 -2.06095 -0.456942 0
M  V30 6148 O 567.117 -1.77792 -1.43534 0
M  V30 6149 C 567.327 -2.8906 1.95564 0
M  V30 6150 C 568.675 -3.60909 2.23673 0
M  V30 6151 O 569.699 -2.9915 1.9336 0
M  V30 6152 O 568.558 -4.72127 2.75243 0
M  V30 6153 H 565.652 -0.731697 0.385419 0
M  V30 6154 H 568.198 -1.00249 1.36924 0
M  V30 6155 H 566.97 -2.57128 2.94959 0
M  V30 6156 H 566.593 -3.63719 1.60605 0
M  V30 6157 N 567.59 -1.07411 -1.15328 0
M  V30 6158 C 568.538 -0.689316 -2.22151 0
M  V30 6159 C 569.532 0.300156 -1.6672 0
M  V30 6160 O 570.738 0.163804 -1.79253 0
M  V30 6161 H 567.113 -0.204834 -0.723566 0
M  V30 6162 H 569.084 -1.59988 -2.51886 0
M  V30 6163 C 567.833 -0.103848 -3.47545 0
M  V30 6164 H 567.156 -0.856367 -3.90521 0
M  V30 6165 H 568.596 0.127725 -4.23808 0
M  V30 6166 C 567.055 1.15563 -3.1646 0
M  V30 6167 O 567.585 2.242 -3.33312 0
M  V30 6168 N 565.791 1.06203 -2.70498 0
M  V30 6169 H 565.338 0.177933 -2.56985 0
M  V30 6170 H 565.296 1.90553 -2.50074 0
M  V30 6171 N 569.068 1.32177 -0.85831 0
M  V30 6172 C 570.479 1.79381 -0.517621 0
M  V30 6173 C 570.83 1.70841 0.964769 0
M  V30 6174 O 569.955 1.26917 1.75274 0
M  V30 6175 C 570.55 3.25706 -0.932801 0
M  V30 6176 C 569.109 3.70851 -0.643953 0
M  V30 6177 C 568.256 2.53208 -1.13054 0
M  V30 6178 H 571.207 1.19424 -1.04516 0
M  V30 6179 H 571.228 3.79673 -0.250674 0
M  V30 6180 H 570.74 3.31889 -2.01174 0
M  V30 6181 H 568.841 3.70178 0.424112 0
M  V30 6182 H 568.954 4.63495 -1.21281 0
M  V30 6183 H 567.318 2.48676 -0.550679 0
M  V30 6184 H 568.101 2.62143 -2.21666 0
M  V30 6185 N 570.547 0.616602 1.45037 0
M  V30 6186 C 571.793 0.115501 2.02471 0
M  V30 6187 C 572.126 -1.25406 1.4828 0
M  V30 6188 O 571.401 -1.82922 0.661051 0
M  V30 6189 C 571.684 0.0863588 3.59996 0
M  V30 6190 C 571.537 1.48723 4.24501 0
M  V30 6191 C 572.856 -0.596762 4.36035 0
M  V30 6192 H 569.975 0.0434461 0.735718 0
M  V30 6193 H 572.617 0.7903 1.72784 0
M  V30 6194 H 570.767 -0.488277 3.85419 0
M  V30 6195 H 572.439 2.10964 4.10234 0
M  V30 6196 H 570.682 2.04534 3.82555 0
M  V30 6197 H 571.353 1.419 5.3345 0
M  V30 6198 H 573.829 -0.10824 4.15959 0
M  V30 6199 H 572.705 -0.586289 5.4576 0
M  V30 6200 H 572.966 -1.66451 4.09569 0
M  V30 6201 N 572.025 -1.5352 0.356285 0
M  V30 6202 C 573.272 -2.01117 -0.236303 0
M  V30 6203 C 573.6 -1.24381 -1.49531 0
M  V30 6204 O 572.855 -0.323057 -1.93015 0
M  V30 6205 C 573.154 -3.52607 -0.583369 0
M  V30 6206 C 572.82 -4.47151 0.58023 0
M  V30 6207 C 571.482 -4.72718 0.899528 0
M  V30 6208 C 573.834 -5.03137 1.36024 0
M  V30 6209 C 571.162 -5.51523 2.00098 0
M  V30 6210 C 573.514 -5.83145 2.45204 0
M  V30 6211 C 572.178 -6.07001 2.77679 0
M  V30 6212 H 571.448 -0.735938 -0.0864695 0
M  V30 6213 H 574.095 -1.85209 0.48683 0
M  V30 6214 H 572.4 -3.66413 -1.38739 0
M  V30 6215 H 574.097 -3.86901 -1.05397 0
M  V30 6216 H 570.687 -4.27394 0.321322 0
M  V30 6217 H 574.871 -4.83339 1.12682 0
M  V30 6218 H 570.127 -5.68229 2.25668 0
M  V30 6219 H 574.301 -6.25537 3.06067 0
M  V30 6220 H 571.928 -6.67851 3.63151 0
M  V30 6221 N 573.503 -0.0852151 -1.57369 0
M  V30 6222 C 574.451 0.894856 -2.14698 0
M  V30 6223 C 575.445 1.29903 -1.08727 0
M  V30 6224 O 576.651 1.27471 -1.27088 0
M  V30 6225 H 573.026 0.306569 -0.686673 0
M  V30 6226 H 574.997 0.386542 -2.95886 0
M  V30 6227 C 573.746 2.14798 -2.73417 0
M  V30 6228 H 573.069 1.84585 -3.54638 0
M  V30 6229 H 574.509 2.81456 -3.1711 0
M  V30 6230 C 572.968 2.91546 -1.68828 0
M  V30 6231 O 573.498 3.85733 -1.12129 0
M  V30 6232 N 571.704 2.54901 -1.39549 0
M  V30 6233 H 571.251 1.7838 -1.85845 0
M  V30 6234 H 571.209 3.06553 -0.698054 0
M  V30 6235 N 574.981 1.5647 0.188427 0
M  V30 6236 C 575.928 1.95073 1.23349 0
M  V30 6237 C 576.898 0.812238 1.44886 0
M  V30 6238 O 578.083 1.07095 1.57909 0
M  V30 6239 C 575.223 2.30124 2.57171 0
M  V30 6240 C 574.336 3.57069 2.43157 0
M  V30 6241 C 573.471 3.81411 3.69729 0
M  V30 6242 C 572.51 5.0176 3.50575 0
M  V30 6243 N 571.647 5.22321 4.69175 0
M  V30 6244 H 576.487 2.84171 0.89728 0
M  V30 6245 H 574.024 1.40623 0.431683 0
M  V30 6246 H 575.982 2.48463 3.35145 0
M  V30 6247 H 574.612 1.44159 2.88822 0
M  V30 6248 H 573.664 3.4674 1.56447 0
M  V30 6249 H 574.976 4.452 2.24942 0
M  V30 6250 H 574.13 4.00026 4.56141 0
M  V30 6251 H 572.869 2.91624 3.90905 0
M  V30 6252 H 571.874 4.83061 2.62549 0
M  V30 6253 H 573.099 5.93063 3.30837 0
M  V30 6254 H 571.045 4.35483 4.90602 0
M  V30 6255 H 570.962 6.04643 4.53809 0
M  V30 6256 H 572.23 5.45401 5.56919 0
M  V30 6257 N 576.459 -0.456382 1.50847 0
M  V30 6258 C 577.389 -1.56025 1.73719 0
M  V30 6259 C 578.37 -1.5967 0.586473 0
M  V30 6260 O 579.555 -1.75702 0.827185 0
M  V30 6261 C 576.685 -2.94251 1.84483 0
M  V30 6262 C 575.639 -3.05471 2.99786 0
M  V30 6263 C 574.965 -4.45489 2.95709 0
M  V30 6264 C 576.265 -2.81318 4.40065 0
M  V30 6265 H 577.959 -1.37138 2.66146 0
M  V30 6266 H 575.505 -0.658299 1.28072 0
M  V30 6267 H 577.458 -3.71417 1.99067 0
M  V30 6268 H 576.182 -3.14328 0.886891 0
M  V30 6269 H 574.841 -2.30741 2.84876 0
M  V30 6270 H 574.489 -4.62505 1.97732 0
M  V30 6271 H 574.189 -4.53929 3.73125 0
M  V30 6272 H 575.713 -5.24655 3.12362 0
M  V30 6273 H 577.127 -3.48226 4.55425 0
M  V30 6274 H 575.524 -3.01188 5.19043 0
M  V30 6275 H 576.594 -1.7706 4.51418 0
M  V30 6276 N 577.937 -1.40673 -0.710563 0
M  V30 6277 C 578.887 -1.37812 -1.81636 0
M  V30 6278 C 579.871 -0.254853 -1.58869 0
M  V30 6279 O 581.063 -0.494356 -1.69956 0
M  V30 6280 C 578.192 -1.24802 -3.19811 0
M  V30 6281 C 577.278 -2.41931 -3.48325 0
M  V30 6282 N 577.669 -3.67411 -3.47625 0
M  V30 6283 C 575.967 -2.35419 -3.78806 0
M  V30 6284 C 576.668 -4.45008 -3.74623 0
M  V30 6285 N 575.644 -3.74916 -3.93623 0
M  V30 6286 H 579.446 -2.32766 -1.79436 0
M  V30 6287 H 576.96 -1.34516 -0.909909 0
M  V30 6288 H 578.957 -1.20835 -3.99004 0
M  V30 6289 H 577.617 -0.308202 -3.23234 0
M  V30 6290 H 578.628 -4.00503 -3.28356 0
M  V30 6291 H 575.305 -1.4983 -3.89689 0
M  V30 6292 H 576.695 -5.53884 -3.80344 0
M  V30 6293 N 579.415 0.9433 -1.26252 0
M  V30 6294 C 580.325 2.07532 -1.09397 0
M  V30 6295 C 581.341 1.73977 -0.0280449 0
M  V30 6296 O 582.517 2.00067 -0.231337 0
M  V30 6297 C 579.582 3.39002 -0.726523 0
M  V30 6298 C 578.643 3.86353 -1.87163 0
M  V30 6299 C 577.876 5.11549 -1.52162 0
M  V30 6300 O 578.099 5.68834 -0.422385 0
M  V30 6301 O 577.033 5.53889 -2.35565 0
M  V30 6302 H 580.859 2.24658 -2.04359 0
M  V30 6303 H 578.444 1.05988 -1.05295 0
M  V30 6304 H 580.326 4.18 -0.534236 0
M  V30 6305 H 579.001 3.2312 0.193721 0
M  V30 6306 H 577.908 3.0831 -2.11886 0
M  V30 6307 H 579.241 4.06752 -2.77152 0
M  V30 6308 N 580.893 1.08022 1.14757 0
M  V30 6309 C 582.118 0.82895 1.90114 0
M  V30 6310 C 582.543 -0.612772 1.77839 0
M  V30 6311 O 581.901 -1.42895 1.11583 0
M  V30 6312 C 581.949 1.25062 3.38219 0
M  V30 6313 O 581.053 0.400119 4.10454 0
M  V30 6314 H 580.394 0.301412 0.591648 0
M  V30 6315 H 582.924 1.44062 1.45284 0
M  V30 6316 H 582.934 1.22977 3.89025 0
M  V30 6317 H 581.609 2.30067 3.46471 0
M  V30 6318 H 580.186 0.484052 3.69745 0
M  V30 6319 N 582.371 -1.3172 0.865308 0
M  V30 6320 C 583.319 -2.30569 0.306674 0
M  V30 6321 C 584.313 -1.59317 -0.575724 0
M  V30 6322 O 585.519 -1.73961 -0.462343 0
M  V30 6323 H 581.894 -0.747681 0.0804834 0
M  V30 6324 H 583.865 -2.75165 1.15441 0
M  V30 6325 C 582.614 -3.44358 -0.480952 0
M  V30 6326 H 581.937 -3.99354 0.18876 0
M  V30 6327 H 583.377 -4.15652 -0.837241 0
M  V30 6328 C 581.836 -2.92574 -1.67039 0
M  V30 6329 O 582.366 -2.90954 -2.76964 0
M  V30 6330 N 580.572 -2.48835 -1.50097 0
M  V30 6331 H 580.119 -2.50353 -0.606738 0
M  V30 6332 H 580.077 -2.14543 -2.29823 0
M  V30 6333 N 583.85 -0.624285 -1.44708 0
M  V30 6334 C 584.76 0.0861083 -2.34442 0
M  V30 6335 C 585.776 0.84291 -1.5222 0
M  V30 6336 O 586.952 0.796723 -1.84971 0
M  V30 6337 C 584.017 1.05999 -3.30099 0
M  V30 6338 C 583.077 0.303316 -4.28227 0
M  V30 6339 C 582.311 1.23081 -5.19314 0
M  V30 6340 O 582.534 2.46929 -5.14181 0
M  V30 6341 O 581.468 0.71883 -5.97592 0
M  V30 6342 H 585.293 -0.651756 -2.96624 0
M  V30 6343 H 582.879 -0.384493 -1.44368 0
M  V30 6344 H 584.76 1.62046 -3.88997 0
M  V30 6345 H 583.436 1.77859 -2.70459 0
M  V30 6346 H 582.343 -0.300033 -3.72895 0
M  V30 6347 H 583.676 -0.375123 -4.90768 0
M  V30 6348 N 585.328 1.53329 -0.364422 0
M  V30 6349 C 586.261 2.22052 0.526145 0
M  V30 6350 C 587.239 1.21203 1.08391 0
M  V30 6351 O 588.423 1.50101 1.14026 0
M  V30 6352 C 585.55 2.91432 1.72583 0
M  V30 6353 C 584.596 4.06345 1.29562 0
M  V30 6354 S 585.429 5.34671 0.297885 0
M  V30 6355 C 586.585 6.07563 1.50392 0
M  V30 6356 H 586.818 2.97244 -0.0575055 0
M  V30 6357 H 584.351 1.53684 -0.148525 0
M  V30 6358 H 586.309 3.3202 2.41398 0
M  V30 6359 H 584.97 2.15966 2.28073 0
M  V30 6360 H 584.163 4.53901 2.19067 0
M  V30 6361 H 583.765 3.67642 0.686696 0
M  V30 6362 H 586.057 6.32224 2.43513 0
M  V30 6363 H 587 6.99973 1.06977 0
M  V30 6364 H 587.408 5.37994 1.70945 0
M  V30 6365 N 586.806 0.0935595 1.57322 0
M  V30 6366 C 588.036 -0.578095 1.98347 0
M  V30 6367 C 588.444 -1.62357 0.971441 0
M  V30 6368 O 587.787 -1.83639 -0.0473959 0
M  V30 6369 C 587.849 -1.28525 3.3574 0
M  V30 6370 C 587.513 -0.390714 4.55327 0
M  V30 6371 C 588.51 0.360522 5.18648 0
M  V30 6372 C 586.195 -0.309221 5.01347 0
M  V30 6373 C 588.189 1.18125 6.26359 0
M  V30 6374 C 585.876 0.515157 6.08925 0
M  V30 6375 C 586.874 1.25904 6.71295 0
M  V30 6376 O 586.562 2.06978 7.76798 0
M  V30 6377 H 586.294 -0.159767 0.656849 0
M  V30 6378 H 588.848 0.169058 2.04703 0
M  V30 6379 H 587.078 -2.07894 3.26063 0
M  V30 6380 H 588.767 -1.85128 3.61223 0
M  V30 6381 H 589.533 0.307285 4.84026 0
M  V30 6382 H 585.412 -0.877881 4.52564 0
M  V30 6383 H 588.956 1.76236 6.74971 0
M  V30 6384 H 584.853 0.56988 6.42979 0
M  V30 6385 H 585.621 1.99644 7.93779 0
M  V30 6386 N 588.284 -1.56567 -0.180126 0
M  V30 6387 C 589.512 -1.85618 -0.913972 0
M  V30 6388 C 589.927 -0.677892 -1.7621 0
M  V30 6389 O 589.284 0.353171 -1.7905 0
M  V30 6390 C 589.335 -3.13619 -1.79793 0
M  V30 6391 O 589.056 -4.26906 -0.98402 0
M  V30 6392 C 590.557 -3.55954 -2.64219 0
M  V30 6393 H 587.777 -0.616043 -0.265954 0
M  V30 6394 H 590.321 -2.03681 -0.182872 0
M  V30 6395 H 588.476 -2.97409 -2.48247 0
M  V30 6396 H 588.89 -4.9989 -1.58776 0
M  V30 6397 H 590.364 -4.48444 -3.21873 0
M  V30 6398 H 590.841 -2.79653 -3.38661 0
M  V30 6399 H 591.447 -3.74746 -2.01111 0
M  V30 6400 N 589.762 0.448376 -1.51087 0
M  V30 6401 C 590.709 1.54341 -1.71603 0
M  V30 6402 C 591.679 1.56463 -0.557536 0
M  V30 6403 O 592.864 1.73644 -0.79072 0
M  V30 6404 C 590.004 2.92148 -1.83695 0
M  V30 6405 C 589.117 2.99639 -3.11192 0
M  V30 6406 C 588.252 4.285 -3.13944 0
M  V30 6407 C 587.291 4.29819 -4.35801 0
M  V30 6408 N 586.428 5.50186 -4.36164 0
M  V30 6409 H 591.268 1.36151 -2.65079 0
M  V30 6410 H 588.805 0.661585 -1.31383 0
M  V30 6411 H 590.763 3.72093 -1.88687 0
M  V30 6412 H 589.393 3.0892 -0.936374 0
M  V30 6413 H 588.445 2.12425 -3.15562 0
M  V30 6414 H 589.757 2.96474 -4.01129 0
M  V30 6415 H 588.911 5.16811 -3.17791 0
M  V30 6416 H 587.65 4.34307 -2.21876 0
M  V30 6417 H 586.655 3.39902 -4.32142 0
M  V30 6418 H 587.88 4.25685 -5.29121 0
M  V30 6419 H 585.826 5.56735 -3.46961 0
M  V30 6420 H 585.743 5.48856 -5.19897 0
M  V30 6421 H 587.011 6.40559 -4.44189 0
M  V30 6422 N 591.24 1.41047 0.703093 0
M  V30 6423 C 592.489 1.39301 1.4587 0
M  V30 6424 C 592.802 0.00267077 1.956 0
M  V30 6425 O 594.008 -0.137414 2.71152 0
M  V30 6426 C 592.464 2.44891 2.63735 0
M  V30 6427 C 592.072 3.89796 2.20824 0
M  V30 6428 C 593.816 2.5227 3.41409 0
M  V30 6429 C 591.723 4.86955 3.35602 0
M  V30 6430 H 590.653 0.518005 0.547893 0
M  V30 6431 H 593.304 1.66839 0.764009 0
M  V30 6432 H 591.686 2.10472 3.35436 0
M  V30 6433 H 592.86 4.33424 1.56461 0
M  V30 6434 H 591.175 3.86008 1.56163 0
M  V30 6435 H 593.772 3.22044 4.26839 0
M  V30 6436 H 594.115 1.55714 3.86081 0
M  V30 6437 H 594.648 2.85742 2.7676 0
M  V30 6438 H 591.387 5.84888 2.9595 0
M  V30 6439 H 590.907 4.47982 3.98839 0
M  V30 6440 H 592.586 5.07361 4.01489 0
M  V30 6441 N 592.718 -0.936591 1.26751 0
M  V30 6442 C 593.665 -2.03597 1.08706 0
M  V30 6443 C 594.635 -1.66097 -0.00926542 0
M  V30 6444 O 595.82 -1.90199 0.151377 0
M  V30 6445 C 592.96 -3.3727 0.73094 0
M  V30 6446 C 592.073 -3.87778 1.90399 0
M  V30 6447 C 591.208 -5.09859 1.49056 0
M  V30 6448 C 590.247 -5.5264 2.63164 0
M  V30 6449 N 589.384 -6.65921 2.22471 0
M  V30 6450 H 594.224 -2.18364 2.02784 0
M  V30 6451 H 591.761 -1.06985 1.00958 0
M  V30 6452 H 593.719 -4.14128 0.505328 0
M  V30 6453 H 592.349 -3.22337 -0.172868 0
M  V30 6454 H 591.401 -3.07279 2.2424 0
M  V30 6455 H 592.713 -4.15464 2.76028 0
M  V30 6456 H 591.867 -5.9419 1.22567 0
M  V30 6457 H 590.606 -4.8393 0.60524 0
M  V30 6458 H 589.611 -4.66863 2.90377 0
M  V30 6459 H 590.836 -5.80568 3.52303 0
M  V30 6460 H 588.782 -6.41667 1.36379 0
M  V30 6461 H 588.699 -6.93216 3.01641 0
M  V30 6462 H 589.967 -7.53616 1.99205 0
M  V30 6463 N 594.196 -1.08629 -1.14182 0
M  V30 6464 C 595.146 -0.687882 -2.17376 0
M  V30 6465 C 596.13 0.293632 -1.58198 0
M  V30 6466 O 597.322 0.105292 -1.76687 0
M  V30 6467 C 594.451 -0.101184 -3.43151 0
M  V30 6468 C 593.537 -1.10862 -4.09354 0
M  V30 6469 N 593.928 -2.29285 -4.50846 0
M  V30 6470 C 592.226 -0.944897 -4.35876 0
M  V30 6471 C 592.927 -2.93305 -5.02342 0
M  V30 6472 N 591.903 -2.20903 -4.96692 0
M  V30 6473 H 595.705 -1.58963 -2.472 0
M  V30 6474 H 593.219 -0.961329 -1.3089 0
M  V30 6475 H 595.216 0.202209 -4.16409 0
M  V30 6476 H 593.876 0.795522 -3.14804 0
M  V30 6477 H 594.887 -2.66927 -4.43813 0
M  V30 6478 H 591.564 -0.102186 -4.17375 0
M  V30 6479 H 592.954 -3.93932 -5.44304 0
M  V30 6480 N 595.674 1.31259 -0.872281 0
M  V30 6481 C 596.923 1.95893 -0.480493 0
M  V30 6482 C 597.236 1.697 0.972688 0
M  V30 6483 O 598.442 2.28214 1.47073 0
M  V30 6484 C 596.898 3.50705 -0.808342 0
M  V30 6485 C 596.506 3.85735 -2.27844 0
M  V30 6486 C 598.25 4.21719 -0.485136 0
M  V30 6487 C 596.157 5.33668 -2.54858 0
M  V30 6488 H 595.087 0.733182 -0.175955 0
M  V30 6489 H 597.738 1.49396 -1.0655 0
M  V30 6490 H 596.12 3.95706 -0.152558 0
M  V30 6491 H 597.294 3.51686 -2.97748 0
M  V30 6492 H 595.609 3.27792 -2.56791 0
M  V30 6493 H 598.206 5.30559 -0.664166 0
M  V30 6494 H 598.549 4.12316 0.574592 0
M  V30 6495 H 599.082 3.82359 -1.09756 0
M  V30 6496 H 595.821 5.48109 -3.59523 0
M  V30 6497 H 595.341 5.69061 -1.8955 0
M  V30 6498 H 597.02 6.00958 -2.39706 0
M  V30 6499 N 597.152 0.631951 1.44375 0
M  V30 6500 C 598.082 -0.0593243 2.33425 0
M  V30 6501 C 599.063 -0.833964 1.48253 0
M  V30 6502 O 600.248 -0.799682 1.76971 0
M  V30 6503 C 597.378 -1.04096 3.31333 0
M  V30 6504 C 596.332 -0.377899 4.26328 0
M  V30 6505 C 595.658 -1.4695 5.14111 0
M  V30 6506 C 596.958 0.716371 5.17364 0
M  V30 6507 H 598.652 0.684287 2.91475 0
M  V30 6508 H 596.198 0.330518 1.40156 0
M  V30 6509 H 598.151 -1.53331 3.92514 0
M  V30 6510 H 596.875 -1.81547 2.71493 0
M  V30 6511 H 595.534 0.0938054 3.6648 0
M  V30 6512 H 595.182 -2.2349 4.50623 0
M  V30 6513 H 594.882 -1.03121 5.78481 0
M  V30 6514 H 596.406 -1.96363 5.78164 0
M  V30 6515 H 597.82 0.307089 5.72477 0
M  V30 6516 H 596.217 1.07784 5.90341 0
M  V30 6517 H 597.287 1.58316 4.58327 0
M  V30 6518 N 598.631 -1.53133 0.372548 0
M  V30 6519 C 599.541 -2.29671 -0.478379 0
M  V30 6520 C 600.557 -1.35913 -1.08644 0
M  V30 6521 O 601.733 -1.68975 -1.09588 0
M  V30 6522 C 598.798 -3.07625 -1.599 0
M  V30 6523 C 597.859 -4.17061 -1.01776 0
M  V30 6524 C 597.092 -4.91289 -2.08497 0
M  V30 6525 O 597.315 -4.65442 -3.29727 0
M  V30 6526 O 596.249 -5.7705 -1.71164 0
M  V30 6527 H 600.075 -3.03355 0.144649 0
M  V30 6528 H 597.66 -1.48773 0.136729 0
M  V30 6529 H 599.542 -3.56281 -2.25038 0
M  V30 6530 H 598.217 -2.3677 -2.2073 0
M  V30 6531 H 597.124 -3.72641 -0.330098 0
M  V30 6532 H 598.457 -4.90102 -0.453915 0
M  V30 6533 N 600.109 -0.101901 -1.5727 0
M  V30 6534 C 601.019 0.868647 -2.17926 0
M  V30 6535 C 602.035 1.30527 -1.1506 0
M  V30 6536 O 603.211 1.37178 -1.47459 0
M  V30 6537 C 600.276 2.10727 -2.75309 0
M  V30 6538 C 599.337 1.7242 -3.93154 0
M  V30 6539 C 598.57 2.90377 -4.47791 0
M  V30 6540 O 598.793 4.05305 -4.01353 0
M  V30 6541 O 597.727 2.6845 -5.38719 0
M  V30 6542 H 601.553 0.382544 -3.01281 0
M  V30 6543 H 599.138 0.122812 -1.48894 0
M  V30 6544 H 601.02 2.83303 -3.11958 0
M  V30 6545 H 599.695 2.58376 -1.94996 0
M  V30 6546 H 598.602 0.970039 -3.61305 0
M  V30 6547 H 599.935 1.29528 -4.74851 0
M  V30 6548 N 601.587 1.56661 0.17182 0
M  V30 6549 C 602.836 1.81158 0.886831 0
M  V30 6550 C 603.149 0.679072 1.83434 0
M  V30 6551 O 604.355 0.808964 2.59168 0
M  V30 6552 C 602.811 3.20999 1.6275 0
M  V30 6553 C 602.419 4.42117 0.723652 0
M  V30 6554 C 604.163 3.5479 2.33076 0
M  V30 6555 C 602.07 5.7298 1.46452 0
M  V30 6556 H 601 0.675543 0.334899 0
M  V30 6557 H 603.651 1.82967 0.139765 0
M  V30 6558 H 602.033 3.13506 2.4193 0
M  V30 6559 H 603.207 4.60789 -0.0311485 0
M  V30 6560 H 601.522 4.16197 0.130063 0
M  V30 6561 H 604.119 4.49806 2.89099 0
M  V30 6562 H 604.462 2.79646 3.08389 0
M  V30 6563 H 604.995 3.63834 1.6084 0
M  V30 6564 H 601.734 6.51152 0.753729 0
M  V30 6565 H 601.254 5.58285 2.19266 0
M  V30 6566 H 602.933 6.14916 2.01214 0
M  V30 6567 N 603.065 -0.440357 1.51323 0
M  V30 6568 C 604.481 -0.7766 1.39431 0
M  V30 6569 C 604.681 -1.95838 0.474296 0
M  V30 6570 O 603.737 -2.52398 -0.0716692 0
M  V30 6571 C 605.05 -1.05981 2.81405 0
M  V30 6572 C 606.598 -1.16442 2.90534 0
M  V30 6573 C 607.073 -1.48058 4.33408 0
M  V30 6574 N 608.564 -1.54988 4.36501 0
M  V30 6575 C 609.299 -1.81017 5.44078 0
M  V30 6576 N 608.795 -2.04858 6.61819 0
M  V30 6577 N 610.588 -1.82774 5.31554 0
M  V30 6578 H 602.739 0.338006 2.09693 0
M  V30 6579 H 605.002 0.0888072 0.943831 0
M  V30 6580 H 604.708 -0.264173 3.50706 0
M  V30 6581 H 604.582 -1.98822 3.20546 0
M  V30 6582 H 606.969 -1.95068 2.21432 0
M  V30 6583 H 607.05 -0.215088 2.54894 0
M  V30 6584 H 606.694 -0.699605 5.03059 0
M  V30 6585 H 606.624 -2.44192 4.66559 0
M  V30 6586 H 609.115 -1.38479 3.51613 0
M  V30 6587 H 609.428 -2.2408 7.396 0
M  V30 6588 H 607.773 -2.02187 6.6494 0
M  V30 6589 H 610.964 -1.63665 4.38556 0
M  V30 6590 H 611.137 -2.02722 6.15474 0
M  V30 6591 N 604.543 -1.41418 -0.695603 0
M  V30 6592 C 605.959 -1.23887 -1.00619 0
M  V30 6593 C 606.159 -0.128206 -2.01092 0
M  V30 6594 O 605.215 0.507408 -2.47349 0
M  V30 6595 C 606.528 -2.58816 -1.53083 0
M  V30 6596 C 608.076 -2.65998 -1.64967 0
M  V30 6597 C 608.551 -4.01244 -2.20833 0
M  V30 6598 N 610.042 -4.0309 -2.28194 0
M  V30 6599 C 610.777 -5.04539 -2.72448 0
M  V30 6600 N 610.273 -6.16378 -3.16306 0
M  V30 6601 N 612.066 -4.91901 -2.72011 0
M  V30 6602 H 604.217 -2.12379 -0.0300061 0
M  V30 6603 H 606.48 -0.944958 -0.0758797 0
M  V30 6604 H 606.186 -3.40842 -0.867147 0
M  V30 6605 H 606.06 -2.81299 -2.51298 0
M  V30 6606 H 608.447 -1.84331 -2.30448 0
M  V30 6607 H 608.528 -2.47325 -0.652982 0
M  V30 6608 H 608.172 -4.83359 -1.55968 0
M  V30 6609 H 608.102 -4.17257 -3.21254 0
M  V30 6610 H 610.593 -3.22341 -1.97242 0
M  V30 6611 H 610.906 -6.89658 -3.487 0
M  V30 6612 H 609.251 -6.19914 -3.14215 0
M  V30 6613 H 612.442 -4.03613 -2.37095 0
M  V30 6614 H 612.615 -5.71102 -3.06181 0
M  V30 6615 N 606.021 0.929856 -1.27246 0
M  V30 6616 C 607.432 1.49223 -1.12203 0
M  V30 6617 C 607.783 1.93989 0.293731 0
M  V30 6618 O 606.908 1.80978 1.18642 0
M  V30 6619 C 607.503 2.71198 -2.0307 0
M  V30 6620 C 606.062 3.23666 -1.92139 0
M  V30 6621 C 605.209 1.96409 -1.95752 0
M  V30 6622 H 608.16 0.744181 -1.4017 0
M  V30 6623 H 608.181 3.45905 -1.58524 0
M  V30 6624 H 607.693 2.38585 -3.06102 0
M  V30 6625 H 605.794 3.61042 -0.920834 0
M  V30 6626 H 605.907 3.90006 -2.78267 0
M  V30 6627 H 604.271 2.12806 -1.39949 0
M  V30 6628 H 605.054 1.66113 -3.00436 0
M  V30 6629 N 607.499 1.09233 1.13605 0
M  V30 6630 C 608.429 0.751738 2.21068 0
M  V30 6631 C 609.41 -0.269688 1.67948 0
M  V30 6632 O 610.595 -0.13819 1.93708 0
M  V30 6633 C 607.725 0.16935 3.46887 0
M  V30 6634 C 606.679 1.12007 4.13084 0
M  V30 6635 C 606.005 0.399483 5.33206 0
M  V30 6636 C 607.305 2.46168 4.6065 0
M  V30 6637 H 608.999 1.65024 2.49815 0
M  V30 6638 H 606.545 0.794905 1.20072 0
M  V30 6639 H 608.498 -0.0809824 4.21322 0
M  V30 6640 H 607.222 -0.764335 3.1753 0
M  V30 6641 H 605.881 1.35564 3.40614 0
M  V30 6642 H 605.529 -0.538277 5.00112 0
M  V30 6643 H 605.229 1.03337 5.78442 0
M  V30 6644 H 606.753 0.157403 6.10397 0
M  V30 6645 H 608.167 2.26829 5.26518 0
M  V30 6646 H 606.564 3.05326 5.1662 0
M  V30 6647 H 607.634 3.07076 3.75276 0
M  V30 6648 N 608.977 -1.30795 0.87923 0
M  V30 6649 C 610.388 -1.78535 0.546093 0
M  V30 6650 C 610.739 -1.72354 -0.937467 0
M  V30 6651 O 609.864 -1.2969 -1.73233 0
M  V30 6652 C 610.459 -3.24181 0.9845 0
M  V30 6653 C 609.018 -3.69779 0.702871 0
M  V30 6654 C 608.165 -2.51377 1.17068 0
M  V30 6655 H 611.116 -1.17746 1.06403 0
M  V30 6656 H 611.137 -3.79227 0.311045 0
M  V30 6657 H 610.649 -3.28647 2.06429 0
M  V30 6658 H 608.75 -3.70806 -0.365166 0
M  V30 6659 H 608.863 -4.61507 1.28639 0
M  V30 6660 H 607.227 -2.47768 0.590172 0
M  V30 6661 H 608.01 -2.58584 2.25808 0
M  V30 6662 N 610.455 -0.639598 -1.44038 0
M  V30 6663 C 611.732 -0.078012 -1.95444 0
M  V30 6664 C 612.112 1.39847 -1.58133 0
M  V30 6665 O 611.46 2.11714 -0.859614 0
M  V30 6666 C 611.67 -0.309832 -3.47622 0
M  V30 6667 C 613.018 -0.207521 -4.24093 0
M  V30 6668 O 614.042 -0.241653 -3.55379 0
M  V30 6669 O 612.901 -0.119641 -5.46369 0
M  V30 6670 H 609.995 0.0174534 -0.826816 0
M  V30 6671 H 612.541 -0.711891 -1.54046 0
M  V30 6672 H 611.313 -1.33401 -3.67858 0
M  V30 6673 H 610.936 0.357777 -3.95987 0
M  V30 6674 N 611.933 1.52934 -0.380664 0
M  V30 6675 C 613.181 2.01069 0.203874 0
M  V30 6676 C 613.502 1.26922 1.4804 0
M  V30 6677 O 612.772 0.386787 1.92044 0
M  V30 6678 H 611.352 0.742882 0.0783279 0
M  V30 6679 H 614.014 1.88099 -0.510368 0
M  V30 6680 H 613.11 3.09258 0.42021 0
M  V30 6681 N 613.412 0.11024 1.57214 0
M  V30 6682 C 614.64 -0.557834 1.99238 0
M  V30 6683 C 615.055 -1.60778 0.989734 0
M  V30 6684 O 614.412 -1.82491 -0.0186092 0
M  V30 6685 C 614.463 -1.19189 3.41286 0
M  V30 6686 O 614.184 -0.183919 4.37714 0
M  V30 6687 C 615.685 -1.94413 3.98395 0
M  V30 6688 H 612.905 -0.148392 0.654386 0
M  V30 6689 H 615.449 0.193996 2.03578 0
M  V30 6690 H 613.604 -1.89456 3.37913 0
M  V30 6691 H 614.018 -0.643475 5.20538 0
M  V30 6692 H 615.492 -2.34116 4.99894 0
M  V30 6693 H 615.969 -2.81592 3.3705 0
M  V30 6694 H 616.575 -1.28928 4.05287 0
M  V30 6695 N 614.89 -1.56749 -0.16351 0
M  V30 6696 C 616.138 -1.82074 -0.87713 0
M  V30 6697 C 616.459 -0.688503 -1.82441 0
M  V30 6698 O 615.729 0.291085 -1.93725 0
M  V30 6699 H 614.309 -0.671677 -0.326893 0
M  V30 6700 H 616.971 -1.9423 -0.161459 0
M  V30 6701 H 616.067 -2.76407 -1.44934 0
M  V30 6702 N 616.368 0.432326 -1.51554 0
M  V30 6703 C 617.616 1.17901 -1.64146 0
M  V30 6704 C 617.937 1.91604 -0.362367 0
M  V30 6705 O 617.207 1.85764 0.621968 0
M  V30 6706 H 615.787 0.438206 -0.604966 0
M  V30 6707 H 618.449 0.495172 -1.88505 0
M  V30 6708 H 617.545 1.90584 -2.47152 0
M  V30 6709 N 617.846 1.41785 0.688094 0
M  V30 6710 C 619.123 1.32031 1.44316 0
M  V30 6711 C 619.503 -0.0486079 2.11044 0
M  V30 6712 O 618.851 -1.06332 2.02252 0
M  V30 6713 C 619.061 2.47906 2.45649 0
M  V30 6714 C 620.409 2.89415 3.10683 0
M  V30 6715 O 621.433 2.477 2.55975 0
M  V30 6716 O 620.292 3.61573 4.09789 0
M  V30 6717 H 617.386 0.519994 0.643067 0
M  V30 6718 H 619.932 1.53765 0.71794 0
M  V30 6719 H 618.704 3.39222 1.95048 0
M  V30 6720 H 618.327 2.28089 3.25671 0
M  V30 6721 N 619.324 -0.923095 1.27737 0
M  V30 6722 C 620.572 -1.66797 1.14119 0
M  V30 6723 C 620.893 -1.92479 -0.312541 0
M  V30 6724 O 620.163 -1.53432 -1.218 0
M  V30 6725 H 618.743 -0.618196 0.419336 0
M  V30 6726 H 621.405 -1.10815 1.60331 0
M  V30 6727 H 620.501 -2.63424 1.67374 0
M  V30 6728 N 620.802 -1.09834 -1.13024 0
M  V30 6729 C 622.213 -0.855651 -1.65938 0
M  V30 6730 C 622.564 0.615159 -1.86307 0
M  V30 6731 O 621.689 1.47335 -1.58497 0
M  V30 6732 C 622.284 -1.5467 -3.01434 0
M  V30 6733 C 620.843 -1.35088 -3.51323 0
M  V30 6734 C 619.99 -1.6001 -2.26478 0
M  V30 6735 H 622.941 -1.25691 -0.968889 0
M  V30 6736 H 622.962 -0.982179 -3.67605 0
M  V30 6737 H 622.474 -2.61715 -2.86578 0
M  V30 6738 H 620.575 -0.30179 -3.71376 0
M  V30 6739 H 620.688 -2.0886 -4.31178 0
M  V30 6740 H 619.052 -1.02246 -2.33276 0
M  V30 6741 H 619.835 -2.68293 -2.14182 0
M  V30 6742 N 622.28 1.30327 -0.886154 0
M  V30 6743 C 623.19 2.31854 -0.357866 0
M  V30 6744 C 624.206 1.65392 0.540502 0
M  V30 6745 O 625.382 1.96683 0.433339 0
M  V30 6746 C 622.447 3.44171 0.417999 0
M  V30 6747 C 621.508 4.26257 -0.510263 0
M  V30 6748 C 620.741 5.3321 0.228669 0
M  V30 6749 O 620.964 5.51542 1.45458 0
M  V30 6750 O 619.898 6.0042 -0.421832 0
M  V30 6751 H 623.724 2.78995 -1.19982 0
M  V30 6752 H 621.309 1.34518 -0.650028 0
M  V30 6753 H 623.191 4.12588 0.857251 0
M  V30 6754 H 621.866 2.99164 1.23623 0
M  V30 6755 H 620.773 3.60533 -0.99835 0
M  V30 6756 H 622.106 4.74871 -1.29454 0
M  V30 6757 N 623.758 0.647228 1.43697 0
M  V30 6758 C 625.006 0.157876 2.01482 0
M  V30 6759 C 625.327 -1.23039 1.51282 0
M  V30 6760 O 624.597 -1.82071 0.722982 0
M  V30 6761 H 623.177 0.0553745 0.744945 0
M  V30 6762 H 625.839 0.83755 1.75986 0
M  V30 6763 H 624.935 0.137895 3.11795 0
M  V30 6764 N 625.236 -1.5273 0.388769 0
M  V30 6765 C 626.146 -2.30165 -0.453993 0
M  V30 6766 C 627.162 -1.37058 -1.07197 0
M  V30 6767 O 628.338 -1.70127 -1.0779 0
M  V30 6768 C 625.403 -3.09303 -1.56628 0
M  V30 6769 C 624.464 -4.18117 -0.973467 0
M  V30 6770 C 623.697 -4.93472 -2.03275 0
M  V30 6771 O 623.92 -4.68913 -3.24772 0
M  V30 6772 O 622.854 -5.78833 -1.65034 0
M  V30 6773 H 626.68 -3.03185 0.176816 0
M  V30 6774 H 624.265 -1.4862 0.152501 0
M  V30 6775 H 626.147 -3.58648 -2.21246 0
M  V30 6776 H 624.822 -2.39098 -2.18206 0
M  V30 6777 H 623.729 -3.7297 -0.290556 0
M  V30 6778 H 625.062 -4.90556 -0.401908 0
M  V30 6779 N 626.714 -0.118576 -1.57153 0
M  V30 6780 C 627.96 0.540326 -1.95469 0
M  V30 6781 C 628.293 1.66356 -1.00196 0
M  V30 6782 O 627.568 1.94461 -0.039104 0
M  V30 6783 C 627.851 1.07342 -3.43729 0
M  V30 6784 C 627.704 -0.0463732 -4.49776 0
M  V30 6785 C 629.023 1.96442 -3.93826 0
M  V30 6786 H 626.142 0.19494 -0.710751 0
M  V30 6787 H 628.784 -0.19405 -1.89006 0
M  V30 6788 H 626.934 1.69925 -3.49368 0
M  V30 6789 H 628.606 -0.681648 -4.56236 0
M  V30 6790 H 626.849 -0.709574 -4.27957 0
M  V30 6791 H 627.52 0.367856 -5.50773 0
M  V30 6792 H 629.996 1.43731 -3.90488 0
M  V30 6793 H 628.872 2.3066 -4.98084 0
M  V30 6794 H 629.133 2.89077 -3.34495 0
M  V30 6795 N 628.193 1.56834 0.155195 0
M  V30 6796 C 629.442 1.82088 0.867567 0
M  V30 6797 C 629.755 0.69849 1.82703 0
M  V30 6798 O 630.961 0.836407 2.58295 0
M  V30 6799 C 629.417 3.22707 1.59336 0
M  V30 6800 C 629.025 4.42859 0.676719 0
M  V30 6801 C 630.769 3.57242 2.293 0
M  V30 6802 C 628.676 5.74501 1.40367 0
M  V30 6803 H 627.606 0.679057 0.327715 0
M  V30 6804 H 630.257 1.83105 0.120351 0
M  V30 6805 H 628.639 3.16054 2.38591 0
M  V30 6806 H 629.813 4.60731 -0.0800196 0
M  V30 6807 H 628.128 4.16311 0.0859129 0
M  V30 6808 H 630.725 4.52847 2.84312 0
M  V30 6809 H 631.068 2.82901 3.05406 0
M  V30 6810 H 631.601 3.6552 1.56972 0
M  V30 6811 H 628.34 6.51915 0.684623 0
M  V30 6812 H 627.86 5.60579 2.13332 0
M  V30 6813 H 629.539 6.17016 1.94681 0
M  V30 6814 N 629.671 -0.424282 1.51781 0
M  V30 6815 C 630.621 -1.51464 1.70419 0
M  V30 6816 C 631.605 -1.50911 0.558094 0
M  V30 6817 O 632.797 -1.57143 0.814552 0
M  V30 6818 C 629.926 -2.89539 1.84451 0
M  V30 6819 C 629.012 -2.94798 3.04886 0
M  V30 6820 N 629.403 -2.69778 4.27848 0
M  V30 6821 C 627.701 -3.25962 3.04408 0
M  V30 6822 C 628.402 -2.81216 5.09208 0
M  V30 6823 N 627.378 -3.13447 4.44131 0
M  V30 6824 H 631.18 -1.30892 2.63144 0
M  V30 6825 H 628.694 -0.631783 1.49607 0
M  V30 6826 H 630.691 -3.67998 1.95917 0
M  V30 6827 H 629.351 -3.11121 0.929168 0
M  V30 6828 H 630.362 -2.44458 4.56575 0
M  V30 6829 H 627.039 -3.53236 2.22555 0
M  V30 6830 H 628.429 -2.65715 6.17127 0
M  V30 6831 N 631.149 -1.42148 -0.680565 0
M  V30 6832 C 632.079 -1.4796 -1.80638 0
M  V30 6833 C 633.06 -0.336728 -1.66734 0
M  V30 6834 O 634.245 -0.550247 -1.86242 0
M  V30 6835 C 631.375 -1.37569 -3.18892 0
M  V30 6836 C 630.329 -2.49823 -3.47524 0
M  V30 6837 C 629.655 -2.24491 -4.85291 0
M  V30 6838 C 630.955 -3.92144 -3.44994 0
M  V30 6839 H 632.649 -2.42184 -1.76032 0
M  V30 6840 H 630.195 -1.16566 -0.845481 0
M  V30 6841 H 632.148 -1.40243 -3.97379 0
M  V30 6842 H 630.872 -0.398357 -3.24162 0
M  V30 6843 H 629.531 -2.46455 -2.71395 0
M  V30 6844 H 629.179 -1.25066 -4.87204 0
M  V30 6845 H 628.879 -2.99722 -5.05411 0
M  V30 6846 H 630.403 -2.28906 -5.66069 0
M  V30 6847 H 631.817 -3.97145 -4.13459 0
M  V30 6848 H 630.214 -4.67179 -3.76648 0
M  V30 6849 H 631.284 -4.19225 -2.43676 0
M  V30 6850 N 632.627 0.916307 -1.28225 0
M  V30 6851 C 634.043 1.19425 -1.05876 0
M  V30 6852 C 634.243 2.005 0.2005 0
M  V30 6853 O 633.299 2.35806 0.902873 0
M  V30 6854 C 634.612 1.93133 -2.30478 0
M  V30 6855 C 636.16 2.06026 -2.35632 0
M  V30 6856 C 636.635 2.83141 -3.59994 0
M  V30 6857 N 638.126 2.90704 -3.60618 0
M  V30 6858 C 638.861 3.50865 -4.53521 0
M  V30 6859 N 638.357 4.12327 -5.56739 0
M  V30 6860 N 640.15 3.48379 -4.41122 0
M  V30 6861 H 632.301 0.37496 -2.09064 0
M  V30 6862 H 634.564 0.228531 -0.920042 0
M  V30 6863 H 634.27 1.40985 -3.22205 0
M  V30 6864 H 634.144 2.93696 -2.36691 0
M  V30 6865 H 636.531 2.57355 -1.44404 0
M  V30 6866 H 636.612 1.04647 -2.33415 0
M  V30 6867 H 636.256 2.32492 -4.51564 0
M  V30 6868 H 636.186 3.84829 -3.59464 0
M  V30 6869 H 638.677 2.47034 -2.85977 0
M  V30 6870 H 638.99 4.56205 -6.23776 0
M  V30 6871 H 637.335 4.10839 -5.60568 0
M  V30 6872 H 640.526 2.99572 -3.59686 0
M  V30 6873 H 640.699 3.94974 -5.13712 0
M  V30 6874 N 634.105 1.10431 1.1244 0
M  V30 6875 C 635.353 0.845045 1.83585 0
M  V30 6876 C 635.674 -0.631168 1.84503 0
M  V30 6877 O 634.944 -1.45825 1.30813 0
M  V30 6878 H 633.524 0.309628 0.679809 0
M  V30 6879 H 636.186 1.39458 1.36153 0
M  V30 6880 H 635.282 1.20786 2.8778 0
M  V30 6881 N 635.583 -1.29855 0.893053 0
M  V30 6882 C 636.999 -1.48366 0.588199 0
M  V30 6883 C 637.199 -1.81654 -0.872018 0
M  V30 6884 O 636.255 -1.909 -1.65268 0
M  V30 6885 C 637.568 -2.60136 1.5083 0
M  V30 6886 C 639.116 -2.74014 1.51279 0
M  V30 6887 C 639.591 -3.88905 2.41902 0
M  V30 6888 N 641.082 -3.96228 2.39911 0
M  V30 6889 C 641.817 -4.84458 3.06738 0
M  V30 6890 N 641.313 -5.77426 3.8282 0
M  V30 6891 N 643.106 -4.77894 2.95929 0
M  V30 6892 H 635.257 -1.06522 1.83757 0
M  V30 6893 H 637.52 -0.528495 0.787018 0
M  V30 6894 H 637.226 -2.42383 2.54839 0
M  V30 6895 H 637.1 -3.56793 1.22388 0
M  V30 6896 H 639.487 -2.91167 0.480179 0
M  V30 6897 H 639.568 -1.77952 1.83757 0
M  V30 6898 H 639.212 -3.72508 3.45253 0
M  V30 6899 H 639.142 -4.84322 2.06737 0
M  V30 6900 H 641.633 -3.29728 1.84629 0
M  V30 6901 H 641.946 -6.41529 4.30883 0
M  V30 6902 H 640.291 -5.77332 3.86927 0
M  V30 6903 H 643.482 -4.04248 2.36012 0
M  V30 6904 H 643.655 -5.46444 3.48286 0
M  V30 6905 N 637.061 -0.65484 -1.43351 0
M  V30 6906 C 637.971 0.0363603 -2.34572 0
M  V30 6907 C 638.987 0.810432 -1.53974 0
M  V30 6908 O 640.163 0.757308 -1.86619 0
M  V30 6909 C 637.228 0.989733 -3.32273 0
M  V30 6910 C 636.289 0.212414 -4.28774 0
M  V30 6911 C 635.522 1.12038 -5.21808 0
M  V30 6912 O 635.745 2.35967 -5.19303 0
M  V30 6913 O 634.679 0.59191 -5.98982 0
M  V30 6914 H 638.505 -0.714527 -2.95175 0
M  V30 6915 H 636.09 -0.415029 -1.4352 0
M  V30 6916 H 637.972 1.53759 -3.92347 0
M  V30 6917 H 636.647 1.72082 -2.74171 0
M  V30 6918 H 635.554 -0.379062 -3.72175 0
M  V30 6919 H 636.887 -0.479138 -4.89862 0
M  V30 6920 N 638.539 1.52521 -0.396863 0
M  V30 6921 C 639.502 2.2527 0.422604 0
M  V30 6922 C 640.502 1.27184 0.983913 0
M  V30 6923 O 641.692 1.51222 0.864723 0
M  V30 6924 C 638.824 3.01356 1.59365 0
M  V30 6925 H 640.017 2.99133 -0.214416 0
M  V30 6926 H 637.57 1.55587 -0.149128 0
M  V30 6927 H 638.305 2.31813 2.26789 0
M  V30 6928 H 638.09 3.73357 1.19779 0
M  V30 6929 H 639.58 3.56571 2.17363 0
M  V30 6930 N 640.017 0.126909 1.57088 0
M  V30 6931 C 640.95 -0.857844 2.11462 0
M  V30 6932 C 641.928 -1.25569 1.03301 0
M  V30 6933 O 643.112 -1.35535 1.31006 0
M  V30 6934 C 640.239 -2.14912 2.61784 0
M  V30 6935 C 639.285 -1.89874 3.81903 0
M  V30 6936 S 640.118 -1.10785 5.23915 0
M  V30 6937 C 641.274 -2.41075 5.7761 0
M  V30 6938 H 641.507 -0.395384 2.94659 0
M  V30 6939 H 639.04 -0.0870151 1.54155 0
M  V30 6940 H 640.998 -2.89101 2.91429 0
M  V30 6941 H 639.659 -2.58275 1.78754 0
M  V30 6942 H 638.852 -2.85572 4.15289 0
M  V30 6943 H 638.454 -1.23802 3.52915 0
M  V30 6944 H 640.746 -3.36864 5.87817 0
M  V30 6945 H 641.689 -2.12223 6.75549 0
M  V30 6946 H 642.097 -2.50804 5.05725 0
M  V30 6947 N 641.495 -1.56914 -0.146875 0
M  V30 6948 C 642.72 -1.87881 -0.878386 0
M  V30 6949 C 643.145 -0.715945 -1.73942 0
M  V30 6950 O 642.503 0.334447 -1.78189 0
M  V30 6951 C 642.551 -3.17431 -1.71084 0
M  V30 6952 O 641.655 -3.01374 -2.81509 0
M  V30 6953 H 640.996 -0.617289 -0.244644 0
M  V30 6954 H 643.526 -2.04136 -0.137654 0
M  V30 6955 H 643.536 -3.49455 -2.10582 0
M  V30 6956 H 642.211 -4.01671 -1.07856 0
M  V30 6957 H 640.788 -2.80758 -2.45416 0
M  V30 6958 N 642.974 0.416227 -1.52004 0
M  V30 6959 C 644.222 1.16153 -1.65387 0
M  V30 6960 C 644.543 1.91208 -0.382669 0
M  V30 6961 O 643.813 1.86413 0.602231 0
M  V30 6962 H 642.393 0.431765 -0.60958 0
M  V30 6963 H 645.055 0.475151 -1.89019 0
M  V30 6964 H 644.151 1.87952 -2.4916 0
M  V30 6965 N 644.452 1.42507 0.673017 0
M  V30 6966 C 645.68 1.46473 1.46128 0
M  V30 6967 C 646.095 0.0765912 1.88645 0
M  V30 6968 O 645.452 -0.909057 1.58248 0
M  V30 6969 C 645.503 2.39339 2.70923 0
M  V30 6970 O 645.224 3.72752 2.3019 0
M  V30 6971 C 646.725 2.52343 3.64469 0
M  V30 6972 H 643.945 0.49812 0.449575 0
M  V30 6973 H 646.489 1.87041 0.826802 0
M  V30 6974 H 644.644 2.02019 3.30556 0
M  V30 6975 H 645.058 4.22503 3.10791 0
M  V30 6976 H 646.532 3.2144 4.48754 0
M  V30 6977 H 647.009 1.56189 4.1049 0
M  V30 6978 H 647.615 2.90392 3.10729 0
M  V30 6979 N 645.93 -0.909495 1.28709 0
M  V30 6980 C 647.178 -1.65577 1.15882 0
M  V30 6981 C 647.499 -1.928 -0.292108 0
M  V30 6982 O 646.769 -1.54716 -1.20166 0
M  V30 6983 H 645.349 -0.613714 0.425869 0
M  V30 6984 H 648.011 -1.09108 1.61498 0
M  V30 6985 H 647.107 -2.61634 1.70159 0
M  V30 6986 N 647.408 -1.11026 -1.11852 0
M  V30 6987 C 648.636 -0.878818 -1.87308 0
M  V30 6988 C 649.051 0.57111 -1.79955 0
M  V30 6989 O 648.408 1.39409 -1.17777 0
M  V30 6990 C 648.459 -1.3264 -3.36287 0
M  V30 6991 O 648.18 -2.71948 -3.43476 0
M  V30 6992 C 649.681 -1.12974 -4.28663 0
M  V30 6993 H 646.901 -0.315015 -0.592458 0
M  V30 6994 H 649.445 -1.47649 -1.41492 0
M  V30 6995 H 647.6 -0.772269 -3.79625 0
M  V30 6996 H 648.014 -2.91241 -4.3621 0
M  V30 6997 H 649.488 -1.49198 -5.31454 0
M  V30 6998 H 649.965 -0.0689127 -4.39146 0
M  V30 6999 H 650.571 -1.67064 -3.91113 0
M  V30 7000 N 648.886 1.2938 -0.899927 0
M  V30 7001 C 650.114 1.99691 -0.541386 0
M  V30 7002 C 650.529 1.67355 0.873936 0
M  V30 7003 O 649.886 0.918728 1.57688 0
M  V30 7004 C 649.937 3.54168 -0.72438 0
M  V30 7005 O 649.658 3.85359 -2.08399 0
M  V30 7006 C 651.159 4.41746 -0.370819 0
M  V30 7007 H 648.379 0.638037 -0.207726 0
M  V30 7008 H 650.923 1.6491 -1.20934 0
M  V30 7009 H 649.078 3.87261 -0.103607 0
M  V30 7010 H 649.492 4.80032 -2.11352 0
M  V30 7011 H 650.966 5.49256 -0.549693 0
M  V30 7012 H 651.443 4.33712 0.692148 0
M  V30 7013 H 652.049 4.14125 -0.968543 0
M  V30 7014 N 650.364 0.662433 1.43002 0
M  V30 7015 C 651.294 -0.00979809 2.33498 0
M  V30 7016 C 652.275 -0.802329 1.49989 0
M  V30 7017 O 653.46 -0.761964 1.78627 0
M  V30 7018 C 650.59 -0.970446 3.33466 0
M  V30 7019 C 649.544 -0.287383 4.27034 0
M  V30 7020 C 648.87 -1.36012 5.17112 0
M  V30 7021 C 650.17 0.82595 5.15728 0
M  V30 7022 H 651.864 0.745959 2.89958 0
M  V30 7023 H 649.41 0.360172 1.39423 0
M  V30 7024 H 651.363 -1.44971 3.95679 0
M  V30 7025 H 650.087 -1.75748 2.75282 0
M  V30 7026 H 648.746 0.17152 3.66199 0
M  V30 7027 H 648.394 -2.13882 4.55262 0
M  V30 7028 H 648.094 -0.908276 5.80538 0
M  V30 7029 H 649.618 -1.84056 5.82199 0
M  V30 7030 H 651.032 0.42845 5.71697 0
M  V30 7031 H 649.429 1.20282 5.87922 0
M  V30 7032 H 650.499 1.68003 4.54866 0
M  V30 7033 N 651.842 -1.52309 0.404946 0
M  V30 7034 C 652.775 -2.23369 -0.467087 0
M  V30 7035 C 653.753 -1.24034 -1.0514 0
M  V30 7036 O 654.937 -1.53071 -1.10006 0
M  V30 7037 C 652.064 -2.95906 -1.64795 0
M  V30 7038 C 651.11 -4.09637 -1.18743 0
M  V30 7039 S 651.943 -5.35273 -0.156022 0
M  V30 7040 C 653.099 -6.11337 -1.34231 0
M  V30 7041 H 653.332 -2.96987 0.136294 0
M  V30 7042 H 650.865 -1.53236 0.189219 0
M  V30 7043 H 652.823 -3.38304 -2.3251 0
M  V30 7044 H 651.484 -2.21937 -2.22267 0
M  V30 7045 H 650.677 -4.59549 -2.06955 0
M  V30 7046 H 650.279 -3.69333 -0.588981 0
M  V30 7047 H 652.571 -6.38458 -2.26665 0
M  V30 7048 H 653.514 -7.02563 -0.883804 0
M  V30 7049 H 653.922 -5.42338 -1.56621 0
M  V30 7050 N 653.32 -0.135238 -1.57019 0
M  V30 7051 C 654.548 0.526066 -2.001 0
M  V30 7052 C 654.963 1.59184 -1.01519 0
M  V30 7053 O 654.32 1.82497 -0.0104258 0
M  V30 7054 C 654.371 1.13744 -3.43139 0
M  V30 7055 O 654.092 0.114259 -4.37951 0
M  V30 7056 C 655.593 1.8805 -4.01438 0
M  V30 7057 H 652.813 0.137962 -0.656664 0
M  V30 7058 H 655.357 -0.226359 -2.03243 0
M  V30 7059 H 653.512 1.84056 -3.40885 0
M  V30 7060 H 653.926 0.56058 -5.21496 0
M  V30 7061 H 655.4 2.26133 -5.03555 0
M  V30 7062 H 655.877 2.76194 -3.41487 0
M  V30 7063 H 656.483 1.22464 -4.07287 0
M  V30 7064 N 654.798 1.5699 0.138552 0
M  V30 7065 C 655.761 1.97984 1.15478 0
M  V30 7066 C 656.761 0.867416 1.35398 0
M  V30 7067 O 657.951 1.13387 1.32246 0
M  V30 7068 C 655.083 2.3031 2.51337 0
M  V30 7069 H 656.276 2.88953 0.802896 0
M  V30 7070 H 653.829 1.51555 0.382189 0
M  V30 7071 H 654.564 1.42159 2.91481 0
M  V30 7072 H 654.349 3.11425 2.38237 0
M  V30 7073 H 655.839 2.62834 3.24512 0
M  V30 7074 N 656.276 -0.40816 1.52223 0
M  V30 7075 C 657.501 -1.18127 1.70472 0
M  V30 7076 C 657.926 -1.83491 0.41384 0
M  V30 7077 O 657.284 -1.70047 -0.628778 0
M  V30 7078 C 657.332 -2.21935 2.84213 0
M  V30 7079 O 656.436 -3.28099 2.4985 0
M  V30 7080 H 655.777 -0.344781 0.56747 0
M  V30 7081 H 658.307 -0.478328 1.9893 0
M  V30 7082 H 658.317 -2.66248 3.09153 0
M  V30 7083 H 656.992 -1.73744 3.7787 0
M  V30 7084 H 655.569 -2.89058 2.35584 0
M  V30 7085 N 657.755 -1.42862 -0.66545 0
M  V30 7086 C 658.703 -1.47319 -1.8 0
M  V30 7087 C 659.697 -0.347963 -1.65788 0
M  V30 7088 O 660.903 -0.521406 -1.72283 0
M  V30 7089 H 657.278 -0.461588 -0.593667 0
M  V30 7090 H 659.249 -2.42876 -1.7336 0
M  V30 7091 C 657.998 -1.40152 -3.18203 0
M  V30 7092 H 657.321 -2.26035 -3.2977 0
M  V30 7093 H 658.761 -1.47331 -3.9758 0
M  V30 7094 C 657.22 -0.117493 -3.36695 0
M  V30 7095 O 657.75 0.826058 -3.93115 0
M  V30 7096 N 655.956 -0.0316218 -2.90583 0
M  V30 7097 H 655.503 -0.800247 -2.44855 0
M  V30 7098 H 655.461 0.826835 -3.03333 0
M  V30 7099 N 659.233 0.902656 -1.29189 0
M  V30 7100 C 660.458 1.69167 -1.19989 0
M  V30 7101 C 660.883 1.86607 0.236495 0
M  V30 7102 O 660.241 1.38425 1.17082 0
M  V30 7103 C 660.289 3.05532 -1.91527 0
M  V30 7104 O 659.393 3.93621 -1.2303 0
M  V30 7105 H 658.734 0.517584 -0.415936 0
M  V30 7106 H 661.264 1.12785 -1.70706 0
M  V30 7107 H 661.274 3.55693 -1.99866 0
M  V30 7108 H 659.949 2.92156 -2.96003 0
M  V30 7109 H 658.526 3.52055 -1.22928 0
M  V30 7110 N 660.711 1.11618 1.11262 0
M  V30 7111 C 661.936 0.889013 1.8738 0
M  V30 7112 C 662.361 -0.555884 1.79698 0
M  V30 7113 O 661.719 -1.39272 1.16073 0
M  V30 7114 C 661.767 1.35759 3.34069 0
M  V30 7115 O 660.871 0.530499 4.08974 0
M  V30 7116 H 660.212 0.320082 0.581759 0
M  V30 7117 H 662.742 1.48611 1.40627 0
M  V30 7118 H 662.752 1.35291 3.84916 0
M  V30 7119 H 661.427 2.40973 3.38976 0
M  V30 7120 H 660.004 0.601439 3.68018 0
M  V30 7121 N 662.189 -1.289 0.906776 0
M  V30 7122 C 663.137 -2.29477 0.379873 0
M  V30 7123 C 664.131 -1.61068 -0.524747 0
M  V30 7124 O 665.337 -1.75344 -0.406765 0
M  V30 7125 H 661.712 -0.744742 0.10423 0
M  V30 7126 H 663.683 -2.71353 1.24137 0
M  V30 7127 C 662.432 -3.45713 -0.371154 0
M  V30 7128 H 661.755 -3.98551 0.315716 0
M  V30 7129 H 663.195 -4.18105 -0.704581 0
M  V30 7130 C 661.654 -2.9774 -1.57646 0
M  V30 7131 O 662.184 -2.99618 -2.67567 0
M  V30 7132 N 660.39 -2.53485 -1.42105 0
M  V30 7133 H 659.937 -2.52156 -0.526783 0
M  V30 7134 H 659.895 -2.21747 -2.22881 0
M  V30 7135 N 663.667 -0.670007 -1.42649 0
M  V30 7136 C 664.892 -0.196955 -2.06463 0
M  V30 7137 C 665.317 1.1352 -1.49983 0
M  V30 7138 O 664.675 1.705 -0.616397 0
M  V30 7139 C 664.723 -0.137381 -3.60338 0
M  V30 7140 O 663.827 0.895523 -4.02559 0
M  V30 7141 H 663.168 -0.102579 -0.656029 0
M  V30 7142 H 665.698 -0.917669 -1.82866 0
M  V30 7143 H 665.708 0.0403625 -4.0798 0
M  V30 7144 H 664.383 -1.10977 -4.0082 0
M  V30 7145 H 662.96 0.689209 -3.66476 0
M  V30 7146 N 665.145 1.52092 -0.413018 0
M  V30 7147 C 666.37 2.06756 0.163338 0
M  V30 7148 C 666.795 1.28073 1.37764 0
M  V30 7149 O 666.153 0.312015 1.78595 0
M  V30 7150 C 666.201 3.57278 0.488322 0
M  V30 7151 O 665.305 3.80986 1.57871 0
M  V30 7152 H 664.646 0.663882 0.0125068 0
M  V30 7153 H 667.176 1.95988 -0.587339 0
M  V30 7154 H 667.186 4.01125 0.745836 0
M  V30 7155 H 665.861 4.13978 -0.399327 0
M  V30 7156 H 664.438 3.49017 1.31306 0
M  V30 7157 N 666.623 0.143563 1.56945 0
M  V30 7158 C 667.851 -0.515447 2.00377 0
M  V30 7159 C 668.266 -1.58643 1.02361 0
M  V30 7160 O 667.623 -1.82489 0.0201039 0
M  V30 7161 C 667.674 -1.11923 3.43737 0
M  V30 7162 O 667.395 -0.0910318 4.38005 0
M  V30 7163 C 668.896 -1.85918 4.02429 0
M  V30 7164 H 666.116 -0.134478 0.657386 0
M  V30 7165 H 668.66 0.237135 2.0312 0
M  V30 7166 H 666.815 -1.82245 3.41856 0
M  V30 7167 H 667.229 -0.532916 5.21786 0
M  V30 7168 H 668.703 -2.2346 5.04747 0
M  V30 7169 H 669.18 -2.7438 3.42947 0
M  V30 7170 H 669.786 -1.20303 4.07931 0
M  V30 7171 N 668.101 -1.57061 -0.130224 0
M  V30 7172 C 669.051 -1.95941 -1.16582 0
M  V30 7173 C 670.035 -0.832858 -1.37667 0
M  V30 7174 O 671.227 -1.09647 -1.38948 0
M  V30 7175 C 668.356 -2.35777 -2.49528 0
M  V30 7176 C 667.442 -3.5504 -2.31964 0
M  V30 7177 N 667.833 -4.71071 -1.84189 0
M  V30 7178 C 666.131 -3.60453 -2.62659 0
M  V30 7179 C 666.832 -5.53128 -1.80068 0
M  V30 7180 N 665.808 -4.95303 -2.24001 0
M  V30 7181 H 669.61 -2.83117 -0.788806 0
M  V30 7182 H 667.124 -1.58842 -0.3381 0
M  V30 7183 H 669.121 -2.61843 -3.24413 0
M  V30 7184 H 667.781 -1.49961 -2.87996 0
M  V30 7185 H 668.792 -4.94504 -1.53903 0
M  V30 7186 H 665.469 -2.85217 -3.0489 0
M  V30 7187 H 666.859 -6.56182 -1.4448 0
M  V30 7188 N 669.579 0.400081 -1.52437 0
M  V30 7189 C 670.804 1.17221 -1.71096 0
M  V30 7190 C 671.229 1.83269 -0.423565 0
M  V30 7191 O 670.587 1.70378 0.619751 0
M  V30 7192 C 670.635 2.20425 -2.85386 0
M  V30 7193 O 669.739 3.26769 -2.51586 0
M  V30 7194 H 669.08 0.341766 -0.569291 0
M  V30 7195 H 671.61 0.467772 -1.99181 0
M  V30 7196 H 671.62 2.64605 -3.10561 0
M  V30 7197 H 670.295 1.71737 -3.78786 0
M  V30 7198 H 668.872 2.87804 -2.37114 0
M  V30 7199 N 671.057 1.43213 0.657864 0
M  V30 7200 C 671.989 1.43974 1.78337 0
M  V30 7201 C 673.002 0.336482 1.59285 0
M  V30 7202 O 674.191 0.600631 1.68091 0
M  V30 7203 C 671.291 1.23242 3.15697 0
M  V30 7204 C 670.464 2.46319 3.61449 0
M  V30 7205 C 669.523 2.2088 4.77597 0
M  V30 7206 O 668.549 2.942 4.87273 0
M  V30 7207 N 669.751 1.22251 5.67481 0
M  V30 7208 H 672.516 2.40993 1.78164 0
M  V30 7209 H 670.077 1.3831 0.841549 0
M  V30 7210 H 672.069 1.04113 3.91079 0
M  V30 7211 H 670.639 0.346849 3.1067 0
M  V30 7212 H 669.859 2.80904 2.76563 0
M  V30 7213 H 671.147 3.28239 3.88763 0
M  V30 7214 H 670.545 0.616433 5.62331 0
M  V30 7215 H 669.102 1.09107 6.42603 0
M  V30 7216 N 672.536 -0.895792 1.29666 0
M  V30 7217 C 673.952 -1.17726 1.07763 0
M  V30 7218 C 674.152 -2.00794 -0.168576 0
M  V30 7219 O 673.208 -2.37213 -0.865244 0
M  V30 7220 C 674.521 -1.89441 2.33522 0
M  V30 7221 C 676.069 -2.02251 2.3888 0
M  V30 7222 C 676.544 -2.77378 3.64452 0
M  V30 7223 N 678.035 -2.8493 3.65198 0
M  V30 7224 C 678.77 -3.43606 4.59045 0
M  V30 7225 N 678.266 -4.03417 5.63228 0
M  V30 7226 N 680.059 -3.41317 4.46608 0
M  V30 7227 H 672.21 -0.341652 2.09634 0
M  V30 7228 H 674.473 -0.213865 0.923561 0
M  V30 7229 H 674.179 -1.35842 3.24407 0
M  V30 7230 H 674.053 -2.89893 2.41334 0
M  V30 7231 H 676.44 -2.55025 1.4848 0
M  V30 7232 H 676.521 -1.0092 2.3505 0
M  V30 7233 H 676.165 -2.25279 4.55205 0
M  V30 7234 H 676.095 -3.79062 3.65541 0
M  V30 7235 H 678.586 -2.42453 2.89871 0
M  V30 7236 H 678.899 -4.46224 6.30955 0
M  V30 7237 H 677.244 -4.01868 5.67033 0
M  V30 7238 H 680.435 -2.93812 3.64407 0
M  V30 7239 H 680.608 -3.86751 5.1993 0
M  V30 7240 N 674.014 -1.12206 -1.10668 0
M  V30 7241 C 674.962 -0.782918 -2.19028 0
M  V30 7242 C 675.956 0.229175 -1.67843 0
M  V30 7243 O 677.162 0.0876295 -1.79787 0
M  V30 7244 H 673.537 -0.235339 -0.714227 0
M  V30 7245 H 675.508 -1.70527 -2.44874 0
M  V30 7246 C 674.257 -0.25116 -3.46792 0
M  V30 7247 H 673.58 -1.02123 -3.86537 0
M  V30 7248 H 675.02 -0.0521409 -4.23968 0
M  V30 7249 C 673.479 1.02037 -3.21076 0
M  V30 7250 O 674.009 2.09862 -3.42522 0
M  V30 7251 N 672.215 0.946348 -2.74759 0
M  V30 7252 H 671.762 0.068777 -2.57508 0
M  V30 7253 H 671.72 1.79775 -2.57931 0
M  V30 7254 N 675.492 1.28418 -0.913599 0
M  V30 7255 C 676.44 2.29272 -0.392037 0
M  V30 7256 C 677.434 1.61344 0.516198 0
M  V30 7257 O 678.64 1.75557 0.39746 0
M  V30 7258 H 675.015 0.744178 -0.108178 0
M  V30 7259 H 676.986 2.70691 -1.25574 0
M  V30 7260 C 675.735 3.45905 0.352815 0
M  V30 7261 H 675.058 3.98378 -0.336848 0
M  V30 7262 H 676.498 4.18473 0.682398 0
M  V30 7263 C 674.957 2.98572 1.56065 0
M  V30 7264 O 675.487 3.01033 2.65974 0
M  V30 7265 N 673.693 2.54235 1.40759 0
M  V30 7266 H 673.24 2.52432 0.513403 0
M  V30 7267 H 673.198 2.22925 2.21702 0
M  V30 7268 N 676.97 0.677563 1.42291 0
M  V30 7269 C 678.218 0.200578 2.01102 0
M  V30 7270 C 678.539 -1.19803 1.53858 0
M  V30 7271 O 677.809 -1.80496 0.761439 0
M  V30 7272 H 676.389 0.0711634 0.743603 0
M  V30 7273 H 679.051 0.874691 1.7417 0
M  V30 7274 H 678.147 0.204 3.11433 0
M  V30 7275 N 678.448 -1.51871 0.421078 0
M  V30 7276 C 679.696 -2.01539 -0.150492 0
M  V30 7277 C 680.017 -1.30803 -1.44623 0
M  V30 7278 O 679.287 -0.437568 -1.90951 0
M  V30 7279 H 677.867 -0.744698 -0.0586041 0
M  V30 7280 H 680.529 -1.8668 0.560059 0
M  V30 7281 H 679.625 -3.10264 -0.338068 0
M  V30 7282 N 679.926 -0.151884 -1.56866 0
M  V30 7283 C 681.174 0.497021 -1.95893 0
M  V30 7284 C 681.495 1.65078 -1.03799 0
M  V30 7285 O 680.765 1.95642 -0.10049 0
M  V30 7286 H 679.345 0.186603 -0.723318 0
M  V30 7287 H 682.007 -0.228525 -1.93556 0
M  V30 7288 H 681.103 0.869933 -2.99731 0
M  V30 7289 N 681.404 1.57128 0.121893 0
M  V30 7290 C 682.652 1.84335 0.828548 0
M  V30 7291 C 682.973 0.736632 1.80551 0
M  V30 7292 O 682.243 -0.23962 1.94429 0
M  V30 7293 H 680.823 0.680108 0.30897 0
M  V30 7294 H 683.485 1.9459 0.109906 0
M  V30 7295 H 682.581 2.80152 1.37554 0
M  V30 7296 N 682.882 -0.391992 1.52647 0
M  V30 7297 C 684.298 -0.731848 1.41831 0
M  V30 7298 C 684.498 -1.9423 0.536361 0
M  V30 7299 O 683.554 -2.52499 0.00866571 0
M  V30 7300 C 684.867 -0.969743 2.84634 0
M  V30 7301 C 686.415 -1.0714 2.94092 0
M  V30 7302 C 686.89 -1.34195 4.37899 0
M  V30 7303 N 688.381 -1.41023 4.41211 0
M  V30 7304 C 689.116 -1.63616 5.49561 0
M  V30 7305 N 688.612 -1.83699 6.68002 0
M  V30 7306 N 690.405 -1.65771 5.371 0
M  V30 7307 H 682.556 0.404547 2.08512 0
M  V30 7308 H 684.819 0.11879 0.940528 0
M  V30 7309 H 684.525 -0.152465 3.51369 0
M  V30 7310 H 684.399 -1.88523 3.26709 0
M  V30 7311 H 686.786 -1.87925 2.27526 0
M  V30 7312 H 686.867 -0.133887 2.55449 0
M  V30 7313 H 686.511 -0.539207 5.0503 0
M  V30 7314 H 686.441 -2.29226 4.74092 0
M  V30 7315 H 688.932 -1.27223 3.55841 0
M  V30 7316 H 689.245 -2.00437 7.46354 0
M  V30 7317 H 687.59 -1.8093 6.71036 0
M  V30 7318 H 690.781 -1.4963 4.43541 0
M  V30 7319 H 690.954 -1.83038 6.21612 0
M  V30 7320 N 684.36 -1.4356 -0.65026 0
M  V30 7321 C 685.323 -1.48615 -1.74489 0
M  V30 7322 C 686.323 -0.370483 -1.56474 0
M  V30 7323 O 687.513 -0.632351 -1.62317 0
M  V30 7324 C 684.645 -1.34161 -3.13391 0
M  V30 7325 H 685.838 -2.46103 -1.71387 0
M  V30 7326 H 683.391 -1.30369 -0.862186 0
M  V30 7327 H 684.126 -0.376918 -3.22102 0
M  V30 7328 H 683.911 -2.1504 -3.27872 0
M  V30 7329 H 685.401 -1.40637 -3.93206 0
M  V30 7330 N 685.838 0.888903 -1.30139 0
M  V30 7331 C 687.254 1.17153 -1.08385 0
M  V30 7332 C 687.454 2.0088 0.157925 0
M  V30 7333 O 686.51 2.37668 0.852652 0
M  V30 7334 C 687.823 1.882 -2.34523 0
M  V30 7335 C 689.371 2.00981 -2.39949 0
M  V30 7336 C 689.846 2.75441 -3.65918 0
M  V30 7337 N 691.337 2.82989 -3.66704 0
M  V30 7338 C 692.072 3.41167 -4.60861 0
M  V30 7339 N 691.568 4.00425 -5.6536 0
M  V30 7340 N 693.361 3.38944 -4.48412 0
M  V30 7341 H 685.512 0.33053 -2.09812 0
M  V30 7342 H 687.775 0.208964 -0.924683 0
M  V30 7343 H 687.481 1.34119 -3.25123 0
M  V30 7344 H 687.355 2.88609 -2.42868 0
M  V30 7345 H 689.742 2.54234 -1.4983 0
M  V30 7346 H 689.823 0.996725 -2.35582 0
M  V30 7347 H 689.467 2.22861 -4.56394 0
M  V30 7348 H 689.397 3.77118 -3.67546 0
M  V30 7349 H 691.888 2.40912 -2.91153 0
M  V30 7350 H 692.201 4.42871 -6.33313 0
M  V30 7351 H 690.546 3.98856 -5.69157 0
M  V30 7352 H 693.737 2.91875 -3.6596 0
M  V30 7353 H 693.91 3.83989 -5.21974 0
M  V30 7354 N 687.317 1.12792 1.10072 0
M  V30 7355 C 688.565 0.883796 1.81751 0
M  V30 7356 C 688.886 -0.591891 1.858 0
M  V30 7357 O 688.156 -1.43017 1.33876 0
M  V30 7358 H 686.736 0.323978 0.673088 0
M  V30 7359 H 689.398 1.42314 1.33164 0
M  V30 7360 H 688.494 1.26863 2.85153 0
M  V30 7361 N 688.795 -1.27931 0.920396 0
M  V30 7362 C 690.043 -1.94304 0.555906 0
M  V30 7363 C 690.364 -1.72753 -0.904519 0
M  V30 7364 O 689.634 -1.07104 -1.64029 0
M  V30 7365 H 688.214 -0.719001 0.202599 0
M  V30 7366 H 690.876 -1.55785 1.1712 0
M  V30 7367 H 689.972 -3.02806 0.755981 0
M  V30 7368 N 690.273 -0.685099 -1.4193 0
M  V30 7369 C 691.521 -0.21124 -2.00993 0
M  V30 7370 C 691.842 1.18985 -1.54491 0
M  V30 7371 O 691.112 1.8009 -0.771 0
M  V30 7372 H 689.692 -0.0751059 -0.743215 0
M  V30 7373 H 692.354 -0.883915 -1.73704 0
M  V30 7374 H 691.45 -0.220513 -3.1132 0
M  V30 7375 N 691.751 1.51645 -0.429126 0
M  V30 7376 C 692.698 2.27542 0.386446 0
M  V30 7377 C 693.668 1.30786 1.02393 0
M  V30 7378 O 694.853 1.59678 1.0444 0
M  V30 7379 C 691.993 3.11457 1.48623 0
M  V30 7380 C 691.106 4.23196 0.867691 0
M  V30 7381 C 690.241 4.94435 1.94183 0
M  V30 7382 C 689.28 5.98108 1.30129 0
M  V30 7383 N 688.417 6.62786 2.31644 0
M  V30 7384 H 693.257 2.968 -0.267155 0
M  V30 7385 H 690.794 1.46397 -0.143591 0
M  V30 7386 H 692.752 3.58429 2.13506 0
M  V30 7387 H 691.382 2.44329 2.10957 0
M  V30 7388 H 690.434 3.80248 0.107373 0
M  V30 7389 H 691.746 4.97499 0.35997 0
M  V30 7390 H 690.9 5.44914 2.66747 0
M  V30 7391 H 689.639 4.19744 2.48326 0
M  V30 7392 H 688.644 5.4693 0.561082 0
M  V30 7393 H 689.869 6.74751 0.767303 0
M  V30 7394 H 687.815 5.90913 2.84883 0
M  V30 7395 H 687.732 7.32828 1.85741 0
M  V30 7396 H 689 7.17897 3.03717 0
M  V30 7397 N 693.229 0.160201 1.56784 0
M  V30 7398 C 694.176 -0.774416 2.1742 0
M  V30 7399 C 695.146 -1.23483 1.11091 0
M  V30 7400 O 696.331 -1.30499 1.39193 0
M  V30 7401 C 693.471 -2.00283 2.81035 0
M  V30 7402 C 692.584 -1.58701 4.01793 0
M  V30 7403 C 691.719 -2.76824 4.53367 0
M  V30 7404 C 690.758 -2.31679 5.66561 0
M  V30 7405 N 689.895 -3.42856 6.12694 0
M  V30 7406 H 694.735 -0.250542 2.96945 0
M  V30 7407 H 692.272 -0.111943 1.46673 0
M  V30 7408 H 694.23 -2.72316 3.16069 0
M  V30 7409 H 692.86 -2.5006 2.04132 0
M  V30 7410 H 691.912 -0.76384 3.72652 0
M  V30 7411 H 693.224 -1.21555 4.83762 0
M  V30 7412 H 692.378 -3.57029 4.90525 0
M  V30 7413 H 691.117 -3.17223 3.70433 0
M  V30 7414 H 690.122 -1.49917 5.28966 0
M  V30 7415 H 691.347 -1.9235 6.5129 0
M  V30 7416 H 689.293 -3.82852 5.32692 0
M  V30 7417 H 689.21 -3.09767 6.89624 0
M  V30 7418 H 690.478 -4.23379 6.545 0
M  V30 7419 N 694.707 -1.5719 -0.113559 0
M  V30 7420 C 695.67 -1.99796 -1.12314 0
M  V30 7421 C 696.67 -0.888847 -1.34001 0
M  V30 7422 O 697.86 -1.15476 -1.30426 0
M  V30 7423 C 694.992 -2.34279 -2.47641 0
M  V30 7424 H 696.185 -2.90193 -0.756825 0
M  V30 7425 H 693.738 -1.52144 -0.358029 0
M  V30 7426 H 694.473 -1.46778 -2.89183 0
M  V30 7427 H 694.258 -3.15175 -2.33253 0
M  V30 7428 H 695.748 -2.67963 -3.2029 0
M  V30 7429 N 696.185 0.383891 -1.52853 0
M  V30 7430 C 697.431 1.13009 -1.68395 0
M  V30 7431 C 697.764 1.89488 -0.425195 0
M  V30 7432 O 697.039 1.8574 0.577136 0
M  V30 7433 C 697.322 2.10419 -2.92226 0
M  V30 7434 C 697.175 1.3767 -4.28214 0
M  V30 7435 C 698.494 3.10781 -3.11614 0
M  V30 7436 H 695.613 0.409463 -0.612788 0
M  V30 7437 H 698.255 0.412895 -1.85459 0
M  V30 7438 H 696.405 2.71579 -2.77808 0
M  V30 7439 H 698.077 0.794352 -4.54409 0
M  V30 7440 H 696.32 0.678533 -4.2846 0
M  V30 7441 H 696.991 2.08874 -5.10956 0
M  V30 7442 H 699.467 2.59715 -3.25096 0
M  V30 7443 H 698.343 3.76179 -3.99725 0
M  V30 7444 H 698.604 3.79933 -2.2606 0
M  V30 7445 N 697.663 1.43903 0.642637 0
M  V30 7446 C 698.911 1.45791 1.39962 0
M  V30 7447 C 699.232 0.0873144 1.94804 0
M  V30 7448 O 698.502 -0.878825 1.75081 0
M  V30 7449 H 697.082 0.536797 0.519479 0
M  V30 7450 H 699.744 1.7959 0.757189 0
M  V30 7451 H 698.84 2.17665 2.2367 0
M  V30 7452 N 699.141 -0.881989 1.30609 0
M  V30 7453 C 700.389 -1.63082 1.19368 0
M  V30 7454 C 700.71 -1.93376 -0.251147 0
M  V30 7455 O 699.98 -1.5723 -1.16857 0
M  V30 7456 H 698.56 -0.604542 0.438791 0
M  V30 7457 H 701.222 -1.05658 1.63776 0
M  V30 7458 H 700.318 -2.57966 1.7567 0
M  V30 7459 N 700.619 -1.13374 -1.09472 0
M  V30 7460 C 701.867 -0.893422 -1.8128 0
M  V30 7461 C 702.188 0.582029 -1.86111 0
M  V30 7462 O 701.458 1.42305 -1.34633 0
M  V30 7463 H 700.038 -0.327543 -0.67136 0
M  V30 7464 H 702.7 -1.43018 -1.32408 0
M  V30 7465 H 701.796 -1.28374 -2.84476 0
M  V30 7466 N 702.098 1.27442 -0.927168 0
M  V30 7467 C 703.061 2.2512 -0.430525 0
M  V30 7468 C 704.061 1.54357 0.450619 0
M  V30 7469 O 705.251 1.72371 0.251774 0
M  V30 7470 C 702.383 3.38763 0.381144 0
M  V30 7471 H 703.576 2.70569 -1.29354 0
M  V30 7472 H 701.129 1.39355 -0.707806 0
M  V30 7473 H 701.864 2.98695 1.263 0
M  V30 7474 H 701.649 3.91298 -0.250618 0
M  V30 7475 H 703.139 4.11364 0.719012 0
M  V30 7476 N 703.576 0.692616 1.41565 0
M  V30 7477 C 704.524 0.0139952 2.32596 0
M  V30 7478 C 705.518 -0.771691 1.50802 0
M  V30 7479 O 706.724 -0.677646 1.66757 0
M  V30 7480 H 703.099 -0.0142745 0.751865 0
M  V30 7481 H 705.07 0.798851 2.87508 0
M  V30 7482 C 703.819 -0.910602 3.35564 0
M  V30 7483 H 703.142 -0.315446 3.98554 0
M  V30 7484 H 704.582 -1.3538 4.01806 0
M  V30 7485 C 703.041 -2.02539 2.6922 0
M  V30 7486 O 703.571 -3.11386 2.53775 0
M  V30 7487 N 701.777 -1.80227 2.27962 0
M  V30 7488 H 701.324 -0.917054 2.40724 0
M  V30 7489 H 701.282 -2.55001 1.83907 0
M  V30 7490 N 705.054 -1.51416 0.437162 0
M  V30 7491 C 706.302 -2.01687 -0.129108 0
M  V30 7492 C 706.623 -1.32329 -1.43227 0
M  V30 7493 O 705.893 -0.457796 -1.90476 0
M  V30 7494 H 704.473 -0.745277 -0.0507023 0
M  V30 7495 H 707.135 -1.86075 0.579828 0
M  V30 7496 H 706.231 -3.10605 -0.305141 0
M  V30 7497 N 706.532 -0.168513 -1.56696 0
M  V30 7498 C 707.464 0.794249 -2.14998 0
M  V30 7499 C 708.477 1.1957 -1.10485 0
M  V30 7500 O 709.666 1.13604 -1.37682 0
M  V30 7501 C 706.766 2.08018 -2.67547 0
M  V30 7502 C 705.939 1.84274 -3.96689 0
M  V30 7503 C 704.998 2.97059 -4.3433 0
M  V30 7504 O 704.024 2.67815 -5.02259 0
M  V30 7505 N 705.226 4.24775 -3.9566 0
M  V30 7506 H 707.991 0.295832 -2.98236 0
M  V30 7507 H 705.552 0.0143611 -1.61894 0
M  V30 7508 H 707.544 2.82559 -2.89729 0
M  V30 7509 H 706.114 2.49059 -1.88914 0
M  V30 7510 H 705.334 0.936528 -3.82914 0
M  V30 7511 H 706.622 1.65773 -4.81037 0
M  V30 7512 H 706.02 4.51395 -3.40968 0
M  V30 7513 H 704.577 4.96027 -4.22848 0
M  V30 7514 N 708.01 1.57248 0.105221 0
M  V30 7515 C 709.287 1.76566 0.841647 0
M  V30 7516 C 709.667 0.747566 1.9742 0
M  V30 7517 O 709.015 -0.225886 2.27381 0
M  V30 7518 C 709.225 3.22016 1.3456 0
M  V30 7519 C 710.573 3.84911 1.79244 0
M  V30 7520 O 711.597 3.25703 1.44207 0
M  V30 7521 O 710.456 4.89008 2.43995 0
M  V30 7522 H 707.55 0.723443 0.400698 0
M  V30 7523 H 710.096 1.69472 0.0878893 0
M  V30 7524 H 708.868 3.87644 0.533685 0
M  V30 7525 H 708.491 3.33703 2.16167 0
M  V30 7526 N 709.488 -0.375779 1.53054 0
M  V30 7527 C 710.736 -1.11727 1.68409 0
M  V30 7528 C 711.057 -1.90127 0.43323 0
M  V30 7529 O 710.327 -1.87945 -0.552595 0
M  V30 7530 H 708.907 -0.415451 0.620813 0
M  V30 7531 H 711.569 -0.424869 1.90213 0
M  V30 7532 H 710.665 -1.8128 2.54055 0
M  V30 7533 N 710.966 -1.44241 -0.634997 0
M  V30 7534 C 712.243 -1.37296 -1.39317 0
M  V30 7535 C 712.623 -0.0297532 -2.11079 0
M  V30 7536 O 711.971 0.987524 -2.06059 0
M  V30 7537 C 712.181 -2.56853 -2.36279 0
M  V30 7538 C 713.529 -3.00747 -2.99728 0
M  V30 7539 O 714.553 -2.5703 -2.46605 0
M  V30 7540 O 713.412 -3.76533 -3.96087 0
M  V30 7541 H 710.506 -0.543503 -0.623325 0
M  V30 7542 H 713.052 -1.56324 -0.660376 0
M  V30 7543 H 711.824 -3.46228 -1.82324 0
M  V30 7544 H 711.447 -2.40019 -3.16981 0
M  V30 7545 N 712.444 0.87505 -1.31075 0
M  V30 7546 C 713.692 1.62447 -1.20231 0
M  V30 7547 C 714.013 1.93506 0.240888 0
M  V30 7548 O 713.283 1.57847 1.16022 0
M  V30 7549 H 711.863 0.602207 -0.441991 0
M  V30 7550 H 714.525 1.04788 -1.64334 0
M  V30 7551 H 713.621 2.57031 -1.77036 0
M  V30 7552 N 713.922 1.13953 1.08869 0
M  V30 7553 C 715.147 0.928559 1.85452 0
M  V30 7554 C 715.572 -0.517642 1.80837 0
M  V30 7555 O 714.93 -1.36779 1.19001 0
M  V30 7556 C 714.978 1.42814 3.31114 0
M  V30 7557 O 714.082 0.617129 4.07756 0
M  V30 7558 H 713.423 0.33235 0.574839 0
M  V30 7559 H 715.953 1.5156 1.37443 0
M  V30 7560 H 715.963 1.43425 3.8196 0
M  V30 7561 H 714.638 2.48109 3.33788 0
M  V30 7562 H 713.215 0.679365 3.66659 0
M  V30 7563 N 715.4 -1.26948 0.933913 0
M  V30 7564 C 716.31 -2.30366 0.443671 0
M  V30 7565 C 717.326 -1.67284 -0.478745 0
M  V30 7566 O 718.502 -1.98156 -0.360043 0
M  V30 7567 C 715.567 -3.45485 -0.289974 0
M  V30 7568 C 714.628 -4.24069 0.668114 0
M  V30 7569 C 713.861 -5.33691 -0.0306138 0
M  V30 7570 O 714.084 -5.5656 -1.24888 0
M  V30 7571 O 713.018 -5.98441 0.644384 0
M  V30 7572 H 716.844 -2.74349 1.30254 0
M  V30 7573 H 714.429 -1.32012 0.699506 0
M  V30 7574 H 716.311 -4.15486 -0.70353 0
M  V30 7575 H 714.986 -3.03546 -1.12435 0
M  V30 7576 H 713.893 -3.56579 1.13147 0
M  V30 7577 H 715.226 -4.69739 1.46989 0
M  V30 7578 N 716.879 -0.700114 -1.41195 0
M  V30 7579 C 717.827 -0.0263301 -2.32585 0
M  V30 7580 C 718.821 0.763683 -1.51209 0
M  V30 7581 O 720.027 0.668793 -1.67114 0
M  V30 7582 H 716.402 0.0102869 -0.75193 0
M  V30 7583 H 718.373 -0.814087 -2.8708 0
M  V30 7584 C 717.122 0.892793 -3.36042 0
M  V30 7585 H 716.445 0.294306 -3.98715 0
M  V30 7586 H 717.885 1.33247 -4.02518 0
M  V30 7587 C 716.344 2.01109 -2.7029 0
M  V30 7588 O 716.874 3.10035 -2.55423 0
M  V30 7589 N 715.08 1.79015 -2.28915 0
M  V30 7590 H 714.627 0.904275 -2.41207 0
M  V30 7591 H 714.585 2.54022 -1.85257 0
M  V30 7592 N 718.357 1.51182 -0.445186 0
M  V30 7593 C 719.605 2.01753 0.11841 0
M  V30 7594 C 719.926 1.33087 1.42523 0
M  V30 7595 O 719.196 0.467891 1.9023 0
M  V30 7596 H 717.776 0.745536 0.0467492 0
M  V30 7597 H 720.438 1.85765 -0.589688 0
M  V30 7598 H 719.534 3.10762 0.288665 0
M  V30 7599 N 719.835 0.176821 1.56605 0
M  V30 7600 C 720.765 -0.746841 2.21234 0
M  V30 7601 C 721.746 -1.23502 1.16967 0
M  V30 7602 O 722.931 -1.28718 1.45414 0
M  V30 7603 C 720.061 -1.97407 2.8574 0
M  V30 7604 C 719.015 -1.62153 3.96094 0
M  V30 7605 C 718.341 -2.92387 4.47676 0
M  V30 7606 C 719.641 -0.845353 5.15413 0
M  V30 7607 H 721.335 -0.208116 2.98676 0
M  V30 7608 H 718.881 -0.0986594 1.43662 0
M  V30 7609 H 720.834 -2.62531 3.2963 0
M  V30 7610 H 719.558 -2.53703 2.05676 0
M  V30 7611 H 718.217 -0.993964 3.52868 0
M  V30 7612 H 717.865 -3.46734 3.64396 0
M  V30 7613 H 717.565 -2.69551 5.22127 0
M  V30 7614 H 719.089 -3.5853 4.94255 0
M  V30 7615 H 720.503 -1.39929 5.55961 0
M  V30 7616 H 718.9 -0.715814 5.95815 0
M  V30 7617 H 719.97 0.157239 4.84645 0
M  V30 7618 N 721.313 -1.57302 -0.09688 0
M  V30 7619 C 722.729 -1.53094 -0.451041 0
M  V30 7620 C 722.929 -0.893265 -1.80618 0
M  V30 7621 O 721.985 -0.485013 -2.47798 0
M  V30 7622 C 723.298 -2.9782 -0.415172 0
M  V30 7623 C 724.846 -3.09026 -0.497155 0
M  V30 7624 C 725.321 -4.55356 -0.491452 0
M  V30 7625 N 726.812 -4.59896 -0.552258 0
M  V30 7626 C 727.547 -5.70563 -0.569654 0
M  V30 7627 N 727.043 -6.90666 -0.543365 0
M  V30 7628 N 728.836 -5.58733 -0.614331 0
M  V30 7629 H 720.987 -1.97131 0.790771 0
M  V30 7630 H 723.25 -0.901211 0.294147 0
M  V30 7631 H 722.956 -3.47933 0.513362 0
M  V30 7632 H 722.83 -3.56416 -1.23481 0
M  V30 7633 H 725.217 -2.58902 -1.41611 0
M  V30 7634 H 725.298 -2.53386 0.35059 0
M  V30 7635 H 724.942 -5.06131 0.423549 0
M  V30 7636 H 724.872 -5.08832 -1.35639 0
M  V30 7637 H 727.363 -3.73456 -0.577842 0
M  V30 7638 H 727.676 -7.70769 -0.559873 0
M  V30 7639 H 726.021 -6.93123 -0.510441 0
M  V30 7640 H 729.212 -4.63809 -0.632387 0
M  V30 7641 H 729.385 -6.44984 -0.62442 0
M  V30 7642 N 722.791 0.367657 -1.53252 0
M  V30 7643 C 724.037 1.11216 -1.69584 0
M  V30 7644 C 724.37 1.89026 -0.445269 0
M  V30 7645 O 723.645 1.86342 0.557404 0
M  V30 7646 C 723.928 2.07308 -2.94441 0
M  V30 7647 C 723.781 1.3312 -4.2965 0
M  V30 7648 C 725.1 3.07459 -3.14892 0
M  V30 7649 H 722.219 0.40294 -0.617096 0
M  V30 7650 H 724.861 0.393201 -1.85887 0
M  V30 7651 H 723.011 2.68617 -2.80673 0
M  V30 7652 H 724.683 0.746111 -4.55226 0
M  V30 7653 H 722.926 0.633051 -4.29156 0
M  V30 7654 H 723.597 2.03443 -5.13142 0
M  V30 7655 H 726.073 2.56252 -3.27832 0
M  V30 7656 H 724.949 3.71919 -4.03693 0
M  V30 7657 H 725.21 3.77514 -2.30077 0
M  V30 7658 N 724.269 1.44576 0.627338 0
M  V30 7659 C 725.685 1.28546 0.945938 0
M  V30 7660 C 725.885 0.224003 2.00251 0
M  V30 7661 O 724.941 -0.388817 2.49488 0
M  V30 7662 C 726.254 2.65825 1.40561 0
M  V30 7663 C 727.802 2.73566 1.52088 0
M  V30 7664 C 728.277 4.11323 2.01438 0
M  V30 7665 N 729.768 4.13519 2.08702 0
M  V30 7666 C 730.503 5.16964 2.48065 0
M  V30 7667 N 729.999 6.30768 2.86538 0
M  V30 7668 N 731.792 5.04319 2.48232 0
M  V30 7669 H 723.943 2.1228 -0.0713567 0
M  V30 7670 H 726.206 0.947503 0.0307081 0
M  V30 7671 H 725.912 3.44591 0.703539 0
M  V30 7672 H 725.786 2.92969 2.37591 0
M  V30 7673 H 728.173 1.95116 2.21391 0
M  V30 7674 H 728.254 2.50159 0.534237 0
M  V30 7675 H 727.898 4.9025 1.32729 0
M  V30 7676 H 727.828 4.32109 3.0098 0
M  V30 7677 H 730.319 3.31385 1.81638 0
M  V30 7678 H 730.632 7.0551 3.15398 0
M  V30 7679 H 728.977 6.342 2.84281 0
M  V30 7680 H 732.168 4.14465 2.17569 0
M  V30 7681 H 732.341 5.85059 2.78585 0
M  V30 7682 N 725.747 -0.868086 1.31537 0
M  V30 7683 C 726.695 -1.99688 1.1928 0
M  V30 7684 C 727.689 -1.69101 0.100656 0
M  V30 7685 O 728.895 -1.78073 0.262677 0
M  V30 7686 H 725.27 -0.655032 0.369374 0
M  V30 7687 H 727.241 -2.07157 2.14776 0
M  V30 7688 C 725.99 -3.35338 0.918892 0
M  V30 7689 H 725.313 -3.59396 1.75142 0
M  V30 7690 H 726.753 -4.14909 0.873311 0
M  V30 7691 C 725.212 -3.34769 -0.378366 0
M  V30 7692 O 725.742 -3.76716 -1.39456 0
M  V30 7693 N 723.948 -2.87895 -0.39557 0
M  V30 7694 H 723.495 -2.53954 0.431889 0
M  V30 7695 H 723.453 -2.87897 -1.26344 0
M  V30 7696 N 727.225 -1.14528 -1.08264 0
M  V30 7697 C 728.465 -0.924808 -1.82282 0
M  V30 7698 C 728.829 0.538881 -1.84283 0
M  V30 7699 O 730.03 0.877355 -2.54079 0
M  V30 7700 C 728.301 -1.51102 -3.23887 0
M  V30 7701 S 729.86 -1.43232 -4.14765 0
M  V30 7702 H 726.678 -0.333052 -0.62817 0
M  V30 7703 H 729.28 -1.45905 -1.30123 0
M  V30 7704 H 727.984 -2.56942 -3.20014 0
M  V30 7705 H 727.515 -0.975234 -3.8112 0
M  V30 7706 H 729.53 -0.418843 -4.94429 0
M  V30 7707 N 728.703 1.26451 -0.940633 0
M  V30 7708 C 729.98 1.88947 -0.505811 0
M  V30 7709 C 730.36 1.85011 1.01657 0
M  V30 7710 O 729.708 1.30406 1.87634 0
M  V30 7711 C 729.918 3.32304 -1.06654 0
M  V30 7712 C 731.266 4.09153 -1.13486 0
M  V30 7713 O 732.29 3.41371 -1.01708 0
M  V30 7714 O 731.149 5.30369 -1.31797 0
M  V30 7715 H 728.243 0.810422 -0.164759 0
M  V30 7716 H 730.789 1.34625 -1.03316 0
M  V30 7717 H 729.561 3.29527 -2.11015 0
M  V30 7718 H 729.184 3.94164 -0.521603 0
M  V30 7719 N 730.181 0.707592 1.40822 0
M  V30 7720 C 731.091 0.0507246 2.34545 0
M  V30 7721 C 732.107 -0.752727 1.56876 0
M  V30 7722 O 733.283 -0.687524 1.89302 0
M  V30 7723 C 730.348 -0.865731 3.35717 0
M  V30 7724 C 729.409 -0.0531313 4.29267 0
M  V30 7725 C 728.642 -0.925939 5.25606 0
M  V30 7726 O 728.865 -2.16531 5.27703 0
M  V30 7727 O 727.799 -0.369194 6.00767 0
M  V30 7728 H 731.625 0.823587 2.9232 0
M  V30 7729 H 729.21 0.46801 1.4188 0
M  V30 7730 H 731.092 -1.39091 3.97783 0
M  V30 7731 H 729.767 -1.61788 2.80368 0
M  V30 7732 H 728.674 0.516931 3.70511 0
M  V30 7733 H 730.007 0.660617 4.87747 0
M  V30 7734 N 731.66 -1.50943 0.453197 0
M  V30 7735 C 732.61 -2.25003 -0.368467 0
M  V30 7736 C 733.594 -1.27864 -0.976714 0
M  V30 7737 O 734.786 -1.52867 -0.892228 0
M  V30 7738 C 731.915 -3.10701 -1.46014 0
M  V30 7739 C 731.001 -4.15278 -0.860506 0
M  V30 7740 N 731.392 -5.05799 0.00849611 0
M  V30 7741 C 729.69 -4.31542 -1.1264 0
M  V30 7742 C 730.391 -5.80664 0.346951 0
M  V30 7743 N 729.367 -5.42912 -0.273426 0
M  V30 7744 H 733.169 -2.92352 0.301246 0
M  V30 7745 H 730.683 -1.60203 0.266233 0
M  V30 7746 H 732.68 -3.62348 -2.06179 0
M  V30 7747 H 731.34 -2.44898 -2.13202 0
M  V30 7748 H 732.351 -5.16533 0.376077 0
M  V30 7749 H 729.028 -3.76962 -1.7946 0
M  V30 7750 H 730.418 -6.63565 1.05507 0
M  V30 7751 N 733.138 -0.185124 -1.56509 0
M  V30 7752 C 734.048 0.751908 -2.22224 0
M  V30 7753 C 735.064 1.24244 -1.21817 0
M  V30 7754 O 736.24 1.29169 -1.54523 0
M  V30 7755 C 733.305 1.95837 -2.86092 0
M  V30 7756 C 732.366 1.51337 -4.01741 0
M  V30 7757 C 731.599 2.66233 -4.62554 0
M  V30 7758 O 731.822 3.8346 -4.22273 0
M  V30 7759 O 730.756 2.39517 -5.52191 0
M  V30 7760 H 734.582 0.222304 -3.02885 0
M  V30 7761 H 732.167 0.0437141 -1.49336 0
M  V30 7762 H 734.049 2.66368 -3.26536 0
M  V30 7763 H 732.724 2.47677 -2.08417 0
M  V30 7764 H 731.631 0.777155 -3.65939 0
M  V30 7765 H 732.964 1.04175 -4.81049 0
M  V30 7766 N 734.616 1.57351 0.0885366 0
M  V30 7767 C 735.579 2.01557 1.09121 0
M  V30 7768 C 736.579 0.910052 1.3257 0
M  V30 7769 O 737.769 1.17537 1.28572 0
M  V30 7770 C 734.901 2.38189 2.43883 0
M  V30 7771 H 736.094 2.91361 0.710562 0
M  V30 7772 H 733.647 1.52694 0.333779 0
M  V30 7773 H 734.382 1.5136 2.86811 0
M  V30 7774 H 734.167 3.18846 2.28209 0
M  V30 7775 H 735.657 2.73025 3.15986 0
M  V30 7776 N 736.094 -0.359525 1.53444 0
M  V30 7777 C 737.024 -1.44662 1.8329 0
M  V30 7778 C 738.005 -1.55617 0.68683 0
M  V30 7779 O 739.19 -1.70086 0.93725 0
M  V30 7780 C 736.32 -2.81923 2.02822 0
M  V30 7781 C 735.274 -2.85787 3.18606 0
M  V30 7782 C 734.6 -4.25781 3.23442 0
M  V30 7783 C 735.9 -2.52762 4.57065 0
M  V30 7784 H 737.594 -1.19934 2.74329 0
M  V30 7785 H 735.14 -0.575517 1.31999 0
M  V30 7786 H 737.093 -3.58005 2.22285 0
M  V30 7787 H 735.817 -3.08051 1.085 0
M  V30 7788 H 734.476 -2.12157 2.98973 0
M  V30 7789 H 734.124 -4.48994 2.26745 0
M  V30 7790 H 733.824 -4.29281 4.01238 0
M  V30 7791 H 735.348 -5.03727 3.45096 0
M  V30 7792 H 736.762 -3.18557 4.76649 0
M  V30 7793 H 735.159 -2.67569 5.37147 0
M  V30 7794 H 736.229 -1.47993 4.61764 0
M  V30 7795 N 737.572 -1.44907 -0.619662 0
M  V30 7796 C 738.849 -1.38766 -1.37852 0
M  V30 7797 C 739.229 -0.0521393 -2.11036 0
M  V30 7798 O 738.577 0.965613 -2.07095 0
M  V30 7799 C 738.787 -2.59344 -2.33541 0
M  V30 7800 C 740.135 -3.03909 -2.96521 0
M  V30 7801 O 741.159 -2.59631 -2.43865 0
M  V30 7802 O 740.018 -3.80713 -3.92071 0
M  V30 7803 H 737.112 -0.550083 -0.617525 0
M  V30 7804 H 739.658 -1.57015 -0.643759 0
M  V30 7805 H 738.43 -3.48142 -1.78642 0
M  V30 7806 H 738.053 -2.43367 -3.14417 0
M  V30 7807 N 739.05 0.861098 -1.31996 0
M  V30 7808 C 739.98 1.98482 -1.22993 0
M  V30 7809 C 740.961 1.6971 -0.115168 0
M  V30 7810 O 742.146 1.91849 -0.30126 0
M  V30 7811 C 739.276 3.34179 -0.945615 0
M  V30 7812 C 738.23 3.77284 -2.02091 0
M  V30 7813 C 737.556 5.1054 -1.58912 0
M  V30 7814 C 738.856 3.93439 -3.43515 0
M  V30 7815 H 740.55 2.06271 -2.17008 0
M  V30 7816 H 738.096 0.991043 -1.04472 0
M  V30 7817 H 740.049 4.12338 -0.869206 0
M  V30 7818 H 738.773 3.26586 0.0301849 0
M  V30 7819 H 737.432 3.01371 -2.08737 0
M  V30 7820 H 737.08 4.99397 -0.600942 0
M  V30 7821 H 736.78 5.40352 -2.30854 0
M  V30 7822 H 738.304 5.91199 -1.52696 0
M  V30 7823 H 739.718 4.6197 -3.39495 0
M  V30 7824 H 738.115 4.34661 -4.13751 0
M  V30 7825 H 739.185 2.96548 -3.8365 0
M  V30 7826 N 740.528 1.15101 1.07655 0
M  V30 7827 C 741.774 0.925343 1.80458 0
M  V30 7828 C 742.107 -0.546354 1.86356 0
M  V30 7829 O 741.382 -1.40496 1.34503 0
M  V30 7830 C 741.665 1.53646 3.25676 0
M  V30 7831 C 741.518 3.07854 3.27942 0
M  V30 7832 C 742.837 1.21968 4.22861 0
M  V30 7833 H 739.956 0.337592 0.655134 0
M  V30 7834 H 742.598 1.42217 1.25993 0
M  V30 7835 H 740.748 1.11395 3.72187 0
M  V30 7836 H 742.42 3.58989 2.89697 0
M  V30 7837 H 740.663 3.41904 2.66991 0
M  V30 7838 H 741.334 3.45725 4.30324 0
M  V30 7839 H 743.81 1.5851 3.84726 0
M  V30 7840 H 742.686 1.67349 5.22767 0
M  V30 7841 H 742.947 0.136207 4.4189 0
M  V30 7842 N 742.006 -1.2595 0.947325 0
M  V30 7843 C 743.283 -1.88676 0.515824 0
M  V30 7844 C 743.663 -1.85547 -1.00675 0
M  V30 7845 O 743.011 -1.31399 -1.8694 0
M  V30 7846 C 743.221 -3.31734 1.08415 0
M  V30 7847 C 744.569 -4.08545 1.15654 0
M  V30 7848 O 745.593 -3.40826 1.03517 0
M  V30 7849 O 744.452 -5.29663 1.34608 0
M  V30 7850 H 741.546 -0.809537 0.169055 0
M  V30 7851 H 744.092 -1.34075 1.04029 0
M  V30 7852 H 742.864 -3.28404 2.1276 0
M  V30 7853 H 742.487 -3.93882 0.542499 0
M  V30 7854 N 743.484 -0.715051 -1.40445 0
M  V30 7855 C 744.447 -0.0708726 -2.2909 0
M  V30 7856 C 745.447 0.687926 -1.45342 0
M  V30 7857 O 746.637 0.519908 -1.66261 0
M  V30 7858 C 743.769 0.909528 -3.28543 0
M  V30 7859 H 744.962 -0.851611 -2.87555 0
M  V30 7860 H 742.515 -0.479674 -1.48758 0
M  V30 7861 H 743.25 1.71734 -2.75096 0
M  V30 7862 H 743.035 0.368318 -3.90366 0
M  V30 7863 H 744.525 1.35744 -3.94922 0
M  V30 7864 N 744.962 1.50701 -0.461195 0
M  V30 7865 C 746.378 1.59187 -0.114786 0
M  V30 7866 C 746.578 1.4702 1.37794 0
M  V30 7867 O 745.634 1.32361 2.15027 0
M  V30 7868 C 746.947 2.93453 -0.656167 0
M  V30 7869 C 748.495 3.06824 -0.618715 0
M  V30 7870 C 748.97 4.4365 -1.13747 0
M  V30 7871 N 750.461 4.50035 -1.09646 0
M  V30 7872 C 751.196 5.54278 -1.46846 0
M  V30 7873 N 750.692 6.65822 -1.91448 0
M  V30 7874 N 752.485 5.44767 -1.38512 0
M  V30 7875 H 744.636 1.56853 -1.43216 0
M  V30 7876 H 746.899 0.740712 -0.59165 0
M  V30 7877 H 746.605 3.07802 -1.7015 0
M  V30 7878 H 746.479 3.77082 -0.0942261 0
M  V30 7879 H 748.866 2.92129 0.417685 0
M  V30 7880 H 748.947 2.24976 -1.21734 0
M  V30 7881 H 748.591 4.59093 -2.17245 0
M  V30 7882 H 748.521 5.24074 -0.515153 0
M  V30 7883 H 751.012 3.69988 -0.769217 0
M  V30 7884 H 751.325 7.41413 -2.18007 0
M  V30 7885 H 749.67 6.66968 -1.95393 0
M  V30 7886 H 752.861 4.56511 -1.03516 0
M  V30 7887 H 753.034 6.25889 -1.6783 0
M  V30 7888 N 746.441 0.193421 1.56409 0
M  V30 7889 C 747.666 -0.454552 2.02358 0
M  V30 7890 C 748.091 -1.54516 1.07268 0
M  V30 7891 O 747.449 -1.81214 0.0558962 0
M  V30 7892 C 747.497 -0.989469 3.46759 0
M  V30 7893 O 746.601 -2.10244 3.54783 0
M  V30 7894 H 745.942 -0.106417 0.655417 0
M  V30 7895 H 748.472 0.303807 2.02332 0
M  V30 7896 H 748.482 -1.30649 3.86516 0
M  V30 7897 H 747.157 -0.191083 4.15461 0
M  V30 7898 H 745.734 -1.79419 3.26899 0
M  V30 7899 N 747.919 -1.57396 -0.0801906 0
M  V30 7900 C 749.335 -1.53564 -0.434778 0
M  V30 7901 C 749.535 -0.912372 -1.79661 0
M  V30 7902 O 748.591 -0.511268 -2.4727 0
M  V30 7903 C 749.904 -2.98244 -0.383561 0
M  V30 7904 C 751.452 -3.09536 -0.46435 0
M  V30 7905 C 751.927 -4.55851 -0.443128 0
M  V30 7906 N 753.418 -4.60456 -0.503448 0
M  V30 7907 C 754.153 -5.71135 -0.509106 0
M  V30 7908 N 753.649 -6.91203 -0.47008 0
M  V30 7909 N 755.442 -5.59353 -0.555035 0
M  V30 7910 H 747.593 -1.96281 0.811635 0
M  V30 7911 H 749.856 -0.898041 0.303689 0
M  V30 7912 H 749.562 -3.47369 0.550236 0
M  V30 7913 H 749.436 -3.57705 -1.19694 0
M  V30 7914 H 751.823 -2.6039 -1.38857 0
M  V30 7915 H 751.904 -2.53 0.377445 0
M  V30 7916 H 751.548 -5.05653 0.477207 0
M  V30 7917 H 751.478 -5.10242 -1.30234 0
M  V30 7918 H 753.969 -3.74048 -0.538199 0
M  V30 7919 H 754.282 -7.7132 -0.478091 0
M  V30 7920 H 752.627 -6.93625 -0.436897 0
M  V30 7921 H 755.818 -4.64453 -0.583158 0
M  V30 7922 H 755.991 -6.4561 -0.555976 0
M  V30 7923 N 749.397 0.351382 -1.53633 0
M  V30 7924 C 750.646 1.08988 -1.69719 0
M  V30 7925 C 750.959 1.90043 -0.462948 0
M  V30 7926 O 752.165 2.66769 -0.504613 0
M  V30 7927 C 750.621 1.98691 -3.00083 0
M  V30 7928 C 750.229 1.22881 -4.30818 0
M  V30 7929 C 751.973 2.72446 -3.25536 0
M  V30 7930 C 749.88 2.11568 -5.52262 0
M  V30 7931 H 748.81 0.410588 -0.632403 0
M  V30 7932 H 751.461 0.349886 -1.80133 0
M  V30 7933 H 749.843 2.76478 -2.83506 0
M  V30 7934 H 751.017 0.500582 -4.58073 0
M  V30 7935 H 749.332 0.60928 -4.11918 0
M  V30 7936 H 751.929 3.39055 -4.13456 0
M  V30 7937 H 752.272 3.38588 -2.42206 0
M  V30 7938 H 752.805 2.01735 -3.42852 0
M  V30 7939 H 749.544 1.4998 -6.38111 0
M  V30 7940 H 749.064 2.82201 -5.29266 0
M  V30 7941 H 750.743 2.70802 -5.87601 0
M  V30 7942 N 750.875 1.45233 0.611969 0
M  V30 7943 C 751.825 1.49997 1.71711 0
M  V30 7944 C 752.809 0.363689 1.56736 0
M  V30 7945 O 754.001 0.610261 1.66147 0
M  V30 7946 C 751.13 1.46537 3.10454 0
M  V30 7947 C 750.216 2.65351 3.30831 0
M  V30 7948 N 750.607 3.90485 3.21489 0
M  V30 7949 C 748.905 2.60955 3.61688 0
M  V30 7950 C 749.606 4.69758 3.43078 0
M  V30 7951 N 748.582 4.01141 3.66861 0
M  V30 7952 H 752.384 2.44574 1.62975 0
M  V30 7953 H 749.898 1.40464 0.815082 0
M  V30 7954 H 751.895 1.48035 3.89732 0
M  V30 7955 H 750.555 0.530139 3.20343 0
M  V30 7956 H 751.566 4.22171 2.99987 0
M  V30 7957 H 748.243 1.76319 3.78441 0
M  V30 7958 H 749.633 5.7877 3.41285 0
M  V30 7959 N 752.353 -0.854086 1.3245 0
M  V30 7960 C 753.301 -1.98411 1.21391 0
M  V30 7961 C 754.295 -1.68984 0.118586 0
M  V30 7962 O 755.501 -1.77784 0.281549 0
M  V30 7963 H 751.876 -0.651077 0.376301 0
M  V30 7964 H 753.847 -2.04867 2.16961 0
M  V30 7965 C 752.596 -3.34345 0.954407 0
M  V30 7966 H 751.919 -3.57518 1.78944 0
M  V30 7967 H 753.359 -4.13959 0.917269 0
M  V30 7968 C 751.818 -3.35151 -0.342838 0
M  V30 7969 O 752.348 -3.78174 -1.35452 0
M  V30 7970 N 750.554 -2.88298 -0.365012 0
M  V30 7971 H 750.101 -2.53481 0.4588 0
M  V30 7972 H 750.059 -2.8922 -1.23284 0
M  V30 7973 N 753.831 -1.1567 -1.07043 0
M  V30 7974 C 755.077 -0.9349 -1.79965 0
M  V30 7975 C 755.41 0.536464 -1.86643 0
M  V30 7976 O 754.685 1.39781 -1.35247 0
M  V30 7977 C 754.968 -1.55371 -3.24857 0
M  V30 7978 C 754.821 -3.09589 -3.26305 0
M  V30 7979 C 756.14 -1.24209 -4.22209 0
M  V30 7980 H 753.259 -0.341061 -0.653335 0
M  V30 7981 H 755.901 -1.42883 -1.25237 0
M  V30 7982 H 754.051 -1.13368 -3.71591 0
M  V30 7983 H 755.723 -3.60521 -2.87789 0
M  V30 7984 H 753.966 -3.43315 -2.65174 0
M  V30 7985 H 754.637 -3.48002 -4.28484 0
M  V30 7986 H 757.113 -1.60548 -3.8388 0
M  V30 7987 H 755.989 -1.70119 -5.21872 0
M  V30 7988 H 756.25 -0.15964 -4.41812 0
M  V30 7989 N 755.309 1.25446 -0.953992 0
M  V30 7990 C 756.537 1.97215 -0.625595 0
M  V30 7991 C 756.952 1.70911 0.802168 0
M  V30 7992 O 756.309 0.984782 1.5365 0
M  V30 7993 C 756.36 3.50777 -0.873943 0
M  V30 7994 O 756.081 3.76173 -2.24556 0
M  V30 7995 C 757.582 4.39776 -0.557845 0
M  V30 7996 H 754.802 0.628652 -0.2346 0
M  V30 7997 H 757.346 1.59632 -1.27819 0
M  V30 7998 H 755.501 3.86474 -0.267765 0
M  V30 7999 H 755.915 4.70636 -2.31522 0
M  V30 8000 H 757.389 5.46431 -0.782157 0
M  V30 8001 H 757.866 4.36257 0.507573 0
M  V30 8002 H 758.472 4.09644 -1.14332 0
M  V30 8003 N 756.787 0.722489 1.40064 0
M  V30 8004 C 758.203 0.396758 1.5459 0
M  V30 8005 C 758.403 -1.09375 1.69232 0
M  V30 8006 O 757.459 -1.87984 1.68578 0
M  V30 8007 C 758.772 1.16885 2.77053 0
M  V30 8008 C 760.32 1.15583 2.90877 0
M  V30 8009 C 760.795 1.91023 4.16262 0
M  V30 8010 N 762.286 1.88126 4.23276 0
M  V30 8011 C 763.021 2.43315 5.19216 0
M  V30 8012 N 762.517 3.07089 6.21022 0
M  V30 8013 N 764.31 2.33418 5.11344 0
M  V30 8014 H 756.461 1.68887 1.28806 0
M  V30 8015 H 758.724 0.714231 0.62336 0
M  V30 8016 H 758.43 2.22301 2.72534 0
M  V30 8017 H 758.304 0.765011 3.69361 0
M  V30 8018 H 760.691 0.10984 2.94896 0
M  V30 8019 H 760.772 1.59895 1.99668 0
M  V30 8020 H 760.416 2.95616 4.13006 0
M  V30 8021 H 760.346 1.44126 5.06493 0
M  V30 8022 H 762.837 1.41654 3.50346 0
M  V30 8023 H 763.15 3.467 6.90666 0
M  V30 8024 H 761.495 3.11175 6.21446 0
M  V30 8025 H 764.686 1.83248 4.30741 0
M  V30 8026 H 764.859 2.7673 5.85939 0
M  V30 8027 N 758.265 -1.50454 0.469181 0
M  V30 8028 C 759.175 -2.32248 -0.331349 0
M  V30 8029 C 760.191 -1.42548 -0.997807 0
M  V30 8030 O 761.367 -1.75602 -0.9862 0
M  V30 8031 C 758.432 -3.17171 -1.40012 0
M  V30 8032 C 757.493 -4.2269 -0.750463 0
M  V30 8033 C 756.726 -5.03554 -1.76831 0
M  V30 8034 O 756.949 -4.85469 -2.99459 0
M  V30 8035 O 755.883 -5.86767 -1.3412 0
M  V30 8036 H 759.709 -3.01821 0.337279 0
M  V30 8037 H 757.294 -1.47602 0.231066 0
M  V30 8038 H 759.176 -3.69871 -2.01924 0
M  V30 8039 H 757.851 -2.50328 -2.05226 0
M  V30 8040 H 756.758 -3.73986 -0.0924446 0
M  V30 8041 H 758.091 -4.91997 -0.14131 0
M  V30 8042 N 759.743 -0.201713 -1.56304 0
M  V30 8043 C 760.989 0.435952 -1.98059 0
M  V30 8044 C 761.322 1.60811 -1.08873 0
M  V30 8045 O 760.597 1.9398 -0.142128 0
M  V30 8046 C 760.88 0.889706 -3.48936 0
M  V30 8047 C 760.733 -0.284725 -4.48898 0
M  V30 8048 C 762.052 1.7529 -4.03685 0
M  V30 8049 H 759.171 0.15699 -0.720085 0
M  V30 8050 H 761.813 -0.293965 -1.87712 0
M  V30 8051 H 759.963 1.51166 -3.57884 0
M  V30 8052 H 761.635 -0.922531 -4.51981 0
M  V30 8053 H 759.878 -0.935427 -4.23594 0
M  V30 8054 H 760.549 0.0753865 -5.51949 0
M  V30 8055 H 763.025 1.2283 -3.97558 0
M  V30 8056 H 761.901 2.03933 -5.0961 0
M  V30 8057 H 762.162 2.70939 -3.49348 0
M  V30 8058 N 761.222 1.57436 0.0718424 0
M  V30 8059 C 762.17 2.04725 1.10411 0
M  V30 8060 C 763.164 0.952579 1.4008 0
M  V30 8061 O 764.37 1.13769 1.39487 0
M  V30 8062 H 760.745 0.652749 0.373393 0
M  V30 8063 H 762.716 2.90569 0.679126 0
M  V30 8064 C 761.465 2.5068 2.40946 0
M  V30 8065 H 760.788 3.34505 2.18967 0
M  V30 8066 H 762.228 2.87521 3.11621 0
M  V30 8067 C 760.687 1.38971 3.06902 0
M  V30 8068 O 761.217 0.731786 3.94978 0
M  V30 8069 N 759.423 1.13485 2.67525 0
M  V30 8070 H 758.97 1.67168 1.95991 0
M  V30 8071 H 758.928 0.389467 3.11978 0
M  V30 8072 N 762.7 -0.34323 1.53817 0
M  V30 8073 C 763.946 -1.08504 1.71332 0
M  V30 8074 C 764.279 -1.88294 0.475285 0
M  V30 8075 O 763.554 -1.87205 -0.527688 0
M  V30 8076 C 763.837 -2.02597 2.97702 0
M  V30 8077 C 763.69 -1.26268 4.31713 0
M  V30 8078 C 765.009 -3.0241 3.19744 0
M  V30 8079 H 762.128 -0.393072 0.623429 0
M  V30 8080 H 764.77 -0.363579 1.86489 0
M  V30 8081 H 762.92 -2.64118 2.8491 0
M  V30 8082 H 764.592 -0.673594 4.56356 0
M  V30 8083 H 762.835 -0.564696 4.30109 0
M  V30 8084 H 763.506 -1.95253 5.16314 0
M  V30 8085 H 765.982 -2.51004 3.31868 0
M  V30 8086 H 764.858 -3.65449 4.09558 0
M  V30 8087 H 765.119 -3.73806 2.36054 0
M  V30 8088 N 764.178 -1.45556 -0.604258 0
M  V30 8089 C 765.594 -1.30035 -0.925368 0
M  V30 8090 C 765.794 -0.255833 -1.99869 0
M  V30 8091 O 764.85 0.349076 -2.50075 0
M  V30 8092 C 766.163 -2.68028 -1.36314 0
M  V30 8093 C 767.711 -2.75951 -1.47717 0
M  V30 8094 C 768.186 -4.14476 -1.94868 0
M  V30 8095 N 769.677 -4.16787 -2.02097 0
M  V30 8096 C 770.412 -5.20845 -2.39809 0
M  V30 8097 N 769.908 -6.35246 -2.76467 0
M  V30 8098 N 771.701 -5.08204 -2.40177 0
M  V30 8099 H 763.852 -2.1214 0.10512 0
M  V30 8100 H 766.115 -0.947871 -0.0156303 0
M  V30 8101 H 765.821 -3.45667 -0.648628 0
M  V30 8102 H 765.695 -2.96711 -2.329 0
M  V30 8103 H 768.082 -1.98613 -2.18258 0
M  V30 8104 H 768.163 -2.50977 -0.494371 0
M  V30 8105 H 767.807 -4.923 -1.24912 0
M  V30 8106 H 767.737 -4.36843 -2.94068 0
M  V30 8107 H 770.228 -3.34233 -1.76343 0
M  V30 8108 H 770.541 -7.10438 -3.04134 0
M  V30 8109 H 768.886 -6.38642 -2.74155 0
M  V30 8110 H 772.077 -4.17874 -2.10947 0
M  V30 8111 H 772.25 -5.89417 -2.69242 0
M  V30 8112 N 765.656 0.84705 -1.32902 0
M  V30 8113 C 766.603 1.95624 -1.22473 0
M  V30 8114 C 767.573 1.65767 -0.105178 0
M  V30 8115 O 768.758 1.88704 -0.282042 0
M  V30 8116 C 765.898 3.31434 -0.961542 0
M  V30 8117 C 765.011 3.73741 -2.1666 0
M  V30 8118 C 764.146 4.98379 -1.83825 0
M  V30 8119 C 763.185 5.33199 -3.00609 0
M  V30 8120 N 762.322 6.49014 -2.67816 0
M  V30 8121 H 767.162 2.03875 -2.17345 0
M  V30 8122 H 764.699 0.997764 -1.08088 0
M  V30 8123 H 766.657 4.09663 -0.789411 0
M  V30 8124 H 765.287 3.22762 -0.0495938 0
M  V30 8125 H 764.339 2.91102 -2.44875 0
M  V30 8126 H 765.651 3.95462 -3.03993 0
M  V30 8127 H 764.805 5.84336 -1.63208 0
M  V30 8128 H 763.544 4.78611 -0.937172 0
M  V30 8129 H 762.549 4.4575 -3.21849 0
M  V30 8130 H 763.774 5.5492 -3.9146 0
M  V30 8131 H 761.72 6.30748 -1.80258 0
M  V30 8132 H 761.637 6.7079 -3.48679 0
M  V30 8133 H 762.905 7.38103 -2.50647 0
M  V30 8134 N 767.134 1.16236 1.06428 0
M  V30 8135 C 768.55 0.906983 1.31324 0
M  V30 8136 C 768.75 -0.440872 1.96618 0
M  V30 8137 O 767.806 -1.1807 2.23194 0
M  V30 8138 C 769.119 2.05501 2.19522 0
M  V30 8139 C 770.667 2.09061 2.32943 0
M  V30 8140 C 771.142 3.23214 3.24495 0
M  V30 8141 N 772.633 3.22922 3.32078 0
M  V30 8142 C 773.368 4.07889 4.03006 0
M  V30 8143 N 772.864 5.02941 4.76469 0
M  V30 8144 N 774.657 3.95881 3.99043 0
M  V30 8145 H 766.808 2.03015 0.624388 0
M  V30 8146 H 769.071 0.88576 0.337835 0
M  V30 8147 H 768.777 3.02847 1.78819 0
M  V30 8148 H 768.651 1.99538 3.201 0
M  V30 8149 H 771.038 1.12308 2.72893 0
M  V30 8150 H 771.119 2.19089 1.32037 0
M  V30 8151 H 770.763 4.20225 2.85261 0
M  V30 8152 H 770.693 3.10423 4.25377 0
M  V30 8153 H 773.184 2.54093 2.79724 0
M  V30 8154 H 773.497 5.64196 5.28112 0
M  V30 8155 H 771.842 5.06922 4.75453 0
M  V30 8156 H 775.033 3.20927 3.40769 0
M  V30 8157 H 775.206 4.62321 4.54052 0
M  V30 8158 N 768.612 -1.24939 0.960631 0
M  V30 8159 C 769.575 -2.239 0.49006 0
M  V30 8160 C 770.575 -1.55497 -0.409535 0
M  V30 8161 O 771.765 -1.72978 -0.205984 0
M  V30 8162 C 768.897 -3.39654 -0.291193 0
M  V30 8163 H 770.09 -2.67044 1.36482 0
M  V30 8164 H 767.643 -1.37429 0.744505 0
M  V30 8165 H 768.378 -3.01939 -1.18336 0
M  V30 8166 H 768.163 -3.90496 0.354276 0
M  V30 8167 H 769.653 -4.13125 -0.609693 0
M  V30 8168 N 770.09 -0.729906 -1.39679 0
M  V30 8169 C 771.32 -0.285295 -2.04621 0
M  V30 8170 C 771.728 1.08304 -1.55135 0
M  V30 8171 O 771.071 1.6946 -0.709146 0
M  V30 8172 C 771.133 -0.203129 -3.58926 0
M  V30 8173 C 770.797 -1.50909 -4.31365 0
M  V30 8174 C 771.794 -2.45381 -4.58349 0
M  V30 8175 C 769.479 -1.77198 -4.70007 0
M  V30 8176 C 771.473 -3.64379 -5.22979 0
M  V30 8177 C 769.16 -2.96474 -5.34365 0
M  V30 8178 C 770.158 -3.89886 -5.60783 0
M  V30 8179 O 769.846 -5.07069 -6.23808 0
M  V30 8180 H 769.578 -0.123373 -0.664647 0
M  V30 8181 H 772.132 -0.992901 -1.79807 0
M  V30 8182 H 770.362 0.560538 -3.82616 0
M  V30 8183 H 772.051 0.208811 -4.05363 0
M  V30 8184 H 772.817 -2.2634 -4.28947 0
M  V30 8185 H 768.696 -1.05337 -4.48804 0
M  V30 8186 H 772.24 -4.37307 -5.43515 0
M  V30 8187 H 768.137 -3.15419 -5.63188 0
M  V30 8188 H 768.905 -5.07335 -6.42303 0
M  V30 8189 N 771.568 1.50203 -0.477153 0
M  V30 8190 C 772.498 2.31517 0.303646 0
M  V30 8191 C 773.479 1.38696 0.984753 0
M  V30 8192 O 774.664 1.67615 0.980758 0
M  V30 8193 C 771.794 3.18598 1.38249 0
M  V30 8194 C 770.748 4.2002 0.822645 0
M  V30 8195 C 770.074 4.95878 2.00024 0
M  V30 8196 C 771.374 5.22023 -0.170185 0
M  V30 8197 H 773.068 2.97042 -0.375027 0
M  V30 8198 H 770.614 1.42848 -0.181802 0
M  V30 8199 H 772.567 3.74282 1.93625 0
M  V30 8200 H 771.291 2.5097 2.09002 0
M  V30 8201 H 769.95 3.65445 0.290813 0
M  V30 8202 H 769.598 4.24717 2.69489 0
M  V30 8203 H 769.298 5.64487 1.63183 0
M  V30 8204 H 770.822 5.54399 2.55878 0
M  V30 8205 H 772.236 5.72543 0.294606 0
M  V30 8206 H 770.633 5.98386 -0.453181 0
M  V30 8207 H 771.703 4.72396 -1.09408 0
M  V30 8208 N 773.046 0.209999 1.56195 0
M  V30 8209 C 773.978 -0.736967 2.17029 0
M  V30 8210 C 774.991 -1.16599 1.13616 0
M  V30 8211 O 776.18 -1.09914 1.40646 0
M  V30 8212 C 773.28 -2.00852 2.72969 0
M  V30 8213 C 772.453 -1.73691 4.01435 0
M  V30 8214 C 771.512 -2.85439 4.42053 0
M  V30 8215 O 770.538 -2.54405 5.09183 0
M  V30 8216 N 771.74 -4.14135 4.06783 0
M  V30 8217 H 774.505 -0.216656 2.98916 0
M  V30 8218 H 772.066 0.0285672 1.61875 0
M  V30 8219 H 774.058 -2.74778 2.97118 0
M  V30 8220 H 772.628 -2.43963 1.95451 0
M  V30 8221 H 771.848 -0.834676 3.85262 0
M  V30 8222 H 773.136 -1.52961 4.85263 0
M  V30 8223 H 772.534 -4.42196 3.52816 0
M  V30 8224 H 771.091 -4.84642 4.35851 0
M  V30 8225 N 774.524 -1.57472 -0.0634922 0
M  V30 8226 C 775.471 -2.04258 -1.07457 0
M  V30 8227 C 776.441 -0.924804 -1.37973 0
M  V30 8228 O 777.626 -1.19305 -1.48899 0
M  V30 8229 C 774.766 -2.49832 -2.38071 0
M  V30 8230 C 773.879 -3.75263 -2.14014 0
M  V30 8231 C 773.014 -4.09585 -3.38251 0
M  V30 8232 C 772.053 -5.28032 -3.09594 0
M  V30 8233 N 771.19 -5.57953 -4.26185 0
M  V30 8234 H 776.03 -2.90402 -0.668626 0
M  V30 8235 H 773.567 -1.43609 -0.318572 0
M  V30 8236 H 775.525 -2.7431 -3.14341 0
M  V30 8237 H 774.155 -1.66654 -2.76453 0
M  V30 8238 H 773.207 -3.58075 -1.28399 0
M  V30 8239 H 774.519 -4.61667 -1.88852 0
M  V30 8240 H 773.673 -4.35008 -4.2291 0
M  V30 8241 H 772.412 -3.21765 -3.66495 0
M  V30 8242 H 771.417 -5.02397 -2.23332 0
M  V30 8243 H 772.642 -6.17477 -2.82663 0
M  V30 8244 H 770.588 -4.73092 -4.54445 0
M  V30 8245 H 770.505 -6.38793 -4.04326 0
M  V30 8246 H 771.773 -5.87931 -5.11817 0
M  V30 8247 N 776.003 0.335068 -1.53997 0
M  V30 8248 C 777.249 1.07594 -1.71905 0
M  V30 8249 C 777.582 1.88039 -0.485264 0
M  V30 8250 O 776.857 1.87482 0.517752 0
M  V30 8251 C 777.14 2.01016 -2.98772 0
M  V30 8252 C 776.993 1.23977 -4.32377 0
M  V30 8253 C 778.312 3.0071 -3.21343 0
M  V30 8254 H 775.431 0.38976 -0.625505 0
M  V30 8255 H 778.073 0.353684 -1.86679 0
M  V30 8256 H 776.223 2.62603 -2.86307 0
M  V30 8257 H 777.895 0.649383 -4.56706 0
M  V30 8258 H 776.138 0.541878 -4.30402 0
M  V30 8259 H 776.809 1.92512 -5.17342 0
M  V30 8260 H 779.285 2.4924 -3.33194 0
M  V30 8261 H 778.161 3.63272 -4.11491 0
M  V30 8262 H 778.422 3.72549 -2.38033 0
M  V30 8263 N 777.481 1.45874 0.596531 0
M  V30 8264 C 778.706 1.54247 1.38646 0
M  V30 8265 C 779.131 0.179571 1.87241 0
M  V30 8266 O 778.489 -0.837831 1.6078 0
M  V30 8267 C 778.537 2.54015 2.55946 0
M  V30 8268 O 777.641 2.06561 3.5694 0
M  V30 8269 H 776.982 0.519555 0.413471 0
M  V30 8270 H 779.512 1.91327 0.724936 0
M  V30 8271 H 779.522 2.73179 3.03047 0
M  V30 8272 H 778.197 3.52994 2.19928 0
M  V30 8273 H 776.774 1.97324 3.16414 0
M  V30 8274 N 778.959 -0.83999 1.33349 0
M  V30 8275 C 779.869 -1.98182 1.25543 0
M  V30 8276 C 780.885 -1.73204 0.166208 0
M  V30 8277 O 782.061 -1.97596 0.389589 0
M  V30 8278 C 779.126 -3.32157 0.993614 0
M  V30 8279 C 778.187 -3.70258 2.17273 0
M  V30 8280 C 777.42 -4.9784 1.92331 0
M  V30 8281 O 777.643 -5.63679 0.873074 0
M  V30 8282 O 776.577 -5.33418 2.78835 0
M  V30 8283 H 780.403 -2.07708 2.21565 0
M  V30 8284 H 777.988 -0.972852 1.13384 0
M  V30 8285 H 779.87 -4.12433 0.864711 0
M  V30 8286 H 778.545 -3.23637 0.0636596 0
M  V30 8287 H 777.452 -2.90497 2.35716 0
M  V30 8288 H 778.785 -3.83442 3.08598 0
M  V30 8289 N 780.437 -1.16799 -1.0581 0
M  V30 8290 C 781.683 -0.953935 -1.78963 0
M  V30 8291 C 782.016 0.516638 -1.87202 0
M  V30 8292 O 781.291 1.38338 -1.36721 0
M  V30 8293 C 781.574 -1.58808 -3.23191 0
M  V30 8294 C 781.427 -3.13032 -3.23003 0
M  V30 8295 C 782.746 -1.2868 -4.20867 0
M  V30 8296 H 779.865 -0.347972 -0.64968 0
M  V30 8297 H 782.507 -1.44204 -1.23715 0
M  V30 8298 H 780.657 -1.17303 -3.70368 0
M  V30 8299 H 782.329 -3.63553 -2.83949 0
M  V30 8300 H 780.572 -3.46108 -2.61518 0
M  V30 8301 H 781.243 -3.52527 -4.24769 0
M  V30 8302 H 783.719 -1.6461 -3.82155 0
M  V30 8303 H 782.595 -1.75645 -5.20038 0
M  V30 8304 H 782.856 -0.206491 -4.41618 0
M  V30 8305 N 781.915 1.24427 -0.967243 0
M  V30 8306 C 783.163 1.92107 -0.627638 0
M  V30 8307 C 783.484 1.75991 0.83978 0
M  V30 8308 O 782.754 1.13118 1.59941 0
M  V30 8309 H 781.334 0.710986 -0.229145 0
M  V30 8310 H 783.996 1.51331 -1.22821 0
M  V30 8311 H 783.092 2.99791 -0.867844 0
M  V30 8312 N 783.393 0.737304 1.3929 0
M  V30 8313 C 784.623 0.296143 2.04467 0
M  V30 8314 C 785.031 -1.0748 1.55707 0
M  V30 8315 O 784.374 -1.69082 0.718123 0
M  V30 8316 C 784.436 0.222161 3.58813 0
M  V30 8317 C 784.1 1.53195 4.30558 0
M  V30 8318 C 785.097 2.47809 4.57041 0
M  V30 8319 C 782.782 1.79688 4.6906 0
M  V30 8320 C 784.776 3.67147 5.21039 0
M  V30 8321 C 782.463 2.99304 5.32785 0
M  V30 8322 C 783.461 3.92855 5.58708 0
M  V30 8323 O 783.149 5.1037 6.2111 0
M  V30 8324 H 782.881 0.126896 0.663983 0
M  V30 8325 H 785.435 1.00242 1.79278 0
M  V30 8326 H 783.665 -0.540239 3.82908 0
M  V30 8327 H 785.354 -0.187311 4.05468 0
M  V30 8328 H 786.12 2.28611 4.2774 0
M  V30 8329 H 781.999 1.07716 4.48239 0
M  V30 8330 H 785.543 4.40183 5.41188 0
M  V30 8331 H 781.44 3.18401 5.61508 0
M  V30 8332 H 782.208 5.10735 6.39603 0
M  V30 8333 N 784.871 -1.49948 0.485112 0
M  V30 8334 C 786.119 -2.01996 -0.0648775 0
M  V30 8335 C 786.44 -1.36819 -1.38945 0
M  V30 8336 O 785.71 -0.518163 -1.88923 0
M  V30 8337 H 784.29 -0.746513 -0.0269662 0
M  V30 8338 H 786.952 -1.84136 0.638733 0
M  V30 8339 H 786.048 -3.11418 -0.20617 0
M  V30 8340 N 786.349 -0.21828 -1.56081 0
M  V30 8341 C 787.296 0.693189 -2.20144 0
M  V30 8342 C 788.266 1.19274 -1.15598 0
M  V30 8343 O 789.451 1.25243 -1.4394 0
M  V30 8344 C 786.591 1.89715 -2.88275 0
M  V30 8345 C 785.704 1.4368 -4.07407 0
M  V30 8346 C 784.839 2.59807 -4.63329 0
M  V30 8347 C 783.878 2.10492 -5.74769 0
M  V30 8348 N 783.015 3.1988 -6.24997 0
M  V30 8349 H 787.855 0.14016 -2.9767 0
M  V30 8350 H 785.392 0.0574292 -1.46988 0
M  V30 8351 H 787.35 2.60398 -3.25958 0
M  V30 8352 H 785.98 2.42311 -2.13273 0
M  V30 8353 H 785.032 0.625007 -3.7523 0
M  V30 8354 H 786.344 1.03517 -4.8794 0
M  V30 8355 H 785.498 3.38577 -5.03438 0
M  V30 8356 H 784.237 3.03256 -3.81951 0
M  V30 8357 H 783.242 1.30182 -5.34165 0
M  V30 8358 H 784.467 1.68045 -6.5798 0
M  V30 8359 H 782.413 3.62817 -5.46534 0
M  V30 8360 H 782.33 2.83958 -7.00645 0
M  V30 8361 H 783.598 3.98796 -6.69763 0
M  V30 8362 N 787.827 1.57504 0.0551401 0
M  V30 8363 C 789.073 1.88334 0.752216 0
M  V30 8364 C 789.406 0.812742 1.76375 0
M  V30 8365 O 788.681 -0.175198 1.93709 0
M  V30 8366 C 788.964 3.29824 1.44528 0
M  V30 8367 C 788.817 4.47553 0.449026 0
M  V30 8368 C 790.136 3.69808 2.38601 0
M  V30 8369 H 787.255 0.684973 0.271995 0
M  V30 8370 H 789.897 1.89994 0.0151895 0
M  V30 8371 H 788.047 3.28539 2.07351 0
M  V30 8372 H 789.719 4.60967 -0.175277 0
M  V30 8373 H 787.962 4.33168 -0.234162 0
M  V30 8374 H 788.633 5.43376 0.971917 0
M  V30 8375 H 791.109 3.72293 1.85842 0
M  V30 8376 H 789.985 4.69665 2.84088 0
M  V30 8377 H 790.246 3.00641 3.24141 0
M  V30 8378 N 789.305 -0.326896 1.54172 0
M  V30 8379 C 790.554 -1.06274 1.71431 0
M  V30 8380 C 790.867 -1.89282 0.493123 0
M  V30 8381 O 792.073 -2.65933 0.54699 0
M  V30 8382 C 790.529 -1.93892 3.03206 0
M  V30 8383 C 790.137 -1.16011 4.32719 0
M  V30 8384 C 791.881 -2.67232 3.29829 0
M  V30 8385 C 789.788 -2.02755 5.55558 0
M  V30 8386 H 788.718 -0.400475 0.638855 0
M  V30 8387 H 791.369 -0.321184 1.80667 0
M  V30 8388 H 789.751 -2.71933 2.87869 0
M  V30 8389 H 790.925 -0.427643 4.58811 0
M  V30 8390 H 789.24 -0.54367 4.12836 0
M  V30 8391 H 791.837 -3.32434 4.18798 0
M  V30 8392 H 792.18 -3.34692 2.47562 0
M  V30 8393 H 792.713 -1.96255 3.46018 0
M  V30 8394 H 789.452 -1.3981 6.40417 0
M  V30 8395 H 788.972 -2.73745 5.33689 0
M  V30 8396 H 790.651 -2.61419 5.91835 0
M  V30 8397 N 790.784 -1.46188 -0.588786 0
M  V30 8398 C 792.2 -1.31009 -0.911524 0
M  V30 8399 C 792.4 -0.277017 -1.99587 0
M  V30 8400 O 791.456 0.322532 -2.50432 0
M  V30 8401 C 792.769 -2.69459 -1.33463 0
M  V30 8402 C 794.317 -2.77502 -1.44782 0
M  V30 8403 C 794.792 -4.1652 -1.90461 0
M  V30 8404 N 796.283 -4.18907 -1.97665 0
M  V30 8405 C 797.018 -5.23359 -2.34271 0
M  V30 8406 N 796.514 -6.38143 -2.69714 0
M  V30 8407 N 798.307 -5.10723 -2.34774 0
M  V30 8408 H 790.458 -2.12016 0.127614 0
M  V30 8409 H 792.721 -0.947984 -0.00557599 0
M  V30 8410 H 792.427 -3.46336 -0.611929 0
M  V30 8411 H 792.301 -2.99165 -2.2974 0
M  V30 8412 H 794.688 -2.00917 -2.1614 0
M  V30 8413 H 794.769 -2.51488 -0.467724 0
M  V30 8414 H 794.413 -4.93597 -1.19684 0
M  V30 8415 H 794.343 -4.39937 -2.89418 0
M  V30 8416 H 796.834 -3.36084 -1.72789 0
M  V30 8417 H 797.147 -7.13624 -2.96582 0
M  V30 8418 H 795.492 -6.41514 -2.67366 0
M  V30 8419 H 798.683 -4.20088 -2.06503 0
M  V30 8420 H 798.856 -5.9224 -2.62975 0
M  V30 8421 N 792.262 0.832906 -1.33792 0
M  V30 8422 C 793.502 1.60217 -1.26925 0
M  V30 8423 C 793.866 1.91323 0.161146 0
M  V30 8424 O 795.067 2.66461 0.353864 0
M  V30 8425 C 793.338 2.87314 -2.12568 0
M  V30 8426 S 794.897 3.77939 -2.22952 0
M  V30 8427 H 791.715 0.549273 -0.451464 0
M  V30 8428 H 794.317 0.984648 -1.68893 0
M  V30 8429 H 793.021 2.62444 -3.15518 0
M  V30 8430 H 792.552 3.5407 -1.71459 0
M  V30 8431 H 794.567 4.76188 -1.39496 0
M  V30 8432 N 793.74 1.17359 1.05189 0
M  V30 8433 C 794.989 0.956412 1.77583 0
M  V30 8434 C 795.302 -0.516018 1.88671 0
M  V30 8435 O 796.508 -0.851401 2.57805 0
M  V30 8436 C 794.964 1.66203 3.19225 0
M  V30 8437 C 794.572 3.17299 3.16267 0
M  V30 8438 C 796.316 1.52725 3.96075 0
M  V30 8439 C 794.223 3.8055 4.52698 0
M  V30 8440 H 793.153 0.354204 0.665624 0
M  V30 8441 H 795.804 1.40612 1.17901 0
M  V30 8442 H 794.186 1.14006 3.79234 0
M  V30 8443 H 795.36 3.76431 2.65776 0
M  V30 8444 H 793.675 3.3079 2.52917 0
M  V30 8445 H 796.272 1.97351 4.96947 0
M  V30 8446 H 796.615 0.477803 4.13549 0
M  V30 8447 H 797.148 2.02139 3.42614 0
M  V30 8448 H 793.887 4.85492 4.4043 0
M  V30 8449 H 793.407 3.26206 5.03339 0
M  V30 8450 H 795.086 3.82757 5.21638 0
M  V30 8451 N 795.218 -1.23913 0.973828 0
M  V30 8452 C 796.165 -2.25132 0.508366 0
M  V30 8453 C 797.135 -1.59908 -0.449307 0
M  V30 8454 O 798.32 -1.87405 -0.358313 0
M  V30 8455 C 795.46 -3.4458 -0.189422 0
M  V30 8456 C 794.573 -4.24381 0.807738 0
M  V30 8457 C 793.708 -5.31131 0.0854315 0
M  V30 8458 C 792.747 -6.02635 1.07225 0
M  V30 8459 N 791.884 -7.01073 0.379535 0
M  V30 8460 H 796.724 -2.64313 1.37632 0
M  V30 8461 H 794.261 -1.29924 0.689802 0
M  V30 8462 H 796.219 -4.12706 -0.610733 0
M  V30 8463 H 794.849 -3.06218 -1.02129 0
M  V30 8464 H 793.901 -3.55735 1.34747 0
M  V30 8465 H 795.213 -4.73778 1.55998 0
M  V30 8466 H 794.367 -6.05422 -0.393572 0
M  V30 8467 H 793.106 -4.82658 -0.699461 0
M  V30 8468 H 792.111 -5.27143 1.56207 0
M  V30 8469 H 793.336 -6.53197 1.85769 0
M  V30 8470 H 791.282 -6.54862 -0.386269 0
M  V30 8471 H 791.199 -7.48382 1.07054 0
M  V30 8472 H 792.467 -7.79462 -0.0772984 0
M  V30 8473 N 796.696 -0.74468 -1.38897 0
M  V30 8474 C 797.924 -0.307428 -2.04603 0
M  V30 8475 C 798.339 1.06115 -1.56157 0
M  V30 8476 O 797.696 1.67233 -0.730701 0
M  V30 8477 C 797.747 -0.31101 -3.6016 0
M  V30 8478 O 797.468 -1.62557 -4.06825 0
M  V30 8479 C 798.969 0.141213 -4.43075 0
M  V30 8480 H 796.189 -0.132741 -0.657739 0
M  V30 8481 H 798.733 -1.01104 -1.77759 0
M  V30 8482 H 796.888 0.343792 -3.85872 0
M  V30 8483 H 797.302 -1.54569 -5.01207 0
M  V30 8484 H 798.776 0.0875449 -5.51931 0
M  V30 8485 H 799.253 1.18782 -4.22833 0
M  V30 8486 H 799.859 -0.484383 -4.22533 0
M  V30 8487 N 798.174 1.49689 -0.493057 0
M  V30 8488 C 799.106 2.26867 0.326195 0
M  V30 8489 C 800.119 1.33083 0.937697 0
M  V30 8490 O 801.308 1.58427 0.822382 0
M  V30 8491 C 798.408 3.0519 1.4735 0
M  V30 8492 C 797.581 4.26491 0.970767 0
M  V30 8493 C 796.64 4.86926 1.99473 0
M  V30 8494 O 795.666 5.47221 1.56647 0
M  V30 8495 N 796.868 4.75871 3.32456 0
M  V30 8496 H 799.633 2.97816 -0.335547 0
M  V30 8497 H 797.194 1.58602 -0.325129 0
M  V30 8498 H 799.186 3.42496 2.15589 0
M  V30 8499 H 797.756 2.369 2.03954 0
M  V30 8500 H 796.976 3.94036 0.113529 0
M  V30 8501 H 798.264 5.05092 0.613156 0
M  V30 8502 H 797.662 4.2797 3.69944 0
M  V30 8503 H 796.219 5.17383 3.96431 0
M  V30 8504 N 799.652 0.226554 1.55963 0
M  V30 8505 C 800.562 -0.692725 2.24139 0
M  V30 8506 C 801.578 -1.20971 1.25068 0
M  V30 8507 O 802.754 -1.25027 1.57893 0
M  V30 8508 C 799.819 -1.88183 2.91184 0
M  V30 8509 C 798.88 -1.40633 4.05612 0
M  V30 8510 C 798.113 -2.53875 4.6945 0
M  V30 8511 O 798.336 -3.72129 4.32292 0
M  V30 8512 O 797.27 -2.24792 5.58348 0
M  V30 8513 H 801.096 -0.141921 3.03368 0
M  V30 8514 H 798.681 -0.0041049 1.49399 0
M  V30 8515 H 800.563 -2.57617 3.33484 0
M  V30 8516 H 799.238 -2.42064 2.14911 0
M  V30 8517 H 798.145 -0.67986 3.67871 0
M  V30 8518 H 799.478 -0.913838 4.83642 0
M  V30 8519 N 801.13 -1.57531 -0.0467866 0
M  V30 8520 C 802.546 -1.54451 -0.402107 0
M  V30 8521 C 802.746 -0.950275 -1.77685 0
M  V30 8522 O 801.802 -0.563602 -2.4613 0
M  V30 8523 C 803.115 -2.9899 -0.320212 0
M  V30 8524 C 804.663 -3.10452 -0.398588 0
M  V30 8525 C 805.138 -4.56689 -0.346335 0
M  V30 8526 N 806.629 -4.6142 -0.405666 0
M  V30 8527 C 807.364 -5.72087 -0.387845 0
M  V30 8528 N 806.86 -6.92045 -0.32336 0
M  V30 8529 N 808.653 -5.60404 -0.436263 0
M  V30 8530 H 800.804 -1.94515 0.853087 0
M  V30 8531 H 803.067 -0.891397 0.322669 0
M  V30 8532 H 802.773 -3.46124 0.623794 0
M  V30 8533 H 802.647 -3.60164 -1.1208 0
M  V30 8534 H 805.034 -2.63276 -1.33302 0
M  V30 8535 H 805.115 -2.52142 0.431026 0
M  V30 8536 H 804.759 -5.04527 0.584356 0
M  V30 8537 H 804.689 -5.12889 -1.19382 0
M  V30 8538 H 807.18 -3.75105 -0.458737 0
M  V30 8539 H 807.493 -7.7216 -0.314375 0
M  V30 8540 H 805.838 -6.94396 -0.28967 0
M  V30 8541 H 809.029 -4.65586 -0.48451 0
M  V30 8542 H 809.202 -6.46645 -0.418907 0
M  V30 8543 N 802.608 0.318715 -1.54344 0
M  V30 8544 C 803.538 1.39751 -1.87061 0
M  V30 8545 C 804.519 1.53741 -0.727848 0
M  V30 8546 O 805.704 1.67541 -0.982016 0
M  V30 8547 C 802.834 2.76446 -2.10226 0
M  V30 8548 C 801.788 2.77239 -3.26071 0
M  V30 8549 C 801.114 4.17056 -3.34617 0
M  V30 8550 C 802.414 2.40555 -4.63606 0
M  V30 8551 H 804.108 1.12619 -2.77412 0
M  V30 8552 H 801.654 0.540318 -1.33479 0
M  V30 8553 H 803.607 3.51985 -2.31699 0
M  V30 8554 H 802.331 3.05066 -1.16629 0
M  V30 8555 H 800.99 2.04155 -3.04493 0
M  V30 8556 H 800.638 4.42824 -2.3857 0
M  V30 8557 H 800.338 4.18492 -4.12478 0
M  V30 8558 H 801.862 4.94401 -3.5833 0
M  V30 8559 H 803.276 3.05808 -4.84927 0
M  V30 8560 H 801.673 2.53234 -5.44052 0
M  V30 8561 H 802.743 1.35698 -4.65526 0
M  V30 8562 N 804.086 1.46499 0.581025 0
M  V30 8563 C 805.314 1.5547 1.36517 0
M  V30 8564 C 805.729 0.196407 1.87776 0
M  V30 8565 O 805.086 -0.806577 1.63709 0
M  V30 8566 C 805.137 2.56084 2.55154 0
M  V30 8567 O 804.858 3.86637 2.06018 0
M  V30 8568 C 806.359 2.75011 3.47683 0
M  V30 8569 H 803.579 0.525703 0.416986 0
M  V30 8570 H 806.123 1.9192 0.706177 0
M  V30 8571 H 804.278 2.22633 3.17039 0
M  V30 8572 H 804.692 4.41413 2.83292 0
M  V30 8573 H 806.166 3.49329 4.27403 0
M  V30 8574 H 806.643 1.81978 3.99726 0
M  V30 8575 H 807.249 3.09565 2.91632 0
M  V30 8576 N 805.565 -0.825799 1.34232 0
M  V30 8577 C 806.79 -1.61883 1.29648 0
M  V30 8578 C 807.215 -1.87669 -0.127295 0
M  V30 8579 O 806.573 -1.45016 -1.08813 0
M  V30 8580 C 806.621 -2.93846 2.09014 0
M  V30 8581 O 805.725 -3.85778 1.4577 0
M  V30 8582 H 805.066 -0.492454 0.445405 0
M  V30 8583 H 807.596 -1.02641 1.76992 0
M  V30 8584 H 807.606 -3.43435 2.20264 0
M  V30 8585 H 806.281 -2.74401 3.12533 0
M  V30 8586 H 804.858 -3.4429 1.43245 0
M  V30 8587 N 807.043 -1.17915 -1.04565 0
M  V30 8588 C 807.99 -0.901605 -2.12461 0
M  V30 8589 C 808.96 0.157011 -1.65356 0
M  V30 8590 O 810.145 0.0184494 -1.90791 0
M  V30 8591 C 807.285 -0.42796 -3.42436 0
M  V30 8592 C 806.398 -1.55142 -4.03181 0
M  V30 8593 C 805.533 -1.03101 -5.21098 0
M  V30 8594 C 804.572 -2.1295 -5.73863 0
M  V30 8595 N 803.709 -1.62339 -6.83074 0
M  V30 8596 H 808.549 -1.82551 -2.3554 0
M  V30 8597 H 806.086 -0.910389 -1.15544 0
M  V30 8598 H 808.044 -0.134859 -4.16982 0
M  V30 8599 H 806.674 0.458977 -3.1952 0
M  V30 8600 H 805.726 -1.96011 -3.26012 0
M  V30 8601 H 807.038 -2.37968 -4.38375 0
M  V30 8602 H 806.192 -0.692132 -6.02739 0
M  V30 8603 H 804.931 -0.17227 -4.87396 0
M  V30 8604 H 803.936 -2.47687 -4.90847 0
M  V30 8605 H 805.161 -2.9925 -6.09611 0
M  V30 8606 H 803.107 -0.787464 -6.51256 0
M  V30 8607 H 803.024 -2.38767 -7.17305 0
M  V30 8608 H 804.292 -1.31363 -7.68351 0
M  V30 8609 N 808.521 1.23394 -0.980386 0
M  V30 8610 C 809.451 2.2717 -0.540024 0
M  V30 8611 C 810.432 1.64659 0.426787 0
M  V30 8612 O 811.617 1.91543 0.320153 0
M  V30 8613 C 808.747 3.46939 0.15836 0
M  V30 8614 C 807.701 4.21802 -0.725732 0
M  V30 8615 C 807.027 5.34597 0.104866 0
M  V30 8616 C 808.327 4.81802 -2.01654 0
M  V30 8617 H 810.021 2.64257 -1.40743 0
M  V30 8618 H 807.567 1.2703 -0.678193 0
M  V30 8619 H 809.52 4.18683 0.477737 0
M  V30 8620 H 808.244 3.08912 1.06022 0
M  V30 8621 H 806.903 3.51875 -1.02857 0
M  V30 8622 H 806.551 4.92812 1.00726 0
M  V30 8623 H 806.251 5.85607 -0.483557 0
M  V30 8624 H 807.775 6.09163 0.418624 0
M  V30 8625 H 809.189 5.45554 -1.76193 0
M  V30 8626 H 807.586 5.43098 -2.55273 0
M  V30 8627 H 808.656 4.02549 -2.70338 0
M  V30 8628 N 809.999 0.752036 1.385 0
M  V30 8629 C 811.248 0.304294 1.99391 0
M  V30 8630 C 811.561 -1.11982 1.60373 0
M  V30 8631 O 812.767 -1.66795 2.14223 0
M  V30 8632 C 811.223 0.493101 3.56506 0
M  V30 8633 C 810.831 1.9262 4.04477 0
M  V30 8634 C 812.575 0.107994 4.24363 0
M  V30 8635 C 810.482 2.06365 5.54227 0
M  V30 8636 H 809.412 0.110024 0.745929 0
M  V30 8637 H 812.063 0.928355 1.58284 0
M  V30 8638 H 810.445 -0.20012 3.95494 0
M  V30 8639 H 811.619 2.65276 3.76783 0
M  V30 8640 H 809.934 2.26608 3.49339 0
M  V30 8641 H 812.531 0.189474 5.34364 0
M  V30 8642 H 812.874 -0.939165 4.05568 0
M  V30 8643 H 813.407 0.753011 3.90608 0
M  V30 8644 H 810.146 3.0933 5.77923 0
M  V30 8645 H 809.666 1.38167 5.83669 0
M  V30 8646 H 811.345 1.85286 6.19902 0
M  V30 8647 N 811.477 -1.49425 0.500989 0
M  V30 8648 C 812.754 -1.9531 -0.106551 0
M  V30 8649 C 813.134 -1.44248 -1.54129 0
M  V30 8650 O 812.482 -0.656237 -2.18874 0
M  V30 8651 C 812.692 -3.48995 -0.0191972 0
M  V30 8652 C 814.04 -4.24161 -0.193129 0
M  V30 8653 O 815.064 -3.56075 -0.0943843 0
M  V30 8654 O 813.923 -5.45064 -0.395869 0
M  V30 8655 H 811.017 -0.82149 -0.0953068 0
M  V30 8656 H 813.563 -1.6007 0.563526 0
M  V30 8657 H 812.335 -3.78794 0.981353 0
M  V30 8658 H 811.958 -3.90852 -0.72942 0
M  V30 8659 N 812.955 -0.234822 -1.55841 0
M  V30 8660 C 814.201 0.393843 -1.98939 0
M  V30 8661 C 814.534 1.58466 -1.1226 0
M  V30 8662 O 813.809 1.93635 -0.183242 0
M  V30 8663 C 814.092 0.815492 -3.50745 0
M  V30 8664 C 813.945 -0.379878 -4.48193 0
M  V30 8665 C 815.264 1.66687 -4.07312 0
M  V30 8666 H 812.383 0.141681 -0.723253 0
M  V30 8667 H 815.025 -0.333716 -1.87046 0
M  V30 8668 H 813.175 1.43541 -3.6101 0
M  V30 8669 H 814.847 -1.0182 -4.49923 0
M  V30 8670 H 813.09 -1.02507 -4.21515 0
M  V30 8671 H 813.761 -0.0417069 -5.51984 0
M  V30 8672 H 816.237 1.14369 -4.00074 0
M  V30 8673 H 815.113 1.93078 -5.13821 0
M  V30 8674 H 815.374 2.63468 -3.55017 0
M  V30 8675 N 814.433 1.57553 0.0384317 0
M  V30 8676 C 815.381 2.07021 1.06043 0
M  V30 8677 C 816.375 0.982078 1.38028 0
M  V30 8678 O 817.581 1.16702 1.37042 0
M  V30 8679 H 813.956 0.660522 0.359464 0
M  V30 8680 H 815.927 2.91944 0.617339 0
M  V30 8681 C 814.676 2.55734 2.35574 0
M  V30 8682 H 813.999 3.39074 2.11822 0
M  V30 8683 H 815.439 2.94066 3.05452 0
M  V30 8684 C 813.898 1.45449 3.03885 0
M  V30 8685 O 814.428 0.815402 3.93337 0
M  V30 8686 N 812.634 1.19134 2.65058 0
M  V30 8687 H 812.181 1.71288 1.92401 0
M  V30 8688 H 812.139 0.455554 3.11082 0
M  V30 8689 N 815.911 -0.310526 1.54511 0
M  V30 8690 C 816.841 -1.38757 1.878 0
M  V30 8691 C 817.822 -1.53353 0.735991 0
M  V30 8692 O 819.007 -1.67018 0.990887 0
M  V30 8693 C 816.137 -2.75327 2.11689 0
M  V30 8694 C 815.091 -2.75506 3.27537 0
M  V30 8695 C 814.417 -4.15275 3.36824 0
M  V30 8696 C 815.717 -2.38093 4.64875 0
M  V30 8697 H 817.411 -1.11146 2.78005 0
M  V30 8698 H 814.957 -0.533232 1.33763 0
M  V30 8699 H 816.91 -3.50752 2.33562 0
M  V30 8700 H 815.634 -3.04443 1.18245 0
M  V30 8701 H 814.293 -2.02538 3.05572 0
M  V30 8702 H 813.941 -4.41553 2.40915 0
M  V30 8703 H 813.641 -4.16299 4.14692 0
M  V30 8704 H 815.165 -4.92493 3.60947 0
M  V30 8705 H 816.579 -3.03232 4.86542 0
M  V30 8706 H 814.976 -2.50345 5.45387 0
M  V30 8707 H 816.046 -1.33227 4.66239 0
M  V30 8708 N 817.389 -1.46805 -0.573248 0
M  V30 8709 C 818.635 -1.5283 -1.33307 0
M  V30 8710 C 818.968 -0.183287 -1.93333 0
M  V30 8711 O 818.243 0.806354 -1.76998 0
M  V30 8712 C 818.526 -2.63414 -2.45531 0
M  V30 8713 C 818.379 -4.07478 -1.90478 0
M  V30 8714 C 819.698 -2.70014 -3.47535 0
M  V30 8715 H 816.817 -0.556371 -0.483343 0
M  V30 8716 H 819.459 -1.78787 -0.643066 0
M  V30 8717 H 817.609 -2.41412 -3.04389 0
M  V30 8718 H 819.281 -4.40795 -1.36004 0
M  V30 8719 H 817.524 -4.16511 -1.21248 0
M  V30 8720 H 818.195 -4.80598 -2.71531 0
M  V30 8721 H 820.671 -2.89817 -2.98572 0
M  V30 8722 H 819.547 -3.49192 -4.23504 0
M  V30 8723 H 819.808 -1.76436 -4.05367 0
M  V30 8724 N 818.867 0.818669 -1.34668 0
M  V30 8725 C 820.115 1.57201 -1.27013 0
M  V30 8726 C 820.436 1.94354 0.158599 0
M  V30 8727 O 819.706 1.62626 1.09223 0
M  V30 8728 H 818.286 0.582919 -0.467135 0
M  V30 8729 H 820.948 0.977234 -1.6863 0
M  V30 8730 H 820.044 2.49291 -1.87778 0
M  V30 8731 N 820.346 1.18468 1.03938 0
M  V30 8732 C 821.757 0.984808 1.58614 0
M  V30 8733 C 822.108 -0.465165 1.90606 0
M  V30 8734 O 821.233 -1.34274 1.69704 0
M  V30 8735 C 821.828 1.78135 2.8819 0
M  V30 8736 C 820.387 1.62579 3.39478 0
M  V30 8737 C 819.534 1.77501 2.13046 0
M  V30 8738 H 822.485 1.32993 0.865944 0
M  V30 8739 H 822.506 1.27119 3.58638 0
M  V30 8740 H 822.018 2.83661 2.64874 0
M  V30 8741 H 820.119 0.59595 3.67803 0
M  V30 8742 H 820.232 2.42463 4.13217 0
M  V30 8743 H 818.596 1.2046 2.24414 0
M  V30 8744 H 819.379 2.84464 1.92185 0
M  V30 8745 N 821.824 -1.22873 0.986916 0
M  V30 8746 C 822.754 -2.2688 0.552064 0
M  V30 8747 C 823.735 -1.64883 -0.418048 0
M  V30 8748 O 824.92 -1.9171 -0.30999 0
M  V30 8749 C 822.05 -3.47018 -0.139959 0
M  V30 8750 C 821.004 -4.21411 0.748091 0
M  V30 8751 C 820.33 -5.34645 -0.0765132 0
M  V30 8752 C 821.63 -4.80726 2.04206 0
M  V30 8753 H 823.324 -2.63507 1.42143 0
M  V30 8754 H 820.87 -1.26668 0.68492 0
M  V30 8755 H 822.823 -4.18931 -0.455527 0
M  V30 8756 H 821.547 -3.0947 -1.04382 0
M  V30 8757 H 820.206 -3.51325 1.04721 0
M  V30 8758 H 819.854 -4.93339 -0.981109 0
M  V30 8759 H 819.554 -5.85342 0.514606 0
M  V30 8760 H 821.078 -6.09377 -0.386313 0
M  V30 8761 H 822.492 -5.44612 1.79083 0
M  V30 8762 H 820.889 -5.41737 2.5815 0
M  V30 8763 H 821.959 -4.01109 2.72469 0
M  V30 8764 N 823.302 -0.75937 -1.38099 0
M  V30 8765 C 824.542 -0.323116 -2.0183 0
M  V30 8766 C 824.906 1.07658 -1.58977 0
M  V30 8767 O 826.107 1.61227 -2.1508 0
M  V30 8768 C 824.378 -0.448234 -3.54578 0
M  V30 8769 S 825.937 -0.0954152 -4.38696 0
M  V30 8770 H 822.755 -0.125013 -0.699923 0
M  V30 8771 H 825.357 -0.991262 -1.68506 0
M  V30 8772 H 824.061 -1.46778 -3.83255 0
M  V30 8773 H 823.592 0.236895 -3.92686 0
M  V30 8774 H 825.607 1.11312 -4.83554 0
M  V30 8775 N 824.78 1.49157 -0.508906 0
M  V30 8776 C 825.71 2.32109 0.254469 0
M  V30 8777 C 826.691 1.40754 0.955111 0
M  V30 8778 O 827.876 1.69658 0.944983 0
M  V30 8779 C 825.006 3.21458 1.3146 0
M  V30 8780 C 823.96 4.2167 0.733368 0
M  V30 8781 C 823.286 5.00009 1.8946 0
M  V30 8782 C 824.586 5.21544 -0.280875 0
M  V30 8783 H 826.28 2.9618 -0.43795 0
M  V30 8784 H 823.826 1.4243 -0.212062 0
M  V30 8785 H 825.779 3.78305 1.85643 0
M  V30 8786 H 824.503 2.55346 2.03632 0
M  V30 8787 H 823.162 3.65979 0.213231 0
M  V30 8788 H 822.81 4.30338 2.60419 0
M  V30 8789 H 822.51 5.67821 1.51173 0
M  V30 8790 H 824.034 5.59702 2.44061 0
M  V30 8791 H 825.448 5.73039 0.173095 0
M  V30 8792 H 823.845 5.97291 -0.580006 0
M  V30 8793 H 824.915 4.69969 -1.19404 0
M  V30 8794 N 826.258 0.243083 1.55714 0
M  V30 8795 C 827.535 -0.432851 1.90751 0
M  V30 8796 C 827.915 -1.76153 1.16333 0
M  V30 8797 O 827.263 -2.26783 0.279565 0
M  V30 8798 C 827.473 -0.604685 3.43722 0
M  V30 8799 C 828.821 -0.90231 4.14902 0
M  V30 8800 O 829.845 -0.690689 3.49439 0
M  V30 8801 O 828.704 -1.3051 5.30688 0
M  V30 8802 H 825.798 -0.231835 0.79384 0
M  V30 8803 H 828.344 0.286867 1.67258 0
M  V30 8804 H 827.116 0.331655 3.89892 0
M  V30 8805 H 826.739 -1.37509 3.73065 0
M  V30 8806 N 827.736 -1.57571 -0.0300757 0
M  V30 8807 C 828.983 -1.89226 -0.721091 0
M  V30 8808 C 829.311 -0.840244 -1.75414 0
M  V30 8809 O 828.566 0.158906 -1.95054 0
M  V30 8810 C 828.865 -3.27624 -1.42818 0
M  V30 8811 C 828.531 -4.4776 -0.531208 0
M  V30 8812 C 827.193 -4.8036 -0.28415 0
M  V30 8813 C 829.545 -5.21125 0.0881582 0
M  V30 8814 C 826.873 -5.83715 0.591065 0
M  V30 8815 C 829.225 -6.2541 0.95107 0
M  V30 8816 C 827.889 -6.56486 1.2076 0
M  V30 8817 H 827.159 -0.692428 -0.263866 0
M  V30 8818 H 829.806 -1.91491 0.0189874 0
M  V30 8819 H 828.111 -3.21343 -2.24155 0
M  V30 8820 H 829.808 -3.49365 -1.96838 0
M  V30 8821 H 826.398 -4.2227 -0.73392 0
M  V30 8822 H 830.582 -4.96219 -0.0897496 0
M  V30 8823 H 825.838 -6.06168 0.798132 0
M  V30 8824 H 830.012 -6.81402 1.43751 0
M  V30 8825 H 827.639 -7.36395 1.88751 0
M  V30 8826 N 829.214 0.302327 -1.54673 0
M  V30 8827 C 830.463 1.03533 -1.73101 0
M  V30 8828 C 830.776 1.88473 -0.523174 0
M  V30 8829 O 831.982 2.65029 -0.589229 0
M  V30 8830 C 830.438 1.89043 -3.06252 0
M  V30 8831 C 830.046 1.09112 -4.3451 0
M  V30 8832 C 831.79 2.61951 -3.34039 0
M  V30 8833 C 829.697 1.93891 -5.58713 0
M  V30 8834 H 828.627 0.390261 -0.645145 0
M  V30 8835 H 831.278 0.2924 -1.81155 0
M  V30 8836 H 829.66 2.67319 -2.92159 0
M  V30 8837 H 830.834 0.354596 -4.59434 0
M  V30 8838 H 829.149 0.477923 -4.13648 0
M  V30 8839 H 831.746 3.25729 -4.24033 0
M  V30 8840 H 832.089 3.30711 -2.52855 0
M  V30 8841 H 832.622 1.90725 -3.49097 0
M  V30 8842 H 829.361 1.29604 -6.4256 0
M  V30 8843 H 828.881 2.6522 -5.37976 0
M  V30 8844 H 830.56 2.51971 -5.95919 0
M  V30 8845 N 830.692 1.47107 0.565454 0
M  V30 8846 C 831.917 1.57153 1.35343 0
M  V30 8847 C 832.342 0.219247 1.86818 0
M  V30 8848 O 831.7 -0.803539 1.62521 0
M  V30 8849 C 831.748 2.59387 2.50501 0
M  V30 8850 O 830.852 2.14086 3.52478 0
M  V30 8851 H 830.193 0.528209 0.402357 0
M  V30 8852 H 832.723 1.92821 0.684189 0
M  V30 8853 H 832.733 2.79546 2.97184 0
M  V30 8854 H 831.408 3.57579 2.12391 0
M  V30 8855 H 829.985 2.03991 3.12157 0
M  V30 8856 N 832.17 -0.811516 1.35101 0
M  V30 8857 C 833.117 -1.92308 1.27617 0
M  V30 8858 C 834.087 -1.6543 0.149091 0
M  V30 8859 O 835.272 -1.8789 0.331974 0
M  V30 8860 C 832.412 -3.28768 1.04908 0
M  V30 8861 C 831.525 -3.67865 2.26493 0
M  V30 8862 C 830.66 -4.9333 1.96974 0
M  V30 8863 C 829.699 -5.25041 3.1464 0
M  V30 8864 N 828.836 -6.41685 2.84929 0
M  V30 8865 H 833.676 -1.98041 2.22674 0
M  V30 8866 H 831.213 -0.968755 1.10696 0
M  V30 8867 H 833.171 -4.07426 0.897749 0
M  V30 8868 H 831.801 -3.22517 0.135151 0
M  V30 8869 H 830.853 -2.84507 2.52507 0
M  V30 8870 H 832.165 -3.87263 3.14371 0
M  V30 8871 H 831.319 -5.79803 1.78643 0
M  V30 8872 H 830.058 -4.75958 1.06374 0
M  V30 8873 H 829.063 -4.3706 3.33554 0
M  V30 8874 H 830.288 -5.44346 4.06035 0
M  V30 8875 H 828.234 -6.25747 1.96918 0
M  V30 8876 H 828.151 -6.6131 3.66341 0
M  V30 8877 H 829.419 -7.31198 2.70128 0
M  V30 8878 N 833.648 -1.19017 -1.03309 0
M  V30 8879 C 834.578 -0.94772 -2.13402 0
M  V30 8880 C 835.559 0.117383 -1.69694 0
M  V30 8881 O 836.744 -0.0367733 -1.94165 0
M  V30 8882 C 833.874 -0.480977 -3.43953 0
M  V30 8883 C 832.828 -1.48743 -4.01322 0
M  V30 8884 C 832.154 -0.877924 -5.27443 0
M  V30 8885 C 833.454 -2.86642 -4.36616 0
M  V30 8886 H 835.148 -1.86846 -2.33942 0
M  V30 8887 H 832.694 -0.899781 -1.12427 0
M  V30 8888 H 834.647 -0.298677 -4.2034 0
M  V30 8889 H 833.371 0.475348 -3.23122 0
M  V30 8890 H 832.03 -1.65681 -3.27025 0
M  V30 8891 H 831.678 0.0858232 -5.02927 0
M  V30 8892 H 831.378 -1.54996 -5.66789 0
M  V30 8893 H 832.902 -0.706326 -6.06501 0
M  V30 8894 H 834.316 -2.73312 -5.03958 0
M  V30 8895 H 832.713 -3.50599 -4.87032 0
M  V30 8896 H 833.783 -3.39617 -3.46105 0
M  V30 8897 N 835.127 1.22348 -0.993418 0
M  V30 8898 C 836.06 2.22898 -0.489073 0
M  V30 8899 C 837.038 1.56222 0.450927 0
M  V30 8900 O 838.222 1.84705 0.376351 0
M  V30 8901 C 835.349 3.37448 0.290946 0
M  V30 8902 C 834.395 4.22328 -0.595123 0
M  V30 8903 S 835.228 4.94677 -2.05072 0
M  V30 8904 C 836.384 6.12667 -1.28021 0
M  V30 8905 H 836.617 2.65333 -1.34111 0
M  V30 8906 H 834.15 1.32032 -0.800429 0
M  V30 8907 H 836.108 4.03867 0.734944 0
M  V30 8908 H 834.769 2.93519 1.11826 0
M  V30 8909 H 833.962 5.04 0.00507413 0
M  V30 8910 H 833.564 3.61043 -0.975906 0
M  V30 8911 H 835.856 6.75279 -0.548129 0
M  V30 8912 H 836.799 6.771 -2.07223 0
M  V30 8913 H 837.207 5.58898 -0.793272 0
M  V30 8914 N 836.605 0.766683 1.37694 0
M  V30 8915 C 837.553 0.137269 2.32195 0
M  V30 8916 C 838.547 -0.69067 1.54681 0
M  V30 8917 O 839.753 -0.588299 1.70115 0
M  V30 8918 H 836.128 0.0256003 0.751564 0
M  V30 8919 H 838.099 0.950129 2.82869 0
M  V30 8920 C 836.848 -0.731446 3.39919 0
M  V30 8921 H 836.171 -0.103738 3.99665 0
M  V30 8922 H 837.611 -1.13891 4.08417 0
M  V30 8923 C 836.07 -1.87984 2.79578 0
M  V30 8924 O 836.6 -2.97496 2.69924 0
M  V30 8925 N 834.806 -1.6789 2.37195 0
M  V30 8926 H 834.353 -0.788162 2.45246 0
M  V30 8927 H 834.311 -2.44894 1.97165 0
M  V30 8928 N 838.083 -1.48885 0.516809 0
M  V30 8929 C 839.331 -2.02088 -0.0220166 0
M  V30 8930 C 839.652 -1.39735 -1.36011 0
M  V30 8931 O 838.922 -0.558119 -1.87781 0
M  V30 8932 H 837.502 -0.746917 -0.0111255 0
M  V30 8933 H 840.164 -1.8274 0.677647 0
M  V30 8934 H 839.26 -3.11786 -0.140067 0
M  V30 8935 N 839.561 -0.251338 -1.55583 0
M  V30 8936 C 840.808 0.372169 -1.99051 0
M  V30 8937 C 841.136 1.57623 -1.13953 0
M  V30 8938 O 840.391 1.94762 -0.191398 0
M  V30 8939 C 840.69 0.821186 -3.47838 0
M  V30 8940 C 840.356 -0.275608 -4.50057 0
M  V30 8941 C 839.018 -0.57683 -4.7773 0
M  V30 8942 C 841.37 -1.01585 -5.11204 0
M  V30 8943 C 838.698 -1.62229 -5.63825 0
M  V30 8944 C 841.05 -2.05087 -5.98433 0
M  V30 8945 C 839.714 -2.35869 -6.24437 0
M  V30 8946 H 838.984 0.136186 -0.728378 0
M  V30 8947 H 841.631 -0.360089 -1.88084 0
M  V30 8948 H 839.936 1.63272 -3.56159 0
M  V30 8949 H 841.633 1.31396 -3.78861 0
M  V30 8950 H 838.223 -0.030697 -4.28589 0
M  V30 8951 H 842.407 -0.79639 -4.89869 0
M  V30 8952 H 837.663 -1.86607 -5.82226 0
M  V30 8953 H 841.837 -2.62934 -6.44855 0
M  V30 8954 H 839.464 -3.17017 -6.90944 0
M  V30 8955 N 841.039 1.57585 0.0217189 0
M  V30 8956 C 841.969 2.10073 1.01939 0
M  V30 8957 C 842.95 1.0049 1.37243 0
M  V30 8958 O 844.135 1.28055 1.45999 0
M  V30 8959 C 841.265 2.58618 2.31806 0
M  V30 8960 C 840.219 3.72531 2.10724 0
M  V30 8961 C 839.545 4.07309 3.46415 0
M  V30 8962 C 840.845 5.00672 1.48743 0
M  V30 8963 H 842.539 2.9368 0.582432 0
M  V30 8964 H 840.085 1.41277 0.278715 0
M  V30 8965 H 842.038 2.9396 3.01936 0
M  V30 8966 H 840.762 1.72104 2.77575 0
M  V30 8967 H 839.421 3.37549 1.43025 0
M  V30 8968 H 839.069 3.17851 3.89846 0
M  V30 8969 H 838.769 4.84042 3.33132 0
M  V30 8970 H 840.293 4.45192 4.17895 0
M  V30 8971 H 841.707 5.33925 2.088 0
M  V30 8972 H 840.104 5.82065 1.46013 0
M  V30 8973 H 841.174 4.82769 0.45408 0
M  V30 8974 N 842.517 -0.29412 1.54831 0
M  V30 8975 C 843.747 -1.04572 1.7818 0
M  V30 8976 C 844.155 -1.81187 0.544776 0
M  V30 8977 O 843.498 -1.769 -0.495169 0
M  V30 8978 C 843.56 -2.06748 2.94101 0
M  V30 8979 C 843.224 -1.49265 4.31936 0
M  V30 8980 C 844.221 -0.919136 5.11711 0
M  V30 8981 C 841.906 -1.52621 4.78552 0
M  V30 8982 C 843.9 -0.386824 6.36225 0
M  V30 8983 C 841.587 -0.990031 6.03027 0
M  V30 8984 C 842.585 -0.421315 6.81699 0
M  V30 8985 O 842.273 0.106713 8.03829 0
M  V30 8986 H 842.005 -0.31559 0.597812 0
M  V30 8987 H 844.559 -0.336817 2.0262 0
M  V30 8988 H 842.789 -2.81339 2.65303 0
M  V30 8989 H 844.478 -2.67865 3.04964 0
M  V30 8990 H 845.244 -0.886062 4.76837 0
M  V30 8991 H 841.123 -1.95826 4.17341 0
M  V30 8992 H 844.667 0.0577248 6.97576 0
M  V30 8993 H 840.564 -1.02027 6.37386 0
M  V30 8994 H 841.332 -0.00593526 8.185 0
M  V30 8995 N 843.995 -1.47404 -0.557645 0
M  V30 8996 C 845.411 -1.32913 -0.88353 0
M  V30 8997 C 845.611 -0.31929 -1.98954 0
M  V30 8998 O 844.667 0.26934 -2.51059 0
M  V30 8999 C 845.98 -2.72229 -1.27718 0
M  V30 9000 C 847.528 -2.8051 -1.38863 0
M  V30 9001 C 848.003 -4.20466 -1.81583 0
M  V30 9002 N 849.494 -4.23005 -1.88735 0
M  V30 9003 C 850.229 -5.2821 -2.23118 0
M  V30 9004 N 849.725 -6.4372 -2.56117 0
M  V30 9005 N 851.518 -5.15588 -2.23888 0
M  V30 9006 H 843.669 -2.11698 0.172557 0
M  V30 9007 H 845.932 -0.947889 0.0145334 0
M  V30 9008 H 845.638 -3.47556 -0.538329 0
M  V30 9009 H 845.512 -3.03971 -2.23342 0
M  V30 9010 H 847.899 -2.05457 -2.11829 0
M  V30 9011 H 847.98 -2.52423 -0.414274 0
M  V30 9012 H 847.624 -4.96025 -1.09187 0
M  V30 9013 H 847.554 -4.45977 -2.80021 0
M  V30 9014 H 850.045 -3.39674 -1.65621 0
M  V30 9015 H 850.358 -7.19754 -2.81378 0
M  V30 9016 H 848.703 -6.47041 -2.53698 0
M  V30 9017 H 851.894 -4.24374 -1.97546 0
M  V30 9018 H 852.067 -5.97685 -2.50353 0
M  V30 9019 N 845.473 0.80434 -1.35529 0
M  V30 9020 C 846.698 1.598 -1.32207 0
M  V30 9021 C 847.123 1.87848 0.0974226 0
M  V30 9022 O 846.481 1.46728 1.06492 0
M  V30 9023 C 846.529 2.90483 -2.13663 0
M  V30 9024 O 845.633 3.83411 -1.51888 0
M  V30 9025 H 844.974 0.485305 -0.453183 0
M  V30 9026 H 847.504 0.998119 -1.78602 0
M  V30 9027 H 847.514 3.39888 -2.257 0
M  V30 9028 H 846.189 2.69395 -3.16859 0
M  V30 9029 H 844.766 3.41967 -1.48704 0
M  V30 9030 N 846.951 1.19563 1.02676 0
M  V30 9031 C 847.883 0.893054 2.11086 0
M  V30 9032 C 848.896 -0.115101 1.62393 0
M  V30 9033 O 850.085 0.11459 1.78132 0
M  V30 9034 C 847.185 0.315533 3.37428 0
M  V30 9035 C 846.358 1.37276 4.153 0
M  V30 9036 C 845.417 0.808398 5.19953 0
M  V30 9037 O 844.443 1.48661 5.49444 0
M  V30 9038 N 845.645 -0.387253 5.79207 0
M  V30 9039 H 848.41 1.82622 2.37633 0
M  V30 9040 H 845.971 1.09792 1.18984 0
M  V30 9041 H 847.963 -0.0759166 4.04629 0
M  V30 9042 H 846.533 -0.521961 3.08211 0
M  V30 9043 H 845.753 1.93897 3.43217 0
M  V30 9044 H 847.041 2.08509 4.64114 0
M  V30 9045 H 846.439 -0.955725 5.57568 0
M  V30 9046 H 844.996 -0.720457 6.47806 0
M  V30 9047 N 848.429 -1.21819 0.999893 0
M  V30 9048 C 849.659 -1.94475 0.697346 0
M  V30 9049 C 850.067 -1.73991 -0.743228 0
M  V30 9050 O 849.41 -1.04042 -1.51397 0
M  V30 9051 C 849.472 -3.47204 0.932181 0
M  V30 9052 C 849.136 -3.91432 2.3586 0
M  V30 9053 C 850.133 -3.98545 3.33853 0
M  V30 9054 C 847.818 -4.23888 2.69489 0
M  V30 9055 C 849.812 -4.37499 4.63545 0
M  V30 9056 C 847.499 -4.62519 3.99399 0
M  V30 9057 C 848.497 -4.69294 4.96238 0
M  V30 9058 O 848.185 -5.07048 6.23825 0
M  V30 9059 H 847.917 -0.625419 0.256567 0
M  V30 9060 H 850.471 -1.55728 1.33933 0
M  V30 9061 H 848.701 -3.85997 0.233025 0
M  V30 9062 H 850.39 -4.01078 0.623807 0
M  V30 9063 H 851.156 -3.73654 3.09205 0
M  V30 9064 H 847.035 -4.17815 1.94812 0
M  V30 9065 H 850.579 -4.42702 5.3913 0
M  V30 9066 H 846.476 -4.86864 4.23833 0
M  V30 9067 H 847.244 -5.25098 6.27865 0
M  V30 9068 N 849.908 -0.773975 -1.37286 0
M  V30 9069 C 850.858 -0.135245 -2.27599 0
M  V30 9070 C 851.842 0.671691 -1.46209 0
M  V30 9071 O 853.034 0.534299 -1.68743 0
M  V30 9072 C 850.163 0.741298 -3.35201 0
M  V30 9073 C 849.249 -0.0735896 -4.24036 0
M  V30 9074 N 849.64 -1.12035 -4.93236 0
M  V30 9075 C 847.938 0.150038 -4.45748 0
M  V30 9076 C 848.639 -1.61512 -5.58828 0
M  V30 9077 N 847.615 -0.926922 -5.35639 0
M  V30 9078 H 851.417 -0.936646 -2.78575 0
M  V30 9079 H 848.931 -0.611944 -1.50429 0
M  V30 9080 H 850.928 1.21468 -3.98812 0
M  V30 9081 H 849.588 1.54142 -2.8578 0
M  V30 9082 H 850.599 -1.50253 -4.95625 0
M  V30 9083 H 847.276 0.921891 -4.07195 0
M  V30 9084 H 848.666 -2.48818 -6.24131 0
M  V30 9085 N 851.386 1.48609 -0.524698 0
M  V30 9086 C 852.318 2.27508 0.278 0
M  V30 9087 C 853.331 1.35042 0.909258 0
M  V30 9088 O 854.52 1.60136 0.788592 0
M  V30 9089 C 851.62 3.08247 1.40843 0
M  V30 9090 C 850.793 4.28455 0.880083 0
M  V30 9091 C 849.852 4.91048 1.891 0
M  V30 9092 O 848.878 5.5042 1.45005 0
M  V30 9093 N 850.08 4.82816 3.22288 0
M  V30 9094 H 852.845 2.97037 -0.398642 0
M  V30 9095 H 850.406 1.57876 -0.358698 0
M  V30 9096 H 852.398 3.46992 2.08276 0
M  V30 9097 H 850.968 2.41173 1.98883 0
M  V30 9098 H 850.188 3.94189 0.0299228 0
M  V30 9099 H 851.476 5.06279 0.505881 0
M  V30 9100 H 850.874 4.3572 3.60783 0
M  V30 9101 H 849.431 5.25676 3.85368 0
M  V30 9102 N 852.864 0.259585 1.55447 0
M  V30 9103 C 854.141 -0.412595 1.91199 0
M  V30 9104 C 854.521 -1.74909 1.18194 0
M  V30 9105 O 853.869 -2.26474 0.303603 0
M  V30 9106 C 854.079 -0.568195 3.44344 0
M  V30 9107 C 855.427 -0.858253 4.15836 0
M  V30 9108 O 856.451 -0.653588 3.50152 0
M  V30 9109 O 855.31 -1.24874 5.32042 0
M  V30 9110 H 852.404 -0.223403 0.796254 0
M  V30 9111 H 854.95 0.30459 1.66944 0
M  V30 9112 H 853.722 0.372989 3.89518 0
M  V30 9113 H 853.345 -1.33544 3.74502 0
M  V30 9114 N 854.342 -1.57594 -0.0133615 0
M  V30 9115 C 855.274 -2.04402 -1.03695 0
M  V30 9116 C 856.287 -0.959546 -1.31516 0
M  V30 9117 O 857.476 -1.23659 -1.28727 0
M  V30 9118 C 854.576 -2.41766 -2.37491 0
M  V30 9119 C 853.749 -3.72785 -2.28802 0
M  V30 9120 C 852.808 -3.97165 -3.45176 0
M  V30 9121 O 851.834 -4.68013 -3.23963 0
M  V30 9122 N 853.036 -3.44021 -4.67579 0
M  V30 9123 H 855.801 -2.92833 -0.637874 0
M  V30 9124 H 853.362 -1.60647 -0.20101 0
M  V30 9125 H 855.354 -2.55201 -3.14093 0
M  V30 9126 H 853.924 -1.58924 -2.69188 0
M  V30 9127 H 853.144 -3.69555 -1.37197 0
M  V30 9128 H 854.432 -4.58704 -2.20154 0
M  V30 9129 H 853.83 -2.86623 -4.87713 0
M  V30 9130 H 852.387 -3.62808 -5.41492 0
M  V30 9131 N 855.82 0.285905 -1.54985 0
M  V30 9132 C 857.097 1.0397 -1.65679 0
M  V30 9133 C 857.477 2.04725 -0.514851 0
M  V30 9134 O 856.825 2.23257 0.486663 0
M  V30 9135 C 857.035 1.70807 -3.04345 0
M  V30 9136 C 858.383 2.22447 -3.61666 0
M  V30 9137 O 859.407 1.80815 -3.06895 0
M  V30 9138 O 858.266 2.98773 -4.57599 0
M  V30 9139 H 855.36 0.481473 -0.672394 0
M  V30 9140 H 857.906 0.282789 -1.67327 0
M  V30 9141 H 856.678 0.977271 -3.789 0
M  V30 9142 H 856.301 2.53217 -3.06541 0
M  V30 9143 N 857.298 1.47698 0.54982 0
M  V30 9144 C 858.544 1.54931 1.30859 0
M  V30 9145 C 858.877 0.214021 1.93017 0
M  V30 9146 O 858.152 -0.778093 1.78258 0
M  V30 9147 C 858.435 2.67286 2.41309 0
M  V30 9148 C 858.288 4.10457 1.83971 0
M  V30 9149 C 859.607 2.75509 3.43195 0
M  V30 9150 H 856.726 0.56399 0.474431 0
M  V30 9151 H 859.368 1.79787 0.614541 0
M  V30 9152 H 857.518 2.46224 3.0051 0
M  V30 9153 H 859.19 4.42903 1.28974 0
M  V30 9154 H 857.433 4.18387 1.14606 0
M  V30 9155 H 858.104 4.84857 2.63851 0
M  V30 9156 H 860.58 2.94531 2.93923 0
M  V30 9157 H 859.456 3.55886 4.17895 0
M  V30 9158 H 859.717 1.82863 4.02509 0
M  V30 9159 N 858.776 -0.797141 1.35954 0
M  V30 9160 C 860.022 -1.55698 1.29946 0
M  V30 9161 C 860.355 -1.93808 -0.123259 0
M  V30 9162 O 859.63 -1.62102 -1.07486 0
M  V30 9163 C 859.913 -2.83926 2.2149 0
M  V30 9164 C 859.766 -2.52232 3.72423 0
M  V30 9165 C 861.085 -3.85698 2.11955 0
M  V30 9166 H 858.204 -0.56488 0.47337 0
M  V30 9167 H 860.846 -0.916421 1.66438 0
M  V30 9168 H 858.996 -3.38588 1.905 0
M  V30 9169 H 860.668 -2.0368 4.13899 0
M  V30 9170 H 858.911 -1.85286 3.92239 0
M  V30 9171 H 859.582 -3.43782 4.31877 0
M  V30 9172 H 862.058 -3.40462 2.39218 0
M  V30 9173 H 860.934 -4.73182 2.78191 0
M  V30 9174 H 861.195 -4.28083 1.10442 0
M  V30 9175 N 860.254 -1.20106 -1.0204 0
M  V30 9176 C 861.531 -0.918029 -1.72718 0
M  V30 9177 C 861.911 0.574163 -2.03142 0
M  V30 9178 O 861.259 1.53476 -1.69285 0
M  V30 9179 C 861.469 -1.78698 -2.9978 0
M  V30 9180 C 862.817 -2.02648 -3.7312 0
M  V30 9181 O 863.841 -1.75919 -3.09727 0
M  V30 9182 O 862.7 -2.47767 -4.87107 0
M  V30 9183 H 859.794 -0.342904 -0.752559 0
M  V30 9184 H 862.34 -1.30961 -1.07923 0
M  V30 9185 H 861.112 -2.79757 -2.7359 0
M  V30 9186 H 860.735 -1.39522 -3.72316 0
M  V30 9187 N 861.732 1.21287 -1.00634 0
M  V30 9188 C 862.978 1.90671 -0.690822 0
M  V30 9189 C 863.311 1.77996 0.776592 0
M  V30 9190 O 862.586 1.15748 1.5631 0
M  V30 9191 C 862.869 3.42426 -1.11428 0
M  V30 9192 C 862.722 3.64086 -2.64124 0
M  V30 9193 C 864.041 4.34851 -0.677686 0
M  V30 9194 H 861.16 0.692419 -0.252439 0
M  V30 9195 H 863.802 1.42893 -1.25226 0
M  V30 9196 H 861.952 3.83249 -0.636586 0
M  V30 9197 H 863.624 3.32582 -3.19667 0
M  V30 9198 H 861.867 3.07906 -3.05576 0
M  V30 9199 H 862.538 4.7042 -2.88806 0
M  V30 9200 H 865.014 4.01619 -1.0882 0
M  V30 9201 H 863.89 5.39675 -1.00213 0
M  V30 9202 H 864.151 4.4009 0.421125 0
M  V30 9203 N 863.21 0.781244 1.36873 0
M  V30 9204 C 864.458 0.349198 1.9906 0
M  V30 9205 C 864.779 -1.0806 1.62321 0
M  V30 9206 O 864.049 -1.74351 0.893229 0
M  V30 9207 H 862.629 0.126126 0.736275 0
M  V30 9208 H 865.291 1.00148 1.67202 0
M  V30 9209 H 864.387 0.434451 3.09061 0
M  V30 9210 N 864.689 -1.48329 0.532571 0
M  V30 9211 C 865.637 -2.31336 -0.242133 0
M  V30 9212 C 866.631 -1.41391 -0.933006 0
M  V30 9213 O 867.837 -1.58284 -0.857096 0
M  V30 9214 H 864.212 -0.745724 -0.0969536 0
M  V30 9215 H 866.183 -2.94555 0.477504 0
M  V30 9216 C 864.932 -3.23501 -1.27446 0
M  V30 9217 H 864.255 -3.92659 -0.752261 0
M  V30 9218 H 865.695 -3.84461 -1.78789 0
M  V30 9219 C 864.154 -2.45288 -2.30944 0
M  V30 9220 O 864.684 -2.17955 -3.37429 0
M  V30 9221 N 862.89 -2.06737 -2.04226 0
M  V30 9222 H 862.437 -2.29166 -1.17647 0
M  V30 9223 H 862.395 -1.54719 -2.73696 0
M  V30 9224 N 866.167 -0.267825 -1.55308 0
M  V30 9225 C 867.099 0.65591 -2.19614 0
M  V30 9226 C 868.112 1.12302 -1.17865 0
M  V30 9227 O 869.301 1.04618 -1.44628 0
M  V30 9228 C 866.401 1.90582 -2.80235 0
M  V30 9229 C 865.574 1.58673 -4.07605 0
M  V30 9230 C 864.633 2.68836 -4.52343 0
M  V30 9231 O 863.659 2.35331 -5.18274 0
M  V30 9232 N 864.861 3.98752 -4.21873 0
M  V30 9233 H 867.626 0.105566 -2.99514 0
M  V30 9234 H 865.187 -0.0886263 -1.61657 0
M  V30 9235 H 867.179 2.63561 -3.07112 0
M  V30 9236 H 865.749 2.3654 -2.04371 0
M  V30 9237 H 864.969 0.691113 -3.88094 0
M  V30 9238 H 866.257 1.34845 -4.90606 0
M  V30 9239 H 865.655 4.28797 -3.68985 0
M  V30 9240 H 864.212 4.68131 -4.53537 0
M  V30 9241 N 867.645 1.57599 0.00500368 0
M  V30 9242 C 868.892 1.90349 0.690895 0
M  V30 9243 C 869.22 0.868045 1.74055 0
M  V30 9244 O 868.475 -0.127855 1.95282 0
M  V30 9245 C 868.774 3.29855 1.37588 0
M  V30 9246 C 868.44 4.48548 0.459906 0
M  V30 9247 C 867.102 4.80752 0.207693 0
M  V30 9248 C 869.454 5.20919 -0.171054 0
M  V30 9249 C 866.782 5.82701 -0.683855 0
M  V30 9250 C 869.134 6.23818 -1.05045 0
M  V30 9251 C 867.798 6.54481 -1.31189 0
M  V30 9252 H 867.068 0.696538 0.252816 0
M  V30 9253 H 869.715 1.91436 -0.0494495 0
M  V30 9254 H 868.02 3.24869 2.19015 0
M  V30 9255 H 869.717 3.52452 1.91255 0
M  V30 9256 H 866.307 4.23384 0.666648 0
M  V30 9257 H 870.491 4.96299 0.0107942 0
M  V30 9258 H 865.747 6.04822 -0.894467 0
M  V30 9259 H 869.921 6.79029 -1.54574 0
M  V30 9260 H 867.548 7.33299 -2.00442 0
M  V30 9261 N 869.123 -0.277682 1.55134 0
M  V30 9262 C 870.351 -1.02826 1.7954 0
M  V30 9263 C 870.766 -1.80105 0.566373 0
M  V30 9264 O 870.123 -1.76491 -0.464448 0
M  V30 9265 C 870.174 -1.99053 3.01762 0
M  V30 9266 O 869.895 -1.24906 4.19917 0
M  V30 9267 C 871.396 -2.85961 3.38735 0
M  V30 9268 H 868.616 -0.303958 0.598206 0
M  V30 9269 H 871.16 -0.309884 2.02138 0
M  V30 9270 H 869.315 -2.66359 2.81303 0
M  V30 9271 H 869.729 -1.89725 4.88983 0
M  V30 9272 H 871.203 -3.49286 4.27438 0
M  V30 9273 H 871.68 -3.55486 2.57928 0
M  V30 9274 H 872.286 -2.24152 3.61436 0
M  V30 9275 N 870.601 -1.47988 -0.541979 0
M  V30 9276 C 871.831 -1.58804 -1.32155 0
M  V30 9277 C 872.239 -0.242893 -1.87634 0
M  V30 9278 O 871.582 0.776239 -1.66494 0
M  V30 9279 C 871.644 -2.56567 -2.51821 0
M  V30 9280 C 871.308 -4.01915 -2.17517 0
M  V30 9281 C 872.305 -4.89954 -1.73901 0
M  V30 9282 C 869.99 -4.47365 -2.28408 0
M  V30 9283 C 871.984 -6.21467 -1.41625 0
M  V30 9284 C 869.671 -5.78902 -1.95745 0
M  V30 9285 C 870.669 -6.65775 -1.52423 0
M  V30 9286 O 870.357 -7.94866 -1.20183 0
M  V30 9287 H 870.089 -0.538536 -0.408601 0
M  V30 9288 H 872.643 -1.94446 -0.661818 0
M  V30 9289 H 870.873 -2.16023 -3.20735 0
M  V30 9290 H 872.562 -2.57347 -3.13891 0
M  V30 9291 H 873.328 -4.56082 -1.64966 0
M  V30 9292 H 869.207 -3.79942 -2.61084 0
M  V30 9293 H 872.751 -6.8923 -1.07738 0
M  V30 9294 H 868.648 -6.12311 -2.04316 0
M  V30 9295 H 869.416 -8.07509 -1.33683 0
M  V30 9296 N 872.079 0.78992 -1.36375 0
M  V30 9297 C 873.356 1.53584 -1.21126 0
M  V30 9298 C 873.736 2.10124 0.202785 0
M  V30 9299 O 873.084 1.93936 1.20835 0
M  V30 9300 C 873.294 2.63117 -2.29282 0
M  V30 9301 C 874.642 3.31013 -2.65924 0
M  V30 9302 O 875.666 2.734 -2.28321 0
M  V30 9303 O 874.525 4.35129 -3.30643 0
M  V30 9304 H 871.619 0.679366 -0.471583 0
M  V30 9305 H 874.165 0.828446 -1.48104 0
M  V30 9306 H 872.937 2.19329 -3.24053 0
M  V30 9307 H 872.56 3.41476 -2.03666 0
M  V30 9308 N 873.557 1.20646 1.01402 0
M  V30 9309 C 874.467 0.973385 2.13453 0
M  V30 9310 C 875.483 -0.0715865 1.73853 0
M  V30 9311 O 876.659 0.116438 2.01063 0
M  V30 9312 C 873.724 0.531285 3.42605 0
M  V30 9313 C 872.785 1.64741 3.96433 0
M  V30 9314 C 872.018 1.22631 5.1942 0
M  V30 9315 O 872.241 0.0960891 5.70319 0
M  V30 9316 O 871.175 2.03474 5.66465 0
M  V30 9317 H 875.001 1.91164 2.35987 0
M  V30 9318 H 872.586 0.990553 1.11841 0
M  V30 9319 H 874.468 0.294095 4.20373 0
M  V30 9320 H 873.143 -0.378358 3.21481 0
M  V30 9321 H 872.05 1.93891 3.19933 0
M  V30 9322 H 873.383 2.53415 4.2195 0
M  V30 9323 N 875.035 -1.20752 1.01276 0
M  V30 9324 C 875.985 -2.21252 0.550602 0
M  V30 9325 C 876.969 -1.56052 -0.391985 0
M  V30 9326 O 878.161 -1.75682 -0.215575 0
M  V30 9327 C 875.29 -3.43112 -0.113601 0
M  V30 9328 C 874.376 -4.15485 0.850465 0
M  V30 9329 N 874.767 -4.64301 2.00643 0
M  V30 9330 C 873.065 -4.40932 0.670476 0
M  V30 9331 C 873.766 -5.197 2.61317 0
M  V30 9332 N 872.742 -5.09534 1.8941 0
M  V30 9333 H 876.544 -2.56657 1.43194 0
M  V30 9334 H 874.058 -1.36646 0.877597 0
M  V30 9335 H 876.055 -4.1433 -0.462211 0
M  V30 9336 H 874.715 -3.09213 -0.990825 0
M  V30 9337 H 875.726 -4.59637 2.38651 0
M  V30 9338 H 872.403 -4.17197 -0.159016 0
M  V30 9339 H 873.793 -5.67873 3.59123 0
M  V30 9340 N 876.513 -0.788492 -1.36457 0
M  V30 9341 C 877.443 -0.200468 -2.32638 0
M  V30 9342 C 878.424 0.664031 -1.56603 0
M  V30 9343 O 879.609 0.598045 -1.84762 0
M  V30 9344 C 876.739 0.666274 -3.40849 0
M  V30 9345 C 875.693 -0.0982574 -4.27887 0
M  V30 9346 C 875.019 0.889018 -5.27258 0
M  V30 9347 C 876.319 -1.28692 -5.06197 0
M  V30 9348 H 878.013 -1.00399 -2.82065 0
M  V30 9349 H 875.559 -0.484237 -1.35614 0
M  V30 9350 H 877.512 1.08757 -4.07124 0
M  V30 9351 H 876.236 1.50249 -2.89987 0
M  V30 9352 H 874.895 -0.500525 -3.63167 0
M  V30 9353 H 874.543 1.72024 -4.7267 0
M  V30 9354 H 874.243 0.381909 -5.86358 0
M  V30 9355 H 875.767 1.30891 -5.96406 0
M  V30 9356 H 877.181 -0.941429 -5.65517 0
M  V30 9357 H 875.578 -1.72726 -5.74705 0
M  V30 9358 H 876.648 -2.08273 -4.37893 0
M  V30 9359 N 877.991 1.48044 -0.54043 0
M  V30 9360 C 879.221 2.06595 -0.0144943 0
M  V30 9361 C 879.629 1.39593 1.27713 0
M  V30 9362 O 878.972 0.480794 1.77297 0
M  V30 9363 C 879.034 3.5849 0.269316 0
M  V30 9364 C 878.698 4.47429 -0.930372 0
M  V30 9365 C 879.695 4.8657 -1.83155 0
M  V30 9366 C 877.38 4.89185 -1.14032 0
M  V30 9367 C 879.374 5.66246 -2.92649 0
M  V30 9368 C 877.061 5.6863 -2.23838 0
M  V30 9369 C 878.059 6.07069 -3.12979 0
M  V30 9370 O 877.747 6.84917 -4.20884 0
M  V30 9371 H 877.479 0.675086 -0.0351467 0
M  V30 9372 H 880.033 1.91275 -0.74853 0
M  V30 9373 H 878.263 3.71961 1.05745 0
M  V30 9374 H 879.952 3.99124 0.738595 0
M  V30 9375 H 880.718 4.54924 -1.68134 0
M  V30 9376 H 876.597 4.58742 -0.455717 0
M  V30 9377 H 880.141 5.96169 -3.62254 0
M  V30 9378 H 876.038 5.99688 -2.38839 0
M  V30 9379 H 876.806 7.03287 -4.18723 0
M  V30 9380 N 879.47 0.276058 1.55163 0
M  V30 9381 C 880.716 -0.340959 1.99913 0
M  V30 9382 C 881.049 -1.55434 1.16422 0
M  V30 9383 O 880.324 -1.93081 0.234517 0
M  V30 9384 C 880.607 -0.722211 3.52783 0
M  V30 9385 C 880.46 0.498575 4.47028 0
M  V30 9386 C 881.779 -1.5583 4.11589 0
M  V30 9387 H 878.898 -0.122455 0.726756 0
M  V30 9388 H 881.54 0.38319 1.86096 0
M  V30 9389 H 879.69 -1.33919 3.64689 0
M  V30 9390 H 881.362 1.13713 4.47065 0
M  V30 9391 H 879.605 1.13646 4.18649 0
M  V30 9392 H 880.276 0.188041 5.5168 0
M  V30 9393 H 882.752 -1.03722 4.02965 0
M  V30 9394 H 881.628 -1.79387 5.1876 0
M  V30 9395 H 881.889 -2.53963 3.61877 0
M  V30 9396 N 880.948 -1.576 0.00335426 0
M  V30 9397 C 882.194 -1.90996 -0.681799 0
M  V30 9398 C 882.527 -0.877643 -1.73237 0
M  V30 9399 O 881.802 0.103183 -1.94226 0
M  V30 9400 C 882.085 -3.34961 -1.32187 0
M  V30 9401 C 881.938 -4.48911 -0.28261 0
M  V30 9402 C 883.257 -3.78408 -2.24711 0
M  V30 9403 H 880.376 -0.694596 -0.246386 0
M  V30 9404 H 883.018 -1.89919 0.055336 0
M  V30 9405 H 881.168 -3.36008 -1.95014 0
M  V30 9406 H 882.84 -4.59999 0.346241 0
M  V30 9407 H 881.083 -4.32 0.394768 0
M  V30 9408 H 881.754 -5.46609 -0.769576 0
M  V30 9409 H 884.23 -3.78934 -1.71897 0
M  V30 9410 H 883.106 -4.79885 -2.66461 0
M  V30 9411 H 883.367 -3.12464 -3.1276 0
M  V30 9412 N 882.426 0.269451 -1.5528 0
M  V30 9413 C 883.374 1.35303 -1.89198 0
M  V30 9414 C 884.368 1.50956 -0.768671 0
M  V30 9415 O 885.574 1.52699 -0.953054 0
M  V30 9416 H 881.949 0.452591 -0.600554 0
M  V30 9417 H 883.92 1.03949 -2.79709 0
M  V30 9418 C 882.669 2.70585 -2.18356 0
M  V30 9419 H 881.992 2.59332 -3.04281 0
M  V30 9420 H 883.432 3.45335 -2.46007 0
M  V30 9421 C 881.891 3.21954 -0.992327 0
M  V30 9422 O 882.421 4.01048 -0.228769 0
M  V30 9423 N 880.627 2.79682 -0.789062 0
M  V30 9424 H 880.174 2.15475 -1.41167 0
M  V30 9425 H 880.132 3.14399 0.00634776 0
M  V30 9426 N 883.904 1.48273 0.534124 0
M  V30 9427 C 884.852 1.62926 1.66005 0
M  V30 9428 C 885.846 0.495814 1.61982 0
M  V30 9429 O 887.052 0.6744 1.66889 0
M  V30 9430 H 883.427 0.513163 0.549698 0
M  V30 9431 H 885.398 2.57498 1.50789 0
M  V30 9432 C 884.147 1.68231 3.04292 0
M  V30 9433 H 883.47 2.54807 3.0808 0
M  V30 9434 H 884.91 1.82528 3.827 0
M  V30 9435 C 883.369 0.420154 3.3427 0
M  V30 9436 O 883.899 -0.468769 3.98955 0
M  V30 9437 N 882.105 0.293115 2.89118 0
M  V30 9438 H 881.652 1.01745 2.36655 0
M  V30 9439 H 881.61 -0.550376 3.09545 0
M  V30 9440 N 885.382 -0.782676 1.36792 0
M  V30 9441 C 886.312 -1.90973 1.34356 0
M  V30 9442 C 887.293 -1.6875 0.213917 0
M  V30 9443 O 888.478 -1.89766 0.412601 0
M  V30 9444 C 885.608 -3.28097 1.13884 0
M  V30 9445 C 884.562 -3.6486 2.23744 0
M  V30 9446 C 883.888 -5.00406 1.88408 0
M  V30 9447 C 885.188 -3.72742 3.6587 0
M  V30 9448 H 886.882 -1.93268 2.28665 0
M  V30 9449 H 884.428 -0.928447 1.10072 0
M  V30 9450 H 886.381 -4.06569 1.10813 0
M  V30 9451 H 885.105 -3.26206 0.160275 0
M  V30 9452 H 883.764 -2.88689 2.25952 0
M  V30 9453 H 883.412 -4.95044 0.891083 0
M  V30 9454 H 883.112 -5.25973 2.61966 0
M  V30 9455 H 884.636 -5.81291 1.86905 0
M  V30 9456 H 886.05 -4.4139 3.65852 0
M  V30 9457 H 884.447 -4.09798 4.38389 0
M  V30 9458 H 885.517 -2.73676 4.00287 0
M  V30 9459 N 886.86 -1.21182 -1.00761 0
M  V30 9460 C 888.109 -1.02166 -1.73911 0
M  V30 9461 C 888.422 0.445638 -1.90456 0
M  V30 9462 O 889.628 0.755132 -2.60787 0
M  V30 9463 C 888.084 -1.77936 -3.12837 0
M  V30 9464 C 887.692 -3.28819 -3.04273 0
M  V30 9465 C 889.436 -1.67319 -3.90134 0
M  V30 9466 C 887.343 -3.97089 -4.38262 0
M  V30 9467 H 886.273 -0.378665 -0.652019 0
M  V30 9468 H 888.924 -1.44891 -1.12601 0
M  V30 9469 H 887.306 -1.28003 -3.74742 0
M  V30 9470 H 888.48 -3.86035 -2.51622 0
M  V30 9471 H 886.795 -3.39949 -2.40465 0
M  V30 9472 H 889.392 -2.15659 -4.8928 0
M  V30 9473 H 889.735 -0.630959 -4.11491 0
M  V30 9474 H 890.268 -2.14716 -3.34876 0
M  V30 9475 H 887.007 -5.01503 -4.22107 0
M  V30 9476 H 886.527 -3.44662 -4.90885 0
M  V30 9477 H 888.206 -4.01854 -5.07072 0
M  V30 9478 N 888.338 1.20213 -1.01915 0
M  V30 9479 C 889.288 2.20957 -0.562327 0
M  V30 9480 C 890.272 1.56258 0.383704 0
M  V30 9481 O 891.464 1.75794 0.206255 0
M  V30 9482 C 888.593 3.43167 0.0954035 0
M  V30 9483 C 887.679 4.15028 -0.872487 0
M  V30 9484 N 888.07 4.63231 -2.03103 0
M  V30 9485 C 886.368 4.4057 -0.69385 0
M  V30 9486 C 887.069 5.18307 -2.64069 0
M  V30 9487 N 886.045 5.08522 -1.9211 0
M  V30 9488 H 889.847 2.55894 -1.44553 0
M  V30 9489 H 887.361 1.36178 -0.884831 0
M  V30 9490 H 889.358 4.14569 0.440232 0
M  V30 9491 H 888.018 3.09734 0.974413 0
M  V30 9492 H 889.029 4.58365 -2.41086 0
M  V30 9493 H 885.706 4.17276 0.136889 0
M  V30 9494 H 887.096 5.65961 -3.6213 0
M  V30 9495 N 889.816 0.795718 1.36037 0
M  V30 9496 C 890.763 0.196548 2.29962 0
M  V30 9497 C 891.733 -0.663213 1.52285 0
M  V30 9498 O 892.918 -0.610574 1.80767 0
M  V30 9499 C 890.058 -0.657639 3.38776 0
M  V30 9500 C 889.171 0.221358 4.31433 0
M  V30 9501 C 888.306 -0.6398 5.27333 0
M  V30 9502 C 887.345 0.240265 6.11628 0
M  V30 9503 N 886.482 -0.580237 6.99698 0
M  V30 9504 H 891.322 1.00295 2.80615 0
M  V30 9505 H 888.859 0.506147 1.38118 0
M  V30 9506 H 890.817 -1.16793 4.00519 0
M  V30 9507 H 889.447 -1.42941 2.89426 0
M  V30 9508 H 888.499 0.84967 3.70789 0
M  V30 9509 H 889.811 0.899195 4.90628 0
M  V30 9510 H 888.965 -1.21566 5.94396 0
M  V30 9511 H 887.704 -1.35124 4.68607 0
M  V30 9512 H 886.709 0.828474 5.43522 0
M  V30 9513 H 887.934 0.949403 6.72431 0
M  V30 9514 H 885.88 -1.27585 6.43473 0
M  V30 9515 H 885.797 0.0397853 7.5599 0
M  V30 9516 H 887.065 -1.13972 7.71123 0
M  V30 9517 N 891.294 -1.47756 0.548274 0
M  V30 9518 C 892.519 -2.07387 0.023475 0
M  V30 9519 C 892.944 -1.39956 -1.25674 0
M  V30 9520 O 892.302 -0.471543 -1.7506 0
M  V30 9521 C 892.35 -3.60224 -0.164669 0
M  V30 9522 O 891.454 -3.93653 -1.22928 0
M  V30 9523 H 890.795 -0.662312 0.0473156 0
M  V30 9524 H 893.325 -1.89905 0.761409 0
M  V30 9525 H 893.335 -4.06211 -0.38166 0
M  V30 9526 H 892.01 -4.08702 0.770425 0
M  V30 9527 H 890.587 -3.59422 -0.993495 0
M  V30 9528 N 892.772 -0.284283 -1.55015 0
M  V30 9529 C 893.702 0.592663 -2.25853 0
M  V30 9530 C 894.683 1.15151 -1.25197 0
M  V30 9531 O 895.868 1.18395 -1.53936 0
M  V30 9532 C 892.998 1.77254 -2.98661 0
M  V30 9533 C 891.952 1.34482 -4.06323 0
M  V30 9534 C 891.278 2.60853 -4.66754 0
M  V30 9535 C 892.578 0.488288 -5.20013 0
M  V30 9536 H 894.272 0.00187041 -2.994 0
M  V30 9537 H 891.818 -0.000540402 -1.44 0
M  V30 9538 H 893.771 2.39199 -3.46932 0
M  V30 9539 H 892.495 2.38931 -2.22664 0
M  V30 9540 H 891.154 0.748519 -3.58877 0
M  V30 9541 H 890.802 3.20808 -3.87416 0
M  V30 9542 H 890.502 2.32942 -5.39455 0
M  V30 9543 H 892.026 3.23631 -5.1778 0
M  V30 9544 H 893.44 1.01298 -5.6428 0
M  V30 9545 H 891.837 0.303669 -5.99331 0
M  V30 9546 H 892.907 -0.490727 -4.8241 0
M  V30 9547 N 894.251 1.57596 -0.0117121 0
M  V30 9548 C 895.662 1.79033 0.529521 0
M  V30 9549 C 896.013 0.920299 1.73277 0
M  V30 9550 O 895.138 0.125934 2.16033 0
M  V30 9551 C 895.733 3.24695 0.967405 0
M  V30 9552 C 894.292 3.47188 1.45387 0
M  V30 9553 C 893.439 2.74245 0.410466 0
M  V30 9554 H 896.39 1.56908 -0.237836 0
M  V30 9555 H 896.411 3.33451 1.83278 0
M  V30 9556 H 895.923 3.87992 0.0914605 0
M  V30 9557 H 894.024 2.89121 2.35032 0
M  V30 9558 H 894.137 4.55886 1.47325 0
M  V30 9559 H 892.501 2.39209 0.874721 0
M  V30 9560 H 893.284 3.40248 -0.456713 0
M  V30 9561 N 895.729 -0.261212 1.5542 0
M  V30 9562 C 896.975 -0.992699 1.76843 0
M  V30 9563 C 897.308 -1.8551 0.574428 0
M  V30 9564 O 896.583 -1.89739 -0.427713 0
M  V30 9565 C 896.866 -1.86532 3.08022 0
M  V30 9566 C 896.719 -1.03206 4.378 0
M  V30 9567 C 898.038 -2.85036 3.35324 0
M  V30 9568 H 895.157 -0.359473 0.643388 0
M  V30 9569 H 897.799 -0.264214 1.88154 0
M  V30 9570 H 895.949 -2.48644 2.9851 0
M  V30 9571 H 897.621 -0.430743 4.59285 0
M  V30 9572 H 895.864 -0.335911 4.32497 0
M  V30 9573 H 896.535 -1.6761 5.25938 0
M  V30 9574 H 899.011 -2.3306 3.44706 0
M  V30 9575 H 897.887 -3.43226 4.28354 0
M  V30 9576 H 898.148 -3.60768 2.55537 0
M  V30 9577 N 897.207 -1.48554 -0.526253 0
M  V30 9578 C 898.117 -1.66044 -1.65731 0
M  V30 9579 C 899.133 -0.542951 -1.65312 0
M  V30 9580 O 900.309 -0.814495 -1.84195 0
M  V30 9581 C 897.374 -1.69959 -3.02184 0
M  V30 9582 C 896.435 -2.93362 -3.13428 0
M  V30 9583 C 895.668 -2.97081 -4.43372 0
M  V30 9584 O 895.891 -2.09103 -5.3069 0
M  V30 9585 O 894.825 -3.8929 -4.59061 0
M  V30 9586 H 898.651 -2.61811 -1.53912 0
M  V30 9587 H 896.236 -1.31999 -0.699759 0
M  V30 9588 H 898.118 -1.75033 -3.83329 0
M  V30 9589 H 896.793 -0.773658 -3.14319 0
M  V30 9590 H 895.7 -2.93818 -2.31564 0
M  V30 9591 H 897.033 -3.85352 -3.06211 0
M  V30 9592 N 898.685 0.775411 -1.37205 0
M  V30 9593 C 899.91 1.5696 -1.35567 0
M  V30 9594 C 900.335 1.88012 0.0575554 0
M  V30 9595 O 899.693 1.48954 1.03355 0
M  V30 9596 C 899.741 2.85886 -2.19776 0
M  V30 9597 O 898.845 3.80103 -1.59987 0
M  V30 9598 H 898.186 0.475583 -0.463375 0
M  V30 9599 H 900.716 0.96001 -1.80679 0
M  V30 9600 H 900.726 3.35024 -2.32859 0
M  V30 9601 H 899.401 2.62613 -3.22502 0
M  V30 9602 H 897.978 3.38736 -1.55924 0
M  V30 9603 N 900.163 1.21714 1.00117 0
M  V30 9604 C 901.093 1.00397 2.10815 0
M  V30 9605 C 902.074 -0.0723502 1.69946 0
M  V30 9606 O 903.259 0.0882398 1.93999 0
M  V30 9607 C 900.389 0.572001 3.42557 0
M  V30 9608 C 899.343 1.59331 3.97237 0
M  V30 9609 C 898.669 1.01746 5.2493 0
M  V30 9610 C 899.969 2.98117 4.28863 0
M  V30 9611 H 901.663 1.92983 2.28906 0
M  V30 9612 H 899.209 0.929273 1.10002 0
M  V30 9613 H 901.162 0.410018 4.19401 0
M  V30 9614 H 899.886 -0.38951 3.24269 0
M  V30 9615 H 898.545 1.74293 3.22518 0
M  V30 9616 H 898.193 0.0475491 5.02978 0
M  V30 9617 H 897.893 1.69969 5.62481 0
M  V30 9618 H 899.417 0.866881 6.04415 0
M  V30 9619 H 900.831 2.86578 4.96534 0
M  V30 9620 H 899.228 3.63389 4.77565 0
M  V30 9621 H 900.298 3.48674 3.36979 0
M  V30 9622 N 901.641 -1.19671 1.02551 0
M  V30 9623 C 903.052 -1.70964 0.750208 0
M  V30 9624 C 903.403 -1.82095 -0.730461 0
M  V30 9625 O 902.528 -1.48974 -1.56958 0
M  V30 9626 C 903.123 -3.10516 1.35518 0
M  V30 9627 C 901.682 -3.59083 1.12854 0
M  V30 9628 C 900.829 -2.36041 1.45534 0
M  V30 9629 H 903.78 -1.04559 1.19386 0
M  V30 9630 H 903.801 -3.73028 0.750378 0
M  V30 9631 H 903.313 -3.02383 2.43282 0
M  V30 9632 H 901.414 -3.72536 0.0689627 0
M  V30 9633 H 901.527 -4.43395 1.81488 0
M  V30 9634 H 899.891 -2.39214 0.87458 0
M  V30 9635 H 900.674 -2.3054 2.54374 0
M  V30 9636 N 903.119 -0.802921 -1.35613 0
M  V30 9637 C 904.049 -0.225131 -2.32412 0
M  V30 9638 C 905.03 0.647383 -1.57299 0
M  V30 9639 O 906.215 0.578414 -1.85386 0
M  V30 9640 C 903.345 0.630085 -3.41537 0
M  V30 9641 C 902.299 -0.143635 -4.27759 0
M  V30 9642 C 901.625 0.833046 -5.28171 0
M  V30 9643 C 902.925 -1.34054 -5.04804 0
M  V30 9644 H 904.619 -1.03385 -2.80984 0
M  V30 9645 H 902.165 -0.498593 -1.35093 0
M  V30 9646 H 904.118 1.04433 -4.08254 0
M  V30 9647 H 902.842 1.47165 -2.91565 0
M  V30 9648 H 901.501 -0.539015 -3.62616 0
M  V30 9649 H 901.149 1.67001 -4.74468 0
M  V30 9650 H 900.849 0.319697 -5.8673 0
M  V30 9651 H 902.373 1.24558 -5.97761 0
M  V30 9652 H 903.787 -1.00136 -5.64487 0
M  V30 9653 H 902.184 -1.78812 -5.72841 0
M  V30 9654 H 903.254 -2.12906 -4.35659 0
M  V30 9655 N 904.597 1.47463 -0.556102 0
M  V30 9656 C 905.527 2.32801 0.180497 0
M  V30 9657 C 906.508 1.43721 0.909848 0
M  V30 9658 O 907.693 1.72578 0.89053 0
M  V30 9659 C 904.823 3.25478 1.21167 0
M  V30 9660 C 903.777 4.2379 0.598846 0
M  V30 9661 C 903.103 5.05783 1.73457 0
M  V30 9662 C 904.403 5.20387 -0.446659 0
M  V30 9663 H 906.097 2.94636 -0.531956 0
M  V30 9664 H 903.643 1.41683 -0.257267 0
M  V30 9665 H 905.596 3.8402 1.73513 0
M  V30 9666 H 904.32 2.61695 1.95405 0
M  V30 9667 H 902.979 3.66472 0.0966897 0
M  V30 9668 H 902.627 4.38405 2.46596 0
M  V30 9669 H 902.327 5.72343 1.33031 0
M  V30 9670 H 903.851 5.67183 2.26131 0
M  V30 9671 H 905.265 5.73299 -0.00930019 0
M  V30 9672 H 903.662 5.95143 -0.769735 0
M  V30 9673 H 904.732 4.65932 -1.34295 0
M  V30 9674 N 906.075 0.2925 1.54862 0
M  V30 9675 C 907.323 -0.318633 1.99572 0
M  V30 9676 C 907.644 -1.55062 1.1824 0
M  V30 9677 O 906.914 -1.93943 0.276226 0
M  V30 9678 H 905.494 -0.120722 0.737181 0
M  V30 9679 H 908.156 0.401862 1.90712 0
M  V30 9680 H 907.252 -0.596542 3.06346 0
M  V30 9681 N 907.553 -1.57587 0.0200696 0
M  V30 9682 C 908.485 -2.06555 -0.993359 0
M  V30 9683 C 909.498 -0.987227 -1.29451 0
M  V30 9684 O 910.687 -1.26361 -1.26075 0
M  V30 9685 C 907.787 -2.4675 -2.3231 0
M  V30 9686 C 906.96 -3.77554 -2.20843 0
M  V30 9687 C 906.019 -4.04397 -3.36674 0
M  V30 9688 O 905.045 -4.7478 -3.13963 0
M  V30 9689 N 906.247 -3.53861 -4.60176 0
M  V30 9690 H 909.012 -2.9412 -0.575617 0
M  V30 9691 H 906.573 -1.61038 -0.166889 0
M  V30 9692 H 908.565 -2.61806 -3.08609 0
M  V30 9693 H 907.135 -1.64598 -2.65756 0
M  V30 9694 H 906.355 -3.72382 -1.29327 0
M  V30 9695 H 907.643 -4.63271 -2.10375 0
M  V30 9696 H 907.041 -2.96904 -4.81523 0
M  V30 9697 H 905.598 -3.74213 -5.33674 0
M  V30 9698 N 909.032 0.252966 -1.55557 0
M  V30 9699 C 909.964 1.33585 -1.86246 0
M  V30 9700 C 910.977 1.44584 -0.748291 0
M  V30 9701 O 912.166 1.46042 -1.02635 0
M  V30 9702 C 909.266 2.71509 -2.02821 0
M  V30 9703 C 908.439 2.82853 -3.33636 0
M  V30 9704 C 907.498 4.01581 -3.40028 0
M  V30 9705 O 906.524 3.91394 -4.13278 0
M  V30 9706 N 907.726 5.14474 -2.6888 0
M  V30 9707 H 910.491 1.07596 -2.7972 0
M  V30 9708 H 908.052 0.443075 -1.55719 0
M  V30 9709 H 910.044 3.49262 -2.04445 0
M  V30 9710 H 908.614 2.90232 -1.1612 0
M  V30 9711 H 907.834 1.91823 -3.4438 0
M  V30 9712 H 909.122 2.87378 -4.19871 0
M  V30 9713 H 908.52 5.25641 -2.09087 0
M  V30 9714 H 907.077 5.90385 -2.76204 0
M  V30 9715 N 910.51 1.48831 0.518367 0
M  V30 9716 C 911.759 1.5669 1.27008 0
M  V30 9717 C 912.072 0.250934 1.93984 0
M  V30 9718 O 913.278 0.207884 2.70703 0
M  V30 9719 C 911.734 2.76387 2.30517 0
M  V30 9720 C 911.342 4.14673 1.69559 0
M  V30 9721 C 913.086 2.93566 3.06625 0
M  V30 9722 C 910.993 5.25616 2.71076 0
M  V30 9723 H 909.923 0.583362 0.477708 0
M  V30 9724 H 912.574 1.75187 0.546052 0
M  V30 9725 H 910.956 2.51348 3.06006 0
M  V30 9726 H 912.13 4.49779 1.00179 0
M  V30 9727 H 910.445 4.02708 1.05902 0
M  V30 9728 H 913.042 3.7362 3.82508 0
M  V30 9729 H 913.385 2.03462 3.63193 0
M  V30 9730 H 913.918 3.18562 2.38251 0
M  V30 9731 H 910.657 6.17723 2.19313 0
M  V30 9732 H 910.177 4.94985 3.38748 0
M  V30 9733 H 911.856 5.5422 3.3384 0
M  V30 9734 N 911.988 -0.768124 1.37614 0
M  V30 9735 C 913.218 -1.555 1.36027 0
M  V30 9736 C 913.626 -1.89119 -0.0554273 0
M  V30 9737 O 912.969 -1.52203 -1.02859 0
M  V30 9738 C 913.031 -2.8906 2.13739 0
M  V30 9739 C 912.695 -2.78058 3.62674 0
M  V30 9740 C 913.692 -2.48841 4.5648 0
M  V30 9741 C 911.377 -2.95966 4.05844 0
M  V30 9742 C 913.371 -2.37665 5.91434 0
M  V30 9743 C 911.058 -2.84411 5.40882 0
M  V30 9744 C 912.056 -2.55301 6.33491 0
M  V30 9745 O 911.744 -2.43779 7.66046 0
M  V30 9746 H 911.476 -0.488263 0.467521 0
M  V30 9747 H 914.03 -0.959583 1.81607 0
M  V30 9748 H 912.26 -3.50735 1.62854 0
M  V30 9749 H 913.949 -3.5048 2.04741 0
M  V30 9750 H 914.715 -2.34687 4.24437 0
M  V30 9751 H 910.594 -3.17625 3.34119 0
M  V30 9752 H 914.138 -2.14865 6.63686 0
M  V30 9753 H 910.035 -2.98134 5.72527 0
M  V30 9754 H 910.803 -2.59101 7.76408 0
M  V30 9755 N 913.466 -1.22244 -0.994698 0
M  V30 9756 C 914.376 -1.00722 -2.11878 0
M  V30 9757 C 915.392 0.043919 -1.73945 0
M  V30 9758 O 916.568 -0.148411 -2.00852 0
M  V30 9759 C 913.633 -0.585723 -3.41717 0
M  V30 9760 C 912.694 -1.71027 -3.93762 0
M  V30 9761 C 911.927 -1.30879 -5.17403 0
M  V30 9762 O 912.15 -0.18681 -5.70094 0
M  V30 9763 O 911.084 -2.1246 -5.63156 0
M  V30 9764 H 914.91 -1.94894 -2.32916 0
M  V30 9765 H 912.495 -1.00822 -1.10251 0
M  V30 9766 H 914.377 -0.360935 -4.19851 0
M  V30 9767 H 913.052 0.327166 -3.22042 0
M  V30 9768 H 911.959 -1.98956 -3.16808 0
M  V30 9769 H 913.292 -2.60096 -4.17865 0
M  V30 9770 N 914.944 1.19125 -1.03184 0
M  V30 9771 C 915.874 2.24675 -0.635889 0
M  V30 9772 C 916.855 1.66321 0.356565 0
M  V30 9773 O 918.04 1.92728 0.238625 0
M  V30 9774 C 915.17 3.47298 0.011069 0
M  V30 9775 C 914.124 4.18345 -0.903979 0
M  V30 9776 C 913.45 5.34561 -0.12197 0
M  V30 9777 C 914.75 4.72816 -2.21907 0
M  V30 9778 H 916.444 2.5805 -1.51825 0
M  V30 9779 H 913.99 1.24039 -0.73146 0
M  V30 9780 H 915.943 4.20333 0.299729 0
M  V30 9781 H 914.667 3.13131 0.928245 0
M  V30 9782 H 913.326 3.47196 -1.17688 0
M  V30 9783 H 912.974 4.9664 0.797334 0
M  V30 9784 H 912.674 5.83029 -0.731498 0
M  V30 9785 H 914.198 6.10391 0.159881 0
M  V30 9786 H 915.612 5.3759 -1.99173 0
M  V30 9787 H 914.009 5.31782 -2.78078 0
M  V30 9788 H 915.079 3.9072 -2.87168 0
M  V30 9789 N 916.422 0.810101 1.35185 0
M  V30 9790 C 917.662 0.397802 2.00492 0
M  V30 9791 C 918.026 -1.01684 1.62863 0
M  V30 9792 O 919.227 -1.53133 2.20916 0
M  V30 9793 C 917.498 0.579524 3.5267 0
M  V30 9794 S 919.057 0.258169 4.3804 0
M  V30 9795 H 915.875 0.150904 0.694801 0
M  V30 9796 H 918.477 1.05312 1.64711 0
M  V30 9797 H 917.181 1.60901 3.77543 0
M  V30 9798 H 916.712 -0.0909886 3.93295 0
M  V30 9799 H 918.727 -0.932882 4.87352 0
M  V30 9800 N 917.9 -1.47166 0.563914 0
M  V30 9801 C 918.848 -2.31798 -0.193009 0
M  V30 9802 C 919.842 -1.43338 -0.902805 0
M  V30 9803 O 921.048 -1.60067 -0.823328 0
M  V30 9804 H 917.423 -0.747613 -0.0811139 0
M  V30 9805 H 919.394 -2.93476 0.539876 0
M  V30 9806 C 918.143 -3.26131 -1.20555 0
M  V30 9807 H 917.466 -3.94166 -0.668803 0
M  V30 9808 H 918.906 -3.88167 -1.70593 0
M  V30 9809 C 917.365 -2.50132 -2.25689 0
M  V30 9810 O 917.895 -2.25064 -3.3273 0
M  V30 9811 N 916.101 -2.11022 -1.99795 0
M  V30 9812 H 915.648 -2.3161 -1.1276 0
M  V30 9813 H 915.606 -1.60489 -2.70353 0
M  V30 9814 N 919.378 -0.300708 -1.54705 0
M  V30 9815 C 920.626 0.308044 -1.99739 0
M  V30 9816 C 920.947 1.54433 -1.19061 0
M  V30 9817 O 920.217 1.93794 -0.286507 0
M  V30 9818 H 918.797 0.116811 -0.73781 0
M  V30 9819 H 921.459 -0.41197 -1.90496 0
M  V30 9820 H 920.555 0.580287 -3.06658 0
M  V30 9821 N 920.856 1.57574 -0.0284266 0
M  V30 9822 C 922.267 1.79585 0.510502 0
M  V30 9823 C 922.618 0.938625 1.72291 0
M  V30 9824 O 921.743 0.14884 2.15888 0
M  V30 9825 C 922.338 3.25703 0.932912 0
M  V30 9826 C 920.897 3.48711 1.41696 0
M  V30 9827 C 920.044 2.74665 0.381356 0
M  V30 9828 H 922.995 1.56647 -0.254464 0
M  V30 9829 H 923.016 3.35376 1.79731 0
M  V30 9830 H 922.528 3.88067 0.0503036 0
M  V30 9831 H 920.629 2.91597 2.31952 0
M  V30 9832 H 920.742 4.57423 1.42481 0
M  V30 9833 H 919.106 2.40123 0.8493 0
M  V30 9834 H 919.889 3.39745 -0.492775 0
M  V30 9835 N 922.334 -0.244713 1.55689 0
M  V30 9836 C 923.264 -1.30667 1.93516 0
M  V30 9837 C 924.245 -1.50094 0.800371 0
M  V30 9838 O 925.43 -1.62665 1.06083 0
M  V30 9839 C 922.56 -2.66101 2.23176 0
M  V30 9840 C 921.514 -2.61366 3.38927 0
M  V30 9841 C 920.84 -4.00616 3.54134 0
M  V30 9842 C 922.14 -2.18161 4.74555 0
M  V30 9843 H 923.834 -0.992546 2.82469 0
M  V30 9844 H 921.38 -0.476018 1.35905 0
M  V30 9845 H 923.333 -3.4053 2.48228 0
M  V30 9846 H 922.057 -2.99154 1.31051 0
M  V30 9847 H 920.716 -1.89395 3.13887 0
M  V30 9848 H 920.364 -4.30938 2.59426 0
M  V30 9849 H 920.064 -3.98335 4.31975 0
M  V30 9850 H 921.588 -4.76741 3.8151 0
M  V30 9851 H 923.002 -2.82323 4.98965 0
M  V30 9852 H 921.399 -2.26988 5.55515 0
M  V30 9853 H 922.469 -1.13333 4.7147 0
M  V30 9854 N 923.813 -1.49104 -0.510467 0
M  V30 9855 C 925.06 -1.58112 -1.26518 0
M  V30 9856 C 925.388 -0.263603 -1.92705 0
M  V30 9857 O 924.643 0.747743 -1.80852 0
M  V30 9858 C 924.942 -2.68259 -2.36161 0
M  V30 9859 C 924.608 -4.10069 -1.87495 0
M  V30 9860 C 923.27 -4.48662 -1.73942 0
M  V30 9861 C 925.622 -4.98859 -1.5096 0
M  V30 9862 C 922.95 -5.73829 -1.22217 0
M  V30 9863 C 925.302 -6.24535 -1.00691 0
M  V30 9864 C 923.966 -6.61967 -0.857691 0
M  V30 9865 H 923.236 -0.578574 -0.462962 0
M  V30 9866 H 925.883 -1.82899 -0.567475 0
M  V30 9867 H 924.188 -2.37407 -3.11681 0
M  V30 9868 H 925.885 -2.7244 -2.9424 0
M  V30 9869 H 922.475 -3.79601 -1.99001 0
M  V30 9870 H 926.659 -4.69706 -1.60282 0
M  V30 9871 H 921.915 -6.01539 -1.09368 0
M  V30 9872 H 926.089 -6.9272 -0.71498 0
M  V30 9873 H 923.716 -7.58839 -0.454702 0
M  V30 9874 N 925.291 0.760815 -1.38019 0
M  V30 9875 C 926.519 1.55001 -1.37048 0
M  V30 9876 C 926.934 1.88754 0.0415261 0
M  V30 9877 O 926.291 1.52254 1.00624 0
M  V30 9878 C 926.342 2.8536 -2.21928 0
M  V30 9879 O 926.063 2.53049 -3.57628 0
M  V30 9880 C 927.564 3.79536 -2.29057 0
M  V30 9881 H 924.784 0.479844 -0.469032 0
M  V30 9882 H 927.328 0.942148 -1.81504 0
M  V30 9883 H 925.483 3.42542 -1.80953 0
M  V30 9884 H 925.897 3.36604 -4.02241 0
M  V30 9885 H 927.371 4.67977 -2.92749 0
M  V30 9886 H 927.848 4.19453 -1.30213 0
M  V30 9887 H 928.454 3.28281 -2.70392 0
M  V30 9888 N 926.769 1.22769 0.988202 0
M  V30 9889 C 927.719 0.969202 2.06375 0
M  V30 9890 C 928.703 -0.0819274 1.60691 0
M  V30 9891 O 929.895 0.129201 1.76528 0
M  V30 9892 C 927.024 0.553919 3.38802 0
M  V30 9893 C 926.11 1.64003 3.91106 0
M  V30 9894 N 926.501 2.86872 4.16579 0
M  V30 9895 C 924.799 1.5128 4.1956 0
M  V30 9896 C 925.5 3.57137 4.5916 0
M  V30 9897 N 924.476 2.84624 4.63131 0
M  V30 9898 H 928.278 1.90247 2.24017 0
M  V30 9899 H 925.792 1.12592 1.17033 0
M  V30 9900 H 927.789 0.350033 4.15428 0
M  V30 9901 H 926.449 -0.37239 3.22558 0
M  V30 9902 H 927.46 3.23254 4.04632 0
M  V30 9903 H 924.137 0.653032 4.12361 0
M  V30 9904 H 925.527 4.62428 4.87452 0
M  V30 9905 N 928.247 -1.18576 1.03814 0
M  V30 9906 C 929.487 -1.90187 0.748882 0
M  V30 9907 C 929.851 -1.78383 -0.710177 0
M  V30 9908 O 931.052 -2.44678 -1.11293 0
M  V30 9909 C 929.323 -3.36688 1.19901 0
M  V30 9910 S 930.882 -4.26419 1.03501 0
M  V30 9911 H 927.7 -0.656765 0.272362 0
M  V30 9912 H 930.302 -1.43296 1.32991 0
M  V30 9913 H 929.006 -3.42808 2.25635 0
M  V30 9914 H 928.537 -3.88616 0.611669 0
M  V30 9915 H 930.552 -4.96176 -0.0490431 0
M  V30 9916 N 929.725 -0.817259 -1.34754 0
M  V30 9917 C 930.953 -0.415451 -2.02686 0
M  V30 9918 C 931.368 0.97688 -1.61563 0
M  V30 9919 O 930.725 1.63125 -0.818321 0
M  V30 9920 C 930.776 -0.501486 -3.58005 0
M  V30 9921 O 930.497 -1.83893 -3.97637 0
M  V30 9922 C 931.998 -0.0938504 -4.43201 0
M  V30 9923 H 929.218 -0.16742 -0.649778 0
M  V30 9924 H 931.762 -1.10384 -1.7215 0
M  V30 9925 H 929.917 0.138766 -3.87151 0
M  V30 9926 H 930.331 -1.8092 -4.92309 0
M  V30 9927 H 931.805 -0.205145 -5.51619 0
M  V30 9928 H 932.282 0.962011 -4.28535 0
M  V30 9929 H 932.888 -0.707677 -4.19371 0
M  V30 9930 N 931.203 1.46865 -0.571711 0
M  V30 9931 C 932.48 1.95596 0.0132445 0
M  V30 9932 C 932.86 1.51438 1.47071 0
M  V30 9933 O 932.208 0.759917 2.15494 0
M  V30 9934 C 932.418 3.48689 -0.147335 0
M  V30 9935 C 933.766 4.24599 -0.00946329 0
M  V30 9936 O 934.79 3.5612 -0.0756112 0
M  V30 9937 O 933.649 5.46332 0.135361 0
M  V30 9938 H 930.743 0.825102 0.0560039 0
M  V30 9939 H 933.289 1.57199 -0.639256 0
M  V30 9940 H 932.061 3.73681 -1.16096 0
M  V30 9941 H 931.684 3.93887 0.542109 0
M  V30 9942 N 932.681 0.308908 1.54543 0
M  V30 9943 C 934.097 -0.0442273 1.59539 0
M  V30 9944 C 934.297 -1.51743 1.32575 0
M  V30 9945 O 933.353 -2.27134 1.10302 0
M  V30 9946 C 934.666 0.360826 2.98527 0
M  V30 9947 C 936.214 0.310252 3.11459 0
M  V30 9948 C 936.689 0.690246 4.52769 0
M  V30 9949 N 938.18 0.643084 4.58714 0
M  V30 9950 C 938.915 0.909483 5.66141 0
M  V30 9951 N 938.411 1.24226 6.81572 0
M  V30 9952 N 940.204 0.836018 5.55848 0
M  V30 9953 H 932.355 1.26893 1.70329 0
M  V30 9954 H 934.618 0.514986 0.795923 0
M  V30 9955 H 934.324 1.38669 3.23209 0
M  V30 9956 H 934.198 -0.281563 3.76148 0
M  V30 9957 H 936.585 -0.706375 2.86521 0
M  V30 9958 H 936.666 0.987373 2.35976 0
M  V30 9959 H 936.31 1.70472 4.78437 0
M  V30 9960 H 936.24 -0.00903075 5.26599 0
M  V30 9961 H 938.731 0.397138 3.75807 0
M  V30 9962 H 939.044 1.4313 7.5943 0
M  V30 9963 H 937.389 1.28038 6.83104 0
M  V30 9964 H 940.58 0.575637 4.64547 0
M  V30 9965 H 940.753 1.047 6.39486 0
M  V30 9966 N 934.159 -1.57557 0.0367827 0
M  V30 9967 C 935.389 -1.96134 -0.649225 0
M  V30 9968 C 935.797 -0.912279 -1.65753 0
M  V30 9969 O 935.14 0.113569 -1.83349 0
M  V30 9970 C 935.202 -3.30889 -1.40545 0
M  V30 9971 C 934.866 -4.53622 -0.554609 0
M  V30 9972 C 935.863 -5.19611 0.17331 0
M  V30 9973 C 933.548 -4.99907 -0.48976 0
M  V30 9974 C 935.542 -6.3021 0.95467 0
M  V30 9975 C 933.229 -6.10386 0.295299 0
M  V30 9976 C 934.227 -6.75398 1.01621 0
M  V30 9977 O 933.915 -7.83755 1.78839 0
M  V30 9978 H 933.647 -0.650662 -0.183344 0
M  V30 9979 H 936.201 -2.05179 0.0951512 0
M  V30 9980 H 934.431 -3.18356 -2.19513 0
M  V30 9981 H 936.12 -3.54315 -1.9803 0
M  V30 9982 H 936.886 -4.84819 0.132589 0
M  V30 9983 H 932.765 -4.49105 -1.04046 0
M  V30 9984 H 936.309 -6.80886 1.51789 0
M  V30 9985 H 932.206 -6.44616 0.33771 0
M  V30 9986 H 932.974 -8.0046 1.70898 0
M  V30 9987 N 935.637 0.236453 -1.55816 0
M  V30 9988 C 937.048 0.80468 -1.68469 0
M  V30 9989 C 937.399 1.85601 -0.636133 0
M  V30 9990 O 936.524 2.15323 0.215622 0
M  V30 9991 C 937.119 1.46634 -3.05424 0
M  V30 9992 C 935.678 1.98214 -3.19981 0
M  V30 9993 C 934.825 0.83695 -2.64368 0
M  V30 9994 H 937.776 0.0120647 -1.58695 0
M  V30 9995 H 937.797 2.33472 -3.00451 0
M  V30 9996 H 937.309 0.700931 -3.81718 0
M  V30 9997 H 935.41 2.77604 -2.4853 0
M  V30 9998 H 935.523 2.17235 -4.2702 0
M  V30 9999 H 933.887 1.24028 -2.22462 0
M  V30 10000 H 934.67 0.084451 -3.43196 0
M  V30 10001 N 937.115 1.49373 0.502552 0
M  V30 10002 C 938.045 1.68839 1.61294 0
M  V30 10003 C 939.026 0.537096 1.61398 0
M  V30 10004 O 940.211 0.772764 1.78163 0
M  V30 10005 C 937.341 1.75347 2.99784 0
M  V30 10006 C 936.295 2.90251 3.14545 0
M  V30 10007 C 935.621 2.8187 4.54371 0
M  V30 10008 C 936.921 4.31207 2.94717 0
M  V30 10009 H 938.615 2.61803 1.45257 0
M  V30 10010 H 936.161 1.25987 0.697371 0
M  V30 10011 H 938.114 1.87552 3.77362 0
M  V30 10012 H 936.838 0.789814 3.16906 0
M  V30 10013 H 935.497 2.77646 2.39392 0
M  V30 10014 H 935.145 1.83416 4.68367 0
M  V30 10015 H 934.845 3.5899 4.65188 0
M  V30 10016 H 936.369 2.96081 5.34012 0
M  V30 10017 H 937.783 4.44501 3.62065 0
M  V30 10018 H 936.18 5.09536 3.17007 0
M  V30 10019 H 937.25 4.45759 1.90857 0
M  V30 10020 N 938.594 -0.753485 1.38421 0
M  V30 10021 C 939.819 -1.54783 1.38047 0
M  V30 10022 C 940.244 -1.8808 -0.0276371 0
M  V30 10023 O 939.602 -1.5058 -1.00973 0
M  V30 10024 C 939.65 -2.82353 2.24297 0
M  V30 10025 O 938.754 -3.77509 1.66014 0
M  V30 10026 H 938.095 -0.468151 0.470883 0
M  V30 10027 H 940.625 -0.931144 1.82184 0
M  V30 10028 H 940.635 -3.31277 2.38159 0
M  V30 10029 H 939.31 -2.57449 3.26639 0
M  V30 10030 H 937.887 -3.36212 1.61294 0
M  V30 10031 N 940.072 -1.23292 -0.981677 0
M  V30 10032 C 941.022 -0.980133 -2.05858 0
M  V30 10033 C 942.006 0.0734044 -1.60732 0
M  V30 10034 O 943.198 -0.138561 -1.76457 0
M  V30 10035 C 940.327 -0.571879 -3.38503 0
M  V30 10036 C 939.413 -1.66075 -3.90231 0
M  V30 10037 N 939.804 -2.89077 -4.15052 0
M  V30 10038 C 938.102 -1.53503 -4.18751 0
M  V30 10039 C 938.803 -3.59567 -4.5726 0
M  V30 10040 N 937.779 -2.87076 -4.61615 0
M  V30 10041 H 941.581 -1.91432 -2.23005 0
M  V30 10042 H 939.095 -1.13211 -1.16434 0
M  V30 10043 H 941.092 -0.372059 -4.15236 0
M  V30 10044 H 939.752 0.355278 -3.2275 0
M  V30 10045 H 940.763 -3.25395 -4.02912 0
M  V30 10046 H 937.44 -0.674891 -4.12009 0
M  V30 10047 H 938.83 -4.65007 -4.84993 0
M  V30 10048 N 941.55 1.18024 -1.04442 0
M  V30 10049 C 942.498 2.23834 -0.632557 0
M  V30 10050 C 943.492 1.65902 0.342488 0
M  V30 10051 O 944.698 1.78778 0.20937 0
M  V30 10052 H 941.073 0.728544 -0.186353 0
M  V30 10053 H 943.044 2.55876 -1.53526 0
M  V30 10054 C 941.793 3.47697 -0.0153661 0
M  V30 10055 H 941.116 3.92574 -0.756704 0
M  V30 10056 H 942.556 4.23345 0.235541 0
M  V30 10057 C 941.015 3.13416 1.23579 0
M  V30 10058 O 941.545 3.27499 2.3261 0
M  V30 10059 N 939.751 2.67708 1.13053 0
M  V30 10060 H 939.298 2.56449 0.243277 0
M  V30 10061 H 939.256 2.45143 1.96855 0
M  V30 10062 N 943.028 0.824394 1.34319 0
M  V30 10063 C 944.274 0.413779 1.98534 0
M  V30 10064 C 944.607 -1.02089 1.65201 0
M  V30 10065 O 943.882 -1.71129 0.924402 0
M  V30 10066 C 944.165 0.61801 3.54757 0
M  V30 10067 C 944.018 2.0989 3.97827 0
M  V30 10068 C 945.337 0.0549041 4.40066 0
M  V30 10069 H 942.456 0.151815 0.721194 0
M  V30 10070 H 945.098 1.03723 1.5919 0
M  V30 10071 H 943.248 0.0873107 3.88402 0
M  V30 10072 H 944.92 2.69335 3.74508 0
M  V30 10073 H 943.163 2.58881 3.48085 0
M  V30 10074 H 943.834 2.1926 5.06586 0
M  V30 10075 H 946.31 0.508348 4.12983 0
M  V30 10076 H 945.186 0.227595 5.48428 0
M  V30 10077 H 945.447 -1.04025 4.29687 0
M  V30 10078 N 944.506 -1.46559 0.579492 0
M  V30 10079 C 945.783 -1.956 -0.00287136 0
M  V30 10080 C 946.163 -1.52215 -1.46266 0
M  V30 10081 O 945.511 -0.771335 -2.15088 0
M  V30 10082 C 945.721 -3.48606 0.165824 0
M  V30 10083 C 947.069 -4.24588 0.0319807 0
M  V30 10084 O 948.093 -3.56075 0.094496 0
M  V30 10085 O 946.952 -5.46396 -0.106386 0
M  V30 10086 H 944.046 -0.825387 -0.0516274 0
M  V30 10087 H 946.592 -1.56858 0.647584 0
M  V30 10088 H 945.364 -3.7306 1.18076 0
M  V30 10089 H 944.987 -3.94169 -0.521212 0
M  V30 10090 N 945.984 -0.3171 -1.54377 0
M  V30 10091 C 946.917 0.594178 -2.20329 0
M  V30 10092 C 947.895 1.12067 -1.17812 0
M  V30 10093 O 949.079 1.18588 -1.46524 0
M  V30 10094 C 946.206 1.81463 -2.85987 0
M  V30 10095 C 945.252 1.41996 -4.02168 0
M  V30 10096 S 946.085 0.462159 -5.33502 0
M  V30 10097 C 947.241 1.69004 -6.02651 0
M  V30 10098 H 947.474 0.0339261 -2.97281 0
M  V30 10099 H 945.007 -0.101196 -1.54068 0
M  V30 10100 H 946.965 2.51494 -3.2444 0
M  V30 10101 H 945.626 2.34606 -2.08851 0
M  V30 10102 H 944.819 2.32921 -4.4695 0
M  V30 10103 H 944.421 0.799423 -3.65356 0
M  V30 10104 H 946.713 2.62839 -6.24437 0
M  V30 10105 H 947.656 1.28451 -6.96352 0
M  V30 10106 H 948.064 1.87408 -5.32483 0
M  V30 10107 N 947.462 1.57535 -0.0451378 0
M  V30 10108 C 948.425 2.1008 0.916461 0
M  V30 10109 C 949.425 1.01913 1.2438 0
M  V30 10110 O 950.615 1.2801 1.18148 0
M  V30 10111 C 947.747 2.58001 2.22818 0
M  V30 10112 H 948.94 2.96334 0.461076 0
M  V30 10113 H 946.493 1.54974 0.203169 0
M  V30 10114 H 947.228 1.75123 2.72951 0
M  V30 10115 H 947.013 3.3704 2.00366 0
M  V30 10116 H 948.503 2.98822 2.9171 0
M  V30 10117 N 948.94 -0.228186 1.55939 0
M  V30 10118 C 950.17 -0.969211 1.82455 0
M  V30 10119 C 950.578 -1.78714 0.621133 0
M  V30 10120 O 949.921 -1.78841 -0.419694 0
M  V30 10121 C 949.983 -1.94088 3.02605 0
M  V30 10122 C 949.647 -1.30811 4.37878 0
M  V30 10123 C 950.644 -0.701275 5.15149 0
M  V30 10124 C 948.329 -1.32187 4.84595 0
M  V30 10125 C 950.323 -0.116631 6.37293 0
M  V30 10126 C 948.01 -0.733375 6.06683 0
M  V30 10127 C 949.008 -0.131804 6.82873 0
M  V30 10128 O 948.696 0.447549 8.02653 0
M  V30 10129 H 948.428 -0.289951 0.610659 0
M  V30 10130 H 950.982 -0.250576 2.03866 0
M  V30 10131 H 949.212 -2.69833 2.76996 0
M  V30 10132 H 950.901 -2.5469 3.1605 0
M  V30 10133 H 951.667 -0.683022 4.80166 0
M  V30 10134 H 947.546 -1.77949 4.25271 0
M  V30 10135 H 951.09 0.353539 6.96704 0
M  V30 10136 H 946.987 -0.749019 6.4114 0
M  V30 10137 H 947.755 0.341224 8.17788 0
M  V30 10138 N 950.418 -1.49637 -0.494624 0
M  V30 10139 C 951.381 -1.66252 -1.57775 0
M  V30 10140 C 952.381 -0.534054 -1.51672 0
M  V30 10141 O 953.571 -0.800637 -1.54711 0
M  V30 10142 C 950.703 -1.66584 -2.97426 0
M  V30 10143 H 951.896 -2.62864 -1.4437 0
M  V30 10144 H 949.449 -1.38764 -0.719323 0
M  V30 10145 H 950.184 -0.715798 -3.16302 0
M  V30 10146 H 949.969 -2.48543 -3.03264 0
M  V30 10147 H 951.459 -1.81474 -3.76108 0
M  V30 10148 N 951.896 0.746133 -1.38819 0
M  V30 10149 C 953.136 1.51821 -1.36857 0
M  V30 10150 C 953.5 1.9196 0.0391461 0
M  V30 10151 O 954.701 2.68172 0.183689 0
M  V30 10152 C 952.972 2.73214 -2.3041 0
M  V30 10153 S 954.531 3.62995 -2.46536 0
M  V30 10154 H 951.349 0.51945 -0.485482 0
M  V30 10155 H 953.951 0.875244 -1.74813 0
M  V30 10156 H 952.655 2.41847 -3.31569 0
M  V30 10157 H 952.186 3.42449 -1.9363 0
M  V30 10158 H 954.201 4.66353 -1.69498 0
M  V30 10159 N 953.375 1.23811 0.975125 0
M  V30 10160 C 954.652 0.9815 1.69192 0
M  V30 10161 C 955.032 -0.498373 2.05133 0
M  V30 10162 O 954.38 -1.47087 1.74864 0
M  V30 10163 C 954.59 1.89701 2.92941 0
M  V30 10164 C 955.938 2.16357 3.65342 0
M  V30 10165 O 956.962 1.87293 3.02985 0
M  V30 10166 O 955.821 2.65675 4.77576 0
M  V30 10167 H 952.915 0.370599 0.739314 0
M  V30 10168 H 955.461 1.34876 1.02988 0
M  V30 10169 H 954.233 2.89719 2.63018 0
M  V30 10170 H 953.856 1.53244 3.66881 0
M  V30 10171 N 954.853 -1.17469 1.05066 0
M  V30 10172 C 955.801 -2.23495 0.644418 0
M  V30 10173 C 956.795 -1.66081 -0.333685 0
M  V30 10174 O 958.001 -1.78887 -0.199886 0
M  V30 10175 H 954.376 -0.727546 0.190214 0
M  V30 10176 H 956.347 -2.55058 1.5488 0
M  V30 10177 C 955.096 -3.47684 0.0338051 0
M  V30 10178 H 954.419 -3.92167 0.777513 0
M  V30 10179 H 955.859 -4.23464 -0.213086 0
M  V30 10180 C 954.318 -3.14067 -1.21915 0
M  V30 10181 O 954.848 -3.28728 -2.3087 0
M  V30 10182 N 953.054 -2.68304 -1.11631 0
M  V30 10183 H 952.601 -2.56574 -0.229673 0
M  V30 10184 H 952.559 -2.46184 -1.95553 0
M  V30 10185 N 956.331 -0.831506 -1.3388 0
M  V30 10186 C 957.294 -0.264773 -2.27666 0
M  V30 10187 C 958.294 0.562273 -1.50649 0
M  V30 10188 O 959.484 0.377131 -1.70069 0
M  V30 10189 C 956.616 0.627814 -3.35069 0
M  V30 10190 H 957.809 -1.09225 -2.79303 0
M  V30 10191 H 955.362 -0.604021 -1.44157 0
M  V30 10192 H 956.097 1.47802 -2.88661 0
M  V30 10193 H 955.882 0.0361552 -3.92083 0
M  V30 10194 H 957.372 1.01786 -4.05005 0
M  V30 10195 N 957.809 1.4625 -0.587256 0
M  V30 10196 C 959.057 2.01963 -0.0744273 0
M  V30 10197 C 959.378 1.46065 1.29189 0
M  V30 10198 O 958.648 0.647077 1.84905 0
M  V30 10199 H 957.228 0.746597 -0.0245236 0
M  V30 10200 H 959.89 1.79299 -0.764063 0
M  V30 10201 H 958.986 3.12099 -0.00884894 0
M  V30 10202 N 959.287 0.325282 1.54207 0
M  V30 10203 C 960.533 -0.277185 2.00897 0
M  V30 10204 C 960.866 -1.51651 1.21308 0
M  V30 10205 O 960.141 -1.92237 0.295825 0
M  V30 10206 C 960.424 -0.60961 3.54902 0
M  V30 10207 C 960.277 0.640542 4.45216 0
M  V30 10208 C 961.596 -1.42656 4.16338 0
M  V30 10209 H 958.715 -0.0992722 0.730284 0
M  V30 10210 H 961.357 0.442201 1.84783 0
M  V30 10211 H 959.507 -1.22249 3.68765 0
M  V30 10212 H 961.179 1.27878 4.43221 0
M  V30 10213 H 959.422 1.26908 4.14821 0
M  V30 10214 H 960.093 0.363459 5.50802 0
M  V30 10215 H 962.569 -0.908494 4.06061 0
M  V30 10216 H 961.445 -1.62792 5.24204 0
M  V30 10217 H 961.706 -2.42321 3.69774 0
M  V30 10218 N 960.765 -1.57509 0.0534917 0
M  V30 10219 C 961.695 -2.14698 -0.917999 0
M  V30 10220 C 962.676 -1.06924 -1.32292 0
M  V30 10221 O 963.861 -1.34875 -1.39723 0
M  V30 10222 C 960.991 -2.69383 -2.19203 0
M  V30 10223 C 959.945 -3.82161 -1.9271 0
M  V30 10224 C 959.271 -4.23373 -3.26587 0
M  V30 10225 C 960.571 -5.07199 -1.24686 0
M  V30 10226 H 962.265 -2.96125 -0.44165 0
M  V30 10227 H 959.811 -1.42446 -0.210993 0
M  V30 10228 H 961.764 -3.08031 -2.87567 0
M  V30 10229 H 960.488 -1.85151 -2.69048 0
M  V30 10230 H 959.147 -3.43989 -1.26757 0
M  V30 10231 H 958.795 -3.36089 -3.74237 0
M  V30 10232 H 958.495 -4.99385 -3.09658 0
M  V30 10233 H 960.019 -4.64623 -3.96178 0
M  V30 10234 H 961.433 -5.43279 -1.83088 0
M  V30 10235 H 959.83 -5.88369 -1.18076 0
M  V30 10236 H 960.9 -4.84386 -0.223227 0
M  V30 10237 N 962.243 0.219913 -1.56058 0
M  V30 10238 C 963.654 0.786766 -1.69313 0
M  V30 10239 C 964.005 1.84916 -0.655782 0
M  V30 10240 O 963.13 2.1554 0.192772 0
M  V30 10241 C 963.725 1.43387 -3.06962 0
M  V30 10242 C 962.284 1.94809 -3.22066 0
M  V30 10243 C 961.431 0.808863 -2.65241 0
M  V30 10244 H 964.382 -0.00476777 -1.58699 0
M  V30 10245 H 964.403 2.30272 -3.02911 0
M  V30 10246 H 963.915 0.660405 -3.8244 0
M  V30 10247 H 962.016 2.74952 -2.5146 0
M  V30 10248 H 962.129 2.12694 -4.293 0
M  V30 10249 H 960.493 1.21661 -2.23765 0
M  V30 10250 H 961.276 0.0480458 -3.43266 0
M  V30 10251 N 963.721 1.49897 0.486681 0
M  V30 10252 C 964.671 1.6401 1.58381 0
M  V30 10253 C 965.655 0.495215 1.5309 0
M  V30 10254 O 966.847 0.748876 1.60377 0
M  V30 10255 C 963.976 1.72321 2.96918 0
M  V30 10256 C 963.062 2.92435 3.07152 0
M  V30 10257 N 963.453 4.16326 2.87238 0
M  V30 10258 C 961.751 2.90669 3.38271 0
M  V30 10259 C 962.452 4.97144 3.02031 0
M  V30 10260 N 961.428 4.3079 3.31544 0
M  V30 10261 H 965.23 2.57506 1.41661 0
M  V30 10262 H 962.744 1.46867 0.693106 0
M  V30 10263 H 964.741 1.80532 3.75784 0
M  V30 10264 H 963.401 0.799724 3.14697 0
M  V30 10265 H 964.412 4.46076 2.63128 0
M  V30 10266 H 961.089 2.07758 3.62137 0
M  V30 10267 H 962.479 6.05611 2.91006 0
M  V30 10268 N 965.199 -0.738761 1.39212 0
M  V30 10269 C 966.445 -1.50046 1.36433 0
M  V30 10270 C 966.778 -1.94157 -0.0409474 0
M  V30 10271 O 966.053 -1.66515 -1.00514 0
M  V30 10272 C 966.336 -2.74277 2.33333 0
M  V30 10273 C 966.189 -2.36209 3.82786 0
M  V30 10274 C 967.508 -3.76361 2.28123 0
M  V30 10275 H 964.627 -0.544294 0.496903 0
M  V30 10276 H 967.269 -0.845005 1.70175 0
M  V30 10277 H 965.419 -3.30204 2.04689 0
M  V30 10278 H 967.091 -1.85942 4.22165 0
M  V30 10279 H 965.334 -1.68483 3.99745 0
M  V30 10280 H 966.005 -3.25156 4.46069 0
M  V30 10281 H 968.481 -3.30009 2.53443 0
M  V30 10282 H 967.357 -4.60957 2.9801 0
M  V30 10283 H 967.618 -4.23013 1.28499 0
M  V30 10284 N 966.677 -1.24326 -0.968545 0
M  V30 10285 C 967.624 -1.0349 -2.06297 0
M  V30 10286 C 968.594 0.0515333 -1.6602 0
M  V30 10287 O 969.779 -0.102924 -1.90522 0
M  V30 10288 C 966.919 -0.64487 -3.39021 0
M  V30 10289 C 966.032 -1.80469 -3.92498 0
M  V30 10290 C 965.167 -1.36032 -5.13487 0
M  V30 10291 C 964.206 -2.49014 -5.59159 0
M  V30 10292 N 963.343 -2.05451 -6.71367 0
M  V30 10293 H 968.183 -1.97161 -2.23454 0
M  V30 10294 H 965.72 -0.982028 -1.0952 0
M  V30 10295 H 967.678 -0.399771 -4.1528 0
M  V30 10296 H 966.308 0.254845 -3.21792 0
M  V30 10297 H 965.36 -2.16348 -3.12886 0
M  V30 10298 H 966.672 -2.65365 -4.22354 0
M  V30 10299 H 965.826 -1.07405 -5.97117 0
M  V30 10300 H 964.565 -0.481887 -4.85313 0
M  V30 10301 H 963.57 -2.78402 -4.74102 0
M  V30 10302 H 964.795 -3.37413 -5.89346 0
M  V30 10303 H 962.741 -1.20004 -6.4493 0
M  V30 10304 H 962.658 -2.83901 -7.00668 0
M  V30 10305 H 963.926 -1.79962 -7.58442 0
M  V30 10306 N 968.156 1.1691 -1.05688 0
M  V30 10307 C 969.433 1.83266 -0.683601 0
M  V30 10308 C 969.813 1.93858 0.835602 0
M  V30 10309 O 969.161 1.47696 1.7435 0
M  V30 10310 C 969.371 3.20625 -1.37842 0
M  V30 10311 C 970.719 3.96473 -1.51967 0
M  V30 10312 O 971.743 3.30122 -1.33783 0
M  V30 10313 O 970.602 5.15393 -1.81749 0
M  V30 10314 H 967.696 0.791028 -0.241254 0
M  V30 10315 H 970.242 1.24165 -1.15677 0
M  V30 10316 H 969.014 3.07914 -2.41463 0
M  V30 10317 H 968.637 3.87398 -0.894921 0
M  V30 10318 N 969.634 0.838594 1.33437 0
M  V30 10319 C 970.911 0.356112 1.92331 0
M  V30 10320 C 971.291 -1.1585 1.76471 0
M  V30 10321 O 970.639 -1.97281 1.15293 0
M  V30 10322 C 970.849 0.802715 3.39643 0
M  V30 10323 C 972.197 0.810575 4.16791 0
M  V30 10324 O 973.221 0.746304 3.48294 0
M  V30 10325 O 972.08 0.898082 5.3907 0
M  V30 10326 H 969.174 0.100711 0.820845 0
M  V30 10327 H 971.72 0.924428 1.42311 0
M  V30 10328 H 970.492 1.84529 3.45057 0
M  V30 10329 H 970.115 0.210956 3.9704 0
M  V30 10330 N 971.112 -1.45937 0.595003 0
M  V30 10331 C 972.042 -2.33198 -0.11871 0
M  V30 10332 C 973.023 -1.46083 -0.871423 0
M  V30 10333 O 974.208 -1.74879 -0.844461 0
M  V30 10334 C 971.338 -3.28576 -1.12495 0
M  V30 10335 C 970.292 -4.25229 -0.486275 0
M  V30 10336 C 969.618 -5.10204 -1.59986 0
M  V30 10337 C 970.918 -5.19019 0.584473 0
M  V30 10338 H 972.612 -2.93122 0.609886 0
M  V30 10339 H 970.158 -1.40951 0.294742 0
M  V30 10340 H 972.111 -3.88485 -1.6327 0
M  V30 10341 H 970.835 -2.66784 -1.88398 0
M  V30 10342 H 969.494 -3.666 0.000507962 0
M  V30 10343 H 969.142 -4.44789 -2.34886 0
M  V30 10344 H 968.842 -5.75669 -1.1781 0
M  V30 10345 H 970.366 -5.7298 -2.11014 0
M  V30 10346 H 971.78 -5.73073 0.161297 0
M  V30 10347 H 970.177 -5.92893 0.927256 0
M  V30 10348 H 971.247 -4.62208 1.46601 0
M  V30 10349 N 972.59 -0.333456 -1.54032 0
M  V30 10350 C 973.836 0.266527 -2.01041 0
M  V30 10351 C 974.169 1.51006 -1.2211 0
M  V30 10352 O 973.444 1.92078 -0.306016 0
M  V30 10353 C 973.727 0.59078 -3.55221 0
M  V30 10354 C 973.58 -0.664143 -4.4487 0
M  V30 10355 C 974.899 1.40447 -4.17088 0
M  V30 10356 H 972.018 0.0953979 -0.7308 0
M  V30 10357 H 974.66 -0.451995 -1.84545 0
M  V30 10358 H 972.81 1.20292 -3.69408 0
M  V30 10359 H 974.482 -1.30227 -4.42537 0
M  V30 10360 H 972.725 -1.29106 -4.14143 0
M  V30 10361 H 973.396 -0.392664 -5.50602 0
M  V30 10362 H 975.872 0.886946 -4.06537 0
M  V30 10363 H 974.748 1.6001 -5.2506 0
M  V30 10364 H 975.009 2.40357 -3.71054 0
M  V30 10365 N 974.068 1.57479 -0.061844 0
M  V30 10366 C 975.015 2.12152 0.908862 0
M  V30 10367 C 975.985 1.03152 1.30188 0
M  V30 10368 O 977.17 1.3076 1.38948 0
M  V30 10369 C 974.31 2.6796 2.17465 0
M  V30 10370 C 973.423 3.91083 1.83517 0
M  V30 10371 C 972.558 4.35169 3.04633 0
M  V30 10372 C 971.597 5.50964 2.66655 0
M  V30 10373 N 970.734 5.90055 3.80499 0
M  V30 10374 H 975.574 2.94797 0.435743 0
M  V30 10375 H 973.111 1.45686 0.203445 0
M  V30 10376 H 975.069 2.98421 2.91548 0
M  V30 10377 H 973.699 1.88096 2.62335 0
M  V30 10378 H 972.751 3.67146 0.995381 0
M  V30 10379 H 974.063 4.75214 1.51569 0
M  V30 10380 H 973.217 4.67239 3.87005 0
M  V30 10381 H 971.956 3.49871 3.39767 0
M  V30 10382 H 970.961 5.18556 1.82703 0
M  V30 10383 H 972.186 6.37986 2.32702 0
M  V30 10384 H 970.132 5.07708 4.15414 0
M  V30 10385 H 970.049 6.68903 3.52285 0
M  V30 10386 H 971.317 6.26744 4.63479 0
M  V30 10387 N 975.546 -0.211634 1.56173 0
M  V30 10388 C 976.786 -0.941505 1.81425 0
M  V30 10389 C 977.15 -1.8113 0.636862 0
M  V30 10390 O 978.351 -2.57568 0.768907 0
M  V30 10391 C 976.622 -1.75002 3.11623 0
M  V30 10392 S 978.181 -2.53418 3.58225 0
M  V30 10393 H 974.999 -0.316088 0.636875 0
M  V30 10394 H 977.601 -0.206244 1.94409 0
M  V30 10395 H 976.305 -1.10136 3.95346 0
M  V30 10396 H 975.836 -2.5274 3.01473 0
M  V30 10397 H 977.851 -3.77234 3.22349 0
M  V30 10398 N 977.024 -1.50153 -0.478725 0
M  V30 10399 C 977.987 -1.67916 -1.56003 0
M  V30 10400 C 978.987 -0.550111 -1.51097 0
M  V30 10401 O 980.177 -0.817001 -1.53853 0
M  V30 10402 C 977.309 -1.6973 -2.95643 0
M  V30 10403 H 978.502 -2.6438 -1.41573 0
M  V30 10404 H 976.055 -1.39519 -0.704565 0
M  V30 10405 H 976.79 -0.749306 -3.15525 0
M  V30 10406 H 976.575 -2.51745 -3.00611 0
M  V30 10407 H 978.065 -1.85453 -3.74162 0
M  V30 10408 N 978.502 0.731368 -1.39602 0
M  V30 10409 C 979.412 1.87579 -1.40894 0
M  V30 10410 C 980.428 1.71336 -0.303319 0
M  V30 10411 O 981.604 1.93875 -0.545377 0
M  V30 10412 C 978.669 3.23211 -1.25442 0
M  V30 10413 C 977.73 3.51822 -2.46008 0
M  V30 10414 C 976.963 4.80982 -2.31284 0
M  V30 10415 O 977.186 5.54958 -1.31824 0
M  V30 10416 O 976.12 5.09574 -3.20341 0
M  V30 10417 H 979.946 1.89444 -2.3737 0
M  V30 10418 H 977.531 0.879675 -1.20756 0
M  V30 10419 H 979.413 4.04257 -1.18972 0
M  V30 10420 H 978.088 3.22108 -0.320637 0
M  V30 10421 H 976.995 2.70847 -2.58055 0
M  V30 10422 H 978.328 3.57707 -3.38093 0
M  V30 10423 N 979.98 1.24838 0.961938 0
M  V30 10424 C 981.228 1.08936 1.70227 0
M  V30 10425 C 981.549 -0.371582 1.91427 0
M  V30 10426 O 980.819 -1.26461 1.49614 0
M  V30 10427 H 979.399 0.400128 0.630799 0
M  V30 10428 H 982.061 1.56848 1.15692 0
M  V30 10429 H 981.157 1.59195 2.68446 0
M  V30 10430 N 981.458 -1.16348 1.06306 0
M  V30 10431 C 982.686 -1.90782 0.800614 0
M  V30 10432 C 983.101 -1.77439 -0.645033 0
M  V30 10433 O 982.458 -1.11912 -1.4416 0
M  V30 10434 C 982.509 -3.41484 1.18621 0
M  V30 10435 O 982.23 -3.54428 2.57512 0
M  V30 10436 C 983.731 -4.32968 0.951525 0
M  V30 10437 H 980.951 -0.604977 0.290247 0
M  V30 10438 H 983.495 -1.47476 1.41672 0
M  V30 10439 H 981.65 -3.82493 0.614633 0
M  V30 10440 H 982.064 -4.4788 2.72954 0
M  V30 10441 H 983.538 -5.37169 1.27095 0
M  V30 10442 H 984.015 -4.39055 -0.112734 0
M  V30 10443 H 984.621 -3.97687 1.50749 0
M  V30 10444 N 982.937 -0.845659 -1.3299 0
M  V30 10445 C 984.183 -0.445311 -1.9785 0
M  V30 10446 C 984.516 0.994476 -1.66805 0
M  V30 10447 O 983.791 1.69636 -0.95151 0
M  V30 10448 C 984.074 -0.674371 -3.53729 0
M  V30 10449 C 983.927 -2.16192 -3.94437 0
M  V30 10450 C 985.246 -0.124908 -4.39923 0
M  V30 10451 H 982.365 -0.163269 -0.718688 0
M  V30 10452 H 985.007 -1.06242 -1.5752 0
M  V30 10453 H 983.157 -0.149091 -3.88214 0
M  V30 10454 H 984.829 -2.75259 -3.70176 0
M  V30 10455 H 983.072 -2.64386 -3.43922 0
M  V30 10456 H 983.743 -2.27292 -5.03033 0
M  V30 10457 H 986.219 -0.573986 -4.12122 0
M  V30 10458 H 985.095 -0.314816 -5.47996 0
M  V30 10459 H 985.356 0.971758 -4.31288 0
M  V30 10460 N 984.415 1.45619 -0.602734 0
M  V30 10461 C 985.645 2.06348 -0.102105 0
M  V30 10462 C 986.053 1.44884 1.21677 0
M  V30 10463 O 985.396 0.555559 1.75098 0
M  V30 10464 C 985.458 3.59309 0.117026 0
M  V30 10465 C 985.122 4.43081 -1.11931 0
M  V30 10466 C 986.119 4.78364 -2.03627 0
M  V30 10467 C 983.804 4.83908 -1.34677 0
M  V30 10468 C 985.798 5.53325 -3.16403 0
M  V30 10469 C 983.485 5.58624 -2.47754 0
M  V30 10470 C 984.483 5.93249 -3.38445 0
M  V30 10471 O 984.171 6.6645 -4.49555 0
M  V30 10472 H 983.903 0.672988 -0.0637478 0
M  V30 10473 H 986.457 1.87928 -0.828983 0
M  V30 10474 H 984.687 3.76111 0.898742 0
M  V30 10475 H 986.376 4.01897 0.568649 0
M  V30 10476 H 987.142 4.47384 -1.87277 0
M  V30 10477 H 983.021 4.56396 -0.649875 0
M  V30 10478 H 986.565 5.80268 -3.87214 0
M  V30 10479 H 982.462 5.89019 -2.64059 0
M  V30 10480 H 983.23 6.84895 -4.48175 0
M  V30 10481 N 985.893 0.34162 1.53853 0
M  V30 10482 C 987.304 -0.14269 1.86154 0
M  V30 10483 C 987.655 -1.50151 1.2629 0
M  V30 10484 O 986.78 -2.08601 0.575735 0
M  V30 10485 C 987.375 -0.265691 3.37757 0
M  V30 10486 C 985.934 -0.694231 3.69942 0
M  V30 10487 C 985.081 0.173195 2.76759 0
M  V30 10488 H 988.032 0.561284 1.48443 0
M  V30 10489 H 988.053 -1.09352 3.64448 0
M  V30 10490 H 987.565 0.723424 3.81298 0
M  V30 10491 H 985.666 -1.69244 3.31945 0
M  V30 10492 H 985.779 -0.485461 4.76634 0
M  V30 10493 H 984.143 -0.35416 2.52226 0
M  V30 10494 H 984.926 1.15941 3.23129 0
M  V30 10495 N 987.371 -1.57444 0.0701946 0
M  V30 10496 C 988.596 -1.98171 -0.61181 0
M  V30 10497 C 989.021 -0.94823 -1.62451 0
M  V30 10498 O 988.379 0.0863553 -1.81094 0
M  V30 10499 C 988.427 -3.37934 -1.2583 0
M  V30 10500 O 987.531 -3.37207 -2.37414 0
M  V30 10501 H 986.872 -0.645056 -0.157477 0
M  V30 10502 H 989.402 -2.04091 0.144235 0
M  V30 10503 H 989.412 -3.75083 -1.60552 0
M  V30 10504 H 988.087 -4.12684 -0.516234 0
M  V30 10505 H 986.664 -3.11826 -2.04497 0
M  V30 10506 N 988.849 0.203349 -1.56283 0
M  V30 10507 C 989.759 1.27266 -1.9708 0
M  V30 10508 C 990.775 1.50268 -0.877236 0
M  V30 10509 O 991.951 1.63044 -1.18231 0
M  V30 10510 C 989.016 2.59871 -2.29495 0
M  V30 10511 C 988.077 2.45012 -3.52516 0
M  V30 10512 C 987.31 3.71293 -3.83376 0
M  V30 10513 O 987.533 4.75106 -3.15643 0
M  V30 10514 O 986.467 3.67316 -4.76826 0
M  V30 10515 H 990.293 0.956461 -2.88246 0
M  V30 10516 H 987.878 0.407688 -1.4373 0
M  V30 10517 H 989.76 3.38152 -2.51458 0
M  V30 10518 H 988.435 2.91135 -1.415 0
M  V30 10519 H 987.342 1.6487 -3.35811 0
M  V30 10520 H 988.675 2.18683 -4.40952 0
M  V30 10521 N 990.327 1.50405 0.470755 0
M  V30 10522 C 991.573 1.62618 1.22175 0
M  V30 10523 C 991.928 0.322593 1.89676 0
M  V30 10524 O 991.221 -0.679504 1.79146 0
M  V30 10525 C 991.415 2.74426 2.28965 0
M  V30 10526 C 991.244 4.15532 1.71941 0
M  V30 10527 C 990.014 4.81928 1.51899 0
M  V30 10528 C 992.212 4.99762 1.21417 0
M  V30 10529 N 990.194 6.07249 0.901208 0
M  V30 10530 C 991.565 6.15809 0.719638 0
M  V30 10531 C 993.62 4.85535 1.10275 0
M  V30 10532 C 992.323 7.19192 0.124669 0
M  V30 10533 C 994.349 5.89094 0.521721 0
M  V30 10534 C 993.711 7.0439 0.0375645 0
M  V30 10535 H 989.81 0.649215 0.43594 0
M  V30 10536 H 992.394 1.87525 0.523702 0
M  V30 10537 H 990.565 2.51242 2.96196 0
M  V30 10538 H 992.297 2.75996 2.95987 0
M  V30 10539 H 989.052 4.39228 1.77133 0
M  V30 10540 H 989.476 6.7424 0.610722 0
M  V30 10541 H 994.118 3.96681 1.463 0
M  V30 10542 H 991.836 8.0772 -0.247782 0
M  V30 10543 H 995.422 5.8015 0.437872 0
M  V30 10544 H 994.302 7.83154 -0.404993 0
M  V30 10545 N 991.805 -0.723954 1.39988 0
M  V30 10546 C 992.738 -1.84725 1.33985 0
M  V30 10547 C 993.716 -1.61217 0.211623 0
M  V30 10548 O 994.9 -1.84338 0.393905 0
M  V30 10549 C 992.027 -3.20913 1.08317 0
M  V30 10550 C 991.073 -3.63262 2.23478 0
M  V30 10551 S 991.906 -3.71346 3.85827 0
M  V30 10552 C 993.062 -5.10307 3.62405 0
M  V30 10553 H 993.295 -1.89535 2.2905 0
M  V30 10554 H 990.828 -0.889911 1.26174 0
M  V30 10555 H 992.786 -3.99547 0.941921 0
M  V30 10556 H 991.447 -3.13745 0.149203 0
M  V30 10557 H 990.64 -4.62124 2.01139 0
M  V30 10558 H 990.242 -2.91863 2.33863 0
M  V30 10559 H 992.534 -5.96975 3.20354 0
M  V30 10560 H 993.477 -5.37679 4.60768 0
M  V30 10561 H 993.885 -4.80505 2.96269 0
M  V30 10562 N 993.283 -1.25346 -0.955304 0
M  V30 10563 C 994.529 -1.10218 -1.70235 0
M  V30 10564 C 994.862 0.356124 -1.90907 0
M  V30 10565 O 994.137 1.26253 -1.47954 0
M  V30 10566 C 994.42 -1.85627 -3.08569 0
M  V30 10567 C 994.273 -3.39281 -2.95311 0
M  V30 10568 C 995.592 -1.63886 -4.08448 0
M  V30 10569 H 992.711 -0.401781 -0.617852 0
M  V30 10570 H 995.353 -1.5417 -1.11048 0
M  V30 10571 H 993.503 -1.48269 -3.59094 0
M  V30 10572 H 995.175 -3.8631 -2.52116 0
M  V30 10573 H 993.418 -3.67027 -2.31244 0
M  V30 10574 H 994.089 -3.87258 -3.93364 0
M  V30 10575 H 996.565 -1.96406 -3.6683 0
M  V30 10576 H 995.441 -2.19087 -5.03281 0
M  V30 10577 H 995.702 -0.580021 -4.38279 0
M  V30 10578 N 994.761 1.15782 -1.06922 0
M  V30 10579 C 996.007 1.86741 -0.790922 0
M  V30 10580 C 996.34 1.81863 0.681149 0
M  V30 10581 O 995.615 1.23871 1.49954 0
M  V30 10582 C 995.898 3.36038 -1.29422 0
M  V30 10583 C 995.751 3.49573 -2.83052 0
M  V30 10584 C 997.07 4.30647 -0.907239 0
M  V30 10585 H 994.189 0.678064 -0.288787 0
M  V30 10586 H 996.831 1.36054 -1.32624 0
M  V30 10587 H 994.981 3.79336 -0.838843 0
M  V30 10588 H 996.653 3.1517 -3.36847 0
M  V30 10589 H 994.896 2.91275 -3.21467 0
M  V30 10590 H 995.567 4.5445 -3.13335 0
M  V30 10591 H 998.043 3.95286 -1.29956 0
M  V30 10592 H 996.919 5.33604 -1.28679 0
M  V30 10593 H 997.18 4.41703 0.187251 0
M  V30 10594 N 996.239 0.8527 1.3254 0
M  V30 10595 C 997.186 0.293905 2.28921 0
M  V30 10596 C 998.156 -0.598027 1.54961 0
M  V30 10597 O 999.341 -0.533355 1.83194 0
M  V30 10598 C 996.481 -0.513361 3.4126 0
M  V30 10599 C 995.594 0.404144 4.30105 0
M  V30 10600 C 994.729 -0.415564 5.29572 0
M  V30 10601 C 993.768 0.499461 6.10059 0
M  V30 10602 N 992.905 -0.282949 7.0153 0
M  V30 10603 H 997.745 1.12107 2.76109 0
M  V30 10604 H 995.282 0.564272 1.35847 0
M  V30 10605 H 997.24 -0.997008 4.05112 0
M  V30 10606 H 995.87 -1.30537 2.95229 0
M  V30 10607 H 994.922 1.00617 3.66852 0
M  V30 10608 H 996.234 1.10648 4.86373 0
M  V30 10609 H 995.388 -0.962458 5.99017 0
M  V30 10610 H 994.127 -1.15127 4.73917 0
M  V30 10611 H 993.132 1.05825 5.39519 0
M  V30 10612 H 994.357 1.23375 6.67799 0
M  V30 10613 H 992.303 -1.00179 6.48306 0
M  V30 10614 H 992.22 0.36039 7.55141 0
M  V30 10615 H 993.488 -0.811632 7.75263 0
M  V30 10616 N 997.718 -1.45297 0.610449 0
M  V30 10617 C 998.948 -2.0629 0.113047 0
M  V30 10618 C 999.356 -1.45527 -1.20907 0
M  V30 10619 O 998.699 -0.564837 -1.74801 0
M  V30 10620 C 998.761 -3.59366 -0.0979692 0
M  V30 10621 C 998.425 -4.42481 1.14279 0
M  V30 10622 C 999.422 -4.77277 2.06161 0
M  V30 10623 C 997.107 -4.83187 1.37241 0
M  V30 10624 C 999.101 -5.51639 3.19333 0
M  V30 10625 C 996.788 -5.57303 2.50713 0
M  V30 10626 C 997.786 -5.91445 3.41587 0
M  V30 10627 O 997.474 -6.64056 4.53083 0
M  V30 10628 H 997.206 -0.67264 0.0673159 0
M  V30 10629 H 999.76 -1.87486 0.838937 0
M  V30 10630 H 997.99 -3.76582 -0.878783 0
M  V30 10631 H 999.679 -4.02193 -0.547327 0
M  V30 10632 H 1000.44 -4.46384 1.89647 0
M  V30 10633 H 996.324 -4.56045 0.67407 0
M  V30 10634 H 999.868 -5.78207 3.90286 0
M  V30 10635 H 995.765 -5.8761 2.67179 0
M  V30 10636 H 996.533 -6.82509 4.51801 0
M  V30 10637 N 999.196 -0.349774 -1.5367 0
M  V30 10638 C 1000.13 0.547309 -2.2154 0
M  V30 10639 C 1001.11 1.09543 -1.20163 0
M  V30 10640 O 1002.29 1.15453 -1.49006 0
M  V30 10641 C 999.418 1.75356 -2.89772 0
M  V30 10642 C 998.464 1.33433 -4.0509 0
M  V30 10643 S 999.297 0.348891 -5.34362 0
M  V30 10644 C 1000.45 1.56183 -6.061 0
M  V30 10645 H 1000.69 -0.0291392 -2.97286 0
M  V30 10646 H 998.219 -0.133853 -1.53819 0
M  V30 10647 H 1000.18 2.44555 -3.29701 0
M  V30 10648 H 998.838 2.30123 -2.1378 0
M  V30 10649 H 998.031 2.23388 -4.5179 0
M  V30 10650 H 997.633 0.721746 -3.6697 0
M  V30 10651 H 999.925 2.49535 -6.29872 0
M  V30 10652 H 1000.87 1.13651 -6.9892 0
M  V30 10653 H 1001.28 1.76071 -5.36339 0
M  V30 10654 N 1000.67 1.57404 -0.0785433 0
M  V30 10655 C 1001.92 1.93361 0.58786 0
M  V30 10656 C 1002.24 0.959856 1.6974 0
M  V30 10657 O 1001.51 0.0091173 1.95898 0
M  V30 10658 H 1000.09 0.713825 0.220141 0
M  V30 10659 H 1002.75 1.94411 -0.137986 0
M  V30 10660 H 1001.85 2.95346 1.00881 0
M  V30 10661 N 1002.15 -0.195058 1.56388 0
M  V30 10662 C 1003.4 -0.915444 1.80626 0
M  V30 10663 C 1003.73 -1.83255 0.651768 0
M  V30 10664 O 1002.98 -1.92314 -0.362464 0
M  V30 10665 C 1003.28 -1.7637 3.10851 0
M  V30 10666 C 1002.95 -0.997572 4.39726 0
M  V30 10667 C 1001.61 -0.786043 4.74737 0
M  V30 10668 C 1003.96 -0.45851 5.19179 0
M  V30 10669 C 1001.29 -0.023972 5.86695 0
M  V30 10670 C 1003.64 0.29035 6.31933 0
M  V30 10671 C 1002.3 0.512895 6.65527 0
M  V30 10672 H 1001.57 -0.334985 0.660959 0
M  V30 10673 H 1004.22 -0.181815 1.90635 0
M  V30 10674 H 1002.53 -2.566 2.9608 0
M  V30 10675 H 1004.22 -2.3237 3.26811 0
M  V30 10676 H 1000.81 -1.17245 4.12252 0
M  V30 10677 H 1005 -0.609334 4.92545 0
M  V30 10678 H 1000.25 0.158421 6.11195 0
M  V30 10679 H 1004.43 0.715429 6.92715 0
M  V30 10680 H 1002.05 1.10531 7.52122 0
M  V30 10681 N 1003.63 -1.50653 -0.462772 0
M  V30 10682 C 1004.88 -1.62057 -1.21424 0
M  V30 10683 C 1005.2 -0.324778 -1.91769 0
M  V30 10684 O 1004.46 0.689828 -1.83139 0
M  V30 10685 C 1004.76 -2.75637 -2.27507 0
M  V30 10686 C 1004.42 -4.15826 -1.74354 0
M  V30 10687 C 1003.09 -4.53969 -1.5958 0
M  V30 10688 C 1005.44 -5.03409 -1.35012 0
M  V30 10689 C 1002.77 -5.77427 -1.03899 0
M  V30 10690 C 1005.12 -6.27422 -0.807704 0
M  V30 10691 C 1003.78 -6.6436 -0.646657 0
M  V30 10692 H 1003.05 -0.59301 -0.44432 0
M  V30 10693 H 1005.7 -1.84612 -0.508999 0
M  V30 10694 H 1004 -2.47203 -3.0397 0
M  V30 10695 H 1005.7 -2.81663 -2.85424 0
M  V30 10696 H 1002.29 -3.85739 -1.86823 0
M  V30 10697 H 1006.48 -4.74567 -1.45258 0
M  V30 10698 H 1001.73 -6.04713 -0.901751 0
M  V30 10699 H 1005.91 -6.94644 -0.494234 0
M  V30 10700 H 1003.53 -7.59901 -0.213053 0
M  V30 10701 N 1005.11 0.71652 -1.4037 0
M  V30 10702 C 1006.06 1.85194 -1.40734 0
M  V30 10703 C 1007.05 1.66934 -0.287969 0
M  V30 10704 O 1008.26 1.74051 -0.458957 0
M  V30 10705 H 1004.63 0.609922 -0.439885 0
M  V30 10706 H 1006.6 1.82003 -2.36468 0
M  V30 10707 C 1005.35 3.23048 -1.28589 0
M  V30 10708 H 1004.67 3.37704 -2.13999 0
M  V30 10709 H 1006.11 4.02633 -1.32902 0
M  V30 10710 C 1004.57 3.369 0.00396512 0
M  V30 10711 O 1005.1 3.89881 0.967243 0
M  V30 10712 N 1003.31 2.90508 0.0731565 0
M  V30 10713 H 1002.86 2.4758 -0.711454 0
M  V30 10714 H 1002.81 3.00155 0.935652 0
M  V30 10715 N 1006.59 1.25851 0.948643 0
M  V30 10716 C 1007.83 1.10954 1.69397 0
M  V30 10717 C 1008.16 -0.348443 1.91353 0
M  V30 10718 O 1007.42 -1.27285 1.48651 0
M  V30 10719 C 1007.72 1.81565 3.07846 0
M  V30 10720 C 1007.38 3.31477 3.0567 0
M  V30 10721 C 1006.04 3.72371 3.04784 0
M  V30 10722 C 1008.4 4.27225 2.98543 0
M  V30 10723 C 1005.72 5.07416 2.94527 0
M  V30 10724 C 1008.08 5.62301 2.89828 0
M  V30 10725 C 1006.74 6.02516 2.87281 0
M  V30 10726 H 1006.01 0.406011 0.619868 0
M  V30 10727 H 1008.66 1.562 1.10787 0
M  V30 10728 H 1006.96 1.28767 3.70035 0
M  V30 10729 H 1008.66 1.67486 3.64348 0
M  V30 10730 H 1005.25 2.98941 3.07135 0
M  V30 10731 H 1009.43 3.96618 2.98342 0
M  V30 10732 H 1004.69 5.37746 2.90928 0
M  V30 10733 H 1008.86 6.36182 2.83276 0
M  V30 10734 H 1006.49 7.07116 2.79089 0
M  V30 10735 N 1008.06 -1.15214 1.07534 0
M  V30 10736 C 1009.29 -1.90463 0.820883 0
M  V30 10737 C 1009.71 -1.77578 -0.620305 0
M  V30 10738 O 1009.07 -1.10976 -1.43366 0
M  V30 10739 C 1009.12 -3.38746 1.23627 0
M  V30 10740 O 1008.22 -4.1062 0.382715 0
M  V30 10741 H 1007.57 -0.59292 0.298901 0
M  V30 10742 H 1010.1 -1.45893 1.43445 0
M  V30 10743 H 1010.11 -3.89543 1.21327 0
M  V30 10744 H 1008.78 -3.47443 2.28596 0
M  V30 10745 H 1007.36 -3.69947 0.468374 0
M  V30 10746 N 1009.54 -0.859717 -1.32086 0
M  V30 10747 C 1010.82 -0.386665 -1.9174 0
M  V30 10748 C 1011.2 1.13028 -1.78292 0
M  V30 10749 O 1010.55 1.95422 -1.18417 0
M  V30 10750 C 1010.76 -0.856648 -3.38323 0
M  V30 10751 C 1012.11 -0.87678 -4.15449 0
M  V30 10752 O 1013.13 -0.80162 -3.47063 0
M  V30 10753 O 1011.99 -0.98373 -5.37573 0
M  V30 10754 H 1009.08 -0.113758 -0.819139 0
M  V30 10755 H 1011.63 -0.946952 -1.40822 0
M  V30 10756 H 1010.4 -1.89996 -3.42078 0
M  V30 10757 H 1010.02 -0.274095 -3.96654 0
M  V30 10758 N 1011.02 1.44971 -0.618145 0
M  V30 10759 C 1012.26 2.04044 -0.120625 0
M  V30 10760 C 1012.62 1.47472 1.22947 0
M  V30 10761 O 1013.83 1.97965 1.81834 0
M  V30 10762 C 1012.1 3.57279 -0.0930863 0
M  V30 10763 S 1013.66 4.37468 0.341705 0
M  V30 10764 H 1010.47 0.708891 -0.0547272 0
M  V30 10765 H 1013.08 1.77535 -0.818621 0
M  V30 10766 H 1011.78 3.95961 -1.07903 0
M  V30 10767 H 1011.31 3.88378 0.62657 0
M  V30 10768 H 1013.33 4.70073 1.58888 0
M  V30 10769 N 1012.5 0.357919 1.53482 0
M  V30 10770 C 1013.43 -0.526753 2.23065 0
M  V30 10771 C 1014.44 -1.05239 1.24212 0
M  V30 10772 O 1015.63 -0.960078 1.50482 0
M  V30 10773 C 1012.73 -1.73919 2.9087 0
M  V30 10774 C 1011.91 -1.34638 4.16163 0
M  V30 10775 C 1010.96 -2.42005 4.67247 0
M  V30 10776 O 1009.99 -2.04714 5.31113 0
M  V30 10777 N 1011.19 -3.73478 4.44404 0
M  V30 10778 H 1013.96 0.0692386 2.9962 0
M  V30 10779 H 1011.52 0.182726 1.60866 0
M  V30 10780 H 1013.51 -2.45207 3.21956 0
M  V30 10781 H 1012.08 -2.24223 2.17814 0
M  V30 10782 H 1011.3 -0.463667 3.91464 0
M  V30 10783 H 1012.59 -1.06012 4.97633 0
M  V30 10784 H 1011.99 -4.06555 3.93357 0
M  V30 10785 H 1010.54 -4.40893 4.80059 0
M  V30 10786 N 1013.98 -1.5736 0.0868897 0
M  V30 10787 C 1015.25 -1.85495 -0.620561 0
M  V30 10788 C 1015.63 -0.982218 -1.86857 0
M  V30 10789 O 1014.98 -0.0524529 -2.2844 0
M  V30 10790 C 1015.19 -3.35996 -0.943798 0
M  V30 10791 C 1016.54 -4.03861 -1.31079 0
M  V30 10792 O 1017.56 -3.4083 -1.03507 0
M  V30 10793 O 1016.42 -5.15062 -1.82683 0
M  V30 10794 H 1013.52 -0.766822 -0.309697 0
M  V30 10795 H 1016.06 -1.69282 0.118966 0
M  V30 10796 H 1014.83 -3.91257 -0.0580628 0
M  V30 10797 H 1014.46 -3.57525 -1.73958 0
M  V30 10798 N 1015.45 0.186762 -1.56489 0
M  V30 10799 C 1016.38 1.23395 -1.98232 0
M  V30 10800 C 1017.37 1.4702 -0.855526 0
M  V30 10801 O 1018.55 1.58616 -1.12048 0
M  V30 10802 C 1015.68 2.57635 -2.32898 0
M  V30 10803 C 1014.63 2.48607 -3.48394 0
M  V30 10804 C 1013.96 3.87196 -3.68759 0
M  V30 10805 C 1015.26 2.00398 -4.82325 0
M  V30 10806 H 1016.95 0.887026 -2.85958 0
M  V30 10807 H 1014.5 0.42525 -1.37578 0
M  V30 10808 H 1016.45 3.31082 -2.60696 0
M  V30 10809 H 1015.18 2.94084 -1.42064 0
M  V30 10810 H 1013.84 1.77615 -3.207 0
M  V30 10811 H 1013.48 4.21012 -2.75241 0
M  V30 10812 H 1013.18 3.82029 -4.46462 0
M  V30 10813 H 1014.71 4.62253 -3.98941 0
M  V30 10814 H 1016.12 2.6361 -5.091 0
M  V30 10815 H 1014.52 2.06214 -5.63556 0
M  V30 10816 H 1015.59 0.957562 -4.75351 0
M  V30 10817 N 1016.93 1.50896 0.454776 0
M  V30 10818 C 1017.88 1.71497 1.57136 0
M  V30 10819 C 1018.87 0.58098 1.59126 0
M  V30 10820 O 1020.08 0.761916 1.63079 0
M  V30 10821 H 1016.46 0.54158 0.521724 0
M  V30 10822 H 1018.43 2.65129 1.36928 0
M  V30 10823 C 1017.18 1.84125 2.94947 0
M  V30 10824 H 1016.5 2.7078 2.9414 0
M  V30 10825 H 1017.94 2.02558 3.72487 0
M  V30 10826 C 1016.4 0.596752 3.31573 0
M  V30 10827 O 1016.93 -0.256632 4.00879 0
M  V30 10828 N 1015.13 0.445958 2.87158 0
M  V30 10829 H 1014.68 1.14146 2.30929 0
M  V30 10830 H 1014.64 -0.385519 3.12027 0
M  V30 10831 N 1018.41 -0.709066 1.40748 0
M  V30 10832 C 1019.66 -1.47119 1.39585 0
M  V30 10833 C 1019.99 -1.942 0.000245323 0
M  V30 10834 O 1019.26 -1.68609 -0.969593 0
M  V30 10835 C 1019.55 -2.69266 2.39099 0
M  V30 10836 C 1019.4 -2.28037 3.8771 0
M  V30 10837 C 1020.72 -3.71438 2.36055 0
M  V30 10838 H 1017.84 -0.533632 0.508336 0
M  V30 10839 H 1020.48 -0.808718 1.7193 0
M  V30 10840 H 1018.63 -3.25788 2.11647 0
M  V30 10841 H 1020.3 -1.76946 4.26014 0
M  V30 10842 H 1018.55 -1.59966 4.03229 0
M  V30 10843 H 1019.22 -3.15621 4.52866 0
M  V30 10844 H 1021.69 -3.24559 2.60385 0
M  V30 10845 H 1020.57 -4.54532 3.07721 0
M  V30 10846 H 1020.83 -4.20193 1.37443 0
M  V30 10847 N 1019.89 -1.26353 -0.941956 0
M  V30 10848 C 1020.82 -1.10341 -2.05784 0
M  V30 10849 C 1021.8 -0.00881565 -1.70098 0
M  V30 10850 O 1022.99 -0.180699 -1.93357 0
M  V30 10851 C 1020.12 -0.734788 -3.39438 0
M  V30 10852 C 1019.07 -1.78103 -3.89183 0
M  V30 10853 C 1018.4 -1.26675 -5.19478 0
M  V30 10854 C 1019.7 -3.1824 -4.14151 0
M  V30 10855 H 1021.39 -2.03684 -2.19438 0
M  V30 10856 H 1018.94 -0.980698 -1.05443 0
M  V30 10857 H 1020.89 -0.609653 -4.16967 0
M  V30 10858 H 1019.61 0.234354 -3.25758 0
M  V30 10859 H 1018.27 -1.89482 -3.13835 0
M  V30 10860 H 1017.92 -0.287472 -5.02178 0
M  V30 10861 H 1017.62 -1.96612 -5.53731 0
M  V30 10862 H 1019.14 -1.15427 -5.99591 0
M  V30 10863 H 1020.56 -3.09942 -4.82296 0
M  V30 10864 H 1018.95 -3.8576 -4.59684 0
M  V30 10865 H 1020.02 -3.64354 -3.19959 0
M  V30 10866 N 1021.37 1.14642 -1.08144 0
M  V30 10867 C 1022.3 2.19283 -0.6669 0
M  V30 10868 C 1023.31 1.60292 0.284668 0
M  V30 10869 O 1024.5 1.78352 0.0727383 0
M  V30 10870 C 1021.6 3.38877 0.0398572 0
M  V30 10871 C 1020.77 4.274 -0.929929 0
M  V30 10872 C 1019.83 5.25562 -0.258991 0
M  V30 10873 O 1018.86 5.61999 -0.902563 0
M  V30 10874 N 1020.06 5.71958 0.992177 0
M  V30 10875 H 1022.83 2.55464 -1.5671 0
M  V30 10876 H 1020.39 1.29836 -0.96717 0
M  V30 10877 H 1022.38 4.01605 0.499583 0
M  V30 10878 H 1020.95 3.01043 0.842118 0
M  V30 10879 H 1020.17 3.61649 -1.56857 0
M  V30 10880 H 1021.46 4.83411 -1.58717 0
M  V30 10881 H 1020.86 5.44481 1.53484 0
M  V30 10882 H 1019.41 6.36687 1.39544 0
M  V30 10883 N 1022.85 0.866709 1.31628 0
M  V30 10884 C 1023.79 0.318169 2.28596 0
M  V30 10885 C 1024.76 -0.581558 1.55586 0
M  V30 10886 O 1025.95 -0.513895 1.83749 0
M  V30 10887 C 1023.09 -0.477137 3.41786 0
M  V30 10888 C 1022.2 0.449739 4.29653 0
M  V30 10889 C 1021.34 -0.359373 5.29983 0
M  V30 10890 C 1020.37 0.564138 6.09495 0
M  V30 10891 N 1019.51 -0.208526 7.0179 0
M  V30 10892 H 1024.35 1.15029 2.74904 0
M  V30 10893 H 1021.89 0.578649 1.35241 0
M  V30 10894 H 1023.85 -0.953985 4.06146 0
M  V30 10895 H 1022.48 -1.27398 2.96597 0
M  V30 10896 H 1021.53 1.04502 3.65764 0
M  V30 10897 H 1022.84 1.158 4.85172 0
M  V30 10898 H 1021.99 -0.89887 6.00004 0
M  V30 10899 H 1020.73 -1.10094 4.75111 0
M  V30 10900 H 1019.74 1.11542 5.38366 0
M  V30 10901 H 1020.96 1.30451 6.66453 0
M  V30 10902 H 1018.91 -0.932969 6.49332 0
M  V30 10903 H 1018.83 0.440463 7.54716 0
M  V30 10904 H 1020.09 -0.72936 7.7608 0
M  V30 10905 N 1024.32 -1.44642 0.625825 0
M  V30 10906 C 1025.23 -2.34451 -0.0836134 0
M  V30 10907 C 1026.25 -1.5231 -0.841289 0
M  V30 10908 O 1027.43 -1.85056 -0.794754 0
M  V30 10909 C 1024.49 -3.30211 -1.05648 0
M  V30 10910 C 1023.55 -4.28259 -0.298759 0
M  V30 10911 C 1022.78 -5.19444 -1.22528 0
M  V30 10912 O 1023.01 -5.14444 -2.46382 0
M  V30 10913 O 1021.94 -5.97668 -0.71247 0
M  V30 10914 H 1025.77 -2.96555 0.654912 0
M  V30 10915 H 1023.35 -1.44327 0.386029 0
M  V30 10916 H 1025.23 -3.8917 -1.61632 0
M  V30 10917 H 1023.91 -2.70648 -1.77571 0
M  V30 10918 H 1022.82 -3.72863 0.304001 0
M  V30 10919 H 1024.15 -4.90728 0.380345 0
M  V30 10920 N 1025.8 -0.366053 -1.5329 0
M  V30 10921 C 1026.73 0.523781 -2.22108 0
M  V30 10922 C 1027.71 1.08262 -1.21318 0
M  V30 10923 O 1028.9 1.13866 -1.50222 0
M  V30 10924 C 1026.02 1.72273 -2.91616 0
M  V30 10925 C 1025.07 1.29129 -4.06482 0
M  V30 10926 S 1025.9 0.292195 -5.34702 0
M  V30 10927 C 1027.06 1.49746 -6.07723 0
M  V30 10928 H 1027.29 -0.0606687 -2.97238 0
M  V30 10929 H 1024.82 -0.15016 -1.53668 0
M  V30 10930 H 1026.78 2.41045 -3.32277 0
M  V30 10931 H 1025.44 2.27843 -2.16209 0
M  V30 10932 H 1024.64 2.18583 -4.54134 0
M  V30 10933 H 1024.24 0.682783 -3.67715 0
M  V30 10934 H 1026.53 2.4284 -6.32483 0
M  V30 10935 H 1027.47 1.06232 -7.00086 0
M  V30 10936 H 1027.88 1.70373 -5.38176 0
M  V30 10937 N 1027.28 1.57312 -0.0952337 0
M  V30 10938 C 1028.53 1.95449 0.563155 0
M  V30 10939 C 1028.88 0.976396 1.65784 0
M  V30 10940 O 1028.17 0.00241533 1.916 0
M  V30 10941 C 1028.37 3.37937 1.16332 0
M  V30 10942 C 1028.2 4.49517 0.128308 0
M  V30 10943 C 1026.97 5.04437 -0.295252 0
M  V30 10944 C 1029.16 5.10257 -0.643571 0
M  V30 10945 N 1027.15 5.99573 -1.31852 0
M  V30 10946 C 1028.52 6.01113 -1.51867 0
M  V30 10947 C 1030.57 4.92996 -0.697074 0
M  V30 10948 C 1029.28 6.76559 -2.44256 0
M  V30 10949 C 1031.3 5.69104 -1.60857 0
M  V30 10950 C 1030.66 6.59626 -2.47129 0
M  V30 10951 H 1026.76 0.761844 0.176402 0
M  V30 10952 H 1029.35 1.93886 -0.177833 0
M  V30 10953 H 1027.52 3.40193 1.87413 0
M  V30 10954 H 1029.25 3.63253 1.78408 0
M  V30 10955 H 1026 4.7351 0.0925153 0
M  V30 10956 H 1026.43 6.51843 -1.82836 0
M  V30 10957 H 1031.07 4.22777 -0.0442422 0
M  V30 10958 H 1028.79 7.4604 -3.10564 0
M  V30 10959 H 1032.37 5.57761 -1.65511 0
M  V30 10960 H 1031.25 7.17487 -3.16515 0
M  V30 10961 N 1028.76 -0.17846 1.56586 0
M  V30 10962 C 1029.69 -1.2496 1.90946 0
M  V30 10963 C 1030.67 -1.43136 0.771424 0
M  V30 10964 O 1031.85 -1.58258 1.02405 0
M  V30 10965 C 1028.98 -2.61368 2.15417 0
M  V30 10966 C 1028.03 -2.59969 3.3811 0
M  V30 10967 S 1028.86 -2.09756 4.9271 0
M  V30 10968 C 1030.01 -3.47956 5.20267 0
M  V30 10969 H 1030.25 -0.956287 2.815 0
M  V30 10970 H 1027.78 -0.382709 1.49582 0
M  V30 10971 H 1029.74 -3.39882 2.30197 0
M  V30 10972 H 1028.4 -2.87903 1.25582 0
M  V30 10973 H 1027.59 -3.60309 3.52411 0
M  V30 10974 H 1027.19 -1.89547 3.2241 0
M  V30 10975 H 1029.49 -4.43914 5.11807 0
M  V30 10976 H 1030.43 -3.38536 6.21932 0
M  V30 10977 H 1030.84 -3.43637 4.47855 0
M  V30 10978 N 1030.24 -1.51135 -0.446768 0
M  V30 10979 C 1031.19 -1.68152 -1.53977 0
M  V30 10980 C 1032.17 -0.53563 -1.51723 0
M  V30 10981 O 1033.36 -0.791134 -1.58335 0
M  V30 10982 C 1030.49 -1.80133 -2.92245 0
M  V30 10983 C 1029.58 -3.00476 -2.99291 0
M  V30 10984 N 1029.97 -4.23796 -2.76099 0
M  V30 10985 C 1028.27 -2.99536 -3.30445 0
M  V30 10986 C 1028.97 -5.04977 -2.88744 0
M  V30 10987 N 1027.94 -4.39428 -3.20006 0
M  V30 10988 H 1031.74 -2.61172 -1.34784 0
M  V30 10989 H 1029.26 -1.48653 -0.653923 0
M  V30 10990 H 1031.26 -1.90432 -3.70866 0
M  V30 10991 H 1029.92 -0.882879 -3.12467 0
M  V30 10992 H 1030.93 -4.52896 -2.51209 0
M  V30 10993 H 1027.6 -2.17286 -3.56501 0
M  V30 10994 H 1028.99 -6.13114 -2.74847 0
M  V30 10995 N 1031.71 0.701592 -1.41122 0
M  V30 10996 C 1032.96 1.46376 -1.40363 0
M  V30 10997 C 1033.29 1.94197 -0.0105442 0
M  V30 10998 O 1032.57 1.69121 0.960637 0
M  V30 10999 C 1032.85 2.67994 -2.40523 0
M  V30 11000 C 1032.7 2.25977 -3.88914 0
M  V30 11001 C 1034.02 3.70181 -2.38022 0
M  V30 11002 H 1031.14 0.530929 -0.511159 0
M  V30 11003 H 1033.78 0.799588 -1.72356 0
M  V30 11004 H 1031.93 3.24661 -2.13372 0
M  V30 11005 H 1033.61 1.74684 -4.26946 0
M  V30 11006 H 1031.85 1.57826 -4.04071 0
M  V30 11007 H 1032.52 3.13215 -4.54533 0
M  V30 11008 H 1035 3.23174 -2.62103 0
M  V30 11009 H 1033.87 4.52894 -3.10127 0
M  V30 11010 H 1034.13 4.19458 -1.3967 0
M  V30 11011 N 1033.19 1.2685 0.935242 0
M  V30 11012 C 1034.61 1.04091 1.20984 0
M  V30 11013 C 1034.81 -0.230242 2.0018 0
M  V30 11014 O 1033.86 -0.93778 2.3444 0
M  V30 11015 C 1035.18 2.27586 1.96533 0
M  V30 11016 C 1036.72 2.32547 2.09501 0
M  V30 11017 C 1037.2 3.55751 2.88454 0
M  V30 11018 N 1038.69 3.56263 2.96025 0
M  V30 11019 C 1039.43 4.48262 3.57559 0
M  V30 11020 N 1038.92 5.50557 4.20546 0
M  V30 11021 N 1040.71 4.35901 3.5489 0
M  V30 11022 H 1032.87 2.08484 0.405954 0
M  V30 11023 H 1035.13 0.916548 0.242164 0
M  V30 11024 H 1034.83 3.20076 1.45753 0
M  V30 11025 H 1034.71 2.32305 2.97177 0
M  V30 11026 H 1037.1 1.40568 2.5947 0
M  V30 11027 H 1037.18 2.31836 1.08101 0
M  V30 11028 H 1036.82 4.48063 2.3917 0
M  V30 11029 H 1036.75 3.53711 3.90123 0
M  V30 11030 H 1039.24 2.82278 2.51252 0
M  V30 11031 H 1039.55 6.16935 4.65415 0
M  V30 11032 H 1037.9 5.54407 4.19115 0
M  V30 11033 H 1041.09 3.552 3.04879 0
M  V30 11034 H 1041.26 5.07792 4.02557 0
M  V30 11035 N 1034.67 -1.14067 1.0875 0
M  V30 11036 C 1035.58 -2.22871 0.732498 0
M  V30 11037 C 1036.6 -1.72008 -0.26253 0
M  V30 11038 O 1037.77 -2.01123 -0.105601 0
M  V30 11039 C 1034.84 -3.46371 0.150913 0
M  V30 11040 C 1033.9 -4.12158 1.201 0
M  V30 11041 C 1033.13 -5.29763 0.647075 0
M  V30 11042 O 1033.35 -5.67911 -0.532307 0
M  V30 11043 O 1032.29 -5.8542 1.3988 0
M  V30 11044 H 1036.11 -2.55596 1.64025 0
M  V30 11045 H 1033.7 -1.22065 0.861417 0
M  V30 11046 H 1035.58 -4.21055 -0.170442 0
M  V30 11047 H 1034.26 -3.15362 -0.729948 0
M  V30 11048 H 1033.16 -3.39332 1.57494 0
M  V30 11049 H 1034.5 -4.47282 2.05426 0
M  V30 11050 N 1036.15 -0.873678 -1.31166 0
M  V30 11051 C 1037.08 -0.348011 -2.30892 0
M  V30 11052 C 1038.06 0.563092 -1.60509 0
M  V30 11053 O 1039.24 0.479332 -1.88192 0
M  V30 11054 C 1036.37 0.448158 -3.44396 0
M  V30 11055 C 1035.33 -0.370179 -4.26396 0
M  V30 11056 C 1034.65 0.551903 -5.31844 0
M  V30 11057 C 1035.95 -1.60624 -4.96988 0
M  V30 11058 H 1037.65 -1.18134 -2.75109 0
M  V30 11059 H 1035.19 -0.569502 -1.3226 0
M  V30 11060 H 1037.15 0.826458 -4.13216 0
M  V30 11061 H 1035.87 1.31503 -2.98956 0
M  V30 11062 H 1034.53 -0.730472 -3.59249 0
M  V30 11063 H 1034.18 1.41616 -4.82653 0
M  V30 11064 H 1033.88 0.00823478 -5.87599 0
M  V30 11065 H 1035.4 0.926965 -6.03523 0
M  V30 11066 H 1036.82 -1.29917 -5.58386 0
M  V30 11067 H 1035.21 -2.08926 -5.62557 0
M  V30 11068 H 1036.28 -2.357 -4.23761 0
M  V30 11069 N 1037.63 1.44308 -0.633487 0
M  V30 11070 C 1038.87 2.02322 -0.139123 0
M  V30 11071 C 1039.21 1.49733 1.23667 0
M  V30 11072 O 1038.48 0.682353 1.82138 0
M  V30 11073 C 1038.76 3.59871 -0.128366 0
M  V30 11074 C 1038.62 4.22737 -1.53667 0
M  V30 11075 C 1039.94 4.36702 0.545834 0
M  V30 11076 H 1037.05 0.735161 -0.0520293 0
M  V30 11077 H 1039.7 1.7185 -0.810411 0
M  V30 11078 H 1037.85 3.85963 0.443263 0
M  V30 11079 H 1039.52 4.07744 -2.15737 0
M  V30 11080 H 1037.76 3.80142 -2.08985 0
M  V30 11081 H 1038.43 5.31757 -1.48116 0
M  V30 11082 H 1040.91 4.16057 0.0596879 0
M  V30 11083 H 1039.78 5.46407 0.522557 0
M  V30 11084 H 1040.05 4.11483 1.6166 0
M  V30 11085 N 1039.1 0.374177 1.53094 0
M  V30 11086 C 1040.03 -0.459976 2.28925 0
M  V30 11087 C 1041.02 -1.07656 1.31698 0
M  V30 11088 O 1042.2 -1.09219 1.60577 0
M  V30 11089 C 1039.33 -1.5954 3.08487 0
M  V30 11090 C 1038.28 -1.10563 4.13473 0
M  V30 11091 C 1037.61 -2.33196 4.81169 0
M  V30 11092 C 1038.91 -0.184275 5.21975 0
M  V30 11093 H 1040.6 0.172692 2.98902 0
M  V30 11094 H 1038.15 0.0844956 1.43752 0
M  V30 11095 H 1040.1 -2.18565 3.60288 0
M  V30 11096 H 1038.83 -2.25543 2.36216 0
M  V30 11097 H 1037.49 -0.53801 3.62631 0
M  V30 11098 H 1037.13 -2.97675 4.05461 0
M  V30 11099 H 1036.83 -2.01094 5.52119 0
M  V30 11100 H 1038.36 -2.92892 5.35767 0
M  V30 11101 H 1039.77 -0.682262 5.69226 0
M  V30 11102 H 1038.17 0.0462746 6.00082 0
M  V30 11103 H 1039.24 0.771152 4.78729 0
M  V30 11104 N 1040.58 -1.57259 0.103575 0
M  V30 11105 C 1041.81 -1.99424 -0.569638 0
M  V30 11106 C 1042.23 -0.982475 -1.60403 0
M  V30 11107 O 1041.59 0.0479231 -1.81237 0
M  V30 11108 C 1041.64 -3.40527 -1.18633 0
M  V30 11109 O 1040.74 -3.42167 -2.30208 0
M  V30 11110 H 1040.08 -0.648251 -0.143759 0
M  V30 11111 H 1042.61 -2.03739 0.187493 0
M  V30 11112 H 1042.62 -3.78404 -1.5256 0
M  V30 11113 H 1041.3 -4.13686 -0.428582 0
M  V30 11114 H 1039.88 -3.16093 -1.97837 0
M  V30 11115 N 1042.06 0.170153 -1.56679 0
M  V30 11116 C 1043.31 0.887906 -1.8233 0
M  V30 11117 C 1043.64 1.81845 -0.681608 0
M  V30 11118 O 1042.91 1.9191 0.316362 0
M  V30 11119 C 1043.2 1.68256 -3.18374 0
M  V30 11120 C 1043.05 0.775059 -4.43072 0
M  V30 11121 C 1044.37 2.65001 -3.51372 0
M  V30 11122 H 1041.49 0.32135 -0.663252 0
M  V30 11123 H 1044.13 0.154065 -1.89374 0
M  V30 11124 H 1042.28 2.30817 -3.12499 0
M  V30 11125 H 1043.95 0.162234 -4.61015 0
M  V30 11126 H 1042.2 0.0831809 -4.3372 0
M  V30 11127 H 1042.87 1.36661 -5.34816 0
M  V30 11128 H 1045.34 2.12566 -3.57708 0
M  V30 11129 H 1044.22 3.17667 -4.47637 0
M  V30 11130 H 1044.48 3.45255 -2.76136 0
M  V30 11131 N 1043.54 1.5137 0.438746 0
M  V30 11132 C 1044.5 1.71993 1.51496 0
M  V30 11133 C 1045.5 0.589978 1.49586 0
M  V30 11134 O 1046.69 0.857505 1.51633 0
M  V30 11135 C 1043.82 1.77508 2.91039 0
M  V30 11136 H 1045.02 2.68041 1.34514 0
M  V30 11137 H 1042.57 1.41338 0.667326 0
M  V30 11138 H 1043.3 0.832698 3.13427 0
M  V30 11139 H 1043.09 2.59627 2.9383 0
M  V30 11140 H 1044.58 1.95308 3.69113 0
M  V30 11141 N 1045.02 -0.694098 1.41492 0
M  V30 11142 C 1045.95 -1.82042 1.46229 0
M  V30 11143 C 1046.93 -1.67047 0.320803 0
M  V30 11144 O 1048.11 -1.86758 0.53245 0
M  V30 11145 C 1045.24 -3.2019 1.34519 0
M  V30 11146 C 1044.2 -3.49892 2.46495 0
M  V30 11147 C 1043.52 -4.87411 2.1985 0
M  V30 11148 C 1044.82 -3.4872 3.88834 0
M  V30 11149 H 1046.52 -1.78335 2.40493 0
M  V30 11150 H 1044.06 -0.856566 1.15754 0
M  V30 11151 H 1046.02 -3.98699 1.36445 0
M  V30 11152 H 1044.74 -3.24527 0.367406 0
M  V30 11153 H 1043.4 -2.73734 2.43854 0
M  V30 11154 H 1043.05 -4.88375 1.20411 0
M  V30 11155 H 1042.75 -5.08248 2.94885 0
M  V30 11156 H 1044.27 -5.68228 2.23494 0
M  V30 11157 H 1045.68 -4.1723 3.93182 0
M  V30 11158 H 1044.08 -3.81089 4.63564 0
M  V30 11159 H 1045.15 -2.47665 4.16881 0
M  V30 11160 N 1046.49 -1.27344 -0.928501 0
M  V30 11161 C 1047.72 -1.16278 -1.70772 0
M  V30 11162 C 1048.13 0.283131 -1.8707 0
M  V30 11163 O 1047.48 1.20466 -1.38685 0
M  V30 11164 C 1047.54 -1.77313 -3.1273 0
M  V30 11165 C 1047.2 -3.26488 -3.19773 0
M  V30 11166 C 1048.2 -4.23133 -3.02083 0
M  V30 11167 C 1045.88 -3.67182 -3.42757 0
M  V30 11168 C 1047.88 -5.5845 -3.07267 0
M  V30 11169 C 1045.56 -5.02629 -3.47574 0
M  V30 11170 C 1046.56 -5.98072 -3.29847 0
M  V30 11171 O 1046.25 -7.3105 -3.34397 0
M  V30 11172 H 1045.98 -0.405215 -0.541089 0
M  V30 11173 H 1048.54 -1.68707 -1.17163 0
M  V30 11174 H 1046.77 -1.19361 -3.67818 0
M  V30 11175 H 1048.46 -1.60972 -3.72616 0
M  V30 11176 H 1049.22 -3.93031 -2.84168 0
M  V30 11177 H 1045.1 -2.93369 -3.55606 0
M  V30 11178 H 1048.64 -6.32924 -2.93348 0
M  V30 11179 H 1044.54 -5.32387 -3.65013 0
M  V30 11180 H 1045.31 -7.39488 -3.50857 0
M  V30 11181 N 1047.97 1.13488 -1.09353 0
M  V30 11182 C 1048.92 2.20949 -0.726923 0
M  V30 11183 C 1049.91 1.67205 0.271816 0
M  V30 11184 O 1051.12 1.79505 0.133356 0
M  V30 11185 H 1047.5 0.719985 -0.217086 0
M  V30 11186 H 1049.47 2.49134 -1.6424 0
M  V30 11187 C 1048.22 3.47319 -0.162822 0
M  V30 11188 H 1047.54 3.89011 -0.922527 0
M  V30 11189 H 1048.98 4.23963 0.0557734 0
M  V30 11190 C 1047.44 3.18376 1.10175 0
M  V30 11191 O 1047.97 3.3707 2.18511 0
M  V30 11192 N 1046.17 2.72262 1.01597 0
M  V30 11193 H 1045.72 2.5725 0.134289 0
M  V30 11194 H 1045.68 2.53272 1.86281 0
M  V30 11195 N 1049.45 0.880621 1.30701 0
M  V30 11196 C 1050.36 0.348034 2.32004 0
M  V30 11197 C 1051.38 -0.547508 1.65162 0
M  V30 11198 O 1052.55 -0.441673 1.96497 0
M  V30 11199 C 1049.62 -0.432585 3.43991 0
M  V30 11200 C 1048.68 0.492189 4.26469 0
M  V30 11201 C 1047.91 -0.25127 5.33108 0
M  V30 11202 O 1048.14 -1.47795 5.5092 0
M  V30 11203 O 1047.07 0.396376 6.00593 0
M  V30 11204 H 1050.9 1.18798 2.79501 0
M  V30 11205 H 1048.48 0.64432 1.34792 0
M  V30 11206 H 1050.36 -0.874733 4.12221 0
M  V30 11207 H 1049.04 -1.2489 2.98637 0
M  V30 11208 H 1047.94 0.983058 3.60953 0
M  V30 11209 H 1049.28 1.27439 4.75416 0
M  V30 11210 N 1050.93 -1.4397 0.641131 0
M  V30 11211 C 1052.16 -2.06303 0.157006 0
M  V30 11212 C 1052.57 -1.47981 -1.17248 0
M  V30 11213 O 1051.93 -0.606471 -1.72128 0
M  V30 11214 C 1051.98 -3.6147 0.0468425 0
M  V30 11215 O 1051.7 -4.17622 1.32376 0
M  V30 11216 C 1053.2 -4.40857 -0.464795 0
M  V30 11217 H 1050.42 -0.665684 0.0842946 0
M  V30 11218 H 1052.97 -1.84675 0.878363 0
M  V30 11219 H 1051.12 -3.82325 -0.625006 0
M  V30 11220 H 1051.54 -5.11167 1.17509 0
M  V30 11221 H 1053.01 -5.49813 -0.490862 0
M  V30 11222 H 1053.49 -4.13016 -1.4938 0
M  V30 11223 H 1054.09 -4.24943 0.174146 0
M  V30 11224 N 1052.41 -0.382291 -1.52893 0
M  V30 11225 C 1053.65 0.202133 -2.01489 0
M  V30 11226 C 1053.98 1.47399 -1.26901 0
M  V30 11227 O 1053.24 1.92439 -0.355771 0
M  V30 11228 C 1053.54 0.523437 -3.53546 0
M  V30 11229 C 1053.2 -0.656042 -4.46102 0
M  V30 11230 C 1051.86 -0.979633 -4.71123 0
M  V30 11231 C 1054.22 -1.44545 -5.00756 0
M  V30 11232 C 1051.54 -2.0943 -5.48047 0
M  V30 11233 C 1053.9 -2.55066 -5.78899 0
M  V30 11234 C 1052.56 -2.87942 -6.02201 0
M  V30 11235 H 1051.83 0.0739659 -0.737299 0
M  V30 11236 H 1054.48 -0.518196 -1.84356 0
M  V30 11237 H 1052.78 1.325 -3.68715 0
M  V30 11238 H 1054.48 0.988148 -3.88634 0
M  V30 11239 H 1051.07 -0.393818 -4.26787 0
M  V30 11240 H 1055.25 -1.20869 -4.81357 0
M  V30 11241 H 1050.51 -2.3528 -5.64317 0
M  V30 11242 H 1054.68 -3.1664 -6.20252 0
M  V30 11243 H 1052.31 -3.74435 -6.61591 0
M  V30 11244 N 1053.89 1.57202 -0.111913 0
M  V30 11245 C 1055.13 1.94565 0.546713 0
M  V30 11246 C 1055.45 0.995644 1.67666 0
M  V30 11247 O 1054.72 0.0506681 1.95834 0
M  V30 11248 H 1053.3 0.718334 0.204951 0
M  V30 11249 H 1055.97 1.94074 -0.179193 0
M  V30 11250 H 1055.06 2.9742 0.945931 0
M  V30 11251 N 1055.36 -0.161842 1.56767 0
M  V30 11252 C 1056.31 -1.2002 1.97139 0
M  V30 11253 C 1057.28 -1.43486 0.836713 0
M  V30 11254 O 1058.47 -1.56069 1.0976 0
M  V30 11255 C 1055.61 -2.53228 2.34456 0
M  V30 11256 C 1054.72 -2.37062 3.61145 0
M  V30 11257 C 1053.85 -3.63202 3.87631 0
M  V30 11258 C 1052.89 -3.42008 5.07638 0
M  V30 11259 N 1052.03 -4.60242 5.30209 0
M  V30 11260 H 1056.87 -0.848918 2.85653 0
M  V30 11261 H 1054.41 -0.407753 1.41336 0
M  V30 11262 H 1056.36 -3.30879 2.54116 0
M  V30 11263 H 1054.99 -2.86333 1.4904 0
M  V30 11264 H 1054.05 -1.50539 3.49345 0
M  V30 11265 H 1055.36 -2.17353 4.48953 0
M  V30 11266 H 1054.51 -4.49285 4.0771 0
M  V30 11267 H 1053.25 -3.85899 2.98216 0
M  V30 11268 H 1052.26 -2.54312 4.87448 0
M  V30 11269 H 1053.48 -3.20724 5.98593 0
M  V30 11270 H 1051.43 -4.8314 4.43747 0
M  V30 11271 H 1051.34 -4.43481 6.12259 0
M  V30 11272 H 1052.61 -5.47581 5.54775 0
M  V30 11273 N 1056.84 -1.516 -0.430713 0
M  V30 11274 C 1057.77 -1.69594 -1.54177 0
M  V30 11275 C 1058.79 -0.576518 -1.5225 0
M  V30 11276 O 1059.98 -0.85104 -1.56906 0
M  V30 11277 C 1057.08 -1.70148 -2.93092 0
M  V30 11278 C 1056.25 -2.98782 -3.1945 0
M  V30 11279 C 1055.31 -2.91435 -4.38123 0
M  V30 11280 O 1054.33 -3.65372 -4.36454 0
M  V30 11281 N 1055.54 -2.0774 -5.42056 0
M  V30 11282 H 1058.3 -2.65442 -1.39143 0
M  V30 11283 H 1055.86 -1.49569 -0.61974 0
M  V30 11284 H 1057.85 -1.62793 -3.70514 0
M  V30 11285 H 1056.42 -0.818667 -3.0169 0
M  V30 11286 H 1055.64 -3.19954 -2.30267 0
M  V30 11287 H 1056.93 -3.83919 -3.33892 0
M  V30 11288 H 1056.33 -1.47059 -5.46251 0
M  V30 11289 H 1054.89 -2.06259 -6.18305 0
M  V30 11290 N 1058.32 0.686584 -1.41858 0
M  V30 11291 C 1059.25 1.81264 -1.47193 0
M  V30 11292 C 1060.23 1.66875 -0.329657 0
M  V30 11293 O 1061.42 1.86473 -0.542347 0
M  V30 11294 C 1058.55 3.19472 -1.36216 0
M  V30 11295 C 1057.5 3.4858 -2.48347 0
M  V30 11296 C 1056.83 4.86239 -2.22432 0
M  V30 11297 C 1058.13 3.46653 -3.90678 0
M  V30 11298 H 1059.82 1.77057 -2.41436 0
M  V30 11299 H 1057.37 0.850415 -1.16206 0
M  V30 11300 H 1059.32 3.97969 -1.38558 0
M  V30 11301 H 1058.04 3.24327 -0.384611 0
M  V30 11302 H 1056.7 2.72437 -2.45303 0
M  V30 11303 H 1056.35 4.8773 -1.22999 0
M  V30 11304 H 1056.05 5.06677 -2.97577 0
M  V30 11305 H 1057.57 5.67034 -2.26505 0
M  V30 11306 H 1058.99 4.15139 -3.95389 0
M  V30 11307 H 1057.38 3.78625 -4.65578 0
M  V30 11308 H 1058.45 2.45451 -4.18189 0
M  V30 11309 N 1059.8 1.27835 0.921735 0
M  V30 11310 C 1061.02 1.17465 1.70929 0
M  V30 11311 C 1061.45 -0.264171 1.86236 0
M  V30 11312 O 1060.81 -1.19124 1.36671 0
M  V30 11313 C 1060.85 1.8697 3.08342 0
M  V30 11314 O 1059.96 1.17173 3.95404 0
M  V30 11315 H 1059.3 0.408206 0.523702 0
M  V30 11316 H 1061.83 1.69013 1.15307 0
M  V30 11317 H 1061.84 1.94564 3.58621 0
M  V30 11318 H 1060.51 2.91633 2.96518 0
M  V30 11319 H 1059.09 1.17688 3.53842 0
M  V30 11320 N 1061.28 -1.12907 1.09954 0
M  V30 11321 C 1062.52 -1.83661 0.833761 0
M  V30 11322 C 1062.84 -1.84736 -0.642798 0
M  V30 11323 O 1064.04 -2.51437 -1.0243 0
M  V30 11324 C 1062.5 -3.29763 1.44168 0
M  V30 11325 C 1062.11 -3.3706 2.95118 0
M  V30 11326 C 1063.85 -4.05522 1.25509 0
M  V30 11327 C 1061.76 -4.77467 3.48969 0
M  V30 11328 H 1060.69 -0.688115 0.308242 0
M  V30 11329 H 1063.34 -1.27166 1.32291 0
M  V30 11330 H 1061.72 -3.86094 0.880215 0
M  V30 11331 H 1062.9 -2.90695 3.57537 0
M  V30 11332 H 1061.21 -2.7477 3.12874 0
M  V30 11333 H 1063.81 -5.09188 1.63191 0
M  V30 11334 H 1064.15 -4.15837 0.196208 0
M  V30 11335 H 1064.68 -3.55536 1.78435 0
M  V30 11336 H 1061.42 -4.72344 4.54501 0
M  V30 11337 H 1060.94 -5.24305 2.91315 0
M  V30 11338 H 1062.62 -5.46397 3.46495 0
M  V30 11339 N 1062.75 -0.88754 -1.30232 0
M  V30 11340 C 1063.72 -0.361095 -2.26338 0
M  V30 11341 C 1064.72 0.497871 -1.52898 0
M  V30 11342 O 1065.91 0.30466 -1.71515 0
M  V30 11343 C 1063.04 0.485135 -3.3743 0
M  V30 11344 H 1064.23 -1.20973 -2.74419 0
M  V30 11345 H 1061.78 -0.664619 -1.41466 0
M  V30 11346 H 1062.52 1.35425 -2.9467 0
M  V30 11347 H 1062.3 -0.130173 -3.91884 0
M  V30 11348 H 1063.79 0.845169 -4.08958 0
M  V30 11349 N 1064.23 1.43628 -0.648757 0
M  V30 11350 C 1065.47 2.03742 -0.163878 0
M  V30 11351 C 1065.84 1.50047 1.19791 0
M  V30 11352 O 1067.04 2.01777 1.77594 0
M  V30 11353 C 1065.31 3.57001 -0.168849 0
M  V30 11354 S 1066.87 4.38094 0.248835 0
M  V30 11355 H 1063.69 0.70757 -0.0697515 0
M  V30 11356 H 1066.29 1.75759 -0.856094 0
M  V30 11357 H 1064.99 3.93583 -1.16277 0
M  V30 11358 H 1064.52 3.8962 0.544048 0
M  V30 11359 H 1066.54 4.73338 1.48882 0
M  V30 11360 N 1065.71 0.390394 1.52688 0
M  V30 11361 C 1066.64 -0.43567 2.294 0
M  V30 11362 C 1067.62 -1.06253 1.32832 0
M  V30 11363 O 1068.81 -1.07509 1.61726 0
M  V30 11364 C 1065.94 -1.56259 3.10162 0
M  V30 11365 C 1064.89 -1.06172 4.14622 0
M  V30 11366 C 1064.22 -2.2808 4.83615 0
M  V30 11367 C 1065.52 -0.128902 5.22141 0
M  V30 11368 H 1067.21 0.204384 2.98702 0
M  V30 11369 H 1064.76 0.0997377 1.43654 0
M  V30 11370 H 1066.71 -2.14732 3.62585 0
M  V30 11371 H 1065.43 -2.23025 2.38595 0
M  V30 11372 H 1064.09 -0.499518 3.63181 0
M  V30 11373 H 1063.74 -2.93358 4.08595 0
M  V30 11374 H 1063.44 -1.95227 5.5422 0
M  V30 11375 H 1064.96 -2.87193 5.38844 0
M  V30 11376 H 1066.38 -0.621849 5.69917 0
M  V30 11377 H 1064.78 0.109919 5.99999 0
M  V30 11378 H 1065.85 0.821884 4.77884 0
M  V30 11379 N 1067.19 -1.57141 0.120249 0
M  V30 11380 C 1068.6 -1.5784 -0.236335 0
M  V30 11381 C 1068.8 -1.13304 -1.66626 0
M  V30 11382 O 1067.86 -0.821004 -2.3878 0
M  V30 11383 C 1069.17 -3.007 -0.00188211 0
M  V30 11384 C 1070.72 -3.12927 -0.0676838 0
M  V30 11385 C 1071.2 -4.57789 0.139092 0
M  V30 11386 N 1072.69 -4.63122 0.085104 0
M  V30 11387 C 1073.42 -5.72978 0.219983 0
M  V30 11388 N 1072.92 -6.91579 0.411102 0
M  V30 11389 N 1074.71 -5.61874 0.159469 0
M  V30 11390 H 1066.86 -1.84391 1.05422 0
M  V30 11391 H 1069.13 -0.852228 0.415225 0
M  V30 11392 H 1068.83 -3.37575 0.986718 0
M  V30 11393 H 1068.71 -3.70005 -0.733203 0
M  V30 11394 H 1071.09 -2.75909 -1.04681 0
M  V30 11395 H 1071.17 -2.46162 0.695538 0
M  V30 11396 H 1070.82 -4.95506 1.1152 0
M  V30 11397 H 1070.75 -5.22646 -0.644131 0
M  V30 11398 H 1073.24 -3.77854 -0.0590479 0
M  V30 11399 H 1073.55 -7.71149 0.504851 0
M  V30 11400 H 1071.9 -6.9356 0.447091 0
M  V30 11401 H 1075.09 -4.68099 0.0111131 0
M  V30 11402 H 1075.26 -6.47445 0.268028 0
M  V30 11403 N 1068.67 0.153526 -1.5685 0
M  V30 11404 C 1069.94 0.895545 -1.73895 0
M  V30 11405 C 1070.32 1.99625 -0.686504 0
M  V30 11406 O 1069.67 2.26579 0.2957 0
M  V30 11407 C 1069.88 1.44399 -3.17726 0
M  V30 11408 C 1071.23 1.90996 -3.79217 0
M  V30 11409 O 1072.25 1.54155 -3.21115 0
M  V30 11410 O 1071.11 2.58917 -4.81274 0
M  V30 11411 H 1068.21 0.422755 -0.710779 0
M  V30 11412 H 1070.75 0.139961 -1.69122 0
M  V30 11413 H 1069.52 0.652635 -3.85819 0
M  V30 11414 H 1069.15 2.26326 -3.26898 0
M  V30 11415 N 1070.14 1.51827 0.422667 0
M  V30 11416 C 1071.05 1.77066 1.53899 0
M  V30 11417 C 1072.07 0.655541 1.61179 0
M  V30 11418 O 1073.25 0.939448 1.78147 0
M  V30 11419 C 1070.31 1.90372 2.89758 0
M  V30 11420 C 1069.37 3.14256 2.92475 0
M  V30 11421 C 1068.61 3.26918 4.21853 0
M  V30 11422 O 1068.83 2.45164 5.15025 0
M  V30 11423 O 1067.76 4.19989 4.31153 0
M  V30 11424 H 1071.59 2.71791 1.35511 0
M  V30 11425 H 1069.17 1.36506 0.607165 0
M  V30 11426 H 1071.06 2.01024 3.70361 0
M  V30 11427 H 1069.73 0.988347 3.08242 0
M  V30 11428 H 1068.64 3.09072 2.10773 0
M  V30 11429 H 1069.97 4.0553 2.78937 0
M  V30 11430 N 1071.62 -0.679052 1.4222 0
M  V30 11431 C 1072.55 -1.80481 1.48152 0
M  V30 11432 C 1073.53 -1.66698 0.338502 0
M  V30 11433 O 1074.72 -1.86183 0.552228 0
M  V30 11434 C 1071.85 -3.18746 1.37908 0
M  V30 11435 C 1070.8 -3.47258 2.50192 0
M  V30 11436 C 1070.13 -4.85052 2.25008 0
M  V30 11437 C 1071.43 -3.44576 3.92511 0
M  V30 11438 H 1073.12 -1.75774 2.42371 0
M  V30 11439 H 1070.67 -0.844241 1.16656 0
M  V30 11440 H 1072.62 -3.97229 1.40666 0
M  V30 11441 H 1071.35 -3.24119 0.401806 0
M  V30 11442 H 1070 -2.71133 2.46744 0
M  V30 11443 H 1069.65 -4.8707 1.25584 0
M  V30 11444 H 1069.35 -5.05092 3.00259 0
M  V30 11445 H 1070.88 -5.65825 2.29508 0
M  V30 11446 H 1072.29 -4.13036 3.97585 0
M  V30 11447 H 1070.69 -3.76151 4.67579 0
M  V30 11448 H 1071.76 -2.4323 4.19484 0
M  V30 11449 N 1073.1 -1.28322 -0.914942 0
M  V30 11450 C 1074.05 -1.08788 -2.00373 0
M  V30 11451 C 1075.03 -0.0118996 -1.60896 0
M  V30 11452 O 1076.23 -0.231902 -1.75474 0
M  V30 11453 C 1073.36 -0.750508 -3.34996 0
M  V30 11454 C 1072.44 -1.86527 -3.80879 0
M  V30 11455 N 1072.83 -3.10672 -3.99145 0
M  V30 11456 C 1071.13 -1.75485 -4.10026 0
M  V30 11457 C 1071.83 -3.833 -4.37557 0
M  V30 11458 N 1070.81 -3.11141 -4.45749 0
M  V30 11459 H 1074.61 -2.02984 -2.12544 0
M  V30 11460 H 1072.12 -1.19224 -1.1027 0
M  V30 11461 H 1074.12 -0.591644 -4.1268 0
M  V30 11462 H 1072.78 0.183696 -3.2418 0
M  V30 11463 H 1073.79 -3.46295 -3.85097 0
M  V30 11464 H 1070.47 -0.89234 -4.07852 0
M  V30 11465 H 1071.86 -4.90061 -4.59662 0
M  V30 11466 N 1074.58 1.12322 -1.10551 0
M  V30 11467 C 1075.99 1.6539 -0.8662 0
M  V30 11468 C 1076.34 1.86695 0.603284 0
M  V30 11469 O 1075.47 1.59432 1.46323 0
M  V30 11470 C 1076.06 3.00443 -1.56587 0
M  V30 11471 C 1074.62 3.50456 -1.37323 0
M  V30 11472 C 1073.77 2.25454 -1.61449 0
M  V30 11473 H 1076.72 0.960866 -1.26305 0
M  V30 11474 H 1076.74 3.66972 -1.00557 0
M  V30 11475 H 1076.25 2.84905 -2.63535 0
M  V30 11476 H 1074.35 3.71176 -0.325431 0
M  V30 11477 H 1074.46 4.29839 -2.11601 0
M  V30 11478 H 1072.83 2.32621 -1.03729 0
M  V30 11479 H 1073.61 2.12469 -2.69651 0
M  V30 11480 N 1076.06 0.894434 1.2976 0
M  V30 11481 C 1077.33 0.437365 1.90648 0
M  V30 11482 C 1077.71 -1.08261 1.81226 0
M  V30 11483 O 1077.06 -1.92213 1.23557 0
M  V30 11484 C 1077.27 0.946047 3.35933 0
M  V30 11485 C 1078.62 0.986621 4.12978 0
M  V30 11486 O 1079.64 0.893356 3.44815 0
M  V30 11487 O 1078.5 1.12591 5.34776 0
M  V30 11488 H 1075.6 0.135436 0.815835 0
M  V30 11489 H 1078.14 0.983955 1.38262 0
M  V30 11490 H 1076.91 1.98998 3.3692 0
M  V30 11491 H 1076.54 0.379164 3.95788 0
M  V30 11492 N 1077.53 -1.43282 0.656365 0
M  V30 11493 C 1078.95 -1.56272 0.324213 0
M  V30 11494 C 1079.15 -1.63946 -1.1715 0
M  V30 11495 O 1078.21 -1.59625 -1.95643 0
M  V30 11496 C 1079.52 -2.82204 1.03833 0
M  V30 11497 C 1081.07 -2.95952 1.01889 0
M  V30 11498 C 1081.54 -4.2472 1.71397 0
M  V30 11499 N 1083.03 -4.31591 1.68176 0
M  V30 11500 C 1083.77 -5.30001 2.1883 0
M  V30 11501 N 1083.26 -6.34671 2.77785 0
M  V30 11502 N 1085.06 -5.21676 2.09311 0
M  V30 11503 H 1077.21 -1.36544 1.62694 0
M  V30 11504 H 1079.47 -0.655999 0.684375 0
M  V30 11505 H 1079.18 -2.82608 2.09346 0
M  V30 11506 H 1079.05 -3.72527 0.591878 0
M  V30 11507 H 1081.44 -2.95087 -0.0278431 0
M  V30 11508 H 1081.52 -2.0691 1.50406 0
M  V30 11509 H 1081.16 -4.26346 2.76028 0
M  V30 11510 H 1081.09 -5.12665 1.20342 0
M  V30 11511 H 1083.58 -3.56573 1.25157 0
M  V30 11512 H 1083.9 -7.06087 3.14104 0
M  V30 11513 H 1082.24 -6.35285 2.81847 0
M  V30 11514 H 1085.43 -4.3882 1.62955 0
M  V30 11515 H 1085.61 -5.9821 2.49095 0
M  V30 11516 N 1079.01 -0.398486 -1.52479 0
M  V30 11517 C 1080.29 0.238776 -1.94137 0
M  V30 11518 C 1080.67 1.63558 -1.33462 0
M  V30 11519 O 1080.02 2.22821 -0.506272 0
M  V30 11520 C 1080.23 0.255863 -3.48061 0
M  V30 11521 C 1081.58 0.480376 -4.21874 0
M  V30 11522 O 1082.6 0.335679 -3.54615 0
M  V30 11523 O 1081.46 0.764654 -5.41124 0
M  V30 11524 H 1078.55 0.150806 -0.813134 0
M  V30 11525 H 1081.1 -0.453659 -1.63524 0
M  V30 11526 H 1079.87 -0.722171 -3.84578 0
M  V30 11527 H 1079.49 0.99284 -3.85004 0
M  V30 11528 N 1080.49 1.57075 -0.12858 0
M  V30 11529 C 1081.74 1.9581 0.527868 0
M  V30 11530 C 1082.07 1.01253 1.65715 0
M  V30 11531 O 1081.35 0.0514853 1.94432 0
M  V30 11532 C 1081.63 3.44406 1.05151 0
M  V30 11533 C 1081.48 4.49737 -0.0750113 0
M  V30 11534 C 1082.8 3.95069 1.9393 0
M  V30 11535 H 1079.92 0.711978 0.19041 0
M  V30 11536 H 1082.56 1.88879 -0.206081 0
M  V30 11537 H 1080.71 3.50443 1.67697 0
M  V30 11538 H 1082.38 4.55793 -0.710685 0
M  V30 11539 H 1080.63 4.27497 -0.736809 0
M  V30 11540 H 1081.3 5.50996 0.332779 0
M  V30 11541 H 1083.77 3.91395 1.41241 0
M  V30 11542 H 1082.65 4.99542 2.27484 0
M  V30 11543 H 1082.91 3.36329 2.86941 0
M  V30 11544 N 1081.97 -0.145205 1.5693 0
M  V30 11545 C 1083.22 -0.855955 1.82637 0
M  V30 11546 C 1083.53 -1.82255 0.710109 0
M  V30 11547 O 1084.74 -2.57758 0.852837 0
M  V30 11548 C 1083.19 -1.57278 3.23715 0
M  V30 11549 C 1082.8 -0.648507 4.43281 0
M  V30 11550 C 1084.55 -2.27021 3.58695 0
M  V30 11551 C 1082.45 -1.36706 5.75383 0
M  V30 11552 H 1081.38 -0.323385 0.68113 0
M  V30 11553 H 1084.03 -0.10869 1.83178 0
M  V30 11554 H 1082.42 -2.36574 3.17567 0
M  V30 11555 H 1083.59 0.109355 4.6067 0
M  V30 11556 H 1081.9 -0.0594029 4.16358 0
M  V30 11557 H 1084.5 -2.81423 4.54648 0
M  V30 11558 H 1084.84 -3.03598 2.8484 0
M  V30 11559 H 1085.38 -1.54642 3.66512 0
M  V30 11560 H 1082.12 -0.6431 6.52338 0
M  V30 11561 H 1081.64 -2.09759 5.61926 0
M  V30 11562 H 1083.32 -1.90748 6.18243 0
M  V30 11563 N 1083.45 -1.52049 -0.414609 0
M  V30 11564 C 1084.38 -1.77956 -1.51175 0
M  V30 11565 C 1085.36 -0.630282 -1.57992 0
M  V30 11566 O 1086.54 -0.875324 -1.73354 0
M  V30 11567 C 1083.67 -1.92527 -2.89051 0
M  V30 11568 C 1082.63 -3.08096 -2.97087 0
M  V30 11569 C 1081.95 -3.07882 -4.37164 0
M  V30 11570 C 1083.25 -4.47656 -2.69075 0
M  V30 11571 H 1084.95 -2.69827 -1.29746 0
M  V30 11572 H 1082.49 -1.29839 -0.62273 0
M  V30 11573 H 1084.45 -2.09234 -3.65786 0
M  V30 11574 H 1083.17 -0.973235 -3.11762 0
M  V30 11575 H 1081.83 -2.91131 -2.22797 0
M  V30 11576 H 1081.48 -2.10411 -4.56877 0
M  V30 11577 H 1081.18 -3.85501 -4.43467 0
M  V30 11578 H 1082.7 -3.26712 -5.15841 0
M  V30 11579 H 1084.12 -4.64855 -3.35534 0
M  V30 11580 H 1082.51 -5.27151 -2.8676 0
M  V30 11581 H 1083.58 -4.56129 -1.64544 0
M  V30 11582 N 1084.93 0.6715 -1.42579 0
M  V30 11583 C 1086.15 1.45972 -1.46628 0
M  V30 11584 C 1086.57 1.88636 -0.0785986 0
M  V30 11585 O 1085.93 1.58345 0.907372 0
M  V30 11586 C 1085.98 2.70668 -2.39627 0
M  V30 11587 O 1085.7 2.29793 -3.72997 0
M  V30 11588 C 1087.2 3.64201 -2.52731 0
M  V30 11589 H 1084.42 0.449044 -0.498598 0
M  V30 11590 H 1086.96 0.824811 -1.87129 0
M  V30 11591 H 1085.12 3.3034 -2.02371 0
M  V30 11592 H 1085.53 3.10341 -4.22834 0
M  V30 11593 H 1087.01 4.48412 -3.21918 0
M  V30 11594 H 1087.48 4.10323 -1.56626 0
M  V30 11595 H 1088.09 3.1042 -2.90722 0
M  V30 11596 N 1086.4 1.28806 0.908124 0
M  V30 11597 C 1087.63 1.1898 1.689 0
M  V30 11598 C 1088.04 -0.253334 1.87496 0
M  V30 11599 O 1087.38 -1.18245 1.40584 0
M  V30 11600 C 1087.45 1.82266 3.0987 0
M  V30 11601 C 1087.11 3.31534 3.14538 0
M  V30 11602 C 1088.11 4.27886 2.95313 0
M  V30 11603 C 1085.79 3.72589 3.36872 0
M  V30 11604 C 1087.79 5.63267 2.98343 0
M  V30 11605 C 1085.47 5.08095 3.39534 0
M  V30 11606 C 1086.47 6.03244 3.2029 0
M  V30 11607 O 1086.16 7.36277 3.22724 0
M  V30 11608 H 1085.89 0.413772 0.534574 0
M  V30 11609 H 1088.45 1.7055 1.14464 0
M  V30 11610 H 1086.68 1.25197 3.65872 0
M  V30 11611 H 1088.36 1.6688 3.70008 0
M  V30 11612 H 1089.13 3.97502 2.77879 0
M  V30 11613 H 1085.01 2.98989 3.50894 0
M  V30 11614 H 1088.55 6.37511 2.83241 0
M  V30 11615 H 1084.45 5.38126 3.56497 0
M  V30 11616 H 1085.22 7.44976 3.39048 0
M  V30 11617 N 1087.88 -1.11734 1.11145 0
M  V30 11618 C 1088.83 -2.19765 0.761982 0
M  V30 11619 C 1089.82 -1.67616 -0.24518 0
M  V30 11620 O 1091.03 -1.79695 -0.104781 0
M  V30 11621 H 1087.4 -0.71644 0.228513 0
M  V30 11622 H 1089.38 -2.4649 1.68183 0
M  V30 11623 C 1088.12 -3.47016 0.218057 0
M  V30 11624 H 1087.45 -3.87494 0.984299 0
M  V30 11625 H 1088.89 -4.23998 0.0116825 0
M  V30 11626 C 1087.35 -3.20088 -1.05096 0
M  V30 11627 O 1087.88 -3.40503 -2.1312 0
M  V30 11628 N 1086.08 -2.73844 -0.972523 0
M  V30 11629 H 1085.63 -2.57431 -0.0933459 0
M  V30 11630 H 1085.59 -2.56204 -1.82228 0
M  V30 11631 N 1089.36 -0.901303 -1.29284 0
M  V30 11632 C 1090.31 -0.378666 -2.27672 0
M  V30 11633 C 1091.28 0.540102 -1.57074 0
M  V30 11634 O 1092.46 0.464997 -1.85047 0
M  V30 11635 C 1089.6 0.38635 -3.42931 0
M  V30 11636 C 1088.71 -0.563496 -4.28309 0
M  V30 11637 C 1087.85 0.218731 -5.30749 0
M  V30 11638 C 1086.89 -0.725536 -6.07785 0
M  V30 11639 N 1086.03 0.0223854 -7.02096 0
M  V30 11640 H 1090.87 -1.22277 -2.71758 0
M  V30 11641 H 1088.4 -0.614302 -1.33659 0
M  V30 11642 H 1090.36 0.845967 -4.08533 0
M  V30 11643 H 1088.99 1.1949 -2.9987 0
M  V30 11644 H 1088.04 -1.14163 -3.62865 0
M  V30 11645 H 1089.35 -1.28623 -4.81931 0
M  V30 11646 H 1088.51 0.739473 -6.02177 0
M  V30 11647 H 1087.25 0.97459 -4.77863 0
M  V30 11648 H 1086.25 -1.25776 -5.3522 0
M  V30 11649 H 1087.48 -1.48075 -6.6276 0
M  V30 11650 H 1085.42 0.760482 -6.51577 0
M  V30 11651 H 1085.34 -0.640408 -7.53283 0
M  V30 11652 H 1086.61 0.523339 -7.77741 0
M  V30 11653 N 1090.84 1.42931 -0.663954 0
M  V30 11654 C 1091.75 2.3459 0.0214234 0
M  V30 11655 C 1092.76 1.54487 0.800611 0
M  V30 11656 O 1093.94 1.87098 0.74541 0
M  V30 11657 C 1091 3.32896 0.968556 0
M  V30 11658 C 1090.07 4.28901 0.185108 0
M  V30 11659 C 1089.3 5.2251 1.08713 0
M  V30 11660 O 1089.52 5.20795 2.32655 0
M  V30 11661 O 1088.46 5.99347 0.553758 0
M  V30 11662 H 1092.28 2.94714 -0.733308 0
M  V30 11663 H 1089.87 1.43252 -0.424159 0
M  V30 11664 H 1091.75 3.93318 1.51257 0
M  V30 11665 H 1090.42 2.75261 1.70333 0
M  V30 11666 H 1089.33 3.71926 -0.402752 0
M  V30 11667 H 1090.66 4.89547 -0.510319 0
M  V30 11668 N 1092.32 0.406567 1.52266 0
M  V30 11669 C 1093.56 -0.1627 2.02748 0
M  V30 11670 C 1093.92 -1.43022 1.28695 0
M  V30 11671 O 1093.21 -1.87715 0.383881 0
M  V30 11672 C 1093.4 -0.467124 3.54334 0
M  V30 11673 C 1093.23 0.76934 4.4307 0
M  V30 11674 C 1092 1.29377 4.88456 0
M  V30 11675 C 1094.2 1.64671 4.87225 0
M  V30 11676 N 1092.18 2.48599 5.61313 0
M  V30 11677 C 1093.55 2.68519 5.58836 0
M  V30 11678 C 1095.61 1.66477 4.69244 0
M  V30 11679 C 1094.31 3.74081 6.14374 0
M  V30 11680 C 1096.34 2.70956 5.25677 0
M  V30 11681 C 1095.7 3.73525 5.97209 0
M  V30 11682 H 1091.8 -0.0211706 0.781713 0
M  V30 11683 H 1094.38 0.560338 1.86463 0
M  V30 11684 H 1092.55 -1.15921 3.70698 0
M  V30 11685 H 1094.29 -1.02505 3.91503 0
M  V30 11686 H 1091.04 0.85219 4.6587 0
M  V30 11687 H 1091.46 3.0897 6.02384 0
M  V30 11688 H 1096.11 0.88519 4.1343 0
M  V30 11689 H 1093.82 4.52896 6.69261 0
M  V30 11690 H 1097.41 2.73258 5.13635 0
M  V30 11691 H 1096.29 4.53043 6.40095 0
M  V30 11692 N 1093.79 -1.57004 0.136909 0
M  V30 11693 C 1095.21 -1.82675 -0.385577 0
M  V30 11694 C 1095.56 -1.05508 -1.65416 0
M  V30 11695 O 1094.68 -0.297207 -2.14349 0
M  V30 11696 C 1095.28 -3.31356 -0.706326 0
M  V30 11697 C 1093.84 -3.57644 -1.17337 0
M  V30 11698 C 1092.98 -2.7664 -0.191239 0
M  V30 11699 H 1095.93 -1.54522 0.36177 0
M  V30 11700 H 1095.95 -3.4696 -1.56201 0
M  V30 11701 H 1095.47 -3.87492 0.217147 0
M  V30 11702 H 1093.57 -3.06883 -2.11313 0
M  V30 11703 H 1093.68 -4.66152 -1.10632 0
M  V30 11704 H 1092.04 -2.45403 -0.681867 0
M  V30 11705 H 1092.83 -3.35543 0.725647 0
M  V30 11706 N 1095.27 0.136881 -1.57004 0
M  V30 11707 C 1096.2 1.17026 -2.02057 0
M  V30 11708 C 1097.18 1.44223 -0.901866 0
M  V30 11709 O 1098.37 1.54971 -1.17037 0
M  V30 11710 C 1095.5 2.50095 -2.40977 0
M  V30 11711 C 1094.45 2.37398 -3.56127 0
M  V30 11712 C 1093.78 3.75268 -3.80891 0
M  V30 11713 C 1095.08 1.84952 -4.88457 0
M  V30 11714 H 1096.77 0.795601 -2.88636 0
M  V30 11715 H 1094.32 0.381266 -1.38861 0
M  V30 11716 H 1096.27 3.22621 -2.71097 0
M  V30 11717 H 1095 2.89416 -1.51348 0
M  V30 11718 H 1093.65 1.67322 -3.26188 0
M  V30 11719 H 1093.3 4.12043 -2.88496 0
M  V30 11720 H 1093 3.67631 -4.5839 0
M  V30 11721 H 1094.53 4.49327 -4.13446 0
M  V30 11722 H 1095.94 2.4728 -5.17229 0
M  V30 11723 H 1094.34 1.88181 -5.69832 0
M  V30 11724 H 1095.41 0.805848 -4.78157 0
M  V30 11725 N 1096.75 1.52266 0.40654 0
M  V30 11726 C 1097.68 1.78755 1.50229 0
M  V30 11727 C 1098.66 0.638652 1.57655 0
M  V30 11728 O 1099.85 0.884505 1.72888 0
M  V30 11729 C 1096.98 1.94057 2.88026 0
M  V30 11730 C 1095.93 3.09667 2.95449 0
M  V30 11731 C 1095.26 3.10196 4.35526 0
M  V30 11732 C 1096.56 4.49077 2.66697 0
M  V30 11733 H 1098.25 2.70511 1.28313 0
M  V30 11734 H 1095.8 1.30167 0.615836 0
M  V30 11735 H 1097.75 2.11171 3.64671 0
M  V30 11736 H 1096.47 0.989755 3.11242 0
M  V30 11737 H 1095.13 2.92308 2.2125 0
M  V30 11738 H 1094.78 2.12831 4.55754 0
M  V30 11739 H 1094.48 3.87847 4.41416 0
M  V30 11740 H 1096 3.29443 5.14101 0
M  V30 11741 H 1097.42 4.66628 3.33064 0
M  V30 11742 H 1095.82 5.28665 2.8396 0
M  V30 11743 H 1096.89 4.56995 1.62122 0
M  V30 11744 N 1098.23 -0.663929 1.42933 0
M  V30 11745 C 1099.16 -1.78899 1.50058 0
M  V30 11746 C 1100.14 -1.66329 0.356164 0
M  V30 11747 O 1101.32 -1.85587 0.571944 0
M  V30 11748 C 1098.45 -3.17265 1.41281 0
M  V30 11749 C 1097.41 -3.44584 2.53861 0
M  V30 11750 C 1096.73 -4.82638 2.3014 0
M  V30 11751 C 1098.03 -3.40394 3.96143 0
M  V30 11752 H 1099.73 -1.73194 2.44222 0
M  V30 11753 H 1097.27 -0.83182 1.17545 0
M  V30 11754 H 1099.23 -3.95715 1.44872 0
M  V30 11755 H 1097.95 -3.23675 0.43616 0
M  V30 11756 H 1096.61 -2.685 2.49606 0
M  V30 11757 H 1096.26 -4.85711 1.30743 0
M  V30 11758 H 1095.96 -5.01879 3.056 0
M  V30 11759 H 1097.48 -5.63359 2.35497 0
M  V30 11760 H 1098.9 -4.08796 4.01943 0
M  V30 11761 H 1097.29 -3.7117 4.71543 0
M  V30 11762 H 1098.36 -2.38767 4.22041 0
M  V30 11763 N 1099.71 -1.29285 -0.901281 0
M  V30 11764 C 1101.12 -1.07263 -1.18182 0
M  V30 11765 C 1101.32 0.177087 -2.0072 0
M  V30 11766 O 1100.38 0.875292 -2.36844 0
M  V30 11767 C 1101.69 -2.32717 -1.9043 0
M  V30 11768 C 1103.24 -2.3802 -2.03262 0
M  V30 11769 C 1103.71 -3.63273 -2.7892 0
M  V30 11770 N 1105.21 -3.63986 -2.86475 0
M  V30 11771 C 1105.94 -4.57585 -3.45549 0
M  V30 11772 N 1105.44 -5.61513 -4.05801 0
M  V30 11773 N 1107.23 -4.45157 -3.43208 0
M  V30 11774 H 1099.38 -2.09487 -0.350536 0
M  V30 11775 H 1101.64 -0.922647 -0.217778 0
M  V30 11776 H 1101.35 -3.23828 -1.37216 0
M  V30 11777 H 1101.22 -2.40102 -2.90913 0
M  V30 11778 H 1103.61 -1.47398 -2.55652 0
M  V30 11779 H 1103.69 -2.3462 -1.01916 0
M  V30 11780 H 1103.34 -4.54246 -2.27206 0
M  V30 11781 H 1103.27 -3.6393 -3.80608 0
M  V30 11782 H 1105.76 -2.8884 -2.43679 0
M  V30 11783 H 1106.07 -6.29058 -4.48894 0
M  V30 11784 H 1104.41 -5.65325 -4.04268 0
M  V30 11785 H 1107.61 -3.63158 -2.95354 0
M  V30 11786 H 1107.78 -5.18286 -3.88952 0
M  V30 11787 N 1101.18 1.11143 -1.11736 0
M  V30 11788 C 1102.13 2.15396 -0.747566 0
M  V30 11789 C 1103.12 1.58948 0.249894 0
M  V30 11790 O 1104.31 1.7691 0.0565267 0
M  V30 11791 C 1101.44 3.42741 -0.195776 0
M  V30 11792 C 1100.53 4.06141 -1.22109 0
M  V30 11793 N 1100.92 4.44351 -2.41631 0
M  V30 11794 C 1099.21 4.33104 -1.06474 0
M  V30 11795 C 1099.92 4.94062 -3.07046 0
M  V30 11796 N 1098.89 4.90411 -2.34516 0
M  V30 11797 H 1102.69 2.42722 -1.6572 0
M  V30 11798 H 1100.21 1.28189 -0.997059 0
M  V30 11799 H 1102.2 4.16809 0.0872984 0
M  V30 11800 H 1100.86 3.16878 0.708406 0
M  V30 11801 H 1101.88 4.36283 -2.79065 0
M  V30 11802 H 1098.55 4.16934 -0.217246 0
M  V30 11803 H 1099.94 5.33234 -4.08792 0
M  V30 11804 N 1102.66 0.908147 1.28804 0
M  V30 11805 C 1103.57 0.397167 2.31214 0
M  V30 11806 C 1104.59 -0.512352 1.66286 0
M  V30 11807 O 1105.76 -0.399893 1.9739 0
M  V30 11808 C 1102.83 -0.359522 3.44831 0
M  V30 11809 C 1101.89 0.582539 4.25329 0
M  V30 11810 C 1101.12 -0.138133 5.33521 0
M  V30 11811 O 1101.35 -1.36076 5.53931 0
M  V30 11812 O 1100.28 0.523682 5.99618 0
M  V30 11813 H 1104.11 1.247 2.76918 0
M  V30 11814 H 1101.69 0.672766 1.33395 0
M  V30 11815 H 1103.57 -0.787098 4.13984 0
M  V30 11816 H 1102.25 -1.18528 3.01219 0
M  V30 11817 H 1101.16 1.0594 3.58786 0
M  V30 11818 H 1102.49 1.37495 4.72605 0
M  V30 11819 N 1104.14 -1.42577 0.671525 0
M  V30 11820 C 1105.39 -2.01185 0.192051 0
M  V30 11821 C 1105.71 -1.53349 -1.20454 0
M  V30 11822 O 1104.98 -0.753781 -1.80817 0
M  V30 11823 H 1103.56 -0.743898 0.0680106 0
M  V30 11824 H 1106.22 -1.74539 0.8673 0
M  V30 11825 H 1105.32 -3.11516 0.190796 0
M  V30 11826 N 1105.62 -0.414636 -1.52048 0
M  V30 11827 C 1106.84 0.161137 -2.06773 0
M  V30 11828 C 1107.27 1.37628 -1.2822 0
M  V30 11829 O 1106.63 1.78562 -0.313915 0
M  V30 11830 C 1106.67 0.48452 -3.5733 0
M  V30 11831 O 1105.78 1.57466 -3.81154 0
M  V30 11832 H 1105.12 0.0118003 -0.663895 0
M  V30 11833 H 1107.65 -0.589424 -1.95926 0
M  V30 11834 H 1107.66 0.741567 -4.01204 0
M  V30 11835 H 1106.33 -0.403733 -4.13936 0
M  V30 11836 H 1104.91 1.30935 -3.49157 0
M  V30 11837 N 1107.1 1.56929 -0.145233 0
M  V30 11838 C 1108.03 2.19685 0.791263 0
M  V30 11839 C 1109.01 1.14455 1.25833 0
M  V30 11840 O 1110.19 1.42791 1.31622 0
M  V30 11841 C 1107.32 2.81705 2.03124 0
M  V30 11842 C 1106.28 3.92746 1.70101 0
M  V30 11843 C 1105.6 4.41694 3.01347 0
M  V30 11844 C 1106.9 5.13606 0.949025 0
M  V30 11845 H 1108.6 2.98196 0.26825 0
M  V30 11846 H 1106.14 1.43434 0.127584 0
M  V30 11847 H 1108.1 3.24273 2.69119 0
M  V30 11848 H 1106.82 2.00523 2.57795 0
M  V30 11849 H 1105.48 3.50794 1.06486 0
M  V30 11850 H 1105.13 3.57336 3.54006 0
M  V30 11851 H 1104.83 5.1659 2.80016 0
M  V30 11852 H 1106.35 4.86931 3.68416 0
M  V30 11853 H 1107.76 5.53029 1.51102 0
M  V30 11854 H 1106.16 5.94252 0.835711 0
M  V30 11855 H 1107.23 4.84863 -0.0595631 0
M  V30 11856 N 1108.58 -0.128553 1.57075 0
M  V30 11857 C 1109.81 -0.851214 1.8825 0
M  V30 11858 C 1110.21 -1.74402 0.733531 0
M  V30 11859 O 1109.56 -1.81149 -0.305108 0
M  V30 11860 C 1109.62 -1.74451 3.14336 0
M  V30 11861 C 1109.28 -1.02699 4.45311 0
M  V30 11862 C 1110.28 -0.37224 5.18566 0
M  V30 11863 C 1107.96 -1.01101 4.9202 0
M  V30 11864 C 1109.96 0.2889 6.36745 0
M  V30 11865 C 1107.65 -0.346063 6.10119 0
M  V30 11866 C 1108.64 0.302744 6.82329 0
M  V30 11867 O 1108.33 0.9571 7.98182 0
M  V30 11868 H 1108.06 -0.250529 0.627863 0
M  V30 11869 H 1110.62 -0.120418 2.05047 0
M  V30 11870 H 1108.85 -2.51671 2.93596 0
M  V30 11871 H 1110.54 -2.34075 3.31608 0
M  V30 11872 H 1111.3 -0.376271 4.83538 0
M  V30 11873 H 1107.18 -1.50543 4.35727 0
M  V30 11874 H 1110.73 0.795901 6.93045 0
M  V30 11875 H 1106.62 -0.339762 6.44605 0
M  V30 11876 H 1107.39 0.860616 8.13963 0
M  V30 11877 N 1110.05 -1.5248 -0.398459 0
M  V30 11878 C 1111 -1.76585 -1.48615 0
M  V30 11879 C 1111.97 -0.608677 -1.54546 0
M  V30 11880 O 1113.16 -0.847383 -1.7095 0
M  V30 11881 C 1110.3 -1.93201 -2.8595 0
M  V30 11882 C 1109.41 -3.20875 -2.89246 0
M  V30 11883 C 1108.54 -3.27862 -4.17947 0
M  V30 11884 C 1107.58 -4.49697 -4.15258 0
M  V30 11885 N 1106.72 -4.54017 -5.35549 0
M  V30 11886 H 1111.56 -2.69412 -1.27362 0
M  V30 11887 H 1109.1 -1.33487 -0.618031 0
M  V30 11888 H 1111.05 -2.00819 -3.65688 0
M  V30 11889 H 1109.68 -1.03743 -3.05675 0
M  V30 11890 H 1108.74 -3.22376 -2.01935 0
M  V30 11891 H 1110.05 -4.1066 -2.83125 0
M  V30 11892 H 1109.2 -3.34611 -5.06083 0
M  V30 11893 H 1107.94 -2.36035 -4.26777 0
M  V30 11894 H 1106.95 -4.43083 -3.25511 0
M  V30 11895 H 1108.17 -5.42831 -4.08059 0
M  V30 11896 H 1106.12 -3.65078 -5.45027 0
M  V30 11897 H 1106.03 -5.37661 -5.31466 0
M  V30 11898 H 1107.3 -4.65009 -6.25609 0
M  V30 11899 N 1111.53 0.65634 -1.43283 0
M  V30 11900 C 1112.76 1.44906 -1.48382 0
M  V30 11901 C 1113.18 1.87823 -0.101993 0
M  V30 11902 O 1112.54 1.57178 0.903597 0
M  V30 11903 C 1112.59 2.66231 -2.43215 0
M  V30 11904 O 1111.69 3.65176 -1.91625 0
M  V30 11905 H 1111.03 0.434601 -0.502014 0
M  V30 11906 H 1113.56 0.803429 -1.88165 0
M  V30 11907 H 1113.57 3.14083 -2.60414 0
M  V30 11908 H 1112.25 2.34336 -3.43598 0
M  V30 11909 H 1110.82 3.24302 -1.84072 0
M  V30 11910 N 1113.01 1.29761 0.894412 0
M  V30 11911 C 1113.96 1.15341 1.99912 0
M  V30 11912 C 1114.93 0.0453488 1.66038 0
M  V30 11913 O 1116.11 0.213829 1.89598 0
M  V30 11914 C 1113.25 0.841432 3.34685 0
M  V30 11915 C 1112.36 2.03046 3.81309 0
M  V30 11916 C 1111.5 1.65739 5.04682 0
M  V30 11917 C 1110.54 2.81191 5.43689 0
M  V30 11918 N 1109.68 2.44244 6.58247 0
M  V30 11919 H 1114.52 2.09854 2.11578 0
M  V30 11920 H 1112.05 1.04421 1.03608 0
M  V30 11921 H 1114.01 0.641211 4.12243 0
M  V30 11922 H 1112.64 -0.066797 3.22731 0
M  V30 11923 H 1111.69 2.34222 2.9974 0
M  V30 11924 H 1113 2.89538 4.06164 0
M  V30 11925 H 1112.16 1.42036 5.8984 0
M  V30 11926 H 1110.9 0.764019 4.81678 0
M  V30 11927 H 1109.9 3.0557 4.57064 0
M  V30 11928 H 1111.13 3.712 5.68672 0
M  V30 11929 H 1109.07 1.57402 6.36837 0
M  V30 11930 H 1108.99 3.24269 6.82924 0
M  V30 11931 H 1110.26 2.23875 7.46659 0
M  V30 11932 N 1114.49 -1.10549 1.12324 0
M  V30 11933 C 1115.76 -1.78968 0.789287 0
M  V30 11934 C 1116.14 -1.984 -0.721156 0
M  V30 11935 O 1115.49 -1.5761 -1.65443 0
M  V30 11936 C 1115.7 -3.12044 1.563 0
M  V30 11937 C 1117.05 -3.86939 1.74825 0
M  V30 11938 O 1118.07 -3.21761 1.52802 0
M  V30 11939 O 1116.93 -5.0392 2.11488 0
M  V30 11940 H 1114.03 -0.775617 0.286962 0
M  V30 11941 H 1116.57 -1.17209 1.2272 0
M  V30 11942 H 1115.35 -2.93313 2.59005 0
M  V30 11943 H 1114.97 -3.81521 1.11926 0
M  V30 11944 N 1115.97 -0.914965 -1.28321 0
M  V30 11945 C 1116.9 -0.421292 -2.29668 0
M  V30 11946 C 1117.88 0.511743 -1.6222 0
M  V30 11947 O 1119.06 0.419218 -1.89621 0
M  V30 11948 C 1116.19 0.338364 -3.45648 0
M  V30 11949 C 1115.15 -0.505646 -4.25003 0
M  V30 11950 C 1114.47 0.382421 -5.33331 0
M  V30 11951 C 1115.77 -1.76354 -4.91626 0
M  V30 11952 H 1117.47 -1.26826 -2.71211 0
M  V30 11953 H 1115.01 -0.611291 -1.30381 0
M  V30 11954 H 1116.96 0.694578 -4.15636 0
M  V30 11955 H 1115.69 1.21925 -3.02988 0
M  V30 11956 H 1114.35 -0.844395 -3.56743 0
M  V30 11957 H 1114 1.26189 -4.86914 0
M  V30 11958 H 1113.7 -0.17871 -5.87328 0
M  V30 11959 H 1115.22 0.73449 -6.06166 0
M  V30 11960 H 1116.63 -1.47616 -5.5397 0
M  V30 11961 H 1115.03 -2.26717 -5.55625 0
M  V30 11962 H 1116.1 -2.49063 -4.16048 0
M  V30 11963 N 1117.44 1.42219 -0.679077 0
M  V30 11964 C 1118.67 2.05516 -0.211342 0
M  V30 11965 C 1119.08 1.5113 1.13826 0
M  V30 11966 O 1118.42 0.647593 1.71907 0
M  V30 11967 C 1118.49 3.59425 -0.0736007 0
M  V30 11968 C 1118.15 4.36525 -1.3526 0
M  V30 11969 C 1119.15 4.66897 -2.28698 0
M  V30 11970 C 1116.83 4.76089 -1.60139 0
M  V30 11971 C 1118.83 5.35775 -3.45288 0
M  V30 11972 C 1116.51 5.44706 -2.77017 0
M  V30 11973 C 1117.51 5.74474 -3.69416 0
M  V30 11974 O 1117.2 6.41683 -4.8425 0
M  V30 11975 H 1116.93 0.668662 -0.0993318 0
M  V30 11976 H 1119.49 1.8327 -0.927434 0
M  V30 11977 H 1117.72 3.80346 0.69811 0
M  V30 11978 H 1119.4 4.04346 0.354813 0
M  V30 11979 H 1120.17 4.36828 -2.10729 0
M  V30 11980 H 1116.05 4.5231 -0.890887 0
M  V30 11981 H 1119.59 5.58927 -4.17428 0
M  V30 11982 H 1115.49 5.74194 -2.9491 0
M  V30 11983 H 1116.26 6.60175 -4.8385 0
M  V30 11984 N 1118.92 0.422693 1.51826 0
M  V30 11985 C 1119.85 -0.386913 2.30272 0
M  V30 11986 C 1120.83 -1.03411 1.35056 0
M  V30 11987 O 1122.02 -1.04055 1.6397 0
M  V30 11988 C 1119.15 -1.49645 3.13407 0
M  V30 11989 C 1118.1 -0.973532 4.16781 0
M  V30 11990 C 1117.43 -2.1777 4.88344 0
M  V30 11991 C 1118.73 -0.0181194 5.22297 0
M  V30 11992 H 1120.42 0.267697 2.98201 0
M  V30 11993 H 1117.97 0.130186 1.4341 0
M  V30 11994 H 1119.92 -2.06993 3.67059 0
M  V30 11995 H 1118.64 -2.17914 2.43272 0
M  V30 11996 H 1117.3 -0.42237 3.64159 0
M  V30 11997 H 1116.95 -2.84625 4.14726 0
M  V30 11998 H 1116.65 -1.83427 5.58237 0
M  V30 11999 H 1118.18 -2.75699 5.44814 0
M  V30 12000 H 1119.59 -0.500822 5.71108 0
M  V30 12001 H 1117.99 0.237163 5.99631 0
M  V30 12002 H 1119.06 0.923065 4.76033 0
M  V30 12003 N 1120.4 -1.5685 0.153553 0
M  V30 12004 C 1121.33 -2.20101 -0.779601 0
M  V30 12005 C 1122.31 -1.15121 -1.25225 0
M  V30 12006 O 1123.5 -1.43487 -1.30862 0
M  V30 12007 C 1120.63 -2.82778 -2.01628 0
M  V30 12008 C 1119.58 -3.93643 -1.68015 0
M  V30 12009 C 1118.91 -4.43286 -2.99001 0
M  V30 12010 C 1120.21 -5.14102 -0.921774 0
M  V30 12011 H 1121.9 -2.98334 -0.252432 0
M  V30 12012 H 1119.45 -1.43499 -0.119975 0
M  V30 12013 H 1121.4 -3.25696 -2.67395 0
M  V30 12014 H 1120.12 -2.01887 -2.56728 0
M  V30 12015 H 1118.78 -3.51354 -1.04624 0
M  V30 12016 H 1118.43 -3.59208 -3.52106 0
M  V30 12017 H 1118.13 -5.18068 -2.77272 0
M  V30 12018 H 1119.65 -4.88878 -3.65828 0
M  V30 12019 H 1121.07 -5.53823 -1.48167 0
M  V30 12020 H 1119.46 -5.94687 -0.804185 0
M  V30 12021 H 1120.53 -4.84825 0.0852757 0
M  V30 12022 N 1121.88 0.120221 -1.57141 0
M  V30 12023 C 1122.81 1.14876 -2.03287 0
M  V30 12024 C 1123.79 1.43259 -0.917112 0
M  V30 12025 O 1124.97 1.53721 -1.18674 0
M  V30 12026 C 1122.1 2.47525 -2.43616 0
M  V30 12027 C 1121.06 2.33607 -3.58625 0
M  V30 12028 C 1120.38 3.71207 -3.84849 0
M  V30 12029 C 1121.68 1.79761 -4.90391 0
M  V30 12030 H 1123.38 0.764943 -2.89463 0
M  V30 12031 H 1120.92 0.366516 -1.39258 0
M  V30 12032 H 1122.88 3.19728 -2.74504 0
M  V30 12033 H 1121.6 2.87794 -1.54409 0
M  V30 12034 H 1120.26 1.63853 -3.27945 0
M  V30 12035 H 1119.91 4.0896 -2.9285 0
M  V30 12036 H 1119.61 3.62749 -4.62263 0
M  V30 12037 H 1121.13 4.44917 -4.18188 0
M  V30 12038 H 1122.55 2.4178 -5.19822 0
M  V30 12039 H 1120.94 1.82126 -5.71795 0
M  V30 12040 H 1122.01 0.755087 -4.78985 0
M  V30 12041 N 1123.36 1.52689 0.390367 0
M  V30 12042 C 1124.59 1.71292 1.1551 0
M  V30 12043 C 1124.99 0.430405 1.84239 0
M  V30 12044 O 1124.34 -0.604823 1.73458 0
M  V30 12045 C 1124.4 2.80597 2.24735 0
M  V30 12046 C 1124.06 4.21757 1.75984 0
M  V30 12047 C 1125.06 5.04961 1.23733 0
M  V30 12048 C 1122.75 4.68071 1.82248 0
M  V30 12049 C 1124.74 6.32561 0.783926 0
M  V30 12050 C 1122.43 5.95656 1.36519 0
M  V30 12051 C 1123.42 6.7773 0.846786 0
M  V30 12052 O 1123.11 8.02923 0.396164 0
M  V30 12053 H 1122.84 0.576906 0.352356 0
M  V30 12054 H 1125.4 2.00117 0.462865 0
M  V30 12055 H 1123.63 2.4719 2.97378 0
M  V30 12056 H 1125.32 2.87616 2.86412 0
M  V30 12057 H 1126.08 4.70363 1.18251 0
M  V30 12058 H 1121.96 4.04278 2.21541 0
M  V30 12059 H 1125.51 6.96572 0.378612 0
M  V30 12060 H 1121.4 6.29758 1.41686 0
M  V30 12061 H 1122.17 8.16861 0.517766 0
M  V30 12062 N 1124.83 -0.648732 1.43629 0
M  V30 12063 C 1126.25 -0.964917 1.27128 0
M  V30 12064 C 1126.45 -2.00561 0.194251 0
M  V30 12065 O 1125.51 -2.48884 -0.42581 0
M  V30 12066 C 1126.82 -1.44491 2.6371 0
M  V30 12067 C 1128.37 -1.56133 2.71278 0
M  V30 12068 C 1128.84 -2.07521 4.08288 0
M  V30 12069 N 1130.33 -2.14817 4.10375 0
M  V30 12070 C 1131.07 -2.55712 5.13224 0
M  V30 12071 N 1130.56 -2.9587 6.26444 0
M  V30 12072 N 1132.36 -2.55691 5.00578 0
M  V30 12073 H 1124.51 0.0398357 2.12363 0
M  V30 12074 H 1126.77 -0.0447705 0.946942 0
M  V30 12075 H 1126.48 -0.754616 3.43509 0
M  V30 12076 H 1126.35 -2.41914 2.89409 0
M  V30 12077 H 1128.74 -2.24263 1.91808 0
M  V30 12078 H 1128.82 -0.571314 2.49338 0
M  V30 12079 H 1128.46 -1.39992 4.88226 0
M  V30 12080 H 1128.39 -3.07362 4.27594 0
M  V30 12081 H 1130.88 -1.86538 3.28652 0
M  V30 12082 H 1131.2 -3.25837 7.0075 0
M  V30 12083 H 1129.54 -2.93664 6.2991 0
M  V30 12084 H 1132.73 -2.23697 4.1119 0
M  V30 12085 H 1132.91 -2.87239 5.80859 0
M  V30 12086 N 1126.31 -1.30234 -0.887518 0
M  V30 12087 C 1127.26 -1.13013 -1.9802 0
M  V30 12088 C 1128.25 -0.0460253 -1.60834 0
M  V30 12089 O 1129.44 -0.26907 -1.74943 0
M  V30 12090 C 1126.57 -0.821397 -3.33329 0
M  V30 12091 C 1125.65 -1.94564 -3.76837 0
M  V30 12092 N 1126.04 -3.19068 -3.92465 0
M  V30 12093 C 1124.34 -1.84142 -4.06211 0
M  V30 12094 C 1125.04 -3.92495 -4.29328 0
M  V30 12095 N 1124.02 -3.20526 -4.39049 0
M  V30 12096 H 1127.82 -2.07446 -2.0819 0
M  V30 12097 H 1125.34 -1.21536 -1.07716 0
M  V30 12098 H 1127.33 -0.679046 -4.11333 0
M  V30 12099 H 1125.99 0.114891 -3.24497 0
M  V30 12100 H 1127 -3.54386 -3.77665 0
M  V30 12101 H 1123.68 -0.97865 -4.05868 0
M  V30 12102 H 1125.07 -4.99701 -4.49164 0
M  V30 12103 N 1127.79 1.09952 -1.12909 0
M  V30 12104 C 1128.72 2.18477 -0.824014 0
M  V30 12105 C 1129.7 1.68744 0.214324 0
M  V30 12106 O 1130.89 1.94057 0.0744281 0
M  V30 12107 C 1128.02 3.46143 -0.283308 0
M  V30 12108 C 1126.97 4.09178 -1.25528 0
M  V30 12109 C 1126.3 5.31604 -0.574574 0
M  V30 12110 C 1127.6 4.52308 -2.6118 0
M  V30 12111 H 1129.29 2.44254 -1.73148 0
M  V30 12112 H 1126.84 1.17394 -0.833952 0
M  V30 12113 H 1128.79 4.21361 -0.057583 0
M  V30 12114 H 1127.51 3.19872 0.659525 0
M  V30 12115 H 1126.17 3.35973 -1.4669 0
M  V30 12116 H 1125.82 5.01611 0.37356 0
M  V30 12117 H 1125.52 5.74732 -1.22299 0
M  V30 12118 H 1127.04 6.0955 -0.358004 0
M  V30 12119 H 1128.46 5.18776 -2.44017 0
M  V30 12120 H 1126.86 5.06302 -3.22147 0
M  V30 12121 H 1127.93 3.64977 -3.19249 0
M  V30 12122 N 1129.27 0.921757 1.27833 0
M  V30 12123 C 1130.49 0.574599 1.99281 0
M  V30 12124 C 1130.92 -0.838905 1.68357 0
M  V30 12125 O 1130.28 -1.56196 0.920468 0
M  V30 12126 C 1130.32 0.800027 3.51613 0
M  V30 12127 O 1129.43 -0.137215 4.12172 0
M  V30 12128 H 1128.77 0.221887 0.625829 0
M  V30 12129 H 1131.3 1.23939 1.62789 0
M  V30 12130 H 1131.31 0.71326 4.01717 0
M  V30 12131 H 1129.98 1.83042 3.73455 0
M  V30 12132 H 1128.56 -0.00103872 3.729 0
M  V30 12133 N 1130.75 -1.41857 0.686609 0
M  V30 12134 C 1132.16 -1.55549 0.357288 0
M  V30 12135 C 1132.36 -1.66394 -1.13646 0
M  V30 12136 O 1131.42 -1.63739 -1.92213 0
M  V30 12137 C 1132.73 -2.79938 1.09796 0
M  V30 12138 C 1134.28 -2.93724 1.08143 0
M  V30 12139 C 1134.75 -4.20989 1.80367 0
M  V30 12140 N 1136.25 -4.27927 1.77293 0
M  V30 12141 C 1136.98 -5.2524 2.30022 0
M  V30 12142 N 1136.48 -6.28636 2.91185 0
M  V30 12143 N 1138.27 -5.17118 2.20329 0
M  V30 12144 H 1130.42 -1.33063 1.65554 0
M  V30 12145 H 1132.68 -0.641335 0.698135 0
M  V30 12146 H 1132.39 -2.78104 2.15293 0
M  V30 12147 H 1132.26 -3.71188 0.670763 0
M  V30 12148 H 1134.65 -2.9508 0.0347554 0
M  V30 12149 H 1134.73 -2.03673 1.54761 0
M  V30 12150 H 1134.38 -4.20395 2.85009 0
M  V30 12151 H 1134.31 -5.09997 1.3119 0
M  V30 12152 H 1136.8 -3.53838 1.32692 0
M  V30 12153 H 1137.11 -6.99265 3.29011 0
M  V30 12154 H 1135.45 -6.29164 2.95259 0
M  V30 12155 H 1138.65 -4.35265 1.72226 0
M  V30 12156 H 1138.82 -5.92792 2.61728 0
M  V30 12157 N 1132.22 -0.430739 -1.51599 0
M  V30 12158 C 1133.64 0.0339139 -1.86669 0
M  V30 12159 C 1133.99 1.42533 -1.34829 0
M  V30 12160 O 1133.11 2.04889 -0.696376 0
M  V30 12161 C 1133.71 0.0683174 -3.38731 0
M  V30 12162 C 1132.27 0.477363 -3.73361 0
M  V30 12163 C 1131.41 -0.334258 -2.75278 0
M  V30 12164 H 1134.36 -0.646875 -1.44918 0
M  V30 12165 H 1134.38 0.879179 -3.70204 0
M  V30 12166 H 1133.9 -0.944501 -3.76432 0
M  V30 12167 H 1132 1.49603 -3.41247 0
M  V30 12168 H 1132.11 0.206744 -4.78654 0
M  V30 12169 H 1130.47 0.206503 -2.53861 0
M  V30 12170 H 1131.26 -1.34583 -3.1582 0
M  V30 12171 N 1133.7 1.56767 -0.161869 0
M  V30 12172 C 1134.98 1.88245 0.531352 0
M  V30 12173 C 1135.36 1.07025 1.81958 0
M  V30 12174 O 1134.71 0.161385 2.27929 0
M  V30 12175 C 1134.92 3.40117 0.782416 0
M  V30 12176 C 1136.27 4.09655 1.11661 0
M  V30 12177 O 1137.29 3.4538 0.871274 0
M  V30 12178 O 1136.15 5.23192 1.57901 0
M  V30 12179 H 1133.24 0.780725 0.272759 0
M  V30 12180 H 1135.79 1.68522 -0.199597 0
M  V30 12181 H 1134.56 3.91088 -0.128677 0
M  V30 12182 H 1134.18 3.65418 1.56702 0
M  V30 12183 N 1135.18 -0.111886 1.57202 0
M  V30 12184 C 1136.09 -1.1556 2.04165 0
M  V30 12185 C 1137.11 -1.44898 0.963354 0
M  V30 12186 O 1138.28 -1.55873 1.27536 0
M  V30 12187 C 1135.35 -2.46048 2.44256 0
M  V30 12188 C 1134.41 -2.24043 3.66201 0
M  V30 12189 C 1133.64 -3.4831 4.04371 0
M  V30 12190 O 1133.86 -4.55895 3.42806 0
M  V30 12191 O 1132.8 -3.38891 4.9743 0
M  V30 12192 H 1136.62 -0.786778 2.93332 0
M  V30 12193 H 1134.21 -0.323196 1.45862 0
M  V30 12194 H 1136.09 -3.22916 2.70745 0
M  V30 12195 H 1134.77 -2.8239 1.58233 0
M  V30 12196 H 1133.67 -1.4501 3.44852 0
M  V30 12197 H 1135.01 -1.92602 4.52952 0
M  V30 12198 N 1136.66 -1.52894 -0.382264 0
M  V30 12199 C 1137.88 -1.72453 -1.15216 0
M  V30 12200 C 1138.31 -0.444925 -1.82762 0
M  V30 12201 O 1137.67 0.599825 -1.7109 0
M  V30 12202 C 1137.71 -2.87939 -2.17079 0
M  V30 12203 O 1136.82 -2.55383 -3.23811 0
M  V30 12204 H 1136.16 -0.57324 -0.335099 0
M  V30 12205 H 1138.69 -1.99713 -0.444495 0
M  V30 12206 H 1138.7 -3.13628 -2.60963 0
M  V30 12207 H 1137.37 -3.80765 -1.67305 0
M  V30 12208 H 1135.95 -2.40457 -2.85018 0
M  V30 12209 N 1138.14 0.641106 -1.43971 0
M  V30 12210 C 1139.39 1.39807 -1.4594 0
M  V30 12211 C 1139.71 1.94795 -0.0893874 0
M  V30 12212 O 1138.98 1.75175 0.876962 0
M  V30 12213 H 1137.56 0.518908 -0.537349 0
M  V30 12214 H 1140.22 0.755278 -1.79671 0
M  V30 12215 H 1139.31 2.23439 -2.17903 0
M  V30 12216 N 1139.62 1.30703 0.880598 0
M  V30 12217 C 1140.89 1.1043 1.61445 0
M  V30 12218 C 1141.27 -0.344837 2.08264 0
M  V30 12219 O 1140.62 -1.33711 1.85293 0
M  V30 12220 C 1140.83 2.10908 2.78063 0
M  V30 12221 C 1142.18 2.42861 3.48287 0
M  V30 12222 O 1143.2 2.09252 2.88257 0
M  V30 12223 O 1142.06 3.00369 4.56553 0
M  V30 12224 H 1139.16 0.424419 0.709787 0
M  V30 12225 H 1141.7 1.42144 0.926991 0
M  V30 12226 H 1140.47 3.08431 2.40803 0
M  V30 12227 H 1140.1 1.80036 3.54503 0
M  V30 12228 N 1141.09 -1.09351 1.1349 0
M  V30 12229 C 1142.34 -1.81812 0.898452 0
M  V30 12230 C 1142.67 -1.85525 -0.573959 0
M  V30 12231 O 1141.95 -1.32403 -1.42477 0
M  V30 12232 C 1142.23 -3.27921 1.48794 0
M  V30 12233 C 1142.08 -3.32476 3.02952 0
M  V30 12234 C 1143.4 -4.24625 1.15678 0
M  V30 12235 H 1140.52 -0.660074 0.327829 0
M  V30 12236 H 1143.16 -1.28091 1.40331 0
M  V30 12237 H 1141.31 -3.738 1.05858 0
M  V30 12238 H 1142.99 -2.94994 3.54649 0
M  V30 12239 H 1141.23 -2.72037 3.37903 0
M  V30 12240 H 1141.9 -4.35409 3.39298 0
M  V30 12241 H 1144.38 -3.87036 1.52781 0
M  V30 12242 H 1143.25 -5.25194 1.59571 0
M  V30 12243 H 1143.51 -4.42044 0.0705933 0
M  V30 12244 N 1142.57 -0.928524 -1.27343 0
M  V30 12245 C 1143.98 -0.613856 -1.7632 0
M  V30 12246 C 1144.33 0.870983 -1.75808 0
M  V30 12247 O 1143.46 1.68155 -1.36209 0
M  V30 12248 C 1144.05 -1.10755 -3.20186 0
M  V30 12249 C 1142.61 -0.843532 -3.66826 0
M  V30 12250 C 1141.76 -1.26579 -2.46724 0
M  V30 12251 H 1144.71 -1.10821 -1.13598 0
M  V30 12252 H 1144.73 -0.455598 -3.77763 0
M  V30 12253 H 1144.24 -2.18825 -3.20526 0
M  V30 12254 H 1142.34 0.223334 -3.7193 0
M  V30 12255 H 1142.46 -1.46165 -4.56259 0
M  V30 12256 H 1140.82 -0.684334 -2.45334 0
M  V30 12257 H 1141.6 -2.35516 -2.49774 0
M  V30 12258 N 1144.05 1.41491 -0.694123 0
M  V30 12259 C 1145.28 2.05579 -0.233466 0
M  V30 12260 C 1145.69 1.5223 1.11675 0
M  V30 12261 O 1145.05 0.669937 1.69759 0
M  V30 12262 C 1145.1 3.61047 -0.180967 0
M  V30 12263 O 1144.82 4.12421 -1.47785 0
M  V30 12264 C 1146.32 4.42278 0.300853 0
M  V30 12265 H 1143.54 0.662097 -0.108943 0
M  V30 12266 H 1146.09 1.81288 -0.946299 0
M  V30 12267 H 1144.24 3.84381 0.482678 0
M  V30 12268 H 1144.66 5.06454 -1.364 0
M  V30 12269 H 1146.13 5.51256 0.286464 0
M  V30 12270 H 1146.61 4.18276 1.33948 0
M  V30 12271 H 1147.21 4.24004 -0.331741 0
M  V30 12272 N 1145.53 0.438773 1.51369 0
M  V30 12273 C 1146.49 -0.36032 2.2635 0
M  V30 12274 C 1147.49 -0.948465 1.29849 0
M  V30 12275 O 1148.68 -0.822692 1.53549 0
M  V30 12276 C 1145.81 -1.50994 3.05636 0
M  V30 12277 H 1147.01 0.296826 2.98427 0
M  V30 12278 H 1144.56 0.191978 1.55117 0
M  V30 12279 H 1145.29 -2.2031 2.37979 0
M  V30 12280 H 1145.08 -1.09437 3.76518 0
M  V30 12281 H 1146.57 -2.07447 3.6243 0
M  V30 12282 N 1147.01 -1.56678 0.170181 0
M  V30 12283 C 1148.42 -1.83452 -0.346742 0
M  V30 12284 C 1148.77 -1.08993 -1.63141 0
M  V30 12285 O 1147.89 -0.342607 -2.13671 0
M  V30 12286 C 1148.49 -3.32779 -0.635882 0
M  V30 12287 C 1147.05 -3.60052 -1.09725 0
M  V30 12288 C 1146.19 -2.76983 -0.132516 0
M  V30 12289 H 1149.14 -1.53719 0.394465 0
M  V30 12290 H 1149.17 -3.50195 -1.48806 0
M  V30 12291 H 1148.68 -3.86944 0.299291 0
M  V30 12292 H 1146.78 -3.11297 -2.04756 0
M  V30 12293 H 1146.89 -4.68393 -1.00719 0
M  V30 12294 H 1145.26 -2.46794 -0.62966 0
M  V30 12295 H 1146.04 -3.33929 0.796658 0
M  V30 12296 N 1148.48 0.103547 -1.57259 0
M  V30 12297 C 1149.73 0.809774 -1.85931 0
M  V30 12298 C 1150.06 1.78791 -0.758122 0
M  V30 12299 O 1149.34 1.93079 0.234682 0
M  V30 12300 C 1149.62 1.54601 -3.25224 0
M  V30 12301 C 1149.47 0.586439 -4.45961 0
M  V30 12302 C 1150.79 2.4986 -3.62296 0
M  V30 12303 H 1147.91 0.29293 -0.676285 0
M  V30 12304 H 1150.55 0.0736065 -1.89857 0
M  V30 12305 H 1148.7 2.17355 -3.22008 0
M  V30 12306 H 1150.38 -0.0334441 -4.61288 0
M  V30 12307 H 1148.62 -0.10085 -4.33683 0
M  V30 12308 H 1149.29 1.13855 -5.40131 0
M  V30 12309 H 1151.77 1.97203 -3.66402 0
M  V30 12310 H 1150.64 2.98396 -4.60707 0
M  V30 12311 H 1150.9 3.33233 -2.90531 0
M  V30 12312 N 1149.96 1.53094 0.37415 0
M  V30 12313 C 1150.92 1.78264 1.44065 0
M  V30 12314 C 1151.92 0.652892 1.46949 0
M  V30 12315 O 1153.11 0.921046 1.47859 0
M  V30 12316 C 1150.25 1.89693 2.83248 0
M  V30 12317 H 1151.44 2.73505 1.23025 0
M  V30 12318 H 1148.99 1.44041 0.60678 0
M  V30 12319 H 1149.73 0.964884 3.09613 0
M  V30 12320 H 1149.51 2.71855 2.82554 0
M  V30 12321 H 1151 2.10787 3.60498 0
M  V30 12322 N 1151.44 -0.633461 1.44309 0
M  V30 12323 C 1152.39 -1.74554 1.50995 0
M  V30 12324 C 1153.36 -1.62199 0.357873 0
M  V30 12325 O 1154.54 -1.82156 0.567787 0
M  V30 12326 C 1151.68 -3.12792 1.45791 0
M  V30 12327 C 1150.79 -3.3614 2.71356 0
M  V30 12328 C 1149.93 -4.64337 2.58002 0
M  V30 12329 C 1148.97 -4.80855 3.78741 0
M  V30 12330 N 1148.11 -6.00327 3.64077 0
M  V30 12331 H 1152.95 -1.68174 2.46011 0
M  V30 12332 H 1150.48 -0.820407 1.22097 0
M  V30 12333 H 1152.44 -3.92735 1.40765 0
M  V30 12334 H 1151.07 -3.18193 0.543445 0
M  V30 12335 H 1150.12 -2.50154 2.86579 0
M  V30 12336 H 1151.43 -3.44226 3.60985 0
M  V30 12337 H 1150.59 -5.52437 2.50795 0
M  V30 12338 H 1149.33 -4.58605 1.65929 0
M  V30 12339 H 1148.33 -3.91185 3.86334 0
M  V30 12340 H 1149.56 -4.88403 4.71847 0
M  V30 12341 H 1147.5 -5.9569 2.74754 0
M  V30 12342 H 1147.42 -6.09459 4.47321 0
M  V30 12343 H 1148.69 -6.90995 3.60758 0
M  V30 12344 N 1152.92 -1.31168 -0.873655 0
M  V30 12345 C 1154.33 -1.18584 -1.44203 0
M  V30 12346 C 1154.68 0.209114 -1.95082 0
M  V30 12347 O 1153.81 1.10662 -1.85965 0
M  V30 12348 C 1154.4 -2.14668 -2.62112 0
M  V30 12349 C 1152.96 -2.06029 -3.15006 0
M  V30 12350 C 1152.11 -2.04106 -1.87712 0
M  V30 12351 H 1155.06 -1.43273 -0.682536 0
M  V30 12352 H 1155.08 -1.73413 -3.38686 0
M  V30 12353 H 1154.59 -3.16186 -2.25051 0
M  V30 12354 H 1152.69 -1.07693 -3.56697 0
M  V30 12355 H 1152.8 -2.9496 -3.77539 0
M  V30 12356 H 1151.17 -1.49069 -2.0652 0
M  V30 12357 H 1151.95 -3.07373 -1.52894 0
M  V30 12358 N 1154.4 1.08748 -1.14068 0
M  V30 12359 C 1155.62 1.85353 -0.930532 0
M  V30 12360 C 1156.05 1.80892 0.515717 0
M  V30 12361 O 1155.4 1.19146 1.36652 0
M  V30 12362 C 1155.45 3.30962 -1.43167 0
M  V30 12363 O 1154.56 4.0769 -0.621468 0
M  V30 12364 H 1153.9 0.574485 -0.332962 0
M  V30 12365 H 1156.43 1.37282 -1.51707 0
M  V30 12366 H 1156.44 3.81807 -1.43832 0
M  V30 12367 H 1155.11 3.33524 -2.48464 0
M  V30 12368 H 1153.69 3.66587 -0.683267 0
M  V30 12369 N 1155.87 0.935264 1.26849 0
M  V30 12370 C 1157.1 0.596249 1.98122 0
M  V30 12371 C 1157.52 -0.827452 1.69702 0
M  V30 12372 O 1156.87 -1.55095 0.961864 0
M  V30 12373 C 1156.93 0.821773 3.52036 0
M  V30 12374 O 1156.65 2.18947 3.79465 0
M  V30 12375 C 1158.15 0.492498 4.40556 0
M  V30 12376 H 1155.37 0.225242 0.632066 0
M  V30 12377 H 1157.91 1.25435 1.61512 0
M  V30 12378 H 1156.07 0.210363 3.86828 0
M  V30 12379 H 1156.48 2.24509 4.74021 0
M  V30 12380 H 1157.95 0.700953 5.47531 0
M  V30 12381 H 1158.43 -0.57228 4.35456 0
M  V30 12382 H 1159.04 1.08238 4.11296 0
M  V30 12383 N 1157.35 -1.41121 0.701616 0
M  V30 12384 C 1158.28 -2.33436 0.0545974 0
M  V30 12385 C 1159.26 -1.52144 -0.760662 0
M  V30 12386 O 1160.45 -1.80661 -0.712414 0
M  V30 12387 C 1157.58 -3.36015 -0.878117 0
M  V30 12388 C 1156.53 -4.27664 -0.169511 0
M  V30 12389 C 1155.86 -5.20666 -1.21699 0
M  V30 12390 C 1157.16 -5.13254 0.967859 0
M  V30 12391 H 1158.85 -2.87791 0.825637 0
M  V30 12392 H 1156.4 -1.38377 0.398484 0
M  V30 12393 H 1158.35 -3.99526 -1.34004 0
M  V30 12394 H 1157.08 -2.80024 -1.68089 0
M  V30 12395 H 1155.73 -3.65586 0.272441 0
M  V30 12396 H 1155.38 -4.60987 -2.01246 0
M  V30 12397 H 1155.08 -5.82822 -0.747836 0
M  V30 12398 H 1156.61 -5.87053 -1.6793 0
M  V30 12399 H 1158.02 -5.70298 0.585944 0
M  V30 12400 H 1156.42 -5.84381 1.3645 0
M  V30 12401 H 1157.49 -4.5006 1.80483 0
M  V30 12402 N 1158.83 -0.446794 -1.51134 0
M  V30 12403 C 1160.06 0.114893 -2.06581 0
M  V30 12404 C 1160.47 1.35642 -1.31327 0
M  V30 12405 O 1159.83 1.78595 -0.375506 0
M  V30 12406 C 1159.88 0.427589 -3.58962 0
M  V30 12407 O 1159.6 -0.764669 -4.31375 0
M  V30 12408 C 1161.1 1.03891 -4.30954 0
M  V30 12409 H 1158.32 0.00373031 -0.67099 0
M  V30 12410 H 1160.87 -0.628596 -1.94599 0
M  V30 12411 H 1159.02 1.12099 -3.70827 0
M  V30 12412 H 1159.44 -0.494605 -5.22163 0
M  V30 12413 H 1160.91 1.20764 -5.38628 0
M  V30 12414 H 1161.39 2.02252 -3.8986 0
M  V30 12415 H 1161.99 0.384623 -4.23557 0
M  V30 12416 N 1160.31 1.56586 -0.178487 0
M  V30 12417 C 1161.27 2.17091 0.73512 0
M  V30 12418 C 1162.27 1.12088 1.15295 0
M  V30 12419 O 1163.46 1.37563 1.06874 0
M  V30 12420 C 1160.59 2.75957 2.00151 0
M  V30 12421 H 1161.79 2.99176 0.208272 0
M  V30 12422 H 1159.34 1.56138 0.0710967 0
M  V30 12423 H 1160.07 1.97626 2.57127 0
M  V30 12424 H 1159.86 3.52809 1.7108 0
M  V30 12425 H 1161.35 3.2247 2.65335 0
M  V30 12426 N 1161.79 -0.095206 1.57312 0
M  V30 12427 C 1162.75 -1.09974 2.01093 0
M  V30 12428 C 1163.75 -1.32954 0.904424 0
M  V30 12429 O 1164.94 -1.29069 1.16991 0
M  V30 12430 C 1162.07 -2.4489 2.37153 0
M  V30 12431 H 1163.26 -0.722906 2.91057 0
M  V30 12432 H 1160.82 -0.340249 1.52552 0
M  V30 12433 H 1161.55 -2.8745 1.50143 0
M  V30 12434 H 1161.34 -2.29559 3.17876 0
M  V30 12435 H 1162.83 -3.17141 2.71683 0
M  V30 12436 N 1163.26 -1.53291 -0.366026 0
M  V30 12437 C 1164.23 -1.79025 -1.43117 0
M  V30 12438 C 1165.23 -0.660676 -1.46601 0
M  V30 12439 O 1166.42 -0.928875 -1.47369 0
M  V30 12440 C 1163.55 -1.91192 -2.82238 0
M  V30 12441 H 1164.74 -2.74154 -1.21572 0
M  V30 12442 H 1162.3 -1.44361 -0.599132 0
M  V30 12443 H 1163.03 -0.98129 -3.09097 0
M  V30 12444 H 1162.82 -2.7335 -2.81109 0
M  V30 12445 H 1164.31 -2.12696 -3.59375 0
M  V30 12446 N 1164.74 0.6258 -1.44643 0
M  V30 12447 C 1165.71 1.71941 -1.51555 0
M  V30 12448 C 1166.71 1.55822 -0.396988 0
M  V30 12449 O 1167.9 1.61221 -0.65981 0
M  V30 12450 C 1165.03 3.11068 -1.39461 0
M  V30 12451 H 1166.22 1.67185 -2.48976 0
M  V30 12452 H 1163.77 0.839934 -1.31814 0
M  V30 12453 H 1164.51 3.21416 -0.431534 0
M  V30 12454 H 1164.29 3.24175 -2.20574 0
M  V30 12455 H 1165.78 3.90762 -1.4729 0
M  V30 12456 N 1166.22 1.31629 0.866686 0
M  V30 12457 C 1167.47 1.21683 1.62238 0
M  V30 12458 C 1167.8 -0.223767 1.92907 0
M  V30 12459 O 1167.07 -1.15761 1.563 0
M  V30 12460 C 1167.36 2.06443 2.95048 0
M  V30 12461 C 1167.21 3.58818 2.71237 0
M  V30 12462 C 1168.53 1.91634 3.96187 0
M  V30 12463 H 1165.65 0.443389 0.588707 0
M  V30 12464 H 1168.29 1.61453 1.00164 0
M  V30 12465 H 1166.44 1.72654 3.48027 0
M  V30 12466 H 1168.11 4.0276 2.24905 0
M  V30 12467 H 1166.36 3.82085 2.05411 0
M  V30 12468 H 1167.03 4.13436 3.65752 0
M  V30 12469 H 1169.5 2.21209 3.52428 0
M  V30 12470 H 1168.38 2.53236 4.86993 0
M  V30 12471 H 1168.64 0.880564 4.33242 0
M  V30 12472 N 1167.7 -1.08142 1.14644 0
M  V30 12473 C 1168.92 -1.84857 0.940349 0
M  V30 12474 C 1169.35 -1.81163 -0.506117 0
M  V30 12475 O 1168.71 -1.19869 -1.36019 0
M  V30 12476 C 1168.76 -3.30198 1.4492 0
M  V30 12477 O 1167.86 -4.07355 0.64308 0
M  V30 12478 H 1167.2 -0.572711 0.336003 0
M  V30 12479 H 1169.73 -1.36475 1.52432 0
M  V30 12480 H 1169.74 -3.81039 1.45854 0
M  V30 12481 H 1168.42 -3.32202 2.50229 0
M  V30 12482 H 1166.99 -3.66219 0.702698 0
M  V30 12483 N 1169.18 -0.941978 -1.26351 0
M  V30 12484 C 1170.43 -0.588806 -1.93333 0
M  V30 12485 C 1170.75 0.875067 -1.74263 0
M  V30 12486 O 1170.02 1.62187 -1.09873 0
M  V30 12487 H 1168.6 -0.214774 -0.715459 0
M  V30 12488 H 1171.26 -1.19747 -1.53774 0
M  V30 12489 H 1170.35 -0.807267 -3.01479 0
M  V30 12490 N 1170.66 1.40747 -0.709091 0
M  V30 12491 C 1171.62 2.29118 -0.0611607 0
M  V30 12492 C 1172.62 1.45049 0.694081 0
M  V30 12493 O 1173.81 1.66039 0.526952 0
M  V30 12494 C 1170.94 3.28154 0.923447 0
M  V30 12495 H 1172.13 2.87913 -0.839413 0
M  V30 12496 H 1169.69 1.4896 -0.473363 0
M  V30 12497 H 1170.42 2.74366 1.72899 0
M  V30 12498 H 1170.21 3.90207 0.384862 0
M  V30 12499 H 1171.7 3.94343 1.37417 0
M  V30 12500 N 1172.13 0.454803 1.50895 0
M  V30 12501 C 1173.38 -0.10577 2.02224 0
M  V30 12502 C 1173.71 -1.41176 1.33789 0
M  V30 12503 O 1172.96 -1.90522 0.447181 0
M  V30 12504 C 1173.26 -0.354159 3.55641 0
M  V30 12505 C 1172.93 0.868136 4.42464 0
M  V30 12506 C 1171.59 1.2033 4.65912 0
M  V30 12507 C 1173.94 1.68272 4.93289 0
M  V30 12508 C 1171.27 2.3534 5.37431 0
M  V30 12509 C 1173.62 2.82396 5.6607 0
M  V30 12510 C 1172.29 3.16346 5.87777 0
M  V30 12511 H 1171.56 -0.0387041 0.739989 0
M  V30 12512 H 1174.2 0.605564 1.81673 0
M  V30 12513 H 1172.51 -1.14757 3.74617 0
M  V30 12514 H 1174.21 -0.8016 3.92906 0
M  V30 12515 H 1170.8 0.596995 4.24422 0
M  V30 12516 H 1174.98 1.43698 4.75042 0
M  V30 12517 H 1170.24 2.61936 5.52449 0
M  V30 12518 H 1174.41 3.45873 6.04438 0
M  V30 12519 H 1172.04 4.05574 6.42973 0
M  V30 12520 N 1173.61 -1.56489 0.186789 0
M  V30 12521 C 1175.03 -1.58701 -0.169176 0
M  V30 12522 C 1175.23 -1.2027 -1.61671 0
M  V30 12523 O 1174.28 -0.92154 -2.35083 0
M  V30 12524 C 1175.6 -3.00437 0.125657 0
M  V30 12525 C 1177.14 -3.12932 0.0651 0
M  V30 12526 C 1177.62 -4.56787 0.333131 0
M  V30 12527 N 1179.11 -4.62344 0.281453 0
M  V30 12528 C 1179.85 -5.71529 0.462805 0
M  V30 12529 N 1179.34 -6.89213 0.704054 0
M  V30 12530 N 1181.13 -5.60692 0.397636 0
M  V30 12531 H 1173.29 -1.79754 1.13148 0
M  V30 12532 H 1175.55 -0.83385 0.450997 0
M  V30 12533 H 1175.25 -3.33086 1.12901 0
M  V30 12534 H 1175.13 -3.72782 -0.575612 0
M  V30 12535 H 1177.52 -2.80101 -0.928845 0
M  V30 12536 H 1177.6 -2.42991 0.799318 0
M  V30 12537 H 1177.24 -4.9033 1.32436 0
M  V30 12538 H 1177.17 -5.24907 -0.421879 0
M  V30 12539 H 1179.66 -3.77764 0.101266 0
M  V30 12540 H 1179.97 -7.68314 0.831468 0
M  V30 12541 H 1178.32 -6.9104 0.740851 0
M  V30 12542 H 1181.51 -4.6763 0.20964 0
M  V30 12543 H 1181.68 -6.45726 0.54239 0
M  V30 12544 N 1175.09 0.086862 -1.5736 0
M  V30 12545 C 1176 1.12297 -2.05977 0
M  V30 12546 C 1177.02 1.43347 -0.986284 0
M  V30 12547 O 1178.19 1.53825 -1.3 0
M  V30 12548 C 1175.26 2.42131 -2.4814 0
M  V30 12549 C 1174.32 2.18189 -3.69719 0
M  V30 12550 C 1173.55 3.41833 -4.09861 0
M  V30 12551 O 1173.77 4.50383 -3.50016 0
M  V30 12552 O 1172.71 3.30934 -5.02759 0
M  V30 12553 H 1176.53 0.740012 -2.94546 0
M  V30 12554 H 1174.12 0.29995 -1.46358 0
M  V30 12555 H 1176 3.18568 -2.75848 0
M  V30 12556 H 1174.68 2.79837 -1.62705 0
M  V30 12557 H 1173.58 1.39506 -3.47115 0
M  V30 12558 H 1174.92 1.85372 -4.55959 0
M  V30 12559 N 1176.57 1.53483 0.357892 0
M  V30 12560 C 1177.98 1.61641 0.934289 0
M  V30 12561 C 1178.33 0.488655 1.90017 0
M  V30 12562 O 1177.45 -0.38378 2.1297 0
M  V30 12563 C 1178.05 2.92987 1.7013 0
M  V30 12564 C 1176.61 3.03456 2.22692 0
M  V30 12565 C 1175.76 2.56992 1.04165 0
M  V30 12566 H 1178.71 1.58112 0.136452 0
M  V30 12567 H 1178.73 2.81221 2.5631 0
M  V30 12568 H 1178.24 3.75047 0.998056 0
M  V30 12569 H 1176.34 2.25999 2.96235 0
M  V30 12570 H 1176.45 4.08673 2.50046 0
M  V30 12571 H 1174.82 2.12052 1.41088 0
M  V30 12572 H 1175.6 3.41477 0.353272 0
M  V30 12573 N 1178.05 -0.61812 1.44973 0
M  V30 12574 C 1179.32 -1.37705 1.38913 0
M  V30 12575 C 1179.7 -2.1103 0.054385 0
M  V30 12576 O 1179.05 -2.07197 -0.963409 0
M  V30 12577 C 1179.26 -2.33265 2.59593 0
M  V30 12578 C 1180.61 -2.96197 3.04224 0
M  V30 12579 O 1181.63 -2.43589 2.59891 0
M  V30 12580 O 1180.49 -3.91666 3.8113 0
M  V30 12581 H 1177.59 -0.61694 0.55074 0
M  V30 12582 H 1180.13 -0.642088 1.57084 0
M  V30 12583 H 1178.9 -1.78271 3.48332 0
M  V30 12584 H 1178.53 -3.14158 2.43702 0
M  V30 12585 N 1179.52 -1.32087 -0.859693 0
M  V30 12586 C 1180.94 -1.10968 -1.14709 0
M  V30 12587 C 1181.14 0.113139 -2.01182 0
M  V30 12588 O 1180.2 0.799499 -2.39508 0
M  V30 12589 C 1181.51 -2.38657 -1.8293 0
M  V30 12590 C 1183.06 -2.44366 -1.95587 0
M  V30 12591 C 1183.53 -3.71963 -2.67222 0
M  V30 12592 N 1185.02 -3.72916 -2.7475 0
M  V30 12593 C 1185.76 -4.68346 -3.30816 0
M  V30 12594 N 1185.25 -5.74139 -3.87732 0
M  V30 12595 N 1187.05 -4.55851 -3.28872 0
M  V30 12596 H 1179.2 -2.10497 -0.283711 0
M  V30 12597 H 1181.46 -0.929108 -0.188315 0
M  V30 12598 H 1181.17 -3.2803 -1.26844 0
M  V30 12599 H 1181.04 -2.49236 -2.83128 0
M  V30 12600 H 1183.43 -1.55456 -2.50833 0
M  V30 12601 H 1183.51 -2.37744 -0.944001 0
M  V30 12602 H 1183.15 -4.61245 -2.1264 0
M  V30 12603 H 1183.08 -3.75855 -3.68837 0
M  V30 12604 H 1185.57 -2.96447 -2.34367 0
M  V30 12605 H 1185.89 -6.43021 -4.28654 0
M  V30 12606 H 1184.23 -5.779 -3.86078 0
M  V30 12607 H 1187.42 -3.72371 -2.83651 0
M  V30 12608 H 1187.6 -5.30398 -3.72266 0
M  V30 12609 N 1181 1.07532 -1.15215 0
M  V30 12610 C 1182.41 1.61567 -0.935568 0
M  V30 12611 C 1182.76 1.89085 0.523557 0
M  V30 12612 O 1181.89 1.65495 1.39429 0
M  V30 12613 C 1182.48 2.93531 -1.69189 0
M  V30 12614 C 1181.04 3.44316 -1.52063 0
M  V30 12615 C 1180.19 2.18404 -1.70866 0
M  V30 12616 H 1183.14 0.906431 -1.30267 0
M  V30 12617 H 1183.16 3.62377 -1.16031 0
M  V30 12618 H 1182.67 2.73471 -2.75381 0
M  V30 12619 H 1180.77 3.69462 -0.482567 0
M  V30 12620 H 1180.89 4.20478 -2.29642 0
M  V30 12621 H 1179.25 2.28012 -1.13502 0
M  V30 12622 H 1180.03 2.00841 -2.7842 0
M  V30 12623 N 1182.48 0.948665 1.2585 0
M  V30 12624 C 1183.73 0.610669 1.94016 0
M  V30 12625 C 1184.08 -0.842181 1.72989 0
M  V30 12626 O 1183.37 -1.59556 1.06078 0
M  V30 12627 C 1183.57 0.89784 3.45939 0
M  V30 12628 C 1183.4 2.37705 3.81741 0
M  V30 12629 C 1182.17 3.03355 4.04109 0
M  V30 12630 C 1184.37 3.35602 3.89712 0
M  V30 12631 N 1182.35 4.41211 4.26856 0
M  V30 12632 C 1183.72 4.58743 4.17079 0
M  V30 12633 C 1185.77 3.30523 3.72369 0
M  V30 12634 C 1184.48 5.77436 4.28906 0
M  V30 12635 C 1186.5 4.48548 3.85433 0
M  V30 12636 C 1185.86 5.70474 4.13205 0
M  V30 12637 H 1181.96 0.273966 0.732439 0
M  V30 12638 H 1184.55 1.21961 1.51768 0
M  V30 12639 H 1182.72 0.317878 3.87097 0
M  V30 12640 H 1184.45 0.520353 4.01341 0
M  V30 12641 H 1181.21 2.53947 3.9976 0
M  V30 12642 H 1181.63 5.12589 4.42247 0
M  V30 12643 H 1186.27 2.3731 3.4992 0
M  V30 12644 H 1183.99 6.71095 4.50174 0
M  V30 12645 H 1187.58 4.46159 3.73408 0
M  V30 12646 H 1186.46 6.60277 4.23088 0
M  V30 12647 N 1183.96 -1.40369 0.716545 0
M  V30 12648 C 1184.89 -2.33365 0.0793533 0
M  V30 12649 C 1185.87 -1.52943 -0.744482 0
M  V30 12650 O 1187.05 -1.81406 -0.693212 0
M  V30 12651 C 1184.18 -3.36928 -0.842429 0
M  V30 12652 C 1183.14 -4.2782 -0.124142 0
M  V30 12653 C 1182.46 -5.21928 -1.1617 0
M  V30 12654 C 1183.76 -5.12199 1.02224 0
M  V30 12655 H 1185.46 -2.86899 0.856115 0
M  V30 12656 H 1183 -1.37946 0.413138 0
M  V30 12657 H 1184.96 -4.00925 -1.29759 0
M  V30 12658 H 1183.68 -2.81791 -1.6511 0
M  V30 12659 H 1182.34 -3.65277 0.311201 0
M  V30 12660 H 1181.99 -4.63096 -1.96345 0
M  V30 12661 H 1181.69 -5.83582 -0.685978 0
M  V30 12662 H 1183.21 -5.88802 -1.61694 0
M  V30 12663 H 1184.63 -5.69644 0.646399 0
M  V30 12664 H 1183.02 -5.82901 1.4264 0
M  V30 12665 H 1184.09 -4.4812 1.85246 0
M  V30 12666 N 1185.44 -0.462799 -1.50652 0
M  V30 12667 C 1186.85 -0.00568907 -1.86699 0
M  V30 12668 C 1187.2 1.39641 -1.37822 0
M  V30 12669 O 1186.32 2.03366 -0.739679 0
M  V30 12670 C 1186.92 -0.00354783 -3.388 0
M  V30 12671 C 1185.48 0.398061 -3.74289 0
M  V30 12672 C 1184.62 -0.392574 -2.74507 0
M  V30 12673 H 1187.58 -0.677469 -1.43513 0
M  V30 12674 H 1187.6 0.800456 -3.71985 0
M  V30 12675 H 1187.11 -1.02414 -3.74344 0
M  V30 12676 H 1185.21 1.42331 -3.44344 0
M  V30 12677 H 1185.32 0.105168 -4.78985 0
M  V30 12678 H 1183.69 0.152608 -2.54242 0
M  V30 12679 H 1184.47 -1.41252 -3.12894 0
M  V30 12680 N 1186.91 1.56388 -0.195085 0
M  V30 12681 C 1188.14 2.02406 0.452399 0
M  V30 12682 C 1188.56 1.07432 1.54402 0
M  V30 12683 O 1187.92 0.0578246 1.81208 0
M  V30 12684 C 1187.97 3.46864 0.985778 0
M  V30 12685 O 1187.07 3.55007 2.09867 0
M  V30 12686 H 1186.42 0.65553 0.105719 0
M  V30 12687 H 1188.95 2.02299 -0.30596 0
M  V30 12688 H 1188.96 3.86655 1.30238 0
M  V30 12689 H 1187.63 4.15481 0.186662 0
M  V30 12690 H 1186.21 3.2709 1.79071 0
M  V30 12691 N 1188.39 -0.0785156 1.57404 0
M  V30 12692 C 1189.8 -0.631132 1.75709 0
M  V30 12693 C 1190.15 -1.78261 0.819605 0
M  V30 12694 O 1189.28 -2.164 0.00206912 0
M  V30 12695 C 1189.87 -1.15168 3.18625 0
M  V30 12696 C 1188.43 -1.65021 3.38297 0
M  V30 12697 C 1187.58 -0.566773 2.71446 0
M  V30 12698 H 1190.53 0.147631 1.58012 0
M  V30 12699 H 1190.55 -2.02065 3.22413 0
M  V30 12700 H 1190.06 -0.313399 3.86833 0
M  V30 12701 H 1188.17 -2.51196 2.75194 0
M  V30 12702 H 1188.28 -1.73179 4.46706 0
M  V30 12703 H 1186.64 -1.01021 2.33809 0
M  V30 12704 H 1187.43 0.261204 3.42305 0
M  V30 12705 N 1189.87 -1.5367 -0.349747 0
M  V30 12706 C 1191.1 -1.74294 -1.10928 0
M  V30 12707 C 1191.51 -0.479102 -1.83033 0
M  V30 12708 O 1190.85 0.558621 -1.75 0
M  V30 12709 C 1190.91 -2.86457 -2.17216 0
M  V30 12710 C 1190.58 -4.26274 -1.6474 0
M  V30 12711 C 1191.57 -5.08065 -1.10302 0
M  V30 12712 C 1189.26 -4.72739 -1.69774 0
M  V30 12713 C 1191.25 -6.34417 -0.615938 0
M  V30 12714 C 1188.94 -5.99066 -1.20678 0
M  V30 12715 C 1189.94 -6.79737 -0.6668 0
M  V30 12716 O 1189.63 -8.03691 -0.183143 0
M  V30 12717 H 1189.36 -0.586046 -0.336937 0
M  V30 12718 H 1191.91 -2.01274 -0.409645 0
M  V30 12719 H 1190.14 -2.54988 -2.9072 0
M  V30 12720 H 1191.83 -2.95109 -2.78686 0
M  V30 12721 H 1192.6 -4.73333 -1.05739 0
M  V30 12722 H 1188.48 -4.1001 -2.10744 0
M  V30 12723 H 1192.02 -6.97331 -0.193795 0
M  V30 12724 H 1187.92 -6.33293 -1.24939 0
M  V30 12725 H 1188.69 -8.17946 -0.301008 0
M  V30 12726 N 1191.35 0.610423 -1.45298 0
M  V30 12727 C 1192.76 1.19234 -1.43667 0
M  V30 12728 C 1193.11 1.95523 -0.162794 0
M  V30 12729 O 1192.24 2.03507 0.735789 0
M  V30 12730 C 1192.83 2.16892 -2.60276 0
M  V30 12731 C 1191.39 2.70465 -2.61774 0
M  V30 12732 C 1190.54 1.45821 -2.35863 0
M  V30 12733 H 1193.49 0.399895 -1.53579 0
M  V30 12734 H 1193.51 2.99875 -2.34212 0
M  V30 12735 H 1193.02 1.61339 -3.52975 0
M  V30 12736 H 1191.12 3.29965 -1.73072 0
M  V30 12737 H 1191.23 3.15092 -3.60907 0
M  V30 12738 H 1189.6 1.74678 -1.85364 0
M  V30 12739 H 1190.38 0.921403 -3.30704 0
M  V30 12740 N 1192.83 1.32541 0.852676 0
M  V30 12741 C 1194.05 1.2636 1.64462 0
M  V30 12742 C 1194.48 -0.16508 1.87374 0
M  V30 12743 O 1193.83 -1.11712 1.42794 0
M  V30 12744 C 1193.88 2.03052 2.97997 0
M  V30 12745 O 1192.99 1.37967 3.88637 0
M  V30 12746 H 1192.33 0.435393 0.501327 0
M  V30 12747 H 1194.86 1.74888 1.06186 0
M  V30 12748 H 1194.87 2.133 3.47803 0
M  V30 12749 H 1193.54 3.06941 2.80642 0
M  V30 12750 H 1192.12 1.36279 3.47106 0
M  V30 12751 N 1194.3 -1.0692 1.15784 0
M  V30 12752 C 1195.53 -1.83849 0.959903 0
M  V30 12753 C 1195.95 -1.8169 -0.486873 0
M  V30 12754 O 1195.31 -1.21305 -1.34739 0
M  V30 12755 C 1195.36 -3.28642 1.48414 0
M  V30 12756 O 1194.46 -4.0665 0.686249 0
M  V30 12757 H 1193.81 -0.569115 0.342059 0
M  V30 12758 H 1196.34 -1.34851 1.53871 0
M  V30 12759 H 1196.35 -3.7947 1.49888 0
M  V30 12760 H 1195.02 -3.29529 2.53739 0
M  V30 12761 H 1193.6 -3.65453 0.741501 0
M  V30 12762 N 1195.78 -0.955326 -1.25345 0
M  V30 12763 C 1197.01 -0.627233 -1.97688 0
M  V30 12764 C 1197.43 0.793973 -1.70522 0
M  V30 12765 O 1196.79 1.537 -0.961556 0
M  V30 12766 C 1196.84 -0.892969 -3.49369 0
M  V30 12767 O 1195.94 0.0278871 -4.12391 0
M  V30 12768 H 1195.28 -0.238402 -0.619726 0
M  V30 12769 H 1197.81 -1.28211 -1.59446 0
M  V30 12770 H 1197.82 -0.819517 -3.99685 0
M  V30 12771 H 1196.5 -1.92879 -3.6847 0
M  V30 12772 H 1195.08 -0.0978295 -3.72772 0
M  V30 12773 N 1197.26 1.39987 -0.723979 0
M  V30 12774 C 1198.49 2.05037 -0.27702 0
M  V30 12775 C 1198.9 1.54565 1.08421 0
M  V30 12776 O 1198.26 0.705795 1.683 0
M  V30 12777 C 1198.31 3.60582 -0.25751 0
M  V30 12778 O 1198.03 4.09194 -1.565 0
M  V30 12779 C 1199.53 4.42817 0.206972 0
M  V30 12780 H 1196.75 0.659637 -0.122963 0
M  V30 12781 H 1199.3 1.7924 -0.98454 0
M  V30 12782 H 1197.45 3.85319 0.401037 0
M  V30 12783 H 1197.87 5.03447 -1.47112 0
M  V30 12784 H 1199.34 5.5174 0.16947 0
M  V30 12785 H 1199.82 4.21023 1.25045 0
M  V30 12786 H 1200.42 4.23205 -0.421604 0
M  V30 12787 N 1198.74 0.470782 1.50404 0
M  V30 12788 C 1199.7 -0.312227 2.27063 0
M  V30 12789 C 1200.7 -0.920709 1.31832 0
M  V30 12790 O 1201.89 -0.789937 1.5526 0
M  V30 12791 C 1199.02 -1.44477 3.0877 0
M  V30 12792 H 1200.22 0.36006 2.97731 0
M  V30 12793 H 1197.77 0.224837 1.54674 0
M  V30 12794 H 1198.51 -2.15212 2.42599 0
M  V30 12795 H 1198.29 -1.01426 3.78755 0
M  V30 12796 H 1199.78 -1.99713 3.66749 0
M  V30 12797 N 1200.22 -1.56282 0.203376 0
M  V30 12798 C 1201.47 -1.97421 -0.432346 0
M  V30 12799 C 1201.79 -1.0917 -1.61576 0
M  V30 12800 O 1201.06 -0.164759 -1.95206 0
M  V30 12801 H 1199.64 -0.729062 -0.162721 0
M  V30 12802 H 1202.3 -1.927 0.292039 0
M  V30 12803 H 1201.39 -3.02429 -0.770918 0
M  V30 12804 N 1201.7 0.070167 -1.57444 0
M  V30 12805 C 1202.94 0.770153 -1.87607 0
M  V30 12806 C 1203.27 1.77143 -0.795875 0
M  V30 12807 O 1202.55 1.93533 0.193674 0
M  V30 12808 C 1202.83 1.47668 -3.2843 0
M  V30 12809 C 1202.69 0.491712 -4.47104 0
M  V30 12810 C 1204 2.42118 -3.67514 0
M  V30 12811 H 1201.12 0.278519 -0.682346 0
M  V30 12812 H 1203.77 0.0333184 -1.89971 0
M  V30 12813 H 1201.92 2.10476 -3.26546 0
M  V30 12814 H 1203.59 -0.131283 -4.61113 0
M  V30 12815 H 1201.83 -0.192817 -4.33371 0
M  V30 12816 H 1202.5 1.02372 -5.42424 0
M  V30 12817 H 1204.98 1.89387 -3.70502 0
M  V30 12818 H 1203.85 2.88556 -4.66933 0
M  V30 12819 H 1204.11 3.26995 -2.97534 0
M  V30 12820 N 1203.17 1.53854 0.341593 0
M  V30 12821 C 1204.4 1.75447 1.10604 0
M  V30 12822 C 1204.82 0.493225 1.81518 0
M  V30 12823 O 1204.18 -0.554253 1.7262 0
M  V30 12824 C 1204.23 2.93593 2.09369 0
M  V30 12825 O 1203.33 2.63878 3.16926 0
M  V30 12826 H 1202.67 0.581923 0.319783 0
M  V30 12827 H 1205.2 2.00822 0.391388 0
M  V30 12828 H 1205.21 3.20437 2.52556 0
M  V30 12829 H 1203.89 3.85067 1.57151 0
M  V30 12830 H 1202.47 2.47929 2.78542 0
M  V30 12831 N 1204.65 -0.602709 1.4562 0
M  V30 12832 C 1206.07 -0.923983 1.30133 0
M  V30 12833 C 1206.27 -1.99842 0.25796 0
M  V30 12834 O 1205.32 -2.50112 -0.346414 0
M  V30 12835 C 1206.64 -1.36029 2.68173 0
M  V30 12836 C 1208.18 -1.47423 2.76108 0
M  V30 12837 C 1208.66 -1.94427 4.14683 0
M  V30 12838 N 1210.15 -2.01653 4.17002 0
M  V30 12839 C 1210.89 -2.39255 5.211 0
M  V30 12840 N 1210.38 -2.75791 6.3554 0
M  V30 12841 N 1212.17 -2.39636 5.08459 0
M  V30 12842 H 1204.33 0.107377 2.12128 0
M  V30 12843 H 1206.59 -0.0146216 0.947887 0
M  V30 12844 H 1206.29 -0.644949 3.45736 0
M  V30 12845 H 1206.17 -2.32584 2.96959 0
M  V30 12846 H 1208.56 -2.18047 1.98845 0
M  V30 12847 H 1208.64 -0.4917 2.5103 0
M  V30 12848 H 1208.28 -1.24389 4.92433 0
M  V30 12849 H 1208.21 -2.93603 4.37156 0
M  V30 12850 H 1210.7 -1.75988 3.3442 0
M  V30 12851 H 1211.01 -3.03378 7.10761 0
M  V30 12852 H 1209.36 -2.73475 6.38934 0
M  V30 12853 H 1212.55 -2.10502 4.18098 0
M  V30 12854 H 1212.72 -2.68614 5.89704 0
M  V30 12855 N 1206.13 -1.32992 -0.845635 0
M  V30 12856 C 1207.55 -1.12179 -1.13526 0
M  V30 12857 C 1207.75 0.091795 -2.01291 0
M  V30 12858 O 1206.8 0.774051 -2.40343 0
M  V30 12859 C 1208.11 -2.40584 -1.80388 0
M  V30 12860 C 1209.66 -2.46427 -1.92984 0
M  V30 12861 C 1210.14 -3.74776 -2.63261 0
M  V30 12862 N 1211.63 -3.75809 -2.7078 0
M  V30 12863 C 1212.36 -4.71829 -3.2583 0
M  V30 12864 N 1211.86 -5.78219 -3.81621 0
M  V30 12865 N 1213.65 -4.59313 -3.24018 0
M  V30 12866 H 1205.8 -2.10786 -0.261369 0
M  V30 12867 H 1208.07 -0.931053 -0.17845 0
M  V30 12868 H 1207.77 -3.29357 -1.23357 0
M  V30 12869 H 1207.65 -2.52225 -2.80468 0
M  V30 12870 H 1210.03 -1.58108 -2.4917 0
M  V30 12871 H 1210.11 -2.38732 -0.918732 0
M  V30 12872 H 1209.76 -4.63474 -2.07736 0
M  V30 12873 H 1209.69 -3.79746 -3.6483 0
M  V30 12874 H 1212.18 -2.98916 -2.31209 0
M  V30 12875 H 1212.49 -6.47531 -4.2181 0
M  V30 12876 H 1210.84 -5.81962 -3.79927 0
M  V30 12877 H 1214.03 -3.75358 -2.79685 0
M  V30 12878 H 1214.2 -5.34316 -3.6662 0
M  V30 12879 N 1207.61 1.06304 -1.1635 0
M  V30 12880 C 1208.85 1.79366 -0.94634 0
M  V30 12881 C 1209.19 1.86981 0.524569 0
M  V30 12882 O 1208.46 1.36134 1.38917 0
M  V30 12883 C 1208.74 3.23861 -1.57436 0
M  V30 12884 C 1208.6 3.24327 -3.1166 0
M  V30 12885 C 1209.92 4.21409 -1.26895 0
M  V30 12886 H 1207.04 0.65115 -0.345215 0
M  V30 12887 H 1209.68 1.24325 -1.43678 0
M  V30 12888 H 1207.83 3.70862 -1.15731 0
M  V30 12889 H 1209.5 2.85488 -3.62346 0
M  V30 12890 H 1207.74 2.62983 -3.44997 0
M  V30 12891 H 1208.41 4.2626 -3.50723 0
M  V30 12892 H 1210.89 3.8285 -1.62989 0
M  V30 12893 H 1209.77 5.20778 -1.73439 0
M  V30 12894 H 1210.03 4.41701 -0.187768 0
M  V30 12895 N 1209.09 0.96196 1.24836 0
M  V30 12896 C 1210.5 0.667561 1.44968 0
M  V30 12897 C 1210.7 -0.772521 1.86103 0
M  V30 12898 O 1209.76 -1.54704 1.99557 0
M  V30 12899 C 1211.07 1.64675 2.516 0
M  V30 12900 C 1212.62 1.65874 2.65433 0
M  V30 12901 C 1213.09 2.62576 3.75257 0
M  V30 12902 N 1214.58 2.60984 3.82677 0
M  V30 12903 C 1215.32 3.32484 4.67163 0
M  V30 12904 N 1214.82 4.13482 5.55882 0
M  V30 12905 N 1216.61 3.21336 4.61193 0
M  V30 12906 H 1208.76 1.89248 0.964307 0
M  V30 12907 H 1211.02 0.814443 0.485167 0
M  V30 12908 H 1210.73 2.67572 2.2825 0
M  V30 12909 H 1210.6 1.415 3.49653 0
M  V30 12910 H 1212.99 0.636912 2.88145 0
M  V30 12911 H 1213.07 1.9311 1.67756 0
M  V30 12912 H 1212.71 3.6489 3.53295 0
M  V30 12913 H 1212.64 2.32622 4.72435 0
M  V30 12914 H 1215.14 2.02187 3.19263 0
M  V30 12915 H 1215.45 4.6494 6.17293 0
M  V30 12916 H 1213.79 4.17578 5.55566 0
M  V30 12917 H 1216.98 2.57524 3.90895 0
M  V30 12918 H 1217.16 3.77323 5.26812 0
M  V30 12919 N 1210.56 -1.39601 0.731392 0
M  V30 12920 C 1211.53 -2.28992 0.0976037 0
M  V30 12921 C 1212.53 -1.46135 -0.670917 0
M  V30 12922 O 1213.72 -1.66856 -0.50047 0
M  V30 12923 C 1210.85 -3.29582 -0.871124 0
M  V30 12924 H 1212.04 -2.86541 0.885112 0
M  V30 12925 H 1209.59 -1.48188 0.497002 0
M  V30 12926 H 1210.33 -2.77082 -1.68512 0
M  V30 12927 H 1210.11 -3.9077 -0.322735 0
M  V30 12928 H 1211.6 -3.96479 -1.31126 0
M  V30 12929 N 1212.04 -0.478751 -1.50152 0
M  V30 12930 C 1213.27 0.0710485 -2.06778 0
M  V30 12931 C 1213.69 1.32826 -1.34174 0
M  V30 12932 O 1213.04 1.77758 -0.413304 0
M  V30 12933 C 1213.09 0.351351 -3.59789 0
M  V30 12934 O 1212.81 -0.855998 -4.29656 0
M  V30 12935 C 1214.32 0.947269 -4.33061 0
M  V30 12936 H 1211.54 -0.0105032 -0.670918 0
M  V30 12937 H 1214.08 -0.669732 -1.93222 0
M  V30 12938 H 1212.23 1.04207 -3.73121 0
M  V30 12939 H 1212.65 -0.605252 -5.20996 0
M  V30 12940 H 1214.12 1.09312 -5.41068 0
M  V30 12941 H 1214.6 1.93937 -3.94062 0
M  V30 12942 H 1215.21 0.294693 -4.24278 0
M  V30 12943 N 1213.52 1.56172 -0.211661 0
M  V30 12944 C 1214.94 1.5895 0.143907 0
M  V30 12945 C 1215.14 1.22826 1.59737 0
M  V30 12946 O 1214.19 0.958823 2.33587 0
M  V30 12947 C 1215.51 3.00199 -0.173438 0
M  V30 12948 C 1217.05 3.12789 -0.114877 0
M  V30 12949 C 1217.53 4.56199 -0.405759 0
M  V30 12950 N 1219.02 4.61838 -0.354973 0
M  V30 12951 C 1219.75 5.70721 -0.553671 0
M  V30 12952 N 1219.25 6.88006 -0.813613 0
M  V30 12953 N 1221.04 5.59988 -0.486787 0
M  V30 12954 H 1213.19 1.77931 -1.15993 0
M  V30 12955 H 1215.46 0.826569 -0.464206 0
M  V30 12956 H 1215.16 3.31248 -1.18186 0
M  V30 12957 H 1215.04 3.73651 0.516232 0
M  V30 12958 H 1217.42 2.81543 0.884166 0
M  V30 12959 H 1217.51 2.41688 -0.837875 0
M  V30 12960 H 1217.15 4.88161 -1.40219 0
M  V30 12961 H 1217.08 5.25512 0.338318 0
M  V30 12962 H 1219.57 3.77555 -0.161352 0
M  V30 12963 H 1219.88 7.66894 -0.953594 0
M  V30 12964 H 1218.23 6.89774 -0.850696 0
M  V30 12965 H 1221.42 4.67238 -0.284009 0
M  V30 12966 H 1221.59 6.44781 -0.645051 0
M  V30 12967 N 1215 -0.0618163 1.57479 0
M  V30 12968 C 1215.95 -1.0724 2.04373 0
M  V30 12969 C 1216.92 -1.37875 0.926271 0
M  V30 12970 O 1218.1 -1.48772 1.19463 0
M  V30 12971 C 1215.24 -2.37805 2.50085 0
M  V30 12972 C 1214.35 -2.13614 3.7549 0
M  V30 12973 C 1213.49 -3.37814 4.09945 0
M  V30 12974 C 1212.53 -3.09032 5.28361 0
M  V30 12975 N 1211.66 -4.25591 5.58406 0
M  V30 12976 H 1216.5 -0.665536 2.90473 0
M  V30 12977 H 1214.04 -0.317043 1.43643 0
M  V30 12978 H 1216 -3.14048 2.74644 0
M  V30 12979 H 1214.63 -2.76275 1.66948 0
M  V30 12980 H 1213.68 -1.28017 3.58212 0
M  V30 12981 H 1214.99 -1.88361 4.61867 0
M  V30 12982 H 1214.15 -4.22447 4.35458 0
M  V30 12983 H 1212.89 -3.66153 3.22154 0
M  V30 12984 H 1211.89 -2.22797 5.02635 0
M  V30 12985 H 1213.12 -2.82006 6.17778 0
M  V30 12986 H 1211.06 -4.53941 4.73575 0
M  V30 12987 H 1210.98 -4.03646 6.39223 0
M  V30 12988 H 1212.25 -5.11191 5.88476 0
M  V30 12989 N 1216.48 -1.54033 -0.333429 0
M  V30 12990 C 1217.89 -1.44522 -0.677166 0
M  V30 12991 C 1218.09 -0.610122 -1.92041 0
M  V30 12992 O 1217.15 -0.105058 -2.52281 0
M  V30 12993 C 1218.46 -2.88129 -0.860369 0
M  V30 12994 C 1220.01 -2.97968 -0.958342 0
M  V30 12995 C 1220.48 -4.42703 -1.17379 0
M  V30 12996 N 1221.98 -4.46273 -1.24075 0
M  V30 12997 C 1222.71 -5.55407 -1.42515 0
M  V30 12998 N 1222.21 -6.74528 -1.58062 0
M  V30 12999 N 1224 -5.43037 -1.45144 0
M  V30 13000 H 1216.15 -2.06815 0.483858 0
M  V30 13001 H 1218.41 -0.935307 0.15461 0
M  V30 13002 H 1218.12 -3.51695 -0.0182085 0
M  V30 13003 H 1217.99 -3.33668 -1.75913 0
M  V30 13004 H 1220.38 -2.34535 -1.79102 0
M  V30 13005 H 1220.46 -2.55774 -0.0362643 0
M  V30 13006 H 1220.11 -5.0672 -0.346004 0
M  V30 13007 H 1220.04 -4.82498 -2.10959 0
M  V30 13008 H 1222.53 -3.60439 -1.13545 0
M  V30 13009 H 1222.84 -7.53462 -1.71797 0
M  V30 13010 H 1221.18 -6.77454 -1.55179 0
M  V30 13011 H 1224.38 -4.4893 -1.32588 0
M  V30 13012 H 1224.55 -6.28146 -1.59173 0
M  V30 13013 N 1217.95 0.594978 -1.45938 0
M  V30 13014 C 1219.37 1.17703 -1.44924 0
M  V30 13015 C 1219.72 1.9534 -0.183522 0
M  V30 13016 O 1218.84 2.04276 0.714163 0
M  V30 13017 C 1219.44 2.14119 -2.62561 0
M  V30 13018 C 1218 2.67674 -2.64627 0
M  V30 13019 C 1217.14 1.43312 -2.37397 0
M  V30 13020 H 1220.09 0.383583 -1.53995 0
M  V30 13021 H 1220.11 2.97374 -2.3738 0
M  V30 13022 H 1219.63 1.57586 -3.54667 0
M  V30 13023 H 1217.73 3.28111 -1.76562 0
M  V30 13024 H 1217.84 3.11246 -3.64229 0
M  V30 13025 H 1216.2 1.72702 -1.87206 0
M  V30 13026 H 1216.99 0.886276 -3.31663 0
M  V30 13027 N 1219.43 1.33438 0.838571 0
M  V30 13028 C 1220.85 1.12779 1.12929 0
M  V30 13029 C 1221.05 -0.0811188 2.01337 0
M  V30 13030 O 1220.1 -0.761294 2.4075 0
M  V30 13031 C 1221.42 2.41537 1.7911 0
M  V30 13032 C 1222.97 2.47447 1.91674 0
M  V30 13033 C 1223.44 3.76167 2.6127 0
M  V30 13034 N 1224.93 3.7724 2.68783 0
M  V30 13035 C 1225.67 4.7355 3.23323 0
M  V30 13036 N 1225.16 5.80235 3.78549 0
M  V30 13037 N 1226.96 4.61025 3.21578 0
M  V30 13038 H 1219.11 2.10921 0.250187 0
M  V30 13039 H 1221.37 0.931986 0.17351 0
M  V30 13040 H 1221.08 3.30006 1.21609 0
M  V30 13041 H 1220.95 2.53709 2.79127 0
M  V30 13042 H 1223.34 1.59427 2.48328 0
M  V30 13043 H 1223.42 2.39216 0.906058 0
M  V30 13044 H 1223.06 4.64569 2.05275 0
M  V30 13045 H 1222.99 3.81675 3.62811 0
M  V30 13046 H 1225.48 3.00138 2.29621 0
M  V30 13047 H 1225.8 6.49759 4.1837 0
M  V30 13048 H 1224.14 5.83969 3.76836 0
M  V30 13049 H 1227.33 3.76836 2.77691 0
M  V30 13050 H 1227.5 5.36253 3.63781 0
M  V30 13051 N 1220.91 -1.05686 1.16912 0
M  V30 13052 C 1222.33 -1.30744 0.915327 0
M  V30 13053 C 1222.53 -1.96895 -0.428344 0
M  V30 13054 O 1221.58 -2.23941 -1.16647 0
M  V30 13055 C 1222.9 -2.18209 2.06894 0
M  V30 13056 C 1224.44 -2.31607 2.1054 0
M  V30 13057 C 1224.92 -3.2243 3.25273 0
M  V30 13058 N 1226.41 -3.30015 3.2503 0
M  V30 13059 C 1227.14 -4.00401 4.10447 0
M  V30 13060 N 1226.64 -4.73256 5.05965 0
M  V30 13061 N 1228.43 -3.96514 3.98413 0
M  V30 13062 H 1220.58 -0.611449 2.03409 0
M  V30 13063 H 1222.85 -0.332188 0.887894 0
M  V30 13064 H 1222.55 -1.76887 3.0398 0
M  V30 13065 H 1222.43 -3.18823 2.01573 0
M  V30 13066 H 1224.81 -2.72173 1.14044 0
M  V30 13067 H 1224.9 -1.30639 2.19925 0
M  V30 13068 H 1224.54 -2.82579 4.22032 0
M  V30 13069 H 1224.47 -4.23392 3.13125 0
M  V30 13070 H 1226.96 -2.781 2.55869 0
M  V30 13071 H 1227.27 -5.24509 5.67547 0
M  V30 13072 H 1225.62 -4.72215 5.09939 0
M  V30 13073 H 1228.81 -3.38719 3.2309 0
M  V30 13074 H 1228.98 -4.511 4.65202 0
M  V30 13075 N 1222.39 -0.968567 -1.24324 0
M  V30 13076 C 1223.35 -0.504307 -2.23583 0
M  V30 13077 C 1224.35 0.399626 -1.55755 0
M  V30 13078 O 1225.54 0.194966 -1.73106 0
M  V30 13079 C 1222.67 0.26956 -3.39833 0
M  V30 13080 H 1223.87 -1.3818 -2.6617 0
M  V30 13081 H 1221.42 -0.753241 -1.36952 0
M  V30 13082 H 1222.15 1.16411 -3.02686 0
M  V30 13083 H 1221.94 -0.379133 -3.90263 0
M  V30 13084 H 1223.43 0.583376 -4.13505 0
M  V30 13085 N 1223.87 1.39211 -0.738786 0
M  V30 13086 C 1225.09 2.05256 -0.297421 0
M  V30 13087 C 1225.52 1.55341 1.06069 0
M  V30 13088 O 1224.87 0.698823 1.67291 0
M  V30 13089 C 1224.92 3.59239 -0.312969 0
M  V30 13090 O 1224.03 4.06448 0.698112 0
M  V30 13091 H 1223.37 0.650245 -0.134454 0
M  V30 13092 H 1225.9 1.78173 -1.00577 0
M  V30 13093 H 1225.91 4.07691 -0.158675 0
M  V30 13094 H 1224.58 3.94931 -1.30394 0
M  V30 13095 H 1223.16 3.69401 0.509643 0
M  V30 13096 N 1225.34 0.486708 1.49896 0
M  V30 13097 C 1226.57 -0.0622999 2.07306 0
M  V30 13098 C 1226.99 -1.31353 1.3464 0
M  V30 13099 O 1226.35 -1.76861 0.398752 0
M  V30 13100 C 1226.4 -0.313481 3.59235 0
M  V30 13101 O 1225.5 -1.39101 3.88233 0
M  V30 13102 H 1224.85 0.0198885 0.663702 0
M  V30 13103 H 1227.38 0.682232 1.92891 0
M  V30 13104 H 1227.39 -0.549302 4.04285 0
M  V30 13105 H 1226.06 0.600767 4.11538 0
M  V30 13106 H 1224.64 -1.14127 3.55006 0
M  V30 13107 N 1226.82 -1.56058 0.219941 0
M  V30 13108 C 1227.75 -2.2321 -0.685547 0
M  V30 13109 C 1228.73 -1.20328 -1.20229 0
M  V30 13110 O 1229.92 -1.48909 -1.24659 0
M  V30 13111 C 1227.05 -2.91076 -1.89452 0
M  V30 13112 C 1226 -4.00415 -1.51169 0
M  V30 13113 C 1225.33 -4.55569 -2.79931 0
M  V30 13114 C 1226.63 -5.17549 -0.702896 0
M  V30 13115 H 1228.32 -2.99136 -0.125671 0
M  V30 13116 H 1225.87 -1.43879 -0.0590043 0
M  V30 13117 H 1227.82 -3.36744 -2.53341 0
M  V30 13118 H 1226.55 -2.12594 -2.47934 0
M  V30 13119 H 1225.21 -3.55475 -0.896275 0
M  V30 13120 H 1224.85 -3.73819 -3.36553 0
M  V30 13121 H 1224.55 -5.29361 -2.55049 0
M  V30 13122 H 1226.08 -5.03955 -3.44764 0
M  V30 13123 H 1227.49 -5.59608 -1.24544 0
M  V30 13124 H 1225.89 -5.97563 -0.551234 0
M  V30 13125 H 1226.96 -4.84027 0.29083 0
M  V30 13126 N 1228.3 0.053464 -1.57509 0
M  V30 13127 C 1229.23 1.06151 -2.07977 0
M  V30 13128 C 1230.21 1.3924 -0.977047 0
M  V30 13129 O 1231.4 1.48549 -1.25087 0
M  V30 13130 C 1228.53 2.36969 -2.53895 0
M  V30 13131 C 1227.48 2.18186 -3.6821 0
M  V30 13132 C 1226.81 3.54551 -4.00247 0
M  V30 13133 C 1228.11 1.588 -4.97574 0
M  V30 13134 H 1229.8 0.641483 -2.92447 0
M  V30 13135 H 1227.35 0.307122 -1.40687 0
M  V30 13136 H 1229.3 3.07797 -2.87817 0
M  V30 13137 H 1228.02 2.80986 -1.66476 0
M  V30 13138 H 1226.68 1.49796 -3.34599 0
M  V30 13139 H 1226.33 3.96171 -3.09932 0
M  V30 13140 H 1226.03 3.42816 -4.77232 0
M  V30 13141 H 1227.56 4.2678 -4.36682 0
M  V30 13142 H 1228.97 2.19515 -5.29609 0
M  V30 13143 H 1227.37 1.57711 -5.79006 0
M  V30 13144 H 1228.44 0.551254 -4.81756 0
M  V30 13145 N 1229.78 1.54207 0.325255 0
M  V30 13146 C 1231.06 1.6298 1.08153 0
M  V30 13147 C 1231.44 0.462583 2.05969 0
M  V30 13148 O 1230.78 -0.543323 2.21947 0
M  V30 13149 C 1230.99 2.999 1.78497 0
M  V30 13150 C 1232.34 3.55888 2.3158 0
M  V30 13151 O 1233.37 3.02194 1.88566 0
M  V30 13152 O 1232.23 4.49847 3.10322 0
M  V30 13153 H 1229.32 0.659923 0.498429 0
M  V30 13154 H 1231.87 1.66553 0.325282 0
M  V30 13155 H 1230.64 3.7629 1.07338 0
M  V30 13156 H 1230.26 2.99997 2.60936 0
M  V30 13157 N 1231.26 -0.58723 1.46251 0
M  V30 13158 C 1232.19 -1.70694 1.5933 0
M  V30 13159 C 1233.17 -1.64208 0.443831 0
M  V30 13160 O 1234.35 -1.82294 0.669516 0
M  V30 13161 C 1231.48 -3.0933 1.579 0
M  V30 13162 C 1230.44 -3.30643 2.7177 0
M  V30 13163 C 1229.76 -4.69761 2.554 0
M  V30 13164 C 1231.06 -3.18916 4.1363 0
M  V30 13165 H 1232.76 -1.60004 2.53059 0
M  V30 13166 H 1230.3 -0.768343 1.21789 0
M  V30 13167 H 1232.26 -3.87479 1.65644 0
M  V30 13168 H 1230.98 -3.20907 0.60712 0
M  V30 13169 H 1229.64 -2.54892 2.63488 0
M  V30 13170 H 1229.29 -4.78098 1.56306 0
M  V30 13171 H 1228.99 -4.84974 3.31774 0
M  V30 13172 H 1230.51 -5.50084 2.65028 0
M  V30 13173 H 1231.93 -3.86915 4.23048 0
M  V30 13174 H 1230.32 -3.45653 4.90555 0
M  V30 13175 H 1231.39 -2.1606 4.34104 0
M  V30 13176 N 1232.74 -1.33881 -0.831482 0
M  V30 13177 C 1233.7 -1.24654 -1.92339 0
M  V30 13178 C 1234.7 -0.163788 -1.59964 0
M  V30 13179 O 1235.89 -0.415829 -1.69164 0
M  V30 13180 C 1233.02 -0.922537 -3.2818 0
M  V30 13181 H 1234.21 -2.21717 -2.01944 0
M  V30 13182 H 1231.77 -1.18046 -1.02445 0
M  V30 13183 H 1232.5 0.0452872 -3.24268 0
M  V30 13184 H 1232.29 -1.70562 -3.53059 0
M  V30 13185 H 1233.78 -0.88292 -4.0816 0
M  V30 13186 N 1234.21 1.05064 -1.1747 0
M  V30 13187 C 1235.63 1.30256 -0.922248 0
M  V30 13188 C 1235.83 1.97119 0.417896 0
M  V30 13189 O 1234.89 2.24557 1.15457 0
M  V30 13190 C 1236.2 2.17109 -2.08049 0
M  V30 13191 C 1237.75 2.30487 -2.11766 0
M  V30 13192 C 1238.22 3.20701 -3.26979 0
M  V30 13193 N 1239.71 3.28287 -3.26775 0
M  V30 13194 C 1240.45 3.98218 -4.12565 0
M  V30 13195 N 1239.94 4.70567 -5.08467 0
M  V30 13196 N 1241.74 3.94395 -4.00511 0
M  V30 13197 H 1233.89 0.600653 -2.0373 0
M  V30 13198 H 1236.15 0.327475 -0.889643 0
M  V30 13199 H 1235.86 1.75273 -3.04914 0
M  V30 13200 H 1235.73 3.1775 -2.03261 0
M  V30 13201 H 1238.12 2.71564 -1.15486 0
M  V30 13202 H 1238.2 1.29471 -2.20615 0
M  V30 13203 H 1237.84 2.80337 -4.23525 0
M  V30 13204 H 1237.77 4.21725 -3.15366 0
M  V30 13205 H 1240.26 2.76739 -2.5734 0
M  V30 13206 H 1240.58 5.21492 -5.70321 0
M  V30 13207 H 1238.92 4.69505 -5.12436 0
M  V30 13208 H 1242.11 3.37 -3.24882 0
M  V30 13209 H 1242.29 4.48626 -4.67588 0
M  V30 13210 N 1235.69 0.975146 1.23809 0
M  V30 13211 C 1236.97 0.557725 1.8748 0
M  V30 13212 C 1237.35 -0.965164 1.87744 0
M  V30 13213 O 1236.7 -1.83966 1.35531 0
M  V30 13214 C 1236.91 1.15777 3.29236 0
M  V30 13215 C 1238.25 1.24726 4.05868 0
M  V30 13216 O 1239.28 1.11084 3.38436 0
M  V30 13217 O 1238.14 1.46373 5.26533 0
M  V30 13218 H 1235.23 0.187045 0.80557 0
M  V30 13219 H 1237.78 1.06989 1.31725 0
M  V30 13220 H 1236.55 2.20023 3.23583 0
M  V30 13221 H 1236.17 0.630103 3.92575 0
M  V30 13222 N 1237.17 -1.38817 0.746158 0
M  V30 13223 C 1238.08 -2.34316 0.115386 0
M  V30 13224 C 1239.1 -1.58892 -0.709179 0
M  V30 13225 O 1240.27 -1.91126 -0.635059 0
M  V30 13226 C 1237.34 -3.37977 -0.772821 0
M  V30 13227 C 1236.4 -4.2925 0.0652679 0
M  V30 13228 C 1235.63 -5.2796 -0.78064 0
M  V30 13229 O 1235.85 -5.33474 -2.01896 0
M  V30 13230 O 1234.79 -6.01556 -0.20338 0
M  V30 13231 H 1238.61 -2.89937 0.903887 0
M  V30 13232 H 1236.2 -1.40536 0.506958 0
M  V30 13233 H 1238.08 -4.01468 -1.28068 0
M  V30 13234 H 1236.76 -2.84723 -1.53994 0
M  V30 13235 H 1235.66 -3.68945 0.61891 0
M  V30 13236 H 1237 -4.85739 0.794871 0
M  V30 13237 N 1238.65 -0.49465 -1.49636 0
M  V30 13238 C 1239.6 0.306278 -2.25933 0
M  V30 13239 C 1240.58 0.941082 -1.30508 0
M  V30 13240 O 1241.77 0.849732 -1.55269 0
M  V30 13241 C 1238.9 1.3739 -3.14609 0
M  V30 13242 C 1237.99 0.745657 -4.17493 0
M  V30 13243 N 1238.38 -0.147977 -5.05583 0
M  V30 13244 C 1236.68 1.00696 -4.34484 0
M  V30 13245 C 1237.38 -0.506949 -5.79487 0
M  V30 13246 N 1236.35 0.123603 -5.43459 0
M  V30 13247 H 1240.16 -0.381753 -2.9141 0
M  V30 13248 H 1237.67 -0.310311 -1.59408 0
M  V30 13249 H 1239.67 1.96108 -3.67896 0
M  V30 13250 H 1238.33 2.06368 -2.50684 0
M  V30 13251 H 1239.34 -0.518378 -5.15299 0
M  V30 13252 H 1236.02 1.68996 -3.81768 0
M  V30 13253 H 1237.41 -1.23766 -6.60403 0
M  V30 13254 N 1240.13 1.55939 -0.228214 0
M  V30 13255 C 1241.37 1.98084 0.400884 0
M  V30 13256 C 1241.69 1.11727 1.59819 0
M  V30 13257 O 1240.96 0.195794 1.94919 0
M  V30 13258 H 1239.54 0.731558 0.151102 0
M  V30 13259 H 1242.21 1.92211 -0.322659 0
M  V30 13260 H 1241.3 3.03617 0.722706 0
M  V30 13261 N 1241.6 -0.0451101 1.57535 0
M  V30 13262 C 1242.85 -0.738072 1.87711 0
M  V30 13263 C 1243.17 -1.7737 0.824579 0
M  V30 13264 O 1244.37 -2.51812 1.01503 0
M  V30 13265 C 1242.83 -1.36373 3.33062 0
M  V30 13266 C 1242.44 -0.365283 4.46508 0
M  V30 13267 C 1244.18 -2.0375 3.72406 0
M  V30 13268 C 1242.09 -0.998371 5.82912 0
M  V30 13269 H 1241.02 -0.279413 0.700317 0
M  V30 13270 H 1243.67 0.00802425 1.83498 0
M  V30 13271 H 1242.05 -2.15899 3.31969 0
M  V30 13272 H 1243.22 0.402102 4.59042 0
M  V30 13273 H 1241.54 0.205505 4.15893 0
M  V30 13274 H 1244.14 -2.51939 4.71625 0
M  V30 13275 H 1244.48 -2.84869 3.03571 0
M  V30 13276 H 1245.01 -1.3102 3.75604 0
M  V30 13277 H 1241.75 -0.226935 6.55107 0
M  V30 13278 H 1241.27 -1.73598 5.74129 0
M  V30 13279 H 1242.95 -1.51044 6.29122 0
M  V30 13280 N 1243.08 -1.54377 -0.317073 0
M  V30 13281 C 1244.01 -1.80563 -1.41172 0
M  V30 13282 C 1245.03 -0.687865 -1.47554 0
M  V30 13283 O 1246.22 -0.965084 -1.50161 0
M  V30 13284 C 1243.32 -1.9142 -2.79663 0
M  V30 13285 C 1242.49 -3.21655 -2.96407 0
M  V30 13286 C 1241.55 -3.23131 -4.15298 0
M  V30 13287 O 1240.57 -3.96741 -4.08149 0
M  V30 13288 N 1241.78 -2.47376 -5.25153 0
M  V30 13289 H 1244.54 -2.75032 -1.1907 0
M  V30 13290 H 1242.1 -1.53754 -0.507086 0
M  V30 13291 H 1244.09 -1.89828 -3.57418 0
M  V30 13292 H 1242.66 -1.0402 -2.94786 0
M  V30 13293 H 1241.88 -3.36154 -2.05899 0
M  V30 13294 H 1243.17 -4.07629 -3.04494 0
M  V30 13295 H 1242.57 -1.87173 -5.33838 0
M  V30 13296 H 1241.13 -2.51555 -6.01301 0
M  V30 13297 N 1244.56 0.579466 -1.4656 0
M  V30 13298 C 1245.84 1.33973 -1.42515 0
M  V30 13299 C 1246.22 2.10812 -0.110317 0
M  V30 13300 O 1245.57 2.09679 0.908135 0
M  V30 13301 C 1245.78 2.26301 -2.65686 0
M  V30 13302 C 1247.12 2.88027 -3.1197 0
M  V30 13303 O 1248.15 2.36612 -2.66257 0
M  V30 13304 O 1247.01 3.81423 -3.9138 0
M  V30 13305 H 1244.1 0.602121 -0.566903 0
M  V30 13306 H 1246.65 0.600214 -1.58731 0
M  V30 13307 H 1245.42 1.68973 -3.52936 0
M  V30 13308 H 1245.04 3.07586 -2.51945 0
M  V30 13309 N 1246.04 1.3432 0.824371 0
M  V30 13310 C 1246.97 1.2842 1.95014 0
M  V30 13311 C 1247.95 0.161925 1.69328 0
M  V30 13312 O 1249.13 0.354052 1.90945 0
M  V30 13313 C 1246.26 1.03741 3.31444 0
M  V30 13314 C 1245.22 2.12419 3.71567 0
M  V30 13315 C 1244.54 1.72931 5.05963 0
M  V30 13316 C 1245.84 3.54235 3.83817 0
M  V30 13317 H 1247.54 2.22614 2.00209 0
M  V30 13318 H 1245.08 1.07165 0.961856 0
M  V30 13319 H 1247.04 0.982586 4.09784 0
M  V30 13320 H 1245.76 0.0598892 3.26545 0
M  V30 13321 H 1244.42 2.16968 2.955 0
M  V30 13322 H 1244.07 0.738433 4.9755 0
M  V30 13323 H 1243.77 2.45668 5.3378 0
M  V30 13324 H 1245.29 1.68941 5.86763 0
M  V30 13325 H 1246.71 3.52106 4.52432 0
M  V30 13326 H 1245.1 4.25581 4.23085 0
M  V30 13327 H 1246.17 3.91682 2.85856 0
M  V30 13328 N 1247.52 -1.0444 1.18026 0
M  V30 13329 C 1248.76 -1.77838 0.974756 0
M  V30 13330 C 1249.1 -1.87792 -0.494755 0
M  V30 13331 O 1248.37 -1.38327 -1.36733 0
M  V30 13332 C 1248.65 -3.21315 1.62569 0
M  V30 13333 C 1248.51 -3.19327 3.16781 0
M  V30 13334 C 1249.83 -4.19337 1.33583 0
M  V30 13335 H 1246.94 -0.645575 0.35553 0
M  V30 13336 H 1249.59 -1.22023 1.45638 0
M  V30 13337 H 1247.74 -3.68974 1.21617 0
M  V30 13338 H 1249.41 -2.79687 3.66842 0
M  V30 13339 H 1247.65 -2.57461 3.49137 0
M  V30 13340 H 1248.32 -4.20626 3.5746 0
M  V30 13341 H 1250.8 -3.80208 1.69059 0
M  V30 13342 H 1249.67 -5.17953 1.81702 0
M  V30 13343 H 1249.94 -4.41346 0.258016 0
M  V30 13344 N 1248.99 -0.981699 -1.2329 0
M  V30 13345 C 1250.41 -0.688087 -1.73558 0
M  V30 13346 C 1250.76 0.795633 -1.79344 0
M  V30 13347 O 1249.88 1.62227 -1.43218 0
M  V30 13348 C 1250.48 -1.24235 -3.152 0
M  V30 13349 C 1249.04 -0.998356 -3.62918 0
M  V30 13350 C 1248.18 -1.3693 -2.41134 0
M  V30 13351 H 1251.13 -1.15539 -1.08795 0
M  V30 13352 H 1251.15 -0.61541 -3.7549 0
M  V30 13353 H 1250.67 -2.32223 -3.10957 0
M  V30 13354 H 1248.77 0.0653847 -3.72543 0
M  V30 13355 H 1248.88 -1.65385 -4.49649 0
M  V30 13356 H 1247.24 -0.787773 -2.42211 0
M  V30 13357 H 1248.03 -2.45898 -2.39561 0
M  V30 13358 N 1250.47 1.3842 -0.753509 0
M  V30 13359 C 1251.72 1.99723 -0.309021 0
M  V30 13360 C 1252.04 1.60111 1.11308 0
M  V30 13361 O 1251.31 0.85792 1.76115 0
M  V30 13362 H 1249.89 0.738667 -0.111266 0
M  V30 13363 H 1252.55 1.69186 -0.967586 0
M  V30 13364 H 1251.65 3.09874 -0.372095 0
M  V30 13365 N 1251.95 0.502579 1.49372 0
M  V30 13366 C 1253.18 -0.0403087 2.07361 0
M  V30 13367 C 1253.6 -1.29918 1.36026 0
M  V30 13368 O 1252.96 -1.76428 0.417488 0
M  V30 13369 C 1253.01 -0.275362 3.59547 0
M  V30 13370 O 1252.11 -1.34975 3.89686 0
M  V30 13371 H 1251.45 0.0269268 0.663454 0
M  V30 13372 H 1253.98 0.702652 1.92156 0
M  V30 13373 H 1253.99 -0.506392 4.04845 0
M  V30 13374 H 1252.67 0.644382 4.10878 0
M  V30 13375 H 1251.24 -1.10355 3.56197 0
M  V30 13376 N 1253.43 -1.55816 0.23648 0
M  V30 13377 C 1254.36 -2.23924 -0.661834 0
M  V30 13378 C 1255.34 -1.21597 -1.18946 0
M  V30 13379 O 1256.52 -1.50222 -1.23073 0
M  V30 13380 C 1253.65 -2.93069 -1.86355 0
M  V30 13381 C 1252.61 -4.01996 -1.46913 0
M  V30 13382 C 1251.93 -4.58512 -2.75083 0
M  V30 13383 C 1253.23 -5.18265 -0.647964 0
M  V30 13384 H 1254.93 -2.99253 -0.0939368 0
M  V30 13385 H 1252.47 -1.43934 -0.0437407 0
M  V30 13386 H 1254.43 -3.39412 -2.49755 0
M  V30 13387 H 1253.15 -2.15212 -2.45665 0
M  V30 13388 H 1251.81 -3.56406 -0.858522 0
M  V30 13389 H 1251.46 -3.77368 -3.3257 0
M  V30 13390 H 1251.16 -5.32037 -2.49421 0
M  V30 13391 H 1252.68 -5.07583 -3.39399 0
M  V30 13392 H 1254.1 -5.60898 -1.18602 0
M  V30 13393 H 1252.49 -5.98114 -0.487823 0
M  V30 13394 H 1253.56 -4.83691 0.342151 0
M  V30 13395 N 1254.91 0.036755 -1.57557 0
M  V30 13396 C 1256.32 0.392264 -1.54704 0
M  V30 13397 C 1256.52 1.77076 -0.96157 0
M  V30 13398 O 1255.58 2.45766 -0.579263 0
M  V30 13399 C 1256.89 0.301168 -2.99188 0
M  V30 13400 C 1258.44 0.378813 -3.10699 0
M  V30 13401 C 1258.91 0.317249 -4.569 0
M  V30 13402 N 1260.41 0.376277 -4.61669 0
M  V30 13403 C 1261.14 0.351411 -5.72322 0
M  V30 13404 N 1260.64 0.279288 -6.92237 0
M  V30 13405 N 1262.43 0.400571 -5.60671 0
M  V30 13406 H 1254.58 -0.865455 -1.93968 0
M  V30 13407 H 1256.84 -0.328339 -0.889324 0
M  V30 13408 H 1256.55 -0.64582 -3.4572 0
M  V30 13409 H 1256.42 1.09784 -3.6087 0
M  V30 13410 H 1258.81 1.31623 -2.6412 0
M  V30 13411 H 1258.89 -0.447072 -2.51863 0
M  V30 13412 H 1258.54 -0.616469 -5.04145 0
M  V30 13413 H 1258.47 1.16114 -5.13639 0
M  V30 13414 H 1260.96 0.434843 -3.7539 0
M  V30 13415 H 1261.27 0.265202 -7.72345 0
M  V30 13416 H 1259.61 0.24545 -6.94566 0
M  V30 13417 H 1262.81 0.454854 -4.65885 0
M  V30 13418 H 1262.98 0.377724 -6.46898 0
M  V30 13419 O 1256.42 1.60497 0.179744 0
M  V30 13420 H 1257.11 1.75618 0.817198 0
M  V30 END ATOM
M  V30 BEGIN BOND
M  V30 END BOND
M  V30 END CTAB
M  END
$$$$
