drugbank_target|F5HCU8 Tripartite terminase subunit 3 (DB12070)
 OpenBabel12092121093D

  0  0  0     0  0            999 V3000
M  V30 BEGIN CTAB
M  V30 COUNTS 10836 10955 0 0 0
M  V30 BEGIN ATOM
M  V30 1 H -0.908 1.98254 -0.117106 0
M  V30 2 N 0 1.576 0 0
M  V30 3 C 0.933 2.03868 1.02534 0
M  V30 4 C 1.911 0.928543 1.3348 0
M  V30 5 O 3.095 1.19667 1.45644 0
M  V30 6 C 0.222 2.43627 2.35294 0
M  V30 7 C -0.732 3.65373 2.2001 0
M  V30 8 S 0.101 5.13292 1.52614 0
M  V30 9 C 1.257 5.56322 2.86805 0
M  V30 10 H 1.49 2.90518 0.631377 0
M  V30 11 H -0.977 1.52953 0.210867 0
M  V30 12 H 0.981 2.67203 3.11629 0
M  V30 13 H -0.358 1.57376 2.7183 0
M  V30 14 H -1.165 3.90944 3.18086 0
M  V30 15 H -1.563 3.418 1.51819 0
M  V30 16 H 0.729 5.58782 3.83104 0
M  V30 17 H 1.672 6.56266 2.65933 0
M  V30 18 H 2.08 4.83886 2.90714 0
M  V30 19 N 1.4781 -0.272755 1.55222 0
M  V30 20 C 2.4081 -1.34136 1.91127 0
M  V30 21 C 3.3891 -1.51513 0.773168 0
M  V30 22 O 4.5741 -1.64552 1.03132 0
M  V30 23 C 1.7041 -2.70083 2.1834 0
M  V30 24 C 0.6581 -2.67437 3.34158 0
M  V30 25 C -0.0159 -4.06938 3.46851 0
M  V30 26 C 1.2841 -2.26686 4.70543 0
M  V30 27 H 2.9781 -1.04333 2.80633 0
M  V30 28 H 0.5241 -0.500454 1.35024 0
M  V30 29 H 2.4771 -3.44952 2.42046 0
M  V30 30 H 1.2011 -3.01469 1.25634 0
M  V30 31 H -0.1399 -1.95026 3.1042 0
M  V30 32 H -0.4919 -4.35547 2.51611 0
M  V30 33 H -0.7919 -4.06062 4.2472 0
M  V30 34 H 0.7321 -4.83545 3.72849 0
M  V30 35 H 2.1461 -2.91277 4.93792 0
M  V30 36 H 0.5431 -2.36971 5.5133 0
M  V30 37 H 1.6131 -1.21818 4.69349 0
M  V30 38 N 2.9562 -1.48159 -0.537278 0
M  V30 39 C 4.3722 -1.34118 -0.865129 0
M  V30 40 C 4.5722 -0.346678 -1.98495 0
M  V30 41 O 3.6282 0.234715 -2.51407 0
M  V30 42 C 4.9412 -2.73963 -1.23954 0
M  V30 43 C 6.4892 -2.82397 -1.34984 0
M  V30 44 C 6.9642 -4.22928 -1.75772 0
M  V30 45 N 8.4552 -4.25566 -1.82887 0
M  V30 46 C 9.1902 -5.31235 -2.15817 0
M  V30 47 N 8.6862 -6.47189 -2.47222 0
M  V30 48 N 10.4792 -5.18624 -2.16761 0
M  V30 49 H 2.6302 -2.1144 0.201715 0
M  V30 50 H 4.8932 -0.947598 0.0275949 0
M  V30 51 H 4.5992 -3.48264 -0.490381 0
M  V30 52 H 4.4732 -3.0702 -2.19132 0
M  V30 53 H 6.8602 -2.08356 -2.08978 0
M  V30 54 H 6.9412 -2.5297 -0.379448 0
M  V30 55 H 6.5852 -4.97482 -1.02341 0
M  V30 56 H 6.5152 -4.49794 -2.73848 0
M  V30 57 H 9.0062 -3.41924 -1.60924 0
M  V30 58 H 9.3192 -7.23564 -2.71433 0
M  V30 59 H 7.6642 -6.50476 -2.44757 0
M  V30 60 H 10.8552 -4.27056 -1.91679 0
M  V30 61 H 11.0282 -6.01078 -2.42093 0
M  V30 62 N 4.4343 0.785586 -1.36625 0
M  V30 63 C 5.6823 1.54057 -1.30808 0
M  V30 64 C 6.0033 1.94683 0.111157 0
M  V30 65 O 5.2733 1.65241 1.05224 0
M  V30 66 H 3.8533 0.571354 -0.481211 0
M  V30 67 H 6.5153 0.935821 -1.70963 0
M  V30 68 H 5.6113 2.44637 -1.93801 0
M  V30 69 N 5.9124 1.20967 1.01018 0
M  V30 70 C 7.1894 0.93264 1.71934 0
M  V30 71 C 7.5694 -0.55692 2.03621 0
M  V30 72 O 6.9174 -1.52035 1.7058 0
M  V30 73 C 7.1274 1.81233 2.98254 0
M  V30 74 C 8.4754 2.05804 3.71389 0
M  V30 75 O 9.4994 1.78539 3.08225 0
M  V30 76 O 8.3584 2.51888 4.84989 0
M  V30 77 H 5.4524 0.349272 0.749625 0
M  V30 78 H 7.9984 1.31871 1.06808 0
M  V30 79 H 6.7704 2.82067 2.71208 0
M  V30 80 H 6.3934 1.42674 3.7112 0
M  V30 81 N 7.3905 -1.2043 1.01659 0
M  V30 82 C 8.6155 -1.94318 0.724942 0
M  V30 83 C 9.0405 -1.74266 -0.708034 0
M  V30 84 O 8.3985 -1.03694 -1.48719 0
M  V30 85 C 8.4465 -3.44486 1.06591 0
M  V30 86 O 7.5505 -4.12017 0.177599 0
M  V30 87 H 6.8915 -0.60708 0.26898 0
M  V30 88 H 9.4215 -1.52861 1.35995 0
M  V30 89 H 9.4315 -3.95106 1.01762 0
M  V30 90 H 8.1065 -3.58404 2.10997 0
M  V30 91 H 6.6835 -3.71821 0.283421 0
M  V30 92 N 8.8686 -0.792821 -1.36206 0
M  V30 93 C 9.8316 -0.199459 -2.2833 0
M  V30 94 C 10.8316 0.605189 -1.48977 0
M  V30 95 O 12.0216 0.425685 -1.68919 0
M  V30 96 C 9.1536 0.723523 -3.33134 0
M  V30 97 H 10.3466 -1.01181 -2.82316 0
M  V30 98 H 7.8996 -0.562485 -1.45828 0
M  V30 99 H 8.6346 1.56008 -2.84309 0
M  V30 100 H 8.4196 0.148436 -3.91819 0
M  V30 101 H 9.9096 1.13344 -4.01924 0
M  V30 102 N 10.3467 1.47872 -0.545128 0
M  V30 103 C 11.3097 2.28337 0.198717 0
M  V30 104 C 12.3097 1.36255 0.853888 0
M  V30 105 O 13.4997 1.59003 0.711606 0
M  V30 106 C 10.6317 3.15585 1.28915 0
M  V30 107 H 11.8247 2.95567 -0.507941 0
M  V30 108 H 9.3777 1.53362 -0.301616 0
M  V30 109 H 10.1127 2.53019 2.02859 0
M  V30 110 H 9.8977 3.83337 0.824309 0
M  V30 111 H 11.3877 3.76243 1.81194 0
M  V30 112 N 11.8248 0.280983 1.55075 0
M  V30 113 C 12.7718 -0.603937 2.22758 0
M  V30 114 C 13.7418 -1.1452 1.20309 0
M  V30 115 O 14.9268 -1.19343 1.48869 0
M  V30 116 C 12.0668 -1.77947 2.95684 0
M  V30 117 C 11.1798 -1.2715 4.12864 0
M  V30 118 C 10.3148 -2.4093 4.7342 0
M  V30 119 C 9.3538 -1.87165 5.82783 0
M  V30 120 N 8.4908 -2.94441 6.37377 0
M  V30 121 H 13.3308 -0.020124 2.97993 0
M  V30 122 H 10.8678 0.00183425 1.471 0
M  V30 123 H 12.8258 -2.47055 3.36184 0
M  V30 124 H 11.4558 -2.33522 2.22861 0
M  V30 125 H 10.5078 -0.473331 3.77444 0
M  V30 126 H 11.8198 -0.837751 4.91715 0
M  V30 127 H 10.9738 -3.18021 5.1667 0
M  V30 128 H 9.7128 -2.87623 3.93859 0
M  V30 129 H 8.7178 -1.08556 5.38976 0
M  V30 130 H 9.9428 -1.41401 6.64216 0
M  V30 131 H 7.8888 -3.40505 5.60707 0
M  V30 132 H 7.8058 -2.55501 7.11516 0
M  V30 133 H 9.0738 -3.71489 6.85285 0
M  V30 134 N 13.3029 -1.57598 0.00835791 0
M  V30 135 C 14.5519 -1.90107 -0.673968 0
M  V30 136 C 14.8649 -0.884275 -1.7447 0
M  V30 137 O 16.0709 -1.09987 -2.48224 0
M  V30 138 C 14.5269 -3.37497 -1.24995 0
M  V30 139 C 14.1349 -4.47491 -0.2136 0
M  V30 140 C 15.8789 -3.79104 -1.90999 0
M  V30 141 C 13.7859 -5.85963 -0.80005 0
M  V30 142 H 12.7159 -0.709393 -0.255495 0
M  V30 143 H 15.3669 -1.83365 0.0702693 0
M  V30 144 H 13.7489 -3.39102 -2.04513 0
M  V30 145 H 14.9229 -4.57414 0.557596 0
M  V30 146 H 13.2379 -4.14956 0.346474 0
M  V30 147 H 15.8349 -4.79901 -2.35795 0
M  V30 148 H 16.1779 -3.1306 -2.74407 0
M  V30 149 H 16.7109 -3.79833 -1.18203 0
M  V30 150 H 13.4499 -6.555 -0.00456708 0
M  V30 151 H 12.9699 -5.79687 -1.54021 0
M  V30 152 H 14.6489 -6.33884 -1.29615 0
M  V30 153 N 14.781 0.264519 -1.55364 0
M  V30 154 C 15.713 1.34965 -1.85248 0
M  V30 155 C 16.726 1.45136 -0.737525 0
M  V30 156 O 17.915 1.46801 -1.01547 0
M  V30 157 C 15.015 2.73008 -2.00797 0
M  V30 158 C 14.188 2.85324 -3.31525 0
M  V30 159 C 13.247 4.04097 -3.37034 0
M  V30 160 O 12.273 3.94455 -4.10358 0
M  V30 161 N 13.475 5.16458 -2.65049 0
M  V30 162 H 16.24 1.09672 -2.78913 0
M  V30 163 H 13.801 0.454635 -1.55386 0
M  V30 164 H 15.793 3.50772 -2.01844 0
M  V30 165 H 14.363 2.91087 -1.1396 0
M  V30 166 H 13.583 1.94377 -3.42945 0
M  V30 167 H 14.871 2.9049 -4.17724 0
M  V30 168 H 14.269 5.27181 -2.05175 0
M  V30 169 H 12.826 5.92422 -2.71809 0
M  V30 170 N 16.2591 1.48442 0.529413 0
M  V30 171 C 17.1691 1.6569 1.66084 0
M  V30 172 C 18.1851 0.539432 1.65427 0
M  V30 173 O 19.3611 0.810572 1.84368 0
M  V30 174 C 16.4261 1.69315 3.02545 0
M  V30 175 C 15.4871 2.92694 3.14052 0
M  V30 176 C 14.7201 2.96137 4.44003 0
M  V30 177 O 14.9431 2.07973 5.31134 0
M  V30 178 O 13.8771 3.88312 4.59888 0
M  V30 179 H 17.7031 2.61483 1.54469 0
M  V30 180 H 15.2881 1.3185 0.702567 0
M  V30 181 H 17.1701 1.74217 3.83701 0
M  V30 182 H 15.8451 0.766966 3.14483 0
M  V30 183 H 14.7521 2.93324 2.32189 0
M  V30 184 H 16.0851 3.84699 3.0703 0
M  V30 185 N 17.7372 -0.778329 1.37039 0
M  V30 186 C 19.1532 -1.07796 1.17695 0
M  V30 187 C 19.3532 -2.01498 0.00860115 0
M  V30 188 O 18.4092 -2.43901 -0.653352 0
M  V30 189 C 19.7222 -1.68178 2.49272 0
M  V30 190 C 21.2702 -1.80467 2.55735 0
M  V30 191 C 21.7452 -2.44263 3.87427 0
M  V30 192 N 23.2362 -2.51721 3.88833 0
M  V30 193 C 23.9712 -3.01919 4.87476 0
M  V30 194 N 23.4672 -3.5234 5.96513 0
M  V30 195 N 25.2602 -3.00733 4.74885 0
M  V30 196 H 17.4112 -0.156032 2.11826 0
M  V30 197 H 19.6742 -0.131844 0.938787 0
M  V30 198 H 19.3802 -1.06796 3.35093 0
M  V30 199 H 19.2542 -2.67554 2.65885 0
M  V30 200 H 21.6412 -2.40984 1.70325 0
M  V30 201 H 21.7222 -0.798656 2.43013 0
M  V30 202 H 21.3662 -1.84388 4.73248 0
M  V30 203 H 21.2962 -3.45458 3.9745 0
M  V30 204 H 23.7872 -2.1603 3.10063 0
M  V30 205 H 24.1002 -3.89027 6.67741 0
M  V30 206 H 22.4452 -3.50462 6.00168 0
M  V30 207 H 25.6362 -2.60638 3.88826 0
M  V30 208 H 25.8092 -3.39545 5.51918 0
M  V30 209 N 19.2153 -1.21501 -1.00376 0
M  V30 210 C 20.4453 -1.05746 -1.77486 0
M  V30 211 C 20.8533 0.395655 -1.85017 0
M  V30 212 O 20.1963 1.28626 -1.31152 0
M  V30 213 C 20.2583 -1.58092 -3.22873 0
M  V30 214 C 19.9223 -3.06568 -3.38917 0
M  V30 215 C 20.9193 -4.04106 -3.271 0
M  V30 216 C 18.6043 -3.45799 -3.64319 0
M  V30 217 C 20.5983 -5.38862 -3.40451 0
M  V30 218 C 18.2853 -4.80707 -3.77311 0
M  V30 219 C 19.2833 -5.77047 -3.65384 0
M  V30 220 O 18.9713 -7.09507 -3.77961 0
M  V30 221 H 18.7033 -0.371778 -0.564586 0
M  V30 222 H 21.2573 -1.61319 -1.27143 0
M  V30 223 H 19.4873 -0.969163 -3.74358 0
M  V30 224 H 21.1763 -1.38162 -3.81662 0
M  V30 225 H 21.9423 -3.75141 -3.07399 0
M  V30 226 H 17.8213 -2.71344 -3.72684 0
M  V30 227 H 21.3653 -6.14041 -3.31058 0
M  V30 228 H 17.2623 -5.09357 -3.96517 0
M  V30 229 H 18.0303 -7.16935 -3.94901 0
M  V30 230 N 20.6934 1.19889 -1.02296 0
M  V30 231 C 21.6564 2.21116 -0.603351 0
M  V30 232 C 22.6564 1.5738 0.329884 0
M  V30 233 O 23.8464 1.73802 0.117702 0
M  V30 234 C 20.9784 3.40696 0.117992 0
M  V30 235 H 22.1714 2.59754 -1.49893 0
M  V30 236 H 19.7244 1.33463 -0.813468 0
M  V30 237 H 20.4594 3.07569 1.0282 0
M  V30 238 H 20.2444 3.88188 -0.552511 0
M  V30 239 H 21.7344 4.15692 0.398696 0
M  V30 240 N 22.1715 0.800033 1.35784 0
M  V30 241 C 23.0815 0.207204 2.33683 0
M  V30 242 C 24.0975 -0.64631 1.61551 0
M  V30 243 O 25.2735 -0.559604 1.93469 0
M  V30 244 C 22.3385 -0.639659 3.40748 0
M  V30 245 C 21.3995 0.233585 4.28664 0
M  V30 246 C 20.6325 -0.572954 5.30616 0
M  V30 247 O 20.8555 -1.80816 5.40982 0
M  V30 248 O 19.7895 0.0327285 6.01891 0
M  V30 249 H 23.6155 1.01692 2.86169 0
M  V30 250 H 21.2005 0.561691 1.38439 0
M  V30 251 H 23.0825 -1.12223 4.06182 0
M  V30 252 H 21.7575 -1.42708 2.90544 0
M  V30 253 H 20.6645 0.763147 3.66233 0
M  V30 254 H 21.9975 0.984784 4.82248 0
M  V30 255 N 23.6496 -1.47581 0.552962 0
M  V30 256 C 24.5796 -2.32762 -0.185451 0
M  V30 257 C 25.5606 -1.43527 -0.912905 0
M  V30 258 O 26.7456 -1.72388 -0.894201 0
M  V30 259 C 23.8756 -3.25219 -1.21859 0
M  V30 260 C 22.8296 -4.23661 -0.607864 0
M  V30 261 C 22.1556 -5.05413 -1.74533 0
M  V30 262 C 23.4556 -5.20481 0.435582 0
M  V30 263 H 25.1496 -2.94749 0.525684 0
M  V30 264 H 22.6956 -1.41738 0.254251 0
M  V30 265 H 24.6486 -3.8365 -1.7433 0
M  V30 266 H 23.3726 -2.61279 -1.95961 0
M  V30 267 H 22.0316 -3.66451 -0.104489 0
M  V30 268 H 21.6796 -4.3788 -2.47529 0
M  V30 269 H 21.3796 -5.72059 -1.34249 0
M  V30 270 H 22.9036 -5.66701 -2.27338 0
M  V30 271 H 24.3176 -5.733 -0.00290157 0
M  V30 272 H 22.7146 -5.95305 0.757067 0
M  V30 273 H 23.7846 -4.66217 1.33303 0
M  V30 274 N 25.1277 -0.289203 -1.54924 0
M  V30 275 C 26.0597 0.625583 -2.20497 0
M  V30 276 C 27.0727 1.10667 -1.19402 0
M  V30 277 O 28.2617 1.02615 -1.46056 0
M  V30 278 C 25.3617 1.86702 -2.82835 0
M  V30 279 C 24.5347 1.5304 -4.09753 0
M  V30 280 C 23.5937 2.62576 -4.56005 0
M  V30 281 O 22.6197 2.28167 -5.21468 0
M  V30 282 N 23.8217 3.92901 -4.27328 0
M  V30 283 H 26.5867 0.0642801 -2.99631 0
M  V30 284 H 24.1477 -0.110896 -1.6152 0
M  V30 285 H 26.1397 2.59304 -3.10715 0
M  V30 286 H 24.7097 2.33702 -2.07611 0
M  V30 287 H 23.9297 0.637564 -3.8901 0
M  V30 288 H 25.2177 1.28072 -4.92418 0
M  V30 289 H 24.6157 4.23671 -3.74859 0
M  V30 290 H 23.1727 4.61837 -4.59946 0
M  V30 291 N 26.6058 1.57591 -0.0167156 0
M  V30 292 C 27.5528 2.09462 0.969251 0
M  V30 293 C 28.5228 0.99381 1.33089 0
M  V30 294 O 29.7078 1.26726 1.42636 0
M  V30 295 C 26.8478 2.61622 2.25051 0
M  V30 296 C 25.9608 3.85666 1.94642 0
M  V30 297 C 25.0958 4.26266 3.16972 0
M  V30 298 C 24.1348 5.43101 2.82326 0
M  V30 299 N 23.2718 5.78915 3.97243 0
M  V30 300 H 28.1118 2.93428 0.519997 0
M  V30 301 H 25.6488 1.45044 0.245087 0
M  V30 302 H 27.6068 2.89949 2.99976 0
M  V30 303 H 26.2368 1.80505 2.67615 0
M  V30 304 H 25.2888 3.64145 1.10013 0
M  V30 305 H 26.6008 4.70678 1.65117 0
M  V30 306 H 25.7548 4.55963 4.00228 0
M  V30 307 H 24.4938 3.39996 3.49648 0
M  V30 308 H 23.4988 5.1311 1.97479 0
M  V30 309 H 24.7238 6.3106 2.50879 0
M  V30 310 H 22.6698 4.95602 4.29785 0
M  V30 311 H 22.5868 6.58539 3.71299 0
M  V30 312 H 23.8548 6.13212 4.81239 0
M  V30 313 N 28.0839 -0.256276 1.55502 0
M  V30 314 C 29.4999 -0.604325 1.47716 0
M  V30 315 C 29.6999 -1.88763 0.705039 0
M  V30 316 O 28.7559 -2.51445 0.230613 0
M  V30 317 C 30.0689 -0.715756 2.92057 0
M  V30 318 C 31.6169 -0.808706 3.02372 0
M  V30 319 C 32.0919 -0.951777 4.48001 0
M  V30 320 N 33.5829 -1.01688 4.519 0
M  V30 321 C 34.3179 -1.14668 5.61817 0
M  V30 322 N 33.8139 -1.24261 6.81565 0
M  V30 323 N 35.6069 -1.1791 5.49594 0
M  V30 324 H 27.7579 0.586291 2.04148 0
M  V30 325 H 30.0209 0.201015 0.926443 0
M  V30 326 H 29.7269 0.157027 3.51349 0
M  V30 327 H 29.6009 -1.59071 3.42018 0
M  V30 328 H 31.9879 -1.67195 2.43166 0
M  V30 329 H 32.0689 0.0912063 2.55637 0
M  V30 330 H 31.7129 -0.0931291 5.07815 0
M  V30 331 H 31.6429 -1.86659 4.92408 0
M  V30 332 H 34.1339 -0.954468 3.65648 0
M  V30 333 H 34.4469 -1.34046 7.61086 0
M  V30 334 H 32.7919 -1.21236 6.84344 0
M  V30 335 H 35.9829 -1.10057 4.54978 0
M  V30 336 H 36.1559 -1.27681 6.35296 0
M  V30 337 N 29.562 -1.4872 -0.521534 0
M  V30 338 C 30.509 -1.63871 -1.62527 0
M  V30 339 C 31.479 -0.480559 -1.58996 0
M  V30 340 O 32.664 -0.705085 -1.77294 0
M  V30 341 C 29.804 -1.69227 -3.00759 0
M  V30 342 C 28.917 -2.96207 -3.14461 0
M  V30 343 C 28.052 -2.92671 -4.43303 0
M  V30 344 C 27.091 -4.14318 -4.50563 0
M  V30 345 N 26.228 -4.0881 -5.70805 0
M  V30 346 H 31.068 -2.58123 -1.48918 0
M  V30 347 H 28.605 -1.28 -0.724878 0
M  V30 348 H 30.563 -1.70314 -3.80853 0
M  V30 349 H 29.193 -0.784586 -3.1312 0
M  V30 350 H 28.245 -3.04826 -2.27564 0
M  V30 351 H 29.557 -3.86192 -3.15686 0
M  V30 352 H 28.711 -2.92206 -5.31696 0
M  V30 353 H 27.45 -2.00429 -4.44612 0
M  V30 354 H 26.455 -4.15049 -3.60575 0
M  V30 355 H 27.68 -5.07729 -4.50986 0
M  V30 356 H 25.626 -3.19394 -5.72995 0
M  V30 357 H 25.543 -4.92509 -5.7356 0
M  V30 358 H 26.811 -4.12418 -6.61462 0
M  V30 359 N 31.0401 0.771051 -1.3745 0
M  V30 360 C 32.2651 1.56529 -1.36065 0
M  V30 361 C 32.6901 1.88029 0.0515859 0
M  V30 362 O 32.0481 1.49282 1.02882 0
M  V30 363 C 32.0961 2.85187 -2.20683 0
M  V30 364 O 31.2001 3.79593 -1.61193 0
M  V30 365 H 30.5411 0.47411 -0.464883 0
M  V30 366 H 33.0711 0.954269 -1.80983 0
M  V30 367 H 33.0811 3.34283 -2.33921 0
M  V30 368 H 31.7561 2.61588 -3.23334 0
M  V30 369 H 30.3331 3.38239 -1.56999 0
M  V30 370 N 32.5182 1.22032 0.997298 0
M  V30 371 C 33.4682 0.953838 2.07089 0
M  V30 372 C 34.4522 -0.0938669 1.60626 0
M  V30 373 O 35.6442 0.116078 1.76619 0
M  V30 374 C 32.7732 0.528726 3.39204 0
M  V30 375 C 31.8592 1.61092 3.92314 0
M  V30 376 N 32.2502 2.83768 4.18699 0
M  V30 377 C 30.5482 1.48158 4.20672 0
M  V30 378 C 31.2492 3.53715 4.61802 0
M  V30 379 N 30.2252 2.81174 4.65233 0
M  V30 380 H 34.0272 1.88577 2.25424 0
M  V30 381 H 31.5412 1.11719 1.17867 0
M  V30 382 H 33.5382 0.31915 4.15677 0
M  V30 383 H 32.1982 -0.39635 3.22272 0
M  V30 384 H 33.2092 3.20238 4.07023 0
M  V30 385 H 29.8862 0.622369 4.12835 0
M  V30 386 H 31.2762 4.58793 4.90875 0
M  V30 387 N 33.9963 -1.19345 1.0293 0
M  V30 388 C 35.4073 -1.70725 0.755633 0
M  V30 389 C 35.7583 -1.82326 -0.724676 0
M  V30 390 O 34.8833 -1.49471 -1.56484 0
M  V30 391 C 35.4783 -3.10084 1.36503 0
M  V30 392 C 34.0373 -3.58723 1.13994 0
M  V30 393 C 33.1843 -2.35577 1.46283 0
M  V30 394 H 36.1353 -1.0418 1.19718 0
M  V30 395 H 36.1563 -3.72787 0.762217 0
M  V30 396 H 35.6683 -3.01609 2.44241 0
M  V30 397 H 33.7693 -3.72512 0.0807901 0
M  V30 398 H 33.8823 -4.42816 1.82894 0
M  V30 399 H 32.2463 -2.38935 0.88217 0
M  V30 400 H 33.0293 -2.29731 2.55105 0
M  V30 401 N 35.4744 -0.807222 -1.35358 0
M  V30 402 C 36.7024 -0.400377 -2.02989 0
M  V30 403 C 37.1174 0.988859 -1.60832 0
M  V30 404 O 36.4744 1.63729 -0.806175 0
M  V30 405 C 36.5254 -0.474867 -3.58368 0
M  V30 406 O 36.2464 -1.80933 -3.98992 0
M  V30 407 C 37.7474 -0.0609112 -4.43258 0
M  V30 408 H 34.9674 -0.162587 -0.651004 0
M  V30 409 H 37.5114 -1.09102 -1.72965 0
M  V30 410 H 35.6664 0.167534 -3.87038 0
M  V30 411 H 36.0804 -1.77256 -4.9364 0
M  V30 412 H 37.5544 -0.164145 -5.51756 0
M  V30 413 H 38.0314 0.993831 -4.27808 0
M  V30 414 H 38.6374 -0.676492 -4.19885 0
M  V30 415 N 36.9525 1.47285 -0.560781 0
M  V30 416 C 38.1775 2.07359 -0.0410566 0
M  V30 417 C 38.6025 1.41017 1.24483 0
M  V30 418 O 37.9605 0.486368 1.74654 0
M  V30 419 C 38.0085 3.6035 0.134123 0
M  V30 420 O 37.1125 3.94681 1.19587 0
M  V30 421 H 36.4535 0.661887 -0.0529291 0
M  V30 422 H 38.9835 1.89252 -0.777482 0
M  V30 423 H 38.9935 4.0652 0.347207 0
M  V30 424 H 37.6685 4.08034 -0.805047 0
M  V30 425 H 36.2455 3.60251 0.962987 0
M  V30 426 N 38.4306 0.297415 1.54768 0
M  V30 427 C 39.6706 -0.313829 2.01976 0
M  V30 428 C 40.0346 -1.51366 1.1812 0
M  V30 429 O 41.2356 -2.19603 1.5501 0
M  V30 430 C 39.5066 -0.664964 3.51159 0
M  V30 431 S 41.0656 -1.25958 4.20333 0
M  V30 432 H 37.8836 -0.0965014 0.704421 0
M  V30 433 H 40.4856 0.424451 1.90837 0
M  V30 434 H 39.1896 0.21681 4.09827 0
M  V30 435 H 38.7206 -1.43413 3.66328 0
M  V30 436 H 40.7356 -2.54751 4.25813 0
M  V30 437 N 39.9087 -1.5758 0.0250728 0
M  V30 438 C 41.1577 -1.90811 -0.653767 0
M  V30 439 C 41.4707 -0.90273 -1.73523 0
M  V30 440 O 42.6767 -1.12614 -2.47043 0
M  V30 441 C 41.1327 -3.38804 -1.21409 0
M  V30 442 C 40.7407 -4.47692 -0.166126 0
M  V30 443 C 42.4847 -3.81108 -1.86967 0
M  V30 444 C 40.3917 -5.86779 -0.737856 0
M  V30 445 H 39.3217 -0.712063 -0.247956 0
M  V30 446 H 41.9727 -1.83281 0.0897137 0
M  V30 447 H 40.3547 -3.41252 -2.00905 0
M  V30 448 H 41.5287 -4.56797 0.606079 0
M  V30 449 H 39.8437 -4.14565 0.390466 0
M  V30 450 H 42.4407 -4.82375 -2.30692 0
M  V30 451 H 42.7837 -3.15953 -2.71071 0
M  V30 452 H 43.3167 -3.81065 -1.14167 0
M  V30 453 H 40.0557 -6.55468 0.0649577 0
M  V30 454 H 39.5757 -5.81288 -1.47864 0
M  V30 455 H 41.2547 -6.35223 -1.22884 0
M  V30 456 N 41.3868 0.248026 -1.55636 0
M  V30 457 C 42.6118 0.998028 -1.81808 0
M  V30 458 C 43.0368 1.78207 -0.601979 0
M  V30 459 O 42.3948 1.75653 0.448961 0
M  V30 460 C 42.4428 1.9125 -3.05705 0
M  V30 461 O 41.5468 3.00406 -2.82542 0
M  V30 462 H 40.8878 0.284045 -0.600179 0
M  V30 463 H 43.4178 0.269357 -2.02819 0
M  V30 464 H 43.4278 2.32737 -3.35108 0
M  V30 465 H 42.1028 1.33602 -3.93857 0
M  V30 466 H 40.6798 2.63056 -2.64303 0
M  V30 467 N 42.8649 1.48995 0.513639 0
M  V30 468 C 44.0929 1.61531 1.29288 0
M  V30 469 C 44.5079 0.281801 1.86685 0
M  V30 470 O 43.8649 -0.731111 1.67215 0
M  V30 471 C 43.9159 2.67449 2.43215 0
M  V30 472 O 43.6369 3.95626 1.88179 0
M  V30 473 C 45.1379 2.90575 3.34785 0
M  V30 474 H 42.3579 0.544165 0.392588 0
M  V30 475 H 44.9019 1.9494 0.617956 0
M  V30 476 H 43.0569 2.36853 3.0656 0
M  V30 477 H 43.4709 4.53868 2.62876 0
M  V30 478 H 44.9449 3.68449 4.11035 0
M  V30 479 H 45.4219 2.00011 3.91015 0
M  V30 480 H 46.0279 3.22538 2.77218 0
M  V30 481 N 44.343 -0.763751 1.37857 0
M  V30 482 C 45.306 -1.85889 1.34081 0
M  V30 483 C 46.306 -1.58949 0.243277 0
M  V30 484 O 47.496 -1.66882 0.499589 0
M  V30 485 C 44.628 -3.23176 1.08489 0
M  V30 486 H 45.821 -1.90648 2.31502 0
M  V30 487 H 43.374 -0.964367 1.23003 0
M  V30 488 H 44.109 -3.24091 0.116318 0
M  V30 489 H 43.894 -3.44124 1.8794 0
M  V30 490 H 45.384 -4.03254 1.08517 0
M  V30 491 N 45.8211 -1.22559 -0.990812 0
M  V30 492 C 47.0681 -1.05141 -1.73065 0
M  V30 493 C 47.3961 0.413191 -1.9006 0
M  V30 494 O 46.6511 1.32257 -1.44245 0
M  V30 495 C 46.9501 -1.71011 -3.13831 0
M  V30 496 C 46.6161 -3.20911 -3.16745 0
M  V30 497 C 45.2781 -3.61812 -3.17247 0
M  V30 498 C 47.6301 -4.16846 -3.12872 0
M  V30 499 C 44.9581 -4.97127 -3.1158 0
M  V30 500 C 47.3101 -5.5214 -3.08746 0
M  V30 501 C 45.9741 -5.92419 -3.07565 0
M  V30 502 H 45.2441 -0.384738 -0.633291 0
M  V30 503 H 47.8911 -1.5235 -1.16025 0
M  V30 504 H 46.1961 -1.16133 -3.74193 0
M  V30 505 H 47.8931 -1.55023 -3.69823 0
M  V30 506 H 44.4831 -2.88344 -3.17105 0
M  V30 507 H 48.6671 -3.86263 -3.11632 0
M  V30 508 H 43.9231 -5.27562 -3.09012 0
M  V30 509 H 48.0971 -6.26201 -3.04705 0
M  V30 510 H 45.7241 -6.97236 -3.02929 0
M  V30 511 N 47.2992 1.18797 -1.03562 0
M  V30 512 C 48.5272 1.92599 -0.755869 0
M  V30 513 C 48.9422 1.75886 0.686271 0
M  V30 514 O 48.2992 1.08517 1.46732 0
M  V30 515 C 48.3502 3.44159 -1.10619 0
M  V30 516 O 48.0712 3.60341 -2.4917 0
M  V30 517 C 49.5722 4.3507 -0.850214 0
M  V30 518 H 46.7922 0.611587 -0.276048 0
M  V30 519 H 49.3362 1.50742 -1.38192 0
M  V30 520 H 47.4912 3.83823 -0.525194 0
M  V30 521 H 47.9052 4.54128 -2.62427 0
M  V30 522 H 49.3792 5.39989 -1.14523 0
M  V30 523 H 49.8562 4.38673 0.215176 0
M  V30 524 H 50.4622 4.01097 -1.41426 0
M  V30 525 N 48.7773 0.814389 1.34928 0
M  V30 526 C 49.7253 0.218424 2.31572 0
M  V30 527 C 50.7193 -0.636128 1.57002 0
M  V30 528 O 51.9253 -0.52842 1.72069 0
M  V30 529 H 48.3003 0.0518799 0.750208 0
M  V30 530 H 50.2713 1.04852 2.79372 0
M  V30 531 C 49.0203 -0.61207 3.4227 0
M  V30 532 H 48.3433 0.0361578 3.99784 0
M  V30 533 H 49.7833 -0.995317 4.12152 0
M  V30 534 C 48.2423 -1.78087 2.85984 0
M  V30 535 O 48.7723 -2.8787 2.80168 0
M  V30 536 N 46.9783 -1.59488 2.42924 0
M  V30 537 H 46.5253 -0.701874 2.47854 0
M  V30 538 H 46.4833 -2.37846 2.05613 0
M  V30 539 N 50.2554 -1.46986 0.568584 0
M  V30 540 C 51.5014 -2.02741 0.0488709 0
M  V30 541 C 51.8344 -1.44077 -1.30214 0
M  V30 542 O 51.1094 -0.600552 -1.84996 0
M  V30 543 C 51.3924 -3.60086 -0.032047 0
M  V30 544 C 51.2454 -4.29162 1.34686 0
M  V30 545 C 52.5644 -4.33838 -0.739798 0
M  V30 546 H 49.6834 -0.736749 0.0192338 0
M  V30 547 H 52.3254 -1.75289 0.733065 0
M  V30 548 H 50.4754 -3.83606 -0.61473 0
M  V30 549 H 52.1474 -4.16948 1.97362 0
M  V30 550 H 50.3904 -3.89073 1.91846 0
M  V30 551 H 51.0614 -5.37826 1.24285 0
M  V30 552 H 53.5374 -4.15378 -0.244939 0
M  V30 553 H 52.4134 -5.43537 -0.765406 0
M  V30 554 H 52.6744 -4.03875 -1.79827 0
M  V30 555 N 51.7335 -0.305618 -1.54608 0
M  V30 556 C 52.6965 0.555591 -2.22364 0
M  V30 557 C 53.6965 1.05768 -1.21119 0
M  V30 558 O 54.8865 0.952972 -1.45822 0
M  V30 559 C 52.0185 1.76974 -2.91364 0
M  V30 560 H 53.2115 -0.0364572 -2.99878 0
M  V30 561 H 50.7645 -0.0565007 -1.56198 0
M  V30 562 H 51.4995 2.40151 -2.17941 0
M  V30 563 H 51.2845 1.41732 -3.65588 0
M  V30 564 H 52.7745 2.38148 -3.43038 0
M  V30 565 N 53.2116 1.57565 -0.0334293 0
M  V30 566 C 54.1746 2.09393 0.932048 0
M  V30 567 C 55.1746 1.00986 1.25134 0
M  V30 568 O 56.3646 1.27129 1.19096 0
M  V30 569 C 53.4966 2.56338 2.2473 0
M  V30 570 H 54.6896 2.95984 0.483085 0
M  V30 571 H 52.2426 1.54819 0.21468 0
M  V30 572 H 52.9776 1.7309 2.74245 0
M  V30 573 H 52.7626 3.35542 2.02865 0
M  V30 574 H 54.2526 2.96646 2.93923 0
M  V30 575 N 54.6897 -0.239769 1.55765 0
M  V30 576 C 55.6197 -1.30052 1.9393 0
M  V30 577 C 56.6007 -1.49839 0.805132 0
M  V30 578 O 57.7857 -1.62328 1.06599 0
M  V30 579 C 54.9157 -2.65391 2.2402 0
M  V30 580 C 53.8697 -2.60289 3.39755 0
M  V30 581 C 53.1957 -3.99489 3.55405 0
M  V30 582 C 54.4957 -2.16654 4.75246 0
M  V30 583 H 56.1897 -0.983573 2.82783 0
M  V30 584 H 53.7357 -0.471701 1.36055 0
M  V30 585 H 55.6887 -3.3974 2.49308 0
M  V30 586 H 54.4127 -2.98736 1.32 0
M  V30 587 H 53.0717 -1.88398 3.14487 0
M  V30 588 H 52.7197 -4.30112 2.60793 0
M  V30 589 H 52.4197 -3.96962 4.33238 0
M  V30 590 H 53.9437 -4.75528 3.83022 0
M  V30 591 H 55.3577 -2.80737 4.99859 0
M  V30 592 H 53.7547 -2.25223 5.56232 0
M  V30 593 H 54.8247 -1.11835 4.71827 0
M  V30 594 N 56.1678 -1.49265 -0.50573 0
M  V30 595 C 57.4078 -1.60128 -1.27038 0
M  V30 596 C 57.7718 -0.279557 -1.89954 0
M  V30 597 O 58.9728 -0.263329 -2.67507 0
M  V30 598 C 57.2438 -2.72507 -2.31246 0
M  V30 599 S 58.8028 -3.0329 -3.17113 0
M  V30 600 H 55.6208 -0.564863 -0.4318 0
M  V30 601 H 58.2228 -1.86902 -0.573397 0
M  V30 602 H 56.9268 -3.67068 -1.83546 0
M  V30 603 H 56.4578 -2.4771 -3.05619 0
M  V30 604 H 58.4728 -2.44448 -4.31809 0
M  V30 605 N 57.6459 0.756429 -1.3826 0
M  V30 606 C 59.0619 1.0591 -1.19395 0
M  V30 607 C 59.2619 2.01459 -0.0406567 0
M  V30 608 O 58.3179 2.44909 0.614467 0
M  V30 609 C 59.6309 1.64191 -2.51916 0
M  V30 610 C 61.1789 1.76376 -2.58574 0
M  V30 611 C 61.6539 2.38069 -3.91264 0
M  V30 612 N 63.1449 2.45503 -3.92788 0
M  V30 613 C 63.8799 2.94126 -4.92217 0
M  V30 614 N 63.3759 3.42805 -6.02043 0
M  V30 615 N 65.1689 2.9314 -4.7961 0
M  V30 616 H 57.3199 0.122313 -2.12048 0
M  V30 617 H 59.5829 0.116892 -0.940766 0
M  V30 618 H 59.2889 1.01451 -3.3675 0
M  V30 619 H 59.1629 2.6329 -2.70108 0
M  V30 620 H 61.5499 2.38244 -1.74137 0
M  V30 621 H 61.6309 0.759894 -2.44252 0
M  V30 622 H 61.2749 1.76835 -4.76121 0
M  V30 623 H 61.2049 3.39091 -4.02895 0
M  V30 624 H 63.6959 2.1107 -3.13461 0
M  V30 625 H 64.0089 3.78354 -6.73846 0
M  V30 626 H 62.3539 3.4087 -6.05667 0
M  V30 627 H 65.5449 2.54419 -3.92923 0
M  V30 628 H 65.7179 3.30721 -5.5725 0
M  V30 629 N 59.124 1.23083 0.984299 0
M  V30 630 C 60.071 1.00854 2.07598 0
M  V30 631 C 61.041 -0.0726709 1.65941 0
M  V30 632 O 62.226 0.0786535 1.90638 0
M  V30 633 C 59.366 0.601645 3.39815 0
M  V30 634 C 58.479 1.75456 3.94765 0
M  V30 635 C 57.614 1.29482 5.15177 0
M  V30 636 C 56.653 2.41873 5.62284 0
M  V30 637 N 55.79 1.96885 6.73929 0
M  V30 638 H 60.63 1.943 2.25946 0
M  V30 639 H 58.167 0.968001 1.10762 0
M  V30 640 H 60.125 0.346854 4.15756 0
M  V30 641 H 58.755 -0.295803 3.21442 0
M  V30 642 H 57.807 2.12346 3.15616 0
M  V30 643 H 59.119 2.59965 4.25699 0
M  V30 644 H 58.273 0.997923 5.98437 0
M  V30 645 H 57.012 0.420046 4.85888 0
M  V30 646 H 56.017 2.72342 4.77608 0
M  V30 647 H 57.242 3.29881 5.93595 0
M  V30 648 H 55.188 1.11782 6.46406 0
M  V30 649 H 55.105 2.74956 7.04227 0
M  V30 650 H 56.373 1.70289 7.60672 0
M  V30 651 N 60.6021 -1.18246 1.0419 0
M  V30 652 C 62.0181 -1.40269 0.761366 0
M  V30 653 C 62.2181 -1.90777 -0.648578 0
M  V30 654 O 61.2741 -2.0929 -1.41258 0
M  V30 655 C 62.5871 -2.40237 1.8085 0
M  V30 656 C 64.1351 -2.53961 1.82955 0
M  V30 657 C 64.6101 -3.57194 2.86664 0
M  V30 658 N 66.1011 -3.64702 2.85563 0
M  V30 659 C 66.8361 -4.44309 3.6246 0
M  V30 660 N 66.3321 -5.27514 4.49111 0
M  V30 661 N 68.1251 -4.39084 3.50944 0
M  V30 662 H 60.2761 -0.837882 1.95175 0
M  V30 663 H 62.5391 -0.430608 0.84456 0
M  V30 664 H 62.2451 -2.10176 2.81991 0
M  V30 665 H 62.1191 -3.39601 1.64168 0
M  V30 666 H 64.5061 -2.83338 0.824855 0
M  V30 667 H 64.5871 -1.54706 2.03715 0
M  V30 668 H 64.2311 -3.28558 3.87314 0
M  V30 669 H 64.1611 -4.5613 2.6316 0
M  V30 670 H 66.6521 -3.05289 2.22727 0
M  V30 671 H 66.9651 -5.85411 5.04493 0
M  V30 672 H 65.3101 -5.2693 4.53178 0
M  V30 673 H 68.5011 -3.7313 2.82651 0
M  V30 674 H 68.6741 -5.00883 4.11121 0
M  V30 675 N 62.0802 -0.821533 -1.34494 0
M  V30 676 C 63.3102 -0.421272 -2.02259 0
M  V30 677 C 63.7182 0.977047 -1.6202 0
M  V30 678 O 63.0612 1.64348 -0.820703 0
M  V30 679 C 63.1232 -0.44231 -3.56769 0
M  V30 680 C 62.7872 -1.79372 -4.20327 0
M  V30 681 C 63.7842 -2.75435 -4.40944 0
M  V30 682 C 61.4692 -2.08182 -4.57127 0
M  V30 683 C 63.4632 -3.98482 -4.97484 0
M  V30 684 C 61.1502 -3.31489 -5.13379 0
M  V30 685 C 62.1482 -4.26457 -5.33501 0
M  V30 686 O 61.8362 -5.47585 -5.88562 0
M  V30 687 H 61.5682 -0.167473 -0.654927 0
M  V30 688 H 64.1222 -1.11073 -1.72777 0
M  V30 689 H 62.3522 0.303836 -3.85505 0
M  V30 690 H 64.0412 -0.0622925 -4.05852 0
M  V30 691 H 64.8072 -2.54473 -4.12878 0
M  V30 692 H 60.6862 -1.35066 -4.4077 0
M  V30 693 H 64.2302 -4.72618 -5.13106 0
M  V30 694 H 60.1272 -3.52316 -5.40873 0
M  V30 695 H 60.8952 -5.49086 -6.06998 0
M  V30 696 N 63.5583 1.46682 -0.576371 0
M  V30 697 C 64.4903 2.28341 0.198231 0
M  V30 698 C 65.5033 1.38141 0.861453 0
M  V30 699 O 66.6923 1.62797 0.732082 0
M  V30 700 C 63.7923 3.12986 1.29972 0
M  V30 701 C 62.9653 4.31271 0.729639 0
M  V30 702 C 62.0243 4.97363 1.71803 0
M  V30 703 O 61.0503 5.55156 1.25658 0
M  V30 704 N 62.2523 4.93796 3.05198 0
M  V30 705 H 65.0173 2.9546 -0.502324 0
M  V30 706 H 62.5783 1.56525 -0.413715 0
M  V30 707 H 64.5703 3.54066 1.96008 0
M  V30 708 H 63.1403 2.47984 1.90323 0
M  V30 709 H 62.3603 3.94052 -0.108012 0
M  V30 710 H 63.6483 5.07739 0.328438 0
M  V30 711 H 63.0463 4.48077 3.45317 0
M  V30 712 H 61.6033 5.38837 3.6674 0
M  V30 713 N 65.0364 0.313813 1.54444 0
M  V30 714 C 65.9694 -0.598866 2.20202 0
M  V30 715 C 66.9474 -1.12318 1.17573 0
M  V30 716 O 68.1314 -1.18899 1.46271 0
M  V30 717 C 65.2584 -1.82071 2.85601 0
M  V30 718 C 64.3044 -1.42851 4.01865 0
M  V30 719 S 65.1374 -0.473512 5.33402 0
M  V30 720 C 66.2934 -1.70286 6.0229 0
M  V30 721 H 66.5264 -0.0402532 2.97273 0
M  V30 722 H 64.0594 0.0979165 1.54089 0
M  V30 723 H 66.0174 -2.52184 3.23904 0
M  V30 724 H 64.6784 -2.3505 2.08351 0
M  V30 725 H 63.8714 -2.33871 4.46453 0
M  V30 726 H 63.4734 -0.807198 3.65185 0
M  V30 727 H 65.7654 -2.64168 6.23876 0
M  V30 728 H 66.7084 -1.29932 6.96077 0
M  V30 729 H 67.1164 -1.88541 5.32083 0
M  V30 730 N 66.5145 -1.57545 0.0417849 0
M  V30 731 C 67.4475 -2.06514 -0.970928 0
M  V30 732 C 68.4255 -0.963607 -1.30971 0
M  V30 733 O 69.6095 -1.23486 -1.4242 0
M  V30 734 C 66.7365 -2.4978 -2.28752 0
M  V30 735 C 65.7825 -3.71078 -2.10246 0
M  V30 736 S 66.6155 -5.17158 -1.38952 0
M  V30 737 C 67.7715 -5.6373 -2.71954 0
M  V30 738 H 68.0045 -2.9209 -0.554129 0
M  V30 739 H 65.5375 -1.53459 -0.17024 0
M  V30 740 H 67.4955 -2.75371 -3.04435 0
M  V30 741 H 66.1565 -1.64527 -2.67562 0
M  V30 742 H 65.3495 -3.9924 -3.07609 0
M  V30 743 H 64.9515 -3.45705 -1.42704 0
M  V30 744 H 67.2435 -5.68743 -3.68154 0
M  V30 745 H 68.1865 -6.63086 -2.4844 0
M  V30 746 H 68.5945 -4.91424 -2.77782 0
M  V30 747 N 67.9926 0.231505 -1.5589 0
M  V30 748 C 68.9426 1.29007 -1.87993 0
M  V30 749 C 69.9266 1.42764 -0.742102 0
M  V30 750 O 71.1186 1.45747 -1.00433 0
M  V30 751 C 68.2476 2.6425 -2.1915 0
M  V30 752 C 67.3336 2.54435 -3.39299 0
M  V30 753 N 67.7246 2.14262 -4.58176 0
M  V30 754 C 66.0226 2.85416 -3.42715 0
M  V30 755 C 66.7236 2.15455 -5.40328 0
M  V30 756 N 65.6996 2.55558 -4.79783 0
M  V30 757 H 69.5016 0.970213 -2.77424 0
M  V30 758 H 67.0156 0.440097 -1.56323 0
M  V30 759 H 69.0126 3.40665 -2.40319 0
M  V30 760 H 67.6726 2.9709 -1.31025 0
M  V30 761 H 68.6836 1.85554 -4.83518 0
M  V30 762 H 65.3606 3.22693 -2.64906 0
M  V30 763 H 66.7506 1.86605 -6.45467 0
M  V30 764 N 69.4707 1.49531 0.497807 0
M  V30 765 C 70.8817 1.52344 1.07927 0
M  V30 766 C 71.2327 0.311469 1.93712 0
M  V30 767 O 70.3577 -0.578405 2.08527 0
M  V30 768 C 70.9527 2.76062 1.96405 0
M  V30 769 C 69.5117 2.81643 2.49709 0
M  V30 770 C 68.6587 2.46299 1.27404 0
M  V30 771 H 71.6097 1.56182 0.281576 0
M  V30 772 H 71.6307 2.56405 2.81135 0
M  V30 773 H 71.1427 3.64254 1.33943 0
M  V30 774 H 69.2437 1.97739 3.15801 0
M  V30 775 H 69.3567 3.83891 2.86643 0
M  V30 776 H 67.7207 1.98148 1.60029 0
M  V30 777 H 68.5037 3.36769 0.66645 0
M  V30 778 N 70.9488 -0.749086 1.3866 0
M  V30 779 C 71.8588 -1.89358 1.38494 0
M  V30 780 C 72.8748 -1.71708 0.281476 0
M  V30 781 O 74.0508 -1.94554 0.520643 0
M  V30 782 C 71.1158 -3.24782 1.21316 0
M  V30 783 C 70.1768 -3.54926 2.41508 0
M  V30 784 C 69.4098 -4.83888 2.2514 0
M  V30 785 O 69.6328 -5.56592 1.24746 0
M  V30 786 O 68.5668 -5.13612 3.13826 0
M  V30 787 H 72.3928 -1.92452 2.34938 0
M  V30 788 H 69.9778 -0.894981 1.19626 0
M  V30 789 H 71.8598 -4.05739 1.13814 0
M  V30 790 H 70.5348 -3.2249 0.279592 0
M  V30 791 H 69.4418 -2.74112 2.54585 0
M  V30 792 H 70.7748 -3.61983 3.3351 0
M  V30 793 N 72.4269 -1.23603 -0.977757 0
M  V30 794 C 73.3569 -1.04401 -2.0886 0
M  V30 795 C 74.3379 0.0399052 -1.70053 0
M  V30 796 O 75.5229 -0.125246 -1.93796 0
M  V30 797 C 72.6529 -0.637269 -3.41403 0
M  V30 798 C 71.6069 -1.66883 -3.94124 0
M  V30 799 C 70.9329 -1.11745 -5.22893 0
M  V30 800 C 72.2329 -3.06247 -4.23096 0
M  V30 801 H 73.9269 -1.97316 -2.25182 0
M  V30 802 H 71.4729 -0.950096 -1.08209 0
M  V30 803 H 73.4259 -0.48998 -4.18542 0
M  V30 804 H 72.1499 0.327557 -3.24953 0
M  V30 805 H 70.8089 -1.80416 -3.19133 0
M  V30 806 H 70.4569 -0.143527 -5.02795 0
M  V30 807 H 70.1569 -1.80672 -5.59134 0
M  V30 808 H 71.6809 -0.982067 -6.02651 0
M  V30 809 H 73.0949 -2.96001 -4.90975 0
M  V30 810 H 71.4919 -3.72436 -4.70544 0
M  V30 811 H 72.5619 -3.55041 -3.30263 0
M  V30 812 N 73.905 1.17692 -1.04816 0
M  V30 813 C 75.153 1.87488 -0.754497 0
M  V30 814 C 75.474 1.81205 0.720407 0
M  V30 815 O 74.744 1.23544 1.52032 0
M  V30 816 H 73.324 0.694101 -0.276102 0
M  V30 817 H 75.986 1.42793 -1.32651 0
M  V30 818 H 75.082 2.93328 -1.06606 0
M  V30 819 N 75.3831 0.828654 1.34056 0
M  V30 820 C 76.3131 0.269443 2.3194 0
M  V30 821 C 77.2941 -0.617247 1.58506 0
M  V30 822 O 78.4791 -0.542931 1.86456 0
M  V30 823 C 75.6091 -0.564793 3.42677 0
M  V30 824 C 74.5631 0.225241 4.27407 0
M  V30 825 C 73.8891 -0.7321 5.29664 0
M  V30 826 C 75.1891 1.43663 5.02154 0
M  V30 827 H 76.8831 1.08728 2.7896 0
M  V30 828 H 74.4291 0.524283 1.34117 0
M  V30 829 H 76.3821 -0.966233 4.10173 0
M  V30 830 H 75.1061 -1.41574 2.9432 0
M  V30 831 H 73.7651 0.608117 3.61521 0
M  V30 832 H 73.4131 -1.57916 4.77568 0
M  V30 833 H 73.1131 -0.20767 5.87233 0
M  V30 834 H 74.6371 -1.13128 6.00029 0
M  V30 835 H 76.0511 1.1089 5.62473 0
M  V30 836 H 74.4481 1.89711 5.69324 0
M  V30 837 H 75.5181 2.21181 4.31517 0
M  V30 838 N 76.8612 -1.46375 0.584142 0
M  V30 839 C 77.8242 -2.28784 -0.138108 0
M  V30 840 C 78.8242 -1.38471 -0.817462 0
M  V30 841 O 80.0142 -1.60833 -0.669199 0
M  V30 842 C 77.1462 -3.18892 -1.20503 0
M  V30 843 H 78.3392 -2.94117 0.586127 0
M  V30 844 H 75.8922 -1.52509 0.342171 0
M  V30 845 H 76.6272 -2.58309 -1.96079 0
M  V30 846 H 76.4122 -3.85388 -0.722384 0
M  V30 847 H 77.9022 -3.80914 -1.71155 0
M  V30 848 N 78.3393 -0.321999 -1.54275 0
M  V30 849 C 79.2893 0.560185 -2.21011 0
M  V30 850 C 80.2733 1.08283 -1.19011 0
M  V30 851 O 81.4653 1.02011 -1.44647 0
M  V30 852 C 78.5943 1.72137 -2.97025 0
M  V30 853 C 77.6803 1.21369 -4.06363 0
M  V30 854 N 78.0713 0.425566 -5.04007 0
M  V30 855 C 76.3693 1.49255 -4.20284 0
M  V30 856 C 77.0703 0.152601 -5.815 0
M  V30 857 N 76.0463 0.738294 -5.38563 0
M  V30 858 H 79.8483 -0.049265 -2.93859 0
M  V30 859 H 77.3623 -0.127779 -1.61897 0
M  V30 860 H 79.3593 2.36512 -3.43319 0
M  V30 861 H 78.0193 2.33431 -2.25699 0
M  V30 862 H 79.0303 0.068551 -5.17855 0
M  V30 863 H 75.7073 2.11145 -3.60172 0
M  V30 864 H 77.0973 -0.481764 -6.70171 0
M  V30 865 N 79.8174 1.5752 -0.0501392 0
M  V30 866 C 81.0424 1.97376 0.636997 0
M  V30 867 C 81.4674 0.927466 1.63645 0
M  V30 868 O 80.8254 -0.10941 1.8097 0
M  V30 869 C 80.8734 3.36304 1.30123 0
M  V30 870 O 79.9774 3.34156 2.41689 0
M  V30 871 H 79.3184 0.642998 0.165679 0
M  V30 872 H 81.8484 2.04258 -0.118233 0
M  V30 873 H 81.8584 3.73008 1.65315 0
M  V30 874 H 80.5334 4.11993 0.568746 0
M  V30 875 H 79.1104 3.09196 2.08451 0
M  V30 876 N 81.2955 -0.223234 1.56011 0
M  V30 877 C 82.5355 -0.954962 1.8072 0
M  V30 878 C 82.8995 -1.81598 0.623384 0
M  V30 879 O 84.1005 -2.58132 0.749745 0
M  V30 880 C 82.3715 -1.77313 3.10314 0
M  V30 881 S 83.9305 -2.56073 3.56332 0
M  V30 882 H 80.7485 -0.320812 0.634508 0
M  V30 883 H 83.3505 -0.220686 1.9425 0
M  V30 884 H 82.0545 -1.13071 3.94516 0
M  V30 885 H 81.5855 -2.54974 2.99586 0
M  V30 886 H 83.6005 -3.79619 3.19536 0
M  V30 887 N 82.7736 -1.49793 -0.48987 0
M  V30 888 C 83.7216 -1.67783 -1.61095 0
M  V30 889 C 84.7156 -0.543683 -1.60438 0
M  V30 890 O 85.9216 -0.723647 -1.64813 0
M  V30 891 H 82.2966 -0.529255 -0.534222 0
M  V30 892 H 84.2676 -2.61861 -1.43078 0
M  V30 893 C 83.0166 -1.77191 -2.99164 0
M  V30 894 H 82.3396 -2.63841 -3.0038 0
M  V30 895 H 83.7796 -1.93809 -3.77113 0
M  V30 896 C 82.2386 -0.519203 -3.32875 0
M  V30 897 O 82.7686 0.350124 -4.00171 0
M  V30 898 N 80.9746 -0.378816 -2.8812 0
M  V30 899 H 80.5216 -1.08725 -2.33531 0
M  V30 900 H 80.4796 0.458239 -3.11043 0
M  V30 901 N 84.2517 0.741722 -1.39055 0
M  V30 902 C 85.1617 1.88621 -1.39496 0
M  V30 903 C 86.1777 1.71557 -0.290578 0
M  V30 904 O 87.3537 1.94275 -0.530954 0
M  V30 905 C 84.4187 3.24134 -1.23037 0
M  V30 906 C 83.4797 3.5364 -2.43387 0
M  V30 907 C 82.7127 4.82687 -2.27703 0
M  V30 908 O 82.9357 5.55922 -1.27696 0
M  V30 909 O 81.8697 5.1194 -3.16545 0
M  V30 910 H 85.6957 1.91203 -2.35956 0
M  V30 911 H 83.2807 0.888625 -1.20099 0
M  V30 912 H 85.1627 4.0513 -1.15964 0
M  V30 913 H 83.8377 3.22337 -0.296691 0
M  V30 914 H 82.7447 2.72758 -2.56035 0
M  V30 915 H 84.0777 3.60209 -3.35425 0
M  V30 916 N 85.7298 1.2412 0.971189 0
M  V30 917 C 86.6928 1.03156 2.04674 0
M  V30 918 C 87.6928 -0.00990322 1.60797 0
M  V30 919 O 88.8828 0.230729 1.72665 0
M  V30 920 C 86.0148 0.562765 3.36223 0
M  V30 921 H 87.2078 1.98614 2.24705 0
M  V30 922 H 84.7608 1.06293 1.14593 0
M  V30 923 H 85.4958 -0.395176 3.21883 0
M  V30 924 H 85.2808 1.31441 3.69413 0
M  V30 925 H 86.7708 0.437015 4.15307 0
M  V30 926 N 87.2079 -1.17134 1.05439 0
M  V30 927 C 88.4549 -1.87456 0.765942 0
M  V30 928 C 88.7829 -1.81189 -0.707153 0
M  V30 929 O 88.0379 -1.21633 -1.5331 0
M  V30 930 C 88.3369 -3.36833 1.19491 0
M  V30 931 C 88.0029 -3.63301 2.67063 0
M  V30 932 C 86.6649 -3.70234 3.07376 0
M  V30 933 C 89.0169 -3.74575 3.62413 0
M  V30 934 C 86.3449 -3.85933 4.41896 0
M  V30 935 C 88.6969 -3.91793 4.9667 0
M  V30 936 C 87.3609 -3.96966 5.36633 0
M  V30 937 H 86.6309 -0.685948 0.280278 0
M  V30 938 H 89.2779 -1.38556 1.32192 0
M  V30 939 H 87.5829 -3.87807 0.557969 0
M  V30 940 H 89.2799 -3.89611 0.948893 0
M  V30 941 H 85.8699 -3.58532 2.34846 0
M  V30 942 H 90.0539 -3.68537 3.32406 0
M  V30 943 H 85.3099 -3.88187 4.72357 0
M  V30 944 H 89.4839 -3.99458 5.70444 0
M  V30 945 H 87.1109 -4.08883 6.40874 0
M  V30 946 N 88.686 -0.835752 -1.33615 0
M  V30 947 C 89.616 -0.281739 -2.31794 0
M  V30 948 C 90.597 0.608833 -1.58831 0
M  V30 949 O 91.782 0.533035 -1.86741 0
M  V30 950 C 88.912 0.546612 -3.42971 0
M  V30 951 C 87.866 -0.247904 -4.27281 0
M  V30 952 C 87.192 0.704001 -5.30045 0
M  V30 953 C 88.492 -1.46324 -5.01385 0
M  V30 954 H 90.186 -1.10206 -2.78379 0
M  V30 955 H 87.732 -0.531388 -1.33837 0
M  V30 956 H 89.685 0.944467 -4.1068 0
M  V30 957 H 88.409 1.40011 -2.95067 0
M  V30 958 H 87.068 -0.627281 -3.61194 0
M  V30 959 H 86.716 1.55381 -4.78399 0
M  V30 960 H 86.416 0.176524 -5.87335 0
M  V30 961 H 87.94 1.09944 -6.0062 0
M  V30 962 H 89.354 -1.13871 -5.61877 0
M  V30 963 H 87.751 -1.92728 -5.6831 0
M  V30 964 H 88.821 -2.23467 -4.30338 0
M  V30 965 N 90.1641 1.46063 -0.591896 0
M  V30 966 C 91.5751 1.85944 -0.167822 0
M  V30 967 C 91.9261 1.49429 1.27143 0
M  V30 968 O 91.0511 0.913515 1.96173 0
M  V30 969 C 91.6461 3.37489 -0.297794 0
M  V30 970 C 90.2051 3.76332 0.0714732 0
M  V30 971 C 89.3521 2.7006 -0.629509 0
M  V30 972 H 92.3031 1.37087 -0.799555 0
M  V30 973 H 92.3241 3.77532 0.474349 0
M  V30 974 H 91.8361 3.64034 -1.3454 0
M  V30 975 H 89.9371 3.55405 1.11886 0
M  V30 976 H 90.0501 4.78088 -0.311245 0
M  V30 977 H 88.4141 2.54607 -0.0687867 0
M  V30 978 H 89.1971 2.99444 -1.67894 0
M  V30 979 N 91.6422 0.330177 1.54103 0
M  V30 980 C 92.5722 -0.525353 2.27513 0
M  V30 981 C 93.5532 -1.11383 1.2856 0
M  V30 982 O 94.7382 -1.13773 1.57383 0
M  V30 983 C 91.8682 -1.6831 3.03791 0
M  V30 984 C 90.8222 -1.2236 4.10137 0
M  V30 985 C 90.1482 -2.46882 4.74293 0
M  V30 986 C 91.4482 -0.333697 5.21233 0
M  V30 987 H 93.1422 0.087013 2.99274 0
M  V30 988 H 90.6882 0.0432893 1.43935 0
M  V30 989 H 92.6412 -2.28795 3.5388 0
M  V30 990 H 91.3652 -2.32216 2.29659 0
M  V30 991 H 90.0242 -0.64165 3.60941 0
M  V30 992 H 89.6722 -3.09165 3.96769 0
M  V30 993 H 89.3722 -2.16825 5.46133 0
M  V30 994 H 90.8962 -3.08117 5.27159 0
M  V30 995 H 92.3102 -0.845013 5.67038 0
M  V30 996 H 90.7072 -0.125612 5.99969 0
M  V30 997 H 91.7772 0.633724 4.80741 0
M  V30 998 N 93.1203 -1.57491 0.0584922 0
M  V30 999 C 94.0533 -2.07533 -0.948969 0
M  V30 1000 C 95.0313 -0.977444 -1.29942 0
M  V30 1001 O 96.2153 -1.2499 -1.41102 0
M  V30 1002 C 93.3423 -2.52192 -2.2609 0
M  V30 1003 C 92.3883 -3.73287 -2.06298 0
M  V30 1004 S 93.2213 -5.18603 -1.33459 0
M  V30 1005 C 94.3773 -5.66583 -2.65959 0
M  V30 1006 H 94.6103 -2.92662 -0.523118 0
M  V30 1007 H 92.1433 -1.53631 -0.153954 0
M  V30 1008 H 94.1013 -2.78585 -3.01498 0
M  V30 1009 H 92.7623 -1.67356 -2.65802 0
M  V30 1010 H 91.9553 -4.0248 -3.03357 0
M  V30 1011 H 91.5573 -3.47199 -1.39029 0
M  V30 1012 H 93.8493 -5.72616 -3.62101 0
M  V30 1013 H 94.7923 -6.65684 -2.41393 0
M  V30 1014 H 95.2003 -4.94342 -2.72554 0
M  V30 1015 N 94.5984 0.214957 -1.56127 0
M  V30 1016 C 95.5614 1.24997 -1.92116 0
M  V30 1017 C 96.5614 1.39467 -0.800344 0
M  V30 1018 O 97.7514 1.37619 -1.06802 0
M  V30 1019 C 94.8834 2.62271 -2.17777 0
M  V30 1020 H 96.0764 0.942875 -2.84693 0
M  V30 1021 H 93.6294 0.455654 -1.49511 0
M  V30 1022 H 94.3644 2.98068 -1.27773 0
M  V30 1023 H 94.1494 2.53143 -2.99434 0
M  V30 1024 H 95.6394 3.36946 -2.46693 0
M  V30 1025 N 96.0765 1.50051 0.48192 0
M  V30 1026 C 97.3235 1.60498 1.23477 0
M  V30 1027 C 97.6515 0.300331 1.92167 0
M  V30 1028 O 96.9065 -0.713094 1.82246 0
M  V30 1029 C 97.2055 2.72717 2.30998 0
M  V30 1030 C 96.8715 4.13572 1.79636 0
M  V30 1031 C 95.5335 4.519 1.65348 0
M  V30 1032 C 97.8855 5.01649 1.41412 0
M  V30 1033 C 95.2135 5.76057 1.11244 0
M  V30 1034 C 97.5655 6.26343 0.887538 0
M  V30 1035 C 96.2295 6.63483 0.731207 0
M  V30 1036 H 95.4995 0.587303 0.451836 0
M  V30 1037 H 98.1465 1.83948 0.532468 0
M  V30 1038 H 96.4515 2.43312 3.07094 0
M  V30 1039 H 98.1485 2.78006 2.88988 0
M  V30 1040 H 94.7385 3.83329 1.91721 0
M  V30 1041 H 98.9225 4.72679 1.51289 0
M  V30 1042 H 94.1785 6.03516 0.978686 0
M  V30 1043 H 98.3525 6.93958 0.582654 0
M  V30 1044 H 95.9795 7.59568 0.309806 0
M  V30 1045 N 97.5546 -0.734337 1.39446 0
M  V30 1046 C 98.7946 -1.50655 1.38139 0
M  V30 1047 C 99.1586 -1.91986 -0.0228701 0
M  V30 1048 O 100.36 -2.68318 -0.160947 0
M  V30 1049 C 98.6306 -2.71251 2.32718 0
M  V30 1050 S 100.19 -3.60892 2.49605 0
M  V30 1051 H 97.0076 -0.515315 0.489869 0
M  V30 1052 H 99.6096 -0.860392 1.75549 0
M  V30 1053 H 98.3136 -2.39027 3.33608 0
M  V30 1054 H 97.8446 -3.40795 1.96526 0
M  V30 1055 H 99.8596 -4.64899 1.73446 0
M  V30 1056 N 99.0327 -1.24633 -0.964593 0
M  V30 1057 C 100.281 -1.08573 -1.70459 0
M  V30 1058 C 100.602 0.375655 -1.91347 0
M  V30 1059 O 99.8717 1.26779 -1.49345 0
M  V30 1060 H 98.4517 -0.398784 -0.631649 0
M  V30 1061 H 101.114 -1.56601 -1.16026 0
M  V30 1062 H 100.21 -1.58623 -2.68785 0
M  V30 1063 N 100.511 1.16574 -1.06058 0
M  V30 1064 C 101.927 1.3904 -0.783585 0
M  V30 1065 C 102.127 1.91784 0.618145 0
M  V30 1066 O 101.183 2.11511 1.37911 0
M  V30 1067 C 102.496 2.37329 -1.84649 0
M  V30 1068 C 104.044 2.51018 -1.86973 0
M  V30 1069 C 104.519 3.52588 -2.92311 0
M  V30 1070 N 106.01 3.60113 -2.91329 0
M  V30 1071 C 106.745 4.38486 -3.69482 0
M  V30 1072 N 106.241 5.20302 -4.57447 0
M  V30 1073 N 108.034 4.33446 -3.57885 0
M  V30 1074 H 100.185 0.806725 -1.96483 0
M  V30 1075 H 102.448 0.417117 -0.851303 0
M  V30 1076 H 102.154 2.05663 -2.85299 0
M  V30 1077 H 102.028 3.36946 -1.6955 0
M  V30 1078 H 104.415 2.81989 -0.869827 0
M  V30 1079 H 104.496 1.51445 -2.0615 0
M  V30 1080 H 104.14 3.22354 -3.92492 0
M  V30 1081 H 104.07 4.51886 -2.70383 0
M  V30 1082 H 106.561 3.01707 -2.27555 0
M  V30 1083 H 106.874 5.77311 -5.13743 0
M  V30 1084 H 105.219 5.19653 -4.61503 0
M  V30 1085 H 108.41 3.68586 -2.88551 0
M  V30 1086 H 108.583 4.94279 -4.19037 0
M  V30 1087 N 101.989 0.842826 1.3317 0
M  V30 1088 C 102.939 0.250877 2.26616 0
M  V30 1089 C 103.923 -0.596427 1.49437 0
M  V30 1090 O 105.115 -0.447747 1.71243 0
M  V30 1091 C 102.244 -0.569779 3.38539 0
M  V30 1092 C 101.33 0.289254 4.23112 0
M  V30 1093 N 101.721 1.36987 4.86897 0
M  V30 1094 C 100.019 0.0769631 4.45934 0
M  V30 1095 C 100.72 1.89737 5.49886 0
M  V30 1096 N 99.6959 1.19827 5.30229 0
M  V30 1097 H 103.498 1.07718 2.73448 0
M  V30 1098 H 101.012 0.687693 1.47121 0
M  V30 1099 H 103.009 -1.01018 4.04476 0
M  V30 1100 H 101.669 -1.39401 2.93253 0
M  V30 1101 H 102.68 1.75277 4.87338 0
M  V30 1102 H 99.3569 -0.713507 4.11358 0
M  V30 1103 H 100.747 2.80253 6.10662 0
M  V30 1104 N 103.467 -1.45747 0.599634 0
M  V30 1105 C 104.883 -1.57424 0.26264 0
M  V30 1106 C 105.083 -1.59222 -1.23493 0
M  V30 1107 O 104.139 -1.51825 -2.01756 0
M  V30 1108 C 105.452 -2.86061 0.926795 0
M  V30 1109 C 107 -2.99722 0.901967 0
M  V30 1110 C 107.475 -4.31119 1.54598 0
M  V30 1111 N 108.966 -4.37858 1.5111 0
M  V30 1112 C 109.701 -5.3818 1.97863 0
M  V30 1113 N 109.197 -6.45083 2.52666 0
M  V30 1114 N 110.99 -5.29487 1.88679 0
M  V30 1115 H 103.141 -1.42823 1.57211 0
M  V30 1116 H 105.404 -0.68235 0.658105 0
M  V30 1117 H 105.11 -2.90605 1.98095 0
M  V30 1118 H 104.984 -3.74563 0.445238 0
M  V30 1119 H 107.371 -2.9475 -0.143617 0
M  V30 1120 H 107.452 -2.12652 1.42171 0
M  V30 1121 H 107.096 -4.36849 2.59085 0
M  V30 1122 H 107.026 -5.16992 1.00132 0
M  V30 1123 H 109.517 -3.61209 1.11068 0
M  V30 1124 H 109.83 -7.17869 2.86155 0
M  V30 1125 H 108.175 -6.45856 2.56701 0
M  V30 1126 H 111.366 -4.44877 1.4561 0
M  V30 1127 H 111.539 -6.07524 2.25429 0
M  V30 1128 N 104.945 -0.338344 -1.53925 0
M  V30 1129 C 106.222 0.314774 -1.93051 0
M  V30 1130 C 106.602 1.68669 -1.26941 0
M  V30 1131 O 105.95 2.24636 -0.418445 0
M  V30 1132 C 106.16 0.392249 -3.46789 0
M  V30 1133 C 107.508 0.645554 -4.19664 0
M  V30 1134 O 108.532 0.474575 -3.53024 0
M  V30 1135 O 107.391 0.976408 -5.37707 0
M  V30 1136 H 104.485 0.182598 -0.80659 0
M  V30 1137 H 107.031 -0.389141 -1.65178 0
M  V30 1138 H 105.803 -0.570702 -3.87116 0
M  V30 1139 H 105.426 1.14316 -3.80812 0
M  V30 1140 N 106.423 1.57458 -0.0668435 0
M  V30 1141 C 107.653 1.97337 0.611677 0
M  V30 1142 C 108.061 0.943744 1.63982 0
M  V30 1143 O 107.404 -0.0785584 1.83532 0
M  V30 1144 C 107.466 3.33511 1.34205 0
M  V30 1145 C 107.13 4.54598 0.467941 0
M  V30 1146 C 108.127 5.19186 -0.272439 0
M  V30 1147 C 105.812 5.0075 0.39427 0
M  V30 1148 C 107.806 6.28274 -1.07476 0
M  V30 1149 C 105.493 6.09711 -0.411729 0
M  V30 1150 C 106.491 6.73335 -1.14492 0
M  V30 1151 O 106.179 7.80199 -1.93763 0
M  V30 1152 H 105.911 0.654042 0.170893 0
M  V30 1153 H 108.465 2.04961 -0.134289 0
M  V30 1154 H 106.695 3.22487 2.13398 0
M  V30 1155 H 108.384 3.58029 1.91233 0
M  V30 1156 H 109.15 4.84477 -0.225086 0
M  V30 1157 H 105.029 4.51009 0.954569 0
M  V30 1158 H 108.573 6.77866 -1.64755 0
M  V30 1159 H 104.47 6.43854 -0.460664 0
M  V30 1160 H 105.238 7.97053 -1.86142 0
M  V30 1161 N 107.901 -0.206675 1.56239 0
M  V30 1162 C 108.849 -1.27571 1.94495 0
M  V30 1163 C 109.843 -1.47737 0.828862 0
M  V30 1164 O 111.049 -1.48735 1.0138 0
M  V30 1165 H 107.424 -0.428029 0.6183 0
M  V30 1166 H 109.395 -0.925961 2.8367 0
M  V30 1167 C 108.144 -2.61568 2.29079 0
M  V30 1168 H 107.467 -2.46863 3.14482 0
M  V30 1169 H 108.907 -3.35144 2.5972 0
M  V30 1170 C 107.366 -3.17695 1.12123 0
M  V30 1171 O 107.896 -3.99801 0.390153 0
M  V30 1172 N 106.102 -2.76276 0.901097 0
M  V30 1173 H 105.649 -2.09613 1.49733 0
M  V30 1174 H 105.607 -3.1417 0.120319 0
M  V30 1175 N 109.379 -1.50304 -0.473955 0
M  V30 1176 C 110.604 -1.65175 -1.25427 0
M  V30 1177 C 111.029 -0.333673 -1.85117 0
M  V30 1178 O 110.387 0.702114 -1.67153 0
M  V30 1179 C 110.435 -2.74295 -2.34082 0
M  V30 1180 O 109.539 -2.35349 -3.38651 0
M  V30 1181 H 108.88 -0.551944 -0.369126 0
M  V30 1182 H 111.41 -1.96662 -0.564364 0
M  V30 1183 H 111.42 -2.97285 -2.79438 0
M  V30 1184 H 110.095 -3.69959 -1.90008 0
M  V30 1185 H 108.672 -2.22794 -2.99027 0
M  V30 1186 N 110.857 0.726932 -1.39834 0
M  V30 1187 C 112.268 1.30558 -1.3346 0
M  V30 1188 C 112.619 1.962 -0.00273003 0
M  V30 1189 O 111.744 1.96826 0.899371 0
M  V30 1190 C 112.339 2.37404 -2.41713 0
M  V30 1191 C 110.898 2.90921 -2.38835 0
M  V30 1192 C 110.045 1.64578 -2.2318 0
M  V30 1193 H 112.996 0.523862 -1.49804 0
M  V30 1194 H 113.017 3.17984 -2.08966 0
M  V30 1195 H 112.529 1.89599 -3.38635 0
M  V30 1196 H 110.63 3.42985 -1.45575 0
M  V30 1197 H 110.743 3.43487 -3.33997 0
M  V30 1198 H 109.107 1.89219 -1.70494 0
M  V30 1199 H 109.89 1.18814 -3.22084 0
M  V30 1200 N 112.336 1.25143 0.95797 0
M  V30 1201 C 113.246 1.06968 2.08794 0
M  V30 1202 C 114.262 0.00773911 1.73998 0
M  V30 1203 O 115.438 0.207972 2.00323 0
M  V30 1204 C 112.503 0.68691 3.39827 0
M  V30 1205 C 111.564 1.82641 3.88511 0
M  V30 1206 C 110.797 1.46181 5.1329 0
M  V30 1207 O 111.02 0.355971 5.69288 0
M  V30 1208 O 109.954 2.29085 5.566 0
M  V30 1209 H 113.78 2.01723 2.27027 0
M  V30 1210 H 111.365 1.04051 1.07209 0
M  V30 1211 H 113.247 0.485417 4.18595 0
M  V30 1212 H 111.922 -0.231417 3.22872 0
M  V30 1213 H 110.829 2.08274 3.10762 0
M  V30 1214 H 112.162 2.72386 4.09959 0
M  V30 1215 N 113.814 -1.1601 1.06675 0
M  V30 1216 C 114.724 -2.24156 0.692179 0
M  V30 1217 C 115.74 -1.71507 -0.293513 0
M  V30 1218 O 116.916 -2.009 -0.141861 0
M  V30 1219 C 113.981 -3.46587 0.0884131 0
M  V30 1220 C 113.042 -4.14257 1.12646 0
M  V30 1221 C 112.275 -5.30844 0.551416 0
M  V30 1222 O 112.498 -5.66858 -0.634656 0
M  V30 1223 O 111.432 -5.87848 1.29298 0
M  V30 1224 H 115.258 -2.58513 1.59388 0
M  V30 1225 H 112.843 -1.23599 0.83926 0
M  V30 1226 H 114.725 -4.20679 -0.246361 0
M  V30 1227 H 113.4 -3.13994 -0.786712 0
M  V30 1228 H 112.307 -3.42118 1.51348 0
M  V30 1229 H 113.64 -4.50914 1.97325 0
M  V30 1230 N 115.292 -0.849877 -1.32721 0
M  V30 1231 C 116.517 -0.463856 -2.02146 0
M  V30 1232 C 116.942 0.930449 -1.63476 0
M  V30 1233 O 116.3 1.61033 -0.832952 0
M  V30 1234 C 116.348 -0.604955 -3.55489 0
M  V30 1235 O 115.452 0.36425 -4.10788 0
M  V30 1236 H 114.793 -0.187046 -0.637111 0
M  V30 1237 H 117.323 -1.14775 -1.69375 0
M  V30 1238 H 117.333 -0.490696 -4.05038 0
M  V30 1239 H 116.008 -1.62174 -3.82978 0
M  V30 1240 H 114.585 0.206628 -3.72327 0
M  V30 1241 N 116.77 1.45427 -0.607355 0
M  V30 1242 C 117.702 2.2871 0.149752 0
M  V30 1243 C 118.715 1.39937 0.831958 0
M  V30 1244 O 119.904 1.64313 0.697385 0
M  V30 1245 C 117.004 3.15673 1.23304 0
M  V30 1246 C 116.177 4.32722 0.637996 0
M  V30 1247 C 115.236 5.00895 1.61215 0
M  V30 1248 O 114.262 5.57697 1.13854 0
M  V30 1249 N 115.464 5.00159 2.94655 0
M  V30 1250 H 118.229 2.94328 -0.564882 0
M  V30 1251 H 115.79 1.55612 -0.446823 0
M  V30 1252 H 117.782 3.58144 1.88454 0
M  V30 1253 H 116.352 2.51965 1.8502 0
M  V30 1254 H 115.572 3.93734 -0.191572 0
M  V30 1255 H 116.86 5.08321 0.220665 0
M  V30 1256 H 116.258 4.553 3.35735 0
M  V30 1257 H 114.815 5.46495 3.55228 0
M  V30 1258 N 118.248 0.346503 1.53744 0
M  V30 1259 C 119.664 -0.00530975 1.59599 0
M  V30 1260 C 119.864 -1.48465 1.36236 0
M  V30 1261 O 118.92 -2.24376 1.15808 0
M  V30 1262 C 120.233 0.433516 2.97559 0
M  V30 1263 C 121.781 0.386111 3.10609 0
M  V30 1264 C 122.256 0.800451 4.50951 0
M  V30 1265 N 123.747 0.754753 4.5701 0
M  V30 1266 C 124.482 1.04727 5.63755 0
M  V30 1267 N 123.978 1.4081 6.7834 0
M  V30 1268 N 125.771 0.971316 5.53644 0
M  V30 1269 H 117.922 1.31009 1.67184 0
M  V30 1270 H 120.185 0.534242 0.783128 0
M  V30 1271 H 119.891 1.46509 3.19731 0
M  V30 1272 H 119.765 -0.189753 3.76722 0
M  V30 1273 H 122.152 -0.636295 2.88158 0
M  V30 1274 H 122.233 1.04462 2.33498 0
M  V30 1275 H 121.877 1.82088 4.74137 0
M  V30 1276 H 121.807 0.119386 5.26465 0
M  V30 1277 H 124.298 0.488662 3.74727 0
M  V30 1278 H 124.611 1.61607 7.55714 0
M  V30 1279 H 122.956 1.44657 6.79779 0
M  V30 1280 H 126.147 0.688748 4.63005 0
M  V30 1281 H 126.32 1.20263 6.36742 0
M  V30 1282 N 119.726 -1.57421 0.075193 0
M  V30 1283 C 120.636 -2.1642 -0.905511 0
M  V30 1284 C 121.652 -1.12828 -1.32461 0
M  V30 1285 O 122.828 -1.45109 -1.39661 0
M  V30 1286 C 119.893 -2.71693 -2.15369 0
M  V30 1287 C 118.954 -3.90171 -1.79068 0
M  V30 1288 C 118.187 -4.42798 -2.97936 0
M  V30 1289 O 118.41 -3.94416 -4.12058 0
M  V30 1290 O 117.344 -5.34085 -2.77555 0
M  V30 1291 H 121.17 -3.00588 -0.433626 0
M  V30 1292 H 118.755 -1.48664 -0.148067 0
M  V30 1293 H 120.637 -3.07104 -2.88557 0
M  V30 1294 H 119.312 -1.90582 -2.61649 0
M  V30 1295 H 118.219 -3.59606 -1.03122 0
M  V30 1296 H 119.552 -4.72584 -1.37569 0
M  V30 1297 N 121.204 0.198386 -1.56346 0
M  V30 1298 C 122.134 1.24865 -1.9731 0
M  V30 1299 C 123.115 1.47651 -0.844576 0
M  V30 1300 O 124.3 1.59444 -1.10866 0
M  V30 1301 C 121.43 2.59358 -2.30977 0
M  V30 1302 C 120.384 2.5119 -3.46537 0
M  V30 1303 C 119.71 3.89926 -3.65871 0
M  V30 1304 C 121.01 2.03977 -4.80823 0
M  V30 1305 H 122.704 0.908252 -2.85291 0
M  V30 1306 H 120.25 0.435462 -1.37258 0
M  V30 1307 H 122.203 3.33011 -2.58228 0
M  V30 1308 H 120.927 2.95132 -1.39874 0
M  V30 1309 H 119.586 1.79993 -3.19371 0
M  V30 1310 H 119.234 4.23046 -2.72105 0
M  V30 1311 H 118.934 3.85336 -4.4361 0
M  V30 1312 H 120.458 4.65205 -3.95495 0
M  V30 1313 H 121.872 2.67386 -5.07127 0
M  V30 1314 H 120.269 2.10397 -5.62008 0
M  V30 1315 H 121.339 0.992861 -4.74626 0
M  V30 1316 N 122.682 1.50554 0.465978 0
M  V30 1317 C 123.612 1.72722 1.57128 0
M  V30 1318 C 124.593 0.576294 1.6004 0
M  V30 1319 O 125.778 0.81598 1.76225 0
M  V30 1320 C 122.908 1.82605 2.95419 0
M  V30 1321 C 121.862 2.97835 3.07373 0
M  V30 1322 C 121.188 2.92867 4.47363 0
M  V30 1323 C 122.488 4.38265 2.84114 0
M  V30 1324 H 124.182 2.65267 1.38829 0
M  V30 1325 H 121.728 1.2765 0.666441 0
M  V30 1326 H 123.681 1.96698 3.72677 0
M  V30 1327 H 122.405 0.866858 3.14886 0
M  V30 1328 H 121.064 2.83401 2.3255 0
M  V30 1329 H 120.712 1.94783 4.63755 0
M  V30 1330 H 120.412 3.70227 4.56296 0
M  V30 1331 H 121.936 3.09015 5.26633 0
M  V30 1332 H 123.35 4.53198 3.51118 0
M  V30 1333 H 121.747 5.17115 3.04487 0
M  V30 1334 H 122.817 4.50281 1.7993 0
M  V30 1335 N 124.16 -0.719506 1.40217 0
M  V30 1336 C 125.407 -1.47933 1.38283 0
M  V30 1337 C 125.735 -1.94493 -0.0161536 0
M  V30 1338 O 124.99 -1.68224 -0.999956 0
M  V30 1339 C 125.289 -2.72271 2.31524 0
M  V30 1340 C 124.955 -2.44496 3.78857 0
M  V30 1341 C 123.617 -2.36631 4.18998 0
M  V30 1342 C 125.969 -2.21104 4.71977 0
M  V30 1343 C 123.297 -2.03437 5.503 0
M  V30 1344 C 125.649 -1.89423 6.03574 0
M  V30 1345 C 124.313 -1.80038 6.42762 0
M  V30 1346 H 123.583 -0.541325 0.506012 0
M  V30 1347 H 126.23 -0.824502 1.72842 0
M  V30 1348 H 124.535 -3.42572 1.90137 0
M  V30 1349 H 126.232 -3.30348 2.27313 0
M  V30 1350 H 122.822 -2.51503 3.47051 0
M  V30 1351 H 127.006 -2.26139 4.41786 0
M  V30 1352 H 122.262 -1.94705 5.79569 0
M  V30 1353 H 126.436 -1.70336 6.75247 0
M  V30 1354 H 124.063 -1.54083 7.44421 0
M  V30 1355 N 125.638 -1.25649 -0.95132 0
M  V30 1356 C 126.588 -1.03004 -2.03406 0
M  V30 1357 C 127.572 0.034187 -1.60864 0
M  V30 1358 O 128.764 -0.181549 -1.76066 0
M  V30 1359 C 125.893 -0.654255 -3.37008 0
M  V30 1360 C 124.979 -1.75542 -3.86065 0
M  V30 1361 N 125.37 -2.99113 -4.07879 0
M  V30 1362 C 123.668 -1.63669 -4.14884 0
M  V30 1363 C 124.369 -3.70611 -4.48356 0
M  V30 1364 N 123.345 -2.98247 -4.54477 0
M  V30 1365 H 127.147 -1.96813 -2.1827 0
M  V30 1366 H 124.661 -1.16017 -1.13639 0
M  V30 1367 H 126.658 -0.473206 -4.14206 0
M  V30 1368 H 125.318 0.276468 -3.23521 0
M  V30 1369 H 126.329 -3.35124 -3.94857 0
M  V30 1370 H 123.006 -0.775161 -4.10241 0
M  V30 1371 H 124.396 -4.76695 -4.73509 0
M  V30 1372 N 127.117 1.15442 -1.07289 0
M  V30 1373 C 128.027 2.23786 -0.704057 0
M  V30 1374 C 129.043 1.7166 0.284413 0
M  V30 1375 O 130.219 2.00972 0.131205 0
M  V30 1376 C 127.284 3.46535 -0.106792 0
M  V30 1377 C 126.345 4.13654 -1.14842 0
M  V30 1378 C 125.578 5.30544 -0.57956 0
M  V30 1379 O 125.801 5.67187 0.604585 0
M  V30 1380 O 124.735 5.87154 -1.32414 0
M  V30 1381 H 128.561 2.57664 -1.60757 0
M  V30 1382 H 126.146 1.23152 -0.845803 0
M  V30 1383 H 128.028 4.20804 0.224048 0
M  V30 1384 H 126.703 3.14407 0.770049 0
M  V30 1385 H 125.61 3.4131 -1.5316 0
M  V30 1386 H 126.943 4.49861 -1.99714 0
M  V30 1387 N 128.595 0.856903 1.32268 0
M  V30 1388 C 130.011 0.547061 1.49931 0
M  V30 1389 C 130.211 -0.921781 1.7918 0
M  V30 1390 O 129.267 -1.70469 1.8627 0
M  V30 1391 C 130.58 1.43599 2.64196 0
M  V30 1392 C 132.128 1.43665 2.78081 0
M  V30 1393 C 132.603 2.31085 3.95428 0
M  V30 1394 N 134.094 2.28893 4.02694 0
M  V30 1395 C 134.829 2.93262 4.92732 0
M  V30 1396 N 134.325 3.66751 5.87763 0
M  V30 1397 N 136.118 2.82638 4.85873 0
M  V30 1398 H 128.269 1.8075 1.11549 0
M  V30 1399 H 130.532 0.772144 0.549997 0
M  V30 1400 H 130.238 2.48058 2.49319 0
M  V30 1401 H 130.112 1.12502 3.60032 0
M  V30 1402 H 132.499 0.399701 2.92381 0
M  V30 1403 H 132.58 1.7878 1.82952 0
M  V30 1404 H 132.224 3.34849 3.81888 0
M  V30 1405 H 132.154 1.93302 4.89839 0
M  V30 1406 H 134.645 1.75466 3.34694 0
M  V30 1407 H 134.958 4.13027 6.53168 0
M  V30 1408 H 133.303 3.70859 5.87783 0
M  V30 1409 H 136.494 2.24774 4.10602 0
M  V30 1410 H 136.667 3.33084 5.55841 0
M  V30 1411 N 130.073 -1.45103 0.615059 0
M  V30 1412 C 131.003 -2.33339 -0.0865619 0
M  V30 1413 C 131.984 -1.4727 -0.851209 0
M  V30 1414 O 133.169 -1.76026 -0.820281 0
M  V30 1415 C 130.299 -3.30095 -1.07956 0
M  V30 1416 C 129.253 -4.25858 -0.427628 0
M  V30 1417 C 128.579 -5.12361 -1.5294 0
M  V30 1418 C 129.879 -5.18165 0.655944 0
M  V30 1419 H 131.573 -2.92254 0.650224 0
M  V30 1420 H 129.119 -1.40532 0.314138 0
M  V30 1421 H 131.072 -3.90698 -1.57901 0
M  V30 1422 H 129.796 -2.69355 -1.84703 0
M  V30 1423 H 128.455 -3.66564 0.0510292 0
M  V30 1424 H 128.103 -4.47984 -2.28734 0
M  V30 1425 H 127.803 -5.77238 -1.09865 0
M  V30 1426 H 129.327 -5.75833 -2.03098 0
M  V30 1427 H 130.741 -5.72796 0.240257 0
M  V30 1428 H 129.138 -5.91559 1.00888 0
M  V30 1429 H 130.208 -4.60144 1.52957 0
M  V30 1430 N 131.551 -0.354651 -1.53558 0
M  V30 1431 C 132.498 0.496968 -2.25386 0
M  V30 1432 C 133.468 1.0865 -1.25636 0
M  V30 1433 O 134.653 1.12104 -1.54394 0
M  V30 1434 C 131.793 1.63637 -3.03837 0
M  V30 1435 C 130.906 1.07307 -4.18461 0
M  V30 1436 C 130.041 2.18068 -4.84376 0
M  V30 1437 C 129.08 1.59147 -5.91049 0
M  V30 1438 N 128.217 2.63695 -6.50699 0
M  V30 1439 H 133.057 -0.122075 -2.9775 0
M  V30 1440 H 130.594 -0.0720154 -1.46924 0
M  V30 1441 H 132.552 2.30734 -3.47589 0
M  V30 1442 H 131.182 2.22623 -2.33749 0
M  V30 1443 H 130.234 0.292708 -3.79272 0
M  V30 1444 H 131.546 0.602193 -4.95152 0
M  V30 1445 H 130.7 2.93007 -5.31255 0
M  V30 1446 H 129.439 2.68504 -4.07133 0
M  V30 1447 H 128.444 0.827175 -5.43542 0
M  V30 1448 H 129.669 1.09549 -6.70206 0
M  V30 1449 H 127.615 3.13365 -5.76315 0
M  V30 1450 H 127.532 2.21263 -7.22896 0
M  V30 1451 H 128.8 3.3837 -7.02229 0
M  V30 1452 N 133.029 1.57378 -0.0835403 0
M  V30 1453 C 134.254 1.98682 0.594987 0
M  V30 1454 C 134.679 0.961969 1.61641 0
M  V30 1455 O 134.037 -0.0709989 1.81161 0
M  V30 1456 C 134.085 3.38988 1.2296 0
M  V30 1457 O 133.189 3.39208 2.34546 0
M  V30 1458 H 132.53 0.646368 0.152002 0
M  V30 1459 H 135.06 2.03961 -0.161533 0
M  V30 1460 H 135.07 3.76431 1.57366 0
M  V30 1461 H 133.745 4.13107 0.481228 0
M  V30 1462 H 132.322 3.13548 2.01846 0
M  V30 1463 N 134.507 -0.190092 1.56449 0
M  V30 1464 C 135.47 -1.21925 1.9408 0
M  V30 1465 C 136.47 -1.38176 0.822431 0
M  V30 1466 O 137.66 -1.35903 1.08977 0
M  V30 1467 C 134.792 -2.58773 2.21922 0
M  V30 1468 H 135.985 -0.897464 2.86157 0
M  V30 1469 H 133.538 -0.43181 1.50217 0
M  V30 1470 H 134.273 -2.95998 1.32499 0
M  V30 1471 H 134.058 -2.48348 3.03424 0
M  V30 1472 H 135.548 -3.32978 2.52022 0
M  V30 1473 N 135.985 -1.50799 -0.457987 0
M  V30 1474 C 136.915 -1.73553 -1.5621 0
M  V30 1475 C 137.896 -0.584774 -1.59732 0
M  V30 1476 O 139.081 -0.825314 -1.7579 0
M  V30 1477 C 136.211 -1.84169 -2.94447 0
M  V30 1478 C 135.165 -2.99461 -3.0579 0
M  V30 1479 C 134.491 -2.95235 -4.45803 0
M  V30 1480 C 135.791 -4.39766 -2.81786 0
M  V30 1481 H 137.485 -2.66 -1.37421 0
M  V30 1482 H 135.031 -1.28002 -0.659662 0
M  V30 1483 H 136.984 -1.98672 -3.71628 0
M  V30 1484 H 135.708 -0.883545 -3.14422 0
M  V30 1485 H 134.367 -2.8463 -2.31044 0
M  V30 1486 H 134.015 -1.97239 -4.62715 0
M  V30 1487 H 133.715 -3.72642 -4.54326 0
M  V30 1488 H 135.239 -3.11803 -5.24987 0
M  V30 1489 H 136.653 -4.55054 -3.4871 0
M  V30 1490 H 135.05 -5.18722 -3.0174 0
M  V30 1491 H 136.12 -4.51229 -1.7754 0
M  V30 1492 N 137.463 0.71206 -1.40597 0
M  V30 1493 C 138.74 1.46536 -1.29563 0
M  V30 1494 C 139.12 2.10931 0.0844217 0
M  V30 1495 O 138.468 2.00418 1.0975 0
M  V30 1496 C 138.678 2.49821 -2.43701 0
M  V30 1497 C 140.026 3.15551 -2.841 0
M  V30 1498 O 141.05 2.60142 -2.4332 0
M  V30 1499 O 139.909 4.15867 -3.54566 0
M  V30 1500 H 137.003 0.651801 -0.509004 0
M  V30 1501 H 139.549 0.743935 -1.52524 0
M  V30 1502 H 138.321 2.00778 -3.35863 0
M  V30 1503 H 137.944 3.29495 -2.22528 0
M  V30 1504 N 138.941 1.26152 0.944643 0
M  V30 1505 C 139.851 1.09176 2.07648 0
M  V30 1506 C 140.867 0.0261935 1.7398 0
M  V30 1507 O 142.043 0.229208 2.00091 0
M  V30 1508 C 139.108 0.722915 3.39079 0
M  V30 1509 C 138.169 1.86752 3.86552 0
M  V30 1510 C 137.402 1.51617 5.11711 0
M  V30 1511 O 137.625 0.416331 5.68879 0
M  V30 1512 O 136.559 2.34975 5.54139 0
M  V30 1513 H 140.385 2.0412 2.24875 0
M  V30 1514 H 137.97 1.05182 1.061 0
M  V30 1515 H 139.852 0.529787 4.18056 0
M  V30 1516 H 138.527 -0.197159 3.23099 0
M  V30 1517 H 137.434 2.11558 3.08535 0
M  V30 1518 H 138.767 2.76719 4.07047 0
M  V30 1519 N 140.419 -1.14872 1.07899 0
M  V30 1520 C 141.349 -2.2193 0.725887 0
M  V30 1521 C 142.33 -1.67622 -0.28927 0
M  V30 1522 O 143.515 -1.93533 -0.160787 0
M  V30 1523 C 140.645 -3.47061 0.128856 0
M  V30 1524 C 139.599 -4.14363 1.07178 0
M  V30 1525 C 138.925 -5.33636 0.337229 0
M  V30 1526 C 140.225 -4.63492 2.40775 0
M  V30 1527 H 141.919 -2.51724 1.62097 0
M  V30 1528 H 139.465 -1.20991 0.780838 0
M  V30 1529 H 141.418 -4.21199 -0.130147 0
M  V30 1530 H 140.142 -3.16617 -0.80134 0
M  V30 1531 H 138.801 -3.42173 1.3158 0
M  V30 1532 H 138.449 -4.99449 -0.596606 0
M  V30 1533 H 138.149 -5.79609 0.965788 0
M  V30 1534 H 139.673 -6.10539 0.0861567 0
M  V30 1535 H 141.087 -5.2913 2.20669 0
M  V30 1536 H 139.484 -5.20148 2.99276 0
M  V30 1537 H 140.554 -3.78834 3.02676 0
M  V30 1538 N 141.898 -0.863906 -1.31812 0
M  V30 1539 C 143.126 -0.486111 -2.01108 0
M  V30 1540 C 143.541 0.919755 -1.64882 0
M  V30 1541 O 142.898 1.60162 -0.874893 0
M  V30 1542 C 142.949 -0.626435 -3.56031 0
M  V30 1543 O 142.67 -1.97693 -3.90959 0
M  V30 1544 C 144.171 -0.248857 -4.42601 0
M  V30 1545 H 141.391 -0.190052 -0.643523 0
M  V30 1546 H 143.935 -1.1634 -1.68182 0
M  V30 1547 H 142.09 0.00322717 -3.874 0
M  V30 1548 H 142.504 -1.98034 -4.85678 0
M  V30 1549 H 143.978 -0.398016 -5.50563 0
M  V30 1550 H 144.455 0.811489 -4.31638 0
M  V30 1551 H 145.061 -0.853971 -4.16638 0
M  V30 1552 N 143.376 1.44774 -0.622745 0
M  V30 1553 C 144.623 2.02121 -0.1239 0
M  V30 1554 C 144.951 1.48915 1.25118 0
M  V30 1555 O 144.206 0.660045 1.84233 0
M  V30 1556 C 144.505 3.57364 -0.0508323 0
M  V30 1557 C 144.171 4.29787 -1.36358 0
M  V30 1558 C 142.833 4.4929 -1.72314 0
M  V30 1559 C 145.185 4.71062 -2.23048 0
M  V30 1560 C 142.513 5.07325 -2.94682 0
M  V30 1561 C 144.865 5.30452 -3.44679 0
M  V30 1562 C 143.529 5.48175 -3.80868 0
M  V30 1563 H 142.799 0.739612 -0.0453381 0
M  V30 1564 H 145.446 1.73648 -0.807389 0
M  V30 1565 H 143.751 3.85202 0.715991 0
M  V30 1566 H 145.448 3.99456 0.351533 0
M  V30 1567 H 142.038 4.14932 -1.07375 0
M  V30 1568 H 146.222 4.55715 -1.96565 0
M  V30 1569 H 141.478 5.19235 -3.22809 0
M  V30 1570 H 145.652 5.61385 -4.12092 0
M  V30 1571 H 143.279 5.92912 -4.75773 0
M  V30 1572 N 144.854 0.36279 1.53368 0
M  V30 1573 C 146.27 0.0116182 1.59596 0
M  V30 1574 C 146.47 -1.47012 1.37803 0
M  V30 1575 O 145.526 -2.23136 1.18181 0
M  V30 1576 C 146.839 0.465052 2.97082 0
M  V30 1577 C 148.387 0.419033 3.10182 0
M  V30 1578 C 148.862 0.848235 4.50077 0
M  V30 1579 N 150.353 0.803183 4.56183 0
M  V30 1580 C 151.088 1.107 5.62613 0
M  V30 1581 N 150.584 1.47996 6.76808 0
M  V30 1582 N 152.377 1.02998 5.52583 0
M  V30 1583 H 144.528 1.32775 1.65785 0
M  V30 1584 H 146.791 0.542518 0.777417 0
M  V30 1585 H 146.497 1.49892 3.18159 0
M  V30 1586 H 146.371 -0.149786 3.76902 0
M  V30 1587 H 148.758 -0.605696 2.88817 0
M  V30 1588 H 148.839 1.06933 2.32377 0
M  V30 1589 H 148.483 1.87107 4.7218 0
M  V30 1590 H 148.413 0.175218 5.26308 0
M  V30 1591 H 150.904 0.52838 3.74188 0
M  V30 1592 H 151.217 1.69613 7.53957 0
M  V30 1593 H 149.562 1.51859 6.78206 0
M  V30 1594 H 152.753 0.737817 4.62249 0
M  V30 1595 H 152.926 1.2701 6.35431 0
M  V30 1596 N 146.332 -1.57332 0.0918853 0
M  V30 1597 C 147.743 -1.81496 -0.437739 0
M  V30 1598 C 148.094 -1.00727 -1.6837 0
M  V30 1599 O 147.219 -0.235694 -2.15113 0
M  V30 1600 C 147.814 -3.29197 -0.800939 0
M  V30 1601 C 146.373 -3.54136 -1.27532 0
M  V30 1602 C 145.52 -2.75979 -0.270392 0
M  V30 1603 H 148.471 -1.55494 0.317366 0
M  V30 1604 H 148.492 -3.42344 -1.66074 0
M  V30 1605 H 148.004 -3.87955 0.106078 0
M  V30 1606 H 146.105 -3.00705 -2.20016 0
M  V30 1607 H 146.218 -4.62792 -1.23938 0
M  V30 1608 H 144.582 -2.43349 -0.751872 0
M  V30 1609 H 145.365 -3.37484 0.629248 0
M  V30 1610 N 147.81 0.181792 -1.56548 0
M  V30 1611 C 149.05 0.906711 -1.83189 0
M  V30 1612 C 149.414 1.79882 -0.671312 0
M  V30 1613 O 150.615 2.56054 -0.81792 0
M  V30 1614 C 148.886 1.69023 -3.14906 0
M  V30 1615 S 150.445 2.46535 -3.62996 0
M  V30 1616 H 147.263 0.303877 -0.642791 0
M  V30 1617 H 149.865 0.169107 -1.94767 0
M  V30 1618 H 148.569 1.02571 -3.97376 0
M  V30 1619 H 148.1 2.46941 -3.06241 0
M  V30 1620 H 150.115 3.71014 -3.29489 0
M  V30 1621 N 149.288 1.51039 0.449983 0
M  V30 1622 C 150.513 1.6715 1.22783 0
M  V30 1623 C 150.938 0.363081 1.84563 0
M  V30 1624 O 150.296 -0.675433 1.68249 0
M  V30 1625 C 150.344 2.77985 2.29689 0
M  V30 1626 O 149.448 2.40707 3.34864 0
M  V30 1627 H 148.789 0.557746 0.360299 0
M  V30 1628 H 151.319 1.97535 0.533005 0
M  V30 1629 H 151.329 3.01693 2.74673 0
M  V30 1630 H 150.004 3.72935 1.84098 0
M  V30 1631 H 148.581 2.27523 2.95445 0
M  V30 1632 N 150.766 -0.704594 1.40972 0
M  V30 1633 C 151.676 -1.84856 1.44448 0
M  V30 1634 C 152.692 -1.70726 0.335961 0
M  V30 1635 O 153.868 -1.92799 0.582276 0
M  V30 1636 C 150.933 -3.20758 1.31587 0
M  V30 1637 C 149.994 -3.47063 2.52677 0
M  V30 1638 C 149.227 -4.76481 2.4042 0
M  V30 1639 O 149.45 -5.52341 1.42391 0
M  V30 1640 O 148.384 -5.03367 3.30007 0
M  V30 1641 H 152.21 -1.8488 2.40942 0
M  V30 1642 H 149.795 -0.85647 1.22413 0
M  V30 1643 H 151.677 -4.01913 1.26665 0
M  V30 1644 H 150.352 -3.21438 0.382049 0
M  V30 1645 H 149.259 -2.65873 2.63177 0
M  V30 1646 H 150.592 -3.5119 3.44858 0
M  V30 1647 N 152.244 -1.26651 -0.937939 0
M  V30 1648 C 153.154 -1.10276 -2.07066 0
M  V30 1649 C 154.17 -0.0354197 -1.73964 0
M  V30 1650 O 155.346 -0.239816 -1.99967 0
M  V30 1651 C 152.411 -0.740887 -3.38691 0
M  V30 1652 C 151.472 -1.88799 -3.85556 0
M  V30 1653 C 150.705 -1.54329 -5.10899 0
M  V30 1654 O 150.928 -0.446494 -5.6865 0
M  V30 1655 O 149.862 -2.37911 -5.52885 0
M  V30 1656 H 153.688 -2.05309 -2.23789 0
M  V30 1657 H 151.273 -1.05743 -1.0554 0
M  V30 1658 H 153.155 -0.55195 -4.1777 0
M  V30 1659 H 151.83 0.180022 -3.23199 0
M  V30 1660 H 150.737 -2.13191 -3.07409 0
M  V30 1661 H 152.07 -2.78874 -4.05574 0
M  V30 1662 N 153.722 1.14298 -1.08507 0
M  V30 1663 C 154.654 2.1907 -0.673859 0
M  V30 1664 C 155.667 1.60381 0.279577 0
M  V30 1665 O 156.856 1.78374 0.0670754 0
M  V30 1666 C 153.956 3.38888 0.0290979 0
M  V30 1667 C 153.129 4.27103 -0.943494 0
M  V30 1668 C 152.188 5.25477 -0.275676 0
M  V30 1669 O 151.214 5.61709 -0.920401 0
M  V30 1670 N 152.416 5.7227 0.974013 0
M  V30 1671 H 155.181 2.54965 -1.57521 0
M  V30 1672 H 152.742 1.29528 -0.971287 0
M  V30 1673 H 154.734 4.01761 0.48683 0
M  V30 1674 H 153.304 3.01309 0.832555 0
M  V30 1675 H 152.524 3.61149 -1.58004 0
M  V30 1676 H 153.812 4.82905 -1.60251 0
M  V30 1677 H 153.21 5.44965 1.51755 0
M  V30 1678 H 151.767 6.37127 1.37522 0
M  V30 1679 N 155.201 0.870884 1.31352 0
M  V30 1680 C 156.617 0.562932 1.49343 0
M  V30 1681 C 156.817 -0.902725 1.80148 0
M  V30 1682 O 155.873 -1.68484 1.88067 0
M  V30 1683 C 157.186 1.46393 2.62659 0
M  V30 1684 C 158.734 1.46607 2.76542 0
M  V30 1685 C 159.209 2.35266 3.92955 0
M  V30 1686 N 160.7 2.33151 4.00243 0
M  V30 1687 C 161.435 2.98471 4.89594 0
M  V30 1688 N 160.931 3.72964 5.8384 0
M  V30 1689 N 162.724 2.87775 4.82848 0
M  V30 1690 H 154.875 1.81923 1.09626 0
M  V30 1691 H 157.138 0.777934 0.541777 0
M  V30 1692 H 156.844 2.50689 2.46674 0
M  V30 1693 H 156.718 1.16314 3.58819 0
M  V30 1694 H 159.105 0.43069 2.9194 0
M  V30 1695 H 159.186 1.8071 1.81046 0
M  V30 1696 H 158.83 3.38881 3.78315 0
M  V30 1697 H 158.76 1.98487 4.87761 0
M  V30 1698 H 161.251 1.79006 3.32814 0
M  V30 1699 H 161.564 4.19932 6.4875 0
M  V30 1700 H 159.909 3.77073 5.83816 0
M  V30 1701 H 163.1 2.29116 4.08195 0
M  V30 1702 H 163.273 3.38961 5.52277 0
M  V30 1703 N 156.679 -1.44442 0.630414 0
M  V30 1704 C 157.642 -2.29107 -0.0652523 0
M  V30 1705 C 158.642 -1.41002 -0.772995 0
M  V30 1706 O 159.832 -1.62881 -0.617692 0
M  V30 1707 C 156.964 -3.22564 -1.10296 0
M  V30 1708 H 158.157 -2.92103 0.679401 0
M  V30 1709 H 155.71 -1.51343 0.390517 0
M  V30 1710 H 156.445 -2.64416 -1.87762 0
M  V30 1711 H 156.23 -3.87491 -0.59941 0
M  V30 1712 H 157.72 -3.86167 -1.5895 0
M  V30 1713 N 158.157 -0.370918 -1.53173 0
M  V30 1714 C 159.382 0.220293 -2.06227 0
M  V30 1715 C 159.807 1.41243 -1.24225 0
M  V30 1716 O 159.165 1.79387 -0.262645 0
M  V30 1717 C 159.213 0.586663 -3.55796 0
M  V30 1718 O 158.317 1.68317 -3.76488 0
M  V30 1719 H 157.658 0.0308099 -0.663285 0
M  V30 1720 H 160.188 -0.533068 -1.97534 0
M  V30 1721 H 160.198 0.85617 -3.98916 0
M  V30 1722 H 158.873 -0.285013 -4.14922 0
M  V30 1723 H 157.45 1.40881 -3.45264 0
M  V30 1724 N 159.635 1.57281 -0.100228 0
M  V30 1725 C 160.865 1.98591 0.569681 0
M  V30 1726 C 161.273 0.978315 1.61943 0
M  V30 1727 O 160.616 -0.0396108 1.83657 0
M  V30 1728 C 160.678 3.36282 1.271 0
M  V30 1729 C 160.342 4.55488 0.371409 0
M  V30 1730 C 161.339 5.18491 -0.382504 0
M  V30 1731 C 159.024 5.01474 0.287965 0
M  V30 1732 C 161.018 6.25852 -1.20779 0
M  V30 1733 C 158.705 6.08701 -0.540965 0
M  V30 1734 C 159.703 6.70755 -1.28749 0
M  V30 1735 O 159.391 7.75914 -2.10269 0
M  V30 1736 H 159.123 0.65752 0.156982 0
M  V30 1737 H 161.677 2.0463 -0.177734 0
M  V30 1738 H 159.907 3.26941 2.0651 0
M  V30 1739 H 161.596 3.62005 1.83595 0
M  V30 1740 H 162.362 4.83891 -0.3278 0
M  V30 1741 H 158.241 4.52932 0.858689 0
M  V30 1742 H 161.785 6.74218 -1.79096 0
M  V30 1743 H 157.682 6.42732 -0.597131 0
M  V30 1744 H 158.45 7.92925 -2.03007 0
M  V30 1745 N 161.113 -0.173488 1.56642 0
M  V30 1746 C 162.045 -1.23935 1.92802 0
M  V30 1747 C 163.058 -1.40589 0.820889 0
M  V30 1748 O 164.247 -1.40631 1.09933 0
M  V30 1749 C 161.347 -2.60837 2.16373 0
M  V30 1750 C 160.52 -2.6551 3.47596 0
M  V30 1751 C 159.579 -3.8376 3.60021 0
M  V30 1752 O 158.605 -3.69859 4.32658 0
M  V30 1753 N 159.807 -5.00127 2.94709 0
M  V30 1754 H 162.572 -0.932236 2.84832 0
M  V30 1755 H 160.133 -0.363268 1.57772 0
M  V30 1756 H 162.125 -3.38407 2.21952 0
M  V30 1757 H 160.695 -2.83948 1.30738 0
M  V30 1758 H 159.915 -1.74052 3.53694 0
M  V30 1759 H 161.203 -2.65641 4.33949 0
M  V30 1760 H 160.601 -5.14322 2.35563 0
M  V30 1761 H 159.158 -5.75567 3.05886 0
M  V30 1762 N 162.591 -1.51276 -0.441967 0
M  V30 1763 C 163.538 -1.72256 -1.53612 0
M  V30 1764 C 164.508 -0.564164 -1.56225 0
M  V30 1765 O 165.693 -0.798074 -1.73307 0
M  V30 1766 C 162.833 -1.84932 -2.91366 0
M  V30 1767 C 161.946 -3.12459 -2.98317 0
M  V30 1768 C 161.081 -3.15758 -4.27166 0
M  V30 1769 C 160.12 -4.37619 -4.27967 0
M  V30 1770 N 159.257 -4.38493 -5.48333 0
M  V30 1771 H 164.097 -2.65654 -1.35026 0
M  V30 1772 H 161.634 -1.31662 -0.656009 0
M  V30 1773 H 163.592 -1.90263 -3.7129 0
M  V30 1774 H 162.222 -0.949461 -3.08521 0
M  V30 1775 H 161.274 -3.1646 -2.11086 0
M  V30 1776 H 162.586 -4.02382 -2.94771 0
M  V30 1777 H 161.74 -3.19979 -5.15459 0
M  V30 1778 H 160.479 -2.23715 -4.33362 0
M  V30 1779 H 159.484 -4.33579 -3.38067 0
M  V30 1780 H 160.709 -5.30921 -4.23438 0
M  V30 1781 H 158.655 -3.49318 -5.55259 0
M  V30 1782 H 158.572 -5.22219 -5.46647 0
M  V30 1783 H 159.84 -4.469 -6.38671 0
M  V30 1784 N 164.069 0.697108 -1.41344 0
M  V30 1785 C 164.999 1.82353 -1.45841 0
M  V30 1786 C 165.98 1.67115 -0.317247 0
M  V30 1787 O 167.165 1.86871 -0.528474 0
M  V30 1788 C 164.295 3.20476 -1.33838 0
M  V30 1789 C 163.249 3.50415 -2.4575 0
M  V30 1790 C 162.575 4.87878 -2.18813 0
M  V30 1791 C 163.875 3.49546 -3.88091 0
M  V30 1792 H 165.569 1.78846 -2.40113 0
M  V30 1793 H 163.115 0.859028 -1.15571 0
M  V30 1794 H 165.068 3.98988 -1.35596 0
M  V30 1795 H 163.792 3.24604 -0.360498 0
M  V30 1796 H 162.451 2.74253 -2.43271 0
M  V30 1797 H 162.099 4.8863 -1.19371 0
M  V30 1798 H 161.799 5.08875 -2.93803 0
M  V30 1799 H 163.323 5.68702 -2.22284 0
M  V30 1800 H 164.737 4.18066 -3.92293 0
M  V30 1801 H 163.134 3.82075 -4.62751 0
M  V30 1802 H 164.204 2.48552 -4.16353 0
M  V30 1803 N 165.547 1.27147 0.931209 0
M  V30 1804 C 166.824 1.0401 1.65654 0
M  V30 1805 C 167.204 -0.426297 2.06751 0
M  V30 1806 O 166.552 -1.40879 1.79904 0
M  V30 1807 C 166.762 1.99834 2.86125 0
M  V30 1808 C 168.11 2.29007 3.57549 0
M  V30 1809 O 169.134 1.97779 2.96246 0
M  V30 1810 O 167.993 2.82222 4.67989 0
M  V30 1811 H 165.087 0.396239 0.725895 0
M  V30 1812 H 167.633 1.38397 0.982056 0
M  V30 1813 H 166.405 2.98744 2.52721 0
M  V30 1814 H 166.028 1.65987 3.61295 0
M  V30 1815 N 167.025 -1.13721 1.09112 0
M  V30 1816 C 167.988 -2.17222 0.731241 0
M  V30 1817 C 168.988 -1.59035 -0.237566 0
M  V30 1818 O 170.178 -1.74192 -0.0161704 0
M  V30 1819 C 167.31 -3.40804 0.0808443 0
M  V30 1820 H 168.503 -2.50573 1.64783 0
M  V30 1821 H 166.056 -1.28493 0.889897 0
M  V30 1822 H 166.791 -3.1304 -0.847127 0
M  V30 1823 H 166.576 -3.84306 0.777896 0
M  V30 1824 H 168.066 -4.1731 -0.155657 0
M  V30 1825 N 168.503 -0.877838 -1.30888 0
M  V30 1826 C 169.433 -0.35534 -2.3078 0
M  V30 1827 C 170.414 0.557994 -1.60687 0
M  V30 1828 O 171.599 0.473355 -1.88343 0
M  V30 1829 C 168.729 0.437221 -3.44537 0
M  V30 1830 C 167.683 -0.383715 -4.26276 0
M  V30 1831 C 167.009 0.535014 -5.32017 0
M  V30 1832 C 168.309 -1.62201 -4.96476 0
M  V30 1833 H 170.003 -1.19007 -2.74732 0
M  V30 1834 H 167.549 -0.573698 -1.32078 0
M  V30 1835 H 169.502 0.813334 -4.13477 0
M  V30 1836 H 168.226 1.30553 -2.99372 0
M  V30 1837 H 166.885 -0.741874 -3.59015 0
M  V30 1838 H 166.533 1.40083 -4.831 0
M  V30 1839 H 166.233 -0.0104211 -5.87599 0
M  V30 1840 H 167.757 0.907799 -6.03814 0
M  V30 1841 H 169.171 -1.31689 -5.5797 0
M  V30 1842 H 167.568 -2.10711 -5.61891 0
M  V30 1843 H 168.638 -2.37044 -4.23011 0
M  V30 1844 N 169.982 1.44106 -0.638065 0
M  V30 1845 C 171.21 2.06336 -0.152615 0
M  V30 1846 C 171.625 1.47731 1.17563 0
M  V30 1847 O 170.982 0.602806 1.72257 0
M  V30 1848 C 171.033 3.61479 -0.0391491 0
M  V30 1849 O 170.754 4.17903 -1.31487 0
M  V30 1850 C 172.255 4.40757 0.474176 0
M  V30 1851 H 169.475 0.665862 -0.0828776 0
M  V30 1852 H 172.019 1.84862 -0.87443 0
M  V30 1853 H 170.174 3.82191 0.633142 0
M  V30 1854 H 170.588 5.11416 -1.16421 0
M  V30 1855 H 172.062 5.49707 0.502562 0
M  V30 1856 H 172.539 4.12697 1.50258 0
M  V30 1857 H 173.145 4.24979 -0.165102 0
M  V30 1858 N 171.46 0.379036 1.52974 0
M  V30 1859 C 172.37 -0.468639 2.29872 0
M  V30 1860 C 173.386 -1.08067 1.36373 0
M  V30 1861 O 174.562 -1.08871 1.69438 0
M  V30 1862 C 171.627 -1.58594 3.083 0
M  V30 1863 C 170.688 -1.00007 4.17489 0
M  V30 1864 C 169.921 -2.06413 4.92168 0
M  V30 1865 O 170.144 -3.27751 4.66835 0
M  V30 1866 O 169.078 -1.68717 5.7777 0
M  V30 1867 H 172.904 0.157508 3.03291 0
M  V30 1868 H 170.489 0.143035 1.48714 0
M  V30 1869 H 172.371 -2.23525 3.57232 0
M  V30 1870 H 171.046 -2.19724 2.37703 0
M  V30 1871 H 169.953 -0.314299 3.72777 0
M  V30 1872 H 171.286 -0.433135 4.90291 0
M  V30 1873 N 172.938 -1.57226 0.108567 0
M  V30 1874 C 173.868 -2.17778 -0.84232 0
M  V30 1875 C 174.849 -1.11487 -1.2847 0
M  V30 1876 O 176.034 -1.39681 -1.34918 0
M  V30 1877 C 173.164 -2.76888 -2.09644 0
M  V30 1878 C 172.118 -3.88669 -1.79221 0
M  V30 1879 C 171.444 -4.34541 -3.11574 0
M  V30 1880 C 172.744 -5.11251 -1.06864 0
M  V30 1881 H 174.438 -2.97489 -0.337774 0
M  V30 1882 H 171.984 -1.43097 -0.161025 0
M  V30 1883 H 173.937 -3.17904 -2.76614 0
M  V30 1884 H 172.661 -1.94451 -2.62405 0
M  V30 1885 H 171.32 -3.48213 -1.14644 0
M  V30 1886 H 170.968 -3.48977 -3.62249 0
M  V30 1887 H 170.668 -5.09914 -2.91996 0
M  V30 1888 H 172.192 -4.782 -3.7968 0
M  V30 1889 H 173.606 -5.49352 -1.63968 0
M  V30 1890 H 172.003 -5.9214 -0.974178 0
M  V30 1891 H 173.073 -4.8487 -0.0536168 0
M  V30 1892 N 174.416 0.165178 -1.56732 0
M  V30 1893 C 175.646 0.894919 -1.86212 0
M  V30 1894 C 176.054 1.76066 -0.692627 0
M  V30 1895 O 175.397 1.80387 0.347303 0
M  V30 1896 C 175.459 1.8174 -3.10179 0
M  V30 1897 C 175.123 1.13064 -4.42793 0
M  V30 1898 C 176.12 0.493169 -5.17556 0
M  V30 1899 C 173.805 1.12556 -4.89527 0
M  V30 1900 C 175.799 -0.140209 -6.37246 0
M  V30 1901 C 173.486 0.488366 -6.09145 0
M  V30 1902 C 174.484 -0.143411 -6.82849 0
M  V30 1903 O 174.172 -0.77055 -8.00199 0
M  V30 1904 H 173.904 0.265114 -0.621844 0
M  V30 1905 H 176.458 0.168242 -2.0471 0
M  V30 1906 H 174.688 2.58455 -2.87642 0
M  V30 1907 H 176.377 2.4175 -3.26055 0
M  V30 1908 H 177.143 0.489023 -4.82528 0
M  V30 1909 H 173.022 1.60672 -4.32094 0
M  V30 1910 H 176.566 -0.633932 -6.94714 0
M  V30 1911 H 172.463 0.490116 -6.43637 0
M  V30 1912 H 173.231 -0.670408 -8.1575 0
M  V30 1913 N 175.894 1.51508 0.433938 0
M  V30 1914 C 177.31 1.39759 0.770682 0
M  V30 1915 C 177.51 0.482594 1.95636 0
M  V30 1916 O 176.566 -0.0609691 2.52426 0
M  V30 1917 C 177.879 2.81851 1.04787 0
M  V30 1918 C 179.427 2.91025 1.1521 0
M  V30 1919 C 179.902 4.34032 1.46219 0
M  V30 1920 N 181.393 4.37154 1.53136 0
M  V30 1921 C 182.128 5.4484 1.78709 0
M  V30 1922 N 181.624 6.62682 2.02051 0
M  V30 1923 N 183.417 5.32324 1.80519 0
M  V30 1924 H 175.568 2.09548 -0.346892 0
M  V30 1925 H 177.831 0.943446 -0.0928074 0
M  V30 1926 H 177.537 3.50815 0.249304 0
M  V30 1927 H 177.411 3.21386 1.97461 0
M  V30 1928 H 179.798 2.22257 1.94128 0
M  V30 1929 H 179.879 2.54983 0.204281 0
M  V30 1930 H 179.523 5.03351 0.678274 0
M  V30 1931 H 179.453 4.6759 2.42212 0
M  V30 1932 H 181.944 3.52197 1.36987 0
M  V30 1933 H 182.257 7.40543 2.20943 0
M  V30 1934 H 180.602 6.65791 1.99366 0
M  V30 1935 H 183.793 4.39246 1.61805 0
M  V30 1936 H 183.966 6.16328 2.00111 0
M  V30 1937 N 177.372 -0.689602 1.41712 0
M  V30 1938 C 178.649 -1.44457 1.31877 0
M  V30 1939 C 179.029 -2.11039 -0.0508537 0
M  V30 1940 O 178.377 -2.02138 -1.06547 0
M  V30 1941 C 178.587 -2.45913 2.47645 0
M  V30 1942 C 179.935 -3.10991 2.89084 0
M  V30 1943 O 180.959 -2.56238 2.47428 0
M  V30 1944 O 179.818 -4.10174 3.61137 0
M  V30 1945 H 176.912 -0.64362 0.519309 0
M  V30 1946 H 179.458 -0.719576 1.53689 0
M  V30 1947 H 178.23 -1.95409 3.39015 0
M  V30 1948 H 177.853 -3.25913 2.27742 0
M  V30 1949 N 178.85 -1.27639 -0.924453 0
M  V30 1950 C 180.261 -1.12834 -1.48746 0
M  V30 1951 C 180.612 0.285505 -1.94112 0
M  V30 1952 O 179.737 1.17874 -1.81479 0
M  V30 1953 C 180.332 -2.04217 -2.70334 0
M  V30 1954 C 178.891 -1.93509 -3.22848 0
M  V30 1955 C 178.038 -1.96583 -1.95577 0
M  V30 1956 H 180.989 -1.40484 -0.738233 0
M  V30 1957 H 181.01 -1.59989 -3.4523 0
M  V30 1958 H 180.522 -3.07111 -2.37285 0
M  V30 1959 H 178.623 -0.936131 -3.60649 0
M  V30 1960 H 178.736 -2.79917 -3.88823 0
M  V30 1961 H 177.1 -1.4085 -2.12211 0
M  V30 1962 H 177.883 -3.01137 -1.64837 0
M  V30 1963 N 180.328 1.1314 -1.09713 0
M  V30 1964 C 181.26 2.18343 -0.697056 0
M  V30 1965 C 182.273 1.60669 0.262551 0
M  V30 1966 O 183.462 1.78435 0.0481527 0
M  V30 1967 C 180.562 3.38899 -0.00684728 0
M  V30 1968 C 179.735 4.26078 -0.988741 0
M  V30 1969 C 178.794 5.25155 -0.331394 0
M  V30 1970 O 177.82 5.60701 -0.979926 0
M  V30 1971 N 179.022 5.73271 0.913261 0
M  V30 1972 H 181.787 2.5328 -1.60216 0
M  V30 1973 H 179.348 1.28491 -0.984971 0
M  V30 1974 H 181.34 4.02255 0.444191 0
M  V30 1975 H 179.91 3.02175 0.800551 0
M  V30 1976 H 179.13 3.59453 -1.61826 0
M  V30 1977 H 180.418 4.81178 -1.65364 0
M  V30 1978 H 179.816 5.46544 1.45966 0
M  V30 1979 H 178.373 6.3855 1.30757 0
M  V30 1980 N 181.806 0.884767 1.30421 0
M  V30 1981 C 183.053 0.503105 1.96151 0
M  V30 1982 C 183.381 -0.947676 1.69851 0
M  V30 1983 O 182.636 -1.68467 0.995861 0
M  V30 1984 C 182.935 0.724318 3.49983 0
M  V30 1985 C 182.601 2.15015 3.96332 0
M  V30 1986 C 181.263 2.54005 4.08699 0
M  V30 1987 C 183.615 3.07936 4.20505 0
M  V30 1988 C 180.943 3.85128 4.42599 0
M  V30 1989 C 183.295 4.3859 4.55874 0
M  V30 1990 C 181.959 4.77474 4.66449 0
M  V30 1991 H 181.229 0.184099 0.717766 0
M  V30 1992 H 183.876 1.12058 1.55291 0
M  V30 1993 H 182.181 0.0238086 3.91793 0
M  V30 1994 H 183.878 0.408617 3.98913 0
M  V30 1995 H 180.468 1.8375 3.87213 0
M  V30 1996 H 184.652 2.79033 4.10431 0
M  V30 1997 H 179.908 4.14996 4.48986 0
M  V30 1998 H 184.082 5.10629 4.7353 0
M  V30 1999 H 181.709 5.79115 4.92473 0
M  V30 2000 N 183.284 -1.43765 0.645699 0
M  V30 2001 C 184.216 -2.29027 -0.0890605 0
M  V30 2002 C 185.229 -1.42093 -0.794563 0
M  V30 2003 O 186.418 -1.66104 -0.653575 0
M  V30 2004 C 183.518 -3.18831 -1.14891 0
M  V30 2005 C 182.691 -4.34261 -0.523043 0
M  V30 2006 C 181.75 -5.04994 -1.47878 0
M  V30 2007 O 180.776 -5.6052 -0.990277 0
M  V30 2008 N 181.978 -5.07795 -2.81291 0
M  V30 2009 H 184.743 -2.92727 0.64272 0
M  V30 2010 H 182.304 -1.54373 0.487924 0
M  V30 2011 H 184.296 -3.63015 -1.78892 0
M  V30 2012 H 182.866 -2.56782 -1.78275 0
M  V30 2013 H 182.086 -3.93088 0.295896 0
M  V30 2014 H 183.374 -5.08728 -0.0858147 0
M  V30 2015 H 182.772 -4.64042 -3.23546 0
M  V30 2016 H 181.329 -5.55721 -3.40614 0
M  V30 2017 N 184.763 -0.387143 -1.52771 0
M  V30 2018 C 185.695 0.484089 -2.2403 0
M  V30 2019 C 186.708 1.02849 -1.26198 0
M  V30 2020 O 187.897 0.931186 -1.52286 0
M  V30 2021 C 184.997 1.68337 -2.94136 0
M  V30 2022 C 184.17 1.26672 -4.18656 0
M  V30 2023 C 183.229 2.33045 -4.7178 0
M  V30 2024 O 182.255 1.94541 -5.34923 0
M  V30 2025 N 183.457 3.64929 -4.5145 0
M  V30 2026 H 186.222 -0.126404 -2.99433 0
M  V30 2027 H 183.783 -0.213392 -1.60488 0
M  V30 2028 H 185.775 2.39019 -3.26577 0
M  V30 2029 H 184.345 2.20025 -2.22053 0
M  V30 2030 H 183.565 0.388878 -3.92277 0
M  V30 2031 H 184.853 0.964964 -4.99566 0
M  V30 2032 H 184.251 3.98974 -4.01044 0
M  V30 2033 H 182.808 4.31651 -4.88386 0
M  V30 2034 N 186.241 1.57166 -0.116904 0
M  V30 2035 C 187.49 1.94298 0.541407 0
M  V30 2036 C 187.803 1.00236 1.67964 0
M  V30 2037 O 189.009 1.26826 2.40057 0
M  V30 2038 C 187.465 3.45306 1.01449 0
M  V30 2039 C 187.073 4.47899 -0.0951738 0
M  V30 2040 C 188.817 3.91361 1.6443 0
M  V30 2041 C 186.724 5.90083 0.394491 0
M  V30 2042 H 185.654 0.725308 0.206019 0
M  V30 2043 H 188.305 1.82446 -0.196419 0
M  V30 2044 H 186.687 3.52385 1.80667 0
M  V30 2045 H 187.861 4.52486 -0.871374 0
M  V30 2046 H 186.176 4.11583 -0.631505 0
M  V30 2047 H 188.773 4.95004 2.02176 0
M  V30 2048 H 189.116 3.3122 2.52189 0
M  V30 2049 H 189.649 3.87073 0.917559 0
M  V30 2050 H 186.388 6.53974 -0.447004 0
M  V30 2051 H 185.908 5.88921 1.13722 0
M  V30 2052 H 187.587 6.41307 0.856399 0
M  V30 2053 N 187.719 -0.156864 1.56817 0
M  V30 2054 C 188.667 -1.21319 1.98455 0
M  V30 2055 C 189.661 -1.45025 0.875444 0
M  V30 2056 O 190.867 -1.45435 1.0606 0
M  V30 2057 H 187.242 -0.408142 0.631605 0
M  V30 2058 H 189.213 -0.835244 2.86472 0
M  V30 2059 C 187.962 -2.54148 2.37285 0
M  V30 2060 H 187.285 -2.36733 3.22176 0
M  V30 2061 H 188.725 -3.26712 2.70251 0
M  V30 2062 C 187.184 -3.13967 1.22173 0
M  V30 2063 O 187.714 -3.98357 0.517149 0
M  V30 2064 N 185.92 -2.7327 0.988536 0
M  V30 2065 H 185.467 -2.04744 1.56326 0
M  V30 2066 H 185.425 -3.13628 0.220209 0
M  V30 2067 N 189.197 -1.51736 -0.425897 0
M  V30 2068 C 190.145 -1.74464 -1.53834 0
M  V30 2069 C 191.139 -0.611241 -1.57988 0
M  V30 2070 O 192.345 -0.792899 -1.61596 0
M  V30 2071 H 188.72 -0.551437 -0.511293 0
M  V30 2072 H 190.691 -2.67694 -1.31843 0
M  V30 2073 C 189.44 -1.8972 -2.91379 0
M  V30 2074 H 188.763 -2.76344 -2.88919 0
M  V30 2075 H 190.203 -2.09629 -3.68553 0
M  V30 2076 C 188.662 -0.65992 -3.30374 0
M  V30 2077 O 189.192 0.180083 -4.01296 0
M  V30 2078 N 187.398 -0.500677 -2.86254 0
M  V30 2079 H 186.945 -1.18532 -2.28709 0
M  V30 2080 H 186.903 0.325903 -3.12706 0
M  V30 2081 N 190.675 0.682077 -1.42076 0
M  V30 2082 C 191.922 1.44215 -1.42156 0
M  V30 2083 C 192.25 1.94468 -0.0354186 0
M  V30 2084 O 191.505 1.70816 0.955002 0
M  V30 2085 C 191.804 2.66036 -2.38662 0
M  V30 2086 C 191.47 2.34366 -3.85206 0
M  V30 2087 C 190.132 2.25439 -4.25124 0
M  V30 2088 C 192.484 2.08513 -4.77673 0
M  V30 2089 C 189.812 1.88775 -5.55501 0
M  V30 2090 C 192.164 1.73354 -6.08384 0
M  V30 2091 C 190.828 1.62933 -6.47309 0
M  V30 2092 H 190.098 0.527718 -0.520187 0
M  V30 2093 H 192.745 0.778387 -1.74967 0
M  V30 2094 H 191.05 3.3741 -1.99152 0
M  V30 2095 H 192.747 3.24205 -2.35991 0
M  V30 2096 H 189.337 2.42213 -3.53597 0
M  V30 2097 H 193.521 2.14346 -4.47626 0
M  V30 2098 H 188.777 1.7927 -5.84527 0
M  V30 2099 H 192.951 1.52373 -6.79526 0
M  V30 2100 H 190.578 1.34292 -7.48244 0
M  V30 2101 N 192.153 1.28127 0.917671 0
M  V30 2102 C 193.086 1.06039 2.02067 0
M  V30 2103 C 194.064 -0.0223285 1.62585 0
M  V30 2104 O 195.248 0.124823 1.88086 0
M  V30 2105 C 192.375 0.610596 3.33151 0
M  V30 2106 C 191.421 1.68937 3.91615 0
M  V30 2107 S 192.254 3.28437 4.22953 0
M  V30 2108 C 193.41 2.85283 5.57103 0
M  V30 2109 H 193.643 1.99425 2.20493 0
M  V30 2110 H 191.176 1.12071 1.06205 0
M  V30 2111 H 193.134 0.357778 4.08938 0
M  V30 2112 H 191.795 -0.303364 3.12632 0
M  V30 2113 H 190.988 1.32619 4.86239 0
M  V30 2114 H 190.59 1.89478 3.2245 0
M  V30 2115 H 192.882 2.3121 6.36827 0
M  V30 2116 H 193.825 3.7869 5.98331 0
M  V30 2117 H 194.233 2.24118 5.18104 0
M  V30 2118 N 193.631 -1.12557 1.10312 0
M  V30 2119 C 194.859 -1.87864 0.866873 0
M  V30 2120 C 195.274 -1.79588 -0.582557 0
M  V30 2121 O 194.631 -1.16887 -1.40156 0
M  V30 2122 C 194.682 -3.37125 1.30496 0
M  V30 2123 O 194.403 -3.45201 2.69755 0
M  V30 2124 C 195.904 -4.29373 1.10243 0
M  V30 2125 H 193.124 -0.594452 0.311236 0
M  V30 2126 H 195.668 -1.42429 1.46745 0
M  V30 2127 H 193.823 -3.80109 0.748081 0
M  V30 2128 H 194.237 -4.38056 2.88457 0
M  V30 2129 H 195.711 -5.32394 1.45811 0
M  V30 2130 H 196.188 -4.39181 0.0409492 0
M  V30 2131 H 196.794 -3.92169 1.64571 0
M  V30 2132 N 195.109 -0.891671 -1.2995 0
M  V30 2133 C 196.386 -0.433307 -1.9074 0
M  V30 2134 C 196.766 1.08646 -1.80995 0
M  V30 2135 O 196.114 1.92476 -1.23147 0
M  V30 2136 C 196.324 -0.938895 -3.36134 0
M  V30 2137 C 197.672 -0.977829 -4.13187 0
M  V30 2138 O 198.696 -0.886015 -3.45005 0
M  V30 2139 O 197.555 -1.11453 -5.35015 0
M  V30 2140 H 194.649 -0.133699 -0.816121 0
M  V30 2141 H 197.195 -0.981011 -1.38471 0
M  V30 2142 H 195.967 -1.98281 -3.37343 0
M  V30 2143 H 195.59 -0.37074 -3.95868 0
M  V30 2144 N 196.587 1.43421 -0.653314 0
M  V30 2145 C 197.834 2.01812 -0.166745 0
M  V30 2146 C 198.162 1.51535 1.21931 0
M  V30 2147 O 197.417 0.698975 1.82792 0
M  V30 2148 C 197.716 3.57176 -0.126623 0
M  V30 2149 C 197.382 4.26798 -1.45444 0
M  V30 2150 C 196.044 4.45534 -1.81805 0
M  V30 2151 C 198.396 4.66225 -2.32989 0
M  V30 2152 C 195.724 5.00961 -3.05377 0
M  V30 2153 C 198.076 5.23021 -3.55853 0
M  V30 2154 C 196.74 5.39973 -3.9241 0
M  V30 2155 H 196.01 0.738484 -0.0610162 0
M  V30 2156 H 198.657 1.71896 -0.84404 0
M  V30 2157 H 196.962 3.86634 0.634123 0
M  V30 2158 H 198.659 4.00112 0.266723 0
M  V30 2159 H 195.249 4.12561 -1.16153 0
M  V30 2160 H 199.433 4.51443 -2.06187 0
M  V30 2161 H 194.689 5.12271 -3.3375 0
M  V30 2162 H 198.863 5.52518 -4.23907 0
M  V30 2163 H 196.49 5.82687 -4.88242 0
M  V30 2164 N 198.065 0.39524 1.52563 0
M  V30 2165 C 199.012 -0.437036 2.26624 0
M  V30 2166 C 199.982 -1.05281 1.28472 0
M  V30 2167 O 201.167 -1.07971 1.57311 0
M  V30 2168 C 198.307 -1.55524 3.08069 0
M  V30 2169 C 197.42 -0.961745 4.21158 0
M  V30 2170 C 196.555 -2.05149 4.89987 0
M  V30 2171 C 195.594 -1.4342 5.95061 0
M  V30 2172 N 194.731 -2.46351 6.57462 0
M  V30 2173 H 199.571 0.200976 2.97322 0
M  V30 2174 H 197.108 0.110944 1.46681 0
M  V30 2175 H 199.066 -2.21437 3.53584 0
M  V30 2176 H 197.696 -2.16348 2.3957 0
M  V30 2177 H 196.748 -0.192048 3.79915 0
M  V30 2178 H 198.06 -0.470701 4.96574 0
M  V30 2179 H 197.214 -2.78819 5.38837 0
M  V30 2180 H 195.953 -2.57615 4.14109 0
M  V30 2181 H 194.958 -0.682774 5.45544 0
M  V30 2182 H 196.183 -0.917416 6.72875 0
M  V30 2183 H 194.129 -2.97975 5.8442 0
M  V30 2184 H 194.046 -2.02019 7.28508 0
M  V30 2185 H 195.314 -3.19633 7.10954 0
M  V30 2186 N 199.544 -1.57102 0.125237 0
M  V30 2187 C 200.491 -2.15641 -0.822655 0
M  V30 2188 C 201.461 -1.08313 -1.25927 0
M  V30 2189 O 202.646 -1.36251 -1.33567 0
M  V30 2190 C 199.786 -2.76504 -2.06494 0
M  V30 2191 C 198.899 -3.98158 -1.67612 0
M  V30 2192 C 198.034 -4.47088 -2.86854 0
M  V30 2193 C 197.073 -5.6126 -2.44242 0
M  V30 2194 N 196.21 -6.04905 -3.56419 0
M  V30 2195 H 201.05 -2.96313 -0.316625 0
M  V30 2196 H 198.587 -1.46388 -0.144588 0
M  V30 2197 H 200.545 -3.09925 -2.79289 0
M  V30 2198 H 199.175 -1.98512 -2.54545 0
M  V30 2199 H 198.227 -3.70858 -0.846661 0
M  V30 2200 H 199.539 -4.80934 -1.32301 0
M  V30 2201 H 198.693 -4.82451 -3.67867 0
M  V30 2202 H 197.432 -3.63275 -3.25396 0
M  V30 2203 H 196.437 -5.25495 -1.61663 0
M  V30 2204 H 197.662 -6.46843 -2.0681 0
M  V30 2205 H 195.608 -5.24032 -3.94623 0
M  V30 2206 H 195.525 -6.82552 -3.25051 0
M  V30 2207 H 196.793 -6.44907 -4.37853 0
M  V30 2208 N 201.022 0.148545 -1.56898 0
M  V30 2209 C 202.268 0.857877 -1.84424 0
M  V30 2210 C 202.623 1.7886 -0.709006 0
M  V30 2211 O 201.916 1.89344 0.293139 0
M  V30 2212 C 202.11 1.67064 -3.1595 0
M  V30 2213 C 201.939 0.82011 -4.42159 0
M  V30 2214 C 200.709 0.486328 -5.02954 0
M  V30 2215 C 202.907 0.151155 -5.14078 0
M  V30 2216 N 200.889 -0.377956 -6.12735 0
M  V30 2217 C 202.26 -0.573333 -6.17343 0
M  V30 2218 C 204.315 0.0716685 -4.97848 0
M  V30 2219 C 203.018 -1.3698 -7.06137 0
M  V30 2220 C 205.044 -0.711532 -5.87104 0
M  V30 2221 C 204.406 -1.42431 -6.8985 0
M  V30 2222 H 200.505 0.291798 -0.725519 0
M  V30 2223 H 203.089 0.123347 -1.94309 0
M  V30 2224 H 201.26 2.37642 -3.07215 0
M  V30 2225 H 202.992 2.32302 -3.31388 0
M  V30 2226 H 199.747 0.821753 -4.66416 0
M  V30 2227 H 200.171 -0.801077 -6.72244 0
M  V30 2228 H 204.813 0.608381 -4.184 0
M  V30 2229 H 202.531 -1.91778 -7.85014 0
M  V30 2230 H 206.117 -0.775005 -5.76615 0
M  V30 2231 H 204.997 -2.02061 -7.57721 0
M  V30 2232 N 202.5 1.5196 0.417844 0
M  V30 2233 C 203.43 1.77634 1.51554 0
M  V30 2234 C 204.411 0.626918 1.58126 0
M  V30 2235 O 205.596 0.871632 1.7354 0
M  V30 2236 C 202.726 1.91911 2.8946 0
M  V30 2237 C 201.68 3.07463 2.97743 0
M  V30 2238 C 201.006 3.06951 4.37819 0
M  V30 2239 C 202.306 4.47082 2.70027 0
M  V30 2240 H 204 2.6955 1.3032 0
M  V30 2241 H 201.546 1.29706 0.625492 0
M  V30 2242 H 203.499 2.08455 3.6623 0
M  V30 2243 H 202.223 0.966598 3.11969 0
M  V30 2244 H 200.882 2.90656 2.23416 0
M  V30 2245 H 200.53 2.09438 4.57323 0
M  V30 2246 H 200.23 3.84556 4.44286 0
M  V30 2247 H 201.754 3.25613 5.16535 0
M  V30 2248 H 203.168 4.6414 3.36522 0
M  V30 2249 H 201.565 5.2654 2.87881 0
M  V30 2250 H 202.635 4.55777 1.65514 0
M  V30 2251 N 203.978 -0.674533 1.42435 0
M  V30 2252 C 205.255 -1.4305 1.33402 0
M  V30 2253 C 205.635 -2.11081 -0.0284674 0
M  V30 2254 O 204.983 -2.03257 -1.04397 0
M  V30 2255 C 205.193 -2.43272 2.50239 0
M  V30 2256 C 206.541 -3.07907 2.92367 0
M  V30 2257 O 207.565 -2.53599 2.50132 0
M  V30 2258 O 206.424 -4.0632 3.65467 0
M  V30 2259 H 203.518 -0.638076 0.526106 0
M  V30 2260 H 206.064 -0.703235 1.54443 0
M  V30 2261 H 204.836 -1.91803 3.41068 0
M  V30 2262 H 204.459 -3.23479 2.31186 0
M  V30 2263 N 205.456 -1.28612 -0.910864 0
M  V30 2264 C 206.704 -1.15705 -1.65701 0
M  V30 2265 C 207.025 0.29416 -1.92769 0
M  V30 2266 O 206.295 1.20331 -1.54588 0
M  V30 2267 H 204.875 -0.425216 -0.614167 0
M  V30 2268 H 207.537 -1.61381 -1.0928 0
M  V30 2269 H 206.633 -1.6988 -2.61815 0
M  V30 2270 N 206.934 1.1197 -1.10907 0
M  V30 2271 C 208.182 1.83225 -0.852819 0
M  V30 2272 C 208.503 1.84769 0.623341 0
M  V30 2273 O 207.773 1.3143 1.45269 0
M  V30 2274 H 206.353 0.67849 -0.312507 0
M  V30 2275 H 209.015 1.3556 -1.40033 0
M  V30 2276 H 208.111 2.87265 -1.22005 0
M  V30 2277 N 208.412 0.89855 1.29475 0
M  V30 2278 C 209.659 0.523882 1.95606 0
M  V30 2279 C 209.987 -0.929608 1.70847 0
M  V30 2280 O 209.242 -1.67401 1.01367 0
M  V30 2281 C 209.541 0.761398 3.49195 0
M  V30 2282 C 209.207 2.19207 3.94029 0
M  V30 2283 C 207.869 2.58326 4.05982 0
M  V30 2284 C 210.221 3.12379 4.17216 0
M  V30 2285 C 207.549 3.898 4.38489 0
M  V30 2286 C 209.901 4.43401 4.51197 0
M  V30 2287 C 208.565 4.82394 4.61359 0
M  V30 2288 H 207.835 0.191702 0.715773 0
M  V30 2289 H 210.482 1.13699 1.54094 0
M  V30 2290 H 208.787 0.0653622 3.91745 0
M  V30 2291 H 210.484 0.450904 3.98457 0
M  V30 2292 H 207.074 1.87846 3.85242 0
M  V30 2293 H 211.258 2.83371 4.07449 0
M  V30 2294 H 206.514 4.19734 4.44559 0
M  V30 2295 H 210.688 5.15623 4.68087 0
M  V30 2296 H 208.315 5.84306 4.86303 0
M  V30 2297 N 209.89 -1.43072 0.660911 0
M  V30 2298 C 211.115 -2.06584 0.183805 0
M  V30 2299 C 211.54 -1.49257 -1.14472 0
M  V30 2300 O 210.898 -0.605528 -1.70889 0
M  V30 2301 C 210.946 -3.60418 0.114434 0
M  V30 2302 O 210.05 -4.01981 -0.921137 0
M  V30 2303 H 209.391 -0.656669 0.0983994 0
M  V30 2304 H 211.921 -1.83447 0.906006 0
M  V30 2305 H 211.931 -4.07946 -0.0663394 0
M  V30 2306 H 210.606 -4.01519 1.08422 0
M  V30 2307 H 209.183 -3.66029 -0.71253 0
M  V30 2308 N 211.368 -0.403325 -1.52352 0
M  V30 2309 C 212.596 0.174012 -2.06167 0
M  V30 2310 C 213.011 1.39347 -1.27388 0
M  V30 2311 O 212.368 1.79597 -0.324201 0
M  V30 2312 C 212.419 0.530223 -3.5759 0
M  V30 2313 O 212.14 -0.640806 -4.33388 0
M  V30 2314 C 213.641 1.16192 -4.27802 0
M  V30 2315 H 210.861 0.0229464 -0.670608 0
M  V30 2316 H 213.405 -0.572604 -1.9632 0
M  V30 2317 H 211.56 1.22673 -3.67464 0
M  V30 2318 H 211.974 -0.344851 -5.23365 0
M  V30 2319 H 213.448 1.36141 -5.34948 0
M  V30 2320 H 213.925 2.13335 -3.83907 0
M  V30 2321 H 214.531 0.505775 -4.22282 0
M  V30 2322 N 212.846 1.57033 -0.133567 0
M  V30 2323 C 213.809 2.14897 0.796995 0
M  V30 2324 C 214.809 1.0874 1.18458 0
M  V30 2325 O 215.999 1.34446 1.1077 0
M  V30 2326 C 213.131 2.70112 2.07973 0
M  V30 2327 H 214.324 2.98457 0.293873 0
M  V30 2328 H 211.877 1.55871 0.115787 0
M  V30 2329 H 212.612 1.9018 2.62682 0
M  V30 2330 H 212.397 3.47764 1.81115 0
M  V30 2331 H 213.887 3.14738 2.74462 0
M  V30 2332 N 214.325 -0.140222 1.56975 0
M  V30 2333 C 215.571 -0.852949 1.83991 0
M  V30 2334 C 215.904 -1.80512 0.716187 0
M  V30 2335 O 215.179 -1.92479 -0.279681 0
M  V30 2336 C 215.462 -1.6215 3.21527 0
M  V30 2337 C 215.315 -0.690363 4.4447 0
M  V30 2338 C 216.634 -2.58247 3.56366 0
M  V30 2339 H 213.753 -0.308634 0.669264 0
M  V30 2340 H 216.395 -0.117898 1.89634 0
M  V30 2341 H 214.545 -2.24812 3.16847 0
M  V30 2342 H 216.217 -0.0742264 4.6124 0
M  V30 2343 H 214.46 -0.000396433 4.338 0
M  V30 2344 H 215.131 -1.2643 5.37326 0
M  V30 2345 H 217.607 -2.05701 3.61699 0
M  V30 2346 H 216.483 -3.09067 4.53617 0
M  V30 2347 H 216.744 -3.39923 2.82674 0
M  V30 2348 N 215.803 -1.52179 -0.40978 0
M  V30 2349 C 216.713 -1.78364 -1.52392 0
M  V30 2350 C 217.729 -0.669183 -1.60617 0
M  V30 2351 O 218.905 -0.954518 -1.77344 0
M  V30 2352 C 215.97 -1.92822 -2.88133 0
M  V30 2353 C 215.031 -3.16725 -2.898 0
M  V30 2354 C 214.264 -3.30483 -4.19067 0
M  V30 2355 O 214.487 -2.49522 -5.12928 0
M  V30 2356 O 213.421 -4.2363 -4.27576 0
M  V30 2357 H 217.247 -2.72931 -1.33201 0
M  V30 2358 H 214.832 -1.37016 -0.59557 0
M  V30 2359 H 216.714 -2.04157 -3.68643 0
M  V30 2360 H 215.389 -1.01444 -3.07393 0
M  V30 2361 H 214.296 -3.10848 -2.08146 0
M  V30 2362 H 215.629 -4.07881 -2.75489 0
M  V30 2363 N 217.281 0.66697 -1.42791 0
M  V30 2364 C 218.529 1.42417 -1.43394 0
M  V30 2365 C 218.85 1.94925 -0.0542373 0
M  V30 2366 O 218.12 1.73564 0.908415 0
M  V30 2367 H 216.7 0.528515 -0.527902 0
M  V30 2368 H 219.362 0.787562 -1.78279 0
M  V30 2369 H 218.458 2.27333 -2.13837 0
M  V30 2370 N 218.759 1.29093 0.90403 0
M  V30 2371 C 220.036 1.075 1.63411 0
M  V30 2372 C 220.416 -0.382346 2.07609 0
M  V30 2373 O 219.764 -1.37031 1.82851 0
M  V30 2374 C 219.974 2.05858 2.81822 0
M  V30 2375 C 221.322 2.36539 3.52611 0
M  V30 2376 O 222.346 2.04019 2.91984 0
M  V30 2377 O 221.205 2.92085 4.61897 0
M  V30 2378 H 218.299 0.411547 0.717327 0
M  V30 2379 H 220.845 1.40449 0.952479 0
M  V30 2380 H 219.617 3.04037 2.46327 0
M  V30 2381 H 219.24 1.73613 3.57693 0
M  V30 2382 N 220.237 -1.11381 1.11499 0
M  V30 2383 C 221.2 -2.15622 0.777153 0
M  V30 2384 C 222.2 -1.59504 -0.203779 0
M  V30 2385 O 223.39 -1.74188 0.020782 0
M  V30 2386 C 220.522 -3.40556 0.153116 0
M  V30 2387 H 221.715 -2.47021 1.70061 0
M  V30 2388 H 219.268 -1.26577 0.916952 0
M  V30 2389 H 220.003 -3.14767 -0.780536 0
M  V30 2390 H 219.788 -3.8257 0.859238 0
M  V30 2391 H 221.278 -4.17546 -0.0671044 0
M  V30 2392 N 221.715 -0.905404 -1.28997 0
M  V30 2393 C 222.662 -0.385892 -2.27551 0
M  V30 2394 C 223.632 0.535113 -1.57244 0
M  V30 2395 O 224.817 0.459119 -1.85194 0
M  V30 2396 C 221.957 0.375461 -3.43051 0
M  V30 2397 C 221.07 -0.577092 -4.28128 0
M  V30 2398 C 220.205 0.201879 -5.30816 0
M  V30 2399 C 219.244 -0.744829 -6.07551 0
M  V30 2400 N 218.381 9.42587e-05 -7.021 0
M  V30 2401 H 223.221 -1.23139 -2.71368 0
M  V30 2402 H 220.758 -0.618542 -1.33463 0
M  V30 2403 H 222.716 0.832992 -4.088 0
M  V30 2404 H 221.346 1.18537 -3.00248 0
M  V30 2405 H 220.398 -1.15315 -3.62501 0
M  V30 2406 H 221.71 -1.30152 -4.8152 0
M  V30 2407 H 220.864 0.720351 -6.02408 0
M  V30 2408 H 219.603 0.959413 -4.7817 0
M  V30 2409 H 218.608 -1.27475 -5.34818 0
M  V30 2410 H 219.833 -1.50178 -6.62286 0
M  V30 2411 H 217.779 0.739791 -6.51815 0
M  V30 2412 H 217.696 -0.664321 -7.53076 0
M  V30 2413 H 218.964 0.498644 -7.77903 0
M  V30 2414 N 223.193 1.4272 -0.668489 0
M  V30 2415 C 224.156 2.292 0.00448567 0
M  V30 2416 C 225.156 1.43001 0.735339 0
M  V30 2417 O 226.346 1.64461 0.57429 0
M  V30 2418 C 223.478 3.25375 1.01705 0
M  V30 2419 H 224.671 2.90199 -0.756608 0
M  V30 2420 H 222.224 1.50254 -0.430506 0
M  V30 2421 H 222.959 2.69301 1.80686 0
M  V30 2422 H 222.744 3.88944 0.496463 0
M  V30 2423 H 224.234 3.90245 1.48655 0
M  V30 2424 N 224.671 0.411399 1.52136 0
M  V30 2425 C 225.92 -0.165009 2.01024 0
M  V30 2426 C 226.233 -1.4603 1.30133 0
M  V30 2427 O 227.439 -2.1181 1.69849 0
M  V30 2428 C 225.895 -0.344618 3.58246 0
M  V30 2429 C 225.503 0.938716 4.38055 0
M  V30 2430 C 227.247 -0.876195 4.15359 0
M  V30 2431 C 225.154 0.726172 5.86925 0
M  V30 2432 H 224.084 -0.0654407 0.751155 0
M  V30 2433 H 226.735 0.537192 1.75461 0
M  V30 2434 H 225.117 -1.10921 3.80148 0
M  V30 2435 H 226.291 1.70963 4.27912 0
M  V30 2436 H 224.606 1.39688 3.92271 0
M  V30 2437 H 227.203 -1.05128 5.24263 0
M  V30 2438 H 227.546 -1.85152 3.7286 0
M  V30 2439 H 228.079 -0.170607 3.97434 0
M  V30 2440 H 224.818 1.67312 6.33788 0
M  V30 2441 H 224.338 -0.00540283 5.998 0
M  V30 2442 H 226.017 0.369231 6.45946 0
M  V30 2443 N 226.149 -1.5696 0.141893 0
M  V30 2444 C 227.565 -1.58151 -0.21456 0
M  V30 2445 C 227.765 -1.1559 -1.65049 0
M  V30 2446 O 226.821 -0.853832 -2.37626 0
M  V30 2447 C 228.134 -3.00674 0.0395576 0
M  V30 2448 C 229.682 -3.1299 -0.0245529 0
M  V30 2449 C 230.157 -4.57554 0.202167 0
M  V30 2450 N 231.648 -4.62961 0.148919 0
M  V30 2451 C 232.383 -5.7262 0.298924 0
M  V30 2452 N 231.879 -6.90947 0.50637 0
M  V30 2453 N 233.672 -5.61601 0.236886 0
M  V30 2454 H 225.823 -1.8292 1.07953 0
M  V30 2455 H 228.086 -0.846425 0.42693 0
M  V30 2456 H 227.792 -3.36183 1.03315 0
M  V30 2457 H 227.666 -3.70981 -0.682143 0
M  V30 2458 H 230.053 -2.77326 -1.00869 0
M  V30 2459 H 230.134 -2.4518 0.729396 0
M  V30 2460 H 229.778 -4.93922 1.18338 0
M  V30 2461 H 229.708 -5.23484 -0.572044 0
M  V30 2462 H 232.199 -3.77899 -0.00697015 0
M  V30 2463 H 232.512 -7.7038 0.611076 0
M  V30 2464 H 230.857 -6.92878 0.542628 0
M  V30 2465 H 234.048 -4.68039 0.0756209 0
M  V30 2466 H 234.221 -6.47015 0.357227 0
M  V30 2467 N 227.627 0.131896 -1.57047 0
M  V30 2468 C 228.557 1.16384 -2.02428 0
M  V30 2469 C 229.538 1.43936 -0.90644 0
M  V30 2470 O 230.723 1.54599 -1.17528 0
M  V30 2471 C 227.853 2.49328 -2.4177 0
M  V30 2472 C 226.807 2.36266 -3.56879 0
M  V30 2473 C 226.133 3.74057 -3.8208 0
M  V30 2474 C 227.433 1.834 -4.89042 0
M  V30 2475 H 229.127 0.786433 -2.88887 0
M  V30 2476 H 226.673 0.376855 -1.38981 0
M  V30 2477 H 228.626 3.21759 -2.7212 0
M  V30 2478 H 227.35 2.88934 -1.52266 0
M  V30 2479 H 226.009 1.66286 -3.26718 0
M  V30 2480 H 225.657 4.11125 -2.89803 0
M  V30 2481 H 225.357 3.66174 -4.59554 0
M  V30 2482 H 226.881 4.48012 -4.1487 0
M  V30 2483 H 228.295 2.45636 -5.18011 0
M  V30 2484 H 226.692 1.8637 -5.70426 0
M  V30 2485 H 227.762 0.790662 -4.7841 0
M  V30 2486 N 229.106 1.52395 0.401703 0
M  V30 2487 C 230.016 1.7917 1.51444 0
M  V30 2488 C 231.032 0.677691 1.6026 0
M  V30 2489 O 232.208 0.963909 1.76835 0
M  V30 2490 C 229.273 1.94347 2.87107 0
M  V30 2491 C 228.334 3.18257 2.88116 0
M  V30 2492 C 227.567 3.32701 4.17308 0
M  V30 2493 O 227.79 2.52238 5.11598 0
M  V30 2494 O 226.724 4.25891 4.25324 0
M  V30 2495 H 230.55 2.73633 1.31752 0
M  V30 2496 H 228.135 1.3733 0.588296 0
M  V30 2497 H 230.017 2.06109 3.67555 0
M  V30 2498 H 228.692 1.03073 3.06851 0
M  V30 2499 H 227.599 3.11947 2.06494 0
M  V30 2500 H 228.932 4.09336 2.73322 0
M  V30 2501 N 230.584 -0.659388 1.43143 0
M  V30 2502 C 231.995 -1.24041 1.39537 0
M  V30 2503 C 232.346 -1.95963 0.0963364 0
M  V30 2504 O 231.471 -2.00892 -0.804438 0
M  V30 2505 C 232.066 -2.25601 2.52764 0
M  V30 2506 C 230.625 -2.79195 2.52443 0
M  V30 2507 C 229.772 -1.53743 2.30778 0
M  V30 2508 H 232.723 -0.451792 1.52133 0
M  V30 2509 H 232.744 -3.07651 2.23899 0
M  V30 2510 H 232.256 -1.73226 3.47296 0
M  V30 2511 H 230.357 -3.35649 1.61773 0
M  V30 2512 H 230.47 -3.2716 3.50004 0
M  V30 2513 H 228.834 -1.80869 1.79328 0
M  V30 2514 H 229.617 -1.03312 3.27386 0
M  V30 2515 N 232.062 -1.29571 -0.897171 0
M  V30 2516 C 233.309 -1.17689 -1.6479 0
M  V30 2517 C 233.637 0.27107 -1.92602 0
M  V30 2518 O 232.892 1.21193 -1.53658 0
M  V30 2519 C 233.191 -1.9382 -3.00281 0
M  V30 2520 C 232.857 -3.43522 -2.92068 0
M  V30 2521 C 231.519 -3.84348 -2.89535 0
M  V30 2522 C 233.871 -4.38906 -2.81089 0
M  V30 2523 C 231.199 -5.18869 -2.73846 0
M  V30 2524 C 233.551 -5.73521 -2.66939 0
M  V30 2525 C 232.215 -6.13601 -2.62774 0
M  V30 2526 H 231.485 -0.430654 -0.603008 0
M  V30 2527 H 234.132 -1.60536 -1.04404 0
M  V30 2528 H 232.437 -1.4357 -3.64547 0
M  V30 2529 H 234.134 -1.82028 -3.57305 0
M  V30 2530 H 230.724 -3.11072 -2.94842 0
M  V30 2531 H 234.908 -4.08315 -2.82121 0
M  V30 2532 H 230.164 -5.4903 -2.69027 0
M  V30 2533 H 234.338 -6.47078 -2.57416 0
M  V30 2534 H 231.965 -7.17786 -2.50375 0
M  V30 2535 N 233.54 1.10788 -1.12088 0
M  V30 2536 C 234.472 2.16816 -0.743213 0
M  V30 2537 C 235.485 1.6119 0.228412 0
M  V30 2538 O 236.674 1.78497 0.0102931 0
M  V30 2539 C 233.774 3.38809 -0.0787313 0
M  V30 2540 C 232.947 4.23885 -1.0789 0
M  V30 2541 C 232.006 5.24334 -0.442713 0
M  V30 2542 O 231.032 5.58497 -1.09864 0
M  V30 2543 N 232.234 5.75079 0.791457 0
M  V30 2544 H 234.999 2.49825 -1.65552 0
M  V30 2545 H 232.56 1.26373 -1.012 0
M  V30 2546 H 234.552 4.03107 0.358766 0
M  V30 2547 H 233.122 3.03805 0.736275 0
M  V30 2548 H 232.342 3.55939 -1.69414 0
M  V30 2549 H 233.63 4.77562 -1.75533 0
M  V30 2550 H 233.028 5.49517 1.3434 0
M  V30 2551 H 231.585 6.4118 1.17183 0
M  V30 2552 N 235.018 0.912232 1.28515 0
M  V30 2553 C 235.965 0.397954 2.27343 0
M  V30 2554 C 236.935 -0.526766 1.57526 0
M  V30 2555 O 238.12 -0.449292 1.85435 0
M  V30 2556 C 235.26 -0.357263 3.43246 0
M  V30 2557 C 234.373 0.599788 4.27816 0
M  V30 2558 C 233.508 -0.173725 5.30916 0
M  V30 2559 C 232.547 0.777039 6.07148 0
M  V30 2560 N 231.684 0.0371398 7.0209 0
M  V30 2561 H 236.524 1.24577 2.70711 0
M  V30 2562 H 234.061 0.625612 1.33133 0
M  V30 2563 H 236.019 -0.8113 4.09236 0
M  V30 2564 H 234.649 -1.16943 3.00872 0
M  V30 2565 H 233.701 1.17235 3.61884 0
M  V30 2566 H 235.013 1.32704 4.80823 0
M  V30 2567 H 234.167 -0.688394 6.02782 0
M  V30 2568 H 232.906 -0.934041 4.78672 0
M  V30 2569 H 231.911 1.3031 5.34134 0
M  V30 2570 H 233.136 1.53689 6.61481 0
M  V30 2571 H 231.082 -0.705213 6.52198 0
M  V30 2572 H 230.999 0.704249 7.52713 0
M  V30 2573 H 232.267 -0.457383 7.78157 0
M  V30 2574 N 236.496 -1.42363 0.676048 0
M  V30 2575 C 237.444 -2.32596 -0.0131507 0
M  V30 2576 C 238.438 -1.49891 -0.789238 0
M  V30 2577 O 239.644 -1.65955 -0.697061 0
M  V30 2578 H 236.019 -0.751647 -0.0230481 0
M  V30 2579 H 237.99 -2.88421 0.765243 0
M  V30 2580 C 236.739 -3.34479 -0.949702 0
M  V30 2581 H 236.062 -3.98158 -0.361938 0
M  V30 2582 H 237.502 -4.00199 -1.4006 0
M  V30 2583 C 235.961 -2.66838 -2.05667 0
M  V30 2584 O 236.491 -2.50124 -3.14326 0
M  V30 2585 N 234.697 -2.25843 -1.82875 0
M  V30 2586 H 234.244 -2.39637 -0.945085 0
M  V30 2587 H 234.202 -1.80918 -2.5713 0
M  V30 2588 N 237.974 -0.419461 -1.51915 0
M  V30 2589 C 238.904 0.391813 -2.30189 0
M  V30 2590 C 239.885 1.03699 -1.34836 0
M  V30 2591 O 241.07 1.04403 -1.63748 0
M  V30 2592 C 238.2 1.50312 -3.13087 0
M  V30 2593 C 237.154 0.9824 -4.16573 0
M  V30 2594 C 236.48 2.18809 -4.8788 0
M  V30 2595 C 237.78 0.0292356 -5.22292 0
M  V30 2596 H 239.474 -0.26135 -2.98257 0
M  V30 2597 H 237.02 -0.127134 -1.43438 0
M  V30 2598 H 238.973 2.07773 -3.66617 0
M  V30 2599 H 237.697 2.18431 -2.42807 0
M  V30 2600 H 236.356 0.430119 -3.64068 0
M  V30 2601 H 236.004 2.85507 -4.14119 0
M  V30 2602 H 235.704 1.84615 -5.57845 0
M  V30 2603 H 237.228 2.76858 -5.44226 0
M  V30 2604 H 238.642 0.512976 -5.71 0
M  V30 2605 H 237.039 -0.2244 -5.9968 0
M  V30 2606 H 238.109 -0.912931 -4.76228 0
M  V30 2607 N 239.452 1.56882 -0.150215 0
M  V30 2608 C 240.382 2.19935 0.784284 0
M  V30 2609 C 241.363 1.14854 1.25469 0
M  V30 2610 O 242.548 1.43209 1.31168 0
M  V30 2611 C 239.678 2.82349 2.02229 0
M  V30 2612 C 238.632 3.93285 1.68853 0
M  V30 2613 C 237.958 4.42649 2.99944 0
M  V30 2614 C 239.258 5.13904 0.932714 0
M  V30 2615 H 240.952 2.9828 0.258781 0
M  V30 2616 H 238.498 1.43473 0.123029 0
M  V30 2617 H 240.451 3.25126 2.68088 0
M  V30 2618 H 239.175 2.0134 2.57157 0
M  V30 2619 H 237.834 3.5113 1.05371 0
M  V30 2620 H 237.482 3.58458 3.52869 0
M  V30 2621 H 237.182 5.17476 2.78374 0
M  V30 2622 H 238.706 4.88099 3.66868 0
M  V30 2623 H 240.12 5.53506 1.49345 0
M  V30 2624 H 238.517 5.94515 0.81684 0
M  V30 2625 H 239.587 4.84842 -0.0749568 0
M  V30 2626 N 240.93 -0.123565 1.57115 0
M  V30 2627 C 242.179 -0.830704 1.83799 0
M  V30 2628 C 242.492 -1.81259 0.735158 0
M  V30 2629 O 243.698 -2.56558 0.888278 0
M  V30 2630 C 242.154 -1.52802 3.25852 0
M  V30 2631 C 241.762 -0.587356 4.44133 0
M  V30 2632 C 243.506 -2.22056 3.61789 0
M  V30 2633 C 241.413 -1.28764 5.77212 0
M  V30 2634 H 240.343 -0.313967 0.685522 0
M  V30 2635 H 242.994 -0.0834359 1.8331 0
M  V30 2636 H 241.376 -2.32175 3.20797 0
M  V30 2637 H 242.55 0.172829 4.60476 0
M  V30 2638 H 240.865 -0.00201892 4.164 0
M  V30 2639 H 243.462 -2.75131 4.58483 0
M  V30 2640 H 243.805 -2.99644 2.88997 0
M  V30 2641 H 244.338 -1.49576 3.68608 0
M  V30 2642 H 241.077 -0.55314 6.53162 0
M  V30 2643 H 240.597 -2.01995 5.64764 0
M  V30 2644 H 242.276 -1.8221 6.20813 0
M  V30 2645 N 242.408 -1.52605 -0.393616 0
M  V30 2646 C 243.358 -1.73436 -1.48 0
M  V30 2647 C 244.342 -0.588386 -1.49756 0
M  V30 2648 O 245.534 -0.846047 -1.5547 0
M  V30 2649 C 242.663 -1.90247 -2.85764 0
M  V30 2650 C 241.749 -3.10763 -2.88595 0
M  V30 2651 N 242.14 -4.33196 -2.61103 0
M  V30 2652 C 240.438 -3.10914 -3.19763 0
M  V30 2653 C 241.139 -5.1477 -2.70899 0
M  V30 2654 N 240.115 -4.50356 -3.04435 0
M  V30 2655 H 243.917 -2.65727 -1.25563 0
M  V30 2656 H 241.431 -1.5085 -0.601513 0
M  V30 2657 H 243.428 -2.03291 -3.63976 0
M  V30 2658 H 242.088 -0.991663 -3.09186 0
M  V30 2659 H 243.099 -4.61408 -2.35209 0
M  V30 2660 H 239.776 -2.29626 -3.4868 0
M  V30 2661 H 241.166 -6.22355 -2.53227 0
M  V30 2662 N 243.887 0.651787 -1.4349 0
M  V30 2663 C 245.133 1.41376 -1.45398 0
M  V30 2664 C 245.466 1.94041 -0.0784823 0
M  V30 2665 O 244.741 1.72379 0.900878 0
M  V30 2666 C 245.024 2.59414 -2.49752 0
M  V30 2667 C 244.877 2.12232 -3.96582 0
M  V30 2668 C 246.196 3.61626 -2.50827 0
M  V30 2669 H 243.315 0.512719 -0.529422 0
M  V30 2670 H 245.957 0.738796 -1.75048 0
M  V30 2671 H 244.107 3.16997 -2.246 0
M  V30 2672 H 245.779 1.59639 -4.32797 0
M  V30 2673 H 244.022 1.43592 -4.09346 0
M  V30 2674 H 244.693 2.9712 -4.65214 0
M  V30 2675 H 247.169 3.13805 -2.7325 0
M  V30 2676 H 246.045 4.41766 -3.25783 0
M  V30 2677 H 246.306 4.14314 -1.5426 0
M  V30 2678 N 245.365 1.30045 0.890287 0
M  V30 2679 C 246.614 1.17929 1.63633 0
M  V30 2680 C 246.927 -0.266204 1.9378 0
M  V30 2681 O 248.133 -0.508804 2.6669 0
M  V30 2682 C 246.589 2.06317 2.94892 0
M  V30 2683 C 246.197 3.55745 2.72305 0
M  V30 2684 C 247.941 2.0295 3.72843 0
M  V30 2685 C 245.848 4.36205 3.99348 0
M  V30 2686 H 244.778 0.437782 0.613892 0
M  V30 2687 H 247.429 1.54754 0.986075 0
M  V30 2688 H 245.811 1.6237 3.61182 0
M  V30 2689 H 246.985 4.07805 2.1455 0
M  V30 2690 H 245.3 3.6088 2.07737 0
M  V30 2691 H 247.897 2.60319 4.67053 0
M  V30 2692 H 248.24 1.0117 4.0382 0
M  V30 2693 H 248.773 2.4499 3.13408 0
M  V30 2694 H 245.512 5.38659 3.73533 0
M  V30 2695 H 245.032 3.8891 4.56628 0
M  V30 2696 H 246.711 4.47362 4.67415 0
M  V30 2697 N 246.843 -1.10192 1.12674 0
M  V30 2698 C 248.09 -1.82205 0.883606 0
M  V30 2699 C 248.418 -1.8532 -0.590492 0
M  V30 2700 O 247.673 -1.31137 -1.45264 0
M  V30 2701 C 247.972 -3.28552 1.4067 0
M  V30 2702 C 247.638 -3.45582 2.89627 0
M  V30 2703 C 246.3 -3.49937 3.30299 0
M  V30 2704 C 248.652 -3.50768 3.85501 0
M  V30 2705 C 245.98 -3.57049 4.65546 0
M  V30 2706 C 248.332 -3.59414 5.20581 0
M  V30 2707 C 246.996 -3.62034 5.60792 0
M  V30 2708 H 246.266 -0.666735 0.323334 0
M  V30 2709 H 248.913 -1.29868 1.40736 0
M  V30 2710 H 247.218 -3.83473 0.80347 0
M  V30 2711 H 248.915 -3.82788 1.19475 0
M  V30 2712 H 245.505 -3.42871 2.57172 0
M  V30 2713 H 249.689 -3.46651 3.55171 0
M  V30 2714 H 244.945 -3.57361 4.96088 0
M  V30 2715 H 249.119 -3.62371 5.94693 0
M  V30 2716 H 246.746 -3.67298 6.6558 0
M  V30 2717 N 248.321 -0.919034 -1.28029 0
M  V30 2718 C 249.568 -0.554934 -1.94748 0
M  V30 2719 C 249.896 0.90231 -1.72304 0
M  V30 2720 O 249.151 1.65767 -1.04018 0
M  V30 2721 C 249.45 -0.816855 -3.4794 0
M  V30 2722 C 249.116 -2.25448 -3.90492 0
M  V30 2723 C 247.778 -2.64752 -4.01821 0
M  V30 2724 C 250.13 -3.18977 -4.12193 0
M  V30 2725 C 247.458 -3.96727 -4.32232 0
M  V30 2726 C 249.81 -4.50523 -4.44086 0
M  V30 2727 C 248.474 -4.89673 -4.53626 0
M  V30 2728 H 247.744 -0.203065 -0.712633 0
M  V30 2729 H 250.391 -1.16136 -1.52265 0
M  V30 2730 H 248.696 -0.127677 -3.91592 0
M  V30 2731 H 250.393 -0.514238 -3.97689 0
M  V30 2732 H 246.983 -1.93952 -3.82205 0
M  V30 2733 H 251.167 -2.89817 -4.02889 0
M  V30 2734 H 246.423 -4.26754 -4.37825 0
M  V30 2735 H 250.597 -5.23005 -4.59825 0
M  V30 2736 H 248.224 -5.91969 -4.76946 0
M  V30 2737 N 249.799 1.42003 -0.683588 0
M  V30 2738 C 251.048 2.00638 -0.206681 0
M  V30 2739 C 251.361 1.5472 1.19671 0
M  V30 2740 O 252.567 2.05833 1.77045 0
M  V30 2741 C 251.023 3.58487 -0.318632 0
M  V30 2742 C 250.631 4.1339 -1.72663 0
M  V30 2743 C 252.375 4.24384 0.0991141 0
M  V30 2744 C 250.282 5.63633 -1.79087 0
M  V30 2745 H 249.212 0.750408 -0.0735107 0
M  V30 2746 H 251.863 1.62624 -0.850048 0
M  V30 2747 H 250.245 3.94047 0.392781 0
M  V30 2748 H 251.419 3.89273 -2.46583 0
M  V30 2749 H 249.734 3.59976 -2.09299 0
M  V30 2750 H 252.331 5.34652 0.0713833 0
M  V30 2751 H 252.674 4.00505 1.13586 0
M  V30 2752 H 253.207 3.93816 -0.561599 0
M  V30 2753 H 249.946 5.92323 -2.80774 0
M  V30 2754 H 249.466 5.89714 -1.09535 0
M  V30 2755 H 251.145 6.28201 -1.5483 0
M  V30 2756 N 251.277 0.427512 1.51691 0
M  V30 2757 C 252.24 -0.377132 2.26076 0
M  V30 2758 C 253.24 -0.958089 1.29141 0
M  V30 2759 O 254.43 -0.83408 1.52934 0
M  V30 2760 C 251.562 -1.53262 3.04506 0
M  V30 2761 H 252.755 0.27464 2.9864 0
M  V30 2762 H 250.308 0.180445 1.55255 0
M  V30 2763 H 251.043 -2.22072 2.36335 0
M  V30 2764 H 250.828 -1.12232 3.75694 0
M  V30 2765 H 252.318 -2.10135 3.60878 0
M  V30 2766 N 252.755 -1.56801 0.158532 0
M  V30 2767 C 254.001 -1.96781 -0.490405 0
M  V30 2768 C 254.334 -1.04397 -1.63753 0
M  V30 2769 O 253.609 -0.0885805 -1.94298 0
M  V30 2770 C 253.892 -3.4635 -0.985594 0
M  V30 2771 C 253.745 -4.49512 0.160824 0
M  V30 2772 C 255.064 -3.98697 -1.86355 0
M  V30 2773 H 252.183 -0.715482 -0.176788 0
M  V30 2774 H 254.825 -1.88451 0.242088 0
M  V30 2775 H 252.975 -3.53579 -1.60978 0
M  V30 2776 H 254.647 -4.54353 0.797537 0
M  V30 2777 H 252.89 -4.26013 0.818256 0
M  V30 2778 H 253.561 -5.51531 -0.227569 0
M  V30 2779 H 256.037 -3.94019 -1.33746 0
M  V30 2780 H 254.913 -5.03792 -2.17909 0
M  V30 2781 H 255.174 -3.41744 -2.8047 0
M  V30 2782 N 254.233 0.115231 -1.57178 0
M  V30 2783 C 255.461 0.836437 -1.89239 0
M  V30 2784 C 255.876 1.73256 -0.750175 0
M  V30 2785 O 255.233 1.80357 0.278832 0
M  V30 2786 C 255.284 1.66671 -3.20785 0
M  V30 2787 O 255.005 0.806652 -4.3061 0
M  V30 2788 C 256.506 2.49274 -3.66575 0
M  V30 2789 H 253.726 0.240253 -0.626514 0
M  V30 2790 H 256.27 0.0984932 -2.04263 0
M  V30 2791 H 254.425 2.35737 -3.0742 0
M  V30 2792 H 254.839 1.37969 -5.06028 0
M  V30 2793 H 256.313 3.03055 -4.6137 0
M  V30 2794 H 256.79 3.26807 -2.93417 0
M  V30 2795 H 257.396 1.85443 -3.82741 0
M  V30 2796 N 255.711 1.52812 0.385517 0
M  V30 2797 C 256.658 1.77838 1.47113 0
M  V30 2798 C 257.628 0.621757 1.54024 0
M  V30 2799 O 258.813 0.861846 1.70226 0
M  V30 2800 C 255.953 1.95618 2.84302 0
M  V30 2801 C 255.066 3.23316 2.86515 0
M  V30 2802 C 254.201 3.31394 4.15152 0
M  V30 2803 C 253.24 4.53201 4.1143 0
M  V30 2804 N 252.377 4.58542 5.3168 0
M  V30 2805 H 257.217 2.70482 1.25073 0
M  V30 2806 H 254.754 1.34006 0.606692 0
M  V30 2807 H 256.712 2.03912 3.63972 0
M  V30 2808 H 255.342 1.06331 3.04784 0
M  V30 2809 H 254.394 3.24076 1.99195 0
M  V30 2810 H 255.706 4.13045 2.79634 0
M  V30 2811 H 254.86 3.3889 5.03228 0
M  V30 2812 H 253.599 2.39645 4.24761 0
M  V30 2813 H 252.604 4.45827 3.21742 0
M  V30 2814 H 253.829 5.46271 4.03442 0
M  V30 2815 H 251.775 3.69686 5.41912 0
M  V30 2816 H 251.692 5.42148 5.26889 0
M  V30 2817 H 252.96 4.70296 6.21644 0
M  V30 2818 N 257.189 -0.644168 1.43834 0
M  V30 2819 C 258.438 -1.39985 1.45214 0
M  V30 2820 C 258.751 -1.95421 0.0835494 0
M  V30 2821 O 259.957 -2.71488 -0.0251748 0
M  V30 2822 C 258.413 -2.53384 2.55587 0
M  V30 2823 C 258.021 -2.04517 3.98594 0
M  V30 2824 C 259.765 -3.30685 2.66172 0
M  V30 2825 C 257.672 -3.1518 5.00416 0
M  V30 2826 H 256.602 -0.526005 0.540218 0
M  V30 2827 H 259.253 -0.694367 1.69855 0
M  V30 2828 H 257.635 -3.26446 2.24163 0
M  V30 2829 H 258.809 -1.38405 4.39523 0
M  V30 2830 H 257.124 -1.40068 3.92135 0
M  V30 2831 H 259.721 -4.13158 3.39418 0
M  V30 2832 H 260.064 -3.79312 1.71546 0
M  V30 2833 H 260.597 -2.64708 2.96942 0
M  V30 2834 H 257.336 -2.71511 5.96625 0
M  V30 2835 H 256.856 -3.79974 4.64091 0
M  V30 2836 H 258.535 -3.80166 5.23529 0
M  V30 2837 N 258.668 -1.30515 -0.883378 0
M  V30 2838 C 260.079 -1.17509 -1.45081 0
M  V30 2839 C 260.43 0.223605 -1.94922 0
M  V30 2840 O 259.555 1.12041 -1.85137 0
M  V30 2841 C 260.15 -2.12715 -2.63701 0
M  V30 2842 C 258.709 -2.03682 -3.16529 0
M  V30 2843 C 257.856 -2.02706 -1.89224 0
M  V30 2844 H 260.807 -1.42762 -0.693165 0
M  V30 2845 H 260.828 -1.70891 -3.39965 0
M  V30 2846 H 260.34 -3.14505 -2.27395 0
M  V30 2847 H 258.441 -1.05039 -3.57488 0
M  V30 2848 H 258.554 -2.92146 -3.7972 0
M  V30 2849 H 256.918 -1.4753 -2.07622 0
M  V30 2850 H 257.701 -3.06229 -1.55174 0
M  V30 2851 N 260.146 1.09593 -1.13257 0
M  V30 2852 C 261.392 1.82003 -0.89458 0
M  V30 2853 C 261.725 1.85402 0.577906 0
M  V30 2854 O 261 1.32099 1.42759 0
M  V30 2855 C 261.283 3.28237 -1.48096 0
M  V30 2856 C 261.136 3.3312 -3.02244 0
M  V30 2857 C 262.455 4.24871 -1.14774 0
M  V30 2858 H 259.574 0.66077 -0.326424 0
M  V30 2859 H 262.216 1.28389 -1.40058 0
M  V30 2860 H 260.366 3.74024 -1.05062 0
M  V30 2861 H 262.038 2.95748 -3.54021 0
M  V30 2862 H 260.281 2.72756 -3.37323 0
M  V30 2863 H 260.952 4.3613 -3.38371 0
M  V30 2864 H 263.428 3.87361 -1.51957 0
M  V30 2865 H 262.304 5.25532 -1.58452 0
M  V30 2866 H 262.565 4.42058 -0.0611849 0
M  V30 2867 N 261.624 0.925811 1.2754 0
M  V30 2868 C 262.554 0.440748 2.29303 0
M  V30 2869 C 263.535 -0.497971 1.62648 0
M  V30 2870 O 264.72 -0.403126 1.8997 0
M  V30 2871 C 261.85 -0.309048 3.45922 0
M  V30 2872 C 260.804 0.54166 4.24559 0
M  V30 2873 C 260.13 -0.337191 5.33636 0
M  V30 2874 C 261.43 1.80516 4.90114 0
M  V30 2875 H 263.124 1.29121 2.70126 0
M  V30 2876 H 260.67 0.622323 1.29858 0
M  V30 2877 H 262.623 -0.659315 4.1621 0
M  V30 2878 H 261.347 -1.19352 3.04011 0
M  V30 2879 H 260.006 0.874609 3.56014 0
M  V30 2880 H 259.654 -1.22056 4.87966 0
M  V30 2881 H 259.354 0.228497 5.87156 0
M  V30 2882 H 260.878 -0.683072 6.06767 0
M  V30 2883 H 262.292 1.52307 5.52698 0
M  V30 2884 H 260.689 2.3142 5.53683 0
M  V30 2885 H 261.759 2.52581 4.13921 0
M  V30 2886 N 263.102 -1.41638 0.69111 0
M  V30 2887 C 264.065 -2.29178 0.0319786 0
M  V30 2888 C 265.065 -1.44153 -0.712496 0
M  V30 2889 O 266.255 -1.65354 -0.548053 0
M  V30 2890 C 263.387 -3.26952 -0.965161 0
M  V30 2891 H 264.58 -2.88959 0.802681 0
M  V30 2892 H 262.133 -1.4955 0.454356 0
M  V30 2893 H 262.868 -2.72142 -1.76378 0
M  V30 2894 H 262.653 -3.89685 -0.434522 0
M  V30 2895 H 264.143 -3.92561 -1.42428 0
M  V30 2896 N 264.58 -0.43555 -1.51462 0
M  V30 2897 C 265.528 0.391205 -2.29287 0
M  V30 2898 C 266.522 1.02247 -1.35062 0
M  V30 2899 O 267.728 0.957646 -1.52411 0
M  V30 2900 H 264.103 0.144968 -0.737895 0
M  V30 2901 H 266.074 -0.286051 -2.97026 0
M  V30 2902 C 264.823 1.48096 -3.14583 0
M  V30 2903 H 264.146 1.00457 -3.86973 0
M  V30 2904 H 265.586 2.03273 -3.72097 0
M  V30 2905 C 264.045 2.46321 -2.29843 0
M  V30 2906 O 264.575 3.50815 -1.95682 0
M  V30 2907 N 262.781 2.17166 -1.931 0
M  V30 2908 H 262.328 1.32218 -2.21079 0
M  V30 2909 H 262.286 2.83127 -1.36698 0
M  V30 2910 N 266.058 1.56714 -0.166846 0
M  V30 2911 C 267.474 1.58473 0.189372 0
M  V30 2912 C 267.674 1.18201 1.63189 0
M  V30 2913 O 266.73 0.891528 2.36237 0
M  V30 2914 C 268.043 3.00573 -0.0873872 0
M  V30 2915 C 269.591 3.1299 -0.0252443 0
M  V30 2916 C 270.066 4.57174 -0.274934 0
M  V30 2917 N 271.557 4.62665 -0.222553 0
M  V30 2918 C 272.292 5.72072 -0.389985 0
M  V30 2919 N 271.788 6.90054 -0.616229 0
M  V30 2920 N 273.581 5.61153 -0.326202 0
M  V30 2921 H 265.732 1.8118 -1.10849 0
M  V30 2922 H 267.995 0.839525 -0.440342 0
M  V30 2923 H 267.701 3.34497 -1.0865 0
M  V30 2924 H 267.575 3.72019 0.623037 0
M  V30 2925 H 269.962 2.78895 0.96444 0
M  V30 2926 H 270.043 2.43989 -0.768309 0
M  V30 2927 H 269.687 4.91976 -1.26181 0
M  V30 2928 H 269.617 5.24328 0.48869 0
M  V30 2929 H 272.108 3.77863 -0.0531512 0
M  V30 2930 H 272.421 7.69311 -0.733559 0
M  V30 2931 H 270.766 6.91927 -0.652791 0
M  V30 2932 H 273.957 4.67859 -0.150072 0
M  V30 2933 H 274.13 6.46364 -0.460116 0
M  V30 2934 N 267.536 -0.106894 1.57237 0
M  V30 2935 C 268.782 -0.81373 1.85759 0
M  V30 2936 C 269.115 -1.78952 0.754315 0
M  V30 2937 O 268.39 -1.93029 -0.23879 0
M  V30 2938 C 268.673 -1.55293 3.24894 0
M  V30 2939 C 268.526 -0.595929 4.45835 0
M  V30 2940 C 269.845 -2.5063 3.61763 0
M  V30 2941 H 266.964 -0.294369 0.67566 0
M  V30 2942 H 269.606 -0.0776472 1.89841 0
M  V30 2943 H 267.756 -2.1804 3.21544 0
M  V30 2944 H 269.428 0.0236262 4.61294 0
M  V30 2945 H 267.671 0.0916191 4.33703 0
M  V30 2946 H 268.342 -1.15004 5.39887 0
M  V30 2947 H 270.818 -1.97982 3.65981 0
M  V30 2948 H 269.694 -2.99376 4.60071 0
M  V30 2949 H 269.955 -3.3385 2.89821 0
M  V30 2950 N 269.014 -1.53014 -0.377408 0
M  V30 2951 C 269.944 -1.81589 -1.46791 0
M  V30 2952 C 270.925 -0.668622 -1.56408 0
M  V30 2953 O 272.11 -0.917337 -1.71168 0
M  V30 2954 C 269.24 -1.99519 -2.8427 0
M  V30 2955 C 268.194 -3.15249 -2.89486 0
M  V30 2956 C 267.52 -3.18451 -4.29527 0
M  V30 2957 C 268.82 -4.54084 -2.58079 0
M  V30 2958 H 270.514 -2.7291 -1.23127 0
M  V30 2959 H 268.06 -1.31319 -0.590883 0
M  V30 2960 H 270.013 -2.18092 -3.60575 0
M  V30 2961 H 268.737 -1.04897 -3.09296 0
M  V30 2962 H 267.396 -2.96477 -2.15631 0
M  V30 2963 H 267.044 -2.2149 -4.5161 0
M  V30 2964 H 266.744 -3.962 -4.33934 0
M  V30 2965 H 268.268 -3.39193 -5.07721 0
M  V30 2966 H 269.682 -4.72899 -3.24098 0
M  V30 2967 H 268.079 -5.33987 -2.7382 0
M  V30 2968 H 269.149 -4.60006 -1.53372 0
M  V30 2969 N 270.492 0.636531 -1.44174 0
M  V30 2970 C 271.424 1.7618 -1.46606 0
M  V30 2971 C 272.437 1.58768 -0.360091 0
M  V30 2972 O 273.626 1.67181 -0.625518 0
M  V30 2973 C 270.726 3.13833 -1.27915 0
M  V30 2974 C 269.899 3.57753 -2.51658 0
M  V30 2975 C 268.958 4.74265 -2.27945 0
M  V30 2976 O 267.984 4.82852 -3.01401 0
M  V30 2977 N 269.186 5.65604 -1.30662 0
M  V30 2978 H 271.951 1.74567 -2.43612 0
M  V30 2979 H 269.512 0.820924 -1.39544 0
M  V30 2980 H 271.504 3.8949 -1.09907 0
M  V30 2981 H 270.074 3.10121 -0.39293 0
M  V30 2982 H 269.294 2.72362 -2.84978 0
M  V30 2983 H 270.582 3.83847 -3.33974 0
M  V30 2984 H 269.98 5.61354 -0.699844 0
M  V30 2985 H 268.537 6.40913 -1.18634 0
M  V30 2986 N 271.97 1.30982 0.876444 0
M  V30 2987 C 273.2 1.23063 1.65949 0
M  V30 2988 C 273.608 -0.207537 1.88058 0
M  V30 2989 O 272.951 -1.14781 1.43426 0
M  V30 2990 C 273.013 1.89768 3.05333 0
M  V30 2991 C 272.677 3.39106 3.0636 0
M  V30 2992 C 273.674 4.3496 2.84791 0
M  V30 2993 C 271.359 3.80693 3.27686 0
M  V30 2994 C 273.353 5.70375 2.84519 0
M  V30 2995 C 271.04 5.16223 3.27043 0
M  V30 2996 C 272.038 6.10875 3.05485 0
M  V30 2997 O 271.726 7.43928 3.04674 0
M  V30 2998 H 271.458 0.426685 0.524324 0
M  V30 2999 H 274.012 1.7329 1.10271 0
M  V30 3000 H 272.242 1.34082 3.6271 0
M  V30 3001 H 273.931 1.75853 3.65829 0
M  V30 3002 H 274.697 4.0416 2.68103 0
M  V30 3003 H 270.576 3.07457 3.43499 0
M  V30 3004 H 274.12 6.44228 2.67611 0
M  V30 3005 H 270.017 5.4666 3.43269 0
M  V30 3006 H 270.785 7.53022 3.2078 0
M  V30 3007 N 273.449 -1.08991 1.13837 0
M  V30 3008 C 274.379 -2.17771 0.842507 0
M  V30 3009 C 275.36 -1.6892 -0.20001 0
M  V30 3010 O 276.545 -1.94113 -0.0579731 0
M  V30 3011 C 273.675 -3.4589 0.312644 0
M  V30 3012 C 272.629 -4.08099 1.28992 0
M  V30 3013 C 271.955 -5.31098 0.619623 0
M  V30 3014 C 273.255 -4.50077 2.65005 0
M  V30 3015 H 274.949 -2.42777 1.75213 0
M  V30 3016 H 272.495 -1.16682 0.843875 0
M  V30 3017 H 274.448 -4.21297 0.0933043 0
M  V30 3018 H 273.172 -3.20419 -0.632382 0
M  V30 3019 H 271.831 -3.34717 1.49533 0
M  V30 3020 H 271.479 -5.0191 -0.33102 0
M  V30 3021 H 271.179 -5.73674 1.27167 0
M  V30 3022 H 272.703 -6.09224 0.409669 0
M  V30 3023 H 274.117 -5.16688 2.48407 0
M  V30 3024 H 272.514 -5.03553 3.26427 0
M  V30 3025 H 273.584 -3.62257 3.22332 0
M  V30 3026 N 274.927 -0.932562 -1.27047 0
M  V30 3027 C 276.176 -0.571351 -1.93439 0
M  V30 3028 C 276.489 0.892467 -1.74053 0
M  V30 3029 O 277.695 1.36267 -2.34826 0
M  V30 3030 C 276.151 -0.97106 -3.46552 0
M  V30 3031 C 275.759 -2.4559 -3.74686 0
M  V30 3032 C 277.503 -0.681333 -4.18997 0
M  V30 3033 C 275.41 -2.79475 -5.21198 0
M  V30 3034 H 274.34 -0.209966 -0.724176 0
M  V30 3035 H 276.991 -1.13403 -1.44263 0
M  V30 3036 H 275.373 -0.336983 -3.94564 0
M  V30 3037 H 276.547 -3.13829 -3.37414 0
M  V30 3038 H 274.862 -2.71802 -3.15456 0
M  V30 3039 H 277.459 -0.910939 -5.26883 0
M  V30 3040 H 277.802 0.381628 -4.14547 0
M  V30 3041 H 278.335 -1.27473 -3.76823 0
M  V30 3042 H 275.074 -3.847 -5.30741 0
M  V30 3043 H 274.594 -2.1589 -5.596 0
M  V30 3044 H 276.273 -2.67478 -5.89122 0
M  V30 3045 N 276.405 1.4127 -0.698611 0
M  V30 3046 C 277.355 2.27997 -0.0119836 0
M  V30 3047 C 278.339 1.42363 0.749765 0
M  V30 3048 O 279.531 1.65607 0.624758 0
M  V30 3049 C 276.66 3.30702 0.921458 0
M  V30 3050 C 275.746 4.23814 0.155796 0
M  V30 3051 N 276.137 4.98572 -0.852015 0
M  V30 3052 C 274.435 4.44284 0.390836 0
M  V30 3053 C 275.136 5.66744 -1.3106 0
M  V30 3054 N 274.112 5.39867 -0.635944 0
M  V30 3055 H 277.914 2.83232 -0.784649 0
M  V30 3056 H 275.428 1.53518 -0.529711 0
M  V30 3057 H 277.425 3.91661 1.42854 0
M  V30 3058 H 276.085 2.77028 1.69369 0
M  V30 3059 H 277.096 5.03024 -1.23235 0
M  V30 3060 H 273.773 4.01614 1.14071 0
M  V30 3061 H 275.163 6.36672 -2.14707 0
M  V30 3062 N 277.883 0.443576 1.51229 0
M  V30 3063 C 278.846 -0.353132 2.26463 0
M  V30 3064 C 279.846 -0.944338 1.3015 0
M  V30 3065 O 281.036 -0.817813 1.5381 0
M  V30 3066 C 278.168 -1.50023 3.06114 0
M  V30 3067 H 279.361 0.3063 2.98332 0
M  V30 3068 H 276.914 0.196902 1.55055 0
M  V30 3069 H 277.649 -2.19553 2.38677 0
M  V30 3070 H 277.434 -1.08241 3.76864 0
M  V30 3071 H 278.924 -2.06296 3.63087 0
M  V30 3072 N 279.361 -1.56624 0.175154 0
M  V30 3073 C 280.608 -1.96999 -0.468811 0
M  V30 3074 C 280.936 -1.06129 -1.62994 0
M  V30 3075 O 280.191 -0.0961771 -1.95464 0
M  V30 3076 C 280.49 -3.43419 -0.989864 0
M  V30 3077 C 280.156 -4.50866 0.0557687 0
M  V30 3078 C 278.818 -4.79975 0.343134 0
M  V30 3079 C 281.17 -5.15551 0.765308 0
M  V30 3080 C 278.498 -5.71066 1.34536 0
M  V30 3081 C 280.85 -6.07724 1.75654 0
M  V30 3082 C 279.514 -6.35199 2.05132 0
M  V30 3083 H 278.784 -0.720869 -0.17155 0
M  V30 3084 H 281.431 -1.89616 0.267924 0
M  V30 3085 H 279.736 -3.47772 -1.80449 0
M  V30 3086 H 281.433 -3.72002 -1.49719 0
M  V30 3087 H 278.023 -4.28229 -0.178381 0
M  V30 3088 H 282.207 -4.9317 0.556513 0
M  V30 3089 H 277.463 -5.90635 1.57988 0
M  V30 3090 H 281.637 -6.56912 2.31169 0
M  V30 3091 H 279.264 -7.05584 2.8294 0
M  V30 3092 N 280.839 0.0985539 -1.57292 0
M  V30 3093 C 281.771 1.14595 -1.98496 0
M  V30 3094 C 282.784 1.36512 -0.887031 0
M  V30 3095 O 283.973 1.35225 -1.16518 0
M  V30 3096 C 281.073 2.50216 -2.28572 0
M  V30 3097 C 280.246 2.48624 -3.59868 0
M  V30 3098 C 279.305 3.66146 -3.7792 0
M  V30 3099 O 278.331 3.48795 -4.49812 0
M  V30 3100 N 279.533 4.85496 -3.18235 0
M  V30 3101 H 282.298 0.795277 -2.88956 0
M  V30 3102 H 279.859 0.287579 -1.59325 0
M  V30 3103 H 281.851 3.27432 -2.37845 0
M  V30 3104 H 280.421 2.77387 -1.44136 0
M  V30 3105 H 279.641 1.56978 -3.61596 0
M  V30 3106 H 280.929 2.44635 -4.46129 0
M  V30 3107 H 280.327 5.02497 -2.59833 0
M  V30 3108 H 278.884 5.60317 -3.32999 0
M  V30 3109 N 282.317 1.53212 0.369288 0
M  V30 3110 C 283.566 1.68436 1.10961 0
M  V30 3111 C 283.879 0.440738 1.9057 0
M  V30 3112 O 285.085 0.473446 2.6734 0
M  V30 3113 C 283.541 2.97744 2.0218 0
M  V30 3114 C 283.149 4.29355 1.279 0
M  V30 3115 C 284.893 3.22334 2.76226 0
M  V30 3116 C 282.8 5.49755 2.17999 0
M  V30 3117 H 281.73 0.627568 0.41794 0
M  V30 3118 H 284.381 1.79713 0.370884 0
M  V30 3119 H 282.763 2.8026 2.79768 0
M  V30 3120 H 283.937 4.57458 0.554007 0
M  V30 3121 H 282.252 4.11179 0.657311 0
M  V30 3122 H 284.849 4.09471 3.43857 0
M  V30 3123 H 285.192 2.38238 3.41392 0
M  V30 3124 H 285.725 3.40475 2.05723 0
M  V30 3125 H 282.464 6.36318 1.57417 0
M  V30 3126 H 281.984 5.25937 2.88359 0
M  V30 3127 H 283.663 5.84401 2.77641 0
M  V30 3128 N 283.795 -0.628877 1.44509 0
M  V30 3129 C 285.072 -1.38733 1.37886 0
M  V30 3130 C 285.452 -2.11065 0.0387008 0
M  V30 3131 O 284.8 -2.06476 -0.97878 0
M  V30 3132 C 285.01 -2.35188 2.57852 0
M  V30 3133 C 286.358 -2.9845 3.02014 0
M  V30 3134 O 287.382 -2.45513 2.58073 0
M  V30 3135 O 286.241 -3.94487 3.78209 0
M  V30 3136 H 283.335 -0.621015 0.54614 0
M  V30 3137 H 285.881 -0.653744 1.56602 0
M  V30 3138 H 284.653 -1.80855 3.46998 0
M  V30 3139 H 284.276 -3.1596 2.4136 0
M  V30 3140 N 285.273 -1.31445 -0.869486 0
M  V30 3141 C 286.52 -1.21158 -1.62256 0
M  V30 3142 C 286.848 0.230155 -1.93133 0
M  V30 3143 O 286.103 1.17906 -1.56194 0
M  V30 3144 C 286.402 -2.00145 -2.96102 0
M  V30 3145 C 286.068 -3.4964 -2.84715 0
M  V30 3146 C 284.73 -3.90403 -2.81317 0
M  V30 3147 C 287.082 -4.44769 -2.71716 0
M  V30 3148 C 284.41 -5.24561 -2.62778 0
M  V30 3149 C 286.762 -5.79054 -2.54714 0
M  V30 3150 C 285.426 -6.19037 -2.49699 0
M  V30 3151 H 284.696 -0.443348 -0.593737 0
M  V30 3152 H 287.343 -1.62715 -1.00976 0
M  V30 3153 H 285.648 -1.5127 -3.6142 0
M  V30 3154 H 287.345 -1.89566 -3.53363 0
M  V30 3155 H 283.935 -3.17256 -2.88178 0
M  V30 3156 H 288.119 -4.14208 -2.73397 0
M  V30 3157 H 283.375 -5.54613 -2.57321 0
M  V30 3158 H 287.549 -6.52393 -2.43632 0
M  V30 3159 H 285.176 -7.22935 -2.35093 0
M  V30 3160 N 286.751 1.08385 -1.14413 0
M  V30 3161 C 287.681 2.17321 -0.854044 0
M  V30 3162 C 288.662 1.69024 0.191049 0
M  V30 3163 O 289.847 1.94141 0.0476779 0
M  V30 3164 C 286.977 3.45719 -0.330983 0
M  V30 3165 C 285.931 4.07409 -1.31155 0
M  V30 3166 C 285.257 5.30762 -0.64778 0
M  V30 3167 C 286.557 4.48665 -2.67388 0
M  V30 3168 H 288.251 2.41845 -1.76498 0
M  V30 3169 H 285.797 1.16233 -0.850051 0
M  V30 3170 H 287.75 4.21241 -0.115645 0
M  V30 3171 H 286.474 3.2075 0.615381 0
M  V30 3172 H 285.133 3.33919 -1.51306 0
M  V30 3173 H 284.781 5.02078 0.304398 0
M  V30 3174 H 284.481 5.72992 -1.30207 0
M  V30 3175 H 286.005 6.08998 -0.441972 0
M  V30 3176 H 287.419 5.15364 -2.51143 0
M  V30 3177 H 285.816 5.01814 -3.29093 0
M  V30 3178 H 286.886 3.60543 -3.24248 0
M  V30 3179 N 288.23 0.939286 1.26551 0
M  V30 3180 C 289.455 0.602008 1.98471 0
M  V30 3181 C 289.88 -0.815624 1.69497 0
M  V30 3182 O 289.238 -1.54912 0.941905 0
M  V30 3183 C 289.286 0.848407 3.50477 0
M  V30 3184 O 288.39 -0.0804009 4.12322 0
M  V30 3185 H 287.731 0.23049 0.622712 0
M  V30 3186 H 290.261 1.2617 1.61066 0
M  V30 3187 H 290.271 0.768553 4.00696 0
M  V30 3188 H 288.946 1.88171 3.70897 0
M  V30 3189 H 287.523 0.0503508 3.72866 0
M  V30 3190 N 289.708 -1.40897 0.706093 0
M  V30 3191 C 290.64 -2.29199 0.00815776 0
M  V30 3192 C 291.653 -1.45336 -0.733582 0
M  V30 3193 O 292.842 -1.68727 -0.582537 0
M  V30 3194 C 289.942 -3.23417 -1.01265 0
M  V30 3195 C 289.115 -4.36089 -0.338387 0
M  V30 3196 C 288.174 -5.10811 -1.26326 0
M  V30 3197 O 287.2 -5.64215 -0.751651 0
M  V30 3198 N 288.402 -5.19269 -2.595 0
M  V30 3199 H 291.167 -2.89738 0.766297 0
M  V30 3200 H 288.728 -1.52164 0.55296 0
M  V30 3201 H 290.72 -3.70276 -1.63334 0
M  V30 3202 H 289.29 -2.64112 -1.67223 0
M  V30 3203 H 288.51 -3.91479 0.462352 0
M  V30 3204 H 289.798 -5.08634 0.130031 0
M  V30 3205 H 289.196 -4.77347 -3.03573 0
M  V30 3206 H 287.753 -5.69667 -3.16737 0
M  V30 3207 N 291.186 -0.45159 -1.50991 0
M  V30 3208 C 292.414 0.108334 -2.06616 0
M  V30 3209 C 292.829 1.35224 -1.31757 0
M  V30 3210 O 292.186 1.78475 -0.381174 0
M  V30 3211 C 292.237 0.41619 -3.59096 0
M  V30 3212 O 291.958 -0.778361 -4.3113 0
M  V30 3213 C 293.459 1.02523 -4.31282 0
M  V30 3214 H 290.679 0.00159995 -0.670998 0
M  V30 3215 H 293.223 -0.634771 -1.94399 0
M  V30 3216 H 291.378 1.10921 -3.71181 0
M  V30 3217 H 291.792 -0.511181 -5.22003 0
M  V30 3218 H 293.266 1.19053 -5.39009 0
M  V30 3219 H 293.743 2.01013 -3.905 0
M  V30 3220 H 294.349 0.371173 -4.23677 0
M  V30 3221 N 292.664 1.56529 -0.183458 0
M  V30 3222 C 293.889 2.02064 0.467428 0
M  V30 3223 C 294.314 1.06282 1.55196 0
M  V30 3224 O 293.672 0.0443565 1.81246 0
M  V30 3225 C 293.72 3.46122 1.01153 0
M  V30 3226 O 292.824 3.53437 2.12499 0
M  V30 3227 H 292.165 0.654726 0.110588 0
M  V30 3228 H 294.695 2.02521 -0.290917 0
M  V30 3229 H 294.705 3.85676 1.33108 0
M  V30 3230 H 293.38 4.15331 0.217533 0
M  V30 3231 H 291.957 3.2575 1.81497 0
M  V30 3232 N 294.142 -0.090211 1.57342 0
M  V30 3233 C 295.391 -0.791531 1.8552 0
M  V30 3234 C 295.704 -1.79659 0.773441 0
M  V30 3235 O 296.91 -2.54616 0.942497 0
M  V30 3236 C 295.366 -1.45856 3.2902 0
M  V30 3237 C 294.974 -0.493017 4.45279 0
M  V30 3238 C 296.718 -2.14332 3.66418 0
M  V30 3239 C 294.625 -1.16491 5.79814 0
M  V30 3240 H 293.555 -0.299356 0.692027 0
M  V30 3241 H 296.206 -0.0445343 1.83446 0
M  V30 3242 H 294.588 -2.25318 3.2565 0
M  V30 3243 H 295.762 0.270464 4.60006 0
M  V30 3244 H 294.077 0.0863061 4.16311 0
M  V30 3245 H 296.674 -2.65344 4.64216 0
M  V30 3246 H 297.017 -2.93447 2.95287 0
M  V30 3247 H 297.55 -1.41724 3.71698 0
M  V30 3248 H 294.289 -0.41447 6.54188 0
M  V30 3249 H 293.809 -1.8997 5.68921 0
M  V30 3250 H 295.488 -1.69001 6.24538 0
M  V30 3251 N 295.62 -1.53406 -0.361157 0
M  V30 3252 C 296.897 -1.60411 -1.11927 0
M  V30 3253 C 297.277 -0.414385 -2.06993 0
M  V30 3254 O 296.625 0.594976 -2.20618 0
M  V30 3255 C 296.835 -2.95652 -1.85448 0
M  V30 3256 C 298.183 -3.50386 -2.39823 0
M  V30 3257 O 299.207 -2.97711 -1.95568 0
M  V30 3258 O 298.066 -4.42482 -3.20737 0
M  V30 3259 H 295.16 -0.64811 -0.513695 0
M  V30 3260 H 297.706 -1.65749 -0.364065 0
M  V30 3261 H 296.478 -3.73682 -1.16091 0
M  V30 3262 H 296.101 -2.93825 -2.67866 0
M  V30 3263 N 297.098 0.621204 -1.44841 0
M  V30 3264 C 298.347 1.37658 -1.47422 0
M  V30 3265 C 298.66 1.95264 -0.114629 0
M  V30 3266 O 299.866 2.71494 -0.0180199 0
M  V30 3267 C 298.322 2.49285 -2.59586 0
M  V30 3268 C 297.93 1.98149 -4.01797 0
M  V30 3269 C 299.674 3.26409 -2.71399 0
M  V30 3270 C 297.581 3.07178 -5.05367 0
M  V30 3271 H 296.511 0.517344 -0.548517 0
M  V30 3272 H 299.162 0.667257 -1.70938 0
M  V30 3273 H 297.544 3.22839 -2.29328 0
M  V30 3274 H 298.718 1.31395 -4.41669 0
M  V30 3275 H 297.033 1.33812 -3.94314 0
M  V30 3276 H 299.63 4.07706 -3.45948 0
M  V30 3277 H 299.973 3.76535 -1.77559 0
M  V30 3278 H 300.506 2.5995 -3.01116 0
M  V30 3279 H 297.245 2.61985 -6.00869 0
M  V30 3280 H 296.765 3.72542 -4.70077 0
M  V30 3281 H 298.444 3.71789 -5.29511 0
M  V30 3282 N 298.576 1.31904 0.862503 0
M  V30 3283 C 299.823 1.22017 1.61611 0
M  V30 3284 C 300.151 -0.21991 1.93253 0
M  V30 3285 O 299.406 -1.17076 1.56817 0
M  V30 3286 C 299.705 2.01713 2.95037 0
M  V30 3287 C 299.371 3.51145 2.82857 0
M  V30 3288 C 298.033 3.91889 2.79243 0
M  V30 3289 C 300.385 4.46204 2.69353 0
M  V30 3290 C 297.713 5.25947 2.59993 0
M  V30 3291 C 300.065 5.80397 2.5164 0
M  V30 3292 C 298.729 6.20352 2.46413 0
M  V30 3293 H 297.999 0.44649 0.591378 0
M  V30 3294 H 300.646 1.63248 1.00111 0
M  V30 3295 H 298.951 1.53185 3.60613 0
M  V30 3296 H 300.648 1.91437 3.52353 0
M  V30 3297 H 297.238 3.1878 2.86491 0
M  V30 3298 H 301.422 4.15652 2.71196 0
M  V30 3299 H 296.678 5.5597 2.54376 0
M  V30 3300 H 300.852 6.53676 2.40169 0
M  V30 3301 H 298.479 7.24172 2.31256 0
M  V30 3302 N 300.054 -1.07777 1.14986 0
M  V30 3303 C 301.001 -2.14867 0.842672 0
M  V30 3304 C 301.971 -1.6486 -0.202552 0
M  V30 3305 O 303.156 -1.90668 -0.0710568 0
M  V30 3306 C 300.296 -3.43486 0.333363 0
M  V30 3307 C 299.409 -4.07306 1.43965 0
M  V30 3308 C 298.544 -5.23744 0.886914 0
M  V30 3309 C 297.583 -5.79517 1.97043 0
M  V30 3310 N 296.72 -6.87291 1.4344 0
M  V30 3311 H 301.56 -2.40485 1.75986 0
M  V30 3312 H 299.097 -1.1801 0.878179 0
M  V30 3313 H 301.055 -4.17195 0.0198163 0
M  V30 3314 H 299.685 -3.18133 -0.546916 0
M  V30 3315 H 298.737 -3.31293 1.86946 0
M  V30 3316 H 300.049 -4.44771 2.25788 0
M  V30 3317 H 299.203 -6.04419 0.525651 0
M  V30 3318 H 297.942 -4.87685 0.0377957 0
M  V30 3319 H 296.947 -4.97491 2.34057 0
M  V30 3320 H 298.172 -6.17632 2.82325 0
M  V30 3321 H 296.118 -6.5318 0.607567 0
M  V30 3322 H 296.035 -7.23617 2.18895 0
M  V30 3323 H 297.303 -7.71682 1.10124 0
M  V30 3324 N 301.532 -0.945985 -1.26051 0
M  V30 3325 C 302.464 -0.416662 -2.25381 0
M  V30 3326 C 303.477 0.462712 -1.56086 0
M  V30 3327 O 304.666 0.272383 -1.7641 0
M  V30 3328 C 301.766 0.419812 -3.3629 0
M  V30 3329 C 300.939 -0.444531 -4.35135 0
M  V30 3330 C 299.998 0.332305 -5.2515 0
M  V30 3331 O 299.024 -0.266324 -5.68577 0
M  V30 3332 N 300.226 1.62763 -5.57215 0
M  V30 3333 H 302.991 -1.27059 -2.71433 0
M  V30 3334 H 300.552 -0.815392 -1.39868 0
M  V30 3335 H 302.544 0.947013 -3.93464 0
M  V30 3336 H 301.114 1.17456 -2.89694 0
M  V30 3337 H 300.334 -1.15291 -3.76964 0
M  V30 3338 H 301.622 -1.03478 -4.98166 0
M  V30 3339 H 301.02 2.13603 -5.23823 0
M  V30 3340 H 299.577 2.10097 -6.17011 0
M  V30 3341 N 303.011 1.40521 -0.713556 0
M  V30 3342 C 303.958 2.30723 -0.059684 0
M  V30 3343 C 304.928 1.48079 0.752448 0
M  V30 3344 O 306.113 1.76823 0.71681 0
M  V30 3345 C 303.253 3.34274 0.857594 0
M  V30 3346 C 302.366 4.31986 0.0351536 0
M  V30 3347 C 301.501 5.22605 0.951724 0
M  V30 3348 C 300.54 6.11976 0.123253 0
M  V30 3349 N 299.677 6.9502 0.99459 0
M  V30 3350 H 304.517 2.86074 -0.834596 0
M  V30 3351 H 302.054 1.40879 -0.42326 0
M  V30 3352 H 304.012 3.92879 1.40364 0
M  V30 3353 H 302.642 2.8043 1.59871 0
M  V30 3354 H 301.694 3.7518 -0.628052 0
M  V30 3355 H 303.006 4.95101 -0.606347 0
M  V30 3356 H 302.16 5.86131 1.56638 0
M  V30 3357 H 300.899 4.59759 1.62705 0
M  V30 3358 H 299.904 5.47482 -0.50435 0
M  V30 3359 H 301.129 6.76881 -0.548539 0
M  V30 3360 H 299.075 6.34764 1.6556 0
M  V30 3361 H 298.992 7.54892 0.40908 0
M  V30 3362 H 300.26 7.62997 1.59549 0
M  V30 3363 N 304.489 0.459591 1.5075 0
M  V30 3364 C 305.452 -0.329093 2.26825 0
M  V30 3365 C 306.452 -0.930481 1.31144 0
M  V30 3366 O 307.642 -0.801453 1.54669 0
M  V30 3367 C 304.774 -1.46768 3.07688 0
M  V30 3368 H 305.967 0.337924 2.9799 0
M  V30 3369 H 303.52 0.213336 1.54837 0
M  V30 3370 H 304.255 -2.17009 2.40993 0
M  V30 3371 H 304.04 -1.04238 3.77991 0
M  V30 3372 H 305.53 -2.02433 3.65254 0
M  V30 3373 N 305.967 -1.56429 0.191757 0
M  V30 3374 C 307.195 -2.01867 -0.453586 0
M  V30 3375 C 307.61 -1.07191 -1.5542 0
M  V30 3376 O 306.967 -0.0762108 -1.82341 0
M  V30 3377 C 307.018 -3.47017 -1.013 0
M  V30 3378 O 306.739 -4.38078 0.0437005 0
M  V30 3379 C 308.24 -4.07956 -1.73456 0
M  V30 3380 H 305.46 -0.661211 -0.114199 0
M  V30 3381 H 308.004 -2.02295 0.299483 0
M  V30 3382 H 306.159 -3.47298 -1.71647 0
M  V30 3383 H 306.573 -5.23178 -0.372212 0
M  V30 3384 H 308.047 -5.1138 -2.07833 0
M  V30 3385 H 308.524 -3.51222 -2.63704 0
M  V30 3386 H 309.13 -4.11437 -1.07702 0
M  V30 3387 N 307.445 0.0818655 -1.57387 0
M  V30 3388 C 308.691 0.784074 -1.8703 0
M  V30 3389 C 309.024 1.77729 -0.782689 0
M  V30 3390 O 308.299 1.93384 0.208051 0
M  V30 3391 C 308.582 1.50105 -3.27323 0
M  V30 3392 C 308.435 0.524925 -4.46727 0
M  V30 3393 C 309.754 2.44843 -3.65705 0
M  V30 3394 H 306.873 0.283582 -0.680257 0
M  V30 3395 H 309.515 0.0474352 -1.89941 0
M  V30 3396 H 307.665 2.12897 -3.24972 0
M  V30 3397 H 309.337 -0.0970111 -4.61198 0
M  V30 3398 H 307.58 -0.160606 -4.33503 0
M  V30 3399 H 308.251 1.064 -5.41648 0
M  V30 3400 H 310.727 1.92135 -3.69085 0
M  V30 3401 H 309.603 2.92018 -4.64776 0
M  V30 3402 H 309.864 3.29197 -2.95096 0
M  V30 3403 N 308.923 1.53595 0.353017 0
M  V30 3404 C 310.17 1.70385 1.09431 0
M  V30 3405 C 310.498 0.462113 1.88931 0
M  V30 3406 O 309.753 -0.556074 1.87633 0
M  V30 3407 C 310.052 2.91313 2.07054 0
M  V30 3408 C 309.718 4.27308 1.43939 0
M  V30 3409 C 308.38 4.64287 1.26454 0
M  V30 3410 C 310.732 5.11829 0.983883 0
M  V30 3411 C 308.06 5.83412 0.620226 0
M  V30 3412 C 310.412 6.31611 0.353516 0
M  V30 3413 C 309.076 6.67293 0.166272 0
M  V30 3414 H 308.346 0.623484 0.400436 0
M  V30 3415 H 310.993 1.87799 0.374655 0
M  V30 3416 H 309.298 2.68463 2.85368 0
M  V30 3417 H 310.995 3.01497 2.64387 0
M  V30 3418 H 307.585 3.98198 1.58543 0
M  V30 3419 H 311.769 4.838 1.10685 0
M  V30 3420 H 307.025 6.09639 0.463681 0
M  V30 3421 H 311.199 6.964 -0.00757555 0
M  V30 3422 H 308.826 7.59461 -0.335047 0
M  V30 3423 N 310.401 -0.613514 1.45168 0
M  V30 3424 C 311.331 -1.7354 1.56225 0
M  V30 3425 C 312.312 -1.64981 0.41414 0
M  V30 3426 O 313.497 -1.83472 0.636526 0
M  V30 3427 C 310.627 -3.12128 1.52295 0
M  V30 3428 C 309.581 -3.35491 2.65762 0
M  V30 3429 C 308.907 -4.74291 2.46885 0
M  V30 3430 C 310.207 -3.26325 4.0781 0
M  V30 3431 H 311.901 -1.64543 2.50132 0
M  V30 3432 H 309.447 -0.790185 1.20383 0
M  V30 3433 H 311.4 -3.90404 1.58628 0
M  V30 3434 H 310.124 -3.2195 0.549139 0
M  V30 3435 H 308.783 -2.59603 2.58847 0
M  V30 3436 H 308.431 -4.80839 1.47657 0
M  V30 3437 H 308.131 -4.9088 3.22972 0
M  V30 3438 H 309.655 -5.54775 2.55063 0
M  V30 3439 H 311.069 -3.94483 4.16 0
M  V30 3440 H 309.466 -3.54445 4.8424 0
M  V30 3441 H 310.536 -2.23855 4.30136 0
M  V30 3442 N 311.879 -1.3236 -0.855495 0
M  V30 3443 C 313.125 -1.23054 -1.612 0
M  V30 3444 C 313.458 0.207404 -1.93089 0
M  V30 3445 O 312.733 1.14432 -1.57275 0
M  V30 3446 C 313.016 -2.08937 -2.93287 0
M  V30 3447 C 312.869 -3.61105 -2.68185 0
M  V30 3448 C 314.188 -1.94986 -3.94549 0
M  V30 3449 H 311.307 -0.448364 -0.584926 0
M  V30 3450 H 313.949 -1.62297 -0.987917 0
M  V30 3451 H 312.099 -1.75599 -3.46551 0
M  V30 3452 H 313.771 -4.04652 -2.21483 0
M  V30 3453 H 312.014 -3.83813 -2.02164 0
M  V30 3454 H 312.685 -4.16522 -3.62234 0
M  V30 3455 H 315.161 -2.24189 -3.5054 0
M  V30 3456 H 314.037 -2.57356 -4.84829 0
M  V30 3457 H 314.298 -0.917263 -4.3248 0
M  V30 3458 N 313.357 1.07166 -1.15556 0
M  V30 3459 C 314.768 1.6127 -0.940693 0
M  V30 3460 C 315.119 1.89251 0.517551 0
M  V30 3461 O 314.244 1.65937 1.38903 0
M  V30 3462 C 314.839 2.92993 -1.7012 0
M  V30 3463 C 313.398 3.43832 -1.53156 0
M  V30 3464 C 312.545 2.1786 -1.71558 0
M  V30 3465 H 315.496 0.90229 -1.30554 0
M  V30 3466 H 315.517 3.62007 -1.17181 0
M  V30 3467 H 315.029 2.72596 -2.76248 0
M  V30 3468 H 313.13 3.69307 -0.494294 0
M  V30 3469 H 313.243 4.19747 -2.30975 0
M  V30 3470 H 311.607 2.2765 -1.14225 0
M  V30 3471 H 312.39 1.99956 -2.79056 0
M  V30 3472 N 314.835 0.952656 1.25548 0
M  V30 3473 C 316.251 0.656769 1.4546 0
M  V30 3474 C 316.451 -0.78633 1.85524 0
M  V30 3475 O 315.507 -1.56183 1.98402 0
M  V30 3476 C 316.82 1.62801 2.52817 0
M  V30 3477 C 318.368 1.63897 2.66659 0
M  V30 3478 C 318.843 2.5978 3.77198 0
M  V30 3479 N 320.334 2.58133 3.84606 0
M  V30 3480 C 321.069 3.29003 4.69621 0
M  V30 3481 N 320.565 4.09339 5.58939 0
M  V30 3482 N 322.358 3.179 4.63569 0
M  V30 3483 H 314.509 1.88526 0.978344 0
M  V30 3484 H 316.772 0.810815 0.491206 0
M  V30 3485 H 316.478 2.65869 2.30232 0
M  V30 3486 H 316.352 1.38898 3.50695 0
M  V30 3487 H 318.739 0.615481 2.8861 0
M  V30 3488 H 318.82 1.91858 1.69187 0
M  V30 3489 H 318.464 3.62254 3.55997 0
M  V30 3490 H 318.394 2.29105 4.7415 0
M  V30 3491 H 320.885 1.99809 3.20757 0
M  V30 3492 H 321.198 4.6034 6.20731 0
M  V30 3493 H 319.543 4.13438 5.58654 0
M  V30 3494 H 322.734 2.54612 3.92798 0
M  V30 3495 H 322.907 3.73398 5.29602 0
M  V30 3496 N 316.313 -1.40141 0.720998 0
M  V30 3497 C 317.729 -1.54632 0.395113 0
M  V30 3498 C 317.929 -1.69115 -1.09555 0
M  V30 3499 O 316.985 -1.68377 -1.88163 0
M  V30 3500 C 318.298 -2.77177 1.1659 0
M  V30 3501 C 319.846 -2.91 1.15274 0
M  V30 3502 C 320.321 -4.16465 1.90579 0
M  V30 3503 N 321.812 -4.23476 1.87675 0
M  V30 3504 C 322.547 -5.19475 2.42762 0
M  V30 3505 N 322.043 -6.21348 3.06428 0
M  V30 3506 N 323.836 -5.11592 2.32874 0
M  V30 3507 H 315.987 -1.28986 1.68749 0
M  V30 3508 H 318.25 -0.62412 0.713567 0
M  V30 3509 H 317.956 -2.72771 2.22011 0
M  V30 3510 H 317.83 -3.69442 0.76108 0
M  V30 3511 H 320.217 -2.94907 0.106702 0
M  V30 3512 H 320.298 -1.99838 1.59682 0
M  V30 3513 H 319.942 -4.1332 2.95176 0
M  V30 3514 H 319.872 -5.06646 1.43587 0
M  V30 3515 H 322.363 -3.50497 1.41281 0
M  V30 3516 H 322.676 -6.91034 3.45965 0
M  V30 3517 H 321.021 -6.21777 3.10514 0
M  V30 3518 H 324.212 -4.30936 1.82789 0
M  V30 3519 H 324.385 -5.86233 2.76106 0
M  V30 3520 N 317.792 -0.46758 -1.50504 0
M  V30 3521 C 318.742 0.34698 -2.25344 0
M  V30 3522 C 319.726 0.964469 -1.2879 0
M  V30 3523 O 320.918 0.8776 -1.53711 0
M  V30 3524 C 318.047 1.43042 -3.1208 0
M  V30 3525 C 317.133 0.82084 -4.16081 0
M  V30 3526 N 317.524 -0.0567602 -5.05768 0
M  V30 3527 C 315.822 1.08517 -4.32597 0
M  V30 3528 C 316.523 -0.402343 -5.80307 0
M  V30 3529 N 315.499 0.221607 -5.43148 0
M  V30 3530 H 319.301 -0.329129 -2.92051 0
M  V30 3531 H 316.815 -0.281508 -1.59942 0
M  V30 3532 H 318.812 2.02712 -3.64299 0
M  V30 3533 H 317.472 2.10856 -2.46921 0
M  V30 3534 H 318.483 -0.425349 -5.1615 0
M  V30 3535 H 315.16 1.75855 -3.78657 0
M  V30 3536 H 316.55 -1.11834 -6.62528 0
M  V30 3537 N 319.27 1.56325 -0.20005 0
M  V30 3538 C 320.518 1.97329 0.436547 0
M  V30 3539 C 320.839 1.08826 1.61808 0
M  V30 3540 O 320.109 0.160604 1.95241 0
M  V30 3541 H 318.689 0.728714 0.164272 0
M  V30 3542 H 321.351 1.92761 -0.287937 0
M  V30 3543 H 320.447 3.02264 0.777353 0
M  V30 3544 N 320.748 -0.0735177 1.57428 0
M  V30 3545 C 321.695 -1.08756 2.0357 0
M  V30 3546 C 322.665 -1.38559 0.916 0
M  V30 3547 O 323.85 -1.49656 1.18354 0
M  V30 3548 C 320.99 -2.39657 2.48311 0
M  V30 3549 C 320.103 -2.16399 3.73892 0
M  V30 3550 C 319.238 -3.40852 4.07423 0
M  V30 3551 C 318.277 -3.1295 5.2605 0
M  V30 3552 N 317.414 -4.29729 5.55228 0
M  V30 3553 H 322.254 -0.687104 2.8997 0
M  V30 3554 H 319.791 -0.327709 1.43403 0
M  V30 3555 H 321.749 -3.16081 2.72303 0
M  V30 3556 H 320.379 -2.77508 1.64891 0
M  V30 3557 H 319.431 -1.30676 3.57251 0
M  V30 3558 H 320.743 -1.91788 4.60455 0
M  V30 3559 H 319.897 -4.25671 4.32306 0
M  V30 3560 H 318.636 -3.68537 3.19425 0
M  V30 3561 H 317.641 -2.26526 5.00965 0
M  V30 3562 H 318.866 -2.86589 6.15665 0
M  V30 3563 H 316.812 -4.57448 4.70188 0
M  V30 3564 H 316.729 -4.08385 6.36206 0
M  V30 3565 H 317.997 -5.1555 5.84661 0
M  V30 3566 N 322.226 -1.5378 -0.344866 0
M  V30 3567 C 323.454 -1.74899 -1.10534 0
M  V30 3568 C 323.869 -0.487534 -1.82397 0
M  V30 3569 O 323.226 0.540741 -1.74305 0
M  V30 3570 C 323.277 -2.92822 -2.11984 0
M  V30 3571 O 322.998 -4.14089 -1.43044 0
M  V30 3572 C 324.499 -3.25982 -3.00417 0
M  V30 3573 H 321.719 -0.584426 -0.329678 0
M  V30 3574 H 324.263 -2.006 -0.397474 0
M  V30 3575 H 322.418 -2.69457 -2.78338 0
M  V30 3576 H 322.832 -4.80272 -2.10805 0
M  V30 3577 H 324.306 -4.11848 -3.67539 0
M  V30 3578 H 324.783 -2.42228 -3.66363 0
M  V30 3579 H 325.389 -3.51349 -2.39654 0
M  V30 3580 N 323.704 0.605807 -1.45491 0
M  V30 3581 C 324.95 1.36481 -1.50813 0
M  V30 3582 C 325.305 1.91826 -0.148469 0
M  V30 3583 O 324.598 1.72211 0.839869 0
M  V30 3584 C 324.792 2.53012 -2.52428 0
M  V30 3585 C 324.621 2.09078 -3.98141 0
M  V30 3586 C 323.391 1.95167 -4.66088 0
M  V30 3587 C 325.589 1.66438 -4.86624 0
M  V30 3588 N 323.571 1.45062 -5.96515 0
M  V30 3589 C 324.942 1.27761 -6.06694 0
M  V30 3590 C 326.997 1.54046 -4.7347 0
M  V30 3591 C 325.7 0.779286 -7.15066 0
M  V30 3592 C 327.726 1.05618 -5.81892 0
M  V30 3593 C 327.088 0.67906 -7.01119 0
M  V30 3594 H 323.187 0.493267 -0.606805 0
M  V30 3595 H 325.771 0.692347 -1.81974 0
M  V30 3596 H 323.942 3.17851 -2.23215 0
M  V30 3597 H 325.674 3.19897 -2.47887 0
M  V30 3598 H 322.429 2.16407 -4.21266 0
M  V30 3599 H 322.853 1.22237 -6.65873 0
M  V30 3600 H 327.495 1.81827 -3.81705 0
M  V30 3601 H 325.213 0.489026 -8.06619 0
M  V30 3602 H 328.799 0.964529 -5.73749 0
M  V30 3603 H 327.679 0.310091 -7.83587 0
M  V30 3604 N 325.182 1.32811 0.848464 0
M  V30 3605 C 326.429 1.23724 1.60308 0
M  V30 3606 C 326.757 -0.1994 1.93475 0
M  V30 3607 O 326.012 -1.15406 1.5805 0
M  V30 3608 C 326.311 2.04831 2.92881 0
M  V30 3609 C 325.977 3.54125 2.79117 0
M  V30 3610 C 324.639 3.94829 2.7507 0
M  V30 3611 C 326.991 4.49036 2.64606 0
M  V30 3612 C 324.319 5.28675 2.544 0
M  V30 3613 C 326.671 5.83033 2.4547 0
M  V30 3614 C 325.335 6.22931 2.39819 0
M  V30 3615 H 324.605 0.452737 0.586609 0
M  V30 3616 H 327.252 1.64301 0.983743 0
M  V30 3617 H 325.557 1.57001 3.58968 0
M  V30 3618 H 327.254 1.95164 3.50303 0
M  V30 3619 H 323.844 3.21801 2.83094 0
M  V30 3620 H 328.028 4.18505 2.66772 0
M  V30 3621 H 323.284 5.58637 2.48465 0
M  V30 3622 H 327.458 6.56186 2.33222 0
M  V30 3623 H 325.085 7.26584 2.23562 0
M  V30 3624 N 326.66 -1.06551 1.16123 0
M  V30 3625 C 327.909 -1.78687 0.935622 0
M  V30 3626 C 328.222 -1.88056 -0.538001 0
M  V30 3627 O 329.428 -2.56794 -0.88143 0
M  V30 3628 C 327.884 -3.21143 1.62466 0
M  V30 3629 C 327.492 -3.19949 3.13587 0
M  V30 3630 C 329.236 -3.9783 1.48092 0
M  V30 3631 C 327.143 -4.57108 3.75241 0
M  V30 3632 H 326.073 -0.669712 0.346412 0
M  V30 3633 H 328.724 -1.19534 1.39226 0
M  V30 3634 H 327.106 -3.80539 1.09572 0
M  V30 3635 H 328.28 -2.70151 3.73303 0
M  V30 3636 H 326.595 -2.5676 3.27816 0
M  V30 3637 H 329.192 -4.99217 1.91538 0
M  V30 3638 H 329.535 -4.14078 0.429507 0
M  V30 3639 H 330.068 -3.4495 1.98127 0
M  V30 3640 H 326.807 -4.46065 4.80319 0
M  V30 3641 H 326.327 -5.07111 3.20309 0
M  V30 3642 H 328.006 -5.26069 3.76644 0
M  V30 3643 N 328.138 -0.959301 -1.25041 0
M  V30 3644 C 329.387 -0.612254 -1.92183 0
M  V30 3645 C 329.7 0.855347 -1.75907 0
M  V30 3646 O 330.906 1.31256 -2.37664 0
M  V30 3647 C 329.362 -1.04435 -3.44414 0
M  V30 3648 C 328.97 -2.53482 -3.69393 0
M  V30 3649 C 330.714 -0.770055 -4.17457 0
M  V30 3650 C 328.621 -2.90468 -5.15153 0
M  V30 3651 H 327.551 -0.225279 -0.719559 0
M  V30 3652 H 330.202 -1.16438 -1.41825 0
M  V30 3653 H 328.584 -0.4206 -3.9376 0
M  V30 3654 H 329.758 -3.20916 -3.30681 0
M  V30 3655 H 328.073 -2.78432 -3.0962 0
M  V30 3656 H 330.67 -1.02249 -5.24832 0
M  V30 3657 H 331.013 0.293611 -4.15263 0
M  V30 3658 H 331.546 -1.35437 -3.74034 0
M  V30 3659 H 328.285 -3.95871 -5.22462 0
M  V30 3660 H 327.805 -2.27711 -5.54894 0
M  V30 3661 H 329.484 -2.79914 -5.83315 0
M  V30 3662 N 329.616 1.39756 -0.72842 0
M  V30 3663 C 331.027 1.83498 -0.344289 0
M  V30 3664 C 331.378 1.60868 1.12321 0
M  V30 3665 O 330.503 1.09634 1.86573 0
M  V30 3666 C 331.098 3.33114 -0.618112 0
M  V30 3667 C 329.657 3.753 -0.287549 0
M  V30 3668 C 328.804 2.62831 -0.884048 0
M  V30 3669 H 331.755 1.28842 -0.926578 0
M  V30 3670 H 331.776 3.80334 0.112349 0
M  V30 3671 H 331.288 3.49553 -1.68625 0
M  V30 3672 H 329.389 3.64451 0.775012 0
M  V30 3673 H 329.502 4.72945 -0.765512 0
M  V30 3674 H 327.866 2.52792 -0.311149 0
M  V30 3675 H 328.649 2.82078 -1.95671 0
M  V30 3676 N 331.094 0.475555 1.50254 0
M  V30 3677 C 332.343 -0.0795996 2.01543 0
M  V30 3678 C 332.656 -1.4038 1.36209 0
M  V30 3679 O 333.862 -2.04415 1.7868 0
M  V30 3680 C 332.318 -0.192363 3.59386 0
M  V30 3681 C 331.926 1.12367 4.33679 0
M  V30 3682 C 333.67 -0.699238 4.18701 0
M  V30 3683 C 331.577 0.974453 5.83317 0
M  V30 3684 H 330.507 -0.0335228 0.753254 0
M  V30 3685 H 333.158 0.611128 1.73025 0
M  V30 3686 H 331.54 -0.946974 3.84511 0
M  V30 3687 H 332.714 1.88958 4.20276 0
M  V30 3688 H 331.029 1.562 3.85993 0
M  V30 3689 H 333.626 -0.827978 5.28251 0
M  V30 3690 H 333.969 -1.69171 3.80377 0
M  V30 3691 H 334.502 -0.00188807 3.978 0
M  V30 3692 H 331.241 1.94042 6.26121 0
M  V30 3693 H 330.761 0.248998 5.99283 0
M  V30 3694 H 332.44 0.642867 6.43798 0
M  V30 3695 N 332.573 -1.56217 0.208337 0
M  V30 3696 C 333.822 -1.97124 -0.427204 0
M  V30 3697 C 334.135 -1.09859 -1.61835 0
M  V30 3698 O 335.341 -1.40606 -2.32255 0
M  V30 3699 C 333.797 -3.50633 -0.811442 0
M  V30 3700 C 333.405 -4.46582 0.35615 0
M  V30 3701 C 335.149 -4.00282 -1.41332 0
M  V30 3702 C 333.056 -5.91379 -0.0497852 0
M  V30 3703 H 331.986 -0.736086 -0.163381 0
M  V30 3704 H 334.637 -1.8099 0.302456 0
M  V30 3705 H 333.019 -3.62319 -1.59815 0
M  V30 3706 H 334.193 -4.46636 1.1337 0
M  V30 3707 H 332.508 -4.07202 0.870396 0
M  V30 3708 H 335.105 -5.0595 -1.72972 0
M  V30 3709 H 335.448 -3.45359 -2.32449 0
M  V30 3710 H 335.981 -3.91764 -0.690323 0
M  V30 3711 H 332.72 -6.50255 0.827529 0
M  V30 3712 H 332.24 -5.94549 -0.791926 0
M  V30 3713 H 333.919 -6.45209 -0.481042 0
M  V30 3714 N 334.051 0.0651679 -1.57465 0
M  V30 3715 C 335.276 0.779605 -1.9219 0
M  V30 3716 C 335.701 1.69988 -0.805333 0
M  V30 3717 O 335.059 1.79685 0.241435 0
M  V30 3718 C 335.107 1.54364 -3.2589 0
M  V30 3719 O 334.211 2.65474 -3.1559 0
M  V30 3720 H 333.552 0.212249 -0.629163 0
M  V30 3721 H 336.082 0.0314294 -2.04576 0
M  V30 3722 H 336.092 1.92146 -3.59922 0
M  V30 3723 H 334.767 0.868457 -4.06732 0
M  V30 3724 H 333.344 2.30501 -2.93128 0
M  V30 3725 N 335.529 1.53961 0.336706 0
M  V30 3726 C 336.776 1.71536 1.07618 0
M  V30 3727 C 337.104 0.482125 1.8843 0
M  V30 3728 O 336.359 -0.536142 1.88213 0
M  V30 3729 C 336.658 2.93493 2.03953 0
M  V30 3730 C 336.324 4.28811 1.39399 0
M  V30 3731 C 334.986 4.65602 1.21523 0
M  V30 3732 C 337.338 5.12844 0.929541 0
M  V30 3733 C 334.666 5.84037 0.558312 0
M  V30 3734 C 337.018 6.31951 0.286505 0
M  V30 3735 C 335.682 6.67432 0.0954869 0
M  V30 3736 H 334.952 0.627696 0.393801 0
M  V30 3737 H 337.599 1.88186 0.354715 0
M  V30 3738 H 335.904 2.71475 2.82504 0
M  V30 3739 H 337.601 3.04285 2.61174 0
M  V30 3740 H 334.191 3.99858 1.54311 0
M  V30 3741 H 338.375 4.84947 1.05548 0
M  V30 3742 H 333.631 6.10097 0.398995 0
M  V30 3743 H 337.805 6.96352 -0.0814376 0
M  V30 3744 H 335.432 7.59063 -0.415579 0
M  V30 3745 N 337.007 -0.598083 1.45811 0
M  V30 3746 C 337.937 -1.71873 1.58057 0
M  V30 3747 C 338.918 -1.64533 0.431615 0
M  V30 3748 O 340.103 -1.82787 0.65595 0
M  V30 3749 C 337.233 -3.10495 1.55597 0
M  V30 3750 C 336.187 -3.32654 2.69305 0
M  V30 3751 C 335.513 -4.71646 2.51902 0
M  V30 3752 C 336.813 -3.21981 4.11248 0
M  V30 3753 H 338.507 -1.61881 2.51863 0
M  V30 3754 H 336.053 -0.777372 1.21214 0
M  V30 3755 H 338.006 -3.88699 1.6276 0
M  V30 3756 H 336.73 -3.2135 0.583255 0
M  V30 3757 H 335.389 -2.56843 2.61586 0
M  V30 3758 H 335.037 -4.79246 1.52748 0
M  V30 3759 H 334.737 -4.87426 3.2816 0
M  V30 3760 H 336.261 -5.52038 2.60933 0
M  V30 3761 H 337.675 -3.90049 4.20161 0
M  V30 3762 H 336.072 -3.49289 4.87972 0
M  V30 3763 H 337.142 -2.1928 4.32486 0
M  V30 3764 N 338.485 -1.33259 -0.841409 0
M  V30 3765 C 339.415 -1.25926 -1.96634 0
M  V30 3766 C 340.396 -0.140349 -1.6952 0
M  V30 3767 O 341.581 -0.329707 -1.91381 0
M  V30 3768 C 338.711 -0.99512 -3.32738 0
M  V30 3769 C 337.665 -2.0767 -3.74242 0
M  V30 3770 C 336.991 -1.66474 -5.08125 0
M  V30 3771 C 338.291 -3.49318 -3.88297 0
M  V30 3772 H 339.985 -2.20046 -2.03027 0
M  V30 3773 H 337.531 -1.05931 -0.975425 0
M  V30 3774 H 339.484 -0.930323 -4.11002 0
M  V30 3775 H 338.208 -0.0183004 -3.26595 0
M  V30 3776 H 336.867 -2.13187 -2.98239 0
M  V30 3777 H 336.515 -0.675012 -4.9845 0
M  V30 3778 H 336.215 -2.3885 -5.36865 0
M  V30 3779 H 337.739 -1.61455 -5.88867 0
M  V30 3780 H 339.153 -3.46316 -4.56879 0
M  V30 3781 H 337.55 -4.20158 -4.28471 0
M  V30 3782 H 338.62 -3.8801 -2.9082 0
M  V30 3783 N 339.963 1.05934 -1.16686 0
M  V30 3784 C 340.91 2.13499 -0.876748 0
M  V30 3785 C 341.88 1.65162 0.176299 0
M  V30 3786 O 343.065 1.90757 0.0407143 0
M  V30 3787 C 340.205 3.42912 -0.387967 0
M  V30 3788 C 339.318 4.04964 -1.50426 0
M  V30 3789 C 338.453 5.22266 -0.970125 0
M  V30 3790 C 337.492 5.76309 -2.06238 0
M  V30 3791 N 336.629 6.84922 -1.54356 0
M  V30 3792 H 341.469 2.37654 -1.7979 0
M  V30 3793 H 339.006 1.16598 -0.896843 0
M  V30 3794 H 340.964 4.17111 -0.086186 0
M  V30 3795 H 339.594 3.18963 0.496235 0
M  V30 3796 H 338.646 3.28277 -1.92193 0
M  V30 3797 H 339.958 4.41122 -2.32836 0
M  V30 3798 H 339.112 6.03506 -0.621743 0
M  V30 3799 H 337.851 4.87564 -0.115377 0
M  V30 3800 H 336.856 4.93704 -2.41942 0
M  V30 3801 H 338.081 6.13062 -2.92115 0
M  V30 3802 H 336.027 6.52131 -0.711406 0
M  V30 3803 H 335.944 7.20043 -2.30379 0
M  V30 3804 H 337.212 7.69832 -1.22387 0
M  V30 3805 N 341.441 0.965919 1.2453 0
M  V30 3806 C 342.391 0.465731 2.23193 0
M  V30 3807 C 343.375 -0.451277 1.54442 0
M  V30 3808 O 344.567 -0.282489 1.74731 0
M  V30 3809 C 341.696 -0.244511 3.42428 0
M  V30 3810 C 340.782 0.691222 4.18429 0
M  V30 3811 N 341.173 1.82771 4.71623 0
M  V30 3812 C 339.471 0.501649 4.4317 0
M  V30 3813 C 340.172 2.41285 5.29298 0
M  V30 3814 N 339.148 1.69819 5.16394 0
M  V30 3815 H 342.95 1.33291 2.61937 0
M  V30 3816 H 340.464 0.824789 1.39896 0
M  V30 3817 H 342.461 -0.620056 4.12263 0
M  V30 3818 H 341.121 -1.10815 3.05205 0
M  V30 3819 H 342.132 2.20929 4.68413 0
M  V30 3820 H 338.809 -0.318177 4.16286 0
M  V30 3821 H 340.199 3.37181 5.8117 0
M  V30 3822 N 342.919 -1.39368 0.735821 0
M  V30 3823 C 343.852 -2.28155 0.0451175 0
M  V30 3824 C 344.83 -1.44433 -0.746852 0
M  V30 3825 O 346.014 -1.73823 -0.729237 0
M  V30 3826 C 343.141 -3.253 -0.943266 0
M  V30 3827 C 342.187 -4.25826 -0.239685 0
M  V30 3828 S 343.02 -5.25166 1.04693 0
M  V30 3829 C 344.176 -6.2587 0.0611639 0
M  V30 3830 H 344.409 -2.86388 0.79807 0
M  V30 3831 H 341.942 -1.45104 0.527653 0
M  V30 3832 H 343.9 -3.81789 -1.50824 0
M  V30 3833 H 342.561 -2.66085 -1.66906 0
M  V30 3834 H 341.754 -4.94229 -0.987596 0
M  V30 3835 H 341.356 -3.73141 0.253274 0
M  V30 3836 H 343.648 -6.73007 -0.778941 0
M  V30 3837 H 344.591 -7.04508 0.712362 0
M  V30 3838 H 344.999 -5.63639 -0.311602 0
M  V30 3839 N 344.397 -0.483516 -1.5 0
M  V30 3840 C 345.646 0.0689102 -2.01582 0
M  V30 3841 C 345.959 1.39655 -1.36952 0
M  V30 3842 O 347.165 2.03465 -1.79762 0
M  V30 3843 C 345.621 0.173302 -3.59483 0
M  V30 3844 C 345.229 -1.14665 -4.33077 0
M  V30 3845 C 346.973 0.677024 -4.19066 0
M  V30 3846 C 344.88 -1.00537 -5.82792 0
M  V30 3847 H 343.81 0.0295277 -0.753422 0
M  V30 3848 H 346.461 -0.620295 -1.72698 0
M  V30 3849 H 344.843 0.926569 -3.85007 0
M  V30 3850 H 346.017 -1.91184 -4.19268 0
M  V30 3851 H 344.332 -1.58244 -3.85159 0
M  V30 3852 H 346.929 0.799952 -5.28682 0
M  V30 3853 H 347.272 1.67151 -3.81269 0
M  V30 3854 H 347.805 -0.0192083 -3.97795 0
M  V30 3855 H 344.544 -1.9736 -6.25083 0
M  V30 3856 H 344.064 -0.280776 -5.99142 0
M  V30 3857 H 345.743 -0.677 -6.43448 0
M  V30 3858 N 345.875 1.56104 -0.216619 0
M  V30 3859 C 347.123 1.97781 0.415593 0
M  V30 3860 C 347.444 1.10536 1.60645 0
M  V30 3861 O 346.714 0.181303 1.95059 0
M  V30 3862 H 345.294 0.730415 0.156534 0
M  V30 3863 H 347.956 1.92445 -0.308366 0
M  V30 3864 H 347.052 3.03072 0.74525 0
M  V30 3865 N 347.353 -0.0568162 1.57498 0
M  V30 3866 C 348.602 -0.752001 1.87157 0
M  V30 3867 C 348.915 -1.77978 0.811375 0
M  V30 3868 O 350.121 -2.52559 0.996293 0
M  V30 3869 C 348.577 -1.38844 3.3204 0
M  V30 3870 C 348.185 -0.398456 4.46225 0
M  V30 3871 C 349.929 -2.06512 3.70882 0
M  V30 3872 C 347.836 -1.04166 5.82154 0
M  V30 3873 H 346.766 -0.28461 0.698222 0
M  V30 3874 H 349.417 -0.00561272 1.83499 0
M  V30 3875 H 347.799 -2.1836 3.30356 0
M  V30 3876 H 348.973 0.367977 4.59328 0
M  V30 3877 H 347.288 0.174592 4.16034 0
M  V30 3878 H 349.885 -2.55437 4.6974 0
M  V30 3879 H 350.228 -2.87117 3.01445 0
M  V30 3880 H 350.761 -1.33808 3.7462 0
M  V30 3881 H 347.5 -0.275614 6.5492 0
M  V30 3882 H 347.02 -1.7786 5.72823 0
M  V30 3883 H 348.699 -1.55715 6.27982 0
M  V30 3884 N 348.832 -1.54138 -0.328536 0
M  V30 3885 C 350.057 -1.76378 -1.09112 0
M  V30 3886 C 350.482 -0.508596 -1.81094 0
M  V30 3887 O 349.84 0.539598 -1.73084 0
M  V30 3888 C 349.888 -2.95358 -2.06872 0
M  V30 3889 O 348.992 -2.66556 -3.14677 0
M  V30 3890 H 348.333 -0.584614 -0.314838 0
M  V30 3891 H 350.863 -2.01146 -0.374348 0
M  V30 3892 H 350.873 -3.22566 -2.4983 0
M  V30 3893 H 349.548 -3.86385 -1.5388 0
M  V30 3894 H 348.125 -2.50282 -2.7643 0
M  V30 3895 N 350.31 0.590341 -1.46126 0
M  V30 3896 C 351.559 1.34499 -1.50309 0
M  V30 3897 C 351.872 1.94977 -0.156021 0
M  V30 3898 O 353.078 2.71395 -0.0756037 0
M  V30 3899 C 351.534 2.43723 -2.64815 0
M  V30 3900 C 351.142 1.89582 -4.0591 0
M  V30 3901 C 352.886 3.20579 -2.78262 0
M  V30 3902 C 350.793 2.9639 -5.11769 0
M  V30 3903 H 349.723 0.505593 -0.559368 0
M  V30 3904 H 352.374 0.630848 -1.72315 0
M  V30 3905 H 350.756 3.17902 -2.36124 0
M  V30 3906 H 351.93 1.21997 -4.44357 0
M  V30 3907 H 350.245 1.25418 -3.97063 0
M  V30 3908 H 352.842 4.00276 -3.54519 0
M  V30 3909 H 353.185 3.72684 -1.85505 0
M  V30 3910 H 353.718 2.53505 -3.06562 0
M  V30 3911 H 350.457 2.49181 -6.06291 0
M  V30 3912 H 349.977 3.62487 -4.77873 0
M  V30 3913 H 351.656 3.60474 -5.37278 0
M  V30 3914 N 351.788 1.33704 0.83433 0
M  V30 3915 C 353.036 1.25169 1.58673 0
M  V30 3916 C 353.357 -0.18127 1.94156 0
M  V30 3917 O 352.627 -1.11113 1.6134 0
M  V30 3918 H 351.207 0.4603 0.58833 0
M  V30 3919 H 353.869 1.67478 0.996847 0
M  V30 3920 H 352.965 1.84856 2.51465 0
M  V30 3921 N 353.266 -1.05314 1.17247 0
M  V30 3922 C 354.496 -1.81707 0.983166 0
M  V30 3923 C 354.904 -1.83222 -0.471822 0
M  V30 3924 O 354.247 -1.25721 -1.3394 0
M  V30 3925 C 354.309 -3.29134 1.44606 0
M  V30 3926 C 353.973 -3.51304 2.92292 0
M  V30 3927 C 354.97 -3.4353 3.90235 0
M  V30 3928 C 352.655 -3.78306 3.30439 0
M  V30 3929 C 354.649 -3.62442 5.24323 0
M  V30 3930 C 352.336 -3.96866 4.64694 0
M  V30 3931 C 353.334 -3.88933 5.61445 0
M  V30 3932 O 353.022 -4.06976 6.93272 0
M  V30 3933 H 352.754 -0.579476 0.348114 0
M  V30 3934 H 355.308 -1.33705 1.55924 0
M  V30 3935 H 353.538 -3.78046 0.813537 0
M  V30 3936 H 355.227 -3.87049 1.22262 0
M  V30 3937 H 355.993 -3.22648 3.62109 0
M  V30 3938 H 351.872 -3.83585 2.55702 0
M  V30 3939 H 355.416 -3.56165 5.99827 0
M  V30 3940 H 351.313 -4.1724 4.92525 0
M  V30 3941 H 352.081 -4.24209 6.99992 0
M  V30 3942 N 354.744 -0.972509 -1.24016 0
M  V30 3943 C 355.99 -0.637978 -1.92504 0
M  V30 3944 C 356.323 0.825383 -1.75787 0
M  V30 3945 O 355.598 1.59442 -1.11393 0
M  V30 3946 C 355.881 -1.01942 -3.45369 0
M  V30 3947 C 355.734 -2.53983 -3.71231 0
M  V30 3948 C 357.053 -0.55751 -4.36555 0
M  V30 3949 H 354.172 -0.233248 -0.699117 0
M  V30 3950 H 356.814 -1.21238 -1.46292 0
M  V30 3951 H 354.964 -0.530656 -3.84859 0
M  V30 3952 H 356.636 -3.10374 -3.41271 0
M  V30 3953 H 354.879 -2.96968 -3.16216 0
M  V30 3954 H 355.55 -2.75723 -4.78206 0
M  V30 3955 H 358.026 -0.977029 -4.04467 0
M  V30 3956 H 356.902 -0.85292 -5.42233 0
M  V30 3957 H 357.163 0.542328 -4.38761 0
M  V30 3958 N 356.222 1.38976 -0.743202 0
M  V30 3959 C 357.185 2.28901 -0.117014 0
M  V30 3960 C 358.185 1.46698 0.658503 0
M  V30 3961 O 359.375 1.67274 0.486305 0
M  V30 3962 C 356.507 3.30309 0.84315 0
M  V30 3963 H 357.7 2.8578 -0.909373 0
M  V30 3964 H 355.253 1.47761 -0.509547 0
M  V30 3965 H 355.988 2.785 1.66157 0
M  V30 3966 H 355.773 3.91029 0.289594 0
M  V30 3967 H 357.263 3.97577 1.2776 0
M  V30 3968 N 357.7 0.491464 1.49741 0
M  V30 3969 C 358.65 -0.311086 2.25868 0
M  V30 3970 C 359.634 -0.943857 1.30308 0
M  V30 3971 O 360.826 -0.853035 1.55088 0
M  V30 3972 C 357.955 -1.38059 3.14316 0
M  V30 3973 C 357.041 -0.754541 4.17334 0
M  V30 3974 N 357.432 0.137216 5.05614 0
M  V30 3975 C 355.73 -1.01621 4.34269 0
M  V30 3976 C 356.431 0.494614 5.79593 0
M  V30 3977 N 355.407 -0.135169 5.43432 0
M  V30 3978 H 359.209 0.37555 2.91491 0
M  V30 3979 H 356.723 0.306917 1.59473 0
M  V30 3980 H 358.72 -1.96891 3.67477 0
M  V30 3981 H 357.38 -2.06901 2.50244 0
M  V30 3982 H 358.391 0.50741 5.15408 0
M  V30 3983 H 355.068 -1.69808 3.81407 0
M  V30 3984 H 356.458 1.2236 6.60665 0
M  V30 3985 N 359.178 -1.55987 0.224894 0
M  V30 3986 C 360.11 -2.17722 -0.716224 0
M  V30 3987 C 361.123 -1.14723 -1.15509 0
M  V30 3988 O 362.312 -1.41688 -1.08567 0
M  V30 3989 C 359.412 -2.74873 -1.98238 0
M  V30 3990 C 358.585 -4.03074 -1.69853 0
M  V30 3991 C 357.644 -4.44757 -2.81208 0
M  V30 3992 O 356.67 -5.11587 -2.49534 0
M  V30 3993 N 357.872 -4.10716 -4.10235 0
M  V30 3994 H 360.637 -2.99109 -0.188123 0
M  V30 3995 H 358.198 -1.6184 0.0440123 0
M  V30 3996 H 360.19 -2.99727 -2.7193 0
M  V30 3997 H 358.76 -1.9777 -2.42086 0
M  V30 3998 H 357.98 -3.86041 -0.797875 0
M  V30 3999 H 359.268 -4.86701 -1.48324 0
M  V30 4000 H 358.666 -3.57019 -4.38809 0
M  V30 4001 H 357.223 -4.40455 -4.80461 0
M  V30 4002 N 360.656 0.0484629 -1.57525 0
M  V30 4003 C 361.603 1.05504 -2.05275 0
M  V30 4004 C 362.573 1.37084 -0.937927 0
M  V30 4005 O 363.758 1.47754 -1.2072 0
M  V30 4006 C 360.898 2.35676 -2.52093 0
M  V30 4007 C 360.011 2.10423 -3.77288 0
M  V30 4008 C 359.146 3.34327 -4.12794 0
M  V30 4009 C 358.185 3.04542 -5.30962 0
M  V30 4010 N 357.322 4.20841 -5.61994 0
M  V30 4011 H 362.162 0.640885 -2.91027 0
M  V30 4012 H 359.699 0.304854 -1.43906 0
M  V30 4013 H 361.657 3.11709 -2.77297 0
M  V30 4014 H 360.287 2.7485 -1.69285 0
M  V30 4015 H 359.339 1.24976 -3.59284 0
M  V30 4016 H 360.651 1.84438 -4.63448 0
M  V30 4017 H 359.805 4.1874 -4.39024 0
M  V30 4018 H 358.544 3.63408 -3.25247 0
M  V30 4019 H 357.549 2.18528 -5.04505 0
M  V30 4020 H 358.774 2.76758 -6.20146 0
M  V30 4021 H 356.72 4.4991 -4.77406 0
M  V30 4022 H 356.637 3.98212 -6.42622 0
M  V30 4023 H 357.905 5.06184 -5.92789 0
M  V30 4024 N 362.134 1.5431 0.320358 0
M  V30 4025 C 363.084 1.803 1.39556 0
M  V30 4026 C 364.068 0.659166 1.46778 0
M  V30 4027 O 365.26 0.91926 1.51257 0
M  V30 4028 C 362.389 2.03665 2.76361 0
M  V30 4029 C 361.475 3.24178 2.73439 0
M  V30 4030 N 361.866 4.4516 2.40137 0
M  V30 4031 C 360.164 3.25816 3.04565 0
M  V30 4032 C 360.865 5.27109 2.4603 0
M  V30 4033 N 359.841 4.64368 2.82601 0
M  V30 4034 H 363.643 2.71416 1.12742 0
M  V30 4035 H 361.157 1.53548 0.528856 0
M  V30 4036 H 363.154 2.20425 3.53862 0
M  V30 4037 H 361.814 1.13805 3.04103 0
M  V30 4038 H 362.825 4.72104 2.12927 0
M  V30 4039 H 359.502 2.46001 3.37328 0
M  V30 4040 H 360.892 6.33728 2.23246 0
M  V30 4041 N 363.613 -0.582584 1.46437 0
M  V30 4042 C 364.859 -1.34278 1.51978 0
M  V30 4043 C 365.192 -1.93446 0.170973 0
M  V30 4044 O 364.467 -1.76481 -0.817608 0
M  V30 4045 C 364.75 -2.47203 2.61845 0
M  V30 4046 C 364.603 -1.93069 4.06257 0
M  V30 4047 C 365.922 -3.49247 2.67795 0
M  V30 4048 H 363.041 -0.486876 0.553282 0
M  V30 4049 H 365.683 -0.654437 1.78374 0
M  V30 4050 H 363.833 -3.0592 2.39469 0
M  V30 4051 H 365.505 -1.38808 4.3992 0
M  V30 4052 H 363.748 -1.23898 4.1573 0
M  V30 4053 H 364.419 -2.74586 4.7886 0
M  V30 4054 H 366.895 -3.00411 2.8791 0
M  V30 4055 H 365.771 -4.25719 3.46489 0
M  V30 4056 H 366.032 -4.06482 1.73852 0
M  V30 4057 N 365.091 -1.34144 -0.827227 0
M  V30 4058 C 366.316 -1.29476 -1.62021 0
M  V30 4059 C 366.741 0.129292 -1.87655 0
M  V30 4060 O 366.099 1.08967 -1.449 0
M  V30 4061 C 366.147 -2.08702 -2.94068 0
M  V30 4062 O 365.251 -1.45359 -3.85933 0
M  V30 4063 H 364.592 -0.444881 -0.492927 0
M  V30 4064 H 367.122 -1.76882 -1.02829 0
M  V30 4065 H 367.132 -2.19898 -3.43669 0
M  V30 4066 H 365.807 -3.12241 -2.74734 0
M  V30 4067 H 364.384 -1.42879 -3.44442 0
M  V30 4068 N 366.569 1.04691 -1.17803 0
M  V30 4069 C 367.501 2.12571 -0.857097 0
M  V30 4070 C 368.514 1.62174 0.142647 0
M  V30 4071 O 369.703 1.78301 -0.0843387 0
M  V30 4072 C 366.803 3.37915 -0.258216 0
M  V30 4073 C 365.976 4.1757 -1.30207 0
M  V30 4074 C 365.035 5.2125 -0.720029 0
M  V30 4075 O 364.061 5.51888 -1.39314 0
M  V30 4076 N 365.263 5.78466 0.485507 0
M  V30 4077 H 368.028 2.40698 -1.78562 0
M  V30 4078 H 365.589 1.20831 -1.07757 0
M  V30 4079 H 367.581 4.04442 0.144584 0
M  V30 4080 H 366.151 3.07281 0.574199 0
M  V30 4081 H 365.371 3.46458 -1.88043 0
M  V30 4082 H 366.659 4.67586 -2.00601 0
M  V30 4083 H 366.057 5.55866 1.05022 0
M  V30 4084 H 364.614 6.4649 0.830307 0
M  V30 4085 N 368.047 0.979072 1.23499 0
M  V30 4086 C 369.294 0.647219 1.91878 0
M  V30 4087 C 369.622 -0.819074 1.76413 0
M  V30 4088 O 368.877 -1.60616 1.11808 0
M  V30 4089 C 369.176 0.981932 3.43646 0
M  V30 4090 C 368.842 2.43822 3.79291 0
M  V30 4091 C 367.504 2.83622 3.88731 0
M  V30 4092 C 369.856 3.3828 3.96505 0
M  V30 4093 C 367.184 4.16897 4.12812 0
M  V30 4094 C 369.536 4.71197 4.22085 0
M  V30 4095 C 368.2 5.10758 4.29747 0
M  V30 4096 H 367.47 0.236834 0.702133 0
M  V30 4097 H 370.117 1.23268 1.46551 0
M  V30 4098 H 368.422 0.314365 3.90537 0
M  V30 4099 H 370.119 0.703395 3.94783 0
M  V30 4100 H 366.709 2.11966 3.72516 0
M  V30 4101 H 370.893 3.0871 3.88603 0
M  V30 4102 H 366.149 4.47157 4.16966 0
M  V30 4103 H 370.323 5.44348 4.34348 0
M  V30 4104 H 367.95 6.1405 4.48159 0
M  V30 4105 N 369.525 -1.3858 0.750561 0
M  V30 4106 C 370.771 -2.00481 0.305825 0
M  V30 4107 C 371.104 -1.5944 -1.10872 0
M  V30 4108 O 370.379 -0.83052 -1.75877 0
M  V30 4109 C 370.662 -3.5758 0.425287 0
M  V30 4110 C 370.515 -4.08594 1.88072 0
M  V30 4111 C 371.834 -4.39719 -0.183122 0
M  V30 4112 H 368.953 -0.728348 0.112598 0
M  V30 4113 H 371.595 -1.64566 0.949638 0
M  V30 4114 H 369.745 -3.88306 -0.122828 0
M  V30 4115 H 371.417 -3.88523 2.48691 0
M  V30 4116 H 369.66 -3.61574 2.39681 0
M  V30 4117 H 370.331 -5.177 1.91548 0
M  V30 4118 H 372.807 -4.15128 0.284303 0
M  V30 4119 H 371.683 -5.48856 -0.0692757 0
M  V30 4120 H 371.944 -4.23434 -1.27106 0
M  V30 4121 N 371.003 -0.499398 -1.49478 0
M  V30 4122 C 371.933 0.269244 -2.31943 0
M  V30 4123 C 372.914 0.964054 -1.40143 0
M  V30 4124 O 374.099 0.955767 -1.69052 0
M  V30 4125 C 371.229 1.33504 -3.20615 0
M  V30 4126 C 370.183 0.760202 -4.21195 0
M  V30 4127 C 369.509 1.9264 -4.98792 0
M  V30 4128 C 370.809 -0.247661 -5.21712 0
M  V30 4129 H 372.503 -0.419082 -2.96452 0
M  V30 4130 H 370.049 -0.202988 -1.42562 0
M  V30 4131 H 372.002 1.88048 -3.77115 0
M  V30 4132 H 370.726 2.05253 -2.54045 0
M  V30 4133 H 369.385 0.23653 -3.65836 0
M  V30 4134 H 369.033 2.63154 -4.28671 0
M  V30 4135 H 368.733 1.54785 -5.66847 0
M  V30 4136 H 370.257 2.4762 -5.58137 0
M  V30 4137 H 371.671 0.209579 -5.72917 0
M  V30 4138 H 370.068 -0.541962 -5.97648 0
M  V30 4139 H 371.138 -1.16409 -4.7072 0
M  V30 4140 N 372.481 1.55866 -0.233164 0
M  V30 4141 C 373.428 2.20796 0.67215 0
M  V30 4142 C 374.398 1.16731 1.18166 0
M  V30 4143 O 375.583 1.45129 1.23864 0
M  V30 4144 C 372.723 2.90072 1.86955 0
M  V30 4145 C 371.836 4.08759 1.39786 0
M  V30 4146 C 370.971 4.65787 2.55374 0
M  V30 4147 C 370.01 5.76752 2.04998 0
M  V30 4148 N 369.147 6.28021 3.13901 0
M  V30 4149 H 373.987 2.9779 0.111749 0
M  V30 4150 H 371.524 1.47036 0.0434007 0
M  V30 4151 H 373.482 3.28428 2.57276 0
M  V30 4152 H 372.112 2.15575 2.40265 0
M  V30 4153 H 371.164 3.7581 0.589173 0
M  V30 4154 H 372.476 4.88906 0.98856 0
M  V30 4155 H 371.63 5.06646 3.33758 0
M  V30 4156 H 370.369 3.84828 2.99598 0
M  V30 4157 H 369.374 5.35383 1.25079 0
M  V30 4158 H 370.599 6.59553 1.61759 0
M  V30 4159 H 368.545 5.49971 3.57586 0
M  V30 4160 H 368.462 7.03323 2.7726 0
M  V30 4161 H 369.73 6.73538 3.92386 0
M  V30 4162 N 373.959 -0.0401083 1.57549 0
M  V30 4163 C 374.869 -1.06133 2.0922 0
M  V30 4164 C 375.885 -1.40356 1.0284 0
M  V30 4165 O 377.061 -1.49897 1.34509 0
M  V30 4166 C 374.126 -2.34658 2.55218 0
M  V30 4167 C 373.187 -2.07117 3.76033 0
M  V30 4168 C 372.42 -3.29514 4.19829 0
M  V30 4169 O 372.643 -4.39794 3.63232 0
M  V30 4170 O 371.577 -3.15863 5.12362 0
M  V30 4171 H 375.403 -0.652244 2.96613 0
M  V30 4172 H 372.988 -0.256368 1.47184 0
M  V30 4173 H 374.87 -3.10239 2.85184 0
M  V30 4174 H 373.545 -2.74883 1.70941 0
M  V30 4175 H 372.452 -1.29139 3.51104 0
M  V30 4176 H 373.785 -1.71754 4.61261 0
M  V30 4177 N 375.437 -1.54477 -0.31217 0
M  V30 4178 C 376.683 -1.73483 -1.0503 0
M  V30 4179 C 377.016 -0.513125 -1.87298 0
M  V30 4180 O 376.291 0.489864 -1.8823 0
M  V30 4181 C 376.574 -3.01723 -1.96558 0
M  V30 4182 C 376.427 -4.3417 -1.17545 0
M  V30 4183 C 377.746 -3.25772 -2.95907 0
M  V30 4184 H 374.865 -0.631222 -0.380432 0
M  V30 4185 H 377.507 -1.87184 -0.325932 0
M  V30 4186 H 375.657 -2.90174 -2.58324 0
M  V30 4187 H 377.329 -4.5762 -0.581513 0
M  V30 4188 H 375.572 -4.31159 -0.477925 0
M  V30 4189 H 376.243 -5.20143 -1.84811 0
M  V30 4190 H 378.719 -3.36857 -2.44267 0
M  V30 4191 H 377.595 -4.16838 -3.57123 0
M  V30 4192 H 377.856 -2.43537 -3.68974 0
M  V30 4193 N 376.915 0.57481 -1.46744 0
M  V30 4194 C 377.825 1.711 -1.60505 0
M  V30 4195 C 378.841 1.67008 -0.488307 0
M  V30 4196 O 380.017 1.86774 -0.753495 0
M  V30 4197 C 377.082 3.07608 -1.59932 0
M  V30 4198 C 376.143 3.22904 -2.82898 0
M  V30 4199 C 375.376 4.529 -2.82343 0
M  V30 4200 O 375.599 5.37278 -1.91542 0
M  V30 4201 O 374.533 4.71611 -3.73987 0
M  V30 4202 H 378.359 1.62436 -2.56609 0
M  V30 4203 H 375.944 0.742779 -1.29627 0
M  V30 4204 H 377.826 3.88877 -1.62336 0
M  V30 4205 H 376.501 3.16692 -0.669898 0
M  V30 4206 H 375.408 2.41099 -2.86046 0
M  V30 4207 H 376.741 3.18715 -3.75076 0
M  V30 4208 N 378.394 1.34581 0.820102 0
M  V30 4209 C 379.641 1.27096 1.57648 0
M  V30 4210 C 379.969 -0.158317 1.93855 0
M  V30 4211 O 379.224 -1.12028 1.60463 0
M  V30 4212 C 379.523 2.10997 2.8847 0
M  V30 4213 C 379.189 3.59966 2.71543 0
M  V30 4214 C 377.851 4.00575 2.66634 0
M  V30 4215 C 380.203 4.54548 2.55021 0
M  V30 4216 C 377.531 5.33953 2.43128 0
M  V30 4217 C 379.883 5.88109 2.33047 0
M  V30 4218 C 378.547 6.27878 2.26552 0
M  V30 4219 H 377.817 0.465078 0.576874 0
M  V30 4220 H 380.464 1.6635 0.948671 0
M  V30 4221 H 378.769 1.6458 3.55557 0
M  V30 4222 H 380.466 2.0255 3.46084 0
M  V30 4223 H 377.056 3.27733 2.76205 0
M  V30 4224 H 381.24 4.24069 2.57835 0
M  V30 4225 H 376.496 5.63781 2.3656 0
M  V30 4226 H 380.67 6.60985 2.19251 0
M  V30 4227 H 378.297 7.31162 2.081 0
M  V30 4228 N 379.872 -1.04064 1.18357 0
M  V30 4229 C 381.288 -1.2947 0.933258 0
M  V30 4230 C 381.488 -1.97466 -0.401169 0
M  V30 4231 O 380.544 -2.25528 -1.13549 0
M  V30 4232 C 381.857 -2.15337 2.09882 0
M  V30 4233 C 383.405 -2.28683 2.13712 0
M  V30 4234 C 383.88 -3.17917 3.29686 0
M  V30 4235 N 385.371 -3.25504 3.29547 0
M  V30 4236 C 386.106 -3.94706 4.15926 0
M  V30 4237 N 385.602 -4.66239 5.12439 0
M  V30 4238 N 387.395 -3.90986 4.0384 0
M  V30 4239 H 379.546 -0.583359 2.04232 0
M  V30 4240 H 381.809 -0.319921 0.892387 0
M  V30 4241 H 381.515 -1.72682 3.06389 0
M  V30 4242 H 381.389 -3.16015 2.05947 0
M  V30 4243 H 383.776 -2.70575 1.17784 0
M  V30 4244 H 383.857 -1.27596 2.21705 0
M  V30 4245 H 383.501 -2.76736 4.25887 0
M  V30 4246 H 383.431 -4.19036 3.1893 0
M  V30 4247 H 385.922 -2.74547 2.59677 0
M  V30 4248 H 386.235 -5.16638 5.74722 0
M  V30 4249 H 384.58 -4.65143 5.16398 0
M  V30 4250 H 387.771 -3.34234 3.27727 0
M  V30 4251 H 387.944 -4.44646 4.71375 0
M  V30 4252 N 381.35 -0.985608 -1.22978 0
M  V30 4253 C 382.59 -0.665487 -1.93263 0
M  V30 4254 C 382.954 0.78706 -1.75127 0
M  V30 4255 O 384.155 1.21826 -2.39608 0
M  V30 4256 C 382.426 -1.0515 -3.41582 0
M  V30 4257 S 383.985 -0.848637 -4.30516 0
M  V30 4258 H 380.803 -0.24355 -0.667985 0
M  V30 4259 H 383.405 -1.26635 -1.48942 0
M  V30 4260 H 382.109 -2.10517 -3.52293 0
M  V30 4261 H 381.64 -0.442134 -3.90908 0
M  V30 4262 H 383.655 0.264717 -4.95493 0
M  V30 4263 N 382.828 1.3818 -0.7579 0
M  V30 4264 C 384.244 1.5353 -0.435972 0
M  V30 4265 C 384.444 1.71961 1.05032 0
M  V30 4266 O 383.5 1.73307 1.83633 0
M  V30 4267 C 384.813 2.73989 -1.23898 0
M  V30 4268 C 386.361 2.87841 -1.22949 0
M  V30 4269 C 386.836 4.11266 -2.01554 0
M  V30 4270 N 388.327 4.18352 -1.98837 0
M  V30 4271 C 389.062 5.12856 -2.5645 0
M  V30 4272 N 388.558 6.13005 -3.22794 0
M  V30 4273 N 390.351 5.05238 -2.46356 0
M  V30 4274 H 382.502 1.24467 -1.7211 0
M  V30 4275 H 384.765 0.604982 -0.729864 0
M  V30 4276 H 384.471 2.66789 -2.29165 0
M  V30 4277 H 384.345 3.67294 -0.858764 0
M  V30 4278 H 386.732 2.9452 -0.184854 0
M  V30 4279 H 386.813 1.95534 -1.64924 0
M  V30 4280 H 386.457 4.05349 -3.06031 0
M  V30 4281 H 386.387 5.02661 -1.5697 0
M  V30 4282 H 388.878 3.46628 -1.50524 0
M  V30 4283 H 389.191 6.81619 -3.64165 0
M  V30 4284 H 387.536 6.13325 -3.2689 0
M  V30 4285 H 390.727 4.25938 -1.9415 0
M  V30 4286 H 390.9 5.78707 -2.91552 0
M  V30 4287 N 384.306 0.507319 1.49211 0
M  V30 4288 C 385.256 -0.287112 2.26185 0
M  V30 4289 C 386.24 -0.929983 1.31302 0
M  V30 4290 O 387.432 -0.836538 1.55984 0
M  V30 4291 C 384.561 -1.34718 3.15763 0
M  V30 4292 C 383.647 -0.710235 4.18111 0
M  V30 4293 N 384.038 0.190836 5.0544 0
M  V30 4294 C 382.336 -0.97009 4.35322 0
M  V30 4295 C 383.037 0.55606 5.79036 0
M  V30 4296 N 382.013 -0.0775232 5.43545 0
M  V30 4297 H 385.815 0.406445 2.91076 0
M  V30 4298 H 383.329 0.323814 1.59139 0
M  V30 4299 H 385.326 -1.92982 3.69545 0
M  V30 4300 H 383.986 -2.04235 2.52424 0
M  V30 4301 H 384.997 0.562047 5.14841 0
M  V30 4302 H 381.674 -1.65753 3.83187 0
M  V30 4303 H 383.064 1.2936 6.5933 0
M  V30 4304 N 385.784 -1.5574 0.241426 0
M  V30 4305 C 387.012 -2.03208 -0.389134 0
M  V30 4306 C 387.427 -1.12082 -1.51931 0
M  V30 4307 O 386.784 -0.134183 -1.82006 0
M  V30 4308 C 386.835 -3.50064 -0.902087 0
M  V30 4309 O 386.556 -4.37717 0.18305 0
M  V30 4310 C 388.057 -4.13268 -1.60389 0
M  V30 4311 H 385.277 -0.664509 -0.0931053 0
M  V30 4312 H 387.821 -2.0124 0.36369 0
M  V30 4313 H 385.976 -3.52583 -1.60511 0
M  V30 4314 H 386.39 -5.24097 -0.205579 0
M  V30 4315 H 387.864 -5.17733 -1.91458 0
M  V30 4316 H 388.341 -3.59434 -2.52397 0
M  V30 4317 H 388.947 -4.14655 -0.945576 0
M  V30 4318 N 387.262 0.0317525 -1.57568 0
M  V30 4319 C 388.509 0.723104 -1.89149 0
M  V30 4320 C 388.837 1.75504 -0.838377 0
M  V30 4321 O 388.092 1.95037 0.160982 0
M  V30 4322 C 388.391 1.43167 -3.27472 0
M  V30 4323 C 388.057 0.535972 -4.47703 0
M  V30 4324 C 386.719 0.289262 -4.8033 0
M  V30 4325 C 389.071 -0.0826125 -5.21135 0
M  V30 4326 C 386.399 -0.584853 -5.83778 0
M  V30 4327 C 388.751 -0.944414 -6.25511 0
M  V30 4328 C 387.415 -1.20061 -6.56614 0
M  V30 4329 H 386.685 0.264602 -0.692146 0
M  V30 4330 H 389.332 -0.0169496 -1.91492 0
M  V30 4331 H 387.637 2.24497 -3.21105 0
M  V30 4332 H 389.334 1.97209 -3.49155 0
M  V30 4333 H 385.924 0.738414 -4.22191 0
M  V30 4334 H 390.108 0.0950302 -4.96209 0
M  V30 4335 H 385.364 -0.79168 -6.06253 0
M  V30 4336 H 389.538 -1.43026 -6.81554 0
M  V30 4337 H 387.165 -1.87967 -7.36595 0
M  V30 4338 N 388.74 1.54641 0.303973 0
M  V30 4339 C 389.703 1.84646 1.35789 0
M  V30 4340 C 390.703 0.7192 1.4382 0
M  V30 4341 O 391.893 0.987491 1.43507 0
M  V30 4342 C 389.025 2.02407 2.74307 0
M  V30 4343 H 390.218 2.78829 1.10429 0
M  V30 4344 H 387.771 1.46658 0.540487 0
M  V30 4345 H 388.506 1.10502 3.04893 0
M  V30 4346 H 388.291 2.84453 2.69868 0
M  V30 4347 H 389.781 2.27002 3.50514 0
M  V30 4348 N 390.218 -0.567019 1.47046 0
M  V30 4349 C 391.634 -0.891975 1.32348 0
M  V30 4350 C 391.834 -1.99154 0.306616 0
M  V30 4351 O 390.89 -2.50883 -0.28532 0
M  V30 4352 C 392.203 -1.29449 2.7141 0
M  V30 4353 C 393.751 -1.40646 2.79621 0
M  V30 4354 C 394.226 -1.84257 4.19301 0
M  V30 4355 N 395.717 -1.91424 4.21795 0
M  V30 4356 C 396.452 -2.26476 5.26779 0
M  V30 4357 N 395.948 -2.60211 6.42077 0
M  V30 4358 N 397.741 -2.27166 5.14152 0
M  V30 4359 H 389.892 0.159074 2.11803 0
M  V30 4360 H 392.155 0.00849752 0.947962 0
M  V30 4361 H 391.861 -0.560448 3.47206 0
M  V30 4362 H 391.735 -2.25273 3.02542 0
M  V30 4363 H 394.122 -2.13133 2.04104 0
M  V30 4364 H 394.203 -0.430339 2.52154 0
M  V30 4365 H 393.847 -1.12343 4.95319 0
M  V30 4366 H 393.777 -2.82855 4.44185 0
M  V30 4367 H 396.268 -1.6778 3.38612 0
M  V30 4368 H 396.581 -2.85956 7.17948 0
M  V30 4369 H 394.926 -2.57813 6.45413 0
M  V30 4370 H 398.117 -2.00244 4.23107 0
M  V30 4371 H 398.29 -2.54154 5.96079 0
M  V30 4372 N 391.696 -1.35014 -0.812953 0
M  V30 4373 C 392.973 -1.18502 -1.55617 0
M  V30 4374 C 393.353 0.238421 -2.09749 0
M  V30 4375 O 392.701 1.2411 -1.91857 0
M  V30 4376 C 392.911 -2.24783 -2.66971 0
M  V30 4377 C 394.259 -2.60268 -3.35478 0
M  V30 4378 O 395.283 -2.23648 -2.77236 0
M  V30 4379 O 394.142 -3.2321 -4.40678 0
M  V30 4380 H 391.236 -0.459984 -0.687272 0
M  V30 4381 H 393.782 -1.46677 -0.853464 0
M  V30 4382 H 392.554 -3.20284 -2.24798 0
M  V30 4383 H 392.177 -1.97841 -3.44884 0
M  V30 4384 N 393.175 1.03435 -1.18907 0
M  V30 4385 C 394.405 1.8012 -1.01195 0
M  V30 4386 C 394.813 1.8395 0.442613 0
M  V30 4387 O 394.156 1.27836 1.31923 0
M  V30 4388 C 394.218 3.26792 -1.49823 0
M  V30 4389 C 393.882 3.46609 -2.97844 0
M  V30 4390 C 394.879 3.37278 -3.95651 0
M  V30 4391 C 392.564 3.73001 -3.36416 0
M  V30 4392 C 394.558 3.54054 -5.30023 0
M  V30 4393 C 392.245 3.89423 -4.70949 0
M  V30 4394 C 393.243 3.79951 -5.67562 0
M  V30 4395 O 392.931 3.95895 -6.99659 0
M  V30 4396 H 392.663 0.573865 -0.357289 0
M  V30 4397 H 395.217 1.31207 -1.58031 0
M  V30 4398 H 393.447 3.76703 -0.873578 0
M  V30 4399 H 395.136 3.85055 -1.28404 0
M  V30 4400 H 395.902 3.16846 -3.67197 0
M  V30 4401 H 391.781 3.79469 -2.61772 0
M  V30 4402 H 395.325 3.46577 -6.05417 0
M  V30 4403 H 391.222 4.09351 -4.99101 0
M  V30 4404 H 391.99 4.13019 -7.06653 0
M  V30 4405 N 394.653 0.992116 1.22453 0
M  V30 4406 C 395.899 0.668523 1.91464 0
M  V30 4407 C 396.232 -0.797313 1.77078 0
M  V30 4408 O 395.507 -1.5765 1.13916 0
M  V30 4409 C 395.79 1.07424 3.43703 0
M  V30 4410 C 395.643 2.59857 3.67143 0
M  V30 4411 C 396.962 0.626891 4.35612 0
M  V30 4412 H 394.081 0.244341 0.695318 0
M  V30 4413 H 396.723 1.2355 1.44345 0
M  V30 4414 H 394.873 0.591816 3.83966 0
M  V30 4415 H 396.545 3.15764 3.3629 0
M  V30 4416 H 394.788 3.01961 3.11451 0
M  V30 4417 H 395.459 2.83296 4.73759 0
M  V30 4418 H 397.935 1.04125 4.02861 0
M  V30 4419 H 396.811 0.939076 5.40807 0
M  V30 4420 H 397.072 -0.472457 4.39568 0
M  V30 4421 N 396.131 -1.37776 0.765217 0
M  V30 4422 C 397.377 -2.00145 0.327072 0
M  V30 4423 C 397.71 -1.60607 -1.09175 0
M  V30 4424 O 396.985 -0.849127 -1.74986 0
M  V30 4425 C 397.268 -3.57109 0.46319 0
M  V30 4426 C 397.121 -4.06576 1.92395 0
M  V30 4427 C 398.44 -4.39888 -0.136473 0
M  V30 4428 H 395.559 -0.727113 0.120316 0
M  V30 4429 H 398.201 -1.63549 0.967039 0
M  V30 4430 H 396.351 -3.88414 -0.0816358 0
M  V30 4431 H 398.023 -3.85864 2.52798 0
M  V30 4432 H 396.266 -3.59011 2.43503 0
M  V30 4433 H 396.937 -5.15639 1.97028 0
M  V30 4434 H 399.413 -4.14803 0.328317 0
M  V30 4435 H 398.289 -5.48899 -0.0110582 0
M  V30 4436 H 398.55 -4.24758 -1.22608 0
M  V30 4437 N 397.609 -0.515225 -1.4894 0
M  V30 4438 C 398.519 0.259774 -2.33157 0
M  V30 4439 C 399.535 0.953501 -1.45548 0
M  V30 4440 O 400.711 0.931735 -1.78552 0
M  V30 4441 C 397.776 1.30193 -3.21326 0
M  V30 4442 C 396.837 0.620129 -4.24797 0
M  V30 4443 C 396.07 1.61263 -5.08753 0
M  V30 4444 O 396.293 2.84389 -4.94448 0
M  V30 4445 O 395.227 1.16013 -5.90614 0
M  V30 4446 H 399.053 -0.429932 -3.00641 0
M  V30 4447 H 396.638 -0.276346 -1.46822 0
M  V30 4448 H 398.52 1.90455 -3.75905 0
M  V30 4449 H 397.195 1.97431 -2.56521 0
M  V30 4450 H 396.102 -0.0226019 -3.74093 0
M  V30 4451 H 397.435 -0.0100493 -4.92199 0
M  V30 4452 N 399.087 1.5561 -0.249682 0
M  V30 4453 C 400.035 2.22894 0.664906 0
M  V30 4454 C 401.029 1.21743 1.17792 0
M  V30 4455 O 402.235 1.39748 1.13449 0
M  V30 4456 H 398.61 0.715022 0.232912 0
M  V30 4457 H 400.581 2.98307 0.0742998 0
M  V30 4458 C 399.33 2.94424 1.84959 0
M  V30 4459 H 398.653 3.72031 1.46399 0
M  V30 4460 H 400.093 3.44862 2.4667 0
M  V30 4461 C 398.552 1.98454 2.72245 0
M  V30 4462 O 399.082 1.51939 3.71857 0
M  V30 4463 N 397.288 1.65496 2.38871 0
M  V30 4464 H 396.835 2.03517 1.57919 0
M  V30 4465 H 396.793 1.0155 2.97548 0
M  V30 4466 N 400.565 -0.0233959 1.57583 0
M  V30 4467 C 401.512 -1.02224 2.06927 0
M  V30 4468 C 402.482 -1.35575 0.959617 0
M  V30 4469 O 403.667 -1.45815 1.23055 0
M  V30 4470 C 400.807 -2.31636 2.5581 0
M  V30 4471 C 399.92 -2.04394 3.80588 0
M  V30 4472 C 399.055 -3.27717 4.18061 0
M  V30 4473 C 398.094 -2.96056 5.3574 0
M  V30 4474 N 397.231 -4.11847 5.68618 0
M  V30 4475 H 402.071 -0.594504 2.9201 0
M  V30 4476 H 399.608 -0.281921 1.44373 0
M  V30 4477 H 401.566 -3.07258 2.82221 0
M  V30 4478 H 400.196 -2.72122 1.73636 0
M  V30 4479 H 399.248 -1.19244 3.61227 0
M  V30 4480 H 400.56 -1.77042 4.66323 0
M  V30 4481 H 399.714 -4.11702 4.4563 0
M  V30 4482 H 398.453 -3.58188 3.30988 0
M  V30 4483 H 397.458 -2.10474 5.07918 0
M  V30 4484 H 398.683 -2.66857 6.24471 0
M  V30 4485 H 396.629 -4.42258 4.84504 0
M  V30 4486 H 396.546 -3.87938 6.48876 0
M  V30 4487 H 397.814 -4.96689 6.00766 0
M  V30 4488 N 402.043 -1.548 -0.295768 0
M  V30 4489 C 403.32 -1.65014 -1.05023 0
M  V30 4490 C 403.7 -0.501805 -2.05049 0
M  V30 4491 O 403.048 0.500869 -2.22943 0
M  V30 4492 C 403.258 -3.03252 -1.72741 0
M  V30 4493 C 404.606 -3.60242 -2.24746 0
M  V30 4494 O 405.63 -3.05737 -1.82765 0
M  V30 4495 O 404.489 -4.55687 -3.01681 0
M  V30 4496 H 401.583 -0.669314 -0.485744 0
M  V30 4497 H 404.129 -1.67144 -0.293438 0
M  V30 4498 H 402.901 -3.7827 -1.00138 0
M  V30 4499 H 402.524 -3.04922 -2.55163 0
M  V30 4500 N 403.521 0.559213 -1.47345 0
M  V30 4501 C 404.469 1.68747 -1.60085 0
M  V30 4502 C 405.463 1.628 -0.46825 0
M  V30 4503 O 406.669 1.68009 -0.645977 0
M  V30 4504 H 403.044 0.558329 -0.503759 0
M  V30 4505 H 405.015 1.55138 -2.54902 0
M  V30 4506 C 403.764 3.07103 -1.63042 0
M  V30 4507 H 403.087 3.12361 -2.49541 0
M  V30 4508 H 404.527 3.85743 -1.76006 0
M  V30 4509 C 402.986 3.34935 -0.363357 0
M  V30 4510 O 403.516 3.98102 0.536416 0
M  V30 4511 N 401.722 2.89574 -0.244 0
M  V30 4512 H 401.269 2.38348 -0.977133 0
M  V30 4513 H 401.227 3.08566 0.602836 0
M  V30 4514 N 404.999 1.35443 0.805782 0
M  V30 4515 C 406.245 1.28952 1.56522 0
M  V30 4516 C 406.578 -0.135597 1.93726 0
M  V30 4517 O 405.853 -1.08516 1.61414 0
M  V30 4518 C 406.136 2.19678 2.85331 0
M  V30 4519 C 405.989 3.7081 2.54598 0
M  V30 4520 C 407.308 2.09495 3.8704 0
M  V30 4521 H 404.427 0.469764 0.567883 0
M  V30 4522 H 407.069 1.65851 0.927001 0
M  V30 4523 H 405.219 1.8834 3.39795 0
M  V30 4524 H 406.891 4.12593 2.06312 0
M  V30 4525 H 405.134 3.91051 1.8778 0
M  V30 4526 H 405.805 4.29679 3.46525 0
M  V30 4527 H 408.281 2.37045 3.41978 0
M  V30 4528 H 407.157 2.75173 4.74943 0
M  V30 4529 H 407.418 1.07714 4.28777 0
M  V30 4530 N 406.477 -1.02803 1.19454 0
M  V30 4531 C 407.726 -1.7562 0.991996 0
M  V30 4532 C 408.039 -1.89672 -0.477901 0
M  V30 4533 O 409.245 -2.59468 -0.799287 0
M  V30 4534 C 407.701 -3.15812 1.72601 0
M  V30 4535 C 407.309 -3.0981 3.23607 0
M  V30 4536 C 409.053 -3.92918 1.60674 0
M  V30 4537 C 406.96 -4.44939 3.89594 0
M  V30 4538 H 405.89 -0.658352 0.367543 0
M  V30 4539 H 408.541 -1.15044 1.42959 0
M  V30 4540 H 406.923 -3.7686 1.21624 0
M  V30 4541 H 408.097 -2.58138 3.81709 0
M  V30 4542 H 406.412 -2.46201 3.35819 0
M  V30 4543 H 409.009 -4.9287 2.07323 0
M  V30 4544 H 409.352 -4.12502 0.561025 0
M  V30 4545 H 409.885 -3.38472 2.09001 0
M  V30 4546 H 406.624 -4.30559 4.94267 0
M  V30 4547 H 406.144 -4.96664 3.36281 0
M  V30 4548 H 407.823 -5.1382 3.93189 0
M  V30 4549 N 407.956 -0.998596 -1.21925 0
M  V30 4550 C 409.181 -0.696015 -1.95372 0
M  V30 4551 C 409.606 0.733826 -1.73195 0
M  V30 4552 O 408.964 1.50242 -1.01474 0
M  V30 4553 C 409.012 -1.01466 -3.4603 0
M  V30 4554 O 408.116 -0.116415 -4.12236 0
M  V30 4555 H 407.457 -0.259938 -0.611006 0
M  V30 4556 H 409.987 -1.33711 -1.54863 0
M  V30 4557 H 409.997 -0.958855 -3.96573 0
M  V30 4558 H 408.672 -2.05653 -3.61497 0
M  V30 4559 H 407.249 -0.228193 -3.72201 0
M  V30 4560 N 409.434 1.37368 -0.772513 0
M  V30 4561 C 410.683 1.98918 -0.333861 0
M  V30 4562 C 410.996 1.62017 1.09589 0
M  V30 4563 O 412.202 2.16676 1.63596 0
M  V30 4564 C 410.658 3.55735 -0.545971 0
M  V30 4565 C 410.266 4.01573 -1.98603 0
M  V30 4566 C 412.01 4.24156 -0.170979 0
M  V30 4567 C 409.917 5.51102 -2.1457 0
M  V30 4568 H 408.847 0.744214 -0.121085 0
M  V30 4569 H 411.498 1.56888 -0.95175 0
M  V30 4570 H 409.88 3.95748 0.141387 0
M  V30 4571 H 411.054 3.72803 -2.7084 0
M  V30 4572 H 409.369 3.45937 -2.31769 0
M  V30 4573 H 411.966 5.34024 -0.26878 0
M  V30 4574 H 412.309 4.06917 0.878855 0
M  V30 4575 H 412.842 3.89447 -0.810914 0
M  V30 4576 H 409.581 5.73268 -3.17875 0
M  V30 4577 H 409.101 5.81554 -1.46817 0
M  V30 4578 H 410.78 6.17083 -1.94468 0
M  V30 4579 N 410.912 0.523116 1.48665 0
M  V30 4580 C 412.189 -0.0775449 1.95446 0
M  V30 4581 C 412.569 -1.5197 1.4652 0
M  V30 4582 O 411.917 -2.17876 0.688657 0
M  V30 4583 C 412.127 0.0326135 3.48985 0
M  V30 4584 C 413.475 -0.130141 4.24401 0
M  V30 4585 O 414.499 -0.0415142 3.56176 0
M  V30 4586 O 413.358 -0.31491 5.45592 0
M  V30 4587 H 410.452 -0.0831012 0.822814 0
M  V30 4588 H 412.998 0.587227 1.59216 0
M  V30 4589 H 411.77 1.03748 3.77296 0
M  V30 4590 H 411.393 -0.671317 3.91892 0
M  V30 4591 N 412.39 -1.55475 0.257931 0
M  V30 4592 C 413.34 -2.18506 -0.651094 0
M  V30 4593 C 414.324 -1.14431 -1.13112 0
M  V30 4594 O 415.516 -1.40305 -1.07905 0
M  V30 4595 C 412.645 -2.89653 -1.84272 0
M  V30 4596 C 411.731 -4.00996 -1.38068 0
M  V30 4597 N 412.122 -5.01816 -0.633609 0
M  V30 4598 C 410.42 -4.13753 -1.66506 0
M  V30 4599 C 411.121 -5.80371 -0.392922 0
M  V30 4600 N 410.097 -5.3505 -0.960359 0
M  V30 4601 H 413.899 -2.93811 -0.0722883 0
M  V30 4602 H 411.413 -1.62286 0.0607256 0
M  V30 4603 H 413.41 -3.33245 -2.50506 0
M  V30 4604 H 412.07 -2.15854 -2.42564 0
M  V30 4605 H 413.081 -5.17128 -0.282626 0
M  V30 4606 H 409.758 -3.51133 -2.25858 0
M  V30 4607 H 411.148 -6.7159 0.204235 0
M  V30 4608 N 413.868 0.0150385 -1.57593 0
M  V30 4609 C 415.284 0.370907 -1.5523 0
M  V30 4610 C 415.484 1.75735 -0.985882 0
M  V30 4611 O 414.54 2.44944 -0.613077 0
M  V30 4612 C 415.853 0.259908 -2.99575 0
M  V30 4613 C 417.401 0.335959 -3.11192 0
M  V30 4614 C 417.876 0.254253 -4.57294 0
M  V30 4615 N 419.367 0.312618 -4.62144 0
M  V30 4616 C 420.102 0.272505 -5.72752 0
M  V30 4617 N 419.598 0.183864 -6.92556 0
M  V30 4618 N 421.391 0.323267 -5.6117 0
M  V30 4619 H 413.542 -0.892104 -1.92757 0
M  V30 4620 H 415.805 -0.340563 -0.884715 0
M  V30 4621 H 415.511 -0.693403 -3.44797 0
M  V30 4622 H 415.385 1.048 -3.62349 0
M  V30 4623 H 417.772 1.27971 -2.65909 0
M  V30 4624 H 417.853 -0.481739 -2.51223 0
M  V30 4625 H 417.497 -0.685887 -5.03247 0
M  V30 4626 H 417.427 1.09024 -5.15191 0
M  V30 4627 H 419.918 0.38307 -3.75953 0
M  V30 4628 H 420.231 0.15874 -7.72637 0
M  V30 4629 H 418.576 0.149708 -6.94839 0
M  V30 4630 H 421.767 0.390607 -4.66467 0
M  V30 4631 H 421.94 0.288539 -6.47357 0
M  V30 4632 N 415.346 1.54954 0.287554 0
M  V30 4633 C 416.594 1.74528 1.01904 0
M  V30 4634 C 416.915 0.541349 1.87335 0
M  V30 4635 O 416.185 -0.444108 1.908 0
M  V30 4636 H 414.765 0.643576 0.379235 0
M  V30 4637 H 417.427 1.92333 0.315294 0
M  V30 4638 H 416.523 2.64015 1.6644 0
M  V30 4639 N 416.824 -0.551391 1.4764 0
M  V30 4640 C 417.787 -1.64007 1.60107 0
M  V30 4641 C 418.787 -1.53601 0.47576 0
M  V30 4642 O 419.977 -1.57655 0.740988 0
M  V30 4643 C 417.109 -3.03569 1.55108 0
M  V30 4644 H 418.302 -1.543 2.57161 0
M  V30 4645 H 415.855 -0.771776 1.35917 0
M  V30 4646 H 416.59 -3.18804 0.594519 0
M  V30 4647 H 416.375 -3.12532 2.36783 0
M  V30 4648 H 417.865 -3.82762 1.66982 0
M  V30 4649 N 418.302 -1.35869 -0.798587 0
M  V30 4650 C 419.249 -1.29446 -1.91082 0
M  V30 4651 C 420.219 -0.16487 -1.6528 0
M  V30 4652 O 421.404 -0.349888 -1.87564 0
M  V30 4653 C 418.544 -1.0804 -3.27752 0
M  V30 4654 C 417.657 -2.29993 -3.65687 0
M  V30 4655 C 416.792 -2.01673 -4.91428 0
M  V30 4656 C 415.831 -3.19636 -5.22015 0
M  V30 4657 N 414.968 -2.91039 -6.38937 0
M  V30 4658 H 419.808 -2.24553 -1.95907 0
M  V30 4659 H 417.345 -1.11615 -0.958148 0
M  V30 4660 H 419.303 -0.936586 -4.06551 0
M  V30 4661 H 417.933 -0.16592 -3.22373 0
M  V30 4662 H 416.985 -2.55211 -2.82085 0
M  V30 4663 H 418.297 -3.18052 -3.84245 0
M  V30 4664 H 417.451 -1.84168 -5.78072 0
M  V30 4665 H 416.19 -1.10911 -4.74921 0
M  V30 4666 H 415.195 -3.37709 -4.33858 0
M  V30 4667 H 416.42 -4.11211 -5.40447 0
M  V30 4668 H 414.366 -2.0288 -6.2384 0
M  V30 4669 H 414.283 -3.72635 -6.57784 0
M  V30 4670 H 415.551 -2.77093 -7.28587 0
M  V30 4671 N 419.78 1.02168 -1.19998 0
M  V30 4672 C 421.005 1.79833 -1.03319 0
M  V30 4673 C 421.43 1.83504 0.413281 0
M  V30 4674 O 420.788 1.26635 1.29743 0
M  V30 4675 C 420.836 3.22396 -1.61533 0
M  V30 4676 O 419.94 4.03555 -0.849519 0
M  V30 4677 H 419.281 0.554872 -0.364709 0
M  V30 4678 H 421.811 1.28542 -1.59179 0
M  V30 4679 H 421.821 3.73124 -1.65054 0
M  V30 4680 H 420.496 3.19039 -2.66809 0
M  V30 4681 H 419.073 3.62169 -0.888129 0
M  V30 4682 N 421.258 1.00505 1.21394 0
M  V30 4683 C 422.486 0.706609 1.9446 0
M  V30 4684 C 422.901 -0.73081 1.74082 0
M  V30 4685 O 422.258 -1.49446 1.04747 0
M  V30 4686 C 422.309 1.01824 3.46863 0
M  V30 4687 O 422.03 2.39919 3.66566 0
M  V30 4688 C 423.531 0.739216 4.37093 0
M  V30 4689 H 420.751 0.260394 0.618414 0
M  V30 4690 H 423.295 1.34311 1.54211 0
M  V30 4691 H 421.45 0.427343 3.85036 0
M  V30 4692 H 421.864 2.50784 4.6066 0
M  V30 4693 H 423.338 1.00744 5.42729 0
M  V30 4694 H 423.815 -0.326746 4.37983 0
M  V30 4695 H 424.421 1.31173 4.04566 0
M  V30 4696 N 422.737 -1.36956 0.779787 0
M  V30 4697 C 423.7 -2.2851 0.177662 0
M  V30 4698 C 424.7 -1.48393 -0.619377 0
M  V30 4699 O 425.89 -1.68505 -0.441785 0
M  V30 4700 C 423.022 -3.32428 -0.755279 0
M  V30 4701 H 424.215 -2.83269 0.984823 0
M  V30 4702 H 421.768 -1.46358 0.548544 0
M  V30 4703 H 422.503 -2.82808 -1.58714 0
M  V30 4704 H 422.288 -3.91659 -0.185817 0
M  V30 4705 H 423.778 -4.00824 -1.17174 0
M  V30 4706 N 424.215 -0.530993 -1.48385 0
M  V30 4707 C 425.145 0.219985 -2.32461 0
M  V30 4708 C 426.126 0.934111 -1.42156 0
M  V30 4709 O 427.311 0.919694 -1.71042 0
M  V30 4710 C 424.441 1.26674 -3.23375 0
M  V30 4711 C 423.395 0.67069 -4.22712 0
M  V30 4712 C 422.721 1.82017 -5.02766 0
M  V30 4713 C 424.021 -0.358268 -5.2107 0
M  V30 4714 H 425.715 -0.48187 -2.95497 0
M  V30 4715 H 423.261 -0.233182 -1.42099 0
M  V30 4716 H 425.214 1.80006 -3.81019 0
M  V30 4717 H 423.938 1.99818 -2.58341 0
M  V30 4718 H 422.597 0.158878 -3.66256 0
M  V30 4719 H 422.245 2.54002 -4.34157 0
M  V30 4720 H 421.945 1.42727 -5.70003 0
M  V30 4721 H 423.469 2.35725 -5.63264 0
M  V30 4722 H 424.883 0.0880081 -5.73232 0
M  V30 4723 H 423.28 -0.66861 -5.96364 0
M  V30 4724 H 424.35 -1.26367 -4.68145 0
M  V30 4725 N 425.693 1.55336 -0.266172 0
M  V30 4726 C 426.94 1.99397 0.353158 0
M  V30 4727 C 427.268 1.15451 1.56529 0
M  V30 4728 O 426.523 0.209974 1.9457 0
M  V30 4729 C 426.822 3.48606 0.787957 0
M  V30 4730 C 426.488 4.49773 -0.318541 0
M  V30 4731 C 425.15 4.77158 -0.62239 0
M  V30 4732 C 427.502 5.10212 -1.06459 0
M  V30 4733 C 424.83 5.62251 -1.67602 0
M  V30 4734 C 427.182 5.96449 -2.10788 0
M  V30 4735 C 425.846 6.22158 -2.41817 0
M  V30 4736 H 425.116 0.729644 0.12923 0
M  V30 4737 H 427.763 1.87732 -0.37802 0
M  V30 4738 H 426.068 3.57701 1.59866 0
M  V30 4739 H 427.765 3.80098 1.27775 0
M  V30 4740 H 424.355 4.2854 -0.0715925 0
M  V30 4741 H 428.539 4.89086 -0.843098 0
M  V30 4742 H 423.795 5.80419 -1.92155 0
M  V30 4743 H 427.969 6.42317 -2.69076 0
M  V30 4744 H 425.596 6.87888 -3.23596 0
M  V30 4745 N 427.171 -0.0066808 1.57599 0
M  V30 4746 C 428.134 -0.985035 2.06953 0
M  V30 4747 C 429.134 -1.27663 0.977687 0
M  V30 4748 O 430.324 -1.22293 1.24057 0
M  V30 4749 C 427.456 -2.3118 2.50536 0
M  V30 4750 H 428.649 -0.558255 2.94658 0
M  V30 4751 H 426.202 -0.254011 1.54222 0
M  V30 4752 H 426.937 -2.78561 1.66054 0
M  V30 4753 H 426.722 -2.11338 3.3027 0
M  V30 4754 H 428.212 -3.01377 2.8907 0
M  V30 4755 N 428.649 -1.55105 -0.279332 0
M  V30 4756 C 429.874 -1.7976 -1.03446 0
M  V30 4757 C 430.299 -0.565952 -1.79384 0
M  V30 4758 O 429.657 0.484259 -1.74713 0
M  V30 4759 C 429.705 -3.0179 -1.97371 0
M  V30 4760 O 428.809 -2.76432 -3.06038 0
M  V30 4761 H 428.15 -0.594334 -0.29608 0
M  V30 4762 H 430.68 -2.02235 -0.310165 0
M  V30 4763 H 430.69 -3.30351 -2.39441 0
M  V30 4764 H 429.365 -3.91085 -1.4151 0
M  V30 4765 H 427.942 -2.58949 -2.68328 0
M  V30 4766 N 430.127 0.543554 -1.4793 0
M  V30 4767 C 431.367 1.31072 -1.56843 0
M  V30 4768 C 431.731 1.90604 -0.231124 0
M  V30 4769 O 432.932 2.68091 -0.195165 0
M  V30 4770 C 431.203 2.38106 -2.66533 0
M  V30 4771 S 432.762 3.24729 -2.95122 0
M  V30 4772 H 429.58 0.446035 -0.553691 0
M  V30 4773 H 432.182 0.620777 -1.85382 0
M  V30 4774 H 430.886 1.92828 -3.62278 0
M  V30 4775 H 430.417 3.11824 -2.39852 0
M  V30 4776 H 432.432 4.37891 -2.3338 0
M  V30 4777 N 431.605 1.3629 0.791371 0
M  V30 4778 C 432.835 1.33368 1.57786 0
M  V30 4779 C 433.243 -0.0875188 1.88997 0
M  V30 4780 O 432.586 -1.05427 1.50435 0
M  V30 4781 C 432.648 2.08802 2.92646 0
M  V30 4782 C 432.312 3.57903 2.84174 0
M  V30 4783 C 433.309 4.52191 2.56553 0
M  V30 4784 C 430.994 4.00762 3.02812 0
M  V30 4785 C 432.988 5.87315 2.47669 0
M  V30 4786 C 430.675 5.35977 2.93551 0
M  V30 4787 C 431.673 6.29066 2.66017 0
M  V30 4788 O 431.361 7.61798 2.56746 0
M  V30 4789 H 431.093 0.459166 0.496128 0
M  V30 4790 H 433.647 1.79952 0.990269 0
M  V30 4791 H 431.877 1.56878 3.53449 0
M  V30 4792 H 433.566 1.98762 3.53904 0
M  V30 4793 H 434.332 4.20393 2.41858 0
M  V30 4794 H 430.211 3.2868 3.2325 0
M  V30 4795 H 433.755 6.59943 2.26099 0
M  V30 4796 H 429.652 5.67384 3.07808 0
M  V30 4797 H 430.42 7.71898 2.72242 0
M  V30 4798 N 433.083 -1.0153 1.20538 0
M  V30 4799 C 434.031 -2.12215 0.952235 0
M  V30 4800 C 435.025 -1.69123 -0.0968735 0
M  V30 4801 O 436.231 -1.7992 0.0536006 0
M  V30 4802 H 432.606 -0.693576 0.290613 0
M  V30 4803 H 434.577 -2.3075 1.89201 0
M  V30 4804 C 433.326 -3.43755 0.522287 0
M  V30 4805 H 432.649 -3.7734 1.32115 0
M  V30 4806 H 434.089 -4.22254 0.384389 0
M  V30 4807 C 432.548 -3.28088 -0.765489 0
M  V30 4808 O 433.078 -3.57921 -1.8236 0
M  V30 4809 N 431.284 -2.81333 -0.728011 0
M  V30 4810 H 430.831 -2.57255 0.133332 0
M  V30 4811 H 430.789 -2.71232 -1.58999 0
M  V30 4812 N 434.561 -1.01147 -1.20859 0
M  V30 4813 C 435.789 -0.716911 -1.94082 0
M  V30 4814 C 436.204 0.721568 -1.74467 0
M  V30 4815 O 435.561 1.48889 -1.05539 0
M  V30 4816 C 435.612 -1.03662 -3.46318 0
M  V30 4817 O 435.333 -2.4186 -3.65288 0
M  V30 4818 C 436.834 -0.762386 -4.36695 0
M  V30 4819 H 434.054 -0.26367 -0.617024 0
M  V30 4820 H 436.598 -1.35127 -1.53496 0
M  V30 4821 H 434.753 -0.447757 -3.84804 0
M  V30 4822 H 435.167 -2.53224 -4.59323 0
M  V30 4823 H 436.641 -1.03621 -5.42187 0
M  V30 4824 H 437.118 0.303514 -4.3815 0
M  V30 4825 H 437.724 -1.33316 -4.03865 0
M  V30 4826 N 436.039 1.36541 -0.78704 0
M  V30 4827 C 436.987 2.31965 -0.171724 0
M  V30 4828 C 437.981 1.55689 0.667631 0
M  V30 4829 O 439.187 1.70969 0.562981 0
M  V30 4830 H 435.562 0.751101 -0.0367545 0
M  V30 4831 H 437.533 2.81428 -0.992017 0
M  V30 4832 C 436.282 3.40968 0.680904 0
M  V30 4833 H 435.605 3.99775 0.0443961 0
M  V30 4834 H 437.045 4.10063 1.07815 0
M  V30 4835 C 435.504 2.82338 1.83813 0
M  V30 4836 O 436.034 2.74311 2.93456 0
M  V30 4837 N 434.24 2.39661 1.6435 0
M  V30 4838 H 433.787 2.46389 0.751668 0
M  V30 4839 H 433.745 2.00779 2.4194 0
M  V30 4840 N 437.518 0.538854 1.48102 0
M  V30 4841 C 438.743 0.0102694 2.07397 0
M  V30 4842 C 439.168 -1.26562 1.39153 0
M  V30 4843 O 438.526 -1.75357 0.460387 0
M  V30 4844 C 438.574 -0.187602 3.60112 0
M  V30 4845 O 437.678 -1.25432 3.92862 0
M  V30 4846 H 437.019 0.0430975 0.6626 0
M  V30 4847 H 439.549 0.749301 1.90385 0
M  V30 4848 H 439.559 -0.407517 4.0596 0
M  V30 4849 H 438.234 0.744386 4.09184 0
M  V30 4850 H 436.811 -1.01636 3.58782 0
M  V30 4851 N 438.996 -1.55193 0.274407 0
M  V30 4852 C 440.245 -1.98758 -0.343213 0
M  V30 4853 C 440.558 -1.16624 -1.5703 0
M  V30 4854 O 441.764 -1.5033 -2.26082 0
M  V30 4855 C 440.22 -3.53759 -0.661996 0
M  V30 4856 C 439.828 -4.4467 0.54524 0
M  V30 4857 C 441.572 -4.05916 -1.24228 0
M  V30 4858 C 439.479 -5.91058 0.201084 0
M  V30 4859 H 438.409 -0.742353 -0.132014 0
M  V30 4860 H 441.06 -1.79545 0.378948 0
M  V30 4861 H 439.442 -3.68772 -1.44304 0
M  V30 4862 H 440.616 -4.41426 1.32212 0
M  V30 4863 H 438.931 -4.03143 1.04232 0
M  V30 4864 H 441.528 -5.12831 -1.51357 0
M  V30 4865 H 441.871 -3.54908 -2.17592 0
M  V30 4866 H 442.404 -3.9434 -0.523542 0
M  V30 4867 H 439.143 -6.46161 1.10258 0
M  V30 4868 H 438.663 -5.97373 -0.539045 0
M  V30 4869 H 440.342 -6.46669 -0.206954 0
M  V30 4870 N 440.474 -0.00167713 -1.576 0
M  V30 4871 C 441.89 0.354422 -1.55615 0
M  V30 4872 C 442.09 1.74679 -1.00447 0
M  V30 4873 O 441.146 2.4428 -0.639022 0
M  V30 4874 C 442.459 0.22812 -2.99833 0
M  V30 4875 C 444.007 0.302934 -3.11531 0
M  V30 4876 C 444.482 0.205737 -4.57538 0
M  V30 4877 N 445.973 0.263584 -4.62449 0
M  V30 4878 C 446.708 0.211742 -5.73009 0
M  V30 4879 N 446.204 0.110399 -6.92712 0
M  V30 4880 N 447.997 0.263729 -5.61481 0
M  V30 4881 H 440.148 -0.912498 -1.918 0
M  V30 4882 H 442.411 -0.349928 -0.881053 0
M  V30 4883 H 442.117 -0.729934 -3.44042 0
M  V30 4884 H 441.991 1.00951 -3.6344 0
M  V30 4885 H 444.378 1.25143 -2.67251 0
M  V30 4886 H 444.459 -0.508357 -2.50698 0
M  V30 4887 H 444.103 -0.739225 -5.02492 0
M  V30 4888 H 444.033 1.03554 -5.16318 0
M  V30 4889 H 446.524 0.343173 -3.76339 0
M  V30 4890 H 446.837 0.0767828 -7.72762 0
M  V30 4891 H 445.182 0.0760025 -6.94958 0
M  V30 4892 H 448.373 0.34111 -4.66855 0
M  V30 4893 H 448.546 0.219862 -6.47627 0
M  V30 4894 N 441.952 1.55251 0.271103 0
M  V30 4895 C 443.2 1.75599 1.00047 0
M  V30 4896 C 443.521 0.561188 1.8675 0
M  V30 4897 O 442.791 -0.423846 1.9126 0
M  V30 4898 H 441.371 0.647562 0.372387 0
M  V30 4899 H 444.033 1.92656 0.294876 0
M  V30 4900 H 443.129 2.65766 1.6363 0
M  V30 4901 N 443.43 -0.535701 1.48216 0
M  V30 4902 C 444.362 -1.65662 1.58394 0
M  V30 4903 C 445.375 -1.5591 0.468607 0
M  V30 4904 O 446.564 -1.62475 0.7392 0
M  V30 4905 C 443.664 -3.04276 1.4923 0
M  V30 4906 C 442.837 -3.39567 2.75705 0
M  V30 4907 C 441.896 -4.57436 2.60075 0
M  V30 4908 O 440.922 -4.60942 3.33948 0
M  V30 4909 N 442.124 -5.55259 1.69315 0
M  V30 4910 H 444.889 -1.5737 2.55058 0
M  V30 4911 H 442.45 -0.722845 1.44867 0
M  V30 4912 H 444.442 -3.80994 1.36477 0
M  V30 4913 H 443.012 -3.06677 0.605632 0
M  V30 4914 H 442.232 -2.52083 3.03064 0
M  V30 4915 H 443.52 -3.59929 3.59623 0
M  V30 4916 H 442.918 -5.552 1.08489 0
M  V30 4917 H 441.475 -6.31218 1.62504 0
M  V30 4918 N 444.908 -1.36708 -0.784132 0
M  V30 4919 C 445.856 -1.31533 -1.91838 0
M  V30 4920 C 446.85 -0.206205 -1.6814 0
M  V30 4921 O 448.056 -0.373519 -1.76082 0
M  V30 4922 H 444.431 -0.409613 -0.630651 0
M  V30 4923 H 446.402 -2.2731 -1.9332 0
M  V30 4924 C 445.151 -1.12679 -3.28936 0
M  V30 4925 H 444.474 -1.97274 -3.4774 0
M  V30 4926 H 445.914 -1.13106 -4.08636 0
M  V30 4927 C 444.373 0.168281 -3.36479 0
M  V30 4928 O 444.903 1.15625 -3.84699 0
M  V30 4929 N 443.109 0.214762 -2.89805 0
M  V30 4930 H 442.656 -0.589852 -2.50756 0
M  V30 4931 H 442.614 1.08094 -2.95234 0
M  V30 4932 N 446.386 1.0089 -1.21074 0
M  V30 4933 C 447.633 1.74607 -1.0256 0
M  V30 4934 C 447.961 1.89426 0.44136 0
M  V30 4935 O 447.216 1.42266 1.34384 0
M  V30 4936 C 447.515 3.16335 -1.66334 0
M  V30 4937 C 447.181 3.21474 -3.16173 0
M  V30 4938 C 445.843 3.22583 -3.57062 0
M  V30 4939 C 448.195 3.19025 -4.12156 0
M  V30 4940 C 445.523 3.18925 -4.92446 0
M  V30 4941 C 447.875 3.16909 -5.47496 0
M  V30 4942 C 446.539 3.16326 -5.87787 0
M  V30 4943 H 445.809 0.638933 -0.375294 0
M  V30 4944 H 448.456 1.18274 -1.50611 0
M  V30 4945 H 446.761 3.75876 -1.10566 0
M  V30 4946 H 448.458 3.72083 -1.49516 0
M  V30 4947 H 445.048 3.2135 -2.83605 0
M  V30 4948 H 449.232 3.17332 -3.81595 0
M  V30 4949 H 444.488 3.16809 -5.22917 0
M  V30 4950 H 448.662 3.13968 -6.21609 0
M  V30 4951 H 446.289 3.13246 -6.92662 0
M  V30 4952 N 447.864 1.01787 1.20321 0
M  V30 4953 C 448.814 0.559976 2.21016 0
M  V30 4954 C 449.798 -0.385366 1.56217 0
M  V30 4955 O 450.99 -0.208126 1.75772 0
M  V30 4956 C 448.119 -0.0990553 3.43157 0
M  V30 4957 C 447.205 0.86807 4.15121 0
M  V30 4958 N 447.596 2.0261 4.63447 0
M  V30 4959 C 445.894 0.689162 4.40643 0
M  V30 4960 C 446.595 2.63518 5.18588 0
M  V30 4961 N 445.571 1.91569 5.08726 0
M  V30 4962 H 449.373 1.44281 2.56048 0
M  V30 4963 H 446.887 0.883381 1.36272 0
M  V30 4964 H 448.884 -0.444643 4.14522 0
M  V30 4965 H 447.544 -0.977709 3.0963 0
M  V30 4966 H 448.555 2.40598 4.58621 0
M  V30 4967 H 445.232 -0.14133 4.17261 0
M  V30 4968 H 446.622 3.61527 5.66346 0
M  V30 4969 N 449.342 -1.36122 0.79427 0
M  V30 4970 C 450.272 -2.32551 0.210328 0
M  V30 4971 C 451.253 -1.56884 -0.657386 0
M  V30 4972 O 452.438 -1.85014 -0.590207 0
M  V30 4973 C 449.568 -3.41128 -0.651819 0
M  V30 4974 C 448.522 -4.27842 0.116395 0
M  V30 4975 C 447.848 -5.2763 -0.86666 0
M  V30 4976 C 449.148 -5.05647 1.30837 0
M  V30 4977 H 450.842 -2.81636 1.01594 0
M  V30 4978 H 448.388 -1.35407 0.489981 0
M  V30 4979 H 450.341 -4.07581 -1.07031 0
M  V30 4980 H 449.065 -2.90622 -1.49019 0
M  V30 4981 H 447.724 -3.62952 0.515915 0
M  V30 4982 H 447.372 -4.73395 -1.70019 0
M  V30 4983 H 447.072 -5.86514 -0.35705 0
M  V30 4984 H 448.596 -5.96955 -1.28361 0
M  V30 4985 H 450.01 -5.65113 0.965393 0
M  V30 4986 H 448.407 -5.73967 1.75161 0
M  V30 4987 H 449.477 -4.37006 2.10128 0
M  V30 4988 N 450.82 -0.546701 -1.47814 0
M  V30 4989 C 451.75 0.195317 -2.32682 0
M  V30 4990 C 452.731 0.918981 -1.43139 0
M  V30 4991 O 453.916 0.901501 -1.72008 0
M  V30 4992 C 451.046 1.23237 -3.247 0
M  V30 4993 C 450 0.625818 -4.234 0
M  V30 4994 C 449.326 1.76674 -5.04669 0
M  V30 4995 C 450.626 -0.413515 -5.2066 0
M  V30 4996 H 452.32 -0.513184 -2.94969 0
M  V30 4997 H 449.866 -0.248241 -1.41844 0
M  V30 4998 H 451.819 1.75955 -3.82907 0
M  V30 4999 H 450.543 1.97067 -2.60446 0
M  V30 5000 H 449.202 0.120023 -3.66403 0
M  V30 5001 H 448.85 2.49383 -4.36826 0
M  V30 5002 H 448.55 1.36673 -5.71484 0
M  V30 5003 H 450.074 2.29738 -5.65732 0
M  V30 5004 H 451.488 0.0272042 -5.73294 0
M  V30 5005 H 449.885 -0.731825 -5.95621 0
M  V30 5006 H 450.955 -1.31325 -4.66778 0
M  V30 5007 N 452.299 1.55045 -0.282633 0
M  V30 5008 C 453.229 2.2579 0.595066 0
M  V30 5009 C 454.21 1.25074 1.15284 0
M  V30 5010 O 455.395 1.5381 1.18559 0
M  V30 5011 C 452.525 2.98472 1.77572 0
M  V30 5012 C 451.479 4.0618 1.34914 0
M  V30 5013 C 450.805 4.66477 2.6135 0
M  V30 5014 C 452.105 5.1996 0.493821 0
M  V30 5015 H 453.799 2.994 0.00505653 0
M  V30 5016 H 451.345 1.44 0.000992001 0
M  V30 5017 H 453.298 3.46677 2.39568 0
M  V30 5018 H 452.022 2.2241 2.39168 0
M  V30 5019 H 450.681 3.58797 0.752338 0
M  V30 5020 H 450.329 3.87074 3.2122 0
M  V30 5021 H 450.029 5.39207 2.33516 0
M  V30 5022 H 451.553 5.17435 3.24181 0
M  V30 5023 H 452.967 5.64172 1.01898 0
M  V30 5024 H 451.364 5.99299 0.310047 0
M  V30 5025 H 452.434 4.82462 -0.485593 0
M  V30 5026 N 453.777 0.010035 1.57597 0
M  V30 5027 C 455.023 -0.673697 1.91283 0
M  V30 5028 C 455.356 -1.72863 0.884979 0
M  V30 5029 O 454.631 -1.94268 -0.0949487 0
M  V30 5030 C 454.914 -1.30766 3.35518 0
M  V30 5031 C 454.767 -0.263578 4.49027 0
M  V30 5032 C 456.086 -2.23105 3.79358 0
M  V30 5033 H 453.205 -0.243439 0.695634 0
M  V30 5034 H 455.847 0.0633864 1.89894 0
M  V30 5035 H 453.997 -1.93588 3.36832 0
M  V30 5036 H 455.669 0.365738 4.59848 0
M  V30 5037 H 453.912 0.413077 4.31829 0
M  V30 5038 H 454.583 -0.746398 5.4693 0
M  V30 5039 H 457.059 -1.70289 3.79659 0
M  V30 5040 H 455.935 -2.64424 4.81011 0
M  V30 5041 H 456.196 -3.11433 3.13787 0
M  V30 5042 N 455.255 -1.55392 -0.262866 0
M  V30 5043 C 456.532 -1.67204 -1.01499 0
M  V30 5044 C 456.912 -0.545186 -2.03939 0
M  V30 5045 O 456.26 0.453467 -2.23955 0
M  V30 5046 C 456.47 -3.06847 -1.6627 0
M  V30 5047 C 457.818 -3.64928 -2.17054 0
M  V30 5048 O 458.842 -3.09545 -1.76239 0
M  V30 5049 O 457.701 -4.61984 -2.91947 0
M  V30 5050 H 454.795 -0.679467 -0.471438 0
M  V30 5051 H 457.341 -1.67729 -0.257918 0
M  V30 5052 H 456.113 -3.80309 -0.920915 0
M  V30 5053 H 455.736 -3.10266 -2.48638 0
M  V30 5054 N 456.733 0.527833 -1.48498 0
M  V30 5055 C 457.643 1.65907 -1.65867 0
M  V30 5056 C 458.659 1.6537 -0.541192 0
M  V30 5057 O 459.835 1.84282 -0.812534 0
M  V30 5058 C 456.9 3.02364 -1.69637 0
M  V30 5059 C 455.961 3.1374 -2.93028 0
M  V30 5060 C 455.194 4.43688 -2.96609 0
M  V30 5061 O 455.417 5.30913 -2.08538 0
M  V30 5062 O 454.351 4.59475 -3.88802 0
M  V30 5063 H 458.177 1.5419 -2.61647 0
M  V30 5064 H 455.762 0.701163 -1.31924 0
M  V30 5065 H 457.644 3.83515 -1.74625 0
M  V30 5066 H 456.319 3.14401 -0.770312 0
M  V30 5067 H 455.226 2.31877 -2.93571 0
M  V30 5068 H 456.559 3.06621 -3.85026 0
M  V30 5069 N 458.211 1.37122 0.776871 0
M  V30 5070 C 459.174 1.32301 1.8716 0
M  V30 5071 C 460.174 0.228099 1.59174 0
M  V30 5072 O 461.364 0.483642 1.67352 0
M  V30 5073 C 458.496 1.054 3.24197 0
M  V30 5074 H 459.689 2.29673 1.92848 0
M  V30 5075 H 457.242 1.22077 0.97606 0
M  V30 5076 H 457.977 0.0853872 3.24188 0
M  V30 5077 H 457.762 1.84648 3.45901 0
M  V30 5078 H 459.252 1.04664 4.04271 0
M  V30 5079 N 459.689 -1.00246 1.21608 0
M  V30 5080 C 460.639 -2.07492 0.945051 0
M  V30 5081 C 461.623 -1.60585 -0.100675 0
M  V30 5082 O 462.815 -1.76667 0.10859 0
M  V30 5083 C 459.944 -3.39425 0.514342 0
M  V30 5084 C 459.03 -3.92993 1.59428 0
M  V30 5085 N 459.421 -4.19898 2.81991 0
M  V30 5086 C 457.719 -4.21297 1.46374 0
M  V30 5087 C 458.42 -4.63297 3.51754 0
M  V30 5088 N 457.396 -4.66421 2.79199 0
M  V30 5089 H 461.198 -2.26222 1.87619 0
M  V30 5090 H 458.712 -1.18339 1.11219 0
M  V30 5091 H 460.709 -4.15808 0.301527 0
M  V30 5092 H 459.369 -3.22101 -0.410008 0
M  V30 5093 H 460.38 -4.08377 3.1851 0
M  V30 5094 H 457.057 -4.13095 0.604863 0
M  V30 5095 H 458.447 -4.92816 4.56708 0
M  V30 5096 N 461.167 -1.02423 -1.1978 0
M  V30 5097 C 462.414 -0.717988 -1.89344 0
M  V30 5098 C 462.742 0.753036 -1.79331 0
M  V30 5099 O 461.997 1.56355 -1.17692 0
M  V30 5100 C 462.296 -1.1088 -3.39765 0
M  V30 5101 C 461.962 -2.57731 -3.6998 0
M  V30 5102 C 460.624 -2.97854 -3.77937 0
M  V30 5103 C 462.976 -3.52763 -3.83677 0
M  V30 5104 C 460.304 -4.31931 -3.97054 0
M  V30 5105 C 462.656 -4.86538 -4.04306 0
M  V30 5106 C 461.32 -5.26356 -4.10494 0
M  V30 5107 H 460.59 -0.26273 -0.692859 0
M  V30 5108 H 463.237 -1.28623 -1.41875 0
M  V30 5109 H 461.542 -0.459094 -3.89101 0
M  V30 5110 H 463.239 -0.849432 -3.919 0
M  V30 5111 H 459.829 -2.25646 -3.64393 0
M  V30 5112 H 464.013 -3.2292 -3.76877 0
M  V30 5113 H 459.269 -4.62324 -4.00083 0
M  V30 5114 H 463.443 -5.60093 -4.13846 0
M  V30 5115 H 461.07 -6.3026 -4.2506 0
M  V30 5116 N 462.645 1.35699 -0.801477 0
M  V30 5117 C 463.894 1.98165 -0.375979 0
M  V30 5118 C 464.207 1.64306 1.06127 0
M  V30 5119 O 465.413 2.20097 1.58964 0
M  V30 5120 C 463.869 3.54497 -0.621305 0
M  V30 5121 C 463.477 3.9727 -2.07076 0
M  V30 5122 C 465.221 4.23697 -0.26091 0
M  V30 5123 C 463.128 5.46427 -2.26211 0
M  V30 5124 H 462.058 0.741478 -0.136844 0
M  V30 5125 H 464.709 1.54834 -0.984814 0
M  V30 5126 H 463.091 3.95958 0.0574112 0
M  V30 5127 H 464.265 3.66974 -2.78687 0
M  V30 5128 H 462.58 3.40943 -2.39054 0
M  V30 5129 H 465.177 5.33334 -0.381994 0
M  V30 5130 H 465.52 4.0869 0.792344 0
M  V30 5131 H 466.053 3.87639 -0.893339 0
M  V30 5132 H 462.792 5.66396 -3.29963 0
M  V30 5133 H 462.312 5.78309 -1.59119 0
M  V30 5134 H 463.991 6.12819 -2.07513 0
M  V30 5135 N 464.123 0.554532 1.47522 0
M  V30 5136 C 465.07 -0.19466 2.29978 0
M  V30 5137 C 466.04 -0.910882 1.38896 0
M  V30 5138 O 467.225 -0.907102 1.67858 0
M  V30 5139 C 464.365 -1.22035 3.22802 0
M  V30 5140 C 463.478 -0.510474 4.28973 0
M  V30 5141 C 462.613 -1.52123 5.08952 0
M  V30 5142 C 461.652 -0.796173 6.069 0
M  V30 5143 N 460.789 -1.75363 6.79847 0
M  V30 5144 H 465.629 0.51461 2.93523 0
M  V30 5145 H 463.166 0.265607 1.44682 0
M  V30 5146 H 465.124 -1.8276 3.7504 0
M  V30 5147 H 463.754 -1.89769 2.61127 0
M  V30 5148 H 462.806 0.211234 3.79813 0
M  V30 5149 H 464.118 0.0576503 4.98767 0
M  V30 5150 H 463.272 -2.20207 5.65326 0
M  V30 5151 H 462.011 -2.12327 4.39054 0
M  V30 5152 H 461.016 -0.101388 5.49707 0
M  V30 5153 H 462.241 -0.199911 6.78806 0
M  V30 5154 H 460.187 -2.3443 6.12682 0
M  V30 5155 H 460.104 -1.23759 7.45801 0
M  V30 5156 H 461.372 -2.4257 7.40797 0
M  V30 5157 N 465.601 -1.54893 0.290851 0
M  V30 5158 C 466.548 -2.23138 -0.58974 0
M  V30 5159 C 467.518 -1.21036 -1.13752 0
M  V30 5160 O 468.703 -1.49626 -1.18392 0
M  V30 5161 C 465.843 -2.96811 -1.76061 0
M  V30 5162 C 464.956 -4.13665 -1.24519 0
M  V30 5163 C 464.091 -4.74944 -2.3791 0
M  V30 5164 C 463.13 -5.83963 -1.83451 0
M  V30 5165 N 462.267 -6.39239 -2.90376 0
M  V30 5166 H 467.107 -2.98 -0.00114915 0
M  V30 5167 H 464.644 -1.47096 0.0112006 0
M  V30 5168 H 466.602 -3.37751 -2.44909 0
M  V30 5169 H 465.232 -2.24344 -2.32098 0
M  V30 5170 H 464.284 -3.77737 -0.449288 0
M  V30 5171 H 465.596 -4.92238 -0.806424 0
M  V30 5172 H 464.75 -5.18684 -3.14724 0
M  V30 5173 H 463.489 -3.95682 -2.85109 0
M  V30 5174 H 462.494 -5.39657 -1.05122 0
M  V30 5175 H 463.719 -6.65103 -1.37169 0
M  V30 5176 H 461.665 -5.62864 -3.36927 0
M  V30 5177 H 461.582 -7.13129 -2.50965 0
M  V30 5178 H 462.85 -6.87637 -3.67118 0
M  V30 5179 N 467.08 -0.0183926 -1.57589 0
M  V30 5180 C 467.99 0.982943 -2.13015 0
M  V30 5181 C 469.006 1.36443 -1.07979 0
M  V30 5182 O 470.182 1.44802 -1.3998 0
M  V30 5183 C 467.247 2.25024 -2.63752 0
M  V30 5184 C 466.308 1.93018 -3.83461 0
M  V30 5185 C 465.541 3.13706 -4.31769 0
M  V30 5186 O 465.764 4.2601 -3.79305 0
M  V30 5187 O 464.698 2.96629 -5.23732 0
M  V30 5188 H 468.524 0.541709 -2.9883 0
M  V30 5189 H 466.109 0.201565 -1.48034 0
M  V30 5190 H 467.991 2.99441 -2.96502 0
M  V30 5191 H 466.666 2.68349 -1.81026 0
M  V30 5192 H 465.573 1.16019 -3.55655 0
M  V30 5193 H 466.906 1.54516 -4.67317 0
M  V30 5194 N 468.558 1.5553 0.254621 0
M  V30 5195 C 469.521 1.88872 1.29846 0
M  V30 5196 C 470.521 0.764591 1.41459 0
M  V30 5197 O 471.711 1.03265 1.40293 0
M  V30 5198 C 468.843 2.11032 2.67728 0
M  V30 5199 H 470.036 2.82201 1.01502 0
M  V30 5200 H 467.589 1.48303 0.493556 0
M  V30 5201 H 468.324 1.20146 3.01223 0
M  V30 5202 H 468.109 2.92895 2.60682 0
M  V30 5203 H 469.599 2.38038 3.43115 0
M  V30 5204 N 470.036 -0.519951 1.48776 0
M  V30 5205 C 471.283 -1.27522 1.57303 0
M  V30 5206 C 471.611 -1.92869 0.251328 0
M  V30 5207 O 470.866 -1.80372 -0.759243 0
M  V30 5208 C 471.165 -2.37864 2.6675 0
M  V30 5209 C 470.831 -1.90103 4.08867 0
M  V30 5210 C 469.493 -1.76795 4.47546 0
M  V30 5211 C 471.845 -1.54133 4.97888 0
M  V30 5212 C 469.173 -1.25868 5.73039 0
M  V30 5213 C 471.525 -1.04665 6.23881 0
M  V30 5214 C 470.189 -0.899823 6.61407 0
M  V30 5215 H 469.459 -0.466636 0.575614 0
M  V30 5216 H 472.106 -0.579109 1.82534 0
M  V30 5217 H 470.411 -3.13186 2.35418 0
M  V30 5218 H 472.108 -2.95969 2.70561 0
M  V30 5219 H 468.698 -2.01414 3.78326 0
M  V30 5220 H 472.882 -1.6327 4.68675 0
M  V30 5221 H 468.138 -1.13196 6.0083 0
M  V30 5222 H 472.312 -0.759074 6.92251 0
M  V30 5223 H 469.939 -0.503011 7.58534 0
M  V30 5224 N 471.514 -1.37532 -0.769588 0
M  V30 5225 C 472.462 -1.33561 -1.90432 0
M  V30 5226 C 473.456 -0.224027 -1.67912 0
M  V30 5227 O 474.662 -0.392174 -1.75676 0
M  V30 5228 H 471.037 -0.416279 -0.626271 0
M  V30 5229 H 473.008 -2.29348 -1.90899 0
M  V30 5230 C 471.757 -1.16162 -3.27722 0
M  V30 5231 H 471.08 -2.00951 -3.45628 0
M  V30 5232 H 472.52 -1.17434 -4.07413 0
M  V30 5233 C 470.979 0.132583 -3.36639 0
M  V30 5234 O 471.509 1.11539 -3.85904 0
M  V30 5235 N 469.715 0.184013 -2.90017 0
M  V30 5236 H 469.262 -0.616415 -2.50116 0
M  V30 5237 H 469.22 1.04956 -2.96364 0
M  V30 5238 N 472.992 0.995999 -1.22138 0
M  V30 5239 C 474.22 1.77066 -1.07029 0
M  V30 5240 C 474.635 1.8495 0.379357 0
M  V30 5241 O 473.992 1.3174 1.26297 0
M  V30 5242 C 474.043 3.20533 -1.67155 0
M  V30 5243 O 473.764 3.13082 -3.06449 0
M  V30 5244 C 475.265 4.14461 -1.5728 0
M  V30 5245 H 472.485 0.556179 -0.375374 0
M  V30 5246 H 475.029 1.25238 -1.61666 0
M  V30 5247 H 473.184 3.6944 -1.16589 0
M  V30 5248 H 473.598 4.03283 -3.35355 0
M  V30 5249 H 475.072 5.1289 -2.04078 0
M  V30 5250 H 475.549 4.36005 -0.528795 0
M  V30 5251 H 476.155 3.71449 -2.07136 0
M  V30 5252 N 474.47 1.03057 1.19235 0
M  V30 5253 C 475.719 0.72326 1.88287 0
M  V30 5254 C 476.032 -0.751333 1.80594 0
M  V30 5255 O 477.238 -1.17176 2.44912 0
M  V30 5256 C 475.694 1.24338 3.3774 0
M  V30 5257 C 475.302 2.74587 3.53986 0
M  V30 5258 C 477.046 1.01213 4.12257 0
M  V30 5259 C 474.953 3.20009 4.97341 0
M  V30 5260 H 473.883 0.266848 0.705201 0
M  V30 5261 H 476.534 1.24509 1.34795 0
M  V30 5262 H 474.916 0.649457 3.90638 0
M  V30 5263 H 476.09 3.39649 3.11408 0
M  V30 5264 H 474.405 2.9601 2.9286 0
M  V30 5265 H 477.002 1.32675 5.17978 0
M  V30 5266 H 477.345 -0.051001 4.16269 0
M  V30 5267 H 477.878 1.57014 3.65501 0
M  V30 5268 H 474.617 4.25659 4.98493 0
M  V30 5269 H 474.137 2.59676 5.40674 0
M  V30 5270 H 475.816 3.13447 5.66003 0
M  V30 5271 N 475.948 -1.35272 0.808662 0
M  V30 5272 C 476.878 -2.32315 0.234981 0
M  V30 5273 C 477.859 -1.57572 -0.64071 0
M  V30 5274 O 479.044 -1.8563 -0.570551 0
M  V30 5275 C 476.174 -3.41801 -0.615601 0
M  V30 5276 C 475.128 -4.27694 0.161767 0
M  V30 5277 C 474.454 -5.28519 -0.810649 0
M  V30 5278 C 475.754 -5.04231 1.36193 0
M  V30 5279 H 477.448 -2.80543 1.04575 0
M  V30 5280 H 474.994 -1.3488 0.504315 0
M  V30 5281 H 476.947 -4.08693 -1.02702 0
M  V30 5282 H 475.671 -2.92186 -1.45928 0
M  V30 5283 H 474.33 -3.62384 0.554382 0
M  V30 5284 H 473.978 -4.75171 -1.64988 0
M  V30 5285 H 473.678 -5.8686 -0.294822 0
M  V30 5286 H 475.202 -5.98283 -1.22023 0
M  V30 5287 H 476.616 -5.64058 1.02528 0
M  V30 5288 H 475.013 -5.72077 1.81239 0
M  V30 5289 H 476.083 -4.34753 2.14751 0
M  V30 5290 N 477.426 -0.562348 -1.47226 0
M  V30 5291 C 478.674 -0.0401371 -2.0206 0
M  V30 5292 C 478.995 1.3165 -1.43852 0
M  V30 5293 O 478.265 1.85976 -0.615599 0
M  V30 5294 H 476.845 -0.0118479 -0.746906 0
M  V30 5295 H 479.507 -0.73352 -1.8057 0
M  V30 5296 H 478.603 0.0441254 -3.12069 0
M  V30 5297 N 478.904 1.54736 -0.299062 0
M  V30 5298 C 480.151 2.00101 0.310784 0
M  V30 5299 C 480.479 1.18746 1.54045 0
M  V30 5300 O 479.734 0.251198 1.94081 0
M  V30 5301 C 480.033 3.50199 0.713835 0
M  V30 5302 C 479.699 4.48997 -0.413873 0
M  V30 5303 C 478.361 4.7573 -0.723462 0
M  V30 5304 C 480.713 5.07839 -1.17257 0
M  V30 5305 C 478.041 5.5857 -1.79491 0
M  V30 5306 C 480.393 5.91844 -2.23392 0
M  V30 5307 C 479.057 6.16889 -2.54959 0
M  V30 5308 H 478.327 0.732221 0.113724 0
M  V30 5309 H 480.974 1.86888 -0.417756 0
M  V30 5310 H 479.279 3.61012 1.52243 0
M  V30 5311 H 480.976 3.82723 1.19684 0
M  V30 5312 H 477.566 4.28292 -0.162476 0
M  V30 5313 H 481.75 4.87188 -0.946651 0
M  V30 5314 H 477.006 5.76213 -2.04423 0
M  V30 5315 H 481.18 6.36465 -2.8264 0
M  V30 5316 H 478.807 6.80869 -3.38114 0
M  V30 5317 N 480.382 0.0267497 1.57577 0
M  V30 5318 C 481.312 -0.954308 2.13108 0
M  V30 5319 C 482.293 -1.34088 1.04663 0
M  V30 5320 O 483.478 -1.41992 1.32484 0
M  V30 5321 C 480.608 -2.23744 2.65624 0
M  V30 5322 C 479.562 -1.99168 3.78835 0
M  V30 5323 C 478.888 -3.33726 4.17769 0
M  V30 5324 C 480.188 -1.33277 5.0501 0
M  V30 5325 H 481.882 -0.491848 2.95332 0
M  V30 5326 H 479.428 -0.23514 1.42067 0
M  V30 5327 H 481.381 -2.92754 3.03106 0
M  V30 5328 H 480.105 -2.72151 1.80558 0
M  V30 5329 H 478.764 -1.32577 3.41788 0
M  V30 5330 H 478.412 -3.79888 3.29688 0
M  V30 5331 H 478.112 -3.18089 4.94058 0
M  V30 5332 H 479.636 -4.04008 4.57832 0
M  V30 5333 H 481.05 -1.92283 5.40093 0
M  V30 5334 H 479.447 -1.28045 5.8628 0
M  V30 5335 H 480.517 -0.305411 4.83937 0
M  V30 5336 N 481.861 -1.55662 -0.24637 0
M  V30 5337 C 482.824 -1.89558 -1.28842 0
M  V30 5338 C 483.824 -0.772082 -1.41052 0
M  V30 5339 O 485.014 -1.04007 -1.39743 0
M  V30 5340 C 482.146 -2.12449 -2.66605 0
M  V30 5341 H 483.339 -2.82735 -1.00004 0
M  V30 5342 H 480.892 -1.48562 -0.485684 0
M  V30 5343 H 481.627 -1.21742 -3.00582 0
M  V30 5344 H 481.412 -2.94273 -2.59125 0
M  V30 5345 H 482.902 -2.39854 -3.41847 0
M  V30 5346 N 483.339 0.512053 -1.4905 0
M  V30 5347 C 484.271 1.63121 -1.6101 0
M  V30 5348 C 485.284 1.55145 -0.493352 0
M  V30 5349 O 486.473 1.61278 -0.764955 0
M  V30 5350 C 483.573 3.01863 -1.54052 0
M  V30 5351 C 482.746 3.35138 -2.81072 0
M  V30 5352 C 481.805 4.5324 -2.67319 0
M  V30 5353 O 480.831 4.55571 -3.41238 0
M  V30 5354 N 482.033 5.52495 -1.78127 0
M  V30 5355 H 484.798 1.53292 -2.5753 0
M  V30 5356 H 482.359 0.699706 -1.45999 0
M  V30 5357 H 484.351 3.78774 -1.42521 0
M  V30 5358 H 482.921 3.05675 -0.654345 0
M  V30 5359 H 482.141 2.4723 -3.07036 0
M  V30 5360 H 483.429 3.54162 -3.65304 0
M  V30 5361 H 482.827 5.53403 -1.17308 0
M  V30 5362 H 481.384 6.28553 -1.72525 0
M  V30 5363 N 484.817 1.37938 0.762283 0
M  V30 5364 C 485.765 1.34569 1.89721 0
M  V30 5365 C 486.759 0.232929 1.67791 0
M  V30 5366 O 487.965 0.401485 1.75465 0
M  V30 5367 H 484.34 0.419594 0.624055 0
M  V30 5368 H 486.311 2.30357 1.8968 0
M  V30 5369 C 485.06 1.17898 3.27101 0
M  V30 5370 H 484.383 2.02781 3.44558 0
M  V30 5371 H 485.823 1.19593 4.06784 0
M  V30 5372 C 484.282 -0.114728 3.36705 0
M  V30 5373 O 484.812 -1.0949 3.8649 0
M  V30 5374 N 483.018 -0.16863 2.9011 0
M  V30 5375 H 482.565 0.62967 2.49786 0
M  V30 5376 H 482.523 -1.03383 2.96916 0
M  V30 5377 N 486.295 -0.989507 1.22664 0
M  V30 5378 C 487.523 -1.76496 1.07967 0
M  V30 5379 C 487.938 -1.85148 -0.369543 0
M  V30 5380 O 487.295 -1.32408 -1.25596 0
M  V30 5381 C 487.346 -3.19642 1.68853 0
M  V30 5382 O 487.067 -3.11453 3.08105 0
M  V30 5383 C 488.568 -4.13621 1.59475 0
M  V30 5384 H 485.788 -0.55418 0.378319 0
M  V30 5385 H 488.332 -1.24378 1.62328 0
M  V30 5386 H 486.487 -3.68816 1.18547 0
M  V30 5387 H 486.901 -4.01499 3.37489 0
M  V30 5388 H 488.375 -5.11801 2.06795 0
M  V30 5389 H 488.852 -4.35718 0.55191 0
M  V30 5390 H 489.458 -3.70346 2.09103 0
M  V30 5391 N 487.773 -1.03688 -1.18687 0
M  V30 5392 C 489.001 -0.757918 -1.92518 0
M  V30 5393 C 489.416 0.684398 -1.75959 0
M  V30 5394 O 488.773 1.46617 -1.08673 0
M  V30 5395 C 488.824 -1.10985 -3.44042 0
M  V30 5396 O 488.545 -2.49554 -3.60076 0
M  V30 5397 C 490.046 -0.854844 -4.3498 0
M  V30 5398 H 487.266 -0.276699 -0.611293 0
M  V30 5399 H 489.81 -1.38352 -1.50595 0
M  V30 5400 H 487.965 -0.529279 -3.83767 0
M  V30 5401 H 488.379 -2.6291 -4.53849 0
M  V30 5402 H 489.853 -1.15098 -5.39867 0
M  V30 5403 H 490.33 0.210507 -4.38695 0
M  V30 5404 H 490.936 -1.41853 -4.00946 0
M  V30 5405 N 489.251 1.34841 -0.815825 0
M  V30 5406 C 490.198 2.29644 -0.230664 0
M  V30 5407 C 491.168 1.53253 0.640533 0
M  V30 5408 O 492.353 1.81653 0.583672 0
M  V30 5409 C 489.493 3.39715 0.607275 0
M  V30 5410 C 488.606 4.31056 -0.28538 0
M  V30 5411 C 487.741 5.28225 0.561446 0
M  V30 5412 C 486.78 6.11204 -0.331035 0
M  V30 5413 N 485.917 7.00483 0.476302 0
M  V30 5414 H 490.757 2.79095 -1.0445 0
M  V30 5415 H 488.294 1.37351 -0.526595 0
M  V30 5416 H 490.252 4.02208 1.10835 0
M  V30 5417 H 488.882 2.91517 1.38629 0
M  V30 5418 H 487.934 3.69487 -0.904621 0
M  V30 5419 H 489.246 4.89239 -0.97193 0
M  V30 5420 H 488.4 5.96135 1.12728 0
M  V30 5421 H 487.139 4.70562 1.28153 0
M  V30 5422 H 486.144 5.42232 -0.909069 0
M  V30 5423 H 487.369 6.70947 -1.04912 0
M  V30 5424 H 485.315 6.45296 1.18019 0
M  V30 5425 H 485.232 7.55847 -0.152008 0
M  V30 5426 H 486.5 7.7273 1.02512 0
M  V30 5427 N 490.729 0.570148 1.46925 0
M  V30 5428 C 491.978 0.0487352 2.01641 0
M  V30 5429 C 492.291 -1.31433 1.44861 0
M  V30 5430 O 493.497 -1.92638 1.91318 0
M  V30 5431 C 491.953 0.0365817 3.59881 0
M  V30 5432 C 491.561 1.39719 4.25655 0
M  V30 5433 C 493.305 -0.431545 4.22301 0
M  V30 5434 C 491.212 1.34345 5.75939 0
M  V30 5435 H 490.142 0.0144492 0.753862 0
M  V30 5436 H 492.793 0.719928 1.68788 0
M  V30 5437 H 491.175 -0.700522 3.89755 0
M  V30 5438 H 492.349 2.15303 4.07408 0
M  V30 5439 H 490.664 1.80431 3.75278 0
M  V30 5440 H 493.261 -0.490354 5.32447 0
M  V30 5441 H 493.604 -1.44638 3.90366 0
M  V30 5442 H 494.137 0.251102 3.97007 0
M  V30 5443 H 490.876 2.33469 6.12513 0
M  V30 5444 H 490.396 0.629615 5.96486 0
M  V30 5445 H 492.075 1.051 6.38407 0
M  V30 5446 N 492.207 -1.54576 0.307264 0
M  V30 5447 C 493.456 -1.99442 -0.300976 0
M  V30 5448 C 493.769 -1.19928 -1.5452 0
M  V30 5449 O 494.975 -1.55092 -2.22842 0
M  V30 5450 C 493.431 -3.55084 -0.586809 0
M  V30 5451 C 493.039 -4.43413 0.639438 0
M  V30 5452 C 494.783 -4.0846 -1.1559 0
M  V30 5453 C 492.69 -5.90499 0.326411 0
M  V30 5454 H 491.62 -0.744986 -0.116238 0
M  V30 5455 H 494.271 -1.787 0.416947 0
M  V30 5456 H 492.653 -3.71749 -1.36449 0
M  V30 5457 H 493.827 -4.38522 1.41545 0
M  V30 5458 H 492.142 -4.00842 1.1276 0
M  V30 5459 H 494.739 -5.15926 -1.40445 0
M  V30 5460 H 495.082 -3.59443 -2.10015 0
M  V30 5461 H 495.615 -3.95362 -0.439778 0
M  V30 5462 H 492.354 -6.43676 1.23939 0
M  V30 5463 H 491.874 -5.98382 -0.412212 0
M  V30 5464 H 493.553 -6.46962 -0.0697393 0
M  V30 5465 N 493.685 -0.035106 -1.57561 0
M  V30 5466 C 494.932 0.642229 -1.92046 0
M  V30 5467 C 495.26 1.7179 -0.91206 0
M  V30 5468 O 494.515 1.95544 0.0781153 0
M  V30 5469 C 494.814 1.29149 -3.3325 0
M  V30 5470 C 494.48 0.345604 -4.49574 0
M  V30 5471 C 493.142 0.0852775 -4.81124 0
M  V30 5472 C 495.494 -0.303569 -5.20315 0
M  V30 5473 C 492.822 -0.831927 -5.80772 0
M  V30 5474 C 495.174 -1.20886 -6.20942 0
M  V30 5475 C 493.838 -1.47802 -6.50931 0
M  V30 5476 H 493.108 0.235008 -0.702746 0
M  V30 5477 H 495.755 -0.0981529 -1.91248 0
M  V30 5478 H 494.06 2.10676 -3.30337 0
M  V30 5479 H 495.757 1.82223 -3.57205 0
M  V30 5480 H 492.347 0.558683 -4.24943 0
M  V30 5481 H 496.531 -0.115515 -4.96166 0
M  V30 5482 H 491.787 -1.0481 -6.02349 0
M  V30 5483 H 495.961 -1.71804 -6.74875 0
M  V30 5484 H 493.588 -2.19039 -7.2796 0
M  V30 5485 N 495.163 1.55791 0.238111 0
M  V30 5486 C 496.412 1.77234 0.962868 0
M  V30 5487 C 496.725 0.600661 1.86149 0
M  V30 5488 O 497.931 0.698315 2.62366 0
M  V30 5489 C 496.387 3.13808 1.76218 0
M  V30 5490 C 495.995 4.3865 0.910518 0
M  V30 5491 C 497.739 3.44585 2.47914 0
M  V30 5492 C 495.646 5.66252 1.70623 0
M  V30 5493 H 494.576 0.660731 0.36325 0
M  V30 5494 H 497.227 1.8221 0.217242 0
M  V30 5495 H 495.609 3.02963 2.55009 0
M  V30 5496 H 496.783 4.60507 0.164316 0
M  V30 5497 H 495.098 4.15271 0.30647 0
M  V30 5498 H 497.695 4.3714 3.07917 0
M  V30 5499 H 498.038 2.66314 3.19973 0
M  V30 5500 H 498.571 3.56685 1.76127 0
M  V30 5501 H 495.31 6.47369 1.02923 0
M  V30 5502 H 494.83 5.48483 2.42748 0
M  V30 5503 H 496.509 6.05829 2.27114 0
M  V30 5504 N 496.642 -0.504142 1.49319 0
M  V30 5505 C 497.867 -1.28729 1.62615 0
M  V30 5506 C 498.292 -1.85752 0.296309 0
M  V30 5507 O 497.65 -1.65704 -0.735649 0
M  V30 5508 C 497.698 -2.39561 2.69524 0
M  V30 5509 O 496.802 -3.43324 2.28478 0
M  V30 5510 H 496.143 -0.380172 0.544395 0
M  V30 5511 H 498.673 -0.603872 1.95485 0
M  V30 5512 H 498.683 -2.8537 2.91595 0
M  V30 5513 H 497.358 -1.97423 3.66056 0
M  V30 5514 H 495.935 -3.03455 2.16725 0
M  V30 5515 N 498.12 -1.38341 -0.754957 0
M  V30 5516 C 499.345 -1.37882 -1.5493 0
M  V30 5517 C 499.77 0.0296385 -1.88077 0
M  V30 5518 O 499.128 1.01133 -1.50472 0
M  V30 5519 C 499.176 -2.23996 -2.82592 0
M  V30 5520 O 498.28 -1.65612 -3.77686 0
M  V30 5521 H 497.621 -0.470384 -0.468652 0
M  V30 5522 H 500.151 -1.82084 -0.933082 0
M  V30 5523 H 500.161 -2.37806 -3.3153 0
M  V30 5524 H 498.836 -3.26365 -2.57796 0
M  V30 5525 H 497.413 -1.60936 -3.36384 0
M  V30 5526 N 499.598 0.982988 -1.23187 0
M  V30 5527 C 500.826 1.75921 -1.08901 0
M  V30 5528 C 501.241 1.85341 0.359719 0
M  V30 5529 O 500.598 1.33072 1.24892 0
M  V30 5530 C 500.649 3.18742 -1.70545 0
M  V30 5531 O 500.37 3.09814 -3.09753 0
M  V30 5532 C 501.871 4.1277 -1.61667 0
M  V30 5533 H 499.091 0.552166 -0.381252 0
M  V30 5534 H 501.635 1.23516 -1.62985 0
M  V30 5535 H 499.79 3.68182 -1.20501 0
M  V30 5536 H 500.204 3.99703 -3.39614 0
M  V30 5537 H 501.678 5.10697 -2.09506 0
M  V30 5538 H 502.155 4.3542 -0.575009 0
M  V30 5539 H 502.761 3.69232 -2.11064 0
M  V30 5540 N 501.076 1.04316 1.18135 0
M  V30 5541 C 502.024 0.630175 2.23901 0
M  V30 5542 C 503.018 -0.344254 1.65865 0
M  V30 5543 O 504.224 -0.211273 1.78756 0
M  V30 5544 H 500.599 0.185578 0.728742 0
M  V30 5545 H 502.57 1.53253 2.56039 0
M  V30 5546 C 501.319 0.011666 3.47698 0
M  V30 5547 H 500.642 0.752526 3.92654 0
M  V30 5548 H 502.082 -0.240046 4.2332 0
M  V30 5549 C 500.541 -1.23913 3.13285 0
M  V30 5550 O 501.071 -2.32959 3.27251 0
M  V30 5551 N 499.277 -1.13338 2.67587 0
M  V30 5552 H 498.824 -0.246006 2.56423 0
M  V30 5553 H 498.782 -1.97116 2.44934 0
M  V30 5554 N 502.554 -1.34406 0.822964 0
M  V30 5555 C 503.782 -2.02508 0.424039 0
M  V30 5556 C 504.197 -1.61975 -0.970022 0
M  V30 5557 O 503.554 -0.825228 -1.62777 0
M  V30 5558 C 503.605 -3.57789 0.516657 0
M  V30 5559 O 503.326 -3.96853 1.85577 0
M  V30 5560 C 504.827 -4.43157 0.112637 0
M  V30 5561 H 502.047 -0.649063 0.170173 0
M  V30 5562 H 504.591 -1.7168 1.11113 0
M  V30 5563 H 502.746 -3.87207 -0.122353 0
M  V30 5564 H 503.16 -4.91538 1.83005 0
M  V30 5565 H 504.634 -5.51527 0.228526 0
M  V30 5566 H 505.111 -4.28939 -0.943837 0
M  V30 5567 H 505.717 -4.19067 0.725449 0
M  V30 5568 N 504.032 -0.577932 -1.46621 0
M  V30 5569 C 505.26 -0.0671642 -2.06791 0
M  V30 5570 C 505.675 1.23571 -1.42743 0
M  V30 5571 O 505.032 1.74602 -0.531062 0
M  V30 5572 C 505.083 0.110357 -3.61332 0
M  V30 5573 O 504.804 -1.14095 -4.22982 0
M  V30 5574 C 506.305 0.656025 -4.38419 0
M  V30 5575 H 503.525 -0.0552732 -0.66872 0
M  V30 5576 H 506.069 -0.797242 -1.8832 0
M  V30 5577 H 504.224 0.790637 -3.79246 0
M  V30 5578 H 504.638 -0.951742 -5.15793 0
M  V30 5579 H 506.112 0.729438 -5.47159 0
M  V30 5580 H 506.589 1.67195 -4.06131 0
M  V30 5581 H 507.195 0.0107692 -4.25299 0
M  V30 5582 N 505.51 1.54411 -0.315457 0
M  V30 5583 C 506.735 2.05299 0.294496 0
M  V30 5584 C 507.16 1.19052 1.4563 0
M  V30 5585 O 506.518 0.197804 1.80218 0
M  V30 5586 C 506.566 3.5345 0.714549 0
M  V30 5587 O 505.67 3.70175 1.81781 0
M  V30 5588 H 505.011 0.661743 0.0547019 0
M  V30 5589 H 507.541 1.99327 -0.461508 0
M  V30 5590 H 507.551 3.9557 0.999426 0
M  V30 5591 H 506.226 4.1568 -0.135244 0
M  V30 5592 H 504.803 3.3996 1.53236 0
M  V30 5593 N 506.988 0.0434614 1.5754 0
M  V30 5594 C 508.265 -0.671479 1.83713 0
M  V30 5595 C 508.645 -1.89495 0.930315 0
M  V30 5596 O 507.993 -2.28498 -0.0105639 0
M  V30 5597 C 508.203 -1.0361 3.33266 0
M  V30 5598 C 509.551 -1.42167 4.00092 0
M  V30 5599 O 510.575 -1.12866 3.37846 0
M  V30 5600 O 509.434 -1.96817 5.09829 0
M  V30 5601 H 506.528 -0.330726 0.75799 0
M  V30 5602 H 509.074 0.0722373 1.69546 0
M  V30 5603 H 507.846 -0.165938 3.90948 0
M  V30 5604 H 507.469 -1.83751 3.52592 0
M  V30 5605 N 508.466 -1.55915 -0.229846 0
M  V30 5606 C 509.429 -1.90914 -1.26824 0
M  V30 5607 C 510.429 -0.786999 -1.40225 0
M  V30 5608 O 511.619 -1.05484 -1.38632 0
M  V30 5609 C 508.751 -2.15264 -2.64337 0
M  V30 5610 H 509.944 -2.8378 -0.969998 0
M  V30 5611 H 507.497 -1.49069 -0.4699 0
M  V30 5612 H 508.232 -1.24923 -2.99274 0
M  V30 5613 H 508.017 -2.97005 -2.55989 0
M  V30 5614 H 509.507 -2.43467 -3.39284 0
M  V30 5615 N 509.944 0.496216 -1.49584 0
M  V30 5616 C 511.172 1.27394 -1.63029 0
M  V30 5617 C 511.587 1.86344 -0.303569 0
M  V30 5618 O 510.944 1.68057 0.711547 0
M  V30 5619 C 510.995 2.40077 -2.70269 0
M  V30 5620 O 510.716 1.83549 -3.97796 0
M  V30 5621 C 512.217 3.31372 -2.94462 0
M  V30 5622 H 509.437 0.386211 -0.54871 0
M  V30 5623 H 511.981 0.595163 -1.95648 0
M  V30 5624 H 510.136 3.03775 -2.40415 0
M  V30 5625 H 510.55 2.57561 -4.56905 0
M  V30 5626 H 512.024 4.06707 -3.73221 0
M  V30 5627 H 512.501 3.88654 -2.0456 0
M  V30 5628 H 513.107 2.73435 -3.25751 0
M  V30 5629 N 511.423 1.38739 0.74761 0
M  V30 5630 C 512.663 1.36695 1.51966 0
M  V30 5631 C 513.027 -0.0411889 1.91956 0
M  V30 5632 O 514.228 -0.186543 2.68152 0
M  V30 5633 C 512.499 2.30119 2.73459 0
M  V30 5634 S 514.058 2.4615 3.63257 0
M  V30 5635 H 510.876 0.484929 0.519966 0
M  V30 5636 H 513.478 1.7472 0.877104 0
M  V30 5637 H 512.182 3.31312 2.422 0
M  V30 5638 H 511.713 1.93265 3.42655 0
M  V30 5639 H 513.728 1.69001 4.66533 0
M  V30 5640 N 512.901 -0.976442 1.23707 0
M  V30 5641 C 514.148 -1.71827 1.07153 0
M  V30 5642 C 514.476 -1.9053 -0.390982 0
M  V30 5643 O 513.731 -1.45779 -1.30564 0
M  V30 5644 C 514.03 -3.11814 1.74662 0
M  V30 5645 C 513.696 -3.12978 3.24585 0
M  V30 5646 C 512.358 -3.13003 3.6549 0
M  V30 5647 C 514.71 -3.07986 4.20469 0
M  V30 5648 C 512.038 -3.05757 5.00729 0
M  V30 5649 C 514.39 -3.02282 5.55705 0
M  V30 5650 C 513.054 -3.00631 5.95968 0
M  V30 5651 H 512.324 -0.628758 0.392102 0
M  V30 5652 H 514.971 -1.14239 1.53693 0
M  V30 5653 H 513.276 -3.72812 1.20492 0
M  V30 5654 H 514.973 -3.67989 1.59328 0
M  V30 5655 H 511.563 -3.13718 2.92026 0
M  V30 5656 H 515.747 -3.07103 3.89874 0
M  V30 5657 H 511.003 -3.02834 5.31132 0
M  V30 5658 H 515.177 -2.97376 6.29714 0
M  V30 5659 H 512.804 -2.94771 7.00724 0
M  V30 5660 N 514.379 -1.04941 -1.1758 0
M  V30 5661 C 515.309 -0.669172 -2.23706 0
M  V30 5662 C 516.29 0.331835 -1.66832 0
M  V30 5663 O 517.475 0.209988 -1.93061 0
M  V30 5664 C 514.605 -0.0404889 -3.47276 0
M  V30 5665 C 513.559 -0.965983 -4.16957 0
M  V30 5666 C 512.885 -0.201312 -5.34321 0
M  V30 5667 C 514.185 -2.28902 -4.69469 0
M  V30 5668 H 515.879 -1.55639 -2.55767 0
M  V30 5669 H 513.425 -0.749793 -1.22939 0
M  V30 5670 H 515.378 0.237298 -4.20731 0
M  V30 5671 H 514.102 0.881658 -3.14475 0
M  V30 5672 H 512.761 -1.22829 -3.45411 0
M  V30 5673 H 512.409 0.723519 -4.97769 0
M  V30 5674 H 512.109 -0.817968 -5.81879 0
M  V30 5675 H 513.633 0.0692499 -6.10561 0
M  V30 5676 H 515.047 -2.07132 -5.34574 0
M  V30 5677 H 513.444 -2.85942 -5.27596 0
M  V30 5678 H 514.514 -2.92937 -3.86414 0
M  V30 5679 N 515.857 1.33968 -0.830081 0
M  V30 5680 C 517.085 2.0228 -0.434773 0
M  V30 5681 C 517.5 1.62487 0.961419 0
M  V30 5682 O 516.857 0.833849 1.62337 0
M  V30 5683 C 516.908 3.5751 -0.535625 0
M  V30 5684 O 516.629 3.95864 -1.87679 0
M  V30 5685 C 518.13 4.43091 -0.136137 0
M  V30 5686 H 515.35 0.648151 -0.173613 0
M  V30 5687 H 517.894 1.71089 -1.12022 0
M  V30 5688 H 516.049 3.87266 0.101817 0
M  V30 5689 H 516.463 4.9056 -1.85609 0
M  V30 5690 H 517.937 5.51398 -0.257772 0
M  V30 5691 H 518.414 4.29433 0.921076 0
M  V30 5692 H 519.02 4.18677 -0.747662 0
M  V30 5693 N 517.335 0.585699 1.46312 0
M  V30 5694 C 518.751 0.247607 1.57668 0
M  V30 5695 C 518.951 -1.25007 1.58037 0
M  V30 5696 O 518.007 -2.03196 1.49893 0
M  V30 5697 C 519.32 0.899456 2.86933 0
M  V30 5698 C 520.868 0.873326 3.00569 0
M  V30 5699 C 521.343 1.50477 4.32574 0
M  V30 5700 N 522.834 1.46925 4.3928 0
M  V30 5701 C 523.569 1.92719 5.40044 0
M  V30 5702 N 523.065 2.46499 6.47464 0
M  V30 5703 N 524.858 1.83617 5.31264 0
M  V30 5704 H 517.009 1.55841 1.44317 0
M  V30 5705 H 519.272 0.651564 0.688599 0
M  V30 5706 H 518.978 1.95313 2.92482 0
M  V30 5707 H 518.852 0.409476 3.74971 0
M  V30 5708 H 521.239 -0.171736 2.946 0
M  V30 5709 H 521.32 1.40136 2.13999 0
M  V30 5710 H 520.964 2.54905 4.39302 0
M  V30 5711 H 520.894 0.951944 5.17924 0
M  V30 5712 H 523.385 1.07616 3.62253 0
M  V30 5713 H 523.698 2.79291 7.20567 0
M  V30 5714 H 522.043 2.50526 6.48276 0
M  V30 5715 H 525.234 1.41358 4.46246 0
M  V30 5716 H 525.407 2.19622 6.09648 0
M  V30 5717 N 518.813 -1.54241 0.323641 0
M  V30 5718 C 519.743 -2.27289 -0.534993 0
M  V30 5719 C 520.724 -1.28087 -1.11927 0
M  V30 5720 O 521.909 -1.56899 -1.14439 0
M  V30 5721 C 519.039 -3.03075 -1.69596 0
M  V30 5722 C 517.993 -4.09614 -1.24098 0
M  V30 5723 C 517.319 -4.73242 -2.4889 0
M  V30 5724 C 518.619 -5.21087 -0.355789 0
M  V30 5725 H 520.313 -2.99308 0.0743257 0
M  V30 5726 H 517.859 -1.43952 0.0371874 0
M  V30 5727 H 519.812 -3.52907 -2.30293 0
M  V30 5728 H 518.536 -2.28673 -2.33187 0
M  V30 5729 H 517.195 -3.60666 -0.656945 0
M  V30 5730 H 516.843 -3.95455 -3.10845 0
M  V30 5731 H 516.543 -5.45209 -2.19138 0
M  V30 5732 H 518.067 -5.25848 -3.10348 0
M  V30 5733 H 519.481 -5.66675 -0.869042 0
M  V30 5734 H 517.878 -5.9991 -0.151045 0
M  V30 5735 H 518.948 -4.81005 0.613339 0
M  V30 5736 N 520.291 -0.0518155 -1.57515 0
M  V30 5737 C 521.239 0.940195 -2.12751 0
M  V30 5738 C 522.233 1.3218 -1.05948 0
M  V30 5739 O 523.439 1.30138 -1.24355 0
M  V30 5740 H 519.814 0.321066 -0.680015 0
M  V30 5741 H 521.785 0.449217 -2.94999 0
M  V30 5742 C 520.534 2.2055 -2.68799 0
M  V30 5743 H 519.857 1.92066 -3.50643 0
M  V30 5744 H 521.297 2.88119 -3.11068 0
M  V30 5745 C 519.756 2.95061 -1.62605 0
M  V30 5746 O 520.286 3.88025 -1.03921 0
M  V30 5747 N 518.492 2.57804 -1.34111 0
M  V30 5748 H 518.039 1.82281 -1.8202 0
M  V30 5749 H 517.997 3.07964 -0.632872 0
M  V30 5750 N 521.769 1.56035 0.221574 0
M  V30 5751 C 522.717 1.93269 1.29421 0
M  V30 5752 C 523.711 0.814727 1.48521 0
M  V30 5753 O 524.917 0.999559 1.49696 0
M  V30 5754 H 521.292 0.614188 0.43391 0
M  V30 5755 H 523.263 2.82773 0.952987 0
M  V30 5756 C 522.012 2.26573 2.63742 0
M  V30 5757 H 521.335 3.12112 2.49853 0
M  V30 5758 H 522.775 2.5651 3.37607 0
M  V30 5759 C 521.234 1.09086 3.1875 0
M  V30 5760 O 521.764 0.351985 4.00155 0
M  V30 5761 N 519.97 0.874693 2.77124 0
M  V30 5762 H 519.517 1.47726 2.11033 0
M  V30 5763 H 519.475 0.0903349 3.1427 0
M  V30 5764 N 523.247 -0.488276 1.49845 0
M  V30 5765 C 524.21 -1.57069 1.66919 0
M  V30 5766 C 525.21 -1.51445 0.540479 0
M  V30 5767 O 526.4 -1.5437 0.807188 0
M  V30 5768 C 523.532 -2.96718 1.67844 0
M  V30 5769 H 524.725 -1.43254 2.63474 0
M  V30 5770 H 522.278 -0.713435 1.39068 0
M  V30 5771 H 523.013 -3.15996 0.7292 0
M  V30 5772 H 522.798 -3.02208 2.49826 0
M  V30 5773 H 524.288 -3.75335 1.83066 0
M  V30 5774 N 524.725 -1.39134 -0.740242 0
M  V30 5775 C 526.136 -1.32208 -1.31825 0
M  V30 5776 C 526.487 0.0159919 -1.96193 0
M  V30 5777 O 525.612 0.918111 -1.95958 0
M  V30 5778 C 526.207 -2.39436 -2.39699 0
M  V30 5779 C 524.766 -2.36048 -2.93187 0
M  V30 5780 C 523.913 -2.21599 -1.66701 0
M  V30 5781 H 526.864 -1.49298 -0.538133 0
M  V30 5782 H 526.885 -2.05922 -3.19963 0
M  V30 5783 H 526.397 -3.36811 -1.92821 0
M  V30 5784 H 524.498 -1.42295 -3.44359 0
M  V30 5785 H 524.611 -3.30704 -3.46658 0
M  V30 5786 H 522.975 -1.68681 -1.90837 0
M  V30 5787 H 523.758 -3.20936 -1.21882 0
M  V30 5788 N 526.204 0.969867 -1.24223 0
M  V30 5789 C 527.451 1.71256 -1.08063 0
M  V30 5790 C 527.779 1.90734 0.380872 0
M  V30 5791 O 527.034 1.46469 1.29789 0
M  V30 5792 C 527.333 3.10883 -1.76314 0
M  V30 5793 C 526.999 3.11252 -3.26241 0
M  V30 5794 C 525.661 3.1106 -3.67144 0
M  V30 5795 C 528.013 3.05751 -4.22097 0
M  V30 5796 C 525.341 3.03097 -5.02344 0
M  V30 5797 C 527.693 2.9933 -5.57301 0
M  V30 5798 C 526.357 2.97466 -5.97554 0
M  V30 5799 H 525.627 0.62667 -0.395431 0
M  V30 5800 H 528.274 1.13422 -1.54297 0
M  V30 5801 H 526.579 3.72168 -1.22468 0
M  V30 5802 H 528.276 3.67138 -1.61277 0
M  V30 5803 H 524.866 3.12165 -2.93685 0
M  V30 5804 H 529.05 3.05031 -3.91497 0
M  V30 5805 H 524.306 3.00013 -5.32731 0
M  V30 5806 H 528.48 2.94033 -6.31283 0
M  V30 5807 H 526.107 2.91051 -7.02277 0
M  V30 5808 N 527.682 1.05563 1.17022 0
M  V30 5809 C 528.959 0.68165 1.83338 0
M  V30 5810 C 529.339 -0.837665 1.93769 0
M  V30 5811 O 528.687 -1.74507 1.47511 0
M  V30 5812 C 528.897 1.375 3.20772 0
M  V30 5813 C 530.245 1.51545 3.96635 0
M  V30 5814 O 531.269 1.33431 3.30264 0
M  V30 5815 O 530.128 1.812 5.15586 0
M  V30 5816 H 527.222 0.240412 0.791285 0
M  V30 5817 H 529.768 1.15545 1.24288 0
M  V30 5818 H 528.54 2.41135 3.08171 0
M  V30 5819 H 528.163 0.890798 3.87493 0
M  V30 5820 N 529.16 -1.33526 0.837174 0
M  V30 5821 C 530.093 -2.27192 0.214233 0
M  V30 5822 C 531.071 -1.49575 -0.637657 0
M  V30 5823 O 532.255 -1.78753 -0.598291 0
M  V30 5824 C 529.382 -3.31401 -0.699367 0
M  V30 5825 C 528.428 -4.26431 0.0768429 0
M  V30 5826 S 529.261 -5.15954 1.4336 0
M  V30 5827 C 530.417 -6.23692 0.525251 0
M  V30 5828 H 530.65 -2.79679 1.00831 0
M  V30 5829 H 528.183 -1.4079 0.633834 0
M  V30 5830 H 530.141 -3.91924 -1.22088 0
M  V30 5831 H 528.802 -2.77732 -1.46709 0
M  V30 5832 H 527.995 -5.00193 -0.618268 0
M  V30 5833 H 527.597 -3.70235 0.529364 0
M  V30 5834 H 529.889 -6.76931 -0.277575 0
M  V30 5835 H 530.832 -6.97283 1.23299 0
M  V30 5836 H 531.24 -5.64398 0.107351 0
M  V30 5837 N 530.638 -0.59345 -1.46 0
M  V30 5838 C 531.568 0.121192 -2.33185 0
M  V30 5839 C 532.549 0.872977 -1.4599 0
M  V30 5840 O 533.734 0.846321 -1.74789 0
M  V30 5841 C 530.864 1.12844 -3.28456 0
M  V30 5842 C 529.818 0.4908 -4.25177 0
M  V30 5843 C 529.144 1.60529 -5.10034 0
M  V30 5844 C 530.444 -0.578949 -5.19081 0
M  V30 5845 H 532.138 -0.606767 -2.93187 0
M  V30 5846 H 529.684 -0.293242 -1.40983 0
M  V30 5847 H 531.637 1.63684 -3.88311 0
M  V30 5848 H 530.361 1.88681 -2.66584 0
M  V30 5849 H 529.02 0.00339328 -3.666 0
M  V30 5850 H 528.668 2.35359 -4.44539 0
M  V30 5851 H 528.368 1.18422 -5.75543 0
M  V30 5852 H 529.892 2.11623 -5.72755 0
M  V30 5853 H 531.306 -0.155199 -5.7309 0
M  V30 5854 H 529.703 -0.920947 -5.92991 0
M  V30 5855 H 530.773 -1.46109 -4.62364 0
M  V30 5856 N 532.116 1.54067 -0.331816 0
M  V30 5857 C 533.064 2.26105 0.54582 0
M  V30 5858 C 534.058 1.27816 1.11173 0
M  V30 5859 O 535.264 1.45565 1.05882 0
M  V30 5860 H 531.639 0.726363 0.194683 0
M  V30 5861 H 533.61 2.98282 -0.083931 0
M  V30 5862 C 532.359 3.03814 1.69092 0
M  V30 5863 H 531.682 3.79269 1.26473 0
M  V30 5864 H 533.122 3.57453 2.28043 0
M  V30 5865 C 531.581 2.12606 2.61343 0
M  V30 5866 O 532.111 1.71437 3.6328 0
M  V30 5867 N 530.317 1.77925 2.29763 0
M  V30 5868 H 529.864 2.11602 1.46909 0
M  V30 5869 H 529.822 1.1718 2.91747 0
M  V30 5870 N 533.594 0.0601682 1.57485 0
M  V30 5871 C 534.84 -0.612501 1.93329 0
M  V30 5872 C 535.173 -1.6996 0.939526 0
M  V30 5873 O 534.448 -1.94472 -0.0330957 0
M  V30 5874 C 534.731 -1.20025 3.39508 0
M  V30 5875 C 534.584 -0.12059 4.49638 0
M  V30 5876 C 535.903 -2.10923 3.86264 0
M  V30 5877 H 533.022 -0.221185 0.703027 0
M  V30 5878 H 535.664 0.123768 1.89596 0
M  V30 5879 H 533.814 -1.82774 3.42821 0
M  V30 5880 H 535.486 0.51185 4.58452 0
M  V30 5881 H 533.729 0.550251 4.30296 0
M  V30 5882 H 534.4 -0.572019 5.49028 0
M  V30 5883 H 536.876 -1.58124 3.84884 0
M  V30 5884 H 535.752 -2.48987 4.8918 0
M  V30 5885 H 536.013 -3.01292 3.23536 0
M  V30 5886 N 535.072 -1.5615 -0.213296 0
M  V30 5887 C 536.318 -1.79812 -0.937849 0
M  V30 5888 C 536.651 -0.631201 -1.83656 0
M  V30 5889 O 535.926 0.369165 -1.90964 0
M  V30 5890 C 536.209 -3.13613 -1.76972 0
M  V30 5891 C 536.062 -4.40766 -0.89695 0
M  V30 5892 C 537.381 -3.43931 -2.7459 0
M  V30 5893 H 534.5 -0.654138 -0.339518 0
M  V30 5894 H 537.142 -1.88877 -0.20623 0
M  V30 5895 H 535.292 -3.06015 -2.39347 0
M  V30 5896 H 536.964 -4.60392 -0.289306 0
M  V30 5897 H 535.207 -4.33326 -0.202756 0
M  V30 5898 H 535.878 -5.30843 -1.51358 0
M  V30 5899 H 538.354 -3.5171 -2.22349 0
M  V30 5900 H 537.23 -4.38706 -3.29891 0
M  V30 5901 H 537.491 -2.6651 -3.52739 0
M  V30 5902 N 536.55 0.480323 -1.50102 0
M  V30 5903 C 537.775 1.26126 -1.64642 0
M  V30 5904 C 538.2 1.85257 -0.325823 0
M  V30 5905 O 537.558 1.66854 0.709194 0
M  V30 5906 C 537.606 2.35243 -2.73301 0
M  V30 5907 O 536.71 3.39646 -2.33911 0
M  V30 5908 H 536.051 0.371463 -0.550374 0
M  V30 5909 H 538.581 0.572696 -1.96421 0
M  V30 5910 H 538.591 2.80695 -2.96098 0
M  V30 5911 H 537.266 1.91574 -3.6915 0
M  V30 5912 H 535.843 2.99969 -2.21525 0
M  V30 5913 N 538.028 1.39524 0.732853 0
M  V30 5914 C 539.258 1.3994 1.51988 0
M  V30 5915 C 539.666 -0.00727973 1.89199 0
M  V30 5916 O 539.009 -0.989521 1.54771 0
M  V30 5917 C 539.071 2.21026 2.83527 0
M  V30 5918 C 538.735 3.69633 2.68738 0
M  V30 5919 C 539.732 4.62665 2.37143 0
M  V30 5920 C 537.417 4.13244 2.85542 0
M  V30 5921 C 539.411 5.97291 2.22536 0
M  V30 5922 C 537.098 5.47945 2.70554 0
M  V30 5923 C 538.096 6.39783 2.39097 0
M  V30 5924 O 537.784 7.72002 2.24204 0
M  V30 5925 H 537.516 0.479795 0.476206 0
M  V30 5926 H 540.07 1.8399 0.913054 0
M  V30 5927 H 538.3 1.71728 3.46477 0
M  V30 5928 H 539.989 2.13594 3.45156 0
M  V30 5929 H 540.755 4.30272 2.2381 0
M  V30 5930 H 536.634 3.42094 3.09019 0
M  V30 5931 H 540.178 6.68939 1.97905 0
M  V30 5932 H 536.075 5.79928 2.83466 0
M  V30 5933 H 536.843 7.8275 2.39258 0
M  V30 5934 N 539.506 -0.963266 1.24736 0
M  V30 5935 C 540.752 -1.70933 1.09131 0
M  V30 5936 C 541.085 -1.90676 -0.368273 0
M  V30 5937 O 540.36 -1.47147 -1.27193 0
M  V30 5938 C 540.643 -3.09744 1.83658 0
M  V30 5939 C 540.496 -2.97465 3.37394 0
M  V30 5940 C 541.815 -4.09483 1.61282 0
M  V30 5941 H 538.934 -0.620398 0.397838 0
M  V30 5942 H 541.576 -1.12028 1.53459 0
M  V30 5943 H 539.726 -3.60031 1.4598 0
M  V30 5944 H 541.398 -2.54571 3.84696 0
M  V30 5945 H 539.641 -2.33576 3.65547 0
M  V30 5946 H 540.312 -3.95822 3.84745 0
M  V30 5947 H 542.788 -3.68073 1.94066 0
M  V30 5948 H 541.664 -5.04666 2.15878 0
M  V30 5949 H 541.925 -4.38639 0.552102 0
M  V30 5950 N 540.985 -1.06182 -1.16461 0
M  V30 5951 C 542.225 -0.787048 -1.8864 0
M  V30 5952 C 542.589 0.674093 -1.79778 0
M  V30 5953 O 543.79 1.06341 -2.46871 0
M  V30 5954 C 542.061 -1.2666 -3.34203 0
M  V30 5955 S 543.62 -1.12071 -4.24247 0
M  V30 5956 H 540.438 -0.285539 -0.651144 0
M  V30 5957 H 543.04 -1.35851 -1.40587 0
M  V30 5958 H 541.744 -2.32496 -3.38192 0
M  V30 5959 H 541.275 -0.689841 -3.87304 0
M  V30 5960 H 543.29 -0.0509341 -4.96174 0
M  V30 5961 N 542.463 1.3308 -0.844243 0
M  V30 5962 C 543.373 2.32876 -0.283922 0
M  V30 5963 C 544.389 1.63589 0.592846 0
M  V30 5964 O 545.565 1.95205 0.495693 0
M  V30 5965 C 542.63 3.42667 0.527283 0
M  V30 5966 C 541.691 4.27664 -0.374394 0
M  V30 5967 C 540.924 5.32212 0.39819 0
M  V30 5968 O 541.147 5.46635 1.62932 0
M  V30 5969 O 540.081 6.01458 -0.2306 0
M  V30 5970 H 543.907 2.82671 -1.11045 0
M  V30 5971 H 541.492 1.36518 -0.606903 0
M  V30 5972 H 543.374 4.09652 0.988078 0
M  V30 5973 H 542.049 2.95079 1.33078 0
M  V30 5974 H 540.956 3.63526 -0.883144 0
M  V30 5975 H 542.289 4.78749 -1.1428 0
M  V30 5976 N 543.941 0.601185 1.45683 0
M  V30 5977 C 544.851 -0.123395 2.34275 0
M  V30 5978 C 545.867 -0.86702 1.5086 0
M  V30 5979 O 547.043 -0.826049 1.8368 0
M  V30 5980 C 544.108 -1.11237 3.2837 0
M  V30 5981 C 543.169 -0.371405 4.2769 0
M  V30 5982 C 542.402 -1.31327 5.1729 0
M  V30 5983 O 542.625 -2.55078 5.10188 0
M  V30 5984 O 541.559 -0.813811 5.96373 0
M  V30 5985 H 545.385 0.604483 2.97623 0
M  V30 5986 H 542.97 0.361477 1.44961 0
M  V30 5987 H 544.852 -1.68214 3.8637 0
M  V30 5988 H 543.527 -1.82139 2.67595 0
M  V30 5989 H 542.434 0.24067 3.73325 0
M  V30 5990 H 543.767 0.296998 4.91303 0
M  V30 5991 N 545.419 -1.53889 0.339982 0
M  V30 5992 C 546.369 -2.2165 -0.534354 0
M  V30 5993 C 547.353 -1.20266 -1.06887 0
M  V30 5994 O 548.545 -1.45827 -1.00316 0
M  V30 5995 C 545.674 -2.99014 -1.68659 0
M  V30 5996 C 544.76 -4.07751 -1.16618 0
M  V30 5997 N 545.151 -5.04469 -0.366717 0
M  V30 5998 C 543.449 -4.21998 -1.4434 0
M  V30 5999 C 544.15 -5.81638 -0.0847275 0
M  V30 6000 N 543.126 -5.39388 -0.675391 0
M  V30 6001 H 546.928 -2.93781 0.0835562 0
M  V30 6002 H 544.442 -1.61736 0.146665 0
M  V30 6003 H 546.439 -3.46056 -2.32489 0
M  V30 6004 H 545.099 -2.28408 -2.30781 0
M  V30 6005 H 546.11 -5.17899 -0.00811038 0
M  V30 6006 H 542.787 -3.62612 -2.06928 0
M  V30 6007 H 544.177 -6.69563 0.559943 0
M  V30 6008 N 546.897 -0.0685191 -1.57451 0
M  V30 6009 C 547.827 0.89747 -2.15564 0
M  V30 6010 C 548.808 1.31266 -1.08181 0
M  V30 6011 O 549.993 1.38429 -1.36202 0
M  V30 6012 C 547.123 2.16623 -2.71463 0
M  V30 6013 C 546.077 1.89054 -3.83982 0
M  V30 6014 C 545.403 3.22532 -4.26471 0
M  V30 6015 C 546.703 1.1984 -5.08366 0
M  V30 6016 H 548.397 0.413373 -2.96533 0
M  V30 6017 H 545.943 0.197391 -1.42641 0
M  V30 6018 H 547.896 2.84614 -3.10761 0
M  V30 6019 H 546.62 2.67269 -1.8771 0
M  V30 6020 H 545.279 1.23469 -3.45183 0
M  V30 6021 H 544.927 3.71013 -3.39644 0
M  V30 6022 H 544.627 3.04879 -5.02317 0
M  V30 6023 H 546.151 3.91727 -4.68383 0
M  V30 6024 H 547.565 1.77896 -5.45001 0
M  V30 6025 H 545.962 1.12456 -5.89469 0
M  V30 6026 H 547.032 0.176996 -4.84577 0
M  V30 6027 N 548.375 1.56261 0.205012 0
M  V30 6028 C 549.325 1.90155 1.25798 0
M  V30 6029 C 550.309 0.766227 1.41484 0
M  V30 6030 O 551.501 1.02893 1.44021 0
M  V30 6031 C 548.63 2.23603 2.60493 0
M  V30 6032 C 547.716 3.43568 2.48639 0
M  V30 6033 N 548.107 4.61747 2.06455 0
M  V30 6034 C 546.405 3.4751 2.79558 0
M  V30 6035 C 547.106 5.43907 2.06253 0
M  V30 6036 N 546.082 4.84051 2.47377 0
M  V30 6037 H 549.884 2.79031 0.922986 0
M  V30 6038 H 547.398 1.57048 0.413501 0
M  V30 6039 H 549.395 2.46067 3.36537 0
M  V30 6040 H 548.055 1.36049 2.94823 0
M  V30 6041 H 549.066 4.86598 1.77321 0
M  V30 6042 H 545.743 2.70345 3.18151 0
M  V30 6043 H 547.133 6.48542 1.75622 0
M  V30 6044 N 549.853 -0.472356 1.50355 0
M  V30 6045 C 551.078 -1.25251 1.65309 0
M  V30 6046 C 551.503 -1.85081 0.335643 0
M  V30 6047 O 550.861 -1.67227 -0.700335 0
M  V30 6048 C 550.909 -2.3379 2.74544 0
M  V30 6049 O 550.013 -3.38401 2.35709 0
M  V30 6050 H 549.354 -0.368539 0.552336 0
M  V30 6051 H 551.884 -0.562271 1.96722 0
M  V30 6052 H 551.894 -2.79121 2.97583 0
M  V30 6053 H 550.569 -1.89614 3.70161 0
M  V30 6054 H 549.146 -2.9879 2.23112 0
M  V30 6055 N 551.331 -1.39911 -0.725443 0
M  V30 6056 C 552.578 -1.37654 -1.48518 0
M  V30 6057 C 552.906 0.0243982 -1.94485 0
M  V30 6058 O 552.161 1.00708 -1.67799 0
M  V30 6059 C 552.46 -2.30368 -2.7325 0
M  V30 6060 C 552.126 -3.77817 -2.461 0
M  V30 6061 C 550.788 -4.17991 -2.38405 0
M  V30 6062 C 553.14 -4.71036 -2.23103 0
M  V30 6063 C 550.468 -5.49433 -2.05768 0
M  V30 6064 C 552.82 -6.02766 -1.9198 0
M  V30 6065 C 551.484 -6.41993 -1.82761 0
M  V30 6066 H 550.754 -0.503713 -0.543465 0
M  V30 6067 H 553.401 -1.7249 -0.831822 0
M  V30 6068 H 551.706 -1.88683 -3.43375 0
M  V30 6069 H 553.403 -2.2591 -3.31309 0
M  V30 6070 H 549.993 -3.45982 -2.52972 0
M  V30 6071 H 554.177 -4.40823 -2.2801 0
M  V30 6072 H 549.433 -5.78738 -1.9716 0
M  V30 6073 H 553.607 -6.74519 -1.73197 0
M  V30 6074 H 551.234 -7.43761 -1.57237 0
M  V30 6075 N 552.809 0.956637 -1.25245 0
M  V30 6076 C 554.037 1.73571 -1.12608 0
M  V30 6077 C 554.452 1.86063 0.320324 0
M  V30 6078 O 553.809 1.35691 1.22042 0
M  V30 6079 C 553.86 3.15053 -1.77268 0
M  V30 6080 O 553.581 3.03174 -3.16255 0
M  V30 6081 C 555.082 4.09248 -1.70386 0
M  V30 6082 H 552.302 0.543955 -0.392879 0
M  V30 6083 H 554.846 1.20031 -1.65568 0
M  V30 6084 H 553.001 3.65543 -1.28284 0
M  V30 6085 H 553.415 3.9241 -3.48015 0
M  V30 6086 H 554.889 5.06138 -2.20291 0
M  V30 6087 H 555.366 4.34102 -0.667239 0
M  V30 6088 H 555.972 3.64672 -2.18849 0
M  V30 6089 N 554.287 1.06798 1.15896 0
M  V30 6090 C 555.197 0.694564 2.24083 0
M  V30 6091 C 556.213 -0.291687 1.71538 0
M  V30 6092 O 557.389 -0.139723 2.00915 0
M  V30 6093 C 554.454 0.0921014 3.46578 0
M  V30 6094 C 553.515 1.13087 4.14137 0
M  V30 6095 C 552.748 0.557064 5.30785 0
M  V30 6096 O 552.971 -0.628623 5.66925 0
M  V30 6097 O 551.905 1.29924 5.8771 0
M  V30 6098 H 555.731 1.59663 2.58344 0
M  V30 6099 H 553.316 0.840575 1.2351 0
M  V30 6100 H 555.198 -0.241884 4.20705 0
M  V30 6101 H 553.873 -0.78337 3.14078 0
M  V30 6102 H 552.78 1.51712 3.41957 0
M  V30 6103 H 554.113 1.97805 4.50704 0
M  V30 6104 N 555.766 -1.3263 0.851289 0
M  V30 6105 C 556.713 -2.28952 0.291469 0
M  V30 6106 C 557.683 -1.54897 -0.599676 0
M  V30 6107 O 558.868 -1.83137 -0.535305 0
M  V30 6108 C 556.008 -3.41206 -0.516992 0
M  V30 6109 C 555.121 -4.30148 0.399566 0
M  V30 6110 C 554.256 -5.29527 -0.4212 0
M  V30 6111 C 553.295 -6.10112 0.492969 0
M  V30 6112 N 552.432 -7.01499 -0.290414 0
M  V30 6113 H 557.272 -2.76228 1.11813 0
M  V30 6114 H 554.809 -1.35907 0.562826 0
M  V30 6115 H 556.767 -4.05005 -1.00132 0
M  V30 6116 H 555.397 -2.9509 -1.30851 0
M  V30 6117 H 554.449 -3.66959 1.00227 0
M  V30 6118 H 555.761 -4.8649 1.1013 0
M  V30 6119 H 554.915 -5.98914 -0.968832 0
M  V30 6120 H 553.654 -4.73794 -1.15632 0
M  V30 6121 H 552.659 -5.39632 1.05251 0
M  V30 6122 H 553.884 -6.6793 1.22664 0
M  V30 6123 H 551.83 -6.48199 -1.00868 0
M  V30 6124 H 551.747 -7.55178 0.352354 0
M  V30 6125 H 553.015 -7.75176 -0.819882 0
M  V30 6126 N 557.244 -0.608902 -1.45362 0
M  V30 6127 C 558.492 -0.104401 -2.0183 0
M  V30 6128 C 558.813 1.27007 -1.47967 0
M  V30 6129 O 558.083 1.83924 -0.674455 0
M  V30 6130 H 556.663 -0.0356042 -0.746151 0
M  V30 6131 H 559.325 -0.790596 -1.78145 0
M  V30 6132 H 558.421 -0.0551793 -3.12051 0
M  V30 6133 N 558.722 1.53707 -0.348139 0
M  V30 6134 C 559.999 1.93247 0.302475 0
M  V30 6135 C 560.379 1.28012 1.67857 0
M  V30 6136 O 559.727 0.43274 2.24365 0
M  V30 6137 C 559.937 3.47031 0.370159 0
M  V30 6138 C 561.285 4.20066 0.61882 0
M  V30 6139 O 562.309 3.53319 0.452087 0
M  V30 6140 O 561.168 5.38318 0.94215 0
M  V30 6141 H 558.262 0.807736 0.177458 0
M  V30 6142 H 560.808 1.64927 -0.399651 0
M  V30 6143 H 559.58 3.86745 -0.59534 0
M  V30 6144 H 559.203 3.81532 1.11888 0
M  V30 6145 N 560.2 0.0768682 1.57412 0
M  V30 6146 C 561.163 -0.873949 2.11884 0
M  V30 6147 C 562.163 -1.22301 1.04398 0
M  V30 6148 O 563.353 -1.15545 1.30365 0
M  V30 6149 C 560.485 -2.17575 2.62438 0
M  V30 6150 H 561.678 -0.401278 2.97203 0
M  V30 6151 H 559.231 -0.171904 1.55352 0
M  V30 6152 H 559.966 -2.69368 1.80587 0
M  V30 6153 H 559.751 -1.93534 3.41009 0
M  V30 6154 H 561.241 -2.85631 3.04639 0
M  V30 6155 N 561.678 -1.56367 -0.196722 0
M  V30 6156 C 562.906 -1.84639 -0.933608 0
M  V30 6157 C 563.321 -0.659164 -1.76919 0
M  V30 6158 O 562.678 0.372142 -1.78665 0
M  V30 6159 C 562.729 -3.11694 -1.83109 0
M  V30 6160 O 562.45 -4.25838 -1.02924 0
M  V30 6161 C 563.951 -3.53132 -2.67979 0
M  V30 6162 H 561.171 -0.613188 -0.272473 0
M  V30 6163 H 563.715 -2.03475 -0.204465 0
M  V30 6164 H 561.87 -2.94759 -2.51387 0
M  V30 6165 H 562.284 -4.98178 -1.64069 0
M  V30 6166 H 563.758 -4.45005 -3.26611 0
M  V30 6167 H 564.235 -2.76045 -3.41608 0
M  V30 6168 H 564.841 -3.72592 -2.05074 0
M  V30 6169 N 563.156 0.464375 -1.50603 0
M  V30 6170 C 564.119 1.54393 -1.69397 0
M  V30 6171 C 565.119 1.50566 -0.564504 0
M  V30 6172 O 566.309 1.53066 -0.831645 0
M  V30 6173 C 563.441 2.9401 -1.72543 0
M  V30 6174 H 564.634 1.39044 -2.65719 0
M  V30 6175 H 562.187 0.69122 -1.40185 0
M  V30 6176 H 562.922 3.14795 -0.77938 0
M  V30 6177 H 562.707 2.98195 -2.54602 0
M  V30 6178 H 564.197 3.72375 -1.89015 0
M  V30 6179 N 564.634 1.40294 0.718013 0
M  V30 6180 C 565.874 1.39888 1.49032 0
M  V30 6181 C 566.238 -0.000462935 1.92 0
M  V30 6182 O 567.439 -0.129622 2.68487 0
M  V30 6183 C 565.71 2.35868 2.68516 0
M  V30 6184 S 567.269 2.53799 3.57954 0
M  V30 6185 H 564.087 0.495849 0.509563 0
M  V30 6186 H 566.689 1.76541 0.839846 0
M  V30 6187 H 565.393 3.36375 2.35117 0
M  V30 6188 H 564.924 2.0049 3.38478 0
M  V30 6189 H 566.939 1.78859 4.62843 0
M  V30 6190 N 566.112 -0.949982 1.2575 0
M  V30 6191 C 567.523 -1.50989 1.09815 0
M  V30 6192 C 567.874 -1.93497 -0.324556 0
M  V30 6193 O 566.999 -1.79068 -1.21506 0
M  V30 6194 C 567.594 -2.74394 1.98729 0
M  V30 6195 C 566.153 -3.26682 1.86965 0
M  V30 6196 C 565.3 -1.99498 1.92603 0
M  V30 6197 H 568.251 -0.766387 1.38968 0
M  V30 6198 H 568.272 -3.48383 1.53001 0
M  V30 6199 H 567.784 -2.43425 3.02268 0
M  V30 6200 H 565.885 -3.62461 0.863279 0
M  V30 6201 H 565.998 -3.94383 2.72027 0
M  V30 6202 H 564.362 -2.15005 1.36546 0
M  V30 6203 H 565.145 -1.70871 2.97755 0
M  V30 6204 N 567.59 -1.07411 -1.15328 0
M  V30 6205 C 568.83 -0.807011 -1.87794 0
M  V30 6206 C 569.194 0.654987 -1.80482 0
M  V30 6207 O 570.395 1.03716 -2.47985 0
M  V30 6208 C 568.666 -1.30198 -3.32841 0
M  V30 6209 S 570.225 -1.16564 -4.23034 0
M  V30 6210 H 567.043 -0.292429 -0.648079 0
M  V30 6211 H 569.645 -1.37334 -1.39139 0
M  V30 6212 H 568.349 -2.3607 -3.35707 0
M  V30 6213 H 567.88 -0.730881 -3.86551 0
M  V30 6214 H 569.895 -0.103557 -4.96092 0
M  V30 6215 N 569.068 1.32177 -0.85831 0
M  V30 6216 C 570.298 2.01021 -0.476889 0
M  V30 6217 C 570.706 1.64653 0.931995 0
M  V30 6218 O 570.049 0.865713 1.62022 0
M  V30 6219 C 570.111 3.55413 -0.540528 0
M  V30 6220 C 569.775 4.1522 -1.90895 0
M  V30 6221 C 570.772 4.3318 -2.87491 0
M  V30 6222 C 568.457 4.51212 -2.20709 0
M  V30 6223 C 570.451 4.86306 -4.1205 0
M  V30 6224 C 568.138 5.04042 -3.45521 0
M  V30 6225 C 569.136 5.21538 -4.41007 0
M  V30 6226 O 568.824 5.73238 -5.63608 0
M  V30 6227 H 568.556 0.650059 -0.18547 0
M  V30 6228 H 571.11 1.69648 -1.15796 0
M  V30 6229 H 569.34 3.86196 0.19741 0
M  V30 6230 H 571.029 4.05526 -0.174191 0
M  V30 6231 H 571.795 4.05704 -2.65762 0
M  V30 6232 H 567.674 4.36878 -1.4717 0
M  V30 6233 H 571.218 4.99877 -4.86589 0
M  V30 6234 H 567.115 5.30952 -3.67098 0
M  V30 6235 H 567.883 5.91625 -5.65617 0
M  V30 6236 N 570.547 0.616602 1.45037 0
M  V30 6237 C 571.963 0.280994 1.57107 0
M  V30 6238 C 572.163 -1.21627 1.60653 0
M  V30 6239 O 571.219 -1.9997 1.54169 0
M  V30 6240 C 572.532 0.960116 2.8496 0
M  V30 6241 C 574.08 0.936884 2.98649 0
M  V30 6242 C 574.555 1.59619 4.29285 0
M  V30 6243 N 576.046 1.5621 4.36065 0
M  V30 6244 C 576.781 2.04131 5.35834 0
M  V30 6245 N 576.277 2.60177 6.4209 0
M  V30 6246 N 578.07 1.94845 5.27249 0
M  V30 6247 H 570.221 1.58867 1.40979 0
M  V30 6248 H 572.484 0.666024 0.674623 0
M  V30 6249 H 572.19 2.01473 2.88273 0
M  V30 6250 H 572.064 0.488921 3.74018 0
M  V30 6251 H 574.451 -0.109209 2.94898 0
M  V30 6252 H 574.532 1.44643 2.10979 0
M  V30 6253 H 574.176 2.64166 4.33796 0
M  V30 6254 H 574.106 1.06159 5.15789 0
M  V30 6255 H 576.597 1.15276 3.59889 0
M  V30 6256 H 576.91 2.94513 7.1448 0
M  V30 6257 H 575.255 2.64221 6.42816 0
M  V30 6258 H 578.446 1.50792 4.43147 0
M  V30 6259 H 578.619 2.32504 6.04852 0
M  V30 6260 N 572.025 -1.5352 0.356285 0
M  V30 6261 C 572.955 -2.28372 -0.486661 0
M  V30 6262 C 573.936 -1.30432 -1.09185 0
M  V30 6263 O 575.121 -1.59291 -1.11085 0
M  V30 6264 C 572.251 -3.06604 -1.63129 0
M  V30 6265 C 571.205 -4.12154 -1.15381 0
M  V30 6266 C 570.531 -4.78415 -2.38796 0
M  V30 6267 C 571.831 -5.21724 -0.245179 0
M  V30 6268 H 573.525 -2.99083 0.137797 0
M  V30 6269 H 571.071 -1.43841 0.0677134 0
M  V30 6270 H 573.024 -3.57712 -2.22755 0
M  V30 6271 H 571.748 -2.33568 -2.28284 0
M  V30 6272 H 570.407 -3.61978 -0.580294 0
M  V30 6273 H 570.055 -4.01959 -3.02387 0
M  V30 6274 H 569.755 -5.49734 -2.07524 0
M  V30 6275 H 571.279 -5.32313 -2.99125 0
M  V30 6276 H 572.693 -5.68391 -0.748646 0
M  V30 6277 H 571.09 -6.00095 -0.0237608 0
M  V30 6278 H 572.16 -4.79596 0.715229 0
M  V30 6279 N 573.503 -0.0852151 -1.57369 0
M  V30 6280 C 574.453 0.88767 -2.10011 0
M  V30 6281 C 575.437 1.25021 -1.01285 0
M  V30 6282 O 576.629 1.22694 -1.27574 0
M  V30 6283 C 573.758 2.15037 -2.67608 0
M  V30 6284 C 572.844 1.81371 -3.83361 0
M  V30 6285 N 573.235 1.18216 -4.91791 0
M  V30 6286 C 571.533 2.11041 -3.92909 0
M  V30 6287 C 572.234 1.02941 -5.72519 0
M  V30 6288 N 571.21 1.54351 -5.21226 0
M  V30 6289 H 575.012 0.395279 -2.9123 0
M  V30 6290 H 572.526 0.11829 -1.61969 0
M  V30 6291 H 574.523 2.85667 -3.03644 0
M  V30 6292 H 573.183 2.64851 -1.8784 0
M  V30 6293 H 574.194 0.850168 -5.10874 0
M  V30 6294 H 570.871 2.63138 -3.24136 0
M  V30 6295 H 572.261 0.536298 -6.69756 0
M  V30 6296 N 574.981 1.5647 0.188427 0
M  V30 6297 C 575.928 1.95073 1.23349 0
M  V30 6298 C 576.898 0.812238 1.44886 0
M  V30 6299 O 578.083 1.07095 1.57909 0
M  V30 6300 C 575.223 2.30124 2.57171 0
M  V30 6301 C 574.336 3.57069 2.43157 0
M  V30 6302 C 573.471 3.81411 3.69729 0
M  V30 6303 C 572.51 5.0176 3.50575 0
M  V30 6304 N 571.647 5.22321 4.69175 0
M  V30 6305 H 576.487 2.84171 0.89728 0
M  V30 6306 H 574.024 1.40623 0.431683 0
M  V30 6307 H 575.982 2.48463 3.35145 0
M  V30 6308 H 574.612 1.44159 2.88822 0
M  V30 6309 H 573.664 3.4674 1.56447 0
M  V30 6310 H 574.976 4.452 2.24942 0
M  V30 6311 H 574.13 4.00026 4.56141 0
M  V30 6312 H 572.869 2.91624 3.90905 0
M  V30 6313 H 571.874 4.83061 2.62549 0
M  V30 6314 H 573.099 5.93063 3.30837 0
M  V30 6315 H 571.045 4.35483 4.90602 0
M  V30 6316 H 570.962 6.04643 4.53809 0
M  V30 6317 H 572.23 5.45401 5.56919 0
M  V30 6318 N 576.459 -0.456382 1.50847 0
M  V30 6319 C 577.87 -1.03685 1.55262 0
M  V30 6320 C 578.221 -1.92779 0.364771 0
M  V30 6321 O 577.346 -2.10043 -0.52068 0
M  V30 6322 C 577.941 -1.88718 2.81374 0
M  V30 6323 C 576.5 -2.41847 2.88422 0
M  V30 6324 C 575.647 -1.20564 2.49719 0
M  V30 6325 H 578.598 -0.238399 1.56899 0
M  V30 6326 H 578.619 -2.73957 2.6406 0
M  V30 6327 H 578.131 -1.23847 3.67809 0
M  V30 6328 H 576.232 -3.10228 2.06372 0
M  V30 6329 H 576.345 -2.75947 3.9165 0
M  V30 6330 H 574.709 -1.54504 2.02486 0
M  V30 6331 H 575.492 -0.573326 3.38479 0
M  V30 6332 N 577.937 -1.40673 -0.710563 0
M  V30 6333 C 579.165 -1.42547 -1.4996 0
M  V30 6334 C 579.58 -0.0265485 -1.88781 0
M  V30 6335 O 578.937 0.950694 -1.55782 0
M  V30 6336 C 578.988 -2.32071 -2.77173 0
M  V30 6337 O 578.709 -3.66518 -2.39992 0
M  V30 6338 C 580.21 -2.42591 -3.71032 0
M  V30 6339 H 577.43 -0.486025 -0.462623 0
M  V30 6340 H 579.974 -1.84783 -0.876102 0
M  V30 6341 H 578.129 -1.93184 -3.35795 0
M  V30 6342 H 578.543 -4.14115 -3.21884 0
M  V30 6343 H 580.017 -3.09429 -4.57119 0
M  V30 6344 H 580.494 -1.4525 -4.14486 0
M  V30 6345 H 581.1 -2.82051 -3.18319 0
M  V30 6346 N 579.415 0.9433 -1.26252 0
M  V30 6347 C 580.662 1.68925 -1.11672 0
M  V30 6348 C 580.99 1.91499 0.340329 0
M  V30 6349 O 580.245 1.49189 1.26653 0
M  V30 6350 C 580.544 3.07073 -1.82868 0
M  V30 6351 C 580.21 3.04262 -3.32769 0
M  V30 6352 C 578.872 3.03203 -3.7366 0
M  V30 6353 C 581.224 2.96729 -4.28487 0
M  V30 6354 C 578.552 2.92373 -5.0866 0
M  V30 6355 C 580.904 2.87442 -5.63525 0
M  V30 6356 C 579.568 2.84724 -6.03729 0
M  V30 6357 H 578.838 0.618141 -0.408635 0
M  V30 6358 H 581.485 1.10124 -1.56668 0
M  V30 6359 H 579.79 3.69486 -1.30335 0
M  V30 6360 H 581.487 3.63635 -1.69029 0
M  V30 6361 H 578.077 3.05865 -3.00241 0
M  V30 6362 H 582.261 2.96658 -3.97879 0
M  V30 6363 H 577.517 2.88645 -5.38975 0
M  V30 6364 H 581.691 2.80576 -6.37377 0
M  V30 6365 H 579.318 2.76089 -7.08293 0
M  V30 6366 N 580.893 1.08022 1.14757 0
M  V30 6367 C 582.142 0.802468 1.8505 0
M  V30 6368 C 582.455 -0.674061 1.83619 0
M  V30 6369 O 583.661 -1.06683 2.49662 0
M  V30 6370 C 582.117 1.38551 3.32162 0
M  V30 6371 C 581.725 2.89354 3.42021 0
M  V30 6372 C 583.469 1.18608 4.07594 0
M  V30 6373 C 581.376 3.40815 4.83321 0
M  V30 6374 H 580.306 0.296518 0.693248 0
M  V30 6375 H 582.957 1.30114 1.29393 0
M  V30 6376 H 581.339 0.814556 3.87532 0
M  V30 6377 H 582.513 3.52552 2.96722 0
M  V30 6378 H 580.828 3.08165 2.80041 0
M  V30 6379 H 583.425 1.54525 5.11885 0
M  V30 6380 H 583.768 0.125599 4.1611 0
M  V30 6381 H 584.301 1.72375 3.58513 0
M  V30 6382 H 581.04 4.46418 4.79991 0
M  V30 6383 H 580.56 2.82374 5.29174 0
M  V30 6384 H 582.239 3.37171 5.522 0
M  V30 6385 N 582.371 -1.3172 0.865308 0
M  V30 6386 C 583.596 -2.01591 0.487415 0
M  V30 6387 C 584.021 -1.6455 -0.911307 0
M  V30 6388 O 583.379 -0.851689 -1.6005 0
M  V30 6389 C 583.427 -3.54759 0.646401 0
M  V30 6390 O 582.531 -4.11185 -0.316284 0
M  V30 6391 H 581.872 -0.634884 0.194468 0
M  V30 6392 H 584.402 -1.68024 1.16744 0
M  V30 6393 H 584.412 -4.04438 0.537932 0
M  V30 6394 H 583.087 -3.8106 1.66632 0
M  V30 6395 H 581.664 -3.72543 -0.163162 0
M  V30 6396 N 583.85 -0.624285 -1.44708 0
M  V30 6397 C 584.779 0.0717025 -2.3339 0
M  V30 6398 C 585.76 0.841814 -1.47809 0
M  V30 6399 O 586.946 0.809056 -1.76544 0
M  V30 6400 C 584.076 1.05852 -3.30776 0
M  V30 6401 C 583.029 0.400503 -4.26122 0
M  V30 6402 C 582.356 1.49674 -5.13324 0
M  V30 6403 C 583.656 -0.688924 -5.17737 0
M  V30 6404 H 585.35 -0.668819 -2.91834 0
M  V30 6405 H 582.896 -0.32308 -1.40329 0
M  V30 6406 H 584.849 1.5541 -3.91696 0
M  V30 6407 H 583.572 1.82984 -2.70526 0
M  V30 6408 H 582.231 -0.0743687 -3.66525 0
M  V30 6409 H 581.88 2.25877 -4.49431 0
M  V30 6410 H 581.58 1.06188 -5.77926 0
M  V30 6411 H 583.104 1.99427 -5.77115 0
M  V30 6412 H 584.518 -0.276724 -5.72632 0
M  V30 6413 H 582.915 -1.04652 -5.90904 0
M  V30 6414 H 583.985 -1.55884 -4.5916 0
M  V30 6415 N 585.328 1.53329 -0.364422 0
M  V30 6416 C 586.276 2.27212 0.497737 0
M  V30 6417 C 587.27 1.30146 1.08437 0
M  V30 6418 O 588.476 1.47778 1.0277 0
M  V30 6419 H 584.851 0.730329 0.179232 0
M  V30 6420 H 586.822 2.98037 -0.147182 0
M  V30 6421 C 585.571 3.07333 1.6261 0
M  V30 6422 H 584.894 3.81866 1.184 0
M  V30 6423 H 586.334 3.62209 2.20409 0
M  V30 6424 C 584.793 2.18102 2.56775 0
M  V30 6425 O 585.323 1.79104 3.59562 0
M  V30 6426 N 583.529 1.82759 2.25937 0
M  V30 6427 H 583.076 2.14671 1.42387 0
M  V30 6428 H 583.034 1.23342 2.89196 0
M  V30 6429 N 586.806 0.0935595 1.57322 0
M  V30 6430 C 588.031 -0.582324 1.99057 0
M  V30 6431 C 588.456 -1.61025 0.972242 0
M  V30 6432 O 587.814 -1.81202 -0.0594622 0
M  V30 6433 C 587.862 -1.20799 3.39765 0
M  V30 6434 O 586.966 -2.32382 3.40694 0
M  V30 6435 H 586.307 -0.147884 0.647323 0
M  V30 6436 H 588.837 0.174516 2.03854 0
M  V30 6437 H 588.847 -1.54966 3.77425 0
M  V30 6438 H 587.522 -0.454914 4.13405 0
M  V30 6439 H 586.099 -1.99845 3.14827 0
M  V30 6440 N 588.284 -1.56567 -0.180126 0
M  V30 6441 C 589.216 -1.92275 -1.24751 0
M  V30 6442 C 590.229 -0.814922 -1.40936 0
M  V30 6443 O 591.418 -1.09336 -1.41095 0
M  V30 6444 C 588.518 -2.15265 -2.61752 0
M  V30 6445 C 587.691 -3.46467 -2.66981 0
M  V30 6446 C 586.75 -3.58391 -3.85283 0
M  V30 6447 O 585.776 -4.31086 -3.7169 0
M  V30 6448 N 586.978 -2.92587 -5.01371 0
M  V30 6449 H 589.743 -2.84435 -0.944302 0
M  V30 6450 H 587.304 -1.57617 -0.369952 0
M  V30 6451 H 589.296 -2.20515 -3.39345 0
M  V30 6452 H 587.866 -1.29533 -2.845 0
M  V30 6453 H 587.086 -3.52953 -1.75549 0
M  V30 6454 H 588.374 -4.32819 -2.67479 0
M  V30 6455 H 587.772 -2.3338 -5.15316 0
M  V30 6456 H 586.329 -3.03444 -5.76858 0
M  V30 6457 N 589.762 0.448376 -1.51087 0
M  V30 6458 C 591.008 1.20049 -1.6345 0
M  V30 6459 C 591.341 1.91121 -0.344444 0
M  V30 6460 O 590.616 1.83125 0.655396 0
M  V30 6461 C 590.899 2.22624 -2.83038 0
M  V30 6462 C 590.752 1.55708 -4.21989 0
M  V30 6463 C 592.071 3.23718 -2.98152 0
M  V30 6464 H 589.19 0.435085 -0.59487 0
M  V30 6465 H 591.832 0.491183 -1.83541 0
M  V30 6466 H 589.982 2.83117 -2.66039 0
M  V30 6467 H 591.654 0.986367 -4.50631 0
M  V30 6468 H 589.897 0.859647 -4.25197 0
M  V30 6469 H 590.568 2.30357 -5.01637 0
M  V30 6470 H 593.044 2.73269 -3.13788 0
M  V30 6471 H 591.92 3.92795 -3.83411 0
M  V30 6472 H 592.181 3.89179 -2.09743 0
M  V30 6473 N 591.24 1.41047 0.703093 0
M  V30 6474 C 592.656 1.23351 1.01275 0
M  V30 6475 C 592.856 0.11754 2.01157 0
M  V30 6476 O 591.912 -0.520518 2.47077 0
M  V30 6477 C 593.225 2.58001 1.54454 0
M  V30 6478 C 594.773 2.65119 1.66376 0
M  V30 6479 C 595.248 4.00067 2.22958 0
M  V30 6480 N 596.739 4.01875 2.30328 0
M  V30 6481 C 597.474 5.03087 2.75119 0
M  V30 6482 N 596.97 6.14692 3.19571 0
M  V30 6483 N 598.763 4.90451 2.74616 0
M  V30 6484 H 590.914 2.1236 0.0412686 0
M  V30 6485 H 593.177 0.944543 0.08089 0
M  V30 6486 H 592.883 3.40378 0.88521 0
M  V30 6487 H 592.757 2.79962 2.52786 0
M  V30 6488 H 595.144 1.83106 2.31422 0
M  V30 6489 H 595.225 2.46975 0.666089 0
M  V30 6490 H 594.869 4.82526 1.58529 0
M  V30 6491 H 594.799 4.15547 3.23462 0
M  V30 6492 H 597.29 3.21291 1.98949 0
M  V30 6493 H 597.603 6.87799 3.52352 0
M  V30 6494 H 595.948 6.18239 3.17498 0
M  V30 6495 H 599.139 4.0235 2.39233 0
M  V30 6496 H 599.312 5.6947 3.09206 0
M  V30 6497 N 592.718 -0.936591 1.26751 0
M  V30 6498 C 593.665 -2.03597 1.08706 0
M  V30 6499 C 594.635 -1.66097 -0.00926542 0
M  V30 6500 O 595.82 -1.90199 0.151377 0
M  V30 6501 C 592.96 -3.3727 0.73094 0
M  V30 6502 C 592.073 -3.87778 1.90399 0
M  V30 6503 C 591.208 -5.09859 1.49056 0
M  V30 6504 C 590.247 -5.5264 2.63164 0
M  V30 6505 N 589.384 -6.65921 2.22471 0
M  V30 6506 H 594.224 -2.18364 2.02784 0
M  V30 6507 H 591.761 -1.06985 1.00958 0
M  V30 6508 H 593.719 -4.14128 0.505328 0
M  V30 6509 H 592.349 -3.22337 -0.172868 0
M  V30 6510 H 591.401 -3.07279 2.2424 0
M  V30 6511 H 592.713 -4.15464 2.76028 0
M  V30 6512 H 591.867 -5.9419 1.22567 0
M  V30 6513 H 590.606 -4.8393 0.60524 0
M  V30 6514 H 589.611 -4.66863 2.90377 0
M  V30 6515 H 590.836 -5.80568 3.52303 0
M  V30 6516 H 588.782 -6.41667 1.36379 0
M  V30 6517 H 588.699 -6.93216 3.01641 0
M  V30 6518 H 589.967 -7.53616 1.99205 0
M  V30 6519 N 594.196 -1.08629 -1.14182 0
M  V30 6520 C 595.424 -0.838889 -1.8913 0
M  V30 6521 C 595.839 0.609153 -1.78703 0
M  V30 6522 O 595.196 1.41876 -1.14794 0
M  V30 6523 C 595.247 -1.25477 -3.39025 0
M  V30 6524 O 594.968 -2.64601 -3.49167 0
M  V30 6525 C 596.469 -1.03856 -4.30963 0
M  V30 6526 H 593.689 -0.302377 -0.599007 0
M  V30 6527 H 596.233 -1.44615 -1.44592 0
M  V30 6528 H 594.388 -0.691571 -3.81177 0
M  V30 6529 H 594.802 -2.81922 -4.42289 0
M  V30 6530 H 596.276 -1.37892 -5.345 0
M  V30 6531 H 596.753 0.0242522 -4.39193 0
M  V30 6532 H 597.359 -1.58731 -3.94569 0
M  V30 6533 N 595.674 1.31259 -0.872281 0
M  V30 6534 C 596.637 2.26744 -0.334656 0
M  V30 6535 C 597.637 1.52307 0.515681 0
M  V30 6536 O 598.827 1.71148 0.324656 0
M  V30 6537 C 595.959 3.36841 0.524482 0
M  V30 6538 H 597.152 2.75812 -1.17762 0
M  V30 6539 H 594.705 1.42232 -0.648064 0
M  V30 6540 H 595.44 2.93069 1.38855 0
M  V30 6541 H 595.225 3.92009 -0.0844299 0
M  V30 6542 H 596.715 4.07944 0.892838 0
M  V30 6543 N 597.152 0.631951 1.44375 0
M  V30 6544 C 598.1 -0.0846693 2.32446 0
M  V30 6545 C 599.094 -0.834957 1.47393 0
M  V30 6546 O 600.3 -0.747764 1.63733 0
M  V30 6547 H 596.675 -0.0461508 0.750583 0
M  V30 6548 H 598.646 0.67619 2.90638 0
M  V30 6549 C 597.395 -1.05211 3.314 0
M  V30 6550 H 596.718 -0.484203 3.96857 0
M  V30 6551 H 598.158 -1.523 3.95703 0
M  V30 6552 C 596.617 -2.13776 2.60387 0
M  V30 6553 O 597.147 -3.21869 2.4034 0
M  V30 6554 N 595.353 -1.89733 2.20113 0
M  V30 6555 H 594.9 -1.01833 2.36618 0
M  V30 6556 H 594.858 -2.62572 1.72926 0
M  V30 6557 N 598.631 -1.53133 0.372548 0
M  V30 6558 C 599.564 -2.22328 -0.514361 0
M  V30 6559 C 600.542 -1.21776 -1.07747 0
M  V30 6560 O 601.726 -1.50704 -1.13228 0
M  V30 6561 C 598.853 -2.92343 -1.71035 0
M  V30 6562 C 597.899 -4.07026 -1.27405 0
M  V30 6563 S 598.732 -5.34821 -0.269526 0
M  V30 6564 C 599.888 -6.08352 -1.47168 0
M  V30 6565 H 600.121 -2.9721 0.0732683 0
M  V30 6566 H 597.654 -1.53603 0.156673 0
M  V30 6567 H 599.612 -3.33296 -2.39634 0
M  V30 6568 H 598.273 -2.17173 -2.26925 0
M  V30 6569 H 597.466 -4.55056 -2.16656 0
M  V30 6570 H 597.068 -3.68001 -0.66719 0
M  V30 6571 H 599.36 -6.33507 -2.40157 0
M  V30 6572 H 600.303 -7.0053 -1.03263 0
M  V30 6573 H 600.711 -5.38893 -1.6809 0
M  V30 6574 N 600.109 -0.101901 -1.5727 0
M  V30 6575 C 601.356 0.560197 -1.94597 0
M  V30 6576 C 601.684 1.67767 -0.984101 0
M  V30 6577 O 600.939 1.95699 -0.00489193 0
M  V30 6578 C 601.238 1.14898 -3.38427 0
M  V30 6579 C 600.904 0.154613 -4.50635 0
M  V30 6580 C 599.566 -0.118861 -4.81053 0
M  V30 6581 C 601.918 -0.523979 -5.18559 0
M  V30 6582 C 599.246 -1.0775 -5.76721 0
M  V30 6583 C 601.598 -1.47114 -6.15256 0
M  V30 6584 C 600.262 -1.75278 -6.44076 0
M  V30 6585 H 599.532 0.204991 -0.712081 0
M  V30 6586 H 602.179 -0.17918 -1.9066 0
M  V30 6587 H 600.484 1.96476 -3.38976 0
M  V30 6588 H 602.181 1.66909 -3.64613 0
M  V30 6589 H 598.771 0.377948 -4.2693 0
M  V30 6590 H 602.955 -0.325851 -4.95229 0
M  V30 6591 H 598.211 -1.30263 -5.97362 0
M  V30 6592 H 602.385 -2.00274 -6.66981 0
M  V30 6593 H 600.012 -2.49717 -7.18015 0
M  V30 6594 N 601.587 1.56661 0.17182 0
M  V30 6595 C 602.52 1.91474 1.24149 0
M  V30 6596 C 603.498 0.777485 1.42807 0
M  V30 6597 O 604.682 1.03075 1.57822 0
M  V30 6598 C 601.809 2.16523 2.60453 0
M  V30 6599 C 600.855 3.39209 2.58533 0
M  V30 6600 S 601.688 4.93594 2.07665 0
M  V30 6601 C 602.844 5.21737 3.45747 0
M  V30 6602 H 603.077 2.81903 0.944346 0
M  V30 6603 H 600.61 1.49743 0.376364 0
M  V30 6604 H 602.568 2.31635 3.38903 0
M  V30 6605 H 601.229 1.26802 2.87368 0
M  V30 6606 H 600.422 3.53935 3.58812 0
M  V30 6607 H 600.024 3.2321 1.88178 0
M  V30 6608 H 602.316 5.13684 4.41741 0
M  V30 6609 H 603.259 6.23361 3.35896 0
M  V30 6610 H 603.667 4.49307 3.41736 0
M  V30 6611 N 603.065 -0.440357 1.51323 0
M  V30 6612 C 604.476 -1.02032 1.56353 0
M  V30 6613 C 604.827 -1.92382 0.385197 0
M  V30 6614 O 603.952 -2.10583 -0.498373 0
M  V30 6615 C 604.547 -1.85723 2.83359 0
M  V30 6616 C 603.106 -2.38774 2.90971 0
M  V30 6617 C 602.253 -1.17908 2.50984 0
M  V30 6618 H 605.204 -0.221744 1.57143 0
M  V30 6619 H 605.225 -2.71141 2.66951 0
M  V30 6620 H 604.737 -1.19939 3.69102 0
M  V30 6621 H 602.838 -3.08021 2.09651 0
M  V30 6622 H 602.951 -2.71778 3.94555 0
M  V30 6623 H 601.315 -1.52347 2.04114 0
M  V30 6624 H 602.098 -0.537393 3.39068 0
M  V30 6625 N 604.543 -1.41418 -0.695603 0
M  V30 6626 C 605.791 -1.40496 -1.45277 0
M  V30 6627 C 606.112 -0.0149538 -1.94994 0
M  V30 6628 O 605.382 0.9432 -1.71699 0
M  V30 6629 H 603.962 -0.517147 -0.539044 0
M  V30 6630 H 606.624 -1.76656 -0.823321 0
M  V30 6631 H 605.72 -2.09214 -2.31595 0
M  V30 6632 N 606.021 0.929856 -1.27246 0
M  V30 6633 C 606.984 2.01172 -1.09829 0
M  V30 6634 C 607.984 1.60743 -0.0429687 0
M  V30 6635 O 609.174 1.71813 -0.287373 0
M  V30 6636 C 606.306 3.34191 -0.673003 0
M  V30 6637 H 607.499 2.18054 -2.05895 0
M  V30 6638 H 605.052 1.11036 -1.10003 0
M  V30 6639 H 605.787 3.23009 0.289134 0
M  V30 6640 H 605.572 3.64892 -1.43515 0
M  V30 6641 H 607.062 4.13646 -0.573323 0
M  V30 6642 N 607.499 1.09233 1.13605 0
M  V30 6643 C 608.746 0.827159 1.84836 0
M  V30 6644 C 609.074 -0.647199 1.83416 0
M  V30 6645 O 608.329 -1.49228 1.26608 0
M  V30 6646 C 608.628 1.305 3.32723 0
M  V30 6647 C 608.294 2.78864 3.54325 0
M  V30 6648 C 606.956 3.19382 3.59928 0
M  V30 6649 C 609.308 3.74532 3.62457 0
M  V30 6650 C 606.636 4.54346 3.71196 0
M  V30 6651 C 608.988 5.09283 3.75252 0
M  V30 6652 C 607.652 5.49394 3.79108 0
M  V30 6653 H 606.922 0.302679 0.676363 0
M  V30 6654 H 609.569 1.36676 1.34134 0
M  V30 6655 H 607.874 0.68517 3.85762 0
M  V30 6656 H 609.571 1.07648 3.86281 0
M  V30 6657 H 606.161 2.46507 3.50617 0
M  V30 6658 H 610.345 3.44343 3.57409 0
M  V30 6659 H 605.601 4.84864 3.72447 0
M  V30 6660 H 609.775 5.83269 3.80487 0
M  V30 6661 H 607.402 6.5397 3.87591 0
M  V30 6662 N 608.977 -1.30795 0.87923 0
M  V30 6663 C 609.91 -2.26396 0.286404 0
M  V30 6664 C 610.888 -1.51528 -0.589748 0
M  V30 6665 O 612.072 -1.80566 -0.541119 0
M  V30 6666 C 609.199 -3.33458 -0.593581 0
M  V30 6667 C 608.245 -4.2597 0.21247 0
M  V30 6668 S 609.078 -5.11132 1.59702 0
M  V30 6669 C 610.234 -6.21705 0.723408 0
M  V30 6670 H 610.467 -2.7633 1.09677 0
M  V30 6671 H 608 -1.38703 0.678305 0
M  V30 6672 H 609.958 -3.9561 -1.09557 0
M  V30 6673 H 608.619 -2.82259 -1.37799 0
M  V30 6674 H 607.812 -5.01907 -0.458822 0
M  V30 6675 H 607.414 -3.68363 0.646883 0
M  V30 6676 H 609.706 -6.77472 -0.0620739 0
M  V30 6677 H 610.649 -6.93007 1.4542 0
M  V30 6678 H 611.057 -5.63771 0.286855 0
M  V30 6679 N 610.455 -0.639598 -1.44038 0
M  V30 6680 C 611.732 -0.078012 -1.95444 0
M  V30 6681 C 612.112 1.39847 -1.58133 0
M  V30 6682 O 611.46 2.11714 -0.859614 0
M  V30 6683 C 611.67 -0.309832 -3.47622 0
M  V30 6684 C 613.018 -0.207521 -4.24093 0
M  V30 6685 O 614.042 -0.241653 -3.55379 0
M  V30 6686 O 612.901 -0.119641 -5.46369 0
M  V30 6687 H 609.995 0.0174534 -0.826816 0
M  V30 6688 H 612.541 -0.711891 -1.54046 0
M  V30 6689 H 611.313 -1.33401 -3.67858 0
M  V30 6690 H 610.936 0.357777 -3.95987 0
M  V30 6691 N 611.933 1.52934 -0.380664 0
M  V30 6692 C 612.843 2.29921 0.466192 0
M  V30 6693 C 613.859 1.36488 1.07922 0
M  V30 6694 O 615.035 1.69553 1.0869 0
M  V30 6695 C 612.1 3.08468 1.58266 0
M  V30 6696 C 611.161 4.17595 0.995627 0
M  V30 6697 C 610.394 4.92387 2.05889 0
M  V30 6698 O 610.617 4.67184 3.27254 0
M  V30 6699 O 609.551 5.77949 1.68102 0
M  V30 6700 H 613.377 3.03274 -0.160735 0
M  V30 6701 H 610.962 1.48698 -0.144617 0
M  V30 6702 H 612.844 3.57469 2.23145 0
M  V30 6703 H 611.519 2.37937 2.19471 0
M  V30 6704 H 610.426 3.72811 0.310332 0
M  V30 6705 H 611.759 4.90336 0.427918 0
M  V30 6706 N 613.412 0.11024 1.57214 0
M  V30 6707 C 614.661 -0.549638 1.94067 0
M  V30 6708 C 614.974 -1.68388 0.995234 0
M  V30 6709 O 616.18 -2.40593 1.25807 0
M  V30 6710 C 614.636 -1.02912 3.44873 0
M  V30 6711 C 614.244 0.0761861 4.47935 0
M  V30 6712 C 615.988 -1.66087 3.9066 0
M  V30 6713 C 613.895 -0.419502 5.8991 0
M  V30 6714 H 612.825 -0.209092 0.724428 0
M  V30 6715 H 615.476 0.188683 1.82527 0
M  V30 6716 H 613.858 -1.82159 3.51616 0
M  V30 6717 H 615.032 0.852185 4.52851 0
M  V30 6718 H 613.347 0.614052 4.11847 0
M  V30 6719 H 615.944 -2.04272 4.94143 0
M  V30 6720 H 616.287 -2.53591 3.30148 0
M  V30 6721 H 616.82 -0.933959 3.86681 0
M  V30 6722 H 613.559 0.419277 6.54158 0
M  V30 6723 H 613.079 -1.16217 5.88433 0
M  V30 6724 H 614.758 -0.883577 6.40938 0
M  V30 6725 N 614.89 -1.56749 -0.16351 0
M  V30 6726 C 616.139 -1.81626 -0.877211 0
M  V30 6727 C 616.452 -0.688791 -1.83071 0
M  V30 6728 O 617.658 -0.822697 -2.58735 0
M  V30 6729 C 616.114 -3.21858 -1.61045 0
M  V30 6730 C 615.722 -4.42494 -0.700195 0
M  V30 6731 C 617.466 -3.56021 -2.31192 0
M  V30 6732 C 615.373 -5.73748 -1.43412 0
M  V30 6733 H 614.303 -0.67731 -0.331312 0
M  V30 6734 H 616.954 -1.83039 -0.13006 0
M  V30 6735 H 615.336 -3.14784 -2.40264 0
M  V30 6736 H 616.51 -4.60766 0.0555849 0
M  V30 6737 H 614.825 -4.1626 -0.10799 0
M  V30 6738 H 617.422 -4.51333 -2.8671 0
M  V30 6739 H 617.765 -2.81277 -3.06902 0
M  V30 6740 H 618.298 -3.64682 -1.58909 0
M  V30 6741 H 615.037 -6.51543 -0.719186 0
M  V30 6742 H 614.557 -5.5944 -2.16302 0
M  V30 6743 H 616.236 -6.15975 -1.9795 0
M  V30 6744 N 616.368 0.432326 -1.51554 0
M  V30 6745 C 617.616 1.17901 -1.64146 0
M  V30 6746 C 617.937 1.91604 -0.362367 0
M  V30 6747 O 617.207 1.85764 0.621968 0
M  V30 6748 H 615.787 0.438206 -0.604966 0
M  V30 6749 H 618.449 0.495172 -1.88505 0
M  V30 6750 H 617.545 1.90584 -2.47152 0
M  V30 6751 N 617.846 1.41785 0.688094 0
M  V30 6752 C 619.094 1.41264 1.4453 0
M  V30 6753 C 619.415 0.0252946 1.94984 0
M  V30 6754 O 618.685 -0.934081 1.72197 0
M  V30 6755 H 617.265 0.519998 0.536294 0
M  V30 6756 H 619.927 1.7709 0.813941 0
M  V30 6757 H 619.023 2.10439 2.30482 0
M  V30 6758 N 619.324 -0.923095 1.27737 0
M  V30 6759 C 620.552 -1.70525 1.17171 0
M  V30 6760 C 620.967 -1.86847 -0.270881 0
M  V30 6761 O 620.324 -1.38879 -1.18401 0
M  V30 6762 C 620.375 -3.10242 1.85559 0
M  V30 6763 O 620.096 -2.94683 3.24182 0
M  V30 6764 C 621.597 -4.04586 1.81176 0
M  V30 6765 H 618.817 -0.533347 0.407163 0
M  V30 6766 H 621.361 -1.15599 1.68692 0
M  V30 6767 H 619.516 -3.62014 1.3793 0
M  V30 6768 H 619.93 -3.83045 3.58297 0
M  V30 6769 H 621.404 -5.00119 2.33633 0
M  V30 6770 H 621.881 -4.3218 0.782099 0
M  V30 6771 H 622.487 -3.58741 2.2844 0
M  V30 6772 N 620.802 -1.09834 -1.13024 0
M  V30 6773 C 621.75 -0.736283 -2.20639 0
M  V30 6774 C 622.744 0.264725 -1.67319 0
M  V30 6775 O 623.95 0.125745 -1.7956 0
M  V30 6776 H 620.325 -0.220136 -0.719058 0
M  V30 6777 H 622.296 -1.65295 -2.48436 0
M  V30 6778 C 621.045 -0.177544 -3.47246 0
M  V30 6779 H 620.368 -0.939009 -3.88616 0
M  V30 6780 H 621.808 0.0378007 -4.23983 0
M  V30 6781 C 620.267 1.08824 -3.1884 0
M  V30 6782 O 620.797 2.1708 -3.37993 0
M  V30 6783 N 619.003 1.00442 -2.7269 0
M  V30 6784 H 618.55 0.123383 -2.57304 0
M  V30 6785 H 618.508 1.85206 -2.5406 0
M  V30 6786 N 622.28 1.30327 -0.886154 0
M  V30 6787 C 623.227 2.28099 -0.352069 0
M  V30 6788 C 624.197 1.56433 0.558397 0
M  V30 6789 O 625.382 1.84492 0.486561 0
M  V30 6790 C 622.522 3.42456 0.426346 0
M  V30 6791 C 621.635 4.28938 -0.513472 0
M  V30 6792 C 620.77 5.30458 0.280657 0
M  V30 6793 C 619.809 6.0859 -0.654556 0
M  V30 6794 N 618.946 7.02022 0.104322 0
M  V30 6795 H 623.786 2.73166 -1.19097 0
M  V30 6796 H 621.323 1.34367 -0.598662 0
M  V30 6797 H 623.281 4.07518 0.893587 0
M  V30 6798 H 621.911 2.98455 1.22981 0
M  V30 6799 H 620.963 3.64173 -1.09921 0
M  V30 6800 H 622.275 4.83399 -1.2299 0
M  V30 6801 H 621.429 6.01273 0.8097 0
M  V30 6802 H 620.168 4.76693 1.03029 0
M  V30 6803 H 619.173 5.36651 -1.19522 0
M  V30 6804 H 620.398 6.64443 -1.4033 0
M  V30 6805 H 618.344 6.50645 0.836472 0
M  V30 6806 H 618.261 7.53979 -0.552453 0
M  V30 6807 H 619.529 7.77077 0.614069 0
M  V30 6808 N 623.758 0.647228 1.43697 0
M  V30 6809 C 625.007 0.155552 2.01099 0
M  V30 6810 C 625.32 -1.23569 1.51624 0
M  V30 6811 O 626.526 -1.82226 2.01261 0
M  V30 6812 C 624.982 0.227296 3.59182 0
M  V30 6813 C 624.59 1.62086 4.17651 0
M  V30 6814 C 626.334 -0.207085 4.23995 0
M  V30 6815 C 624.241 1.64685 5.68008 0
M  V30 6816 H 623.171 0.0543895 0.752036 0
M  V30 6817 H 625.822 0.808386 1.64734 0
M  V30 6818 H 624.204 -0.492937 3.9292 0
M  V30 6819 H 625.378 2.36597 3.95422 0
M  V30 6820 H 623.693 2.0007 3.65186 0
M  V30 6821 H 626.29 -0.207426 5.34298 0
M  V30 6822 H 626.633 -1.23742 3.97484 0
M  V30 6823 H 627.166 0.461193 3.95118 0
M  V30 6824 H 623.905 2.65608 5.99277 0
M  V30 6825 H 623.425 0.944914 5.9231 0
M  V30 6826 H 625.104 1.38792 6.31938 0
M  V30 6827 N 625.236 -1.5273 0.388769 0
M  V30 6828 C 626.461 -2.0647 -0.19621 0
M  V30 6829 C 626.886 -1.25865 -1.39784 0
M  V30 6830 O 626.244 -0.283562 -1.79069 0
M  V30 6831 C 626.292 -3.56456 -0.5451 0
M  V30 6832 O 625.396 -3.78426 -1.63912 0
M  V30 6833 H 624.737 -0.663599 -0.023067 0
M  V30 6834 H 627.267 -1.96898 0.556084 0
M  V30 6835 H 627.277 -3.99888 -0.809557 0
M  V30 6836 H 625.952 -4.14561 0.333417 0
M  V30 6837 H 624.529 -3.46884 -1.36842 0
M  V30 6838 N 626.714 -0.118576 -1.57153 0
M  V30 6839 C 627.646 0.862247 -2.12363 0
M  V30 6840 C 628.659 1.23025 -1.06625 0
M  V30 6841 O 629.848 1.17927 -1.33998 0
M  V30 6842 C 626.948 2.16425 -2.60794 0
M  V30 6843 C 626.121 1.96801 -3.90626 0
M  V30 6844 C 625.18 3.10726 -4.2466 0
M  V30 6845 O 624.206 2.83659 -4.93484 0
M  V30 6846 N 625.408 4.37147 -3.81946 0
M  V30 6847 H 628.173 0.390564 -2.97144 0
M  V30 6848 H 625.734 0.0658591 -1.61766 0
M  V30 6849 H 627.726 2.91633 -2.80593 0
M  V30 6850 H 626.296 2.54943 -1.80895 0
M  V30 6851 H 625.516 1.05787 -3.7974 0
M  V30 6852 H 626.804 1.80993 -4.7552 0
M  V30 6853 H 626.202 4.62014 -3.26435 0
M  V30 6854 H 624.759 5.09229 -4.06853 0
M  V30 6855 N 628.193 1.56834 0.155195 0
M  V30 6856 C 629.141 1.98584 1.21107 0
M  V30 6857 C 630.135 0.876987 1.44932 0
M  V30 6858 O 631.341 1.06215 1.45322 0
M  V30 6859 H 627.716 0.632039 0.407469 0
M  V30 6860 H 629.687 2.86561 0.832195 0
M  V30 6861 C 628.436 2.37555 2.53895 0
M  V30 6862 H 627.759 3.22428 2.3639 0
M  V30 6863 H 629.199 2.70598 3.26424 0
M  V30 6864 C 627.658 1.22507 3.13837 0
M  V30 6865 O 628.188 0.521388 3.98302 0
M  V30 6866 N 626.394 0.991444 2.73164 0
M  V30 6867 H 625.941 1.56544 2.04577 0
M  V30 6868 H 625.899 0.223546 3.13604 0
M  V30 6869 N 629.671 -0.424282 1.51781 0
M  V30 6870 C 630.899 -1.1947 1.68921 0
M  V30 6871 C 631.314 -1.84683 0.39213 0
M  V30 6872 O 630.671 -1.71261 -0.630554 0
M  V30 6873 C 630.722 -2.26909 2.81416 0
M  V30 6874 O 630.443 -1.64361 4.061 0
M  V30 6875 C 631.944 -3.16945 3.09937 0
M  V30 6876 H 629.164 -0.359591 0.566511 0
M  V30 6877 H 631.708 -0.501139 1.98265 0
M  V30 6878 H 629.863 -2.91959 2.54635 0
M  V30 6879 H 630.277 -2.35468 4.68674 0
M  V30 6880 H 631.751 -3.88437 3.922 0
M  V30 6881 H 632.228 -3.78451 2.22871 0
M  V30 6882 H 632.834 -2.57581 3.38426 0
M  V30 6883 N 631.149 -1.42148 -0.680565 0
M  V30 6884 C 632.395 -1.42521 -1.44277 0
M  V30 6885 C 632.728 -0.0393718 -1.9416 0
M  V30 6886 O 632.003 0.935425 -1.70529 0
M  V30 6887 C 632.286 -2.44475 -2.64394 0
M  V30 6888 C 632.139 -3.92226 -2.20179 0
M  V30 6889 C 633.458 -2.43491 -3.66606 0
M  V30 6890 H 630.577 -0.518985 -0.523282 0
M  V30 6891 H 633.219 -1.73524 -0.773914 0
M  V30 6892 H 631.369 -2.18168 -3.21458 0
M  V30 6893 H 633.041 -4.29493 -1.68327 0
M  V30 6894 H 631.284 -4.0637 -1.5181 0
M  V30 6895 H 631.955 -4.59133 -3.06433 0
M  V30 6896 H 634.431 -2.66872 -3.19247 0
M  V30 6897 H 633.307 -3.16816 -4.4824 0
M  V30 6898 H 633.568 -1.45881 -4.17338 0
M  V30 6899 N 632.627 0.916307 -1.28225 0
M  V30 6900 C 633.557 2.0352 -1.14464 0
M  V30 6901 C 634.538 1.70045 -0.0430844 0
M  V30 6902 O 635.723 1.92954 -0.219619 0
M  V30 6903 C 632.853 3.37889 -0.803027 0
M  V30 6904 C 631.807 3.85516 -1.85908 0
M  V30 6905 C 631.133 5.1682 -1.37116 0
M  V30 6906 C 632.433 4.07655 -3.26519 0
M  V30 6907 H 634.127 2.1529 -2.08064 0
M  V30 6908 H 631.673 1.03446 -1.00174 0
M  V30 6909 H 633.626 4.15654 -0.693537 0
M  V30 6910 H 632.35 3.26164 0.168674 0
M  V30 6911 H 631.009 3.09953 -1.95767 0
M  V30 6912 H 630.657 5.01497 -0.38859 0
M  V30 6913 H 630.357 5.49657 -2.07728 0
M  V30 6914 H 631.881 5.97143 -1.27484 0
M  V30 6915 H 633.295 4.75953 -3.19596 0
M  V30 6916 H 631.692 4.51818 -3.94943 0
M  V30 6917 H 632.762 3.12553 -3.70727 0
M  V30 6918 N 634.105 1.10431 1.1244 0
M  V30 6919 C 635.354 0.841539 1.83306 0
M  V30 6920 C 635.667 -0.634961 1.85007 0
M  V30 6921 O 636.873 -1.01363 2.51869 0
M  V30 6922 C 635.329 1.45565 3.29149 0
M  V30 6923 C 634.937 2.96544 3.35806 0
M  V30 6924 C 636.681 1.27227 4.04986 0
M  V30 6925 C 634.588 3.5099 4.75983 0
M  V30 6926 H 633.518 0.311156 0.686803 0
M  V30 6927 H 636.169 1.32829 1.26604 0
M  V30 6928 H 634.551 0.896574 3.85717 0
M  V30 6929 H 635.725 3.58766 2.89177 0
M  V30 6930 H 634.04 3.14036 2.73442 0
M  V30 6931 H 636.637 1.65348 5.08492 0
M  V30 6932 H 636.98 0.213834 4.1575 0
M  V30 6933 H 637.513 1.79941 3.54776 0
M  V30 6934 H 634.252 4.56499 4.70413 0
M  V30 6935 H 633.772 2.93535 5.23065 0
M  V30 6936 H 635.451 3.48808 5.44924 0
M  V30 6937 N 635.583 -1.29855 0.893053 0
M  V30 6938 C 636.811 -1.99976 0.530788 0
M  V30 6939 C 637.226 -1.66889 -0.882799 0
M  V30 6940 O 636.583 -0.910352 -1.58173 0
M  V30 6941 C 636.634 -3.54547 0.705587 0
M  V30 6942 O 636.355 -3.86458 2.06353 0
M  V30 6943 C 637.856 -4.41937 0.347387 0
M  V30 6944 H 635.076 -0.639129 0.204339 0
M  V30 6945 H 637.62 -1.65549 1.20057 0
M  V30 6946 H 635.775 -3.87311 0.0830685 0
M  V30 6947 H 636.189 -4.81146 2.08803 0
M  V30 6948 H 637.663 -5.4954 0.520557 0
M  V30 6949 H 638.14 -4.33339 -0.715139 0
M  V30 6950 H 638.746 -4.14633 0.946567 0
M  V30 6951 N 637.061 -0.65484 -1.43351 0
M  V30 6952 C 638.338 -0.0987371 -1.95351 0
M  V30 6953 C 638.718 1.38161 -1.59608 0
M  V30 6954 O 638.066 2.10791 -0.882021 0
M  V30 6955 C 638.276 -0.346684 -3.47274 0
M  V30 6956 C 639.624 -0.25249 -4.23849 0
M  V30 6957 O 640.648 -0.279332 -3.55103 0
M  V30 6958 O 639.507 -0.177584 -5.46211 0
M  V30 6959 H 636.601 0.0086829 -0.826954 0
M  V30 6960 H 639.147 -0.728189 -1.53282 0
M  V30 6961 H 637.919 -1.37296 -3.66423 0
M  V30 6962 H 637.542 0.315757 -3.96344 0
M  V30 6963 N 638.539 1.52521 -0.396863 0
M  V30 6964 C 639.471 2.24333 0.469814 0
M  V30 6965 C 640.484 1.2685 1.02043 0
M  V30 6966 O 641.673 1.52876 0.92147 0
M  V30 6967 C 638.773 2.95202 1.66461 0
M  V30 6968 C 637.946 4.19454 1.24003 0
M  V30 6969 C 637.005 4.73255 2.30036 0
M  V30 6970 O 636.031 5.36151 1.91131 0
M  V30 6971 N 637.233 4.53765 3.62047 0
M  V30 6972 H 639.998 2.99347 -0.145468 0
M  V30 6973 H 637.559 1.60348 -0.223606 0
M  V30 6974 H 639.551 3.28092 2.36934 0
M  V30 6975 H 638.121 2.2345 2.18607 0
M  V30 6976 H 637.341 3.92517 0.363892 0
M  V30 6977 H 638.629 5.0017 0.933135 0
M  V30 6978 H 638.027 4.03576 3.96412 0
M  V30 6979 H 636.584 4.91124 4.28533 0
M  V30 6980 N 640.017 0.126909 1.57088 0
M  V30 6981 C 641.242 -0.53997 2.00248 0
M  V30 6982 C 641.667 -1.58927 1.00618 0
M  V30 6983 O 641.025 -1.81288 -0.0210131 0
M  V30 6984 C 641.073 -1.13565 3.4225 0
M  V30 6985 O 640.177 -2.25103 3.45547 0
M  V30 6986 H 639.518 -0.13412 0.650314 0
M  V30 6987 H 642.048 0.217718 2.03438 0
M  V30 6988 H 642.058 -1.46925 3.80627 0
M  V30 6989 H 640.733 -0.367122 4.14277 0
M  V30 6990 H 639.31 -1.93123 3.18995 0
M  V30 6991 N 641.495 -1.56914 -0.146875 0
M  V30 6992 C 642.911 -1.51582 -0.499518 0
M  V30 6993 C 643.111 -0.83535 -1.83369 0
M  V30 6994 O 642.167 -0.405932 -2.49216 0
M  V30 6995 C 643.48 -2.96349 -0.509711 0
M  V30 6996 C 645.028 -3.07288 -0.595217 0
M  V30 6997 C 645.503 -4.53562 -0.636071 0
M  V30 6998 N 646.994 -4.57906 -0.69829 0
M  V30 6999 C 647.729 -5.68462 -0.750886 0
M  V30 7000 N 647.225 -6.88588 -0.76282 0
M  V30 7001 N 649.018 -5.56496 -0.791777 0
M  V30 7002 H 641.169 -1.99547 0.727656 0
M  V30 7003 H 643.432 -0.910113 0.265327 0
M  V30 7004 H 643.138 -3.4939 0.402409 0
M  V30 7005 H 643.012 -3.52307 -1.34758 0
M  V30 7006 H 645.399 -2.54266 -1.49776 0
M  V30 7007 H 645.48 -2.54373 0.2698 0
M  V30 7008 H 645.124 -5.07222 0.262313 0
M  V30 7009 H 645.054 -5.04259 -1.51758 0
M  V30 7010 H 647.545 -3.71429 -0.696362 0
M  V30 7011 H 647.858 -7.68598 -0.804804 0
M  V30 7012 H 646.203 -6.91148 -0.730694 0
M  V30 7013 H 649.394 -4.61562 -0.779624 0
M  V30 7014 H 649.567 -6.42671 -0.829301 0
M  V30 7015 N 642.974 0.416227 -1.52004 0
M  V30 7016 C 643.884 1.53147 -1.77717 0
M  V30 7017 C 644.9 1.609 -0.662368 0
M  V30 7018 O 646.076 1.77747 -0.946991 0
M  V30 7019 C 643.141 2.88948 -1.91598 0
M  V30 7020 C 642.202 2.9114 -3.15493 0
M  V30 7021 C 641.435 4.20464 -3.28703 0
M  V30 7022 O 641.658 5.13981 -2.47345 0
M  V30 7023 O 640.592 4.29368 -4.21813 0
M  V30 7024 H 644.418 1.34357 -2.72363 0
M  V30 7025 H 642.003 0.601373 -1.36762 0
M  V30 7026 H 643.885 3.69505 -2.02593 0
M  V30 7027 H 642.56 3.07821 -1.00141 0
M  V30 7028 H 641.467 2.09461 -3.09962 0
M  V30 7029 H 642.8 2.77216 -4.06709 0
M  V30 7030 N 644.452 1.42507 0.673017 0
M  V30 7031 C 645.362 1.4853 1.81593 0
M  V30 7032 C 646.378 0.373907 1.69935 0
M  V30 7033 O 647.554 0.625078 1.91454 0
M  V30 7034 C 644.619 1.387 3.17747 0
M  V30 7035 C 643.68 2.60346 3.41348 0
M  V30 7036 C 642.913 2.50975 4.71007 0
M  V30 7037 O 643.136 1.54659 5.49033 0
M  V30 7038 O 642.07 3.41138 4.95892 0
M  V30 7039 H 645.896 2.45001 1.79467 0
M  V30 7040 H 643.481 1.2429 0.82899 0
M  V30 7041 H 645.363 1.35586 3.98992 0
M  V30 7042 H 644.038 0.453555 3.20507 0
M  V30 7043 H 642.945 2.69034 2.59945 0
M  V30 7044 H 644.278 3.52595 3.43421 0
M  V30 7045 N 645.93 -0.909495 1.28709 0
M  V30 7046 C 647.177 -1.65905 1.16111 0
M  V30 7047 C 647.505 -1.92334 -0.289436 0
M  V30 7048 O 646.76 -1.52495 -1.22653 0
M  V30 7049 C 647.059 -3.02117 1.90945 0
M  V30 7050 C 646.725 -2.95332 3.40719 0
M  V30 7051 C 645.387 -2.93189 3.81567 0
M  V30 7052 C 647.739 -2.85264 4.36204 0
M  V30 7053 C 645.067 -2.78784 5.16233 0
M  V30 7054 C 647.419 -2.724 5.70948 0
M  V30 7055 C 646.083 -2.68617 6.11066 0
M  V30 7056 H 645.353 -0.60709 0.42488 0
M  V30 7057 H 648 -1.05932 1.59533 0
M  V30 7058 H 646.305 -3.65901 1.40085 0
M  V30 7059 H 648.002 -3.59026 1.7861 0
M  V30 7060 H 644.592 -2.97797 3.08245 0
M  V30 7061 H 648.776 -2.86005 4.05605 0
M  V30 7062 H 644.032 -2.74254 5.46438 0
M  V30 7063 H 648.206 -2.63579 6.44592 0
M  V30 7064 H 645.833 -2.57213 7.15364 0
M  V30 7065 N 647.408 -1.11026 -1.11852 0
M  V30 7066 C 648.685 -0.768347 -1.79877 0
M  V30 7067 C 649.065 0.744261 -1.97545 0
M  V30 7068 O 648.413 1.67271 -1.55669 0
M  V30 7069 C 648.623 -1.52648 -3.13846 0
M  V30 7070 C 649.971 -1.70297 -3.88953 0
M  V30 7071 O 650.995 -1.49037 -3.23522 0
M  V30 7072 O 649.854 -2.05593 -5.06353 0
M  V30 7073 H 646.948 -0.277891 -0.778913 0
M  V30 7074 H 649.494 -1.21343 -1.18633 0
M  V30 7075 H 648.266 -2.55564 -2.96315 0
M  V30 7076 H 647.889 -1.07466 -3.82801 0
M  V30 7077 N 648.886 1.2938 -0.899927 0
M  V30 7078 C 650.135 1.9483 -0.521937 0
M  V30 7079 C 650.448 1.71725 0.936473 0
M  V30 7080 O 651.654 2.31282 1.42199 0
M  V30 7081 C 650.11 3.48911 -0.88255 0
M  V30 7082 C 649.718 3.80815 -2.35974 0
M  V30 7083 C 651.462 4.20595 -0.57448 0
M  V30 7084 C 649.369 5.28142 -2.66121 0
M  V30 7085 H 648.299 0.729285 -0.191468 0
M  V30 7086 H 650.95 1.47103 -1.09695 0
M  V30 7087 H 649.332 3.95293 -0.236459 0
M  V30 7088 H 650.506 3.45291 -3.05141 0
M  V30 7089 H 648.821 3.22271 -2.63686 0
M  V30 7090 H 651.418 5.29031 -0.776556 0
M  V30 7091 H 651.761 4.13442 0.487005 0
M  V30 7092 H 652.294 3.79945 -1.17842 0
M  V30 7093 H 649.033 5.4036 -3.71068 0
M  V30 7094 H 648.553 5.64913 -2.01578 0
M  V30 7095 H 650.232 5.95738 -2.52399 0
M  V30 7096 N 650.364 0.662433 1.43002 0
M  V30 7097 C 651.294 -0.00979809 2.33498 0
M  V30 7098 C 652.275 -0.802329 1.49989 0
M  V30 7099 O 653.46 -0.761964 1.78627 0
M  V30 7100 C 650.59 -0.970446 3.33466 0
M  V30 7101 C 649.544 -0.287383 4.27034 0
M  V30 7102 C 648.87 -1.36012 5.17112 0
M  V30 7103 C 650.17 0.82595 5.15728 0
M  V30 7104 H 651.864 0.745959 2.89958 0
M  V30 7105 H 649.41 0.360172 1.39423 0
M  V30 7106 H 651.363 -1.44971 3.95679 0
M  V30 7107 H 650.087 -1.75748 2.75282 0
M  V30 7108 H 648.746 0.17152 3.66199 0
M  V30 7109 H 648.394 -2.13882 4.55262 0
M  V30 7110 H 648.094 -0.908276 5.80538 0
M  V30 7111 H 649.618 -1.84056 5.82199 0
M  V30 7112 H 651.032 0.42845 5.71697 0
M  V30 7113 H 649.429 1.20282 5.87922 0
M  V30 7114 H 650.499 1.68003 4.54866 0
M  V30 7115 N 651.842 -1.52309 0.404946 0
M  V30 7116 C 653.258 -1.59503 0.0556255 0
M  V30 7117 C 653.458 -1.41805 -1.43156 0
M  V30 7118 O 652.514 -1.2429 -2.19792 0
M  V30 7119 C 653.827 -2.95687 0.546801 0
M  V30 7120 C 655.375 -3.08909 0.504413 0
M  V30 7121 C 655.85 -4.47566 0.97203 0
M  V30 7122 N 657.341 -4.53795 0.928679 0
M  V30 7123 C 658.076 -5.59346 1.26174 0
M  V30 7124 N 657.572 -6.72469 1.66604 0
M  V30 7125 N 659.365 -5.49532 1.18198 0
M  V30 7126 H 651.516 -1.6206 1.37296 0
M  V30 7127 H 653.779 -0.762161 0.563751 0
M  V30 7128 H 653.485 -3.13905 1.58609 0
M  V30 7129 H 653.359 -3.77172 -0.0457905 0
M  V30 7130 H 655.746 -2.90378 -0.525819 0
M  V30 7131 H 655.827 -2.2934 1.13301 0
M  V30 7132 H 655.471 -4.6684 2.00057 0
M  V30 7133 H 655.401 -5.25625 0.320292 0
M  V30 7134 H 657.892 -3.72588 0.631369 0
M  V30 7135 H 658.205 -7.48993 1.9034 0
M  V30 7136 H 656.55 -6.73761 1.70504 0
M  V30 7137 H 659.741 -4.60038 0.865011 0
M  V30 7138 H 659.914 -6.31687 1.44485 0
M  V30 7139 N 653.32 -0.135238 -1.57019 0
M  V30 7140 C 654.55 0.525303 -1.9981 0
M  V30 7141 C 654.958 1.59724 -1.01415 0
M  V30 7142 O 654.301 1.837 -0.00130938 0
M  V30 7143 C 654.363 1.19578 -3.3903 0
M  V30 7144 C 654.027 0.269855 -4.56203 0
M  V30 7145 C 655.024 -0.497905 -5.1751 0
M  V30 7146 C 652.709 0.176188 -5.01991 0
M  V30 7147 C 654.703 -1.3469 -6.23007 0
M  V30 7148 C 652.39 -0.676422 -6.07345 0
M  V30 7149 C 653.388 -1.43658 -6.67721 0
M  V30 7150 O 653.076 -2.27501 -7.71037 0
M  V30 7151 H 652.808 0.142296 -0.660854 0
M  V30 7152 H 655.362 -0.223272 -2.04183 0
M  V30 7153 H 653.592 1.99176 -3.3146 0
M  V30 7154 H 655.281 1.75486 -3.66005 0
M  V30 7155 H 656.047 -0.435507 -4.83041 0
M  V30 7156 H 651.926 0.757583 -4.54733 0
M  V30 7157 H 655.47 -1.9407 -6.70062 0
M  V30 7158 H 651.367 -0.740154 -6.41243 0
M  V30 7159 H 652.135 -2.20619 -7.88206 0
M  V30 7160 N 654.798 1.5699 0.138552 0
M  V30 7161 C 656.023 1.88344 0.86841 0
M  V30 7162 C 656.448 0.725159 1.7356 0
M  V30 7163 O 655.806 -0.324992 1.78363 0
M  V30 7164 C 655.854 3.18334 1.69398 0
M  V30 7165 O 654.958 3.02863 2.79907 0
M  V30 7166 H 654.299 0.618577 0.241367 0
M  V30 7167 H 656.829 2.04207 0.126826 0
M  V30 7168 H 656.839 3.50567 2.08726 0
M  V30 7169 H 655.514 4.02238 1.05725 0
M  V30 7170 H 654.091 2.82056 2.43924 0
M  V30 7171 N 656.276 -0.40816 1.52223 0
M  V30 7172 C 657.504 -1.17672 1.70179 0
M  V30 7173 C 657.919 -1.84257 0.411696 0
M  V30 7174 O 657.276 -1.7192 -0.612354 0
M  V30 7175 C 657.327 -2.23911 2.83806 0
M  V30 7176 O 657.048 -1.60044 4.0782 0
M  V30 7177 C 658.549 -3.1364 3.13281 0
M  V30 7178 H 655.769 -0.353562 0.570293 0
M  V30 7179 H 658.313 -0.480083 1.98785 0
M  V30 7180 H 656.468 -2.89242 2.57717 0
M  V30 7181 H 656.882 -2.30484 4.71145 0
M  V30 7182 H 658.356 -3.84255 3.96298 0
M  V30 7183 H 658.833 -3.76066 2.26872 0
M  V30 7184 H 659.439 -2.53977 3.41139 0
M  V30 7185 N 657.755 -1.42862 -0.66545 0
M  V30 7186 C 658.685 -1.49867 -1.79059 0
M  V30 7187 C 659.666 -0.354394 -1.66367 0
M  V30 7188 O 660.851 -0.569969 -1.85647 0
M  V30 7189 C 657.981 -1.40943 -3.17415 0
M  V30 7190 C 656.935 -2.53495 -3.44854 0
M  V30 7191 C 656.261 -2.29626 -4.82883 0
M  V30 7192 C 657.561 -3.95781 -3.40815 0
M  V30 7193 H 659.255 -2.44037 -1.73453 0
M  V30 7194 H 656.801 -1.17456 -0.833071 0
M  V30 7195 H 658.754 -1.4445 -3.95869 0
M  V30 7196 H 657.478 -0.432716 -3.23721 0
M  V30 7197 H 656.137 -2.4932 -2.68766 0
M  V30 7198 H 655.785 -1.30226 -4.8585 0
M  V30 7199 H 655.485 -3.05065 -5.02204 0
M  V30 7200 H 657.009 -2.34897 -5.63609 0
M  V30 7201 H 658.423 -4.01508 -4.09224 0
M  V30 7202 H 656.82 -4.71148 -3.71672 0
M  V30 7203 H 657.89 -4.21786 -2.39216 0
M  V30 7204 N 659.233 0.902656 -1.29189 0
M  V30 7205 C 660.181 2.0278 -1.13943 0
M  V30 7206 C 661.175 1.69308 -0.055787 0
M  V30 7207 O 662.381 1.78707 -0.215371 0
M  V30 7208 H 658.756 0.664595 -0.351877 0
M  V30 7209 H 660.727 2.12778 -2.09208 0
M  V30 7210 C 659.476 3.37657 -0.82966 0
M  V30 7211 H 658.799 3.63913 -1.65551 0
M  V30 7212 H 660.239 4.17078 -0.762998 0
M  V30 7213 C 658.698 3.33648 0.466991 0
M  V30 7214 O 659.228 3.72886 1.49395 0
M  V30 7215 N 657.434 2.86745 0.471761 0
M  V30 7216 H 656.981 2.55009 -0.364406 0
M  V30 7217 H 656.939 2.84446 1.33933 0
M  V30 7218 N 660.711 1.11618 1.11262 0
M  V30 7219 C 661.939 0.888739 1.8684 0
M  V30 7220 C 662.354 -0.561558 1.80255 0
M  V30 7221 O 661.711 -1.38782 1.18515 0
M  V30 7222 C 661.762 1.34422 3.35579 0
M  V30 7223 O 661.483 2.73766 3.42029 0
M  V30 7224 C 662.984 1.15246 4.28058 0
M  V30 7225 H 660.204 0.318152 0.590779 0
M  V30 7226 H 662.748 1.48398 1.40707 0
M  V30 7227 H 660.903 0.79239 3.7921 0
M  V30 7228 H 661.317 2.9355 4.34659 0
M  V30 7229 H 662.791 1.52015 5.30656 0
M  V30 7230 H 663.268 0.0922007 4.39103 0
M  V30 7231 H 663.874 1.69136 3.90222 0
M  V30 7232 N 662.189 -1.289 0.906776 0
M  V30 7233 C 663.137 -2.29477 0.379873 0
M  V30 7234 C 664.131 -1.61068 -0.524747 0
M  V30 7235 O 665.337 -1.75344 -0.406765 0
M  V30 7236 H 661.712 -0.744742 0.10423 0
M  V30 7237 H 663.683 -2.71353 1.24137 0
M  V30 7238 C 662.432 -3.45713 -0.371154 0
M  V30 7239 H 661.755 -3.98551 0.315716 0
M  V30 7240 H 663.195 -4.18105 -0.704581 0
M  V30 7241 C 661.654 -2.9774 -1.57646 0
M  V30 7242 O 662.184 -2.99618 -2.67567 0
M  V30 7243 N 660.39 -2.53485 -1.42105 0
M  V30 7244 H 659.937 -2.52156 -0.526783 0
M  V30 7245 H 659.895 -2.21747 -2.22881 0
M  V30 7246 N 663.667 -0.670007 -1.42649 0
M  V30 7247 C 664.63 0.00204659 -2.292 0
M  V30 7248 C 665.63 0.733817 -1.4308 0
M  V30 7249 O 666.82 0.57254 -1.64522 0
M  V30 7250 C 663.952 1.01359 -3.25483 0
M  V30 7251 H 665.145 -0.759696 -2.90118 0
M  V30 7252 H 662.698 -0.432105 -1.50208 0
M  V30 7253 H 663.433 1.80399 -2.69493 0
M  V30 7254 H 663.218 0.492323 -3.88997 0
M  V30 7255 H 664.708 1.4824 -3.90403 0
M  V30 7256 N 665.145 1.52092 -0.413018 0
M  V30 7257 C 666.375 2.05974 0.160648 0
M  V30 7258 C 666.783 1.28267 1.39084 0
M  V30 7259 O 666.126 0.328805 1.80733 0
M  V30 7260 C 666.188 3.54918 0.572169 0
M  V30 7261 C 665.852 4.53705 -0.547826 0
M  V30 7262 C 666.849 5.00342 -1.41259 0
M  V30 7263 C 664.534 4.97089 -0.721627 0
M  V30 7264 C 666.528 5.89011 -2.43607 0
M  V30 7265 C 664.215 5.85554 -1.74841 0
M  V30 7266 C 665.213 6.3141 -2.60403 0
M  V30 7267 O 664.901 7.18123 -3.61323 0
M  V30 7268 H 664.633 0.675636 0.0221936 0
M  V30 7269 H 667.187 1.96931 -0.58373 0
M  V30 7270 H 665.417 3.61661 1.36889 0
M  V30 7271 H 667.106 3.91428 1.0742 0
M  V30 7272 H 667.872 4.67537 -1.28974 0
M  V30 7273 H 663.751 4.60954 -0.0652911 0
M  V30 7274 H 667.295 6.24725 -3.10425 0
M  V30 7275 H 663.192 6.17773 -1.87156 0
M  V30 7276 H 663.96 7.36244 -3.57613 0
M  V30 7277 N 666.623 0.143563 1.56945 0
M  V30 7278 C 667.9 -0.553285 1.87612 0
M  V30 7279 C 668.28 -1.83195 1.04894 0
M  V30 7280 O 667.628 -2.28102 0.134773 0
M  V30 7281 C 667.838 -0.822055 3.3918 0
M  V30 7282 C 669.186 -1.16435 4.08324 0
M  V30 7283 O 670.21 -0.911522 3.4434 0
M  V30 7284 O 669.069 -1.63996 5.21313 0
M  V30 7285 H 666.163 -0.281851 0.777489 0
M  V30 7286 H 668.709 0.179916 1.68744 0
M  V30 7287 H 667.481 0.0830265 3.91212 0
M  V30 7288 H 667.104 -1.60956 3.63564 0
M  V30 7289 N 668.101 -1.57061 -0.130224 0
M  V30 7290 C 669.331 -1.88159 -0.853217 0
M  V30 7291 C 669.739 -0.731675 -1.7448 0
M  V30 7292 O 669.082 0.307035 -1.81116 0
M  V30 7293 C 669.144 -3.1415 -1.74785 0
M  V30 7294 C 668.808 -4.45202 -1.03173 0
M  V30 7295 C 669.805 -5.18526 -0.377759 0
M  V30 7296 C 667.49 -4.91912 -1.01624 0
M  V30 7297 C 669.484 -6.36775 0.282123 0
M  V30 7298 C 667.171 -6.10082 -0.352555 0
M  V30 7299 C 668.169 -6.82361 0.295483 0
M  V30 7300 O 667.857 -7.98284 0.948606 0
M  V30 7301 H 667.589 -0.627596 -0.251197 0
M  V30 7302 H 670.143 -2.05034 -0.1226 0
M  V30 7303 H 668.373 -2.93328 -2.51983 0
M  V30 7304 H 670.062 -3.31359 -2.34427 0
M  V30 7305 H 670.828 -4.83498 -0.381417 0
M  V30 7306 H 666.707 -4.35566 -1.51007 0
M  V30 7307 H 670.251 -6.93129 0.788525 0
M  V30 7308 H 666.148 -6.44569 -0.346621 0
M  V30 7309 H 666.916 -8.14054 0.851954 0
M  V30 7310 N 669.579 0.400081 -1.52437 0
M  V30 7311 C 670.826 1.14619 -1.6694 0
M  V30 7312 C 671.154 1.90262 -0.403797 0
M  V30 7313 O 670.409 1.85835 0.61351 0
M  V30 7314 C 670.708 2.15914 -2.84808 0
M  V30 7315 C 670.374 1.57011 -4.2268 0
M  V30 7316 C 669.036 1.40672 -4.60179 0
M  V30 7317 C 671.388 1.14081 -5.08562 0
M  V30 7318 C 668.716 0.799335 -5.81229 0
M  V30 7319 C 671.068 0.547573 -6.30226 0
M  V30 7320 C 669.732 0.371389 -6.66466 0
M  V30 7321 H 669.002 0.419419 -0.610875 0
M  V30 7322 H 671.649 0.432227 -1.86558 0
M  V30 7323 H 669.954 2.93488 -2.59561 0
M  V30 7324 H 671.651 2.73533 -2.93225 0
M  V30 7325 H 668.241 1.70713 -3.93135 0
M  V30 7326 H 672.425 1.2551 -4.80168 0
M  V30 7327 H 667.681 0.65093 -6.07925 0
M  V30 7328 H 671.855 0.206575 -6.96094 0
M  V30 7329 H 669.482 -0.10135 -7.60132 0
M  V30 7330 N 671.057 1.43213 0.657864 0
M  V30 7331 C 672.305 1.44298 1.41501 0
M  V30 7332 C 672.626 0.0666478 1.94886 0
M  V30 7333 O 671.896 -0.897345 1.74139 0
M  V30 7334 H 670.476 0.531257 0.525143 0
M  V30 7335 H 673.138 1.78777 0.776195 0
M  V30 7336 H 672.234 2.1528 2.25966 0
M  V30 7337 N 672.536 -0.895792 1.29666 0
M  V30 7338 C 673.483 -2.00035 1.15129 0
M  V30 7339 C 674.453 -1.66043 0.0435819 0
M  V30 7340 O 675.638 -1.89621 0.211811 0
M  V30 7341 C 672.778 -3.34774 0.83787 0
M  V30 7342 C 671.891 -3.81525 2.0264 0
M  V30 7343 C 671.026 -5.04858 1.65201 0
M  V30 7344 C 670.065 -5.43988 2.80612 0
M  V30 7345 N 669.202 -6.58507 2.43544 0
M  V30 7346 H 674.042 -2.11802 2.09628 0
M  V30 7347 H 671.579 -1.03719 1.04311 0
M  V30 7348 H 673.537 -4.12311 0.636824 0
M  V30 7349 H 672.167 -3.22724 -0.0702314 0
M  V30 7350 H 671.219 -2.9999 2.33903 0
M  V30 7351 H 672.531 -4.06472 2.89106 0
M  V30 7352 H 671.685 -5.8999 1.41408 0
M  V30 7353 H 670.424 -4.81759 0.758893 0
M  V30 7354 H 669.429 -4.57388 3.05083 0
M  V30 7355 H 670.654 -5.69066 3.70595 0
M  V30 7356 H 668.6 -6.37004 1.56724 0
M  V30 7357 H 668.517 -6.83269 3.23542 0
M  V30 7358 H 669.785 -7.46897 2.2308 0
M  V30 7359 N 674.014 -1.12206 -1.10668 0
M  V30 7360 C 675.242 -0.898635 -1.86366 0
M  V30 7361 C 675.657 0.551991 -1.80551 0
M  V30 7362 O 675.014 1.38152 -1.19249 0
M  V30 7363 C 675.065 -1.36199 -3.34861 0
M  V30 7364 O 674.786 -2.75576 -3.40573 0
M  V30 7365 C 676.287 -1.17515 -4.2744 0
M  V30 7366 H 673.507 -0.321281 -0.589084 0
M  V30 7367 H 676.051 -1.49142 -1.39918 0
M  V30 7368 H 674.206 -0.81249 -3.78784 0
M  V30 7369 H 674.62 -2.95851 -4.33096 0
M  V30 7370 H 676.094 -1.54827 -5.29842 0
M  V30 7371 H 676.571 -0.115486 -4.39048 0
M  V30 7372 H 677.177 -1.71203 -3.89319 0
M  V30 7373 N 675.492 1.28418 -0.913599 0
M  V30 7374 C 676.422 2.29713 -0.418847 0
M  V30 7375 C 677.403 1.62165 0.513469 0
M  V30 7376 O 678.588 1.89576 0.421235 0
M  V30 7377 C 675.718 3.45612 0.342042 0
M  V30 7378 C 674.672 4.25056 -0.501123 0
M  V30 7379 C 673.998 5.3329 0.388097 0
M  V30 7380 C 675.298 4.91814 -1.75831 0
M  V30 7381 H 676.992 2.71346 -1.26538 0
M  V30 7382 H 674.538 1.30446 -0.609903 0
M  V30 7383 H 676.491 4.15562 0.699 0
M  V30 7384 H 675.215 3.02858 1.22248 0
M  V30 7385 H 673.874 3.56833 -0.840598 0
M  V30 7386 H 673.522 4.8678 1.26707 0
M  V30 7387 H 673.222 5.87347 -0.172459 0
M  V30 7388 H 674.746 6.06088 0.74094 0
M  V30 7389 H 676.16 5.54126 -1.47026 0
M  V30 7390 H 674.557 5.55866 -2.26126 0
M  V30 7391 H 675.627 4.16313 -2.4862 0
M  V30 7392 N 676.97 0.677563 1.42291 0
M  V30 7393 C 678.2 0.209155 2.05539 0
M  V30 7394 C 678.608 -1.13987 1.51009 0
M  V30 7395 O 677.951 -1.71976 0.645764 0
M  V30 7396 C 678.013 0.0697758 3.59432 0
M  V30 7397 C 677.677 1.34795 4.36668 0
M  V30 7398 C 678.674 2.28201 4.67141 0
M  V30 7399 C 676.359 1.59632 4.76259 0
M  V30 7400 C 678.353 3.44718 5.36142 0
M  V30 7401 C 676.04 2.76437 5.45 0
M  V30 7402 C 677.038 3.68805 5.74867 0
M  V30 7403 O 676.726 4.83567 6.42198 0
M  V30 7404 H 676.458 0.0986202 0.668768 0
M  V30 7405 H 679.012 0.925483 1.83368 0
M  V30 7406 H 677.242 -0.702157 3.80272 0
M  V30 7407 H 678.931 -0.359115 4.04308 0
M  V30 7408 H 679.697 2.10264 4.37052 0
M  V30 7409 H 675.576 0.886073 4.52404 0
M  V30 7410 H 679.12 4.16833 5.59371 0
M  V30 7411 H 675.017 2.94299 5.74507 0
M  V30 7412 H 675.785 4.83147 6.6069 0
M  V30 7413 N 678.448 -1.51871 0.421078 0
M  V30 7414 C 679.694 -2.02237 -0.151014 0
M  V30 7415 C 680.027 -1.30554 -1.43768 0
M  V30 7416 O 679.302 -0.41546 -1.90011 0
M  V30 7417 C 679.585 -3.5802 -0.386482 0
M  V30 7418 C 679.438 -4.40339 0.9177 0
M  V30 7419 C 680.757 -4.24444 -1.16342 0
M  V30 7420 H 677.876 -0.735062 -0.0534102 0
M  V30 7421 H 680.518 -1.81656 0.556888 0
M  V30 7422 H 678.668 -3.75688 -0.989494 0
M  V30 7423 H 680.34 -4.34357 1.55344 0
M  V30 7424 H 678.583 -4.06073 1.526 0
M  V30 7425 H 679.254 -5.47451 0.707187 0
M  V30 7426 H 681.73 -4.10948 -0.652788 0
M  V30 7427 H 680.606 -5.33358 -1.29693 0
M  V30 7428 H 680.867 -3.84204 -2.18724 0
M  V30 7429 N 679.926 -0.151884 -1.56866 0
M  V30 7430 C 681.156 0.504081 -2.00356 0
M  V30 7431 C 681.564 1.58639 -1.03103 0
M  V30 7432 O 680.907 1.83688 -0.0207931 0
M  V30 7433 C 680.969 1.15975 -3.40279 0
M  V30 7434 C 680.633 0.221453 -4.56463 0
M  V30 7435 C 681.63 -0.552766 -5.16953 0
M  V30 7436 C 679.315 0.122936 -5.0215 0
M  V30 7437 C 681.309 -1.4129 -6.21543 0
M  V30 7438 C 678.996 -0.740801 -6.06593 0
M  V30 7439 C 679.994 -1.50732 -6.6616 0
M  V30 7440 O 679.682 -2.35666 -7.68581 0
M  V30 7441 H 679.414 0.135279 -0.662326 0
M  V30 7442 H 681.968 -0.244916 -2.03935 0
M  V30 7443 H 680.198 1.95649 -3.33554 0
M  V30 7444 H 681.887 1.71594 -3.67846 0
M  V30 7445 H 682.653 -0.486716 -4.82552 0
M  V30 7446 H 678.532 0.70931 -4.5551 0
M  V30 7447 H 682.076 -2.01166 -6.67966 0
M  V30 7448 H 677.973 -0.808125 -6.40421 0
M  V30 7449 H 678.741 -2.28967 -7.85822 0
M  V30 7450 N 681.404 1.57128 0.121893 0
M  V30 7451 C 682.334 2.03165 1.15092 0
M  V30 7452 C 683.315 0.915587 1.43356 0
M  V30 7453 O 684.5 1.1851 1.53847 0
M  V30 7454 C 681.63 2.43352 2.47784 0
M  V30 7455 C 680.584 3.58376 2.33989 0
M  V30 7456 C 679.91 3.84454 3.71617 0
M  V30 7457 C 681.21 4.90199 1.80283 0
M  V30 7458 H 682.904 2.89382 0.768023 0
M  V30 7459 H 680.45 1.39218 0.367998 0
M  V30 7460 H 682.403 2.74163 3.20019 0
M  V30 7461 H 681.127 1.54103 2.87958 0
M  V30 7462 H 679.786 3.2777 1.64202 0
M  V30 7463 H 679.434 2.92414 4.09271 0
M  V30 7464 H 679.134 4.61877 3.6324 0
M  V30 7465 H 680.658 4.17714 4.45362 0
M  V30 7466 H 682.072 5.19565 2.42333 0
M  V30 7467 H 680.469 5.71601 1.82735 0
M  V30 7468 H 681.539 4.78904 0.760184 0
M  V30 7469 N 682.882 -0.391992 1.52647 0
M  V30 7470 C 684.159 -1.15136 1.58123 0
M  V30 7471 C 684.539 -2.07786 0.372597 0
M  V30 7472 O 683.887 -2.19374 -0.639304 0
M  V30 7473 C 684.097 -1.91367 2.91856 0
M  V30 7474 C 685.445 -2.46833 3.45483 0
M  V30 7475 O 686.469 -2.01527 2.9371 0
M  V30 7476 O 685.328 -3.29587 4.3593 0
M  V30 7477 H 682.422 -0.526649 0.637629 0
M  V30 7478 H 684.968 -0.397386 1.64982 0
M  V30 7479 H 683.74 -1.23597 3.71268 0
M  V30 7480 H 683.363 -2.73732 2.88369 0
M  V30 7481 N 684.36 -1.4356 -0.65026 0
M  V30 7482 C 685.771 -1.40324 -1.2315 0
M  V30 7483 C 686.122 -0.108812 -1.95898 0
M  V30 7484 O 685.247 0.79163 -2.01401 0
M  V30 7485 C 685.842 -2.54195 -2.23987 0
M  V30 7486 C 684.401 -2.54215 -2.77582 0
M  V30 7487 C 683.548 -2.31752 -1.5227 0
M  V30 7488 H 686.499 -1.52418 -0.442095 0
M  V30 7489 H 686.52 -2.25854 -3.0622 0
M  V30 7490 H 686.032 -3.48392 -1.71011 0
M  V30 7491 H 684.133 -1.63907 -3.34612 0
M  V30 7492 H 684.246 -3.52081 -3.24925 0
M  V30 7493 H 682.61 -1.80476 -1.79723 0
M  V30 7494 H 683.393 -3.28037 -1.01225 0
M  V30 7495 N 685.838 0.888903 -1.30139 0
M  V30 7496 C 686.801 1.97576 -1.16174 0
M  V30 7497 C 687.801 1.60525 -0.094086 0
M  V30 7498 O 688.991 1.70812 -0.341889 0
M  V30 7499 C 686.123 3.3188 -0.778983 0
M  V30 7500 H 687.316 2.11393 -2.12728 0
M  V30 7501 H 684.869 1.0748 -1.1348 0
M  V30 7502 H 685.604 3.23765 0.186225 0
M  V30 7503 H 685.389 3.60141 -1.55051 0
M  V30 7504 H 686.879 4.11612 -0.704631 0
M  V30 7505 N 687.317 1.12792 1.10072 0
M  V30 7506 C 688.564 0.885545 1.82111 0
M  V30 7507 C 688.892 -0.588519 1.85383 0
M  V30 7508 O 688.147 -1.45124 1.31292 0
M  V30 7509 C 688.446 1.4102 3.28403 0
M  V30 7510 C 688.112 2.89995 3.45273 0
M  V30 7511 C 686.774 3.30671 3.49585 0
M  V30 7512 C 689.126 3.85874 3.50358 0
M  V30 7513 C 686.454 4.65925 3.56553 0
M  V30 7514 C 688.806 5.20963 3.58859 0
M  V30 7515 C 687.47 5.61177 3.61437 0
M  V30 7516 H 686.74 0.324044 0.666391 0
M  V30 7517 H 689.387 1.40874 1.29718 0
M  V30 7518 H 687.692 0.807551 3.83387 0
M  V30 7519 H 689.389 1.19882 3.82661 0
M  V30 7520 H 685.979 2.57537 3.42597 0
M  V30 7521 H 690.163 3.5554 3.46273 0
M  V30 7522 H 685.419 4.96468 3.56833 0
M  V30 7523 H 689.593 5.95079 3.61738 0
M  V30 7524 H 687.22 6.6597 3.66589 0
M  V30 7525 N 688.795 -1.27931 0.920396 0
M  V30 7526 C 690.023 -1.98805 0.573087 0
M  V30 7527 C 690.438 -1.68724 -0.847201 0
M  V30 7528 O 689.795 -0.943699 -1.56207 0
M  V30 7529 C 689.846 -3.52971 0.780633 0
M  V30 7530 O 689.567 -3.81994 2.14504 0
M  V30 7531 C 691.068 -4.411 0.44105 0
M  V30 7532 H 688.288 -0.634651 0.21785 0
M  V30 7533 H 690.832 -1.62965 1.23542 0
M  V30 7534 H 688.987 -3.87048 0.165204 0
M  V30 7535 H 689.401 -4.76609 2.18962 0
M  V30 7536 H 690.875 -5.48312 0.637006 0
M  V30 7537 H 691.352 -4.34758 -0.62306 0
M  V30 7538 H 691.958 -4.12532 1.0343 0
M  V30 7539 N 690.273 -0.685099 -1.4193 0
M  V30 7540 C 691.501 -0.220372 -2.05723 0
M  V30 7541 C 691.916 1.12642 -1.51516 0
M  V30 7542 O 691.273 1.70182 -0.659114 0
M  V30 7543 C 691.324 -0.157974 -3.61155 0
M  V30 7544 O 691.045 -1.45156 -4.13354 0
M  V30 7545 C 692.546 0.329009 -4.42077 0
M  V30 7546 H 689.766 -0.104725 -0.662777 0
M  V30 7547 H 692.31 -0.934736 -1.81887 0
M  V30 7548 H 690.465 0.507144 -3.84066 0
M  V30 7549 H 690.879 -1.33172 -5.07312 0
M  V30 7550 H 692.353 0.321559 -5.51063 0
M  V30 7551 H 692.83 1.36608 -4.17414 0
M  V30 7552 H 693.436 -0.304737 -4.24207 0
M  V30 7553 N 691.751 1.51645 -0.429126 0
M  V30 7554 C 692.699 2.29119 0.400921 0
M  V30 7555 C 693.693 1.34628 1.02819 0
M  V30 7556 O 694.899 1.52004 0.964098 0
M  V30 7557 H 691.274 0.737273 0.148095 0
M  V30 7558 H 693.245 2.97144 -0.273457 0
M  V30 7559 C 691.994 3.13953 1.49429 0
M  V30 7560 H 691.317 3.86544 1.02097 0
M  V30 7561 H 692.757 3.71232 2.04849 0
M  V30 7562 C 691.216 2.28796 2.47293 0
M  V30 7563 O 691.746 1.94193 3.51642 0
M  V30 7564 N 689.952 1.92177 2.17982 0
M  V30 7565 H 689.499 2.20517 1.33154 0
M  V30 7566 H 689.457 1.35497 2.83704 0
M  V30 7567 N 693.229 0.160201 1.56784 0
M  V30 7568 C 694.645 -0.196089 1.58391 0
M  V30 7569 C 694.845 -1.63689 1.17508 0
M  V30 7570 O 693.901 -2.36613 0.881506 0
M  V30 7571 C 695.214 0.0746449 3.00607 0
M  V30 7572 C 696.762 0.0119762 3.12998 0
M  V30 7573 C 697.237 0.255551 4.57286 0
M  V30 7574 N 698.728 0.202938 4.62755 0
M  V30 7575 C 699.463 0.365731 5.72232 0
M  V30 7576 N 698.959 0.586972 6.90309 0
M  V30 7577 N 700.752 0.302411 5.61286 0
M  V30 7578 H 692.903 1.1008 1.81648 0
M  V30 7579 H 695.166 0.436779 0.841384 0
M  V30 7580 H 694.872 1.07231 3.34954 0
M  V30 7581 H 694.746 -0.638802 3.71751 0
M  V30 7582 H 697.133 -0.976254 2.78484 0
M  V30 7583 H 697.214 0.75796 2.44313 0
M  V30 7584 H 696.858 1.24094 4.92507 0
M  V30 7585 H 696.788 -0.510912 5.24116 0
M  V30 7586 H 699.279 0.0371328 3.77882 0
M  V30 7587 H 699.592 0.700941 7.69615 0
M  V30 7588 H 697.937 0.623453 6.92198 0
M  V30 7589 H 701.128 0.130238 4.67919 0
M  V30 7590 H 701.301 0.432712 6.46554 0
M  V30 7591 N 694.707 -1.5719 -0.113559 0
M  V30 7592 C 695.654 -2.00736 -1.13901 0
M  V30 7593 C 696.624 -0.88044 -1.40846 0
M  V30 7594 O 697.809 -1.14507 -1.5262 0
M  V30 7595 C 694.949 -2.42132 -2.45899 0
M  V30 7596 C 694.062 -3.68264 -2.25844 0
M  V30 7597 C 693.197 -3.98617 -3.5111 0
M  V30 7598 C 692.236 -5.17915 -3.26236 0
M  V30 7599 N 691.373 -5.44111 -4.4372 0
M  V30 7600 H 696.213 -2.88128 -0.760677 0
M  V30 7601 H 693.75 -1.42523 -0.364099 0
M  V30 7602 H 695.708 -2.6417 -3.22908 0
M  V30 7603 H 694.338 -1.57775 -2.81615 0
M  V30 7604 H 693.39 -3.53809 -1.39726 0
M  V30 7605 H 694.702 -4.55425 -2.03444 0
M  V30 7606 H 693.856 -4.21333 -4.36536 0
M  V30 7607 H 692.595 -3.09942 -3.76546 0
M  V30 7608 H 691.6 -4.95038 -2.39202 0
M  V30 7609 H 692.825 -6.08172 -3.02165 0
M  V30 7610 H 690.771 -4.58394 -4.69266 0
M  V30 7611 H 690.688 -6.25606 -4.24444 0
M  V30 7612 H 691.956 -5.71351 -5.30263 0
M  V30 7613 N 696.185 0.383891 -1.52853 0
M  V30 7614 C 697.148 1.45197 -1.77343 0
M  V30 7615 C 698.148 1.47362 -0.643522 0
M  V30 7616 O 699.338 1.48443 -0.911613 0
M  V30 7617 C 696.47 2.8445 -1.87885 0
M  V30 7618 H 697.663 1.24764 -2.72716 0
M  V30 7619 H 695.216 0.615939 -1.43652 0
M  V30 7620 H 695.951 3.10222 -0.94515 0
M  V30 7621 H 695.736 2.8428 -2.70051 0
M  V30 7622 H 697.226 3.61832 -2.08488 0
M  V30 7623 N 697.663 1.43903 0.642637 0
M  V30 7624 C 698.888 1.49758 1.43483 0
M  V30 7625 C 699.313 0.119911 1.87717 0
M  V30 7626 O 698.671 -0.888558 1.58033 0
M  V30 7627 C 698.719 2.45744 2.63898 0
M  V30 7628 O 697.823 1.95101 3.63331 0
M  V30 7629 H 697.164 0.506138 0.429791 0
M  V30 7630 H 699.694 1.88923 0.785438 0
M  V30 7631 H 699.704 2.63399 3.11584 0
M  V30 7632 H 698.379 3.45818 2.31046 0
M  V30 7633 H 696.956 1.87158 3.22531 0
M  V30 7634 N 699.141 -0.881989 1.30609 0
M  V30 7635 C 700.389 -1.63082 1.19368 0
M  V30 7636 C 700.71 -1.93376 -0.251147 0
M  V30 7637 O 699.98 -1.5723 -1.16857 0
M  V30 7638 H 698.56 -0.604542 0.438791 0
M  V30 7639 H 701.222 -1.05658 1.63776 0
M  V30 7640 H 700.318 -2.57966 1.7567 0
M  V30 7641 N 700.619 -1.13374 -1.09472 0
M  V30 7642 C 701.847 -0.918351 -1.85402 0
M  V30 7643 C 702.262 0.53281 -1.81126 0
M  V30 7644 O 701.619 1.36879 -1.20708 0
M  V30 7645 C 701.67 -1.39743 -3.33398 0
M  V30 7646 O 701.391 -2.79172 -3.37631 0
M  V30 7647 C 702.892 -1.22042 -4.2617 0
M  V30 7648 H 700.112 -0.327511 -0.585643 0
M  V30 7649 H 702.656 -1.50617 -1.38328 0
M  V30 7650 H 700.811 -0.852619 -3.77901 0
M  V30 7651 H 701.225 -3.00428 -4.29934 0
M  V30 7652 H 702.699 -1.60438 -5.2817 0
M  V30 7653 H 703.176 -0.162047 -4.38901 0
M  V30 7654 H 703.782 -1.75323 -3.87482 0
M  V30 7655 N 702.098 1.27442 -0.927168 0
M  V30 7656 C 703.346 1.94007 -0.566203 0
M  V30 7657 C 703.667 1.7323 0.895345 0
M  V30 7658 O 702.937 1.07973 1.63459 0
M  V30 7659 H 701.517 0.717917 -0.206409 0
M  V30 7660 H 704.179 1.55161 -1.17945 0
M  V30 7661 H 703.275 3.02401 -0.772028 0
M  V30 7662 N 703.576 0.692616 1.41565 0
M  V30 7663 C 704.822 0.222664 2.01574 0
M  V30 7664 C 705.155 -1.1737 1.54719 0
M  V30 7665 O 704.43 -1.79161 0.757084 0
M  V30 7666 C 704.713 0.277064 3.59033 0
M  V30 7667 C 704.566 1.71016 4.16021 0
M  V30 7668 C 705.885 -0.36479 4.38586 0
M  V30 7669 H 703.004 0.0823839 0.732381 0
M  V30 7670 H 705.646 0.880778 1.68352 0
M  V30 7671 H 703.796 -0.283288 3.87466 0
M  V30 7672 H 705.468 2.32413 3.98475 0
M  V30 7673 H 703.711 2.24525 3.71175 0
M  V30 7674 H 704.382 1.69978 5.25178 0
M  V30 7675 H 706.858 0.112404 4.15948 0
M  V30 7676 H 705.734 -0.296169 5.481 0
M  V30 7677 H 705.995 -1.44506 4.17816 0
M  V30 7678 N 705.054 -1.51416 0.437162 0
M  V30 7679 C 706.017 -2.26312 -0.362729 0
M  V30 7680 C 707.017 -1.29748 -0.949847 0
M  V30 7681 O 708.207 -1.53462 -0.824325 0
M  V30 7682 C 705.339 -3.05475 -1.5132 0
M  V30 7683 H 706.532 -2.98459 0.29365 0
M  V30 7684 H 704.085 -1.55137 0.190327 0
M  V30 7685 H 704.82 -2.37744 -2.20563 0
M  V30 7686 H 704.605 -3.76401 -1.09838 0
M  V30 7687 H 706.095 -3.62209 -2.07833 0
M  V30 7688 N 706.532 -0.168513 -1.56696 0
M  V30 7689 C 707.495 0.748928 -2.16619 0
M  V30 7690 C 708.495 1.16007 -1.11351 0
M  V30 7691 O 709.685 1.07748 -1.3688 0
M  V30 7692 C 706.817 2.01904 -2.74677 0
M  V30 7693 H 708.01 0.227317 -2.99037 0
M  V30 7694 H 705.563 0.0810372 -1.5609 0
M  V30 7695 H 706.298 2.58381 -1.95985 0
M  V30 7696 H 706.083 1.73323 -3.51712 0
M  V30 7697 H 707.573 2.67383 -3.20774 0
M  V30 7698 N 708.01 1.57248 0.105221 0
M  V30 7699 C 709.256 1.85845 0.811753 0
M  V30 7700 C 709.589 0.756219 1.78871 0
M  V30 7701 O 708.864 -0.236736 1.93054 0
M  V30 7702 C 709.147 3.25059 1.54947 0
M  V30 7703 C 709 4.45898 0.591185 0
M  V30 7704 C 710.319 3.6203 2.50245 0
M  V30 7705 H 707.438 0.675973 0.293649 0
M  V30 7706 H 710.08 1.89849 0.0756269 0
M  V30 7707 H 708.23 3.21776 2.17698 0
M  V30 7708 H 709.902 4.61291 -0.0285352 0
M  V30 7709 H 708.145 4.33693 -0.0962343 0
M  V30 7710 H 708.816 5.40009 1.1443 0
M  V30 7711 H 711.292 3.66192 1.97593 0
M  V30 7712 H 710.168 4.60389 2.98886 0
M  V30 7713 H 710.429 2.90176 3.33542 0
M  V30 7714 N 709.488 -0.375779 1.53054 0
M  V30 7715 C 710.736 -1.11727 1.68409 0
M  V30 7716 C 711.057 -1.90127 0.43323 0
M  V30 7717 O 710.327 -1.87945 -0.552595 0
M  V30 7718 H 708.907 -0.415451 0.620813 0
M  V30 7719 H 711.569 -0.424869 1.90213 0
M  V30 7720 H 710.665 -1.8128 2.54055 0
M  V30 7721 N 710.966 -1.44241 -0.634997 0
M  V30 7722 C 711.929 -1.50457 -1.72903 0
M  V30 7723 C 712.929 -0.387058 -1.56072 0
M  V30 7724 O 714.119 -0.649531 -1.61638 0
M  V30 7725 C 711.251 -1.37477 -3.1195 0
M  V30 7726 H 712.444 -2.47907 -1.68767 0
M  V30 7727 H 709.997 -1.31276 -0.84831 0
M  V30 7728 H 710.732 -0.41106 -3.21684 0
M  V30 7729 H 710.517 -2.18506 -3.25573 0
M  V30 7730 H 712.007 -1.44799 -3.91692 0
M  V30 7731 N 712.444 0.87505 -1.31075 0
M  V30 7732 C 713.674 1.65818 -1.2324 0
M  V30 7733 C 714.082 1.8808 0.205536 0
M  V30 7734 O 713.425 1.43548 1.14628 0
M  V30 7735 C 713.487 3.05131 -1.90093 0
M  V30 7736 C 713.151 3.05999 -3.39432 0
M  V30 7737 C 714.148 2.84328 -4.35263 0
M  V30 7738 C 711.833 3.27281 -3.81041 0
M  V30 7739 C 713.827 2.83912 -5.70678 0
M  V30 7740 C 711.514 3.26493 -5.16571 0
M  V30 7741 C 712.512 3.04834 -6.112 0
M  V30 7742 O 712.2 3.03882 -7.44252 0
M  V30 7743 H 711.932 0.52387 -0.427242 0
M  V30 7744 H 714.486 1.10086 -1.73408 0
M  V30 7745 H 712.716 3.62568 -1.34468 0
M  V30 7746 H 714.405 3.65641 -1.76242 0
M  V30 7747 H 715.171 2.67673 -4.04445 0
M  V30 7748 H 711.05 3.43171 -3.07822 0
M  V30 7749 H 714.594 2.66925 -6.44513 0
M  V30 7750 H 710.491 3.42687 -5.47025 0
M  V30 7751 H 711.259 3.19979 -7.53363 0
M  V30 7752 N 713.922 1.13953 1.08869 0
M  V30 7753 C 715.338 0.878924 1.33218 0
M  V30 7754 C 715.538 -0.482478 1.95638 0
M  V30 7755 O 714.594 -1.22778 2.2064 0
M  V30 7756 C 715.907 2.00798 2.23832 0
M  V30 7757 C 717.455 2.04073 2.37325 0
M  V30 7758 C 717.93 3.16258 3.31278 0
M  V30 7759 N 719.421 3.15805 3.38853 0
M  V30 7760 C 720.156 3.99249 4.11567 0
M  V30 7761 N 719.652 4.92721 4.87029 0
M  V30 7762 N 721.445 3.87327 4.0735 0
M  V30 7763 H 713.596 2.01645 0.66731 0
M  V30 7764 H 715.859 0.878395 0.356547 0
M  V30 7765 H 715.565 2.98986 1.85203 0
M  V30 7766 H 715.439 1.92704 3.24261 0
M  V30 7767 H 717.826 1.06495 2.75214 0
M  V30 7768 H 717.907 2.16239 1.36654 0
M  V30 7769 H 717.551 4.14079 2.9411 0
M  V30 7770 H 717.481 3.0133 4.31866 0
M  V30 7771 H 719.972 2.48102 2.8505 0
M  V30 7772 H 720.285 5.52867 5.39961 0
M  V30 7773 H 718.63 4.96723 4.86098 0
M  V30 7774 H 721.821 3.13627 3.475 0
M  V30 7775 H 721.994 4.52585 4.63757 0
M  V30 7776 N 715.4 -1.26948 0.933913 0
M  V30 7777 C 716.35 -2.24306 0.408779 0
M  V30 7778 C 717.334 -1.53243 -0.490435 0
M  V30 7779 O 718.526 -1.73956 -0.326866 0
M  V30 7780 C 715.655 -3.41695 -0.331578 0
M  V30 7781 C 714.741 -4.20053 0.58451 0
M  V30 7782 N 715.132 -4.76122 1.70709 0
M  V30 7783 C 713.43 -4.44303 0.388703 0
M  V30 7784 C 714.131 -5.35267 2.27737 0
M  V30 7785 N 713.107 -5.20548 1.56622 0
M  V30 7786 H 716.909 -2.65244 1.26582 0
M  V30 7787 H 714.423 -1.4195 0.788919 0
M  V30 7788 H 716.42 -4.10552 -0.724774 0
M  V30 7789 H 715.08 -3.02286 -1.18547 0
M  V30 7790 H 716.091 -4.73884 2.08937 0
M  V30 7791 H 712.768 -4.15341 -0.424016 0
M  V30 7792 H 714.158 -5.89563 3.22282 0
M  V30 7793 N 716.879 -0.700114 -1.41195 0
M  V30 7794 C 717.811 0.00155823 -2.292 0
M  V30 7795 C 718.824 0.739736 -1.45023 0
M  V30 7796 O 720.013 0.589684 -1.68478 0
M  V30 7797 C 717.113 1.02635 -3.22985 0
M  V30 7798 C 716.286 0.356871 -4.35942 0
M  V30 7799 C 715.345 1.28491 -5.10271 0
M  V30 7800 O 714.371 0.775562 -5.63892 0
M  V30 7801 N 715.573 2.61699 -5.18164 0
M  V30 7802 H 718.338 -0.754008 -2.9006 0
M  V30 7803 H 715.899 -0.546504 -1.52397 0
M  V30 7804 H 717.891 1.64902 -3.6958 0
M  V30 7805 H 716.461 1.68341 -2.63401 0
M  V30 7806 H 715.681 -0.445753 -3.91672 0
M  V30 7807 H 716.969 -0.108469 -5.08684 0
M  V30 7808 H 716.367 3.05594 -4.76056 0
M  V30 7809 H 714.924 3.19149 -5.6832 0
M  V30 7810 N 718.357 1.51182 -0.445186 0
M  V30 7811 C 719.604 2.02152 0.118645 0
M  V30 7812 C 719.932 1.32888 1.42025 0
M  V30 7813 O 719.187 0.435041 1.90803 0
M  V30 7814 C 719.486 3.55408 0.376797 0
M  V30 7815 C 719.152 4.43008 -0.839945 0
M  V30 7816 C 717.814 4.66669 -1.17361 0
M  V30 7817 C 720.166 4.9435 -1.65127 0
M  V30 7818 C 717.494 5.38919 -2.31913 0
M  V30 7819 C 719.846 5.67857 -2.78786 0
M  V30 7820 C 718.51 5.89779 -3.12597 0
M  V30 7821 H 717.78 0.739727 0.0434152 0
M  V30 7822 H 720.427 1.82055 -0.593984 0
M  V30 7823 H 718.732 3.73879 1.1714 0
M  V30 7824 H 720.429 3.92388 0.826602 0
M  V30 7825 H 717.019 4.24793 -0.569958 0
M  V30 7826 H 721.203 4.75947 -1.4067 0
M  V30 7827 H 716.459 5.54105 -2.58413 0
M  V30 7828 H 720.633 6.06628 -3.42017 0
M  V30 7829 H 718.26 6.45542 -4.01471 0
M  V30 7830 N 719.835 0.176821 1.56605 0
M  V30 7831 C 720.765 -0.746841 2.21234 0
M  V30 7832 C 721.746 -1.23502 1.16967 0
M  V30 7833 O 722.931 -1.28718 1.45414 0
M  V30 7834 C 720.061 -1.97407 2.8574 0
M  V30 7835 C 719.015 -1.62153 3.96094 0
M  V30 7836 C 718.341 -2.92387 4.47676 0
M  V30 7837 C 719.641 -0.845353 5.15413 0
M  V30 7838 H 721.335 -0.208116 2.98676 0
M  V30 7839 H 718.881 -0.0986594 1.43662 0
M  V30 7840 H 720.834 -2.62531 3.2963 0
M  V30 7841 H 719.558 -2.53703 2.05676 0
M  V30 7842 H 718.217 -0.993964 3.52868 0
M  V30 7843 H 717.865 -3.46734 3.64396 0
M  V30 7844 H 717.565 -2.69551 5.22127 0
M  V30 7845 H 719.089 -3.5853 4.94255 0
M  V30 7846 H 720.503 -1.39929 5.55961 0
M  V30 7847 H 718.9 -0.715814 5.95815 0
M  V30 7848 H 719.97 0.157239 4.84645 0
M  V30 7849 N 721.313 -1.57302 -0.09688 0
M  V30 7850 C 722.562 -1.85183 -0.799388 0
M  V30 7851 C 722.875 -0.765818 -1.79985 0
M  V30 7852 O 724.081 -0.931696 -2.55013 0
M  V30 7853 C 722.537 -3.28399 -1.47249 0
M  V30 7854 C 722.145 -4.45066 -0.511888 0
M  V30 7855 C 723.889 -3.65506 -2.15883 0
M  V30 7856 C 721.796 -5.79315 -1.18948 0
M  V30 7857 H 720.726 -0.690752 -0.302287 0
M  V30 7858 H 723.377 -1.83425 -0.0523104 0
M  V30 7859 H 721.759 -3.24692 -2.26697 0
M  V30 7860 H 722.933 -4.60116 0.250962 0
M  V30 7861 H 721.248 -4.16343 0.0686576 0
M  V30 7862 H 723.845 -4.63087 -2.67309 0
M  V30 7863 H 724.188 -2.94041 -2.94696 0
M  V30 7864 H 724.721 -3.71094 -1.43298 0
M  V30 7865 H 721.46 -6.54007 -0.442198 0
M  V30 7866 H 720.98 -5.68111 -1.9238 0
M  V30 7867 H 722.659 -6.23816 -1.71646 0
M  V30 7868 N 722.791 0.367657 -1.53252 0
M  V30 7869 C 724.021 1.12955 -1.72988 0
M  V30 7870 C 724.429 1.8358 -0.457708 0
M  V30 7871 O 723.772 1.74336 0.579006 0
M  V30 7872 C 723.834 2.20545 -2.83902 0
M  V30 7873 C 723.498 1.69704 -4.24323 0
M  V30 7874 C 724.495 1.16223 -5.06743 0
M  V30 7875 C 722.18 1.7528 -4.70725 0
M  V30 7876 C 724.174 0.689935 -6.33655 0
M  V30 7877 C 721.861 1.27662 -5.97617 0
M  V30 7878 C 722.859 0.746083 -6.78913 0
M  V30 7879 O 722.547 0.276925 -8.03423 0
M  V30 7880 H 722.279 0.343753 -0.582074 0
M  V30 7881 H 724.833 0.433106 -2.00782 0
M  V30 7882 H 723.063 2.93676 -2.51577 0
M  V30 7883 H 724.752 2.82111 -2.91836 0
M  V30 7884 H 725.518 1.11256 -4.72067 0
M  V30 7885 H 721.397 2.15515 -4.07522 0
M  V30 7886 H 724.941 0.275164 -6.97057 0
M  V30 7887 H 720.838 1.32322 -6.31792 0
M  V30 7888 H 721.606 0.396445 -8.17539 0
M  V30 7889 N 724.269 1.44576 0.627338 0
M  V30 7890 C 725.517 1.47267 1.38408 0
M  V30 7891 C 725.838 0.107971 1.94701 0
M  V30 7892 O 725.108 -0.860206 1.76004 0
M  V30 7893 H 723.688 0.542276 0.513756 0
M  V30 7894 H 726.35 1.80383 0.738099 0
M  V30 7895 H 725.446 2.20025 2.21349 0
M  V30 7896 N 725.747 -0.868086 1.31537 0
M  V30 7897 C 726.677 -1.99131 1.21939 0
M  V30 7898 C 727.658 -1.69768 0.106166 0
M  V30 7899 O 728.843 -1.92006 0.291081 0
M  V30 7900 C 725.973 -3.34676 0.927879 0
M  V30 7901 C 724.927 -3.7835 2.00088 0
M  V30 7902 C 724.253 -5.11375 1.56203 0
M  V30 7903 C 725.553 -3.95256 3.41424 0
M  V30 7904 H 727.247 -2.07419 2.15911 0
M  V30 7905 H 724.793 -0.996569 1.03945 0
M  V30 7906 H 726.746 -4.12793 0.847327 0
M  V30 7907 H 725.47 -3.26565 -0.0475042 0
M  V30 7908 H 724.129 -3.02474 2.07135 0
M  V30 7909 H 723.777 -4.99709 0.57445 0
M  V30 7910 H 723.477 -5.41568 2.27985 0
M  V30 7911 H 725.001 -5.92001 1.49558 0
M  V30 7912 H 726.415 -4.63764 3.3704 0
M  V30 7913 H 724.812 -4.36849 4.1144 0
M  V30 7914 H 725.882 -2.98579 3.82072 0
M  V30 7915 N 727.225 -1.14528 -1.08264 0
M  V30 7916 C 728.135 -0.84728 -2.18765 0
M  V30 7917 C 729.151 0.172826 -1.7314 0
M  V30 7918 O 730.327 0.000985336 -2.014 0
M  V30 7919 C 727.392 -0.330633 -3.4512 0
M  V30 7920 C 726.453 -1.41348 -4.05363 0
M  V30 7921 C 725.686 -0.921387 -5.25686 0
M  V30 7922 O 725.909 0.236587 -5.69909 0
M  V30 7923 O 724.843 -1.70101 -5.77364 0
M  V30 7924 H 728.669 -1.7708 -2.46731 0
M  V30 7925 H 726.254 -0.923661 -1.17426 0
M  V30 7926 H 728.136 -0.0485053 -4.21372 0
M  V30 7927 H 726.811 0.565147 -3.18728 0
M  V30 7928 H 725.718 -1.74908 -3.30693 0
M  V30 7929 H 727.051 -2.28383 -4.36007 0
M  V30 7930 N 728.703 1.26451 -0.940633 0
M  V30 7931 C 729.653 2.24086 -0.420669 0
M  V30 7932 C 730.637 1.53501 0.482301 0
M  V30 7933 O 731.829 1.74127 0.317636 0
M  V30 7934 C 728.958 3.41866 0.313452 0
M  V30 7935 C 728.044 4.19737 -0.606779 0
M  V30 7936 N 728.435 4.7521 -1.73232 0
M  V30 7937 C 726.733 4.44091 -0.41226 0
M  V30 7938 C 727.434 5.34052 -2.30572 0
M  V30 7939 N 726.41 5.1971 -1.59381 0
M  V30 7940 H 730.212 2.64569 -1.27986 0
M  V30 7941 H 727.726 1.4153 -0.796436 0
M  V30 7942 H 729.723 4.1093 0.702991 0
M  V30 7943 H 728.383 3.0291 1.16942 0
M  V30 7944 H 729.394 4.72769 -2.11447 0
M  V30 7945 H 726.071 4.1556 0.401984 0
M  V30 7946 H 727.461 5.87845 -3.25404 0
M  V30 7947 N 730.181 0.707592 1.40822 0
M  V30 7948 C 731.428 0.243671 2.01029 0
M  V30 7949 C 731.756 -1.16057 1.5608 0
M  V30 7950 O 731.011 -1.7999 0.768251 0
M  V30 7951 C 731.31 0.262892 3.56432 0
M  V30 7952 C 730.976 1.61632 4.20935 0
M  V30 7953 C 729.638 1.98682 4.38268 0
M  V30 7954 C 731.99 2.50619 4.5699 0
M  V30 7955 C 729.318 3.2428 4.88937 0
M  V30 7956 C 731.67 3.75562 5.09054 0
M  V30 7957 C 730.334 4.12739 5.24598 0
M  V30 7958 H 729.604 0.0891654 0.735616 0
M  V30 7959 H 732.251 0.909051 1.68548 0
M  V30 7960 H 730.556 -0.486052 3.88773 0
M  V30 7961 H 732.253 -0.113775 4.00839 0
M  V30 7962 H 728.843 1.31818 4.07826 0
M  V30 7963 H 733.027 2.23272 4.43242 0
M  V30 7964 H 728.283 3.53064 4.99155 0
M  V30 7965 H 732.457 4.44692 5.35931 0
M  V30 7966 H 730.084 5.10132 5.63622 0
M  V30 7967 N 731.66 -1.50943 0.453197 0
M  V30 7968 C 732.907 -2.02212 -0.107922 0
M  V30 7969 C 733.235 -1.33639 -1.41318 0
M  V30 7970 O 732.49 -0.445154 -1.9057 0
M  V30 7971 C 732.789 -3.55603 -0.357944 0
M  V30 7972 C 732.455 -4.42556 0.863427 0
M  V30 7973 C 731.117 -4.6604 1.19834 0
M  V30 7974 C 733.469 -4.93468 1.67747 0
M  V30 7975 C 730.797 -5.37681 2.34768 0
M  V30 7976 C 733.149 -5.6637 2.81793 0
M  V30 7977 C 731.813 -5.88113 3.1572 0
M  V30 7978 H 731.083 -0.739947 -0.0394916 0
M  V30 7979 H 733.73 -1.81738 0.60363 0
M  V30 7980 H 732.035 -3.74495 -1.15156 0
M  V30 7981 H 733.732 -3.92821 -0.805781 0
M  V30 7982 H 730.322 -4.24485 0.592478 0
M  V30 7983 H 734.506 -4.75194 1.43192 0
M  V30 7984 H 729.762 -5.52727 2.61348 0
M  V30 7985 H 733.936 -6.04806 3.45229 0
M  V30 7986 H 731.563 -6.43404 4.04889 0
M  V30 7987 N 733.138 -0.185124 -1.56509 0
M  V30 7988 C 734.068 0.735098 -2.21627 0
M  V30 7989 C 735.049 1.2288 -1.1762 0
M  V30 7990 O 736.234 1.27945 -1.46095 0
M  V30 7991 C 733.364 1.95889 -2.86783 0
M  V30 7992 C 732.318 1.6005 -3.96948 0
M  V30 7993 C 731.644 2.90009 -4.4922 0
M  V30 7994 C 732.944 0.818008 -5.15855 0
M  V30 7995 H 734.638 0.192274 -2.98782 0
M  V30 7996 H 732.184 0.0910393 -1.43712 0
M  V30 7997 H 734.137 2.60779 -3.31017 0
M  V30 7998 H 732.861 2.52608 -2.07018 0
M  V30 7999 H 731.52 0.975237 -3.5339 0
M  V30 8000 H 731.168 3.44797 -3.6623 0
M  V30 8001 H 730.868 2.66778 -5.23549 0
M  V30 8002 H 732.392 3.55904 -4.9615 0
M  V30 8003 H 733.806 1.36979 -5.56695 0
M  V30 8004 H 732.203 0.684207 -5.96187 0
M  V30 8005 H 733.273 -0.182939 -4.84555 0
M  V30 8006 N 734.616 1.57351 0.0885366 0
M  V30 8007 C 736.032 1.53331 0.442916 0
M  V30 8008 C 736.232 0.902831 1.80142 0
M  V30 8009 O 735.288 0.498147 2.47537 0
M  V30 8010 C 736.601 2.98036 0.399372 0
M  V30 8011 C 738.149 3.09286 0.480759 0
M  V30 8012 C 738.624 4.5561 0.467296 0
M  V30 8013 N 740.115 4.60182 0.52786 0
M  V30 8014 C 740.85 5.70857 0.539388 0
M  V30 8015 N 740.346 6.90944 0.506729 0
M  V30 8016 N 742.139 5.59051 0.584691 0
M  V30 8017 H 734.29 1.96709 -0.801215 0
M  V30 8018 H 736.553 0.899639 -0.298922 0
M  V30 8019 H 736.259 3.47656 -0.531806 0
M  V30 8020 H 736.133 3.57066 1.21589 0
M  V30 8021 H 738.52 2.5965 1.40236 0
M  V30 8022 H 738.601 2.53197 -0.364023 0
M  V30 8023 H 738.245 5.05899 -0.450384 0
M  V30 8024 H 738.175 5.09544 1.32938 0
M  V30 8025 H 740.666 3.73757 0.558028 0
M  V30 8026 H 740.979 7.71055 0.518989 0
M  V30 8027 H 739.324 6.93384 0.473675 0
M  V30 8028 H 742.515 4.64138 0.607781 0
M  V30 8029 H 742.688 6.45307 0.590206 0
M  V30 8030 N 736.094 -0.359525 1.53444 0
M  V30 8031 C 737.371 -1.11756 1.6053 0
M  V30 8032 C 737.751 -2.06949 0.416587 0
M  V30 8033 O 737.099 -2.20681 -0.592628 0
M  V30 8034 C 737.309 -1.85133 2.95849 0
M  V30 8035 C 738.657 -2.3945 3.50641 0
M  V30 8036 O 739.681 -1.95251 2.97918 0
M  V30 8037 O 738.54 -3.20266 4.42823 0
M  V30 8038 H 735.634 -0.513005 0.648656 0
M  V30 8039 H 738.18 -0.362301 1.65787 0
M  V30 8040 H 736.952 -1.15694 3.73806 0
M  V30 8041 H 736.575 -2.67554 2.9411 0
M  V30 8042 N 737.572 -1.44907 -0.619662 0
M  V30 8043 C 738.502 -1.55488 -1.742 0
M  V30 8044 C 739.483 -0.407143 -1.65156 0
M  V30 8045 O 740.668 -0.628743 -1.8374 0
M  V30 8046 C 737.798 -1.5097 -3.1277 0
M  V30 8047 C 736.752 -2.64337 -3.36615 0
M  V30 8048 C 736.078 -2.44872 -4.75333 0
M  V30 8049 C 737.378 -4.06423 -3.28051 0
M  V30 8050 H 739.072 -2.49432 -1.65602 0
M  V30 8051 H 736.618 -1.20047 -0.795281 0
M  V30 8052 H 738.571 -1.56971 -3.91073 0
M  V30 8053 H 737.295 -0.535486 -3.2218 0
M  V30 8054 H 735.954 -2.57744 -2.60698 0
M  V30 8055 H 735.602 -1.45617 -4.81461 0
M  V30 8056 H 735.302 -3.20888 -4.92244 0
M  V30 8057 H 736.826 -2.52709 -5.55851 0
M  V30 8058 H 738.24 -4.14324 -3.96243 0
M  V30 8059 H 736.637 -4.82733 -3.56495 0
M  V30 8060 H 737.707 -4.29183 -2.25676 0
M  V30 8061 N 739.05 0.861098 -1.31996 0
M  V30 8062 C 740.275 1.65264 -1.2531 0
M  V30 8063 C 740.7 1.87265 0.177007 0
M  V30 8064 O 740.058 1.4208 1.12619 0
M  V30 8065 C 740.106 2.99284 -2.0115 0
M  V30 8066 O 739.21 3.89508 -1.3549 0
M  V30 8067 H 738.551 0.50409 -0.432192 0
M  V30 8068 H 741.081 1.07297 -1.74208 0
M  V30 8069 H 741.091 3.49154 -2.11081 0
M  V30 8070 H 739.766 2.82591 -3.05148 0
M  V30 8071 H 738.343 3.47966 -1.34066 0
M  V30 8072 N 740.528 1.15101 1.07655 0
M  V30 8073 C 741.438 0.858869 2.18313 0
M  V30 8074 C 742.454 -0.163641 1.73229 0
M  V30 8075 O 743.63 0.00969541 2.01398 0
M  V30 8076 C 740.695 0.34893 3.4494 0
M  V30 8077 C 739.756 1.43495 4.04608 0
M  V30 8078 C 738.989 0.949253 5.2519 0
M  V30 8079 O 739.212 -0.20636 5.70027 0
M  V30 8080 O 738.146 1.73161 5.76454 0
M  V30 8081 H 741.972 1.78386 2.45788 0
M  V30 8082 H 739.557 0.929876 1.16934 0
M  V30 8083 H 741.439 0.070851 4.2134 0
M  V30 8084 H 740.114 -0.548237 3.19024 0
M  V30 8085 H 739.021 1.7666 3.29761 0
M  V30 8086 H 740.354 2.30692 4.3479 0
M  V30 8087 N 742.006 -1.2595 0.947325 0
M  V30 8088 C 743.231 -1.98083 0.614633 0
M  V30 8089 C 743.656 -1.70013 -0.804815 0
M  V30 8090 O 743.014 -0.95175 -1.54309 0
M  V30 8091 C 743.062 -3.4993 0.870706 0
M  V30 8092 O 742.166 -4.12364 -0.0541451 0
M  V30 8093 H 741.507 -0.621232 0.234451 0
M  V30 8094 H 744.037 -1.60259 1.27193 0
M  V30 8095 H 744.047 -4.00198 0.794051 0
M  V30 8096 H 742.722 -3.69691 1.90529 0
M  V30 8097 H 741.299 -3.72826 0.0740917 0
M  V30 8098 N 743.484 -0.715051 -1.40445 0
M  V30 8099 C 744.709 -0.26254 -2.05732 0
M  V30 8100 C 745.134 1.08691 -1.53519 0
M  V30 8101 O 744.492 1.68453 -0.670328 0
M  V30 8102 C 744.54 -0.25195 -3.59719 0
M  V30 8103 O 743.644 0.766998 -4.05205 0
M  V30 8104 H 742.985 -0.123398 -0.652433 0
M  V30 8105 H 745.515 -0.975382 -1.79854 0
M  V30 8106 H 745.525 -0.0894537 -4.07902 0
M  V30 8107 H 744.2 -1.23672 -3.97087 0
M  V30 8108 H 742.777 0.572269 -3.68483 0
M  V30 8109 N 744.962 1.50701 -0.461195 0
M  V30 8110 C 745.872 2.32069 0.343661 0
M  V30 8111 C 746.888 1.42016 1.00535 0
M  V30 8112 O 748.064 1.75077 0.995498 0
M  V30 8113 C 745.129 3.16424 1.41692 0
M  V30 8114 C 744.19 4.22286 0.772869 0
M  V30 8115 C 743.423 5.02609 1.79499 0
M  V30 8116 O 743.646 4.83874 3.0203 0
M  V30 8117 O 742.58 5.86047 1.3723 0
M  V30 8118 H 746.406 3.01996 -0.321268 0
M  V30 8119 H 743.991 1.47723 -0.223235 0
M  V30 8120 H 745.873 3.68795 2.03883 0
M  V30 8121 H 744.548 2.49236 2.0655 0
M  V30 8122 H 743.455 3.73931 0.112277 0
M  V30 8123 H 744.788 4.91915 0.167399 0
M  V30 8124 N 746.441 0.193421 1.56409 0
M  V30 8125 C 747.687 -0.446449 1.97825 0
M  V30 8126 C 748.02 -1.61386 1.08019 0
M  V30 8127 O 747.295 -1.94053 0.131839 0
M  V30 8128 C 747.578 -0.908199 3.48459 0
M  V30 8129 C 747.431 0.260914 4.49043 0
M  V30 8130 C 748.75 -1.77428 4.0275 0
M  V30 8131 H 745.869 -0.160807 0.719243 0
M  V30 8132 H 748.511 0.284006 1.87865 0
M  V30 8133 H 746.661 -1.53062 3.57077 0
M  V30 8134 H 748.333 0.898548 4.52464 0
M  V30 8135 H 746.576 0.912949 4.24085 0
M  V30 8136 H 747.247 -0.104657 5.51901 0
M  V30 8137 H 749.723 -1.24936 3.96901 0
M  V30 8138 H 748.599 -2.06633 5.08521 0
M  V30 8139 H 748.86 -2.72788 3.47907 0
M  V30 8140 N 747.919 -1.57396 -0.0801906 0
M  V30 8141 C 748.882 -2.02133 -1.0805 0
M  V30 8142 C 749.882 -0.91707 -1.32085 0
M  V30 8143 O 751.072 -1.18217 -1.27947 0
M  V30 8144 C 748.204 -2.39479 -2.42616 0
M  V30 8145 H 749.397 -2.91733 -0.6951 0
M  V30 8146 H 746.95 -1.52869 -0.325677 0
M  V30 8147 H 747.685 -1.52879 -2.86004 0
M  V30 8148 H 747.47 -3.20052 -2.26515 0
M  V30 8149 H 748.96 -2.74697 -3.14534 0
M  V30 8150 N 749.397 0.351382 -1.53633 0
M  V30 8151 C 750.646 1.08988 -1.69719 0
M  V30 8152 C 750.959 1.90043 -0.462948 0
M  V30 8153 O 752.165 2.66769 -0.504613 0
M  V30 8154 C 750.621 1.98691 -3.00083 0
M  V30 8155 C 750.229 1.22881 -4.30818 0
M  V30 8156 C 751.973 2.72446 -3.25536 0
M  V30 8157 C 749.88 2.11568 -5.52262 0
M  V30 8158 H 748.81 0.410588 -0.632403 0
M  V30 8159 H 751.461 0.349886 -1.80133 0
M  V30 8160 H 749.843 2.76478 -2.83506 0
M  V30 8161 H 751.017 0.500582 -4.58073 0
M  V30 8162 H 749.332 0.60928 -4.11918 0
M  V30 8163 H 751.929 3.39055 -4.13456 0
M  V30 8164 H 752.272 3.38588 -2.42206 0
M  V30 8165 H 752.805 2.01735 -3.42852 0
M  V30 8166 H 749.544 1.4998 -6.38111 0
M  V30 8167 H 749.064 2.82201 -5.29266 0
M  V30 8168 H 750.743 2.70802 -5.87601 0
M  V30 8169 N 750.875 1.45233 0.611969 0
M  V30 8170 C 751.838 1.53189 1.70487 0
M  V30 8171 C 752.838 0.411839 1.55437 0
M  V30 8172 O 754.028 0.675164 1.60584 0
M  V30 8173 C 751.16 1.42422 3.09723 0
M  V30 8174 H 752.353 2.5056 1.64802 0
M  V30 8175 H 749.906 1.32609 0.827318 0
M  V30 8176 H 750.641 0.462185 3.2099 0
M  V30 8177 H 750.426 2.23658 3.22055 0
M  V30 8178 H 751.916 1.51012 3.89339 0
M  V30 8179 N 752.353 -0.854086 1.3245 0
M  V30 8180 C 753.263 -1.99503 1.23434 0
M  V30 8181 C 754.279 -1.73371 0.147828 0
M  V30 8182 O 755.455 -1.97998 0.368609 0
M  V30 8183 C 752.52 -3.33192 0.958328 0
M  V30 8184 C 751.581 -3.72542 2.13333 0
M  V30 8185 C 750.814 -4.99852 1.8704 0
M  V30 8186 O 751.037 -5.64573 0.813239 0
M  V30 8187 O 749.971 -5.36345 2.73161 0
M  V30 8188 H 753.797 -2.10046 2.1935 0
M  V30 8189 H 751.382 -0.984823 1.12346 0
M  V30 8190 H 753.264 -4.13327 0.820918 0
M  V30 8191 H 751.939 -3.23687 0.0293299 0
M  V30 8192 H 750.846 -2.92981 2.32622 0
M  V30 8193 H 752.179 -3.86694 3.04514 0
M  V30 8194 N 753.831 -1.1567 -1.07043 0
M  V30 8195 C 755.071 -0.944089 -1.81291 0
M  V30 8196 C 755.435 0.519305 -1.84844 0
M  V30 8197 O 756.636 0.850357 -2.54995 0
M  V30 8198 C 754.907 -1.54528 -3.22267 0
M  V30 8199 S 756.466 -1.47623 -4.13223 0
M  V30 8200 H 753.284 -0.339696 -0.624602 0
M  V30 8201 H 755.886 -1.47277 -1.28568 0
M  V30 8202 H 754.59 -2.60321 -3.17271 0
M  V30 8203 H 754.121 -1.0156 -3.80065 0
M  V30 8204 H 756.136 -0.471261 -4.93957 0
M  V30 8205 N 755.309 1.25446 -0.953992 0
M  V30 8206 C 756.272 2.24156 -0.478179 0
M  V30 8207 C 757.272 1.55278 0.417776 0
M  V30 8208 O 758.462 1.72866 0.215155 0
M  V30 8209 C 755.594 3.39495 0.309202 0
M  V30 8210 H 756.787 2.67764 -1.35064 0
M  V30 8211 H 754.34 1.37822 -0.737206 0
M  V30 8212 H 755.075 3.01307 1.19936 0
M  V30 8213 H 754.86 3.90679 -0.333562 0
M  V30 8214 H 756.35 4.12796 0.631594 0
M  V30 8215 N 756.787 0.722489 1.40064 0
M  V30 8216 C 757.75 0.0830209 2.2905 0
M  V30 8217 C 758.75 -0.680208 1.45705 0
M  V30 8218 O 759.94 -0.511084 1.66534 0
M  V30 8219 C 757.072 -0.892092 3.29021 0
M  V30 8220 H 758.265 0.866848 2.87099 0
M  V30 8221 H 755.818 0.487556 1.48501 0
M  V30 8222 H 756.553 -1.70273 2.76003 0
M  V30 8223 H 756.338 -0.34761 3.90556 0
M  V30 8224 H 757.828 -1.33648 3.95636 0
M  V30 8225 N 758.265 -1.50454 0.469181 0
M  V30 8226 C 759.215 -2.25381 -0.344582 0
M  V30 8227 C 760.199 -1.28892 -0.963098 0
M  V30 8228 O 761.391 -1.53805 -0.875964 0
M  V30 8229 C 758.52 -3.12232 -1.4271 0
M  V30 8230 C 757.606 -4.16168 -0.816411 0
M  V30 8231 N 757.997 -5.05762 0.0621424 0
M  V30 8232 C 756.295 -4.32712 -1.08056 0
M  V30 8233 C 756.996 -5.80264 0.408519 0
M  V30 8234 N 755.972 -5.43171 -0.215827 0
M  V30 8235 H 759.774 -2.92016 0.332237 0
M  V30 8236 H 757.288 -1.59911 0.283209 0
M  V30 8237 H 759.285 -3.64514 -2.02324 0
M  V30 8238 H 757.945 -2.47145 -2.10593 0
M  V30 8239 H 758.956 -5.16105 0.430841 0
M  V30 8240 H 755.633 -3.78844 -1.75452 0
M  V30 8241 H 757.023 -6.62408 1.12539 0
M  V30 8242 N 759.743 -0.201713 -1.56304 0
M  V30 8243 C 760.676 0.755976 -2.15314 0
M  V30 8244 C 761.654 1.20497 -1.09175 0
M  V30 8245 O 762.838 1.2913 -1.37323 0
M  V30 8246 C 759.965 2.02177 -2.71739 0
M  V30 8247 C 759.011 1.71436 -3.90528 0
M  V30 8248 S 759.844 0.856624 -5.28604 0
M  V30 8249 C 761 2.13242 -5.88455 0
M  V30 8250 H 761.233 0.254348 -2.9621 0
M  V30 8251 H 758.766 0.0133669 -1.54394 0
M  V30 8252 H 760.724 2.74867 -3.04891 0
M  V30 8253 H 759.385 2.49452 -1.90873 0
M  V30 8254 H 758.578 2.65433 -4.28441 0
M  V30 8255 H 758.18 1.06823 -3.5842 0
M  V30 8256 H 760.472 3.08435 -6.0322 0
M  V30 8257 H 761.415 1.7975 -6.84905 0
M  V30 8258 H 761.823 2.2639 -5.17115 0
M  V30 8259 N 761.222 1.57436 0.0718424 0
M  V30 8260 C 762.471 1.86431 0.769826 0
M  V30 8261 C 762.784 0.794355 1.78744 0
M  V30 8262 O 763.99 0.972148 2.53499 0
M  V30 8263 C 762.446 3.307 1.42006 0
M  V30 8264 C 762.054 4.45824 0.441017 0
M  V30 8265 C 763.798 3.68894 2.10041 0
M  V30 8266 C 761.705 5.81134 1.09717 0
M  V30 8267 H 760.635 0.695474 0.291259 0
M  V30 8268 H 763.286 1.83485 0.0231224 0
M  V30 8269 H 761.668 3.28257 2.21502 0
M  V30 8270 H 762.842 4.59659 -0.32413 0
M  V30 8271 H 761.157 4.16181 -0.134886 0
M  V30 8272 H 763.754 4.67281 2.59908 0
M  V30 8273 H 764.097 2.98692 2.89981 0
M  V30 8274 H 764.63 3.73326 1.37376 0
M  V30 8275 H 761.369 6.54628 0.338095 0
M  V30 8276 H 760.889 5.711 1.83317 0
M  V30 8277 H 762.568 6.26468 1.617 0
M  V30 8278 N 762.7 -0.34323 1.53817 0
M  V30 8279 C 763.949 -1.08086 1.70295 0
M  V30 8280 C 764.262 -1.89794 0.47302 0
M  V30 8281 O 765.468 -2.66498 0.518754 0
M  V30 8282 C 763.924 -1.97097 3.01133 0
M  V30 8283 C 763.532 -1.20594 4.31464 0
M  V30 8284 C 765.276 -2.70715 3.26976 0
M  V30 8285 C 763.183 -2.08636 5.53376 0
M  V30 8286 H 762.113 -0.407228 0.634572 0
M  V30 8287 H 764.764 -0.340328 1.80316 0
M  V30 8288 H 763.146 -2.74971 2.84969 0
M  V30 8289 H 764.32 -0.476282 4.58332 0
M  V30 8290 H 762.635 -0.587426 4.12236 0
M  V30 8291 H 765.232 -3.36857 4.15248 0
M  V30 8292 H 765.575 -3.37299 2.43998 0
M  V30 8293 H 766.108 -1.99914 3.43917 0
M  V30 8294 H 762.847 -1.46594 6.38898 0
M  V30 8295 H 762.367 -2.7939 5.30755 0
M  V30 8296 H 764.046 -2.67682 5.89029 0
M  V30 8297 N 764.178 -1.45556 -0.604258 0
M  V30 8298 C 765.403 -1.53509 -1.39462 0
M  V30 8299 C 765.828 -0.169638 -1.87333 0
M  V30 8300 O 765.186 0.846346 -1.60333 0
M  V30 8301 C 765.234 -2.52654 -2.5729 0
M  V30 8302 O 764.338 -2.04666 -3.5803 0
M  V30 8303 H 763.679 -0.517355 -0.416221 0
M  V30 8304 H 766.209 -1.90939 -0.735072 0
M  V30 8305 H 766.219 -2.71568 -3.04491 0
M  V30 8306 H 764.894 -3.51823 -2.21797 0
M  V30 8307 H 763.471 -1.95643 -3.17456 0
M  V30 8308 N 765.656 0.84705 -1.32902 0
M  V30 8309 C 766.902 1.60414 -1.24078 0
M  V30 8310 C 767.235 1.93217 0.195105 0
M  V30 8311 O 766.51 1.58001 1.13428 0
M  V30 8312 C 766.793 2.91951 -2.108 0
M  V30 8313 C 766.646 2.6588 -3.62805 0
M  V30 8314 C 767.965 3.93299 -1.97494 0
M  V30 8315 H 765.084 0.58206 -0.452079 0
M  V30 8316 H 767.726 0.977562 -1.62922 0
M  V30 8317 H 765.876 3.45425 -1.77802 0
M  V30 8318 H 767.548 2.18902 -4.06054 0
M  V30 8319 H 765.791 1.99716 -3.85092 0
M  V30 8320 H 766.462 3.59574 -4.1882 0
M  V30 8321 H 768.938 3.49105 -2.26417 0
M  V30 8322 H 767.814 4.8318 -2.60438 0
M  V30 8323 H 768.075 4.31887 -0.944782 0
M  V30 8324 N 767.134 1.16236 1.06428 0
M  V30 8325 C 768.064 0.890807 2.1584 0
M  V30 8326 C 769.045 -0.162333 1.69324 0
M  V30 8327 O 770.23 -0.0147191 1.94194 0
M  V30 8328 C 767.36 0.389615 3.45108 0
M  V30 8329 C 766.314 1.38051 4.05125 0
M  V30 8330 C 765.64 0.737773 5.29586 0
M  V30 8331 C 766.94 2.74965 4.44062 0
M  V30 8332 H 768.634 1.80577 2.38814 0
M  V30 8333 H 766.18 0.869657 1.14774 0
M  V30 8334 H 768.133 0.187127 4.20984 0
M  V30 8335 H 766.857 -0.560851 3.21748 0
M  V30 8336 H 765.516 1.56952 3.31303 0
M  V30 8337 H 765.164 -0.219135 5.02522 0
M  V30 8338 H 764.864 1.39914 5.70699 0
M  V30 8339 H 766.388 0.545275 6.0816 0
M  V30 8340 H 767.802 2.59855 5.11027 0
M  V30 8341 H 766.199 3.37563 4.96156 0
M  V30 8342 H 767.269 3.30321 3.54987 0
M  V30 8343 N 768.612 -1.24939 0.960631 0
M  V30 8344 C 769.837 -1.9742 0.635608 0
M  V30 8345 C 770.262 -1.70857 -0.786737 0
M  V30 8346 O 769.62 -0.968063 -1.53291 0
M  V30 8347 C 769.668 -3.48987 0.907771 0
M  V30 8348 O 768.772 -4.12399 -0.0104053 0
M  V30 8349 H 768.113 -0.61871 0.241027 0
M  V30 8350 H 770.643 -1.58901 1.28886 0
M  V30 8351 H 770.653 -3.99334 0.836453 0
M  V30 8352 H 769.328 -3.6765 1.94439 0
M  V30 8353 H 767.905 -3.72727 0.113631 0
M  V30 8354 N 770.09 -0.729906 -1.39679 0
M  V30 8355 C 771.02 -0.101618 -2.33279 0
M  V30 8356 C 772.001 0.729854 -1.53646 0
M  V30 8357 O 773.186 0.67587 -1.82059 0
M  V30 8358 C 770.316 0.81024 -3.37716 0
M  V30 8359 C 769.27 0.0833126 -4.27919 0
M  V30 8360 C 768.596 1.11185 -5.23012 0
M  V30 8361 C 769.896 -1.07107 -5.112 0
M  V30 8362 H 771.59 -0.883452 -2.86069 0
M  V30 8363 H 769.136 -0.426283 -1.37546 0
M  V30 8364 H 771.089 1.25927 -4.02145 0
M  V30 8365 H 769.813 1.62413 -2.83354 0
M  V30 8366 H 768.472 -0.346043 -3.64963 0
M  V30 8367 H 768.12 1.91917 -4.64948 0
M  V30 8368 H 767.82 0.63026 -5.8421 0
M  V30 8369 H 769.344 1.56068 -5.90318 0
M  V30 8370 H 770.758 -0.700726 -5.69002 0
M  V30 8371 H 769.155 -1.48196 -5.81514 0
M  V30 8372 H 770.225 -1.89513 -4.46332 0
M  V30 8373 N 771.568 1.50203 -0.477153 0
M  V30 8374 C 772.518 2.25561 0.332625 0
M  V30 8375 C 773.502 1.29401 0.956249 0
M  V30 8376 O 774.694 1.54267 0.867795 0
M  V30 8377 C 771.823 3.12984 1.41052 0
M  V30 8378 C 770.909 4.16595 0.79433 0
M  V30 8379 N 771.3 5.05722 -0.0889633 0
M  V30 8380 C 769.598 4.33279 1.0576 0
M  V30 8381 C 770.299 5.80039 -0.439286 0
M  V30 8382 N 769.275 5.43278 0.187018 0
M  V30 8383 H 773.077 2.91836 -0.347718 0
M  V30 8384 H 770.591 1.59759 -0.291686 0
M  V30 8385 H 772.588 3.65582 2.00388 0
M  V30 8386 H 771.248 2.48258 2.09279 0
M  V30 8387 H 772.259 5.15869 -0.458205 0
M  V30 8388 H 768.936 3.79769 1.7344 0
M  V30 8389 H 770.326 6.61802 -1.1605 0
M  V30 8390 N 773.046 0.209999 1.56195 0
M  V30 8391 C 774.457 -0.299943 1.84275 0
M  V30 8392 C 774.808 -1.60314 1.1311 0
M  V30 8393 O 773.933 -2.1273 0.396874 0
M  V30 8394 C 774.528 -0.550986 3.3429 0
M  V30 8395 C 773.087 -1.00526 3.62728 0
M  V30 8396 C 772.234 -0.0619828 2.77231 0
M  V30 8397 H 775.185 0.433458 1.52666 0
M  V30 8398 H 775.206 -1.39846 3.53869 0
M  V30 8399 H 774.718 0.397669 3.86057 0
M  V30 8400 H 772.819 -1.96768 3.16407 0
M  V30 8401 H 772.932 -0.887664 4.70805 0
M  V30 8402 H 771.296 -0.566648 2.48317 0
M  V30 8403 H 772.079 0.881383 3.31793 0
M  V30 8404 N 774.524 -1.57472 -0.0634922 0
M  V30 8405 C 775.754 -1.91608 -0.772645 0
M  V30 8406 C 776.162 -0.805019 -1.71219 0
M  V30 8407 O 775.505 0.229941 -1.82255 0
M  V30 8408 C 775.567 -3.21281 -1.61304 0
M  V30 8409 C 775.231 -4.49177 -0.841973 0
M  V30 8410 C 776.228 -5.19661 -0.157494 0
M  V30 8411 C 773.913 -4.9578 -0.80669 0
M  V30 8412 C 775.907 -6.35006 0.551948 0
M  V30 8413 C 773.594 -6.11028 -0.0934812 0
M  V30 8414 C 774.592 -6.80493 0.58463 0
M  V30 8415 O 774.28 -7.93542 1.28633 0
M  V30 8416 H 774.012 -0.637685 -0.224352 0
M  V30 8417 H 776.566 -2.05369 -0.0355279 0
M  V30 8418 H 774.796 -3.03752 -2.39315 0
M  V30 8419 H 776.485 -3.41003 -2.20162 0
M  V30 8420 H 777.251 -4.84681 -0.176006 0
M  V30 8421 H 773.13 -4.41579 -1.32397 0
M  V30 8422 H 776.674 -6.89161 1.0818 0
M  V30 8423 H 772.571 -6.45459 -0.0729258 0
M  V30 8424 H 773.339 -8.09708 1.19646 0
M  V30 8425 N 776.003 0.335068 -1.53997 0
M  V30 8426 C 776.933 1.41727 -1.85568 0
M  V30 8427 C 777.914 1.54505 -0.7115 0
M  V30 8428 O 779.099 1.68573 -0.964191 0
M  V30 8429 C 776.229 2.7866 -2.07282 0
M  V30 8430 C 775.183 2.80682 -3.23112 0
M  V30 8431 C 774.509 4.20581 -3.30175 0
M  V30 8432 C 775.809 2.45458 -4.61029 0
M  V30 8433 H 777.503 1.15555 -2.76202 0
M  V30 8434 H 775.049 0.554445 -1.32898 0
M  V30 8435 H 777.002 3.54423 -2.27952 0
M  V30 8436 H 775.726 3.06286 -1.13387 0
M  V30 8437 H 774.385 2.07373 -3.02311 0
M  V30 8438 H 774.033 4.4533 -2.33859 0
M  V30 8439 H 773.733 4.22843 -4.08016 0
M  V30 8440 H 775.257 4.98174 -3.53066 0
M  V30 8441 H 776.671 3.10934 -4.81656 0
M  V30 8442 H 775.068 2.5899 -5.41336 0
M  V30 8443 H 776.138 1.40628 -4.6406 0
M  V30 8444 N 777.481 1.45874 0.596531 0
M  V30 8445 C 778.758 1.40942 1.35627 0
M  V30 8446 C 779.138 0.0857066 2.10926 0
M  V30 8447 O 778.486 -0.932544 2.08605 0
M  V30 8448 C 778.696 2.63027 2.29386 0
M  V30 8449 C 780.044 3.08588 2.91649 0
M  V30 8450 O 781.068 2.63478 2.39704 0
M  V30 8451 O 779.927 3.86902 3.85965 0
M  V30 8452 H 777.021 0.559838 0.608696 0
M  V30 8453 H 779.567 1.5802 0.618698 0
M  V30 8454 H 778.339 3.5094 1.7308 0
M  V30 8455 H 777.962 2.48338 3.10506 0
M  V30 8456 N 778.959 -0.83999 1.33349 0
M  V30 8457 C 779.869 -1.98182 1.25543 0
M  V30 8458 C 780.885 -1.73204 0.166208 0
M  V30 8459 O 782.061 -1.97596 0.389589 0
M  V30 8460 C 779.126 -3.32157 0.993614 0
M  V30 8461 C 778.187 -3.70258 2.17273 0
M  V30 8462 C 777.42 -4.9784 1.92331 0
M  V30 8463 O 777.643 -5.63679 0.873074 0
M  V30 8464 O 776.577 -5.33418 2.78835 0
M  V30 8465 H 780.403 -2.07708 2.21565 0
M  V30 8466 H 777.988 -0.972852 1.13384 0
M  V30 8467 H 779.87 -4.12433 0.864711 0
M  V30 8468 H 778.545 -3.23637 0.0636596 0
M  V30 8469 H 777.452 -2.90497 2.35716 0
M  V30 8470 H 778.785 -3.83442 3.08598 0
M  V30 8471 N 780.437 -1.16799 -1.0581 0
M  V30 8472 C 781.367 -0.902241 -2.15364 0
M  V30 8473 C 782.348 0.153351 -1.69407 0
M  V30 8474 O 783.533 0.00442032 -1.94199 0
M  V30 8475 C 780.663 -0.407911 -3.44896 0
M  V30 8476 C 779.617 -1.40197 -4.04387 0
M  V30 8477 C 778.943 -0.765848 -5.29187 0
M  V30 8478 C 780.243 -2.77316 -4.42598 0
M  V30 8479 H 781.937 -1.81841 -2.37853 0
M  V30 8480 H 779.483 -0.875731 -1.14311 0
M  V30 8481 H 781.436 -0.20945 -4.20879 0
M  V30 8482 H 780.16 0.54378 -3.22041 0
M  V30 8483 H 778.819 -1.58707 -3.30466 0
M  V30 8484 H 778.467 0.192482 -5.02632 0
M  V30 8485 H 778.167 -1.42939 -5.69949 0
M  V30 8486 H 779.691 -0.577519 -6.07863 0
M  V30 8487 H 781.105 -2.62561 -5.09642 0
M  V30 8488 H 779.502 -3.4019 -4.94359 0
M  V30 8489 H 780.572 -3.32199 -3.53231 0
M  V30 8490 N 781.915 1.24427 -0.967243 0
M  V30 8491 C 783.331 1.44684 -0.6737 0
M  V30 8492 C 783.531 1.86429 0.764625 0
M  V30 8493 O 782.587 2.00211 1.53857 0
M  V30 8494 C 783.9 2.509 -1.6574 0
M  V30 8495 C 785.448 2.64728 -1.66998 0
M  V30 8496 C 785.923 3.7414 -2.64165 0
M  V30 8497 N 787.414 3.81567 -2.62604 0
M  V30 8498 C 788.149 4.6575 -3.34462 0
M  V30 8499 N 787.645 5.54124 -4.15835 0
M  V30 8500 N 789.438 4.59827 -3.23288 0
M  V30 8501 H 781.589 0.956276 -1.89655 0
M  V30 8502 H 783.852 0.48171 -0.816492 0
M  V30 8503 H 783.558 2.27113 -2.68538 0
M  V30 8504 H 783.432 3.4905 -1.42981 0
M  V30 8505 H 785.819 2.87872 -0.649121 0
M  V30 8506 H 785.9 1.66936 -1.93819 0
M  V30 8507 H 785.544 3.51745 -3.66384 0
M  V30 8508 H 785.474 4.71444 -2.34623 0
M  V30 8509 H 787.965 3.18403 -2.03539 0
M  V30 8510 H 788.278 6.15316 -4.67553 0
M  V30 8511 H 786.623 5.53791 -4.19929 0
M  V30 8512 H 789.814 3.898 -2.59179 0
M  V30 8513 H 789.987 5.25208 -3.79553 0
M  V30 8514 N 783.393 0.737304 1.3929 0
M  V30 8515 C 784.642 0.283129 1.99703 0
M  V30 8516 C 784.955 -1.13677 1.59176 0
M  V30 8517 O 786.161 -1.69058 2.12442 0
M  V30 8518 C 784.617 0.455262 3.57009 0
M  V30 8519 C 784.225 1.88319 4.06497 0
M  V30 8520 C 785.969 0.0629786 4.24453 0
M  V30 8521 C 783.876 2.00475 5.56385 0
M  V30 8522 H 782.806 0.102106 0.747054 0
M  V30 8523 H 785.457 0.911515 1.5926 0
M  V30 8524 H 783.839 -0.242057 3.9526 0
M  V30 8525 H 785.013 2.61265 3.79575 0
M  V30 8526 H 783.328 2.2289 3.51723 0
M  V30 8527 H 785.925 0.132787 5.34535 0
M  V30 8528 H 786.268 -0.982128 4.04549 0
M  V30 8529 H 786.801 0.71154 3.91385 0
M  V30 8530 H 783.54 3.03182 5.81172 0
M  V30 8531 H 783.06 1.31969 5.85102 0
M  V30 8532 H 784.739 1.787 6.21832 0
M  V30 8533 N 784.871 -1.49948 0.485112 0
M  V30 8534 C 785.834 -2.27351 -0.290546 0
M  V30 8535 C 786.834 -1.32704 -0.908087 0
M  V30 8536 O 788.024 -1.56007 -0.775085 0
M  V30 8537 C 785.156 -3.10135 -1.41524 0
M  V30 8538 H 786.349 -2.97374 0.388454 0
M  V30 8539 H 783.902 -1.54453 0.239586 0
M  V30 8540 H 784.637 -2.44641 -2.12888 0
M  V30 8541 H 784.422 -3.79705 -0.978074 0
M  V30 8542 H 785.912 -3.68638 -1.96204 0
M  V30 8543 N 786.349 -0.21828 -1.56081 0
M  V30 8544 C 787.595 0.414921 -1.9851 0
M  V30 8545 C 787.928 1.59648 -1.10573 0
M  V30 8546 O 787.203 1.93818 -0.162695 0
M  V30 8547 C 787.486 0.852647 -3.4986 0
M  V30 8548 C 787.339 -0.33232 -4.48571 0
M  V30 8549 C 788.658 1.70998 -4.05521 0
M  V30 8550 H 785.777 0.149344 -0.72171 0
M  V30 8551 H 788.419 -0.313858 -1.8739 0
M  V30 8552 H 786.569 1.47362 -3.59467 0
M  V30 8553 H 788.241 -0.970418 -4.50977 0
M  V30 8554 H 786.484 -0.980302 -4.22578 0
M  V30 8555 H 787.155 0.0168407 -5.51997 0
M  V30 8556 H 789.631 1.18606 -3.98838 0
M  V30 8557 H 788.507 1.98517 -5.11744 0
M  V30 8558 H 788.768 2.67219 -3.52202 0
M  V30 8559 N 787.827 1.57504 0.0551401 0
M  V30 8560 C 788.737 2.08198 1.08124 0
M  V30 8561 C 789.753 1.01496 1.41331 0
M  V30 8562 O 790.929 1.33073 1.51174 0
M  V30 8563 C 787.994 2.52968 2.37083 0
M  V30 8564 C 787.055 3.7404 2.10696 0
M  V30 8565 C 786.288 4.16665 3.33505 0
M  V30 8566 O 786.511 3.59019 4.4324 0
M  V30 8567 O 785.445 5.09324 3.20737 0
M  V30 8568 H 789.271 2.95977 0.680518 0
M  V30 8569 H 786.856 1.46933 0.270401 0
M  V30 8570 H 788.738 2.82211 3.12946 0
M  V30 8571 H 787.413 1.6831 2.76502 0
M  V30 8572 H 786.32 3.49855 1.32484 0
M  V30 8573 H 787.653 4.59601 1.76148 0
M  V30 8574 N 789.305 -0.326896 1.54172 0
M  V30 8575 C 790.553 -1.06313 1.71878 0
M  V30 8576 C 790.874 -1.88652 0.493498 0
M  V30 8577 O 790.144 -1.89608 -0.492522 0
M  V30 8578 H 788.724 -0.39549 0.633716 0
M  V30 8579 H 791.386 -0.364139 1.91468 0
M  V30 8580 H 790.482 -1.73105 2.59694 0
M  V30 8581 N 790.784 -1.46188 -0.588786 0
M  V30 8582 C 791.732 -1.56653 -1.71938 0
M  V30 8583 C 792.726 -0.435354 -1.6371 0
M  V30 8584 O 793.932 -0.611996 -1.69277 0
M  V30 8585 H 790.307 -0.492408 -0.568365 0
M  V30 8586 H 792.278 -2.51724 -1.60242 0
M  V30 8587 C 791.027 -1.56822 -3.10326 0
M  V30 8588 H 790.35 -2.43198 -3.17325 0
M  V30 8589 H 791.79 -1.68199 -3.89211 0
M  V30 8590 C 790.249 -0.295802 -3.35599 0
M  V30 8591 O 790.779 0.616515 -3.96941 0
M  V30 8592 N 788.985 -0.185609 -2.90007 0
M  V30 8593 H 788.532 -0.928914 -2.40269 0
M  V30 8594 H 788.49 0.664883 -3.07289 0
M  V30 8595 N 792.262 0.832906 -1.33792 0
M  V30 8596 C 793.49 1.62048 -1.28639 0
M  V30 8597 C 793.905 1.88269 0.141522 0
M  V30 8598 O 793.262 1.46706 1.08553 0
M  V30 8599 C 793.313 2.96722 -2.0649 0
M  V30 8600 O 793.034 2.7165 -3.43712 0
M  V30 8601 C 794.535 3.91144 -2.08617 0
M  V30 8602 H 791.755 0.504032 -0.442937 0
M  V30 8603 H 794.299 1.03704 -1.76255 0
M  V30 8604 H 792.454 3.51652 -1.62541 0
M  V30 8605 H 792.868 3.57453 -3.83833 0
M  V30 8606 H 794.342 4.82837 -2.67531 0
M  V30 8607 H 794.819 4.25766 -1.07796 0
M  V30 8608 H 795.425 3.42152 -2.52611 0
M  V30 8609 N 793.74 1.17359 1.05189 0
M  V30 8610 C 794.688 0.886527 2.15043 0
M  V30 8611 C 795.682 -0.148834 1.68745 0
M  V30 8612 O 796.888 -0.00175123 1.8 0
M  V30 8613 H 793.263 0.269147 0.702185 0
M  V30 8614 H 795.234 1.82016 2.36459 0
M  V30 8615 C 793.983 0.416333 3.45198 0
M  V30 8616 H 793.306 1.20449 3.81225 0
M  V30 8617 H 794.746 0.254362 4.23236 0
M  V30 8618 C 793.205 -0.866016 3.25579 0
M  V30 8619 O 793.735 -1.9328 3.52144 0
M  V30 8620 N 791.941 -0.814179 2.78961 0
M  V30 8621 H 791.488 0.0541618 2.57543 0
M  V30 8622 H 791.446 -1.67264 2.66214 0
M  V30 8623 N 795.218 -1.23913 0.973828 0
M  V30 8624 C 796.15 -2.24397 0.466763 0
M  V30 8625 C 797.163 -1.57078 -0.427828 0
M  V30 8626 O 798.352 -1.76973 -0.233019 0
M  V30 8627 C 795.452 -3.37141 -0.344798 0
M  V30 8628 C 794.625 -4.34037 0.541349 0
M  V30 8629 C 793.684 -5.2576 -0.215243 0
M  V30 8630 O 792.71 -5.67842 0.39291 0
M  V30 8631 N 793.912 -5.60702 -1.5031 0
M  V30 8632 H 796.677 -2.68536 1.33074 0
M  V30 8633 H 794.238 -1.38017 0.846346 0
M  V30 8634 H 796.23 -3.95476 -0.859133 0
M  V30 8635 H 794.8 -2.92239 -1.10974 0
M  V30 8636 H 794.02 -3.74302 1.23659 0
M  V30 8637 H 795.308 -4.95738 1.1455 0
M  V30 8638 H 794.706 -5.28451 -2.01882 0
M  V30 8639 H 793.263 -6.21538 -1.96301 0
M  V30 8640 N 796.696 -0.74468 -1.38897 0
M  V30 8641 C 797.659 -0.11945 -2.28889 0
M  V30 8642 C 798.659 0.656942 -1.46768 0
M  V30 8643 O 799.849 0.484525 -1.67326 0
M  V30 8644 C 796.981 0.839635 -3.30398 0
M  V30 8645 H 798.174 -0.912414 -2.85683 0
M  V30 8646 H 795.727 -0.511119 -1.47707 0
M  V30 8647 H 796.462 1.6586 -2.78677 0
M  V30 8648 H 796.247 0.285432 -3.9106 0
M  V30 8649 H 797.737 1.27337 -3.97712 0
M  V30 8650 N 798.174 1.49689 -0.493057 0
M  V30 8651 C 799.137 2.27502 0.278485 0
M  V30 8652 C 800.137 1.33184 0.901037 0
M  V30 8653 O 801.327 1.56415 0.766801 0
M  V30 8654 C 798.459 3.10881 1.39878 0
M  V30 8655 H 799.652 2.97163 -0.404219 0
M  V30 8656 H 797.205 1.54324 -0.247774 0
M  V30 8657 H 797.94 2.45767 2.11587 0
M  V30 8658 H 797.725 3.80219 0.957924 0
M  V30 8659 H 799.215 3.69673 1.94247 0
M  V30 8660 N 799.652 0.226554 1.55963 0
M  V30 8661 C 800.615 -0.668015 2.19249 0
M  V30 8662 C 801.615 -1.11794 1.1558 0
M  V30 8663 O 802.805 -1.02593 1.40784 0
M  V30 8664 C 799.937 -1.91571 2.81981 0
M  V30 8665 H 801.13 -0.116175 2.99675 0
M  V30 8666 H 798.683 -0.0230497 1.56283 0
M  V30 8667 H 799.418 -2.50929 2.05439 0
M  V30 8668 H 799.203 -1.6015 3.57903 0
M  V30 8669 H 800.693 -2.55294 3.30477 0
M  V30 8670 N 801.13 -1.57531 -0.0467866 0
M  V30 8671 C 802.376 -1.8873 -0.742218 0
M  V30 8672 C 802.709 -0.822084 -1.75941 0
M  V30 8673 O 801.984 0.164922 -1.938 0
M  V30 8674 C 802.267 -3.30586 -1.42776 0
M  V30 8675 C 802.12 -4.47785 -0.425285 0
M  V30 8676 C 803.439 -3.71068 -2.36636 0
M  V30 8677 H 800.558 -0.686406 -0.268359 0
M  V30 8678 H 803.2 -1.89999 -0.00511341 0
M  V30 8679 H 801.35 -3.29634 -2.05605 0
M  V30 8680 H 803.022 -4.60867 0.199721 0
M  V30 8681 H 801.265 -4.33037 0.25713 0
M  V30 8682 H 801.936 -5.43884 -0.943086 0
M  V30 8683 H 804.412 -3.73273 -1.83866 0
M  V30 8684 H 803.288 -4.71165 -2.81593 0
M  V30 8685 H 803.549 -3.02355 -3.22542 0
M  V30 8686 N 802.608 0.318715 -1.54344 0
M  V30 8687 C 804.024 0.663345 -1.45162 0
M  V30 8688 C 804.224 1.9145 -0.62842 0
M  V30 8689 O 803.28 2.5217 -0.129126 0
M  V30 8690 C 804.593 0.832836 -2.88937 0
M  V30 8691 C 806.141 0.929866 -2.98869 0
M  V30 8692 C 806.616 1.13149 -4.43803 0
M  V30 8693 N 808.107 1.19811 -4.47437 0
M  V30 8694 C 808.842 1.37209 -5.56742 0
M  V30 8695 N 808.338 1.51619 -6.76006 0
M  V30 8696 N 810.131 1.39956 -5.44398 0
M  V30 8697 H 802.282 -0.50357 -2.06344 0
M  V30 8698 H 804.545 -0.163528 -0.933789 0
M  V30 8699 H 804.251 -0.0153519 -3.51697 0
M  V30 8700 H 804.125 1.72721 -3.35332 0
M  V30 8701 H 806.512 1.76855 -2.36233 0
M  V30 8702 H 806.593 0.0118561 -2.55797 0
M  V30 8703 H 806.237 0.297636 -5.07027 0
M  V30 8704 H 806.167 2.06345 -4.84489 0
M  V30 8705 H 808.658 1.101 -3.61506 0
M  V30 8706 H 808.971 1.64599 -7.55067 0
M  V30 8707 H 807.316 1.48708 -6.78904 0
M  V30 8708 H 810.507 1.28298 -4.50175 0
M  V30 8709 H 810.68 1.53172 -6.29637 0
M  V30 8710 N 804.086 1.46499 0.581025 0
M  V30 8711 C 805.335 1.51162 1.3354 0
M  V30 8712 C 805.648 0.168433 1.94873 0
M  V30 8713 O 806.854 0.092883 2.71341 0
M  V30 8714 C 805.31 2.66362 2.42032 0
M  V30 8715 C 804.918 4.07109 1.86994 0
M  V30 8716 C 806.662 2.80297 3.188 0
M  V30 8717 C 804.569 5.13645 2.93125 0
M  V30 8718 H 803.499 0.562576 0.502021 0
M  V30 8719 H 806.15 1.72713 0.619863 0
M  V30 8720 H 804.532 2.38143 3.16392 0
M  V30 8721 H 805.706 4.45125 1.19166 0
M  V30 8722 H 804.021 3.97854 1.22887 0
M  V30 8723 H 806.618 3.5706 3.9801 0
M  V30 8724 H 806.961 1.87875 3.71495 0
M  V30 8725 H 807.494 3.0817 2.51547 0
M  V30 8726 H 804.233 6.07866 2.45315 0
M  V30 8727 H 803.753 4.80172 3.59437 0
M  V30 8728 H 805.432 5.39562 3.57046 0
M  V30 8729 N 805.565 -0.825799 1.34232 0
M  V30 8730 C 806.528 -1.91808 1.25468 0
M  V30 8731 C 807.528 -1.59893 0.170567 0
M  V30 8732 O 808.718 -1.68986 0.422996 0
M  V30 8733 C 805.85 -3.27786 0.93644 0
M  V30 8734 H 807.043 -2.01003 2.22571 0
M  V30 8735 H 804.596 -1.01944 1.18479 0
M  V30 8736 H 805.331 -3.24285 -0.0315408 0
M  V30 8737 H 805.116 -3.52333 1.72057 0
M  V30 8738 H 806.606 -4.07782 0.900214 0
M  V30 8739 N 807.043 -1.17915 -1.04565 0
M  V30 8740 C 808.283 -0.982331 -1.79247 0
M  V30 8741 C 808.647 0.47998 -1.85904 0
M  V30 8742 O 809.848 0.796078 -2.56741 0
M  V30 8743 C 808.119 -1.61329 -3.18916 0
M  V30 8744 S 809.678 -1.56355 -4.09998 0
M  V30 8745 H 806.496 -0.352869 -0.617256 0
M  V30 8746 H 809.098 -1.49971 -1.25415 0
M  V30 8747 H 807.802 -2.66993 -3.11678 0
M  V30 8748 H 807.333 -1.09599 -3.77825 0
M  V30 8749 H 809.348 -0.57593 -4.92846 0
M  V30 8750 N 808.521 1.23394 -0.980386 0
M  V30 8751 C 809.451 2.2717 -0.540024 0
M  V30 8752 C 810.432 1.64659 0.426787 0
M  V30 8753 O 811.617 1.91543 0.320153 0
M  V30 8754 C 808.747 3.46939 0.15836 0
M  V30 8755 C 807.701 4.21802 -0.725732 0
M  V30 8756 C 807.027 5.34597 0.104866 0
M  V30 8757 C 808.327 4.81802 -2.01654 0
M  V30 8758 H 810.021 2.64257 -1.40743 0
M  V30 8759 H 807.567 1.2703 -0.678193 0
M  V30 8760 H 809.52 4.18683 0.477737 0
M  V30 8761 H 808.244 3.08912 1.06022 0
M  V30 8762 H 806.903 3.51875 -1.02857 0
M  V30 8763 H 806.551 4.92812 1.00726 0
M  V30 8764 H 806.251 5.85607 -0.483557 0
M  V30 8765 H 807.775 6.09163 0.418624 0
M  V30 8766 H 809.189 5.45554 -1.76193 0
M  V30 8767 H 807.586 5.43098 -2.55273 0
M  V30 8768 H 808.656 4.02549 -2.70338 0
M  V30 8769 N 809.999 0.752036 1.385 0
M  V30 8770 C 811.248 0.304294 1.99391 0
M  V30 8771 C 811.561 -1.11982 1.60373 0
M  V30 8772 O 812.767 -1.66795 2.14223 0
M  V30 8773 C 811.223 0.493101 3.56506 0
M  V30 8774 C 810.831 1.9262 4.04477 0
M  V30 8775 C 812.575 0.107994 4.24363 0
M  V30 8776 C 810.482 2.06365 5.54227 0
M  V30 8777 H 809.412 0.110024 0.745929 0
M  V30 8778 H 812.063 0.928355 1.58284 0
M  V30 8779 H 810.445 -0.20012 3.95494 0
M  V30 8780 H 811.619 2.65276 3.76783 0
M  V30 8781 H 809.934 2.26608 3.49339 0
M  V30 8782 H 812.531 0.189474 5.34364 0
M  V30 8783 H 812.874 -0.939165 4.05568 0
M  V30 8784 H 813.407 0.753011 3.90608 0
M  V30 8785 H 810.146 3.0933 5.77923 0
M  V30 8786 H 809.666 1.38167 5.83669 0
M  V30 8787 H 811.345 1.85286 6.19902 0
M  V30 8788 N 811.477 -1.49425 0.500989 0
M  V30 8789 C 812.893 -1.58826 0.156951 0
M  V30 8790 C 813.093 -1.50622 -1.33848 0
M  V30 8791 O 812.149 -1.38016 -2.11442 0
M  V30 8792 C 813.462 -2.91611 0.73374 0
M  V30 8793 C 815.01 -3.05076 0.699846 0
M  V30 8794 C 815.485 -4.40479 1.2547 0
M  V30 8795 N 816.976 -4.4697 1.2154 0
M  V30 8796 C 817.711 -5.50189 1.6149 0
M  V30 8797 N 817.207 -6.60512 2.09034 0
M  V30 8798 N 819 -5.40903 1.52907 0
M  V30 8799 H 811.151 -1.53001 1.47324 0
M  V30 8800 H 813.414 -0.724765 0.61108 0
M  V30 8801 H 813.12 -3.03182 1.78251 0
M  V30 8802 H 812.994 -3.767 0.19417 0
M  V30 8803 H 815.381 -2.93134 -0.340085 0
M  V30 8804 H 815.462 -2.2167 1.27656 0
M  V30 8805 H 815.106 -4.53172 2.29341 0
M  V30 8806 H 815.036 -5.22524 0.653921 0
M  V30 8807 H 817.527 -3.67819 0.867043 0
M  V30 8808 H 817.84 -7.35372 2.37588 0
M  V30 8809 H 816.185 -6.61553 2.13008 0
M  V30 8810 H 819.376 -4.53606 1.15583 0
M  V30 8811 H 819.549 -6.21219 1.84365 0
M  V30 8812 N 812.955 -0.234822 -1.55841 0
M  V30 8813 C 813.887 0.702346 -2.18174 0
M  V30 8814 C 814.9 1.14776 -1.15457 0
M  V30 8815 O 816.089 1.07662 -1.42377 0
M  V30 8816 C 813.189 1.96483 -2.76129 0
M  V30 8817 C 812.362 1.67283 -4.04148 0
M  V30 8818 C 811.421 2.7837 -4.46539 0
M  V30 8819 O 810.447 2.46272 -5.13166 0
M  V30 8820 N 811.649 4.07611 -4.1332 0
M  V30 8821 H 814.414 0.169074 -2.99223 0
M  V30 8822 H 811.975 -0.0543164 -1.61809 0
M  V30 8823 H 813.967 2.70016 -3.01452 0
M  V30 8824 H 812.537 2.40822 -1.99307 0
M  V30 8825 H 811.757 0.773278 -3.86541 0
M  V30 8826 H 813.045 1.45222 -4.87635 0
M  V30 8827 H 812.443 4.36527 -3.59806 0
M  V30 8828 H 811 4.77646 -4.43506 0
M  V30 8829 N 814.433 1.57553 0.0384317 0
M  V30 8830 C 815.658 1.93485 0.746872 0
M  V30 8831 C 816.083 0.834069 1.68597 0
M  V30 8832 O 815.441 -0.210902 1.80069 0
M  V30 8833 C 815.489 3.28463 1.4881 0
M  V30 8834 O 814.593 3.20051 2.60079 0
M  V30 8835 H 813.934 0.632675 0.201539 0
M  V30 8836 H 816.464 2.046 -0.00329815 0
M  V30 8837 H 816.474 3.63132 1.86009 0
M  V30 8838 H 815.149 4.08147 0.799297 0
M  V30 8839 H 813.726 2.96998 2.25492 0
M  V30 8840 N 815.911 -0.310526 1.54511 0
M  V30 8841 C 817.157 -1.04846 1.73595 0
M  V30 8842 C 817.49 -1.87244 0.515118 0
M  V30 8843 O 816.765 -1.88282 -0.48786 0
M  V30 8844 C 817.048 -1.96237 3.01932 0
M  V30 8845 C 816.901 -1.17082 4.34295 0
M  V30 8846 C 818.22 -2.9556 3.26086 0
M  V30 8847 H 815.339 -0.37976 0.631626 0
M  V30 8848 H 817.981 -0.32394 1.87218 0
M  V30 8849 H 816.131 -2.58015 2.90449 0
M  V30 8850 H 817.803 -0.576643 4.57682 0
M  V30 8851 H 816.046 -0.473336 4.3121 0
M  V30 8852 H 816.717 -1.84257 5.20339 0
M  V30 8853 H 819.193 -2.43908 3.37117 0
M  V30 8854 H 818.069 -3.5668 4.17218 0
M  V30 8855 H 818.33 -3.68715 2.4393 0
M  V30 8856 N 817.389 -1.46805 -0.573248 0
M  V30 8857 C 818.321 -1.54127 -1.6964 0
M  V30 8858 C 819.334 -0.428778 -1.57052 0
M  V30 8859 O 820.523 -0.697612 -1.64303 0
M  V30 8860 C 817.623 -1.41438 -3.07975 0
M  V30 8861 C 816.796 -2.66974 -3.46474 0
M  V30 8862 C 815.855 -2.48349 -4.63906 0
M  V30 8863 O 814.881 -3.22109 -4.69292 0
M  V30 8864 N 816.083 -1.55129 -5.59388 0
M  V30 8865 H 818.848 -2.50971 -1.6381 0
M  V30 8866 H 816.409 -1.42981 -0.759479 0
M  V30 8867 H 818.401 -1.26737 -3.84343 0
M  V30 8868 H 816.971 -0.527388 -3.08119 0
M  V30 8869 H 816.191 -2.9655 -2.59715 0
M  V30 8870 H 817.479 -3.50347 -3.68964 0
M  V30 8871 H 816.877 -0.94324 -5.57781 0
M  V30 8872 H 815.434 -1.46387 -6.35149 0
M  V30 8873 N 818.867 0.818669 -1.34668 0
M  V30 8874 C 820.092 1.61193 -1.30505 0
M  V30 8875 C 820.517 1.87734 0.117341 0
M  V30 8876 O 819.875 1.45591 1.08042 0
M  V30 8877 C 819.923 2.92733 -2.1057 0
M  V30 8878 O 819.027 3.85 -1.47813 0
M  V30 8879 H 818.368 0.490085 -0.44801 0
M  V30 8880 H 820.898 1.01701 -1.77534 0
M  V30 8881 H 820.908 3.42262 -2.22082 0
M  V30 8882 H 819.583 2.7274 -3.13984 0
M  V30 8883 H 818.16 3.43525 -1.45069 0
M  V30 8884 N 820.346 1.18468 1.03938 0
M  V30 8885 C 821.571 1.00638 1.81347 0
M  V30 8886 C 821.996 -0.440477 1.8287 0
M  V30 8887 O 821.354 -1.31609 1.24695 0
M  V30 8888 C 821.402 1.5673 3.24759 0
M  V30 8889 O 820.506 0.789517 4.04772 0
M  V30 8890 H 819.847 0.356432 0.560225 0
M  V30 8891 H 822.377 1.57253 1.30891 0
M  V30 8892 H 822.387 1.59496 3.75533 0
M  V30 8893 H 821.062 2.62043 3.22965 0
M  V30 8894 H 819.639 0.834267 3.63448 0
M  V30 8895 N 821.824 -1.22873 0.986916 0
M  V30 8896 C 823.052 -1.95487 0.677663 0
M  V30 8897 C 823.467 -1.72978 -0.756572 0
M  V30 8898 O 822.824 -1.02517 -1.50985 0
M  V30 8899 C 822.875 -3.48337 0.966638 0
M  V30 8900 O 822.596 -3.70087 2.34451 0
M  V30 8901 C 824.097 -4.38142 0.674248 0
M  V30 8902 H 821.317 -0.622211 0.251185 0
M  V30 8903 H 823.861 -1.56187 1.32007 0
M  V30 8904 H 822.016 -3.85628 0.370137 0
M  V30 8905 H 822.43 -4.64332 2.43918 0
M  V30 8906 H 823.904 -5.44165 0.926759 0
M  V30 8907 H 824.381 -4.3745 -0.391728 0
M  V30 8908 H 824.987 -4.06469 1.25152 0
M  V30 8909 N 823.302 -0.75937 -1.38099 0
M  V30 8910 C 824.232 -0.151077 -2.33011 0
M  V30 8911 C 825.213 0.697099 -1.5516 0
M  V30 8912 O 826.398 0.637101 -1.83452 0
M  V30 8913 C 823.528 0.738423 -3.39359 0
M  V30 8914 C 822.482 -0.0074741 -4.27999 0
M  V30 8915 C 821.808 1.00066 -5.25253 0
M  V30 8916 C 823.108 -1.17926 -5.08813 0
M  V30 8917 H 824.802 -0.943933 -2.84131 0
M  V30 8918 H 822.348 -0.455362 -1.36611 0
M  V30 8919 H 824.301 1.17369 -4.04725 0
M  V30 8920 H 823.025 1.56366 -2.86735 0
M  V30 8921 H 821.684 -0.423379 -3.64147 0
M  V30 8922 H 821.332 1.82012 -4.68914 0
M  V30 8923 H 821.032 0.506199 -5.85416 0
M  V30 8924 H 822.556 1.43512 -5.93495 0
M  V30 8925 H 823.97 -0.821262 -5.67387 0
M  V30 8926 H 822.367 -1.60497 -5.78239 0
M  V30 8927 H 823.437 -1.98938 -4.42212 0
M  V30 8928 N 824.78 1.49157 -0.508906 0
M  V30 8929 C 826.029 2.0167 0.0346854 0
M  V30 8930 C 826.342 1.39302 1.37311 0
M  V30 8931 O 827.548 1.83189 2.00385 0
M  V30 8932 C 826.004 3.59725 0.112261 0
M  V30 8933 C 825.612 4.31069 -1.21999 0
M  V30 8934 C 827.356 4.20155 0.605798 0
M  V30 8935 C 825.263 5.81001 -1.10415 0
M  V30 8936 H 824.193 0.753814 0.0167355 0
M  V30 8937 H 826.844 1.7162 -0.649518 0
M  V30 8938 H 825.226 3.86525 0.861087 0
M  V30 8939 H 826.4 4.15962 -1.98273 0
M  V30 8940 H 824.715 3.82418 -1.64759 0
M  V30 8941 H 827.312 5.29964 0.710102 0
M  V30 8942 H 827.655 3.84051 1.60656 0
M  V30 8943 H 828.188 3.97705 -0.0867239 0
M  V30 8944 H 824.927 6.21643 -2.07941 0
M  V30 8945 H 824.447 5.9858 -0.382428 0
M  V30 8946 H 826.126 6.42207 -0.786116 0
M  V30 8947 N 826.258 0.243083 1.55714 0
M  V30 8948 C 827.674 -0.111853 1.59208 0
M  V30 8949 C 827.874 -1.5723 1.2602 0
M  V30 8950 O 826.93 -2.31608 1.00569 0
M  V30 8951 C 828.243 0.233885 2.99789 0
M  V30 8952 C 829.791 0.177873 3.12494 0
M  V30 8953 C 830.266 0.49759 4.55289 0
M  V30 8954 N 831.757 0.447949 4.61029 0
M  V30 8955 C 832.492 0.668545 5.69489 0
M  V30 8956 N 831.988 0.952064 6.86227 0
M  V30 8957 N 833.781 0.599512 5.58894 0
M  V30 8958 H 825.932 1.19554 1.75558 0
M  V30 8959 H 828.195 0.480765 0.817049 0
M  V30 8960 H 827.901 1.24835 3.28799 0
M  V30 8961 H 827.775 -0.440846 3.74615 0
M  V30 8962 H 830.162 -0.827263 2.83267 0
M  V30 8963 H 830.243 0.886399 2.39951 0
M  V30 8964 H 829.887 1.50026 4.85237 0
M  V30 8965 H 829.817 -0.232371 5.26087 0
M  V30 8966 H 832.308 0.237388 3.77154 0
M  V30 8967 H 832.621 1.10791 7.64817 0
M  V30 8968 H 830.966 0.989496 6.8792 0
M  V30 8969 H 834.157 0.378088 4.66571 0
M  V30 8970 H 834.33 0.774828 6.43351 0
M  V30 8971 N 827.736 -1.57571 -0.0300757 0
M  V30 8972 C 828.982 -1.89506 -0.722159 0
M  V30 8973 C 829.315 -0.840699 -1.7506 0
M  V30 8974 O 828.59 0.144358 -1.93964 0
M  V30 8975 C 828.873 -3.32081 -1.39262 0
M  V30 8976 C 828.726 -4.48211 -0.377768 0
M  V30 8977 C 830.045 -3.73557 -2.32687 0
M  V30 8978 H 827.164 -0.689213 -0.261064 0
M  V30 8979 H 829.806 -1.89994 0.0150388 0
M  V30 8980 H 827.956 -3.31796 -2.02098 0
M  V30 8981 H 829.628 -4.6063 0.248591 0
M  V30 8982 H 827.871 -4.3274 0.303045 0
M  V30 8983 H 828.542 -5.44854 -0.885347 0
M  V30 8984 H 831.018 -3.75202 -1.79896 0
M  V30 8985 H 829.894 -4.74125 -2.7658 0
M  V30 8986 H 830.155 -3.05759 -3.19317 0
M  V30 8987 N 829.214 0.302327 -1.54673 0
M  V30 8988 C 830.144 1.37759 -1.88533 0
M  V30 8989 C 831.125 1.52961 -0.744113 0
M  V30 8990 O 832.31 1.6649 -0.999731 0
M  V30 8991 C 829.44 2.74201 -2.13146 0
M  V30 8992 C 828.394 2.73765 -3.28993 0
M  V30 8993 C 827.72 4.13483 -3.39022 0
M  V30 8994 C 829.02 2.35624 -4.66132 0
M  V30 8995 H 830.714 1.0967 -2.78591 0
M  V30 8996 H 828.26 0.52613 -1.34044 0
M  V30 8997 H 830.213 3.49508 -2.35419 0
M  V30 8998 H 828.937 3.03812 -1.19858 0
M  V30 8999 H 827.596 2.00914 -3.06642 0
M  V30 9000 H 827.244 4.40269 -2.43253 0
M  V30 9001 H 826.944 4.14093 -4.16894 0
M  V30 9002 H 828.468 4.90572 -3.63553 0
M  V30 9003 H 829.882 3.00647 -4.88143 0
M  V30 9004 H 828.279 2.47449 -5.46707 0
M  V30 9005 H 829.349 1.30753 -4.66939 0
M  V30 9006 N 830.692 1.47107 0.565454 0
M  V30 9007 C 831.939 1.53308 1.32299 0
M  V30 9008 C 832.267 0.1919 1.93551 0
M  V30 9009 O 831.522 -0.81435 1.77952 0
M  V30 9010 C 831.821 2.59309 2.45954 0
M  V30 9011 C 831.487 4.02827 2.02586 0
M  V30 9012 C 830.149 4.41897 1.90474 0
M  V30 9013 C 832.501 4.92913 1.6937 0
M  V30 9014 C 829.829 5.68898 1.4343 0
M  V30 9015 C 832.181 6.20368 1.238 0
M  V30 9016 C 830.845 6.58327 1.10278 0
M  V30 9017 H 830.115 0.560993 0.484116 0
M  V30 9018 H 832.762 1.80667 0.634965 0
M  V30 9019 H 831.067 2.25676 3.20277 0
M  V30 9020 H 832.764 2.61332 3.04149 0
M  V30 9021 H 829.354 3.71953 2.12952 0
M  V30 9022 H 833.538 4.63433 1.77605 0
M  V30 9023 H 828.794 5.97065 1.31618 0
M  V30 9024 H 832.968 6.89589 0.971586 0
M  V30 9025 H 830.595 7.56628 0.736027 0
M  V30 9026 N 832.17 -0.811516 1.35101 0
M  V30 9027 C 833.4 -1.59749 1.31011 0
M  V30 9028 C 833.808 -1.88847 -0.115566 0
M  V30 9029 O 833.151 -1.48854 -1.07649 0
M  V30 9030 C 833.213 -2.95714 2.04435 0
M  V30 9031 C 832.877 -2.89456 3.53645 0
M  V30 9032 C 833.874 -2.63237 4.48333 0
M  V30 9033 C 831.559 -3.08728 3.96222 0
M  V30 9034 C 833.553 -2.56361 5.83573 0
M  V30 9035 C 831.24 -3.01475 5.3156 0
M  V30 9036 C 832.238 -2.75326 6.25048 0
M  V30 9037 O 831.926 -2.68026 7.57903 0
M  V30 9038 H 831.658 -0.502889 0.45175 0
M  V30 9039 H 834.212 -1.01687 1.78462 0
M  V30 9040 H 832.442 -3.55739 1.51613 0
M  V30 9041 H 834.131 -3.56816 1.93487 0
M  V30 9042 H 834.897 -2.48072 4.16756 0
M  V30 9043 H 830.776 -3.28094 3.23845 0
M  V30 9044 H 834.32 -2.35871 6.56514 0
M  V30 9045 H 830.217 -3.16197 5.62752 0
M  V30 9046 H 830.985 -2.8367 7.67772 0
M  V30 9047 N 833.648 -1.19017 -1.03309 0
M  V30 9048 C 834.598 -0.89194 -2.0983 0
M  V30 9049 C 835.582 0.14151 -1.60277 0
M  V30 9050 O 836.774 -0.0635946 -1.76886 0
M  V30 9051 C 833.903 -0.427793 -3.40624 0
M  V30 9052 C 832.989 -1.49374 -3.96923 0
M  V30 9053 N 833.38 -2.71213 -4.26939 0
M  V30 9054 C 831.678 -1.35605 -4.24885 0
M  V30 9055 C 832.379 -3.39849 -4.72099 0
M  V30 9056 N 831.355 -2.67239 -4.73375 0
M  V30 9057 H 835.157 -1.81801 -2.30923 0
M  V30 9058 H 832.671 -1.08171 -1.21131 0
M  V30 9059 H 834.668 -0.195608 -4.16441 0
M  V30 9060 H 833.328 0.491848 -3.20953 0
M  V30 9061 H 834.339 -3.08014 -4.16351 0
M  V30 9062 H 831.016 -0.499537 -4.14501 0
M  V30 9063 H 832.406 -4.44018 -5.04279 0
M  V30 9064 N 835.127 1.22348 -0.993418 0
M  V30 9065 C 836.355 1.95125 -0.688021 0
M  V30 9066 C 836.77 1.73377 0.747388 0
M  V30 9067 O 836.127 1.03317 1.50439 0
M  V30 9068 C 836.178 3.47819 -0.985097 0
M  V30 9069 O 835.899 3.68838 -2.3641 0
M  V30 9070 C 837.4 4.37779 -0.697474 0
M  V30 9071 H 834.62 0.62087 -0.254481 0
M  V30 9072 H 837.164 1.55485 -1.32833 0
M  V30 9073 H 835.319 3.85426 -0.390583 0
M  V30 9074 H 835.733 4.63032 -2.46377 0
M  V30 9075 H 837.207 5.43666 -0.955604 0
M  V30 9076 H 837.684 4.37651 0.368524 0
M  V30 9077 H 838.29 4.05799 -1.27306 0
M  V30 9078 N 836.605 0.766683 1.37694 0
M  V30 9079 C 838.016 0.394761 1.82479 0
M  V30 9080 C 838.367 -1.07842 1.63904 0
M  V30 9081 O 837.492 -1.83479 1.14737 0
M  V30 9082 C 838.087 0.70974 3.31283 0
M  V30 9083 C 836.646 0.390936 3.74364 0
M  V30 9084 C 835.793 0.956192 2.60293 0
M  V30 9085 H 838.744 0.961756 1.26238 0
M  V30 9086 H 838.765 -0.00742144 3.80499 0
M  V30 9087 H 838.277 1.782 3.4477 0
M  V30 9088 H 836.378 -0.674213 3.66449 0
M  V30 9089 H 836.491 0.895645 4.70654 0
M  V30 9090 H 834.855 0.380744 2.51838 0
M  V30 9091 H 835.638 2.03375 2.76575 0
M  V30 9092 N 838.083 -1.48885 0.516809 0
M  V30 9093 C 839.36 -1.95412 -0.0858293 0
M  V30 9094 C 839.74 -1.45875 -1.5259 0
M  V30 9095 O 839.088 -0.679415 -2.18166 0
M  V30 9096 C 839.298 -3.48995 0.0178194 0
M  V30 9097 C 840.646 -4.24342 -0.14813 0
M  V30 9098 O 841.67 -3.56155 -0.0566125 0
M  V30 9099 O 840.529 -5.45454 -0.338035 0
M  V30 9100 H 837.623 -0.822455 -0.0865884 0
M  V30 9101 H 840.169 -1.59464 0.580472 0
M  V30 9102 H 838.941 -3.77732 1.02147 0
M  V30 9103 H 838.564 -3.91604 -0.687924 0
M  V30 9104 N 839.561 -0.251338 -1.55583 0
M  V30 9105 C 840.493 0.679167 -2.18906 0
M  V30 9106 C 841.506 1.13545 -1.16667 0
M  V30 9107 O 842.695 1.06146 -1.4351 0
M  V30 9108 C 839.795 1.93544 -2.78198 0
M  V30 9109 C 838.968 1.62987 -4.05899 0
M  V30 9110 C 838.027 2.73618 -4.49466 0
M  V30 9111 O 837.053 2.40815 -5.15749 0
M  V30 9112 N 838.255 4.03204 -4.1762 0
M  V30 9113 H 841.02 0.137328 -2.99385 0
M  V30 9114 H 838.581 -0.0714754 -1.61742 0
M  V30 9115 H 840.573 2.66804 -3.04299 0
M  V30 9116 H 839.143 2.38695 -2.0185 0
M  V30 9117 H 838.363 0.732237 -3.8734 0
M  V30 9118 H 839.651 1.40041 -4.89148 0
M  V30 9119 H 839.049 4.32686 -3.64416 0
M  V30 9120 H 837.606 4.72916 -4.48547 0
M  V30 9121 N 841.039 1.57585 0.0217189 0
M  V30 9122 C 841.987 2.08134 1.03842 0
M  V30 9123 C 842.981 0.996662 1.36978 0
M  V30 9124 O 844.187 1.18149 1.35797 0
M  V30 9125 H 840.562 0.664298 0.352438 0
M  V30 9126 H 842.533 2.92583 0.58634 0
M  V30 9127 C 841.282 2.58218 2.32849 0
M  V30 9128 H 840.605 3.41302 2.08214 0
M  V30 9129 H 842.045 2.97289 3.02316 0
M  V30 9130 C 840.504 1.48664 3.02325 0
M  V30 9131 O 841.034 0.857075 3.9245 0
M  V30 9132 N 839.24 1.21938 2.63779 0
M  V30 9133 H 838.787 1.73319 1.90574 0
M  V30 9134 H 838.745 0.488523 3.10581 0
M  V30 9135 N 842.517 -0.29412 1.54831 0
M  V30 9136 C 843.467 -1.36476 1.82643 0
M  V30 9137 C 844.451 -1.45638 0.683984 0
M  V30 9138 O 845.643 -1.49675 0.944801 0
M  V30 9139 C 842.772 -2.72865 2.08326 0
M  V30 9140 C 841.858 -2.67898 3.28773 0
M  V30 9141 N 842.249 -2.32547 4.49172 0
M  V30 9142 C 840.547 -2.98991 3.30939 0
M  V30 9143 C 841.248 -2.37048 5.31209 0
M  V30 9144 N 840.224 -2.74679 4.69097 0
M  V30 9145 H 844.026 -1.08119 2.7329 0
M  V30 9146 H 841.54 -0.502718 1.54423 0
M  V30 9147 H 843.537 -3.5007 2.264 0
M  V30 9148 H 842.197 -3.02127 1.1895 0
M  V30 9149 H 843.208 -2.04883 4.7565 0
M  V30 9150 H 839.885 -3.33104 2.51691 0
M  V30 9151 H 841.275 -2.12457 6.37426 0
M  V30 9152 N 843.995 -1.47404 -0.557645 0
M  V30 9153 C 845.244 -1.53268 -1.31118 0
M  V30 9154 C 845.557 -0.199414 -1.94581 0
M  V30 9155 O 846.763 -0.136039 -2.71159 0
M  V30 9156 C 845.219 -2.70178 -2.37764 0
M  V30 9157 C 844.827 -4.10032 -1.80493 0
M  V30 9158 C 846.571 -2.85334 -3.14301 0
M  V30 9159 C 844.478 -5.18244 -2.84916 0
M  V30 9160 H 843.408 -0.570491 -0.493007 0
M  V30 9161 H 846.059 -1.73678 -0.592308 0
M  V30 9162 H 844.441 -2.43147 -3.12563 0
M  V30 9163 H 845.615 -4.46964 -1.12069 0
M  V30 9164 H 843.93 -3.99759 -1.16542 0
M  V30 9165 H 846.527 -3.63347 -3.92279 0
M  V30 9166 H 846.87 -1.93761 -3.68459 0
M  V30 9167 H 847.403 -3.12133 -2.46613 0
M  V30 9168 H 844.142 -6.11691 -2.35614 0
M  V30 9169 H 843.662 -4.85829 -3.51753 0
M  V30 9170 H 845.341 -5.45174 -3.48417 0
M  V30 9171 N 845.473 0.80434 -1.35529 0
M  V30 9172 C 846.383 1.94784 -1.30753 0
M  V30 9173 C 847.399 1.72703 -0.212071 0
M  V30 9174 O 848.575 1.96494 -0.441841 0
M  V30 9175 C 845.64 3.29406 -1.08133 0
M  V30 9176 C 844.701 3.64367 -2.27013 0
M  V30 9177 C 843.934 4.92566 -2.05463 0
M  V30 9178 O 844.157 5.61166 -1.02222 0
M  V30 9179 O 843.091 5.25838 -2.92879 0
M  V30 9180 H 846.917 2.01761 -2.26994 0
M  V30 9181 H 844.502 0.942448 -1.15924 0
M  V30 9182 H 846.384 4.09995 -0.973756 0
M  V30 9183 H 845.059 3.23355 -0.149444 0
M  V30 9184 H 843.966 2.84146 -2.43335 0
M  V30 9185 H 845.299 3.75125 -3.18656 0
M  V30 9186 N 846.951 1.19563 1.02676 0
M  V30 9187 C 847.883 0.893054 2.11086 0
M  V30 9188 C 848.896 -0.115101 1.62393 0
M  V30 9189 O 850.085 0.11459 1.78132 0
M  V30 9190 C 847.185 0.315533 3.37428 0
M  V30 9191 C 846.358 1.37276 4.153 0
M  V30 9192 C 845.417 0.808398 5.19953 0
M  V30 9193 O 844.443 1.48661 5.49444 0
M  V30 9194 N 845.645 -0.387253 5.79207 0
M  V30 9195 H 848.41 1.82622 2.37633 0
M  V30 9196 H 845.971 1.09792 1.18984 0
M  V30 9197 H 847.963 -0.0759166 4.04629 0
M  V30 9198 H 846.533 -0.521961 3.08211 0
M  V30 9199 H 845.753 1.93897 3.43217 0
M  V30 9200 H 847.041 2.08509 4.64114 0
M  V30 9201 H 846.439 -0.955725 5.57568 0
M  V30 9202 H 844.996 -0.720457 6.47806 0
M  V30 9203 N 848.429 -1.21819 0.999893 0
M  V30 9204 C 849.84 -1.72517 0.713775 0
M  V30 9205 C 850.191 -1.80505 -0.768922 0
M  V30 9206 O 849.316 -1.45611 -1.60083 0
M  V30 9207 C 849.911 -3.13321 1.28901 0
M  V30 9208 C 848.47 -3.61396 1.05212 0
M  V30 9209 C 847.617 -2.39074 1.40494 0
M  V30 9210 H 850.568 -1.07068 1.17141 0
M  V30 9211 H 850.589 -3.74535 0.671084 0
M  V30 9212 H 850.101 -3.07475 2.36814 0
M  V30 9213 H 848.202 -3.72599 -0.0100732 0
M  V30 9214 H 848.315 -4.47145 1.72042 0
M  V30 9215 H 846.679 -2.41015 0.823642 0
M  V30 9216 H 847.462 -2.35884 2.49427 0
M  V30 9217 N 849.908 -0.773975 -1.37286 0
M  V30 9218 C 851.155 -0.339306 -1.99637 0
M  V30 9219 C 851.483 1.08478 -1.61439 0
M  V30 9220 O 850.738 1.7612 -0.853252 0
M  V30 9221 C 851.037 -0.432651 -3.54772 0
M  V30 9222 C 850.703 -1.81531 -4.12744 0
M  V30 9223 C 849.365 -2.19366 -4.2829 0
M  V30 9224 C 851.717 -2.72137 -4.44512 0
M  V30 9225 C 849.045 -3.47239 -4.72908 0
M  V30 9226 C 851.397 -3.99421 -4.90556 0
M  V30 9227 C 850.061 -4.37298 -5.04308 0
M  V30 9228 H 849.331 -0.124161 -0.730524 0
M  V30 9229 H 851.978 -0.988432 -1.64019 0
M  V30 9230 H 850.283 0.30001 -3.9065 0
M  V30 9231 H 851.98 -0.0776 -4.00925 0
M  V30 9232 H 848.57 -1.51126 -4.01072 0
M  V30 9233 H 852.754 -2.44165 -4.32084 0
M  V30 9234 H 848.01 -3.76477 -4.81742 0
M  V30 9235 H 852.184 -4.69756 -5.14104 0
M  V30 9236 H 849.811 -5.36442 -5.38641 0
M  V30 9237 N 851.386 1.48609 -0.524698 0
M  V30 9238 C 852.616 2.06599 0.00741868 0
M  V30 9239 C 853.024 1.3823 1.29186 0
M  V30 9240 O 852.367 0.461962 1.77797 0
M  V30 9241 C 852.429 3.58184 0.307324 0
M  V30 9242 C 852.093 4.48391 -0.882864 0
M  V30 9243 C 853.09 4.88485 -1.77984 0
M  V30 9244 C 850.775 4.90367 -1.08837 0
M  V30 9245 C 852.769 5.69319 -2.86627 0
M  V30 9246 C 850.456 5.70972 -2.17794 0
M  V30 9247 C 851.454 6.10355 -3.06523 0
M  V30 9248 O 851.142 6.89343 -4.13596 0
M  V30 9249 H 850.874 0.675421 -0.0279846 0
M  V30 9250 H 853.428 1.92058 -0.7282 0
M  V30 9251 H 851.658 3.70818 1.09685 0
M  V30 9252 H 853.347 3.98318 0.780886 0
M  V30 9253 H 854.113 4.56682 -1.63299 0
M  V30 9254 H 849.992 4.592 -0.407035 0
M  V30 9255 H 853.536 5.99978 -3.55911 0
M  V30 9256 H 849.433 6.02188 -2.32465 0
M  V30 9257 H 850.201 7.07689 -4.1124 0
M  V30 9258 N 852.864 0.259585 1.55447 0
M  V30 9259 C 853.794 -0.62852 2.24882 0
M  V30 9260 C 854.775 -1.17128 1.23349 0
M  V30 9261 O 855.96 -1.20829 1.52033 0
M  V30 9262 C 853.09 -1.81983 2.95803 0
M  V30 9263 C 852.044 -1.40929 4.04132 0
M  V30 9264 C 851.37 -2.68246 4.62545 0
M  V30 9265 C 852.67 -0.570956 5.1917 0
M  V30 9266 H 854.364 -0.0495021 2.99359 0
M  V30 9267 H 851.91 -0.0223688 1.43983 0
M  V30 9268 H 853.863 -2.44689 3.43082 0
M  V30 9269 H 852.587 -2.42444 2.18835 0
M  V30 9270 H 851.246 -0.805519 3.57641 0
M  V30 9271 H 850.894 -3.26931 3.82263 0
M  V30 9272 H 850.594 -2.41495 5.35681 0
M  V30 9273 H 852.118 -3.31827 5.12565 0
M  V30 9274 H 853.532 -1.10262 5.62597 0
M  V30 9275 H 851.929 -0.398979 5.98772 0
M  V30 9276 H 852.999 0.413918 4.8313 0
M  V30 9277 N 854.342 -1.57594 -0.0133615 0
M  V30 9278 C 855.275 -2.02991 -1.04259 0
M  V30 9279 C 856.253 -0.917193 -1.34262 0
M  V30 9280 O 857.437 -1.18428 -1.46653 0
M  V30 9281 C 854.564 -2.41624 -2.37351 0
M  V30 9282 C 853.61 -3.63495 -2.231 0
M  V30 9283 S 854.443 -5.1198 -1.5696 0
M  V30 9284 C 855.599 -5.5387 -2.91511 0
M  V30 9285 H 855.832 -2.89973 -0.655985 0
M  V30 9286 H 853.365 -1.52769 -0.223827 0
M  V30 9287 H 855.323 -2.64551 -3.13884 0
M  V30 9288 H 853.984 -1.55065 -2.73155 0
M  V30 9289 H 853.177 -3.88233 -3.21389 0
M  V30 9290 H 852.779 -3.405 -1.54711 0
M  V30 9291 H 855.071 -5.55514 -3.87828 0
M  V30 9292 H 856.014 -6.53988 -2.71488 0
M  V30 9293 H 856.422 -4.81404 -2.94806 0
M  V30 9294 N 855.82 0.285905 -1.54985 0
M  V30 9295 C 857.068 1.01718 -1.74636 0
M  V30 9296 C 857.389 1.87277 -0.543342 0
M  V30 9297 O 856.659 1.90847 0.442078 0
M  V30 9298 H 855.239 0.378549 -0.643979 0
M  V30 9299 H 857.901 0.313247 -1.92366 0
M  V30 9300 H 856.997 1.66159 -2.64192 0
M  V30 9301 N 857.298 1.47698 0.54982 0
M  V30 9302 C 858.714 1.3338 0.876468 0
M  V30 9303 C 858.914 0.329837 1.98782 0
M  V30 9304 O 857.97 -0.256022 2.51199 0
M  V30 9305 C 859.283 2.72903 1.26272 0
M  V30 9306 C 860.831 2.81243 1.37373 0
M  V30 9307 C 861.306 4.21423 1.79351 0
M  V30 9308 N 862.797 4.24 1.86489 0
M  V30 9309 C 863.532 5.29386 2.20313 0
M  V30 9310 N 863.028 6.4507 2.527 0
M  V30 9311 N 864.821 5.16768 2.2115 0
M  V30 9312 H 856.972 2.11603 -0.183781 0
M  V30 9313 H 859.235 0.947798 -0.0195601 0
M  V30 9314 H 858.941 3.47836 0.519889 0
M  V30 9315 H 858.815 3.05151 2.21727 0
M  V30 9316 H 861.202 2.06577 2.10737 0
M  V30 9317 H 861.283 2.52639 0.400882 0
M  V30 9318 H 860.927 4.96597 1.06555 0
M  V30 9319 H 860.857 4.47456 2.77652 0
M  V30 9320 H 863.348 3.40547 1.63817 0
M  V30 9321 H 863.661 7.21236 2.77557 0
M  V30 9322 H 862.006 6.48377 2.50263 0
M  V30 9323 H 865.197 4.25416 1.95293 0
M  V30 9324 H 865.37 5.99004 2.4718 0
M  V30 9325 N 858.776 -0.797141 1.35954 0
M  V30 9326 C 860.053 -1.54224 1.2031 0
M  V30 9327 C 860.433 -2.10013 -0.213926 0
M  V30 9328 O 859.781 -1.93292 -1.21862 0
M  V30 9329 C 859.991 -2.6433 2.27883 0
M  V30 9330 C 861.339 -3.32418 2.64165 0
M  V30 9331 O 862.363 -2.74607 2.26868 0
M  V30 9332 O 861.222 -4.36876 3.28331 0
M  V30 9333 H 858.316 -0.681857 0.467974 0
M  V30 9334 H 860.862 -0.836288 1.47663 0
M  V30 9335 H 859.634 -2.21044 3.22885 0
M  V30 9336 H 859.257 -3.42551 2.01853 0
M  V30 9337 N 860.254 -1.20106 -1.0204 0
M  V30 9338 C 861.201 -0.946468 -2.10501 0
M  V30 9339 C 862.171 0.121902 -1.65652 0
M  V30 9340 O 863.356 -0.0220244 -1.90787 0
M  V30 9341 C 860.496 -0.500499 -3.41451 0
M  V30 9342 C 859.609 -1.63659 -3.998 0
M  V30 9343 C 858.744 -1.14131 -5.18794 0
M  V30 9344 C 857.783 -2.25074 -5.69217 0
M  V30 9345 N 856.92 -1.76791 -6.79477 0
M  V30 9346 H 861.76 -1.87506 -2.31615 0
M  V30 9347 H 859.297 -0.934693 -1.13587 0
M  V30 9348 H 861.255 -0.223276 -4.16602 0
M  V30 9349 H 859.885 0.391099 -3.20422 0
M  V30 9350 H 858.937 -2.02882 -3.21781 0
M  V30 9351 H 860.249 -2.47213 -4.33229 0
M  V30 9352 H 859.403 -0.819826 -6.01135 0
M  V30 9353 H 858.142 -0.275615 -4.86921 0
M  V30 9354 H 857.147 -2.58043 -4.85483 0
M  V30 9355 H 858.372 -3.12114 -6.03127 0
M  V30 9356 H 856.318 -0.925428 -6.4944 0
M  V30 9357 H 856.235 -2.53928 -7.12079 0
M  V30 9358 H 857.503 -1.47631 -7.65392 0
M  V30 9359 N 861.732 1.21287 -1.00634 0
M  V30 9360 C 862.695 2.21927 -0.572821 0
M  V30 9361 C 863.695 1.5691 0.351541 0
M  V30 9362 O 864.885 1.73623 0.141643 0
M  V30 9363 C 862.017 3.40501 0.164932 0
M  V30 9364 H 863.21 2.61795 -1.463 0
M  V30 9365 H 860.763 1.34571 -0.794998 0
M  V30 9366 H 861.498 3.06123 1.07049 0
M  V30 9367 H 861.283 3.88912 -0.498962 0
M  V30 9368 H 862.773 4.15103 0.455945 0
M  V30 9369 N 863.21 0.781244 1.36873 0
M  V30 9370 C 864.14 0.188128 2.32741 0
M  V30 9371 C 865.121 -0.672326 1.56249 0
M  V30 9372 O 866.306 -0.607835 1.84442 0
M  V30 9373 C 863.436 -0.684341 3.40491 0
M  V30 9374 C 862.39 0.0755641 4.27933 0
M  V30 9375 C 861.716 -0.916968 5.26779 0
M  V30 9376 C 863.016 1.26006 5.06873 0
M  V30 9377 H 864.71 0.989016 2.82593 0
M  V30 9378 H 862.256 0.477038 1.35869 0
M  V30 9379 H 864.209 -1.10915 4.06541 0
M  V30 9380 H 862.933 -1.51785 2.89187 0
M  V30 9381 H 861.592 0.481258 3.63427 0
M  V30 9382 H 861.24 -1.74528 4.71751 0
M  V30 9383 H 860.94 -0.413 5.86147 0
M  V30 9384 H 862.464 -1.34052 5.95703 0
M  V30 9385 H 863.878 0.911425 5.66009 0
M  V30 9386 H 862.275 1.69676 5.75613 0
M  V30 9387 H 863.345 2.05948 4.38991 0
M  V30 9388 N 864.689 -1.48329 0.532571 0
M  V30 9389 C 865.652 -2.2816 -0.218069 0
M  V30 9390 C 866.652 -1.35526 -0.865409 0
M  V30 9391 O 867.842 -1.58394 -0.725061 0
M  V30 9392 C 864.974 -3.1448 -1.31586 0
M  V30 9393 H 866.167 -2.95987 0.482865 0
M  V30 9394 H 863.72 -1.53612 0.288603 0
M  V30 9395 H 864.455 -2.5129 -2.04997 0
M  V30 9396 H 864.24 -3.82625 -0.856779 0
M  V30 9397 H 865.73 -3.74693 -1.84377 0
M  V30 9398 N 866.167 -0.267825 -1.55308 0
M  V30 9399 C 867.413 0.351556 -1.9973 0
M  V30 9400 C 867.746 1.56049 -1.15596 0
M  V30 9401 O 867.021 1.93203 -0.224274 0
M  V30 9402 C 867.304 0.74091 -3.52395 0
M  V30 9403 C 867.157 -0.474861 -4.47286 0
M  V30 9404 C 868.476 1.5801 -4.10756 0
M  V30 9405 H 865.595 0.126308 -0.726096 0
M  V30 9406 H 868.237 -0.373316 -1.86296 0
M  V30 9407 H 866.387 1.35851 -3.63973 0
M  V30 9408 H 868.059 -1.1134 -4.47662 0
M  V30 9409 H 866.302 -1.11425 -4.19246 0
M  V30 9410 H 866.973 -0.158782 -5.51772 0
M  V30 9411 H 869.449 1.05857 -4.0241 0
M  V30 9412 H 868.325 1.82135 -5.17801 0
M  V30 9413 H 868.586 2.55878 -3.60526 0
M  V30 9414 N 867.645 1.57599 0.00500368 0
M  V30 9415 C 868.555 2.11532 1.01446 0
M  V30 9416 C 869.571 1.05941 1.3803 0
M  V30 9417 O 870.747 1.37815 1.46864 0
M  V30 9418 C 867.812 2.60382 2.28915 0
M  V30 9419 C 866.873 3.80554 1.98689 0
M  V30 9420 C 866.106 4.27064 3.20081 0
M  V30 9421 O 866.329 3.72939 4.31593 0
M  V30 9422 O 865.263 5.1927 3.04371 0
M  V30 9423 H 869.089 2.97993 0.586011 0
M  V30 9424 H 866.674 1.47718 0.223519 0
M  V30 9425 H 868.556 2.92024 3.03809 0
M  V30 9426 H 867.231 1.77022 2.71007 0
M  V30 9427 H 866.138 3.53893 1.21286 0
M  V30 9428 H 867.471 4.64972 1.61437 0
M  V30 9429 N 869.123 -0.277682 1.55134 0
M  V30 9430 C 870.055 -1.36531 1.84098 0
M  V30 9431 C 871.068 -1.45756 0.725194 0
M  V30 9432 O 872.257 -1.47656 1.00299 0
M  V30 9433 C 869.357 -2.74701 1.98476 0
M  V30 9434 C 868.53 -2.88125 3.29094 0
M  V30 9435 C 867.589 -4.0694 3.33596 0
M  V30 9436 O 866.615 -3.9792 4.06999 0
M  V30 9437 N 867.817 -5.18687 2.60661 0
M  V30 9438 H 870.582 -1.12032 2.77973 0
M  V30 9439 H 868.143 -0.467793 1.54995 0
M  V30 9440 H 870.135 -3.52471 1.98863 0
M  V30 9441 H 868.705 -2.92043 1.11488 0
M  V30 9442 H 867.925 -1.97277 3.41285 0
M  V30 9443 H 869.213 -2.94021 4.15246 0
M  V30 9444 H 868.611 -5.28901 2.00699 0
M  V30 9445 H 867.168 -5.94705 2.66776 0
M  V30 9446 N 870.601 -1.47988 -0.541979 0
M  V30 9447 C 871.848 -1.55393 -1.29843 0
M  V30 9448 C 872.176 -0.222668 -1.93221 0
M  V30 9449 O 871.431 0.785936 -1.79225 0
M  V30 9450 C 871.73 -2.63189 -2.41798 0
M  V30 9451 C 871.396 -4.05999 -1.96151 0
M  V30 9452 C 870.058 -4.44872 -1.83419 0
M  V30 9453 C 872.41 -4.95545 -1.61507 0
M  V30 9454 C 869.738 -5.71108 -1.34361 0
M  V30 9455 C 872.09 -6.22259 -1.13915 0
M  V30 9456 C 870.754 -6.59998 -0.997911 0
M  V30 9457 H 870.024 -0.568623 -0.47513 0
M  V30 9458 H 872.671 -1.81654 -0.606142 0
M  V30 9459 H 870.976 -2.30743 -3.16647 0
M  V30 9460 H 872.673 -2.66138 -2.99953 0
M  V30 9461 H 869.263 -3.75294 -2.07008 0
M  V30 9462 H 873.447 -4.662 -1.70209 0
M  V30 9463 H 868.703 -5.99083 -1.22103 0
M  V30 9464 H 872.877 -6.91048 -0.861755 0
M  V30 9465 H 870.504 -7.57704 -0.615561 0
M  V30 9466 N 872.079 0.78992 -1.36375 0
M  V30 9467 C 873.328 1.54296 -1.29906 0
M  V30 9468 C 873.641 1.95234 0.119651 0
M  V30 9469 O 874.847 2.69762 0.306708 0
M  V30 9470 C 873.303 2.78533 -2.27919 0
M  V30 9471 C 872.911 2.44767 -3.75224 0
M  V30 9472 C 874.655 3.56516 -2.30427 0
M  V30 9473 C 872.562 3.65397 -4.65015 0
M  V30 9474 H 871.492 0.579214 -0.482729 0
M  V30 9475 H 874.143 0.866845 -1.61735 0
M  V30 9476 H 872.525 3.47941 -1.89084 0
M  V30 9477 H 873.699 1.83259 -4.22792 0
M  V30 9478 H 872.014 1.79996 -3.75487 0
M  V30 9479 H 874.611 4.46143 -2.94722 0
M  V30 9480 H 874.954 3.95063 -1.31266 0
M  V30 9481 H 875.487 2.94087 -2.67876 0
M  V30 9482 H 872.226 3.31946 -5.65236 0
M  V30 9483 H 871.746 4.26072 -4.22164 0
M  V30 9484 H 873.425 4.32431 -4.81261 0
M  V30 9485 N 873.557 1.20646 1.01402 0
M  V30 9486 C 874.782 1.04462 1.79172 0
M  V30 9487 C 875.207 -0.401588 1.83763 0
M  V30 9488 O 874.565 -1.28934 1.27459 0
M  V30 9489 C 874.613 1.63583 3.21361 0
M  V30 9490 O 873.717 0.875198 4.03006 0
M  V30 9491 H 873.058 0.368235 0.552539 0
M  V30 9492 H 875.588 1.59994 1.27526 0
M  V30 9493 H 875.598 1.67426 3.72065 0
M  V30 9494 H 874.273 2.68835 3.17334 0
M  V30 9495 H 872.85 0.911172 3.61597 0
M  V30 9496 N 875.035 -1.20752 1.01276 0
M  V30 9497 C 876.451 -1.42084 0.726934 0
M  V30 9498 C 876.651 -1.89138 -0.694907 0
M  V30 9499 O 875.707 -2.05783 -1.4632 0
M  V30 9500 C 877.02 -2.44575 1.74938 0
M  V30 9501 C 878.568 -2.58347 1.76708 0
M  V30 9502 C 879.043 -3.64078 2.77869 0
M  V30 9503 N 880.534 -3.71558 2.76585 0
M  V30 9504 C 881.269 -4.53016 3.51517 0
M  V30 9505 N 880.765 -5.38309 4.36114 0
M  V30 9506 N 882.558 -4.47512 3.40132 0
M  V30 9507 H 874.709 -0.885228 1.93074 0
M  V30 9508 H 876.972 -0.451075 0.833808 0
M  V30 9509 H 876.678 -2.1699 2.76782 0
M  V30 9510 H 876.552 -3.43503 1.55838 0
M  V30 9511 H 878.939 -2.85265 0.755516 0
M  V30 9512 H 879.02 -1.59628 1.99882 0
M  V30 9513 H 878.664 -3.37905 3.79187 0
M  V30 9514 H 878.594 -4.62412 2.51958 0
M  V30 9515 H 881.085 -3.10629 2.15216 0
M  V30 9516 H 881.398 -5.9754 4.90068 0
M  V30 9517 H 879.743 -5.37824 4.40194 0
M  V30 9518 H 882.934 -3.79912 2.73467 0
M  V30 9519 H 883.107 -5.10759 3.98784 0
M  V30 9520 N 876.513 -0.788492 -1.36457 0
M  V30 9521 C 877.76 -0.360461 -1.99266 0
M  V30 9522 C 878.088 1.0676 -1.62581 0
M  V30 9523 O 877.343 1.75205 -0.871884 0
M  V30 9524 C 877.642 -0.470255 -3.54293 0
M  V30 9525 C 877.308 -1.85899 -4.10795 0
M  V30 9526 C 875.97 -2.23896 -4.25939 0
M  V30 9527 C 878.322 -2.76836 -4.41601 0
M  V30 9528 C 875.65 -3.52235 -4.69199 0
M  V30 9529 C 878.002 -4.04602 -4.86292 0
M  V30 9530 C 876.666 -4.42623 -4.99641 0
M  V30 9531 H 875.936 -0.131902 -0.729166 0
M  V30 9532 H 878.583 -1.00577 -1.62962 0
M  V30 9533 H 876.888 0.258559 -3.90946 0
M  V30 9534 H 878.585 -0.120119 -4.0082 0
M  V30 9535 H 875.175 -1.55372 -3.99447 0
M  V30 9536 H 879.359 -2.48735 -4.2947 0
M  V30 9537 H 874.615 -3.81565 -4.77722 0
M  V30 9538 H 878.789 -4.75182 -5.09092 0
M  V30 9539 H 876.416 -5.42125 -5.32921 0
M  V30 9540 N 877.991 1.48044 -0.54043 0
M  V30 9541 C 878.939 2.31461 0.229862 0
M  V30 9542 C 879.933 1.41884 0.925495 0
M  V30 9543 O 881.139 1.58736 0.848689 0
M  V30 9544 H 877.514 0.746227 0.0929975 0
M  V30 9545 H 879.485 2.94297 -0.493118 0
M  V30 9546 C 878.234 3.24172 1.25729 0
M  V30 9547 H 877.557 3.93052 0.731426 0
M  V30 9548 H 878.997 3.85404 1.76747 0
M  V30 9549 C 877.456 2.4651 2.2964 0
M  V30 9550 O 877.986 2.19742 3.36268 0
M  V30 9551 N 876.192 2.07817 2.03127 0
M  V30 9552 H 875.739 2.29786 1.1643 0
M  V30 9553 H 875.697 1.56168 2.72872 0
M  V30 9554 N 879.47 0.276058 1.55163 0
M  V30 9555 C 880.695 -0.346648 2.04483 0
M  V30 9556 C 881.12 -1.48613 1.15308 0
M  V30 9557 O 880.478 -1.80663 0.151875 0
M  V30 9558 C 880.526 -0.804268 3.51517 0
M  V30 9559 O 879.63 -1.91143 3.65429 0
M  V30 9560 H 878.971 -0.0715251 0.660136 0
M  V30 9561 H 881.501 0.410631 2.00437 0
M  V30 9562 H 881.511 -1.09977 3.92898 0
M  V30 9563 H 880.186 0.0294123 4.1589 0
M  V30 9564 H 878.763 -1.61839 3.3595 0
M  V30 9565 N 880.948 -1.576 0.00335426 0
M  V30 9566 C 882.196 -1.90336 -0.679446 0
M  V30 9567 C 882.517 -0.877777 -1.74127 0
M  V30 9568 O 881.787 0.0843585 -1.95718 0
M  V30 9569 H 880.367 -0.702509 -0.253948 0
M  V30 9570 H 883.029 -1.94848 0.0450731 0
M  V30 9571 H 882.125 -2.90197 -1.14857 0
M  V30 9572 N 882.426 0.269451 -1.5528 0
M  V30 9573 C 883.656 1.01724 -1.79821 0
M  V30 9574 C 884.064 1.80298 -0.573532 0
M  V30 9575 O 883.407 1.77666 0.466963 0
M  V30 9576 C 883.469 2.02043 -2.97353 0
M  V30 9577 C 883.133 1.42375 -4.34256 0
M  V30 9578 C 884.13 0.837611 -5.13108 0
M  V30 9579 C 881.815 1.44988 -4.8092 0
M  V30 9580 C 883.809 0.285557 -6.3676 0
M  V30 9581 C 881.496 0.893969 -6.04526 0
M  V30 9582 C 882.494 0.312809 -6.82283 0
M  V30 9583 O 882.182 -0.234582 -8.03558 0
M  V30 9584 H 881.914 0.30604 -0.602757 0
M  V30 9585 H 884.468 0.30454 -2.0313 0
M  V30 9586 H 882.698 2.77082 -2.69745 0
M  V30 9587 H 884.387 2.6298 -3.09187 0
M  V30 9588 H 885.153 0.81009 -4.78187 0
M  V30 9589 H 881.032 1.89162 -4.20403 0
M  V30 9590 H 884.576 -0.168696 -6.97396 0
M  V30 9591 H 880.473 0.918742 -6.38928 0
M  V30 9592 H 881.241 -0.124282 -8.18406 0
M  V30 9593 N 883.904 1.48273 0.534124 0
M  V30 9594 C 885.153 1.55334 1.28663 0
M  V30 9595 C 885.466 0.230345 1.94239 0
M  V30 9596 O 886.672 0.179161 2.70908 0
M  V30 9597 C 885.128 2.73927 2.33435 0
M  V30 9598 C 884.736 4.12852 1.73947 0
M  V30 9599 C 886.48 2.90298 3.09722 0
M  V30 9600 C 884.387 5.22711 2.76636 0
M  V30 9601 H 883.317 0.578262 0.483869 0
M  V30 9602 H 885.968 1.74598 0.564602 0
M  V30 9603 H 884.35 2.48089 3.08655 0
M  V30 9604 H 885.524 4.48691 1.04944 0
M  V30 9605 H 883.839 4.01562 1.10167 0
M  V30 9606 H 886.436 3.69542 3.86449 0
M  V30 9607 H 886.779 1.99598 3.6533 0
M  V30 9608 H 887.312 3.16017 2.41616 0
M  V30 9609 H 884.051 6.15362 2.25852 0
M  V30 9610 H 883.571 4.91364 3.43979 0
M  V30 9611 H 885.25 5.50648 3.39699 0
M  V30 9612 N 885.382 -0.782676 1.36792 0
M  V30 9613 C 886.329 -1.89558 1.31667 0
M  V30 9614 C 887.299 -1.65076 0.184147 0
M  V30 9615 O 888.484 -1.87143 0.371753 0
M  V30 9616 C 885.624 -3.26469 1.11858 0
M  V30 9617 C 884.737 -3.62978 2.34245 0
M  V30 9618 C 883.872 -4.89041 2.07394 0
M  V30 9619 C 882.911 -5.18249 3.25706 0
M  V30 9620 N 882.048 -6.35497 2.98476 0
M  V30 9621 H 886.888 -1.93274 2.26824 0
M  V30 9622 H 884.425 -0.945057 1.12726 0
M  V30 9623 H 886.383 -4.05431 0.983968 0
M  V30 9624 H 885.013 -3.22158 0.203531 0
M  V30 9625 H 884.065 -2.79087 2.58485 0
M  V30 9626 H 885.377 -3.80507 3.22514 0
M  V30 9627 H 884.531 -5.75883 1.90901 0
M  V30 9628 H 883.27 -4.73594 1.16446 0
M  V30 9629 H 882.275 -4.29887 3.4275 0
M  V30 9630 H 883.5 -5.35611 4.1749 0
M  V30 9631 H 881.446 -6.21429 2.10146 0
M  V30 9632 H 881.363 -6.5339 3.80286 0
M  V30 9633 H 882.631 -7.25304 2.85577 0
M  V30 9634 N 886.86 -1.21182 -1.00761 0
M  V30 9635 C 887.823 -0.970339 -2.07646 0
M  V30 9636 C 888.823 0.0576345 -1.60697 0
M  V30 9637 O 890.013 -0.179369 -1.73274 0
M  V30 9638 C 887.145 -0.462703 -3.37745 0
M  V30 9639 H 888.338 -1.91856 -2.30502 0
M  V30 9640 H 885.891 -1.02844 -1.17698 0
M  V30 9641 H 886.626 0.490559 -3.20568 0
M  V30 9642 H 886.411 -1.20416 -3.73152 0
M  V30 9643 H 887.901 -0.313531 -4.16421 0
M  V30 9644 N 888.338 1.20213 -1.01915 0
M  V30 9645 C 889.563 1.94163 -0.729076 0
M  V30 9646 C 889.988 1.74416 0.704323 0
M  V30 9647 O 889.346 1.0401 1.48498 0
M  V30 9648 C 889.394 3.44258 -1.07324 0
M  V30 9649 O 888.498 4.11979 -0.186367 0
M  V30 9650 H 887.839 0.606506 -0.270272 0
M  V30 9651 H 890.369 1.52571 -1.3632 0
M  V30 9652 H 890.379 3.94888 -1.02603 0
M  V30 9653 H 889.054 3.57954 -2.11759 0
M  V30 9654 H 887.631 3.7176 -0.291334 0
M  V30 9655 N 889.816 0.795718 1.36037 0
M  V30 9656 C 890.748 0.156336 2.28666 0
M  V30 9657 C 891.761 -0.638075 1.49775 0
M  V30 9658 O 892.95 -0.472222 1.7214 0
M  V30 9659 C 890.05 -0.801417 3.29288 0
M  V30 9660 C 889.223 -0.0557118 4.37365 0
M  V30 9661 C 888.282 -0.930338 5.1791 0
M  V30 9662 O 887.308 -0.385266 5.67895 0
M  V30 9663 N 888.51 -2.25382 5.34961 0
M  V30 9664 H 891.275 0.952033 2.84177 0
M  V30 9665 H 888.836 0.650189 1.48271 0
M  V30 9666 H 890.828 -1.39051 3.80062 0
M  V30 9667 H 889.398 -1.49796 2.74372 0
M  V30 9668 H 888.618 0.714508 3.87671 0
M  V30 9669 H 889.906 0.458633 5.06729 0
M  V30 9670 H 889.304 -2.72073 4.95977 0
M  V30 9671 H 887.861 -2.79241 5.88955 0
M  V30 9672 N 891.294 -1.47756 0.548274 0
M  V30 9673 C 892.204 -2.33678 -0.207773 0
M  V30 9674 C 893.22 -1.47636 -0.920843 0
M  V30 9675 O 894.396 -1.80583 -0.89173 0
M  V30 9676 C 891.461 -3.24147 -1.23003 0
M  V30 9677 C 890.522 -4.26073 -0.52535 0
M  V30 9678 C 889.755 -5.12219 -1.4989 0
M  V30 9679 O 889.978 -5.0066 -2.73305 0
M  V30 9680 O 888.912 -5.93051 -1.02828 0
M  V30 9681 H 892.738 -2.99609 0.496794 0
M  V30 9682 H 890.323 -1.4617 0.308982 0
M  V30 9683 H 892.205 -3.80055 -1.82034 0
M  V30 9684 H 890.88 -2.60855 -1.91668 0
M  V30 9685 H 889.787 -3.7395 0.105927 0
M  V30 9686 H 891.12 -4.92054 0.119686 0
M  V30 9687 N 892.772 -0.284283 -1.55015 0
M  V30 9688 C 893.702 0.592663 -2.25853 0
M  V30 9689 C 894.683 1.15151 -1.25197 0
M  V30 9690 O 895.868 1.18395 -1.53936 0
M  V30 9691 C 892.998 1.77254 -2.98661 0
M  V30 9692 C 891.952 1.34482 -4.06323 0
M  V30 9693 C 891.278 2.60853 -4.66754 0
M  V30 9694 C 892.578 0.488288 -5.20013 0
M  V30 9695 H 894.272 0.00187041 -2.994 0
M  V30 9696 H 891.818 -0.000540402 -1.44 0
M  V30 9697 H 893.771 2.39199 -3.46932 0
M  V30 9698 H 892.495 2.38931 -2.22664 0
M  V30 9699 H 891.154 0.748519 -3.58877 0
M  V30 9700 H 890.802 3.20808 -3.87416 0
M  V30 9701 H 890.502 2.32942 -5.39455 0
M  V30 9702 H 892.026 3.23631 -5.1778 0
M  V30 9703 H 893.44 1.01298 -5.6428 0
M  V30 9704 H 891.837 0.303669 -5.99331 0
M  V30 9705 H 892.907 -0.490727 -4.8241 0
M  V30 9706 N 894.251 1.57596 -0.0117121 0
M  V30 9707 C 895.497 1.91355 0.671661 0
M  V30 9708 C 895.83 0.886818 1.72769 0
M  V30 9709 O 895.105 -0.0928813 1.94278 0
M  V30 9710 C 895.388 3.35657 1.30409 0
M  V30 9711 C 895.241 4.49055 0.2588 0
M  V30 9712 C 896.56 3.79595 2.22701 0
M  V30 9713 H 893.679 0.695893 0.242698 0
M  V30 9714 H 896.321 1.89887 -0.0654071 0
M  V30 9715 H 894.471 3.37038 1.9323 0
M  V30 9716 H 896.143 4.59809 -0.370631 0
M  V30 9717 H 894.386 4.31785 -0.417672 0
M  V30 9718 H 895.057 5.4701 0.740578 0
M  V30 9719 H 897.533 3.7984 1.69885 0
M  V30 9720 H 896.409 4.81292 2.63912 0
M  V30 9721 H 896.67 3.14118 3.11098 0
M  V30 9722 N 895.729 -0.261212 1.5542 0
M  V30 9723 C 896.954 -1.01341 1.80955 0
M  V30 9724 C 897.379 -1.78711 0.586849 0
M  V30 9725 O 896.737 -1.75266 -0.463837 0
M  V30 9726 C 896.785 -1.93835 3.04073 0
M  V30 9727 O 895.889 -3.02791 2.79985 0
M  V30 9728 H 895.23 -0.289123 0.597749 0
M  V30 9729 H 897.76 -0.286543 2.02584 0
M  V30 9730 H 897.77 -2.3557 3.33123 0
M  V30 9731 H 896.445 -1.36936 3.9271 0
M  V30 9732 H 895.022 -2.65287 2.62063 0
M  V30 9733 N 897.207 -1.48554 -0.526253 0
M  V30 9734 C 898.437 -1.60197 -1.30463 0
M  V30 9735 C 898.845 -0.26278 -1.87366 0
M  V30 9736 O 898.188 0.758537 -1.67308 0
M  V30 9737 C 898.25 -2.59223 -2.49085 0
M  V30 9738 C 897.914 -4.04199 -2.13241 0
M  V30 9739 C 898.911 -4.91771 -1.68694 0
M  V30 9740 C 896.596 -4.49762 -2.2365 0
M  V30 9741 C 898.59 -6.22934 -1.35026 0
M  V30 9742 C 896.277 -5.80945 -1.89594 0
M  V30 9743 C 897.275 -6.67354 -1.45353 0
M  V30 9744 O 896.963 -7.96096 -1.11745 0
M  V30 9745 H 896.695 -0.54284 -0.402866 0
M  V30 9746 H 899.249 -1.95137 -0.641157 0
M  V30 9747 H 897.479 -2.19412 -3.18426 0
M  V30 9748 H 899.168 -2.60661 -3.11144 0
M  V30 9749 H 899.934 -4.57806 -1.6012 0
M  V30 9750 H 895.813 -3.8269 -2.5704 0
M  V30 9751 H 899.357 -6.90334 -1.00422 0
M  V30 9752 H 895.254 -6.14444 -1.9781 0
M  V30 9753 H 896.022 -8.08882 -1.25111 0
M  V30 9754 N 898.685 0.775411 -1.37205 0
M  V30 9755 C 899.913 1.56446 -1.35397 0
M  V30 9756 C 900.328 1.887 0.0615437 0
M  V30 9757 O 899.685 1.51178 1.02233 0
M  V30 9758 C 899.736 2.87697 -2.18889 0
M  V30 9759 O 899.457 2.56828 -3.54924 0
M  V30 9760 C 900.958 3.81944 -2.25019 0
M  V30 9761 H 898.178 0.484792 -0.463916 0
M  V30 9762 H 900.722 0.961346 -1.80495 0
M  V30 9763 H 898.877 3.44442 -1.7731 0
M  V30 9764 H 899.291 3.40851 -3.98649 0
M  V30 9765 H 900.765 4.71055 -2.87769 0
M  V30 9766 H 901.242 4.20811 -1.25757 0
M  V30 9767 H 901.848 3.3113 -2.66895 0
M  V30 9768 N 900.163 1.21714 1.00117 0
M  V30 9769 C 901.412 1.03087 1.73367 0
M  V30 9770 C 901.725 -0.435532 1.90689 0
M  V30 9771 O 902.931 -0.741291 2.61184 0
M  V30 9772 C 901.387 1.79593 3.11888 0
M  V30 9773 C 900.995 3.30428 3.02525 0
M  V30 9774 C 902.739 1.69386 3.89241 0
M  V30 9775 C 900.646 3.99408 4.3615 0
M  V30 9776 H 899.576 0.382117 0.650002 0
M  V30 9777 H 902.227 1.45486 1.11831 0
M  V30 9778 H 900.609 1.29988 3.74058 0
M  V30 9779 H 901.783 3.87364 2.49571 0
M  V30 9780 H 900.098 3.4122 2.38659 0
M  V30 9781 H 902.695 2.18251 4.8813 0
M  V30 9782 H 903.038 0.652773 4.1115 0
M  V30 9783 H 903.571 2.16489 3.33733 0
M  V30 9784 H 900.31 5.03735 4.19442 0
M  V30 9785 H 899.83 3.47261 4.8905 0
M  V30 9786 H 901.509 4.04537 5.04934 0
M  V30 9787 N 901.641 -1.19671 1.02551 0
M  V30 9788 C 902.588 -2.22773 0.603394 0
M  V30 9789 C 903.558 -1.61669 -0.381081 0
M  V30 9790 O 904.743 -1.88756 -0.278505 0
M  V30 9791 C 901.883 -3.45073 -0.0431034 0
M  V30 9792 C 900.996 -4.20574 0.987006 0
M  V30 9793 C 900.131 -5.30291 0.310626 0
M  V30 9794 C 899.17 -5.97545 1.32688 0
M  V30 9795 N 898.307 -6.98833 0.676542 0
M  V30 9796 H 903.147 -2.58238 1.48719 0
M  V30 9797 H 900.684 -1.26881 0.744286 0
M  V30 9798 H 902.642 -4.14925 -0.435141 0
M  V30 9799 H 901.272 -3.10274 -0.890495 0
M  V30 9800 H 900.324 -3.497 1.49713 0
M  V30 9801 H 901.636 -4.66736 1.75952 0
M  V30 9802 H 900.79 -6.06547 -0.136438 0
M  V30 9803 H 899.529 -4.8519 -0.49412 0
M  V30 9804 H 898.534 -5.20043 1.78424 0
M  V30 9805 H 899.759 -6.4473 2.13306 0
M  V30 9806 H 897.705 -6.55911 -0.108172 0
M  V30 9807 H 897.622 -7.43168 1.38699 0
M  V30 9808 H 898.89 -7.79088 0.253367 0
M  V30 9809 N 903.119 -0.802921 -1.35613 0
M  V30 9810 C 904.049 -0.225131 -2.32412 0
M  V30 9811 C 905.03 0.647383 -1.57299 0
M  V30 9812 O 906.215 0.578414 -1.85386 0
M  V30 9813 C 903.345 0.630085 -3.41537 0
M  V30 9814 C 902.299 -0.143635 -4.27759 0
M  V30 9815 C 901.625 0.833046 -5.28171 0
M  V30 9816 C 902.925 -1.34054 -5.04804 0
M  V30 9817 H 904.619 -1.03385 -2.80984 0
M  V30 9818 H 902.165 -0.498593 -1.35093 0
M  V30 9819 H 904.118 1.04433 -4.08254 0
M  V30 9820 H 902.842 1.47165 -2.91565 0
M  V30 9821 H 901.501 -0.539015 -3.62616 0
M  V30 9822 H 901.149 1.67001 -4.74468 0
M  V30 9823 H 900.849 0.319697 -5.8673 0
M  V30 9824 H 902.373 1.24558 -5.97761 0
M  V30 9825 H 903.787 -1.00136 -5.64487 0
M  V30 9826 H 902.184 -1.78812 -5.72841 0
M  V30 9827 H 903.254 -2.12906 -4.35659 0
M  V30 9828 N 904.597 1.47463 -0.556102 0
M  V30 9829 C 905.822 2.07371 -0.0344729 0
M  V30 9830 C 906.247 1.40621 1.2493 0
M  V30 9831 O 905.605 0.48082 1.74808 0
M  V30 9832 C 905.653 3.60306 0.145563 0
M  V30 9833 O 904.757 3.94299 1.20839 0
M  V30 9834 H 904.098 0.662052 -0.0508274 0
M  V30 9835 H 906.628 1.89498 -0.771469 0
M  V30 9836 H 906.638 4.06408 0.360112 0
M  V30 9837 H 905.313 4.08288 -0.792089 0
M  V30 9838 H 903.89 3.59944 0.97442 0
M  V30 9839 N 906.075 0.2925 1.54862 0
M  V30 9840 C 907.025 -0.60226 2.19902 0
M  V30 9841 C 908.009 -1.10535 1.16923 0
M  V30 9842 O 909.201 -1.04753 1.42674 0
M  V30 9843 C 906.33 -1.77774 2.93686 0
M  V30 9844 C 905.416 -1.29101 4.03972 0
M  V30 9845 N 905.807 -0.521671 5.03103 0
M  V30 9846 C 904.105 -1.57248 4.17359 0
M  V30 9847 C 904.806 -0.263545 5.81103 0
M  V30 9848 N 903.782 -0.840937 5.37056 0
M  V30 9849 H 907.584 -0.00682274 2.93899 0
M  V30 9850 H 905.098 0.0968604 1.62111 0
M  V30 9851 H 907.095 -2.43021 3.38743 0
M  V30 9852 H 905.755 -2.37696 2.21203 0
M  V30 9853 H 906.766 -0.167364 5.1763 0
M  V30 9854 H 903.443 -2.1798 3.56077 0
M  V30 9855 H 904.833 0.353783 6.70968 0
M  V30 9856 N 907.553 -1.57587 0.0200696 0
M  V30 9857 C 908.83 -1.82696 -0.698677 0
M  V30 9858 C 909.21 -0.902082 -1.90855 0
M  V30 9859 O 908.558 0.0444834 -2.28457 0
M  V30 9860 C 908.768 -3.31691 -1.08546 0
M  V30 9861 C 910.116 -3.97938 -1.4809 0
M  V30 9862 O 911.14 -3.36133 -1.17869 0
M  V30 9863 O 909.999 -5.06851 -2.04364 0
M  V30 9864 H 907.093 -0.752997 -0.341942 0
M  V30 9865 H 909.639 -1.69635 0.04706 0
M  V30 9866 H 908.411 -3.90659 -0.223956 0
M  V30 9867 H 908.034 -3.49825 -1.88965 0
M  V30 9868 N 909.032 0.252966 -1.55557 0
M  V30 9869 C 910.443 0.822503 -1.67606 0
M  V30 9870 C 910.794 1.86265 -0.616411 0
M  V30 9871 O 909.919 2.15082 0.238447 0
M  V30 9872 C 910.514 1.49866 -3.03852 0
M  V30 9873 C 909.073 2.01597 -3.17861 0
M  V30 9874 C 908.22 0.864943 -2.63465 0
M  V30 9875 H 911.171 0.0288958 -1.58674 0
M  V30 9876 H 911.192 2.36646 -2.97958 0
M  V30 9877 H 910.704 0.741378 -3.80953 0
M  V30 9878 H 908.805 2.80224 -2.45571 0
M  V30 9879 H 908.918 2.21752 -4.24692 0
M  V30 9880 H 907.282 1.2638 -2.21134 0
M  V30 9881 H 908.065 0.120847 -3.43087 0
M  V30 9882 N 910.51 1.48831 0.518367 0
M  V30 9883 C 911.759 1.5669 1.27008 0
M  V30 9884 C 912.072 0.250934 1.93984 0
M  V30 9885 O 913.278 0.207884 2.70703 0
M  V30 9886 C 911.734 2.76387 2.30517 0
M  V30 9887 C 911.342 4.14673 1.69559 0
M  V30 9888 C 913.086 2.93566 3.06625 0
M  V30 9889 C 910.993 5.25616 2.71076 0
M  V30 9890 H 909.923 0.583362 0.477708 0
M  V30 9891 H 912.574 1.75187 0.546052 0
M  V30 9892 H 910.956 2.51348 3.06006 0
M  V30 9893 H 912.13 4.49779 1.00179 0
M  V30 9894 H 910.445 4.02708 1.05902 0
M  V30 9895 H 913.042 3.7362 3.82508 0
M  V30 9896 H 913.385 2.03462 3.63193 0
M  V30 9897 H 913.918 3.18562 2.38251 0
M  V30 9898 H 910.657 6.17723 2.19313 0
M  V30 9899 H 910.177 4.94985 3.38748 0
M  V30 9900 H 911.856 5.5422 3.3384 0
M  V30 9901 N 911.988 -0.768124 1.37614 0
M  V30 9902 C 912.898 -1.91249 1.35871 0
M  V30 9903 C 913.914 -1.7208 0.257786 0
M  V30 9904 O 915.09 -1.95253 0.493782 0
M  V30 9905 C 912.155 -3.26423 1.16829 0
M  V30 9906 C 911.216 -3.5822 2.36594 0
M  V30 9907 C 910.449 -4.86945 2.1845 0
M  V30 9908 O 910.672 -5.58258 1.17064 0
M  V30 9909 O 909.606 -5.17888 3.06718 0
M  V30 9910 H 913.432 -1.95671 2.32264 0
M  V30 9911 H 911.017 -0.911382 1.18382 0
M  V30 9912 H 912.899 -4.07269 1.08212 0
M  V30 9913 H 911.574 -3.22845 0.235123 0
M  V30 9914 H 910.481 -2.77594 2.50783 0
M  V30 9915 H 911.814 -3.66545 3.2849 0
M  V30 9916 N 913.466 -1.22244 -0.994698 0
M  V30 9917 C 914.696 -1.07062 -1.76695 0
M  V30 9918 C 915.104 0.381895 -1.85306 0
M  V30 9919 O 914.447 1.27648 -1.32105 0
M  V30 9920 C 914.509 -1.60487 -3.2169 0
M  V30 9921 C 914.173 -3.09079 -3.36629 0
M  V30 9922 C 915.17 -4.06526 -3.24088 0
M  V30 9923 C 912.855 -3.48497 -3.61739 0
M  V30 9924 C 914.849 -5.41377 -3.36437 0
M  V30 9925 C 912.536 -4.83498 -3.73729 0
M  V30 9926 C 913.534 -5.79747 -3.61086 0
M  V30 9927 O 913.222 -7.12297 -3.72678 0
M  V30 9928 H 912.954 -0.375963 -0.561807 0
M  V30 9929 H 915.508 -1.62259 -1.25941 0
M  V30 9930 H 913.738 -0.996957 -3.73628 0
M  V30 9931 H 915.427 -1.40994 -3.80625 0
M  V30 9932 H 916.193 -3.77415 -3.04602 0
M  V30 9933 H 912.072 -2.74106 -3.70657 0
M  V30 9934 H 915.616 -6.16485 -3.26485 0
M  V30 9935 H 911.513 -5.1229 -3.92721 0
M  V30 9936 H 912.281 -7.1985 -3.89562 0
M  V30 9937 N 914.944 1.19125 -1.03184 0
M  V30 9938 C 915.874 2.24675 -0.635889 0
M  V30 9939 C 916.855 1.66321 0.356565 0
M  V30 9940 O 918.04 1.92728 0.238625 0
M  V30 9941 C 915.17 3.47298 0.011069 0
M  V30 9942 C 914.124 4.18345 -0.903979 0
M  V30 9943 C 913.45 5.34561 -0.12197 0
M  V30 9944 C 914.75 4.72816 -2.21907 0
M  V30 9945 H 916.444 2.5805 -1.51825 0
M  V30 9946 H 913.99 1.24039 -0.73146 0
M  V30 9947 H 915.943 4.20333 0.299729 0
M  V30 9948 H 914.667 3.13131 0.928245 0
M  V30 9949 H 913.326 3.47196 -1.17688 0
M  V30 9950 H 912.974 4.9664 0.797334 0
M  V30 9951 H 912.674 5.83029 -0.731498 0
M  V30 9952 H 914.198 6.10391 0.159881 0
M  V30 9953 H 915.612 5.3759 -1.99173 0
M  V30 9954 H 914.009 5.31782 -2.78078 0
M  V30 9955 H 915.079 3.9072 -2.87168 0
M  V30 9956 N 916.422 0.810101 1.35185 0
M  V30 9957 C 917.352 0.237453 2.32289 0
M  V30 9958 C 918.333 -0.639032 1.5764 0
M  V30 9959 O 919.518 -0.568575 1.8569 0
M  V30 9960 C 916.648 -0.611964 3.41866 0
M  V30 9961 C 915.602 0.166318 4.27677 0
M  V30 9962 C 914.928 -0.805024 5.28605 0
M  V30 9963 C 916.228 1.36729 5.04086 0
M  V30 9964 H 917.922 1.04874 2.80432 0
M  V30 9965 H 915.468 0.505751 1.34826 0
M  V30 9966 H 917.421 -1.02267 4.08802 0
M  V30 9967 H 916.145 -1.45617 2.92341 0
M  V30 9968 H 914.804 0.558238 3.62325 0
M  V30 9969 H 914.452 -1.64483 4.75347 0
M  V30 9970 H 914.152 -0.288577 5.86891 0
M  V30 9971 H 915.676 -1.21386 5.98413 0
M  V30 9972 H 917.09 1.03128 5.63948 0
M  V30 9973 H 915.487 1.81848 5.71884 0
M  V30 9974 H 916.557 2.15214 4.34524 0
M  V30 9975 N 917.9 -1.47166 0.563914 0
M  V30 9976 C 918.81 -2.33885 -0.182977 0
M  V30 9977 C 919.826 -1.48605 -0.905132 0
M  V30 9978 O 921.002 -1.81518 -0.872527 0
M  V30 9979 C 918.067 -3.25433 -1.19558 0
M  V30 9980 C 917.128 -4.26607 -0.480129 0
M  V30 9981 C 916.361 -5.1378 -1.44449 0
M  V30 9982 O 916.584 -5.03531 -2.67979 0
M  V30 9983 O 915.518 -5.94109 -0.965321 0
M  V30 9984 H 919.344 -2.99065 0.528544 0
M  V30 9985 H 916.929 -1.45834 0.324468 0
M  V30 9986 H 918.811 -3.81964 -1.77993 0
M  V30 9987 H 917.486 -2.62873 -1.8889 0
M  V30 9988 H 916.393 -3.73817 0.145583 0
M  V30 9989 H 917.726 -4.919 0.171868 0
M  V30 9990 N 919.378 -0.300708 -1.54705 0
M  V30 9991 C 920.31 0.609179 -2.20956 0
M  V30 9992 C 921.323 1.09776 -1.20221 0
M  V30 9993 O 922.512 1.01527 -1.46815 0
M  V30 9994 C 919.612 1.84595 -2.84214 0
M  V30 9995 C 918.785 1.49991 -4.10879 0
M  V30 9996 C 917.844 2.5918 -4.57943 0
M  V30 9997 O 916.87 2.24285 -5.23149 0
M  V30 9998 N 918.072 3.89714 -4.30236 0
M  V30 9999 H 920.837 0.0420111 -2.99671 0
M  V30 10000 H 918.398 -0.122896 -1.61433 0
M  V30 10001 H 920.39 2.56988 -3.12633 0
M  V30 10002 H 918.96 2.32152 -2.09342 0
M  V30 10003 H 918.18 0.608637 -3.89473 0
M  V30 10004 H 919.468 1.24409 -4.93356 0
M  V30 10005 H 918.866 4.20874 -3.77997 0
M  V30 10006 H 917.423 4.58406 -4.63365 0
M  V30 10007 N 920.856 1.57574 -0.0284266 0
M  V30 10008 C 922.105 1.9095 0.649704 0
M  V30 10009 C 922.418 0.906421 1.7333 0
M  V30 10010 O 923.624 1.1314 2.46803 0
M  V30 10011 C 922.08 3.39061 1.20687 0
M  V30 10012 C 921.688 4.47726 0.156597 0
M  V30 10013 C 923.432 3.81505 1.86156 0
M  V30 10014 C 921.339 5.86935 0.725365 0
M  V30 10015 H 920.269 0.712589 0.24644 0
M  V30 10016 H 922.92 1.83261 -0.0936143 0
M  V30 10017 H 921.302 3.41679 2.00178 0
M  V30 10018 H 922.476 4.56667 -0.6158 0
M  V30 10019 H 920.791 4.14481 -0.399288 0
M  V30 10020 H 923.388 4.82865 2.29665 0
M  V30 10021 H 923.731 3.16529 2.70398 0
M  V30 10022 H 924.264 3.81307 1.13356 0
M  V30 10023 H 921.003 6.55453 -0.0789081 0
M  V30 10024 H 920.523 5.81602 1.46627 0
M  V30 10025 H 922.202 6.35483 1.21532 0
M  V30 10026 N 922.334 -0.244713 1.55689 0
M  V30 10027 C 923.266 -1.32595 1.86952 0
M  V30 10028 C 924.279 -1.44185 0.755948 0
M  V30 10029 O 925.468 -1.45496 1.03408 0
M  V30 10030 C 922.568 -2.70429 2.04258 0
M  V30 10031 C 921.741 -2.8108 3.35131 0
M  V30 10032 C 920.8 -3.99773 3.42152 0
M  V30 10033 O 919.826 -3.89197 4.15348 0
M  V30 10034 N 921.028 -5.13041 2.71604 0
M  V30 10035 H 923.793 -1.06111 2.80287 0
M  V30 10036 H 921.354 -0.434811 1.55952 0
M  V30 10037 H 923.346 -3.48173 2.06295 0
M  V30 10038 H 921.916 -2.89612 1.17658 0
M  V30 10039 H 921.136 -1.89994 3.45392 0
M  V30 10040 H 922.424 -2.85147 4.21389 0
M  V30 10041 H 921.822 -5.24525 2.11872 0
M  V30 10042 H 920.379 -5.88912 2.79331 0
M  V30 10043 N 923.813 -1.49104 -0.510467 0
M  V30 10044 C 924.761 -1.65547 -1.63392 0
M  V30 10045 C 925.755 -0.521522 -1.61172 0
M  V30 10046 O 926.961 -0.700865 -1.65795 0
M  V30 10047 H 923.336 -0.521843 -0.541464 0
M  V30 10048 H 925.307 -2.59864 -1.46673 0
M  V30 10049 C 924.056 -1.73051 -3.01577 0
M  V30 10050 H 923.379 -2.59676 -3.03987 0
M  V30 10051 H 924.819 -1.88594 -3.79748 0
M  V30 10052 C 923.278 -0.47328 -3.33559 0
M  V30 10053 O 923.808 0.405239 -3.99651 0
M  V30 10054 N 922.014 -0.339074 -2.88615 0
M  V30 10055 H 921.561 -1.05497 -2.35007 0
M  V30 10056 H 921.519 0.501061 -3.10382 0
M  V30 10057 N 925.291 0.760815 -1.38019 0
M  V30 10058 C 926.221 1.88811 -1.37377 0
M  V30 10059 C 927.202 1.68388 -0.240737 0
M  V30 10060 O 928.387 1.89086 -0.442739 0
M  V30 10061 C 925.517 3.26244 -1.1909 0
M  V30 10062 C 924.471 3.61254 -2.29521 0
M  V30 10063 C 923.797 4.97346 -1.96345 0
M  V30 10064 C 925.097 3.66874 -3.71753 0
M  V30 10065 H 926.791 1.89606 -2.31711 0
M  V30 10066 H 924.337 0.910818 -1.11535 0
M  V30 10067 H 926.29 4.04755 -1.17267 0
M  V30 10068 H 925.014 3.2591 -0.212152 0
M  V30 10069 H 923.673 2.85057 -2.30517 0
M  V30 10070 H 923.321 4.93564 -0.969728 0
M  V30 10071 H 923.021 5.21739 -2.703 0
M  V30 10072 H 924.545 5.78244 -1.96129 0
M  V30 10073 H 925.959 4.35514 -3.72828 0
M  V30 10074 H 924.356 4.02772 -4.44853 0
M  V30 10075 H 925.426 2.67273 -4.0459 0
M  V30 10076 N 926.769 1.22769 0.988202 0
M  V30 10077 C 927.719 0.969202 2.06375 0
M  V30 10078 C 928.703 -0.0819274 1.60691 0
M  V30 10079 O 929.895 0.129201 1.76528 0
M  V30 10080 C 927.024 0.553919 3.38802 0
M  V30 10081 C 926.11 1.64003 3.91106 0
M  V30 10082 N 926.501 2.86872 4.16579 0
M  V30 10083 C 924.799 1.5128 4.1956 0
M  V30 10084 C 925.5 3.57137 4.5916 0
M  V30 10085 N 924.476 2.84624 4.63131 0
M  V30 10086 H 928.278 1.90247 2.24017 0
M  V30 10087 H 925.792 1.12592 1.17033 0
M  V30 10088 H 927.789 0.350033 4.15428 0
M  V30 10089 H 926.449 -0.37239 3.22558 0
M  V30 10090 H 927.46 3.23254 4.04632 0
M  V30 10091 H 924.137 0.653032 4.12361 0
M  V30 10092 H 925.527 4.62428 4.87452 0
M  V30 10093 N 928.247 -1.18576 1.03814 0
M  V30 10094 C 929.663 -1.4051 0.756909 0
M  V30 10095 C 929.863 -1.9057 -0.654631 0
M  V30 10096 O 928.919 -2.0884 -1.41922 0
M  V30 10097 C 930.232 -2.4081 1.80087 0
M  V30 10098 C 931.78 -2.54541 1.82148 0
M  V30 10099 C 932.255 -3.58102 2.85529 0
M  V30 10100 N 933.746 -3.65607 2.84404 0
M  V30 10101 C 934.481 -4.45458 3.61047 0
M  V30 10102 N 933.977 -5.28937 4.47434 0
M  V30 10103 N 935.77 -4.40196 3.49548 0
M  V30 10104 H 927.921 -0.844075 1.94908 0
M  V30 10105 H 930.184 -0.433287 0.843188 0
M  V30 10106 H 929.89 -2.1107 2.81322 0
M  V30 10107 H 929.764 -3.4012 1.63089 0
M  V30 10108 H 932.151 -2.83598 0.815855 0
M  V30 10109 H 932.232 -1.55352 2.03223 0
M  V30 10110 H 931.876 -3.29786 3.86269 0
M  V30 10111 H 931.806 -4.56963 2.6171 0
M  V30 10112 H 934.297 -3.05994 2.21756 0
M  V30 10113 H 934.61 -5.8701 5.02632 0
M  V30 10114 H 932.955 -5.28366 4.51503 0
M  V30 10115 H 936.146 -3.74026 2.81464 0
M  V30 10116 H 936.319 -5.02186 4.09528 0
M  V30 10117 N 929.725 -0.817259 -1.34754 0
M  V30 10118 C 930.971 -0.403244 -1.98751 0
M  V30 10119 C 931.304 1.02963 -1.64658 0
M  V30 10120 O 930.579 1.71617 -0.915314 0
M  V30 10121 C 930.862 -0.599188 -3.5508 0
M  V30 10122 C 930.715 -2.07777 -3.98934 0
M  V30 10123 C 932.034 -0.0315656 -4.40089 0
M  V30 10124 H 929.153 -0.147988 -0.721989 0
M  V30 10125 H 931.795 -1.02877 -1.59738 0
M  V30 10126 H 929.945 -0.0667116 -3.88443 0
M  V30 10127 H 931.617 -2.67345 -3.75931 0
M  V30 10128 H 929.86 -2.57031 -3.49453 0
M  V30 10129 H 930.531 -2.16571 -5.07741 0
M  V30 10130 H 933.007 -0.48644 -4.13247 0
M  V30 10131 H 931.883 -0.198507 -5.48541 0
M  V30 10132 H 932.144 1.06302 -4.2913 0
M  V30 10133 N 931.203 1.46865 -0.571711 0
M  V30 10134 C 932.431 2.06818 -0.0583975 0
M  V30 10135 C 932.846 1.42218 1.24175 0
M  V30 10136 O 932.203 0.523655 1.74826 0
M  V30 10137 C 932.254 3.61281 0.125673 0
M  V30 10138 O 931.975 4.23462 -1.123 0
M  V30 10139 C 933.476 4.38137 0.674604 0
M  V30 10140 H 930.696 0.668948 -0.052438 0
M  V30 10141 H 933.24 1.88656 -0.789251 0
M  V30 10142 H 931.395 3.78908 0.806707 0
M  V30 10143 H 931.809 5.16192 -0.929869 0
M  V30 10144 H 933.283 5.46845 0.752626 0
M  V30 10145 H 933.76 4.05419 1.68915 0
M  V30 10146 H 934.366 4.2529 0.0287979 0
M  V30 10147 N 932.681 0.308908 1.54543 0
M  V30 10148 C 933.611 -0.556657 2.26768 0
M  V30 10149 C 934.592 -1.13145 1.27013 0
M  V30 10150 O 935.777 -1.15931 1.558 0
M  V30 10151 C 932.907 -1.72481 3.01443 0
M  V30 10152 C 931.861 -1.28001 4.08411 0
M  V30 10153 C 931.187 -2.53395 4.70845 0
M  V30 10154 C 932.487 -0.405497 5.20724 0
M  V30 10155 H 934.181 0.0457618 2.99365 0
M  V30 10156 H 931.727 0.0234495 1.43981 0
M  V30 10157 H 933.68 -2.3365 3.50693 0
M  V30 10158 H 932.404 -2.35359 2.26437 0
M  V30 10159 H 931.063 -0.69133 3.60022 0
M  V30 10160 H 930.711 -3.14604 3.92471 0
M  V30 10161 H 930.411 -2.2433 5.43093 0
M  V30 10162 H 931.935 -3.15352 5.22863 0
M  V30 10163 H 933.349 -0.923076 5.6582 0
M  V30 10164 H 931.746 -0.208282 5.99738 0
M  V30 10165 H 932.816 0.567412 4.81569 0
M  V30 10166 N 934.159 -1.57557 0.0367827 0
M  V30 10167 C 935.122 -2.09591 -0.927589 0
M  V30 10168 C 936.122 -1.01252 -1.24919 0
M  V30 10169 O 937.312 -1.27382 -1.18825 0
M  V30 10170 C 934.444 -2.56816 -2.24184 0
M  V30 10171 H 935.637 -2.96086 -0.476784 0
M  V30 10172 H 933.19 -1.54864 -0.211385 0
M  V30 10173 H 933.925 -1.73673 -2.73876 0
M  V30 10174 H 933.71 -3.35973 -2.0215 0
M  V30 10175 H 935.2 -2.97271 -2.93291 0
M  V30 10176 N 935.637 0.236453 -1.55816 0
M  V30 10177 C 936.547 1.31418 -1.94336 0
M  V30 10178 C 937.563 1.52095 -0.845164 0
M  V30 10179 O 938.739 1.65515 -1.14746 0
M  V30 10180 C 935.804 2.6468 -2.23932 0
M  V30 10181 C 934.865 2.52435 -3.47239 0
M  V30 10182 C 934.098 3.79342 -3.75414 0
M  V30 10183 O 934.321 4.81694 -3.05495 0
M  V30 10184 O 933.255 3.77347 -4.68927 0
M  V30 10185 H 937.081 1.01739 -2.86152 0
M  V30 10186 H 934.666 0.438084 -1.42833 0
M  V30 10187 H 936.548 3.4341 -2.44228 0
M  V30 10188 H 935.223 2.94071 -1.35292 0
M  V30 10189 H 934.13 1.71955 -3.32238 0
M  V30 10190 H 935.463 2.27987 -4.36214 0
M  V30 10191 N 937.115 1.49373 0.502552 0
M  V30 10192 C 938.363 1.58467 1.25429 0
M  V30 10193 C 938.684 0.272593 1.93085 0
M  V30 10194 O 937.954 -0.707947 1.82661 0
M  V30 10195 H 936.534 0.583866 0.46595 0
M  V30 10196 H 939.196 1.8599 0.582568 0
M  V30 10197 H 938.292 2.37993 2.01906 0
M  V30 10198 N 938.594 -0.753485 1.38421 0
M  V30 10199 C 939.822 -1.54272 1.37868 0
M  V30 10200 C 940.237 -1.88774 -0.0315155 0
M  V30 10201 O 939.594 -1.52785 -0.998148 0
M  V30 10202 C 939.645 -2.84179 2.23438 0
M  V30 10203 O 939.366 -2.51149 3.58965 0
M  V30 10204 C 940.867 -3.78316 2.31067 0
M  V30 10205 H 938.087 -0.47735 0.47157 0
M  V30 10206 H 940.631 -0.932509 1.82001 0
M  V30 10207 H 938.786 -3.41577 1.82767 0
M  V30 10208 H 939.2 -3.34466 4.04021 0
M  V30 10209 H 940.674 -4.66418 2.95226 0
M  V30 10210 H 941.151 -4.18757 1.32436 0
M  V30 10211 H 941.757 -3.26842 2.72129 0
M  V30 10212 N 940.072 -1.23292 -0.981677 0
M  V30 10213 C 941.3 -1.09088 -1.75805 0
M  V30 10214 C 941.715 0.357746 -1.8538 0
M  V30 10215 O 941.072 1.24751 -1.33205 0
M  V30 10216 C 941.123 -1.70885 -3.1856 0
M  V30 10217 O 940.844 -3.10082 -3.09484 0
M  V30 10218 C 942.345 -1.62106 -4.12597 0
M  V30 10219 H 939.565 -0.38184 -0.55176 0
M  V30 10220 H 942.109 -1.63116 -1.23342 0
M  V30 10221 H 940.264 -1.20893 -3.68054 0
M  V30 10222 H 940.678 -3.40039 -3.99342 0
M  V30 10223 H 942.152 -2.10049 -5.10474 0
M  V30 10224 H 942.629 -0.579642 -4.35358 0
M  V30 10225 H 943.235 -2.11457 -3.69007 0
M  V30 10226 N 941.55 1.18024 -1.04442 0
M  V30 10227 C 942.513 2.19992 -0.643136 0
M  V30 10228 C 943.513 1.57949 0.301444 0
M  V30 10229 O 944.703 1.73986 0.0863341 0
M  V30 10230 C 941.835 3.40853 0.0565208 0
M  V30 10231 H 943.028 2.57008 -1.54554 0
M  V30 10232 H 940.581 1.31974 -0.837408 0
M  V30 10233 H 941.316 3.09373 0.972553 0
M  V30 10234 H 941.101 3.87128 -0.622439 0
M  V30 10235 H 942.591 4.16344 0.323652 0
M  V30 10236 N 943.028 0.824394 1.34319 0
M  V30 10237 C 944.444 0.510336 1.51221 0
M  V30 10238 C 944.644 -0.965201 1.76879 0
M  V30 10239 O 943.7 -1.74961 1.82057 0
M  V30 10240 C 945.013 1.37114 2.6762 0
M  V30 10241 C 946.561 1.36842 2.81502 0
M  V30 10242 C 947.036 2.21374 4.00946 0
M  V30 10243 N 948.527 2.19005 4.08156 0
M  V30 10244 C 949.262 2.81159 4.99737 0
M  V30 10245 N 948.758 3.52309 5.96532 0
M  V30 10246 N 950.551 2.70706 4.9262 0
M  V30 10247 H 942.702 1.77976 1.15924 0
M  V30 10248 H 944.965 0.758503 0.568663 0
M  V30 10249 H 944.671 2.41905 2.55294 0
M  V30 10250 H 944.545 1.03689 3.62669 0
M  V30 10251 H 946.932 0.328284 2.93268 0
M  V30 10252 H 947.013 1.74265 1.87257 0
M  V30 10253 H 946.657 3.25437 3.8994 0
M  V30 10254 H 946.587 1.813 4.94407 0
M  V30 10255 H 949.078 1.67252 3.38874 0
M  V30 10256 H 949.391 3.96977 6.63045 0
M  V30 10257 H 947.736 3.56415 5.96652 0
M  V30 10258 H 950.927 2.14694 4.15962 0
M  V30 10259 H 951.1 3.19431 5.63798 0
M  V30 10260 N 944.506 -1.46559 0.579492 0
M  V30 10261 C 945.736 -2.06484 0.0692642 0
M  V30 10262 C 946.144 -1.4293 -1.23967 0
M  V30 10263 O 945.487 -0.527632 -1.75959 0
M  V30 10264 C 945.549 -3.59078 -0.174174 0
M  V30 10265 C 945.213 -4.44805 1.04867 0
M  V30 10266 C 946.21 -4.81543 1.95991 0
M  V30 10267 C 943.895 -4.8599 1.26961 0
M  V30 10268 C 945.889 -5.58288 3.0756 0
M  V30 10269 C 943.576 -5.62495 2.38836 0
M  V30 10270 C 944.574 -5.98558 3.28964 0
M  V30 10271 O 944.262 -6.73518 4.38896 0
M  V30 10272 H 943.994 -0.673917 0.0530331 0
M  V30 10273 H 946.548 -1.89223 0.79898 0
M  V30 10274 H 944.778 -3.74634 -0.958464 0
M  V30 10275 H 946.467 -4.00941 -0.632515 0
M  V30 10276 H 947.233 -4.50307 1.80136 0
M  V30 10277 H 943.112 -4.57372 0.577184 0
M  V30 10278 H 946.656 -5.86355 3.77933 0
M  V30 10279 H 942.553 -5.93145 2.54655 0
M  V30 10280 H 943.321 -6.91938 4.37223 0
M  V30 10281 N 945.984 -0.3171 -1.54377 0
M  V30 10282 C 947.209 0.292311 -2.0533 0
M  V30 10283 C 947.634 1.45503 -1.19207 0
M  V30 10284 O 946.992 1.80197 -0.199721 0
M  V30 10285 C 947.04 0.710787 -3.53525 0
M  V30 10286 O 946.144 1.81387 -3.70368 0
M  V30 10287 H 945.485 0.0539976 -0.661801 0
M  V30 10288 H 948.015 -0.463629 -1.99278 0
M  V30 10289 H 948.025 0.995216 -3.95676 0
M  V30 10290 H 946.7 -0.139668 -4.15665 0
M  V30 10291 H 945.277 1.52875 -3.40123 0
M  V30 10292 N 947.462 1.57535 -0.0451378 0
M  V30 10293 C 948.425 2.1008 0.916461 0
M  V30 10294 C 949.425 1.01913 1.2438 0
M  V30 10295 O 950.615 1.2801 1.18148 0
M  V30 10296 C 947.747 2.58001 2.22818 0
M  V30 10297 H 948.94 2.96334 0.461076 0
M  V30 10298 H 946.493 1.54974 0.203169 0
M  V30 10299 H 947.228 1.75123 2.72951 0
M  V30 10300 H 947.013 3.3704 2.00366 0
M  V30 10301 H 948.503 2.98822 2.9171 0
M  V30 10302 N 948.94 -0.228186 1.55939 0
M  V30 10303 C 949.887 -1.28274 1.91871 0
M  V30 10304 C 950.857 -1.46906 0.775103 0
M  V30 10305 O 952.042 -1.60583 1.03042 0
M  V30 10306 C 949.182 -2.62945 2.23504 0
M  V30 10307 C 948.295 -2.52166 3.50766 0
M  V30 10308 C 947.43 -3.79316 3.71878 0
M  V30 10309 C 946.469 -3.63231 4.92676 0
M  V30 10310 N 945.606 -4.82315 5.10212 0
M  V30 10311 H 950.446 -0.96931 2.81795 0
M  V30 10312 H 947.983 -0.467331 1.39479 0
M  V30 10313 H 949.941 -3.41359 2.39854 0
M  V30 10314 H 948.571 -2.92397 1.36762 0
M  V30 10315 H 947.623 -1.65221 3.42646 0
M  V30 10316 H 948.935 -2.36199 4.39331 0
M  V30 10317 H 948.089 -4.66173 3.88288 0
M  V30 10318 H 946.828 -3.982 2.81581 0
M  V30 10319 H 945.833 -2.74757 4.76223 0
M  V30 10320 H 947.058 -3.45823 5.84451 0
M  V30 10321 H 945.004 -5.01526 4.22856 0
M  V30 10322 H 944.921 -4.6905 5.92898 0
M  V30 10323 H 946.189 -5.70618 5.31051 0
M  V30 10324 N 950.418 -1.49637 -0.494624 0
M  V30 10325 C 951.834 -1.36541 -0.826361 0
M  V30 10326 C 952.034 -0.403386 -1.97421 0
M  V30 10327 O 951.09 0.162614 -2.51976 0
M  V30 10328 C 952.403 -2.77401 -1.16057 0
M  V30 10329 C 953.951 -2.86148 -1.26841 0
M  V30 10330 C 954.426 -4.27789 -1.63587 0
M  V30 10331 N 955.917 -4.3063 -1.70624 0
M  V30 10332 C 956.652 -5.37198 -2.00514 0
M  V30 10333 N 956.148 -6.54004 -2.28584 0
M  V30 10334 N 957.941 -5.2462 -2.01818 0
M  V30 10335 H 950.092 -2.10776 0.26219 0
M  V30 10336 H 952.355 -0.946419 0.0547235 0
M  V30 10337 H 952.061 -3.49526 -0.390434 0
M  V30 10338 H 951.935 -3.1317 -2.10249 0
M  V30 10339 H 954.322 -2.14256 -2.02925 0
M  V30 10340 H 954.403 -2.53953 -0.30684 0
M  V30 10341 H 954.047 -5.00209 -0.880507 0
M  V30 10342 H 953.977 -4.57453 -2.60854 0
M  V30 10343 H 956.468 -3.46393 -1.51065 0
M  V30 10344 H 956.781 -7.31041 -2.50598 0
M  V30 10345 H 955.126 -6.57219 -2.26027 0
M  V30 10346 H 958.317 -4.32371 -1.79369 0
M  V30 10347 H 958.49 -6.07765 -2.24778 0
M  V30 10348 N 951.896 0.746133 -1.38819 0
M  V30 10349 C 952.828 1.86991 -1.3254 0
M  V30 10350 C 953.841 1.61077 -0.236216 0
M  V30 10351 O 955.03 1.71518 -0.494341 0
M  V30 10352 C 952.13 3.22786 -1.03258 0
M  V30 10353 C 951.303 3.76145 -2.23234 0
M  V30 10354 C 950.362 4.90474 -1.90581 0
M  V30 10355 O 949.388 5.04717 -2.63153 0
M  V30 10356 N 950.59 5.74015 -0.86525 0
M  V30 10357 H 953.355 1.92885 -2.2938 0
M  V30 10358 H 950.916 0.926392 -1.32776 0
M  V30 10359 H 952.908 3.96824 -0.794533 0
M  V30 10360 H 951.478 3.12231 -0.151895 0
M  V30 10361 H 950.698 2.93587 -2.63059 0
M  V30 10362 H 951.986 4.08528 -3.03285 0
M  V30 10363 H 951.384 5.65086 -0.263577 0
M  V30 10364 H 949.941 6.48168 -0.687087 0
M  V30 10365 N 953.375 1.23811 0.975125 0
M  V30 10366 C 954.323 1.02149 2.0897 0
M  V30 10367 C 955.317 -0.0412172 1.6935 0
M  V30 10368 O 956.523 0.112726 1.79647 0
M  V30 10369 H 952.898 0.313259 0.683647 0
M  V30 10370 H 954.869 1.96686 2.24404 0
M  V30 10371 C 953.618 0.635023 3.41852 0
M  V30 10372 H 952.941 1.44449 3.72793 0
M  V30 10373 H 954.381 0.52301 4.20762 0
M  V30 10374 C 952.84 -0.657207 3.30428 0
M  V30 10375 O 953.37 -1.70494 3.63723 0
M  V30 10376 N 951.576 -0.635122 2.83575 0
M  V30 10377 H 951.123 0.21784 2.56677 0
M  V30 10378 H 951.081 -1.49995 2.76313 0
M  V30 10379 N 954.853 -1.17469 1.05066 0
M  V30 10380 C 956.269 -1.39699 0.771769 0
M  V30 10381 C 956.469 -1.91253 -0.634382 0
M  V30 10382 O 955.525 -2.10334 -1.39699 0
M  V30 10383 C 956.838 -2.38886 1.82631 0
M  V30 10384 C 958.386 -2.52595 1.84838 0
M  V30 10385 C 958.861 -3.55054 2.89311 0
M  V30 10386 N 960.352 -3.6257 2.88266 0
M  V30 10387 C 961.087 -4.41603 3.65752 0
M  V30 10388 N 960.583 -5.24162 4.53019 0
M  V30 10389 N 962.376 -4.36464 3.54197 0
M  V30 10390 H 954.527 -0.823355 1.95792 0
M  V30 10391 H 956.79 -0.42432 0.847736 0
M  V30 10392 H 956.496 -2.08075 2.83545 0
M  V30 10393 H 956.37 -3.38371 1.66687 0
M  V30 10394 H 958.757 -2.82717 0.845888 0
M  V30 10395 H 958.838 -1.53188 2.04859 0
M  V30 10396 H 958.482 -3.2567 3.89745 0
M  V30 10397 H 958.412 -4.54162 2.66542 0
M  V30 10398 H 960.903 -3.03625 2.24989 0
M  V30 10399 H 961.216 -5.81646 5.0883 0
M  V30 10400 H 959.561 -5.23547 4.57081 0
M  V30 10401 H 962.752 -3.7102 2.85416 0
M  V30 10402 H 962.925 -4.97814 4.14832 0
M  V30 10403 N 956.331 -0.831506 -1.3388 0
M  V30 10404 C 957.58 -0.420028 -1.97278 0
M  V30 10405 C 957.893 1.02441 -1.66629 0
M  V30 10406 O 959.099 1.54021 -2.23584 0
M  V30 10407 C 957.555 -0.700116 -3.53025 0
M  V30 10408 C 957.163 -2.15874 -3.92559 0
M  V30 10409 C 958.907 -0.355226 -4.23011 0
M  V30 10410 C 956.814 -2.38327 -5.41252 0
M  V30 10411 H 955.744 -0.153326 -0.738246 0
M  V30 10412 H 958.395 -1.01906 -1.52602 0
M  V30 10413 H 956.777 -0.0308044 -3.95988 0
M  V30 10414 H 957.951 -2.86792 -3.60675 0
M  V30 10415 H 956.266 -2.4659 -3.35533 0
M  V30 10416 H 958.863 -0.500701 -5.32351 0
M  V30 10417 H 959.206 0.70111 -4.10354 0
M  V30 10418 H 959.739 -0.979466 -3.85553 0
M  V30 10419 H 956.478 -3.42498 -5.58906 0
M  V30 10420 H 955.998 -1.71962 -5.74621 0
M  V30 10421 H 957.677 -2.21113 -6.08045 0
M  V30 10422 N 957.809 1.4625 -0.587256 0
M  V30 10423 C 959.034 2.07252 -0.0784517 0
M  V30 10424 C 959.459 1.43239 1.21919 0
M  V30 10425 O 958.817 0.517791 1.73749 0
M  V30 10426 C 958.865 3.60534 0.0691037 0
M  V30 10427 O 957.969 3.96773 1.12448 0
M  V30 10428 H 957.31 0.660825 -0.064859 0
M  V30 10429 H 959.84 1.87819 -0.811491 0
M  V30 10430 H 959.85 4.0708 0.273826 0
M  V30 10431 H 958.525 4.06516 -0.878514 0
M  V30 10432 H 957.102 3.6193 0.897852 0
M  V30 10433 N 959.287 0.325282 1.54207 0
M  V30 10434 C 960.564 -0.33113 1.92777 0
M  V30 10435 C 960.944 -1.69739 1.25506 0
M  V30 10436 O 960.292 -2.24983 0.399385 0
M  V30 10437 C 960.502 -0.421636 3.46444 0
M  V30 10438 C 961.85 -0.681111 4.19101 0
M  V30 10439 O 962.874 -0.504488 3.52609 0
M  V30 10440 O 961.733 -1.02196 5.3686 0
M  V30 10441 H 958.827 -0.18943 0.805013 0
M  V30 10442 H 961.373 0.375123 1.65502 0
M  V30 10443 H 960.145 0.537862 3.87586 0
M  V30 10444 H 959.768 -1.1754 3.79829 0
M  V30 10445 N 960.765 -1.57509 0.0534917 0
M  V30 10446 C 962.042 -1.84137 -0.659767 0
M  V30 10447 C 962.422 -0.942362 -1.88899 0
M  V30 10448 O 961.77 -0.00398566 -2.285 0
M  V30 10449 C 961.98 -3.33919 -1.01486 0
M  V30 10450 C 963.328 -4.00989 -1.39616 0
M  V30 10451 O 964.352 -3.38557 -1.10713 0
M  V30 10452 O 963.211 -5.11071 -1.93567 0
M  V30 10453 H 960.305 -0.760081 -0.325893 0
M  V30 10454 H 962.851 -1.69497 0.0830315 0
M  V30 10455 H 961.623 -3.91046 -0.141041 0
M  V30 10456 H 961.246 -3.53755 -1.81503 0
M  V30 10457 N 962.243 0.219913 -1.56058 0
M  V30 10458 C 963.173 1.27572 -1.9557 0
M  V30 10459 C 964.154 1.48801 -0.824148 0
M  V30 10460 O 965.339 1.60957 -1.08658 0
M  V30 10461 C 962.469 2.62517 -2.27381 0
M  V30 10462 C 961.423 2.55941 -3.43042 0
M  V30 10463 C 960.749 3.94931 -3.60463 0
M  V30 10464 C 962.049 2.10584 -4.77966 0
M  V30 10465 H 963.743 0.947482 -2.84013 0
M  V30 10466 H 961.289 0.454337 -1.36645 0
M  V30 10467 H 963.242 3.36538 -2.53615 0
M  V30 10468 H 961.966 2.97031 -1.35794 0
M  V30 10469 H 960.625 1.84377 -3.1686 0
M  V30 10470 H 960.273 4.26756 -2.66249 0
M  V30 10471 H 959.973 3.91413 -4.38258 0
M  V30 10472 H 961.497 4.70611 -3.89046 0
M  V30 10473 H 962.911 2.74349 -5.03394 0
M  V30 10474 H 961.308 2.18122 -5.59055 0
M  V30 10475 H 962.378 1.05818 -4.73213 0
M  V30 10476 N 963.721 1.49897 0.486681 0
M  V30 10477 C 964.97 1.59349 1.23656 0
M  V30 10478 C 965.283 0.292024 1.93408 0
M  V30 10479 O 966.489 0.265258 2.70201 0
M  V30 10480 C 964.945 2.81215 2.24602 0
M  V30 10481 C 964.553 4.18177 1.60725 0
M  V30 10482 C 966.297 3.00004 3.00329 0
M  V30 10483 C 964.204 5.31247 2.59866 0
M  V30 10484 H 963.134 0.593363 0.465227 0
M  V30 10485 H 965.785 1.76306 0.508769 0
M  V30 10486 H 964.167 2.57783 3.00606 0
M  V30 10487 H 965.341 4.51802 0.90616 0
M  V30 10488 H 963.656 4.04864 0.973362 0
M  V30 10489 H 966.253 3.81649 3.74497 0
M  V30 10490 H 966.596 2.1112 3.58795 0
M  V30 10491 H 967.129 3.23544 2.3144 0
M  V30 10492 H 963.868 6.22236 2.06161 0
M  V30 10493 H 963.388 5.02059 3.28172 0
M  V30 10494 H 965.067 5.61177 3.22009 0
M  V30 10495 N 965.199 -0.738761 1.39212 0
M  V30 10496 C 966.448 -1.49368 1.35543 0
M  V30 10497 C 966.761 -1.95543 -0.0471091 0
M  V30 10498 O 967.967 -2.70714 -0.206376 0
M  V30 10499 C 966.423 -2.69882 2.381 0
M  V30 10500 C 966.031 -2.30672 3.8405 0
M  V30 10501 C 967.775 -3.47718 2.435 0
M  V30 10502 C 965.682 -3.47886 4.78256 0
M  V30 10503 H 964.612 -0.560898 0.503894 0
M  V30 10504 H 967.263 -0.806221 1.6484 0
M  V30 10505 H 965.645 -3.40684 2.01867 0
M  V30 10506 H 966.819 -1.67441 4.29302 0
M  V30 10507 H 965.134 -1.65936 3.81909 0
M  V30 10508 H 967.731 -4.34897 3.11077 0
M  V30 10509 H 968.074 -3.89919 1.45838 0
M  V30 10510 H 968.607 -2.83942 2.78606 0
M  V30 10511 H 965.346 -3.10739 5.77167 0
M  V30 10512 H 964.866 -4.10111 4.37686 0
M  V30 10513 H 966.545 -4.14271 4.96979 0
M  V30 10514 N 966.677 -1.24326 -0.968545 0
M  V30 10515 C 967.64 -1.03591 -2.04454 0
M  V30 10516 C 968.64 0.0064809 -1.60799 0
M  V30 10517 O 969.83 -0.234404 -1.72616 0
M  V30 10518 C 966.962 -0.56992 -3.36102 0
M  V30 10519 H 968.155 -1.99092 -2.24282 0
M  V30 10520 H 965.708 -1.06537 -1.14366 0
M  V30 10521 H 966.443 0.388325 -3.21967 0
M  V30 10522 H 966.228 -1.32227 -3.69132 0
M  V30 10523 H 967.718 -0.445854 -4.15213 0
M  V30 10524 N 968.156 1.1691 -1.05688 0
M  V30 10525 C 969.402 1.8757 -0.771071 0
M  V30 10526 C 969.735 1.8113 0.700399 0
M  V30 10527 O 969.01 1.22273 1.5126 0
M  V30 10528 C 969.293 3.37392 -1.25851 0
M  V30 10529 C 969.146 3.52556 -2.79329 0
M  V30 10530 C 970.465 4.31585 -0.861512 0
M  V30 10531 H 967.584 0.681089 -0.281579 0
M  V30 10532 H 970.226 1.37453 -1.31174 0
M  V30 10533 H 968.376 3.80204 -0.798563 0
M  V30 10534 H 970.048 3.18725 -3.33485 0
M  V30 10535 H 968.291 2.94668 -3.1836 0
M  V30 10536 H 968.962 4.57748 -3.08498 0
M  V30 10537 H 971.438 3.96642 -1.25756 0
M  V30 10538 H 970.314 5.34939 -1.23012 0
M  V30 10539 H 970.575 4.4148 0.234089 0
M  V30 10540 N 969.634 0.838594 1.33437 0
M  V30 10541 C 970.883 0.430484 1.97053 0
M  V30 10542 C 971.196 -1.01556 1.6717 0
M  V30 10543 O 972.402 -1.52834 2.24397 0
M  V30 10544 C 970.858 0.718828 3.52648 0
M  V30 10545 C 970.466 2.17953 3.91408 0
M  V30 10546 C 972.21 0.377654 4.22817 0
M  V30 10547 C 970.117 2.41194 5.39981 0
M  V30 10548 H 969.047 0.157239 0.737422 0
M  V30 10549 H 971.698 1.02714 1.5206 0
M  V30 10550 H 970.08 0.0518042 3.95966 0
M  V30 10551 H 971.254 2.88701 3.59149 0
M  V30 10552 H 969.569 2.48366 3.34221 0
M  V30 10553 H 972.166 0.528926 5.32077 0
M  V30 10554 H 972.509 -0.679338 4.1072 0
M  V30 10555 H 973.042 0.999899 3.85028 0
M  V30 10556 H 969.781 3.45457 5.57081 0
M  V30 10557 H 969.301 1.75007 5.73701 0
M  V30 10558 H 970.98 2.24334 6.06863 0
M  V30 10559 N 971.112 -1.45937 0.595003 0
M  V30 10560 C 972.045 -2.27491 -0.179775 0
M  V30 10561 C 973.023 -1.36376 -0.88545 0
M  V30 10562 O 974.207 -1.65797 -0.896863 0
M  V30 10563 C 971.334 -3.1443 -1.25902 0
M  V30 10564 C 970.38 -4.21396 -0.657847 0
M  V30 10565 S 971.213 -5.32923 0.524689 0
M  V30 10566 C 972.369 -6.2343 -0.555452 0
M  V30 10567 H 972.602 -2.92855 0.512173 0
M  V30 10568 H 970.135 -1.49595 0.382199 0
M  V30 10569 H 972.093 -3.65081 -1.87687 0
M  V30 10570 H 970.754 -2.48356 -1.92297 0
M  V30 10571 H 969.947 -4.82102 -1.46948 0
M  V30 10572 H 969.549 -3.73822 -0.115403 0
M  V30 10573 H 971.841 -6.62066 -1.43789 0
M  V30 10574 H 972.784 -7.08098 0.0151431 0
M  V30 10575 H 973.192 -5.57831 -0.865125 0
M  V30 10576 N 972.59 -0.333456 -1.54032 0
M  V30 10577 C 973.553 0.515392 -2.2333 0
M  V30 10578 C 974.553 1.03566 -1.23007 0
M  V30 10579 O 975.743 0.926514 -1.47517 0
M  V30 10580 C 972.875 1.7169 -2.94508 0
M  V30 10581 H 974.068 -0.0905407 -2.99763 0
M  V30 10582 H 971.621 -0.0846651 -1.56071 0
M  V30 10583 H 972.356 2.3618 -2.22237 0
M  V30 10584 H 972.141 1.35115 -3.68085 0
M  V30 10585 H 973.631 2.31922 -3.47278 0
M  V30 10586 N 974.068 1.57479 -0.061844 0
M  V30 10587 C 975.296 1.97429 0.618837 0
M  V30 10588 C 975.711 0.939826 1.63746 0
M  V30 10589 O 975.068 -0.0747173 1.82347 0
M  V30 10590 C 975.119 3.3746 1.29628 0
M  V30 10591 O 974.84 4.36941 0.318431 0
M  V30 10592 C 976.341 3.92228 2.06572 0
M  V30 10593 H 973.561 0.649513 0.168444 0
M  V30 10594 H 976.105 2.04078 -0.131303 0
M  V30 10595 H 974.26 3.31928 1.99757 0
M  V30 10596 H 974.674 5.18313 0.803239 0
M  V30 10597 H 976.148 4.92458 2.49377 0
M  V30 10598 H 976.625 3.28231 2.91824 0
M  V30 10599 H 977.231 4.01131 1.4133 0
M  V30 10600 N 975.546 -0.211634 1.56173 0
M  V30 10601 C 976.776 -0.949805 1.83473 0
M  V30 10602 C 977.184 -1.78045 0.640053 0
M  V30 10603 O 976.527 -1.79277 -0.400702 0
M  V30 10604 C 976.589 -1.90868 3.04647 0
M  V30 10605 C 976.253 -1.26159 4.39241 0
M  V30 10606 C 977.25 -0.646597 5.15863 0
M  V30 10607 C 974.935 -1.27039 4.85969 0
M  V30 10608 C 976.929 -0.0490313 6.37381 0
M  V30 10609 C 974.616 -0.668987 6.07427 0
M  V30 10610 C 975.614 -0.0593687 6.82974 0
M  V30 10611 O 975.302 0.532656 8.02133 0
M  V30 10612 H 975.034 -0.283458 0.6137 0
M  V30 10613 H 977.588 -0.22894 2.0412 0
M  V30 10614 H 975.818 -2.6688 2.79843 0
M  V30 10615 H 977.507 -2.51323 3.18734 0
M  V30 10616 H 978.273 -0.632056 4.80864 0
M  V30 10617 H 974.152 -1.73429 4.27134 0
M  V30 10618 H 977.696 0.427414 6.96289 0
M  V30 10619 H 973.593 -0.680975 6.41898 0
M  V30 10620 H 974.361 0.427942 8.17381 0
M  V30 10621 N 977.024 -1.50153 -0.478725 0
M  V30 10622 C 977.954 -1.71384 -1.58587 0
M  V30 10623 C 978.935 -0.562705 -1.60523 0
M  V30 10624 O 980.12 -0.80101 -1.76911 0
M  V30 10625 C 977.25 -1.80094 -2.96957 0
M  V30 10626 C 976.204 -2.95218 -3.09888 0
M  V30 10627 C 975.53 -2.89063 -4.49829 0
M  V30 10628 C 976.83 -4.35841 -2.8782 0
M  V30 10629 H 978.524 -2.64081 -1.41073 0
M  V30 10630 H 976.07 -1.27081 -0.677239 0
M  V30 10631 H 978.023 -1.93531 -3.74331 0
M  V30 10632 H 976.747 -0.840131 -3.1561 0
M  V30 10633 H 975.406 -2.81419 -2.34944 0
M  V30 10634 H 975.054 -1.90844 -4.6539 0
M  V30 10635 H 974.754 -3.66345 -4.59418 0
M  V30 10636 H 976.278 -3.04539 -5.29234 0
M  V30 10637 H 977.692 -4.50205 -3.54948 0
M  V30 10638 H 976.089 -5.14515 -3.0886 0
M  V30 10639 H 977.159 -4.48739 -1.83742 0
M  V30 10640 N 978.502 0.731368 -1.39602 0
M  V30 10641 C 979.742 1.5036 -1.3846 0
M  V30 10642 C 980.106 1.91991 0.018784 0
M  V30 10643 O 981.307 2.68351 0.155236 0
M  V30 10644 C 979.578 2.70755 -2.33295 0
M  V30 10645 S 981.137 3.6036 -2.50372 0
M  V30 10646 H 977.955 0.514271 -0.490964 0
M  V30 10647 H 980.557 0.856654 -1.75732 0
M  V30 10648 H 979.261 2.38316 -3.34116 0
M  V30 10649 H 978.792 3.40376 -1.97251 0
M  V30 10650 H 980.807 4.64529 -1.74435 0
M  V30 10651 N 979.98 1.24838 0.961938 0
M  V30 10652 C 981.257 0.99939 1.68141 0
M  V30 10653 C 981.637 -0.476588 2.0565 0
M  V30 10654 O 980.985 -1.45224 1.76415 0
M  V30 10655 C 981.195 1.92797 2.90913 0
M  V30 10656 C 982.543 2.20219 3.63027 0
M  V30 10657 O 983.567 1.90496 3.00981 0
M  V30 10658 O 982.426 2.70725 4.74731 0
M  V30 10659 H 979.52 0.37842 0.735342 0
M  V30 10660 H 982.066 1.35961 1.01551 0
M  V30 10661 H 980.838 2.92492 2.59931 0
M  V30 10662 H 980.461 1.57127 3.65235 0
M  V30 10663 N 981.458 -1.16348 1.06306 0
M  V30 10664 C 982.735 -1.829 0.69331 0
M  V30 10665 C 983.115 -1.94298 -0.82531 0
M  V30 10666 O 982.463 -1.48619 -1.73565 0
M  V30 10667 C 982.673 -3.1989 1.3954 0
M  V30 10668 C 984.021 -3.95662 1.54068 0
M  V30 10669 O 985.045 -3.29408 1.35532 0
M  V30 10670 O 983.904 -5.14422 1.84479 0
M  V30 10671 H 980.998 -0.789738 0.245445 0
M  V30 10672 H 983.544 -1.23549 1.16334 0
M  V30 10673 H 982.316 -3.06629 2.43093 0
M  V30 10674 H 981.939 -3.86918 0.915453 0
M  V30 10675 N 982.937 -0.845659 -1.3299 0
M  V30 10676 C 984.186 -0.440928 -1.96822 0
M  V30 10677 C 984.499 1.00668 -1.67706 0
M  V30 10678 O 985.705 1.51641 -2.25205 0
M  V30 10679 C 984.161 -0.73752 -3.52262 0
M  V30 10680 C 983.769 -2.20026 -3.90247 0
M  V30 10681 C 985.513 -0.400072 -4.22611 0
M  V30 10682 C 983.42 -2.44054 -5.38694 0
M  V30 10683 H 982.35 -0.161148 -0.736578 0
M  V30 10684 H 985.001 -1.03519 -1.51513 0
M  V30 10685 H 983.383 -0.0728025 -3.95933 0
M  V30 10686 H 984.557 -2.90602 -3.57613 0
M  V30 10687 H 982.872 -2.50135 -3.32899 0
M  V30 10688 H 985.469 -0.557136 -5.3179 0
M  V30 10689 H 985.812 0.657547 -4.11074 0
M  V30 10690 H 986.345 -1.0203 -3.84493 0
M  V30 10691 H 983.084 -3.48407 -5.55241 0
M  V30 10692 H 982.604 -1.78047 -5.72765 0
M  V30 10693 H 984.283 -2.27549 -6.05665 0
M  V30 10694 N 984.415 1.45619 -0.602734 0
M  V30 10695 C 985.365 2.27568 0.140264 0
M  V30 10696 C 986.349 1.3704 0.84314 0
M  V30 10697 O 987.541 1.61067 0.733931 0
M  V30 10698 C 984.67 3.23812 1.14019 0
M  V30 10699 C 983.756 4.21828 0.438406 0
M  V30 10700 N 984.147 5.03148 -0.517245 0
M  V30 10701 C 982.445 4.40684 0.686588 0
M  V30 10702 C 983.146 5.74229 -0.929291 0
M  V30 10703 N 982.122 5.42909 -0.274086 0
M  V30 10704 H 985.924 2.87839 -0.5938 0
M  V30 10705 H 983.438 1.56712 -0.426033 0
M  V30 10706 H 985.435 3.8125 1.68684 0
M  V30 10707 H 984.095 2.65102 1.87486 0
M  V30 10708 H 985.106 5.1013 -0.893758 0
M  V30 10709 H 981.783 3.93102 1.4063 0
M  V30 10710 H 983.173 6.49586 -1.7172 0
M  V30 10711 N 985.893 0.34162 1.53853 0
M  V30 10712 C 986.856 -0.503541 2.236 0
M  V30 10713 C 987.856 -1.02912 1.23554 0
M  V30 10714 O 989.046 -0.918678 1.48007 0
M  V30 10715 C 986.178 -1.70126 2.95415 0
M  V30 10716 H 987.371 0.106437 2.99711 0
M  V30 10717 H 984.924 0.0929408 1.56023 0
M  V30 10718 H 985.659 -2.34999 2.23486 0
M  V30 10719 H 985.444 -1.33161 3.68796 0
M  V30 10720 H 986.934 -2.30077 3.48503 0
M  V30 10721 N 987.371 -1.57444 0.0701946 0
M  V30 10722 C 988.62 -1.92605 -0.598849 0
M  V30 10723 C 988.933 -0.952058 -1.70866 0
M  V30 10724 O 990.139 -1.19643 -2.43716 0
M  V30 10725 C 988.595 -3.42142 -1.11655 0
M  V30 10726 C 988.203 -4.47984 -0.0378355 0
M  V30 10727 C 989.947 -3.86307 -1.75975 0
M  V30 10728 C 987.854 -5.88652 -0.569495 0
M  V30 10729 H 986.784 -0.718873 -0.22746 0
M  V30 10730 H 989.435 -1.82948 0.14217 0
M  V30 10731 H 987.817 -3.46866 -1.91049 0
M  V30 10732 H 988.991 -4.54874 0.736661 0
M  V30 10733 H 987.306 -4.13277 0.50904 0
M  V30 10734 H 989.903 -4.88784 -2.16782 0
M  V30 10735 H 990.246 -3.23587 -2.61911 0
M  V30 10736 H 990.779 -3.84179 -1.03206 0
M  V30 10737 H 987.518 -6.55013 0.252662 0
M  V30 10738 H 987.038 -5.85285 -1.31155 0
M  V30 10739 H 988.717 -6.38482 -1.04641 0
M  V30 10740 N 988.849 0.203349 -1.56283 0
M  V30 10741 C 990.265 0.55384 -1.49682 0
M  V30 10742 C 990.465 1.86261 -0.768701 0
M  V30 10743 O 989.521 2.50517 -0.315824 0
M  V30 10744 C 990.834 0.616216 -2.94318 0
M  V30 10745 C 992.382 0.705611 -3.04943 0
M  V30 10746 C 992.857 0.79917 -4.50974 0
M  V30 10747 N 994.348 0.862916 -4.55091 0
M  V30 10748 C 995.083 0.955334 -5.65386 0
M  V30 10749 N 994.579 1.01057 -6.8539 0
M  V30 10750 N 996.372 0.991884 -5.53279 0
M  V30 10751 H 988.523 -0.655244 -2.0204 0
M  V30 10752 H 990.786 -0.232344 -0.919087 0
M  V30 10753 H 990.492 -0.27619 -3.50614 0
M  V30 10754 H 990.366 1.47371 -3.4722 0
M  V30 10755 H 992.753 1.58845 -2.48701 0
M  V30 10756 H 992.834 -0.177921 -2.5518 0
M  V30 10757 H 992.478 -0.0792841 -5.07838 0
M  V30 10758 H 992.408 1.69838 -4.9846 0
M  V30 10759 H 994.899 0.829812 -3.68677 0
M  V30 10760 H 995.212 1.08137 -7.65197 0
M  V30 10761 H 993.557 0.979384 -6.88065 0
M  V30 10762 H 996.748 0.945514 -4.58451 0
M  V30 10763 H 996.921 1.06045 -6.39264 0
M  V30 10764 N 990.327 1.50405 0.470755 0
M  V30 10765 C 991.574 1.61411 1.22281 0
M  V30 10766 C 991.902 0.314603 1.91939 0
M  V30 10767 O 991.157 -0.699531 1.82771 0
M  V30 10768 C 991.456 2.74426 2.28965 0
M  V30 10769 C 991.122 4.14896 1.76557 0
M  V30 10770 C 989.784 4.53116 1.61985 0
M  V30 10771 C 992.136 5.02686 1.3768 0
M  V30 10772 C 989.464 5.76868 1.0696 0
M  V30 10773 C 991.816 6.26985 0.840967 0
M  V30 10774 C 990.48 6.64008 0.68188 0
M  V30 10775 H 989.75 0.590645 0.447459 0
M  V30 10776 H 992.397 1.84339 0.518783 0
M  V30 10777 H 990.702 2.45588 3.05277 0
M  V30 10778 H 992.399 2.80146 2.86914 0
M  V30 10779 H 988.989 3.84743 1.88867 0
M  V30 10780 H 993.173 4.7379 1.47772 0
M  V30 10781 H 988.429 6.04227 0.933808 0
M  V30 10782 H 992.603 6.94372 0.531066 0
M  V30 10783 H 990.23 7.59778 0.25335 0
M  V30 10784 N 991.805 -0.723954 1.39988 0
M  V30 10785 C 993.221 -1.03095 1.21834 0
M  V30 10786 C 993.421 -2.01309 0.0876647 0
M  V30 10787 O 992.477 -2.46277 -0.55714 0
M  V30 10788 C 993.79 -1.58267 2.5568 0
M  V30 10789 C 995.338 -1.70293 2.6262 0
M  V30 10790 C 995.813 -2.28872 3.96713 0
M  V30 10791 N 997.304 -2.36269 3.98411 0
M  V30 10792 C 998.039 -2.82557 4.98948 0
M  V30 10793 N 997.535 -3.28661 6.0988 0
M  V30 10794 N 999.328 -2.81866 4.86321 0
M  V30 10795 H 991.479 -0.0727891 2.12275 0
M  V30 10796 H 993.742 -0.0949029 0.943238 0
M  V30 10797 H 993.448 -0.935642 3.39026 0
M  V30 10798 H 993.322 -2.56914 2.76179 0
M  V30 10799 H 995.709 -2.34115 1.7965 0
M  V30 10800 H 995.79 -0.70268 2.45959 0
M  V30 10801 H 995.434 -1.65675 4.80119 0
M  V30 10802 H 995.364 -3.29595 4.107 0
M  V30 10803 H 997.855 -2.03697 3.18302 0
M  V30 10804 H 998.168 -3.62524 6.82493 0
M  V30 10805 H 996.513 -3.26641 6.13458 0
M  V30 10806 H 999.704 -2.45179 3.98754 0
M  V30 10807 H 999.877 -3.17626 5.64817 0
M  V30 10808 N 993.283 -1.25346 -0.955304 0
M  V30 10809 C 994.529 -1.10218 -1.70235 0
M  V30 10810 C 994.862 0.356124 -1.90907 0
M  V30 10811 O 994.137 1.26253 -1.47954 0
M  V30 10812 C 994.42 -1.85627 -3.08569 0
M  V30 10813 C 994.273 -3.39281 -2.95311 0
M  V30 10814 C 995.592 -1.63886 -4.08448 0
M  V30 10815 H 992.711 -0.401781 -0.617852 0
M  V30 10816 H 995.353 -1.5417 -1.11048 0
M  V30 10817 H 993.503 -1.48269 -3.59094 0
M  V30 10818 H 995.175 -3.8631 -2.52116 0
M  V30 10819 H 993.418 -3.67027 -2.31244 0
M  V30 10820 H 994.089 -3.87258 -3.93364 0
M  V30 10821 H 996.565 -1.96406 -3.6683 0
M  V30 10822 H 995.441 -2.19087 -5.03281 0
M  V30 10823 H 995.702 -0.580021 -4.38279 0
M  V30 10824 N 994.761 1.15782 -1.06922 0
M  V30 10825 C 995.986 1.90896 -0.810771 0
M  V30 10826 C 996.411 1.77246 0.629714 0
M  V30 10827 O 995.769 1.10215 1.43953 0
M  V30 10828 C 995.817 3.39397 -1.21829 0
M  V30 10829 O 994.921 4.10818 -0.360934 0
M  V30 10830 H 994.262 0.594497 -0.295752 0
M  V30 10831 H 996.792 1.46652 -1.42669 0
M  V30 10832 H 996.802 3.90181 -1.19259 0
M  V30 10833 H 995.477 3.4865 -2.2675 0
M  V30 10834 H 994.054 3.7019 -0.448748 0
M  V30 10835 O 996.278 0.9869 1.27838 0
M  V30 10836 H 996.969 0.633951 1.83032 0
M  V30 END ATOM
M  V30 BEGIN BOND
M  V30 END BOND
M  V30 END CTAB
M  END
$$$$
