drugbank_target|F7VJQ1 Alternative prion protein (DB09130)
 OpenBabel12092121063D

  0  0  0     0  0            999 V3000
M  V30 BEGIN CTAB
M  V30 COUNTS 1182 1224 0 0 0
M  V30 BEGIN ATOM
M  V30 1 H -0.908 1.98254 -0.117106 0
M  V30 2 N 0 1.576 0 0
M  V30 3 C 0.933 2.03868 1.02534 0
M  V30 4 C 1.911 0.928543 1.3348 0
M  V30 5 O 3.095 1.19667 1.45644 0
M  V30 6 C 0.222 2.43627 2.35294 0
M  V30 7 C -0.732 3.65373 2.2001 0
M  V30 8 S 0.101 5.13292 1.52614 0
M  V30 9 C 1.257 5.56322 2.86805 0
M  V30 10 H 1.49 2.90518 0.631377 0
M  V30 11 H -0.977 1.52953 0.210867 0
M  V30 12 H 0.981 2.67203 3.11629 0
M  V30 13 H -0.358 1.57376 2.7183 0
M  V30 14 H -1.165 3.90944 3.18086 0
M  V30 15 H -1.563 3.418 1.51819 0
M  V30 16 H 0.729 5.58782 3.83104 0
M  V30 17 H 1.672 6.56266 2.65933 0
M  V30 18 H 2.08 4.83886 2.90714 0
M  V30 19 N 1.4781 -0.272755 1.55222 0
M  V30 20 C 2.3881 -1.35918 1.91216 0
M  V30 21 C 3.4041 -1.54026 0.809436 0
M  V30 22 O 4.5801 -1.68148 1.10852 0
M  V30 23 C 1.6451 -2.69834 2.17693 0
M  V30 24 C 0.7061 -2.6047 3.41253 0
M  V30 25 C -0.0609 -3.88 3.66458 0
M  V30 26 O 0.1621 -4.88693 2.94169 0
M  V30 27 O -0.9039 -3.88189 4.59992 0
M  V30 28 H 2.9221 -1.0839 2.83699 0
M  V30 29 H 0.5071 -0.471301 1.41771 0
M  V30 30 H 2.3891 -3.49017 2.36147 0
M  V30 31 H 1.0641 -2.97148 1.28392 0
M  V30 32 H -0.0289 -1.79663 3.28134 0
M  V30 33 H 1.3041 -2.38106 4.30774 0
M  V30 34 N 2.9562 -1.48159 -0.537278 0
M  V30 35 C 3.9062 -1.5854 -1.63857 0
M  V30 36 C 4.8902 -0.442969 -1.54682 0
M  V30 37 O 6.0822 -0.69401 -1.62827 0
M  V30 38 C 3.2112 -1.62144 -3.02596 0
M  V30 39 C 2.2972 -2.81841 -3.16901 0
M  V30 40 N 2.6882 -4.06337 -3.01204 0
M  V30 41 C 0.9862 -2.79021 -3.47942 0
M  V30 42 C 1.6872 -4.86606 -3.18731 0
M  V30 43 N 0.6632 -4.19288 -3.45974 0
M  V30 44 H 4.4652 -2.5255 -1.50319 0
M  V30 45 H 1.9792 -1.4443 -0.742555 0
M  V30 46 H 3.9762 -1.67674 -3.81695 0
M  V30 47 H 2.6362 -0.69245 -3.17231 0
M  V30 48 H 3.6472 -4.36888 -2.78117 0
M  V30 49 H 0.3242 -1.95347 -3.6898 0
M  V30 50 H 1.7142 -5.95385 -3.11394 0
M  V30 51 N 4.4343 0.785586 -1.36625 0
M  V30 52 C 5.6803 1.5452 -1.32269 0
M  V30 53 C 6.0353 1.92159 0.0962266 0
M  V30 54 O 5.3283 1.60158 1.05167 0
M  V30 55 C 5.5223 2.83007 -2.1827 0
M  V30 56 C 5.3513 2.57925 -3.68382 0
M  V30 57 C 4.1213 2.52752 -4.37544 0
M  V30 58 C 6.3193 2.26861 -4.61561 0
M  V30 59 N 4.3013 2.19608 -5.73276 0
M  V30 60 C 5.6723 2.03738 -5.85569 0
M  V30 61 C 7.7273 2.129 -4.50087 0
M  V30 62 C 6.4303 1.68065 -6.9939 0
M  V30 63 C 8.4563 1.78626 -5.63779 0
M  V30 64 C 7.8183 1.56353 -6.86828 0
M  V30 65 H 3.9173 0.566301 -0.539283 0
M  V30 66 H 6.5013 0.917736 -1.71714 0
M  V30 67 H 4.6723 3.43614 -1.81063 0
M  V30 68 H 6.4043 3.48775 -2.05275 0
M  V30 69 H 3.1593 2.6813 -3.90389 0
M  V30 70 H 3.5833 2.05771 -6.44971 0
M  V30 71 H 8.2253 2.28808 -3.55537 0
M  V30 72 H 5.9433 1.50895 -7.93887 0
M  V30 73 H 9.5293 1.68502 -5.56865 0
M  V30 74 H 8.4093 1.30223 -7.73312 0
M  V30 75 N 5.9124 1.20967 1.01018 0
M  V30 76 C 7.1604 1.02172 1.74371 0
M  V30 77 C 7.4814 -0.446414 1.89821 0
M  V30 78 O 6.7514 -1.32234 1.44537 0
M  V30 79 H 5.3314 0.375066 0.646014 0
M  V30 80 H 7.9934 1.52187 1.21758 0
M  V30 81 H 7.0894 1.48538 2.74487 0
M  V30 82 N 7.3905 -1.2043 1.01659 0
M  V30 83 C 8.3225 -2.22626 0.544988 0
M  V30 84 C 9.3355 -1.58479 -0.372609 0
M  V30 85 O 10.5245 -1.77679 -0.170958 0
M  V30 86 C 7.6245 -3.38141 -0.22663 0
M  V30 87 C 6.7975 -4.31877 0.692876 0
M  V30 88 C 5.8565 -5.26191 -0.0311616 0
M  V30 89 O 4.8825 -5.6612 0.591343 0
M  V30 90 N 6.0845 -5.65618 -1.30601 0
M  V30 91 H 8.8495 -2.63716 1.42388 0
M  V30 92 H 6.4105 -1.34971 0.894116 0
M  V30 93 H 8.4025 -3.98239 -0.72024 0
M  V30 94 H 6.9725 -2.95943 -1.00681 0
M  V30 95 H 6.1925 -3.69746 1.36679 0
M  V30 96 H 7.4805 -4.91426 1.31824 0
M  V30 97 H 6.8785 -5.3519 -1.83269 0
M  V30 98 H 5.4355 -6.28025 -1.74435 0
M  V30 99 N 8.8686 -0.792821 -1.36206 0
M  V30 100 C 10.2796 -0.429513 -1.81692 0
M  V30 101 C 10.6306 1.04695 -1.65932 0
M  V30 102 O 9.7556 1.81256 -1.18218 0
M  V30 103 C 10.3506 -0.772831 -3.29868 0
M  V30 104 C 8.9096 -0.462307 -3.7355 0
M  V30 105 C 8.0566 -1.00569 -2.5842 0
M  V30 106 H 11.0076 -0.985672 -1.24379 0
M  V30 107 H 11.0286 -0.0651928 -3.80444 0
M  V30 108 H 10.5406 -1.84747 -3.41307 0
M  V30 109 H 8.6416 0.604158 -3.67669 0
M  V30 110 H 8.7546 -0.985299 -4.68859 0
M  V30 111 H 7.1186 -0.428734 -2.51066 0
M  V30 112 H 7.9016 -2.08616 -2.72643 0
M  V30 113 N 10.3467 1.47872 -0.545128 0
M  V30 114 C 11.5957 2.01695 -0.0145033 0
M  V30 115 C 11.9087 1.42609 1.33873 0
M  V30 116 O 13.1147 1.88021 1.95858 0
M  V30 117 C 11.5707 3.59892 0.0245068 0
M  V30 118 C 11.1787 4.27966 -1.32475 0
M  V30 119 C 12.9227 4.21507 0.50316 0
M  V30 120 C 10.8297 5.78136 -1.2455 0
M  V30 121 H 9.7597 0.753998 -0.00165172 0
M  V30 122 H 12.4107 1.69985 -0.691175 0
M  V30 123 H 10.7927 3.88509 0.766575 0
M  V30 124 H 11.9667 4.11003 -2.08357 0
M  V30 125 H 10.2817 3.78286 -1.74036 0
M  V30 126 H 12.8787 5.31538 0.580656 0
M  V30 127 H 13.2217 3.87855 1.51243 0
M  V30 128 H 13.7547 3.97376 -0.183681 0
M  V30 129 H 10.4937 6.16388 -2.23039 0
M  V30 130 H 10.0137 5.97469 -0.528282 0
M  V30 131 H 11.6927 6.40099 -0.942488 0
M  V30 132 N 11.8248 0.280983 1.55075 0
M  V30 133 C 13.2358 -0.215629 1.85451 0
M  V30 134 C 13.5868 -1.54991 1.203 0
M  V30 135 O 12.7118 -2.10699 0.493435 0
M  V30 136 C 13.3068 -0.398026 3.36454 0
M  V30 137 C 11.8658 -0.838866 3.66933 0
M  V30 138 C 11.0128 0.064458 2.77225 0
M  V30 139 H 13.9638 0.502601 1.50531 0
M  V30 140 H 13.9848 -1.23569 3.59876 0
M  V30 141 H 13.4968 0.573241 3.83843 0
M  V30 142 H 11.5978 -1.8214 3.25048 0
M  V30 143 H 11.7108 -0.672123 4.74362 0
M  V30 144 H 10.0748 -0.452863 2.50642 0
M  V30 145 H 10.8578 1.03172 3.2743 0
M  V30 146 N 13.3029 -1.57598 0.00835791 0
M  V30 147 C 14.5509 -1.90551 -0.6734 0
M  V30 148 C 14.8719 -0.883301 -1.73847 0
M  V30 149 O 14.1419 0.0781442 -1.95744 0
M  V30 150 H 12.7219 -0.703312 -0.251717 0
M  V30 151 H 15.3839 -1.94833 0.0512592 0
M  V30 152 H 14.4799 -2.9056 -1.13935 0
M  V30 153 N 14.781 0.264519 -1.55364 0
M  V30 154 C 15.744 1.31046 -1.88042 0
M  V30 155 C 16.744 1.41943 -0.755569 0
M  V30 156 O 17.934 1.40947 -1.02369 0
M  V30 157 C 15.066 2.69067 -2.09323 0
M  V30 158 H 16.259 1.03297 -2.81549 0
M  V30 159 H 13.812 0.502989 -1.47986 0
M  V30 160 H 14.547 3.01982 -1.18226 0
M  V30 161 H 14.332 2.62542 -2.91229 0
M  V30 162 H 15.822 3.44623 -2.35848 0
M  V30 163 N 16.2591 1.48442 0.529413 0
M  V30 164 C 17.5071 1.56179 1.28267 0
M  V30 165 C 17.8281 0.237721 1.93546 0
M  V30 166 O 17.0981 -0.740779 1.81354 0
M  V30 167 H 15.6781 0.575367 0.476405 0
M  V30 168 H 18.3401 1.84909 0.61602 0
M  V30 169 H 17.4361 2.34312 2.06165 0
M  V30 170 N 17.7372 -0.778329 1.37039 0
M  V30 171 C 18.6692 -1.90034 1.2814 0
M  V30 172 C 19.6822 -1.61585 0.198558 0
M  V30 173 O 20.8712 -1.72625 0.454175 0
M  V30 174 C 17.9712 -3.25108 0.956968 0
M  V30 175 C 17.1442 -3.81253 2.14394 0
M  V30 176 C 16.2032 -4.94789 1.79082 0
M  V30 177 O 15.2292 -5.10721 2.51301 0
M  V30 178 N 16.4312 -5.75878 0.731043 0
M  V30 179 H 19.1962 -1.98186 2.24816 0
M  V30 180 H 16.7572 -0.957129 1.30578 0
M  V30 181 H 18.7492 -3.9857 0.701701 0
M  V30 182 H 17.3192 -3.125 0.0789812 0
M  V30 183 H 16.5392 -2.99647 2.56135 0
M  V30 184 H 17.8272 -4.15495 2.93668 0
M  V30 185 H 17.2252 -5.65547 0.131618 0
M  V30 186 H 15.7822 -6.49596 0.535622 0
M  V30 187 N 19.2153 -1.21501 -1.00376 0
M  V30 188 C 20.6263 -1.03146 -1.55621 0
M  V30 189 C 20.9773 0.408375 -1.91903 0
M  V30 190 O 20.1023 1.29177 -1.73616 0
M  V30 191 C 20.6973 -1.86612 -2.82775 0
M  V30 192 C 19.2563 -1.72586 -3.34501 0
M  V30 193 C 18.4033 -1.83747 -2.07683 0
M  V30 194 H 21.3543 -1.35505 -0.826081 0
M  V30 195 H 21.3753 -1.3771 -3.54706 0
M  V30 196 H 20.8873 -2.91399 -2.56336 0
M  V30 197 H 18.9883 -0.704877 -3.65872 0
M  V30 198 H 19.1013 -2.54623 -4.05837 0
M  V30 199 H 17.4653 -1.27069 -2.20739 0
M  V30 200 H 18.2483 -2.90044 -1.83655 0
M  V30 201 N 20.6934 1.19889 -1.02296 0
M  V30 202 C 21.9394 1.89973 -0.726759 0
M  V30 203 C 22.2944 1.7776 0.73614 0
M  V30 204 O 21.5874 1.15523 1.52856 0
M  V30 205 C 21.7814 3.39883 -1.10518 0
M  V30 206 C 21.6104 3.66684 -2.60332 0
M  V30 207 C 20.3804 3.85045 -3.27213 0
M  V30 208 C 22.5784 3.68727 -3.58532 0
M  V30 209 N 20.5604 3.99422 -4.66192 0
M  V30 210 C 21.9314 3.88604 -4.83101 0
M  V30 211 C 23.9864 3.51722 -3.52414 0
M  V30 212 C 22.6894 3.9324 -6.02292 0
M  V30 213 C 24.7154 3.57632 -4.71013 0
M  V30 214 C 24.0774 3.77988 -5.94394 0
M  V30 215 H 20.1764 0.714551 -0.317712 0
M  V30 216 H 22.7604 1.44123 -1.30907 0
M  V30 217 H 20.9314 3.8447 -0.551142 0
M  V30 218 H 22.6634 3.97464 -0.761853 0
M  V30 219 H 19.4184 3.83689 -2.77632 0
M  V30 220 H 19.8424 4.10473 -5.38368 0
M  V30 221 H 24.4844 3.34945 -2.58015 0
M  V30 222 H 22.2024 4.08811 -6.97065 0
M  V30 223 H 25.7884 3.45773 -4.67902 0
M  V30 224 H 24.6684 3.82428 -6.8463 0
M  V30 225 N 22.1715 0.800033 1.35784 0
M  V30 226 C 23.5875 0.482977 1.52117 0
M  V30 227 C 23.7875 -0.996948 1.75109 0
M  V30 228 O 22.8435 -1.78216 1.78872 0
M  V30 229 C 24.1565 1.32264 2.70049 0
M  V30 230 C 25.7045 1.31742 2.83924 0
M  V30 231 C 26.1795 2.14106 4.04874 0
M  V30 232 N 27.6705 2.11607 4.12039 0
M  V30 233 C 28.4055 2.72099 5.04727 0
M  V30 234 N 27.9015 3.41492 6.02789 0
M  V30 235 N 29.6945 2.61776 4.97423 0
M  V30 236 H 21.8455 1.75856 1.19115 0
M  V30 237 H 24.1085 0.748122 0.582252 0
M  V30 238 H 23.8145 2.37261 2.59616 0
M  V30 239 H 23.6885 0.971303 3.6448 0
M  V30 240 H 26.0755 0.275333 2.93813 0
M  V30 241 H 26.1565 1.70859 1.9037 0
M  V30 242 H 25.8005 3.18351 3.95746 0
M  V30 243 H 25.7305 1.72353 4.97596 0
M  V30 244 H 28.2215 1.61112 3.41835 0
M  V30 245 H 28.5345 3.84953 6.70098 0
M  V30 246 H 26.8795 3.45596 6.02983 0
M  V30 247 H 30.0705 2.07157 4.19766 0
M  V30 248 H 30.2435 3.0921 5.69468 0
M  V30 249 N 23.6496 -1.47581 0.552962 0
M  V30 250 C 24.5816 -2.27997 -0.234533 0
M  V30 251 C 25.5946 -1.36753 -0.883321 0
M  V30 252 O 26.7836 -1.61612 -0.757889 0
M  V30 253 C 23.8836 -3.10879 -1.34935 0
M  V30 254 C 23.0566 -4.30056 -0.798158 0
M  V30 255 C 22.1156 -4.94567 -1.79694 0
M  V30 256 O 21.1416 -5.53087 -1.34474 0
M  V30 257 N 22.3436 -4.88878 -3.13015 0
M  V30 258 H 25.1086 -2.96222 0.455255 0
M  V30 259 H 22.6696 -1.57163 0.388761 0
M  V30 260 H 24.6616 -3.50903 -2.01616 0
M  V30 261 H 23.2316 -2.44924 -1.94244 0
M  V30 262 H 22.4516 -3.94174 0.0453079 0
M  V30 263 H 23.7396 -5.07152 -0.409173 0
M  V30 264 H 23.1376 -4.42526 -3.52402 0
M  V30 265 H 21.6946 -5.32934 -3.75266 0
M  V30 266 N 25.1277 -0.289203 -1.54924 0
M  V30 267 C 26.5387 0.205791 -1.85562 0
M  V30 268 C 26.8897 1.54351 -1.2112 0
M  V30 269 O 26.0147 2.10435 -0.504601 0
M  V30 270 C 26.6097 0.380177 -3.3666 0
M  V30 271 C 25.1687 0.819395 -3.67373 0
M  V30 272 C 24.3157 -0.079159 -2.77187 0
M  V30 273 H 27.2667 -0.510577 -1.50262 0
M  V30 274 H 27.2877 1.21659 -3.60526 0
M  V30 275 H 26.7997 -0.593589 -3.83534 0
M  V30 276 H 24.9007 1.80413 -3.26009 0
M  V30 277 H 25.0137 0.646957 -4.74712 0
M  V30 278 H 23.3777 0.439565 -2.50878 0
M  V30 279 H 24.1607 -1.04906 -3.26878 0
M  V30 280 N 26.6058 1.57591 -0.0167156 0
M  V30 281 C 27.5358 2.12496 0.967858 0
M  V30 282 C 28.5168 1.03807 1.34752 0
M  V30 283 O 29.7018 1.31577 1.42833 0
M  V30 284 C 26.8318 2.64194 2.25431 0
M  V30 285 C 25.7858 3.77559 2.01576 0
M  V30 286 C 25.1118 4.15636 3.36379 0
M  V30 287 C 26.4118 5.04151 1.36489 0
M  V30 288 H 28.1058 2.95013 0.510643 0
M  V30 289 H 25.6518 1.41915 0.244181 0
M  V30 290 H 27.6048 3.01236 2.94678 0
M  V30 291 H 26.3288 1.78821 2.73296 0
M  V30 292 H 24.9878 3.40937 1.34751 0
M  V30 293 H 24.6358 3.27263 3.81979 0
M  V30 294 H 24.3358 4.92022 3.21229 0
M  V30 295 H 25.8598 4.5525 4.06915 0
M  V30 296 H 27.2738 5.38857 1.95718 0
M  V30 297 H 25.6708 5.85453 1.31776 0
M  V30 298 H 26.7408 4.83733 0.336219 0
M  V30 299 N 28.0839 -0.256276 1.55502 0
M  V30 300 C 29.4949 -0.826068 1.67431 0
M  V30 301 C 29.8459 -1.86396 0.612446 0
M  V30 302 O 28.9709 -2.15031 -0.243025 0
M  V30 303 C 29.5659 -1.50512 3.03532 0
M  V30 304 C 28.1249 -2.02273 3.17431 0
M  V30 305 C 27.2719 -0.870548 2.63281 0
M  V30 306 H 30.2229 -0.0322728 1.58667 0
M  V30 307 H 30.2439 -2.37279 2.97454 0
M  V30 308 H 29.7559 -0.749484 3.80794 0
M  V30 309 H 27.8569 -2.80746 2.44974 0
M  V30 310 H 27.9699 -2.22655 4.24219 0
M  V30 311 H 26.3339 -1.26851 2.20864 0
M  V30 312 H 27.1169 -0.128149 3.43061 0
M  V30 313 N 29.562 -1.4872 -0.521534 0
M  V30 314 C 30.79 -1.60843 -1.30142 0
M  V30 315 C 31.205 -0.271897 -1.86832 0
M  V30 316 O 30.562 0.739969 -1.66825 0
M  V30 317 C 30.613 -2.66155 -2.4463 0
M  V30 318 O 30.334 -3.94623 -1.90275 0
M  V30 319 C 31.835 -2.88795 -3.36322 0
M  V30 320 H 29.055 -0.542075 -0.395468 0
M  V30 321 H 31.599 -1.94609 -0.628285 0
M  V30 322 H 29.754 -2.35224 -3.07812 0
M  V30 323 H 30.168 -4.52468 -2.65279 0
M  V30 324 H 31.642 -3.66264 -4.12983 0
M  V30 325 H 32.119 -1.97934 -3.9207 0
M  V30 326 H 32.725 -3.21063 -2.78924 0
M  V30 327 N 31.0401 0.771051 -1.3745 0
M  V30 328 C 32.2651 1.56529 -1.36065 0
M  V30 329 C 32.6901 1.88029 0.0515859 0
M  V30 330 O 32.0481 1.49282 1.02882 0
M  V30 331 C 32.0961 2.85187 -2.20683 0
M  V30 332 O 31.2001 3.79593 -1.61193 0
M  V30 333 H 30.5411 0.47411 -0.464883 0
M  V30 334 H 33.0711 0.954269 -1.80983 0
M  V30 335 H 33.0811 3.34283 -2.33921 0
M  V30 336 H 31.7561 2.61588 -3.23334 0
M  V30 337 H 30.3331 3.38239 -1.56999 0
M  V30 338 N 32.5182 1.22032 0.997298 0
M  V30 339 C 33.7662 1.04016 1.73278 0
M  V30 340 C 34.0872 -0.426255 1.90284 0
M  V30 341 O 33.3572 -1.30694 1.45931 0
M  V30 342 H 31.9372 0.381897 0.642 0
M  V30 343 H 34.5992 1.5347 1.20137 0
M  V30 344 H 33.6952 1.51441 2.72896 0
M  V30 345 N 33.9963 -1.19345 1.0293 0
M  V30 346 C 35.4123 -1.41069 0.746446 0
M  V30 347 C 35.6123 -1.90078 -0.668776 0
M  V30 348 O 34.6683 -2.0778 -1.4347 0
M  V30 349 C 35.9813 -2.42141 1.78292 0
M  V30 350 C 37.5293 -2.55887 1.80252 0
M  V30 351 C 38.0043 -3.60214 2.8286 0
M  V30 352 N 39.4953 -3.67711 2.81679 0
M  V30 353 C 40.2303 -4.48128 3.57727 0
M  V30 354 N 39.7263 -5.32248 4.43491 0
M  V30 355 N 41.5193 -4.42782 3.46267 0
M  V30 356 H 33.6703 -0.858536 1.94275 0
M  V30 357 H 35.9333 -0.439541 0.839945 0
M  V30 358 H 35.6393 -2.13155 2.79746 0
M  V30 359 H 35.5133 -3.41323 1.60557 0
M  V30 360 H 37.9003 -2.84196 0.794757 0
M  V30 361 H 37.9813 -1.56858 2.02062 0
M  V30 362 H 37.6253 -3.32647 3.83807 0
M  V30 363 H 37.5553 -4.58895 2.58307 0
M  V30 364 H 40.0463 -3.07634 2.19476 0
M  V30 365 H 40.3593 -5.90729 4.98256 0
M  V30 366 H 38.7043 -5.31707 4.47564 0
M  V30 367 H 41.8953 -3.76107 2.78677 0
M  V30 368 H 42.0683 -5.05215 4.05785 0
M  V30 369 N 35.4744 -0.807222 -1.35358 0
M  V30 370 C 36.7204 -0.397594 -1.99476 0
M  V30 371 C 37.0754 1.02405 -1.62883 0
M  V30 372 O 36.3684 1.70077 -0.882282 0
M  V30 373 C 36.5624 -0.519036 -3.53611 0
M  V30 374 C 36.3914 -1.95094 -4.05177 0
M  V30 375 C 35.1614 -2.57945 -4.34503 0
M  V30 376 C 37.3594 -2.91558 -4.23673 0
M  V30 377 N 35.3414 -3.92539 -4.72003 0
M  V30 378 C 36.7124 -4.11024 -4.64176 0
M  V30 379 C 38.7674 -2.88381 -4.05883 0
M  V30 380 C 37.4704 -5.27745 -4.88751 0
M  V30 381 C 39.4964 -4.04306 -4.31614 0
M  V30 382 C 38.8584 -5.22519 -4.72391 0
M  V30 383 H 34.9574 -0.193274 -0.75774 0
M  V30 384 H 37.5414 -1.0486 -1.6405 0
M  V30 385 H 35.7124 0.101979 -3.88266 0
M  V30 386 H 37.4444 -0.0839321 -4.04613 0
M  V30 387 H 34.1994 -2.09295 -4.24844 0
M  V30 388 H 34.6234 -4.61836 -4.95011 0
M  V30 389 H 39.2654 -1.98137 -3.73499 0
M  V30 390 H 36.9834 -6.1856 -5.20008 0
M  V30 391 H 40.5694 -4.03229 -4.19402 0
M  V30 392 H 39.4494 -6.1073 -4.91913 0
M  V30 393 N 36.9525 1.47285 -0.560781 0
M  V30 394 C 38.1985 2.03347 -0.0463654 0
M  V30 395 C 38.5535 1.42702 1.2905 0
M  V30 396 O 37.8465 0.574619 1.8278 0
M  V30 397 C 38.0405 3.57258 0.100784 0
M  V30 398 C 37.8695 4.32827 -1.22027 0
M  V30 399 C 36.6395 4.72588 -1.78854 0
M  V30 400 C 38.8375 4.67739 -2.13834 0
M  V30 401 N 36.8195 5.32816 -3.04927 0
M  V30 402 C 38.1905 5.28307 -3.24487 0
M  V30 403 C 40.2455 4.49667 -2.13784 0
M  V30 404 C 38.9485 5.72711 -4.35194 0
M  V30 405 C 40.9745 4.95073 -3.23506 0
M  V30 406 C 40.3365 5.55693 -4.32879 0
M  V30 407 H 36.4355 0.779755 -0.0592166 0
M  V30 408 H 39.0195 1.79723 -0.748857 0
M  V30 409 H 37.1905 3.80642 0.772404 0
M  V30 410 H 38.9225 3.9996 0.617589 0
M  V30 411 H 35.6775 4.54656 -1.32609 0
M  V30 412 H 36.1015 5.67471 -3.69197 0
M  V30 413 H 40.7435 4.02154 -1.30507 0
M  V30 414 H 38.4615 6.19214 -5.1923 0
M  V30 415 H 42.0475 4.82859 -3.24559 0
M  V30 416 H 40.9275 5.90188 -5.1638 0
M  V30 417 N 38.4306 0.297415 1.54768 0
M  V30 418 C 39.3606 -0.573494 2.26348 0
M  V30 419 C 40.3416 -1.14085 1.26169 0
M  V30 420 O 41.5266 -1.17086 1.54934 0
M  V30 421 C 38.6566 -1.74716 3.00153 0
M  V30 422 C 37.6106 -1.31032 4.07449 0
M  V30 423 C 36.9366 -2.56887 4.68949 0
M  V30 424 C 38.2366 -0.444183 5.20408 0
M  V30 425 H 39.9306 0.0235131 2.99391 0
M  V30 426 H 37.4766 0.0127488 1.43994 0
M  V30 427 H 39.4296 -2.3625 3.48947 0
M  V30 428 H 38.1536 -2.37035 2.24682 0
M  V30 429 H 36.8126 -0.718066 3.59499 0
M  V30 430 H 36.4606 -3.17512 3.90122 0
M  V30 431 H 36.1606 -2.2836 5.41411 0
M  V30 432 H 37.6846 -3.19229 5.20505 0
M  V30 433 H 39.0986 -0.9651 5.65118 0
M  V30 434 H 37.4956 -0.252846 5.99567 0
M  V30 435 H 38.5656 0.531609 4.81977 0
M  V30 436 N 39.9087 -1.5758 0.0250728 0
M  V30 437 C 41.1567 -1.91255 -0.653151 0
M  V30 438 C 41.4777 -0.901691 -1.729 0
M  V30 439 O 40.7477 0.0573785 -1.95816 0
M  V30 440 H 39.3277 -0.705942 -0.244243 0
M  V30 441 H 41.9897 -1.94767 0.0719209 0
M  V30 442 H 41.0857 -2.91752 -1.10847 0
M  V30 443 N 41.3868 0.248026 -1.55636 0
M  V30 444 C 42.3498 1.29044 -1.89421 0
M  V30 445 C 43.3498 1.41134 -0.770581 0
M  V30 446 O 44.5398 1.39854 -1.03858 0
M  V30 447 C 41.6718 2.66831 -2.12165 0
M  V30 448 H 42.8648 1.00305 -2.82629 0
M  V30 449 H 40.4178 0.487265 -1.48511 0
M  V30 450 H 41.1528 3.00711 -1.21422 0
M  V30 451 H 40.9378 2.59438 -2.93997 0
M  V30 452 H 42.4278 3.42103 -2.3949 0
M  V30 453 N 42.8649 1.48995 0.513639 0
M  V30 454 C 43.8279 1.64229 1.59879 0
M  V30 455 C 44.8279 0.514696 1.5234 0
M  V30 456 O 46.0179 0.78087 1.55718 0
M  V30 457 C 43.1499 1.62783 2.99524 0
M  V30 458 H 44.3429 2.61004 1.47705 0
M  V30 459 H 41.8959 1.37837 0.736936 0
M  V30 460 H 42.6309 0.675461 3.17188 0
M  V30 461 H 42.4159 2.4466 3.06404 0
M  V30 462 H 43.9059 1.76669 3.78388 0
M  V30 463 N 44.343 -0.763751 1.37857 0
M  V30 464 C 45.568 -1.55805 1.36893 0
M  V30 465 C 45.993 -1.88054 -0.0416135 0
M  V30 466 O 45.351 -1.49825 -1.02089 0
M  V30 467 C 45.399 -2.84012 2.22192 0
M  V30 468 O 44.503 -3.78732 1.63204 0
M  V30 469 H 43.844 -0.471638 0.46739 0
M  V30 470 H 46.374 -0.944657 1.81487 0
M  V30 471 H 46.384 -3.33037 2.35691 0
M  V30 472 H 45.059 -2.59869 3.24716 0
M  V30 473 H 43.636 -3.37402 1.58791 0
M  V30 474 N 45.8211 -1.22559 -0.990812 0
M  V30 475 C 47.0671 -1.06303 -1.73411 0
M  V30 476 C 47.4221 0.397442 -1.8825 0
M  V30 477 O 46.7151 1.29062 -1.41611 0
M  V30 478 C 46.9091 -1.71011 -3.13831 0
M  V30 479 C 46.7381 -3.232 -3.12685 0
M  V30 480 C 45.5081 -3.92314 -3.18461 0
M  V30 481 C 47.7061 -4.20107 -2.96673 0
M  V30 482 N 45.6881 -5.31571 -3.07091 0
M  V30 483 C 47.0591 -5.46208 -2.93354 0
M  V30 484 C 49.1141 -4.10973 -2.8108 0
M  V30 485 C 47.8171 -6.64225 -2.76039 0
M  V30 486 C 49.8431 -5.28642 -2.65126 0
M  V30 487 C 49.2051 -6.53663 -2.62496 0
M  V30 488 H 45.3041 -0.443441 -0.644115 0
M  V30 489 H 47.8881 -1.55131 -1.17654 0
M  V30 490 H 46.0591 -1.2473 -3.67827 0
M  V30 491 H 47.7911 -1.47828 -3.76735 0
M  V30 492 H 44.5461 -3.43326 -3.26227 0
M  V30 493 H 44.9701 -6.0455 -3.0471 0
M  V30 494 H 49.6121 -3.15098 -2.8191 0
M  V30 495 H 47.3301 -7.60246 -2.73954 0
M  V30 496 H 50.9161 -5.23407 -2.54039 0
M  V30 497 H 49.7961 -7.43182 -2.50302 0
M  V30 498 N 47.2992 1.18797 -1.03562 0
M  V30 499 C 48.5452 1.89192 -0.746867 0
M  V30 500 C 48.9002 1.78531 0.717245 0
M  V30 501 O 48.1932 1.17137 1.51622 0
M  V30 502 C 48.3872 3.38692 -1.14117 0
M  V30 503 C 48.2162 3.63902 -2.64207 0
M  V30 504 C 46.9862 3.81553 -3.31279 0
M  V30 505 C 49.1842 3.64903 -3.62423 0
M  V30 506 N 47.1662 3.94455 -4.70402 0
M  V30 507 C 48.5372 3.83458 -4.87196 0
M  V30 508 C 50.5922 3.47965 -3.56125 0
M  V30 509 C 49.2952 3.86829 -6.06429 0
M  V30 510 C 51.3212 3.52616 -4.7478 0
M  V30 511 C 50.6832 3.71663 -5.9837 0
M  V30 512 H 46.7822 0.711141 -0.325273 0
M  V30 513 H 49.3662 1.42727 -1.32428 0
M  V30 514 H 47.5372 3.83864 -0.591889 0
M  V30 515 H 49.2692 3.96634 -0.803966 0
M  V30 516 H 46.0242 3.80723 -2.81686 0
M  V30 517 H 46.4482 4.0474 -5.42692 0
M  V30 518 H 51.0902 3.32189 -2.61553 0
M  V30 519 H 48.8082 4.01395 -7.01362 0
M  V30 520 H 52.3942 3.40791 -4.71543 0
M  V30 521 H 51.2742 3.75145 -6.88648 0
M  V30 522 N 48.7773 0.814389 1.34928 0
M  V30 523 C 50.0233 0.408167 1.99263 0
M  V30 524 C 50.3783 -1.0154 1.63424 0
M  V30 525 O 49.6713 -1.69607 0.891289 0
M  V30 526 C 49.8653 0.537781 3.53331 0
M  V30 527 C 49.6943 1.9724 4.04137 0
M  V30 528 C 48.4643 2.60245 4.33129 0
M  V30 529 C 50.6623 2.93801 4.2212 0
M  V30 530 N 48.6443 3.95036 4.69914 0
M  V30 531 C 50.0153 4.1348 4.6199 0
M  V30 532 C 52.0703 2.9053 4.04348 0
M  V30 533 C 50.7733 5.3033 4.85945 0
M  V30 534 C 52.7993 4.06589 4.29464 0
M  V30 535 C 52.1613 5.25017 4.69613 0
M  V30 536 H 48.2603 0.197289 0.756704 0
M  V30 537 H 50.8443 1.05728 1.63492 0
M  V30 538 H 49.0153 -0.0813868 3.88315 0
M  V30 539 H 50.7473 0.105389 4.04563 0
M  V30 540 H 47.5023 2.11545 4.23728 0
M  V30 541 H 47.9263 4.64455 4.92555 0
M  V30 542 H 52.5683 2.00115 3.72443 0
M  V30 543 H 50.2863 6.21309 5.16721 0
M  V30 544 H 53.8723 4.05447 4.17257 0
M  V30 545 H 52.7523 6.1333 4.88667 0
M  V30 546 N 50.2554 -1.46986 0.568584 0
M  V30 547 C 51.1854 -2.32946 -0.160753 0
M  V30 548 C 52.1664 -1.44487 -0.897631 0
M  V30 549 O 53.3514 -1.73327 -0.875867 0
M  V30 550 C 50.4814 -3.26494 -1.18403 0
M  V30 551 C 49.4354 -4.24282 -0.562895 0
M  V30 552 C 48.7614 -5.07236 -1.69163 0
M  V30 553 C 50.0614 -5.19989 0.490761 0
M  V30 554 H 51.7554 -2.94175 0.556916 0
M  V30 555 H 49.3014 -1.4146 0.26927 0
M  V30 556 H 51.2544 -3.85477 -1.70251 0
M  V30 557 H 49.9784 -2.63343 -1.93179 0
M  V30 558 H 48.6374 -3.66541 -0.0656164 0
M  V30 559 H 48.2854 -4.4048 -2.42871 0
M  V30 560 H 47.9854 -5.7345 -1.28174 0
M  V30 561 H 49.5094 -5.6908 -2.21314 0
M  V30 562 H 50.9234 -5.73271 0.0579047 0
M  V30 563 H 49.3204 -5.94469 0.820165 0
M  V30 564 H 50.3904 -4.64777 1.3824 0
M  V30 565 N 51.7335 -0.305618 -1.54608 0
M  V30 566 C 52.9815 0.301701 -1.99835 0
M  V30 567 C 53.3025 1.54054 -1.19551 0
M  V30 568 O 52.5725 1.93702 -0.292658 0
M  V30 569 H 51.1525 0.114468 -0.738178 0
M  V30 570 H 53.8145 -0.418016 -1.90364 0
M  V30 571 H 52.9105 0.570548 -3.06841 0
M  V30 572 N 53.2116 1.57565 -0.0334293 0
M  V30 573 C 54.1746 2.09393 0.932048 0
M  V30 574 C 55.1746 1.00986 1.25134 0
M  V30 575 O 56.3646 1.27129 1.19096 0
M  V30 576 C 53.4966 2.56338 2.2473 0
M  V30 577 H 54.6896 2.95984 0.483085 0
M  V30 578 H 52.2426 1.54819 0.21468 0
M  V30 579 H 52.9776 1.7309 2.74245 0
M  V30 580 H 52.7626 3.35542 2.02865 0
M  V30 581 H 54.2526 2.96646 2.93923 0
M  V30 582 N 54.6897 -0.239769 1.55765 0
M  V30 583 C 55.6527 -1.28038 1.90103 0
M  V30 584 C 56.6527 -1.40723 0.778055 0
M  V30 585 O 57.8427 -1.39301 1.04599 0
M  V30 586 C 54.9747 -2.65702 2.13577 0
M  V30 587 H 56.1677 -0.988048 2.83157 0
M  V30 588 H 53.7207 -0.479382 1.48767 0
M  V30 589 H 54.4557 -3.00063 1.23015 0
M  V30 590 H 54.2407 -2.57875 2.95369 0
M  V30 591 H 55.7307 -3.40828 2.41301 0
M  V30 592 N 56.1678 -1.49265 -0.50573 0
M  V30 593 C 57.3928 -1.62478 -1.28902 0
M  V30 594 C 57.8178 -0.294332 -1.85783 0
M  V30 595 O 57.1758 0.737412 -1.65626 0
M  V30 596 C 57.2238 -2.69268 -2.39848 0
M  V30 597 O 56.3278 -2.28113 -3.43567 0
M  V30 598 H 55.6688 -0.54399 -0.380751 0
M  V30 599 H 58.1988 -1.95421 -0.605952 0
M  V30 600 H 58.2088 -2.91291 -2.85681 0
M  V30 601 H 56.8838 -3.65846 -1.97812 0
M  V30 602 H 55.4608 -2.16401 -3.03685 0
M  V30 603 N 57.6459 0.756429 -1.3826 0
M  V30 604 C 58.8919 1.5168 -1.35517 0
M  V30 605 C 59.2469 1.9232 0.0554451 0
M  V30 606 O 58.5399 1.62352 1.01746 0
M  V30 607 C 58.7339 2.78313 -2.24224 0
M  V30 608 C 58.5629 2.50053 -3.7377 0
M  V30 609 C 57.3329 2.43414 -4.42807 0
M  V30 610 C 59.5309 2.1702 -4.66269 0
M  V30 611 N 57.5129 2.07398 -5.77805 0
M  V30 612 C 58.8839 1.91271 -5.89759 0
M  V30 613 C 60.9389 2.03305 -4.54501 0
M  V30 614 C 59.6419 1.53192 -7.02798 0
M  V30 615 C 61.6679 1.66627 -5.67441 0
M  V30 616 C 61.0299 1.4175 -6.8999 0
M  V30 617 H 57.1289 0.554735 -0.551174 0
M  V30 618 H 59.7129 0.881106 -1.73622 0
M  V30 619 H 57.8839 3.39696 -1.88311 0
M  V30 620 H 59.6159 3.44343 -2.12627 0
M  V30 621 H 56.3709 2.59789 -3.95988 0
M  V30 622 H 56.7949 1.92044 -6.4919 0
M  V30 623 H 61.4369 2.21215 -3.60311 0
M  V30 624 H 59.1549 1.34022 -7.96909 0
M  V30 625 H 62.7409 1.56652 -5.60314 0
M  V30 626 H 61.6209 1.1379 -7.759 0
M  V30 627 N 59.124 1.23083 0.984299 0
M  V30 628 C 60.37 1.07221 1.72845 0
M  V30 629 C 60.725 -0.387453 1.88458 0
M  V30 630 O 60.018 -1.28309 1.42293 0
M  V30 631 C 60.212 1.72673 3.1292 0
M  V30 632 C 60.041 3.24853 3.10967 0
M  V30 633 C 58.811 3.93998 3.16376 0
M  V30 634 C 61.009 4.21674 2.94441 0
M  V30 635 N 58.991 5.33192 3.04268 0
M  V30 636 C 60.362 5.47756 2.90453 0
M  V30 637 C 62.417 4.12457 2.78897 0
M  V30 638 C 61.12 6.6568 2.72512 0
M  V30 639 C 63.146 5.3004 2.62319 0
M  V30 640 C 62.508 6.55046 2.59026 0
M  V30 641 H 58.607 0.44685 0.641755 0
M  V30 642 H 61.191 1.55753 1.16829 0
M  V30 643 H 59.362 1.26679 3.67161 0
M  V30 644 H 61.094 1.49824 3.75945 0
M  V30 645 H 57.849 3.45052 3.24401 0
M  V30 646 H 58.273 6.06157 3.015 0
M  V30 647 H 62.915 3.16588 2.80235 0
M  V30 648 H 60.633 7.61689 2.69919 0
M  V30 649 H 64.219 5.24747 2.5126 0
M  V30 650 H 63.099 7.44498 2.46357 0
M  V30 651 N 60.6021 -1.18246 1.0419 0
M  V30 652 C 61.8481 -1.88793 0.75689 0
M  V30 653 C 62.2031 -1.78909 -0.707767 0
M  V30 654 O 61.4961 -1.1794 -1.50999 0
M  V30 655 C 61.6901 -3.38082 1.15911 0
M  V30 656 C 61.5191 -3.62496 2.66133 0
M  V30 657 C 60.2891 -3.7979 3.33298 0
M  V30 658 C 62.4871 -3.62976 3.64353 0
M  V30 659 N 60.4691 -3.91955 4.72487 0
M  V30 660 C 61.8401 -3.80869 4.89222 0
M  V30 661 C 63.8951 -3.46071 3.57965 0
M  V30 662 C 62.5981 -3.83608 6.08471 0
M  V30 663 C 64.6241 -3.50093 4.76643 0
M  V30 664 C 63.9861 -3.68484 6.00332 0
M  V30 665 H 60.0851 -0.709406 0.32904 0
M  V30 666 H 62.6691 -1.42022 1.33183 0
M  V30 667 H 60.8401 -3.83544 0.612238 0
M  V30 668 H 62.5721 -3.96202 0.824989 0
M  V30 669 H 59.3271 -3.79224 2.83701 0
M  V30 670 H 59.7511 -4.01857 5.44831 0
M  V30 671 H 64.3931 -3.30797 2.63311 0
M  V30 672 H 62.1111 -3.97669 7.0348 0
M  V30 673 H 65.6971 -3.38285 4.73344 0
M  V30 674 H 64.5771 -3.71488 6.90627 0
M  V30 675 N 62.0802 -0.821533 -1.34494 0
M  V30 676 C 63.0102 -0.257138 -2.3208 0
M  V30 677 C 63.9912 0.625645 -1.58176 0
M  V30 678 O 65.1762 0.552811 -1.86166 0
M  V30 679 C 62.3062 0.582958 -3.42372 0
M  V30 680 C 61.2602 -0.202571 -4.2752 0
M  V30 681 C 60.5862 0.760179 -5.29269 0
M  V30 682 C 61.8862 -1.40998 -5.02908 0
M  V30 683 H 63.5802 -1.07247 -2.79532 0
M  V30 684 H 61.1262 -0.517163 -1.34393 0
M  V30 685 H 63.0792 0.987972 -4.09655 0
M  V30 686 H 61.8032 1.43133 -2.93565 0
M  V30 687 H 60.4622 -0.588936 -3.61838 0
M  V30 688 H 60.1102 1.60447 -4.76724 0
M  V30 689 H 59.8102 0.238809 -5.87115 0
M  V30 690 H 61.3342 1.16308 -5.9942 0
M  V30 691 H 62.7482 -1.07905 -5.63054 0
M  V30 692 H 61.1452 -1.86689 -5.70322 0
M  V30 693 H 62.2152 -2.1889 -4.32684 0
M  V30 694 N 63.5583 1.46682 -0.576371 0
M  V30 695 C 64.8063 2.02013 -0.0594163 0
M  V30 696 C 65.1273 1.45101 1.30271 0
M  V30 697 O 64.3973 0.633317 1.8538 0
M  V30 698 H 62.9773 0.746759 -0.0189745 0
M  V30 699 H 65.6393 1.79862 -0.750717 0
M  V30 700 H 64.7353 3.12097 0.014345 0
M  V30 701 N 65.0364 0.313813 1.54444 0
M  V30 702 C 65.9994 -0.54379 2.22656 0
M  V30 703 C 66.9994 -1.05124 1.21678 0
M  V30 704 O 68.1894 -0.945225 1.46325 0
M  V30 705 C 65.3214 -1.75427 2.92298 0
M  V30 706 H 66.5144 0.0523599 2.99854 0
M  V30 707 H 64.0674 0.0647834 1.56166 0
M  V30 708 H 64.8024 -2.38991 2.19211 0
M  V30 709 H 64.5874 -1.39791 3.66334 0
M  V30 710 H 66.0774 -2.36325 3.44297 0
M  V30 711 N 66.5145 -1.57545 0.0417849 0
M  V30 712 C 67.4775 -2.09885 -0.92093 0
M  V30 713 C 68.4775 -1.01648 -1.24596 0
M  V30 714 O 69.6675 -1.27759 -1.1842 0
M  V30 715 C 66.7995 -2.57527 -2.23367 0
M  V30 716 H 67.9925 -2.96236 -0.467382 0
M  V30 717 H 65.5455 -1.5493 -0.206467 0
M  V30 718 H 66.2805 -1.74542 -2.73323 0
M  V30 719 H 66.0655 -3.36613 -2.01083 0
M  V30 720 H 67.5555 -2.98201 -2.92346 0
M  V30 721 N 67.9926 0.231505 -1.5589 0
M  V30 722 C 69.4036 0.799327 -1.68724 0
M  V30 723 C 69.7546 1.85398 -0.642022 0
M  V30 724 O 68.8796 2.1539 0.208784 0
M  V30 725 C 69.4746 1.45664 -3.05888 0
M  V30 726 C 68.0336 1.97197 -3.20609 0
M  V30 727 C 67.1806 0.828552 -2.64632 0
M  V30 728 H 70.1316 0.00702616 -1.58698 0
M  V30 729 H 70.1526 2.32517 -3.01191 0
M  V30 730 H 69.6646 0.688808 -3.81939 0
M  V30 731 H 67.7656 2.76813 -2.4941 0
M  V30 732 H 67.8786 2.15878 -4.27707 0
M  V30 733 H 66.2426 1.23321 -2.22854 0
M  V30 734 H 67.0256 0.0735544 -3.43221 0
M  V30 735 N 69.4707 1.49531 0.497807 0
M  V30 736 C 70.7167 1.60388 1.25089 0
M  V30 737 C 71.0717 0.288328 1.90227 0
M  V30 738 O 70.3647 -0.711706 1.77891 0
M  V30 739 C 70.5587 2.70252 2.33878 0
M  V30 740 C 70.3877 4.12363 1.79408 0
M  V30 741 C 69.1577 4.7911 1.60566 0
M  V30 742 C 71.3557 4.97491 1.30412 0
M  V30 743 N 69.3377 6.05525 1.01059 0
M  V30 744 C 70.7087 6.14411 0.830595 0
M  V30 745 C 72.7637 4.83466 1.19015 0
M  V30 746 C 71.4667 7.1885 0.254371 0
M  V30 747 C 73.4927 5.88057 0.627892 0
M  V30 748 C 72.8547 7.04208 0.16461 0
M  V30 749 H 68.9537 0.641246 0.447579 0
M  V30 750 H 71.5377 1.86549 0.557441 0
M  V30 751 H 69.7087 2.45858 3.0068 0
M  V30 752 H 71.4407 2.70613 3.00917 0
M  V30 753 H 68.1957 4.35961 1.85026 0
M  V30 754 H 68.6197 6.73028 0.732236 0
M  V30 755 H 73.2617 3.93978 1.53431 0
M  V30 756 H 70.9797 8.08036 -0.102052 0
M  V30 757 H 74.5657 5.79266 0.542444 0
M  V30 758 H 73.4457 7.83757 -0.263669 0
M  V30 759 N 70.9488 -0.749086 1.3866 0
M  V30 760 C 72.1948 -1.50959 1.36319 0
M  V30 761 C 72.5498 -1.92347 -0.0452451 0
M  V30 762 O 71.8428 -1.6289 -1.00884 0
M  V30 763 C 72.0368 -2.7712 2.25697 0
M  V30 764 C 71.8658 -2.48067 3.7509 0
M  V30 765 C 70.6358 -2.41062 4.44091 0
M  V30 766 C 72.8338 -2.14544 4.67414 0
M  V30 767 N 70.8158 -2.04331 5.78897 0
M  V30 768 C 72.1868 -1.88141 5.90765 0
M  V30 769 C 74.2418 -2.00892 4.55573 0
M  V30 770 C 72.9448 -1.49463 7.036 0
M  V30 771 C 74.9708 -1.63616 5.68317 0
M  V30 772 C 74.3328 -1.38088 6.90732 0
M  V30 773 H 70.4318 -0.551804 0.554108 0
M  V30 774 H 73.0158 -0.871886 1.74087 0
M  V30 775 H 71.1868 -3.38693 1.9011 0
M  V30 776 H 72.9188 -3.4321 2.1445 0
M  V30 777 H 69.6738 -2.57685 3.9736 0
M  V30 778 H 70.0978 -1.88598 6.502 0
M  V30 779 H 74.7398 -2.19301 3.61479 0
M  V30 780 H 72.4578 -1.29794 7.97608 0
M  V30 781 H 76.0438 -1.53678 5.61137 0
M  V30 782 H 74.9238 -1.09674 7.76493 0
M  V30 783 N 72.4269 -1.23603 -0.977757 0
M  V30 784 C 73.6729 -1.08136 -1.72274 0
M  V30 785 C 74.0279 0.377453 -1.88661 0
M  V30 786 O 73.3209 1.27552 -1.42972 0
M  V30 787 C 73.5149 -1.7433 -3.11999 0
M  V30 788 C 73.3439 -3.26498 -3.0924 0
M  V30 789 C 72.1139 -3.9567 -3.14282 0
M  V30 790 C 74.3119 -4.2323 -2.92201 0
M  V30 791 N 72.2939 -5.34799 -3.01436 0
M  V30 792 C 73.6649 -5.49289 -2.87544 0
M  V30 793 C 75.7199 -4.13931 -2.76705 0
M  V30 794 C 74.4229 -6.67116 -2.68978 0
M  V30 795 C 76.4489 -5.31424 -2.59504 0
M  V30 796 C 75.8109 -6.5641 -2.55548 0
M  V30 797 H 71.9099 -0.450247 -0.639376 0
M  V30 798 H 74.4939 -1.5637 -1.16002 0
M  V30 799 H 72.6649 -1.28624 -3.66484 0
M  V30 800 H 74.3969 -1.51815 -3.75146 0
M  V30 801 H 71.1519 -3.46767 -3.22567 0
M  V30 802 H 71.5759 -6.07748 -2.98281 0
M  V30 803 H 76.2179 -3.1807 -2.78552 0
M  V30 804 H 73.9359 -7.63109 -2.65876 0
M  V30 805 H 77.5219 -5.26072 -2.48474 0
M  V30 806 H 76.4019 -7.45795 -2.42405 0
M  V30 807 N 73.905 1.17692 -1.04816 0
M  V30 808 C 74.835 2.23777 -0.666791 0
M  V30 809 C 75.816 1.66796 0.33361 0
M  V30 810 O 77.001 1.93039 0.212042 0
M  V30 811 C 74.131 3.47281 -0.0367933 0
M  V30 812 C 73.085 4.17059 -0.961546 0
M  V30 813 C 72.411 5.34342 -0.195626 0
M  V30 814 C 73.711 4.69713 -2.28402 0
M  V30 815 H 75.405 2.55933 -1.55367 0
M  V30 816 H 72.951 1.23019 -0.748484 0
M  V30 817 H 74.904 4.20706 0.241775 0
M  V30 818 H 73.628 3.14381 0.885004 0
M  V30 819 H 72.287 3.45541 -1.22462 0
M  V30 820 H 71.935 4.97692 0.728816 0
M  V30 821 H 71.635 5.81966 -0.811775 0
M  V30 822 H 73.159 6.10553 0.0757473 0
M  V30 823 H 74.573 5.34794 -2.06563 0
M  V30 824 H 72.97 5.279 -2.8538 0
M  V30 825 H 74.04 3.86726 -2.92525 0
M  V30 826 N 75.3831 0.828654 1.34056 0
M  V30 827 C 76.6311 0.41863 1.97717 0
M  V30 828 C 76.9521 -1.02314 1.66002 0
M  V30 829 O 76.2221 -1.71119 0.953683 0
M  V30 830 H 74.8021 0.151809 0.731412 0
M  V30 831 H 77.4641 1.05936 1.63596 0
M  V30 832 H 76.5601 0.542318 3.07352 0
M  V30 833 N 76.8612 -1.46375 0.584142 0
M  V30 834 C 78.0892 -2.06761 0.0759296 0
M  V30 835 C 78.5042 -1.43266 -1.22965 0
M  V30 836 O 77.8612 -0.538458 -1.74376 0
M  V30 837 C 77.9122 -3.61375 -0.0950384 0
M  V30 838 O 77.6332 -4.22495 1.15887 0
M  V30 839 C 79.1342 -4.38693 -0.637434 0
M  V30 840 H 76.3542 -0.668479 0.0581075 0
M  V30 841 H 78.8982 -1.8798 0.805218 0
M  V30 842 H 77.0532 -3.79578 -0.774554 0
M  V30 843 H 77.4672 -5.15385 0.973598 0
M  V30 844 H 78.9412 -5.47464 -0.706237 0
M  V30 845 H 79.4182 -4.06836 -1.65472 0
M  V30 846 H 80.0242 -4.25299 0.00725967 0
M  V30 847 N 78.3393 -0.321999 -1.54275 0
M  V30 848 C 79.3023 0.531975 -2.22941 0
M  V30 849 C 80.3023 1.04478 -1.22234 0
M  V30 850 O 81.4923 0.937452 -1.46825 0
M  V30 851 C 78.6243 1.73874 -2.93224 0
M  V30 852 H 79.8173 -0.0682612 -2.99822 0
M  V30 853 H 77.3703 -0.0730644 -1.56129 0
M  V30 854 H 78.1053 2.37825 -2.20476 0
M  V30 855 H 77.8903 1.37847 -3.6707 0
M  V30 856 H 79.3803 2.34496 -3.45545 0
M  V30 857 N 79.8174 1.5752 -0.0501392 0
M  V30 858 C 81.0424 1.97376 0.636997 0
M  V30 859 C 81.4674 0.927466 1.63645 0
M  V30 860 O 80.8254 -0.10941 1.8097 0
M  V30 861 C 80.8734 3.36304 1.30123 0
M  V30 862 O 79.9774 3.34156 2.41689 0
M  V30 863 H 79.3184 0.642998 0.165679 0
M  V30 864 H 81.8484 2.04258 -0.118233 0
M  V30 865 H 81.8584 3.73008 1.65315 0
M  V30 866 H 80.5334 4.11993 0.568746 0
M  V30 867 H 79.1104 3.09196 2.08451 0
M  V30 868 N 81.2955 -0.223234 1.56011 0
M  V30 869 C 82.5415 -0.944891 1.8012 0
M  V30 870 C 82.8965 -1.82039 0.622862 0
M  V30 871 O 82.1895 -1.8773 -0.383143 0
M  V30 872 C 82.3835 -1.81948 3.0762 0
M  V30 873 C 82.2125 -1.03014 4.37742 0
M  V30 874 C 80.9825 -0.72574 5.00061 0
M  V30 875 C 83.1805 -0.396256 5.12771 0
M  V30 876 N 81.1625 0.0851816 6.13841 0
M  V30 877 C 82.5335 0.278137 6.19376 0
M  V30 878 C 84.5885 -0.309117 4.9694 0
M  V30 879 C 83.2915 1.03133 7.11868 0
M  V30 880 C 85.3175 0.430607 5.8983 0
M  V30 881 C 84.6795 1.09355 6.9586 0
M  V30 882 H 80.7785 -0.326081 0.710771 0
M  V30 883 H 83.3625 -0.215914 1.93499 0
M  V30 884 H 81.5335 -2.52029 2.95527 0
M  V30 885 H 83.2655 -2.47848 3.19927 0
M  V30 886 H 80.0205 -1.04335 4.61964 0
M  V30 887 H 80.4445 0.479428 6.753 0
M  V30 888 H 85.0865 -0.807313 4.15021 0
M  V30 889 H 82.8045 1.54105 7.9327 0
M  V30 890 H 86.3905 0.499012 5.79656 0
M  V30 891 H 85.2705 1.65679 7.66499 0
M  V30 892 N 82.7736 -1.49793 -0.48987 0
M  V30 893 C 84.0196 -1.61049 -1.24236 0
M  V30 894 C 84.3746 -0.298412 -1.90072 0
M  V30 895 O 83.6676 0.702262 -1.78266 0
M  V30 896 C 83.8616 -2.71488 -2.32441 0
M  V30 897 C 83.6906 -4.13308 -1.77218 0
M  V30 898 C 82.4606 -4.79955 -1.58023 0
M  V30 899 C 84.6586 -4.98176 -1.27772 0
M  V30 900 N 82.6406 -6.06052 -0.978465 0
M  V30 901 C 84.0116 -6.14843 -0.798 0
M  V30 902 C 86.0666 -4.84091 -1.16449 0
M  V30 903 C 84.7696 -7.18975 -0.216245 0
M  V30 904 C 86.7956 -5.88382 -0.596698 0
M  V30 905 C 86.1576 -7.04285 -0.127262 0
M  V30 906 H 82.2566 -0.643611 -0.444172 0
M  V30 907 H 84.8406 -1.86842 -0.54754 0
M  V30 908 H 83.0116 -2.47449 -2.99372 0
M  V30 909 H 84.7436 -2.72205 -2.99477 0
M  V30 910 H 81.4986 -4.36936 -1.82712 0
M  V30 911 H 81.9226 -6.73407 -0.696534 0
M  V30 912 H 86.5646 -3.94786 -1.5134 0
M  V30 913 H 84.2826 -8.0797 0.144903 0
M  V30 914 H 87.8686 -5.79545 -0.511716 0
M  V30 915 H 86.7486 -7.83606 0.30523 0
M  V30 916 N 84.2517 0.741722 -1.39055 0
M  V30 917 C 85.4977 1.50234 -1.37118 0
M  V30 918 C 85.8527 1.92368 0.0350439 0
M  V30 919 O 85.1457 1.63422 1.00019 0
M  V30 920 C 85.3397 2.7592 -2.27163 0
M  V30 921 C 85.1687 2.46074 -3.76401 0
M  V30 922 C 83.9387 2.38704 -4.45364 0
M  V30 923 C 86.1367 2.12062 -4.68545 0
M  V30 924 N 84.1187 2.01258 -5.79973 0
M  V30 925 C 85.4897 1.85005 -5.91754 0
M  V30 926 C 87.5447 1.98473 -4.56632 0
M  V30 927 C 86.2477 1.4573 -7.04383 0
M  V30 928 C 88.2737 1.60599 -5.69176 0
M  V30 929 C 87.6357 1.34423 -6.91455 0
M  V30 930 H 83.7347 0.548858 -0.557027 0
M  V30 931 H 86.3187 0.862642 -1.74547 0
M  V30 932 H 84.4897 3.3768 -1.91904 0
M  V30 933 H 86.2217 3.42068 -2.16267 0
M  V30 934 H 82.9767 2.55574 -3.98721 0
M  V30 935 H 83.4007 1.85147 -6.51191 0
M  V30 936 H 88.0427 2.17381 -3.62637 0
M  V30 937 H 85.7607 1.25562 -7.98286 0
M  V30 938 H 89.3467 1.507 -5.61944 0
M  V30 939 H 88.2267 1.05555 -7.77064 0
M  V30 940 N 85.7298 1.2412 0.971189 0
M  V30 941 C 86.6598 1.05508 2.08304 0
M  V30 942 C 87.6408 -0.0308864 1.70072 0
M  V30 943 O 88.8258 0.135521 1.93727 0
M  V30 944 C 85.9558 0.655365 3.4106 0
M  V30 945 C 84.9098 1.68971 3.93234 0
M  V30 946 C 84.2358 1.14516 5.22293 0
M  V30 947 C 85.5358 3.08487 4.21465 0
M  V30 948 H 87.2298 1.98507 2.24132 0
M  V30 949 H 84.7758 0.955821 1.07704 0
M  V30 950 H 86.7288 0.51217 4.18276 0
M  V30 951 H 85.4528 -0.31032 3.25122 0
M  V30 952 H 84.1118 1.82106 3.18171 0
M  V30 953 H 83.7598 0.170189 5.02712 0
M  V30 954 H 83.4598 1.83635 5.58168 0
M  V30 955 H 84.9838 1.01401 6.02121 0
M  V30 956 H 86.3978 2.98601 4.89398 0
M  V30 957 H 84.7948 3.74926 4.68562 0
M  V30 958 H 85.8648 3.56787 3.28376 0
M  V30 959 N 87.2079 -1.17134 1.05439 0
M  V30 960 C 88.4559 -1.87085 0.764429 0
M  V30 961 C 88.7769 -1.81584 -0.710787 0
M  V30 962 O 88.0469 -1.24349 -1.51374 0
M  V30 963 H 86.6269 -0.692627 0.279779 0
M  V30 964 H 89.2889 -1.42087 1.33406 0
M  V30 965 H 88.3849 -2.92759 1.0816 0
M  V30 966 N 88.686 -0.835752 -1.33615 0
M  V30 967 C 89.911 -0.442389 -2.02627 0
M  V30 968 C 90.336 0.947735 -1.62479 0
M  V30 969 O 89.694 1.61907 -0.815826 0
M  V30 970 C 89.742 -0.567216 -3.56111 0
M  V30 971 O 88.846 0.407799 -4.10379 0
M  V30 972 H 88.187 -0.180278 -0.639059 0
M  V30 973 H 90.717 -1.12972 -1.70583 0
M  V30 974 H 90.727 -0.447708 -4.05536 0
M  V30 975 H 89.402 -1.58103 -3.84677 0
M  V30 976 H 87.979 0.246107 -3.72087 0
M  V30 977 N 90.1641 1.46063 -0.591896 0
M  V30 978 C 91.5801 1.57561 -0.254288 0
M  V30 979 C 91.7801 1.58565 1.24336 0
M  V30 980 O 90.8361 1.50753 2.02558 0
M  V30 981 C 92.1491 2.86549 -0.911611 0
M  V30 982 C 93.6971 3.00197 -0.886059 0
M  V30 983 C 94.1721 4.31933 -1.5231 0
M  V30 984 N 95.6631 4.38654 -1.48786 0
M  V30 985 C 96.3981 5.39222 -1.95006 0
M  V30 986 N 95.8941 6.46414 -2.49241 0
M  V30 987 N 97.6871 5.3048 -1.85868 0
M  V30 988 H 89.8381 1.43655 -1.56451 0
M  V30 989 H 92.1011 0.68583 -0.654478 0
M  V30 990 H 91.8071 2.91651 -1.96551 0
M  V30 991 H 91.6811 3.74794 -0.425368 0
M  V30 992 H 94.0681 2.9467 0.159246 0
M  V30 993 H 94.1491 2.13403 -1.41041 0
M  V30 994 H 93.7931 4.38217 -2.56765 0
M  V30 995 H 93.7231 5.17516 -0.973891 0
M  V30 996 H 96.2141 3.61793 -1.09151 0
M  V30 997 H 96.5271 7.19376 -2.82344 0
M  V30 998 H 94.8721 6.47208 -2.53272 0
M  V30 999 H 98.0631 4.45643 -1.43248 0
M  V30 1000 H 98.2361 6.08711 -2.22204 0
M  V30 1001 N 91.6422 0.330177 1.54103 0
M  V30 1002 C 93.0582 -0.0222371 1.59585 0
M  V30 1003 C 93.2582 -1.49902 1.34654 0
M  V30 1004 O 92.3142 -2.25592 1.13421 0
M  V30 1005 C 93.6272 0.401932 2.98002 0
M  V30 1006 C 95.1752 0.353145 3.11001 0
M  V30 1007 C 95.6502 0.752576 4.51775 0
M  V30 1008 N 97.1412 0.706239 4.57784 0
M  V30 1009 C 97.8762 0.987417 5.64834 0
M  V30 1010 N 97.3722 1.33607 6.79795 0
M  V30 1011 N 99.1652 0.91254 5.54643 0
M  V30 1012 H 91.3162 1.29228 1.68564 0
M  V30 1013 H 93.5792 0.525906 0.78875 0
M  V30 1014 H 93.2852 1.4311 3.21267 0
M  V30 1015 H 93.1592 -0.229699 3.765 0
M  V30 1016 H 95.5462 -0.666822 2.87467 0
M  V30 1017 H 95.6272 1.0198 2.34593 0
M  V30 1018 H 95.2712 1.77049 4.76042 0
M  V30 1019 H 95.2012 0.0635409 5.26562 0
M  V30 1020 H 97.6922 0.44889 3.75224 0
M  V30 1021 H 98.0052 1.53582 7.57385 0
M  V30 1022 H 96.3502 1.37439 6.81275 0
M  V30 1023 H 99.5412 0.639601 4.6371 0
M  V30 1024 H 99.7142 1.13503 6.37982 0
M  V30 1025 N 93.1203 -1.57491 0.0584922 0
M  V30 1026 C 94.3663 -1.94081 -0.608617 0
M  V30 1027 C 94.7213 -0.937438 -1.68017 0
M  V30 1028 O 94.0143 0.0423034 -1.91553 0
M  V30 1029 C 94.2083 -3.3513 -1.24188 0
M  V30 1030 C 94.0373 -4.49095 -0.233187 0
M  V30 1031 C 92.8073 -5.04988 0.177439 0
M  V30 1032 C 95.0053 -5.1162 0.524306 0
M  V30 1033 N 92.9873 -6.02487 1.17823 0
M  V30 1034 C 94.3583 -6.04493 1.37796 0
M  V30 1035 C 96.4133 -4.94489 0.581822 0
M  V30 1036 C 95.1163 -6.82075 2.28399 0
M  V30 1037 C 97.1423 -5.72703 1.47531 0
M  V30 1038 C 96.5043 -6.65214 2.31667 0
M  V30 1039 H 92.6033 -0.75752 -0.194134 0
M  V30 1040 H 95.1873 -1.94248 0.132533 0
M  V30 1041 H 93.3583 -3.35726 -1.95302 0
M  V30 1042 H 95.0903 -3.5899 -1.86838 0
M  V30 1043 H 91.8453 -4.73165 -0.203004 0
M  V30 1044 H 92.2693 -6.55933 1.67573 0
M  V30 1045 H 96.9113 -4.22765 -0.054443 0
M  V30 1046 H 94.6293 -7.53085 2.93067 0
M  V30 1047 H 98.2153 -5.61472 1.52448 0
M  V30 1048 H 97.0953 -7.24679 2.99683 0
M  V30 1049 N 94.5984 0.214957 -1.56127 0
M  V30 1050 C 95.5484 1.27006 -1.8935 0
M  V30 1051 C 96.5324 1.41969 -0.757202 0
M  V30 1052 O 97.7244 1.44673 -1.01973 0
M  V30 1053 C 94.8534 2.61911 -2.2194 0
M  V30 1054 C 93.9394 2.50822 -3.41978 0
M  V30 1055 N 94.3304 2.09391 -4.60423 0
M  V30 1056 C 92.6284 2.81765 -3.45723 0
M  V30 1057 C 93.3294 2.09712 -5.42582 0
M  V30 1058 N 92.3054 2.50454 -4.82466 0
M  V30 1059 H 96.1074 0.940734 -2.78437 0
M  V30 1060 H 93.6214 0.423492 -1.56781 0
M  V30 1061 H 95.6184 3.38096 -2.43919 0
M  V30 1062 H 94.2784 2.95684 -1.34169 0
M  V30 1063 H 95.2894 1.80416 -4.85459 0
M  V30 1064 H 91.9664 3.19865 -2.68314 0
M  V30 1065 H 93.3564 1.79748 -6.4741 0
M  V30 1066 N 96.0765 1.50051 0.48192 0
M  V30 1067 C 97.4875 1.5348 1.06305 0
M  V30 1068 C 97.8385 0.331997 1.93371 0
M  V30 1069 O 96.9635 -0.556256 2.09129 0
M  V30 1070 C 97.5585 2.7813 1.93466 0
M  V30 1071 C 96.1175 2.84275 2.46707 0
M  V30 1072 C 95.2645 2.47637 1.24785 0
M  V30 1073 H 98.2155 1.56472 0.264995 0
M  V30 1074 H 98.2365 2.59372 2.78399 0
M  V30 1075 H 97.7485 3.65654 1.30072 0
M  V30 1076 H 95.8495 2.01077 3.13686 0
M  V30 1077 H 95.9625 3.8691 2.82555 0
M  V30 1078 H 94.3265 1.99835 1.57918 0
M  V30 1079 H 95.1095 3.37457 0.630694 0
M  V30 1080 N 97.5546 -0.734337 1.39446 0
M  V30 1081 C 98.4866 -1.85861 1.34121 0
M  V30 1082 C 99.4996 -1.60871 0.249864 0
M  V30 1083 O 100.689 -1.71093 0.508865 0
M  V30 1084 C 97.7886 -3.21899 1.05991 0
M  V30 1085 C 96.9616 -3.74239 2.26415 0
M  V30 1086 C 96.0206 -4.88841 1.94733 0
M  V30 1087 O 95.0466 -5.02468 2.67422 0
M  V30 1088 N 96.2486 -5.73261 0.913884 0
M  V30 1089 H 99.0136 -1.90934 2.31007 0
M  V30 1090 H 96.5746 -0.915102 1.33557 0
M  V30 1091 H 98.5666 -3.96136 0.828147 0
M  V30 1092 H 97.1366 -3.12091 0.178361 0
M  V30 1093 H 96.3566 -2.91347 2.65539 0
M  V30 1094 H 97.6446 -4.05942 3.06738 0
M  V30 1095 H 97.0426 -5.64842 0.311476 0
M  V30 1096 H 95.5996 -6.47563 0.742015 0
M  V30 1097 N 99.0327 -1.24633 -0.964593 0
M  V30 1098 C 100.258 -1.11596 -1.74818 0
M  V30 1099 C 100.683 0.32723 -1.85232 0
M  V30 1100 O 100.041 1.23695 -1.32549 0
M  V30 1101 C 100.089 -1.76397 -3.1451 0
M  V30 1102 O 99.1927 -1.03685 -3.99153 0
M  V30 1103 H 98.5337 -0.390196 -0.537255 0
M  V30 1104 H 101.064 -1.65002 -1.20977 0
M  V30 1105 H 101.074 -1.8228 -3.65018 0
M  V30 1106 H 99.7487 -2.81401 -3.06246 0
M  V30 1107 H 98.3257 -1.05611 -3.57632 0
M  V30 1108 N 100.511 1.16574 -1.06058 0
M  V30 1109 C 101.757 1.87324 -0.777022 0
M  V30 1110 C 102.09 1.81351 0.694645 0
M  V30 1111 O 101.365 1.22753 1.50871 0
M  V30 1112 C 101.648 3.36991 -1.26922 0
M  V30 1113 C 101.501 3.51667 -2.80447 0
M  V30 1114 C 102.82 4.3131 -0.87521 0
M  V30 1115 H 99.9388 0.680191 -0.28374 0
M  V30 1116 H 102.581 1.37036 -1.3161 0
M  V30 1117 H 100.731 3.79949 -0.81063 0
M  V30 1118 H 102.403 3.17664 -3.34495 0
M  V30 1119 H 100.646 2.93656 -3.19294 0
M  V30 1120 H 101.317 4.56766 -3.0995 0
M  V30 1121 H 103.793 3.9624 -1.27014 0
M  V30 1122 H 102.669 5.34545 -1.2471 0
M  V30 1123 H 102.93 4.41552 0.220071 0
M  V30 1124 N 101.989 0.842826 1.3317 0
M  V30 1125 C 102.899 0.281444 2.32906 0
M  V30 1126 C 103.915 -0.594587 1.63526 0
M  V30 1127 O 105.091 -0.49777 1.95152 0
M  V30 1128 C 102.156 -0.530929 3.42611 0
M  V30 1129 C 101.217 0.369843 4.27704 0
M  V30 1130 C 100.45 -0.403853 5.3217 0
M  V30 1131 O 100.673 -1.63513 5.46461 0
M  V30 1132 O 99.6069 0.224199 6.01482 0
M  V30 1133 H 103.433 1.10744 2.82789 0
M  V30 1134 H 101.018 0.60545 1.36582 0
M  V30 1135 H 102.9 -0.992437 4.09547 0
M  V30 1136 H 101.575 -1.33392 2.94938 0
M  V30 1137 H 100.482 0.879275 3.6362 0
M  V30 1138 H 101.815 1.13771 4.78871 0
M  V30 1139 N 103.467 -1.45747 0.599634 0
M  V30 1140 C 104.399 -2.28628 -0.161879 0
M  V30 1141 C 105.412 -1.39494 -0.839367 0
M  V30 1142 O 106.601 -1.63941 -0.706089 0
M  V30 1143 C 103.701 -3.15014 -1.24976 0
M  V30 1144 C 102.874 -4.32378 -0.660935 0
M  V30 1145 C 101.933 -5.00033 -1.63869 0
M  V30 1146 O 100.959 -5.57085 -1.1681 0
M  V30 1147 N 102.161 -4.98589 -2.97303 0
M  V30 1148 H 104.926 -2.94624 0.549265 0
M  V30 1149 H 102.487 -1.55847 0.438565 0
M  V30 1150 H 104.479 -3.5714 -1.9035 0
M  V30 1151 H 103.049 -2.5098 -1.86354 0
M  V30 1152 H 102.269 -3.9383 0.170688 0
M  V30 1153 H 103.557 -5.08197 -0.247619 0
M  V30 1154 H 102.955 -4.53514 -3.38145 0
M  V30 1155 H 101.512 -5.44603 -3.58121 0
M  V30 1156 N 104.945 -0.338344 -1.53925 0
M  V30 1157 C 105.908 0.508299 -2.23493 0
M  V30 1158 C 106.908 1.03175 -1.23335 0
M  V30 1159 O 108.098 0.921826 -1.47811 0
M  V30 1160 C 105.23 1.70754 -2.95052 0
M  V30 1161 H 106.423 -0.100058 -2.99733 0
M  V30 1162 H 103.976 -0.0896198 -1.56043 0
M  V30 1163 H 104.711 2.35474 -2.22986 0
M  V30 1164 H 104.496 1.33946 -3.68512 0
M  V30 1165 H 105.986 2.30818 -3.48013 0
M  V30 1166 N 106.423 1.57458 -0.0668435 0
M  V30 1167 C 107.333 2.15937 0.916975 0
M  V30 1168 C 108.349 1.12123 1.33058 0
M  V30 1169 O 109.525 1.44366 1.40429 0
M  V30 1170 C 106.59 2.70547 2.16807 0
M  V30 1171 C 105.651 3.89215 1.81135 0
M  V30 1172 C 104.884 4.41211 3.0028 0
M  V30 1173 O 105.107 3.92225 4.14144 0
M  V30 1174 O 104.041 5.32605 2.80384 0
M  V30 1175 H 107.867 3.00354 0.449561 0
M  V30 1176 H 105.452 1.48584 0.155949 0
M  V30 1177 H 107.334 3.0557 2.90181 0
M  V30 1178 H 106.009 1.89192 2.62656 0
M  V30 1179 H 104.916 3.59054 1.05028 0
M  V30 1180 H 106.249 4.71848 1.40073 0
M  V30 1181 O 107.94 -0.0739049 1.61331 0
M  V30 1182 H 108.631 -0.700047 1.80607 0
M  V30 END ATOM
M  V30 BEGIN BOND
M  V30 END BOND
M  V30 END CTAB
M  END
$$$$
