drugbank_target|I6TLU5 DNA polymerase (DB09299; DB14126)
 OpenBabel12092121203D

  0  0  0     0  0            999 V3000
M  V30 BEGIN CTAB
M  V30 COUNTS 51849 55725 0 0 0
M  V30 BEGIN ATOM
M  V30 1 H -1.547 9.37743 -1.21644 0
M  V30 2 O -1.44 8.89599 -0.40059 0
M  V30 3 P 0 8.91 0 0
M  V30 4 O 0.22 10.1746 0.733838 0
M  V30 5 O 0.79 8.73346 -1.23964 0
M  V30 6 O 0.25 7.66872 0.971405 0
M  V30 7 C -0.69 7.42405 2.04668 0
M  V30 8 C 0.04 6.86059 3.24661 0
M  V30 9 O 0.25 5.42934 3.03695 0
M  V30 10 C 1.44 7.41287 3.50796 0
M  V30 11 O 1.83 7.27073 4.86816 0
M  V30 12 C 2.32 6.5273 2.63741 0
M  V30 13 C 1.61 5.1842 2.73198 0
M  V30 14 N 1.66 4.38762 1.4784 0
M  V30 15 H -1.178 8.36899 2.3252 0
M  V30 16 H -1.45 6.70391 1.71179 0
M  V30 17 H -0.582 7.03638 4.13219 0
M  V30 18 H 2.073 4.59931 3.54016 0
M  V30 19 H 2.353 6.88995 1.59871 0
M  V30 20 H 3.344 6.4684 3.0373 0
M  V30 21 H 1.51 8.47002 3.20749 0
M  V30 22 P 3.37998 7.20834 5.23717 0
M  V30 23 O 3.59998 7.79853 6.57286 0
M  V30 24 O 4.16998 7.79239 4.12957 0
M  V30 25 O 3.62998 5.63315 5.29344 0
M  V30 26 C 2.68998 4.80255 6.01876 0
M  V30 27 C 3.41998 3.64202 6.65911 0
M  V30 28 O 3.62998 2.60694 5.64732 0
M  V30 29 C 4.81998 3.93473 7.1943 0
M  V30 30 O 5.20998 3.02071 8.21205 0
M  V30 31 C 5.69998 3.73047 5.97036 0
M  V30 32 C 4.98998 2.58828 5.25741 0
M  V30 33 N 5.03998 2.68068 3.77503 0
M  V30 34 H 2.20098 5.40332 6.79951 0
M  V30 35 H 1.93098 4.41613 5.32378 0
M  V30 36 H 2.79798 3.26331 7.47797 0
M  V30 37 P 6.75996 2.75334 8.47391 0
M  V30 38 O 6.97996 2.44595 9.90239 0
M  V30 39 O 7.54996 3.87732 7.92204 0
M  V30 40 O 7.00996 1.4459 7.59357 0
M  V30 41 C 6.06996 0.347608 7.69215 0
M  V30 42 C 6.79996 -0.96767 7.52806 0
M  V30 43 O 7.00996 -1.21036 6.1011 0
M  V30 44 C 8.19996 -1.04544 8.13308 0
M  V30 45 O 8.58996 -2.38311 8.41922 0
M  V30 46 C 9.07996 -0.491279 7.02284 0
M  V30 47 C 8.36996 -0.996264 5.77469 0
M  V30 48 N 8.41996 -0.0501808 4.62873 0
M  V30 49 C 8.56996 -0.578037 3.3505 0
M  V30 50 O 8.65996 -1.8073 3.21711 0
M  V30 51 N 8.61996 0.468541 2.263 0
M  V30 52 C 8.51996 1.59186 2.47176 0
M  V30 53 N 8.56996 2.37626 1.40392 0
M  V30 54 C 8.36996 2.16203 3.77467 0
M  V30 55 C 8.31996 1.29324 4.8195 0
M  V30 56 H 5.57996 0.374679 8.67591 0
M  V30 57 H 5.31096 0.443421 6.90177 0
M  V30 58 H 6.17796 -1.75559 7.96891 0
M  V30 59 H 8.83296 -1.94529 5.46723 0
M  V30 60 H 9.11196 0.608651 7.04676 0
M  V30 61 H 10.104 -0.889672 7.08939 0
M  V30 62 H 8.26996 -0.43308 9.04564 0
M  V30 63 H 8.19796 1.67758 5.83046 0
M  V30 64 H 8.29996 3.23869 3.92281 0
M  V30 65 H 8.68796 1.96317 0.467202 0
M  V30 66 H 8.49096 3.39693 1.51142 0
M  V30 67 P 10.1399 -2.75334 8.47391 0
M  V30 68 O 10.3599 -3.84204 9.44982 0
M  V30 69 O 10.9299 -1.51982 8.68909 0
M  V30 70 O 10.3899 -3.29363 6.99321 0
M  V30 71 C 9.44994 -4.24066 6.42823 0
M  V30 72 C 10.1799 -5.20775 5.52155 0
M  V30 73 O 10.3899 -4.56607 4.22514 0
M  V30 74 C 11.5799 -5.62697 5.96604 0
M  V30 75 O 11.9699 -6.87667 5.41053 0
M  V30 76 C 12.4599 -4.52537 5.39283 0
M  V30 77 C 11.7499 -4.20027 4.08623 0
M  V30 78 N 11.7999 -2.76189 3.71603 0
M  V30 79 C 11.7199 -1.66944 4.54297 0
M  V30 80 N 11.7899 -0.536169 3.91344 0
M  V30 81 C 11.9399 -0.901569 2.58849 0
M  V30 82 C 12.0699 -0.146599 1.40236 0
M  V30 83 N 12.0799 1.18234 1.37046 0
M  V30 84 N 12.1899 -0.822941 0.249738 0
M  V30 85 C 12.1799 -2.15179 0.280525 0
M  V30 86 N 12.0599 -2.96414 1.30822 0
M  V30 87 C 11.9399 -2.25804 2.44748 0
M  V30 88 H 8.96194 -4.79756 7.24086 0
M  V30 89 H 8.68994 -3.69963 5.84682 0
M  V30 90 H 9.55794 -6.10431 5.41508 0
M  V30 91 H 12.2129 -4.78816 3.28024 0
M  V30 92 H 12.4929 -3.64957 6.05871 0
M  V30 93 H 13.4839 -4.88748 5.21323 0
M  V30 94 H 11.6499 -5.66789 7.0643 0
M  V30 95 H 11.6089 -1.74684 5.62396 0
M  V30 96 H 11.9899 1.71949 2.24394 0
M  V30 97 H 12.1789 1.67511 0.470742 0
M  V30 98 H 12.2869 -2.63704 -0.6828 0
M  V30 99 P 13.5199 -7.20834 5.23717 0
M  V30 100 O 13.7399 -8.66274 5.38678 0
M  V30 101 O 14.3099 -6.33687 6.13629 0
M  V30 102 O 13.7699 -6.7751 3.72168 0
M  V30 103 C 12.8299 -7.20919 2.70795 0
M  V30 104 C 13.5599 -7.45864 1.40599 0
M  V30 105 O 13.7699 -6.17751 0.734343 0
M  V30 106 C 14.9599 -8.05906 1.51917 0
M  V30 107 O 15.3499 -8.74358 0.335205 0
M  V30 108 C 15.8399 -6.83093 1.70294 0
M  V30 109 C 15.1299 -5.79992 0.836974 0
M  V30 110 N 15.1799 -4.41864 1.38293 0
M  V30 111 C 15.0999 -4.02089 2.69407 0
M  V30 112 N 15.1699 -2.73403 2.85089 0
M  V30 113 C 15.3199 -2.25086 1.5642 0
M  V30 114 C 15.4499 -0.942887 1.04836 0
M  V30 115 N 15.4599 0.150999 1.80369 0
M  V30 116 N 15.5699 -0.812565 -0.28167 0
M  V30 117 C 15.5599 -1.90572 -1.03784 0
M  V30 118 N 15.4399 -3.167 -0.683905 0
M  V30 119 C 15.3199 -3.26538 0.652815 0
M  V30 120 H 12.3419 -8.13738 3.03804 0
M  V30 121 H 12.0699 -6.42974 2.55559 0
M  V30 122 H 12.9379 -8.12139 0.792866 0
M  V30 123 H 15.5929 -5.80178 -0.160643 0
M  V30 124 H 15.8729 -6.51379 2.75643 0
M  V30 125 H 16.8639 -7.01832 1.3448 0
M  V30 126 H 15.0299 -8.73771 2.38364 0
M  V30 127 H 14.9889 -4.7189 3.52311 0
M  V30 128 H 15.3699 0.0721434 2.82608 0
M  V30 129 H 15.5589 1.0785 1.36544 0
M  V30 130 H 15.6669 -1.73207 -2.10241 0
M  V30 131 P 16.8999 -8.91 1.09116e-15 0
M  V30 132 O 17.1199 -10.1726 -0.733694 0
M  V30 133 O 17.6899 -8.73148 1.23936 0
M  V30 134 O 17.1499 -7.66872 -0.971405 0
M  V30 135 C 16.2099 -7.42309 -2.04641 0
M  V30 136 C 16.9399 -6.86059 -3.24661 0
M  V30 137 O 17.1499 -5.42847 -3.03646 0
M  V30 138 C 18.3399 -7.41196 -3.50753 0
M  V30 139 O 18.7299 -7.27073 -4.86816 0
M  V30 140 C 19.2199 -6.5273 -2.63741 0
M  V30 141 C 18.5099 -5.1842 -2.73198 0
M  V30 142 N 18.5599 -4.38762 -1.4784 0
M  V30 143 C 18.4799 -4.81605 -0.168631 0
M  V30 144 N 18.5599 -3.85454 0.713363 0
M  V30 145 C 18.6999 -2.6994 -0.0566958 0
M  V30 146 C 18.8299 -1.34815 0.338502 0
M  V30 147 O 18.8499 -0.869548 1.47125 0
M  V30 148 N 18.9499 -0.496304 -0.77465 0
M  V30 149 C 18.9499 -0.908403 -2.09122 0
M  V30 150 N 19.0799 0.0517805 -3.00955 0
M  V30 151 N 18.8199 -2.17875 -2.46519 0
M  V30 152 C 18.6999 -3.01988 -1.4033 0
M  V30 153 H 15.7209 -8.36803 -2.32493 0
M  V30 154 H 15.4509 -6.70197 -1.71129 0
M  V30 155 H 16.3179 -7.03551 -4.13168 0
M  V30 156 H 18.9729 -4.59498 -3.54415 0
M  V30 157 H 19.2519 -6.88898 -1.59848 0
M  V30 158 H 20.2439 -6.46749 -3.03687 0
M  V30 159 H 18.4099 -8.46908 -3.20714 0
M  V30 160 H 18.3609 -5.86405 0.105564 0
M  V30 161 H 19.0429 0.483664 -0.597855 0
M  V30 162 H 19.0799 -0.187865 -4.0116 0
M  V30 163 H 19.1809 1.03585 -2.71726 0
M  V30 164 P 20.2799 -7.20834 -5.23717 0
M  V30 165 O 20.4999 -7.79853 -6.57286 0
M  V30 166 O 21.0699 -7.79239 -4.12957 0
M  V30 167 O 20.5299 -5.63315 -5.29344 0
M  V30 168 C 19.5899 -4.80255 -6.01876 0
M  V30 169 C 20.3199 -3.64202 -6.65911 0
M  V30 170 O 20.5299 -2.60694 -5.64732 0
M  V30 171 C 21.7199 -3.93473 -7.1943 0
M  V30 172 O 22.1099 -3.02071 -8.21205 0
M  V30 173 C 22.5999 -3.73047 -5.97036 0
M  V30 174 C 21.8899 -2.58828 -5.25741 0
M  V30 175 N 21.9399 -2.68068 -3.77503 0
M  V30 176 C 21.8599 -3.79715 -2.96723 0
M  V30 177 N 21.9399 -3.5377 -1.68852 0
M  V30 178 C 22.0799 -2.15054 -1.63254 0
M  V30 179 C 22.2099 -1.28964 -0.518571 0
M  V30 180 O 22.2299 -1.56826 0.679156 0
M  V30 181 N 22.3299 0.0538097 -0.918425 0
M  V30 182 C 22.3299 0.494275 -2.22578 0
M  V30 183 N 22.4599 1.81086 -2.40434 0
M  V30 184 N 22.1999 -0.313645 -3.27502 0
M  V30 185 C 22.0799 -1.61829 -2.91033 0
M  V30 186 H 19.1009 -5.40332 -6.79951 0
M  V30 187 H 18.8309 -4.41613 -5.32378 0
M  V30 188 H 19.6979 -3.26331 -7.47797 0
M  V30 189 H 22.3529 -1.63422 -5.56814 0
M  V30 190 H 22.6319 -4.63374 -5.34244 0
M  V30 191 H 23.6239 -3.44728 -6.25838 0
M  V30 192 H 21.7899 -4.96652 -7.57263 0
M  V30 193 H 21.7409 -4.80617 -3.3614 0
M  V30 194 H 22.4229 0.742702 -0.199384 0
M  V30 195 H 22.4599 2.20598 -3.35588 0
M  V30 196 H 22.5609 2.43518 -1.58945 0
M  V30 197 P 23.6599 -2.75334 -8.47391 0
M  V30 198 O 23.8799 -2.44571 -9.90142 0
M  V30 199 O 24.4499 -3.87688 -7.92115 0
M  V30 200 O 23.9099 -1.4459 -7.59357 0
M  V30 201 C 22.9699 -0.347608 -7.69215 0
M  V30 202 C 23.6999 0.96767 -7.52806 0
M  V30 203 O 23.9099 1.21036 -6.1011 0
M  V30 204 C 25.0999 1.04544 -8.13308 0
M  V30 205 O 25.4899 2.38311 -8.41922 0
M  V30 206 C 25.9799 0.491279 -7.02284 0
M  V30 207 C 25.2699 0.996264 -5.77469 0
M  V30 208 N 25.3199 0.0501916 -4.62973 0
M  V30 209 H 22.4809 -0.374722 -8.67691 0
M  V30 210 H 22.2109 -0.443485 -6.90277 0
M  V30 211 H 23.0779 1.75537 -7.96793 0
M  V30 212 P 27.0398 2.75334 -8.47391 0
M  V30 213 O 27.2598 3.84204 -9.44982 0
M  V30 214 O 27.8298 1.51982 -8.68909 0
M  V30 215 O 27.2898 3.29363 -6.99321 0
M  V30 216 C 26.3498 4.24066 -6.42823 0
M  V30 217 C 27.0798 5.20775 -5.52155 0
M  V30 218 O 27.2898 4.56607 -4.22514 0
M  V30 219 C 28.4798 5.62697 -5.96604 0
M  V30 220 O 28.8698 6.87667 -5.41053 0
M  V30 221 C 29.3598 4.52537 -5.39283 0
M  V30 222 C 28.6498 4.20027 -4.08623 0
M  V30 223 N 28.6998 2.76189 -3.71603 0
M  V30 224 C 28.6198 1.66944 -4.54297 0
M  V30 225 N 28.6898 0.536169 -3.91344 0
M  V30 226 C 28.8398 0.901569 -2.58849 0
M  V30 227 C 28.9698 0.146599 -1.40236 0
M  V30 228 N 28.9798 -1.18234 -1.37046 0
M  V30 229 N 29.0898 0.822941 -0.249738 0
M  V30 230 C 29.0798 2.15179 -0.280525 0
M  V30 231 N 28.9598 2.96414 -1.30822 0
M  V30 232 C 28.8398 2.25804 -2.44748 0
M  V30 233 H 25.8618 4.79756 -7.24086 0
M  V30 234 H 25.5898 3.69963 -5.84682 0
M  V30 235 H 26.4578 6.10431 -5.41508 0
M  V30 236 H 29.1128 4.78816 -3.28024 0
M  V30 237 H 29.3928 3.64957 -6.05871 0
M  V30 238 H 30.3838 4.88748 -5.21323 0
M  V30 239 H 28.5498 5.66789 -7.0643 0
M  V30 240 H 28.5088 1.74684 -5.62396 0
M  V30 241 H 28.8898 -1.71949 -2.24394 0
M  V30 242 H 29.0788 -1.67511 -0.470742 0
M  V30 243 H 29.1868 2.63704 0.6828 0
M  V30 244 P 30.4198 7.20834 -5.23717 0
M  V30 245 O 30.6398 8.66104 -5.38572 0
M  V30 246 O 31.2098 6.33544 -6.1349 0
M  V30 247 O 30.6698 6.7751 -3.72168 0
M  V30 248 C 29.7298 7.20825 -2.7076 0
M  V30 249 C 30.4598 7.45864 -1.40599 0
M  V30 250 O 30.6698 6.17651 -0.734225 0
M  V30 251 C 31.8598 8.05808 -1.51899 0
M  V30 252 O 32.2498 8.74358 -0.335205 0
M  V30 253 C 32.7398 6.83093 -1.70294 0
M  V30 254 C 32.0298 5.79992 -0.836974 0
M  V30 255 N 32.0798 4.41864 -1.38293 0
M  V30 256 H 29.2408 8.13644 -3.0377 0
M  V30 257 H 28.9708 6.42788 -2.55485 0
M  V30 258 H 29.8378 8.12039 -0.792769 0
M  V30 259 P 33.7998 8.91 -2.18232e-15 0
M  V30 260 O 34.0198 10.1726 0.733694 0
M  V30 261 O 34.5898 8.73148 -1.23936 0
M  V30 262 O 34.0498 7.66872 0.971405 0
M  V30 263 C 33.1098 7.42309 2.04641 0
M  V30 264 C 33.8398 6.86059 3.24661 0
M  V30 265 O 34.0498 5.42847 3.03646 0
M  V30 266 C 35.2398 7.41196 3.50753 0
M  V30 267 O 35.6298 7.27073 4.86816 0
M  V30 268 C 36.1198 6.5273 2.63741 0
M  V30 269 C 35.4098 5.1842 2.73198 0
M  V30 270 N 35.4598 4.38762 1.4784 0
M  V30 271 H 32.6208 8.36803 2.32493 0
M  V30 272 H 32.3508 6.70197 1.71129 0
M  V30 273 H 33.2178 7.03551 4.13168 0
M  V30 274 P 37.1798 7.20834 5.23717 0
M  V30 275 O 37.3998 7.79853 6.57286 0
M  V30 276 O 37.9698 7.79239 4.12957 0
M  V30 277 O 37.4298 5.63315 5.29344 0
M  V30 278 C 36.4898 4.80255 6.01876 0
M  V30 279 C 37.2198 3.64202 6.65911 0
M  V30 280 O 37.4298 2.60694 5.64732 0
M  V30 281 C 38.6198 3.93473 7.1943 0
M  V30 282 O 39.0098 3.02071 8.21205 0
M  V30 283 C 39.4998 3.73047 5.97036 0
M  V30 284 C 38.7898 2.58828 5.25741 0
M  V30 285 N 38.8398 2.68068 3.77503 0
M  V30 286 C 38.7598 3.79715 2.96723 0
M  V30 287 N 38.8398 3.5377 1.68852 0
M  V30 288 C 38.9798 2.15054 1.63254 0
M  V30 289 C 39.1098 1.28964 0.518571 0
M  V30 290 O 39.1298 1.56826 -0.679156 0
M  V30 291 N 39.2298 -0.0538097 0.918425 0
M  V30 292 C 39.2298 -0.494275 2.22578 0
M  V30 293 N 39.3598 -1.81086 2.40434 0
M  V30 294 N 39.0998 0.313645 3.27502 0
M  V30 295 C 38.9798 1.61829 2.91033 0
M  V30 296 H 36.0008 5.40332 6.79951 0
M  V30 297 H 35.7308 4.41613 5.32378 0
M  V30 298 H 36.5978 3.26331 7.47797 0
M  V30 299 H 39.2528 1.63422 5.56814 0
M  V30 300 H 39.5318 4.63374 5.34244 0
M  V30 301 H 40.5238 3.44728 6.25838 0
M  V30 302 H 38.6898 4.96652 7.57263 0
M  V30 303 H 38.6408 4.80617 3.3614 0
M  V30 304 H 39.3228 -0.742702 0.199384 0
M  V30 305 H 39.3598 -2.20598 3.35588 0
M  V30 306 H 39.4608 -2.43518 1.58945 0
M  V30 307 P 40.5598 2.75334 8.47391 0
M  V30 308 O 40.7798 2.44571 9.90142 0
M  V30 309 O 41.3498 3.87688 7.92115 0
M  V30 310 O 40.8098 1.4459 7.59357 0
M  V30 311 C 39.8698 0.347608 7.69215 0
M  V30 312 C 40.5998 -0.96767 7.52806 0
M  V30 313 O 40.8098 -1.21036 6.1011 0
M  V30 314 C 41.9998 -1.04544 8.13308 0
M  V30 315 O 42.3898 -2.38311 8.41922 0
M  V30 316 C 42.8798 -0.491279 7.02284 0
M  V30 317 C 42.1698 -0.996264 5.77469 0
M  V30 318 N 42.2198 -0.0501916 4.62973 0
M  V30 319 C 42.1398 1.32786 4.63244 0
M  V30 320 N 42.2198 1.86957 3.44545 0
M  V30 321 C 42.3598 0.780241 2.58481 0
M  V30 322 C 42.4898 0.738536 1.17757 0
M  V30 323 O 42.5098 1.66794 0.372349 0
M  V30 324 N 42.6098 -0.58337 0.711393 0
M  V30 325 C 42.6098 -1.70816 1.51017 0
M  V30 326 N 42.7398 -2.87826 0.880757 0
M  V30 327 N 42.4798 -1.67126 2.8339 0
M  V30 328 C 42.3598 -0.401421 3.30572 0
M  V30 329 H 39.3808 0.374722 8.67691 0
M  V30 330 H 39.1108 0.443485 6.90277 0
M  V30 331 H 39.9778 -1.75537 7.96793 0
M  V30 332 H 42.6328 -1.95076 5.46529 0
M  V30 333 H 42.9118 0.608565 7.04577 0
M  V30 334 H 43.9038 -0.889672 7.08939 0
M  V30 335 H 42.0698 -0.43308 9.04564 0
M  V30 336 H 42.0208 1.91249 5.54442 0
M  V30 337 H 42.7028 -0.718054 -0.275244 0
M  V30 338 H 42.7398 -3.75721 1.41832 0
M  V30 339 H 42.8408 -2.90436 -0.145468 0
M  V30 340 P 43.9397 -2.75334 8.47391 0
M  V30 341 O 44.1597 -3.84128 9.44797 0
M  V30 342 O 44.7297 -1.51947 8.68712 0
M  V30 343 O 44.1897 -3.29363 6.99321 0
M  V30 344 C 43.2497 -4.24011 6.4274 0
M  V30 345 C 43.9797 -5.20775 5.52155 0
M  V30 346 O 44.1897 -4.56534 4.22446 0
M  V30 347 C 45.3797 -5.62629 5.96531 0
M  V30 348 O 45.7697 -6.87667 5.41053 0
M  V30 349 C 46.2597 -4.52537 5.39283 0
M  V30 350 C 45.5497 -4.20027 4.08623 0
M  V30 351 N 45.5997 -2.76189 3.71603 0
M  V30 352 H 42.7607 -4.797 7.24003 0
M  V30 353 H 42.4907 -3.69856 5.84513 0
M  V30 354 H 43.3577 -6.10356 5.41441 0
M  V30 355 P 47.3197 -7.20834 5.23717 0
M  V30 356 O 47.5397 -8.66104 5.38572 0
M  V30 357 O 48.1097 -6.33544 6.1349 0
M  V30 358 O 47.5697 -6.7751 3.72168 0
M  V30 359 C 46.6297 -7.20825 2.7076 0
M  V30 360 C 47.3597 -7.45864 1.40599 0
M  V30 361 O 47.5697 -6.17651 0.734225 0
M  V30 362 C 48.7597 -8.05808 1.51899 0
M  V30 363 O 49.1497 -8.74358 0.335205 0
M  V30 364 C 49.6397 -6.83093 1.70294 0
M  V30 365 C 48.9297 -5.79992 0.836974 0
M  V30 366 N 48.9797 -4.41864 1.38293 0
M  V30 367 H 46.1407 -8.13644 3.0377 0
M  V30 368 H 45.8707 -6.42788 2.55485 0
M  V30 369 H 46.7377 -8.12039 0.792769 0
M  V30 370 P 50.6997 -8.91 3.27348e-15 0
M  V30 371 O 50.9197 -10.1746 -0.733838 0
M  V30 372 O 51.4897 -8.73346 1.23964 0
M  V30 373 O 50.9497 -7.66872 -0.971405 0
M  V30 374 C 50.0097 -7.42405 -2.04668 0
M  V30 375 C 50.7397 -6.86059 -3.24661 0
M  V30 376 O 50.9497 -5.42934 -3.03695 0
M  V30 377 C 52.1397 -7.41287 -3.50796 0
M  V30 378 O 52.5297 -7.27073 -4.86816 0
M  V30 379 C 53.0197 -6.5273 -2.63741 0
M  V30 380 C 52.3097 -5.1842 -2.73198 0
M  V30 381 N 52.3597 -4.38762 -1.4784 0
M  V30 382 C 52.2797 -4.83651 -0.183876 0
M  V30 383 N 52.3497 -3.88759 0.699393 0
M  V30 384 C 52.4997 -2.7404 -0.0575568 0
M  V30 385 C 52.6297 -1.37902 0.293928 0
M  V30 386 N 52.6397 -0.938021 1.54797 0
M  V30 387 N 52.7497 -0.491817 -0.70549 0
M  V30 388 C 52.7397 -0.931735 -1.95979 0
M  V30 389 N 52.6197 -2.16017 -2.41481 0
M  V30 390 C 52.4997 -3.02547 -1.39121 0
M  V30 391 H 49.5217 -8.36899 -2.3252 0
M  V30 392 H 49.2497 -6.70391 -1.71179 0
M  V30 393 H 50.1177 -7.03638 -4.13219 0
M  V30 394 H 52.7727 -4.59931 -3.54016 0
M  V30 395 H 53.0527 -6.88995 -1.59871 0
M  V30 396 H 54.0437 -6.4684 -3.0373 0
M  V30 397 H 52.2097 -8.47002 -3.20749 0
M  V30 398 H 52.1687 -5.8885 0.0765548 0
M  V30 399 H 52.5497 -1.60276 2.32875 0
M  V30 400 H 52.7387 0.0699355 1.73859 0
M  V30 401 H 52.8467 -0.165507 -2.71897 0
M  V30 402 P 54.0797 -7.20834 -5.23717 0
M  V30 403 O 54.2997 -7.80006 -6.57415 0
M  V30 404 O 54.8697 -7.79416 -4.13051 0
M  V30 405 O 54.3297 -5.63315 -5.29344 0
M  V30 406 C 53.3897 -4.80318 -6.01954 0
M  V30 407 C 54.1197 -3.64202 -6.65911 0
M  V30 408 O 54.3297 -2.60736 -5.64823 0
M  V30 409 C 55.5197 -3.93521 -7.19518 0
M  V30 410 O 55.9097 -3.02071 -8.21205 0
M  V30 411 C 56.3997 -3.73047 -5.97036 0
M  V30 412 C 55.6897 -2.58828 -5.25741 0
M  V30 413 N 55.7397 -2.68068 -3.77503 0
M  V30 414 C 55.6597 -3.80474 -2.99159 0
M  V30 415 N 55.7297 -3.55622 -1.71925 0
M  V30 416 C 55.8797 -2.1832 -1.65733 0
M  V30 417 C 56.0097 -1.28842 -0.572777 0
M  V30 418 N 56.0197 -1.66875 0.70098 0
M  V30 419 N 56.1297 0.016788 -0.859836 0
M  V30 420 C 56.1197 0.398145 -2.13316 0
M  V30 421 N 55.9997 -0.328224 -3.22333 0
M  V30 422 C 55.8797 -1.62992 -2.90383 0
M  V30 423 H 52.9017 -5.40394 -6.8003 0
M  V30 424 H 52.6297 -4.41741 -5.32532 0
M  V30 425 H 53.4977 -3.26371 -7.47889 0
M  V30 426 H 56.1527 -1.64007 -5.56746 0
M  V30 427 H 56.4327 -4.63439 -5.3432 0
M  V30 428 H 57.4237 -3.44776 -6.25925 0
M  V30 429 H 55.5897 -4.96707 -7.57347 0
M  V30 430 H 55.5487 -4.8089 -3.39924 0
M  V30 431 H 55.9297 -2.66547 0.941919 0
M  V30 432 H 56.1187 -0.965341 1.44766 0
M  V30 433 H 56.2267 1.46427 -2.29697 0
M  V30 434 P 57.4597 -2.75334 -8.47391 0
M  V30 435 O 57.6797 -2.44571 -9.90142 0
M  V30 436 O 58.2497 -3.87688 -7.92115 0
M  V30 437 O 57.7097 -1.4459 -7.59357 0
M  V30 438 C 56.7697 -0.347608 -7.69215 0
M  V30 439 C 57.4997 0.96767 -7.52806 0
M  V30 440 O 57.7097 1.21036 -6.1011 0
M  V30 441 C 58.8997 1.04544 -8.13308 0
M  V30 442 O 59.2897 2.38311 -8.41922 0
M  V30 443 C 59.7797 0.491279 -7.02284 0
M  V30 444 C 59.0697 0.996264 -5.77469 0
M  V30 445 N 59.1197 0.0501916 -4.62973 0
M  V30 446 C 59.0397 -1.32786 -4.63244 0
M  V30 447 N 59.1197 -1.86957 -3.44545 0
M  V30 448 C 59.2597 -0.780241 -2.58481 0
M  V30 449 C 59.3897 -0.738536 -1.17757 0
M  V30 450 N 59.5097 0.58337 -0.711393 0
M  V30 451 C 59.5097 1.70816 -1.51017 0
M  V30 452 N 59.6397 2.87826 -0.880757 0
M  V30 453 N 59.3797 1.67126 -2.8339 0
M  V30 454 C 59.2597 0.401421 -3.30572 0
M  V30 455 H 56.2807 -0.374722 -8.67691 0
M  V30 456 H 56.0107 -0.443485 -6.90277 0
M  V30 457 H 56.8777 1.75537 -7.96793 0
M  V30 458 P 60.8396 2.75334 -8.47391 0
M  V30 459 O 61.0596 3.84204 -9.44982 0
M  V30 460 O 61.6296 1.51982 -8.68909 0
M  V30 461 O 61.0896 3.29363 -6.99321 0
M  V30 462 C 60.1496 4.24066 -6.42823 0
M  V30 463 C 60.8796 5.20775 -5.52155 0
M  V30 464 O 61.0896 4.56607 -4.22514 0
M  V30 465 C 62.2796 5.62697 -5.96604 0
M  V30 466 O 62.6696 6.87667 -5.41053 0
M  V30 467 C 63.1596 4.52537 -5.39283 0
M  V30 468 C 62.4496 4.20027 -4.08623 0
M  V30 469 N 62.4996 2.76189 -3.71603 0
M  V30 470 C 62.4196 1.66944 -4.54297 0
M  V30 471 N 62.4896 0.536169 -3.91344 0
M  V30 472 C 62.6396 0.901569 -2.58849 0
M  V30 473 C 62.7696 0.146599 -1.40236 0
M  V30 474 N 62.7796 -1.18234 -1.37046 0
M  V30 475 N 62.8896 0.822941 -0.249738 0
M  V30 476 C 62.8796 2.15179 -0.280525 0
M  V30 477 N 62.7596 2.96414 -1.30822 0
M  V30 478 C 62.6396 2.25804 -2.44748 0
M  V30 479 H 59.6616 4.79756 -7.24086 0
M  V30 480 H 59.3896 3.69963 -5.84682 0
M  V30 481 H 60.2576 6.10431 -5.41508 0
M  V30 482 H 62.9126 4.78816 -3.28024 0
M  V30 483 H 63.1926 3.64957 -6.05871 0
M  V30 484 H 64.1836 4.88748 -5.21323 0
M  V30 485 H 62.3496 5.66789 -7.0643 0
M  V30 486 H 62.3086 1.74684 -5.62396 0
M  V30 487 H 62.6896 -1.71949 -2.24394 0
M  V30 488 H 62.8786 -1.67511 -0.470742 0
M  V30 489 H 62.9866 2.63704 0.6828 0
M  V30 490 P 64.2196 7.20834 -5.23717 0
M  V30 491 O 64.4396 8.66274 -5.38678 0
M  V30 492 O 65.0096 6.33687 -6.13629 0
M  V30 493 O 64.4696 6.7751 -3.72168 0
M  V30 494 C 63.5296 7.20919 -2.70795 0
M  V30 495 C 64.2596 7.45864 -1.40599 0
M  V30 496 O 64.4696 6.17751 -0.734343 0
M  V30 497 C 65.6596 8.05906 -1.51917 0
M  V30 498 O 66.0496 8.74358 -0.335205 0
M  V30 499 C 66.5396 6.83093 -1.70294 0
M  V30 500 C 65.8296 5.79992 -0.836974 0
M  V30 501 N 65.8796 4.41864 -1.38293 0
M  V30 502 C 65.7996 4.02089 -2.69407 0
M  V30 503 N 65.8696 2.73403 -2.85089 0
M  V30 504 C 66.0196 2.25086 -1.5642 0
M  V30 505 C 66.1496 0.942887 -1.04836 0
M  V30 506 N 66.1596 -0.150999 -1.80369 0
M  V30 507 N 66.2696 0.812565 0.28167 0
M  V30 508 C 66.2596 1.90572 1.03784 0
M  V30 509 N 66.1396 3.167 0.683905 0
M  V30 510 C 66.0196 3.26538 -0.652815 0
M  V30 511 H 63.0416 8.13738 -3.03804 0
M  V30 512 H 62.7696 6.42974 -2.55559 0
M  V30 513 H 63.6376 8.12139 -0.792866 0
M  V30 514 H 66.2926 5.80178 0.160643 0
M  V30 515 H 66.5726 6.51379 -2.75643 0
M  V30 516 H 67.5636 7.01832 -1.3448 0
M  V30 517 H 65.7296 8.73771 -2.38364 0
M  V30 518 H 65.6886 4.7189 -3.52311 0
M  V30 519 H 66.0696 -0.0721434 -2.82608 0
M  V30 520 H 66.2586 -1.0785 -1.36544 0
M  V30 521 H 66.3666 1.73207 2.10241 0
M  V30 522 P 67.5996 8.91 -4.36464e-15 0
M  V30 523 O 67.8196 10.1726 0.733694 0
M  V30 524 O 68.3896 8.73148 -1.23936 0
M  V30 525 O 67.8496 7.66872 0.971405 0
M  V30 526 C 66.9096 7.42309 2.04641 0
M  V30 527 C 67.6396 6.86059 3.24661 0
M  V30 528 O 67.8496 5.42847 3.03646 0
M  V30 529 C 69.0396 7.41196 3.50753 0
M  V30 530 O 69.4296 7.27073 4.86816 0
M  V30 531 C 69.9196 6.5273 2.63741 0
M  V30 532 C 69.2096 5.1842 2.73198 0
M  V30 533 N 69.2596 4.38762 1.4784 0
M  V30 534 H 66.4206 8.36803 2.32493 0
M  V30 535 H 66.1506 6.70197 1.71129 0
M  V30 536 H 67.0176 7.03551 4.13168 0
M  V30 537 P 70.9796 7.20834 5.23717 0
M  V30 538 O 71.1996 7.79853 6.57286 0
M  V30 539 O 71.7696 7.79239 4.12957 0
M  V30 540 O 71.2296 5.63315 5.29344 0
M  V30 541 C 70.2896 4.80255 6.01876 0
M  V30 542 C 71.0196 3.64202 6.65911 0
M  V30 543 O 71.2296 2.60694 5.64732 0
M  V30 544 C 72.4196 3.93473 7.1943 0
M  V30 545 O 72.8096 3.02071 8.21205 0
M  V30 546 C 73.2996 3.73047 5.97036 0
M  V30 547 C 72.5896 2.58828 5.25741 0
M  V30 548 N 72.6396 2.68068 3.77503 0
M  V30 549 C 72.5596 3.79715 2.96723 0
M  V30 550 N 72.6396 3.5377 1.68852 0
M  V30 551 C 72.7796 2.15054 1.63254 0
M  V30 552 C 72.9096 1.28964 0.518571 0
M  V30 553 O 72.9296 1.56826 -0.679156 0
M  V30 554 N 73.0296 -0.0538097 0.918425 0
M  V30 555 C 73.0296 -0.494275 2.22578 0
M  V30 556 N 73.1596 -1.81086 2.40434 0
M  V30 557 N 72.8996 0.313645 3.27502 0
M  V30 558 C 72.7796 1.61829 2.91033 0
M  V30 559 H 69.8006 5.40332 6.79951 0
M  V30 560 H 69.5306 4.41613 5.32378 0
M  V30 561 H 70.3976 3.26331 7.47797 0
M  V30 562 H 73.0526 1.63422 5.56814 0
M  V30 563 H 73.3316 4.63374 5.34244 0
M  V30 564 H 74.3236 3.44728 6.25838 0
M  V30 565 H 72.4896 4.96652 7.57263 0
M  V30 566 H 72.4406 4.80617 3.3614 0
M  V30 567 H 73.1226 -0.742702 0.199384 0
M  V30 568 H 73.1596 -2.20598 3.35588 0
M  V30 569 H 73.2606 -2.43518 1.58945 0
M  V30 570 P 74.3596 2.75334 8.47391 0
M  V30 571 O 74.5796 2.44571 9.90142 0
M  V30 572 O 75.1496 3.87688 7.92115 0
M  V30 573 O 74.6096 1.4459 7.59357 0
M  V30 574 C 73.6696 0.347608 7.69215 0
M  V30 575 C 74.3996 -0.96767 7.52806 0
M  V30 576 O 74.6096 -1.21036 6.1011 0
M  V30 577 C 75.7996 -1.04544 8.13308 0
M  V30 578 O 76.1896 -2.38311 8.41922 0
M  V30 579 C 76.6796 -0.491279 7.02284 0
M  V30 580 C 75.9696 -0.996264 5.77469 0
M  V30 581 N 76.0196 -0.0501916 4.62973 0
M  V30 582 H 73.1806 0.374722 8.67691 0
M  V30 583 H 72.9106 0.443485 6.90277 0
M  V30 584 H 73.7776 -1.75537 7.96793 0
M  V30 585 P 77.7395 -2.75334 8.47391 0
M  V30 586 O 77.9595 -3.84128 9.44797 0
M  V30 587 O 78.5295 -1.51947 8.68712 0
M  V30 588 O 77.9895 -3.29363 6.99321 0
M  V30 589 C 77.0495 -4.24011 6.4274 0
M  V30 590 C 77.7795 -5.20775 5.52155 0
M  V30 591 O 77.9895 -4.56534 4.22446 0
M  V30 592 C 79.1795 -5.62629 5.96531 0
M  V30 593 O 79.5695 -6.87667 5.41053 0
M  V30 594 C 80.0595 -4.52537 5.39283 0
M  V30 595 C 79.3495 -4.20027 4.08623 0
M  V30 596 N 79.3995 -2.76189 3.71603 0
M  V30 597 H 76.5605 -4.797 7.24003 0
M  V30 598 H 76.2905 -3.69856 5.84513 0
M  V30 599 H 77.1575 -6.10356 5.41441 0
M  V30 600 P 81.1195 -7.20834 5.23717 0
M  V30 601 O 81.3395 -8.66274 5.38678 0
M  V30 602 O 81.9095 -6.33687 6.13629 0
M  V30 603 O 81.3695 -6.7751 3.72168 0
M  V30 604 C 80.4295 -7.20919 2.70795 0
M  V30 605 C 81.1595 -7.45864 1.40599 0
M  V30 606 O 81.3695 -6.17751 0.734343 0
M  V30 607 C 82.5595 -8.05906 1.51917 0
M  V30 608 O 82.9495 -8.74358 0.335205 0
M  V30 609 C 83.4395 -6.83093 1.70294 0
M  V30 610 C 82.7295 -5.79992 0.836974 0
M  V30 611 N 82.7795 -4.41864 1.38293 0
M  V30 612 C 82.6995 -4.02089 2.69407 0
M  V30 613 N 82.7695 -2.73403 2.85089 0
M  V30 614 C 82.9195 -2.25086 1.5642 0
M  V30 615 C 83.0495 -0.942887 1.04836 0
M  V30 616 N 83.0595 0.150999 1.80369 0
M  V30 617 N 83.1695 -0.812565 -0.28167 0
M  V30 618 C 83.1595 -1.90572 -1.03784 0
M  V30 619 N 83.0395 -3.167 -0.683905 0
M  V30 620 C 82.9195 -3.26538 0.652815 0
M  V30 621 H 79.9415 -8.13738 3.03804 0
M  V30 622 H 79.6695 -6.42974 2.55559 0
M  V30 623 H 80.5375 -8.12139 0.792866 0
M  V30 624 H 83.1925 -5.80178 -0.160643 0
M  V30 625 H 83.4725 -6.51379 2.75643 0
M  V30 626 H 84.4635 -7.01832 1.3448 0
M  V30 627 H 82.6295 -8.73771 2.38364 0
M  V30 628 H 82.5885 -4.7189 3.52311 0
M  V30 629 H 82.9695 0.0721434 2.82608 0
M  V30 630 H 83.1585 1.0785 1.36544 0
M  V30 631 H 83.2665 -1.73207 -2.10241 0
M  V30 632 P 84.4995 -8.91 5.4558e-15 0
M  V30 633 O 84.7195 -10.1726 -0.733694 0
M  V30 634 O 85.2895 -8.73148 1.23936 0
M  V30 635 O 84.7495 -7.66872 -0.971405 0
M  V30 636 C 83.8095 -7.42309 -2.04641 0
M  V30 637 C 84.5395 -6.86059 -3.24661 0
M  V30 638 O 84.7495 -5.42847 -3.03646 0
M  V30 639 C 85.9395 -7.41196 -3.50753 0
M  V30 640 O 86.3295 -7.27073 -4.86816 0
M  V30 641 C 86.8195 -6.5273 -2.63741 0
M  V30 642 C 86.1095 -5.1842 -2.73198 0
M  V30 643 N 86.1595 -4.38762 -1.4784 0
M  V30 644 H 83.3205 -8.36803 -2.32493 0
M  V30 645 H 83.0505 -6.70197 -1.71129 0
M  V30 646 H 83.9175 -7.03551 -4.13168 0
M  V30 647 P 87.8795 -7.20834 -5.23717 0
M  V30 648 O 88.0995 -7.80006 -6.57415 0
M  V30 649 O 88.6695 -7.79416 -4.13051 0
M  V30 650 O 88.1295 -5.63315 -5.29344 0
M  V30 651 C 87.1895 -4.80318 -6.01954 0
M  V30 652 C 87.9195 -3.64202 -6.65911 0
M  V30 653 O 88.1295 -2.60736 -5.64823 0
M  V30 654 C 89.3195 -3.93521 -7.19518 0
M  V30 655 O 89.7095 -3.02071 -8.21205 0
M  V30 656 C 90.1995 -3.73047 -5.97036 0
M  V30 657 C 89.4895 -2.58828 -5.25741 0
M  V30 658 N 89.5395 -2.68068 -3.77503 0
M  V30 659 H 86.7015 -5.40394 -6.8003 0
M  V30 660 H 86.4295 -4.41741 -5.32532 0
M  V30 661 H 87.2975 -3.26371 -7.47889 0
M  V30 662 H 89.9525 -1.64007 -5.56746 0
M  V30 663 H 90.2325 -4.63439 -5.3432 0
M  V30 664 H 91.2235 -3.44776 -6.25925 0
M  V30 665 H 89.3895 -4.96707 -7.57347 0
M  V30 666 P 91.2595 -2.75334 -8.47391 0
M  V30 667 O 91.4795 -2.44571 -9.90142 0
M  V30 668 O 92.0495 -3.87688 -7.92115 0
M  V30 669 O 91.5095 -1.4459 -7.59357 0
M  V30 670 C 90.5695 -0.347608 -7.69215 0
M  V30 671 C 91.2995 0.96767 -7.52806 0
M  V30 672 O 91.5095 1.21036 -6.1011 0
M  V30 673 C 92.6995 1.04544 -8.13308 0
M  V30 674 O 93.0895 2.38311 -8.41922 0
M  V30 675 C 93.5795 0.491279 -7.02284 0
M  V30 676 C 92.8695 0.996264 -5.77469 0
M  V30 677 N 92.9195 0.0501916 -4.62973 0
M  V30 678 H 90.0805 -0.374722 -8.67691 0
M  V30 679 H 89.8105 -0.443485 -6.90277 0
M  V30 680 H 90.6775 1.75537 -7.96793 0
M  V30 681 P 94.6394 2.75334 -8.47391 0
M  V30 682 O 94.8594 3.84128 -9.44797 0
M  V30 683 O 95.4294 1.51947 -8.68712 0
M  V30 684 O 94.8894 3.29363 -6.99321 0
M  V30 685 C 93.9494 4.24011 -6.4274 0
M  V30 686 C 94.6794 5.20775 -5.52155 0
M  V30 687 O 94.8894 4.56534 -4.22446 0
M  V30 688 C 96.0794 5.62629 -5.96531 0
M  V30 689 O 96.4694 6.87667 -5.41053 0
M  V30 690 C 96.9594 4.52537 -5.39283 0
M  V30 691 C 96.2494 4.20027 -4.08623 0
M  V30 692 N 96.2994 2.76189 -3.71603 0
M  V30 693 H 93.4604 4.797 -7.24003 0
M  V30 694 H 93.1904 3.69856 -5.84513 0
M  V30 695 H 94.0574 6.10356 -5.41441 0
M  V30 696 P 98.0194 7.20834 -5.23717 0
M  V30 697 O 98.2394 8.66104 -5.38572 0
M  V30 698 O 98.8094 6.33544 -6.1349 0
M  V30 699 O 98.2694 6.7751 -3.72168 0
M  V30 700 C 97.3294 7.20825 -2.7076 0
M  V30 701 C 98.0594 7.45864 -1.40599 0
M  V30 702 O 98.2694 6.17651 -0.734225 0
M  V30 703 C 99.4594 8.05808 -1.51899 0
M  V30 704 O 99.8494 8.74358 -0.335205 0
M  V30 705 C 100.339 6.83093 -1.70294 0
M  V30 706 C 99.6294 5.79992 -0.836974 0
M  V30 707 N 99.6794 4.41864 -1.38293 0
M  V30 708 C 99.5994 3.99538 -2.69438 0
M  V30 709 N 99.6794 2.69909 -2.84277 0
M  V30 710 C 99.8194 2.21719 -1.5408 0
M  V30 711 C 99.9494 0.891712 -1.06628 0
M  V30 712 N 100.069 0.856846 0.334985 0
M  V30 713 C 100.069 1.9641 1.15789 0
M  V30 714 N 100.199 1.72708 2.46522 0
M  V30 715 N 99.9394 3.21165 0.713741 0
M  V30 716 C 99.8194 3.26797 -0.639748 0
M  V30 717 H 96.8404 8.13644 -3.0377 0
M  V30 718 H 96.5704 6.42788 -2.55485 0
M  V30 719 H 97.4374 8.12039 -0.792769 0
M  V30 720 P 101.399 8.91 -6.54696e-15 0
M  V30 721 O 101.619 10.1726 0.733694 0
M  V30 722 O 102.189 8.73148 -1.23936 0
M  V30 723 O 101.649 7.66872 0.971405 0
M  V30 724 C 100.709 7.42309 2.04641 0
M  V30 725 C 101.439 6.86059 3.24661 0
M  V30 726 O 101.649 5.42847 3.03646 0
M  V30 727 C 102.839 7.41196 3.50753 0
M  V30 728 O 103.229 7.27073 4.86816 0
M  V30 729 C 103.719 6.5273 2.63741 0
M  V30 730 C 103.009 5.1842 2.73198 0
M  V30 731 N 103.059 4.38762 1.4784 0
M  V30 732 C 102.979 4.81605 0.168631 0
M  V30 733 N 103.059 3.85454 -0.713363 0
M  V30 734 C 103.199 2.6994 0.0566958 0
M  V30 735 C 103.329 1.34815 -0.338502 0
M  V30 736 O 103.349 0.869548 -1.47125 0
M  V30 737 N 103.449 0.496304 0.77465 0
M  V30 738 C 103.449 0.908403 2.09122 0
M  V30 739 N 103.579 -0.0517805 3.00955 0
M  V30 740 N 103.319 2.17875 2.46519 0
M  V30 741 C 103.199 3.01988 1.4033 0
M  V30 742 H 100.22 8.36803 2.32493 0
M  V30 743 H 99.9504 6.70197 1.71129 0
M  V30 744 H 100.817 7.03551 4.13168 0
M  V30 745 H 103.472 4.59498 3.54415 0
M  V30 746 H 103.751 6.88898 1.59848 0
M  V30 747 H 104.743 6.46749 3.03687 0
M  V30 748 H 102.909 8.46908 3.20714 0
M  V30 749 H 102.86 5.86405 -0.105564 0
M  V30 750 H 103.542 -0.483664 0.597855 0
M  V30 751 H 103.579 0.187865 4.0116 0
M  V30 752 H 103.68 -1.03585 2.71726 0
M  V30 753 P 104.779 7.20834 5.23717 0
M  V30 754 O 104.999 7.80006 6.57415 0
M  V30 755 O 105.569 7.79416 4.13051 0
M  V30 756 O 105.029 5.63315 5.29344 0
M  V30 757 C 104.089 4.80318 6.01954 0
M  V30 758 C 104.819 3.64202 6.65911 0
M  V30 759 O 105.029 2.60736 5.64823 0
M  V30 760 C 106.219 3.93521 7.19518 0
M  V30 761 O 106.609 3.02071 8.21205 0
M  V30 762 C 107.099 3.73047 5.97036 0
M  V30 763 C 106.389 2.58828 5.25741 0
M  V30 764 N 106.439 2.68068 3.77503 0
M  V30 765 C 106.359 3.80474 2.99159 0
M  V30 766 N 106.429 3.55622 1.71925 0
M  V30 767 C 106.579 2.1832 1.65733 0
M  V30 768 C 106.709 1.28842 0.572777 0
M  V30 769 N 106.719 1.66875 -0.70098 0
M  V30 770 N 106.829 -0.016788 0.859836 0
M  V30 771 C 106.819 -0.398145 2.13316 0
M  V30 772 N 106.699 0.328224 3.22333 0
M  V30 773 C 106.579 1.62992 2.90383 0
M  V30 774 H 103.601 5.40394 6.8003 0
M  V30 775 H 103.329 4.41741 5.32532 0
M  V30 776 H 104.197 3.26371 7.47889 0
M  V30 777 H 106.852 1.64007 5.56746 0
M  V30 778 H 107.132 4.63439 5.3432 0
M  V30 779 H 108.123 3.44776 6.25925 0
M  V30 780 H 106.289 4.96707 7.57347 0
M  V30 781 H 106.248 4.8089 3.39924 0
M  V30 782 H 106.629 2.66547 -0.941919 0
M  V30 783 H 106.818 0.965341 -1.44766 0
M  V30 784 H 106.926 -1.46427 2.29697 0
M  V30 785 P 108.159 2.75334 8.47391 0
M  V30 786 O 108.379 2.44595 9.90239 0
M  V30 787 O 108.949 3.87732 7.92204 0
M  V30 788 O 108.409 1.4459 7.59357 0
M  V30 789 C 107.469 0.347563 7.69115 0
M  V30 790 C 108.199 -0.96767 7.52806 0
M  V30 791 O 108.409 -1.21036 6.1011 0
M  V30 792 C 109.599 -1.04544 8.13308 0
M  V30 793 O 109.989 -2.38311 8.41922 0
M  V30 794 C 110.479 -0.491279 7.02284 0
M  V30 795 C 109.769 -0.996264 5.77469 0
M  V30 796 N 109.819 -0.0501808 4.62873 0
M  V30 797 C 109.969 -0.588177 3.36904 0
M  V30 798 O 110.059 -1.78598 3.17173 0
M  V30 799 N 110.009 0.329694 2.33686 0
M  V30 800 C 109.919 1.6953 2.45079 0
M  V30 801 O 109.969 2.41926 1.44899 0
M  V30 802 C 109.769 2.16933 3.80505 0
M  V30 803 C 109.659 3.65373 3.97621 0
M  V30 804 C 109.719 1.30326 4.83752 0
M  V30 805 H 106.979 0.374722 8.67691 0
M  V30 806 H 106.71 0.443421 6.90177 0
M  V30 807 H 107.577 -1.75537 7.96793 0
M  V30 808 H 110.232 -1.94496 5.46629 0
M  V30 809 H 110.511 0.608651 7.04676 0
M  V30 810 H 111.503 -0.889672 7.08939 0
M  V30 811 H 109.669 -0.43308 9.04564 0
M  V30 812 H 109.598 1.68366 5.8516 0
M  V30 813 H 110.628 4.05985 4.30448 0
M  V30 814 H 108.891 3.88028 4.72875 0
M  V30 815 H 109.379 4.11381 3.01609 0
M  V30 816 H 110.115 -0.0393617 1.41345 0
M  V30 817 P 111.539 -2.75334 8.47391 0
M  V30 818 O 111.759 -3.84128 9.44797 0
M  V30 819 O 112.329 -1.51947 8.68712 0
M  V30 820 O 111.789 -3.29363 6.99321 0
M  V30 821 C 110.849 -4.24011 6.4274 0
M  V30 822 C 111.579 -5.20775 5.52155 0
M  V30 823 O 111.789 -4.56534 4.22446 0
M  V30 824 C 112.979 -5.62629 5.96531 0
M  V30 825 O 113.369 -6.87667 5.41053 0
M  V30 826 C 113.859 -4.52537 5.39283 0
M  V30 827 C 113.149 -4.20027 4.08623 0
M  V30 828 N 113.199 -2.76189 3.71603 0
M  V30 829 H 110.36 -4.797 7.24003 0
M  V30 830 H 110.09 -3.69856 5.84513 0
M  V30 831 H 110.957 -6.10356 5.41441 0
M  V30 832 P 114.919 -7.20834 5.23717 0
M  V30 833 O 115.139 -8.66189 5.38625 0
M  V30 834 O 115.709 -6.33615 6.1356 0
M  V30 835 O 115.169 -6.7751 3.72168 0
M  V30 836 C 114.229 -7.20732 2.70725 0
M  V30 837 C 114.959 -7.45864 1.40599 0
M  V30 838 O 115.169 -6.17651 0.734225 0
M  V30 839 C 116.359 -8.05808 1.51899 0
M  V30 840 O 116.749 -8.74358 0.335205 0
M  V30 841 C 117.239 -6.83093 1.70294 0
M  V30 842 C 116.529 -5.79992 0.836974 0
M  V30 843 N 116.579 -4.41769 1.38263 0
M  V30 844 C 116.729 -3.38591 0.481702 0
M  V30 845 O 116.819 -3.56839 -0.718452 0
M  V30 846 N 116.769 -2.1206 1.03569 0
M  V30 847 C 116.679 -1.80696 2.36966 0
M  V30 848 O 116.729 -0.630473 2.74862 0
M  V30 849 C 116.529 -2.94845 3.23898 0
M  V30 850 C 116.419 -2.65253 4.70362 0
M  V30 851 C 116.479 -4.19803 2.73435 0
M  V30 852 H 113.739 -8.13644 3.0377 0
M  V30 853 H 113.47 -6.42695 2.55448 0
M  V30 854 H 114.337 -8.12039 0.792769 0
M  V30 855 H 116.992 -5.79978 -0.160587 0
M  V30 856 H 117.271 -6.51379 2.75643 0
M  V30 857 H 118.263 -7.01734 1.34462 0
M  V30 858 H 116.429 -8.73674 2.38337 0
M  V30 859 H 116.358 -5.04492 3.4095 0
M  V30 860 H 117.388 -2.83924 5.1913 0
M  V30 861 H 115.651 -3.29824 5.15163 0
M  V30 862 H 116.139 -1.59723 4.84449 0
M  V30 863 H 116.875 -1.35644 0.399345 0
M  V30 864 P 118.299 -8.91 7.63812e-15 0
M  V30 865 O 118.519 -10.1746 -0.733838 0
M  V30 866 O 119.089 -8.73346 1.23964 0
M  V30 867 O 118.549 -7.66872 -0.971405 0
M  V30 868 C 117.609 -7.42405 -2.04668 0
M  V30 869 C 118.339 -6.86059 -3.24661 0
M  V30 870 O 118.549 -5.42934 -3.03695 0
M  V30 871 C 119.739 -7.41287 -3.50796 0
M  V30 872 O 120.129 -7.27073 -4.86816 0
M  V30 873 C 120.619 -6.5273 -2.63741 0
M  V30 874 C 119.909 -5.1842 -2.73198 0
M  V30 875 N 119.959 -4.38762 -1.4784 0
M  V30 876 C 119.879 -4.83651 -0.183876 0
M  V30 877 N 119.949 -3.88759 0.699393 0
M  V30 878 C 120.099 -2.7404 -0.0575568 0
M  V30 879 C 120.229 -1.37902 0.293928 0
M  V30 880 N 120.239 -0.938021 1.54797 0
M  V30 881 N 120.349 -0.491817 -0.70549 0
M  V30 882 C 120.339 -0.931735 -1.95979 0
M  V30 883 N 120.219 -2.16017 -2.41481 0
M  V30 884 C 120.099 -3.02547 -1.39121 0
M  V30 885 H 117.121 -8.36899 -2.3252 0
M  V30 886 H 116.849 -6.70391 -1.71179 0
M  V30 887 H 117.717 -7.03638 -4.13219 0
M  V30 888 H 120.372 -4.59931 -3.54016 0
M  V30 889 H 120.652 -6.88995 -1.59871 0
M  V30 890 H 121.643 -6.4684 -3.0373 0
M  V30 891 H 119.809 -8.47002 -3.20749 0
M  V30 892 H 119.768 -5.8885 0.0765548 0
M  V30 893 H 120.149 -1.60276 2.32875 0
M  V30 894 H 120.338 0.0699355 1.73859 0
M  V30 895 H 120.446 -0.165507 -2.71897 0
M  V30 896 P 121.679 -7.20834 -5.23717 0
M  V30 897 O 121.899 -7.79853 -6.57286 0
M  V30 898 O 122.469 -7.79239 -4.12957 0
M  V30 899 O 121.929 -5.63315 -5.29344 0
M  V30 900 C 120.989 -4.80255 -6.01876 0
M  V30 901 C 121.719 -3.64202 -6.65911 0
M  V30 902 O 121.929 -2.60694 -5.64732 0
M  V30 903 C 123.119 -3.93473 -7.1943 0
M  V30 904 O 123.509 -3.02071 -8.21205 0
M  V30 905 C 123.999 -3.73047 -5.97036 0
M  V30 906 C 123.289 -2.58828 -5.25741 0
M  V30 907 N 123.339 -2.68068 -3.77503 0
M  V30 908 H 120.5 -5.40332 -6.79951 0
M  V30 909 H 120.23 -4.41613 -5.32378 0
M  V30 910 H 121.097 -3.26331 -7.47797 0
M  V30 911 P 125.059 -2.75334 -8.47391 0
M  V30 912 O 125.279 -2.44571 -9.90142 0
M  V30 913 O 125.849 -3.87688 -7.92115 0
M  V30 914 O 125.309 -1.4459 -7.59357 0
M  V30 915 C 124.369 -0.347608 -7.69215 0
M  V30 916 C 125.099 0.96767 -7.52806 0
M  V30 917 O 125.309 1.21036 -6.1011 0
M  V30 918 C 126.499 1.04544 -8.13308 0
M  V30 919 O 126.889 2.38311 -8.41922 0
M  V30 920 C 127.379 0.491279 -7.02284 0
M  V30 921 C 126.669 0.996264 -5.77469 0
M  V30 922 N 126.719 0.0501916 -4.62973 0
M  V30 923 H 123.88 -0.374722 -8.67691 0
M  V30 924 H 123.61 -0.443485 -6.90277 0
M  V30 925 H 124.477 1.75537 -7.96793 0
M  V30 926 P 128.439 2.75334 -8.47391 0
M  V30 927 O 128.659 3.84128 -9.44797 0
M  V30 928 O 129.229 1.51947 -8.68712 0
M  V30 929 O 128.689 3.29363 -6.99321 0
M  V30 930 C 127.749 4.24011 -6.4274 0
M  V30 931 C 128.479 5.20775 -5.52155 0
M  V30 932 O 128.689 4.56534 -4.22446 0
M  V30 933 C 129.879 5.62629 -5.96531 0
M  V30 934 O 130.269 6.87667 -5.41053 0
M  V30 935 C 130.759 4.52537 -5.39283 0
M  V30 936 C 130.049 4.20027 -4.08623 0
M  V30 937 N 130.099 2.76189 -3.71603 0
M  V30 938 H 127.26 4.797 -7.24003 0
M  V30 939 H 126.99 3.69856 -5.84513 0
M  V30 940 H 127.857 6.10356 -5.41441 0
M  V30 941 P 131.819 7.20834 -5.23717 0
M  V30 942 O 132.039 8.66189 -5.38625 0
M  V30 943 O 132.609 6.33615 -6.1356 0
M  V30 944 O 132.069 6.7751 -3.72168 0
M  V30 945 C 131.129 7.20825 -2.7076 0
M  V30 946 C 131.859 7.45864 -1.40599 0
M  V30 947 O 132.069 6.17651 -0.734225 0
M  V30 948 C 133.259 8.05808 -1.51899 0
M  V30 949 O 133.649 8.74358 -0.335205 0
M  V30 950 C 134.139 6.83093 -1.70294 0
M  V30 951 C 133.429 5.79992 -0.836974 0
M  V30 952 N 133.479 4.41769 -1.38263 0
M  V30 953 C 133.629 3.36514 -0.485617 0
M  V30 954 O 133.719 3.61814 0.724703 0
M  V30 955 N 133.679 2.00746 -1.14492 0
M  V30 956 C 133.579 1.85887 -2.27776 0
M  V30 957 N 133.629 0.600907 -2.69379 0
M  V30 958 C 133.429 2.92182 -3.22265 0
M  V30 959 C 133.379 4.18399 -2.71925 0
M  V30 960 H 130.639 8.1355 -3.03735 0
M  V30 961 H 130.37 6.42695 -2.55448 0
M  V30 962 H 131.237 8.12139 -0.792866 0
M  V30 963 H 133.892 5.80078 0.160615 0
M  V30 964 H 134.171 6.51379 -2.75643 0
M  V30 965 H 135.163 7.01734 -1.34462 0
M  V30 966 H 133.329 8.73674 -2.38337 0
M  V30 967 H 133.257 5.02669 -3.39718 0
M  V30 968 H 133.359 2.73001 -4.29239 0
M  V30 969 H 133.747 -0.162318 -2.01146 0
M  V30 970 H 133.55 0.387742 -3.69773 0
M  V30 971 P 135.199 8.91 -8.72928e-15 0
M  V30 972 O 135.419 10.1726 0.733694 0
M  V30 973 O 135.989 8.73148 -1.23936 0
M  V30 974 O 135.449 7.66872 0.971405 0
M  V30 975 C 134.509 7.42309 2.04641 0
M  V30 976 C 135.239 6.86059 3.24661 0
M  V30 977 O 135.449 5.42847 3.03646 0
M  V30 978 C 136.639 7.41196 3.50753 0
M  V30 979 O 137.029 7.27073 4.86816 0
M  V30 980 C 137.519 6.5273 2.63741 0
M  V30 981 C 136.809 5.1842 2.73198 0
M  V30 982 N 136.859 4.38762 1.4784 0
M  V30 983 C 136.779 4.81605 0.168631 0
M  V30 984 N 136.859 3.85454 -0.713363 0
M  V30 985 C 136.999 2.6994 0.0566958 0
M  V30 986 C 137.129 1.34815 -0.338502 0
M  V30 987 N 137.249 0.496304 0.77465 0
M  V30 988 C 137.249 0.908403 2.09122 0
M  V30 989 N 137.379 -0.0517805 3.00955 0
M  V30 990 N 137.119 2.17875 2.46519 0
M  V30 991 C 136.999 3.01988 1.4033 0
M  V30 992 H 134.02 8.36803 2.32493 0
M  V30 993 H 133.75 6.70197 1.71129 0
M  V30 994 H 134.617 7.03551 4.13168 0
M  V30 995 P 138.579 7.20834 5.23717 0
M  V30 996 O 138.799 7.79853 6.57286 0
M  V30 997 O 139.369 7.79239 4.12957 0
M  V30 998 O 138.829 5.63315 5.29344 0
M  V30 999 C 137.889 4.80255 6.01876 0
M  V30 1000 C 138.619 3.64202 6.65911 0
M  V30 1001 O 138.829 2.60694 5.64732 0
M  V30 1002 C 140.019 3.93473 7.1943 0
M  V30 1003 O 140.409 3.02071 8.21205 0
M  V30 1004 C 140.899 3.73047 5.97036 0
M  V30 1005 C 140.189 2.58828 5.25741 0
M  V30 1006 N 140.239 2.68068 3.77503 0
M  V30 1007 C 140.159 3.79715 2.96723 0
M  V30 1008 N 140.239 3.5377 1.68852 0
M  V30 1009 C 140.379 2.15054 1.63254 0
M  V30 1010 C 140.509 1.28964 0.518571 0
M  V30 1011 N 140.629 -0.0538097 0.918425 0
M  V30 1012 C 140.629 -0.494275 2.22578 0
M  V30 1013 N 140.759 -1.81086 2.40434 0
M  V30 1014 N 140.499 0.313645 3.27502 0
M  V30 1015 C 140.379 1.61829 2.91033 0
M  V30 1016 H 137.4 5.40332 6.79951 0
M  V30 1017 H 137.13 4.41613 5.32378 0
M  V30 1018 H 137.997 3.26331 7.47797 0
M  V30 1019 P 141.959 2.75334 8.47391 0
M  V30 1020 O 142.179 2.44571 9.90142 0
M  V30 1021 O 142.749 3.87688 7.92115 0
M  V30 1022 O 142.209 1.4459 7.59357 0
M  V30 1023 C 141.269 0.347608 7.69215 0
M  V30 1024 C 141.999 -0.96767 7.52806 0
M  V30 1025 O 142.209 -1.21036 6.1011 0
M  V30 1026 C 143.399 -1.04544 8.13308 0
M  V30 1027 O 143.789 -2.38311 8.41922 0
M  V30 1028 C 144.279 -0.491279 7.02284 0
M  V30 1029 C 143.569 -0.996264 5.77469 0
M  V30 1030 N 143.619 -0.0501916 4.62973 0
M  V30 1031 H 140.78 0.374722 8.67691 0
M  V30 1032 H 140.51 0.443485 6.90277 0
M  V30 1033 H 141.377 -1.75537 7.96793 0
M  V30 1034 P 145.339 -2.75334 8.47391 0
M  V30 1035 O 145.559 -3.84128 9.44797 0
M  V30 1036 O 146.129 -1.51947 8.68712 0
M  V30 1037 O 145.589 -3.29363 6.99321 0
M  V30 1038 C 144.649 -4.24011 6.4274 0
M  V30 1039 C 145.379 -5.20775 5.52155 0
M  V30 1040 O 145.589 -4.56534 4.22446 0
M  V30 1041 C 146.779 -5.62629 5.96531 0
M  V30 1042 O 147.169 -6.87667 5.41053 0
M  V30 1043 C 147.659 -4.52537 5.39283 0
M  V30 1044 C 146.949 -4.20027 4.08623 0
M  V30 1045 N 146.999 -2.76189 3.71603 0
M  V30 1046 H 144.16 -4.797 7.24003 0
M  V30 1047 H 143.89 -3.69856 5.84513 0
M  V30 1048 H 144.757 -6.10356 5.41441 0
M  V30 1049 P 148.719 -7.20834 5.23717 0
M  V30 1050 O 148.939 -8.66104 5.38572 0
M  V30 1051 O 149.509 -6.33544 6.1349 0
M  V30 1052 O 148.969 -6.7751 3.72168 0
M  V30 1053 C 148.029 -7.20825 2.7076 0
M  V30 1054 C 148.759 -7.45864 1.40599 0
M  V30 1055 O 148.969 -6.17651 0.734225 0
M  V30 1056 C 150.159 -8.05808 1.51899 0
M  V30 1057 O 150.549 -8.74358 0.335205 0
M  V30 1058 C 151.039 -6.83093 1.70294 0
M  V30 1059 C 150.329 -5.79992 0.836974 0
M  V30 1060 N 150.379 -4.41864 1.38293 0
M  V30 1061 H 147.54 -8.13644 3.0377 0
M  V30 1062 H 147.27 -6.42788 2.55485 0
M  V30 1063 H 148.137 -8.12039 0.792769 0
M  V30 1064 P 152.099 -8.91 9.82044e-15 0
M  V30 1065 O 152.319 -10.1736 -0.733766 0
M  V30 1066 O 152.889 -8.73247 1.2395 0
M  V30 1067 O 152.349 -7.66872 -0.971405 0
M  V30 1068 C 151.409 -7.42212 -2.04614 0
M  V30 1069 C 152.139 -6.86059 -3.24661 0
M  V30 1070 O 152.349 -5.42847 -3.03646 0
M  V30 1071 C 153.539 -7.41196 -3.50753 0
M  V30 1072 O 153.929 -7.27073 -4.86816 0
M  V30 1073 C 154.419 -6.5273 -2.63741 0
M  V30 1074 C 153.709 -5.1842 -2.73198 0
M  V30 1075 N 153.759 -4.38668 -1.47808 0
M  V30 1076 C 153.909 -3.02239 -1.60048 0
M  V30 1077 O 153.999 -2.46459 -2.67869 0
M  V30 1078 N 153.949 -2.32436 -0.408571 0
M  V30 1079 C 153.859 -2.85471 0.854993 0
M  V30 1080 C 153.709 -4.28918 0.887335 0
M  V30 1081 C 153.659 -5.00349 -0.255399 0
M  V30 1082 H 150.919 -8.36803 -2.32493 0
M  V30 1083 H 150.65 -6.701 -1.71105 0
M  V30 1084 H 151.517 -7.03551 -4.13168 0
M  V30 1085 H 154.172 -4.59773 -3.53894 0
M  V30 1086 H 154.451 -6.88995 -1.59871 0
M  V30 1087 H 155.443 -6.46749 -3.03687 0
M  V30 1088 H 153.609 -8.46908 -3.20714 0
M  V30 1089 H 153.538 -6.08548 -0.206986 0
M  V30 1090 P 155.479 -7.20834 -5.23717 0
M  V30 1091 O 155.699 -7.79853 -6.57286 0
M  V30 1092 O 156.269 -7.79239 -4.12957 0
M  V30 1093 O 155.729 -5.63315 -5.29344 0
M  V30 1094 C 154.789 -4.80255 -6.01876 0
M  V30 1095 C 155.519 -3.64202 -6.65911 0
M  V30 1096 O 155.729 -2.60694 -5.64732 0
M  V30 1097 C 156.919 -3.93473 -7.1943 0
M  V30 1098 O 157.309 -3.02071 -8.21205 0
M  V30 1099 C 157.799 -3.73047 -5.97036 0
M  V30 1100 C 157.089 -2.58828 -5.25741 0
M  V30 1101 N 157.139 -2.68068 -3.77503 0
M  V30 1102 H 154.3 -5.40332 -6.79951 0
M  V30 1103 H 154.03 -4.41613 -5.32378 0
M  V30 1104 H 154.897 -3.26331 -7.47797 0
M  V30 1105 P 158.859 -2.75334 -8.47391 0
M  V30 1106 O 159.079 -2.44571 -9.90142 0
M  V30 1107 O 159.649 -3.87688 -7.92115 0
M  V30 1108 O 159.109 -1.4459 -7.59357 0
M  V30 1109 C 158.169 -0.347608 -7.69215 0
M  V30 1110 C 158.899 0.96767 -7.52806 0
M  V30 1111 O 159.109 1.21036 -6.1011 0
M  V30 1112 C 160.299 1.04544 -8.13308 0
M  V30 1113 O 160.689 2.38311 -8.41922 0
M  V30 1114 C 161.179 0.491279 -7.02284 0
M  V30 1115 C 160.469 0.996264 -5.77469 0
M  V30 1116 N 160.519 0.0501916 -4.62973 0
M  V30 1117 H 157.68 -0.374722 -8.67691 0
M  V30 1118 H 157.41 -0.443485 -6.90277 0
M  V30 1119 H 158.277 1.75537 -7.96793 0
M  V30 1120 P 162.239 2.75334 -8.47391 0
M  V30 1121 O 162.459 3.84204 -9.44982 0
M  V30 1122 O 163.029 1.51982 -8.68909 0
M  V30 1123 O 162.489 3.29363 -6.99321 0
M  V30 1124 C 161.549 4.24066 -6.42823 0
M  V30 1125 C 162.279 5.20775 -5.52155 0
M  V30 1126 O 162.489 4.56607 -4.22514 0
M  V30 1127 C 163.679 5.62697 -5.96604 0
M  V30 1128 O 164.069 6.87667 -5.41053 0
M  V30 1129 C 164.559 4.52537 -5.39283 0
M  V30 1130 C 163.849 4.20027 -4.08623 0
M  V30 1131 N 163.899 2.76189 -3.71603 0
M  V30 1132 H 161.061 4.79756 -7.24086 0
M  V30 1133 H 160.789 3.69963 -5.84682 0
M  V30 1134 H 161.657 6.10431 -5.41508 0
M  V30 1135 H 164.312 4.78816 -3.28024 0
M  V30 1136 H 164.592 3.64957 -6.05871 0
M  V30 1137 H 165.583 4.88748 -5.21323 0
M  V30 1138 H 163.749 5.66789 -7.0643 0
M  V30 1139 P 165.619 7.20834 -5.23717 0
M  V30 1140 O 165.839 8.66104 -5.38572 0
M  V30 1141 O 166.409 6.33544 -6.1349 0
M  V30 1142 O 165.869 6.7751 -3.72168 0
M  V30 1143 C 164.929 7.20825 -2.7076 0
M  V30 1144 C 165.659 7.45864 -1.40599 0
M  V30 1145 O 165.869 6.17651 -0.734225 0
M  V30 1146 C 167.059 8.05808 -1.51899 0
M  V30 1147 O 167.449 8.74358 -0.335205 0
M  V30 1148 C 167.939 6.83093 -1.70294 0
M  V30 1149 C 167.229 5.79992 -0.836974 0
M  V30 1150 N 167.279 4.41864 -1.38293 0
M  V30 1151 H 164.44 8.13644 -3.0377 0
M  V30 1152 H 164.17 6.42788 -2.55485 0
M  V30 1153 H 165.037 8.12039 -0.792769 0
M  V30 1154 P 168.999 8.91 -1.09116e-14 0
M  V30 1155 O 169.219 10.1746 0.733838 0
M  V30 1156 O 169.789 8.73346 -1.23964 0
M  V30 1157 O 169.249 7.66872 0.971405 0
M  V30 1158 C 168.309 7.42405 2.04668 0
M  V30 1159 C 169.039 6.86059 3.24661 0
M  V30 1160 O 169.249 5.42934 3.03695 0
M  V30 1161 C 170.439 7.41287 3.50796 0
M  V30 1162 O 170.829 7.27073 4.86816 0
M  V30 1163 C 171.319 6.5273 2.63741 0
M  V30 1164 C 170.609 5.1842 2.73198 0
M  V30 1165 N 170.659 4.38762 1.4784 0
M  V30 1166 C 170.579 4.83651 0.183876 0
M  V30 1167 N 170.649 3.88759 -0.699393 0
M  V30 1168 C 170.799 2.7404 0.0575568 0
M  V30 1169 C 170.929 1.37902 -0.293928 0
M  V30 1170 N 170.939 0.938021 -1.54797 0
M  V30 1171 N 171.049 0.491817 0.70549 0
M  V30 1172 C 171.039 0.931735 1.95979 0
M  V30 1173 N 170.919 2.16017 2.41481 0
M  V30 1174 C 170.799 3.02547 1.39121 0
M  V30 1175 H 167.821 8.36899 2.3252 0
M  V30 1176 H 167.549 6.70391 1.71179 0
M  V30 1177 H 168.417 7.03638 4.13219 0
M  V30 1178 H 171.072 4.59931 3.54016 0
M  V30 1179 H 171.352 6.88995 1.59871 0
M  V30 1180 H 172.343 6.4684 3.0373 0
M  V30 1181 H 170.509 8.47002 3.20749 0
M  V30 1182 H 170.468 5.8885 -0.0765548 0
M  V30 1183 H 170.849 1.60276 -2.32875 0
M  V30 1184 H 171.038 -0.0699355 -1.73859 0
M  V30 1185 H 171.146 0.165507 2.71897 0
M  V30 1186 P 172.379 7.20834 5.23717 0
M  V30 1187 O 172.599 7.79853 6.57286 0
M  V30 1188 O 173.169 7.79239 4.12957 0
M  V30 1189 O 172.629 5.63315 5.29344 0
M  V30 1190 C 171.689 4.80255 6.01876 0
M  V30 1191 C 172.419 3.64202 6.65911 0
M  V30 1192 O 172.629 2.60694 5.64732 0
M  V30 1193 C 173.819 3.93473 7.1943 0
M  V30 1194 O 174.209 3.02071 8.21205 0
M  V30 1195 C 174.699 3.73047 5.97036 0
M  V30 1196 C 173.989 2.58828 5.25741 0
M  V30 1197 N 174.039 2.68068 3.77503 0
M  V30 1198 H 171.2 5.40332 6.79951 0
M  V30 1199 H 170.93 4.41613 5.32378 0
M  V30 1200 H 171.797 3.26331 7.47797 0
M  V30 1201 P 175.759 2.75334 8.47391 0
M  V30 1202 O 175.979 2.44595 9.90239 0
M  V30 1203 O 176.549 3.87732 7.92204 0
M  V30 1204 O 176.009 1.4459 7.59357 0
M  V30 1205 C 175.069 0.347563 7.69115 0
M  V30 1206 C 175.799 -0.96767 7.52806 0
M  V30 1207 O 176.009 -1.21036 6.1011 0
M  V30 1208 C 177.199 -1.04544 8.13308 0
M  V30 1209 O 177.589 -2.38311 8.41922 0
M  V30 1210 C 178.079 -0.491279 7.02284 0
M  V30 1211 C 177.369 -0.996264 5.77469 0
M  V30 1212 N 177.419 -0.0501808 4.62873 0
M  V30 1213 C 177.569 -0.588177 3.36904 0
M  V30 1214 O 177.659 -1.78598 3.17173 0
M  V30 1215 N 177.609 0.329694 2.33686 0
M  V30 1216 C 177.519 1.6953 2.45079 0
M  V30 1217 O 177.569 2.41926 1.44899 0
M  V30 1218 C 177.369 2.16933 3.80505 0
M  V30 1219 C 177.259 3.65373 3.97621 0
M  V30 1220 C 177.319 1.30326 4.83752 0
M  V30 1221 H 174.579 0.374722 8.67691 0
M  V30 1222 H 174.31 0.443421 6.90177 0
M  V30 1223 H 175.177 -1.75537 7.96793 0
M  V30 1224 H 177.832 -1.94496 5.46629 0
M  V30 1225 H 178.111 0.608651 7.04676 0
M  V30 1226 H 179.103 -0.889672 7.08939 0
M  V30 1227 H 177.269 -0.43308 9.04564 0
M  V30 1228 H 177.198 1.68366 5.8516 0
M  V30 1229 H 178.228 4.05985 4.30448 0
M  V30 1230 H 176.491 3.88028 4.72875 0
M  V30 1231 H 176.979 4.11381 3.01609 0
M  V30 1232 H 177.715 -0.0393617 1.41345 0
M  V30 1233 P 179.139 -2.75334 8.47391 0
M  V30 1234 O 179.359 -3.84128 9.44797 0
M  V30 1235 O 179.929 -1.51947 8.68712 0
M  V30 1236 O 179.389 -3.29363 6.99321 0
M  V30 1237 C 178.449 -4.24011 6.4274 0
M  V30 1238 C 179.179 -5.20775 5.52155 0
M  V30 1239 O 179.389 -4.56534 4.22446 0
M  V30 1240 C 180.579 -5.62629 5.96531 0
M  V30 1241 O 180.969 -6.87667 5.41053 0
M  V30 1242 C 181.459 -4.52537 5.39283 0
M  V30 1243 C 180.749 -4.20027 4.08623 0
M  V30 1244 N 180.799 -2.76189 3.71603 0
M  V30 1245 C 180.719 -1.64862 4.52822 0
M  V30 1246 N 180.799 -0.512671 3.88633 0
M  V30 1247 C 180.939 -0.888083 2.54977 0
M  V30 1248 C 181.069 -0.094668 1.38677 0
M  V30 1249 O 181.089 1.13053 1.28163 0
M  V30 1250 N 181.189 -0.890102 0.232633 0
M  V30 1251 C 181.189 -2.26958 0.21772 0
M  V30 1252 N 181.319 -2.84626 -0.97925 0
M  V30 1253 N 181.059 -3.0178 1.31033 0
M  V30 1254 C 180.939 -2.26781 2.43843 0
M  V30 1255 H 177.96 -4.797 7.24003 0
M  V30 1256 H 177.69 -3.69856 5.84513 0
M  V30 1257 H 178.557 -6.10356 5.41441 0
M  V30 1258 H 181.212 -4.79061 3.27488 0
M  V30 1259 H 181.491 -3.64906 6.05785 0
M  V30 1260 H 182.483 -4.8868 5.2125 0
M  V30 1261 H 180.649 -5.66726 7.06352 0
M  V30 1262 H 180.6 -1.71169 5.60966 0
M  V30 1263 H 181.282 -0.419134 -0.644739 0
M  V30 1264 H 181.319 -3.87332 -1.06098 0
M  V30 1265 H 181.42 -2.26417 -1.82483 0
M  V30 1266 P 182.519 -7.20834 5.23717 0
M  V30 1267 O 182.739 -8.66189 5.38625 0
M  V30 1268 O 183.309 -6.33615 6.1356 0
M  V30 1269 O 182.769 -6.7751 3.72168 0
M  V30 1270 C 181.829 -7.20732 2.70725 0
M  V30 1271 C 182.559 -7.45864 1.40599 0
M  V30 1272 O 182.769 -6.17651 0.734225 0
M  V30 1273 C 183.959 -8.05808 1.51899 0
M  V30 1274 O 184.349 -8.74358 0.335205 0
M  V30 1275 C 184.839 -6.83093 1.70294 0
M  V30 1276 C 184.129 -5.79992 0.836974 0
M  V30 1277 N 184.179 -4.41769 1.38263 0
M  V30 1278 C 184.329 -3.38591 0.481702 0
M  V30 1279 O 184.419 -3.56839 -0.718452 0
M  V30 1280 N 184.369 -2.1206 1.03569 0
M  V30 1281 C 184.279 -1.80696 2.36966 0
M  V30 1282 O 184.329 -0.630473 2.74862 0
M  V30 1283 C 184.129 -2.94845 3.23898 0
M  V30 1284 C 184.019 -2.65253 4.70362 0
M  V30 1285 C 184.079 -4.19803 2.73435 0
M  V30 1286 H 181.339 -8.13644 3.0377 0
M  V30 1287 H 181.07 -6.42695 2.55448 0
M  V30 1288 H 181.937 -8.12039 0.792769 0
M  V30 1289 H 184.592 -5.79978 -0.160587 0
M  V30 1290 H 184.871 -6.51379 2.75643 0
M  V30 1291 H 185.863 -7.01734 1.34462 0
M  V30 1292 H 184.029 -8.73674 2.38337 0
M  V30 1293 H 183.958 -5.04492 3.4095 0
M  V30 1294 H 184.988 -2.83924 5.1913 0
M  V30 1295 H 183.251 -3.29824 5.15163 0
M  V30 1296 H 183.739 -1.59723 4.84449 0
M  V30 1297 H 184.475 -1.35644 0.399345 0
M  V30 1298 P 185.899 -8.91 -8.29613e-14 0
M  V30 1299 O 186.119 -10.1726 -0.733694 0
M  V30 1300 O 186.689 -8.73148 1.23936 0
M  V30 1301 O 186.149 -7.66872 -0.971405 0
M  V30 1302 C 185.209 -7.42309 -2.04641 0
M  V30 1303 C 185.939 -6.86059 -3.24661 0
M  V30 1304 O 186.149 -5.42847 -3.03646 0
M  V30 1305 C 187.339 -7.41196 -3.50753 0
M  V30 1306 O 187.729 -7.27073 -4.86816 0
M  V30 1307 C 188.219 -6.5273 -2.63741 0
M  V30 1308 C 187.509 -5.1842 -2.73198 0
M  V30 1309 N 187.559 -4.38762 -1.4784 0
M  V30 1310 H 184.72 -8.36803 -2.32493 0
M  V30 1311 H 184.45 -6.70197 -1.71129 0
M  V30 1312 H 185.317 -7.03551 -4.13168 0
M  V30 1313 P 189.279 -7.20834 -5.23717 0
M  V30 1314 O 189.499 -7.79853 -6.57286 0
M  V30 1315 O 190.069 -7.79239 -4.12957 0
M  V30 1316 O 189.529 -5.63315 -5.29344 0
M  V30 1317 C 188.589 -4.80255 -6.01876 0
M  V30 1318 C 189.319 -3.64202 -6.65911 0
M  V30 1319 O 189.529 -2.60694 -5.64732 0
M  V30 1320 C 190.719 -3.93473 -7.1943 0
M  V30 1321 O 191.109 -3.02071 -8.21205 0
M  V30 1322 C 191.599 -3.73047 -5.97036 0
M  V30 1323 C 190.889 -2.58828 -5.25741 0
M  V30 1324 N 190.939 -2.68068 -3.77503 0
M  V30 1325 H 188.1 -5.40332 -6.79951 0
M  V30 1326 H 187.83 -4.41613 -5.32378 0
M  V30 1327 H 188.697 -3.26331 -7.47797 0
M  V30 1328 P 192.659 -2.75334 -8.47391 0
M  V30 1329 O 192.879 -2.44571 -9.90142 0
M  V30 1330 O 193.449 -3.87688 -7.92115 0
M  V30 1331 O 192.909 -1.4459 -7.59357 0
M  V30 1332 C 191.969 -0.347608 -7.69215 0
M  V30 1333 C 192.699 0.96767 -7.52806 0
M  V30 1334 O 192.909 1.21036 -6.1011 0
M  V30 1335 C 194.099 1.04544 -8.13308 0
M  V30 1336 O 194.489 2.38311 -8.41922 0
M  V30 1337 C 194.979 0.491279 -7.02284 0
M  V30 1338 C 194.269 0.996264 -5.77469 0
M  V30 1339 N 194.319 0.0501916 -4.62973 0
M  V30 1340 H 191.48 -0.374722 -8.67691 0
M  V30 1341 H 191.21 -0.443485 -6.90277 0
M  V30 1342 H 192.077 1.75537 -7.96793 0
M  V30 1343 P 196.039 2.75334 -8.47391 0
M  V30 1344 O 196.259 3.84204 -9.44982 0
M  V30 1345 O 196.829 1.51982 -8.68909 0
M  V30 1346 O 196.289 3.29363 -6.99321 0
M  V30 1347 C 195.349 4.24066 -6.42823 0
M  V30 1348 C 196.079 5.20775 -5.52155 0
M  V30 1349 O 196.289 4.56607 -4.22514 0
M  V30 1350 C 197.479 5.62697 -5.96604 0
M  V30 1351 O 197.869 6.87667 -5.41053 0
M  V30 1352 C 198.359 4.52537 -5.39283 0
M  V30 1353 C 197.649 4.20027 -4.08623 0
M  V30 1354 N 197.699 2.76189 -3.71603 0
M  V30 1355 C 197.619 1.66944 -4.54297 0
M  V30 1356 N 197.689 0.536169 -3.91344 0
M  V30 1357 C 197.839 0.901569 -2.58849 0
M  V30 1358 C 197.969 0.146599 -1.40236 0
M  V30 1359 N 197.979 -1.18234 -1.37046 0
M  V30 1360 N 198.089 0.822941 -0.249738 0
M  V30 1361 C 198.079 2.15179 -0.280525 0
M  V30 1362 N 197.959 2.96414 -1.30822 0
M  V30 1363 C 197.839 2.25804 -2.44748 0
M  V30 1364 H 194.861 4.79756 -7.24086 0
M  V30 1365 H 194.589 3.69963 -5.84682 0
M  V30 1366 H 195.457 6.10431 -5.41508 0
M  V30 1367 H 198.112 4.78816 -3.28024 0
M  V30 1368 H 198.392 3.64957 -6.05871 0
M  V30 1369 H 199.383 4.88748 -5.21323 0
M  V30 1370 H 197.549 5.66789 -7.0643 0
M  V30 1371 H 197.508 1.74684 -5.62396 0
M  V30 1372 H 197.889 -1.71949 -2.24394 0
M  V30 1373 H 198.078 -1.67511 -0.470742 0
M  V30 1374 H 198.186 2.63704 0.6828 0
M  V30 1375 P 199.419 7.20834 -5.23717 0
M  V30 1376 O 199.639 8.66104 -5.38572 0
M  V30 1377 O 200.209 6.33544 -6.1349 0
M  V30 1378 O 199.669 6.7751 -3.72168 0
M  V30 1379 C 198.729 7.20825 -2.7076 0
M  V30 1380 C 199.459 7.45864 -1.40599 0
M  V30 1381 O 199.669 6.17651 -0.734225 0
M  V30 1382 C 200.859 8.05808 -1.51899 0
M  V30 1383 O 201.249 8.74358 -0.335205 0
M  V30 1384 C 201.739 6.83093 -1.70294 0
M  V30 1385 C 201.029 5.79992 -0.836974 0
M  V30 1386 N 201.079 4.41864 -1.38293 0
M  V30 1387 H 198.24 8.13644 -3.0377 0
M  V30 1388 H 197.97 6.42788 -2.55485 0
M  V30 1389 H 198.837 8.12039 -0.792769 0
M  V30 1390 P 202.799 8.91 2.40144e-13 0
M  V30 1391 O 203.019 10.1726 0.733694 0
M  V30 1392 O 203.589 8.73148 -1.23936 0
M  V30 1393 O 203.049 7.66872 0.971405 0
M  V30 1394 C 202.109 7.42309 2.04641 0
M  V30 1395 C 202.839 6.86059 3.24661 0
M  V30 1396 O 203.049 5.42847 3.03646 0
M  V30 1397 C 204.239 7.41196 3.50753 0
M  V30 1398 O 204.629 7.27073 4.86816 0
M  V30 1399 C 205.119 6.5273 2.63741 0
M  V30 1400 C 204.409 5.1842 2.73198 0
M  V30 1401 N 204.459 4.38762 1.4784 0
M  V30 1402 C 204.379 4.81605 0.168631 0
M  V30 1403 N 204.459 3.85454 -0.713363 0
M  V30 1404 C 204.599 2.6994 0.0566958 0
M  V30 1405 C 204.729 1.34815 -0.338502 0
M  V30 1406 O 204.749 0.869548 -1.47125 0
M  V30 1407 N 204.849 0.496304 0.77465 0
M  V30 1408 C 204.849 0.908403 2.09122 0
M  V30 1409 N 204.979 -0.0517805 3.00955 0
M  V30 1410 N 204.719 2.17875 2.46519 0
M  V30 1411 C 204.599 3.01988 1.4033 0
M  V30 1412 H 201.62 8.36803 2.32493 0
M  V30 1413 H 201.35 6.70197 1.71129 0
M  V30 1414 H 202.217 7.03551 4.13168 0
M  V30 1415 H 204.872 4.59498 3.54415 0
M  V30 1416 H 205.151 6.88898 1.59848 0
M  V30 1417 H 206.143 6.46749 3.03687 0
M  V30 1418 H 204.309 8.46908 3.20714 0
M  V30 1419 H 204.26 5.86405 -0.105564 0
M  V30 1420 H 204.942 -0.483664 0.597855 0
M  V30 1421 H 204.979 0.187865 4.0116 0
M  V30 1422 H 205.08 -1.03585 2.71726 0
M  V30 1423 P 206.179 7.20834 5.23717 0
M  V30 1424 O 206.399 7.79853 6.57286 0
M  V30 1425 O 206.969 7.79239 4.12957 0
M  V30 1426 O 206.429 5.63315 5.29344 0
M  V30 1427 C 205.489 4.80255 6.01876 0
M  V30 1428 C 206.219 3.64202 6.65911 0
M  V30 1429 O 206.429 2.60694 5.64732 0
M  V30 1430 C 207.619 3.93473 7.1943 0
M  V30 1431 O 208.009 3.02071 8.21205 0
M  V30 1432 C 208.499 3.73047 5.97036 0
M  V30 1433 C 207.789 2.58828 5.25741 0
M  V30 1434 N 207.839 2.68068 3.77503 0
M  V30 1435 H 205 5.40332 6.79951 0
M  V30 1436 H 204.73 4.41613 5.32378 0
M  V30 1437 H 205.597 3.26331 7.47797 0
M  V30 1438 P 209.559 2.75334 8.47391 0
M  V30 1439 O 209.779 2.44619 9.90336 0
M  V30 1440 O 210.349 3.87776 7.92294 0
M  V30 1441 O 209.809 1.4459 7.59357 0
M  V30 1442 C 208.869 0.347653 7.69315 0
M  V30 1443 C 209.599 -0.96767 7.52806 0
M  V30 1444 O 209.809 -1.21055 6.10208 0
M  V30 1445 C 210.999 -1.04557 8.13408 0
M  V30 1446 O 211.389 -2.38311 8.41922 0
M  V30 1447 C 211.879 -0.491279 7.02284 0
M  V30 1448 C 211.169 -0.996264 5.77469 0
M  V30 1449 N 211.219 -0.0501916 4.62973 0
M  V30 1450 C 211.139 1.31969 4.65661 0
M  V30 1451 N 211.209 1.86649 3.48119 0
M  V30 1452 C 211.359 0.792089 2.62406 0
M  V30 1453 C 211.489 0.705684 1.2207 0
M  V30 1454 N 211.499 1.76207 0.413762 0
M  V30 1455 N 211.609 -0.518981 0.685754 0
M  V30 1456 C 211.599 -1.57595 1.49174 0
M  V30 1457 N 211.479 -1.62909 2.80066 0
M  V30 1458 C 211.359 -0.388195 3.3073 0
M  V30 1459 H 208.381 0.374765 8.67791 0
M  V30 1460 H 208.109 0.443613 6.90476 0
M  V30 1461 H 208.977 -1.75559 7.96891 0
M  V30 1462 H 211.632 -1.94563 5.46818 0
M  V30 1463 H 211.912 0.608651 7.04676 0
M  V30 1464 H 212.903 -0.889796 7.09039 0
M  V30 1465 H 211.069 -0.433128 9.04664 0
M  V30 1466 H 211.028 1.89246 5.57664 0
M  V30 1467 H 211.409 2.71005 0.804694 0
M  V30 1468 H 211.598 1.63189 -0.603768 0
M  V30 1469 H 211.706 -2.53475 0.997614 0
M  V30 1470 P 212.939 -2.75334 8.47391 0
M  V30 1471 O 213.159 -3.84128 9.44797 0
M  V30 1472 O 213.729 -1.51947 8.68712 0
M  V30 1473 O 213.189 -3.29363 6.99321 0
M  V30 1474 C 212.249 -4.24011 6.4274 0
M  V30 1475 C 212.979 -5.20775 5.52155 0
M  V30 1476 O 213.189 -4.56534 4.22446 0
M  V30 1477 C 214.379 -5.62629 5.96531 0
M  V30 1478 O 214.769 -6.87667 5.41053 0
M  V30 1479 C 215.259 -4.52537 5.39283 0
M  V30 1480 C 214.549 -4.20027 4.08623 0
M  V30 1481 N 214.599 -2.76189 3.71603 0
M  V30 1482 H 211.76 -4.797 7.24003 0
M  V30 1483 H 211.49 -3.69856 5.84513 0
M  V30 1484 H 212.357 -6.10356 5.41441 0
M  V30 1485 P 216.319 -7.20834 5.23717 0
M  V30 1486 O 216.539 -8.66104 5.38572 0
M  V30 1487 O 217.109 -6.33544 6.1349 0
M  V30 1488 O 216.569 -6.7751 3.72168 0
M  V30 1489 C 215.629 -7.20825 2.7076 0
M  V30 1490 C 216.359 -7.45864 1.40599 0
M  V30 1491 O 216.569 -6.17651 0.734225 0
M  V30 1492 C 217.759 -8.05808 1.51899 0
M  V30 1493 O 218.149 -8.74358 0.335205 0
M  V30 1494 C 218.639 -6.83093 1.70294 0
M  V30 1495 C 217.929 -5.79992 0.836974 0
M  V30 1496 N 217.979 -4.41864 1.38293 0
M  V30 1497 C 217.899 -3.99538 2.69438 0
M  V30 1498 N 217.979 -2.69909 2.84277 0
M  V30 1499 C 218.119 -2.21719 1.5408 0
M  V30 1500 C 218.249 -0.891712 1.06628 0
M  V30 1501 N 218.369 -0.856846 -0.334985 0
M  V30 1502 C 218.369 -1.9641 -1.15789 0
M  V30 1503 N 218.499 -1.72708 -2.46522 0
M  V30 1504 N 218.239 -3.21165 -0.713741 0
M  V30 1505 C 218.119 -3.26797 0.639748 0
M  V30 1506 H 215.14 -8.13644 3.0377 0
M  V30 1507 H 214.87 -6.42788 2.55485 0
M  V30 1508 H 215.737 -8.12039 0.792769 0
M  V30 1509 P 219.699 -8.91 -3.97326e-13 0
M  V30 1510 O 219.919 -10.1746 -0.733838 0
M  V30 1511 O 220.489 -8.73346 1.23964 0
M  V30 1512 O 219.949 -7.66872 -0.971405 0
M  V30 1513 C 219.009 -7.42405 -2.04668 0
M  V30 1514 C 219.739 -6.86059 -3.24661 0
M  V30 1515 O 219.949 -5.42934 -3.03695 0
M  V30 1516 C 221.139 -7.41287 -3.50796 0
M  V30 1517 O 221.529 -7.27073 -4.86816 0
M  V30 1518 C 222.019 -6.5273 -2.63741 0
M  V30 1519 C 221.309 -5.1842 -2.73198 0
M  V30 1520 N 221.359 -4.38762 -1.4784 0
M  V30 1521 H 218.521 -8.36899 -2.3252 0
M  V30 1522 H 218.249 -6.70391 -1.71179 0
M  V30 1523 H 219.117 -7.03638 -4.13219 0
M  V30 1524 H 221.772 -4.59931 -3.54016 0
M  V30 1525 H 222.052 -6.88995 -1.59871 0
M  V30 1526 H 223.043 -6.4684 -3.0373 0
M  V30 1527 H 221.209 -8.47002 -3.20749 0
M  V30 1528 P 223.079 -7.20834 -5.23717 0
M  V30 1529 O 223.299 -7.7993 -6.57351 0
M  V30 1530 O 223.869 -7.79328 -4.13004 0
M  V30 1531 O 223.329 -5.63315 -5.29344 0
M  V30 1532 C 222.389 -4.80193 -6.01798 0
M  V30 1533 C 223.119 -3.64202 -6.65911 0
M  V30 1534 O 223.329 -2.60694 -5.64732 0
M  V30 1535 C 224.519 -3.93473 -7.1943 0
M  V30 1536 O 224.909 -3.02071 -8.21205 0
M  V30 1537 C 225.399 -3.73047 -5.97036 0
M  V30 1538 C 224.689 -2.58828 -5.25741 0
M  V30 1539 N 224.739 -2.6801 -3.77422 0
M  V30 1540 C 224.889 -1.50443 -3.07133 0
M  V30 1541 O 224.979 -0.419406 -3.61576 0
M  V30 1542 N 224.929 -1.6403 -1.69677 0
M  V30 1543 C 224.839 -2.81206 -0.986255 0
M  V30 1544 O 224.889 -2.80892 0.249754 0
M  V30 1545 C 224.689 -3.99158 -1.80325 0
M  V30 1546 C 224.579 -5.29309 -1.06921 0
M  V30 1547 C 224.639 -3.89779 -3.1476 0
M  V30 1548 H 221.899 -5.40332 -6.79951 0
M  V30 1549 H 221.63 -4.41549 -5.32301 0
M  V30 1550 H 222.497 -3.26331 -7.47797 0
M  V30 1551 H 225.152 -1.6395 -5.56554 0
M  V30 1552 H 225.431 -4.63439 -5.3432 0
M  V30 1553 H 226.423 -3.44728 -6.25838 0
M  V30 1554 H 224.589 -4.96652 -7.57263 0
M  V30 1555 H 224.518 -4.80159 -3.74441 0
M  V30 1556 H 225.548 -5.81459 -1.09608 0
M  V30 1557 H 223.811 -5.9187 -1.54487 0
M  V30 1558 H 224.299 -5.10095 -0.0220288 0
M  V30 1559 H 225.035 -0.798962 -1.16664 0
M  V30 1560 P 226.459 -2.75334 -8.47391 0
M  V30 1561 O 226.679 -2.44595 -9.90239 0
M  V30 1562 O 227.249 -3.87732 -7.92204 0
M  V30 1563 O 226.709 -1.4459 -7.59357 0
M  V30 1564 C 225.769 -0.347563 -7.69115 0
M  V30 1565 C 226.499 0.96767 -7.52806 0
M  V30 1566 O 226.709 1.21036 -6.1011 0
M  V30 1567 C 227.899 1.04544 -8.13308 0
M  V30 1568 O 228.289 2.38311 -8.41922 0
M  V30 1569 C 228.779 0.491279 -7.02284 0
M  V30 1570 C 228.069 0.996264 -5.77469 0
M  V30 1571 N 228.119 0.0501808 -4.62873 0
M  V30 1572 C 228.269 0.588177 -3.36904 0
M  V30 1573 O 228.359 1.78598 -3.17173 0
M  V30 1574 N 228.309 -0.329694 -2.33686 0
M  V30 1575 C 228.219 -1.6953 -2.45079 0
M  V30 1576 C 228.069 -2.16933 -3.80505 0
M  V30 1577 C 228.019 -1.30326 -4.83752 0
M  V30 1578 H 225.279 -0.374722 -8.67691 0
M  V30 1579 H 225.01 -0.443421 -6.90177 0
M  V30 1580 H 225.877 1.75537 -7.96793 0
M  V30 1581 H 228.532 1.94496 -5.46629 0
M  V30 1582 H 228.811 -0.608651 -7.04676 0
M  V30 1583 H 229.803 0.889672 -7.08939 0
M  V30 1584 H 227.969 0.43308 -9.04564 0
M  V30 1585 H 227.898 -1.68366 -5.8516 0
M  V30 1586 P 229.839 2.75334 -8.47391 0
M  V30 1587 O 230.059 3.84166 -9.4489 0
M  V30 1588 O 230.629 1.51964 -8.6881 0
M  V30 1589 O 230.089 3.29363 -6.99321 0
M  V30 1590 C 229.149 4.23956 -6.42656 0
M  V30 1591 C 229.879 5.20775 -5.52155 0
M  V30 1592 O 230.089 4.56534 -4.22446 0
M  V30 1593 C 231.279 5.62629 -5.96531 0
M  V30 1594 O 231.669 6.87667 -5.41053 0
M  V30 1595 C 232.159 4.52537 -5.39283 0
M  V30 1596 C 231.449 4.20027 -4.08623 0
M  V30 1597 N 231.499 2.7613 -3.71522 0
M  V30 1598 C 231.649 2.45612 -2.37989 0
M  V30 1599 O 231.739 3.30919 -1.51621 0
M  V30 1600 N 231.689 1.10684 -2.08435 0
M  V30 1601 C 231.599 0.0690084 -2.9792 0
M  V30 1602 C 231.449 0.481522 -4.35345 0
M  V30 1603 C 231.399 1.78906 -4.67968 0
M  V30 1604 H 228.659 4.797 -7.24003 0
M  V30 1605 H 228.39 3.69802 -5.84429 0
M  V30 1606 H 229.257 6.10356 -5.41441 0
M  V30 1607 H 231.912 4.78651 -3.27911 0
M  V30 1608 H 232.191 3.64957 -6.05871 0
M  V30 1609 H 233.183 4.8868 -5.2125 0
M  V30 1610 H 231.349 5.66726 -7.06352 0
M  V30 1611 H 231.278 2.07737 -5.72367 0
M  V30 1612 P 233.219 7.20834 -5.23717 0
M  V30 1613 O 233.439 8.66104 -5.38572 0
M  V30 1614 O 234.009 6.33544 -6.1349 0
M  V30 1615 O 233.469 6.7751 -3.72168 0
M  V30 1616 C 232.529 7.20825 -2.7076 0
M  V30 1617 C 233.259 7.45864 -1.40599 0
M  V30 1618 O 233.469 6.17651 -0.734225 0
M  V30 1619 C 234.659 8.05808 -1.51899 0
M  V30 1620 O 235.049 8.74358 -0.335205 0
M  V30 1621 C 235.539 6.83093 -1.70294 0
M  V30 1622 C 234.829 5.79992 -0.836974 0
M  V30 1623 N 234.879 4.41864 -1.38293 0
M  V30 1624 H 232.04 8.13644 -3.0377 0
M  V30 1625 H 231.77 6.42788 -2.55485 0
M  V30 1626 H 232.637 8.12039 -0.792769 0
M  V30 1627 P 236.599 8.91 5.54508e-13 0
M  V30 1628 O 236.819 10.1726 0.733694 0
M  V30 1629 O 237.389 8.73148 -1.23936 0
M  V30 1630 O 236.849 7.66872 0.971405 0
M  V30 1631 C 235.909 7.42309 2.04641 0
M  V30 1632 C 236.639 6.86059 3.24661 0
M  V30 1633 O 236.849 5.42847 3.03646 0
M  V30 1634 C 238.039 7.41196 3.50753 0
M  V30 1635 O 238.429 7.27073 4.86816 0
M  V30 1636 C 238.919 6.5273 2.63741 0
M  V30 1637 C 238.209 5.1842 2.73198 0
M  V30 1638 N 238.259 4.38762 1.4784 0
M  V30 1639 H 235.42 8.36803 2.32493 0
M  V30 1640 H 235.15 6.70197 1.71129 0
M  V30 1641 H 236.017 7.03551 4.13168 0
M  V30 1642 P 239.979 7.20834 5.23717 0
M  V30 1643 O 240.199 7.7993 6.57351 0
M  V30 1644 O 240.769 7.79328 4.13004 0
M  V30 1645 O 240.229 5.63315 5.29344 0
M  V30 1646 C 239.289 4.80255 6.01876 0
M  V30 1647 C 240.019 3.64202 6.65911 0
M  V30 1648 O 240.229 2.60694 5.64732 0
M  V30 1649 C 241.419 3.93473 7.1943 0
M  V30 1650 O 241.809 3.02071 8.21205 0
M  V30 1651 C 242.299 3.73047 5.97036 0
M  V30 1652 C 241.589 2.58828 5.25741 0
M  V30 1653 N 241.639 2.6801 3.77422 0
M  V30 1654 C 241.789 1.50173 3.05038 0
M  V30 1655 O 241.879 0.428832 3.665 0
M  V30 1656 N 241.839 1.70922 1.55541 0
M  V30 1657 C 241.739 2.7407 1.06402 0
M  V30 1658 N 241.789 2.74764 -0.260931 0
M  V30 1659 C 241.589 3.96781 1.78296 0
M  V30 1660 C 241.539 3.87909 3.13891 0
M  V30 1661 H 238.799 5.4027 6.79873 0
M  V30 1662 H 238.53 4.41549 5.32301 0
M  V30 1663 H 239.397 3.26371 7.47889 0
M  V30 1664 H 242.052 1.63978 5.5665 0
M  V30 1665 H 242.331 4.63439 5.3432 0
M  V30 1666 H 243.323 3.44728 6.25838 0
M  V30 1667 H 241.489 4.96652 7.57263 0
M  V30 1668 H 241.417 4.78425 3.73088 0
M  V30 1669 H 241.519 4.92593 1.26997 0
M  V30 1670 H 241.907 1.86285 -0.77595 0
M  V30 1671 H 241.71 3.63657 -0.773896 0
M  V30 1672 P 243.359 2.75334 8.47391 0
M  V30 1673 O 243.579 2.44571 9.90142 0
M  V30 1674 O 244.149 3.87688 7.92115 0
M  V30 1675 O 243.609 1.4459 7.59357 0
M  V30 1676 C 242.669 0.347608 7.69215 0
M  V30 1677 C 243.399 -0.96767 7.52806 0
M  V30 1678 O 243.609 -1.21036 6.1011 0
M  V30 1679 C 244.799 -1.04544 8.13308 0
M  V30 1680 O 245.189 -2.38311 8.41922 0
M  V30 1681 C 245.679 -0.491279 7.02284 0
M  V30 1682 C 244.969 -0.996264 5.77469 0
M  V30 1683 N 245.019 -0.0501916 4.62973 0
M  V30 1684 H 242.18 0.374722 8.67691 0
M  V30 1685 H 241.91 0.443485 6.90277 0
M  V30 1686 H 242.777 -1.75537 7.96793 0
M  V30 1687 P 246.739 -2.75334 8.47391 0
M  V30 1688 O 246.959 -3.84128 9.44797 0
M  V30 1689 O 247.529 -1.51947 8.68712 0
M  V30 1690 O 246.989 -3.29363 6.99321 0
M  V30 1691 C 246.049 -4.24011 6.4274 0
M  V30 1692 C 246.779 -5.20775 5.52155 0
M  V30 1693 O 246.989 -4.56534 4.22446 0
M  V30 1694 C 248.179 -5.62629 5.96531 0
M  V30 1695 O 248.569 -6.87667 5.41053 0
M  V30 1696 C 249.059 -4.52537 5.39283 0
M  V30 1697 C 248.349 -4.20027 4.08623 0
M  V30 1698 N 248.399 -2.76189 3.71603 0
M  V30 1699 H 245.56 -4.797 7.24003 0
M  V30 1700 H 245.29 -3.69856 5.84513 0
M  V30 1701 H 246.157 -6.10356 5.41441 0
M  V30 1702 P 250.119 -7.20834 5.23717 0
M  V30 1703 O 250.339 -8.66104 5.38572 0
M  V30 1704 O 250.909 -6.33544 6.1349 0
M  V30 1705 O 250.369 -6.7751 3.72168 0
M  V30 1706 C 249.429 -7.20825 2.7076 0
M  V30 1707 C 250.159 -7.45864 1.40599 0
M  V30 1708 O 250.369 -6.17651 0.734225 0
M  V30 1709 C 251.559 -8.05808 1.51899 0
M  V30 1710 O 251.949 -8.74358 0.335205 0
M  V30 1711 C 252.439 -6.83093 1.70294 0
M  V30 1712 C 251.729 -5.79992 0.836974 0
M  V30 1713 N 251.779 -4.41864 1.38293 0
M  V30 1714 H 248.94 -8.13644 3.0377 0
M  V30 1715 H 248.67 -6.42788 2.55485 0
M  V30 1716 H 249.537 -8.12039 0.792769 0
M  V30 1717 P 253.498 -8.91 -7.1169e-13 0
M  V30 1718 O 253.718 -10.1726 -0.733694 0
M  V30 1719 O 254.288 -8.73148 1.23936 0
M  V30 1720 O 253.748 -7.66872 -0.971405 0
M  V30 1721 C 252.808 -7.42309 -2.04641 0
M  V30 1722 C 253.538 -6.86059 -3.24661 0
M  V30 1723 O 253.748 -5.42847 -3.03646 0
M  V30 1724 C 254.938 -7.41196 -3.50753 0
M  V30 1725 O 255.328 -7.27073 -4.86816 0
M  V30 1726 C 255.818 -6.5273 -2.63741 0
M  V30 1727 C 255.108 -5.1842 -2.73198 0
M  V30 1728 N 255.158 -4.38762 -1.4784 0
M  V30 1729 C 255.078 -4.81605 -0.168631 0
M  V30 1730 N 255.158 -3.85454 0.713363 0
M  V30 1731 C 255.298 -2.6994 -0.0566958 0
M  V30 1732 C 255.428 -1.34815 0.338502 0
M  V30 1733 N 255.548 -0.496304 -0.77465 0
M  V30 1734 C 255.548 -0.908403 -2.09122 0
M  V30 1735 N 255.678 0.0517805 -3.00955 0
M  V30 1736 N 255.418 -2.17875 -2.46519 0
M  V30 1737 C 255.298 -3.01988 -1.4033 0
M  V30 1738 H 252.319 -8.36803 -2.32493 0
M  V30 1739 H 252.049 -6.70197 -1.71129 0
M  V30 1740 H 252.916 -7.03551 -4.13168 0
M  V30 1741 P 256.878 -7.20834 -5.23717 0
M  V30 1742 O 257.098 -7.79853 -6.57286 0
M  V30 1743 O 257.668 -7.79239 -4.12957 0
M  V30 1744 O 257.128 -5.63315 -5.29344 0
M  V30 1745 C 256.188 -4.80255 -6.01876 0
M  V30 1746 C 256.918 -3.64202 -6.65911 0
M  V30 1747 O 257.128 -2.60694 -5.64732 0
M  V30 1748 C 258.318 -3.93473 -7.1943 0
M  V30 1749 O 258.708 -3.02071 -8.21205 0
M  V30 1750 C 259.198 -3.73047 -5.97036 0
M  V30 1751 C 258.488 -2.58828 -5.25741 0
M  V30 1752 N 258.538 -2.68068 -3.77503 0
M  V30 1753 H 255.699 -5.40332 -6.79951 0
M  V30 1754 H 255.429 -4.41613 -5.32378 0
M  V30 1755 H 256.296 -3.26331 -7.47797 0
M  V30 1756 P 260.258 -2.75334 -8.47391 0
M  V30 1757 O 260.478 -2.44571 -9.90142 0
M  V30 1758 O 261.048 -3.87688 -7.92115 0
M  V30 1759 O 260.508 -1.4459 -7.59357 0
M  V30 1760 C 259.568 -0.347608 -7.69215 0
M  V30 1761 C 260.298 0.96767 -7.52806 0
M  V30 1762 O 260.508 1.21036 -6.1011 0
M  V30 1763 C 261.698 1.04544 -8.13308 0
M  V30 1764 O 262.088 2.38311 -8.41922 0
M  V30 1765 C 262.578 0.491279 -7.02284 0
M  V30 1766 C 261.868 0.996264 -5.77469 0
M  V30 1767 N 261.918 0.0501916 -4.62973 0
M  V30 1768 H 259.079 -0.374722 -8.67691 0
M  V30 1769 H 258.809 -0.443485 -6.90277 0
M  V30 1770 H 259.676 1.75537 -7.96793 0
M  V30 1771 P 263.638 2.75334 -8.47391 0
M  V30 1772 O 263.858 3.84204 -9.44982 0
M  V30 1773 O 264.428 1.51982 -8.68909 0
M  V30 1774 O 263.888 3.29363 -6.99321 0
M  V30 1775 C 262.948 4.24066 -6.42823 0
M  V30 1776 C 263.678 5.20775 -5.52155 0
M  V30 1777 O 263.888 4.56607 -4.22514 0
M  V30 1778 C 265.078 5.62697 -5.96604 0
M  V30 1779 O 265.468 6.87667 -5.41053 0
M  V30 1780 C 265.958 4.52537 -5.39283 0
M  V30 1781 C 265.248 4.20027 -4.08623 0
M  V30 1782 N 265.298 2.76189 -3.71603 0
M  V30 1783 C 265.218 1.66944 -4.54297 0
M  V30 1784 N 265.288 0.536169 -3.91344 0
M  V30 1785 C 265.438 0.901569 -2.58849 0
M  V30 1786 C 265.568 0.146599 -1.40236 0
M  V30 1787 N 265.578 -1.18234 -1.37046 0
M  V30 1788 N 265.688 0.822941 -0.249738 0
M  V30 1789 C 265.678 2.15179 -0.280525 0
M  V30 1790 N 265.558 2.96414 -1.30822 0
M  V30 1791 C 265.438 2.25804 -2.44748 0
M  V30 1792 H 262.46 4.79756 -7.24086 0
M  V30 1793 H 262.188 3.69963 -5.84682 0
M  V30 1794 H 263.056 6.10431 -5.41508 0
M  V30 1795 H 265.711 4.78816 -3.28024 0
M  V30 1796 H 265.991 3.64957 -6.05871 0
M  V30 1797 H 266.982 4.88748 -5.21323 0
M  V30 1798 H 265.148 5.66789 -7.0643 0
M  V30 1799 H 265.107 1.74684 -5.62396 0
M  V30 1800 H 265.488 -1.71949 -2.24394 0
M  V30 1801 H 265.677 -1.67511 -0.470742 0
M  V30 1802 H 265.785 2.63704 0.6828 0
M  V30 1803 P 267.018 7.20834 -5.23717 0
M  V30 1804 O 267.238 8.66104 -5.38572 0
M  V30 1805 O 267.808 6.33544 -6.1349 0
M  V30 1806 O 267.268 6.7751 -3.72168 0
M  V30 1807 C 266.328 7.20825 -2.7076 0
M  V30 1808 C 267.058 7.45864 -1.40599 0
M  V30 1809 O 267.268 6.17651 -0.734225 0
M  V30 1810 C 268.458 8.05808 -1.51899 0
M  V30 1811 O 268.848 8.74358 -0.335205 0
M  V30 1812 C 269.338 6.83093 -1.70294 0
M  V30 1813 C 268.628 5.79992 -0.836974 0
M  V30 1814 N 268.678 4.41864 -1.38293 0
M  V30 1815 H 265.839 8.13644 -3.0377 0
M  V30 1816 H 265.569 6.42788 -2.55485 0
M  V30 1817 H 266.436 8.12039 -0.792769 0
M  V30 1818 P 270.398 8.91 8.68872e-13 0
M  V30 1819 O 270.618 10.1726 0.733694 0
M  V30 1820 O 271.188 8.73148 -1.23936 0
M  V30 1821 O 270.648 7.66872 0.971405 0
M  V30 1822 C 269.708 7.42309 2.04641 0
M  V30 1823 C 270.438 6.86059 3.24661 0
M  V30 1824 O 270.648 5.42847 3.03646 0
M  V30 1825 C 271.838 7.41196 3.50753 0
M  V30 1826 O 272.228 7.27073 4.86816 0
M  V30 1827 C 272.718 6.5273 2.63741 0
M  V30 1828 C 272.008 5.1842 2.73198 0
M  V30 1829 N 272.058 4.38762 1.4784 0
M  V30 1830 C 271.978 4.81605 0.168631 0
M  V30 1831 N 272.058 3.85454 -0.713363 0
M  V30 1832 C 272.198 2.6994 0.0566958 0
M  V30 1833 C 272.328 1.34815 -0.338502 0
M  V30 1834 N 272.448 0.496304 0.77465 0
M  V30 1835 C 272.448 0.908403 2.09122 0
M  V30 1836 N 272.578 -0.0517805 3.00955 0
M  V30 1837 N 272.318 2.17875 2.46519 0
M  V30 1838 C 272.198 3.01988 1.4033 0
M  V30 1839 H 269.219 8.36803 2.32493 0
M  V30 1840 H 268.949 6.70197 1.71129 0
M  V30 1841 H 269.816 7.03551 4.13168 0
M  V30 1842 P 273.778 7.20834 5.23717 0
M  V30 1843 O 273.998 7.79853 6.57286 0
M  V30 1844 O 274.568 7.79239 4.12957 0
M  V30 1845 O 274.028 5.63315 5.29344 0
M  V30 1846 C 273.088 4.80255 6.01876 0
M  V30 1847 C 273.818 3.64202 6.65911 0
M  V30 1848 O 274.028 2.60694 5.64732 0
M  V30 1849 C 275.218 3.93473 7.1943 0
M  V30 1850 O 275.608 3.02071 8.21205 0
M  V30 1851 C 276.098 3.73047 5.97036 0
M  V30 1852 C 275.388 2.58828 5.25741 0
M  V30 1853 N 275.438 2.68068 3.77503 0
M  V30 1854 H 272.599 5.40332 6.79951 0
M  V30 1855 H 272.329 4.41613 5.32378 0
M  V30 1856 H 273.196 3.26331 7.47797 0
M  V30 1857 P 277.158 2.75334 8.47391 0
M  V30 1858 O 277.378 2.44571 9.90142 0
M  V30 1859 O 277.948 3.87688 7.92115 0
M  V30 1860 O 277.408 1.4459 7.59357 0
M  V30 1861 C 276.468 0.347608 7.69215 0
M  V30 1862 C 277.198 -0.96767 7.52806 0
M  V30 1863 O 277.408 -1.21036 6.1011 0
M  V30 1864 C 278.598 -1.04544 8.13308 0
M  V30 1865 O 278.988 -2.38311 8.41922 0
M  V30 1866 C 279.478 -0.491279 7.02284 0
M  V30 1867 C 278.768 -0.996264 5.77469 0
M  V30 1868 N 278.818 -0.0501916 4.62973 0
M  V30 1869 H 275.979 0.374722 8.67691 0
M  V30 1870 H 275.709 0.443485 6.90277 0
M  V30 1871 H 276.576 -1.75537 7.96793 0
M  V30 1872 P 280.538 -2.75334 8.47391 0
M  V30 1873 O 280.758 -3.84128 9.44797 0
M  V30 1874 O 281.328 -1.51947 8.68712 0
M  V30 1875 O 280.788 -3.29363 6.99321 0
M  V30 1876 C 279.848 -4.24011 6.4274 0
M  V30 1877 C 280.578 -5.20775 5.52155 0
M  V30 1878 O 280.788 -4.56534 4.22446 0
M  V30 1879 C 281.978 -5.62629 5.96531 0
M  V30 1880 O 282.368 -6.87667 5.41053 0
M  V30 1881 C 282.858 -4.52537 5.39283 0
M  V30 1882 C 282.148 -4.20027 4.08623 0
M  V30 1883 N 282.198 -2.76189 3.71603 0
M  V30 1884 H 279.359 -4.797 7.24003 0
M  V30 1885 H 279.089 -3.69856 5.84513 0
M  V30 1886 H 279.956 -6.10356 5.41441 0
M  V30 1887 P 283.918 -7.20834 5.23717 0
M  V30 1888 O 284.138 -8.66104 5.38572 0
M  V30 1889 O 284.708 -6.33544 6.1349 0
M  V30 1890 O 284.168 -6.7751 3.72168 0
M  V30 1891 C 283.228 -7.20825 2.7076 0
M  V30 1892 C 283.958 -7.45864 1.40599 0
M  V30 1893 O 284.168 -6.17651 0.734225 0
M  V30 1894 C 285.358 -8.05808 1.51899 0
M  V30 1895 O 285.748 -8.74358 0.335205 0
M  V30 1896 C 286.238 -6.83093 1.70294 0
M  V30 1897 C 285.528 -5.79992 0.836974 0
M  V30 1898 N 285.578 -4.41864 1.38293 0
M  V30 1899 H 282.739 -8.13644 3.0377 0
M  V30 1900 H 282.469 -6.42788 2.55485 0
M  V30 1901 H 283.336 -8.12039 0.792769 0
M  V30 1902 P 287.298 -8.91 -1.02605e-12 0
M  V30 1903 O 287.518 -10.1726 -0.733694 0
M  V30 1904 O 288.088 -8.73148 1.23936 0
M  V30 1905 O 287.548 -7.66872 -0.971405 0
M  V30 1906 C 286.608 -7.42309 -2.04641 0
M  V30 1907 C 287.338 -6.86059 -3.24661 0
M  V30 1908 O 287.548 -5.42847 -3.03646 0
M  V30 1909 C 288.738 -7.41196 -3.50753 0
M  V30 1910 O 289.128 -7.27073 -4.86816 0
M  V30 1911 C 289.618 -6.5273 -2.63741 0
M  V30 1912 C 288.908 -5.1842 -2.73198 0
M  V30 1913 N 288.958 -4.38762 -1.4784 0
M  V30 1914 H 286.119 -8.36803 -2.32493 0
M  V30 1915 H 285.849 -6.70197 -1.71129 0
M  V30 1916 H 286.716 -7.03551 -4.13168 0
M  V30 1917 P 290.678 -7.20834 -5.23717 0
M  V30 1918 O 290.898 -7.80006 -6.57415 0
M  V30 1919 O 291.468 -7.79416 -4.13051 0
M  V30 1920 O 290.928 -5.63315 -5.29344 0
M  V30 1921 C 289.988 -4.80318 -6.01954 0
M  V30 1922 C 290.718 -3.64202 -6.65911 0
M  V30 1923 O 290.928 -2.60736 -5.64823 0
M  V30 1924 C 292.118 -3.93521 -7.19518 0
M  V30 1925 O 292.508 -3.02071 -8.21205 0
M  V30 1926 C 292.998 -3.73047 -5.97036 0
M  V30 1927 C 292.288 -2.58828 -5.25741 0
M  V30 1928 N 292.338 -2.68068 -3.77503 0
M  V30 1929 C 292.258 -3.80474 -2.99159 0
M  V30 1930 N 292.328 -3.55622 -1.71925 0
M  V30 1931 C 292.478 -2.1832 -1.65733 0
M  V30 1932 C 292.608 -1.28842 -0.572777 0
M  V30 1933 N 292.618 -1.66875 0.70098 0
M  V30 1934 N 292.728 0.016788 -0.859836 0
M  V30 1935 C 292.718 0.398145 -2.13316 0
M  V30 1936 N 292.598 -0.328224 -3.22333 0
M  V30 1937 C 292.478 -1.62992 -2.90383 0
M  V30 1938 H 289.5 -5.40394 -6.8003 0
M  V30 1939 H 289.228 -4.41741 -5.32532 0
M  V30 1940 H 290.096 -3.26371 -7.47889 0
M  V30 1941 H 292.751 -1.64007 -5.56746 0
M  V30 1942 H 293.031 -4.63439 -5.3432 0
M  V30 1943 H 294.022 -3.44776 -6.25925 0
M  V30 1944 H 292.188 -4.96707 -7.57347 0
M  V30 1945 H 292.147 -4.8089 -3.39924 0
M  V30 1946 H 292.528 -2.66547 0.941919 0
M  V30 1947 H 292.717 -0.965341 1.44766 0
M  V30 1948 H 292.825 1.46427 -2.29697 0
M  V30 1949 P 294.058 -2.75334 -8.47391 0
M  V30 1950 O 294.278 -2.44571 -9.90142 0
M  V30 1951 O 294.848 -3.87688 -7.92115 0
M  V30 1952 O 294.308 -1.4459 -7.59357 0
M  V30 1953 C 293.368 -0.347608 -7.69215 0
M  V30 1954 C 294.098 0.96767 -7.52806 0
M  V30 1955 O 294.308 1.21036 -6.1011 0
M  V30 1956 C 295.498 1.04544 -8.13308 0
M  V30 1957 O 295.888 2.38311 -8.41922 0
M  V30 1958 C 296.378 0.491279 -7.02284 0
M  V30 1959 C 295.668 0.996264 -5.77469 0
M  V30 1960 N 295.718 0.0501916 -4.62973 0
M  V30 1961 H 292.879 -0.374722 -8.67691 0
M  V30 1962 H 292.609 -0.443485 -6.90277 0
M  V30 1963 H 293.476 1.75537 -7.96793 0
M  V30 1964 P 297.438 2.75334 -8.47391 0
M  V30 1965 O 297.658 3.84204 -9.44982 0
M  V30 1966 O 298.228 1.51982 -8.68909 0
M  V30 1967 O 297.688 3.29363 -6.99321 0
M  V30 1968 C 296.748 4.24066 -6.42823 0
M  V30 1969 C 297.478 5.20775 -5.52155 0
M  V30 1970 O 297.688 4.56607 -4.22514 0
M  V30 1971 C 298.878 5.62697 -5.96604 0
M  V30 1972 O 299.268 6.87667 -5.41053 0
M  V30 1973 C 299.758 4.52537 -5.39283 0
M  V30 1974 C 299.048 4.20027 -4.08623 0
M  V30 1975 N 299.098 2.76189 -3.71603 0
M  V30 1976 C 299.018 1.66944 -4.54297 0
M  V30 1977 N 299.088 0.536169 -3.91344 0
M  V30 1978 C 299.238 0.901569 -2.58849 0
M  V30 1979 C 299.368 0.146599 -1.40236 0
M  V30 1980 N 299.378 -1.18234 -1.37046 0
M  V30 1981 N 299.488 0.822941 -0.249738 0
M  V30 1982 C 299.478 2.15179 -0.280525 0
M  V30 1983 N 299.358 2.96414 -1.30822 0
M  V30 1984 C 299.238 2.25804 -2.44748 0
M  V30 1985 H 296.26 4.79756 -7.24086 0
M  V30 1986 H 295.988 3.69963 -5.84682 0
M  V30 1987 H 296.856 6.10431 -5.41508 0
M  V30 1988 H 299.511 4.78816 -3.28024 0
M  V30 1989 H 299.791 3.64957 -6.05871 0
M  V30 1990 H 300.782 4.88748 -5.21323 0
M  V30 1991 H 298.948 5.66789 -7.0643 0
M  V30 1992 H 298.907 1.74684 -5.62396 0
M  V30 1993 H 299.288 -1.71949 -2.24394 0
M  V30 1994 H 299.477 -1.67511 -0.470742 0
M  V30 1995 H 299.585 2.63704 0.6828 0
M  V30 1996 P 300.818 7.20834 -5.23717 0
M  V30 1997 O 301.038 8.66104 -5.38572 0
M  V30 1998 O 301.608 6.33544 -6.1349 0
M  V30 1999 O 301.068 6.7751 -3.72168 0
M  V30 2000 C 300.128 7.20825 -2.7076 0
M  V30 2001 C 300.858 7.45864 -1.40599 0
M  V30 2002 O 301.068 6.17651 -0.734225 0
M  V30 2003 C 302.258 8.05808 -1.51899 0
M  V30 2004 O 302.648 8.74358 -0.335205 0
M  V30 2005 C 303.138 6.83093 -1.70294 0
M  V30 2006 C 302.428 5.79992 -0.836974 0
M  V30 2007 N 302.478 4.41864 -1.38293 0
M  V30 2008 H 299.639 8.13644 -3.0377 0
M  V30 2009 H 299.369 6.42788 -2.55485 0
M  V30 2010 H 300.236 8.12039 -0.792769 0
M  V30 2011 P 304.198 8.91 1.18324e-12 0
M  V30 2012 O 304.418 10.1726 0.733694 0
M  V30 2013 O 304.988 8.73148 -1.23936 0
M  V30 2014 O 304.448 7.66872 0.971405 0
M  V30 2015 C 303.508 7.42309 2.04641 0
M  V30 2016 C 304.238 6.86059 3.24661 0
M  V30 2017 O 304.448 5.42847 3.03646 0
M  V30 2018 C 305.638 7.41196 3.50753 0
M  V30 2019 O 306.028 7.27073 4.86816 0
M  V30 2020 C 306.518 6.5273 2.63741 0
M  V30 2021 C 305.808 5.1842 2.73198 0
M  V30 2022 N 305.858 4.38762 1.4784 0
M  V30 2023 H 303.019 8.36803 2.32493 0
M  V30 2024 H 302.749 6.70197 1.71129 0
M  V30 2025 H 303.616 7.03551 4.13168 0
M  V30 2026 P 307.578 7.20834 5.23717 0
M  V30 2027 O 307.798 7.79853 6.57286 0
M  V30 2028 O 308.368 7.79239 4.12957 0
M  V30 2029 O 307.828 5.63315 5.29344 0
M  V30 2030 C 306.888 4.80255 6.01876 0
M  V30 2031 C 307.618 3.64202 6.65911 0
M  V30 2032 O 307.828 2.60694 5.64732 0
M  V30 2033 C 309.018 3.93473 7.1943 0
M  V30 2034 O 309.408 3.02071 8.21205 0
M  V30 2035 C 309.898 3.73047 5.97036 0
M  V30 2036 C 309.188 2.58828 5.25741 0
M  V30 2037 N 309.238 2.68068 3.77503 0
M  V30 2038 C 309.158 3.79715 2.96723 0
M  V30 2039 N 309.238 3.5377 1.68852 0
M  V30 2040 C 309.378 2.15054 1.63254 0
M  V30 2041 C 309.508 1.28964 0.518571 0
M  V30 2042 N 309.628 -0.0538097 0.918425 0
M  V30 2043 C 309.628 -0.494275 2.22578 0
M  V30 2044 N 309.758 -1.81086 2.40434 0
M  V30 2045 N 309.498 0.313645 3.27502 0
M  V30 2046 C 309.378 1.61829 2.91033 0
M  V30 2047 H 306.399 5.40332 6.79951 0
M  V30 2048 H 306.129 4.41613 5.32378 0
M  V30 2049 H 306.996 3.26331 7.47797 0
M  V30 2050 P 310.958 2.75334 8.47391 0
M  V30 2051 O 311.178 2.44595 9.90239 0
M  V30 2052 O 311.748 3.87732 7.92204 0
M  V30 2053 O 311.208 1.4459 7.59357 0
M  V30 2054 C 310.268 0.347563 7.69115 0
M  V30 2055 C 310.998 -0.96767 7.52806 0
M  V30 2056 O 311.208 -1.21036 6.1011 0
M  V30 2057 C 312.398 -1.04544 8.13308 0
M  V30 2058 O 312.788 -2.38311 8.41922 0
M  V30 2059 C 313.278 -0.491279 7.02284 0
M  V30 2060 C 312.568 -0.996264 5.77469 0
M  V30 2061 N 312.618 -0.0501808 4.62873 0
M  V30 2062 C 312.768 -0.588177 3.36904 0
M  V30 2063 O 312.858 -1.78598 3.17173 0
M  V30 2064 N 312.808 0.329694 2.33686 0
M  V30 2065 C 312.718 1.6953 2.45079 0
M  V30 2066 O 312.768 2.41926 1.44899 0
M  V30 2067 C 312.568 2.16933 3.80505 0
M  V30 2068 C 312.458 3.65373 3.97621 0
M  V30 2069 C 312.518 1.30326 4.83752 0
M  V30 2070 H 309.778 0.374722 8.67691 0
M  V30 2071 H 309.509 0.443421 6.90177 0
M  V30 2072 H 310.376 -1.75537 7.96793 0
M  V30 2073 H 313.031 -1.94496 5.46629 0
M  V30 2074 H 313.31 0.608651 7.04676 0
M  V30 2075 H 314.302 -0.889672 7.08939 0
M  V30 2076 H 312.468 -0.43308 9.04564 0
M  V30 2077 H 312.397 1.68366 5.8516 0
M  V30 2078 H 313.427 4.05985 4.30448 0
M  V30 2079 H 311.69 3.88028 4.72875 0
M  V30 2080 H 312.178 4.11381 3.01609 0
M  V30 2081 H 312.914 -0.0393617 1.41345 0
M  V30 2082 P 314.338 -2.75334 8.47391 0
M  V30 2083 O 314.558 -3.84128 9.44797 0
M  V30 2084 O 315.128 -1.51947 8.68712 0
M  V30 2085 O 314.588 -3.29363 6.99321 0
M  V30 2086 C 313.648 -4.24011 6.4274 0
M  V30 2087 C 314.378 -5.20775 5.52155 0
M  V30 2088 O 314.588 -4.56534 4.22446 0
M  V30 2089 C 315.778 -5.62629 5.96531 0
M  V30 2090 O 316.168 -6.87667 5.41053 0
M  V30 2091 C 316.658 -4.52537 5.39283 0
M  V30 2092 C 315.948 -4.20027 4.08623 0
M  V30 2093 N 315.998 -2.76189 3.71603 0
M  V30 2094 C 315.918 -1.64862 4.52822 0
M  V30 2095 N 315.998 -0.512671 3.88633 0
M  V30 2096 C 316.138 -0.888083 2.54977 0
M  V30 2097 C 316.268 -0.094668 1.38677 0
M  V30 2098 O 316.288 1.13053 1.28163 0
M  V30 2099 N 316.388 -0.890102 0.232633 0
M  V30 2100 C 316.388 -2.26958 0.21772 0
M  V30 2101 N 316.518 -2.84626 -0.97925 0
M  V30 2102 N 316.258 -3.0178 1.31033 0
M  V30 2103 C 316.138 -2.26781 2.43843 0
M  V30 2104 H 313.159 -4.797 7.24003 0
M  V30 2105 H 312.889 -3.69856 5.84513 0
M  V30 2106 H 313.756 -6.10356 5.41441 0
M  V30 2107 H 316.411 -4.79061 3.27488 0
M  V30 2108 H 316.69 -3.64906 6.05785 0
M  V30 2109 H 317.682 -4.8868 5.2125 0
M  V30 2110 H 315.848 -5.66726 7.06352 0
M  V30 2111 H 315.799 -1.71169 5.60966 0
M  V30 2112 H 316.481 -0.419134 -0.644739 0
M  V30 2113 H 316.518 -3.87332 -1.06098 0
M  V30 2114 H 316.619 -2.26417 -1.82483 0
M  V30 2115 P 317.718 -7.20834 5.23717 0
M  V30 2116 O 317.938 -8.66104 5.38572 0
M  V30 2117 O 318.508 -6.33544 6.1349 0
M  V30 2118 O 317.968 -6.7751 3.72168 0
M  V30 2119 C 317.028 -7.20825 2.7076 0
M  V30 2120 C 317.758 -7.45864 1.40599 0
M  V30 2121 O 317.968 -6.17651 0.734225 0
M  V30 2122 C 319.158 -8.05808 1.51899 0
M  V30 2123 O 319.548 -8.74358 0.335205 0
M  V30 2124 C 320.038 -6.83093 1.70294 0
M  V30 2125 C 319.328 -5.79992 0.836974 0
M  V30 2126 N 319.378 -4.41864 1.38293 0
M  V30 2127 H 316.539 -8.13644 3.0377 0
M  V30 2128 H 316.269 -6.42788 2.55485 0
M  V30 2129 H 317.136 -8.12039 0.792769 0
M  V30 2130 P 321.098 -8.91 -1.34042e-12 0
M  V30 2131 O 321.318 -10.1746 -0.733838 0
M  V30 2132 O 321.888 -8.73346 1.23964 0
M  V30 2133 O 321.348 -7.66872 -0.971405 0
M  V30 2134 C 320.408 -7.42405 -2.04668 0
M  V30 2135 C 321.138 -6.86059 -3.24661 0
M  V30 2136 O 321.348 -5.42934 -3.03695 0
M  V30 2137 C 322.538 -7.41287 -3.50796 0
M  V30 2138 O 322.928 -7.27073 -4.86816 0
M  V30 2139 C 323.418 -6.5273 -2.63741 0
M  V30 2140 C 322.708 -5.1842 -2.73198 0
M  V30 2141 N 322.758 -4.38762 -1.4784 0
M  V30 2142 H 319.92 -8.36899 -2.3252 0
M  V30 2143 H 319.648 -6.70391 -1.71179 0
M  V30 2144 H 320.516 -7.03638 -4.13219 0
M  V30 2145 H 323.171 -4.59931 -3.54016 0
M  V30 2146 H 323.451 -6.88995 -1.59871 0
M  V30 2147 H 324.442 -6.4684 -3.0373 0
M  V30 2148 H 322.608 -8.47002 -3.20749 0
M  V30 2149 P 324.478 -7.20834 -5.23717 0
M  V30 2150 O 324.698 -7.79853 -6.57286 0
M  V30 2151 O 325.268 -7.79239 -4.12957 0
M  V30 2152 O 324.728 -5.63315 -5.29344 0
M  V30 2153 C 323.788 -4.80255 -6.01876 0
M  V30 2154 C 324.518 -3.64202 -6.65911 0
M  V30 2155 O 324.728 -2.60694 -5.64732 0
M  V30 2156 C 325.918 -3.93473 -7.1943 0
M  V30 2157 O 326.308 -3.02071 -8.21205 0
M  V30 2158 C 326.798 -3.73047 -5.97036 0
M  V30 2159 C 326.088 -2.58828 -5.25741 0
M  V30 2160 N 326.138 -2.68068 -3.77503 0
M  V30 2161 H 323.299 -5.40332 -6.79951 0
M  V30 2162 H 323.029 -4.41613 -5.32378 0
M  V30 2163 H 323.896 -3.26331 -7.47797 0
M  V30 2164 P 327.858 -2.75334 -8.47391 0
M  V30 2165 O 328.078 -2.44571 -9.90142 0
M  V30 2166 O 328.648 -3.87688 -7.92115 0
M  V30 2167 O 328.108 -1.4459 -7.59357 0
M  V30 2168 C 327.168 -0.347608 -7.69215 0
M  V30 2169 C 327.898 0.96767 -7.52806 0
M  V30 2170 O 328.108 1.21036 -6.1011 0
M  V30 2171 C 329.298 1.04544 -8.13308 0
M  V30 2172 O 329.688 2.38311 -8.41922 0
M  V30 2173 C 330.178 0.491279 -7.02284 0
M  V30 2174 C 329.468 0.996264 -5.77469 0
M  V30 2175 N 329.518 0.0501916 -4.62973 0
M  V30 2176 C 329.438 -1.32786 -4.63244 0
M  V30 2177 N 329.518 -1.86957 -3.44545 0
M  V30 2178 C 329.658 -0.780241 -2.58481 0
M  V30 2179 C 329.788 -0.738536 -1.17757 0
M  V30 2180 O 329.808 -1.66794 -0.372349 0
M  V30 2181 N 329.908 0.58337 -0.711393 0
M  V30 2182 C 329.908 1.70816 -1.51017 0
M  V30 2183 N 330.038 2.87826 -0.880757 0
M  V30 2184 N 329.778 1.67126 -2.8339 0
M  V30 2185 C 329.658 0.401421 -3.30572 0
M  V30 2186 H 326.679 -0.374722 -8.67691 0
M  V30 2187 H 326.409 -0.443485 -6.90277 0
M  V30 2188 H 327.276 1.75537 -7.96793 0
M  V30 2189 H 329.931 1.95076 -5.46529 0
M  V30 2190 H 330.21 -0.608565 -7.04577 0
M  V30 2191 H 331.202 0.889672 -7.08939 0
M  V30 2192 H 329.368 0.43308 -9.04564 0
M  V30 2193 H 329.319 -1.91249 -5.54442 0
M  V30 2194 H 330.001 0.718054 0.275244 0
M  V30 2195 H 330.038 3.75721 -1.41832 0
M  V30 2196 H 330.139 2.90436 0.145468 0
M  V30 2197 P 331.238 2.75334 -8.47391 0
M  V30 2198 O 331.458 3.84128 -9.44797 0
M  V30 2199 O 332.028 1.51947 -8.68712 0
M  V30 2200 O 331.488 3.29363 -6.99321 0
M  V30 2201 C 330.548 4.24011 -6.4274 0
M  V30 2202 C 331.278 5.20775 -5.52155 0
M  V30 2203 O 331.488 4.56534 -4.22446 0
M  V30 2204 C 332.678 5.62629 -5.96531 0
M  V30 2205 O 333.068 6.87667 -5.41053 0
M  V30 2206 C 333.558 4.52537 -5.39283 0
M  V30 2207 C 332.848 4.20027 -4.08623 0
M  V30 2208 N 332.898 2.76189 -3.71603 0
M  V30 2209 C 332.818 1.64862 -4.52822 0
M  V30 2210 N 332.898 0.512671 -3.88633 0
M  V30 2211 C 333.038 0.888083 -2.54977 0
M  V30 2212 C 333.168 0.094668 -1.38677 0
M  V30 2213 N 333.288 0.890102 -0.232633 0
M  V30 2214 C 333.288 2.26958 -0.21772 0
M  V30 2215 N 333.418 2.84626 0.97925 0
M  V30 2216 N 333.158 3.0178 -1.31033 0
M  V30 2217 C 333.038 2.26781 -2.43843 0
M  V30 2218 H 330.059 4.797 -7.24003 0
M  V30 2219 H 329.789 3.69856 -5.84513 0
M  V30 2220 H 330.656 6.10356 -5.41441 0
M  V30 2221 P 334.618 7.20834 -5.23717 0
M  V30 2222 O 334.838 8.66104 -5.38572 0
M  V30 2223 O 335.408 6.33544 -6.1349 0
M  V30 2224 O 334.868 6.7751 -3.72168 0
M  V30 2225 C 333.928 7.20825 -2.7076 0
M  V30 2226 C 334.658 7.45864 -1.40599 0
M  V30 2227 O 334.868 6.17651 -0.734225 0
M  V30 2228 C 336.058 8.05808 -1.51899 0
M  V30 2229 O 336.448 8.74358 -0.335205 0
M  V30 2230 C 336.938 6.83093 -1.70294 0
M  V30 2231 C 336.228 5.79992 -0.836974 0
M  V30 2232 N 336.278 4.41864 -1.38293 0
M  V30 2233 H 333.439 8.13644 -3.0377 0
M  V30 2234 H 333.169 6.42788 -2.55485 0
M  V30 2235 H 334.036 8.12039 -0.792769 0
M  V30 2236 P 337.998 8.91 1.4976e-12 0
M  V30 2237 O 338.218 10.1726 0.733694 0
M  V30 2238 O 338.788 8.73148 -1.23936 0
M  V30 2239 O 338.248 7.66872 0.971405 0
M  V30 2240 C 337.308 7.42309 2.04641 0
M  V30 2241 C 338.038 6.86059 3.24661 0
M  V30 2242 O 338.248 5.42847 3.03646 0
M  V30 2243 C 339.438 7.41196 3.50753 0
M  V30 2244 O 339.828 7.27073 4.86816 0
M  V30 2245 C 340.318 6.5273 2.63741 0
M  V30 2246 C 339.608 5.1842 2.73198 0
M  V30 2247 N 339.658 4.38762 1.4784 0
M  V30 2248 C 339.578 4.81605 0.168631 0
M  V30 2249 N 339.658 3.85454 -0.713363 0
M  V30 2250 C 339.798 2.6994 0.0566958 0
M  V30 2251 C 339.928 1.34815 -0.338502 0
M  V30 2252 N 340.048 0.496304 0.77465 0
M  V30 2253 C 340.048 0.908403 2.09122 0
M  V30 2254 N 340.178 -0.0517805 3.00955 0
M  V30 2255 N 339.918 2.17875 2.46519 0
M  V30 2256 C 339.798 3.01988 1.4033 0
M  V30 2257 H 336.819 8.36803 2.32493 0
M  V30 2258 H 336.549 6.70197 1.71129 0
M  V30 2259 H 337.416 7.03551 4.13168 0
M  V30 2260 P 341.378 7.20834 5.23717 0
M  V30 2261 O 341.598 7.79853 6.57286 0
M  V30 2262 O 342.168 7.79239 4.12957 0
M  V30 2263 O 341.628 5.63315 5.29344 0
M  V30 2264 C 340.688 4.80255 6.01876 0
M  V30 2265 C 341.418 3.64202 6.65911 0
M  V30 2266 O 341.628 2.60694 5.64732 0
M  V30 2267 C 342.818 3.93473 7.1943 0
M  V30 2268 O 343.208 3.02071 8.21205 0
M  V30 2269 C 343.698 3.73047 5.97036 0
M  V30 2270 C 342.988 2.58828 5.25741 0
M  V30 2271 N 343.038 2.68068 3.77503 0
M  V30 2272 C 342.958 3.79715 2.96723 0
M  V30 2273 N 343.038 3.5377 1.68852 0
M  V30 2274 C 343.178 2.15054 1.63254 0
M  V30 2275 C 343.308 1.28964 0.518571 0
M  V30 2276 N 343.428 -0.0538097 0.918425 0
M  V30 2277 C 343.428 -0.494275 2.22578 0
M  V30 2278 N 343.558 -1.81086 2.40434 0
M  V30 2279 N 343.298 0.313645 3.27502 0
M  V30 2280 C 343.178 1.61829 2.91033 0
M  V30 2281 H 340.199 5.40332 6.79951 0
M  V30 2282 H 339.929 4.41613 5.32378 0
M  V30 2283 H 340.796 3.26331 7.47797 0
M  V30 2284 P 344.758 2.75334 8.47391 0
M  V30 2285 O 344.978 2.44619 9.90336 0
M  V30 2286 O 345.548 3.87776 7.92294 0
M  V30 2287 O 345.008 1.4459 7.59357 0
M  V30 2288 C 344.068 0.347653 7.69315 0
M  V30 2289 C 344.798 -0.96767 7.52806 0
M  V30 2290 O 345.008 -1.21055 6.10208 0
M  V30 2291 C 346.198 -1.04557 8.13408 0
M  V30 2292 O 346.588 -2.38311 8.41922 0
M  V30 2293 C 347.078 -0.491279 7.02284 0
M  V30 2294 C 346.368 -0.996264 5.77469 0
M  V30 2295 N 346.418 -0.0501916 4.62973 0
M  V30 2296 C 346.338 1.31969 4.65661 0
M  V30 2297 N 346.408 1.86649 3.48119 0
M  V30 2298 C 346.558 0.792089 2.62406 0
M  V30 2299 C 346.688 0.705684 1.2207 0
M  V30 2300 N 346.698 1.76207 0.413762 0
M  V30 2301 N 346.808 -0.518981 0.685754 0
M  V30 2302 C 346.798 -1.57595 1.49174 0
M  V30 2303 N 346.678 -1.62909 2.80066 0
M  V30 2304 C 346.558 -0.388195 3.3073 0
M  V30 2305 H 343.58 0.374765 8.67791 0
M  V30 2306 H 343.308 0.443613 6.90476 0
M  V30 2307 H 344.176 -1.75559 7.96891 0
M  V30 2308 H 346.831 -1.94563 5.46818 0
M  V30 2309 H 347.111 0.608651 7.04676 0
M  V30 2310 H 348.102 -0.889796 7.09039 0
M  V30 2311 H 346.268 -0.433128 9.04664 0
M  V30 2312 H 346.227 1.89246 5.57664 0
M  V30 2313 H 346.608 2.71005 0.804694 0
M  V30 2314 H 346.797 1.63189 -0.603768 0
M  V30 2315 H 346.905 -2.53475 0.997614 0
M  V30 2316 P 348.138 -2.75334 8.47391 0
M  V30 2317 O 348.358 -3.84128 9.44797 0
M  V30 2318 O 348.928 -1.51947 8.68712 0
M  V30 2319 O 348.388 -3.29363 6.99321 0
M  V30 2320 C 347.448 -4.24011 6.4274 0
M  V30 2321 C 348.178 -5.20775 5.52155 0
M  V30 2322 O 348.388 -4.56534 4.22446 0
M  V30 2323 C 349.578 -5.62629 5.96531 0
M  V30 2324 O 349.968 -6.87667 5.41053 0
M  V30 2325 C 350.458 -4.52537 5.39283 0
M  V30 2326 C 349.748 -4.20027 4.08623 0
M  V30 2327 N 349.798 -2.76189 3.71603 0
M  V30 2328 H 346.959 -4.797 7.24003 0
M  V30 2329 H 346.689 -3.69856 5.84513 0
M  V30 2330 H 347.556 -6.10356 5.41441 0
M  V30 2331 P 351.518 -7.20834 5.23717 0
M  V30 2332 O 351.738 -8.66104 5.38572 0
M  V30 2333 O 352.308 -6.33544 6.1349 0
M  V30 2334 O 351.768 -6.7751 3.72168 0
M  V30 2335 C 350.828 -7.20825 2.7076 0
M  V30 2336 C 351.558 -7.45864 1.40599 0
M  V30 2337 O 351.768 -6.17651 0.734225 0
M  V30 2338 C 352.958 -8.05808 1.51899 0
M  V30 2339 O 353.348 -8.74358 0.335205 0
M  V30 2340 C 353.838 -6.83093 1.70294 0
M  V30 2341 C 353.128 -5.79992 0.836974 0
M  V30 2342 N 353.178 -4.41864 1.38293 0
M  V30 2343 H 350.339 -8.13644 3.0377 0
M  V30 2344 H 350.069 -6.42788 2.55485 0
M  V30 2345 H 350.936 -8.12039 0.792769 0
M  V30 2346 P 354.898 -8.91 -1.65478e-12 0
M  V30 2347 O 355.118 -10.1726 -0.733694 0
M  V30 2348 O 355.688 -8.73148 1.23936 0
M  V30 2349 O 355.148 -7.66872 -0.971405 0
M  V30 2350 C 354.208 -7.42309 -2.04641 0
M  V30 2351 C 354.938 -6.86059 -3.24661 0
M  V30 2352 O 355.148 -5.42847 -3.03646 0
M  V30 2353 C 356.338 -7.41196 -3.50753 0
M  V30 2354 O 356.728 -7.27073 -4.86816 0
M  V30 2355 C 357.218 -6.5273 -2.63741 0
M  V30 2356 C 356.508 -5.1842 -2.73198 0
M  V30 2357 N 356.558 -4.38762 -1.4784 0
M  V30 2358 H 353.719 -8.36803 -2.32493 0
M  V30 2359 H 353.449 -6.70197 -1.71129 0
M  V30 2360 H 354.316 -7.03551 -4.13168 0
M  V30 2361 P 358.278 -7.20834 -5.23717 0
M  V30 2362 O 358.498 -7.7993 -6.57351 0
M  V30 2363 O 359.068 -7.79328 -4.13004 0
M  V30 2364 O 358.528 -5.63315 -5.29344 0
M  V30 2365 C 357.588 -4.80193 -6.01798 0
M  V30 2366 C 358.318 -3.64202 -6.65911 0
M  V30 2367 O 358.528 -2.60694 -5.64732 0
M  V30 2368 C 359.718 -3.93473 -7.1943 0
M  V30 2369 O 360.108 -3.02071 -8.21205 0
M  V30 2370 C 360.598 -3.73047 -5.97036 0
M  V30 2371 C 359.888 -2.58828 -5.25741 0
M  V30 2372 N 359.938 -2.6801 -3.77422 0
M  V30 2373 C 360.088 -1.50443 -3.07133 0
M  V30 2374 O 360.178 -0.419406 -3.61576 0
M  V30 2375 N 360.128 -1.6403 -1.69677 0
M  V30 2376 C 360.038 -2.81206 -0.986255 0
M  V30 2377 C 359.888 -3.99158 -1.80325 0
M  V30 2378 C 359.838 -3.89779 -3.1476 0
M  V30 2379 H 357.098 -5.40332 -6.79951 0
M  V30 2380 H 356.829 -4.41549 -5.32301 0
M  V30 2381 H 357.696 -3.26331 -7.47797 0
M  V30 2382 H 360.351 -1.6395 -5.56554 0
M  V30 2383 H 360.63 -4.63439 -5.3432 0
M  V30 2384 H 361.622 -3.44728 -6.25838 0
M  V30 2385 H 359.788 -4.96652 -7.57263 0
M  V30 2386 H 359.717 -4.80159 -3.74441 0
M  V30 2387 P 361.658 -2.75334 -8.47391 0
M  V30 2388 O 361.878 -2.44595 -9.90239 0
M  V30 2389 O 362.448 -3.87732 -7.92204 0
M  V30 2390 O 361.908 -1.4459 -7.59357 0
M  V30 2391 C 360.968 -0.347608 -7.69215 0
M  V30 2392 C 361.698 0.96767 -7.52806 0
M  V30 2393 O 361.908 1.21036 -6.1011 0
M  V30 2394 C 363.098 1.04544 -8.13308 0
M  V30 2395 O 363.488 2.38311 -8.41922 0
M  V30 2396 C 363.978 0.491279 -7.02284 0
M  V30 2397 C 363.268 0.996264 -5.77469 0
M  V30 2398 N 363.318 0.0501808 -4.62873 0
M  V30 2399 C 363.468 0.578037 -3.3505 0
M  V30 2400 O 363.558 1.8073 -3.21711 0
M  V30 2401 N 363.518 -0.468541 -2.263 0
M  V30 2402 C 363.418 -1.59186 -2.47176 0
M  V30 2403 N 363.468 -2.37626 -1.40392 0
M  V30 2404 C 363.268 -2.16203 -3.77467 0
M  V30 2405 C 363.218 -1.29324 -4.8195 0
M  V30 2406 H 360.478 -0.374679 -8.67591 0
M  V30 2407 H 360.209 -0.443421 -6.90177 0
M  V30 2408 H 361.076 1.75559 -7.96891 0
M  V30 2409 H 363.731 1.94529 -5.46723 0
M  V30 2410 H 364.01 -0.608651 -7.04676 0
M  V30 2411 H 365.002 0.889672 -7.08939 0
M  V30 2412 H 363.168 0.43308 -9.04564 0
M  V30 2413 H 363.096 -1.67758 -5.83046 0
M  V30 2414 H 363.198 -3.23869 -3.92281 0
M  V30 2415 H 363.586 -1.96317 -0.467202 0
M  V30 2416 H 363.389 -3.39693 -1.51142 0
M  V30 2417 P 365.038 2.75334 -8.47391 0
M  V30 2418 O 365.258 3.84128 -9.44797 0
M  V30 2419 O 365.828 1.51947 -8.68712 0
M  V30 2420 O 365.288 3.29363 -6.99321 0
M  V30 2421 C 364.348 4.24011 -6.4274 0
M  V30 2422 C 365.078 5.20775 -5.52155 0
M  V30 2423 O 365.288 4.56534 -4.22446 0
M  V30 2424 C 366.478 5.62629 -5.96531 0
M  V30 2425 O 366.868 6.87667 -5.41053 0
M  V30 2426 C 367.358 4.52537 -5.39283 0
M  V30 2427 C 366.648 4.20027 -4.08623 0
M  V30 2428 N 366.698 2.76189 -3.71603 0
M  V30 2429 C 366.618 1.64862 -4.52822 0
M  V30 2430 N 366.698 0.512671 -3.88633 0
M  V30 2431 C 366.838 0.888083 -2.54977 0
M  V30 2432 C 366.968 0.094668 -1.38677 0
M  V30 2433 O 366.988 -1.13053 -1.28163 0
M  V30 2434 N 367.088 0.890102 -0.232633 0
M  V30 2435 C 367.088 2.26958 -0.21772 0
M  V30 2436 N 367.218 2.84626 0.97925 0
M  V30 2437 N 366.958 3.0178 -1.31033 0
M  V30 2438 C 366.838 2.26781 -2.43843 0
M  V30 2439 H 363.859 4.797 -7.24003 0
M  V30 2440 H 363.589 3.69856 -5.84513 0
M  V30 2441 H 364.456 6.10356 -5.41441 0
M  V30 2442 H 367.111 4.79061 -3.27488 0
M  V30 2443 H 367.39 3.64906 -6.05785 0
M  V30 2444 H 368.382 4.8868 -5.2125 0
M  V30 2445 H 366.548 5.66726 -7.06352 0
M  V30 2446 H 366.499 1.71169 -5.60966 0
M  V30 2447 H 367.181 0.419134 0.644739 0
M  V30 2448 H 367.218 3.87332 1.06098 0
M  V30 2449 H 367.319 2.26417 1.82483 0
M  V30 2450 P 368.418 7.20834 -5.23717 0
M  V30 2451 O 368.638 8.66104 -5.38572 0
M  V30 2452 O 369.208 6.33544 -6.1349 0
M  V30 2453 O 368.668 6.7751 -3.72168 0
M  V30 2454 C 367.728 7.20825 -2.7076 0
M  V30 2455 C 368.458 7.45864 -1.40599 0
M  V30 2456 O 368.668 6.17651 -0.734225 0
M  V30 2457 C 369.858 8.05808 -1.51899 0
M  V30 2458 O 370.248 8.74358 -0.335205 0
M  V30 2459 C 370.738 6.83093 -1.70294 0
M  V30 2460 C 370.028 5.79992 -0.836974 0
M  V30 2461 N 370.078 4.41864 -1.38293 0
M  V30 2462 C 369.998 3.99538 -2.69438 0
M  V30 2463 N 370.078 2.69909 -2.84277 0
M  V30 2464 C 370.218 2.21719 -1.5408 0
M  V30 2465 C 370.348 0.891712 -1.06628 0
M  V30 2466 O 370.368 -0.161298 -1.70137 0
M  V30 2467 N 370.468 0.856846 0.334985 0
M  V30 2468 C 370.468 1.9641 1.15789 0
M  V30 2469 N 370.598 1.72708 2.46522 0
M  V30 2470 N 370.338 3.21165 0.713741 0
M  V30 2471 C 370.218 3.26797 -0.639748 0
M  V30 2472 H 367.239 8.13644 -3.0377 0
M  V30 2473 H 366.969 6.42788 -2.55485 0
M  V30 2474 H 367.836 8.12039 -0.792769 0
M  V30 2475 H 370.491 5.80061 0.166416 0
M  V30 2476 H 370.77 6.51287 -2.75604 0
M  V30 2477 H 371.762 7.01734 -1.34462 0
M  V30 2478 H 369.928 8.73674 -2.38337 0
M  V30 2479 H 369.879 4.68207 -3.53221 0
M  V30 2480 H 370.561 -0.0398818 0.767965 0
M  V30 2481 H 370.598 2.50995 3.13503 0
M  V30 2482 H 370.699 0.759148 2.80716 0
M  V30 2483 P 371.798 8.91 1.81197e-12 0
M  V30 2484 O 372.018 10.1726 0.733694 0
M  V30 2485 O 372.588 8.73148 -1.23936 0
M  V30 2486 O 372.048 7.66872 0.971405 0
M  V30 2487 C 371.108 7.42309 2.04641 0
M  V30 2488 C 371.838 6.86059 3.24661 0
M  V30 2489 O 372.048 5.42847 3.03646 0
M  V30 2490 C 373.238 7.41196 3.50753 0
M  V30 2491 O 373.628 7.27073 4.86816 0
M  V30 2492 C 374.118 6.5273 2.63741 0
M  V30 2493 C 373.408 5.1842 2.73198 0
M  V30 2494 N 373.458 4.38762 1.4784 0
M  V30 2495 H 370.619 8.36803 2.32493 0
M  V30 2496 H 370.349 6.70197 1.71129 0
M  V30 2497 H 371.216 7.03551 4.13168 0
M  V30 2498 P 375.178 7.20834 5.23717 0
M  V30 2499 O 375.398 7.79853 6.57286 0
M  V30 2500 O 375.968 7.79239 4.12957 0
M  V30 2501 O 375.428 5.63315 5.29344 0
M  V30 2502 C 374.488 4.80255 6.01876 0
M  V30 2503 C 375.218 3.64202 6.65911 0
M  V30 2504 O 375.428 2.60694 5.64732 0
M  V30 2505 C 376.618 3.93473 7.1943 0
M  V30 2506 O 377.008 3.02071 8.21205 0
M  V30 2507 C 377.498 3.73047 5.97036 0
M  V30 2508 C 376.788 2.58828 5.25741 0
M  V30 2509 N 376.838 2.68068 3.77503 0
M  V30 2510 H 373.999 5.40332 6.79951 0
M  V30 2511 H 373.729 4.41613 5.32378 0
M  V30 2512 H 374.596 3.26331 7.47797 0
M  V30 2513 P 378.558 2.75334 8.47391 0
M  V30 2514 O 378.778 2.44571 9.90142 0
M  V30 2515 O 379.348 3.87688 7.92115 0
M  V30 2516 O 378.808 1.4459 7.59357 0
M  V30 2517 C 377.868 0.347608 7.69215 0
M  V30 2518 C 378.598 -0.96767 7.52806 0
M  V30 2519 O 378.808 -1.21036 6.1011 0
M  V30 2520 C 379.998 -1.04544 8.13308 0
M  V30 2521 O 380.388 -2.38311 8.41922 0
M  V30 2522 C 380.878 -0.491279 7.02284 0
M  V30 2523 C 380.168 -0.996264 5.77469 0
M  V30 2524 N 380.218 -0.0501916 4.62973 0
M  V30 2525 C 380.138 1.32786 4.63244 0
M  V30 2526 N 380.218 1.86957 3.44545 0
M  V30 2527 C 380.358 0.780241 2.58481 0
M  V30 2528 C 380.488 0.738536 1.17757 0
M  V30 2529 N 380.608 -0.58337 0.711393 0
M  V30 2530 C 380.608 -1.70816 1.51017 0
M  V30 2531 N 380.738 -2.87826 0.880757 0
M  V30 2532 N 380.478 -1.67126 2.8339 0
M  V30 2533 C 380.358 -0.401421 3.30572 0
M  V30 2534 H 377.379 0.374722 8.67691 0
M  V30 2535 H 377.109 0.443485 6.90277 0
M  V30 2536 H 377.976 -1.75537 7.96793 0
M  V30 2537 P 381.938 -2.75334 8.47391 0
M  V30 2538 O 382.158 -3.84128 9.44797 0
M  V30 2539 O 382.728 -1.51947 8.68712 0
M  V30 2540 O 382.188 -3.29363 6.99321 0
M  V30 2541 C 381.248 -4.24011 6.4274 0
M  V30 2542 C 381.978 -5.20775 5.52155 0
M  V30 2543 O 382.188 -4.56534 4.22446 0
M  V30 2544 C 383.378 -5.62629 5.96531 0
M  V30 2545 O 383.768 -6.87667 5.41053 0
M  V30 2546 C 384.258 -4.52537 5.39283 0
M  V30 2547 C 383.548 -4.20027 4.08623 0
M  V30 2548 N 383.598 -2.76189 3.71603 0
M  V30 2549 H 380.759 -4.797 7.24003 0
M  V30 2550 H 380.489 -3.69856 5.84513 0
M  V30 2551 H 381.356 -6.10356 5.41441 0
M  V30 2552 P 385.318 -7.20834 5.23717 0
M  V30 2553 O 385.538 -8.66104 5.38572 0
M  V30 2554 O 386.108 -6.33544 6.1349 0
M  V30 2555 O 385.568 -6.7751 3.72168 0
M  V30 2556 C 384.628 -7.20825 2.7076 0
M  V30 2557 C 385.358 -7.45864 1.40599 0
M  V30 2558 O 385.568 -6.17651 0.734225 0
M  V30 2559 C 386.758 -8.05808 1.51899 0
M  V30 2560 O 387.148 -8.74358 0.335205 0
M  V30 2561 C 387.638 -6.83093 1.70294 0
M  V30 2562 C 386.928 -5.79992 0.836974 0
M  V30 2563 N 386.978 -4.41864 1.38293 0
M  V30 2564 H 384.139 -8.13644 3.0377 0
M  V30 2565 H 383.869 -6.42788 2.55485 0
M  V30 2566 H 384.736 -8.12039 0.792769 0
M  V30 2567 P 388.698 -8.91 -1.96915e-12 0
M  V30 2568 O 388.918 -10.1726 -0.733694 0
M  V30 2569 O 389.488 -8.73148 1.23936 0
M  V30 2570 O 388.948 -7.66872 -0.971405 0
M  V30 2571 C 388.008 -7.42309 -2.04641 0
M  V30 2572 C 388.738 -6.86059 -3.24661 0
M  V30 2573 O 388.948 -5.42847 -3.03646 0
M  V30 2574 C 390.138 -7.41196 -3.50753 0
M  V30 2575 O 390.528 -7.27073 -4.86816 0
M  V30 2576 C 391.018 -6.5273 -2.63741 0
M  V30 2577 C 390.308 -5.1842 -2.73198 0
M  V30 2578 N 390.358 -4.38762 -1.4784 0
M  V30 2579 H 387.519 -8.36803 -2.32493 0
M  V30 2580 H 387.249 -6.70197 -1.71129 0
M  V30 2581 H 388.116 -7.03551 -4.13168 0
M  V30 2582 P 392.078 -7.20834 -5.23717 0
M  V30 2583 O 392.298 -7.79853 -6.57286 0
M  V30 2584 O 392.868 -7.79239 -4.12957 0
M  V30 2585 O 392.328 -5.63315 -5.29344 0
M  V30 2586 C 391.388 -4.80255 -6.01876 0
M  V30 2587 C 392.118 -3.64202 -6.65911 0
M  V30 2588 O 392.328 -2.60694 -5.64732 0
M  V30 2589 C 393.518 -3.93473 -7.1943 0
M  V30 2590 O 393.908 -3.02071 -8.21205 0
M  V30 2591 C 394.398 -3.73047 -5.97036 0
M  V30 2592 C 393.688 -2.58828 -5.25741 0
M  V30 2593 N 393.738 -2.68068 -3.77503 0
M  V30 2594 C 393.658 -3.79715 -2.96723 0
M  V30 2595 N 393.738 -3.5377 -1.68852 0
M  V30 2596 C 393.878 -2.15054 -1.63254 0
M  V30 2597 C 394.008 -1.28964 -0.518571 0
M  V30 2598 N 394.128 0.0538097 -0.918425 0
M  V30 2599 C 394.128 0.494275 -2.22578 0
M  V30 2600 N 394.258 1.81086 -2.40434 0
M  V30 2601 N 393.998 -0.313645 -3.27502 0
M  V30 2602 C 393.878 -1.61829 -2.91033 0
M  V30 2603 H 390.899 -5.40332 -6.79951 0
M  V30 2604 H 390.629 -4.41613 -5.32378 0
M  V30 2605 H 391.496 -3.26331 -7.47797 0
M  V30 2606 P 395.458 -2.75334 -8.47391 0
M  V30 2607 O 395.678 -2.44571 -9.90142 0
M  V30 2608 O 396.248 -3.87688 -7.92115 0
M  V30 2609 O 395.708 -1.4459 -7.59357 0
M  V30 2610 C 394.768 -0.347608 -7.69215 0
M  V30 2611 C 395.498 0.96767 -7.52806 0
M  V30 2612 O 395.708 1.21036 -6.1011 0
M  V30 2613 C 396.898 1.04544 -8.13308 0
M  V30 2614 O 397.288 2.38311 -8.41922 0
M  V30 2615 C 397.778 0.491279 -7.02284 0
M  V30 2616 C 397.068 0.996264 -5.77469 0
M  V30 2617 N 397.118 0.0501916 -4.62973 0
M  V30 2618 H 394.279 -0.374722 -8.67691 0
M  V30 2619 H 394.009 -0.443485 -6.90277 0
M  V30 2620 H 394.876 1.75537 -7.96793 0
M  V30 2621 P 398.838 2.75334 -8.47391 0
M  V30 2622 O 399.058 3.84128 -9.44797 0
M  V30 2623 O 399.628 1.51947 -8.68712 0
M  V30 2624 O 399.088 3.29363 -6.99321 0
M  V30 2625 C 398.148 4.24011 -6.4274 0
M  V30 2626 C 398.878 5.20775 -5.52155 0
M  V30 2627 O 399.088 4.56534 -4.22446 0
M  V30 2628 C 400.278 5.62629 -5.96531 0
M  V30 2629 O 400.668 6.87667 -5.41053 0
M  V30 2630 C 401.158 4.52537 -5.39283 0
M  V30 2631 C 400.448 4.20027 -4.08623 0
M  V30 2632 N 400.498 2.76189 -3.71603 0
M  V30 2633 C 400.418 1.64862 -4.52822 0
M  V30 2634 N 400.498 0.512671 -3.88633 0
M  V30 2635 C 400.638 0.888083 -2.54977 0
M  V30 2636 C 400.768 0.094668 -1.38677 0
M  V30 2637 O 400.788 -1.13053 -1.28163 0
M  V30 2638 N 400.888 0.890102 -0.232633 0
M  V30 2639 C 400.888 2.26958 -0.21772 0
M  V30 2640 N 401.018 2.84626 0.97925 0
M  V30 2641 N 400.758 3.0178 -1.31033 0
M  V30 2642 C 400.638 2.26781 -2.43843 0
M  V30 2643 H 397.659 4.797 -7.24003 0
M  V30 2644 H 397.389 3.69856 -5.84513 0
M  V30 2645 H 398.256 6.10356 -5.41441 0
M  V30 2646 H 400.911 4.79061 -3.27488 0
M  V30 2647 H 401.19 3.64906 -6.05785 0
M  V30 2648 H 402.182 4.8868 -5.2125 0
M  V30 2649 H 400.348 5.66726 -7.06352 0
M  V30 2650 H 400.299 1.71169 -5.60966 0
M  V30 2651 H 400.981 0.419134 0.644739 0
M  V30 2652 H 401.018 3.87332 1.06098 0
M  V30 2653 H 401.119 2.26417 1.82483 0
M  V30 2654 P 402.218 7.20834 -5.23717 0
M  V30 2655 O 402.438 8.66104 -5.38572 0
M  V30 2656 O 403.008 6.33544 -6.1349 0
M  V30 2657 O 402.468 6.7751 -3.72168 0
M  V30 2658 C 401.528 7.20825 -2.7076 0
M  V30 2659 C 402.258 7.45864 -1.40599 0
M  V30 2660 O 402.468 6.17651 -0.734225 0
M  V30 2661 C 403.658 8.05808 -1.51899 0
M  V30 2662 O 404.048 8.74358 -0.335205 0
M  V30 2663 C 404.538 6.83093 -1.70294 0
M  V30 2664 C 403.828 5.79992 -0.836974 0
M  V30 2665 N 403.878 4.41864 -1.38293 0
M  V30 2666 H 401.039 8.13644 -3.0377 0
M  V30 2667 H 400.769 6.42788 -2.55485 0
M  V30 2668 H 401.636 8.12039 -0.792769 0
M  V30 2669 P 405.598 8.91 2.12633e-12 0
M  V30 2670 O 405.818 10.1726 0.733694 0
M  V30 2671 O 406.388 8.73148 -1.23936 0
M  V30 2672 O 405.848 7.66872 0.971405 0
M  V30 2673 C 404.908 7.42309 2.04641 0
M  V30 2674 C 405.638 6.86059 3.24661 0
M  V30 2675 O 405.848 5.42847 3.03646 0
M  V30 2676 C 407.038 7.41196 3.50753 0
M  V30 2677 O 407.428 7.27073 4.86816 0
M  V30 2678 C 407.918 6.5273 2.63741 0
M  V30 2679 C 407.208 5.1842 2.73198 0
M  V30 2680 N 407.258 4.38762 1.4784 0
M  V30 2681 H 404.419 8.36803 2.32493 0
M  V30 2682 H 404.149 6.70197 1.71129 0
M  V30 2683 H 405.016 7.03551 4.13168 0
M  V30 2684 P 408.978 7.20834 5.23717 0
M  V30 2685 O 409.198 7.79853 6.57286 0
M  V30 2686 O 409.768 7.79239 4.12957 0
M  V30 2687 O 409.228 5.63315 5.29344 0
M  V30 2688 C 408.288 4.80255 6.01876 0
M  V30 2689 C 409.018 3.64202 6.65911 0
M  V30 2690 O 409.228 2.60694 5.64732 0
M  V30 2691 C 410.418 3.93473 7.1943 0
M  V30 2692 O 410.808 3.02071 8.21205 0
M  V30 2693 C 411.298 3.73047 5.97036 0
M  V30 2694 C 410.588 2.58828 5.25741 0
M  V30 2695 N 410.638 2.68068 3.77503 0
M  V30 2696 C 410.558 3.79715 2.96723 0
M  V30 2697 N 410.638 3.5377 1.68852 0
M  V30 2698 C 410.778 2.15054 1.63254 0
M  V30 2699 C 410.908 1.28964 0.518571 0
M  V30 2700 O 410.928 1.56826 -0.679156 0
M  V30 2701 N 411.028 -0.0538097 0.918425 0
M  V30 2702 C 411.028 -0.494275 2.22578 0
M  V30 2703 N 411.158 -1.81086 2.40434 0
M  V30 2704 N 410.898 0.313645 3.27502 0
M  V30 2705 C 410.778 1.61829 2.91033 0
M  V30 2706 H 407.799 5.40332 6.79951 0
M  V30 2707 H 407.529 4.41613 5.32378 0
M  V30 2708 H 408.396 3.26331 7.47797 0
M  V30 2709 H 411.051 1.63422 5.56814 0
M  V30 2710 H 411.33 4.63374 5.34244 0
M  V30 2711 H 412.322 3.44728 6.25838 0
M  V30 2712 H 410.488 4.96652 7.57263 0
M  V30 2713 H 410.439 4.80617 3.3614 0
M  V30 2714 H 411.121 -0.742702 0.199384 0
M  V30 2715 H 411.158 -2.20598 3.35588 0
M  V30 2716 H 411.259 -2.43518 1.58945 0
M  V30 2717 P 412.358 2.75334 8.47391 0
M  V30 2718 O 412.578 2.44571 9.90142 0
M  V30 2719 O 413.148 3.87688 7.92115 0
M  V30 2720 O 412.608 1.4459 7.59357 0
M  V30 2721 C 411.668 0.347608 7.69215 0
M  V30 2722 C 412.398 -0.96767 7.52806 0
M  V30 2723 O 412.608 -1.21036 6.1011 0
M  V30 2724 C 413.798 -1.04544 8.13308 0
M  V30 2725 O 414.188 -2.38311 8.41922 0
M  V30 2726 C 414.678 -0.491279 7.02284 0
M  V30 2727 C 413.968 -0.996264 5.77469 0
M  V30 2728 N 414.018 -0.0501916 4.62973 0
M  V30 2729 H 411.179 0.374722 8.67691 0
M  V30 2730 H 410.909 0.443485 6.90277 0
M  V30 2731 H 411.776 -1.75537 7.96793 0
M  V30 2732 P 415.738 -2.75334 8.47391 0
M  V30 2733 O 415.958 -3.84204 9.44982 0
M  V30 2734 O 416.528 -1.51982 8.68909 0
M  V30 2735 O 415.988 -3.29363 6.99321 0
M  V30 2736 C 415.048 -4.24066 6.42823 0
M  V30 2737 C 415.778 -5.20775 5.52155 0
M  V30 2738 O 415.988 -4.56607 4.22514 0
M  V30 2739 C 417.178 -5.62697 5.96604 0
M  V30 2740 O 417.568 -6.87667 5.41053 0
M  V30 2741 C 418.058 -4.52537 5.39283 0
M  V30 2742 C 417.348 -4.20027 4.08623 0
M  V30 2743 N 417.398 -2.76189 3.71603 0
M  V30 2744 H 414.56 -4.79756 7.24086 0
M  V30 2745 H 414.288 -3.69963 5.84682 0
M  V30 2746 H 415.156 -6.10431 5.41508 0
M  V30 2747 H 417.811 -4.78816 3.28024 0
M  V30 2748 H 418.091 -3.64957 6.05871 0
M  V30 2749 H 419.082 -4.88748 5.21323 0
M  V30 2750 H 417.248 -5.66789 7.0643 0
M  V30 2751 P 419.118 -7.20834 5.23717 0
M  V30 2752 O 419.338 -8.66104 5.38572 0
M  V30 2753 O 419.908 -6.33544 6.1349 0
M  V30 2754 O 419.368 -6.7751 3.72168 0
M  V30 2755 C 418.428 -7.20825 2.7076 0
M  V30 2756 C 419.158 -7.45864 1.40599 0
M  V30 2757 O 419.368 -6.17651 0.734225 0
M  V30 2758 C 420.558 -8.05808 1.51899 0
M  V30 2759 O 420.948 -8.74358 0.335205 0
M  V30 2760 C 421.438 -6.83093 1.70294 0
M  V30 2761 C 420.728 -5.79992 0.836974 0
M  V30 2762 N 420.778 -4.41864 1.38293 0
M  V30 2763 H 417.939 -8.13644 3.0377 0
M  V30 2764 H 417.669 -6.42788 2.55485 0
M  V30 2765 H 418.536 -8.12039 0.792769 0
M  V30 2766 P 422.497 -8.91 -2.28351e-12 0
M  V30 2767 O 422.717 -10.1726 -0.733694 0
M  V30 2768 O 423.287 -8.73148 1.23936 0
M  V30 2769 O 422.747 -7.66872 -0.971405 0
M  V30 2770 C 421.807 -7.42309 -2.04641 0
M  V30 2771 C 422.537 -6.86059 -3.24661 0
M  V30 2772 O 422.747 -5.42847 -3.03646 0
M  V30 2773 C 423.937 -7.41196 -3.50753 0
M  V30 2774 O 424.327 -7.27073 -4.86816 0
M  V30 2775 C 424.817 -6.5273 -2.63741 0
M  V30 2776 C 424.107 -5.1842 -2.73198 0
M  V30 2777 N 424.157 -4.38762 -1.4784 0
M  V30 2778 C 424.077 -4.81605 -0.168631 0
M  V30 2779 N 424.157 -3.85454 0.713363 0
M  V30 2780 C 424.297 -2.6994 -0.0566958 0
M  V30 2781 C 424.427 -1.34815 0.338502 0
M  V30 2782 N 424.547 -0.496304 -0.77465 0
M  V30 2783 C 424.547 -0.908403 -2.09122 0
M  V30 2784 N 424.677 0.0517805 -3.00955 0
M  V30 2785 N 424.417 -2.17875 -2.46519 0
M  V30 2786 C 424.297 -3.01988 -1.4033 0
M  V30 2787 H 421.318 -8.36803 -2.32493 0
M  V30 2788 H 421.048 -6.70197 -1.71129 0
M  V30 2789 H 421.915 -7.03551 -4.13168 0
M  V30 2790 P 425.877 -7.20834 -5.23717 0
M  V30 2791 O 426.097 -7.79853 -6.57286 0
M  V30 2792 O 426.667 -7.79239 -4.12957 0
M  V30 2793 O 426.127 -5.63315 -5.29344 0
M  V30 2794 C 425.187 -4.80255 -6.01876 0
M  V30 2795 C 425.917 -3.64202 -6.65911 0
M  V30 2796 O 426.127 -2.60694 -5.64732 0
M  V30 2797 C 427.317 -3.93473 -7.1943 0
M  V30 2798 O 427.707 -3.02071 -8.21205 0
M  V30 2799 C 428.197 -3.73047 -5.97036 0
M  V30 2800 C 427.487 -2.58828 -5.25741 0
M  V30 2801 N 427.537 -2.68068 -3.77503 0
M  V30 2802 C 427.457 -3.79715 -2.96723 0
M  V30 2803 N 427.537 -3.5377 -1.68852 0
M  V30 2804 C 427.677 -2.15054 -1.63254 0
M  V30 2805 C 427.807 -1.28964 -0.518571 0
M  V30 2806 N 427.927 0.0538097 -0.918425 0
M  V30 2807 C 427.927 0.494275 -2.22578 0
M  V30 2808 N 428.057 1.81086 -2.40434 0
M  V30 2809 N 427.797 -0.313645 -3.27502 0
M  V30 2810 C 427.677 -1.61829 -2.91033 0
M  V30 2811 H 424.698 -5.40332 -6.79951 0
M  V30 2812 H 424.428 -4.41613 -5.32378 0
M  V30 2813 H 425.295 -3.26331 -7.47797 0
M  V30 2814 P 429.257 -2.75334 -8.47391 0
M  V30 2815 O 429.477 -2.44571 -9.90142 0
M  V30 2816 O 430.047 -3.87688 -7.92115 0
M  V30 2817 O 429.507 -1.4459 -7.59357 0
M  V30 2818 C 428.567 -0.347608 -7.69215 0
M  V30 2819 C 429.297 0.96767 -7.52806 0
M  V30 2820 O 429.507 1.21036 -6.1011 0
M  V30 2821 C 430.697 1.04544 -8.13308 0
M  V30 2822 O 431.087 2.38311 -8.41922 0
M  V30 2823 C 431.577 0.491279 -7.02284 0
M  V30 2824 C 430.867 0.996264 -5.77469 0
M  V30 2825 N 430.917 0.0501916 -4.62973 0
M  V30 2826 H 428.078 -0.374722 -8.67691 0
M  V30 2827 H 427.808 -0.443485 -6.90277 0
M  V30 2828 H 428.675 1.75537 -7.96793 0
M  V30 2829 P 432.637 2.75334 -8.47391 0
M  V30 2830 O 432.857 3.84128 -9.44797 0
M  V30 2831 O 433.427 1.51947 -8.68712 0
M  V30 2832 O 432.887 3.29363 -6.99321 0
M  V30 2833 C 431.947 4.24011 -6.4274 0
M  V30 2834 C 432.677 5.20775 -5.52155 0
M  V30 2835 O 432.887 4.56534 -4.22446 0
M  V30 2836 C 434.077 5.62629 -5.96531 0
M  V30 2837 O 434.467 6.87667 -5.41053 0
M  V30 2838 C 434.957 4.52537 -5.39283 0
M  V30 2839 C 434.247 4.20027 -4.08623 0
M  V30 2840 N 434.297 2.76189 -3.71603 0
M  V30 2841 C 434.217 1.64862 -4.52822 0
M  V30 2842 N 434.297 0.512671 -3.88633 0
M  V30 2843 C 434.437 0.888083 -2.54977 0
M  V30 2844 C 434.567 0.094668 -1.38677 0
M  V30 2845 N 434.687 0.890102 -0.232633 0
M  V30 2846 C 434.687 2.26958 -0.21772 0
M  V30 2847 N 434.817 2.84626 0.97925 0
M  V30 2848 N 434.557 3.0178 -1.31033 0
M  V30 2849 C 434.437 2.26781 -2.43843 0
M  V30 2850 H 431.458 4.797 -7.24003 0
M  V30 2851 H 431.188 3.69856 -5.84513 0
M  V30 2852 H 432.055 6.10356 -5.41441 0
M  V30 2853 P 436.017 7.20834 -5.23717 0
M  V30 2854 O 436.237 8.66104 -5.38572 0
M  V30 2855 O 436.807 6.33544 -6.1349 0
M  V30 2856 O 436.267 6.7751 -3.72168 0
M  V30 2857 C 435.327 7.20825 -2.7076 0
M  V30 2858 C 436.057 7.45864 -1.40599 0
M  V30 2859 O 436.267 6.17651 -0.734225 0
M  V30 2860 C 437.457 8.05808 -1.51899 0
M  V30 2861 O 437.847 8.74358 -0.335205 0
M  V30 2862 C 438.337 6.83093 -1.70294 0
M  V30 2863 C 437.627 5.79992 -0.836974 0
M  V30 2864 N 437.677 4.41864 -1.38293 0
M  V30 2865 H 434.838 8.13644 -3.0377 0
M  V30 2866 H 434.568 6.42788 -2.55485 0
M  V30 2867 H 435.435 8.12039 -0.792769 0
M  V30 2868 P 439.397 8.91 2.44069e-12 0
M  V30 2869 O 439.617 10.1746 0.733838 0
M  V30 2870 O 440.187 8.73346 -1.23964 0
M  V30 2871 O 439.647 7.66872 0.971405 0
M  V30 2872 C 438.707 7.42405 2.04668 0
M  V30 2873 C 439.437 6.86059 3.24661 0
M  V30 2874 O 439.647 5.42934 3.03695 0
M  V30 2875 C 440.837 7.41287 3.50796 0
M  V30 2876 O 441.227 7.27073 4.86816 0
M  V30 2877 C 441.717 6.5273 2.63741 0
M  V30 2878 C 441.007 5.1842 2.73198 0
M  V30 2879 N 441.057 4.38762 1.4784 0
M  V30 2880 H 438.219 8.36899 2.3252 0
M  V30 2881 H 437.947 6.70391 1.71179 0
M  V30 2882 H 438.815 7.03638 4.13219 0
M  V30 2883 H 441.47 4.59931 3.54016 0
M  V30 2884 H 441.75 6.88995 1.59871 0
M  V30 2885 H 442.741 6.4684 3.0373 0
M  V30 2886 H 440.907 8.47002 3.20749 0
M  V30 2887 P 442.777 7.20834 5.23717 0
M  V30 2888 O 442.997 7.79853 6.57286 0
M  V30 2889 O 443.567 7.79239 4.12957 0
M  V30 2890 O 443.027 5.63315 5.29344 0
M  V30 2891 C 442.087 4.80255 6.01876 0
M  V30 2892 C 442.817 3.64202 6.65911 0
M  V30 2893 O 443.027 2.60694 5.64732 0
M  V30 2894 C 444.217 3.93473 7.1943 0
M  V30 2895 O 444.607 3.02071 8.21205 0
M  V30 2896 C 445.097 3.73047 5.97036 0
M  V30 2897 C 444.387 2.58828 5.25741 0
M  V30 2898 N 444.437 2.68068 3.77503 0
M  V30 2899 C 444.357 3.79715 2.96723 0
M  V30 2900 N 444.437 3.5377 1.68852 0
M  V30 2901 C 444.577 2.15054 1.63254 0
M  V30 2902 C 444.707 1.28964 0.518571 0
M  V30 2903 O 444.727 1.56826 -0.679156 0
M  V30 2904 N 444.827 -0.0538097 0.918425 0
M  V30 2905 C 444.827 -0.494275 2.22578 0
M  V30 2906 N 444.957 -1.81086 2.40434 0
M  V30 2907 N 444.697 0.313645 3.27502 0
M  V30 2908 C 444.577 1.61829 2.91033 0
M  V30 2909 H 441.598 5.40332 6.79951 0
M  V30 2910 H 441.328 4.41613 5.32378 0
M  V30 2911 H 442.195 3.26331 7.47797 0
M  V30 2912 H 444.85 1.63422 5.56814 0
M  V30 2913 H 445.129 4.63374 5.34244 0
M  V30 2914 H 446.121 3.44728 6.25838 0
M  V30 2915 H 444.287 4.96652 7.57263 0
M  V30 2916 H 444.238 4.80617 3.3614 0
M  V30 2917 H 444.92 -0.742702 0.199384 0
M  V30 2918 H 444.957 -2.20598 3.35588 0
M  V30 2919 H 445.058 -2.43518 1.58945 0
M  V30 2920 P 446.157 2.75334 8.47391 0
M  V30 2921 O 446.377 2.44571 9.90142 0
M  V30 2922 O 446.947 3.87688 7.92115 0
M  V30 2923 O 446.407 1.4459 7.59357 0
M  V30 2924 C 445.467 0.347608 7.69215 0
M  V30 2925 C 446.197 -0.96767 7.52806 0
M  V30 2926 O 446.407 -1.21036 6.1011 0
M  V30 2927 C 447.597 -1.04544 8.13308 0
M  V30 2928 O 447.987 -2.38311 8.41922 0
M  V30 2929 C 448.477 -0.491279 7.02284 0
M  V30 2930 C 447.767 -0.996264 5.77469 0
M  V30 2931 N 447.817 -0.0501916 4.62973 0
M  V30 2932 C 447.737 1.32786 4.63244 0
M  V30 2933 N 447.817 1.86957 3.44545 0
M  V30 2934 C 447.957 0.780241 2.58481 0
M  V30 2935 C 448.087 0.738536 1.17757 0
M  V30 2936 O 448.107 1.66794 0.372349 0
M  V30 2937 N 448.207 -0.58337 0.711393 0
M  V30 2938 C 448.207 -1.70816 1.51017 0
M  V30 2939 N 448.337 -2.87826 0.880757 0
M  V30 2940 N 448.077 -1.67126 2.8339 0
M  V30 2941 C 447.957 -0.401421 3.30572 0
M  V30 2942 H 444.978 0.374722 8.67691 0
M  V30 2943 H 444.708 0.443485 6.90277 0
M  V30 2944 H 445.575 -1.75537 7.96793 0
M  V30 2945 H 448.23 -1.95076 5.46529 0
M  V30 2946 H 448.509 0.608565 7.04577 0
M  V30 2947 H 449.501 -0.889672 7.08939 0
M  V30 2948 H 447.667 -0.43308 9.04564 0
M  V30 2949 H 447.618 1.91249 5.54442 0
M  V30 2950 H 448.3 -0.718054 -0.275244 0
M  V30 2951 H 448.337 -3.75721 1.41832 0
M  V30 2952 H 448.438 -2.90436 -0.145468 0
M  V30 2953 P 449.537 -2.75334 8.47391 0
M  V30 2954 O 449.757 -3.84204 9.44982 0
M  V30 2955 O 450.327 -1.51982 8.68909 0
M  V30 2956 O 449.787 -3.29363 6.99321 0
M  V30 2957 C 448.847 -4.24066 6.42823 0
M  V30 2958 C 449.577 -5.20775 5.52155 0
M  V30 2959 O 449.787 -4.56607 4.22514 0
M  V30 2960 C 450.977 -5.62697 5.96604 0
M  V30 2961 O 451.367 -6.87667 5.41053 0
M  V30 2962 C 451.857 -4.52537 5.39283 0
M  V30 2963 C 451.147 -4.20027 4.08623 0
M  V30 2964 N 451.197 -2.76189 3.71603 0
M  V30 2965 C 451.117 -1.66944 4.54297 0
M  V30 2966 N 451.187 -0.536169 3.91344 0
M  V30 2967 C 451.337 -0.901569 2.58849 0
M  V30 2968 C 451.467 -0.146599 1.40236 0
M  V30 2969 N 451.477 1.18234 1.37046 0
M  V30 2970 N 451.587 -0.822941 0.249738 0
M  V30 2971 C 451.577 -2.15179 0.280525 0
M  V30 2972 N 451.457 -2.96414 1.30822 0
M  V30 2973 C 451.337 -2.25804 2.44748 0
M  V30 2974 H 448.359 -4.79756 7.24086 0
M  V30 2975 H 448.087 -3.69963 5.84682 0
M  V30 2976 H 448.955 -6.10431 5.41508 0
M  V30 2977 H 451.61 -4.78816 3.28024 0
M  V30 2978 H 451.89 -3.64957 6.05871 0
M  V30 2979 H 452.881 -4.88748 5.21323 0
M  V30 2980 H 451.047 -5.66789 7.0643 0
M  V30 2981 H 451.006 -1.74684 5.62396 0
M  V30 2982 H 451.387 1.71949 2.24394 0
M  V30 2983 H 451.576 1.67511 0.470742 0
M  V30 2984 H 451.684 -2.63704 -0.6828 0
M  V30 2985 P 452.917 -7.20834 5.23717 0
M  V30 2986 O 453.137 -8.66104 5.38572 0
M  V30 2987 O 453.707 -6.33544 6.1349 0
M  V30 2988 O 453.167 -6.7751 3.72168 0
M  V30 2989 C 452.227 -7.20825 2.7076 0
M  V30 2990 C 452.957 -7.45864 1.40599 0
M  V30 2991 O 453.167 -6.17651 0.734225 0
M  V30 2992 C 454.357 -8.05808 1.51899 0
M  V30 2993 O 454.747 -8.74358 0.335205 0
M  V30 2994 C 455.237 -6.83093 1.70294 0
M  V30 2995 C 454.527 -5.79992 0.836974 0
M  V30 2996 N 454.577 -4.41864 1.38293 0
M  V30 2997 H 451.738 -8.13644 3.0377 0
M  V30 2998 H 451.468 -6.42788 2.55485 0
M  V30 2999 H 452.335 -8.12039 0.792769 0
M  V30 3000 P 456.297 -8.91 -2.59788e-12 0
M  V30 3001 O 456.517 -10.1746 -0.733838 0
M  V30 3002 O 457.087 -8.73346 1.23964 0
M  V30 3003 O 456.547 -7.66872 -0.971405 0
M  V30 3004 C 455.607 -7.42405 -2.04668 0
M  V30 3005 C 456.337 -6.86059 -3.24661 0
M  V30 3006 O 456.547 -5.42934 -3.03695 0
M  V30 3007 C 457.737 -7.41287 -3.50796 0
M  V30 3008 O 458.127 -7.27073 -4.86816 0
M  V30 3009 C 458.617 -6.5273 -2.63741 0
M  V30 3010 C 457.907 -5.1842 -2.73198 0
M  V30 3011 N 457.957 -4.38762 -1.4784 0
M  V30 3012 H 455.119 -8.36899 -2.3252 0
M  V30 3013 H 454.847 -6.70391 -1.71179 0
M  V30 3014 H 455.715 -7.03638 -4.13219 0
M  V30 3015 H 458.37 -4.59931 -3.54016 0
M  V30 3016 H 458.65 -6.88995 -1.59871 0
M  V30 3017 H 459.641 -6.4684 -3.0373 0
M  V30 3018 H 457.807 -8.47002 -3.20749 0
M  V30 3019 P 459.677 -7.20834 -5.23717 0
M  V30 3020 O 459.897 -7.80006 -6.57415 0
M  V30 3021 O 460.467 -7.79416 -4.13051 0
M  V30 3022 O 459.927 -5.63315 -5.29344 0
M  V30 3023 C 458.987 -4.80318 -6.01954 0
M  V30 3024 C 459.717 -3.64202 -6.65911 0
M  V30 3025 O 459.927 -2.60736 -5.64823 0
M  V30 3026 C 461.117 -3.93521 -7.19518 0
M  V30 3027 O 461.507 -3.02071 -8.21205 0
M  V30 3028 C 461.997 -3.73047 -5.97036 0
M  V30 3029 C 461.287 -2.58828 -5.25741 0
M  V30 3030 N 461.337 -2.68068 -3.77503 0
M  V30 3031 C 461.257 -3.80474 -2.99159 0
M  V30 3032 N 461.327 -3.55622 -1.71925 0
M  V30 3033 C 461.477 -2.1832 -1.65733 0
M  V30 3034 C 461.607 -1.28842 -0.572777 0
M  V30 3035 N 461.617 -1.66875 0.70098 0
M  V30 3036 N 461.727 0.016788 -0.859836 0
M  V30 3037 C 461.717 0.398145 -2.13316 0
M  V30 3038 N 461.597 -0.328224 -3.22333 0
M  V30 3039 C 461.477 -1.62992 -2.90383 0
M  V30 3040 H 458.499 -5.40394 -6.8003 0
M  V30 3041 H 458.227 -4.41741 -5.32532 0
M  V30 3042 H 459.095 -3.26371 -7.47889 0
M  V30 3043 H 461.75 -1.64007 -5.56746 0
M  V30 3044 H 462.03 -4.63439 -5.3432 0
M  V30 3045 H 463.021 -3.44776 -6.25925 0
M  V30 3046 H 461.187 -4.96707 -7.57347 0
M  V30 3047 H 461.146 -4.8089 -3.39924 0
M  V30 3048 H 461.527 -2.66547 0.941919 0
M  V30 3049 H 461.716 -0.965341 1.44766 0
M  V30 3050 H 461.824 1.46427 -2.29697 0
M  V30 3051 P 463.057 -2.75334 -8.47391 0
M  V30 3052 O 463.277 -2.44571 -9.90142 0
M  V30 3053 O 463.847 -3.87688 -7.92115 0
M  V30 3054 O 463.307 -1.4459 -7.59357 0
M  V30 3055 C 462.367 -0.347608 -7.69215 0
M  V30 3056 C 463.097 0.96767 -7.52806 0
M  V30 3057 O 463.307 1.21036 -6.1011 0
M  V30 3058 C 464.497 1.04544 -8.13308 0
M  V30 3059 O 464.887 2.38311 -8.41922 0
M  V30 3060 C 465.377 0.491279 -7.02284 0
M  V30 3061 C 464.667 0.996264 -5.77469 0
M  V30 3062 N 464.717 0.0501916 -4.62973 0
M  V30 3063 H 461.878 -0.374722 -8.67691 0
M  V30 3064 H 461.608 -0.443485 -6.90277 0
M  V30 3065 H 462.475 1.75537 -7.96793 0
M  V30 3066 P 466.437 2.75334 -8.47391 0
M  V30 3067 O 466.657 3.84128 -9.44797 0
M  V30 3068 O 467.227 1.51947 -8.68712 0
M  V30 3069 O 466.687 3.29363 -6.99321 0
M  V30 3070 C 465.747 4.24011 -6.4274 0
M  V30 3071 C 466.477 5.20775 -5.52155 0
M  V30 3072 O 466.687 4.56534 -4.22446 0
M  V30 3073 C 467.877 5.62629 -5.96531 0
M  V30 3074 O 468.267 6.87667 -5.41053 0
M  V30 3075 C 468.757 4.52537 -5.39283 0
M  V30 3076 C 468.047 4.20027 -4.08623 0
M  V30 3077 N 468.097 2.76189 -3.71603 0
M  V30 3078 H 465.258 4.797 -7.24003 0
M  V30 3079 H 464.988 3.69856 -5.84513 0
M  V30 3080 H 465.855 6.10356 -5.41441 0
M  V30 3081 P 469.817 7.20834 -5.23717 0
M  V30 3082 O 470.037 8.66104 -5.38572 0
M  V30 3083 O 470.607 6.33544 -6.1349 0
M  V30 3084 O 470.067 6.7751 -3.72168 0
M  V30 3085 C 469.127 7.20825 -2.7076 0
M  V30 3086 C 469.857 7.45864 -1.40599 0
M  V30 3087 O 470.067 6.17651 -0.734225 0
M  V30 3088 C 471.257 8.05808 -1.51899 0
M  V30 3089 O 471.647 8.74358 -0.335205 0
M  V30 3090 C 472.137 6.83093 -1.70294 0
M  V30 3091 C 471.427 5.79992 -0.836974 0
M  V30 3092 N 471.477 4.41864 -1.38293 0
M  V30 3093 C 471.397 3.99538 -2.69438 0
M  V30 3094 N 471.477 2.69909 -2.84277 0
M  V30 3095 C 471.617 2.21719 -1.5408 0
M  V30 3096 C 471.747 0.891712 -1.06628 0
M  V30 3097 O 471.767 -0.161298 -1.70137 0
M  V30 3098 N 471.867 0.856846 0.334985 0
M  V30 3099 C 471.867 1.9641 1.15789 0
M  V30 3100 N 471.997 1.72708 2.46522 0
M  V30 3101 N 471.737 3.21165 0.713741 0
M  V30 3102 C 471.617 3.26797 -0.639748 0
M  V30 3103 H 468.638 8.13644 -3.0377 0
M  V30 3104 H 468.368 6.42788 -2.55485 0
M  V30 3105 H 469.235 8.12039 -0.792769 0
M  V30 3106 H 471.89 5.80061 0.166416 0
M  V30 3107 H 472.169 6.51287 -2.75604 0
M  V30 3108 H 473.161 7.01734 -1.34462 0
M  V30 3109 H 471.327 8.73674 -2.38337 0
M  V30 3110 H 471.278 4.68207 -3.53221 0
M  V30 3111 H 471.96 -0.0398818 0.767965 0
M  V30 3112 H 471.997 2.50995 3.13503 0
M  V30 3113 H 472.098 0.759148 2.80716 0
M  V30 3114 P 473.197 8.91 2.75506e-12 0
M  V30 3115 O 473.417 10.1726 0.733694 0
M  V30 3116 O 473.987 8.73148 -1.23936 0
M  V30 3117 O 473.447 7.66872 0.971405 0
M  V30 3118 C 472.507 7.42309 2.04641 0
M  V30 3119 C 473.237 6.86059 3.24661 0
M  V30 3120 O 473.447 5.42847 3.03646 0
M  V30 3121 C 474.637 7.41196 3.50753 0
M  V30 3122 O 475.027 7.27073 4.86816 0
M  V30 3123 C 475.517 6.5273 2.63741 0
M  V30 3124 C 474.807 5.1842 2.73198 0
M  V30 3125 N 474.857 4.38762 1.4784 0
M  V30 3126 H 472.018 8.36803 2.32493 0
M  V30 3127 H 471.748 6.70197 1.71129 0
M  V30 3128 H 472.615 7.03551 4.13168 0
M  V30 3129 P 476.577 7.20834 5.23717 0
M  V30 3130 O 476.797 7.79853 6.57286 0
M  V30 3131 O 477.367 7.79239 4.12957 0
M  V30 3132 O 476.827 5.63315 5.29344 0
M  V30 3133 C 475.887 4.80255 6.01876 0
M  V30 3134 C 476.617 3.64202 6.65911 0
M  V30 3135 O 476.827 2.60694 5.64732 0
M  V30 3136 C 478.017 3.93473 7.1943 0
M  V30 3137 O 478.407 3.02071 8.21205 0
M  V30 3138 C 478.897 3.73047 5.97036 0
M  V30 3139 C 478.187 2.58828 5.25741 0
M  V30 3140 N 478.237 2.68068 3.77503 0
M  V30 3141 H 475.398 5.40332 6.79951 0
M  V30 3142 H 475.128 4.41613 5.32378 0
M  V30 3143 H 475.995 3.26331 7.47797 0
M  V30 3144 P 479.957 2.75334 8.47391 0
M  V30 3145 O 480.177 2.44571 9.90142 0
M  V30 3146 O 480.747 3.87688 7.92115 0
M  V30 3147 O 480.207 1.4459 7.59357 0
M  V30 3148 C 479.267 0.347608 7.69215 0
M  V30 3149 C 479.997 -0.96767 7.52806 0
M  V30 3150 O 480.207 -1.21036 6.1011 0
M  V30 3151 C 481.397 -1.04544 8.13308 0
M  V30 3152 O 481.787 -2.38311 8.41922 0
M  V30 3153 C 482.277 -0.491279 7.02284 0
M  V30 3154 C 481.567 -0.996264 5.77469 0
M  V30 3155 N 481.617 -0.0501916 4.62973 0
M  V30 3156 H 478.778 0.374722 8.67691 0
M  V30 3157 H 478.508 0.443485 6.90277 0
M  V30 3158 H 479.375 -1.75537 7.96793 0
M  V30 3159 P 483.337 -2.75334 8.47391 0
M  V30 3160 O 483.557 -3.84166 9.4489 0
M  V30 3161 O 484.127 -1.51964 8.6881 0
M  V30 3162 O 483.587 -3.29363 6.99321 0
M  V30 3163 C 482.647 -4.23956 6.42656 0
M  V30 3164 C 483.377 -5.20775 5.52155 0
M  V30 3165 O 483.587 -4.56534 4.22446 0
M  V30 3166 C 484.777 -5.62629 5.96531 0
M  V30 3167 O 485.167 -6.87667 5.41053 0
M  V30 3168 C 485.657 -4.52537 5.39283 0
M  V30 3169 C 484.947 -4.20027 4.08623 0
M  V30 3170 N 484.997 -2.7613 3.71522 0
M  V30 3171 C 485.147 -2.45612 2.37989 0
M  V30 3172 O 485.237 -3.30919 1.51621 0
M  V30 3173 N 485.187 -1.10684 2.08435 0
M  V30 3174 C 485.097 -0.0690084 2.9792 0
M  V30 3175 O 485.147 1.10553 2.59426 0
M  V30 3176 C 484.947 -0.481522 4.35345 0
M  V30 3177 C 484.837 0.618778 5.36443 0
M  V30 3178 C 484.897 -1.78906 4.67968 0
M  V30 3179 H 482.157 -4.797 7.24003 0
M  V30 3180 H 481.888 -3.69802 5.84429 0
M  V30 3181 H 482.755 -6.10356 5.41441 0
M  V30 3182 H 485.41 -4.78651 3.27911 0
M  V30 3183 H 485.689 -3.64957 6.05871 0
M  V30 3184 H 486.681 -4.8868 5.2125 0
M  V30 3185 H 484.847 -5.66726 7.06352 0
M  V30 3186 H 484.776 -2.07737 5.72367 0
M  V30 3187 H 485.806 0.754375 5.86871 0
M  V30 3188 H 484.069 0.359721 6.10641 0
M  V30 3189 H 484.557 1.55533 4.8581 0
M  V30 3190 H 485.293 -0.862651 1.12037 0
M  V30 3191 P 486.717 -7.20834 5.23717 0
M  V30 3192 O 486.937 -8.66104 5.38572 0
M  V30 3193 O 487.507 -6.33544 6.1349 0
M  V30 3194 O 486.967 -6.7751 3.72168 0
M  V30 3195 C 486.027 -7.20825 2.7076 0
M  V30 3196 C 486.757 -7.45864 1.40599 0
M  V30 3197 O 486.967 -6.17651 0.734225 0
M  V30 3198 C 488.157 -8.05808 1.51899 0
M  V30 3199 O 488.547 -8.74358 0.335205 0
M  V30 3200 C 489.037 -6.83093 1.70294 0
M  V30 3201 C 488.327 -5.79992 0.836974 0
M  V30 3202 N 488.377 -4.41864 1.38293 0
M  V30 3203 H 485.538 -8.13644 3.0377 0
M  V30 3204 H 485.268 -6.42788 2.55485 0
M  V30 3205 H 486.135 -8.12039 0.792769 0
M  V30 3206 P 490.097 -8.91 -2.91224e-12 0
M  V30 3207 O 490.317 -10.1736 -0.733766 0
M  V30 3208 O 490.887 -8.73247 1.2395 0
M  V30 3209 O 490.347 -7.66872 -0.971405 0
M  V30 3210 C 489.407 -7.42212 -2.04614 0
M  V30 3211 C 490.137 -6.86059 -3.24661 0
M  V30 3212 O 490.347 -5.42847 -3.03646 0
M  V30 3213 C 491.537 -7.41196 -3.50753 0
M  V30 3214 O 491.927 -7.27073 -4.86816 0
M  V30 3215 C 492.417 -6.5273 -2.63741 0
M  V30 3216 C 491.707 -5.1842 -2.73198 0
M  V30 3217 N 491.757 -4.38668 -1.47808 0
M  V30 3218 C 491.907 -3.02239 -1.60048 0
M  V30 3219 O 491.997 -2.46459 -2.67869 0
M  V30 3220 N 491.947 -2.32436 -0.408571 0
M  V30 3221 C 491.857 -2.85471 0.854993 0
M  V30 3222 O 491.907 -2.12566 1.8531 0
M  V30 3223 C 491.707 -4.28918 0.887335 0
M  V30 3224 C 491.597 -4.91066 2.24619 0
M  V30 3225 C 491.657 -5.00349 -0.255399 0
M  V30 3226 H 488.917 -8.36803 -2.32493 0
M  V30 3227 H 488.648 -6.701 -1.71105 0
M  V30 3228 H 489.515 -7.03551 -4.13168 0
M  V30 3229 H 492.17 -4.59773 -3.53894 0
M  V30 3230 H 492.449 -6.88995 -1.59871 0
M  V30 3231 H 493.441 -6.46749 -3.03687 0
M  V30 3232 H 491.607 -8.46908 -3.20714 0
M  V30 3233 H 491.536 -6.08548 -0.206986 0
M  V30 3234 H 492.566 -5.34836 2.53099 0
M  V30 3235 H 490.829 -5.69638 2.2291 0
M  V30 3236 H 491.317 -4.13971 2.98044 0
M  V30 3237 H 492.053 -1.33211 -0.474216 0
M  V30 3238 P 493.477 -7.20834 -5.23717 0
M  V30 3239 O 493.697 -7.79853 -6.57286 0
M  V30 3240 O 494.267 -7.79239 -4.12957 0
M  V30 3241 O 493.727 -5.63315 -5.29344 0
M  V30 3242 C 492.787 -4.80255 -6.01876 0
M  V30 3243 C 493.517 -3.64202 -6.65911 0
M  V30 3244 O 493.727 -2.60694 -5.64732 0
M  V30 3245 C 494.917 -3.93473 -7.1943 0
M  V30 3246 O 495.307 -3.02071 -8.21205 0
M  V30 3247 C 495.797 -3.73047 -5.97036 0
M  V30 3248 C 495.087 -2.58828 -5.25741 0
M  V30 3249 N 495.137 -2.68068 -3.77503 0
M  V30 3250 H 492.298 -5.40332 -6.79951 0
M  V30 3251 H 492.028 -4.41613 -5.32378 0
M  V30 3252 H 492.895 -3.26331 -7.47797 0
M  V30 3253 P 496.857 -2.75334 -8.47391 0
M  V30 3254 O 497.077 -2.44571 -9.90142 0
M  V30 3255 O 497.647 -3.87688 -7.92115 0
M  V30 3256 O 497.107 -1.4459 -7.59357 0
M  V30 3257 C 496.167 -0.347608 -7.69215 0
M  V30 3258 C 496.897 0.96767 -7.52806 0
M  V30 3259 O 497.107 1.21036 -6.1011 0
M  V30 3260 C 498.297 1.04544 -8.13308 0
M  V30 3261 O 498.687 2.38311 -8.41922 0
M  V30 3262 C 499.177 0.491279 -7.02284 0
M  V30 3263 C 498.467 0.996264 -5.77469 0
M  V30 3264 N 498.517 0.0501916 -4.62973 0
M  V30 3265 H 495.678 -0.374722 -8.67691 0
M  V30 3266 H 495.408 -0.443485 -6.90277 0
M  V30 3267 H 496.275 1.75537 -7.96793 0
M  V30 3268 P 500.237 2.75334 -8.47391 0
M  V30 3269 O 500.457 3.84204 -9.44982 0
M  V30 3270 O 501.027 1.51982 -8.68909 0
M  V30 3271 O 500.487 3.29363 -6.99321 0
M  V30 3272 C 499.547 4.24066 -6.42823 0
M  V30 3273 C 500.277 5.20775 -5.52155 0
M  V30 3274 O 500.487 4.56607 -4.22514 0
M  V30 3275 C 501.677 5.62697 -5.96604 0
M  V30 3276 O 502.067 6.87667 -5.41053 0
M  V30 3277 C 502.557 4.52537 -5.39283 0
M  V30 3278 C 501.847 4.20027 -4.08623 0
M  V30 3279 N 501.897 2.76189 -3.71603 0
M  V30 3280 H 499.059 4.79756 -7.24086 0
M  V30 3281 H 498.787 3.69963 -5.84682 0
M  V30 3282 H 499.655 6.10431 -5.41508 0
M  V30 3283 H 502.31 4.78816 -3.28024 0
M  V30 3284 H 502.59 3.64957 -6.05871 0
M  V30 3285 H 503.581 4.88748 -5.21323 0
M  V30 3286 H 501.747 5.66789 -7.0643 0
M  V30 3287 P 503.617 7.20834 -5.23717 0
M  V30 3288 O 503.837 8.66104 -5.38572 0
M  V30 3289 O 504.407 6.33544 -6.1349 0
M  V30 3290 O 503.867 6.7751 -3.72168 0
M  V30 3291 C 502.927 7.20825 -2.7076 0
M  V30 3292 C 503.657 7.45864 -1.40599 0
M  V30 3293 O 503.867 6.17651 -0.734225 0
M  V30 3294 C 505.057 8.05808 -1.51899 0
M  V30 3295 O 505.447 8.74358 -0.335205 0
M  V30 3296 C 505.937 6.83093 -1.70294 0
M  V30 3297 C 505.227 5.79992 -0.836974 0
M  V30 3298 N 505.277 4.41864 -1.38293 0
M  V30 3299 H 502.438 8.13644 -3.0377 0
M  V30 3300 H 502.168 6.42788 -2.55485 0
M  V30 3301 H 503.035 8.12039 -0.792769 0
M  V30 3302 P 506.997 8.91 3.06942e-12 0
M  V30 3303 O 507.217 10.1736 0.733766 0
M  V30 3304 O 507.787 8.73247 -1.2395 0
M  V30 3305 O 507.247 7.66872 0.971405 0
M  V30 3306 C 506.307 7.42212 2.04614 0
M  V30 3307 C 507.037 6.86059 3.24661 0
M  V30 3308 O 507.247 5.42847 3.03646 0
M  V30 3309 C 508.437 7.41196 3.50753 0
M  V30 3310 O 508.827 7.27073 4.86816 0
M  V30 3311 C 509.317 6.5273 2.63741 0
M  V30 3312 C 508.607 5.1842 2.73198 0
M  V30 3313 N 508.657 4.38668 1.47808 0
M  V30 3314 C 508.807 3.02239 1.60048 0
M  V30 3315 O 508.897 2.46459 2.67869 0
M  V30 3316 N 508.847 2.32436 0.408571 0
M  V30 3317 C 508.757 2.85471 -0.854993 0
M  V30 3318 C 508.607 4.28918 -0.887335 0
M  V30 3319 C 508.557 5.00349 0.255399 0
M  V30 3320 H 505.817 8.36803 2.32493 0
M  V30 3321 H 505.548 6.701 1.71105 0
M  V30 3322 H 506.415 7.03551 4.13168 0
M  V30 3323 H 509.07 4.59773 3.53894 0
M  V30 3324 H 509.349 6.88995 1.59871 0
M  V30 3325 H 510.341 6.46749 3.03687 0
M  V30 3326 H 508.507 8.46908 3.20714 0
M  V30 3327 H 508.436 6.08548 0.206986 0
M  V30 3328 P 510.377 7.20834 5.23717 0
M  V30 3329 O 510.597 7.79853 6.57286 0
M  V30 3330 O 511.167 7.79239 4.12957 0
M  V30 3331 O 510.627 5.63315 5.29344 0
M  V30 3332 C 509.687 4.80255 6.01876 0
M  V30 3333 C 510.417 3.64202 6.65911 0
M  V30 3334 O 510.627 2.60694 5.64732 0
M  V30 3335 C 511.817 3.93473 7.1943 0
M  V30 3336 O 512.207 3.02071 8.21205 0
M  V30 3337 C 512.697 3.73047 5.97036 0
M  V30 3338 C 511.987 2.58828 5.25741 0
M  V30 3339 N 512.037 2.68068 3.77503 0
M  V30 3340 H 509.198 5.40332 6.79951 0
M  V30 3341 H 508.928 4.41613 5.32378 0
M  V30 3342 H 509.795 3.26331 7.47797 0
M  V30 3343 P 513.757 2.75334 8.47391 0
M  V30 3344 O 513.977 2.44571 9.90142 0
M  V30 3345 O 514.547 3.87688 7.92115 0
M  V30 3346 O 514.007 1.4459 7.59357 0
M  V30 3347 C 513.067 0.347608 7.69215 0
M  V30 3348 C 513.797 -0.96767 7.52806 0
M  V30 3349 O 514.007 -1.21036 6.1011 0
M  V30 3350 C 515.197 -1.04544 8.13308 0
M  V30 3351 O 515.587 -2.38311 8.41922 0
M  V30 3352 C 516.077 -0.491279 7.02284 0
M  V30 3353 C 515.367 -0.996264 5.77469 0
M  V30 3354 N 515.417 -0.0501916 4.62973 0
M  V30 3355 H 512.578 0.374722 8.67691 0
M  V30 3356 H 512.308 0.443485 6.90277 0
M  V30 3357 H 513.175 -1.75537 7.96793 0
M  V30 3358 P 517.137 -2.75334 8.47391 0
M  V30 3359 O 517.357 -3.84128 9.44797 0
M  V30 3360 O 517.927 -1.51947 8.68712 0
M  V30 3361 O 517.387 -3.29363 6.99321 0
M  V30 3362 C 516.447 -4.24011 6.4274 0
M  V30 3363 C 517.177 -5.20775 5.52155 0
M  V30 3364 O 517.387 -4.56534 4.22446 0
M  V30 3365 C 518.577 -5.62629 5.96531 0
M  V30 3366 O 518.967 -6.87667 5.41053 0
M  V30 3367 C 519.457 -4.52537 5.39283 0
M  V30 3368 C 518.747 -4.20027 4.08623 0
M  V30 3369 N 518.797 -2.76189 3.71603 0
M  V30 3370 H 515.958 -4.797 7.24003 0
M  V30 3371 H 515.688 -3.69856 5.84513 0
M  V30 3372 H 516.555 -6.10356 5.41441 0
M  V30 3373 P 520.517 -7.20834 5.23717 0
M  V30 3374 O 520.737 -8.66104 5.38572 0
M  V30 3375 O 521.307 -6.33544 6.1349 0
M  V30 3376 O 520.767 -6.7751 3.72168 0
M  V30 3377 C 519.827 -7.20825 2.7076 0
M  V30 3378 C 520.557 -7.45864 1.40599 0
M  V30 3379 O 520.767 -6.17651 0.734225 0
M  V30 3380 C 521.957 -8.05808 1.51899 0
M  V30 3381 O 522.347 -8.74358 0.335205 0
M  V30 3382 C 522.837 -6.83093 1.70294 0
M  V30 3383 C 522.127 -5.79992 0.836974 0
M  V30 3384 N 522.177 -4.41864 1.38293 0
M  V30 3385 H 519.338 -8.13644 3.0377 0
M  V30 3386 H 519.068 -6.42788 2.55485 0
M  V30 3387 H 519.935 -8.12039 0.792769 0
M  V30 3388 P 523.897 -8.91 -3.22661e-12 0
M  V30 3389 O 524.117 -10.1746 -0.733838 0
M  V30 3390 O 524.687 -8.73346 1.23964 0
M  V30 3391 O 524.147 -7.66872 -0.971405 0
M  V30 3392 C 523.207 -7.42405 -2.04668 0
M  V30 3393 C 523.937 -6.86059 -3.24661 0
M  V30 3394 O 524.147 -5.42934 -3.03695 0
M  V30 3395 C 525.337 -7.41287 -3.50796 0
M  V30 3396 O 525.727 -7.27073 -4.86816 0
M  V30 3397 C 526.217 -6.5273 -2.63741 0
M  V30 3398 C 525.507 -5.1842 -2.73198 0
M  V30 3399 N 525.557 -4.38762 -1.4784 0
M  V30 3400 H 522.719 -8.36899 -2.3252 0
M  V30 3401 H 522.447 -6.70391 -1.71179 0
M  V30 3402 H 523.315 -7.03638 -4.13219 0
M  V30 3403 H 525.97 -4.59931 -3.54016 0
M  V30 3404 H 526.25 -6.88995 -1.59871 0
M  V30 3405 H 527.241 -6.4684 -3.0373 0
M  V30 3406 H 525.407 -8.47002 -3.20749 0
M  V30 3407 P 527.277 -7.20834 -5.23717 0
M  V30 3408 O 527.497 -7.79853 -6.57286 0
M  V30 3409 O 528.067 -7.79239 -4.12957 0
M  V30 3410 O 527.527 -5.63315 -5.29344 0
M  V30 3411 C 526.587 -4.80255 -6.01876 0
M  V30 3412 C 527.317 -3.64202 -6.65911 0
M  V30 3413 O 527.527 -2.60694 -5.64732 0
M  V30 3414 C 528.717 -3.93473 -7.1943 0
M  V30 3415 O 529.107 -3.02071 -8.21205 0
M  V30 3416 C 529.597 -3.73047 -5.97036 0
M  V30 3417 C 528.887 -2.58828 -5.25741 0
M  V30 3418 N 528.937 -2.68068 -3.77503 0
M  V30 3419 H 526.098 -5.40332 -6.79951 0
M  V30 3420 H 525.828 -4.41613 -5.32378 0
M  V30 3421 H 526.695 -3.26331 -7.47797 0
M  V30 3422 P 530.657 -2.75334 -8.47391 0
M  V30 3423 O 530.877 -2.44571 -9.90142 0
M  V30 3424 O 531.447 -3.87688 -7.92115 0
M  V30 3425 O 530.907 -1.4459 -7.59357 0
M  V30 3426 C 529.967 -0.347608 -7.69215 0
M  V30 3427 C 530.697 0.96767 -7.52806 0
M  V30 3428 O 530.907 1.21036 -6.1011 0
M  V30 3429 C 532.097 1.04544 -8.13308 0
M  V30 3430 O 532.487 2.38311 -8.41922 0
M  V30 3431 C 532.977 0.491279 -7.02284 0
M  V30 3432 C 532.267 0.996264 -5.77469 0
M  V30 3433 N 532.317 0.0501916 -4.62973 0
M  V30 3434 H 529.478 -0.374722 -8.67691 0
M  V30 3435 H 529.208 -0.443485 -6.90277 0
M  V30 3436 H 530.075 1.75537 -7.96793 0
M  V30 3437 P 534.037 2.75334 -8.47391 0
M  V30 3438 O 534.257 3.84204 -9.44982 0
M  V30 3439 O 534.827 1.51982 -8.68909 0
M  V30 3440 O 534.287 3.29363 -6.99321 0
M  V30 3441 C 533.347 4.24066 -6.42823 0
M  V30 3442 C 534.077 5.20775 -5.52155 0
M  V30 3443 O 534.287 4.56607 -4.22514 0
M  V30 3444 C 535.477 5.62697 -5.96604 0
M  V30 3445 O 535.867 6.87667 -5.41053 0
M  V30 3446 C 536.357 4.52537 -5.39283 0
M  V30 3447 C 535.647 4.20027 -4.08623 0
M  V30 3448 N 535.697 2.76189 -3.71603 0
M  V30 3449 H 532.859 4.79756 -7.24086 0
M  V30 3450 H 532.587 3.69963 -5.84682 0
M  V30 3451 H 533.455 6.10431 -5.41508 0
M  V30 3452 H 536.11 4.78816 -3.28024 0
M  V30 3453 H 536.39 3.64957 -6.05871 0
M  V30 3454 H 537.381 4.88748 -5.21323 0
M  V30 3455 H 535.547 5.66789 -7.0643 0
M  V30 3456 P 537.417 7.20834 -5.23717 0
M  V30 3457 O 537.637 8.66274 -5.38678 0
M  V30 3458 O 538.207 6.33687 -6.13629 0
M  V30 3459 O 537.667 6.7751 -3.72168 0
M  V30 3460 C 536.727 7.20919 -2.70795 0
M  V30 3461 C 537.457 7.45864 -1.40599 0
M  V30 3462 O 537.667 6.17751 -0.734343 0
M  V30 3463 C 538.857 8.05906 -1.51917 0
M  V30 3464 O 539.247 8.74358 -0.335205 0
M  V30 3465 C 539.737 6.83093 -1.70294 0
M  V30 3466 C 539.027 5.79992 -0.836974 0
M  V30 3467 N 539.077 4.41864 -1.38293 0
M  V30 3468 C 538.997 4.02089 -2.69407 0
M  V30 3469 N 539.067 2.73403 -2.85089 0
M  V30 3470 C 539.217 2.25086 -1.5642 0
M  V30 3471 C 539.347 0.942887 -1.04836 0
M  V30 3472 N 539.357 -0.150999 -1.80369 0
M  V30 3473 N 539.467 0.812565 0.28167 0
M  V30 3474 C 539.457 1.90572 1.03784 0
M  V30 3475 N 539.337 3.167 0.683905 0
M  V30 3476 C 539.217 3.26538 -0.652815 0
M  V30 3477 H 536.239 8.13738 -3.03804 0
M  V30 3478 H 535.967 6.42974 -2.55559 0
M  V30 3479 H 536.835 8.12139 -0.792866 0
M  V30 3480 H 539.49 5.80178 0.160643 0
M  V30 3481 H 539.77 6.51379 -2.75643 0
M  V30 3482 H 540.761 7.01832 -1.3448 0
M  V30 3483 H 538.927 8.73771 -2.38364 0
M  V30 3484 H 538.886 4.7189 -3.52311 0
M  V30 3485 H 539.267 -0.0721434 -2.82608 0
M  V30 3486 H 539.456 -1.0785 -1.36544 0
M  V30 3487 H 539.564 1.73207 2.10241 0
M  V30 3488 P 540.797 8.91 3.38379e-12 0
M  V30 3489 O 541.017 10.1736 0.733766 0
M  V30 3490 O 541.587 8.73247 -1.2395 0
M  V30 3491 O 541.047 7.66872 0.971405 0
M  V30 3492 C 540.107 7.42212 2.04614 0
M  V30 3493 C 540.837 6.86059 3.24661 0
M  V30 3494 O 541.047 5.42847 3.03646 0
M  V30 3495 C 542.237 7.41196 3.50753 0
M  V30 3496 O 542.627 7.27073 4.86816 0
M  V30 3497 C 543.117 6.5273 2.63741 0
M  V30 3498 C 542.407 5.1842 2.73198 0
M  V30 3499 N 542.457 4.38668 1.47808 0
M  V30 3500 C 542.607 3.02239 1.60048 0
M  V30 3501 O 542.697 2.46459 2.67869 0
M  V30 3502 N 542.647 2.32436 0.408571 0
M  V30 3503 C 542.557 2.85471 -0.854993 0
M  V30 3504 C 542.407 4.28918 -0.887335 0
M  V30 3505 C 542.357 5.00349 0.255399 0
M  V30 3506 H 539.617 8.36803 2.32493 0
M  V30 3507 H 539.348 6.701 1.71105 0
M  V30 3508 H 540.215 7.03551 4.13168 0
M  V30 3509 H 542.87 4.59773 3.53894 0
M  V30 3510 H 543.149 6.88995 1.59871 0
M  V30 3511 H 544.141 6.46749 3.03687 0
M  V30 3512 H 542.307 8.46908 3.20714 0
M  V30 3513 H 542.236 6.08548 0.206986 0
M  V30 3514 P 544.177 7.20834 5.23717 0
M  V30 3515 O 544.397 7.79853 6.57286 0
M  V30 3516 O 544.967 7.79239 4.12957 0
M  V30 3517 O 544.427 5.63315 5.29344 0
M  V30 3518 C 543.487 4.80255 6.01876 0
M  V30 3519 C 544.217 3.64202 6.65911 0
M  V30 3520 O 544.427 2.60694 5.64732 0
M  V30 3521 C 545.617 3.93473 7.1943 0
M  V30 3522 O 546.007 3.02071 8.21205 0
M  V30 3523 C 546.497 3.73047 5.97036 0
M  V30 3524 C 545.787 2.58828 5.25741 0
M  V30 3525 N 545.837 2.68068 3.77503 0
M  V30 3526 H 542.998 5.40332 6.79951 0
M  V30 3527 H 542.728 4.41613 5.32378 0
M  V30 3528 H 543.595 3.26331 7.47797 0
M  V30 3529 P 547.557 2.75334 8.47391 0
M  V30 3530 O 547.777 2.44619 9.90336 0
M  V30 3531 O 548.347 3.87776 7.92294 0
M  V30 3532 O 547.807 1.4459 7.59357 0
M  V30 3533 C 546.867 0.347653 7.69315 0
M  V30 3534 C 547.597 -0.96767 7.52806 0
M  V30 3535 O 547.807 -1.21055 6.10208 0
M  V30 3536 C 548.997 -1.04557 8.13408 0
M  V30 3537 O 549.387 -2.38311 8.41922 0
M  V30 3538 C 549.877 -0.491279 7.02284 0
M  V30 3539 C 549.167 -0.996264 5.77469 0
M  V30 3540 N 549.217 -0.0501916 4.62973 0
M  V30 3541 H 546.379 0.374765 8.67791 0
M  V30 3542 H 546.107 0.443613 6.90476 0
M  V30 3543 H 546.975 -1.75559 7.96891 0
M  V30 3544 H 549.63 -1.94563 5.46818 0
M  V30 3545 H 549.91 0.608651 7.04676 0
M  V30 3546 H 550.901 -0.889796 7.09039 0
M  V30 3547 H 549.067 -0.433128 9.04664 0
M  V30 3548 P 550.937 -2.75334 8.47391 0
M  V30 3549 O 551.157 -3.84128 9.44797 0
M  V30 3550 O 551.727 -1.51947 8.68712 0
M  V30 3551 O 551.187 -3.29363 6.99321 0
M  V30 3552 C 550.247 -4.24011 6.4274 0
M  V30 3553 C 550.977 -5.20775 5.52155 0
M  V30 3554 O 551.187 -4.56534 4.22446 0
M  V30 3555 C 552.377 -5.62629 5.96531 0
M  V30 3556 O 552.767 -6.87667 5.41053 0
M  V30 3557 C 553.257 -4.52537 5.39283 0
M  V30 3558 C 552.547 -4.20027 4.08623 0
M  V30 3559 N 552.597 -2.76189 3.71603 0
M  V30 3560 C 552.517 -1.64862 4.52822 0
M  V30 3561 N 552.597 -0.512671 3.88633 0
M  V30 3562 C 552.737 -0.888083 2.54977 0
M  V30 3563 C 552.867 -0.094668 1.38677 0
M  V30 3564 N 552.987 -0.890102 0.232633 0
M  V30 3565 C 552.987 -2.26958 0.21772 0
M  V30 3566 N 553.117 -2.84626 -0.97925 0
M  V30 3567 N 552.857 -3.0178 1.31033 0
M  V30 3568 C 552.737 -2.26781 2.43843 0
M  V30 3569 H 549.758 -4.797 7.24003 0
M  V30 3570 H 549.488 -3.69856 5.84513 0
M  V30 3571 H 550.355 -6.10356 5.41441 0
M  V30 3572 P 554.317 -7.20834 5.23717 0
M  V30 3573 O 554.537 -8.66274 5.38678 0
M  V30 3574 O 555.107 -6.33687 6.13629 0
M  V30 3575 O 554.567 -6.7751 3.72168 0
M  V30 3576 C 553.627 -7.20919 2.70795 0
M  V30 3577 C 554.357 -7.45864 1.40599 0
M  V30 3578 O 554.567 -6.17751 0.734343 0
M  V30 3579 C 555.757 -8.05906 1.51917 0
M  V30 3580 O 556.147 -8.74358 0.335205 0
M  V30 3581 C 556.637 -6.83093 1.70294 0
M  V30 3582 C 555.927 -5.79992 0.836974 0
M  V30 3583 N 555.977 -4.41864 1.38293 0
M  V30 3584 C 555.897 -4.02089 2.69407 0
M  V30 3585 N 555.967 -2.73403 2.85089 0
M  V30 3586 C 556.117 -2.25086 1.5642 0
M  V30 3587 C 556.247 -0.942887 1.04836 0
M  V30 3588 N 556.257 0.150999 1.80369 0
M  V30 3589 N 556.367 -0.812565 -0.28167 0
M  V30 3590 C 556.357 -1.90572 -1.03784 0
M  V30 3591 N 556.237 -3.167 -0.683905 0
M  V30 3592 C 556.117 -3.26538 0.652815 0
M  V30 3593 H 553.139 -8.13738 3.03804 0
M  V30 3594 H 552.867 -6.42974 2.55559 0
M  V30 3595 H 553.735 -8.12139 0.792866 0
M  V30 3596 H 556.39 -5.80178 -0.160643 0
M  V30 3597 H 556.67 -6.51379 2.75643 0
M  V30 3598 H 557.661 -7.01832 1.3448 0
M  V30 3599 H 555.827 -8.73771 2.38364 0
M  V30 3600 H 555.786 -4.7189 3.52311 0
M  V30 3601 H 556.167 0.0721434 2.82608 0
M  V30 3602 H 556.356 1.0785 1.36544 0
M  V30 3603 H 556.464 -1.73207 -2.10241 0
M  V30 3604 P 557.697 -8.91 -3.54097e-12 0
M  V30 3605 O 557.917 -10.1746 -0.733838 0
M  V30 3606 O 558.487 -8.73346 1.23964 0
M  V30 3607 O 557.947 -7.66872 -0.971405 0
M  V30 3608 C 557.007 -7.42405 -2.04668 0
M  V30 3609 C 557.737 -6.86059 -3.24661 0
M  V30 3610 O 557.947 -5.42934 -3.03695 0
M  V30 3611 C 559.137 -7.41287 -3.50796 0
M  V30 3612 O 559.527 -7.27073 -4.86816 0
M  V30 3613 C 560.017 -6.5273 -2.63741 0
M  V30 3614 C 559.307 -5.1842 -2.73198 0
M  V30 3615 N 559.357 -4.38762 -1.4784 0
M  V30 3616 C 559.277 -4.83651 -0.183876 0
M  V30 3617 N 559.347 -3.88759 0.699393 0
M  V30 3618 C 559.497 -2.7404 -0.0575568 0
M  V30 3619 C 559.627 -1.37902 0.293928 0
M  V30 3620 N 559.637 -0.938021 1.54797 0
M  V30 3621 N 559.747 -0.491817 -0.70549 0
M  V30 3622 C 559.737 -0.931735 -1.95979 0
M  V30 3623 N 559.617 -2.16017 -2.41481 0
M  V30 3624 C 559.497 -3.02547 -1.39121 0
M  V30 3625 H 556.519 -8.36899 -2.3252 0
M  V30 3626 H 556.247 -6.70391 -1.71179 0
M  V30 3627 H 557.115 -7.03638 -4.13219 0
M  V30 3628 H 559.77 -4.59931 -3.54016 0
M  V30 3629 H 560.05 -6.88995 -1.59871 0
M  V30 3630 H 561.041 -6.4684 -3.0373 0
M  V30 3631 H 559.207 -8.47002 -3.20749 0
M  V30 3632 H 559.166 -5.8885 0.0765548 0
M  V30 3633 H 559.547 -1.60276 2.32875 0
M  V30 3634 H 559.736 0.0699355 1.73859 0
M  V30 3635 H 559.844 -0.165507 -2.71897 0
M  V30 3636 P 561.077 -7.20834 -5.23717 0
M  V30 3637 O 561.297 -7.79853 -6.57286 0
M  V30 3638 O 561.867 -7.79239 -4.12957 0
M  V30 3639 O 561.327 -5.63315 -5.29344 0
M  V30 3640 C 560.387 -4.80255 -6.01876 0
M  V30 3641 C 561.117 -3.64202 -6.65911 0
M  V30 3642 O 561.327 -2.60694 -5.64732 0
M  V30 3643 C 562.517 -3.93473 -7.1943 0
M  V30 3644 O 562.907 -3.02071 -8.21205 0
M  V30 3645 C 563.397 -3.73047 -5.97036 0
M  V30 3646 C 562.687 -2.58828 -5.25741 0
M  V30 3647 N 562.737 -2.68068 -3.77503 0
M  V30 3648 H 559.898 -5.40332 -6.79951 0
M  V30 3649 H 559.628 -4.41613 -5.32378 0
M  V30 3650 H 560.495 -3.26331 -7.47797 0
M  V30 3651 P 564.457 -2.75334 -8.47391 0
M  V30 3652 O 564.677 -2.44571 -9.90142 0
M  V30 3653 O 565.247 -3.87688 -7.92115 0
M  V30 3654 O 564.707 -1.4459 -7.59357 0
M  V30 3655 C 563.767 -0.347608 -7.69215 0
M  V30 3656 C 564.497 0.96767 -7.52806 0
M  V30 3657 O 564.707 1.21036 -6.1011 0
M  V30 3658 C 565.897 1.04544 -8.13308 0
M  V30 3659 O 566.287 2.38311 -8.41922 0
M  V30 3660 C 566.777 0.491279 -7.02284 0
M  V30 3661 C 566.067 0.996264 -5.77469 0
M  V30 3662 N 566.117 0.0501916 -4.62973 0
M  V30 3663 H 563.278 -0.374722 -8.67691 0
M  V30 3664 H 563.008 -0.443485 -6.90277 0
M  V30 3665 H 563.875 1.75537 -7.96793 0
M  V30 3666 P 567.837 2.75334 -8.47391 0
M  V30 3667 O 568.057 3.84204 -9.44982 0
M  V30 3668 O 568.627 1.51982 -8.68909 0
M  V30 3669 O 568.087 3.29363 -6.99321 0
M  V30 3670 C 567.147 4.24066 -6.42823 0
M  V30 3671 C 567.877 5.20775 -5.52155 0
M  V30 3672 O 568.087 4.56607 -4.22514 0
M  V30 3673 C 569.277 5.62697 -5.96604 0
M  V30 3674 O 569.667 6.87667 -5.41053 0
M  V30 3675 C 570.157 4.52537 -5.39283 0
M  V30 3676 C 569.447 4.20027 -4.08623 0
M  V30 3677 N 569.497 2.76189 -3.71603 0
M  V30 3678 H 566.659 4.79756 -7.24086 0
M  V30 3679 H 566.387 3.69963 -5.84682 0
M  V30 3680 H 567.255 6.10431 -5.41508 0
M  V30 3681 H 569.91 4.78816 -3.28024 0
M  V30 3682 H 570.19 3.64957 -6.05871 0
M  V30 3683 H 571.181 4.88748 -5.21323 0
M  V30 3684 H 569.347 5.66789 -7.0643 0
M  V30 3685 P 571.217 7.20834 -5.23717 0
M  V30 3686 O 571.437 8.66104 -5.38572 0
M  V30 3687 O 572.007 6.33544 -6.1349 0
M  V30 3688 O 571.467 6.7751 -3.72168 0
M  V30 3689 C 570.527 7.20825 -2.7076 0
M  V30 3690 C 571.257 7.45864 -1.40599 0
M  V30 3691 O 571.467 6.17651 -0.734225 0
M  V30 3692 C 572.657 8.05808 -1.51899 0
M  V30 3693 O 573.047 8.74358 -0.335205 0
M  V30 3694 C 573.537 6.83093 -1.70294 0
M  V30 3695 C 572.827 5.79992 -0.836974 0
M  V30 3696 N 572.877 4.41864 -1.38293 0
M  V30 3697 H 570.038 8.13644 -3.0377 0
M  V30 3698 H 569.768 6.42788 -2.55485 0
M  V30 3699 H 570.635 8.12039 -0.792769 0
M  V30 3700 P 574.597 8.91 3.69815e-12 0
M  V30 3701 O 574.817 10.1726 0.733694 0
M  V30 3702 O 575.387 8.73148 -1.23936 0
M  V30 3703 O 574.847 7.66872 0.971405 0
M  V30 3704 C 573.907 7.42309 2.04641 0
M  V30 3705 C 574.637 6.86059 3.24661 0
M  V30 3706 O 574.847 5.42847 3.03646 0
M  V30 3707 C 576.037 7.41196 3.50753 0
M  V30 3708 O 576.427 7.27073 4.86816 0
M  V30 3709 C 576.917 6.5273 2.63741 0
M  V30 3710 C 576.207 5.1842 2.73198 0
M  V30 3711 N 576.257 4.38762 1.4784 0
M  V30 3712 C 576.177 4.81605 0.168631 0
M  V30 3713 N 576.257 3.85454 -0.713363 0
M  V30 3714 C 576.397 2.6994 0.0566958 0
M  V30 3715 C 576.527 1.34815 -0.338502 0
M  V30 3716 N 576.647 0.496304 0.77465 0
M  V30 3717 C 576.647 0.908403 2.09122 0
M  V30 3718 N 576.777 -0.0517805 3.00955 0
M  V30 3719 N 576.517 2.17875 2.46519 0
M  V30 3720 C 576.397 3.01988 1.4033 0
M  V30 3721 H 573.418 8.36803 2.32493 0
M  V30 3722 H 573.148 6.70197 1.71129 0
M  V30 3723 H 574.015 7.03551 4.13168 0
M  V30 3724 P 577.977 7.20834 5.23717 0
M  V30 3725 O 578.197 7.79853 6.57286 0
M  V30 3726 O 578.767 7.79239 4.12957 0
M  V30 3727 O 578.227 5.63315 5.29344 0
M  V30 3728 C 577.287 4.80255 6.01876 0
M  V30 3729 C 578.017 3.64202 6.65911 0
M  V30 3730 O 578.227 2.60694 5.64732 0
M  V30 3731 C 579.417 3.93473 7.1943 0
M  V30 3732 O 579.807 3.02071 8.21205 0
M  V30 3733 C 580.297 3.73047 5.97036 0
M  V30 3734 C 579.587 2.58828 5.25741 0
M  V30 3735 N 579.637 2.68068 3.77503 0
M  V30 3736 H 576.798 5.40332 6.79951 0
M  V30 3737 H 576.528 4.41613 5.32378 0
M  V30 3738 H 577.395 3.26331 7.47797 0
M  V30 3739 P 581.357 2.75334 8.47391 0
M  V30 3740 O 581.577 2.44619 9.90336 0
M  V30 3741 O 582.147 3.87776 7.92294 0
M  V30 3742 O 581.607 1.4459 7.59357 0
M  V30 3743 C 580.667 0.347653 7.69315 0
M  V30 3744 C 581.397 -0.96767 7.52806 0
M  V30 3745 O 581.607 -1.21055 6.10208 0
M  V30 3746 C 582.797 -1.04557 8.13408 0
M  V30 3747 O 583.187 -2.38311 8.41922 0
M  V30 3748 C 583.677 -0.491279 7.02284 0
M  V30 3749 C 582.967 -0.996264 5.77469 0
M  V30 3750 N 583.017 -0.0501916 4.62973 0
M  V30 3751 H 580.179 0.374765 8.67791 0
M  V30 3752 H 579.907 0.443613 6.90476 0
M  V30 3753 H 580.775 -1.75559 7.96891 0
M  V30 3754 H 583.43 -1.94563 5.46818 0
M  V30 3755 H 583.71 0.608651 7.04676 0
M  V30 3756 H 584.701 -0.889796 7.09039 0
M  V30 3757 H 582.867 -0.433128 9.04664 0
M  V30 3758 P 584.737 -2.75334 8.47391 0
M  V30 3759 O 584.957 -3.84128 9.44797 0
M  V30 3760 O 585.527 -1.51947 8.68712 0
M  V30 3761 O 584.987 -3.29363 6.99321 0
M  V30 3762 C 584.047 -4.24011 6.4274 0
M  V30 3763 C 584.777 -5.20775 5.52155 0
M  V30 3764 O 584.987 -4.56534 4.22446 0
M  V30 3765 C 586.177 -5.62629 5.96531 0
M  V30 3766 O 586.567 -6.87667 5.41053 0
M  V30 3767 C 587.057 -4.52537 5.39283 0
M  V30 3768 C 586.347 -4.20027 4.08623 0
M  V30 3769 N 586.397 -2.76189 3.71603 0
M  V30 3770 H 583.558 -4.797 7.24003 0
M  V30 3771 H 583.288 -3.69856 5.84513 0
M  V30 3772 H 584.155 -6.10356 5.41441 0
M  V30 3773 P 588.117 -7.20834 5.23717 0
M  V30 3774 O 588.337 -8.66274 5.38678 0
M  V30 3775 O 588.907 -6.33687 6.13629 0
M  V30 3776 O 588.367 -6.7751 3.72168 0
M  V30 3777 C 587.427 -7.20919 2.70795 0
M  V30 3778 C 588.157 -7.45864 1.40599 0
M  V30 3779 O 588.367 -6.17751 0.734343 0
M  V30 3780 C 589.557 -8.05906 1.51917 0
M  V30 3781 O 589.947 -8.74358 0.335205 0
M  V30 3782 C 590.437 -6.83093 1.70294 0
M  V30 3783 C 589.727 -5.79992 0.836974 0
M  V30 3784 N 589.777 -4.41864 1.38293 0
M  V30 3785 C 589.697 -4.02089 2.69407 0
M  V30 3786 N 589.767 -2.73403 2.85089 0
M  V30 3787 C 589.917 -2.25086 1.5642 0
M  V30 3788 C 590.047 -0.942887 1.04836 0
M  V30 3789 N 590.057 0.150999 1.80369 0
M  V30 3790 N 590.167 -0.812565 -0.28167 0
M  V30 3791 C 590.157 -1.90572 -1.03784 0
M  V30 3792 N 590.037 -3.167 -0.683905 0
M  V30 3793 C 589.917 -3.26538 0.652815 0
M  V30 3794 H 586.939 -8.13738 3.03804 0
M  V30 3795 H 586.667 -6.42974 2.55559 0
M  V30 3796 H 587.535 -8.12139 0.792866 0
M  V30 3797 H 590.19 -5.80178 -0.160643 0
M  V30 3798 H 590.47 -6.51379 2.75643 0
M  V30 3799 H 591.461 -7.01832 1.3448 0
M  V30 3800 H 589.627 -8.73771 2.38364 0
M  V30 3801 H 589.586 -4.7189 3.52311 0
M  V30 3802 H 589.967 0.0721434 2.82608 0
M  V30 3803 H 590.156 1.0785 1.36544 0
M  V30 3804 H 590.264 -1.73207 -2.10241 0
M  V30 3805 P 591.496 -8.91 -3.85533e-12 0
M  V30 3806 O 591.716 -10.1726 -0.733694 0
M  V30 3807 O 592.286 -8.73148 1.23936 0
M  V30 3808 O 591.746 -7.66872 -0.971405 0
M  V30 3809 C 590.806 -7.42309 -2.04641 0
M  V30 3810 C 591.536 -6.86059 -3.24661 0
M  V30 3811 O 591.746 -5.42847 -3.03646 0
M  V30 3812 C 592.937 -7.41196 -3.50753 0
M  V30 3813 O 593.327 -7.27073 -4.86816 0
M  V30 3814 C 593.817 -6.5273 -2.63741 0
M  V30 3815 C 593.106 -5.1842 -2.73198 0
M  V30 3816 N 593.156 -4.38762 -1.4784 0
M  V30 3817 H 590.317 -8.36803 -2.32493 0
M  V30 3818 H 590.048 -6.70197 -1.71129 0
M  V30 3819 H 590.914 -7.03551 -4.13168 0
M  V30 3820 P 594.876 -7.20834 -5.23717 0
M  V30 3821 O 595.096 -7.7993 -6.57351 0
M  V30 3822 O 595.666 -7.79328 -4.13004 0
M  V30 3823 O 595.126 -5.63315 -5.29344 0
M  V30 3824 C 594.186 -4.80193 -6.01798 0
M  V30 3825 C 594.916 -3.64202 -6.65911 0
M  V30 3826 O 595.126 -2.60694 -5.64732 0
M  V30 3827 C 596.316 -3.93473 -7.1943 0
M  V30 3828 O 596.706 -3.02071 -8.21205 0
M  V30 3829 C 597.196 -3.73047 -5.97036 0
M  V30 3830 C 596.486 -2.58828 -5.25741 0
M  V30 3831 N 596.536 -2.6801 -3.77422 0
M  V30 3832 C 596.686 -1.50443 -3.07133 0
M  V30 3833 O 596.776 -0.419406 -3.61576 0
M  V30 3834 N 596.726 -1.6403 -1.69677 0
M  V30 3835 C 596.636 -2.81206 -0.986255 0
M  V30 3836 O 596.686 -2.80892 0.249754 0
M  V30 3837 C 596.486 -3.99158 -1.80325 0
M  V30 3838 C 596.376 -5.29309 -1.06921 0
M  V30 3839 C 596.436 -3.89779 -3.1476 0
M  V30 3840 H 593.696 -5.40332 -6.79951 0
M  V30 3841 H 593.427 -4.41549 -5.32301 0
M  V30 3842 H 594.294 -3.26331 -7.47797 0
M  V30 3843 H 596.949 -1.6395 -5.56554 0
M  V30 3844 H 597.228 -4.63439 -5.3432 0
M  V30 3845 H 598.22 -3.44728 -6.25838 0
M  V30 3846 H 596.386 -4.96652 -7.57263 0
M  V30 3847 H 596.315 -4.80159 -3.74441 0
M  V30 3848 H 597.345 -5.81459 -1.09608 0
M  V30 3849 H 595.608 -5.9187 -1.54487 0
M  V30 3850 H 596.096 -5.10095 -0.0220288 0
M  V30 3851 H 596.832 -0.798962 -1.16664 0
M  V30 3852 P 598.256 -2.75334 -8.47391 0
M  V30 3853 O 598.476 -2.44571 -9.90142 0
M  V30 3854 O 599.046 -3.87688 -7.92115 0
M  V30 3855 O 598.506 -1.4459 -7.59357 0
M  V30 3856 C 597.566 -0.347608 -7.69215 0
M  V30 3857 C 598.296 0.96767 -7.52806 0
M  V30 3858 O 598.506 1.21036 -6.1011 0
M  V30 3859 C 599.696 1.04544 -8.13308 0
M  V30 3860 O 600.086 2.38311 -8.41922 0
M  V30 3861 C 600.576 0.491279 -7.02284 0
M  V30 3862 C 599.866 0.996264 -5.77469 0
M  V30 3863 N 599.916 0.0501916 -4.62973 0
M  V30 3864 H 597.077 -0.374722 -8.67691 0
M  V30 3865 H 596.807 -0.443485 -6.90277 0
M  V30 3866 H 597.674 1.75537 -7.96793 0
M  V30 3867 P 601.636 2.75334 -8.47391 0
M  V30 3868 O 601.856 3.84204 -9.44982 0
M  V30 3869 O 602.426 1.51982 -8.68909 0
M  V30 3870 O 601.886 3.29363 -6.99321 0
M  V30 3871 C 600.946 4.24066 -6.42823 0
M  V30 3872 C 601.676 5.20775 -5.52155 0
M  V30 3873 O 601.886 4.56607 -4.22514 0
M  V30 3874 C 603.076 5.62697 -5.96604 0
M  V30 3875 O 603.466 6.87667 -5.41053 0
M  V30 3876 C 603.956 4.52537 -5.39283 0
M  V30 3877 C 603.246 4.20027 -4.08623 0
M  V30 3878 N 603.296 2.76189 -3.71603 0
M  V30 3879 C 603.216 1.66944 -4.54297 0
M  V30 3880 N 603.286 0.536169 -3.91344 0
M  V30 3881 C 603.436 0.901569 -2.58849 0
M  V30 3882 C 603.566 0.146599 -1.40236 0
M  V30 3883 N 603.576 -1.18234 -1.37046 0
M  V30 3884 N 603.686 0.822941 -0.249738 0
M  V30 3885 C 603.676 2.15179 -0.280525 0
M  V30 3886 N 603.556 2.96414 -1.30822 0
M  V30 3887 C 603.436 2.25804 -2.44748 0
M  V30 3888 H 600.458 4.79756 -7.24086 0
M  V30 3889 H 600.186 3.69963 -5.84682 0
M  V30 3890 H 601.054 6.10431 -5.41508 0
M  V30 3891 H 603.709 4.78816 -3.28024 0
M  V30 3892 H 603.989 3.64957 -6.05871 0
M  V30 3893 H 604.98 4.88748 -5.21323 0
M  V30 3894 H 603.146 5.66789 -7.0643 0
M  V30 3895 H 603.105 1.74684 -5.62396 0
M  V30 3896 H 603.486 -1.71949 -2.24394 0
M  V30 3897 H 603.675 -1.67511 -0.470742 0
M  V30 3898 H 603.783 2.63704 0.6828 0
M  V30 3899 P 605.016 7.20834 -5.23717 0
M  V30 3900 O 605.236 8.66104 -5.38572 0
M  V30 3901 O 605.806 6.33544 -6.1349 0
M  V30 3902 O 605.266 6.7751 -3.72168 0
M  V30 3903 C 604.326 7.20825 -2.7076 0
M  V30 3904 C 605.056 7.45864 -1.40599 0
M  V30 3905 O 605.266 6.17651 -0.734225 0
M  V30 3906 C 606.456 8.05808 -1.51899 0
M  V30 3907 O 606.846 8.74358 -0.335205 0
M  V30 3908 C 607.336 6.83093 -1.70294 0
M  V30 3909 C 606.626 5.79992 -0.836974 0
M  V30 3910 N 606.676 4.41864 -1.38293 0
M  V30 3911 C 606.596 3.99538 -2.69438 0
M  V30 3912 N 606.676 2.69909 -2.84277 0
M  V30 3913 C 606.816 2.21719 -1.5408 0
M  V30 3914 C 606.946 0.891712 -1.06628 0
M  V30 3915 O 606.966 -0.161298 -1.70137 0
M  V30 3916 N 607.066 0.856846 0.334985 0
M  V30 3917 C 607.066 1.9641 1.15789 0
M  V30 3918 N 607.196 1.72708 2.46522 0
M  V30 3919 N 606.936 3.21165 0.713741 0
M  V30 3920 C 606.816 3.26797 -0.639748 0
M  V30 3921 H 603.837 8.13644 -3.0377 0
M  V30 3922 H 603.567 6.42788 -2.55485 0
M  V30 3923 H 604.434 8.12039 -0.792769 0
M  V30 3924 H 607.089 5.80061 0.166416 0
M  V30 3925 H 607.368 6.51287 -2.75604 0
M  V30 3926 H 608.36 7.01734 -1.34462 0
M  V30 3927 H 606.526 8.73674 -2.38337 0
M  V30 3928 H 606.477 4.68207 -3.53221 0
M  V30 3929 H 607.159 -0.0398818 0.767965 0
M  V30 3930 H 607.196 2.50995 3.13503 0
M  V30 3931 H 607.297 0.759148 2.80716 0
M  V30 3932 P 608.396 8.91 4.01252e-12 0
M  V30 3933 O 608.616 10.1736 0.733766 0
M  V30 3934 O 609.186 8.73247 -1.2395 0
M  V30 3935 O 608.646 7.66872 0.971405 0
M  V30 3936 C 607.706 7.42212 2.04614 0
M  V30 3937 C 608.436 6.86059 3.24661 0
M  V30 3938 O 608.646 5.42847 3.03646 0
M  V30 3939 C 609.836 7.41196 3.50753 0
M  V30 3940 O 610.226 7.27073 4.86816 0
M  V30 3941 C 610.716 6.5273 2.63741 0
M  V30 3942 C 610.006 5.1842 2.73198 0
M  V30 3943 N 610.056 4.38668 1.47808 0
M  V30 3944 C 610.206 3.02239 1.60048 0
M  V30 3945 O 610.296 2.46459 2.67869 0
M  V30 3946 N 610.246 2.32436 0.408571 0
M  V30 3947 C 610.156 2.85471 -0.854993 0
M  V30 3948 O 610.206 2.12566 -1.8531 0
M  V30 3949 C 610.006 4.28918 -0.887335 0
M  V30 3950 C 609.896 4.91066 -2.24619 0
M  V30 3951 C 609.956 5.00349 0.255399 0
M  V30 3952 H 607.216 8.36803 2.32493 0
M  V30 3953 H 606.947 6.701 1.71105 0
M  V30 3954 H 607.814 7.03551 4.13168 0
M  V30 3955 H 610.469 4.59773 3.53894 0
M  V30 3956 H 610.748 6.88995 1.59871 0
M  V30 3957 H 611.74 6.46749 3.03687 0
M  V30 3958 H 609.906 8.46908 3.20714 0
M  V30 3959 H 609.835 6.08548 0.206986 0
M  V30 3960 H 610.865 5.34836 -2.53099 0
M  V30 3961 H 609.128 5.69638 -2.2291 0
M  V30 3962 H 609.616 4.13971 -2.98044 0
M  V30 3963 H 610.352 1.33211 0.474216 0
M  V30 3964 P 611.776 7.20834 5.23717 0
M  V30 3965 O 611.996 7.79853 6.57286 0
M  V30 3966 O 612.566 7.79239 4.12957 0
M  V30 3967 O 612.026 5.63315 5.29344 0
M  V30 3968 C 611.086 4.80255 6.01876 0
M  V30 3969 C 611.816 3.64202 6.65911 0
M  V30 3970 O 612.026 2.60694 5.64732 0
M  V30 3971 C 613.216 3.93473 7.1943 0
M  V30 3972 O 613.606 3.02071 8.21205 0
M  V30 3973 C 614.096 3.73047 5.97036 0
M  V30 3974 C 613.386 2.58828 5.25741 0
M  V30 3975 N 613.436 2.68068 3.77503 0
M  V30 3976 H 610.597 5.40332 6.79951 0
M  V30 3977 H 610.327 4.41613 5.32378 0
M  V30 3978 H 611.194 3.26331 7.47797 0
M  V30 3979 P 615.156 2.75334 8.47391 0
M  V30 3980 O 615.376 2.44571 9.90142 0
M  V30 3981 O 615.946 3.87688 7.92115 0
M  V30 3982 O 615.406 1.4459 7.59357 0
M  V30 3983 C 614.466 0.347608 7.69215 0
M  V30 3984 C 615.196 -0.96767 7.52806 0
M  V30 3985 O 615.406 -1.21036 6.1011 0
M  V30 3986 C 616.596 -1.04544 8.13308 0
M  V30 3987 O 616.986 -2.38311 8.41922 0
M  V30 3988 C 617.476 -0.491279 7.02284 0
M  V30 3989 C 616.766 -0.996264 5.77469 0
M  V30 3990 N 616.816 -0.0501916 4.62973 0
M  V30 3991 H 613.977 0.374722 8.67691 0
M  V30 3992 H 613.707 0.443485 6.90277 0
M  V30 3993 H 614.574 -1.75537 7.96793 0
M  V30 3994 P 618.536 -2.75334 8.47391 0
M  V30 3995 O 618.756 -3.84166 9.4489 0
M  V30 3996 O 619.326 -1.51964 8.6881 0
M  V30 3997 O 618.786 -3.29363 6.99321 0
M  V30 3998 C 617.846 -4.23956 6.42656 0
M  V30 3999 C 618.576 -5.20775 5.52155 0
M  V30 4000 O 618.786 -4.56534 4.22446 0
M  V30 4001 C 619.976 -5.62629 5.96531 0
M  V30 4002 O 620.366 -6.87667 5.41053 0
M  V30 4003 C 620.856 -4.52537 5.39283 0
M  V30 4004 C 620.146 -4.20027 4.08623 0
M  V30 4005 N 620.196 -2.7613 3.71522 0
M  V30 4006 C 620.346 -2.45612 2.37989 0
M  V30 4007 O 620.436 -3.30919 1.51621 0
M  V30 4008 N 620.386 -1.10684 2.08435 0
M  V30 4009 C 620.296 -0.0690084 2.9792 0
M  V30 4010 O 620.346 1.10553 2.59426 0
M  V30 4011 C 620.146 -0.481522 4.35345 0
M  V30 4012 C 620.036 0.618778 5.36443 0
M  V30 4013 C 620.096 -1.78906 4.67968 0
M  V30 4014 H 617.356 -4.797 7.24003 0
M  V30 4015 H 617.087 -3.69802 5.84429 0
M  V30 4016 H 617.954 -6.10356 5.41441 0
M  V30 4017 H 620.609 -4.78651 3.27911 0
M  V30 4018 H 620.888 -3.64957 6.05871 0
M  V30 4019 H 621.88 -4.8868 5.2125 0
M  V30 4020 H 620.046 -5.66726 7.06352 0
M  V30 4021 H 619.975 -2.07737 5.72367 0
M  V30 4022 H 621.005 0.754375 5.86871 0
M  V30 4023 H 619.268 0.359721 6.10641 0
M  V30 4024 H 619.756 1.55533 4.8581 0
M  V30 4025 H 620.492 -0.862651 1.12037 0
M  V30 4026 P 621.916 -7.20834 5.23717 0
M  V30 4027 O 622.136 -8.66104 5.38572 0
M  V30 4028 O 622.706 -6.33544 6.1349 0
M  V30 4029 O 622.166 -6.7751 3.72168 0
M  V30 4030 C 621.226 -7.20825 2.7076 0
M  V30 4031 C 621.956 -7.45864 1.40599 0
M  V30 4032 O 622.166 -6.17651 0.734225 0
M  V30 4033 C 623.356 -8.05808 1.51899 0
M  V30 4034 O 623.746 -8.74358 0.335205 0
M  V30 4035 C 624.236 -6.83093 1.70294 0
M  V30 4036 C 623.526 -5.79992 0.836974 0
M  V30 4037 N 623.576 -4.41864 1.38293 0
M  V30 4038 H 620.737 -8.13644 3.0377 0
M  V30 4039 H 620.467 -6.42788 2.55485 0
M  V30 4040 H 621.334 -8.12039 0.792769 0
M  V30 4041 P 625.296 -8.91 -4.1697e-12 0
M  V30 4042 O 625.516 -10.1726 -0.733694 0
M  V30 4043 O 626.086 -8.73148 1.23936 0
M  V30 4044 O 625.546 -7.66872 -0.971405 0
M  V30 4045 C 624.606 -7.42309 -2.04641 0
M  V30 4046 C 625.336 -6.86059 -3.24661 0
M  V30 4047 O 625.546 -5.42847 -3.03646 0
M  V30 4048 C 626.736 -7.41196 -3.50753 0
M  V30 4049 O 627.126 -7.27073 -4.86816 0
M  V30 4050 C 627.616 -6.5273 -2.63741 0
M  V30 4051 C 626.906 -5.1842 -2.73198 0
M  V30 4052 N 626.956 -4.38762 -1.4784 0
M  V30 4053 H 624.117 -8.36803 -2.32493 0
M  V30 4054 H 623.847 -6.70197 -1.71129 0
M  V30 4055 H 624.714 -7.03551 -4.13168 0
M  V30 4056 P 628.676 -7.20834 -5.23717 0
M  V30 4057 O 628.896 -7.79853 -6.57286 0
M  V30 4058 O 629.466 -7.79239 -4.12957 0
M  V30 4059 O 628.926 -5.63315 -5.29344 0
M  V30 4060 C 627.986 -4.80255 -6.01876 0
M  V30 4061 C 628.716 -3.64202 -6.65911 0
M  V30 4062 O 628.926 -2.60694 -5.64732 0
M  V30 4063 C 630.116 -3.93473 -7.1943 0
M  V30 4064 O 630.506 -3.02071 -8.21205 0
M  V30 4065 C 630.996 -3.73047 -5.97036 0
M  V30 4066 C 630.286 -2.58828 -5.25741 0
M  V30 4067 N 630.336 -2.68068 -3.77503 0
M  V30 4068 C 630.256 -3.79715 -2.96723 0
M  V30 4069 N 630.336 -3.5377 -1.68852 0
M  V30 4070 C 630.476 -2.15054 -1.63254 0
M  V30 4071 C 630.606 -1.28964 -0.518571 0
M  V30 4072 O 630.626 -1.56826 0.679156 0
M  V30 4073 N 630.726 0.0538097 -0.918425 0
M  V30 4074 C 630.726 0.494275 -2.22578 0
M  V30 4075 N 630.856 1.81086 -2.40434 0
M  V30 4076 N 630.596 -0.313645 -3.27502 0
M  V30 4077 C 630.476 -1.61829 -2.91033 0
M  V30 4078 H 627.497 -5.40332 -6.79951 0
M  V30 4079 H 627.227 -4.41613 -5.32378 0
M  V30 4080 H 628.094 -3.26331 -7.47797 0
M  V30 4081 H 630.749 -1.63422 -5.56814 0
M  V30 4082 H 631.028 -4.63374 -5.34244 0
M  V30 4083 H 632.02 -3.44728 -6.25838 0
M  V30 4084 H 630.186 -4.96652 -7.57263 0
M  V30 4085 H 630.137 -4.80617 -3.3614 0
M  V30 4086 H 630.819 0.742702 -0.199384 0
M  V30 4087 H 630.856 2.20598 -3.35588 0
M  V30 4088 H 630.957 2.43518 -1.58945 0
M  V30 4089 P 632.056 -2.75334 -8.47391 0
M  V30 4090 O 632.276 -2.44571 -9.90142 0
M  V30 4091 O 632.846 -3.87688 -7.92115 0
M  V30 4092 O 632.306 -1.4459 -7.59357 0
M  V30 4093 C 631.366 -0.347608 -7.69215 0
M  V30 4094 C 632.096 0.96767 -7.52806 0
M  V30 4095 O 632.306 1.21036 -6.1011 0
M  V30 4096 C 633.496 1.04544 -8.13308 0
M  V30 4097 O 633.886 2.38311 -8.41922 0
M  V30 4098 C 634.376 0.491279 -7.02284 0
M  V30 4099 C 633.666 0.996264 -5.77469 0
M  V30 4100 N 633.716 0.0501916 -4.62973 0
M  V30 4101 H 630.877 -0.374722 -8.67691 0
M  V30 4102 H 630.607 -0.443485 -6.90277 0
M  V30 4103 H 631.474 1.75537 -7.96793 0
M  V30 4104 P 635.436 2.75334 -8.47391 0
M  V30 4105 O 635.656 3.84166 -9.4489 0
M  V30 4106 O 636.226 1.51964 -8.6881 0
M  V30 4107 O 635.686 3.29363 -6.99321 0
M  V30 4108 C 634.746 4.23956 -6.42656 0
M  V30 4109 C 635.476 5.20775 -5.52155 0
M  V30 4110 O 635.686 4.56534 -4.22446 0
M  V30 4111 C 636.876 5.62629 -5.96531 0
M  V30 4112 O 637.266 6.87667 -5.41053 0
M  V30 4113 C 637.756 4.52537 -5.39283 0
M  V30 4114 C 637.046 4.20027 -4.08623 0
M  V30 4115 N 637.096 2.7613 -3.71522 0
M  V30 4116 C 637.246 2.45612 -2.37989 0
M  V30 4117 O 637.336 3.30919 -1.51621 0
M  V30 4118 N 637.286 1.10684 -2.08435 0
M  V30 4119 C 637.196 0.0690084 -2.9792 0
M  V30 4120 O 637.246 -1.10553 -2.59426 0
M  V30 4121 C 637.046 0.481522 -4.35345 0
M  V30 4122 C 636.936 -0.618778 -5.36443 0
M  V30 4123 C 636.996 1.78906 -4.67968 0
M  V30 4124 H 634.256 4.797 -7.24003 0
M  V30 4125 H 633.987 3.69802 -5.84429 0
M  V30 4126 H 634.854 6.10356 -5.41441 0
M  V30 4127 H 637.509 4.78651 -3.27911 0
M  V30 4128 H 637.788 3.64957 -6.05871 0
M  V30 4129 H 638.78 4.8868 -5.2125 0
M  V30 4130 H 636.946 5.66726 -7.06352 0
M  V30 4131 H 636.875 2.07737 -5.72367 0
M  V30 4132 H 637.905 -0.754375 -5.86871 0
M  V30 4133 H 636.168 -0.359721 -6.10641 0
M  V30 4134 H 636.656 -1.55533 -4.8581 0
M  V30 4135 H 637.392 0.862651 -1.12037 0
M  V30 4136 P 638.816 7.20834 -5.23717 0
M  V30 4137 O 639.036 8.66104 -5.38572 0
M  V30 4138 O 639.606 6.33544 -6.1349 0
M  V30 4139 O 639.066 6.7751 -3.72168 0
M  V30 4140 C 638.126 7.20825 -2.7076 0
M  V30 4141 C 638.856 7.45864 -1.40599 0
M  V30 4142 O 639.066 6.17651 -0.734225 0
M  V30 4143 C 640.256 8.05808 -1.51899 0
M  V30 4144 O 640.646 8.74358 -0.335205 0
M  V30 4145 C 641.136 6.83093 -1.70294 0
M  V30 4146 C 640.426 5.79992 -0.836974 0
M  V30 4147 N 640.476 4.41864 -1.38293 0
M  V30 4148 H 637.637 8.13644 -3.0377 0
M  V30 4149 H 637.367 6.42788 -2.55485 0
M  V30 4150 H 638.234 8.12039 -0.792769 0
M  V30 4151 P 642.196 8.91 4.32688e-12 0
M  V30 4152 O 642.416 10.1726 0.733694 0
M  V30 4153 O 642.986 8.73148 -1.23936 0
M  V30 4154 O 642.446 7.66872 0.971405 0
M  V30 4155 C 641.506 7.42309 2.04641 0
M  V30 4156 C 642.236 6.86059 3.24661 0
M  V30 4157 O 642.446 5.42847 3.03646 0
M  V30 4158 C 643.636 7.41196 3.50753 0
M  V30 4159 O 644.026 7.27073 4.86816 0
M  V30 4160 C 644.516 6.5273 2.63741 0
M  V30 4161 C 643.806 5.1842 2.73198 0
M  V30 4162 N 643.856 4.38762 1.4784 0
M  V30 4163 H 641.017 8.36803 2.32493 0
M  V30 4164 H 640.747 6.70197 1.71129 0
M  V30 4165 H 641.614 7.03551 4.13168 0
M  V30 4166 P 645.576 7.20834 5.23717 0
M  V30 4167 O 645.796 7.79853 6.57286 0
M  V30 4168 O 646.366 7.79239 4.12957 0
M  V30 4169 O 645.826 5.63315 5.29344 0
M  V30 4170 C 644.886 4.80255 6.01876 0
M  V30 4171 C 645.616 3.64202 6.65911 0
M  V30 4172 O 645.826 2.60694 5.64732 0
M  V30 4173 C 647.016 3.93473 7.1943 0
M  V30 4174 O 647.406 3.02071 8.21205 0
M  V30 4175 C 647.896 3.73047 5.97036 0
M  V30 4176 C 647.186 2.58828 5.25741 0
M  V30 4177 N 647.236 2.68068 3.77503 0
M  V30 4178 C 647.156 3.79715 2.96723 0
M  V30 4179 N 647.236 3.5377 1.68852 0
M  V30 4180 C 647.376 2.15054 1.63254 0
M  V30 4181 C 647.506 1.28964 0.518571 0
M  V30 4182 O 647.526 1.56826 -0.679156 0
M  V30 4183 N 647.626 -0.0538097 0.918425 0
M  V30 4184 C 647.626 -0.494275 2.22578 0
M  V30 4185 N 647.756 -1.81086 2.40434 0
M  V30 4186 N 647.496 0.313645 3.27502 0
M  V30 4187 C 647.376 1.61829 2.91033 0
M  V30 4188 H 644.397 5.40332 6.79951 0
M  V30 4189 H 644.127 4.41613 5.32378 0
M  V30 4190 H 644.994 3.26331 7.47797 0
M  V30 4191 H 647.649 1.63422 5.56814 0
M  V30 4192 H 647.928 4.63374 5.34244 0
M  V30 4193 H 648.92 3.44728 6.25838 0
M  V30 4194 H 647.086 4.96652 7.57263 0
M  V30 4195 H 647.037 4.80617 3.3614 0
M  V30 4196 H 647.719 -0.742702 0.199384 0
M  V30 4197 H 647.756 -2.20598 3.35588 0
M  V30 4198 H 647.857 -2.43518 1.58945 0
M  V30 4199 P 648.956 2.75334 8.47391 0
M  V30 4200 O 649.176 2.44619 9.90336 0
M  V30 4201 O 649.746 3.87776 7.92294 0
M  V30 4202 O 649.206 1.4459 7.59357 0
M  V30 4203 C 648.266 0.347653 7.69315 0
M  V30 4204 C 648.996 -0.96767 7.52806 0
M  V30 4205 O 649.206 -1.21055 6.10208 0
M  V30 4206 C 650.396 -1.04557 8.13408 0
M  V30 4207 O 650.786 -2.38311 8.41922 0
M  V30 4208 C 651.276 -0.491279 7.02284 0
M  V30 4209 C 650.566 -0.996264 5.77469 0
M  V30 4210 N 650.616 -0.0501916 4.62973 0
M  V30 4211 H 647.778 0.374765 8.67791 0
M  V30 4212 H 647.506 0.443613 6.90476 0
M  V30 4213 H 648.374 -1.75559 7.96891 0
M  V30 4214 H 651.029 -1.94563 5.46818 0
M  V30 4215 H 651.309 0.608651 7.04676 0
M  V30 4216 H 652.3 -0.889796 7.09039 0
M  V30 4217 H 650.466 -0.433128 9.04664 0
M  V30 4218 P 652.336 -2.75334 8.47391 0
M  V30 4219 O 652.556 -3.84128 9.44797 0
M  V30 4220 O 653.126 -1.51947 8.68712 0
M  V30 4221 O 652.586 -3.29363 6.99321 0
M  V30 4222 C 651.646 -4.24011 6.4274 0
M  V30 4223 C 652.376 -5.20775 5.52155 0
M  V30 4224 O 652.586 -4.56534 4.22446 0
M  V30 4225 C 653.776 -5.62629 5.96531 0
M  V30 4226 O 654.166 -6.87667 5.41053 0
M  V30 4227 C 654.656 -4.52537 5.39283 0
M  V30 4228 C 653.946 -4.20027 4.08623 0
M  V30 4229 N 653.996 -2.76189 3.71603 0
M  V30 4230 C 653.916 -1.64862 4.52822 0
M  V30 4231 N 653.996 -0.512671 3.88633 0
M  V30 4232 C 654.136 -0.888083 2.54977 0
M  V30 4233 C 654.266 -0.094668 1.38677 0
M  V30 4234 N 654.386 -0.890102 0.232633 0
M  V30 4235 C 654.386 -2.26958 0.21772 0
M  V30 4236 N 654.516 -2.84626 -0.97925 0
M  V30 4237 N 654.256 -3.0178 1.31033 0
M  V30 4238 C 654.136 -2.26781 2.43843 0
M  V30 4239 H 651.157 -4.797 7.24003 0
M  V30 4240 H 650.887 -3.69856 5.84513 0
M  V30 4241 H 651.754 -6.10356 5.41441 0
M  V30 4242 P 655.716 -7.20834 5.23717 0
M  V30 4243 O 655.936 -8.66104 5.38572 0
M  V30 4244 O 656.506 -6.33544 6.1349 0
M  V30 4245 O 655.966 -6.7751 3.72168 0
M  V30 4246 C 655.026 -7.20825 2.7076 0
M  V30 4247 C 655.756 -7.45864 1.40599 0
M  V30 4248 O 655.966 -6.17651 0.734225 0
M  V30 4249 C 657.156 -8.05808 1.51899 0
M  V30 4250 O 657.546 -8.74358 0.335205 0
M  V30 4251 C 658.036 -6.83093 1.70294 0
M  V30 4252 C 657.326 -5.79992 0.836974 0
M  V30 4253 N 657.376 -4.41864 1.38293 0
M  V30 4254 H 654.537 -8.13644 3.0377 0
M  V30 4255 H 654.267 -6.42788 2.55485 0
M  V30 4256 H 655.134 -8.12039 0.792769 0
M  V30 4257 P 659.096 -8.91 -4.48406e-12 0
M  V30 4258 O 659.316 -10.1746 -0.733838 0
M  V30 4259 O 659.886 -8.73346 1.23964 0
M  V30 4260 O 659.346 -7.66872 -0.971405 0
M  V30 4261 C 658.406 -7.42405 -2.04668 0
M  V30 4262 C 659.136 -6.86059 -3.24661 0
M  V30 4263 O 659.346 -5.42934 -3.03695 0
M  V30 4264 C 660.536 -7.41287 -3.50796 0
M  V30 4265 O 660.926 -7.27073 -4.86816 0
M  V30 4266 C 661.416 -6.5273 -2.63741 0
M  V30 4267 C 660.706 -5.1842 -2.73198 0
M  V30 4268 N 660.756 -4.38762 -1.4784 0
M  V30 4269 C 660.676 -4.83651 -0.183876 0
M  V30 4270 N 660.746 -3.88759 0.699393 0
M  V30 4271 C 660.896 -2.7404 -0.0575568 0
M  V30 4272 C 661.026 -1.37902 0.293928 0
M  V30 4273 N 661.036 -0.938021 1.54797 0
M  V30 4274 N 661.146 -0.491817 -0.70549 0
M  V30 4275 C 661.136 -0.931735 -1.95979 0
M  V30 4276 N 661.016 -2.16017 -2.41481 0
M  V30 4277 C 660.896 -3.02547 -1.39121 0
M  V30 4278 H 657.918 -8.36899 -2.3252 0
M  V30 4279 H 657.646 -6.70391 -1.71179 0
M  V30 4280 H 658.514 -7.03638 -4.13219 0
M  V30 4281 H 661.169 -4.59931 -3.54016 0
M  V30 4282 H 661.449 -6.88995 -1.59871 0
M  V30 4283 H 662.44 -6.4684 -3.0373 0
M  V30 4284 H 660.606 -8.47002 -3.20749 0
M  V30 4285 H 660.565 -5.8885 0.0765548 0
M  V30 4286 H 660.946 -1.60276 2.32875 0
M  V30 4287 H 661.135 0.0699355 1.73859 0
M  V30 4288 H 661.243 -0.165507 -2.71897 0
M  V30 4289 P 662.476 -7.20834 -5.23717 0
M  V30 4290 O 662.696 -7.79853 -6.57286 0
M  V30 4291 O 663.266 -7.79239 -4.12957 0
M  V30 4292 O 662.726 -5.63315 -5.29344 0
M  V30 4293 C 661.786 -4.80255 -6.01876 0
M  V30 4294 C 662.516 -3.64202 -6.65911 0
M  V30 4295 O 662.726 -2.60694 -5.64732 0
M  V30 4296 C 663.916 -3.93473 -7.1943 0
M  V30 4297 O 664.306 -3.02071 -8.21205 0
M  V30 4298 C 664.796 -3.73047 -5.97036 0
M  V30 4299 C 664.086 -2.58828 -5.25741 0
M  V30 4300 N 664.136 -2.68068 -3.77503 0
M  V30 4301 H 661.297 -5.40332 -6.79951 0
M  V30 4302 H 661.027 -4.41613 -5.32378 0
M  V30 4303 H 661.894 -3.26331 -7.47797 0
M  V30 4304 P 665.856 -2.75334 -8.47391 0
M  V30 4305 O 666.076 -2.44619 -9.90336 0
M  V30 4306 O 666.646 -3.87776 -7.92294 0
M  V30 4307 O 666.106 -1.4459 -7.59357 0
M  V30 4308 C 665.166 -0.347653 -7.69315 0
M  V30 4309 C 665.896 0.96767 -7.52806 0
M  V30 4310 O 666.106 1.21055 -6.10208 0
M  V30 4311 C 667.296 1.04557 -8.13408 0
M  V30 4312 O 667.686 2.38311 -8.41922 0
M  V30 4313 C 668.176 0.491279 -7.02284 0
M  V30 4314 C 667.466 0.996264 -5.77469 0
M  V30 4315 N 667.516 0.0501916 -4.62973 0
M  V30 4316 H 664.678 -0.374765 -8.67791 0
M  V30 4317 H 664.406 -0.443613 -6.90476 0
M  V30 4318 H 665.274 1.75559 -7.96891 0
M  V30 4319 H 667.929 1.94563 -5.46818 0
M  V30 4320 H 668.209 -0.608651 -7.04676 0
M  V30 4321 H 669.2 0.889796 -7.09039 0
M  V30 4322 H 667.366 0.433128 -9.04664 0
M  V30 4323 P 669.236 2.75334 -8.47391 0
M  V30 4324 O 669.456 3.84128 -9.44797 0
M  V30 4325 O 670.026 1.51947 -8.68712 0
M  V30 4326 O 669.486 3.29363 -6.99321 0
M  V30 4327 C 668.546 4.24011 -6.4274 0
M  V30 4328 C 669.276 5.20775 -5.52155 0
M  V30 4329 O 669.486 4.56534 -4.22446 0
M  V30 4330 C 670.676 5.62629 -5.96531 0
M  V30 4331 O 671.066 6.87667 -5.41053 0
M  V30 4332 C 671.556 4.52537 -5.39283 0
M  V30 4333 C 670.846 4.20027 -4.08623 0
M  V30 4334 N 670.896 2.76189 -3.71603 0
M  V30 4335 H 668.057 4.797 -7.24003 0
M  V30 4336 H 667.787 3.69856 -5.84513 0
M  V30 4337 H 668.654 6.10356 -5.41441 0
M  V30 4338 P 672.616 7.20834 -5.23717 0
M  V30 4339 O 672.836 8.66189 -5.38625 0
M  V30 4340 O 673.406 6.33615 -6.1356 0
M  V30 4341 O 672.866 6.7751 -3.72168 0
M  V30 4342 C 671.926 7.20732 -2.70725 0
M  V30 4343 C 672.656 7.45864 -1.40599 0
M  V30 4344 O 672.866 6.17651 -0.734225 0
M  V30 4345 C 674.056 8.05808 -1.51899 0
M  V30 4346 O 674.446 8.74358 -0.335205 0
M  V30 4347 C 674.936 6.83093 -1.70294 0
M  V30 4348 C 674.226 5.79992 -0.836974 0
M  V30 4349 N 674.276 4.41769 -1.38263 0
M  V30 4350 C 674.426 3.38591 -0.481702 0
M  V30 4351 O 674.516 3.56839 0.718452 0
M  V30 4352 N 674.466 2.1206 -1.03569 0
M  V30 4353 C 674.376 1.80696 -2.36966 0
M  V30 4354 C 674.226 2.94845 -3.23898 0
M  V30 4355 C 674.176 4.19803 -2.73435 0
M  V30 4356 H 671.436 8.13644 -3.0377 0
M  V30 4357 H 671.167 6.42695 -2.55448 0
M  V30 4358 H 672.034 8.12039 -0.792769 0
M  V30 4359 H 674.689 5.79978 0.160587 0
M  V30 4360 H 674.968 6.51379 -2.75643 0
M  V30 4361 H 675.96 7.01734 -1.34462 0
M  V30 4362 H 674.126 8.73674 -2.38337 0
M  V30 4363 H 674.055 5.04492 -3.4095 0
M  V30 4364 P 675.996 8.91 4.64125e-12 0
M  V30 4365 O 676.216 10.1726 0.733694 0
M  V30 4366 O 676.786 8.73148 -1.23936 0
M  V30 4367 O 676.246 7.66872 0.971405 0
M  V30 4368 C 675.306 7.42309 2.04641 0
M  V30 4369 C 676.036 6.86059 3.24661 0
M  V30 4370 O 676.246 5.42847 3.03646 0
M  V30 4371 C 677.436 7.41196 3.50753 0
M  V30 4372 O 677.826 7.27073 4.86816 0
M  V30 4373 C 678.316 6.5273 2.63741 0
M  V30 4374 C 677.606 5.1842 2.73198 0
M  V30 4375 N 677.656 4.38762 1.4784 0
M  V30 4376 C 677.576 4.81605 0.168631 0
M  V30 4377 N 677.656 3.85454 -0.713363 0
M  V30 4378 C 677.796 2.6994 0.0566958 0
M  V30 4379 C 677.926 1.34815 -0.338502 0
M  V30 4380 O 677.946 0.869548 -1.47125 0
M  V30 4381 N 678.046 0.496304 0.77465 0
M  V30 4382 C 678.046 0.908403 2.09122 0
M  V30 4383 N 678.176 -0.0517805 3.00955 0
M  V30 4384 N 677.916 2.17875 2.46519 0
M  V30 4385 C 677.796 3.01988 1.4033 0
M  V30 4386 H 674.817 8.36803 2.32493 0
M  V30 4387 H 674.547 6.70197 1.71129 0
M  V30 4388 H 675.414 7.03551 4.13168 0
M  V30 4389 H 678.069 4.59498 3.54415 0
M  V30 4390 H 678.348 6.88898 1.59848 0
M  V30 4391 H 679.34 6.46749 3.03687 0
M  V30 4392 H 677.506 8.46908 3.20714 0
M  V30 4393 H 677.457 5.86405 -0.105564 0
M  V30 4394 H 678.139 -0.483664 0.597855 0
M  V30 4395 H 678.176 0.187865 4.0116 0
M  V30 4396 H 678.277 -1.03585 2.71726 0
M  V30 4397 P 679.376 7.20834 5.23717 0
M  V30 4398 O 679.596 7.7993 6.57351 0
M  V30 4399 O 680.166 7.79328 4.13004 0
M  V30 4400 O 679.626 5.63315 5.29344 0
M  V30 4401 C 678.686 4.80193 6.01798 0
M  V30 4402 C 679.416 3.64202 6.65911 0
M  V30 4403 O 679.626 2.60694 5.64732 0
M  V30 4404 C 680.816 3.93473 7.1943 0
M  V30 4405 O 681.206 3.02071 8.21205 0
M  V30 4406 C 681.696 3.73047 5.97036 0
M  V30 4407 C 680.986 2.58828 5.25741 0
M  V30 4408 N 681.036 2.6801 3.77422 0
M  V30 4409 C 681.186 1.50443 3.07133 0
M  V30 4410 O 681.276 0.419406 3.61576 0
M  V30 4411 N 681.226 1.6403 1.69677 0
M  V30 4412 C 681.136 2.81206 0.986255 0
M  V30 4413 O 681.186 2.80892 -0.249754 0
M  V30 4414 C 680.986 3.99158 1.80325 0
M  V30 4415 C 680.876 5.29309 1.06921 0
M  V30 4416 C 680.936 3.89779 3.1476 0
M  V30 4417 H 678.196 5.40332 6.79951 0
M  V30 4418 H 677.927 4.41549 5.32301 0
M  V30 4419 H 678.794 3.26331 7.47797 0
M  V30 4420 H 681.449 1.6395 5.56554 0
M  V30 4421 H 681.728 4.63439 5.3432 0
M  V30 4422 H 682.72 3.44728 6.25838 0
M  V30 4423 H 680.886 4.96652 7.57263 0
M  V30 4424 H 680.815 4.80159 3.74441 0
M  V30 4425 H 681.845 5.81459 1.09608 0
M  V30 4426 H 680.108 5.9187 1.54487 0
M  V30 4427 H 680.596 5.10095 0.0220288 0
M  V30 4428 H 681.332 0.798962 1.16664 0
M  V30 4429 P 682.756 2.75334 8.47391 0
M  V30 4430 O 682.976 2.44571 9.90142 0
M  V30 4431 O 683.546 3.87688 7.92115 0
M  V30 4432 O 683.006 1.4459 7.59357 0
M  V30 4433 C 682.066 0.347608 7.69215 0
M  V30 4434 C 682.796 -0.96767 7.52806 0
M  V30 4435 O 683.006 -1.21036 6.1011 0
M  V30 4436 C 684.196 -1.04544 8.13308 0
M  V30 4437 O 684.586 -2.38311 8.41922 0
M  V30 4438 C 685.076 -0.491279 7.02284 0
M  V30 4439 C 684.366 -0.996264 5.77469 0
M  V30 4440 N 684.416 -0.0501916 4.62973 0
M  V30 4441 C 684.336 1.32786 4.63244 0
M  V30 4442 N 684.416 1.86957 3.44545 0
M  V30 4443 C 684.556 0.780241 2.58481 0
M  V30 4444 C 684.686 0.738536 1.17757 0
M  V30 4445 N 684.806 -0.58337 0.711393 0
M  V30 4446 C 684.806 -1.70816 1.51017 0
M  V30 4447 N 684.936 -2.87826 0.880757 0
M  V30 4448 N 684.676 -1.67126 2.8339 0
M  V30 4449 C 684.556 -0.401421 3.30572 0
M  V30 4450 H 681.577 0.374722 8.67691 0
M  V30 4451 H 681.307 0.443485 6.90277 0
M  V30 4452 H 682.174 -1.75537 7.96793 0
M  V30 4453 P 686.136 -2.75334 8.47391 0
M  V30 4454 O 686.356 -3.84128 9.44797 0
M  V30 4455 O 686.926 -1.51947 8.68712 0
M  V30 4456 O 686.386 -3.29363 6.99321 0
M  V30 4457 C 685.446 -4.24011 6.4274 0
M  V30 4458 C 686.176 -5.20775 5.52155 0
M  V30 4459 O 686.386 -4.56534 4.22446 0
M  V30 4460 C 687.576 -5.62629 5.96531 0
M  V30 4461 O 687.966 -6.87667 5.41053 0
M  V30 4462 C 688.456 -4.52537 5.39283 0
M  V30 4463 C 687.746 -4.20027 4.08623 0
M  V30 4464 N 687.796 -2.76189 3.71603 0
M  V30 4465 H 684.957 -4.797 7.24003 0
M  V30 4466 H 684.687 -3.69856 5.84513 0
M  V30 4467 H 685.554 -6.10356 5.41441 0
M  V30 4468 P 689.516 -7.20834 5.23717 0
M  V30 4469 O 689.736 -8.66189 5.38625 0
M  V30 4470 O 690.306 -6.33615 6.1356 0
M  V30 4471 O 689.766 -6.7751 3.72168 0
M  V30 4472 C 688.826 -7.20732 2.70725 0
M  V30 4473 C 689.556 -7.45864 1.40599 0
M  V30 4474 O 689.766 -6.17651 0.734225 0
M  V30 4475 C 690.956 -8.05808 1.51899 0
M  V30 4476 O 691.346 -8.74358 0.335205 0
M  V30 4477 C 691.836 -6.83093 1.70294 0
M  V30 4478 C 691.126 -5.79992 0.836974 0
M  V30 4479 N 691.176 -4.41769 1.38263 0
M  V30 4480 C 691.326 -3.38591 0.481702 0
M  V30 4481 O 691.416 -3.56839 -0.718452 0
M  V30 4482 N 691.366 -2.1206 1.03569 0
M  V30 4483 C 691.276 -1.80696 2.36966 0
M  V30 4484 C 691.126 -2.94845 3.23898 0
M  V30 4485 C 691.076 -4.19803 2.73435 0
M  V30 4486 H 688.336 -8.13644 3.0377 0
M  V30 4487 H 688.067 -6.42695 2.55448 0
M  V30 4488 H 688.934 -8.12039 0.792769 0
M  V30 4489 H 691.589 -5.79978 -0.160587 0
M  V30 4490 H 691.868 -6.51379 2.75643 0
M  V30 4491 H 692.86 -7.01734 1.34462 0
M  V30 4492 H 691.026 -8.73674 2.38337 0
M  V30 4493 H 690.955 -5.04492 3.4095 0
M  V30 4494 P 692.896 -8.91 -4.67181e-12 0
M  V30 4495 O 693.116 -10.1726 -0.733694 0
M  V30 4496 O 693.686 -8.73148 1.23936 0
M  V30 4497 O 693.146 -7.66872 -0.971405 0
M  V30 4498 C 692.206 -7.42309 -2.04641 0
M  V30 4499 C 692.936 -6.86059 -3.24661 0
M  V30 4500 O 693.146 -5.42847 -3.03646 0
M  V30 4501 C 694.336 -7.41196 -3.50753 0
M  V30 4502 O 694.726 -7.27073 -4.86816 0
M  V30 4503 C 695.216 -6.5273 -2.63741 0
M  V30 4504 C 694.506 -5.1842 -2.73198 0
M  V30 4505 N 694.556 -4.38762 -1.4784 0
M  V30 4506 H 691.717 -8.36803 -2.32493 0
M  V30 4507 H 691.447 -6.70197 -1.71129 0
M  V30 4508 H 692.314 -7.03551 -4.13168 0
M  V30 4509 P 696.276 -7.20834 -5.23717 0
M  V30 4510 O 696.496 -7.7993 -6.57351 0
M  V30 4511 O 697.066 -7.79328 -4.13004 0
M  V30 4512 O 696.526 -5.63315 -5.29344 0
M  V30 4513 C 695.586 -4.80193 -6.01798 0
M  V30 4514 C 696.316 -3.64202 -6.65911 0
M  V30 4515 O 696.526 -2.60694 -5.64732 0
M  V30 4516 C 697.716 -3.93473 -7.1943 0
M  V30 4517 O 698.106 -3.02071 -8.21205 0
M  V30 4518 C 698.596 -3.73047 -5.97036 0
M  V30 4519 C 697.886 -2.58828 -5.25741 0
M  V30 4520 N 697.936 -2.6801 -3.77422 0
M  V30 4521 C 698.086 -1.50443 -3.07133 0
M  V30 4522 O 698.176 -0.419406 -3.61576 0
M  V30 4523 N 698.126 -1.6403 -1.69677 0
M  V30 4524 C 698.036 -2.81206 -0.986255 0
M  V30 4525 C 697.886 -3.99158 -1.80325 0
M  V30 4526 C 697.836 -3.89779 -3.1476 0
M  V30 4527 H 695.096 -5.40332 -6.79951 0
M  V30 4528 H 694.827 -4.41549 -5.32301 0
M  V30 4529 H 695.694 -3.26331 -7.47797 0
M  V30 4530 H 698.349 -1.6395 -5.56554 0
M  V30 4531 H 698.628 -4.63439 -5.3432 0
M  V30 4532 H 699.62 -3.44728 -6.25838 0
M  V30 4533 H 697.786 -4.96652 -7.57263 0
M  V30 4534 H 697.715 -4.80159 -3.74441 0
M  V30 4535 P 699.656 -2.75334 -8.47391 0
M  V30 4536 O 699.876 -2.44619 -9.90336 0
M  V30 4537 O 700.446 -3.87776 -7.92294 0
M  V30 4538 O 699.906 -1.4459 -7.59357 0
M  V30 4539 C 698.966 -0.347653 -7.69315 0
M  V30 4540 C 699.696 0.96767 -7.52806 0
M  V30 4541 O 699.906 1.21055 -6.10208 0
M  V30 4542 C 701.096 1.04557 -8.13408 0
M  V30 4543 O 701.486 2.38311 -8.41922 0
M  V30 4544 C 701.976 0.491279 -7.02284 0
M  V30 4545 C 701.266 0.996264 -5.77469 0
M  V30 4546 N 701.316 0.0501916 -4.62973 0
M  V30 4547 H 698.478 -0.374765 -8.67791 0
M  V30 4548 H 698.206 -0.443613 -6.90476 0
M  V30 4549 H 699.074 1.75559 -7.96891 0
M  V30 4550 H 701.729 1.94563 -5.46818 0
M  V30 4551 H 702.009 -0.608651 -7.04676 0
M  V30 4552 H 703 0.889796 -7.09039 0
M  V30 4553 H 701.166 0.433128 -9.04664 0
M  V30 4554 P 703.036 2.75334 -8.47391 0
M  V30 4555 O 703.256 3.84128 -9.44797 0
M  V30 4556 O 703.826 1.51947 -8.68712 0
M  V30 4557 O 703.286 3.29363 -6.99321 0
M  V30 4558 C 702.346 4.24011 -6.4274 0
M  V30 4559 C 703.076 5.20775 -5.52155 0
M  V30 4560 O 703.286 4.56534 -4.22446 0
M  V30 4561 C 704.476 5.62629 -5.96531 0
M  V30 4562 O 704.866 6.87667 -5.41053 0
M  V30 4563 C 705.356 4.52537 -5.39283 0
M  V30 4564 C 704.646 4.20027 -4.08623 0
M  V30 4565 N 704.696 2.76189 -3.71603 0
M  V30 4566 H 701.857 4.797 -7.24003 0
M  V30 4567 H 701.587 3.69856 -5.84513 0
M  V30 4568 H 702.454 6.10356 -5.41441 0
M  V30 4569 P 706.416 7.20834 -5.23717 0
M  V30 4570 O 706.636 8.66104 -5.38572 0
M  V30 4571 O 707.206 6.33544 -6.1349 0
M  V30 4572 O 706.666 6.7751 -3.72168 0
M  V30 4573 C 705.726 7.20825 -2.7076 0
M  V30 4574 C 706.456 7.45864 -1.40599 0
M  V30 4575 O 706.666 6.17651 -0.734225 0
M  V30 4576 C 707.856 8.05808 -1.51899 0
M  V30 4577 O 708.246 8.74358 -0.335205 0
M  V30 4578 C 708.736 6.83093 -1.70294 0
M  V30 4579 C 708.026 5.79992 -0.836974 0
M  V30 4580 N 708.076 4.41864 -1.38293 0
M  V30 4581 H 705.237 8.13644 -3.0377 0
M  V30 4582 H 704.967 6.42788 -2.55485 0
M  V30 4583 H 705.834 8.12039 -0.792769 0
M  V30 4584 P 709.796 8.91 4.82899e-12 0
M  V30 4585 O 710.016 10.1746 0.733838 0
M  V30 4586 O 710.586 8.73346 -1.23964 0
M  V30 4587 O 710.046 7.66872 0.971405 0
M  V30 4588 C 709.106 7.42405 2.04668 0
M  V30 4589 C 709.836 6.86059 3.24661 0
M  V30 4590 O 710.046 5.42934 3.03695 0
M  V30 4591 C 711.236 7.41287 3.50796 0
M  V30 4592 O 711.626 7.27073 4.86816 0
M  V30 4593 C 712.116 6.5273 2.63741 0
M  V30 4594 C 711.406 5.1842 2.73198 0
M  V30 4595 N 711.456 4.38762 1.4784 0
M  V30 4596 C 711.376 4.83651 0.183876 0
M  V30 4597 N 711.446 3.88759 -0.699393 0
M  V30 4598 C 711.596 2.7404 0.0575568 0
M  V30 4599 C 711.726 1.37902 -0.293928 0
M  V30 4600 N 711.736 0.938021 -1.54797 0
M  V30 4601 N 711.846 0.491817 0.70549 0
M  V30 4602 C 711.836 0.931735 1.95979 0
M  V30 4603 N 711.716 2.16017 2.41481 0
M  V30 4604 C 711.596 3.02547 1.39121 0
M  V30 4605 H 708.618 8.36899 2.3252 0
M  V30 4606 H 708.346 6.70391 1.71179 0
M  V30 4607 H 709.214 7.03638 4.13219 0
M  V30 4608 H 711.869 4.59931 3.54016 0
M  V30 4609 H 712.149 6.88995 1.59871 0
M  V30 4610 H 713.14 6.4684 3.0373 0
M  V30 4611 H 711.306 8.47002 3.20749 0
M  V30 4612 H 711.265 5.8885 -0.0765548 0
M  V30 4613 H 711.646 1.60276 -2.32875 0
M  V30 4614 H 711.835 -0.0699355 -1.73859 0
M  V30 4615 H 711.943 0.165507 2.71897 0
M  V30 4616 P 713.176 7.20834 5.23717 0
M  V30 4617 O 713.396 7.79853 6.57286 0
M  V30 4618 O 713.966 7.79239 4.12957 0
M  V30 4619 O 713.426 5.63315 5.29344 0
M  V30 4620 C 712.486 4.80255 6.01876 0
M  V30 4621 C 713.216 3.64202 6.65911 0
M  V30 4622 O 713.426 2.60694 5.64732 0
M  V30 4623 C 714.616 3.93473 7.1943 0
M  V30 4624 O 715.006 3.02071 8.21205 0
M  V30 4625 C 715.496 3.73047 5.97036 0
M  V30 4626 C 714.786 2.58828 5.25741 0
M  V30 4627 N 714.836 2.68068 3.77503 0
M  V30 4628 H 711.997 5.40332 6.79951 0
M  V30 4629 H 711.727 4.41613 5.32378 0
M  V30 4630 H 712.594 3.26331 7.47797 0
M  V30 4631 P 716.556 2.75334 8.47391 0
M  V30 4632 O 716.776 2.44571 9.90142 0
M  V30 4633 O 717.346 3.87688 7.92115 0
M  V30 4634 O 716.806 1.4459 7.59357 0
M  V30 4635 C 715.866 0.347608 7.69215 0
M  V30 4636 C 716.596 -0.96767 7.52806 0
M  V30 4637 O 716.806 -1.21036 6.1011 0
M  V30 4638 C 717.996 -1.04544 8.13308 0
M  V30 4639 O 718.386 -2.38311 8.41922 0
M  V30 4640 C 718.876 -0.491279 7.02284 0
M  V30 4641 C 718.166 -0.996264 5.77469 0
M  V30 4642 N 718.216 -0.0501916 4.62973 0
M  V30 4643 H 715.377 0.374722 8.67691 0
M  V30 4644 H 715.107 0.443485 6.90277 0
M  V30 4645 H 715.974 -1.75537 7.96793 0
M  V30 4646 P 719.936 -2.75334 8.47391 0
M  V30 4647 O 720.156 -3.84128 9.44797 0
M  V30 4648 O 720.726 -1.51947 8.68712 0
M  V30 4649 O 720.186 -3.29363 6.99321 0
M  V30 4650 C 719.246 -4.24011 6.4274 0
M  V30 4651 C 719.976 -5.20775 5.52155 0
M  V30 4652 O 720.186 -4.56534 4.22446 0
M  V30 4653 C 721.376 -5.62629 5.96531 0
M  V30 4654 O 721.766 -6.87667 5.41053 0
M  V30 4655 C 722.256 -4.52537 5.39283 0
M  V30 4656 C 721.546 -4.20027 4.08623 0
M  V30 4657 N 721.596 -2.76189 3.71603 0
M  V30 4658 H 718.757 -4.797 7.24003 0
M  V30 4659 H 718.487 -3.69856 5.84513 0
M  V30 4660 H 719.354 -6.10356 5.41441 0
M  V30 4661 P 723.316 -7.20834 5.23717 0
M  V30 4662 O 723.536 -8.66104 5.38572 0
M  V30 4663 O 724.106 -6.33544 6.1349 0
M  V30 4664 O 723.566 -6.7751 3.72168 0
M  V30 4665 C 722.626 -7.20825 2.7076 0
M  V30 4666 C 723.356 -7.45864 1.40599 0
M  V30 4667 O 723.566 -6.17651 0.734225 0
M  V30 4668 C 724.756 -8.05808 1.51899 0
M  V30 4669 O 725.146 -8.74358 0.335205 0
M  V30 4670 C 725.636 -6.83093 1.70294 0
M  V30 4671 C 724.926 -5.79992 0.836974 0
M  V30 4672 N 724.976 -4.41864 1.38293 0
M  V30 4673 C 724.896 -3.99538 2.69438 0
M  V30 4674 N 724.976 -2.69909 2.84277 0
M  V30 4675 C 725.116 -2.21719 1.5408 0
M  V30 4676 C 725.246 -0.891712 1.06628 0
M  V30 4677 N 725.366 -0.856846 -0.334985 0
M  V30 4678 C 725.366 -1.9641 -1.15789 0
M  V30 4679 N 725.496 -1.72708 -2.46522 0
M  V30 4680 N 725.236 -3.21165 -0.713741 0
M  V30 4681 C 725.116 -3.26797 0.639748 0
M  V30 4682 H 722.137 -8.13644 3.0377 0
M  V30 4683 H 721.867 -6.42788 2.55485 0
M  V30 4684 H 722.734 -8.12039 0.792769 0
M  V30 4685 P 726.696 -8.91 -4.98617e-12 0
M  V30 4686 O 726.916 -10.1746 -0.733838 0
M  V30 4687 O 727.486 -8.73346 1.23964 0
M  V30 4688 O 726.946 -7.66872 -0.971405 0
M  V30 4689 C 726.006 -7.42405 -2.04668 0
M  V30 4690 C 726.736 -6.86059 -3.24661 0
M  V30 4691 O 726.946 -5.42934 -3.03695 0
M  V30 4692 C 728.136 -7.41287 -3.50796 0
M  V30 4693 O 728.526 -7.27073 -4.86816 0
M  V30 4694 C 729.016 -6.5273 -2.63741 0
M  V30 4695 C 728.306 -5.1842 -2.73198 0
M  V30 4696 N 728.356 -4.38762 -1.4784 0
M  V30 4697 H 725.518 -8.36899 -2.3252 0
M  V30 4698 H 725.246 -6.70391 -1.71179 0
M  V30 4699 H 726.114 -7.03638 -4.13219 0
M  V30 4700 H 728.769 -4.59931 -3.54016 0
M  V30 4701 H 729.049 -6.88995 -1.59871 0
M  V30 4702 H 730.04 -6.4684 -3.0373 0
M  V30 4703 H 728.206 -8.47002 -3.20749 0
M  V30 4704 P 730.076 -7.20834 -5.23717 0
M  V30 4705 O 730.296 -7.79853 -6.57286 0
M  V30 4706 O 730.866 -7.79239 -4.12957 0
M  V30 4707 O 730.326 -5.63315 -5.29344 0
M  V30 4708 C 729.386 -4.80255 -6.01876 0
M  V30 4709 C 730.116 -3.64202 -6.65911 0
M  V30 4710 O 730.326 -2.60694 -5.64732 0
M  V30 4711 C 731.516 -3.93473 -7.1943 0
M  V30 4712 O 731.906 -3.02071 -8.21205 0
M  V30 4713 C 732.396 -3.73047 -5.97036 0
M  V30 4714 C 731.686 -2.58828 -5.25741 0
M  V30 4715 N 731.736 -2.68068 -3.77503 0
M  V30 4716 H 728.897 -5.40332 -6.79951 0
M  V30 4717 H 728.627 -4.41613 -5.32378 0
M  V30 4718 H 729.494 -3.26331 -7.47797 0
M  V30 4719 P 733.456 -2.75334 -8.47391 0
M  V30 4720 O 733.676 -2.44571 -9.90142 0
M  V30 4721 O 734.246 -3.87688 -7.92115 0
M  V30 4722 O 733.706 -1.4459 -7.59357 0
M  V30 4723 C 732.766 -0.347608 -7.69215 0
M  V30 4724 C 733.496 0.96767 -7.52806 0
M  V30 4725 O 733.706 1.21036 -6.1011 0
M  V30 4726 C 734.896 1.04544 -8.13308 0
M  V30 4727 O 735.286 2.38311 -8.41922 0
M  V30 4728 C 735.776 0.491279 -7.02284 0
M  V30 4729 C 735.066 0.996264 -5.77469 0
M  V30 4730 N 735.116 0.0501916 -4.62973 0
M  V30 4731 H 732.277 -0.374722 -8.67691 0
M  V30 4732 H 732.007 -0.443485 -6.90277 0
M  V30 4733 H 732.874 1.75537 -7.96793 0
M  V30 4734 P 736.836 2.75334 -8.47391 0
M  V30 4735 O 737.056 3.84166 -9.4489 0
M  V30 4736 O 737.626 1.51964 -8.6881 0
M  V30 4737 O 737.086 3.29363 -6.99321 0
M  V30 4738 C 736.146 4.24011 -6.4274 0
M  V30 4739 C 736.876 5.20775 -5.52155 0
M  V30 4740 O 737.086 4.56534 -4.22446 0
M  V30 4741 C 738.276 5.62629 -5.96531 0
M  V30 4742 O 738.666 6.87667 -5.41053 0
M  V30 4743 C 739.156 4.52537 -5.39283 0
M  V30 4744 C 738.446 4.20027 -4.08623 0
M  V30 4745 N 738.496 2.7613 -3.71522 0
M  V30 4746 C 738.646 2.43702 -2.37085 0
M  V30 4747 O 738.736 3.3531 -1.54039 0
M  V30 4748 N 738.696 0.951103 -2.10621 0
M  V30 4749 C 738.596 0.165021 -2.93537 0
M  V30 4750 N 738.646 -1.09723 -2.53253 0
M  V30 4751 C 738.446 0.469576 -4.32458 0
M  V30 4752 C 738.396 1.78658 -4.65921 0
M  V30 4753 H 735.656 4.79645 -7.23919 0
M  V30 4754 H 735.387 3.69802 -5.84429 0
M  V30 4755 H 736.254 6.10431 -5.41508 0
M  V30 4756 H 738.909 4.78733 -3.27967 0
M  V30 4757 H 739.188 3.64957 -6.05871 0
M  V30 4758 H 740.18 4.8868 -5.2125 0
M  V30 4759 H 738.346 5.66726 -7.06352 0
M  V30 4760 H 738.274 2.06987 -5.70299 0
M  V30 4761 H 738.376 -0.314383 -5.07728 0
M  V30 4762 H 738.764 -1.31363 -1.5319 0
M  V30 4763 H 738.567 -1.85978 -3.21943 0
M  V30 4764 P 740.216 7.20834 -5.23717 0
M  V30 4765 O 740.436 8.66104 -5.38572 0
M  V30 4766 O 741.006 6.33544 -6.1349 0
M  V30 4767 O 740.466 6.7751 -3.72168 0
M  V30 4768 C 739.526 7.20825 -2.7076 0
M  V30 4769 C 740.256 7.45864 -1.40599 0
M  V30 4770 O 740.466 6.17651 -0.734225 0
M  V30 4771 C 741.656 8.05808 -1.51899 0
M  V30 4772 O 742.046 8.74358 -0.335205 0
M  V30 4773 C 742.536 6.83093 -1.70294 0
M  V30 4774 C 741.826 5.79992 -0.836974 0
M  V30 4775 N 741.876 4.41864 -1.38293 0
M  V30 4776 C 741.796 3.99538 -2.69438 0
M  V30 4777 N 741.876 2.69909 -2.84277 0
M  V30 4778 C 742.016 2.21719 -1.5408 0
M  V30 4779 C 742.146 0.891712 -1.06628 0
M  V30 4780 N 742.266 0.856846 0.334985 0
M  V30 4781 C 742.266 1.9641 1.15789 0
M  V30 4782 N 742.396 1.72708 2.46522 0
M  V30 4783 N 742.136 3.21165 0.713741 0
M  V30 4784 C 742.016 3.26797 -0.639748 0
M  V30 4785 H 739.037 8.13644 -3.0377 0
M  V30 4786 H 738.767 6.42788 -2.55485 0
M  V30 4787 H 739.634 8.12039 -0.792769 0
M  V30 4788 P 743.596 8.91 5.14336e-12 0
M  V30 4789 O 743.816 10.1746 0.733838 0
M  V30 4790 O 744.386 8.73346 -1.23964 0
M  V30 4791 O 743.846 7.66872 0.971405 0
M  V30 4792 C 742.906 7.42405 2.04668 0
M  V30 4793 C 743.636 6.86059 3.24661 0
M  V30 4794 O 743.846 5.42934 3.03695 0
M  V30 4795 C 745.036 7.41287 3.50796 0
M  V30 4796 O 745.426 7.27073 4.86816 0
M  V30 4797 C 745.916 6.5273 2.63741 0
M  V30 4798 C 745.206 5.1842 2.73198 0
M  V30 4799 N 745.256 4.38762 1.4784 0
M  V30 4800 C 745.176 4.83651 0.183876 0
M  V30 4801 N 745.246 3.88759 -0.699393 0
M  V30 4802 C 745.396 2.7404 0.0575568 0
M  V30 4803 C 745.526 1.37902 -0.293928 0
M  V30 4804 N 745.536 0.938021 -1.54797 0
M  V30 4805 N 745.646 0.491817 0.70549 0
M  V30 4806 C 745.636 0.931735 1.95979 0
M  V30 4807 N 745.516 2.16017 2.41481 0
M  V30 4808 C 745.396 3.02547 1.39121 0
M  V30 4809 H 742.418 8.36899 2.3252 0
M  V30 4810 H 742.146 6.70391 1.71179 0
M  V30 4811 H 743.014 7.03638 4.13219 0
M  V30 4812 H 745.669 4.59931 3.54016 0
M  V30 4813 H 745.949 6.88995 1.59871 0
M  V30 4814 H 746.94 6.4684 3.0373 0
M  V30 4815 H 745.106 8.47002 3.20749 0
M  V30 4816 H 745.065 5.8885 -0.0765548 0
M  V30 4817 H 745.446 1.60276 -2.32875 0
M  V30 4818 H 745.635 -0.0699355 -1.73859 0
M  V30 4819 H 745.743 0.165507 2.71897 0
M  V30 4820 P 746.976 7.20834 5.23717 0
M  V30 4821 O 747.196 7.79853 6.57286 0
M  V30 4822 O 747.766 7.79239 4.12957 0
M  V30 4823 O 747.226 5.63315 5.29344 0
M  V30 4824 C 746.286 4.80255 6.01876 0
M  V30 4825 C 747.016 3.64202 6.65911 0
M  V30 4826 O 747.226 2.60694 5.64732 0
M  V30 4827 C 748.416 3.93473 7.1943 0
M  V30 4828 O 748.806 3.02071 8.21205 0
M  V30 4829 C 749.296 3.73047 5.97036 0
M  V30 4830 C 748.586 2.58828 5.25741 0
M  V30 4831 N 748.636 2.68068 3.77503 0
M  V30 4832 H 745.797 5.40332 6.79951 0
M  V30 4833 H 745.527 4.41613 5.32378 0
M  V30 4834 H 746.394 3.26331 7.47797 0
M  V30 4835 P 750.356 2.75334 8.47391 0
M  V30 4836 O 750.576 2.44571 9.90142 0
M  V30 4837 O 751.146 3.87688 7.92115 0
M  V30 4838 O 750.606 1.4459 7.59357 0
M  V30 4839 C 749.666 0.347608 7.69215 0
M  V30 4840 C 750.396 -0.96767 7.52806 0
M  V30 4841 O 750.606 -1.21036 6.1011 0
M  V30 4842 C 751.796 -1.04544 8.13308 0
M  V30 4843 O 752.186 -2.38311 8.41922 0
M  V30 4844 C 752.676 -0.491279 7.02284 0
M  V30 4845 C 751.966 -0.996264 5.77469 0
M  V30 4846 N 752.016 -0.0501916 4.62973 0
M  V30 4847 C 751.936 1.32786 4.63244 0
M  V30 4848 N 752.016 1.86957 3.44545 0
M  V30 4849 C 752.156 0.780241 2.58481 0
M  V30 4850 C 752.286 0.738536 1.17757 0
M  V30 4851 N 752.406 -0.58337 0.711393 0
M  V30 4852 C 752.406 -1.70816 1.51017 0
M  V30 4853 N 752.536 -2.87826 0.880757 0
M  V30 4854 N 752.276 -1.67126 2.8339 0
M  V30 4855 C 752.156 -0.401421 3.30572 0
M  V30 4856 H 749.177 0.374722 8.67691 0
M  V30 4857 H 748.907 0.443485 6.90277 0
M  V30 4858 H 749.774 -1.75537 7.96793 0
M  V30 4859 P 753.736 -2.75334 8.47391 0
M  V30 4860 O 753.956 -3.84128 9.44797 0
M  V30 4861 O 754.526 -1.51947 8.68712 0
M  V30 4862 O 753.986 -3.29363 6.99321 0
M  V30 4863 C 753.046 -4.24011 6.4274 0
M  V30 4864 C 753.776 -5.20775 5.52155 0
M  V30 4865 O 753.986 -4.56534 4.22446 0
M  V30 4866 C 755.176 -5.62629 5.96531 0
M  V30 4867 O 755.566 -6.87667 5.41053 0
M  V30 4868 C 756.056 -4.52537 5.39283 0
M  V30 4869 C 755.346 -4.20027 4.08623 0
M  V30 4870 N 755.396 -2.76189 3.71603 0
M  V30 4871 H 752.557 -4.797 7.24003 0
M  V30 4872 H 752.287 -3.69856 5.84513 0
M  V30 4873 H 753.154 -6.10356 5.41441 0
M  V30 4874 P 757.116 -7.20834 5.23717 0
M  V30 4875 O 757.336 -8.66104 5.38572 0
M  V30 4876 O 757.906 -6.33544 6.1349 0
M  V30 4877 O 757.366 -6.7751 3.72168 0
M  V30 4878 C 756.426 -7.20825 2.7076 0
M  V30 4879 C 757.156 -7.45864 1.40599 0
M  V30 4880 O 757.366 -6.17651 0.734225 0
M  V30 4881 C 758.556 -8.05808 1.51899 0
M  V30 4882 O 758.946 -8.74358 0.335205 0
M  V30 4883 C 759.436 -6.83093 1.70294 0
M  V30 4884 C 758.726 -5.79992 0.836974 0
M  V30 4885 N 758.776 -4.41864 1.38293 0
M  V30 4886 H 755.937 -8.13644 3.0377 0
M  V30 4887 H 755.667 -6.42788 2.55485 0
M  V30 4888 H 756.534 -8.12039 0.792769 0
M  V30 4889 P 760.496 -8.91 -5.30054e-12 0
M  V30 4890 O 760.716 -10.1736 -0.733766 0
M  V30 4891 O 761.286 -8.73247 1.2395 0
M  V30 4892 O 760.746 -7.66872 -0.971405 0
M  V30 4893 C 759.806 -7.42309 -2.04641 0
M  V30 4894 C 760.536 -6.86059 -3.24661 0
M  V30 4895 O 760.746 -5.42847 -3.03646 0
M  V30 4896 C 761.936 -7.41196 -3.50753 0
M  V30 4897 O 762.326 -7.27073 -4.86816 0
M  V30 4898 C 762.816 -6.5273 -2.63741 0
M  V30 4899 C 762.106 -5.1842 -2.73198 0
M  V30 4900 N 762.156 -4.38668 -1.47808 0
M  V30 4901 C 762.306 -3.00789 -1.58511 0
M  V30 4902 O 762.396 -2.50116 -2.71298 0
M  V30 4903 N 762.356 -2.29703 -0.253698 0
M  V30 4904 C 762.256 -2.84269 0.750133 0
M  V30 4905 N 762.306 -2.06951 1.82612 0
M  V30 4906 C 762.106 -4.25803 0.889776 0
M  V30 4907 C 762.056 -4.98326 -0.259363 0
M  V30 4908 H 759.316 -8.36707 -2.32466 0
M  V30 4909 H 759.047 -6.701 -1.71105 0
M  V30 4910 H 759.914 -7.03638 -4.13219 0
M  V30 4911 H 762.569 -4.59852 -3.53955 0
M  V30 4912 H 762.848 -6.88995 -1.59871 0
M  V30 4913 H 763.84 -6.46749 -3.03687 0
M  V30 4914 H 762.006 -8.46908 -3.20714 0
M  V30 4915 H 761.934 -6.06349 -0.206238 0
M  V30 4916 H 762.036 -4.73163 1.86796 0
M  V30 4917 H 762.424 -1.05099 1.72271 0
M  V30 4918 H 762.227 -2.48716 2.76361 0
M  V30 4919 P 763.875 -7.20834 -5.23717 0
M  V30 4920 O 764.095 -7.79853 -6.57286 0
M  V30 4921 O 764.665 -7.79239 -4.12957 0
M  V30 4922 O 764.125 -5.63315 -5.29344 0
M  V30 4923 C 763.185 -4.80255 -6.01876 0
M  V30 4924 C 763.915 -3.64202 -6.65911 0
M  V30 4925 O 764.125 -2.60694 -5.64732 0
M  V30 4926 C 765.315 -3.93473 -7.1943 0
M  V30 4927 O 765.705 -3.02071 -8.21205 0
M  V30 4928 C 766.195 -3.73047 -5.97036 0
M  V30 4929 C 765.485 -2.58828 -5.25741 0
M  V30 4930 N 765.535 -2.68068 -3.77503 0
M  V30 4931 H 762.696 -5.40332 -6.79951 0
M  V30 4932 H 762.426 -4.41613 -5.32378 0
M  V30 4933 H 763.293 -3.26331 -7.47797 0
M  V30 4934 P 767.255 -2.75334 -8.47391 0
M  V30 4935 O 767.475 -2.44571 -9.90142 0
M  V30 4936 O 768.045 -3.87688 -7.92115 0
M  V30 4937 O 767.505 -1.4459 -7.59357 0
M  V30 4938 C 766.565 -0.347608 -7.69215 0
M  V30 4939 C 767.295 0.96767 -7.52806 0
M  V30 4940 O 767.505 1.21036 -6.1011 0
M  V30 4941 C 768.695 1.04544 -8.13308 0
M  V30 4942 O 769.085 2.38311 -8.41922 0
M  V30 4943 C 769.575 0.491279 -7.02284 0
M  V30 4944 C 768.865 0.996264 -5.77469 0
M  V30 4945 N 768.915 0.0501916 -4.62973 0
M  V30 4946 C 768.835 -1.32786 -4.63244 0
M  V30 4947 N 768.915 -1.86957 -3.44545 0
M  V30 4948 C 769.055 -0.780241 -2.58481 0
M  V30 4949 C 769.185 -0.738536 -1.17757 0
M  V30 4950 N 769.305 0.58337 -0.711393 0
M  V30 4951 C 769.305 1.70816 -1.51017 0
M  V30 4952 N 769.435 2.87826 -0.880757 0
M  V30 4953 N 769.175 1.67126 -2.8339 0
M  V30 4954 C 769.055 0.401421 -3.30572 0
M  V30 4955 H 766.076 -0.374722 -8.67691 0
M  V30 4956 H 765.806 -0.443485 -6.90277 0
M  V30 4957 H 766.673 1.75537 -7.96793 0
M  V30 4958 P 770.635 2.75334 -8.47391 0
M  V30 4959 O 770.855 3.84128 -9.44797 0
M  V30 4960 O 771.425 1.51947 -8.68712 0
M  V30 4961 O 770.885 3.29363 -6.99321 0
M  V30 4962 C 769.945 4.24011 -6.4274 0
M  V30 4963 C 770.675 5.20775 -5.52155 0
M  V30 4964 O 770.885 4.56534 -4.22446 0
M  V30 4965 C 772.075 5.62629 -5.96531 0
M  V30 4966 O 772.465 6.87667 -5.41053 0
M  V30 4967 C 772.955 4.52537 -5.39283 0
M  V30 4968 C 772.245 4.20027 -4.08623 0
M  V30 4969 N 772.295 2.76189 -3.71603 0
M  V30 4970 H 769.456 4.797 -7.24003 0
M  V30 4971 H 769.186 3.69856 -5.84513 0
M  V30 4972 H 770.053 6.10356 -5.41441 0
M  V30 4973 P 774.015 7.20834 -5.23717 0
M  V30 4974 O 774.235 8.66274 -5.38678 0
M  V30 4975 O 774.805 6.33687 -6.13629 0
M  V30 4976 O 774.265 6.7751 -3.72168 0
M  V30 4977 C 773.325 7.20919 -2.70795 0
M  V30 4978 C 774.055 7.45864 -1.40599 0
M  V30 4979 O 774.265 6.17751 -0.734343 0
M  V30 4980 C 775.455 8.05906 -1.51917 0
M  V30 4981 O 775.845 8.74358 -0.335205 0
M  V30 4982 C 776.335 6.83093 -1.70294 0
M  V30 4983 C 775.625 5.79992 -0.836974 0
M  V30 4984 N 775.675 4.41864 -1.38293 0
M  V30 4985 C 775.595 4.02089 -2.69407 0
M  V30 4986 N 775.665 2.73403 -2.85089 0
M  V30 4987 C 775.815 2.25086 -1.5642 0
M  V30 4988 C 775.945 0.942887 -1.04836 0
M  V30 4989 N 775.955 -0.150999 -1.80369 0
M  V30 4990 N 776.065 0.812565 0.28167 0
M  V30 4991 C 776.055 1.90572 1.03784 0
M  V30 4992 N 775.935 3.167 0.683905 0
M  V30 4993 C 775.815 3.26538 -0.652815 0
M  V30 4994 H 772.837 8.13738 -3.03804 0
M  V30 4995 H 772.565 6.42974 -2.55559 0
M  V30 4996 H 773.433 8.12139 -0.792866 0
M  V30 4997 H 776.088 5.80178 0.160643 0
M  V30 4998 H 776.368 6.51379 -2.75643 0
M  V30 4999 H 777.359 7.01832 -1.3448 0
M  V30 5000 H 775.525 8.73771 -2.38364 0
M  V30 5001 H 775.484 4.7189 -3.52311 0
M  V30 5002 H 775.865 -0.0721434 -2.82608 0
M  V30 5003 H 776.054 -1.0785 -1.36544 0
M  V30 5004 H 776.162 1.73207 2.10241 0
M  V30 5005 P 777.395 8.91 5.45772e-12 0
M  V30 5006 O 777.615 10.1746 0.733838 0
M  V30 5007 O 778.185 8.73346 -1.23964 0
M  V30 5008 O 777.645 7.66872 0.971405 0
M  V30 5009 C 776.705 7.42405 2.04668 0
M  V30 5010 C 777.435 6.86059 3.24661 0
M  V30 5011 O 777.645 5.42934 3.03695 0
M  V30 5012 C 778.835 7.41287 3.50796 0
M  V30 5013 O 779.225 7.27073 4.86816 0
M  V30 5014 C 779.715 6.5273 2.63741 0
M  V30 5015 C 779.005 5.1842 2.73198 0
M  V30 5016 N 779.055 4.38762 1.4784 0
M  V30 5017 C 778.975 4.83651 0.183876 0
M  V30 5018 N 779.045 3.88759 -0.699393 0
M  V30 5019 C 779.195 2.7404 0.0575568 0
M  V30 5020 C 779.325 1.37902 -0.293928 0
M  V30 5021 N 779.335 0.938021 -1.54797 0
M  V30 5022 N 779.445 0.491817 0.70549 0
M  V30 5023 C 779.435 0.931735 1.95979 0
M  V30 5024 N 779.315 2.16017 2.41481 0
M  V30 5025 C 779.195 3.02547 1.39121 0
M  V30 5026 H 776.217 8.36899 2.3252 0
M  V30 5027 H 775.945 6.70391 1.71179 0
M  V30 5028 H 776.813 7.03638 4.13219 0
M  V30 5029 H 779.468 4.59931 3.54016 0
M  V30 5030 H 779.748 6.88995 1.59871 0
M  V30 5031 H 780.739 6.4684 3.0373 0
M  V30 5032 H 778.905 8.47002 3.20749 0
M  V30 5033 H 778.864 5.8885 -0.0765548 0
M  V30 5034 H 779.245 1.60276 -2.32875 0
M  V30 5035 H 779.434 -0.0699355 -1.73859 0
M  V30 5036 H 779.542 0.165507 2.71897 0
M  V30 5037 P 780.775 7.20834 5.23717 0
M  V30 5038 O 780.995 7.80006 6.57415 0
M  V30 5039 O 781.565 7.79416 4.13051 0
M  V30 5040 O 781.025 5.63315 5.29344 0
M  V30 5041 C 780.085 4.80318 6.01954 0
M  V30 5042 C 780.815 3.64202 6.65911 0
M  V30 5043 O 781.025 2.60736 5.64823 0
M  V30 5044 C 782.215 3.93521 7.19518 0
M  V30 5045 O 782.605 3.02071 8.21205 0
M  V30 5046 C 783.095 3.73047 5.97036 0
M  V30 5047 C 782.385 2.58828 5.25741 0
M  V30 5048 N 782.435 2.68068 3.77503 0
M  V30 5049 C 782.355 3.80474 2.99159 0
M  V30 5050 N 782.425 3.55622 1.71925 0
M  V30 5051 C 782.575 2.1832 1.65733 0
M  V30 5052 C 782.705 1.28842 0.572777 0
M  V30 5053 N 782.715 1.66875 -0.70098 0
M  V30 5054 N 782.825 -0.016788 0.859836 0
M  V30 5055 C 782.815 -0.398145 2.13316 0
M  V30 5056 N 782.695 0.328224 3.22333 0
M  V30 5057 C 782.575 1.62992 2.90383 0
M  V30 5058 H 779.597 5.40394 6.8003 0
M  V30 5059 H 779.325 4.41741 5.32532 0
M  V30 5060 H 780.193 3.26371 7.47889 0
M  V30 5061 H 782.848 1.64007 5.56746 0
M  V30 5062 H 783.128 4.63439 5.3432 0
M  V30 5063 H 784.119 3.44776 6.25925 0
M  V30 5064 H 782.285 4.96707 7.57347 0
M  V30 5065 H 782.244 4.8089 3.39924 0
M  V30 5066 H 782.625 2.66547 -0.941919 0
M  V30 5067 H 782.814 0.965341 -1.44766 0
M  V30 5068 H 782.922 -1.46427 2.29697 0
M  V30 5069 P 784.155 2.75334 8.47391 0
M  V30 5070 O 784.375 2.44571 9.90142 0
M  V30 5071 O 784.945 3.87688 7.92115 0
M  V30 5072 O 784.405 1.4459 7.59357 0
M  V30 5073 C 783.465 0.347608 7.69215 0
M  V30 5074 C 784.195 -0.96767 7.52806 0
M  V30 5075 O 784.405 -1.21036 6.1011 0
M  V30 5076 C 785.595 -1.04544 8.13308 0
M  V30 5077 O 785.985 -2.38311 8.41922 0
M  V30 5078 C 786.475 -0.491279 7.02284 0
M  V30 5079 C 785.765 -0.996264 5.77469 0
M  V30 5080 N 785.815 -0.0501916 4.62973 0
M  V30 5081 H 782.976 0.374722 8.67691 0
M  V30 5082 H 782.706 0.443485 6.90277 0
M  V30 5083 H 783.573 -1.75537 7.96793 0
M  V30 5084 P 787.535 -2.75334 8.47391 0
M  V30 5085 O 787.755 -3.84128 9.44797 0
M  V30 5086 O 788.325 -1.51947 8.68712 0
M  V30 5087 O 787.785 -3.29363 6.99321 0
M  V30 5088 C 786.845 -4.24011 6.4274 0
M  V30 5089 C 787.575 -5.20775 5.52155 0
M  V30 5090 O 787.785 -4.56534 4.22446 0
M  V30 5091 C 788.975 -5.62629 5.96531 0
M  V30 5092 O 789.365 -6.87667 5.41053 0
M  V30 5093 C 789.855 -4.52537 5.39283 0
M  V30 5094 C 789.145 -4.20027 4.08623 0
M  V30 5095 N 789.195 -2.76189 3.71603 0
M  V30 5096 C 789.115 -1.64862 4.52822 0
M  V30 5097 N 789.195 -0.512671 3.88633 0
M  V30 5098 C 789.335 -0.888083 2.54977 0
M  V30 5099 C 789.465 -0.094668 1.38677 0
M  V30 5100 N 789.585 -0.890102 0.232633 0
M  V30 5101 C 789.585 -2.26958 0.21772 0
M  V30 5102 N 789.715 -2.84626 -0.97925 0
M  V30 5103 N 789.455 -3.0178 1.31033 0
M  V30 5104 C 789.335 -2.26781 2.43843 0
M  V30 5105 H 786.356 -4.797 7.24003 0
M  V30 5106 H 786.086 -3.69856 5.84513 0
M  V30 5107 H 786.953 -6.10356 5.41441 0
M  V30 5108 P 790.915 -7.20834 5.23717 0
M  V30 5109 O 791.135 -8.66104 5.38572 0
M  V30 5110 O 791.705 -6.33544 6.1349 0
M  V30 5111 O 791.165 -6.7751 3.72168 0
M  V30 5112 C 790.225 -7.20825 2.7076 0
M  V30 5113 C 790.955 -7.45864 1.40599 0
M  V30 5114 O 791.165 -6.17651 0.734225 0
M  V30 5115 C 792.355 -8.05808 1.51899 0
M  V30 5116 O 792.745 -8.74358 0.335205 0
M  V30 5117 C 793.235 -6.83093 1.70294 0
M  V30 5118 C 792.525 -5.79992 0.836974 0
M  V30 5119 N 792.575 -4.41864 1.38293 0
M  V30 5120 H 789.736 -8.13644 3.0377 0
M  V30 5121 H 789.466 -6.42788 2.55485 0
M  V30 5122 H 790.333 -8.12039 0.792769 0
M  V30 5123 P 794.295 -8.91 -5.6149e-12 0
M  V30 5124 O 794.515 -10.1726 -0.733694 0
M  V30 5125 O 795.085 -8.73148 1.23936 0
M  V30 5126 O 794.545 -7.66872 -0.971405 0
M  V30 5127 C 793.605 -7.42309 -2.04641 0
M  V30 5128 C 794.335 -6.86059 -3.24661 0
M  V30 5129 O 794.545 -5.42847 -3.03646 0
M  V30 5130 C 795.735 -7.41196 -3.50753 0
M  V30 5131 O 796.125 -7.27073 -4.86816 0
M  V30 5132 C 796.615 -6.5273 -2.63741 0
M  V30 5133 C 795.905 -5.1842 -2.73198 0
M  V30 5134 N 795.955 -4.38762 -1.4784 0
M  V30 5135 H 793.116 -8.36803 -2.32493 0
M  V30 5136 H 792.846 -6.70197 -1.71129 0
M  V30 5137 H 793.713 -7.03551 -4.13168 0
M  V30 5138 P 797.675 -7.20834 -5.23717 0
M  V30 5139 O 797.895 -7.79853 -6.57286 0
M  V30 5140 O 798.465 -7.79239 -4.12957 0
M  V30 5141 O 797.925 -5.63315 -5.29344 0
M  V30 5142 C 796.985 -4.80255 -6.01876 0
M  V30 5143 C 797.715 -3.64202 -6.65911 0
M  V30 5144 O 797.925 -2.60694 -5.64732 0
M  V30 5145 C 799.115 -3.93473 -7.1943 0
M  V30 5146 O 799.505 -3.02071 -8.21205 0
M  V30 5147 C 799.995 -3.73047 -5.97036 0
M  V30 5148 C 799.285 -2.58828 -5.25741 0
M  V30 5149 N 799.335 -2.68068 -3.77503 0
M  V30 5150 H 796.496 -5.40332 -6.79951 0
M  V30 5151 H 796.226 -4.41613 -5.32378 0
M  V30 5152 H 797.093 -3.26331 -7.47797 0
M  V30 5153 P 801.055 -2.75334 -8.47391 0
M  V30 5154 O 801.275 -2.44571 -9.90142 0
M  V30 5155 O 801.845 -3.87688 -7.92115 0
M  V30 5156 O 801.305 -1.4459 -7.59357 0
M  V30 5157 C 800.365 -0.347608 -7.69215 0
M  V30 5158 C 801.095 0.96767 -7.52806 0
M  V30 5159 O 801.305 1.21036 -6.1011 0
M  V30 5160 C 802.495 1.04544 -8.13308 0
M  V30 5161 O 802.885 2.38311 -8.41922 0
M  V30 5162 C 803.375 0.491279 -7.02284 0
M  V30 5163 C 802.665 0.996264 -5.77469 0
M  V30 5164 N 802.715 0.0501916 -4.62973 0
M  V30 5165 C 802.635 -1.32786 -4.63244 0
M  V30 5166 N 802.715 -1.86957 -3.44545 0
M  V30 5167 C 802.855 -0.780241 -2.58481 0
M  V30 5168 C 802.985 -0.738536 -1.17757 0
M  V30 5169 O 803.005 -1.66794 -0.372349 0
M  V30 5170 N 803.105 0.58337 -0.711393 0
M  V30 5171 C 803.105 1.70816 -1.51017 0
M  V30 5172 N 803.235 2.87826 -0.880757 0
M  V30 5173 N 802.975 1.67126 -2.8339 0
M  V30 5174 C 802.855 0.401421 -3.30572 0
M  V30 5175 H 799.876 -0.374722 -8.67691 0
M  V30 5176 H 799.606 -0.443485 -6.90277 0
M  V30 5177 H 800.473 1.75537 -7.96793 0
M  V30 5178 H 803.128 1.95076 -5.46529 0
M  V30 5179 H 803.407 -0.608565 -7.04577 0
M  V30 5180 H 804.399 0.889672 -7.08939 0
M  V30 5181 H 802.565 0.43308 -9.04564 0
M  V30 5182 H 802.516 -1.91249 -5.54442 0
M  V30 5183 H 803.198 0.718054 0.275244 0
M  V30 5184 H 803.235 3.75721 -1.41832 0
M  V30 5185 H 803.336 2.90436 0.145468 0
M  V30 5186 P 804.435 2.75334 -8.47391 0
M  V30 5187 O 804.655 3.84204 -9.44982 0
M  V30 5188 O 805.225 1.51982 -8.68909 0
M  V30 5189 O 804.685 3.29363 -6.99321 0
M  V30 5190 C 803.745 4.24066 -6.42823 0
M  V30 5191 C 804.475 5.20775 -5.52155 0
M  V30 5192 O 804.685 4.56607 -4.22514 0
M  V30 5193 C 805.875 5.62697 -5.96604 0
M  V30 5194 O 806.265 6.87667 -5.41053 0
M  V30 5195 C 806.755 4.52537 -5.39283 0
M  V30 5196 C 806.045 4.20027 -4.08623 0
M  V30 5197 N 806.095 2.76189 -3.71603 0
M  V30 5198 C 806.015 1.66944 -4.54297 0
M  V30 5199 N 806.085 0.536169 -3.91344 0
M  V30 5200 C 806.235 0.901569 -2.58849 0
M  V30 5201 C 806.365 0.146599 -1.40236 0
M  V30 5202 N 806.375 -1.18234 -1.37046 0
M  V30 5203 N 806.485 0.822941 -0.249738 0
M  V30 5204 C 806.475 2.15179 -0.280525 0
M  V30 5205 N 806.355 2.96414 -1.30822 0
M  V30 5206 C 806.235 2.25804 -2.44748 0
M  V30 5207 H 803.257 4.79756 -7.24086 0
M  V30 5208 H 802.985 3.69963 -5.84682 0
M  V30 5209 H 803.853 6.10431 -5.41508 0
M  V30 5210 H 806.508 4.78816 -3.28024 0
M  V30 5211 H 806.788 3.64957 -6.05871 0
M  V30 5212 H 807.779 4.88748 -5.21323 0
M  V30 5213 H 805.945 5.66789 -7.0643 0
M  V30 5214 H 805.904 1.74684 -5.62396 0
M  V30 5215 H 806.285 -1.71949 -2.24394 0
M  V30 5216 H 806.474 -1.67511 -0.470742 0
M  V30 5217 H 806.582 2.63704 0.6828 0
M  V30 5218 P 807.815 7.20834 -5.23717 0
M  V30 5219 O 808.035 8.66104 -5.38572 0
M  V30 5220 O 808.605 6.33544 -6.1349 0
M  V30 5221 O 808.065 6.7751 -3.72168 0
M  V30 5222 C 807.125 7.20825 -2.7076 0
M  V30 5223 C 807.855 7.45864 -1.40599 0
M  V30 5224 O 808.065 6.17651 -0.734225 0
M  V30 5225 C 809.255 8.05808 -1.51899 0
M  V30 5226 O 809.645 8.74358 -0.335205 0
M  V30 5227 C 810.135 6.83093 -1.70294 0
M  V30 5228 C 809.425 5.79992 -0.836974 0
M  V30 5229 N 809.475 4.41864 -1.38293 0
M  V30 5230 H 806.636 8.13644 -3.0377 0
M  V30 5231 H 806.366 6.42788 -2.55485 0
M  V30 5232 H 807.233 8.12039 -0.792769 0
M  V30 5233 P 811.195 8.91 5.77209e-12 0
M  V30 5234 O 811.415 10.1726 0.733694 0
M  V30 5235 O 811.985 8.73148 -1.23936 0
M  V30 5236 O 811.445 7.66872 0.971405 0
M  V30 5237 C 810.505 7.42309 2.04641 0
M  V30 5238 C 811.235 6.86059 3.24661 0
M  V30 5239 O 811.445 5.42847 3.03646 0
M  V30 5240 C 812.635 7.41196 3.50753 0
M  V30 5241 O 813.025 7.27073 4.86816 0
M  V30 5242 C 813.515 6.5273 2.63741 0
M  V30 5243 C 812.805 5.1842 2.73198 0
M  V30 5244 N 812.855 4.38762 1.4784 0
M  V30 5245 H 810.016 8.36803 2.32493 0
M  V30 5246 H 809.746 6.70197 1.71129 0
M  V30 5247 H 810.613 7.03551 4.13168 0
M  V30 5248 P 814.575 7.20834 5.23717 0
M  V30 5249 O 814.795 7.79853 6.57286 0
M  V30 5250 O 815.365 7.79239 4.12957 0
M  V30 5251 O 814.825 5.63315 5.29344 0
M  V30 5252 C 813.885 4.80255 6.01876 0
M  V30 5253 C 814.615 3.64202 6.65911 0
M  V30 5254 O 814.825 2.60694 5.64732 0
M  V30 5255 C 816.015 3.93473 7.1943 0
M  V30 5256 O 816.405 3.02071 8.21205 0
M  V30 5257 C 816.895 3.73047 5.97036 0
M  V30 5258 C 816.185 2.58828 5.25741 0
M  V30 5259 N 816.235 2.68068 3.77503 0
M  V30 5260 C 816.155 3.79715 2.96723 0
M  V30 5261 N 816.235 3.5377 1.68852 0
M  V30 5262 C 816.375 2.15054 1.63254 0
M  V30 5263 C 816.505 1.28964 0.518571 0
M  V30 5264 N 816.625 -0.0538097 0.918425 0
M  V30 5265 C 816.625 -0.494275 2.22578 0
M  V30 5266 N 816.755 -1.81086 2.40434 0
M  V30 5267 N 816.495 0.313645 3.27502 0
M  V30 5268 C 816.375 1.61829 2.91033 0
M  V30 5269 H 813.396 5.40332 6.79951 0
M  V30 5270 H 813.126 4.41613 5.32378 0
M  V30 5271 H 813.993 3.26331 7.47797 0
M  V30 5272 P 817.955 2.75334 8.47391 0
M  V30 5273 O 818.175 2.44571 9.90142 0
M  V30 5274 O 818.745 3.87688 7.92115 0
M  V30 5275 O 818.205 1.4459 7.59357 0
M  V30 5276 C 817.265 0.347608 7.69215 0
M  V30 5277 C 817.995 -0.96767 7.52806 0
M  V30 5278 O 818.205 -1.21036 6.1011 0
M  V30 5279 C 819.395 -1.04544 8.13308 0
M  V30 5280 O 819.785 -2.38311 8.41922 0
M  V30 5281 C 820.275 -0.491279 7.02284 0
M  V30 5282 C 819.565 -0.996264 5.77469 0
M  V30 5283 N 819.615 -0.0501916 4.62973 0
M  V30 5284 C 819.535 1.32786 4.63244 0
M  V30 5285 N 819.615 1.86957 3.44545 0
M  V30 5286 C 819.755 0.780241 2.58481 0
M  V30 5287 C 819.885 0.738536 1.17757 0
M  V30 5288 O 819.905 1.66794 0.372349 0
M  V30 5289 N 820.005 -0.58337 0.711393 0
M  V30 5290 C 820.005 -1.70816 1.51017 0
M  V30 5291 N 820.135 -2.87826 0.880757 0
M  V30 5292 N 819.875 -1.67126 2.8339 0
M  V30 5293 C 819.755 -0.401421 3.30572 0
M  V30 5294 H 816.776 0.374722 8.67691 0
M  V30 5295 H 816.506 0.443485 6.90277 0
M  V30 5296 H 817.373 -1.75537 7.96793 0
M  V30 5297 H 820.028 -1.95076 5.46529 0
M  V30 5298 H 820.307 0.608565 7.04577 0
M  V30 5299 H 821.299 -0.889672 7.08939 0
M  V30 5300 H 819.465 -0.43308 9.04564 0
M  V30 5301 H 819.416 1.91249 5.54442 0
M  V30 5302 H 820.098 -0.718054 -0.275244 0
M  V30 5303 H 820.135 -3.75721 1.41832 0
M  V30 5304 H 820.236 -2.90436 -0.145468 0
M  V30 5305 P 821.335 -2.75334 8.47391 0
M  V30 5306 O 821.555 -3.84128 9.44797 0
M  V30 5307 O 822.125 -1.51947 8.68712 0
M  V30 5308 O 821.585 -3.29363 6.99321 0
M  V30 5309 C 820.645 -4.24011 6.4274 0
M  V30 5310 C 821.375 -5.20775 5.52155 0
M  V30 5311 O 821.585 -4.56534 4.22446 0
M  V30 5312 C 822.775 -5.62629 5.96531 0
M  V30 5313 O 823.165 -6.87667 5.41053 0
M  V30 5314 C 823.655 -4.52537 5.39283 0
M  V30 5315 C 822.945 -4.20027 4.08623 0
M  V30 5316 N 822.995 -2.76189 3.71603 0
M  V30 5317 H 820.156 -4.797 7.24003 0
M  V30 5318 H 819.886 -3.69856 5.84513 0
M  V30 5319 H 820.753 -6.10356 5.41441 0
M  V30 5320 P 824.715 -7.20834 5.23717 0
M  V30 5321 O 824.935 -8.66104 5.38572 0
M  V30 5322 O 825.505 -6.33544 6.1349 0
M  V30 5323 O 824.965 -6.7751 3.72168 0
M  V30 5324 C 824.025 -7.20825 2.7076 0
M  V30 5325 C 824.755 -7.45864 1.40599 0
M  V30 5326 O 824.965 -6.17651 0.734225 0
M  V30 5327 C 826.155 -8.05808 1.51899 0
M  V30 5328 O 826.545 -8.74358 0.335205 0
M  V30 5329 C 827.035 -6.83093 1.70294 0
M  V30 5330 C 826.325 -5.79992 0.836974 0
M  V30 5331 N 826.375 -4.41864 1.38293 0
M  V30 5332 H 823.536 -8.13644 3.0377 0
M  V30 5333 H 823.266 -6.42788 2.55485 0
M  V30 5334 H 824.133 -8.12039 0.792769 0
M  V30 5335 P 828.095 -8.91 -5.92927e-12 0
M  V30 5336 O 828.315 -10.1746 -0.733838 0
M  V30 5337 O 828.885 -8.73346 1.23964 0
M  V30 5338 O 828.345 -7.66872 -0.971405 0
M  V30 5339 C 827.405 -7.42405 -2.04668 0
M  V30 5340 C 828.135 -6.86059 -3.24661 0
M  V30 5341 O 828.345 -5.42934 -3.03695 0
M  V30 5342 C 829.535 -7.41287 -3.50796 0
M  V30 5343 O 829.925 -7.27073 -4.86816 0
M  V30 5344 C 830.415 -6.5273 -2.63741 0
M  V30 5345 C 829.705 -5.1842 -2.73198 0
M  V30 5346 N 829.755 -4.38762 -1.4784 0
M  V30 5347 C 829.675 -4.83651 -0.183876 0
M  V30 5348 N 829.745 -3.88759 0.699393 0
M  V30 5349 C 829.895 -2.7404 -0.0575568 0
M  V30 5350 C 830.025 -1.37902 0.293928 0
M  V30 5351 N 830.035 -0.938021 1.54797 0
M  V30 5352 N 830.145 -0.491817 -0.70549 0
M  V30 5353 C 830.135 -0.931735 -1.95979 0
M  V30 5354 N 830.015 -2.16017 -2.41481 0
M  V30 5355 C 829.895 -3.02547 -1.39121 0
M  V30 5356 H 826.917 -8.36899 -2.3252 0
M  V30 5357 H 826.645 -6.70391 -1.71179 0
M  V30 5358 H 827.513 -7.03638 -4.13219 0
M  V30 5359 H 830.168 -4.59931 -3.54016 0
M  V30 5360 H 830.448 -6.88995 -1.59871 0
M  V30 5361 H 831.439 -6.4684 -3.0373 0
M  V30 5362 H 829.605 -8.47002 -3.20749 0
M  V30 5363 H 829.564 -5.8885 0.0765548 0
M  V30 5364 H 829.945 -1.60276 2.32875 0
M  V30 5365 H 830.134 0.0699355 1.73859 0
M  V30 5366 H 830.242 -0.165507 -2.71897 0
M  V30 5367 P 831.475 -7.20834 -5.23717 0
M  V30 5368 O 831.695 -7.79853 -6.57286 0
M  V30 5369 O 832.265 -7.79239 -4.12957 0
M  V30 5370 O 831.725 -5.63315 -5.29344 0
M  V30 5371 C 830.785 -4.80255 -6.01876 0
M  V30 5372 C 831.515 -3.64202 -6.65911 0
M  V30 5373 O 831.725 -2.60694 -5.64732 0
M  V30 5374 C 832.915 -3.93473 -7.1943 0
M  V30 5375 O 833.305 -3.02071 -8.21205 0
M  V30 5376 C 833.795 -3.73047 -5.97036 0
M  V30 5377 C 833.085 -2.58828 -5.25741 0
M  V30 5378 N 833.135 -2.68068 -3.77503 0
M  V30 5379 H 830.296 -5.40332 -6.79951 0
M  V30 5380 H 830.026 -4.41613 -5.32378 0
M  V30 5381 H 830.893 -3.26331 -7.47797 0
M  V30 5382 P 834.855 -2.75334 -8.47391 0
M  V30 5383 O 835.075 -2.44619 -9.90336 0
M  V30 5384 O 835.645 -3.87776 -7.92294 0
M  V30 5385 O 835.105 -1.4459 -7.59357 0
M  V30 5386 C 834.165 -0.347653 -7.69315 0
M  V30 5387 C 834.895 0.96767 -7.52806 0
M  V30 5388 O 835.105 1.21055 -6.10208 0
M  V30 5389 C 836.295 1.04557 -8.13408 0
M  V30 5390 O 836.685 2.38311 -8.41922 0
M  V30 5391 C 837.175 0.491279 -7.02284 0
M  V30 5392 C 836.465 0.996264 -5.77469 0
M  V30 5393 N 836.515 0.0501916 -4.62973 0
M  V30 5394 H 833.677 -0.374765 -8.67791 0
M  V30 5395 H 833.405 -0.443613 -6.90476 0
M  V30 5396 H 834.273 1.75559 -7.96891 0
M  V30 5397 H 836.928 1.94563 -5.46818 0
M  V30 5398 H 837.208 -0.608651 -7.04676 0
M  V30 5399 H 838.199 0.889796 -7.09039 0
M  V30 5400 H 836.365 0.433128 -9.04664 0
M  V30 5401 P 838.235 2.75334 -8.47391 0
M  V30 5402 O 838.455 3.84128 -9.44797 0
M  V30 5403 O 839.025 1.51947 -8.68712 0
M  V30 5404 O 838.485 3.29363 -6.99321 0
M  V30 5405 C 837.545 4.24011 -6.4274 0
M  V30 5406 C 838.275 5.20775 -5.52155 0
M  V30 5407 O 838.485 4.56534 -4.22446 0
M  V30 5408 C 839.675 5.62629 -5.96531 0
M  V30 5409 O 840.065 6.87667 -5.41053 0
M  V30 5410 C 840.555 4.52537 -5.39283 0
M  V30 5411 C 839.845 4.20027 -4.08623 0
M  V30 5412 N 839.895 2.76189 -3.71603 0
M  V30 5413 H 837.056 4.797 -7.24003 0
M  V30 5414 H 836.786 3.69856 -5.84513 0
M  V30 5415 H 837.653 6.10356 -5.41441 0
M  V30 5416 P 841.615 7.20834 -5.23717 0
M  V30 5417 O 841.835 8.66104 -5.38572 0
M  V30 5418 O 842.405 6.33544 -6.1349 0
M  V30 5419 O 841.865 6.7751 -3.72168 0
M  V30 5420 C 840.925 7.20825 -2.7076 0
M  V30 5421 C 841.655 7.45864 -1.40599 0
M  V30 5422 O 841.865 6.17651 -0.734225 0
M  V30 5423 C 843.055 8.05808 -1.51899 0
M  V30 5424 O 843.445 8.74358 -0.335205 0
M  V30 5425 C 843.935 6.83093 -1.70294 0
M  V30 5426 C 843.225 5.79992 -0.836974 0
M  V30 5427 N 843.275 4.41864 -1.38293 0
M  V30 5428 H 840.436 8.13644 -3.0377 0
M  V30 5429 H 840.166 6.42788 -2.55485 0
M  V30 5430 H 841.033 8.12039 -0.792769 0
M  V30 5431 P 844.995 8.91 6.08645e-12 0
M  V30 5432 O 845.215 10.1746 0.733838 0
M  V30 5433 O 845.785 8.73346 -1.23964 0
M  V30 5434 O 845.245 7.66872 0.971405 0
M  V30 5435 C 844.305 7.42405 2.04668 0
M  V30 5436 C 845.035 6.86059 3.24661 0
M  V30 5437 O 845.245 5.42934 3.03695 0
M  V30 5438 C 846.435 7.41287 3.50796 0
M  V30 5439 O 846.825 7.27073 4.86816 0
M  V30 5440 C 847.315 6.5273 2.63741 0
M  V30 5441 C 846.605 5.1842 2.73198 0
M  V30 5442 N 846.655 4.38762 1.4784 0
M  V30 5443 C 846.575 4.83651 0.183876 0
M  V30 5444 N 846.645 3.88759 -0.699393 0
M  V30 5445 C 846.795 2.7404 0.0575568 0
M  V30 5446 C 846.925 1.37902 -0.293928 0
M  V30 5447 N 846.935 0.938021 -1.54797 0
M  V30 5448 N 847.045 0.491817 0.70549 0
M  V30 5449 C 847.035 0.931735 1.95979 0
M  V30 5450 N 846.915 2.16017 2.41481 0
M  V30 5451 C 846.795 3.02547 1.39121 0
M  V30 5452 H 843.817 8.36899 2.3252 0
M  V30 5453 H 843.545 6.70391 1.71179 0
M  V30 5454 H 844.413 7.03638 4.13219 0
M  V30 5455 H 847.068 4.59931 3.54016 0
M  V30 5456 H 847.348 6.88995 1.59871 0
M  V30 5457 H 848.339 6.4684 3.0373 0
M  V30 5458 H 846.505 8.47002 3.20749 0
M  V30 5459 H 846.464 5.8885 -0.0765548 0
M  V30 5460 H 846.845 1.60276 -2.32875 0
M  V30 5461 H 847.034 -0.0699355 -1.73859 0
M  V30 5462 H 847.142 0.165507 2.71897 0
M  V30 5463 P 848.375 7.20834 5.23717 0
M  V30 5464 O 848.595 7.79853 6.57286 0
M  V30 5465 O 849.165 7.79239 4.12957 0
M  V30 5466 O 848.625 5.63315 5.29344 0
M  V30 5467 C 847.685 4.80255 6.01876 0
M  V30 5468 C 848.415 3.64202 6.65911 0
M  V30 5469 O 848.625 2.60694 5.64732 0
M  V30 5470 C 849.815 3.93473 7.1943 0
M  V30 5471 O 850.205 3.02071 8.21205 0
M  V30 5472 C 850.695 3.73047 5.97036 0
M  V30 5473 C 849.985 2.58828 5.25741 0
M  V30 5474 N 850.035 2.68068 3.77503 0
M  V30 5475 H 847.196 5.40332 6.79951 0
M  V30 5476 H 846.926 4.41613 5.32378 0
M  V30 5477 H 847.793 3.26331 7.47797 0
M  V30 5478 P 851.755 2.75334 8.47391 0
M  V30 5479 O 851.975 2.44571 9.90142 0
M  V30 5480 O 852.545 3.87688 7.92115 0
M  V30 5481 O 852.005 1.4459 7.59357 0
M  V30 5482 C 851.065 0.347608 7.69215 0
M  V30 5483 C 851.795 -0.96767 7.52806 0
M  V30 5484 O 852.005 -1.21036 6.1011 0
M  V30 5485 C 853.195 -1.04544 8.13308 0
M  V30 5486 O 853.585 -2.38311 8.41922 0
M  V30 5487 C 854.075 -0.491279 7.02284 0
M  V30 5488 C 853.365 -0.996264 5.77469 0
M  V30 5489 N 853.415 -0.0501916 4.62973 0
M  V30 5490 H 850.576 0.374722 8.67691 0
M  V30 5491 H 850.306 0.443485 6.90277 0
M  V30 5492 H 851.173 -1.75537 7.96793 0
M  V30 5493 P 855.135 -2.75334 8.47391 0
M  V30 5494 O 855.355 -3.84128 9.44797 0
M  V30 5495 O 855.925 -1.51947 8.68712 0
M  V30 5496 O 855.385 -3.29363 6.99321 0
M  V30 5497 C 854.445 -4.24011 6.4274 0
M  V30 5498 C 855.175 -5.20775 5.52155 0
M  V30 5499 O 855.385 -4.56534 4.22446 0
M  V30 5500 C 856.575 -5.62629 5.96531 0
M  V30 5501 O 856.965 -6.87667 5.41053 0
M  V30 5502 C 857.455 -4.52537 5.39283 0
M  V30 5503 C 856.745 -4.20027 4.08623 0
M  V30 5504 N 856.795 -2.76189 3.71603 0
M  V30 5505 H 853.956 -4.797 7.24003 0
M  V30 5506 H 853.686 -3.69856 5.84513 0
M  V30 5507 H 854.553 -6.10356 5.41441 0
M  V30 5508 P 858.515 -7.20834 5.23717 0
M  V30 5509 O 858.735 -8.66104 5.38572 0
M  V30 5510 O 859.305 -6.33544 6.1349 0
M  V30 5511 O 858.765 -6.7751 3.72168 0
M  V30 5512 C 857.825 -7.20825 2.7076 0
M  V30 5513 C 858.555 -7.45864 1.40599 0
M  V30 5514 O 858.765 -6.17651 0.734225 0
M  V30 5515 C 859.955 -8.05808 1.51899 0
M  V30 5516 O 860.345 -8.74358 0.335205 0
M  V30 5517 C 860.835 -6.83093 1.70294 0
M  V30 5518 C 860.125 -5.79992 0.836974 0
M  V30 5519 N 860.175 -4.41864 1.38293 0
M  V30 5520 H 857.336 -8.13644 3.0377 0
M  V30 5521 H 857.066 -6.42788 2.55485 0
M  V30 5522 H 857.933 -8.12039 0.792769 0
M  V30 5523 P 861.895 -8.91 -6.24363e-12 0
M  V30 5524 O 862.115 -10.1726 -0.733694 0
M  V30 5525 O 862.685 -8.73148 1.23936 0
M  V30 5526 O 862.145 -7.66872 -0.971405 0
M  V30 5527 C 861.205 -7.42309 -2.04641 0
M  V30 5528 C 861.935 -6.86059 -3.24661 0
M  V30 5529 O 862.145 -5.42847 -3.03646 0
M  V30 5530 C 863.335 -7.41196 -3.50753 0
M  V30 5531 O 863.725 -7.27073 -4.86816 0
M  V30 5532 C 864.215 -6.5273 -2.63741 0
M  V30 5533 C 863.505 -5.1842 -2.73198 0
M  V30 5534 N 863.555 -4.38762 -1.4784 0
M  V30 5535 C 863.475 -4.81605 -0.168631 0
M  V30 5536 N 863.555 -3.85454 0.713363 0
M  V30 5537 C 863.695 -2.6994 -0.0566958 0
M  V30 5538 C 863.825 -1.34815 0.338502 0
M  V30 5539 N 863.945 -0.496304 -0.77465 0
M  V30 5540 C 863.945 -0.908403 -2.09122 0
M  V30 5541 N 864.075 0.0517805 -3.00955 0
M  V30 5542 N 863.815 -2.17875 -2.46519 0
M  V30 5543 C 863.695 -3.01988 -1.4033 0
M  V30 5544 H 860.716 -8.36803 -2.32493 0
M  V30 5545 H 860.446 -6.70197 -1.71129 0
M  V30 5546 H 861.313 -7.03551 -4.13168 0
M  V30 5547 P 865.275 -7.20834 -5.23717 0
M  V30 5548 O 865.495 -7.80006 -6.57415 0
M  V30 5549 O 866.065 -7.79416 -4.13051 0
M  V30 5550 O 865.525 -5.63315 -5.29344 0
M  V30 5551 C 864.585 -4.80318 -6.01954 0
M  V30 5552 C 865.315 -3.64202 -6.65911 0
M  V30 5553 O 865.525 -2.60736 -5.64823 0
M  V30 5554 C 866.715 -3.93521 -7.19518 0
M  V30 5555 O 867.105 -3.02071 -8.21205 0
M  V30 5556 C 867.595 -3.73047 -5.97036 0
M  V30 5557 C 866.885 -2.58828 -5.25741 0
M  V30 5558 N 866.935 -2.68068 -3.77503 0
M  V30 5559 C 866.855 -3.80474 -2.99159 0
M  V30 5560 N 866.925 -3.55622 -1.71925 0
M  V30 5561 C 867.075 -2.1832 -1.65733 0
M  V30 5562 C 867.205 -1.28842 -0.572777 0
M  V30 5563 N 867.215 -1.66875 0.70098 0
M  V30 5564 N 867.325 0.016788 -0.859836 0
M  V30 5565 C 867.315 0.398145 -2.13316 0
M  V30 5566 N 867.195 -0.328224 -3.22333 0
M  V30 5567 C 867.075 -1.62992 -2.90383 0
M  V30 5568 H 864.097 -5.40394 -6.8003 0
M  V30 5569 H 863.825 -4.41741 -5.32532 0
M  V30 5570 H 864.693 -3.26371 -7.47889 0
M  V30 5571 H 867.348 -1.64007 -5.56746 0
M  V30 5572 H 867.628 -4.63439 -5.3432 0
M  V30 5573 H 868.619 -3.44776 -6.25925 0
M  V30 5574 H 866.785 -4.96707 -7.57347 0
M  V30 5575 H 866.744 -4.8089 -3.39924 0
M  V30 5576 H 867.125 -2.66547 0.941919 0
M  V30 5577 H 867.314 -0.965341 1.44766 0
M  V30 5578 H 867.422 1.46427 -2.29697 0
M  V30 5579 P 868.655 -2.75334 -8.47391 0
M  V30 5580 O 868.875 -2.44571 -9.90142 0
M  V30 5581 O 869.445 -3.87688 -7.92115 0
M  V30 5582 O 868.905 -1.4459 -7.59357 0
M  V30 5583 C 867.965 -0.347608 -7.69215 0
M  V30 5584 C 868.695 0.96767 -7.52806 0
M  V30 5585 O 868.905 1.21036 -6.1011 0
M  V30 5586 C 870.095 1.04544 -8.13308 0
M  V30 5587 O 870.485 2.38311 -8.41922 0
M  V30 5588 C 870.975 0.491279 -7.02284 0
M  V30 5589 C 870.265 0.996264 -5.77469 0
M  V30 5590 N 870.315 0.0501916 -4.62973 0
M  V30 5591 H 867.476 -0.374722 -8.67691 0
M  V30 5592 H 867.206 -0.443485 -6.90277 0
M  V30 5593 H 868.073 1.75537 -7.96793 0
M  V30 5594 P 872.035 2.75334 -8.47391 0
M  V30 5595 O 872.255 3.84128 -9.44797 0
M  V30 5596 O 872.825 1.51947 -8.68712 0
M  V30 5597 O 872.285 3.29363 -6.99321 0
M  V30 5598 C 871.345 4.24011 -6.4274 0
M  V30 5599 C 872.075 5.20775 -5.52155 0
M  V30 5600 O 872.285 4.56534 -4.22446 0
M  V30 5601 C 873.475 5.62629 -5.96531 0
M  V30 5602 O 873.865 6.87667 -5.41053 0
M  V30 5603 C 874.355 4.52537 -5.39283 0
M  V30 5604 C 873.645 4.20027 -4.08623 0
M  V30 5605 N 873.695 2.76189 -3.71603 0
M  V30 5606 H 870.856 4.797 -7.24003 0
M  V30 5607 H 870.586 3.69856 -5.84513 0
M  V30 5608 H 871.453 6.10356 -5.41441 0
M  V30 5609 P 875.415 7.20834 -5.23717 0
M  V30 5610 O 875.635 8.66189 -5.38625 0
M  V30 5611 O 876.205 6.33615 -6.1356 0
M  V30 5612 O 875.665 6.7751 -3.72168 0
M  V30 5613 C 874.725 7.20732 -2.70725 0
M  V30 5614 C 875.455 7.45864 -1.40599 0
M  V30 5615 O 875.665 6.17651 -0.734225 0
M  V30 5616 C 876.855 8.05808 -1.51899 0
M  V30 5617 O 877.245 8.74358 -0.335205 0
M  V30 5618 C 877.735 6.83093 -1.70294 0
M  V30 5619 C 877.025 5.79992 -0.836974 0
M  V30 5620 N 877.075 4.41769 -1.38263 0
M  V30 5621 C 877.225 3.38591 -0.481702 0
M  V30 5622 O 877.315 3.56839 0.718452 0
M  V30 5623 N 877.265 2.1206 -1.03569 0
M  V30 5624 C 877.175 1.80696 -2.36966 0
M  V30 5625 C 877.025 2.94845 -3.23898 0
M  V30 5626 C 876.975 4.19803 -2.73435 0
M  V30 5627 H 874.235 8.13644 -3.0377 0
M  V30 5628 H 873.966 6.42695 -2.55448 0
M  V30 5629 H 874.833 8.12039 -0.792769 0
M  V30 5630 H 877.488 5.79978 0.160587 0
M  V30 5631 H 877.767 6.51379 -2.75643 0
M  V30 5632 H 878.759 7.01734 -1.34462 0
M  V30 5633 H 876.925 8.73674 -2.38337 0
M  V30 5634 H 876.854 5.04492 -3.4095 0
M  V30 5635 P 878.795 8.91 6.40081e-12 0
M  V30 5636 O 879.015 10.1736 0.733766 0
M  V30 5637 O 879.585 8.73247 -1.2395 0
M  V30 5638 O 879.045 7.66872 0.971405 0
M  V30 5639 C 878.105 7.42212 2.04614 0
M  V30 5640 C 878.835 6.86059 3.24661 0
M  V30 5641 O 879.045 5.42847 3.03646 0
M  V30 5642 C 880.235 7.41196 3.50753 0
M  V30 5643 O 880.625 7.27073 4.86816 0
M  V30 5644 C 881.115 6.5273 2.63741 0
M  V30 5645 C 880.405 5.1842 2.73198 0
M  V30 5646 N 880.455 4.38668 1.47808 0
M  V30 5647 C 880.605 3.02239 1.60048 0
M  V30 5648 O 880.695 2.46459 2.67869 0
M  V30 5649 N 880.645 2.32436 0.408571 0
M  V30 5650 C 880.555 2.85471 -0.854993 0
M  V30 5651 C 880.405 4.28918 -0.887335 0
M  V30 5652 C 880.355 5.00349 0.255399 0
M  V30 5653 H 877.615 8.36803 2.32493 0
M  V30 5654 H 877.346 6.701 1.71105 0
M  V30 5655 H 878.213 7.03551 4.13168 0
M  V30 5656 H 880.868 4.59773 3.53894 0
M  V30 5657 H 881.147 6.88995 1.59871 0
M  V30 5658 H 882.139 6.46749 3.03687 0
M  V30 5659 H 880.305 8.46908 3.20714 0
M  V30 5660 H 880.234 6.08548 0.206986 0
M  V30 5661 P 882.175 7.20834 5.23717 0
M  V30 5662 O 882.395 7.7993 6.57351 0
M  V30 5663 O 882.965 7.79328 4.13004 0
M  V30 5664 O 882.425 5.63315 5.29344 0
M  V30 5665 C 881.485 4.80193 6.01798 0
M  V30 5666 C 882.215 3.64202 6.65911 0
M  V30 5667 O 882.425 2.60694 5.64732 0
M  V30 5668 C 883.615 3.93473 7.1943 0
M  V30 5669 O 884.005 3.02071 8.21205 0
M  V30 5670 C 884.495 3.73047 5.97036 0
M  V30 5671 C 883.785 2.58828 5.25741 0
M  V30 5672 N 883.835 2.6801 3.77422 0
M  V30 5673 C 883.985 1.50443 3.07133 0
M  V30 5674 O 884.075 0.419406 3.61576 0
M  V30 5675 N 884.025 1.6403 1.69677 0
M  V30 5676 C 883.935 2.81206 0.986255 0
M  V30 5677 C 883.785 3.99158 1.80325 0
M  V30 5678 C 883.735 3.89779 3.1476 0
M  V30 5679 H 880.995 5.40332 6.79951 0
M  V30 5680 H 880.726 4.41549 5.32301 0
M  V30 5681 H 881.593 3.26331 7.47797 0
M  V30 5682 H 884.248 1.6395 5.56554 0
M  V30 5683 H 884.527 4.63439 5.3432 0
M  V30 5684 H 885.519 3.44728 6.25838 0
M  V30 5685 H 883.685 4.96652 7.57263 0
M  V30 5686 H 883.614 4.80159 3.74441 0
M  V30 5687 P 885.555 2.75334 8.47391 0
M  V30 5688 O 885.775 2.44571 9.90142 0
M  V30 5689 O 886.345 3.87688 7.92115 0
M  V30 5690 O 885.805 1.4459 7.59357 0
M  V30 5691 C 884.865 0.347608 7.69215 0
M  V30 5692 C 885.595 -0.96767 7.52806 0
M  V30 5693 O 885.805 -1.21036 6.1011 0
M  V30 5694 C 886.995 -1.04544 8.13308 0
M  V30 5695 O 887.385 -2.38311 8.41922 0
M  V30 5696 C 887.875 -0.491279 7.02284 0
M  V30 5697 C 887.165 -0.996264 5.77469 0
M  V30 5698 N 887.215 -0.0501916 4.62973 0
M  V30 5699 H 884.376 0.374722 8.67691 0
M  V30 5700 H 884.106 0.443485 6.90277 0
M  V30 5701 H 884.973 -1.75537 7.96793 0
M  V30 5702 P 888.935 -2.75334 8.47391 0
M  V30 5703 O 889.155 -3.84166 9.4489 0
M  V30 5704 O 889.725 -1.51964 8.6881 0
M  V30 5705 O 889.185 -3.29363 6.99321 0
M  V30 5706 C 888.245 -4.23956 6.42656 0
M  V30 5707 C 888.975 -5.20775 5.52155 0
M  V30 5708 O 889.185 -4.56534 4.22446 0
M  V30 5709 C 890.375 -5.62629 5.96531 0
M  V30 5710 O 890.765 -6.87667 5.41053 0
M  V30 5711 C 891.255 -4.52537 5.39283 0
M  V30 5712 C 890.545 -4.20027 4.08623 0
M  V30 5713 N 890.595 -2.7613 3.71522 0
M  V30 5714 C 890.745 -2.45612 2.37989 0
M  V30 5715 O 890.835 -3.30919 1.51621 0
M  V30 5716 N 890.785 -1.10684 2.08435 0
M  V30 5717 C 890.695 -0.0690084 2.9792 0
M  V30 5718 O 890.745 1.10553 2.59426 0
M  V30 5719 C 890.545 -0.481522 4.35345 0
M  V30 5720 C 890.435 0.618778 5.36443 0
M  V30 5721 C 890.495 -1.78906 4.67968 0
M  V30 5722 H 887.755 -4.797 7.24003 0
M  V30 5723 H 887.486 -3.69802 5.84429 0
M  V30 5724 H 888.353 -6.10356 5.41441 0
M  V30 5725 H 891.008 -4.78651 3.27911 0
M  V30 5726 H 891.287 -3.64957 6.05871 0
M  V30 5727 H 892.279 -4.8868 5.2125 0
M  V30 5728 H 890.445 -5.66726 7.06352 0
M  V30 5729 H 890.374 -2.07737 5.72367 0
M  V30 5730 H 891.404 0.754375 5.86871 0
M  V30 5731 H 889.667 0.359721 6.10641 0
M  V30 5732 H 890.155 1.55533 4.8581 0
M  V30 5733 H 890.891 -0.862651 1.12037 0
M  V30 5734 P 892.315 -7.20834 5.23717 0
M  V30 5735 O 892.535 -8.66104 5.38572 0
M  V30 5736 O 893.105 -6.33544 6.1349 0
M  V30 5737 O 892.565 -6.7751 3.72168 0
M  V30 5738 C 891.625 -7.20825 2.7076 0
M  V30 5739 C 892.355 -7.45864 1.40599 0
M  V30 5740 O 892.565 -6.17651 0.734225 0
M  V30 5741 C 893.755 -8.05808 1.51899 0
M  V30 5742 O 894.145 -8.74358 0.335205 0
M  V30 5743 C 894.635 -6.83093 1.70294 0
M  V30 5744 C 893.925 -5.79992 0.836974 0
M  V30 5745 N 893.975 -4.41864 1.38293 0
M  V30 5746 C 893.895 -3.99538 2.69438 0
M  V30 5747 N 893.975 -2.69909 2.84277 0
M  V30 5748 C 894.115 -2.21719 1.5408 0
M  V30 5749 C 894.245 -0.891712 1.06628 0
M  V30 5750 N 894.365 -0.856846 -0.334985 0
M  V30 5751 C 894.365 -1.9641 -1.15789 0
M  V30 5752 N 894.495 -1.72708 -2.46522 0
M  V30 5753 N 894.235 -3.21165 -0.713741 0
M  V30 5754 C 894.115 -3.26797 0.639748 0
M  V30 5755 H 891.136 -8.13644 3.0377 0
M  V30 5756 H 890.866 -6.42788 2.55485 0
M  V30 5757 H 891.733 -8.12039 0.792769 0
M  V30 5758 P 895.695 -8.91 -6.558e-12 0
M  V30 5759 O 895.915 -10.1726 -0.733694 0
M  V30 5760 O 896.485 -8.73148 1.23936 0
M  V30 5761 O 895.945 -7.66872 -0.971405 0
M  V30 5762 C 895.005 -7.42309 -2.04641 0
M  V30 5763 C 895.735 -6.86059 -3.24661 0
M  V30 5764 O 895.945 -5.42847 -3.03646 0
M  V30 5765 C 897.135 -7.41196 -3.50753 0
M  V30 5766 O 897.525 -7.27073 -4.86816 0
M  V30 5767 C 898.015 -6.5273 -2.63741 0
M  V30 5768 C 897.305 -5.1842 -2.73198 0
M  V30 5769 N 897.355 -4.38762 -1.4784 0
M  V30 5770 H 894.516 -8.36803 -2.32493 0
M  V30 5771 H 894.246 -6.70197 -1.71129 0
M  V30 5772 H 895.113 -7.03551 -4.13168 0
M  V30 5773 P 899.075 -7.20834 -5.23717 0
M  V30 5774 O 899.295 -7.7993 -6.57351 0
M  V30 5775 O 899.865 -7.79328 -4.13004 0
M  V30 5776 O 899.325 -5.63315 -5.29344 0
M  V30 5777 C 898.385 -4.80193 -6.01798 0
M  V30 5778 C 899.115 -3.64202 -6.65911 0
M  V30 5779 O 899.325 -2.60694 -5.64732 0
M  V30 5780 C 900.515 -3.93473 -7.1943 0
M  V30 5781 O 900.905 -3.02071 -8.21205 0
M  V30 5782 C 901.395 -3.73047 -5.97036 0
M  V30 5783 C 900.685 -2.58828 -5.25741 0
M  V30 5784 N 900.735 -2.6801 -3.77422 0
M  V30 5785 C 900.885 -1.50443 -3.07133 0
M  V30 5786 O 900.975 -0.419406 -3.61576 0
M  V30 5787 N 900.925 -1.6403 -1.69677 0
M  V30 5788 C 900.835 -2.81206 -0.986255 0
M  V30 5789 O 900.885 -2.80892 0.249754 0
M  V30 5790 C 900.685 -3.99158 -1.80325 0
M  V30 5791 C 900.575 -5.29309 -1.06921 0
M  V30 5792 C 900.635 -3.89779 -3.1476 0
M  V30 5793 H 897.895 -5.40332 -6.79951 0
M  V30 5794 H 897.626 -4.41549 -5.32301 0
M  V30 5795 H 898.493 -3.26331 -7.47797 0
M  V30 5796 H 901.148 -1.6395 -5.56554 0
M  V30 5797 H 901.427 -4.63439 -5.3432 0
M  V30 5798 H 902.419 -3.44728 -6.25838 0
M  V30 5799 H 900.585 -4.96652 -7.57263 0
M  V30 5800 H 900.514 -4.80159 -3.74441 0
M  V30 5801 H 901.544 -5.81459 -1.09608 0
M  V30 5802 H 899.807 -5.9187 -1.54487 0
M  V30 5803 H 900.295 -5.10095 -0.0220288 0
M  V30 5804 H 901.031 -0.798962 -1.16664 0
M  V30 5805 P 902.455 -2.75334 -8.47391 0
M  V30 5806 O 902.675 -2.44571 -9.90142 0
M  V30 5807 O 903.245 -3.87688 -7.92115 0
M  V30 5808 O 902.705 -1.4459 -7.59357 0
M  V30 5809 C 901.765 -0.347608 -7.69215 0
M  V30 5810 C 902.495 0.96767 -7.52806 0
M  V30 5811 O 902.705 1.21036 -6.1011 0
M  V30 5812 C 903.895 1.04544 -8.13308 0
M  V30 5813 O 904.285 2.38311 -8.41922 0
M  V30 5814 C 904.775 0.491279 -7.02284 0
M  V30 5815 C 904.065 0.996264 -5.77469 0
M  V30 5816 N 904.115 0.0501916 -4.62973 0
M  V30 5817 H 901.276 -0.374722 -8.67691 0
M  V30 5818 H 901.006 -0.443485 -6.90277 0
M  V30 5819 H 901.873 1.75537 -7.96793 0
M  V30 5820 P 905.835 2.75334 -8.47391 0
M  V30 5821 O 906.055 3.84166 -9.4489 0
M  V30 5822 O 906.625 1.51964 -8.6881 0
M  V30 5823 O 906.085 3.29363 -6.99321 0
M  V30 5824 C 905.145 4.23956 -6.42656 0
M  V30 5825 C 905.875 5.20775 -5.52155 0
M  V30 5826 O 906.085 4.56534 -4.22446 0
M  V30 5827 C 907.275 5.62629 -5.96531 0
M  V30 5828 O 907.665 6.87667 -5.41053 0
M  V30 5829 C 908.155 4.52537 -5.39283 0
M  V30 5830 C 907.445 4.20027 -4.08623 0
M  V30 5831 N 907.495 2.7613 -3.71522 0
M  V30 5832 C 907.645 2.45612 -2.37989 0
M  V30 5833 O 907.735 3.30919 -1.51621 0
M  V30 5834 N 907.685 1.10684 -2.08435 0
M  V30 5835 C 907.595 0.0690084 -2.9792 0
M  V30 5836 C 907.445 0.481522 -4.35345 0
M  V30 5837 C 907.395 1.78906 -4.67968 0
M  V30 5838 H 904.655 4.797 -7.24003 0
M  V30 5839 H 904.386 3.69802 -5.84429 0
M  V30 5840 H 905.253 6.10356 -5.41441 0
M  V30 5841 H 907.908 4.78651 -3.27911 0
M  V30 5842 H 908.187 3.64957 -6.05871 0
M  V30 5843 H 909.179 4.8868 -5.2125 0
M  V30 5844 H 907.345 5.66726 -7.06352 0
M  V30 5845 H 907.274 2.07737 -5.72367 0
M  V30 5846 P 909.215 7.20834 -5.23717 0
M  V30 5847 O 909.435 8.66189 -5.38625 0
M  V30 5848 O 910.005 6.33615 -6.1356 0
M  V30 5849 O 909.465 6.7751 -3.72168 0
M  V30 5850 C 908.525 7.20732 -2.70725 0
M  V30 5851 C 909.255 7.45864 -1.40599 0
M  V30 5852 O 909.465 6.17651 -0.734225 0
M  V30 5853 C 910.655 8.05808 -1.51899 0
M  V30 5854 O 911.045 8.74358 -0.335205 0
M  V30 5855 C 911.535 6.83093 -1.70294 0
M  V30 5856 C 910.825 5.79992 -0.836974 0
M  V30 5857 N 910.875 4.41769 -1.38263 0
M  V30 5858 C 911.025 3.38591 -0.481702 0
M  V30 5859 O 911.115 3.56839 0.718452 0
M  V30 5860 N 911.065 2.1206 -1.03569 0
M  V30 5861 C 910.975 1.80696 -2.36966 0
M  V30 5862 C 910.825 2.94845 -3.23898 0
M  V30 5863 C 910.775 4.19803 -2.73435 0
M  V30 5864 H 908.035 8.13644 -3.0377 0
M  V30 5865 H 907.766 6.42695 -2.55448 0
M  V30 5866 H 908.633 8.12039 -0.792769 0
M  V30 5867 H 911.288 5.79978 0.160587 0
M  V30 5868 H 911.567 6.51379 -2.75643 0
M  V30 5869 H 912.559 7.01734 -1.34462 0
M  V30 5870 H 910.725 8.73674 -2.38337 0
M  V30 5871 H 910.654 5.04492 -3.4095 0
M  V30 5872 P 912.595 8.91 6.71518e-12 0
M  V30 5873 O 912.815 10.1726 0.733694 0
M  V30 5874 O 913.385 8.73148 -1.23936 0
M  V30 5875 O 912.845 7.66872 0.971405 0
M  V30 5876 C 911.905 7.42309 2.04641 0
M  V30 5877 C 912.635 6.86059 3.24661 0
M  V30 5878 O 912.845 5.42847 3.03646 0
M  V30 5879 C 914.035 7.41196 3.50753 0
M  V30 5880 O 914.425 7.27073 4.86816 0
M  V30 5881 C 914.915 6.5273 2.63741 0
M  V30 5882 C 914.205 5.1842 2.73198 0
M  V30 5883 N 914.255 4.38762 1.4784 0
M  V30 5884 C 914.175 4.81605 0.168631 0
M  V30 5885 N 914.255 3.85454 -0.713363 0
M  V30 5886 C 914.395 2.6994 0.0566958 0
M  V30 5887 C 914.525 1.34815 -0.338502 0
M  V30 5888 N 914.645 0.496304 0.77465 0
M  V30 5889 C 914.645 0.908403 2.09122 0
M  V30 5890 N 914.775 -0.0517805 3.00955 0
M  V30 5891 N 914.515 2.17875 2.46519 0
M  V30 5892 C 914.395 3.01988 1.4033 0
M  V30 5893 H 911.416 8.36803 2.32493 0
M  V30 5894 H 911.146 6.70197 1.71129 0
M  V30 5895 H 912.013 7.03551 4.13168 0
M  V30 5896 P 915.975 7.20834 5.23717 0
M  V30 5897 O 916.195 7.79853 6.57286 0
M  V30 5898 O 916.765 7.79239 4.12957 0
M  V30 5899 O 916.225 5.63315 5.29344 0
M  V30 5900 C 915.285 4.80255 6.01876 0
M  V30 5901 C 916.015 3.64202 6.65911 0
M  V30 5902 O 916.225 2.60694 5.64732 0
M  V30 5903 C 917.415 3.93473 7.1943 0
M  V30 5904 O 917.805 3.02071 8.21205 0
M  V30 5905 C 918.295 3.73047 5.97036 0
M  V30 5906 C 917.585 2.58828 5.25741 0
M  V30 5907 N 917.635 2.68068 3.77503 0
M  V30 5908 H 914.796 5.40332 6.79951 0
M  V30 5909 H 914.526 4.41613 5.32378 0
M  V30 5910 H 915.393 3.26331 7.47797 0
M  V30 5911 P 919.355 2.75334 8.47391 0
M  V30 5912 O 919.575 2.44571 9.90142 0
M  V30 5913 O 920.145 3.87688 7.92115 0
M  V30 5914 O 919.605 1.4459 7.59357 0
M  V30 5915 C 918.665 0.347608 7.69215 0
M  V30 5916 C 919.395 -0.96767 7.52806 0
M  V30 5917 O 919.605 -1.21036 6.1011 0
M  V30 5918 C 920.795 -1.04544 8.13308 0
M  V30 5919 O 921.185 -2.38311 8.41922 0
M  V30 5920 C 921.675 -0.491279 7.02284 0
M  V30 5921 C 920.965 -0.996264 5.77469 0
M  V30 5922 N 921.015 -0.0501916 4.62973 0
M  V30 5923 H 918.176 0.374722 8.67691 0
M  V30 5924 H 917.906 0.443485 6.90277 0
M  V30 5925 H 918.773 -1.75537 7.96793 0
M  V30 5926 P 922.735 -2.75334 8.47391 0
M  V30 5927 O 922.955 -3.84128 9.44797 0
M  V30 5928 O 923.525 -1.51947 8.68712 0
M  V30 5929 O 922.985 -3.29363 6.99321 0
M  V30 5930 C 922.045 -4.24011 6.4274 0
M  V30 5931 C 922.775 -5.20775 5.52155 0
M  V30 5932 O 922.985 -4.56534 4.22446 0
M  V30 5933 C 924.175 -5.62629 5.96531 0
M  V30 5934 O 924.565 -6.87667 5.41053 0
M  V30 5935 C 925.055 -4.52537 5.39283 0
M  V30 5936 C 924.345 -4.20027 4.08623 0
M  V30 5937 N 924.395 -2.76189 3.71603 0
M  V30 5938 H 921.556 -4.797 7.24003 0
M  V30 5939 H 921.286 -3.69856 5.84513 0
M  V30 5940 H 922.153 -6.10356 5.41441 0
M  V30 5941 P 926.115 -7.20834 5.23717 0
M  V30 5942 O 926.335 -8.66104 5.38572 0
M  V30 5943 O 926.905 -6.33544 6.1349 0
M  V30 5944 O 926.365 -6.7751 3.72168 0
M  V30 5945 C 925.425 -7.20825 2.7076 0
M  V30 5946 C 926.155 -7.45864 1.40599 0
M  V30 5947 O 926.365 -6.17651 0.734225 0
M  V30 5948 C 927.555 -8.05808 1.51899 0
M  V30 5949 O 927.945 -8.74358 0.335205 0
M  V30 5950 C 928.435 -6.83093 1.70294 0
M  V30 5951 C 927.725 -5.79992 0.836974 0
M  V30 5952 N 927.775 -4.41864 1.38293 0
M  V30 5953 C 927.695 -3.99538 2.69438 0
M  V30 5954 N 927.775 -2.69909 2.84277 0
M  V30 5955 C 927.915 -2.21719 1.5408 0
M  V30 5956 C 928.045 -0.891712 1.06628 0
M  V30 5957 N 928.165 -0.856846 -0.334985 0
M  V30 5958 C 928.165 -1.9641 -1.15789 0
M  V30 5959 N 928.295 -1.72708 -2.46522 0
M  V30 5960 N 928.035 -3.21165 -0.713741 0
M  V30 5961 C 927.915 -3.26797 0.639748 0
M  V30 5962 H 924.936 -8.13644 3.0377 0
M  V30 5963 H 924.666 -6.42788 2.55485 0
M  V30 5964 H 925.533 -8.12039 0.792769 0
M  V30 5965 P 929.495 -8.91 -6.87236e-12 0
M  V30 5966 O 929.715 -10.1726 -0.733694 0
M  V30 5967 O 930.285 -8.73148 1.23936 0
M  V30 5968 O 929.745 -7.66872 -0.971405 0
M  V30 5969 C 928.805 -7.42309 -2.04641 0
M  V30 5970 C 929.535 -6.86059 -3.24661 0
M  V30 5971 O 929.745 -5.42847 -3.03646 0
M  V30 5972 C 930.935 -7.41196 -3.50753 0
M  V30 5973 O 931.325 -7.27073 -4.86816 0
M  V30 5974 C 931.815 -6.5273 -2.63741 0
M  V30 5975 C 931.105 -5.1842 -2.73198 0
M  V30 5976 N 931.155 -4.38762 -1.4784 0
M  V30 5977 H 928.316 -8.36803 -2.32493 0
M  V30 5978 H 928.046 -6.70197 -1.71129 0
M  V30 5979 H 928.913 -7.03551 -4.13168 0
M  V30 5980 P 932.874 -7.20834 -5.23717 0
M  V30 5981 O 933.094 -7.79853 -6.57286 0
M  V30 5982 O 933.664 -7.79239 -4.12957 0
M  V30 5983 O 933.124 -5.63315 -5.29344 0
M  V30 5984 C 932.184 -4.80255 -6.01876 0
M  V30 5985 C 932.914 -3.64202 -6.65911 0
M  V30 5986 O 933.124 -2.60694 -5.64732 0
M  V30 5987 C 934.314 -3.93473 -7.1943 0
M  V30 5988 O 934.704 -3.02071 -8.21205 0
M  V30 5989 C 935.194 -3.73047 -5.97036 0
M  V30 5990 C 934.484 -2.58828 -5.25741 0
M  V30 5991 N 934.534 -2.68068 -3.77503 0
M  V30 5992 C 934.454 -3.79715 -2.96723 0
M  V30 5993 N 934.534 -3.5377 -1.68852 0
M  V30 5994 C 934.674 -2.15054 -1.63254 0
M  V30 5995 C 934.804 -1.28964 -0.518571 0
M  V30 5996 O 934.824 -1.56826 0.679156 0
M  V30 5997 N 934.924 0.0538097 -0.918425 0
M  V30 5998 C 934.924 0.494275 -2.22578 0
M  V30 5999 N 935.054 1.81086 -2.40434 0
M  V30 6000 N 934.794 -0.313645 -3.27502 0
M  V30 6001 C 934.674 -1.61829 -2.91033 0
M  V30 6002 H 931.695 -5.40332 -6.79951 0
M  V30 6003 H 931.425 -4.41613 -5.32378 0
M  V30 6004 H 932.292 -3.26331 -7.47797 0
M  V30 6005 H 934.947 -1.63422 -5.56814 0
M  V30 6006 H 935.226 -4.63374 -5.34244 0
M  V30 6007 H 936.218 -3.44728 -6.25838 0
M  V30 6008 H 934.384 -4.96652 -7.57263 0
M  V30 6009 H 934.335 -4.80617 -3.3614 0
M  V30 6010 H 935.017 0.742702 -0.199384 0
M  V30 6011 H 935.054 2.20598 -3.35588 0
M  V30 6012 H 935.155 2.43518 -1.58945 0
M  V30 6013 P 936.254 -2.75334 -8.47391 0
M  V30 6014 O 936.474 -2.44571 -9.90142 0
M  V30 6015 O 937.044 -3.87688 -7.92115 0
M  V30 6016 O 936.504 -1.4459 -7.59357 0
M  V30 6017 C 935.564 -0.347608 -7.69215 0
M  V30 6018 C 936.294 0.96767 -7.52806 0
M  V30 6019 O 936.504 1.21036 -6.1011 0
M  V30 6020 C 937.694 1.04544 -8.13308 0
M  V30 6021 O 938.084 2.38311 -8.41922 0
M  V30 6022 C 938.574 0.491279 -7.02284 0
M  V30 6023 C 937.864 0.996264 -5.77469 0
M  V30 6024 N 937.914 0.0501916 -4.62973 0
M  V30 6025 C 937.834 -1.32786 -4.63244 0
M  V30 6026 N 937.914 -1.86957 -3.44545 0
M  V30 6027 C 938.054 -0.780241 -2.58481 0
M  V30 6028 C 938.184 -0.738536 -1.17757 0
M  V30 6029 N 938.304 0.58337 -0.711393 0
M  V30 6030 C 938.304 1.70816 -1.51017 0
M  V30 6031 N 938.434 2.87826 -0.880757 0
M  V30 6032 N 938.174 1.67126 -2.8339 0
M  V30 6033 C 938.054 0.401421 -3.30572 0
M  V30 6034 H 935.075 -0.374722 -8.67691 0
M  V30 6035 H 934.805 -0.443485 -6.90277 0
M  V30 6036 H 935.672 1.75537 -7.96793 0
M  V30 6037 P 939.634 2.75334 -8.47391 0
M  V30 6038 O 939.854 3.84204 -9.44982 0
M  V30 6039 O 940.424 1.51982 -8.68909 0
M  V30 6040 O 939.884 3.29363 -6.99321 0
M  V30 6041 C 938.944 4.24066 -6.42823 0
M  V30 6042 C 939.674 5.20775 -5.52155 0
M  V30 6043 O 939.884 4.56607 -4.22514 0
M  V30 6044 C 941.074 5.62697 -5.96604 0
M  V30 6045 O 941.464 6.87667 -5.41053 0
M  V30 6046 C 941.954 4.52537 -5.39283 0
M  V30 6047 C 941.244 4.20027 -4.08623 0
M  V30 6048 N 941.294 2.76189 -3.71603 0
M  V30 6049 C 941.214 1.66944 -4.54297 0
M  V30 6050 N 941.284 0.536169 -3.91344 0
M  V30 6051 C 941.434 0.901569 -2.58849 0
M  V30 6052 C 941.564 0.146599 -1.40236 0
M  V30 6053 N 941.574 -1.18234 -1.37046 0
M  V30 6054 N 941.684 0.822941 -0.249738 0
M  V30 6055 C 941.674 2.15179 -0.280525 0
M  V30 6056 N 941.554 2.96414 -1.30822 0
M  V30 6057 C 941.434 2.25804 -2.44748 0
M  V30 6058 H 938.456 4.79756 -7.24086 0
M  V30 6059 H 938.184 3.69963 -5.84682 0
M  V30 6060 H 939.052 6.10431 -5.41508 0
M  V30 6061 H 941.707 4.78816 -3.28024 0
M  V30 6062 H 941.987 3.64957 -6.05871 0
M  V30 6063 H 942.978 4.88748 -5.21323 0
M  V30 6064 H 941.144 5.66789 -7.0643 0
M  V30 6065 H 941.103 1.74684 -5.62396 0
M  V30 6066 H 941.484 -1.71949 -2.24394 0
M  V30 6067 H 941.673 -1.67511 -0.470742 0
M  V30 6068 H 941.781 2.63704 0.6828 0
M  V30 6069 P 943.014 7.20834 -5.23717 0
M  V30 6070 O 943.234 8.66104 -5.38572 0
M  V30 6071 O 943.804 6.33544 -6.1349 0
M  V30 6072 O 943.264 6.7751 -3.72168 0
M  V30 6073 C 942.324 7.20825 -2.7076 0
M  V30 6074 C 943.054 7.45864 -1.40599 0
M  V30 6075 O 943.264 6.17651 -0.734225 0
M  V30 6076 C 944.454 8.05808 -1.51899 0
M  V30 6077 O 944.844 8.74358 -0.335205 0
M  V30 6078 C 945.334 6.83093 -1.70294 0
M  V30 6079 C 944.624 5.79992 -0.836974 0
M  V30 6080 N 944.674 4.41864 -1.38293 0
M  V30 6081 H 941.835 8.13644 -3.0377 0
M  V30 6082 H 941.565 6.42788 -2.55485 0
M  V30 6083 H 942.432 8.12039 -0.792769 0
M  V30 6084 P 946.394 8.91 7.02954e-12 0
M  V30 6085 O 946.614 10.1746 0.733838 0
M  V30 6086 O 947.184 8.73346 -1.23964 0
M  V30 6087 O 946.644 7.66872 0.971405 0
M  V30 6088 C 945.704 7.42405 2.04668 0
M  V30 6089 C 946.434 6.86059 3.24661 0
M  V30 6090 O 946.644 5.42934 3.03695 0
M  V30 6091 C 947.834 7.41287 3.50796 0
M  V30 6092 O 948.224 7.27073 4.86816 0
M  V30 6093 C 948.714 6.5273 2.63741 0
M  V30 6094 C 948.004 5.1842 2.73198 0
M  V30 6095 N 948.054 4.38762 1.4784 0
M  V30 6096 C 947.974 4.83651 0.183876 0
M  V30 6097 N 948.044 3.88759 -0.699393 0
M  V30 6098 C 948.194 2.7404 0.0575568 0
M  V30 6099 C 948.324 1.37902 -0.293928 0
M  V30 6100 N 948.334 0.938021 -1.54797 0
M  V30 6101 N 948.444 0.491817 0.70549 0
M  V30 6102 C 948.434 0.931735 1.95979 0
M  V30 6103 N 948.314 2.16017 2.41481 0
M  V30 6104 C 948.194 3.02547 1.39121 0
M  V30 6105 H 945.216 8.36899 2.3252 0
M  V30 6106 H 944.944 6.70391 1.71179 0
M  V30 6107 H 945.812 7.03638 4.13219 0
M  V30 6108 H 948.467 4.59931 3.54016 0
M  V30 6109 H 948.747 6.88995 1.59871 0
M  V30 6110 H 949.738 6.4684 3.0373 0
M  V30 6111 H 947.904 8.47002 3.20749 0
M  V30 6112 H 947.863 5.8885 -0.0765548 0
M  V30 6113 H 948.244 1.60276 -2.32875 0
M  V30 6114 H 948.433 -0.0699355 -1.73859 0
M  V30 6115 H 948.541 0.165507 2.71897 0
M  V30 6116 P 949.774 7.20834 5.23717 0
M  V30 6117 O 949.994 7.7993 6.57351 0
M  V30 6118 O 950.564 7.79328 4.13004 0
M  V30 6119 O 950.024 5.63315 5.29344 0
M  V30 6120 C 949.084 4.80193 6.01798 0
M  V30 6121 C 949.814 3.64202 6.65911 0
M  V30 6122 O 950.024 2.60694 5.64732 0
M  V30 6123 C 951.214 3.93473 7.1943 0
M  V30 6124 O 951.604 3.02071 8.21205 0
M  V30 6125 C 952.094 3.73047 5.97036 0
M  V30 6126 C 951.384 2.58828 5.25741 0
M  V30 6127 N 951.434 2.6801 3.77422 0
M  V30 6128 C 951.584 1.50443 3.07133 0
M  V30 6129 O 951.674 0.419406 3.61576 0
M  V30 6130 N 951.624 1.6403 1.69677 0
M  V30 6131 C 951.534 2.81206 0.986255 0
M  V30 6132 C 951.384 3.99158 1.80325 0
M  V30 6133 C 951.334 3.89779 3.1476 0
M  V30 6134 H 948.594 5.40332 6.79951 0
M  V30 6135 H 948.325 4.41549 5.32301 0
M  V30 6136 H 949.192 3.26331 7.47797 0
M  V30 6137 H 951.847 1.6395 5.56554 0
M  V30 6138 H 952.126 4.63439 5.3432 0
M  V30 6139 H 953.118 3.44728 6.25838 0
M  V30 6140 H 951.284 4.96652 7.57263 0
M  V30 6141 H 951.213 4.80159 3.74441 0
M  V30 6142 P 953.154 2.75334 8.47391 0
M  V30 6143 O 953.374 2.44571 9.90142 0
M  V30 6144 O 953.944 3.87688 7.92115 0
M  V30 6145 O 953.404 1.4459 7.59357 0
M  V30 6146 C 952.464 0.347608 7.69215 0
M  V30 6147 C 953.194 -0.96767 7.52806 0
M  V30 6148 O 953.404 -1.21036 6.1011 0
M  V30 6149 C 954.594 -1.04544 8.13308 0
M  V30 6150 O 954.984 -2.38311 8.41922 0
M  V30 6151 C 955.474 -0.491279 7.02284 0
M  V30 6152 C 954.764 -0.996264 5.77469 0
M  V30 6153 N 954.814 -0.0501916 4.62973 0
M  V30 6154 H 951.975 0.374722 8.67691 0
M  V30 6155 H 951.705 0.443485 6.90277 0
M  V30 6156 H 952.572 -1.75537 7.96793 0
M  V30 6157 P 956.534 -2.75334 8.47391 0
M  V30 6158 O 956.754 -3.84166 9.4489 0
M  V30 6159 O 957.324 -1.51964 8.6881 0
M  V30 6160 O 956.784 -3.29363 6.99321 0
M  V30 6161 C 955.844 -4.24011 6.4274 0
M  V30 6162 C 956.574 -5.20775 5.52155 0
M  V30 6163 O 956.784 -4.56534 4.22446 0
M  V30 6164 C 957.974 -5.62629 5.96531 0
M  V30 6165 O 958.364 -6.87667 5.41053 0
M  V30 6166 C 958.854 -4.52537 5.39283 0
M  V30 6167 C 958.144 -4.20027 4.08623 0
M  V30 6168 N 958.194 -2.7613 3.71522 0
M  V30 6169 C 958.344 -2.43702 2.37085 0
M  V30 6170 O 958.434 -3.3531 1.54039 0
M  V30 6171 N 958.394 -0.951103 2.10621 0
M  V30 6172 C 958.294 -0.165021 2.93537 0
M  V30 6173 N 958.344 1.09723 2.53253 0
M  V30 6174 C 958.144 -0.469576 4.32458 0
M  V30 6175 C 958.094 -1.78658 4.65921 0
M  V30 6176 H 955.354 -4.79645 7.23919 0
M  V30 6177 H 955.085 -3.69802 5.84429 0
M  V30 6178 H 955.952 -6.10431 5.41508 0
M  V30 6179 H 958.607 -4.78733 3.27967 0
M  V30 6180 H 958.886 -3.64957 6.05871 0
M  V30 6181 H 959.878 -4.8868 5.2125 0
M  V30 6182 H 958.044 -5.66726 7.06352 0
M  V30 6183 H 957.972 -2.06987 5.70299 0
M  V30 6184 H 958.074 0.314383 5.07728 0
M  V30 6185 H 958.462 1.31363 1.5319 0
M  V30 6186 H 958.265 1.85978 3.21943 0
M  V30 6187 P 959.914 -7.20834 5.23717 0
M  V30 6188 O 960.134 -8.66104 5.38572 0
M  V30 6189 O 960.704 -6.33544 6.1349 0
M  V30 6190 O 960.164 -6.7751 3.72168 0
M  V30 6191 C 959.224 -7.20825 2.7076 0
M  V30 6192 C 959.954 -7.45864 1.40599 0
M  V30 6193 O 960.164 -6.17651 0.734225 0
M  V30 6194 C 961.354 -8.05808 1.51899 0
M  V30 6195 O 961.744 -8.74358 0.335205 0
M  V30 6196 C 962.234 -6.83093 1.70294 0
M  V30 6197 C 961.524 -5.79992 0.836974 0
M  V30 6198 N 961.574 -4.41864 1.38293 0
M  V30 6199 H 958.735 -8.13644 3.0377 0
M  V30 6200 H 958.465 -6.42788 2.55485 0
M  V30 6201 H 959.332 -8.12039 0.792769 0
M  V30 6202 P 963.294 -8.91 -7.18673e-12 0
M  V30 6203 O 963.514 -10.1726 -0.733694 0
M  V30 6204 O 964.084 -8.73148 1.23936 0
M  V30 6205 O 963.544 -7.66872 -0.971405 0
M  V30 6206 C 962.604 -7.42309 -2.04641 0
M  V30 6207 C 963.334 -6.86059 -3.24661 0
M  V30 6208 O 963.544 -5.42847 -3.03646 0
M  V30 6209 C 964.734 -7.41196 -3.50753 0
M  V30 6210 O 965.124 -7.27073 -4.86816 0
M  V30 6211 C 965.614 -6.5273 -2.63741 0
M  V30 6212 C 964.904 -5.1842 -2.73198 0
M  V30 6213 N 964.954 -4.38762 -1.4784 0
M  V30 6214 H 962.115 -8.36803 -2.32493 0
M  V30 6215 H 961.845 -6.70197 -1.71129 0
M  V30 6216 H 962.712 -7.03551 -4.13168 0
M  V30 6217 P 966.674 -7.20834 -5.23717 0
M  V30 6218 O 966.894 -7.79853 -6.57286 0
M  V30 6219 O 967.464 -7.79239 -4.12957 0
M  V30 6220 O 966.924 -5.63315 -5.29344 0
M  V30 6221 C 965.984 -4.80255 -6.01876 0
M  V30 6222 C 966.714 -3.64202 -6.65911 0
M  V30 6223 O 966.924 -2.60694 -5.64732 0
M  V30 6224 C 968.114 -3.93473 -7.1943 0
M  V30 6225 O 968.504 -3.02071 -8.21205 0
M  V30 6226 C 968.994 -3.73047 -5.97036 0
M  V30 6227 C 968.284 -2.58828 -5.25741 0
M  V30 6228 N 968.334 -2.68068 -3.77503 0
M  V30 6229 H 965.495 -5.40332 -6.79951 0
M  V30 6230 H 965.225 -4.41613 -5.32378 0
M  V30 6231 H 966.092 -3.26331 -7.47797 0
M  V30 6232 P 970.054 -2.75334 -8.47391 0
M  V30 6233 O 970.274 -2.44595 -9.90239 0
M  V30 6234 O 970.844 -3.87732 -7.92204 0
M  V30 6235 O 970.304 -1.4459 -7.59357 0
M  V30 6236 C 969.364 -0.347608 -7.69215 0
M  V30 6237 C 970.094 0.96767 -7.52806 0
M  V30 6238 O 970.304 1.21036 -6.1011 0
M  V30 6239 C 971.494 1.04544 -8.13308 0
M  V30 6240 O 971.884 2.38311 -8.41922 0
M  V30 6241 C 972.374 0.491279 -7.02284 0
M  V30 6242 C 971.664 0.996264 -5.77469 0
M  V30 6243 N 971.714 0.0501808 -4.62873 0
M  V30 6244 C 971.864 0.578037 -3.3505 0
M  V30 6245 O 971.954 1.8073 -3.21711 0
M  V30 6246 N 971.914 -0.468541 -2.263 0
M  V30 6247 C 971.814 -1.59186 -2.47176 0
M  V30 6248 N 971.864 -2.37626 -1.40392 0
M  V30 6249 C 971.664 -2.16203 -3.77467 0
M  V30 6250 C 971.614 -1.29324 -4.8195 0
M  V30 6251 H 968.874 -0.374679 -8.67591 0
M  V30 6252 H 968.605 -0.443421 -6.90177 0
M  V30 6253 H 969.472 1.75559 -7.96891 0
M  V30 6254 H 972.127 1.94529 -5.46723 0
M  V30 6255 H 972.406 -0.608651 -7.04676 0
M  V30 6256 H 973.398 0.889672 -7.08939 0
M  V30 6257 H 971.564 0.43308 -9.04564 0
M  V30 6258 H 971.492 -1.67758 -5.83046 0
M  V30 6259 H 971.594 -3.23869 -3.92281 0
M  V30 6260 H 971.982 -1.96317 -0.467202 0
M  V30 6261 H 971.785 -3.39693 -1.51142 0
M  V30 6262 P 973.434 2.75334 -8.47391 0
M  V30 6263 O 973.654 3.84128 -9.44797 0
M  V30 6264 O 974.224 1.51947 -8.68712 0
M  V30 6265 O 973.684 3.29363 -6.99321 0
M  V30 6266 C 972.744 4.24011 -6.4274 0
M  V30 6267 C 973.474 5.20775 -5.52155 0
M  V30 6268 O 973.684 4.56534 -4.22446 0
M  V30 6269 C 974.874 5.62629 -5.96531 0
M  V30 6270 O 975.264 6.87667 -5.41053 0
M  V30 6271 C 975.754 4.52537 -5.39283 0
M  V30 6272 C 975.044 4.20027 -4.08623 0
M  V30 6273 N 975.094 2.76189 -3.71603 0
M  V30 6274 H 972.255 4.797 -7.24003 0
M  V30 6275 H 971.985 3.69856 -5.84513 0
M  V30 6276 H 972.852 6.10356 -5.41441 0
M  V30 6277 P 976.814 7.20834 -5.23717 0
M  V30 6278 O 977.034 8.66274 -5.38678 0
M  V30 6279 O 977.604 6.33687 -6.13629 0
M  V30 6280 O 977.064 6.7751 -3.72168 0
M  V30 6281 C 976.124 7.20919 -2.70795 0
M  V30 6282 C 976.854 7.45864 -1.40599 0
M  V30 6283 O 977.064 6.17751 -0.734343 0
M  V30 6284 C 978.254 8.05906 -1.51917 0
M  V30 6285 O 978.644 8.74358 -0.335205 0
M  V30 6286 C 979.134 6.83093 -1.70294 0
M  V30 6287 C 978.424 5.79992 -0.836974 0
M  V30 6288 N 978.474 4.41864 -1.38293 0
M  V30 6289 C 978.394 4.02089 -2.69407 0
M  V30 6290 N 978.464 2.73403 -2.85089 0
M  V30 6291 C 978.614 2.25086 -1.5642 0
M  V30 6292 C 978.744 0.942887 -1.04836 0
M  V30 6293 N 978.754 -0.150999 -1.80369 0
M  V30 6294 N 978.864 0.812565 0.28167 0
M  V30 6295 C 978.854 1.90572 1.03784 0
M  V30 6296 N 978.734 3.167 0.683905 0
M  V30 6297 C 978.614 3.26538 -0.652815 0
M  V30 6298 H 975.636 8.13738 -3.03804 0
M  V30 6299 H 975.364 6.42974 -2.55559 0
M  V30 6300 H 976.232 8.12139 -0.792866 0
M  V30 6301 H 978.887 5.80178 0.160643 0
M  V30 6302 H 979.167 6.51379 -2.75643 0
M  V30 6303 H 980.158 7.01832 -1.3448 0
M  V30 6304 H 978.324 8.73771 -2.38364 0
M  V30 6305 H 978.283 4.7189 -3.52311 0
M  V30 6306 H 978.664 -0.0721434 -2.82608 0
M  V30 6307 H 978.853 -1.0785 -1.36544 0
M  V30 6308 H 978.961 1.73207 2.10241 0
M  V30 6309 P 980.194 8.91 7.34391e-12 0
M  V30 6310 O 980.414 10.1726 0.733694 0
M  V30 6311 O 980.984 8.73148 -1.23936 0
M  V30 6312 O 980.444 7.66872 0.971405 0
M  V30 6313 C 979.504 7.42309 2.04641 0
M  V30 6314 C 980.234 6.86059 3.24661 0
M  V30 6315 O 980.444 5.42847 3.03646 0
M  V30 6316 C 981.634 7.41196 3.50753 0
M  V30 6317 O 982.024 7.27073 4.86816 0
M  V30 6318 C 982.514 6.5273 2.63741 0
M  V30 6319 C 981.804 5.1842 2.73198 0
M  V30 6320 N 981.854 4.38762 1.4784 0
M  V30 6321 H 979.015 8.36803 2.32493 0
M  V30 6322 H 978.745 6.70197 1.71129 0
M  V30 6323 H 979.612 7.03551 4.13168 0
M  V30 6324 P 983.574 7.20834 5.23717 0
M  V30 6325 O 983.794 7.79853 6.57286 0
M  V30 6326 O 984.364 7.79239 4.12957 0
M  V30 6327 O 983.824 5.63315 5.29344 0
M  V30 6328 C 982.884 4.80255 6.01876 0
M  V30 6329 C 983.614 3.64202 6.65911 0
M  V30 6330 O 983.824 2.60694 5.64732 0
M  V30 6331 C 985.014 3.93473 7.1943 0
M  V30 6332 O 985.404 3.02071 8.21205 0
M  V30 6333 C 985.894 3.73047 5.97036 0
M  V30 6334 C 985.184 2.58828 5.25741 0
M  V30 6335 N 985.234 2.68068 3.77503 0
M  V30 6336 C 985.154 3.79715 2.96723 0
M  V30 6337 N 985.234 3.5377 1.68852 0
M  V30 6338 C 985.374 2.15054 1.63254 0
M  V30 6339 C 985.504 1.28964 0.518571 0
M  V30 6340 N 985.624 -0.0538097 0.918425 0
M  V30 6341 C 985.624 -0.494275 2.22578 0
M  V30 6342 N 985.754 -1.81086 2.40434 0
M  V30 6343 N 985.494 0.313645 3.27502 0
M  V30 6344 C 985.374 1.61829 2.91033 0
M  V30 6345 H 982.395 5.40332 6.79951 0
M  V30 6346 H 982.125 4.41613 5.32378 0
M  V30 6347 H 982.992 3.26331 7.47797 0
M  V30 6348 P 986.954 2.75334 8.47391 0
M  V30 6349 O 987.174 2.44571 9.90142 0
M  V30 6350 O 987.744 3.87688 7.92115 0
M  V30 6351 O 987.204 1.4459 7.59357 0
M  V30 6352 C 986.264 0.347608 7.69215 0
M  V30 6353 C 986.994 -0.96767 7.52806 0
M  V30 6354 O 987.204 -1.21036 6.1011 0
M  V30 6355 C 988.394 -1.04544 8.13308 0
M  V30 6356 O 988.784 -2.38311 8.41922 0
M  V30 6357 C 989.274 -0.491279 7.02284 0
M  V30 6358 C 988.564 -0.996264 5.77469 0
M  V30 6359 N 988.614 -0.0501916 4.62973 0
M  V30 6360 H 985.775 0.374722 8.67691 0
M  V30 6361 H 985.505 0.443485 6.90277 0
M  V30 6362 H 986.372 -1.75537 7.96793 0
M  V30 6363 P 990.334 -2.75334 8.47391 0
M  V30 6364 O 990.554 -3.84166 9.4489 0
M  V30 6365 O 991.124 -1.51964 8.6881 0
M  V30 6366 O 990.584 -3.29363 6.99321 0
M  V30 6367 C 989.644 -4.23956 6.42656 0
M  V30 6368 C 990.374 -5.20775 5.52155 0
M  V30 6369 O 990.584 -4.56534 4.22446 0
M  V30 6370 C 991.774 -5.62629 5.96531 0
M  V30 6371 O 992.164 -6.87667 5.41053 0
M  V30 6372 C 992.654 -4.52537 5.39283 0
M  V30 6373 C 991.944 -4.20027 4.08623 0
M  V30 6374 N 991.994 -2.7613 3.71522 0
M  V30 6375 C 992.144 -2.45612 2.37989 0
M  V30 6376 O 992.234 -3.30919 1.51621 0
M  V30 6377 N 992.184 -1.10684 2.08435 0
M  V30 6378 C 992.094 -0.0690084 2.9792 0
M  V30 6379 C 991.944 -0.481522 4.35345 0
M  V30 6380 C 991.894 -1.78906 4.67968 0
M  V30 6381 H 989.154 -4.797 7.24003 0
M  V30 6382 H 988.885 -3.69802 5.84429 0
M  V30 6383 H 989.752 -6.10356 5.41441 0
M  V30 6384 H 992.407 -4.78651 3.27911 0
M  V30 6385 H 992.686 -3.64957 6.05871 0
M  V30 6386 H 993.678 -4.8868 5.2125 0
M  V30 6387 H 991.844 -5.66726 7.06352 0
M  V30 6388 H 991.773 -2.07737 5.72367 0
M  V30 6389 P 993.714 -7.20834 5.23717 0
M  V30 6390 O 993.934 -8.66104 5.38572 0
M  V30 6391 O 994.504 -6.33544 6.1349 0
M  V30 6392 O 993.964 -6.7751 3.72168 0
M  V30 6393 C 993.024 -7.20825 2.7076 0
M  V30 6394 C 993.754 -7.45864 1.40599 0
M  V30 6395 O 993.964 -6.17651 0.734225 0
M  V30 6396 C 995.154 -8.05808 1.51899 0
M  V30 6397 O 995.544 -8.74358 0.335205 0
M  V30 6398 C 996.034 -6.83093 1.70294 0
M  V30 6399 C 995.324 -5.79992 0.836974 0
M  V30 6400 N 995.374 -4.41864 1.38293 0
M  V30 6401 H 992.535 -8.13644 3.0377 0
M  V30 6402 H 992.265 -6.42788 2.55485 0
M  V30 6403 H 993.132 -8.12039 0.792769 0
M  V30 6404 P 997.094 -8.91 -7.50109e-12 0
M  V30 6405 O 997.314 -10.1726 -0.733694 0
M  V30 6406 O 997.884 -8.73148 1.23936 0
M  V30 6407 O 997.344 -7.66872 -0.971405 0
M  V30 6408 C 996.404 -7.42309 -2.04641 0
M  V30 6409 C 997.134 -6.86059 -3.24661 0
M  V30 6410 O 997.344 -5.42847 -3.03646 0
M  V30 6411 C 998.534 -7.41196 -3.50753 0
M  V30 6412 O 998.924 -7.27073 -4.86816 0
M  V30 6413 C 999.414 -6.5273 -2.63741 0
M  V30 6414 C 998.704 -5.1842 -2.73198 0
M  V30 6415 N 998.754 -4.38762 -1.4784 0
M  V30 6416 C 998.674 -4.81605 -0.168631 0
M  V30 6417 N 998.754 -3.85454 0.713363 0
M  V30 6418 C 998.894 -2.6994 -0.0566958 0
M  V30 6419 C 999.024 -1.34815 0.338502 0
M  V30 6420 O 999.044 -0.869548 1.47125 0
M  V30 6421 N 999.144 -0.496304 -0.77465 0
M  V30 6422 C 999.144 -0.908403 -2.09122 0
M  V30 6423 N 999.274 0.0517805 -3.00955 0
M  V30 6424 N 999.014 -2.17875 -2.46519 0
M  V30 6425 C 998.894 -3.01988 -1.4033 0
M  V30 6426 H 995.915 -8.36803 -2.32493 0
M  V30 6427 H 995.645 -6.70197 -1.71129 0
M  V30 6428 H 996.512 -7.03551 -4.13168 0
M  V30 6429 H 999.167 -4.59498 -3.54415 0
M  V30 6430 H 999.446 -6.88898 -1.59848 0
M  V30 6431 H 1000.44 -6.46749 -3.03687 0
M  V30 6432 H 998.604 -8.46908 -3.20714 0
M  V30 6433 H 998.555 -5.86405 0.105564 0
M  V30 6434 H 999.237 0.483664 -0.597855 0
M  V30 6435 H 999.274 -0.187865 -4.0116 0
M  V30 6436 H 999.375 1.03585 -2.71726 0
M  V30 6437 P 1000.47 -7.20834 -5.23717 0
M  V30 6438 O 1000.69 -7.79853 -6.57286 0
M  V30 6439 O 1001.26 -7.79239 -4.12957 0
M  V30 6440 O 1000.72 -5.63315 -5.29344 0
M  V30 6441 C 999.784 -4.80255 -6.01876 0
M  V30 6442 C 1000.51 -3.64202 -6.65911 0
M  V30 6443 O 1000.72 -2.60694 -5.64732 0
M  V30 6444 C 1001.91 -3.93473 -7.1943 0
M  V30 6445 O 1002.3 -3.02071 -8.21205 0
M  V30 6446 C 1002.79 -3.73047 -5.97036 0
M  V30 6447 C 1002.08 -2.58828 -5.25741 0
M  V30 6448 N 1002.13 -2.68068 -3.77503 0
M  V30 6449 C 1002.05 -3.79715 -2.96723 0
M  V30 6450 N 1002.13 -3.5377 -1.68852 0
M  V30 6451 C 1002.27 -2.15054 -1.63254 0
M  V30 6452 C 1002.4 -1.28964 -0.518571 0
M  V30 6453 O 1002.42 -1.56826 0.679156 0
M  V30 6454 N 1002.52 0.0538097 -0.918425 0
M  V30 6455 C 1002.52 0.494275 -2.22578 0
M  V30 6456 N 1002.65 1.81086 -2.40434 0
M  V30 6457 N 1002.39 -0.313645 -3.27502 0
M  V30 6458 C 1002.27 -1.61829 -2.91033 0
M  V30 6459 H 999.295 -5.40332 -6.79951 0
M  V30 6460 H 999.025 -4.41613 -5.32378 0
M  V30 6461 H 999.892 -3.26331 -7.47797 0
M  V30 6462 H 1002.55 -1.63422 -5.56814 0
M  V30 6463 H 1002.83 -4.63374 -5.34244 0
M  V30 6464 H 1003.82 -3.44728 -6.25838 0
M  V30 6465 H 1001.98 -4.96652 -7.57263 0
M  V30 6466 H 1001.94 -4.80617 -3.3614 0
M  V30 6467 H 1002.62 0.742702 -0.199384 0
M  V30 6468 H 1002.65 2.20598 -3.35588 0
M  V30 6469 H 1002.76 2.43518 -1.58945 0
M  V30 6470 P 1003.85 -2.75334 -8.47391 0
M  V30 6471 O 1004.07 -2.44571 -9.90142 0
M  V30 6472 O 1004.64 -3.87688 -7.92115 0
M  V30 6473 O 1004.1 -1.4459 -7.59357 0
M  V30 6474 C 1003.16 -0.347608 -7.69215 0
M  V30 6475 C 1003.89 0.96767 -7.52806 0
M  V30 6476 O 1004.1 1.21036 -6.1011 0
M  V30 6477 C 1005.29 1.04544 -8.13308 0
M  V30 6478 O 1005.68 2.38311 -8.41922 0
M  V30 6479 C 1006.17 0.491279 -7.02284 0
M  V30 6480 C 1005.46 0.996264 -5.77469 0
M  V30 6481 N 1005.51 0.0501916 -4.62973 0
M  V30 6482 H 1002.68 -0.374722 -8.67691 0
M  V30 6483 H 1002.41 -0.443485 -6.90277 0
M  V30 6484 H 1003.27 1.75537 -7.96793 0
M  V30 6485 P 1007.23 2.75334 -8.47391 0
M  V30 6486 O 1007.45 3.84128 -9.44797 0
M  V30 6487 O 1008.02 1.51947 -8.68712 0
M  V30 6488 O 1007.48 3.29363 -6.99321 0
M  V30 6489 C 1006.54 4.24011 -6.4274 0
M  V30 6490 C 1007.27 5.20775 -5.52155 0
M  V30 6491 O 1007.48 4.56534 -4.22446 0
M  V30 6492 C 1008.67 5.62629 -5.96531 0
M  V30 6493 O 1009.06 6.87667 -5.41053 0
M  V30 6494 C 1009.55 4.52537 -5.39283 0
M  V30 6495 C 1008.84 4.20027 -4.08623 0
M  V30 6496 N 1008.89 2.76189 -3.71603 0
M  V30 6497 H 1006.06 4.797 -7.24003 0
M  V30 6498 H 1005.79 3.69856 -5.84513 0
M  V30 6499 H 1006.65 6.10356 -5.41441 0
M  V30 6500 P 1010.61 7.20834 -5.23717 0
M  V30 6501 O 1010.83 8.66274 -5.38678 0
M  V30 6502 O 1011.4 6.33687 -6.13629 0
M  V30 6503 O 1010.86 6.7751 -3.72168 0
M  V30 6504 C 1009.92 7.20919 -2.70795 0
M  V30 6505 C 1010.65 7.45864 -1.40599 0
M  V30 6506 O 1010.86 6.17751 -0.734343 0
M  V30 6507 C 1012.05 8.05906 -1.51917 0
M  V30 6508 O 1012.44 8.74358 -0.335205 0
M  V30 6509 C 1012.93 6.83093 -1.70294 0
M  V30 6510 C 1012.22 5.79992 -0.836974 0
M  V30 6511 N 1012.27 4.41864 -1.38293 0
M  V30 6512 C 1012.19 4.02089 -2.69407 0
M  V30 6513 N 1012.26 2.73403 -2.85089 0
M  V30 6514 C 1012.41 2.25086 -1.5642 0
M  V30 6515 C 1012.54 0.942887 -1.04836 0
M  V30 6516 N 1012.55 -0.150999 -1.80369 0
M  V30 6517 N 1012.66 0.812565 0.28167 0
M  V30 6518 C 1012.65 1.90572 1.03784 0
M  V30 6519 N 1012.53 3.167 0.683905 0
M  V30 6520 C 1012.41 3.26538 -0.652815 0
M  V30 6521 H 1009.44 8.13738 -3.03804 0
M  V30 6522 H 1009.16 6.42974 -2.55559 0
M  V30 6523 H 1010.03 8.12139 -0.792866 0
M  V30 6524 H 1012.69 5.80178 0.160643 0
M  V30 6525 H 1012.97 6.51379 -2.75643 0
M  V30 6526 H 1013.96 7.01832 -1.3448 0
M  V30 6527 H 1012.12 8.73771 -2.38364 0
M  V30 6528 H 1012.08 4.7189 -3.52311 0
M  V30 6529 H 1012.46 -0.0721434 -2.82608 0
M  V30 6530 H 1012.65 -1.0785 -1.36544 0
M  V30 6531 H 1012.76 1.73207 2.10241 0
M  V30 6532 P 1013.99 8.91 7.65827e-12 0
M  V30 6533 O 1014.21 10.1736 0.733766 0
M  V30 6534 O 1014.78 8.73247 -1.2395 0
M  V30 6535 O 1014.24 7.66872 0.971405 0
M  V30 6536 C 1013.3 7.42212 2.04614 0
M  V30 6537 C 1014.03 6.86059 3.24661 0
M  V30 6538 O 1014.24 5.42847 3.03646 0
M  V30 6539 C 1015.43 7.41196 3.50753 0
M  V30 6540 O 1015.82 7.27073 4.86816 0
M  V30 6541 C 1016.31 6.5273 2.63741 0
M  V30 6542 C 1015.6 5.1842 2.73198 0
M  V30 6543 N 1015.65 4.38668 1.47808 0
M  V30 6544 C 1015.8 3.02239 1.60048 0
M  V30 6545 O 1015.89 2.46459 2.67869 0
M  V30 6546 N 1015.84 2.32436 0.408571 0
M  V30 6547 C 1015.75 2.85471 -0.854993 0
M  V30 6548 O 1015.8 2.12566 -1.8531 0
M  V30 6549 C 1015.6 4.28918 -0.887335 0
M  V30 6550 C 1015.49 4.91066 -2.24619 0
M  V30 6551 C 1015.55 5.00349 0.255399 0
M  V30 6552 H 1012.81 8.36803 2.32493 0
M  V30 6553 H 1012.55 6.701 1.71105 0
M  V30 6554 H 1013.41 7.03551 4.13168 0
M  V30 6555 H 1016.07 4.59773 3.53894 0
M  V30 6556 H 1016.35 6.88995 1.59871 0
M  V30 6557 H 1017.34 6.46749 3.03687 0
M  V30 6558 H 1015.5 8.46908 3.20714 0
M  V30 6559 H 1015.43 6.08548 0.206986 0
M  V30 6560 H 1016.46 5.34836 -2.53099 0
M  V30 6561 H 1014.73 5.69638 -2.2291 0
M  V30 6562 H 1015.21 4.13971 -2.98044 0
M  V30 6563 H 1015.95 1.33211 0.474216 0
M  V30 6564 P 1017.37 7.20834 5.23717 0
M  V30 6565 O 1017.59 7.7993 6.57351 0
M  V30 6566 O 1018.16 7.79328 4.13004 0
M  V30 6567 O 1017.62 5.63315 5.29344 0
M  V30 6568 C 1016.68 4.80193 6.01798 0
M  V30 6569 C 1017.41 3.64202 6.65911 0
M  V30 6570 O 1017.62 2.60694 5.64732 0
M  V30 6571 C 1018.81 3.93473 7.1943 0
M  V30 6572 O 1019.2 3.02071 8.21205 0
M  V30 6573 C 1019.69 3.73047 5.97036 0
M  V30 6574 C 1018.98 2.58828 5.25741 0
M  V30 6575 N 1019.03 2.6801 3.77422 0
M  V30 6576 C 1019.18 1.50443 3.07133 0
M  V30 6577 O 1019.27 0.419406 3.61576 0
M  V30 6578 N 1019.22 1.6403 1.69677 0
M  V30 6579 C 1019.13 2.81206 0.986255 0
M  V30 6580 O 1019.18 2.80892 -0.249754 0
M  V30 6581 C 1018.98 3.99158 1.80325 0
M  V30 6582 C 1018.87 5.29309 1.06921 0
M  V30 6583 C 1018.93 3.89779 3.1476 0
M  V30 6584 H 1016.19 5.40332 6.79951 0
M  V30 6585 H 1015.92 4.41549 5.32301 0
M  V30 6586 H 1016.79 3.26331 7.47797 0
M  V30 6587 H 1019.45 1.6395 5.56554 0
M  V30 6588 H 1019.73 4.63439 5.3432 0
M  V30 6589 H 1020.72 3.44728 6.25838 0
M  V30 6590 H 1018.88 4.96652 7.57263 0
M  V30 6591 H 1018.81 4.80159 3.74441 0
M  V30 6592 H 1019.84 5.81459 1.09608 0
M  V30 6593 H 1018.11 5.9187 1.54487 0
M  V30 6594 H 1018.59 5.10095 0.0220288 0
M  V30 6595 H 1019.33 0.798962 1.16664 0
M  V30 6596 P 1020.75 2.75334 8.47391 0
M  V30 6597 O 1020.97 2.44571 9.90142 0
M  V30 6598 O 1021.54 3.87688 7.92115 0
M  V30 6599 O 1021 1.4459 7.59357 0
M  V30 6600 C 1020.06 0.347608 7.69215 0
M  V30 6601 C 1020.79 -0.96767 7.52806 0
M  V30 6602 O 1021 -1.21036 6.1011 0
M  V30 6603 C 1022.19 -1.04544 8.13308 0
M  V30 6604 O 1022.58 -2.38311 8.41922 0
M  V30 6605 C 1023.07 -0.491279 7.02284 0
M  V30 6606 C 1022.36 -0.996264 5.77469 0
M  V30 6607 N 1022.41 -0.0501916 4.62973 0
M  V30 6608 C 1022.33 1.32786 4.63244 0
M  V30 6609 N 1022.41 1.86957 3.44545 0
M  V30 6610 C 1022.55 0.780241 2.58481 0
M  V30 6611 C 1022.68 0.738536 1.17757 0
M  V30 6612 N 1022.8 -0.58337 0.711393 0
M  V30 6613 C 1022.8 -1.70816 1.51017 0
M  V30 6614 N 1022.93 -2.87826 0.880757 0
M  V30 6615 N 1022.67 -1.67126 2.8339 0
M  V30 6616 C 1022.55 -0.401421 3.30572 0
M  V30 6617 H 1019.57 0.374722 8.67691 0
M  V30 6618 H 1019.3 0.443485 6.90277 0
M  V30 6619 H 1020.17 -1.75537 7.96793 0
M  V30 6620 P 1024.13 -2.75334 8.47391 0
M  V30 6621 O 1024.35 -3.84128 9.44797 0
M  V30 6622 O 1024.92 -1.51947 8.68712 0
M  V30 6623 O 1024.38 -3.29363 6.99321 0
M  V30 6624 C 1023.44 -4.24011 6.4274 0
M  V30 6625 C 1024.17 -5.20775 5.52155 0
M  V30 6626 O 1024.38 -4.56534 4.22446 0
M  V30 6627 C 1025.57 -5.62629 5.96531 0
M  V30 6628 O 1025.96 -6.87667 5.41053 0
M  V30 6629 C 1026.45 -4.52537 5.39283 0
M  V30 6630 C 1025.74 -4.20027 4.08623 0
M  V30 6631 N 1025.79 -2.76189 3.71603 0
M  V30 6632 H 1022.95 -4.797 7.24003 0
M  V30 6633 H 1022.68 -3.69856 5.84513 0
M  V30 6634 H 1023.55 -6.10356 5.41441 0
M  V30 6635 P 1027.51 -7.20834 5.23717 0
M  V30 6636 O 1027.73 -8.66104 5.38572 0
M  V30 6637 O 1028.3 -6.33544 6.1349 0
M  V30 6638 O 1027.76 -6.7751 3.72168 0
M  V30 6639 C 1026.82 -7.20825 2.7076 0
M  V30 6640 C 1027.55 -7.45864 1.40599 0
M  V30 6641 O 1027.76 -6.17651 0.734225 0
M  V30 6642 C 1028.95 -8.05808 1.51899 0
M  V30 6643 O 1029.34 -8.74358 0.335205 0
M  V30 6644 C 1029.83 -6.83093 1.70294 0
M  V30 6645 C 1029.12 -5.79992 0.836974 0
M  V30 6646 N 1029.17 -4.41864 1.38293 0
M  V30 6647 H 1026.33 -8.13644 3.0377 0
M  V30 6648 H 1026.06 -6.42788 2.55485 0
M  V30 6649 H 1026.93 -8.12039 0.792769 0
M  V30 6650 P 1030.89 -8.91 -7.81545e-12 0
M  V30 6651 O 1031.11 -10.1726 -0.733694 0
M  V30 6652 O 1031.68 -8.73148 1.23936 0
M  V30 6653 O 1031.14 -7.66872 -0.971405 0
M  V30 6654 C 1030.2 -7.42309 -2.04641 0
M  V30 6655 C 1030.93 -6.86059 -3.24661 0
M  V30 6656 O 1031.14 -5.42847 -3.03646 0
M  V30 6657 C 1032.33 -7.41196 -3.50753 0
M  V30 6658 O 1032.72 -7.27073 -4.86816 0
M  V30 6659 C 1033.21 -6.5273 -2.63741 0
M  V30 6660 C 1032.5 -5.1842 -2.73198 0
M  V30 6661 N 1032.55 -4.38762 -1.4784 0
M  V30 6662 H 1029.71 -8.36803 -2.32493 0
M  V30 6663 H 1029.44 -6.70197 -1.71129 0
M  V30 6664 H 1030.31 -7.03551 -4.13168 0
M  V30 6665 P 1034.27 -7.20834 -5.23717 0
M  V30 6666 O 1034.49 -7.79853 -6.57286 0
M  V30 6667 O 1035.06 -7.79239 -4.12957 0
M  V30 6668 O 1034.52 -5.63315 -5.29344 0
M  V30 6669 C 1033.58 -4.80255 -6.01876 0
M  V30 6670 C 1034.31 -3.64202 -6.65911 0
M  V30 6671 O 1034.52 -2.60694 -5.64732 0
M  V30 6672 C 1035.71 -3.93473 -7.1943 0
M  V30 6673 O 1036.1 -3.02071 -8.21205 0
M  V30 6674 C 1036.59 -3.73047 -5.97036 0
M  V30 6675 C 1035.88 -2.58828 -5.25741 0
M  V30 6676 N 1035.93 -2.68068 -3.77503 0
M  V30 6677 H 1033.09 -5.40332 -6.79951 0
M  V30 6678 H 1032.82 -4.41613 -5.32378 0
M  V30 6679 H 1033.69 -3.26331 -7.47797 0
M  V30 6680 P 1037.65 -2.75334 -8.47391 0
M  V30 6681 O 1037.87 -2.44571 -9.90142 0
M  V30 6682 O 1038.44 -3.87688 -7.92115 0
M  V30 6683 O 1037.9 -1.4459 -7.59357 0
M  V30 6684 C 1036.96 -0.347608 -7.69215 0
M  V30 6685 C 1037.69 0.96767 -7.52806 0
M  V30 6686 O 1037.9 1.21036 -6.1011 0
M  V30 6687 C 1039.09 1.04544 -8.13308 0
M  V30 6688 O 1039.48 2.38311 -8.41922 0
M  V30 6689 C 1039.97 0.491279 -7.02284 0
M  V30 6690 C 1039.26 0.996264 -5.77469 0
M  V30 6691 N 1039.31 0.0501916 -4.62973 0
M  V30 6692 H 1036.47 -0.374722 -8.67691 0
M  V30 6693 H 1036.2 -0.443485 -6.90277 0
M  V30 6694 H 1037.07 1.75537 -7.96793 0
M  V30 6695 P 1041.03 2.75334 -8.47391 0
M  V30 6696 O 1041.25 3.84128 -9.44797 0
M  V30 6697 O 1041.82 1.51947 -8.68712 0
M  V30 6698 O 1041.28 3.29363 -6.99321 0
M  V30 6699 C 1040.34 4.24011 -6.4274 0
M  V30 6700 C 1041.07 5.20775 -5.52155 0
M  V30 6701 O 1041.28 4.56534 -4.22446 0
M  V30 6702 C 1042.47 5.62629 -5.96531 0
M  V30 6703 O 1042.86 6.87667 -5.41053 0
M  V30 6704 C 1043.35 4.52537 -5.39283 0
M  V30 6705 C 1042.64 4.20027 -4.08623 0
M  V30 6706 N 1042.69 2.76189 -3.71603 0
M  V30 6707 H 1039.85 4.797 -7.24003 0
M  V30 6708 H 1039.58 3.69856 -5.84513 0
M  V30 6709 H 1040.45 6.10356 -5.41441 0
M  V30 6710 P 1044.41 7.20834 -5.23717 0
M  V30 6711 O 1044.63 8.66104 -5.38572 0
M  V30 6712 O 1045.2 6.33544 -6.1349 0
M  V30 6713 O 1044.66 6.7751 -3.72168 0
M  V30 6714 C 1043.72 7.20825 -2.7076 0
M  V30 6715 C 1044.45 7.45864 -1.40599 0
M  V30 6716 O 1044.66 6.17651 -0.734225 0
M  V30 6717 C 1045.85 8.05808 -1.51899 0
M  V30 6718 O 1046.24 8.74358 -0.335205 0
M  V30 6719 C 1046.73 6.83093 -1.70294 0
M  V30 6720 C 1046.02 5.79992 -0.836974 0
M  V30 6721 N 1046.07 4.41864 -1.38293 0
M  V30 6722 C 1045.99 3.99538 -2.69438 0
M  V30 6723 N 1046.07 2.69909 -2.84277 0
M  V30 6724 C 1046.21 2.21719 -1.5408 0
M  V30 6725 C 1046.34 0.891712 -1.06628 0
M  V30 6726 O 1046.36 -0.161298 -1.70137 0
M  V30 6727 N 1046.46 0.856846 0.334985 0
M  V30 6728 C 1046.46 1.9641 1.15789 0
M  V30 6729 N 1046.59 1.72708 2.46522 0
M  V30 6730 N 1046.33 3.21165 0.713741 0
M  V30 6731 C 1046.21 3.26797 -0.639748 0
M  V30 6732 H 1043.23 8.13644 -3.0377 0
M  V30 6733 H 1042.96 6.42788 -2.55485 0
M  V30 6734 H 1043.83 8.12039 -0.792769 0
M  V30 6735 H 1046.49 5.80061 0.166416 0
M  V30 6736 H 1046.77 6.51287 -2.75604 0
M  V30 6737 H 1047.76 7.01734 -1.34462 0
M  V30 6738 H 1045.92 8.73674 -2.38337 0
M  V30 6739 H 1045.87 4.68207 -3.53221 0
M  V30 6740 H 1046.56 -0.0398818 0.767965 0
M  V30 6741 H 1046.59 2.50995 3.13503 0
M  V30 6742 H 1046.69 0.759148 2.80716 0
M  V30 6743 P 1047.79 8.91 7.97264e-12 0
M  V30 6744 O 1048.01 10.1726 0.733694 0
M  V30 6745 O 1048.58 8.73148 -1.23936 0
M  V30 6746 O 1048.04 7.66872 0.971405 0
M  V30 6747 C 1047.1 7.42309 2.04641 0
M  V30 6748 C 1047.83 6.86059 3.24661 0
M  V30 6749 O 1048.04 5.42847 3.03646 0
M  V30 6750 C 1049.23 7.41196 3.50753 0
M  V30 6751 O 1049.62 7.27073 4.86816 0
M  V30 6752 C 1050.11 6.5273 2.63741 0
M  V30 6753 C 1049.4 5.1842 2.73198 0
M  V30 6754 N 1049.45 4.38762 1.4784 0
M  V30 6755 H 1046.61 8.36803 2.32493 0
M  V30 6756 H 1046.34 6.70197 1.71129 0
M  V30 6757 H 1047.21 7.03551 4.13168 0
M  V30 6758 P 1051.17 7.20834 5.23717 0
M  V30 6759 O 1051.39 7.79853 6.57286 0
M  V30 6760 O 1051.96 7.79239 4.12957 0
M  V30 6761 O 1051.42 5.63315 5.29344 0
M  V30 6762 C 1050.48 4.80255 6.01876 0
M  V30 6763 C 1051.21 3.64202 6.65911 0
M  V30 6764 O 1051.42 2.60694 5.64732 0
M  V30 6765 C 1052.61 3.93473 7.1943 0
M  V30 6766 O 1053 3.02071 8.21205 0
M  V30 6767 C 1053.49 3.73047 5.97036 0
M  V30 6768 C 1052.78 2.58828 5.25741 0
M  V30 6769 N 1052.83 2.68068 3.77503 0
M  V30 6770 H 1049.99 5.40332 6.79951 0
M  V30 6771 H 1049.72 4.41613 5.32378 0
M  V30 6772 H 1050.59 3.26331 7.47797 0
M  V30 6773 P 1054.55 2.75334 8.47391 0
M  V30 6774 O 1054.77 2.44595 9.90239 0
M  V30 6775 O 1055.34 3.87732 7.92204 0
M  V30 6776 O 1054.8 1.4459 7.59357 0
M  V30 6777 C 1053.86 0.347563 7.69115 0
M  V30 6778 C 1054.59 -0.96767 7.52806 0
M  V30 6779 O 1054.8 -1.21036 6.1011 0
M  V30 6780 C 1055.99 -1.04544 8.13308 0
M  V30 6781 O 1056.38 -2.38311 8.41922 0
M  V30 6782 C 1056.87 -0.491279 7.02284 0
M  V30 6783 C 1056.16 -0.996264 5.77469 0
M  V30 6784 N 1056.21 -0.0501808 4.62873 0
M  V30 6785 C 1056.36 -0.588177 3.36904 0
M  V30 6786 O 1056.45 -1.78598 3.17173 0
M  V30 6787 N 1056.4 0.329694 2.33686 0
M  V30 6788 C 1056.31 1.6953 2.45079 0
M  V30 6789 O 1056.36 2.41926 1.44899 0
M  V30 6790 C 1056.16 2.16933 3.80505 0
M  V30 6791 C 1056.05 3.65373 3.97621 0
M  V30 6792 C 1056.11 1.30326 4.83752 0
M  V30 6793 H 1053.37 0.374722 8.67691 0
M  V30 6794 H 1053.1 0.443421 6.90177 0
M  V30 6795 H 1053.97 -1.75537 7.96793 0
M  V30 6796 H 1056.63 -1.94496 5.46629 0
M  V30 6797 H 1056.91 0.608651 7.04676 0
M  V30 6798 H 1057.9 -0.889672 7.08939 0
M  V30 6799 H 1056.06 -0.43308 9.04564 0
M  V30 6800 H 1055.99 1.68366 5.8516 0
M  V30 6801 H 1057.02 4.05985 4.30448 0
M  V30 6802 H 1055.29 3.88028 4.72875 0
M  V30 6803 H 1055.77 4.11381 3.01609 0
M  V30 6804 H 1056.51 -0.0393617 1.41345 0
M  V30 6805 P 1057.93 -2.75334 8.47391 0
M  V30 6806 O 1058.15 -3.84128 9.44797 0
M  V30 6807 O 1058.72 -1.51947 8.68712 0
M  V30 6808 O 1058.18 -3.29363 6.99321 0
M  V30 6809 C 1057.24 -4.24011 6.4274 0
M  V30 6810 C 1057.97 -5.20775 5.52155 0
M  V30 6811 O 1058.18 -4.56534 4.22446 0
M  V30 6812 C 1059.37 -5.62629 5.96531 0
M  V30 6813 O 1059.76 -6.87667 5.41053 0
M  V30 6814 C 1060.25 -4.52537 5.39283 0
M  V30 6815 C 1059.54 -4.20027 4.08623 0
M  V30 6816 N 1059.59 -2.76189 3.71603 0
M  V30 6817 H 1056.75 -4.797 7.24003 0
M  V30 6818 H 1056.48 -3.69856 5.84513 0
M  V30 6819 H 1057.35 -6.10356 5.41441 0
M  V30 6820 P 1061.31 -7.20834 5.23717 0
M  V30 6821 O 1061.53 -8.66104 5.38572 0
M  V30 6822 O 1062.1 -6.33544 6.1349 0
M  V30 6823 O 1061.56 -6.7751 3.72168 0
M  V30 6824 C 1060.62 -7.20825 2.7076 0
M  V30 6825 C 1061.35 -7.45864 1.40599 0
M  V30 6826 O 1061.56 -6.17651 0.734225 0
M  V30 6827 C 1062.75 -8.05808 1.51899 0
M  V30 6828 O 1063.14 -8.74358 0.335205 0
M  V30 6829 C 1063.63 -6.83093 1.70294 0
M  V30 6830 C 1062.92 -5.79992 0.836974 0
M  V30 6831 N 1062.97 -4.41864 1.38293 0
M  V30 6832 C 1062.89 -3.99538 2.69438 0
M  V30 6833 N 1062.97 -2.69909 2.84277 0
M  V30 6834 C 1063.11 -2.21719 1.5408 0
M  V30 6835 C 1063.24 -0.891712 1.06628 0
M  V30 6836 O 1063.26 0.161298 1.70137 0
M  V30 6837 N 1063.36 -0.856846 -0.334985 0
M  V30 6838 C 1063.36 -1.9641 -1.15789 0
M  V30 6839 N 1063.49 -1.72708 -2.46522 0
M  V30 6840 N 1063.23 -3.21165 -0.713741 0
M  V30 6841 C 1063.11 -3.26797 0.639748 0
M  V30 6842 H 1060.13 -8.13644 3.0377 0
M  V30 6843 H 1059.86 -6.42788 2.55485 0
M  V30 6844 H 1060.73 -8.12039 0.792769 0
M  V30 6845 H 1063.39 -5.80061 -0.166416 0
M  V30 6846 H 1063.67 -6.51287 2.75604 0
M  V30 6847 H 1064.66 -7.01734 1.34462 0
M  V30 6848 H 1062.82 -8.73674 2.38337 0
M  V30 6849 H 1062.77 -4.68207 3.53221 0
M  V30 6850 H 1063.46 0.0398818 -0.767965 0
M  V30 6851 H 1063.49 -2.50995 -3.13503 0
M  V30 6852 H 1063.59 -0.759148 -2.80716 0
M  V30 6853 P 1064.69 -8.91 -8.12982e-12 0
M  V30 6854 O 1064.91 -10.1746 -0.733838 0
M  V30 6855 O 1065.48 -8.73346 1.23964 0
M  V30 6856 O 1064.94 -7.66872 -0.971405 0
M  V30 6857 C 1064 -7.42405 -2.04668 0
M  V30 6858 C 1064.73 -6.86059 -3.24661 0
M  V30 6859 O 1064.94 -5.42934 -3.03695 0
M  V30 6860 C 1066.13 -7.41287 -3.50796 0
M  V30 6861 O 1066.52 -7.27073 -4.86816 0
M  V30 6862 C 1067.01 -6.5273 -2.63741 0
M  V30 6863 C 1066.3 -5.1842 -2.73198 0
M  V30 6864 N 1066.35 -4.38762 -1.4784 0
M  V30 6865 H 1063.52 -8.36899 -2.3252 0
M  V30 6866 H 1063.24 -6.70391 -1.71179 0
M  V30 6867 H 1064.11 -7.03638 -4.13219 0
M  V30 6868 H 1066.77 -4.59931 -3.54016 0
M  V30 6869 H 1067.05 -6.88995 -1.59871 0
M  V30 6870 H 1068.04 -6.4684 -3.0373 0
M  V30 6871 H 1066.2 -8.47002 -3.20749 0
M  V30 6872 P 1068.07 -7.20834 -5.23717 0
M  V30 6873 O 1068.29 -7.7993 -6.57351 0
M  V30 6874 O 1068.86 -7.79328 -4.13004 0
M  V30 6875 O 1068.32 -5.63315 -5.29344 0
M  V30 6876 C 1067.38 -4.80193 -6.01798 0
M  V30 6877 C 1068.11 -3.64202 -6.65911 0
M  V30 6878 O 1068.32 -2.60694 -5.64732 0
M  V30 6879 C 1069.51 -3.93473 -7.1943 0
M  V30 6880 O 1069.9 -3.02071 -8.21205 0
M  V30 6881 C 1070.39 -3.73047 -5.97036 0
M  V30 6882 C 1069.68 -2.58828 -5.25741 0
M  V30 6883 N 1069.73 -2.6801 -3.77422 0
M  V30 6884 C 1069.88 -1.50443 -3.07133 0
M  V30 6885 O 1069.97 -0.419406 -3.61576 0
M  V30 6886 N 1069.92 -1.6403 -1.69677 0
M  V30 6887 C 1069.83 -2.81206 -0.986255 0
M  V30 6888 C 1069.68 -3.99158 -1.80325 0
M  V30 6889 C 1069.63 -3.89779 -3.1476 0
M  V30 6890 H 1066.89 -5.40332 -6.79951 0
M  V30 6891 H 1066.62 -4.41549 -5.32301 0
M  V30 6892 H 1067.49 -3.26331 -7.47797 0
M  V30 6893 H 1070.15 -1.6395 -5.56554 0
M  V30 6894 H 1070.43 -4.63439 -5.3432 0
M  V30 6895 H 1071.42 -3.44728 -6.25838 0
M  V30 6896 H 1069.58 -4.96652 -7.57263 0
M  V30 6897 H 1069.51 -4.80159 -3.74441 0
M  V30 6898 P 1071.45 -2.75334 -8.47391 0
M  V30 6899 O 1071.67 -2.44571 -9.90142 0
M  V30 6900 O 1072.24 -3.87688 -7.92115 0
M  V30 6901 O 1071.7 -1.4459 -7.59357 0
M  V30 6902 C 1070.76 -0.347608 -7.69215 0
M  V30 6903 C 1071.49 0.96767 -7.52806 0
M  V30 6904 O 1071.7 1.21036 -6.1011 0
M  V30 6905 C 1072.89 1.04544 -8.13308 0
M  V30 6906 O 1073.28 2.38311 -8.41922 0
M  V30 6907 C 1073.77 0.491279 -7.02284 0
M  V30 6908 C 1073.06 0.996264 -5.77469 0
M  V30 6909 N 1073.11 0.0501916 -4.62973 0
M  V30 6910 C 1073.03 -1.32786 -4.63244 0
M  V30 6911 N 1073.11 -1.86957 -3.44545 0
M  V30 6912 C 1073.25 -0.780241 -2.58481 0
M  V30 6913 C 1073.38 -0.738536 -1.17757 0
M  V30 6914 N 1073.5 0.58337 -0.711393 0
M  V30 6915 C 1073.5 1.70816 -1.51017 0
M  V30 6916 N 1073.63 2.87826 -0.880757 0
M  V30 6917 N 1073.37 1.67126 -2.8339 0
M  V30 6918 C 1073.25 0.401421 -3.30572 0
M  V30 6919 H 1070.27 -0.374722 -8.67691 0
M  V30 6920 H 1070 -0.443485 -6.90277 0
M  V30 6921 H 1070.87 1.75537 -7.96793 0
M  V30 6922 P 1074.83 2.75334 -8.47391 0
M  V30 6923 O 1075.05 3.84128 -9.44797 0
M  V30 6924 O 1075.62 1.51947 -8.68712 0
M  V30 6925 O 1075.08 3.29363 -6.99321 0
M  V30 6926 C 1074.14 4.24011 -6.4274 0
M  V30 6927 C 1074.87 5.20775 -5.52155 0
M  V30 6928 O 1075.08 4.56534 -4.22446 0
M  V30 6929 C 1076.27 5.62629 -5.96531 0
M  V30 6930 O 1076.66 6.87667 -5.41053 0
M  V30 6931 C 1077.15 4.52537 -5.39283 0
M  V30 6932 C 1076.44 4.20027 -4.08623 0
M  V30 6933 N 1076.49 2.76189 -3.71603 0
M  V30 6934 H 1073.65 4.797 -7.24003 0
M  V30 6935 H 1073.38 3.69856 -5.84513 0
M  V30 6936 H 1074.25 6.10356 -5.41441 0
M  V30 6937 P 1078.21 7.20834 -5.23717 0
M  V30 6938 O 1078.43 8.66104 -5.38572 0
M  V30 6939 O 1079 6.33544 -6.1349 0
M  V30 6940 O 1078.46 6.7751 -3.72168 0
M  V30 6941 C 1077.52 7.20825 -2.7076 0
M  V30 6942 C 1078.25 7.45864 -1.40599 0
M  V30 6943 O 1078.46 6.17651 -0.734225 0
M  V30 6944 C 1079.65 8.05808 -1.51899 0
M  V30 6945 O 1080.04 8.74358 -0.335205 0
M  V30 6946 C 1080.53 6.83093 -1.70294 0
M  V30 6947 C 1079.82 5.79992 -0.836974 0
M  V30 6948 N 1079.87 4.41864 -1.38293 0
M  V30 6949 H 1077.03 8.13644 -3.0377 0
M  V30 6950 H 1076.76 6.42788 -2.55485 0
M  V30 6951 H 1077.63 8.12039 -0.792769 0
M  V30 6952 P 1081.59 8.91 8.287e-12 0
M  V30 6953 O 1081.81 10.1726 0.733694 0
M  V30 6954 O 1082.38 8.73148 -1.23936 0
M  V30 6955 O 1081.84 7.66872 0.971405 0
M  V30 6956 C 1080.9 7.42309 2.04641 0
M  V30 6957 C 1081.63 6.86059 3.24661 0
M  V30 6958 O 1081.84 5.42847 3.03646 0
M  V30 6959 C 1083.03 7.41196 3.50753 0
M  V30 6960 O 1083.42 7.27073 4.86816 0
M  V30 6961 C 1083.91 6.5273 2.63741 0
M  V30 6962 C 1083.2 5.1842 2.73198 0
M  V30 6963 N 1083.25 4.38762 1.4784 0
M  V30 6964 H 1080.41 8.36803 2.32493 0
M  V30 6965 H 1080.14 6.70197 1.71129 0
M  V30 6966 H 1081.01 7.03551 4.13168 0
M  V30 6967 P 1084.97 7.20834 5.23717 0
M  V30 6968 O 1085.19 7.79853 6.57286 0
M  V30 6969 O 1085.76 7.79239 4.12957 0
M  V30 6970 O 1085.22 5.63315 5.29344 0
M  V30 6971 C 1084.28 4.80255 6.01876 0
M  V30 6972 C 1085.01 3.64202 6.65911 0
M  V30 6973 O 1085.22 2.60694 5.64732 0
M  V30 6974 C 1086.41 3.93473 7.1943 0
M  V30 6975 O 1086.8 3.02071 8.21205 0
M  V30 6976 C 1087.29 3.73047 5.97036 0
M  V30 6977 C 1086.58 2.58828 5.25741 0
M  V30 6978 N 1086.63 2.68068 3.77503 0
M  V30 6979 C 1086.55 3.79715 2.96723 0
M  V30 6980 N 1086.63 3.5377 1.68852 0
M  V30 6981 C 1086.77 2.15054 1.63254 0
M  V30 6982 C 1086.9 1.28964 0.518571 0
M  V30 6983 O 1086.92 1.56826 -0.679156 0
M  V30 6984 N 1087.02 -0.0538097 0.918425 0
M  V30 6985 C 1087.02 -0.494275 2.22578 0
M  V30 6986 N 1087.15 -1.81086 2.40434 0
M  V30 6987 N 1086.89 0.313645 3.27502 0
M  V30 6988 C 1086.77 1.61829 2.91033 0
M  V30 6989 H 1083.79 5.40332 6.79951 0
M  V30 6990 H 1083.52 4.41613 5.32378 0
M  V30 6991 H 1084.39 3.26331 7.47797 0
M  V30 6992 H 1087.05 1.63422 5.56814 0
M  V30 6993 H 1087.33 4.63374 5.34244 0
M  V30 6994 H 1088.32 3.44728 6.25838 0
M  V30 6995 H 1086.48 4.96652 7.57263 0
M  V30 6996 H 1086.43 4.80617 3.3614 0
M  V30 6997 H 1087.12 -0.742702 0.199384 0
M  V30 6998 H 1087.15 -2.20598 3.35588 0
M  V30 6999 H 1087.25 -2.43518 1.58945 0
M  V30 7000 P 1088.35 2.75334 8.47391 0
M  V30 7001 O 1088.57 2.44571 9.90142 0
M  V30 7002 O 1089.14 3.87688 7.92115 0
M  V30 7003 O 1088.6 1.4459 7.59357 0
M  V30 7004 C 1087.66 0.347608 7.69215 0
M  V30 7005 C 1088.39 -0.96767 7.52806 0
M  V30 7006 O 1088.6 -1.21036 6.1011 0
M  V30 7007 C 1089.79 -1.04544 8.13308 0
M  V30 7008 O 1090.18 -2.38311 8.41922 0
M  V30 7009 C 1090.67 -0.491279 7.02284 0
M  V30 7010 C 1089.96 -0.996264 5.77469 0
M  V30 7011 N 1090.01 -0.0501916 4.62973 0
M  V30 7012 C 1089.93 1.32786 4.63244 0
M  V30 7013 N 1090.01 1.86957 3.44545 0
M  V30 7014 C 1090.15 0.780241 2.58481 0
M  V30 7015 C 1090.28 0.738536 1.17757 0
M  V30 7016 N 1090.4 -0.58337 0.711393 0
M  V30 7017 C 1090.4 -1.70816 1.51017 0
M  V30 7018 N 1090.53 -2.87826 0.880757 0
M  V30 7019 N 1090.27 -1.67126 2.8339 0
M  V30 7020 C 1090.15 -0.401421 3.30572 0
M  V30 7021 H 1087.17 0.374722 8.67691 0
M  V30 7022 H 1086.9 0.443485 6.90277 0
M  V30 7023 H 1087.77 -1.75537 7.96793 0
M  V30 7024 P 1091.73 -2.75334 8.47391 0
M  V30 7025 O 1091.95 -3.84128 9.44797 0
M  V30 7026 O 1092.52 -1.51947 8.68712 0
M  V30 7027 O 1091.98 -3.29363 6.99321 0
M  V30 7028 C 1091.04 -4.24011 6.4274 0
M  V30 7029 C 1091.77 -5.20775 5.52155 0
M  V30 7030 O 1091.98 -4.56534 4.22446 0
M  V30 7031 C 1093.17 -5.62629 5.96531 0
M  V30 7032 O 1093.56 -6.87667 5.41053 0
M  V30 7033 C 1094.05 -4.52537 5.39283 0
M  V30 7034 C 1093.34 -4.20027 4.08623 0
M  V30 7035 N 1093.39 -2.76189 3.71603 0
M  V30 7036 C 1093.31 -1.64862 4.52822 0
M  V30 7037 N 1093.39 -0.512671 3.88633 0
M  V30 7038 C 1093.53 -0.888083 2.54977 0
M  V30 7039 C 1093.66 -0.094668 1.38677 0
M  V30 7040 O 1093.68 1.13053 1.28163 0
M  V30 7041 N 1093.78 -0.890102 0.232633 0
M  V30 7042 C 1093.78 -2.26958 0.21772 0
M  V30 7043 N 1093.91 -2.84626 -0.97925 0
M  V30 7044 N 1093.65 -3.0178 1.31033 0
M  V30 7045 C 1093.53 -2.26781 2.43843 0
M  V30 7046 H 1090.55 -4.797 7.24003 0
M  V30 7047 H 1090.28 -3.69856 5.84513 0
M  V30 7048 H 1091.15 -6.10356 5.41441 0
M  V30 7049 H 1093.81 -4.79061 3.27488 0
M  V30 7050 H 1094.09 -3.64906 6.05785 0
M  V30 7051 H 1095.08 -4.8868 5.2125 0
M  V30 7052 H 1093.24 -5.66726 7.06352 0
M  V30 7053 H 1093.19 -1.71169 5.60966 0
M  V30 7054 H 1093.88 -0.419134 -0.644739 0
M  V30 7055 H 1093.91 -3.87332 -1.06098 0
M  V30 7056 H 1094.01 -2.26417 -1.82483 0
M  V30 7057 P 1095.11 -7.20834 5.23717 0
M  V30 7058 O 1095.33 -8.66104 5.38572 0
M  V30 7059 O 1095.9 -6.33544 6.1349 0
M  V30 7060 O 1095.36 -6.7751 3.72168 0
M  V30 7061 C 1094.42 -7.20825 2.7076 0
M  V30 7062 C 1095.15 -7.45864 1.40599 0
M  V30 7063 O 1095.36 -6.17651 0.734225 0
M  V30 7064 C 1096.55 -8.05808 1.51899 0
M  V30 7065 O 1096.94 -8.74358 0.335205 0
M  V30 7066 C 1097.43 -6.83093 1.70294 0
M  V30 7067 C 1096.72 -5.79992 0.836974 0
M  V30 7068 N 1096.77 -4.41864 1.38293 0
M  V30 7069 H 1093.93 -8.13644 3.0377 0
M  V30 7070 H 1093.66 -6.42788 2.55485 0
M  V30 7071 H 1094.53 -8.12039 0.792769 0
M  V30 7072 P 1098.49 -8.91 -8.44418e-12 0
M  V30 7073 O 1098.71 -10.1746 -0.733838 0
M  V30 7074 O 1099.28 -8.73346 1.23964 0
M  V30 7075 O 1098.74 -7.66872 -0.971405 0
M  V30 7076 C 1097.8 -7.42405 -2.04668 0
M  V30 7077 C 1098.53 -6.86059 -3.24661 0
M  V30 7078 O 1098.74 -5.42934 -3.03695 0
M  V30 7079 C 1099.93 -7.41287 -3.50796 0
M  V30 7080 O 1100.32 -7.27073 -4.86816 0
M  V30 7081 C 1100.81 -6.5273 -2.63741 0
M  V30 7082 C 1100.1 -5.1842 -2.73198 0
M  V30 7083 N 1100.15 -4.38762 -1.4784 0
M  V30 7084 C 1100.07 -4.83651 -0.183876 0
M  V30 7085 N 1100.14 -3.88759 0.699393 0
M  V30 7086 C 1100.29 -2.7404 -0.0575568 0
M  V30 7087 C 1100.42 -1.37902 0.293928 0
M  V30 7088 N 1100.43 -0.938021 1.54797 0
M  V30 7089 N 1100.54 -0.491817 -0.70549 0
M  V30 7090 C 1100.53 -0.931735 -1.95979 0
M  V30 7091 N 1100.41 -2.16017 -2.41481 0
M  V30 7092 C 1100.29 -3.02547 -1.39121 0
M  V30 7093 H 1097.32 -8.36899 -2.3252 0
M  V30 7094 H 1097.04 -6.70391 -1.71179 0
M  V30 7095 H 1097.91 -7.03638 -4.13219 0
M  V30 7096 H 1100.57 -4.59931 -3.54016 0
M  V30 7097 H 1100.85 -6.88995 -1.59871 0
M  V30 7098 H 1101.84 -6.4684 -3.0373 0
M  V30 7099 H 1100 -8.47002 -3.20749 0
M  V30 7100 H 1099.96 -5.8885 0.0765548 0
M  V30 7101 H 1100.34 -1.60276 2.32875 0
M  V30 7102 H 1100.53 0.0699355 1.73859 0
M  V30 7103 H 1100.64 -0.165507 -2.71897 0
M  V30 7104 P 1101.87 -7.20834 -5.23717 0
M  V30 7105 O 1102.09 -7.79853 -6.57286 0
M  V30 7106 O 1102.66 -7.79239 -4.12957 0
M  V30 7107 O 1102.12 -5.63315 -5.29344 0
M  V30 7108 C 1101.18 -4.80255 -6.01876 0
M  V30 7109 C 1101.91 -3.64202 -6.65911 0
M  V30 7110 O 1102.12 -2.60694 -5.64732 0
M  V30 7111 C 1103.31 -3.93473 -7.1943 0
M  V30 7112 O 1103.7 -3.02071 -8.21205 0
M  V30 7113 C 1104.19 -3.73047 -5.97036 0
M  V30 7114 C 1103.48 -2.58828 -5.25741 0
M  V30 7115 N 1103.53 -2.68068 -3.77503 0
M  V30 7116 H 1100.69 -5.40332 -6.79951 0
M  V30 7117 H 1100.42 -4.41613 -5.32378 0
M  V30 7118 H 1101.29 -3.26331 -7.47797 0
M  V30 7119 P 1105.25 -2.75334 -8.47391 0
M  V30 7120 O 1105.47 -2.44619 -9.90336 0
M  V30 7121 O 1106.04 -3.87776 -7.92294 0
M  V30 7122 O 1105.5 -1.4459 -7.59357 0
M  V30 7123 C 1104.56 -0.347653 -7.69315 0
M  V30 7124 C 1105.29 0.96767 -7.52806 0
M  V30 7125 O 1105.5 1.21055 -6.10208 0
M  V30 7126 C 1106.69 1.04557 -8.13408 0
M  V30 7127 O 1107.08 2.38311 -8.41922 0
M  V30 7128 C 1107.57 0.491279 -7.02284 0
M  V30 7129 C 1106.86 0.996264 -5.77469 0
M  V30 7130 N 1106.91 0.0501916 -4.62973 0
M  V30 7131 C 1106.83 -1.31969 -4.65661 0
M  V30 7132 N 1106.9 -1.86649 -3.48119 0
M  V30 7133 C 1107.05 -0.792089 -2.62406 0
M  V30 7134 C 1107.18 -0.705684 -1.2207 0
M  V30 7135 N 1107.19 -1.76207 -0.413762 0
M  V30 7136 N 1107.3 0.518981 -0.685754 0
M  V30 7137 C 1107.29 1.57595 -1.49174 0
M  V30 7138 N 1107.17 1.62909 -2.80066 0
M  V30 7139 C 1107.05 0.388195 -3.3073 0
M  V30 7140 H 1104.08 -0.374765 -8.67791 0
M  V30 7141 H 1103.8 -0.443613 -6.90476 0
M  V30 7142 H 1104.67 1.75559 -7.96891 0
M  V30 7143 H 1107.33 1.94563 -5.46818 0
M  V30 7144 H 1107.61 -0.608651 -7.04676 0
M  V30 7145 H 1108.6 0.889796 -7.09039 0
M  V30 7146 H 1106.76 0.433128 -9.04664 0
M  V30 7147 H 1106.72 -1.89246 -5.57664 0
M  V30 7148 H 1107.1 -2.71005 -0.804694 0
M  V30 7149 H 1107.29 -1.63189 0.603768 0
M  V30 7150 H 1107.4 2.53475 -0.997614 0
M  V30 7151 P 1108.63 2.75334 -8.47391 0
M  V30 7152 O 1108.85 3.84128 -9.44797 0
M  V30 7153 O 1109.42 1.51947 -8.68712 0
M  V30 7154 O 1108.88 3.29363 -6.99321 0
M  V30 7155 C 1107.94 4.24011 -6.4274 0
M  V30 7156 C 1108.67 5.20775 -5.52155 0
M  V30 7157 O 1108.88 4.56534 -4.22446 0
M  V30 7158 C 1110.07 5.62629 -5.96531 0
M  V30 7159 O 1110.46 6.87667 -5.41053 0
M  V30 7160 C 1110.95 4.52537 -5.39283 0
M  V30 7161 C 1110.24 4.20027 -4.08623 0
M  V30 7162 N 1110.29 2.76189 -3.71603 0
M  V30 7163 H 1107.45 4.797 -7.24003 0
M  V30 7164 H 1107.18 3.69856 -5.84513 0
M  V30 7165 H 1108.05 6.10356 -5.41441 0
M  V30 7166 P 1112.01 7.20834 -5.23717 0
M  V30 7167 O 1112.23 8.66104 -5.38572 0
M  V30 7168 O 1112.8 6.33544 -6.1349 0
M  V30 7169 O 1112.26 6.7751 -3.72168 0
M  V30 7170 C 1111.32 7.20825 -2.7076 0
M  V30 7171 C 1112.05 7.45864 -1.40599 0
M  V30 7172 O 1112.26 6.17651 -0.734225 0
M  V30 7173 C 1113.45 8.05808 -1.51899 0
M  V30 7174 O 1113.84 8.74358 -0.335205 0
M  V30 7175 C 1114.33 6.83093 -1.70294 0
M  V30 7176 C 1113.62 5.79992 -0.836974 0
M  V30 7177 N 1113.67 4.41864 -1.38293 0
M  V30 7178 H 1110.83 8.13644 -3.0377 0
M  V30 7179 H 1110.56 6.42788 -2.55485 0
M  V30 7180 H 1111.43 8.12039 -0.792769 0
M  V30 7181 P 1115.39 8.91 8.60137e-12 0
M  V30 7182 O 1115.61 10.1726 0.733694 0
M  V30 7183 O 1116.18 8.73148 -1.23936 0
M  V30 7184 O 1115.64 7.66872 0.971405 0
M  V30 7185 C 1114.7 7.42309 2.04641 0
M  V30 7186 C 1115.43 6.86059 3.24661 0
M  V30 7187 O 1115.64 5.42847 3.03646 0
M  V30 7188 C 1116.83 7.41196 3.50753 0
M  V30 7189 O 1117.22 7.27073 4.86816 0
M  V30 7190 C 1117.71 6.5273 2.63741 0
M  V30 7191 C 1117 5.1842 2.73198 0
M  V30 7192 N 1117.05 4.38762 1.4784 0
M  V30 7193 C 1116.97 4.81605 0.168631 0
M  V30 7194 N 1117.05 3.85454 -0.713363 0
M  V30 7195 C 1117.19 2.6994 0.0566958 0
M  V30 7196 C 1117.32 1.34815 -0.338502 0
M  V30 7197 N 1117.44 0.496304 0.77465 0
M  V30 7198 C 1117.44 0.908403 2.09122 0
M  V30 7199 N 1117.57 -0.0517805 3.00955 0
M  V30 7200 N 1117.31 2.17875 2.46519 0
M  V30 7201 C 1117.19 3.01988 1.4033 0
M  V30 7202 H 1114.21 8.36803 2.32493 0
M  V30 7203 H 1113.94 6.70197 1.71129 0
M  V30 7204 H 1114.81 7.03551 4.13168 0
M  V30 7205 P 1118.77 7.20834 5.23717 0
M  V30 7206 O 1118.99 7.79853 6.57286 0
M  V30 7207 O 1119.56 7.79239 4.12957 0
M  V30 7208 O 1119.02 5.63315 5.29344 0
M  V30 7209 C 1118.08 4.80255 6.01876 0
M  V30 7210 C 1118.81 3.64202 6.65911 0
M  V30 7211 O 1119.02 2.60694 5.64732 0
M  V30 7212 C 1120.21 3.93473 7.1943 0
M  V30 7213 O 1120.6 3.02071 8.21205 0
M  V30 7214 C 1121.09 3.73047 5.97036 0
M  V30 7215 C 1120.38 2.58828 5.25741 0
M  V30 7216 N 1120.43 2.68068 3.77503 0
M  V30 7217 H 1117.59 5.40332 6.79951 0
M  V30 7218 H 1117.32 4.41613 5.32378 0
M  V30 7219 H 1118.19 3.26331 7.47797 0
M  V30 7220 P 1122.15 2.75334 8.47391 0
M  V30 7221 O 1122.37 2.44571 9.90142 0
M  V30 7222 O 1122.94 3.87688 7.92115 0
M  V30 7223 O 1122.4 1.4459 7.59357 0
M  V30 7224 C 1121.46 0.347608 7.69215 0
M  V30 7225 C 1122.19 -0.96767 7.52806 0
M  V30 7226 O 1122.4 -1.21036 6.1011 0
M  V30 7227 C 1123.59 -1.04544 8.13308 0
M  V30 7228 O 1123.98 -2.38311 8.41922 0
M  V30 7229 C 1124.47 -0.491279 7.02284 0
M  V30 7230 C 1123.76 -0.996264 5.77469 0
M  V30 7231 N 1123.81 -0.0501916 4.62973 0
M  V30 7232 H 1120.97 0.374722 8.67691 0
M  V30 7233 H 1120.7 0.443485 6.90277 0
M  V30 7234 H 1121.57 -1.75537 7.96793 0
M  V30 7235 P 1125.53 -2.75334 8.47391 0
M  V30 7236 O 1125.75 -3.84166 9.4489 0
M  V30 7237 O 1126.32 -1.51964 8.6881 0
M  V30 7238 O 1125.78 -3.29363 6.99321 0
M  V30 7239 C 1124.84 -4.23956 6.42656 0
M  V30 7240 C 1125.57 -5.20775 5.52155 0
M  V30 7241 O 1125.78 -4.56534 4.22446 0
M  V30 7242 C 1126.97 -5.62629 5.96531 0
M  V30 7243 O 1127.36 -6.87667 5.41053 0
M  V30 7244 C 1127.85 -4.52537 5.39283 0
M  V30 7245 C 1127.14 -4.20027 4.08623 0
M  V30 7246 N 1127.19 -2.7613 3.71522 0
M  V30 7247 C 1127.34 -2.45612 2.37989 0
M  V30 7248 O 1127.43 -3.30919 1.51621 0
M  V30 7249 N 1127.38 -1.10684 2.08435 0
M  V30 7250 C 1127.29 -0.0690084 2.9792 0
M  V30 7251 O 1127.34 1.10553 2.59426 0
M  V30 7252 C 1127.14 -0.481522 4.35345 0
M  V30 7253 C 1127.03 0.618778 5.36443 0
M  V30 7254 C 1127.09 -1.78906 4.67968 0
M  V30 7255 H 1124.35 -4.797 7.24003 0
M  V30 7256 H 1124.08 -3.69802 5.84429 0
M  V30 7257 H 1124.95 -6.10356 5.41441 0
M  V30 7258 H 1127.61 -4.78651 3.27911 0
M  V30 7259 H 1127.89 -3.64957 6.05871 0
M  V30 7260 H 1128.88 -4.8868 5.2125 0
M  V30 7261 H 1127.04 -5.66726 7.06352 0
M  V30 7262 H 1126.97 -2.07737 5.72367 0
M  V30 7263 H 1128 0.754375 5.86871 0
M  V30 7264 H 1126.27 0.359721 6.10641 0
M  V30 7265 H 1126.75 1.55533 4.8581 0
M  V30 7266 H 1127.49 -0.862651 1.12037 0
M  V30 7267 P 1128.91 -7.20834 5.23717 0
M  V30 7268 O 1129.13 -8.66274 5.38678 0
M  V30 7269 O 1129.7 -6.33687 6.13629 0
M  V30 7270 O 1129.16 -6.7751 3.72168 0
M  V30 7271 C 1128.22 -7.20919 2.70795 0
M  V30 7272 C 1128.95 -7.45864 1.40599 0
M  V30 7273 O 1129.16 -6.17751 0.734343 0
M  V30 7274 C 1130.35 -8.05906 1.51917 0
M  V30 7275 O 1130.74 -8.74358 0.335205 0
M  V30 7276 C 1131.23 -6.83093 1.70294 0
M  V30 7277 C 1130.52 -5.79992 0.836974 0
M  V30 7278 N 1130.57 -4.41864 1.38293 0
M  V30 7279 C 1130.49 -4.02089 2.69407 0
M  V30 7280 N 1130.56 -2.73403 2.85089 0
M  V30 7281 C 1130.71 -2.25086 1.5642 0
M  V30 7282 C 1130.84 -0.942887 1.04836 0
M  V30 7283 N 1130.85 0.150999 1.80369 0
M  V30 7284 N 1130.96 -0.812565 -0.28167 0
M  V30 7285 C 1130.95 -1.90572 -1.03784 0
M  V30 7286 N 1130.83 -3.167 -0.683905 0
M  V30 7287 C 1130.71 -3.26538 0.652815 0
M  V30 7288 H 1127.74 -8.13738 3.03804 0
M  V30 7289 H 1127.46 -6.42974 2.55559 0
M  V30 7290 H 1128.33 -8.12139 0.792866 0
M  V30 7291 H 1130.99 -5.80178 -0.160643 0
M  V30 7292 H 1131.27 -6.51379 2.75643 0
M  V30 7293 H 1132.26 -7.01832 1.3448 0
M  V30 7294 H 1130.42 -8.73771 2.38364 0
M  V30 7295 H 1130.38 -4.7189 3.52311 0
M  V30 7296 H 1130.76 0.0721434 2.82608 0
M  V30 7297 H 1130.95 1.0785 1.36544 0
M  V30 7298 H 1131.06 -1.73207 -2.10241 0
M  V30 7299 P 1132.29 -8.91 -8.75855e-12 0
M  V30 7300 O 1132.51 -10.1726 -0.733694 0
M  V30 7301 O 1133.08 -8.73148 1.23936 0
M  V30 7302 O 1132.54 -7.66872 -0.971405 0
M  V30 7303 C 1131.6 -7.42309 -2.04641 0
M  V30 7304 C 1132.33 -6.86059 -3.24661 0
M  V30 7305 O 1132.54 -5.42847 -3.03646 0
M  V30 7306 C 1133.73 -7.41196 -3.50753 0
M  V30 7307 O 1134.12 -7.27073 -4.86816 0
M  V30 7308 C 1134.61 -6.5273 -2.63741 0
M  V30 7309 C 1133.9 -5.1842 -2.73198 0
M  V30 7310 N 1133.95 -4.38762 -1.4784 0
M  V30 7311 H 1131.11 -8.36803 -2.32493 0
M  V30 7312 H 1130.84 -6.70197 -1.71129 0
M  V30 7313 H 1131.71 -7.03551 -4.13168 0
M  V30 7314 P 1135.67 -7.20834 -5.23717 0
M  V30 7315 O 1135.89 -7.79853 -6.57286 0
M  V30 7316 O 1136.46 -7.79239 -4.12957 0
M  V30 7317 O 1135.92 -5.63315 -5.29344 0
M  V30 7318 C 1134.98 -4.80255 -6.01876 0
M  V30 7319 C 1135.71 -3.64202 -6.65911 0
M  V30 7320 O 1135.92 -2.60694 -5.64732 0
M  V30 7321 C 1137.11 -3.93473 -7.1943 0
M  V30 7322 O 1137.5 -3.02071 -8.21205 0
M  V30 7323 C 1137.99 -3.73047 -5.97036 0
M  V30 7324 C 1137.28 -2.58828 -5.25741 0
M  V30 7325 N 1137.33 -2.68068 -3.77503 0
M  V30 7326 C 1137.25 -3.79715 -2.96723 0
M  V30 7327 N 1137.33 -3.5377 -1.68852 0
M  V30 7328 C 1137.47 -2.15054 -1.63254 0
M  V30 7329 C 1137.6 -1.28964 -0.518571 0
M  V30 7330 O 1137.62 -1.56826 0.679156 0
M  V30 7331 N 1137.72 0.0538097 -0.918425 0
M  V30 7332 C 1137.72 0.494275 -2.22578 0
M  V30 7333 N 1137.85 1.81086 -2.40434 0
M  V30 7334 N 1137.59 -0.313645 -3.27502 0
M  V30 7335 C 1137.47 -1.61829 -2.91033 0
M  V30 7336 H 1134.49 -5.40332 -6.79951 0
M  V30 7337 H 1134.22 -4.41613 -5.32378 0
M  V30 7338 H 1135.09 -3.26331 -7.47797 0
M  V30 7339 H 1137.75 -1.63422 -5.56814 0
M  V30 7340 H 1138.03 -4.63374 -5.34244 0
M  V30 7341 H 1139.02 -3.44728 -6.25838 0
M  V30 7342 H 1137.18 -4.96652 -7.57263 0
M  V30 7343 H 1137.13 -4.80617 -3.3614 0
M  V30 7344 H 1137.82 0.742702 -0.199384 0
M  V30 7345 H 1137.85 2.20598 -3.35588 0
M  V30 7346 H 1137.95 2.43518 -1.58945 0
M  V30 7347 P 1139.05 -2.75334 -8.47391 0
M  V30 7348 O 1139.27 -2.44595 -9.90239 0
M  V30 7349 O 1139.84 -3.87732 -7.92204 0
M  V30 7350 O 1139.3 -1.4459 -7.59357 0
M  V30 7351 C 1138.36 -0.347563 -7.69115 0
M  V30 7352 C 1139.09 0.96767 -7.52806 0
M  V30 7353 O 1139.3 1.21036 -6.1011 0
M  V30 7354 C 1140.49 1.04544 -8.13308 0
M  V30 7355 O 1140.88 2.38311 -8.41922 0
M  V30 7356 C 1141.37 0.491279 -7.02284 0
M  V30 7357 C 1140.66 0.996264 -5.77469 0
M  V30 7358 N 1140.71 0.0501808 -4.62873 0
M  V30 7359 C 1140.86 0.588177 -3.36904 0
M  V30 7360 O 1140.95 1.78598 -3.17173 0
M  V30 7361 N 1140.9 -0.329694 -2.33686 0
M  V30 7362 C 1140.81 -1.6953 -2.45079 0
M  V30 7363 O 1140.86 -2.41926 -1.44899 0
M  V30 7364 C 1140.66 -2.16933 -3.80505 0
M  V30 7365 C 1140.55 -3.65373 -3.97621 0
M  V30 7366 C 1140.61 -1.30326 -4.83752 0
M  V30 7367 H 1137.87 -0.374722 -8.67691 0
M  V30 7368 H 1137.6 -0.443421 -6.90177 0
M  V30 7369 H 1138.47 1.75537 -7.96793 0
M  V30 7370 H 1141.13 1.94496 -5.46629 0
M  V30 7371 H 1141.41 -0.608651 -7.04676 0
M  V30 7372 H 1142.4 0.889672 -7.08939 0
M  V30 7373 H 1140.56 0.43308 -9.04564 0
M  V30 7374 H 1140.49 -1.68366 -5.8516 0
M  V30 7375 H 1141.52 -4.05985 -4.30448 0
M  V30 7376 H 1139.79 -3.88028 -4.72875 0
M  V30 7377 H 1140.27 -4.11381 -3.01609 0
M  V30 7378 H 1141.01 0.0393617 -1.41345 0
M  V30 7379 P 1142.43 2.75334 -8.47391 0
M  V30 7380 O 1142.65 3.84128 -9.44797 0
M  V30 7381 O 1143.22 1.51947 -8.68712 0
M  V30 7382 O 1142.68 3.29363 -6.99321 0
M  V30 7383 C 1141.74 4.24011 -6.4274 0
M  V30 7384 C 1142.47 5.20775 -5.52155 0
M  V30 7385 O 1142.68 4.56534 -4.22446 0
M  V30 7386 C 1143.87 5.62629 -5.96531 0
M  V30 7387 O 1144.26 6.87667 -5.41053 0
M  V30 7388 C 1144.75 4.52537 -5.39283 0
M  V30 7389 C 1144.04 4.20027 -4.08623 0
M  V30 7390 N 1144.09 2.76189 -3.71603 0
M  V30 7391 H 1141.25 4.797 -7.24003 0
M  V30 7392 H 1140.98 3.69856 -5.84513 0
M  V30 7393 H 1141.85 6.10356 -5.41441 0
M  V30 7394 P 1145.81 7.20834 -5.23717 0
M  V30 7395 O 1146.03 8.66104 -5.38572 0
M  V30 7396 O 1146.6 6.33544 -6.1349 0
M  V30 7397 O 1146.06 6.7751 -3.72168 0
M  V30 7398 C 1145.12 7.20825 -2.7076 0
M  V30 7399 C 1145.85 7.45864 -1.40599 0
M  V30 7400 O 1146.06 6.17651 -0.734225 0
M  V30 7401 C 1147.25 8.05808 -1.51899 0
M  V30 7402 O 1147.64 8.74358 -0.335205 0
M  V30 7403 C 1148.13 6.83093 -1.70294 0
M  V30 7404 C 1147.42 5.79992 -0.836974 0
M  V30 7405 N 1147.47 4.41864 -1.38293 0
M  V30 7406 H 1144.63 8.13644 -3.0377 0
M  V30 7407 H 1144.36 6.42788 -2.55485 0
M  V30 7408 H 1145.23 8.12039 -0.792769 0
M  V30 7409 P 1149.19 8.91 8.91573e-12 0
M  V30 7410 O 1149.41 10.1726 0.733694 0
M  V30 7411 O 1149.98 8.73148 -1.23936 0
M  V30 7412 O 1149.44 7.66872 0.971405 0
M  V30 7413 C 1148.5 7.42309 2.04641 0
M  V30 7414 C 1149.23 6.86059 3.24661 0
M  V30 7415 O 1149.44 5.42847 3.03646 0
M  V30 7416 C 1150.63 7.41196 3.50753 0
M  V30 7417 O 1151.02 7.27073 4.86816 0
M  V30 7418 C 1151.51 6.5273 2.63741 0
M  V30 7419 C 1150.8 5.1842 2.73198 0
M  V30 7420 N 1150.85 4.38762 1.4784 0
M  V30 7421 H 1148.01 8.36803 2.32493 0
M  V30 7422 H 1147.74 6.70197 1.71129 0
M  V30 7423 H 1148.61 7.03551 4.13168 0
M  V30 7424 P 1152.57 7.20834 5.23717 0
M  V30 7425 O 1152.79 7.79853 6.57286 0
M  V30 7426 O 1153.36 7.79239 4.12957 0
M  V30 7427 O 1152.82 5.63315 5.29344 0
M  V30 7428 C 1151.88 4.80255 6.01876 0
M  V30 7429 C 1152.61 3.64202 6.65911 0
M  V30 7430 O 1152.82 2.60694 5.64732 0
M  V30 7431 C 1154.01 3.93473 7.1943 0
M  V30 7432 O 1154.4 3.02071 8.21205 0
M  V30 7433 C 1154.89 3.73047 5.97036 0
M  V30 7434 C 1154.18 2.58828 5.25741 0
M  V30 7435 N 1154.23 2.68068 3.77503 0
M  V30 7436 H 1151.39 5.40332 6.79951 0
M  V30 7437 H 1151.12 4.41613 5.32378 0
M  V30 7438 H 1151.99 3.26331 7.47797 0
M  V30 7439 P 1155.95 2.75334 8.47391 0
M  V30 7440 O 1156.17 2.44571 9.90142 0
M  V30 7441 O 1156.74 3.87688 7.92115 0
M  V30 7442 O 1156.2 1.4459 7.59357 0
M  V30 7443 C 1155.26 0.347608 7.69215 0
M  V30 7444 C 1155.99 -0.96767 7.52806 0
M  V30 7445 O 1156.2 -1.21036 6.1011 0
M  V30 7446 C 1157.39 -1.04544 8.13308 0
M  V30 7447 O 1157.78 -2.38311 8.41922 0
M  V30 7448 C 1158.27 -0.491279 7.02284 0
M  V30 7449 C 1157.56 -0.996264 5.77469 0
M  V30 7450 N 1157.61 -0.0501916 4.62973 0
M  V30 7451 H 1154.77 0.374722 8.67691 0
M  V30 7452 H 1154.5 0.443485 6.90277 0
M  V30 7453 H 1155.37 -1.75537 7.96793 0
M  V30 7454 P 1159.33 -2.75334 8.47391 0
M  V30 7455 O 1159.55 -3.84128 9.44797 0
M  V30 7456 O 1160.12 -1.51947 8.68712 0
M  V30 7457 O 1159.58 -3.29363 6.99321 0
M  V30 7458 C 1158.64 -4.24011 6.4274 0
M  V30 7459 C 1159.37 -5.20775 5.52155 0
M  V30 7460 O 1159.58 -4.56534 4.22446 0
M  V30 7461 C 1160.77 -5.62629 5.96531 0
M  V30 7462 O 1161.16 -6.87667 5.41053 0
M  V30 7463 C 1161.65 -4.52537 5.39283 0
M  V30 7464 C 1160.94 -4.20027 4.08623 0
M  V30 7465 N 1160.99 -2.76189 3.71603 0
M  V30 7466 H 1158.15 -4.797 7.24003 0
M  V30 7467 H 1157.88 -3.69856 5.84513 0
M  V30 7468 H 1158.75 -6.10356 5.41441 0
M  V30 7469 P 1162.71 -7.20834 5.23717 0
M  V30 7470 O 1162.93 -8.66104 5.38572 0
M  V30 7471 O 1163.5 -6.33544 6.1349 0
M  V30 7472 O 1162.96 -6.7751 3.72168 0
M  V30 7473 C 1162.02 -7.20825 2.7076 0
M  V30 7474 C 1162.75 -7.45864 1.40599 0
M  V30 7475 O 1162.96 -6.17651 0.734225 0
M  V30 7476 C 1164.15 -8.05808 1.51899 0
M  V30 7477 O 1164.54 -8.74358 0.335205 0
M  V30 7478 C 1165.03 -6.83093 1.70294 0
M  V30 7479 C 1164.32 -5.79992 0.836974 0
M  V30 7480 N 1164.37 -4.41864 1.38293 0
M  V30 7481 H 1161.53 -8.13644 3.0377 0
M  V30 7482 H 1161.26 -6.42788 2.55485 0
M  V30 7483 H 1162.13 -8.12039 0.792769 0
M  V30 7484 P 1166.09 -8.91 -9.07291e-12 0
M  V30 7485 O 1166.31 -10.1736 -0.733766 0
M  V30 7486 O 1166.88 -8.73247 1.2395 0
M  V30 7487 O 1166.34 -7.66872 -0.971405 0
M  V30 7488 C 1165.4 -7.42309 -2.04641 0
M  V30 7489 C 1166.13 -6.86059 -3.24661 0
M  V30 7490 O 1166.34 -5.42847 -3.03646 0
M  V30 7491 C 1167.53 -7.41196 -3.50753 0
M  V30 7492 O 1167.92 -7.27073 -4.86816 0
M  V30 7493 C 1168.41 -6.5273 -2.63741 0
M  V30 7494 C 1167.7 -5.1842 -2.73198 0
M  V30 7495 N 1167.75 -4.38668 -1.47808 0
M  V30 7496 C 1167.9 -3.00789 -1.58511 0
M  V30 7497 O 1167.99 -2.50116 -2.71298 0
M  V30 7498 N 1167.95 -2.29703 -0.253698 0
M  V30 7499 C 1167.85 -2.84269 0.750133 0
M  V30 7500 N 1167.9 -2.06951 1.82612 0
M  V30 7501 C 1167.7 -4.25803 0.889776 0
M  V30 7502 C 1167.65 -4.98326 -0.259363 0
M  V30 7503 H 1164.91 -8.36707 -2.32466 0
M  V30 7504 H 1164.64 -6.701 -1.71105 0
M  V30 7505 H 1165.51 -7.03638 -4.13219 0
M  V30 7506 H 1168.17 -4.59852 -3.53955 0
M  V30 7507 H 1168.45 -6.88995 -1.59871 0
M  V30 7508 H 1169.44 -6.46749 -3.03687 0
M  V30 7509 H 1167.6 -8.46908 -3.20714 0
M  V30 7510 H 1167.53 -6.06349 -0.206238 0
M  V30 7511 H 1167.63 -4.73163 1.86796 0
M  V30 7512 H 1168.02 -1.05099 1.72271 0
M  V30 7513 H 1167.82 -2.48716 2.76361 0
M  V30 7514 P 1169.47 -7.20834 -5.23717 0
M  V30 7515 O 1169.69 -7.7993 -6.57351 0
M  V30 7516 O 1170.26 -7.79328 -4.13004 0
M  V30 7517 O 1169.72 -5.63315 -5.29344 0
M  V30 7518 C 1168.78 -4.80193 -6.01798 0
M  V30 7519 C 1169.51 -3.64202 -6.65911 0
M  V30 7520 O 1169.72 -2.60694 -5.64732 0
M  V30 7521 C 1170.91 -3.93473 -7.1943 0
M  V30 7522 O 1171.3 -3.02071 -8.21205 0
M  V30 7523 C 1171.79 -3.73047 -5.97036 0
M  V30 7524 C 1171.08 -2.58828 -5.25741 0
M  V30 7525 N 1171.13 -2.6801 -3.77422 0
M  V30 7526 C 1171.28 -1.50443 -3.07133 0
M  V30 7527 O 1171.37 -0.419406 -3.61576 0
M  V30 7528 N 1171.32 -1.6403 -1.69677 0
M  V30 7529 C 1171.23 -2.81206 -0.986255 0
M  V30 7530 O 1171.28 -2.80892 0.249754 0
M  V30 7531 C 1171.08 -3.99158 -1.80325 0
M  V30 7532 C 1170.97 -5.29309 -1.06921 0
M  V30 7533 C 1171.03 -3.89779 -3.1476 0
M  V30 7534 H 1168.29 -5.40332 -6.79951 0
M  V30 7535 H 1168.02 -4.41549 -5.32301 0
M  V30 7536 H 1168.89 -3.26331 -7.47797 0
M  V30 7537 H 1171.55 -1.6395 -5.56554 0
M  V30 7538 H 1171.83 -4.63439 -5.3432 0
M  V30 7539 H 1172.82 -3.44728 -6.25838 0
M  V30 7540 H 1170.98 -4.96652 -7.57263 0
M  V30 7541 H 1170.91 -4.80159 -3.74441 0
M  V30 7542 H 1171.94 -5.81459 -1.09608 0
M  V30 7543 H 1170.21 -5.9187 -1.54487 0
M  V30 7544 H 1170.69 -5.10095 -0.0220288 0
M  V30 7545 H 1171.43 -0.798962 -1.16664 0
M  V30 7546 P 1172.85 -2.75334 -8.47391 0
M  V30 7547 O 1173.07 -2.44619 -9.90336 0
M  V30 7548 O 1173.64 -3.87776 -7.92294 0
M  V30 7549 O 1173.1 -1.4459 -7.59357 0
M  V30 7550 C 1172.16 -0.347653 -7.69315 0
M  V30 7551 C 1172.89 0.96767 -7.52806 0
M  V30 7552 O 1173.1 1.21055 -6.10208 0
M  V30 7553 C 1174.29 1.04557 -8.13408 0
M  V30 7554 O 1174.68 2.38311 -8.41922 0
M  V30 7555 C 1175.17 0.491279 -7.02284 0
M  V30 7556 C 1174.46 0.996264 -5.77469 0
M  V30 7557 N 1174.51 0.0501916 -4.62973 0
M  V30 7558 C 1174.43 -1.31969 -4.65661 0
M  V30 7559 N 1174.5 -1.86649 -3.48119 0
M  V30 7560 C 1174.65 -0.792089 -2.62406 0
M  V30 7561 C 1174.78 -0.705684 -1.2207 0
M  V30 7562 N 1174.79 -1.76207 -0.413762 0
M  V30 7563 N 1174.9 0.518981 -0.685754 0
M  V30 7564 C 1174.89 1.57595 -1.49174 0
M  V30 7565 N 1174.77 1.62909 -2.80066 0
M  V30 7566 C 1174.65 0.388195 -3.3073 0
M  V30 7567 H 1171.68 -0.374765 -8.67791 0
M  V30 7568 H 1171.4 -0.443613 -6.90476 0
M  V30 7569 H 1172.27 1.75559 -7.96891 0
M  V30 7570 H 1174.93 1.94563 -5.46818 0
M  V30 7571 H 1175.21 -0.608651 -7.04676 0
M  V30 7572 H 1176.2 0.889796 -7.09039 0
M  V30 7573 H 1174.36 0.433128 -9.04664 0
M  V30 7574 H 1174.32 -1.89246 -5.57664 0
M  V30 7575 H 1174.7 -2.71005 -0.804694 0
M  V30 7576 H 1174.89 -1.63189 0.603768 0
M  V30 7577 H 1175 2.53475 -0.997614 0
M  V30 7578 P 1176.23 2.75334 -8.47391 0
M  V30 7579 O 1176.45 3.84128 -9.44797 0
M  V30 7580 O 1177.02 1.51947 -8.68712 0
M  V30 7581 O 1176.48 3.29363 -6.99321 0
M  V30 7582 C 1175.54 4.24011 -6.4274 0
M  V30 7583 C 1176.27 5.20775 -5.52155 0
M  V30 7584 O 1176.48 4.56534 -4.22446 0
M  V30 7585 C 1177.67 5.62629 -5.96531 0
M  V30 7586 O 1178.06 6.87667 -5.41053 0
M  V30 7587 C 1178.55 4.52537 -5.39283 0
M  V30 7588 C 1177.84 4.20027 -4.08623 0
M  V30 7589 N 1177.89 2.76189 -3.71603 0
M  V30 7590 H 1175.05 4.797 -7.24003 0
M  V30 7591 H 1174.78 3.69856 -5.84513 0
M  V30 7592 H 1175.65 6.10356 -5.41441 0
M  V30 7593 P 1179.61 7.20834 -5.23717 0
M  V30 7594 O 1179.83 8.66104 -5.38572 0
M  V30 7595 O 1180.4 6.33544 -6.1349 0
M  V30 7596 O 1179.86 6.7751 -3.72168 0
M  V30 7597 C 1178.92 7.20825 -2.7076 0
M  V30 7598 C 1179.65 7.45864 -1.40599 0
M  V30 7599 O 1179.86 6.17651 -0.734225 0
M  V30 7600 C 1181.05 8.05808 -1.51899 0
M  V30 7601 O 1181.44 8.74358 -0.335205 0
M  V30 7602 C 1181.93 6.83093 -1.70294 0
M  V30 7603 C 1181.22 5.79992 -0.836974 0
M  V30 7604 N 1181.27 4.41864 -1.38293 0
M  V30 7605 H 1178.43 8.13644 -3.0377 0
M  V30 7606 H 1178.16 6.42788 -2.55485 0
M  V30 7607 H 1179.03 8.12039 -0.792769 0
M  V30 7608 P 1182.99 8.91 9.23009e-12 0
M  V30 7609 O 1183.21 10.1726 0.733694 0
M  V30 7610 O 1183.78 8.73148 -1.23936 0
M  V30 7611 O 1183.24 7.66872 0.971405 0
M  V30 7612 C 1182.3 7.42309 2.04641 0
M  V30 7613 C 1183.03 6.86059 3.24661 0
M  V30 7614 O 1183.24 5.42847 3.03646 0
M  V30 7615 C 1184.43 7.41196 3.50753 0
M  V30 7616 O 1184.82 7.27073 4.86816 0
M  V30 7617 C 1185.31 6.5273 2.63741 0
M  V30 7618 C 1184.6 5.1842 2.73198 0
M  V30 7619 N 1184.65 4.38762 1.4784 0
M  V30 7620 H 1181.81 8.36803 2.32493 0
M  V30 7621 H 1181.54 6.70197 1.71129 0
M  V30 7622 H 1182.41 7.03551 4.13168 0
M  V30 7623 P 1186.37 7.20834 5.23717 0
M  V30 7624 O 1186.59 7.80006 6.57415 0
M  V30 7625 O 1187.16 7.79416 4.13051 0
M  V30 7626 O 1186.62 5.63315 5.29344 0
M  V30 7627 C 1185.68 4.80318 6.01954 0
M  V30 7628 C 1186.41 3.64202 6.65911 0
M  V30 7629 O 1186.62 2.60736 5.64823 0
M  V30 7630 C 1187.81 3.93521 7.19518 0
M  V30 7631 O 1188.2 3.02071 8.21205 0
M  V30 7632 C 1188.69 3.73047 5.97036 0
M  V30 7633 C 1187.98 2.58828 5.25741 0
M  V30 7634 N 1188.03 2.68068 3.77503 0
M  V30 7635 C 1187.95 3.80474 2.99159 0
M  V30 7636 N 1188.02 3.55622 1.71925 0
M  V30 7637 C 1188.17 2.1832 1.65733 0
M  V30 7638 C 1188.3 1.28842 0.572777 0
M  V30 7639 N 1188.31 1.66875 -0.70098 0
M  V30 7640 N 1188.42 -0.016788 0.859836 0
M  V30 7641 C 1188.41 -0.398145 2.13316 0
M  V30 7642 N 1188.29 0.328224 3.22333 0
M  V30 7643 C 1188.17 1.62992 2.90383 0
M  V30 7644 H 1185.19 5.40394 6.8003 0
M  V30 7645 H 1184.92 4.41741 5.32532 0
M  V30 7646 H 1185.79 3.26371 7.47889 0
M  V30 7647 H 1188.45 1.64007 5.56746 0
M  V30 7648 H 1188.73 4.63439 5.3432 0
M  V30 7649 H 1189.72 3.44776 6.25925 0
M  V30 7650 H 1187.88 4.96707 7.57347 0
M  V30 7651 H 1187.84 4.8089 3.39924 0
M  V30 7652 H 1188.22 2.66547 -0.941919 0
M  V30 7653 H 1188.41 0.965341 -1.44766 0
M  V30 7654 H 1188.52 -1.46427 2.29697 0
M  V30 7655 P 1189.75 2.75334 8.47391 0
M  V30 7656 O 1189.97 2.44571 9.90142 0
M  V30 7657 O 1190.54 3.87688 7.92115 0
M  V30 7658 O 1190 1.4459 7.59357 0
M  V30 7659 C 1189.06 0.347608 7.69215 0
M  V30 7660 C 1189.79 -0.96767 7.52806 0
M  V30 7661 O 1190 -1.21036 6.1011 0
M  V30 7662 C 1191.19 -1.04544 8.13308 0
M  V30 7663 O 1191.58 -2.38311 8.41922 0
M  V30 7664 C 1192.07 -0.491279 7.02284 0
M  V30 7665 C 1191.36 -0.996264 5.77469 0
M  V30 7666 N 1191.41 -0.0501916 4.62973 0
M  V30 7667 H 1188.57 0.374722 8.67691 0
M  V30 7668 H 1188.3 0.443485 6.90277 0
M  V30 7669 H 1189.17 -1.75537 7.96793 0
M  V30 7670 P 1193.13 -2.75334 8.47391 0
M  V30 7671 O 1193.35 -3.84128 9.44797 0
M  V30 7672 O 1193.92 -1.51947 8.68712 0
M  V30 7673 O 1193.38 -3.29363 6.99321 0
M  V30 7674 C 1192.44 -4.24011 6.4274 0
M  V30 7675 C 1193.17 -5.20775 5.52155 0
M  V30 7676 O 1193.38 -4.56534 4.22446 0
M  V30 7677 C 1194.57 -5.62629 5.96531 0
M  V30 7678 O 1194.96 -6.87667 5.41053 0
M  V30 7679 C 1195.45 -4.52537 5.39283 0
M  V30 7680 C 1194.74 -4.20027 4.08623 0
M  V30 7681 N 1194.79 -2.76189 3.71603 0
M  V30 7682 H 1191.95 -4.797 7.24003 0
M  V30 7683 H 1191.68 -3.69856 5.84513 0
M  V30 7684 H 1192.55 -6.10356 5.41441 0
M  V30 7685 P 1196.51 -7.20834 5.23717 0
M  V30 7686 O 1196.73 -8.66104 5.38572 0
M  V30 7687 O 1197.3 -6.33544 6.1349 0
M  V30 7688 O 1196.76 -6.7751 3.72168 0
M  V30 7689 C 1195.82 -7.20825 2.7076 0
M  V30 7690 C 1196.55 -7.45864 1.40599 0
M  V30 7691 O 1196.76 -6.17651 0.734225 0
M  V30 7692 C 1197.95 -8.05808 1.51899 0
M  V30 7693 O 1198.34 -8.74358 0.335205 0
M  V30 7694 C 1198.83 -6.83093 1.70294 0
M  V30 7695 C 1198.12 -5.79992 0.836974 0
M  V30 7696 N 1198.17 -4.41864 1.38293 0
M  V30 7697 C 1198.09 -3.99538 2.69438 0
M  V30 7698 N 1198.17 -2.69909 2.84277 0
M  V30 7699 C 1198.31 -2.21719 1.5408 0
M  V30 7700 C 1198.44 -0.891712 1.06628 0
M  V30 7701 O 1198.46 0.161298 1.70137 0
M  V30 7702 N 1198.56 -0.856846 -0.334985 0
M  V30 7703 C 1198.56 -1.9641 -1.15789 0
M  V30 7704 N 1198.69 -1.72708 -2.46522 0
M  V30 7705 N 1198.43 -3.21165 -0.713741 0
M  V30 7706 C 1198.31 -3.26797 0.639748 0
M  V30 7707 H 1195.33 -8.13644 3.0377 0
M  V30 7708 H 1195.06 -6.42788 2.55485 0
M  V30 7709 H 1195.93 -8.12039 0.792769 0
M  V30 7710 H 1198.59 -5.80061 -0.166416 0
M  V30 7711 H 1198.86 -6.51287 2.75604 0
M  V30 7712 H 1199.86 -7.01734 1.34462 0
M  V30 7713 H 1198.02 -8.73674 2.38337 0
M  V30 7714 H 1197.97 -4.68207 3.53221 0
M  V30 7715 H 1198.66 0.0398818 -0.767965 0
M  V30 7716 H 1198.69 -2.50995 -3.13503 0
M  V30 7717 H 1198.79 -0.759148 -2.80716 0
M  V30 7718 P 1199.89 -8.91 -9.38728e-12 0
M  V30 7719 O 1200.11 -10.1746 -0.733838 0
M  V30 7720 O 1200.68 -8.73346 1.23964 0
M  V30 7721 O 1200.14 -7.66872 -0.971405 0
M  V30 7722 C 1199.2 -7.42405 -2.04668 0
M  V30 7723 C 1199.93 -6.86059 -3.24661 0
M  V30 7724 O 1200.14 -5.42934 -3.03695 0
M  V30 7725 C 1201.33 -7.41287 -3.50796 0
M  V30 7726 O 1201.72 -7.27073 -4.86816 0
M  V30 7727 C 1202.21 -6.5273 -2.63741 0
M  V30 7728 C 1201.5 -5.1842 -2.73198 0
M  V30 7729 N 1201.55 -4.38762 -1.4784 0
M  V30 7730 C 1201.47 -4.83651 -0.183876 0
M  V30 7731 N 1201.54 -3.88759 0.699393 0
M  V30 7732 C 1201.69 -2.7404 -0.0575568 0
M  V30 7733 C 1201.82 -1.37902 0.293928 0
M  V30 7734 N 1201.83 -0.938021 1.54797 0
M  V30 7735 N 1201.94 -0.491817 -0.70549 0
M  V30 7736 C 1201.93 -0.931735 -1.95979 0
M  V30 7737 N 1201.81 -2.16017 -2.41481 0
M  V30 7738 C 1201.69 -3.02547 -1.39121 0
M  V30 7739 H 1198.71 -8.36899 -2.3252 0
M  V30 7740 H 1198.44 -6.70391 -1.71179 0
M  V30 7741 H 1199.31 -7.03638 -4.13219 0
M  V30 7742 H 1201.97 -4.59931 -3.54016 0
M  V30 7743 H 1202.25 -6.88995 -1.59871 0
M  V30 7744 H 1203.24 -6.4684 -3.0373 0
M  V30 7745 H 1201.4 -8.47002 -3.20749 0
M  V30 7746 H 1201.36 -5.8885 0.0765548 0
M  V30 7747 H 1201.74 -1.60276 2.32875 0
M  V30 7748 H 1201.93 0.0699355 1.73859 0
M  V30 7749 H 1202.04 -0.165507 -2.71897 0
M  V30 7750 P 1203.27 -7.20834 -5.23717 0
M  V30 7751 O 1203.49 -7.80006 -6.57415 0
M  V30 7752 O 1204.06 -7.79416 -4.13051 0
M  V30 7753 O 1203.52 -5.63315 -5.29344 0
M  V30 7754 C 1202.58 -4.80318 -6.01954 0
M  V30 7755 C 1203.31 -3.64202 -6.65911 0
M  V30 7756 O 1203.52 -2.60736 -5.64823 0
M  V30 7757 C 1204.71 -3.93521 -7.19518 0
M  V30 7758 O 1205.1 -3.02071 -8.21205 0
M  V30 7759 C 1205.59 -3.73047 -5.97036 0
M  V30 7760 C 1204.88 -2.58828 -5.25741 0
M  V30 7761 N 1204.93 -2.68068 -3.77503 0
M  V30 7762 H 1202.09 -5.40394 -6.8003 0
M  V30 7763 H 1201.82 -4.41741 -5.32532 0
M  V30 7764 H 1202.69 -3.26371 -7.47889 0
M  V30 7765 H 1205.35 -1.64007 -5.56746 0
M  V30 7766 H 1205.63 -4.63439 -5.3432 0
M  V30 7767 H 1206.62 -3.44776 -6.25925 0
M  V30 7768 H 1204.78 -4.96707 -7.57347 0
M  V30 7769 P 1206.65 -2.75334 -8.47391 0
M  V30 7770 O 1206.87 -2.44595 -9.90239 0
M  V30 7771 O 1207.44 -3.87732 -7.92204 0
M  V30 7772 O 1206.9 -1.4459 -7.59357 0
M  V30 7773 C 1205.96 -0.347608 -7.69215 0
M  V30 7774 C 1206.69 0.96767 -7.52806 0
M  V30 7775 O 1206.9 1.21036 -6.1011 0
M  V30 7776 C 1208.09 1.04544 -8.13308 0
M  V30 7777 O 1208.48 2.38311 -8.41922 0
M  V30 7778 C 1208.97 0.491279 -7.02284 0
M  V30 7779 C 1208.26 0.996264 -5.77469 0
M  V30 7780 N 1208.31 0.0501808 -4.62873 0
M  V30 7781 C 1208.46 0.578037 -3.3505 0
M  V30 7782 O 1208.55 1.8073 -3.21711 0
M  V30 7783 N 1208.51 -0.468541 -2.263 0
M  V30 7784 C 1208.41 -1.59186 -2.47176 0
M  V30 7785 N 1208.46 -2.37626 -1.40392 0
M  V30 7786 C 1208.26 -2.16203 -3.77467 0
M  V30 7787 C 1208.21 -1.29324 -4.8195 0
M  V30 7788 H 1205.47 -0.374679 -8.67591 0
M  V30 7789 H 1205.2 -0.443421 -6.90177 0
M  V30 7790 H 1206.07 1.75559 -7.96891 0
M  V30 7791 H 1208.73 1.94529 -5.46723 0
M  V30 7792 H 1209 -0.608651 -7.04676 0
M  V30 7793 H 1210 0.889672 -7.08939 0
M  V30 7794 H 1208.16 0.43308 -9.04564 0
M  V30 7795 H 1208.09 -1.67758 -5.83046 0
M  V30 7796 H 1208.19 -3.23869 -3.92281 0
M  V30 7797 H 1208.58 -1.96317 -0.467202 0
M  V30 7798 H 1208.38 -3.39693 -1.51142 0
M  V30 7799 P 1210.03 2.75334 -8.47391 0
M  V30 7800 O 1210.25 3.84128 -9.44797 0
M  V30 7801 O 1210.82 1.51947 -8.68712 0
M  V30 7802 O 1210.28 3.29363 -6.99321 0
M  V30 7803 C 1209.34 4.24011 -6.4274 0
M  V30 7804 C 1210.07 5.20775 -5.52155 0
M  V30 7805 O 1210.28 4.56534 -4.22446 0
M  V30 7806 C 1211.47 5.62629 -5.96531 0
M  V30 7807 O 1211.86 6.87667 -5.41053 0
M  V30 7808 C 1212.35 4.52537 -5.39283 0
M  V30 7809 C 1211.64 4.20027 -4.08623 0
M  V30 7810 N 1211.69 2.76189 -3.71603 0
M  V30 7811 H 1208.85 4.797 -7.24003 0
M  V30 7812 H 1208.58 3.69856 -5.84513 0
M  V30 7813 H 1209.45 6.10356 -5.41441 0
M  V30 7814 P 1213.41 7.20834 -5.23717 0
M  V30 7815 O 1213.63 8.66104 -5.38572 0
M  V30 7816 O 1214.2 6.33544 -6.1349 0
M  V30 7817 O 1213.66 6.7751 -3.72168 0
M  V30 7818 C 1212.72 7.20825 -2.7076 0
M  V30 7819 C 1213.45 7.45864 -1.40599 0
M  V30 7820 O 1213.66 6.17651 -0.734225 0
M  V30 7821 C 1214.85 8.05808 -1.51899 0
M  V30 7822 O 1215.24 8.74358 -0.335205 0
M  V30 7823 C 1215.73 6.83093 -1.70294 0
M  V30 7824 C 1215.02 5.79992 -0.836974 0
M  V30 7825 N 1215.07 4.41864 -1.38293 0
M  V30 7826 H 1212.23 8.13644 -3.0377 0
M  V30 7827 H 1211.96 6.42788 -2.55485 0
M  V30 7828 H 1212.83 8.12039 -0.792769 0
M  V30 7829 P 1216.79 8.91 9.54446e-12 0
M  V30 7830 O 1217.01 10.1726 0.733694 0
M  V30 7831 O 1217.58 8.73148 -1.23936 0
M  V30 7832 O 1217.04 7.66872 0.971405 0
M  V30 7833 C 1216.1 7.42309 2.04641 0
M  V30 7834 C 1216.83 6.86059 3.24661 0
M  V30 7835 O 1217.04 5.42847 3.03646 0
M  V30 7836 C 1218.23 7.41196 3.50753 0
M  V30 7837 O 1218.62 7.27073 4.86816 0
M  V30 7838 C 1219.11 6.5273 2.63741 0
M  V30 7839 C 1218.4 5.1842 2.73198 0
M  V30 7840 N 1218.45 4.38762 1.4784 0
M  V30 7841 H 1215.61 8.36803 2.32493 0
M  V30 7842 H 1215.34 6.70197 1.71129 0
M  V30 7843 H 1216.21 7.03551 4.13168 0
M  V30 7844 P 1220.17 7.20834 5.23717 0
M  V30 7845 O 1220.39 7.80006 6.57415 0
M  V30 7846 O 1220.96 7.79416 4.13051 0
M  V30 7847 O 1220.42 5.63315 5.29344 0
M  V30 7848 C 1219.48 4.80318 6.01954 0
M  V30 7849 C 1220.21 3.64202 6.65911 0
M  V30 7850 O 1220.42 2.60736 5.64823 0
M  V30 7851 C 1221.61 3.93521 7.19518 0
M  V30 7852 O 1222 3.02071 8.21205 0
M  V30 7853 C 1222.49 3.73047 5.97036 0
M  V30 7854 C 1221.78 2.58828 5.25741 0
M  V30 7855 N 1221.83 2.68068 3.77503 0
M  V30 7856 C 1221.75 3.80474 2.99159 0
M  V30 7857 N 1221.82 3.55622 1.71925 0
M  V30 7858 C 1221.97 2.1832 1.65733 0
M  V30 7859 C 1222.1 1.28842 0.572777 0
M  V30 7860 N 1222.11 1.66875 -0.70098 0
M  V30 7861 N 1222.22 -0.016788 0.859836 0
M  V30 7862 C 1222.21 -0.398145 2.13316 0
M  V30 7863 N 1222.09 0.328224 3.22333 0
M  V30 7864 C 1221.97 1.62992 2.90383 0
M  V30 7865 H 1218.99 5.40394 6.8003 0
M  V30 7866 H 1218.72 4.41741 5.32532 0
M  V30 7867 H 1219.59 3.26371 7.47889 0
M  V30 7868 H 1222.25 1.64007 5.56746 0
M  V30 7869 H 1222.53 4.63439 5.3432 0
M  V30 7870 H 1223.52 3.44776 6.25925 0
M  V30 7871 H 1221.68 4.96707 7.57347 0
M  V30 7872 H 1221.64 4.8089 3.39924 0
M  V30 7873 H 1222.02 2.66547 -0.941919 0
M  V30 7874 H 1222.21 0.965341 -1.44766 0
M  V30 7875 H 1222.32 -1.46427 2.29697 0
M  V30 7876 P 1223.55 2.75334 8.47391 0
M  V30 7877 O 1223.77 2.44595 9.90239 0
M  V30 7878 O 1224.34 3.87732 7.92204 0
M  V30 7879 O 1223.8 1.4459 7.59357 0
M  V30 7880 C 1222.86 0.347563 7.69115 0
M  V30 7881 C 1223.59 -0.96767 7.52806 0
M  V30 7882 O 1223.8 -1.21036 6.1011 0
M  V30 7883 C 1224.99 -1.04544 8.13308 0
M  V30 7884 O 1225.38 -2.38311 8.41922 0
M  V30 7885 C 1225.87 -0.491279 7.02284 0
M  V30 7886 C 1225.16 -0.996264 5.77469 0
M  V30 7887 N 1225.21 -0.0501808 4.62873 0
M  V30 7888 C 1225.36 -0.588177 3.36904 0
M  V30 7889 O 1225.45 -1.78598 3.17173 0
M  V30 7890 N 1225.4 0.329694 2.33686 0
M  V30 7891 C 1225.31 1.6953 2.45079 0
M  V30 7892 C 1225.16 2.16933 3.80505 0
M  V30 7893 C 1225.11 1.30326 4.83752 0
M  V30 7894 H 1222.37 0.374722 8.67691 0
M  V30 7895 H 1222.1 0.443421 6.90177 0
M  V30 7896 H 1222.97 -1.75537 7.96793 0
M  V30 7897 H 1225.63 -1.94496 5.46629 0
M  V30 7898 H 1225.9 0.608651 7.04676 0
M  V30 7899 H 1226.9 -0.889672 7.08939 0
M  V30 7900 H 1225.06 -0.43308 9.04564 0
M  V30 7901 H 1224.99 1.68366 5.8516 0
M  V30 7902 P 1226.93 -2.75334 8.47391 0
M  V30 7903 O 1227.15 -3.84128 9.44797 0
M  V30 7904 O 1227.72 -1.51947 8.68712 0
M  V30 7905 O 1227.18 -3.29363 6.99321 0
M  V30 7906 C 1226.24 -4.24011 6.4274 0
M  V30 7907 C 1226.97 -5.20775 5.52155 0
M  V30 7908 O 1227.18 -4.56534 4.22446 0
M  V30 7909 C 1228.37 -5.62629 5.96531 0
M  V30 7910 O 1228.76 -6.87667 5.41053 0
M  V30 7911 C 1229.25 -4.52537 5.39283 0
M  V30 7912 C 1228.54 -4.20027 4.08623 0
M  V30 7913 N 1228.59 -2.76189 3.71603 0
M  V30 7914 H 1225.75 -4.797 7.24003 0
M  V30 7915 H 1225.48 -3.69856 5.84513 0
M  V30 7916 H 1226.35 -6.10356 5.41441 0
M  V30 7917 P 1230.31 -7.20834 5.23717 0
M  V30 7918 O 1230.53 -8.66104 5.38572 0
M  V30 7919 O 1231.1 -6.33544 6.1349 0
M  V30 7920 O 1230.56 -6.7751 3.72168 0
M  V30 7921 C 1229.62 -7.20825 2.7076 0
M  V30 7922 C 1230.35 -7.45864 1.40599 0
M  V30 7923 O 1230.56 -6.17651 0.734225 0
M  V30 7924 C 1231.75 -8.05808 1.51899 0
M  V30 7925 O 1232.14 -8.74358 0.335205 0
M  V30 7926 C 1232.63 -6.83093 1.70294 0
M  V30 7927 C 1231.92 -5.79992 0.836974 0
M  V30 7928 N 1231.97 -4.41864 1.38293 0
M  V30 7929 H 1229.13 -8.13644 3.0377 0
M  V30 7930 H 1228.86 -6.42788 2.55485 0
M  V30 7931 H 1229.73 -8.12039 0.792769 0
M  V30 7932 P 1233.69 -8.91 -9.70164e-12 0
M  V30 7933 O 1233.91 -10.1746 -0.733838 0
M  V30 7934 O 1234.48 -8.73346 1.23964 0
M  V30 7935 O 1233.94 -7.66872 -0.971405 0
M  V30 7936 C 1233 -7.42405 -2.04668 0
M  V30 7937 C 1233.73 -6.86059 -3.24661 0
M  V30 7938 O 1233.94 -5.42934 -3.03695 0
M  V30 7939 C 1235.13 -7.41287 -3.50796 0
M  V30 7940 O 1235.52 -7.27073 -4.86816 0
M  V30 7941 C 1236.01 -6.5273 -2.63741 0
M  V30 7942 C 1235.3 -5.1842 -2.73198 0
M  V30 7943 N 1235.35 -4.38762 -1.4784 0
M  V30 7944 H 1232.51 -8.36899 -2.3252 0
M  V30 7945 H 1232.24 -6.70391 -1.71179 0
M  V30 7946 H 1233.11 -7.03638 -4.13219 0
M  V30 7947 H 1235.77 -4.59931 -3.54016 0
M  V30 7948 H 1236.05 -6.88995 -1.59871 0
M  V30 7949 H 1237.04 -6.4684 -3.0373 0
M  V30 7950 H 1235.2 -8.47002 -3.20749 0
M  V30 7951 P 1237.07 -7.20834 -5.23717 0
M  V30 7952 O 1237.29 -7.7993 -6.57351 0
M  V30 7953 O 1237.86 -7.79328 -4.13004 0
M  V30 7954 O 1237.32 -5.63315 -5.29344 0
M  V30 7955 C 1236.38 -4.80255 -6.01876 0
M  V30 7956 C 1237.11 -3.64202 -6.65911 0
M  V30 7957 O 1237.32 -2.60694 -5.64732 0
M  V30 7958 C 1238.51 -3.93473 -7.1943 0
M  V30 7959 O 1238.9 -3.02071 -8.21205 0
M  V30 7960 C 1239.39 -3.73047 -5.97036 0
M  V30 7961 C 1238.68 -2.58828 -5.25741 0
M  V30 7962 N 1238.73 -2.6801 -3.77422 0
M  V30 7963 C 1238.88 -1.50173 -3.05038 0
M  V30 7964 O 1238.97 -0.428832 -3.665 0
M  V30 7965 N 1238.93 -1.70922 -1.55541 0
M  V30 7966 C 1238.83 -2.7407 -1.06402 0
M  V30 7967 N 1238.88 -2.74764 0.260931 0
M  V30 7968 C 1238.68 -3.96781 -1.78296 0
M  V30 7969 C 1238.63 -3.87909 -3.13891 0
M  V30 7970 H 1235.89 -5.4027 -6.79873 0
M  V30 7971 H 1235.62 -4.41549 -5.32301 0
M  V30 7972 H 1236.49 -3.26371 -7.47889 0
M  V30 7973 H 1239.15 -1.63978 -5.5665 0
M  V30 7974 H 1239.42 -4.63439 -5.3432 0
M  V30 7975 H 1240.42 -3.44728 -6.25838 0
M  V30 7976 H 1238.58 -4.96652 -7.57263 0
M  V30 7977 H 1238.51 -4.78425 -3.73088 0
M  V30 7978 H 1238.61 -4.92593 -1.26997 0
M  V30 7979 H 1239 -1.86285 0.77595 0
M  V30 7980 H 1238.8 -3.63657 0.773896 0
M  V30 7981 P 1240.45 -2.75334 -8.47391 0
M  V30 7982 O 1240.67 -2.44571 -9.90142 0
M  V30 7983 O 1241.24 -3.87688 -7.92115 0
M  V30 7984 O 1240.7 -1.4459 -7.59357 0
M  V30 7985 C 1239.76 -0.347608 -7.69215 0
M  V30 7986 C 1240.49 0.96767 -7.52806 0
M  V30 7987 O 1240.7 1.21036 -6.1011 0
M  V30 7988 C 1241.89 1.04544 -8.13308 0
M  V30 7989 O 1242.28 2.38311 -8.41922 0
M  V30 7990 C 1242.77 0.491279 -7.02284 0
M  V30 7991 C 1242.06 0.996264 -5.77469 0
M  V30 7992 N 1242.11 0.0501916 -4.62973 0
M  V30 7993 H 1239.27 -0.374722 -8.67691 0
M  V30 7994 H 1239 -0.443485 -6.90277 0
M  V30 7995 H 1239.87 1.75537 -7.96793 0
M  V30 7996 P 1243.83 2.75334 -8.47391 0
M  V30 7997 O 1244.05 3.84128 -9.44797 0
M  V30 7998 O 1244.62 1.51947 -8.68712 0
M  V30 7999 O 1244.08 3.29363 -6.99321 0
M  V30 8000 C 1243.14 4.24011 -6.4274 0
M  V30 8001 C 1243.87 5.20775 -5.52155 0
M  V30 8002 O 1244.08 4.56534 -4.22446 0
M  V30 8003 C 1245.27 5.62629 -5.96531 0
M  V30 8004 O 1245.66 6.87667 -5.41053 0
M  V30 8005 C 1246.15 4.52537 -5.39283 0
M  V30 8006 C 1245.44 4.20027 -4.08623 0
M  V30 8007 N 1245.49 2.76189 -3.71603 0
M  V30 8008 H 1242.65 4.797 -7.24003 0
M  V30 8009 H 1242.38 3.69856 -5.84513 0
M  V30 8010 H 1243.25 6.10356 -5.41441 0
M  V30 8011 P 1247.21 7.20834 -5.23717 0
M  V30 8012 O 1247.43 8.66104 -5.38572 0
M  V30 8013 O 1248 6.33544 -6.1349 0
M  V30 8014 O 1247.46 6.7751 -3.72168 0
M  V30 8015 C 1246.52 7.20825 -2.7076 0
M  V30 8016 C 1247.25 7.45864 -1.40599 0
M  V30 8017 O 1247.46 6.17651 -0.734225 0
M  V30 8018 C 1248.65 8.05808 -1.51899 0
M  V30 8019 O 1249.04 8.74358 -0.335205 0
M  V30 8020 C 1249.53 6.83093 -1.70294 0
M  V30 8021 C 1248.82 5.79992 -0.836974 0
M  V30 8022 N 1248.87 4.41864 -1.38293 0
M  V30 8023 H 1246.03 8.13644 -3.0377 0
M  V30 8024 H 1245.76 6.42788 -2.55485 0
M  V30 8025 H 1246.63 8.12039 -0.792769 0
M  V30 8026 P 1250.59 8.91 9.85882e-12 0
M  V30 8027 O 1250.81 10.1726 0.733694 0
M  V30 8028 O 1251.38 8.73148 -1.23936 0
M  V30 8029 O 1250.84 7.66872 0.971405 0
M  V30 8030 C 1249.9 7.42309 2.04641 0
M  V30 8031 C 1250.63 6.86059 3.24661 0
M  V30 8032 O 1250.84 5.42847 3.03646 0
M  V30 8033 C 1252.03 7.41196 3.50753 0
M  V30 8034 O 1252.42 7.27073 4.86816 0
M  V30 8035 C 1252.91 6.5273 2.63741 0
M  V30 8036 C 1252.2 5.1842 2.73198 0
M  V30 8037 N 1252.25 4.38762 1.4784 0
M  V30 8038 H 1249.41 8.36803 2.32493 0
M  V30 8039 H 1249.14 6.70197 1.71129 0
M  V30 8040 H 1250.01 7.03551 4.13168 0
M  V30 8041 P 1253.97 7.20834 5.23717 0
M  V30 8042 O 1254.19 7.7993 6.57351 0
M  V30 8043 O 1254.76 7.79328 4.13004 0
M  V30 8044 O 1254.22 5.63315 5.29344 0
M  V30 8045 C 1253.28 4.80255 6.01876 0
M  V30 8046 C 1254.01 3.64202 6.65911 0
M  V30 8047 O 1254.22 2.60694 5.64732 0
M  V30 8048 C 1255.41 3.93473 7.1943 0
M  V30 8049 O 1255.8 3.02071 8.21205 0
M  V30 8050 C 1256.29 3.73047 5.97036 0
M  V30 8051 C 1255.58 2.58828 5.25741 0
M  V30 8052 N 1255.63 2.6801 3.77422 0
M  V30 8053 C 1255.78 1.50173 3.05038 0
M  V30 8054 O 1255.87 0.428832 3.665 0
M  V30 8055 N 1255.83 1.70922 1.55541 0
M  V30 8056 C 1255.73 2.7407 1.06402 0
M  V30 8057 N 1255.78 2.74764 -0.260931 0
M  V30 8058 C 1255.58 3.96781 1.78296 0
M  V30 8059 C 1255.53 3.87909 3.13891 0
M  V30 8060 H 1252.79 5.4027 6.79873 0
M  V30 8061 H 1252.52 4.41549 5.32301 0
M  V30 8062 H 1253.39 3.26371 7.47889 0
M  V30 8063 H 1256.05 1.63978 5.5665 0
M  V30 8064 H 1256.32 4.63439 5.3432 0
M  V30 8065 H 1257.32 3.44728 6.25838 0
M  V30 8066 H 1255.48 4.96652 7.57263 0
M  V30 8067 H 1255.41 4.78425 3.73088 0
M  V30 8068 H 1255.51 4.92593 1.26997 0
M  V30 8069 H 1255.9 1.86285 -0.77595 0
M  V30 8070 H 1255.7 3.63657 -0.773896 0
M  V30 8071 P 1257.35 2.75334 8.47391 0
M  V30 8072 O 1257.57 2.44571 9.90142 0
M  V30 8073 O 1258.14 3.87688 7.92115 0
M  V30 8074 O 1257.6 1.4459 7.59357 0
M  V30 8075 C 1256.66 0.347608 7.69215 0
M  V30 8076 C 1257.39 -0.96767 7.52806 0
M  V30 8077 O 1257.6 -1.21036 6.1011 0
M  V30 8078 C 1258.79 -1.04544 8.13308 0
M  V30 8079 O 1259.18 -2.38311 8.41922 0
M  V30 8080 C 1259.67 -0.491279 7.02284 0
M  V30 8081 C 1258.96 -0.996264 5.77469 0
M  V30 8082 N 1259.01 -0.0501916 4.62973 0
M  V30 8083 H 1256.17 0.374722 8.67691 0
M  V30 8084 H 1255.9 0.443485 6.90277 0
M  V30 8085 H 1256.77 -1.75537 7.96793 0
M  V30 8086 P 1260.73 -2.75334 8.47391 0
M  V30 8087 O 1260.95 -3.84204 9.44982 0
M  V30 8088 O 1261.52 -1.51982 8.68909 0
M  V30 8089 O 1260.98 -3.29363 6.99321 0
M  V30 8090 C 1260.04 -4.24066 6.42823 0
M  V30 8091 C 1260.77 -5.20775 5.52155 0
M  V30 8092 O 1260.98 -4.56607 4.22514 0
M  V30 8093 C 1262.17 -5.62697 5.96604 0
M  V30 8094 O 1262.56 -6.87667 5.41053 0
M  V30 8095 C 1263.05 -4.52537 5.39283 0
M  V30 8096 C 1262.34 -4.20027 4.08623 0
M  V30 8097 N 1262.39 -2.76189 3.71603 0
M  V30 8098 C 1262.31 -1.66944 4.54297 0
M  V30 8099 N 1262.38 -0.536169 3.91344 0
M  V30 8100 C 1262.53 -0.901569 2.58849 0
M  V30 8101 C 1262.66 -0.146599 1.40236 0
M  V30 8102 N 1262.67 1.18234 1.37046 0
M  V30 8103 N 1262.78 -0.822941 0.249738 0
M  V30 8104 C 1262.77 -2.15179 0.280525 0
M  V30 8105 N 1262.65 -2.96414 1.30822 0
M  V30 8106 C 1262.53 -2.25804 2.44748 0
M  V30 8107 H 1259.55 -4.79756 7.24086 0
M  V30 8108 H 1259.28 -3.69963 5.84682 0
M  V30 8109 H 1260.15 -6.10431 5.41508 0
M  V30 8110 H 1262.81 -4.78816 3.28024 0
M  V30 8111 H 1263.09 -3.64957 6.05871 0
M  V30 8112 H 1264.08 -4.88748 5.21323 0
M  V30 8113 H 1262.24 -5.66789 7.0643 0
M  V30 8114 H 1262.2 -1.74684 5.62396 0
M  V30 8115 H 1262.58 1.71949 2.24394 0
M  V30 8116 H 1262.77 1.67511 0.470742 0
M  V30 8117 H 1262.88 -2.63704 -0.6828 0
M  V30 8118 P 1264.11 -7.20834 5.23717 0
M  V30 8119 O 1264.33 -8.66104 5.38572 0
M  V30 8120 O 1264.9 -6.33544 6.1349 0
M  V30 8121 O 1264.36 -6.7751 3.72168 0
M  V30 8122 C 1263.42 -7.20825 2.7076 0
M  V30 8123 C 1264.15 -7.45864 1.40599 0
M  V30 8124 O 1264.36 -6.17651 0.734225 0
M  V30 8125 C 1265.55 -8.05808 1.51899 0
M  V30 8126 O 1265.94 -8.74358 0.335205 0
M  V30 8127 C 1266.43 -6.83093 1.70294 0
M  V30 8128 C 1265.72 -5.79992 0.836974 0
M  V30 8129 N 1265.77 -4.41864 1.38293 0
M  V30 8130 C 1265.69 -3.99538 2.69438 0
M  V30 8131 N 1265.77 -2.69909 2.84277 0
M  V30 8132 C 1265.91 -2.21719 1.5408 0
M  V30 8133 C 1266.04 -0.891712 1.06628 0
M  V30 8134 O 1266.06 0.161298 1.70137 0
M  V30 8135 N 1266.16 -0.856846 -0.334985 0
M  V30 8136 C 1266.16 -1.9641 -1.15789 0
M  V30 8137 N 1266.29 -1.72708 -2.46522 0
M  V30 8138 N 1266.03 -3.21165 -0.713741 0
M  V30 8139 C 1265.91 -3.26797 0.639748 0
M  V30 8140 H 1262.93 -8.13644 3.0377 0
M  V30 8141 H 1262.66 -6.42788 2.55485 0
M  V30 8142 H 1263.53 -8.12039 0.792769 0
M  V30 8143 H 1266.19 -5.80061 -0.166416 0
M  V30 8144 H 1266.46 -6.51287 2.75604 0
M  V30 8145 H 1267.46 -7.01734 1.34462 0
M  V30 8146 H 1265.62 -8.73674 2.38337 0
M  V30 8147 H 1265.57 -4.68207 3.53221 0
M  V30 8148 H 1266.26 0.0398818 -0.767965 0
M  V30 8149 H 1266.29 -2.50995 -3.13503 0
M  V30 8150 H 1266.39 -0.759148 -2.80716 0
M  V30 8151 P 1267.49 -8.91 -1.0016e-11 0
M  V30 8152 O 1267.71 -10.1726 -0.733694 0
M  V30 8153 O 1268.28 -8.73148 1.23936 0
M  V30 8154 O 1267.74 -7.66872 -0.971405 0
M  V30 8155 C 1266.8 -7.42309 -2.04641 0
M  V30 8156 C 1267.53 -6.86059 -3.24661 0
M  V30 8157 O 1267.74 -5.42847 -3.03646 0
M  V30 8158 C 1268.93 -7.41196 -3.50753 0
M  V30 8159 O 1269.32 -7.27073 -4.86816 0
M  V30 8160 C 1269.81 -6.5273 -2.63741 0
M  V30 8161 C 1269.1 -5.1842 -2.73198 0
M  V30 8162 N 1269.15 -4.38762 -1.4784 0
M  V30 8163 C 1269.07 -4.81605 -0.168631 0
M  V30 8164 N 1269.15 -3.85454 0.713363 0
M  V30 8165 C 1269.29 -2.6994 -0.0566958 0
M  V30 8166 C 1269.42 -1.34815 0.338502 0
M  V30 8167 O 1269.44 -0.869548 1.47125 0
M  V30 8168 N 1269.54 -0.496304 -0.77465 0
M  V30 8169 C 1269.54 -0.908403 -2.09122 0
M  V30 8170 N 1269.67 0.0517805 -3.00955 0
M  V30 8171 N 1269.41 -2.17875 -2.46519 0
M  V30 8172 C 1269.29 -3.01988 -1.4033 0
M  V30 8173 H 1266.31 -8.36803 -2.32493 0
M  V30 8174 H 1266.04 -6.70197 -1.71129 0
M  V30 8175 H 1266.91 -7.03551 -4.13168 0
M  V30 8176 H 1269.57 -4.59498 -3.54415 0
M  V30 8177 H 1269.84 -6.88898 -1.59848 0
M  V30 8178 H 1270.84 -6.46749 -3.03687 0
M  V30 8179 H 1269 -8.46908 -3.20714 0
M  V30 8180 H 1268.95 -5.86405 0.105564 0
M  V30 8181 H 1269.64 0.483664 -0.597855 0
M  V30 8182 H 1269.67 -0.187865 -4.0116 0
M  V30 8183 H 1269.77 1.03585 -2.71726 0
M  V30 8184 P 1270.87 -7.20834 -5.23717 0
M  V30 8185 O 1271.09 -7.79853 -6.57286 0
M  V30 8186 O 1271.66 -7.79239 -4.12957 0
M  V30 8187 O 1271.12 -5.63315 -5.29344 0
M  V30 8188 C 1270.18 -4.80255 -6.01876 0
M  V30 8189 C 1270.91 -3.64202 -6.65911 0
M  V30 8190 O 1271.12 -2.60694 -5.64732 0
M  V30 8191 C 1272.31 -3.93473 -7.1943 0
M  V30 8192 O 1272.7 -3.02071 -8.21205 0
M  V30 8193 C 1273.19 -3.73047 -5.97036 0
M  V30 8194 C 1272.48 -2.58828 -5.25741 0
M  V30 8195 N 1272.53 -2.68068 -3.77503 0
M  V30 8196 H 1269.69 -5.40332 -6.79951 0
M  V30 8197 H 1269.42 -4.41613 -5.32378 0
M  V30 8198 H 1270.29 -3.26331 -7.47797 0
M  V30 8199 P 1274.25 -2.75334 -8.47391 0
M  V30 8200 O 1274.47 -2.44571 -9.90142 0
M  V30 8201 O 1275.04 -3.87688 -7.92115 0
M  V30 8202 O 1274.5 -1.4459 -7.59357 0
M  V30 8203 C 1273.56 -0.347608 -7.69215 0
M  V30 8204 C 1274.29 0.96767 -7.52806 0
M  V30 8205 O 1274.5 1.21036 -6.1011 0
M  V30 8206 C 1275.69 1.04544 -8.13308 0
M  V30 8207 O 1276.08 2.38311 -8.41922 0
M  V30 8208 C 1276.57 0.491279 -7.02284 0
M  V30 8209 C 1275.86 0.996264 -5.77469 0
M  V30 8210 N 1275.91 0.0501916 -4.62973 0
M  V30 8211 H 1273.07 -0.374722 -8.67691 0
M  V30 8212 H 1272.8 -0.443485 -6.90277 0
M  V30 8213 H 1273.67 1.75537 -7.96793 0
M  V30 8214 P 1277.63 2.75334 -8.47391 0
M  V30 8215 O 1277.85 3.84128 -9.44797 0
M  V30 8216 O 1278.42 1.51947 -8.68712 0
M  V30 8217 O 1277.88 3.29363 -6.99321 0
M  V30 8218 C 1276.94 4.24011 -6.4274 0
M  V30 8219 C 1277.67 5.20775 -5.52155 0
M  V30 8220 O 1277.88 4.56534 -4.22446 0
M  V30 8221 C 1279.07 5.62629 -5.96531 0
M  V30 8222 O 1279.46 6.87667 -5.41053 0
M  V30 8223 C 1279.95 4.52537 -5.39283 0
M  V30 8224 C 1279.24 4.20027 -4.08623 0
M  V30 8225 N 1279.29 2.76189 -3.71603 0
M  V30 8226 H 1276.45 4.797 -7.24003 0
M  V30 8227 H 1276.18 3.69856 -5.84513 0
M  V30 8228 H 1277.05 6.10356 -5.41441 0
M  V30 8229 P 1281.01 7.20834 -5.23717 0
M  V30 8230 O 1281.23 8.66104 -5.38572 0
M  V30 8231 O 1281.8 6.33544 -6.1349 0
M  V30 8232 O 1281.26 6.7751 -3.72168 0
M  V30 8233 C 1280.32 7.20825 -2.7076 0
M  V30 8234 C 1281.05 7.45864 -1.40599 0
M  V30 8235 O 1281.26 6.17651 -0.734225 0
M  V30 8236 C 1282.45 8.05808 -1.51899 0
M  V30 8237 O 1282.84 8.74358 -0.335205 0
M  V30 8238 C 1283.33 6.83093 -1.70294 0
M  V30 8239 C 1282.62 5.79992 -0.836974 0
M  V30 8240 N 1282.67 4.41864 -1.38293 0
M  V30 8241 H 1279.83 8.13644 -3.0377 0
M  V30 8242 H 1279.56 6.42788 -2.55485 0
M  V30 8243 H 1280.43 8.12039 -0.792769 0
M  V30 8244 P 1284.39 8.91 1.01732e-11 0
M  V30 8245 O 1284.61 10.1746 0.733838 0
M  V30 8246 O 1285.18 8.73346 -1.23964 0
M  V30 8247 O 1284.64 7.66872 0.971405 0
M  V30 8248 C 1283.7 7.42405 2.04668 0
M  V30 8249 C 1284.43 6.86059 3.24661 0
M  V30 8250 O 1284.64 5.42934 3.03695 0
M  V30 8251 C 1285.83 7.41287 3.50796 0
M  V30 8252 O 1286.22 7.27073 4.86816 0
M  V30 8253 C 1286.71 6.5273 2.63741 0
M  V30 8254 C 1286 5.1842 2.73198 0
M  V30 8255 N 1286.05 4.38762 1.4784 0
M  V30 8256 C 1285.97 4.83651 0.183876 0
M  V30 8257 N 1286.04 3.88759 -0.699393 0
M  V30 8258 C 1286.19 2.7404 0.0575568 0
M  V30 8259 C 1286.32 1.37902 -0.293928 0
M  V30 8260 N 1286.33 0.938021 -1.54797 0
M  V30 8261 N 1286.44 0.491817 0.70549 0
M  V30 8262 C 1286.43 0.931735 1.95979 0
M  V30 8263 N 1286.31 2.16017 2.41481 0
M  V30 8264 C 1286.19 3.02547 1.39121 0
M  V30 8265 H 1283.21 8.36899 2.3252 0
M  V30 8266 H 1282.94 6.70391 1.71179 0
M  V30 8267 H 1283.81 7.03638 4.13219 0
M  V30 8268 H 1286.47 4.59931 3.54016 0
M  V30 8269 H 1286.75 6.88995 1.59871 0
M  V30 8270 H 1287.74 6.4684 3.0373 0
M  V30 8271 H 1285.9 8.47002 3.20749 0
M  V30 8272 H 1285.86 5.8885 -0.0765548 0
M  V30 8273 H 1286.24 1.60276 -2.32875 0
M  V30 8274 H 1286.43 -0.0699355 -1.73859 0
M  V30 8275 H 1286.54 0.165507 2.71897 0
M  V30 8276 P 1287.77 7.20834 5.23717 0
M  V30 8277 O 1287.99 7.79853 6.57286 0
M  V30 8278 O 1288.56 7.79239 4.12957 0
M  V30 8279 O 1288.02 5.63315 5.29344 0
M  V30 8280 C 1287.08 4.80255 6.01876 0
M  V30 8281 C 1287.81 3.64202 6.65911 0
M  V30 8282 O 1288.02 2.60694 5.64732 0
M  V30 8283 C 1289.21 3.93473 7.1943 0
M  V30 8284 O 1289.6 3.02071 8.21205 0
M  V30 8285 C 1290.09 3.73047 5.97036 0
M  V30 8286 C 1289.38 2.58828 5.25741 0
M  V30 8287 N 1289.43 2.68068 3.77503 0
M  V30 8288 H 1286.59 5.40332 6.79951 0
M  V30 8289 H 1286.32 4.41613 5.32378 0
M  V30 8290 H 1287.19 3.26331 7.47797 0
M  V30 8291 P 1291.15 2.75334 8.47391 0
M  V30 8292 O 1291.37 2.44571 9.90142 0
M  V30 8293 O 1291.94 3.87688 7.92115 0
M  V30 8294 O 1291.4 1.4459 7.59357 0
M  V30 8295 C 1290.46 0.347608 7.69215 0
M  V30 8296 C 1291.19 -0.96767 7.52806 0
M  V30 8297 O 1291.4 -1.21036 6.1011 0
M  V30 8298 C 1292.59 -1.04544 8.13308 0
M  V30 8299 O 1292.98 -2.38311 8.41922 0
M  V30 8300 C 1293.47 -0.491279 7.02284 0
M  V30 8301 C 1292.76 -0.996264 5.77469 0
M  V30 8302 N 1292.81 -0.0501916 4.62973 0
M  V30 8303 H 1289.97 0.374722 8.67691 0
M  V30 8304 H 1289.7 0.443485 6.90277 0
M  V30 8305 H 1290.57 -1.75537 7.96793 0
M  V30 8306 P 1294.53 -2.75334 8.47391 0
M  V30 8307 O 1294.75 -3.84128 9.44797 0
M  V30 8308 O 1295.32 -1.51947 8.68712 0
M  V30 8309 O 1294.78 -3.29363 6.99321 0
M  V30 8310 C 1293.84 -4.24011 6.4274 0
M  V30 8311 C 1294.57 -5.20775 5.52155 0
M  V30 8312 O 1294.78 -4.56534 4.22446 0
M  V30 8313 C 1295.97 -5.62629 5.96531 0
M  V30 8314 O 1296.36 -6.87667 5.41053 0
M  V30 8315 C 1296.85 -4.52537 5.39283 0
M  V30 8316 C 1296.14 -4.20027 4.08623 0
M  V30 8317 N 1296.19 -2.76189 3.71603 0
M  V30 8318 H 1293.35 -4.797 7.24003 0
M  V30 8319 H 1293.08 -3.69856 5.84513 0
M  V30 8320 H 1293.95 -6.10356 5.41441 0
M  V30 8321 P 1297.91 -7.20834 5.23717 0
M  V30 8322 O 1298.13 -8.66274 5.38678 0
M  V30 8323 O 1298.7 -6.33687 6.13629 0
M  V30 8324 O 1298.16 -6.7751 3.72168 0
M  V30 8325 C 1297.22 -7.20919 2.70795 0
M  V30 8326 C 1297.95 -7.45864 1.40599 0
M  V30 8327 O 1298.16 -6.17751 0.734343 0
M  V30 8328 C 1299.35 -8.05906 1.51917 0
M  V30 8329 O 1299.74 -8.74358 0.335205 0
M  V30 8330 C 1300.23 -6.83093 1.70294 0
M  V30 8331 C 1299.52 -5.79992 0.836974 0
M  V30 8332 N 1299.57 -4.41864 1.38293 0
M  V30 8333 C 1299.49 -4.02089 2.69407 0
M  V30 8334 N 1299.56 -2.73403 2.85089 0
M  V30 8335 C 1299.71 -2.25086 1.5642 0
M  V30 8336 C 1299.84 -0.942887 1.04836 0
M  V30 8337 N 1299.85 0.150999 1.80369 0
M  V30 8338 N 1299.96 -0.812565 -0.28167 0
M  V30 8339 C 1299.95 -1.90572 -1.03784 0
M  V30 8340 N 1299.83 -3.167 -0.683905 0
M  V30 8341 C 1299.71 -3.26538 0.652815 0
M  V30 8342 H 1296.73 -8.13738 3.03804 0
M  V30 8343 H 1296.46 -6.42974 2.55559 0
M  V30 8344 H 1297.33 -8.12139 0.792866 0
M  V30 8345 H 1299.99 -5.80178 -0.160643 0
M  V30 8346 H 1300.27 -6.51379 2.75643 0
M  V30 8347 H 1301.26 -7.01832 1.3448 0
M  V30 8348 H 1299.42 -8.73771 2.38364 0
M  V30 8349 H 1299.38 -4.7189 3.52311 0
M  V30 8350 H 1299.76 0.0721434 2.82608 0
M  V30 8351 H 1299.95 1.0785 1.36544 0
M  V30 8352 H 1300.06 -1.73207 -2.10241 0
M  V30 8353 P 1301.29 -8.91 -1.03304e-11 0
M  V30 8354 O 1301.51 -10.1726 -0.733694 0
M  V30 8355 O 1302.08 -8.73148 1.23936 0
M  V30 8356 O 1301.54 -7.66872 -0.971405 0
M  V30 8357 C 1300.6 -7.42309 -2.04641 0
M  V30 8358 C 1301.33 -6.86059 -3.24661 0
M  V30 8359 O 1301.54 -5.42847 -3.03646 0
M  V30 8360 C 1302.73 -7.41196 -3.50753 0
M  V30 8361 O 1303.12 -7.27073 -4.86816 0
M  V30 8362 C 1303.61 -6.5273 -2.63741 0
M  V30 8363 C 1302.9 -5.1842 -2.73198 0
M  V30 8364 N 1302.95 -4.38762 -1.4784 0
M  V30 8365 H 1300.11 -8.36803 -2.32493 0
M  V30 8366 H 1299.84 -6.70197 -1.71129 0
M  V30 8367 H 1300.71 -7.03551 -4.13168 0
M  V30 8368 P 1304.67 -7.20834 -5.23717 0
M  V30 8369 O 1304.89 -7.79853 -6.57286 0
M  V30 8370 O 1305.46 -7.79239 -4.12957 0
M  V30 8371 O 1304.92 -5.63315 -5.29344 0
M  V30 8372 C 1303.98 -4.80255 -6.01876 0
M  V30 8373 C 1304.71 -3.64202 -6.65911 0
M  V30 8374 O 1304.92 -2.60694 -5.64732 0
M  V30 8375 C 1306.11 -3.93473 -7.1943 0
M  V30 8376 O 1306.5 -3.02071 -8.21205 0
M  V30 8377 C 1306.99 -3.73047 -5.97036 0
M  V30 8378 C 1306.28 -2.58828 -5.25741 0
M  V30 8379 N 1306.33 -2.68068 -3.77503 0
M  V30 8380 C 1306.25 -3.79715 -2.96723 0
M  V30 8381 N 1306.33 -3.5377 -1.68852 0
M  V30 8382 C 1306.47 -2.15054 -1.63254 0
M  V30 8383 C 1306.6 -1.28964 -0.518571 0
M  V30 8384 N 1306.72 0.0538097 -0.918425 0
M  V30 8385 C 1306.72 0.494275 -2.22578 0
M  V30 8386 N 1306.85 1.81086 -2.40434 0
M  V30 8387 N 1306.59 -0.313645 -3.27502 0
M  V30 8388 C 1306.47 -1.61829 -2.91033 0
M  V30 8389 H 1303.49 -5.40332 -6.79951 0
M  V30 8390 H 1303.22 -4.41613 -5.32378 0
M  V30 8391 H 1304.09 -3.26331 -7.47797 0
M  V30 8392 P 1308.05 -2.75334 -8.47391 0
M  V30 8393 O 1308.27 -2.44571 -9.90142 0
M  V30 8394 O 1308.84 -3.87688 -7.92115 0
M  V30 8395 O 1308.3 -1.4459 -7.59357 0
M  V30 8396 C 1307.36 -0.347608 -7.69215 0
M  V30 8397 C 1308.09 0.96767 -7.52806 0
M  V30 8398 O 1308.3 1.21036 -6.1011 0
M  V30 8399 C 1309.49 1.04544 -8.13308 0
M  V30 8400 O 1309.88 2.38311 -8.41922 0
M  V30 8401 C 1310.37 0.491279 -7.02284 0
M  V30 8402 C 1309.66 0.996264 -5.77469 0
M  V30 8403 N 1309.71 0.0501916 -4.62973 0
M  V30 8404 H 1306.87 -0.374722 -8.67691 0
M  V30 8405 H 1306.6 -0.443485 -6.90277 0
M  V30 8406 H 1307.47 1.75537 -7.96793 0
M  V30 8407 P 1311.43 2.75334 -8.47391 0
M  V30 8408 O 1311.65 3.84128 -9.44797 0
M  V30 8409 O 1312.22 1.51947 -8.68712 0
M  V30 8410 O 1311.68 3.29363 -6.99321 0
M  V30 8411 C 1310.74 4.24011 -6.4274 0
M  V30 8412 C 1311.47 5.20775 -5.52155 0
M  V30 8413 O 1311.68 4.56534 -4.22446 0
M  V30 8414 C 1312.87 5.62629 -5.96531 0
M  V30 8415 O 1313.26 6.87667 -5.41053 0
M  V30 8416 C 1313.75 4.52537 -5.39283 0
M  V30 8417 C 1313.04 4.20027 -4.08623 0
M  V30 8418 N 1313.09 2.76189 -3.71603 0
M  V30 8419 H 1310.25 4.797 -7.24003 0
M  V30 8420 H 1309.98 3.69856 -5.84513 0
M  V30 8421 H 1310.85 6.10356 -5.41441 0
M  V30 8422 P 1314.81 7.20834 -5.23717 0
M  V30 8423 O 1315.03 8.66104 -5.38572 0
M  V30 8424 O 1315.6 6.33544 -6.1349 0
M  V30 8425 O 1315.06 6.7751 -3.72168 0
M  V30 8426 C 1314.12 7.20825 -2.7076 0
M  V30 8427 C 1314.85 7.45864 -1.40599 0
M  V30 8428 O 1315.06 6.17651 -0.734225 0
M  V30 8429 C 1316.25 8.05808 -1.51899 0
M  V30 8430 O 1316.64 8.74358 -0.335205 0
M  V30 8431 C 1317.13 6.83093 -1.70294 0
M  V30 8432 C 1316.42 5.79992 -0.836974 0
M  V30 8433 N 1316.47 4.41864 -1.38293 0
M  V30 8434 H 1313.63 8.13644 -3.0377 0
M  V30 8435 H 1313.36 6.42788 -2.55485 0
M  V30 8436 H 1314.23 8.12039 -0.792769 0
M  V30 8437 P 1318.19 8.91 1.04876e-11 0
M  V30 8438 O 1318.41 10.1726 0.733694 0
M  V30 8439 O 1318.98 8.73148 -1.23936 0
M  V30 8440 O 1318.44 7.66872 0.971405 0
M  V30 8441 C 1317.5 7.42309 2.04641 0
M  V30 8442 C 1318.23 6.86059 3.24661 0
M  V30 8443 O 1318.44 5.42847 3.03646 0
M  V30 8444 C 1319.63 7.41196 3.50753 0
M  V30 8445 O 1320.02 7.27073 4.86816 0
M  V30 8446 C 1320.51 6.5273 2.63741 0
M  V30 8447 C 1319.8 5.1842 2.73198 0
M  V30 8448 N 1319.85 4.38762 1.4784 0
M  V30 8449 H 1317.01 8.36803 2.32493 0
M  V30 8450 H 1316.74 6.70197 1.71129 0
M  V30 8451 H 1317.61 7.03551 4.13168 0
M  V30 8452 P 1321.57 7.20834 5.23717 0
M  V30 8453 O 1321.79 7.79853 6.57286 0
M  V30 8454 O 1322.36 7.79239 4.12957 0
M  V30 8455 O 1321.82 5.63315 5.29344 0
M  V30 8456 C 1320.88 4.80255 6.01876 0
M  V30 8457 C 1321.61 3.64202 6.65911 0
M  V30 8458 O 1321.82 2.60694 5.64732 0
M  V30 8459 C 1323.01 3.93473 7.1943 0
M  V30 8460 O 1323.4 3.02071 8.21205 0
M  V30 8461 C 1323.89 3.73047 5.97036 0
M  V30 8462 C 1323.18 2.58828 5.25741 0
M  V30 8463 N 1323.23 2.68068 3.77503 0
M  V30 8464 H 1320.39 5.40332 6.79951 0
M  V30 8465 H 1320.12 4.41613 5.32378 0
M  V30 8466 H 1320.99 3.26331 7.47797 0
M  V30 8467 P 1324.95 2.75334 8.47391 0
M  V30 8468 O 1325.17 2.44571 9.90142 0
M  V30 8469 O 1325.74 3.87688 7.92115 0
M  V30 8470 O 1325.2 1.4459 7.59357 0
M  V30 8471 C 1324.26 0.347608 7.69215 0
M  V30 8472 C 1324.99 -0.96767 7.52806 0
M  V30 8473 O 1325.2 -1.21036 6.1011 0
M  V30 8474 C 1326.39 -1.04544 8.13308 0
M  V30 8475 O 1326.78 -2.38311 8.41922 0
M  V30 8476 C 1327.27 -0.491279 7.02284 0
M  V30 8477 C 1326.56 -0.996264 5.77469 0
M  V30 8478 N 1326.61 -0.0501916 4.62973 0
M  V30 8479 H 1323.77 0.374722 8.67691 0
M  V30 8480 H 1323.5 0.443485 6.90277 0
M  V30 8481 H 1324.37 -1.75537 7.96793 0
M  V30 8482 P 1328.33 -2.75334 8.47391 0
M  V30 8483 O 1328.55 -3.84128 9.44797 0
M  V30 8484 O 1329.12 -1.51947 8.68712 0
M  V30 8485 O 1328.58 -3.29363 6.99321 0
M  V30 8486 C 1327.64 -4.24011 6.4274 0
M  V30 8487 C 1328.37 -5.20775 5.52155 0
M  V30 8488 O 1328.58 -4.56534 4.22446 0
M  V30 8489 C 1329.77 -5.62629 5.96531 0
M  V30 8490 O 1330.16 -6.87667 5.41053 0
M  V30 8491 C 1330.65 -4.52537 5.39283 0
M  V30 8492 C 1329.94 -4.20027 4.08623 0
M  V30 8493 N 1329.99 -2.76189 3.71603 0
M  V30 8494 H 1327.15 -4.797 7.24003 0
M  V30 8495 H 1326.88 -3.69856 5.84513 0
M  V30 8496 H 1327.75 -6.10356 5.41441 0
M  V30 8497 P 1331.71 -7.20834 5.23717 0
M  V30 8498 O 1331.93 -8.66104 5.38572 0
M  V30 8499 O 1332.5 -6.33544 6.1349 0
M  V30 8500 O 1331.96 -6.7751 3.72168 0
M  V30 8501 C 1331.02 -7.20825 2.7076 0
M  V30 8502 C 1331.75 -7.45864 1.40599 0
M  V30 8503 O 1331.96 -6.17651 0.734225 0
M  V30 8504 C 1333.15 -8.05808 1.51899 0
M  V30 8505 O 1333.54 -8.74358 0.335205 0
M  V30 8506 C 1334.03 -6.83093 1.70294 0
M  V30 8507 C 1333.32 -5.79992 0.836974 0
M  V30 8508 N 1333.37 -4.41864 1.38293 0
M  V30 8509 H 1330.53 -8.13644 3.0377 0
M  V30 8510 H 1330.26 -6.42788 2.55485 0
M  V30 8511 H 1331.13 -8.12039 0.792769 0
M  V30 8512 P 1335.09 -8.91 -1.06447e-11 0
M  V30 8513 O 1335.31 -10.1726 -0.733694 0
M  V30 8514 O 1335.88 -8.73148 1.23936 0
M  V30 8515 O 1335.34 -7.66872 -0.971405 0
M  V30 8516 C 1334.4 -7.42309 -2.04641 0
M  V30 8517 C 1335.13 -6.86059 -3.24661 0
M  V30 8518 O 1335.34 -5.42847 -3.03646 0
M  V30 8519 C 1336.53 -7.41196 -3.50753 0
M  V30 8520 O 1336.92 -7.27073 -4.86816 0
M  V30 8521 C 1337.41 -6.5273 -2.63741 0
M  V30 8522 C 1336.7 -5.1842 -2.73198 0
M  V30 8523 N 1336.75 -4.38762 -1.4784 0
M  V30 8524 H 1333.91 -8.36803 -2.32493 0
M  V30 8525 H 1333.64 -6.70197 -1.71129 0
M  V30 8526 H 1334.51 -7.03551 -4.13168 0
M  V30 8527 P 1338.47 -7.20834 -5.23717 0
M  V30 8528 O 1338.69 -7.7993 -6.57351 0
M  V30 8529 O 1339.26 -7.79328 -4.13004 0
M  V30 8530 O 1338.72 -5.63315 -5.29344 0
M  V30 8531 C 1337.78 -4.80255 -6.01876 0
M  V30 8532 C 1338.51 -3.64202 -6.65911 0
M  V30 8533 O 1338.72 -2.60694 -5.64732 0
M  V30 8534 C 1339.91 -3.93473 -7.1943 0
M  V30 8535 O 1340.3 -3.02071 -8.21205 0
M  V30 8536 C 1340.79 -3.73047 -5.97036 0
M  V30 8537 C 1340.08 -2.58828 -5.25741 0
M  V30 8538 N 1340.13 -2.6801 -3.77422 0
M  V30 8539 C 1340.28 -1.50173 -3.05038 0
M  V30 8540 O 1340.37 -0.428832 -3.665 0
M  V30 8541 N 1340.33 -1.70922 -1.55541 0
M  V30 8542 C 1340.23 -2.7407 -1.06402 0
M  V30 8543 N 1340.28 -2.74764 0.260931 0
M  V30 8544 C 1340.08 -3.96781 -1.78296 0
M  V30 8545 C 1340.03 -3.87909 -3.13891 0
M  V30 8546 H 1337.29 -5.4027 -6.79873 0
M  V30 8547 H 1337.02 -4.41549 -5.32301 0
M  V30 8548 H 1337.89 -3.26371 -7.47889 0
M  V30 8549 H 1340.55 -1.63978 -5.5665 0
M  V30 8550 H 1340.82 -4.63439 -5.3432 0
M  V30 8551 H 1341.82 -3.44728 -6.25838 0
M  V30 8552 H 1339.98 -4.96652 -7.57263 0
M  V30 8553 H 1339.91 -4.78425 -3.73088 0
M  V30 8554 H 1340.01 -4.92593 -1.26997 0
M  V30 8555 H 1340.4 -1.86285 0.77595 0
M  V30 8556 H 1340.2 -3.63657 0.773896 0
M  V30 8557 P 1341.85 -2.75334 -8.47391 0
M  V30 8558 O 1342.07 -2.44571 -9.90142 0
M  V30 8559 O 1342.64 -3.87688 -7.92115 0
M  V30 8560 O 1342.1 -1.4459 -7.59357 0
M  V30 8561 C 1341.16 -0.347608 -7.69215 0
M  V30 8562 C 1341.89 0.96767 -7.52806 0
M  V30 8563 O 1342.1 1.21036 -6.1011 0
M  V30 8564 C 1343.29 1.04544 -8.13308 0
M  V30 8565 O 1343.68 2.38311 -8.41922 0
M  V30 8566 C 1344.17 0.491279 -7.02284 0
M  V30 8567 C 1343.46 0.996264 -5.77469 0
M  V30 8568 N 1343.51 0.0501916 -4.62973 0
M  V30 8569 H 1340.67 -0.374722 -8.67691 0
M  V30 8570 H 1340.4 -0.443485 -6.90277 0
M  V30 8571 H 1341.27 1.75537 -7.96793 0
M  V30 8572 P 1345.23 2.75334 -8.47391 0
M  V30 8573 O 1345.45 3.84128 -9.44797 0
M  V30 8574 O 1346.02 1.51947 -8.68712 0
M  V30 8575 O 1345.48 3.29363 -6.99321 0
M  V30 8576 C 1344.54 4.24011 -6.4274 0
M  V30 8577 C 1345.27 5.20775 -5.52155 0
M  V30 8578 O 1345.48 4.56534 -4.22446 0
M  V30 8579 C 1346.67 5.62629 -5.96531 0
M  V30 8580 O 1347.06 6.87667 -5.41053 0
M  V30 8581 C 1347.55 4.52537 -5.39283 0
M  V30 8582 C 1346.84 4.20027 -4.08623 0
M  V30 8583 N 1346.89 2.76189 -3.71603 0
M  V30 8584 H 1344.05 4.797 -7.24003 0
M  V30 8585 H 1343.78 3.69856 -5.84513 0
M  V30 8586 H 1344.65 6.10356 -5.41441 0
M  V30 8587 P 1348.61 7.20834 -5.23717 0
M  V30 8588 O 1348.83 8.66189 -5.38625 0
M  V30 8589 O 1349.4 6.33615 -6.1356 0
M  V30 8590 O 1348.86 6.7751 -3.72168 0
M  V30 8591 C 1347.92 7.20732 -2.70725 0
M  V30 8592 C 1348.65 7.45864 -1.40599 0
M  V30 8593 O 1348.86 6.17651 -0.734225 0
M  V30 8594 C 1350.05 8.05808 -1.51899 0
M  V30 8595 O 1350.44 8.74358 -0.335205 0
M  V30 8596 C 1350.93 6.83093 -1.70294 0
M  V30 8597 C 1350.22 5.79992 -0.836974 0
M  V30 8598 N 1350.27 4.41769 -1.38263 0
M  V30 8599 C 1350.42 3.38591 -0.481702 0
M  V30 8600 O 1350.51 3.56839 0.718452 0
M  V30 8601 N 1350.46 2.1206 -1.03569 0
M  V30 8602 C 1350.37 1.80696 -2.36966 0
M  V30 8603 C 1350.22 2.94845 -3.23898 0
M  V30 8604 C 1350.17 4.19803 -2.73435 0
M  V30 8605 H 1347.43 8.13644 -3.0377 0
M  V30 8606 H 1347.16 6.42695 -2.55448 0
M  V30 8607 H 1348.03 8.12039 -0.792769 0
M  V30 8608 H 1350.69 5.79978 0.160587 0
M  V30 8609 H 1350.96 6.51379 -2.75643 0
M  V30 8610 H 1351.96 7.01734 -1.34462 0
M  V30 8611 H 1350.12 8.73674 -2.38337 0
M  V30 8612 H 1350.05 5.04492 -3.4095 0
M  V30 8613 P 1351.99 8.91 1.08019e-11 0
M  V30 8614 O 1352.21 10.1726 0.733694 0
M  V30 8615 O 1352.78 8.73148 -1.23936 0
M  V30 8616 O 1352.24 7.66872 0.971405 0
M  V30 8617 C 1351.3 7.42309 2.04641 0
M  V30 8618 C 1352.03 6.86059 3.24661 0
M  V30 8619 O 1352.24 5.42847 3.03646 0
M  V30 8620 C 1353.43 7.41196 3.50753 0
M  V30 8621 O 1353.82 7.27073 4.86816 0
M  V30 8622 C 1354.31 6.5273 2.63741 0
M  V30 8623 C 1353.6 5.1842 2.73198 0
M  V30 8624 N 1353.65 4.38762 1.4784 0
M  V30 8625 H 1350.81 8.36803 2.32493 0
M  V30 8626 H 1350.54 6.70197 1.71129 0
M  V30 8627 H 1351.41 7.03551 4.13168 0
M  V30 8628 P 1355.37 7.20834 5.23717 0
M  V30 8629 O 1355.59 7.79853 6.57286 0
M  V30 8630 O 1356.16 7.79239 4.12957 0
M  V30 8631 O 1355.62 5.63315 5.29344 0
M  V30 8632 C 1354.68 4.80255 6.01876 0
M  V30 8633 C 1355.41 3.64202 6.65911 0
M  V30 8634 O 1355.62 2.60694 5.64732 0
M  V30 8635 C 1356.81 3.93473 7.1943 0
M  V30 8636 O 1357.2 3.02071 8.21205 0
M  V30 8637 C 1357.69 3.73047 5.97036 0
M  V30 8638 C 1356.98 2.58828 5.25741 0
M  V30 8639 N 1357.03 2.68068 3.77503 0
M  V30 8640 H 1354.19 5.40332 6.79951 0
M  V30 8641 H 1353.92 4.41613 5.32378 0
M  V30 8642 H 1354.79 3.26331 7.47797 0
M  V30 8643 P 1358.75 2.75334 8.47391 0
M  V30 8644 O 1358.97 2.44571 9.90142 0
M  V30 8645 O 1359.54 3.87688 7.92115 0
M  V30 8646 O 1359 1.4459 7.59357 0
M  V30 8647 C 1358.06 0.347608 7.69215 0
M  V30 8648 C 1358.79 -0.96767 7.52806 0
M  V30 8649 O 1359 -1.21036 6.1011 0
M  V30 8650 C 1360.19 -1.04544 8.13308 0
M  V30 8651 O 1360.58 -2.38311 8.41922 0
M  V30 8652 C 1361.07 -0.491279 7.02284 0
M  V30 8653 C 1360.36 -0.996264 5.77469 0
M  V30 8654 N 1360.41 -0.0501916 4.62973 0
M  V30 8655 H 1357.57 0.374722 8.67691 0
M  V30 8656 H 1357.3 0.443485 6.90277 0
M  V30 8657 H 1358.17 -1.75537 7.96793 0
M  V30 8658 P 1362.13 -2.75334 8.47391 0
M  V30 8659 O 1362.35 -3.84166 9.4489 0
M  V30 8660 O 1362.92 -1.51964 8.6881 0
M  V30 8661 O 1362.38 -3.29363 6.99321 0
M  V30 8662 C 1361.44 -4.23956 6.42656 0
M  V30 8663 C 1362.17 -5.20775 5.52155 0
M  V30 8664 O 1362.38 -4.56534 4.22446 0
M  V30 8665 C 1363.57 -5.62629 5.96531 0
M  V30 8666 O 1363.96 -6.87667 5.41053 0
M  V30 8667 C 1364.45 -4.52537 5.39283 0
M  V30 8668 C 1363.74 -4.20027 4.08623 0
M  V30 8669 N 1363.79 -2.7613 3.71522 0
M  V30 8670 C 1363.94 -2.45612 2.37989 0
M  V30 8671 O 1364.03 -3.30919 1.51621 0
M  V30 8672 N 1363.98 -1.10684 2.08435 0
M  V30 8673 C 1363.89 -0.0690084 2.9792 0
M  V30 8674 O 1363.94 1.10553 2.59426 0
M  V30 8675 C 1363.74 -0.481522 4.35345 0
M  V30 8676 C 1363.63 0.618778 5.36443 0
M  V30 8677 C 1363.69 -1.78906 4.67968 0
M  V30 8678 H 1360.95 -4.797 7.24003 0
M  V30 8679 H 1360.68 -3.69802 5.84429 0
M  V30 8680 H 1361.55 -6.10356 5.41441 0
M  V30 8681 H 1364.2 -4.78651 3.27911 0
M  V30 8682 H 1364.48 -3.64957 6.05871 0
M  V30 8683 H 1365.48 -4.8868 5.2125 0
M  V30 8684 H 1363.64 -5.66726 7.06352 0
M  V30 8685 H 1363.57 -2.07737 5.72367 0
M  V30 8686 H 1364.6 0.754375 5.86871 0
M  V30 8687 H 1362.86 0.359721 6.10641 0
M  V30 8688 H 1363.35 1.55533 4.8581 0
M  V30 8689 H 1364.09 -0.862651 1.12037 0
M  V30 8690 P 1365.51 -7.20834 5.23717 0
M  V30 8691 O 1365.73 -8.66189 5.38625 0
M  V30 8692 O 1366.3 -6.33615 6.1356 0
M  V30 8693 O 1365.76 -6.7751 3.72168 0
M  V30 8694 C 1364.82 -7.20732 2.70725 0
M  V30 8695 C 1365.55 -7.45864 1.40599 0
M  V30 8696 O 1365.76 -6.17651 0.734225 0
M  V30 8697 C 1366.95 -8.05808 1.51899 0
M  V30 8698 O 1367.34 -8.74358 0.335205 0
M  V30 8699 C 1367.83 -6.83093 1.70294 0
M  V30 8700 C 1367.12 -5.79992 0.836974 0
M  V30 8701 N 1367.17 -4.41769 1.38263 0
M  V30 8702 C 1367.32 -3.38591 0.481702 0
M  V30 8703 O 1367.41 -3.56839 -0.718452 0
M  V30 8704 N 1367.36 -2.1206 1.03569 0
M  V30 8705 C 1367.27 -1.80696 2.36966 0
M  V30 8706 O 1367.32 -0.630473 2.74862 0
M  V30 8707 C 1367.12 -2.94845 3.23898 0
M  V30 8708 C 1367.01 -2.65253 4.70362 0
M  V30 8709 C 1367.07 -4.19803 2.73435 0
M  V30 8710 H 1364.33 -8.13644 3.0377 0
M  V30 8711 H 1364.06 -6.42695 2.55448 0
M  V30 8712 H 1364.93 -8.12039 0.792769 0
M  V30 8713 H 1367.58 -5.79978 -0.160587 0
M  V30 8714 H 1367.86 -6.51379 2.75643 0
M  V30 8715 H 1368.86 -7.01734 1.34462 0
M  V30 8716 H 1367.02 -8.73674 2.38337 0
M  V30 8717 H 1366.95 -5.04492 3.4095 0
M  V30 8718 H 1367.98 -2.83924 5.1913 0
M  V30 8719 H 1366.24 -3.29824 5.15163 0
M  V30 8720 H 1366.73 -1.59723 4.84449 0
M  V30 8721 H 1367.47 -1.35644 0.399345 0
M  V30 8722 P 1368.89 -8.91 -1.09591e-11 0
M  V30 8723 O 1369.11 -10.1746 -0.733838 0
M  V30 8724 O 1369.68 -8.73346 1.23964 0
M  V30 8725 O 1369.14 -7.66872 -0.971405 0
M  V30 8726 C 1368.2 -7.42405 -2.04668 0
M  V30 8727 C 1368.93 -6.86059 -3.24661 0
M  V30 8728 O 1369.14 -5.42934 -3.03695 0
M  V30 8729 C 1370.33 -7.41287 -3.50796 0
M  V30 8730 O 1370.72 -7.27073 -4.86816 0
M  V30 8731 C 1371.21 -6.5273 -2.63741 0
M  V30 8732 C 1370.5 -5.1842 -2.73198 0
M  V30 8733 N 1370.55 -4.38762 -1.4784 0
M  V30 8734 C 1370.47 -4.83651 -0.183876 0
M  V30 8735 N 1370.54 -3.88759 0.699393 0
M  V30 8736 C 1370.69 -2.7404 -0.0575568 0
M  V30 8737 C 1370.82 -1.37902 0.293928 0
M  V30 8738 N 1370.83 -0.938021 1.54797 0
M  V30 8739 N 1370.94 -0.491817 -0.70549 0
M  V30 8740 C 1370.93 -0.931735 -1.95979 0
M  V30 8741 N 1370.81 -2.16017 -2.41481 0
M  V30 8742 C 1370.69 -3.02547 -1.39121 0
M  V30 8743 H 1367.71 -8.36899 -2.3252 0
M  V30 8744 H 1367.44 -6.70391 -1.71179 0
M  V30 8745 H 1368.31 -7.03638 -4.13219 0
M  V30 8746 H 1370.96 -4.59931 -3.54016 0
M  V30 8747 H 1371.24 -6.88995 -1.59871 0
M  V30 8748 H 1372.24 -6.4684 -3.0373 0
M  V30 8749 H 1370.4 -8.47002 -3.20749 0
M  V30 8750 H 1370.36 -5.8885 0.0765548 0
M  V30 8751 H 1370.74 -1.60276 2.32875 0
M  V30 8752 H 1370.93 0.0699355 1.73859 0
M  V30 8753 H 1371.04 -0.165507 -2.71897 0
M  V30 8754 P 1372.27 -7.20834 -5.23717 0
M  V30 8755 O 1372.49 -7.79853 -6.57286 0
M  V30 8756 O 1373.06 -7.79239 -4.12957 0
M  V30 8757 O 1372.52 -5.63315 -5.29344 0
M  V30 8758 C 1371.58 -4.80255 -6.01876 0
M  V30 8759 C 1372.31 -3.64202 -6.65911 0
M  V30 8760 O 1372.52 -2.60694 -5.64732 0
M  V30 8761 C 1373.71 -3.93473 -7.1943 0
M  V30 8762 O 1374.1 -3.02071 -8.21205 0
M  V30 8763 C 1374.59 -3.73047 -5.97036 0
M  V30 8764 C 1373.88 -2.58828 -5.25741 0
M  V30 8765 N 1373.93 -2.68068 -3.77503 0
M  V30 8766 H 1371.09 -5.40332 -6.79951 0
M  V30 8767 H 1370.82 -4.41613 -5.32378 0
M  V30 8768 H 1371.69 -3.26331 -7.47797 0
M  V30 8769 P 1375.65 -2.75334 -8.47391 0
M  V30 8770 O 1375.87 -2.44571 -9.90142 0
M  V30 8771 O 1376.44 -3.87688 -7.92115 0
M  V30 8772 O 1375.9 -1.4459 -7.59357 0
M  V30 8773 C 1374.96 -0.347608 -7.69215 0
M  V30 8774 C 1375.69 0.96767 -7.52806 0
M  V30 8775 O 1375.9 1.21036 -6.1011 0
M  V30 8776 C 1377.09 1.04544 -8.13308 0
M  V30 8777 O 1377.48 2.38311 -8.41922 0
M  V30 8778 C 1377.97 0.491279 -7.02284 0
M  V30 8779 C 1377.26 0.996264 -5.77469 0
M  V30 8780 N 1377.31 0.0501916 -4.62973 0
M  V30 8781 H 1374.47 -0.374722 -8.67691 0
M  V30 8782 H 1374.2 -0.443485 -6.90277 0
M  V30 8783 H 1375.07 1.75537 -7.96793 0
M  V30 8784 P 1379.03 2.75334 -8.47391 0
M  V30 8785 O 1379.25 3.84204 -9.44982 0
M  V30 8786 O 1379.82 1.51982 -8.68909 0
M  V30 8787 O 1379.28 3.29363 -6.99321 0
M  V30 8788 C 1378.34 4.24066 -6.42823 0
M  V30 8789 C 1379.07 5.20775 -5.52155 0
M  V30 8790 O 1379.28 4.56607 -4.22514 0
M  V30 8791 C 1380.47 5.62697 -5.96604 0
M  V30 8792 O 1380.86 6.87667 -5.41053 0
M  V30 8793 C 1381.35 4.52537 -5.39283 0
M  V30 8794 C 1380.64 4.20027 -4.08623 0
M  V30 8795 N 1380.69 2.76189 -3.71603 0
M  V30 8796 H 1377.85 4.79756 -7.24086 0
M  V30 8797 H 1377.58 3.69963 -5.84682 0
M  V30 8798 H 1378.45 6.10431 -5.41508 0
M  V30 8799 H 1381.1 4.78816 -3.28024 0
M  V30 8800 H 1381.38 3.64957 -6.05871 0
M  V30 8801 H 1382.38 4.88748 -5.21323 0
M  V30 8802 H 1380.54 5.66789 -7.0643 0
M  V30 8803 P 1382.41 7.20834 -5.23717 0
M  V30 8804 O 1382.63 8.66104 -5.38572 0
M  V30 8805 O 1383.2 6.33544 -6.1349 0
M  V30 8806 O 1382.66 6.7751 -3.72168 0
M  V30 8807 C 1381.72 7.20825 -2.7076 0
M  V30 8808 C 1382.45 7.45864 -1.40599 0
M  V30 8809 O 1382.66 6.17651 -0.734225 0
M  V30 8810 C 1383.85 8.05808 -1.51899 0
M  V30 8811 O 1384.24 8.74358 -0.335205 0
M  V30 8812 C 1384.73 6.83093 -1.70294 0
M  V30 8813 C 1384.02 5.79992 -0.836974 0
M  V30 8814 N 1384.07 4.41864 -1.38293 0
M  V30 8815 H 1381.23 8.13644 -3.0377 0
M  V30 8816 H 1380.96 6.42788 -2.55485 0
M  V30 8817 H 1381.83 8.12039 -0.792769 0
M  V30 8818 P 1385.79 8.91 1.03566e-11 0
M  V30 8819 O 1386.01 10.1726 0.733694 0
M  V30 8820 O 1386.58 8.73148 -1.23936 0
M  V30 8821 O 1386.04 7.66872 0.971405 0
M  V30 8822 C 1385.1 7.42309 2.04641 0
M  V30 8823 C 1385.83 6.86059 3.24661 0
M  V30 8824 O 1386.04 5.42847 3.03646 0
M  V30 8825 C 1387.23 7.41196 3.50753 0
M  V30 8826 O 1387.62 7.27073 4.86816 0
M  V30 8827 C 1388.11 6.5273 2.63741 0
M  V30 8828 C 1387.4 5.1842 2.73198 0
M  V30 8829 N 1387.45 4.38762 1.4784 0
M  V30 8830 H 1384.61 8.36803 2.32493 0
M  V30 8831 H 1384.34 6.70197 1.71129 0
M  V30 8832 H 1385.21 7.03551 4.13168 0
M  V30 8833 P 1389.17 7.20834 5.23717 0
M  V30 8834 O 1389.39 7.79853 6.57286 0
M  V30 8835 O 1389.96 7.79239 4.12957 0
M  V30 8836 O 1389.42 5.63315 5.29344 0
M  V30 8837 C 1388.48 4.80255 6.01876 0
M  V30 8838 C 1389.21 3.64202 6.65911 0
M  V30 8839 O 1389.42 2.60694 5.64732 0
M  V30 8840 C 1390.61 3.93473 7.1943 0
M  V30 8841 O 1391 3.02071 8.21205 0
M  V30 8842 C 1391.49 3.73047 5.97036 0
M  V30 8843 C 1390.78 2.58828 5.25741 0
M  V30 8844 N 1390.83 2.68068 3.77503 0
M  V30 8845 H 1387.99 5.40332 6.79951 0
M  V30 8846 H 1387.72 4.41613 5.32378 0
M  V30 8847 H 1388.59 3.26331 7.47797 0
M  V30 8848 P 1392.55 2.75334 8.47391 0
M  V30 8849 O 1392.77 2.44571 9.90142 0
M  V30 8850 O 1393.34 3.87688 7.92115 0
M  V30 8851 O 1392.8 1.4459 7.59357 0
M  V30 8852 C 1391.86 0.347608 7.69215 0
M  V30 8853 C 1392.59 -0.96767 7.52806 0
M  V30 8854 O 1392.8 -1.21036 6.1011 0
M  V30 8855 C 1393.99 -1.04544 8.13308 0
M  V30 8856 O 1394.38 -2.38311 8.41922 0
M  V30 8857 C 1394.87 -0.491279 7.02284 0
M  V30 8858 C 1394.16 -0.996264 5.77469 0
M  V30 8859 N 1394.21 -0.0501916 4.62973 0
M  V30 8860 H 1391.37 0.374722 8.67691 0
M  V30 8861 H 1391.1 0.443485 6.90277 0
M  V30 8862 H 1391.97 -1.75537 7.96793 0
M  V30 8863 P 1395.93 -2.75334 8.47391 0
M  V30 8864 O 1396.15 -3.84128 9.44797 0
M  V30 8865 O 1396.72 -1.51947 8.68712 0
M  V30 8866 O 1396.18 -3.29363 6.99321 0
M  V30 8867 C 1395.24 -4.24011 6.4274 0
M  V30 8868 C 1395.97 -5.20775 5.52155 0
M  V30 8869 O 1396.18 -4.56534 4.22446 0
M  V30 8870 C 1397.37 -5.62629 5.96531 0
M  V30 8871 O 1397.76 -6.87667 5.41053 0
M  V30 8872 C 1398.25 -4.52537 5.39283 0
M  V30 8873 C 1397.54 -4.20027 4.08623 0
M  V30 8874 N 1397.59 -2.76189 3.71603 0
M  V30 8875 H 1394.75 -4.797 7.24003 0
M  V30 8876 H 1394.48 -3.69856 5.84513 0
M  V30 8877 H 1395.35 -6.10356 5.41441 0
M  V30 8878 P 1399.31 -7.20834 5.23717 0
M  V30 8879 O 1399.53 -8.66104 5.38572 0
M  V30 8880 O 1400.1 -6.33544 6.1349 0
M  V30 8881 O 1399.56 -6.7751 3.72168 0
M  V30 8882 C 1398.62 -7.20825 2.7076 0
M  V30 8883 C 1399.35 -7.45864 1.40599 0
M  V30 8884 O 1399.56 -6.17651 0.734225 0
M  V30 8885 C 1400.75 -8.05808 1.51899 0
M  V30 8886 O 1401.14 -8.74358 0.335205 0
M  V30 8887 C 1401.63 -6.83093 1.70294 0
M  V30 8888 C 1400.92 -5.79992 0.836974 0
M  V30 8889 N 1400.97 -4.41864 1.38293 0
M  V30 8890 H 1398.13 -8.13644 3.0377 0
M  V30 8891 H 1397.86 -6.42788 2.55485 0
M  V30 8892 H 1398.73 -8.12039 0.792769 0
M  V30 8893 P 1402.69 -8.91 -9.24756e-12 0
M  V30 8894 O 1402.91 -10.1726 -0.733694 0
M  V30 8895 O 1403.48 -8.73148 1.23936 0
M  V30 8896 O 1402.94 -7.66872 -0.971405 0
M  V30 8897 C 1402 -7.42309 -2.04641 0
M  V30 8898 C 1402.73 -6.86059 -3.24661 0
M  V30 8899 O 1402.94 -5.42847 -3.03646 0
M  V30 8900 C 1404.13 -7.41196 -3.50753 0
M  V30 8901 O 1404.52 -7.27073 -4.86816 0
M  V30 8902 C 1405.01 -6.5273 -2.63741 0
M  V30 8903 C 1404.3 -5.1842 -2.73198 0
M  V30 8904 N 1404.35 -4.38762 -1.4784 0
M  V30 8905 C 1404.27 -4.81605 -0.168631 0
M  V30 8906 N 1404.35 -3.85454 0.713363 0
M  V30 8907 C 1404.49 -2.6994 -0.0566958 0
M  V30 8908 C 1404.62 -1.34815 0.338502 0
M  V30 8909 O 1404.64 -0.869548 1.47125 0
M  V30 8910 N 1404.74 -0.496304 -0.77465 0
M  V30 8911 C 1404.74 -0.908403 -2.09122 0
M  V30 8912 N 1404.87 0.0517805 -3.00955 0
M  V30 8913 N 1404.61 -2.17875 -2.46519 0
M  V30 8914 C 1404.49 -3.01988 -1.4033 0
M  V30 8915 H 1401.51 -8.36803 -2.32493 0
M  V30 8916 H 1401.24 -6.70197 -1.71129 0
M  V30 8917 H 1402.11 -7.03551 -4.13168 0
M  V30 8918 H 1404.76 -4.59498 -3.54415 0
M  V30 8919 H 1405.04 -6.88898 -1.59848 0
M  V30 8920 H 1406.04 -6.46749 -3.03687 0
M  V30 8921 H 1404.2 -8.46908 -3.20714 0
M  V30 8922 H 1404.15 -5.86405 0.105564 0
M  V30 8923 H 1404.83 0.483664 -0.597855 0
M  V30 8924 H 1404.87 -0.187865 -4.0116 0
M  V30 8925 H 1404.97 1.03585 -2.71726 0
M  V30 8926 P 1406.07 -7.20834 -5.23717 0
M  V30 8927 O 1406.29 -7.79853 -6.57286 0
M  V30 8928 O 1406.86 -7.79239 -4.12957 0
M  V30 8929 O 1406.32 -5.63315 -5.29344 0
M  V30 8930 C 1405.38 -4.80255 -6.01876 0
M  V30 8931 C 1406.11 -3.64202 -6.65911 0
M  V30 8932 O 1406.32 -2.60694 -5.64732 0
M  V30 8933 C 1407.51 -3.93473 -7.1943 0
M  V30 8934 O 1407.9 -3.02071 -8.21205 0
M  V30 8935 C 1408.39 -3.73047 -5.97036 0
M  V30 8936 C 1407.68 -2.58828 -5.25741 0
M  V30 8937 N 1407.73 -2.68068 -3.77503 0
M  V30 8938 H 1404.89 -5.40332 -6.79951 0
M  V30 8939 H 1404.62 -4.41613 -5.32378 0
M  V30 8940 H 1405.49 -3.26331 -7.47797 0
M  V30 8941 P 1409.45 -2.75334 -8.47391 0
M  V30 8942 O 1409.67 -2.44595 -9.90239 0
M  V30 8943 O 1410.24 -3.87732 -7.92204 0
M  V30 8944 O 1409.7 -1.4459 -7.59357 0
M  V30 8945 C 1408.76 -0.347608 -7.69215 0
M  V30 8946 C 1409.49 0.96767 -7.52806 0
M  V30 8947 O 1409.7 1.21036 -6.1011 0
M  V30 8948 C 1410.89 1.04544 -8.13308 0
M  V30 8949 O 1411.28 2.38311 -8.41922 0
M  V30 8950 C 1411.77 0.491279 -7.02284 0
M  V30 8951 C 1411.06 0.996264 -5.77469 0
M  V30 8952 N 1411.11 0.0501808 -4.62873 0
M  V30 8953 C 1411.26 0.578037 -3.3505 0
M  V30 8954 O 1411.35 1.8073 -3.21711 0
M  V30 8955 N 1411.31 -0.468541 -2.263 0
M  V30 8956 C 1411.21 -1.59186 -2.47176 0
M  V30 8957 N 1411.26 -2.37626 -1.40392 0
M  V30 8958 C 1411.06 -2.16203 -3.77467 0
M  V30 8959 C 1411.01 -1.29324 -4.8195 0
M  V30 8960 H 1408.27 -0.374679 -8.67591 0
M  V30 8961 H 1408 -0.443421 -6.90177 0
M  V30 8962 H 1408.87 1.75559 -7.96891 0
M  V30 8963 H 1411.52 1.94529 -5.46723 0
M  V30 8964 H 1411.8 -0.608651 -7.04676 0
M  V30 8965 H 1412.8 0.889672 -7.08939 0
M  V30 8966 H 1410.96 0.43308 -9.04564 0
M  V30 8967 H 1410.89 -1.67758 -5.83046 0
M  V30 8968 H 1410.99 -3.23869 -3.92281 0
M  V30 8969 H 1411.38 -1.96317 -0.467202 0
M  V30 8970 H 1411.18 -3.39693 -1.51142 0
M  V30 8971 P 1412.83 2.75334 -8.47391 0
M  V30 8972 O 1413.05 3.84128 -9.44797 0
M  V30 8973 O 1413.62 1.51947 -8.68712 0
M  V30 8974 O 1413.08 3.29363 -6.99321 0
M  V30 8975 C 1412.14 4.24011 -6.4274 0
M  V30 8976 C 1412.87 5.20775 -5.52155 0
M  V30 8977 O 1413.08 4.56534 -4.22446 0
M  V30 8978 C 1414.27 5.62629 -5.96531 0
M  V30 8979 O 1414.66 6.87667 -5.41053 0
M  V30 8980 C 1415.15 4.52537 -5.39283 0
M  V30 8981 C 1414.44 4.20027 -4.08623 0
M  V30 8982 N 1414.49 2.76189 -3.71603 0
M  V30 8983 H 1411.65 4.797 -7.24003 0
M  V30 8984 H 1411.38 3.69856 -5.84513 0
M  V30 8985 H 1412.25 6.10356 -5.41441 0
M  V30 8986 P 1416.21 7.20834 -5.23717 0
M  V30 8987 O 1416.43 8.66104 -5.38572 0
M  V30 8988 O 1417 6.33544 -6.1349 0
M  V30 8989 O 1416.46 6.7751 -3.72168 0
M  V30 8990 C 1415.52 7.20825 -2.7076 0
M  V30 8991 C 1416.25 7.45864 -1.40599 0
M  V30 8992 O 1416.46 6.17651 -0.734225 0
M  V30 8993 C 1417.65 8.05808 -1.51899 0
M  V30 8994 O 1418.04 8.74358 -0.335205 0
M  V30 8995 C 1418.53 6.83093 -1.70294 0
M  V30 8996 C 1417.82 5.79992 -0.836974 0
M  V30 8997 N 1417.87 4.41864 -1.38293 0
M  V30 8998 H 1415.03 8.13644 -3.0377 0
M  V30 8999 H 1414.76 6.42788 -2.55485 0
M  V30 9000 H 1415.63 8.12039 -0.792769 0
M  V30 9001 P 1419.59 8.91 8.13856e-12 0
M  V30 9002 O 1419.81 10.1726 0.733694 0
M  V30 9003 O 1420.38 8.73148 -1.23936 0
M  V30 9004 O 1419.84 7.66872 0.971405 0
M  V30 9005 C 1418.9 7.42309 2.04641 0
M  V30 9006 C 1419.63 6.86059 3.24661 0
M  V30 9007 O 1419.84 5.42847 3.03646 0
M  V30 9008 C 1421.03 7.41196 3.50753 0
M  V30 9009 O 1421.42 7.27073 4.86816 0
M  V30 9010 C 1421.91 6.5273 2.63741 0
M  V30 9011 C 1421.2 5.1842 2.73198 0
M  V30 9012 N 1421.25 4.38762 1.4784 0
M  V30 9013 H 1418.41 8.36803 2.32493 0
M  V30 9014 H 1418.14 6.70197 1.71129 0
M  V30 9015 H 1419.01 7.03551 4.13168 0
M  V30 9016 P 1422.97 7.20834 5.23717 0
M  V30 9017 O 1423.19 7.79853 6.57286 0
M  V30 9018 O 1423.76 7.79239 4.12957 0
M  V30 9019 O 1423.22 5.63315 5.29344 0
M  V30 9020 C 1422.28 4.80255 6.01876 0
M  V30 9021 C 1423.01 3.64202 6.65911 0
M  V30 9022 O 1423.22 2.60694 5.64732 0
M  V30 9023 C 1424.41 3.93473 7.1943 0
M  V30 9024 O 1424.8 3.02071 8.21205 0
M  V30 9025 C 1425.29 3.73047 5.97036 0
M  V30 9026 C 1424.58 2.58828 5.25741 0
M  V30 9027 N 1424.63 2.68068 3.77503 0
M  V30 9028 H 1421.79 5.40332 6.79951 0
M  V30 9029 H 1421.52 4.41613 5.32378 0
M  V30 9030 H 1422.39 3.26331 7.47797 0
M  V30 9031 P 1426.35 2.75334 8.47391 0
M  V30 9032 O 1426.57 2.44571 9.90142 0
M  V30 9033 O 1427.14 3.87688 7.92115 0
M  V30 9034 O 1426.6 1.4459 7.59357 0
M  V30 9035 C 1425.66 0.347608 7.69215 0
M  V30 9036 C 1426.39 -0.96767 7.52806 0
M  V30 9037 O 1426.6 -1.21036 6.1011 0
M  V30 9038 C 1427.79 -1.04544 8.13308 0
M  V30 9039 O 1428.18 -2.38311 8.41922 0
M  V30 9040 C 1428.67 -0.491279 7.02284 0
M  V30 9041 C 1427.96 -0.996264 5.77469 0
M  V30 9042 N 1428.01 -0.0501916 4.62973 0
M  V30 9043 H 1425.17 0.374722 8.67691 0
M  V30 9044 H 1424.9 0.443485 6.90277 0
M  V30 9045 H 1425.77 -1.75537 7.96793 0
M  V30 9046 P 1429.73 -2.75334 8.47391 0
M  V30 9047 O 1429.95 -3.84204 9.44982 0
M  V30 9048 O 1430.52 -1.51982 8.68909 0
M  V30 9049 O 1429.98 -3.29363 6.99321 0
M  V30 9050 C 1429.04 -4.24066 6.42823 0
M  V30 9051 C 1429.77 -5.20775 5.52155 0
M  V30 9052 O 1429.98 -4.56607 4.22514 0
M  V30 9053 C 1431.17 -5.62697 5.96604 0
M  V30 9054 O 1431.56 -6.87667 5.41053 0
M  V30 9055 C 1432.05 -4.52537 5.39283 0
M  V30 9056 C 1431.34 -4.20027 4.08623 0
M  V30 9057 N 1431.39 -2.76189 3.71603 0
M  V30 9058 H 1428.55 -4.79756 7.24086 0
M  V30 9059 H 1428.28 -3.69963 5.84682 0
M  V30 9060 H 1429.15 -6.10431 5.41508 0
M  V30 9061 H 1431.8 -4.78816 3.28024 0
M  V30 9062 H 1432.08 -3.64957 6.05871 0
M  V30 9063 H 1433.08 -4.88748 5.21323 0
M  V30 9064 H 1431.24 -5.66789 7.0643 0
M  V30 9065 P 1433.11 -7.20834 5.23717 0
M  V30 9066 O 1433.33 -8.66104 5.38572 0
M  V30 9067 O 1433.9 -6.33544 6.1349 0
M  V30 9068 O 1433.36 -6.7751 3.72168 0
M  V30 9069 C 1432.42 -7.20825 2.7076 0
M  V30 9070 C 1433.15 -7.45864 1.40599 0
M  V30 9071 O 1433.36 -6.17651 0.734225 0
M  V30 9072 C 1434.55 -8.05808 1.51899 0
M  V30 9073 O 1434.94 -8.74358 0.335205 0
M  V30 9074 C 1435.43 -6.83093 1.70294 0
M  V30 9075 C 1434.72 -5.79992 0.836974 0
M  V30 9076 N 1434.77 -4.41864 1.38293 0
M  V30 9077 H 1431.93 -8.13644 3.0377 0
M  V30 9078 H 1431.66 -6.42788 2.55485 0
M  V30 9079 H 1432.53 -8.12039 0.792769 0
M  V30 9080 P 1436.49 -8.91 -7.02955e-12 0
M  V30 9081 O 1436.71 -10.1726 -0.733694 0
M  V30 9082 O 1437.28 -8.73148 1.23936 0
M  V30 9083 O 1436.74 -7.66872 -0.971405 0
M  V30 9084 C 1435.8 -7.42309 -2.04641 0
M  V30 9085 C 1436.53 -6.86059 -3.24661 0
M  V30 9086 O 1436.74 -5.42847 -3.03646 0
M  V30 9087 C 1437.93 -7.41196 -3.50753 0
M  V30 9088 O 1438.32 -7.27073 -4.86816 0
M  V30 9089 C 1438.81 -6.5273 -2.63741 0
M  V30 9090 C 1438.1 -5.1842 -2.73198 0
M  V30 9091 N 1438.15 -4.38762 -1.4784 0
M  V30 9092 H 1435.31 -8.36803 -2.32493 0
M  V30 9093 H 1435.04 -6.70197 -1.71129 0
M  V30 9094 H 1435.91 -7.03551 -4.13168 0
M  V30 9095 P 1439.87 -7.20834 -5.23717 0
M  V30 9096 O 1440.09 -7.79853 -6.57286 0
M  V30 9097 O 1440.66 -7.79239 -4.12957 0
M  V30 9098 O 1440.12 -5.63315 -5.29344 0
M  V30 9099 C 1439.18 -4.80255 -6.01876 0
M  V30 9100 C 1439.91 -3.64202 -6.65911 0
M  V30 9101 O 1440.12 -2.60694 -5.64732 0
M  V30 9102 C 1441.31 -3.93473 -7.1943 0
M  V30 9103 O 1441.7 -3.02071 -8.21205 0
M  V30 9104 C 1442.19 -3.73047 -5.97036 0
M  V30 9105 C 1441.48 -2.58828 -5.25741 0
M  V30 9106 N 1441.53 -2.68068 -3.77503 0
M  V30 9107 H 1438.69 -5.40332 -6.79951 0
M  V30 9108 H 1438.42 -4.41613 -5.32378 0
M  V30 9109 H 1439.29 -3.26331 -7.47797 0
M  V30 9110 P 1443.25 -2.75334 -8.47391 0
M  V30 9111 O 1443.47 -2.44571 -9.90142 0
M  V30 9112 O 1444.04 -3.87688 -7.92115 0
M  V30 9113 O 1443.5 -1.4459 -7.59357 0
M  V30 9114 C 1442.56 -0.347608 -7.69215 0
M  V30 9115 C 1443.29 0.96767 -7.52806 0
M  V30 9116 O 1443.5 1.21036 -6.1011 0
M  V30 9117 C 1444.69 1.04544 -8.13308 0
M  V30 9118 O 1445.08 2.38311 -8.41922 0
M  V30 9119 C 1445.57 0.491279 -7.02284 0
M  V30 9120 C 1444.86 0.996264 -5.77469 0
M  V30 9121 N 1444.91 0.0501916 -4.62973 0
M  V30 9122 H 1442.07 -0.374722 -8.67691 0
M  V30 9123 H 1441.8 -0.443485 -6.90277 0
M  V30 9124 H 1442.67 1.75537 -7.96793 0
M  V30 9125 P 1446.63 2.75334 -8.47391 0
M  V30 9126 O 1446.85 3.84204 -9.44982 0
M  V30 9127 O 1447.42 1.51982 -8.68909 0
M  V30 9128 O 1446.88 3.29363 -6.99321 0
M  V30 9129 C 1445.94 4.24066 -6.42823 0
M  V30 9130 C 1446.67 5.20775 -5.52155 0
M  V30 9131 O 1446.88 4.56607 -4.22514 0
M  V30 9132 C 1448.07 5.62697 -5.96604 0
M  V30 9133 O 1448.46 6.87667 -5.41053 0
M  V30 9134 C 1448.95 4.52537 -5.39283 0
M  V30 9135 C 1448.24 4.20027 -4.08623 0
M  V30 9136 N 1448.29 2.76189 -3.71603 0
M  V30 9137 C 1448.21 1.66944 -4.54297 0
M  V30 9138 N 1448.28 0.536169 -3.91344 0
M  V30 9139 C 1448.43 0.901569 -2.58849 0
M  V30 9140 C 1448.56 0.146599 -1.40236 0
M  V30 9141 N 1448.57 -1.18234 -1.37046 0
M  V30 9142 N 1448.68 0.822941 -0.249738 0
M  V30 9143 C 1448.67 2.15179 -0.280525 0
M  V30 9144 N 1448.55 2.96414 -1.30822 0
M  V30 9145 C 1448.43 2.25804 -2.44748 0
M  V30 9146 H 1445.45 4.79756 -7.24086 0
M  V30 9147 H 1445.18 3.69963 -5.84682 0
M  V30 9148 H 1446.05 6.10431 -5.41508 0
M  V30 9149 H 1448.7 4.78816 -3.28024 0
M  V30 9150 H 1448.98 3.64957 -6.05871 0
M  V30 9151 H 1449.98 4.88748 -5.21323 0
M  V30 9152 H 1448.14 5.66789 -7.0643 0
M  V30 9153 H 1448.1 1.74684 -5.62396 0
M  V30 9154 H 1448.48 -1.71949 -2.24394 0
M  V30 9155 H 1448.67 -1.67511 -0.470742 0
M  V30 9156 H 1448.78 2.63704 0.6828 0
M  V30 9157 P 1450.01 7.20834 -5.23717 0
M  V30 9158 O 1450.23 8.66104 -5.38572 0
M  V30 9159 O 1450.8 6.33544 -6.1349 0
M  V30 9160 O 1450.26 6.7751 -3.72168 0
M  V30 9161 C 1449.32 7.20825 -2.7076 0
M  V30 9162 C 1450.05 7.45864 -1.40599 0
M  V30 9163 O 1450.26 6.17651 -0.734225 0
M  V30 9164 C 1451.45 8.05808 -1.51899 0
M  V30 9165 O 1451.84 8.74358 -0.335205 0
M  V30 9166 C 1452.33 6.83093 -1.70294 0
M  V30 9167 C 1451.62 5.79992 -0.836974 0
M  V30 9168 N 1451.67 4.41864 -1.38293 0
M  V30 9169 H 1448.83 8.13644 -3.0377 0
M  V30 9170 H 1448.56 6.42788 -2.55485 0
M  V30 9171 H 1449.43 8.12039 -0.792769 0
M  V30 9172 P 1453.39 8.91 5.92055e-12 0
M  V30 9173 O 1453.61 10.1726 0.733694 0
M  V30 9174 O 1454.18 8.73148 -1.23936 0
M  V30 9175 O 1453.64 7.66872 0.971405 0
M  V30 9176 C 1452.7 7.42309 2.04641 0
M  V30 9177 C 1453.43 6.86059 3.24661 0
M  V30 9178 O 1453.64 5.42847 3.03646 0
M  V30 9179 C 1454.83 7.41196 3.50753 0
M  V30 9180 O 1455.22 7.27073 4.86816 0
M  V30 9181 C 1455.71 6.5273 2.63741 0
M  V30 9182 C 1455 5.1842 2.73198 0
M  V30 9183 N 1455.05 4.38762 1.4784 0
M  V30 9184 C 1454.97 4.81605 0.168631 0
M  V30 9185 N 1455.05 3.85454 -0.713363 0
M  V30 9186 C 1455.19 2.6994 0.0566958 0
M  V30 9187 C 1455.32 1.34815 -0.338502 0
M  V30 9188 N 1455.44 0.496304 0.77465 0
M  V30 9189 C 1455.44 0.908403 2.09122 0
M  V30 9190 N 1455.57 -0.0517805 3.00955 0
M  V30 9191 N 1455.31 2.17875 2.46519 0
M  V30 9192 C 1455.19 3.01988 1.4033 0
M  V30 9193 H 1452.21 8.36803 2.32493 0
M  V30 9194 H 1451.94 6.70197 1.71129 0
M  V30 9195 H 1452.81 7.03551 4.13168 0
M  V30 9196 P 1456.77 7.20834 5.23717 0
M  V30 9197 O 1456.99 7.79853 6.57286 0
M  V30 9198 O 1457.56 7.79239 4.12957 0
M  V30 9199 O 1457.02 5.63315 5.29344 0
M  V30 9200 C 1456.08 4.80255 6.01876 0
M  V30 9201 C 1456.81 3.64202 6.65911 0
M  V30 9202 O 1457.02 2.60694 5.64732 0
M  V30 9203 C 1458.21 3.93473 7.1943 0
M  V30 9204 O 1458.6 3.02071 8.21205 0
M  V30 9205 C 1459.09 3.73047 5.97036 0
M  V30 9206 C 1458.38 2.58828 5.25741 0
M  V30 9207 N 1458.43 2.68068 3.77503 0
M  V30 9208 C 1458.35 3.79715 2.96723 0
M  V30 9209 N 1458.43 3.5377 1.68852 0
M  V30 9210 C 1458.57 2.15054 1.63254 0
M  V30 9211 C 1458.7 1.28964 0.518571 0
M  V30 9212 O 1458.72 1.56826 -0.679156 0
M  V30 9213 N 1458.82 -0.0538097 0.918425 0
M  V30 9214 C 1458.82 -0.494275 2.22578 0
M  V30 9215 N 1458.95 -1.81086 2.40434 0
M  V30 9216 N 1458.69 0.313645 3.27502 0
M  V30 9217 C 1458.57 1.61829 2.91033 0
M  V30 9218 H 1455.59 5.40332 6.79951 0
M  V30 9219 H 1455.32 4.41613 5.32378 0
M  V30 9220 H 1456.19 3.26331 7.47797 0
M  V30 9221 H 1458.84 1.63422 5.56814 0
M  V30 9222 H 1459.12 4.63374 5.34244 0
M  V30 9223 H 1460.12 3.44728 6.25838 0
M  V30 9224 H 1458.28 4.96652 7.57263 0
M  V30 9225 H 1458.23 4.80617 3.3614 0
M  V30 9226 H 1458.91 -0.742702 0.199384 0
M  V30 9227 H 1458.95 -2.20598 3.35588 0
M  V30 9228 H 1459.05 -2.43518 1.58945 0
M  V30 9229 P 1460.15 2.75334 8.47391 0
M  V30 9230 O 1460.37 2.44571 9.90142 0
M  V30 9231 O 1460.94 3.87688 7.92115 0
M  V30 9232 O 1460.4 1.4459 7.59357 0
M  V30 9233 C 1459.46 0.347608 7.69215 0
M  V30 9234 C 1460.19 -0.96767 7.52806 0
M  V30 9235 O 1460.4 -1.21036 6.1011 0
M  V30 9236 C 1461.59 -1.04544 8.13308 0
M  V30 9237 O 1461.98 -2.38311 8.41922 0
M  V30 9238 C 1462.47 -0.491279 7.02284 0
M  V30 9239 C 1461.76 -0.996264 5.77469 0
M  V30 9240 N 1461.81 -0.0501916 4.62973 0
M  V30 9241 H 1458.97 0.374722 8.67691 0
M  V30 9242 H 1458.7 0.443485 6.90277 0
M  V30 9243 H 1459.57 -1.75537 7.96793 0
M  V30 9244 P 1463.53 -2.75334 8.47391 0
M  V30 9245 O 1463.75 -3.84128 9.44797 0
M  V30 9246 O 1464.32 -1.51947 8.68712 0
M  V30 9247 O 1463.78 -3.29363 6.99321 0
M  V30 9248 C 1462.84 -4.24011 6.4274 0
M  V30 9249 C 1463.57 -5.20775 5.52155 0
M  V30 9250 O 1463.78 -4.56534 4.22446 0
M  V30 9251 C 1464.97 -5.62629 5.96531 0
M  V30 9252 O 1465.36 -6.87667 5.41053 0
M  V30 9253 C 1465.85 -4.52537 5.39283 0
M  V30 9254 C 1465.14 -4.20027 4.08623 0
M  V30 9255 N 1465.19 -2.76189 3.71603 0
M  V30 9256 H 1462.35 -4.797 7.24003 0
M  V30 9257 H 1462.08 -3.69856 5.84513 0
M  V30 9258 H 1462.95 -6.10356 5.41441 0
M  V30 9259 P 1466.91 -7.20834 5.23717 0
M  V30 9260 O 1467.13 -8.66274 5.38678 0
M  V30 9261 O 1467.7 -6.33687 6.13629 0
M  V30 9262 O 1467.16 -6.7751 3.72168 0
M  V30 9263 C 1466.22 -7.20919 2.70795 0
M  V30 9264 C 1466.95 -7.45864 1.40599 0
M  V30 9265 O 1467.16 -6.17751 0.734343 0
M  V30 9266 C 1468.35 -8.05906 1.51917 0
M  V30 9267 O 1468.74 -8.74358 0.335205 0
M  V30 9268 C 1469.23 -6.83093 1.70294 0
M  V30 9269 C 1468.52 -5.79992 0.836974 0
M  V30 9270 N 1468.57 -4.41864 1.38293 0
M  V30 9271 C 1468.49 -4.02089 2.69407 0
M  V30 9272 N 1468.56 -2.73403 2.85089 0
M  V30 9273 C 1468.71 -2.25086 1.5642 0
M  V30 9274 C 1468.84 -0.942887 1.04836 0
M  V30 9275 N 1468.85 0.150999 1.80369 0
M  V30 9276 N 1468.96 -0.812565 -0.28167 0
M  V30 9277 C 1468.95 -1.90572 -1.03784 0
M  V30 9278 N 1468.83 -3.167 -0.683905 0
M  V30 9279 C 1468.71 -3.26538 0.652815 0
M  V30 9280 H 1465.73 -8.13738 3.03804 0
M  V30 9281 H 1465.46 -6.42974 2.55559 0
M  V30 9282 H 1466.33 -8.12139 0.792866 0
M  V30 9283 H 1468.98 -5.80178 -0.160643 0
M  V30 9284 H 1469.26 -6.51379 2.75643 0
M  V30 9285 H 1470.26 -7.01832 1.3448 0
M  V30 9286 H 1468.42 -8.73771 2.38364 0
M  V30 9287 H 1468.38 -4.7189 3.52311 0
M  V30 9288 H 1468.76 0.0721434 2.82608 0
M  V30 9289 H 1468.95 1.0785 1.36544 0
M  V30 9290 H 1469.06 -1.73207 -2.10241 0
M  V30 9291 P 1470.29 -8.91 -4.81154e-12 0
M  V30 9292 O 1470.51 -10.1726 -0.733694 0
M  V30 9293 O 1471.08 -8.73148 1.23936 0
M  V30 9294 O 1470.54 -7.66872 -0.971405 0
M  V30 9295 C 1469.6 -7.42309 -2.04641 0
M  V30 9296 C 1470.33 -6.86059 -3.24661 0
M  V30 9297 O 1470.54 -5.42847 -3.03646 0
M  V30 9298 C 1471.73 -7.41196 -3.50753 0
M  V30 9299 O 1472.12 -7.27073 -4.86816 0
M  V30 9300 C 1472.61 -6.5273 -2.63741 0
M  V30 9301 C 1471.9 -5.1842 -2.73198 0
M  V30 9302 N 1471.95 -4.38762 -1.4784 0
M  V30 9303 H 1469.11 -8.36803 -2.32493 0
M  V30 9304 H 1468.84 -6.70197 -1.71129 0
M  V30 9305 H 1469.71 -7.03551 -4.13168 0
M  V30 9306 P 1473.67 -7.20834 -5.23717 0
M  V30 9307 O 1473.89 -7.79853 -6.57286 0
M  V30 9308 O 1474.46 -7.79239 -4.12957 0
M  V30 9309 O 1473.92 -5.63315 -5.29344 0
M  V30 9310 C 1472.98 -4.80255 -6.01876 0
M  V30 9311 C 1473.71 -3.64202 -6.65911 0
M  V30 9312 O 1473.92 -2.60694 -5.64732 0
M  V30 9313 C 1475.11 -3.93473 -7.1943 0
M  V30 9314 O 1475.5 -3.02071 -8.21205 0
M  V30 9315 C 1475.99 -3.73047 -5.97036 0
M  V30 9316 C 1475.28 -2.58828 -5.25741 0
M  V30 9317 N 1475.33 -2.68068 -3.77503 0
M  V30 9318 H 1472.49 -5.40332 -6.79951 0
M  V30 9319 H 1472.22 -4.41613 -5.32378 0
M  V30 9320 H 1473.09 -3.26331 -7.47797 0
M  V30 9321 P 1477.05 -2.75334 -8.47391 0
M  V30 9322 O 1477.27 -2.44571 -9.90142 0
M  V30 9323 O 1477.84 -3.87688 -7.92115 0
M  V30 9324 O 1477.3 -1.4459 -7.59357 0
M  V30 9325 C 1476.36 -0.347608 -7.69215 0
M  V30 9326 C 1477.09 0.96767 -7.52806 0
M  V30 9327 O 1477.3 1.21036 -6.1011 0
M  V30 9328 C 1478.49 1.04544 -8.13308 0
M  V30 9329 O 1478.88 2.38311 -8.41922 0
M  V30 9330 C 1479.37 0.491279 -7.02284 0
M  V30 9331 C 1478.66 0.996264 -5.77469 0
M  V30 9332 N 1478.71 0.0501916 -4.62973 0
M  V30 9333 H 1475.87 -0.374722 -8.67691 0
M  V30 9334 H 1475.6 -0.443485 -6.90277 0
M  V30 9335 H 1476.47 1.75537 -7.96793 0
M  V30 9336 P 1480.43 2.75334 -8.47391 0
M  V30 9337 O 1480.65 3.84128 -9.44797 0
M  V30 9338 O 1481.22 1.51947 -8.68712 0
M  V30 9339 O 1480.68 3.29363 -6.99321 0
M  V30 9340 C 1479.74 4.24011 -6.4274 0
M  V30 9341 C 1480.47 5.20775 -5.52155 0
M  V30 9342 O 1480.68 4.56534 -4.22446 0
M  V30 9343 C 1481.87 5.62629 -5.96531 0
M  V30 9344 O 1482.26 6.87667 -5.41053 0
M  V30 9345 C 1482.75 4.52537 -5.39283 0
M  V30 9346 C 1482.04 4.20027 -4.08623 0
M  V30 9347 N 1482.09 2.76189 -3.71603 0
M  V30 9348 H 1479.25 4.797 -7.24003 0
M  V30 9349 H 1478.98 3.69856 -5.84513 0
M  V30 9350 H 1479.85 6.10356 -5.41441 0
M  V30 9351 P 1483.81 7.20834 -5.23717 0
M  V30 9352 O 1484.03 8.66104 -5.38572 0
M  V30 9353 O 1484.6 6.33544 -6.1349 0
M  V30 9354 O 1484.06 6.7751 -3.72168 0
M  V30 9355 C 1483.12 7.20825 -2.7076 0
M  V30 9356 C 1483.85 7.45864 -1.40599 0
M  V30 9357 O 1484.06 6.17651 -0.734225 0
M  V30 9358 C 1485.25 8.05808 -1.51899 0
M  V30 9359 O 1485.64 8.74358 -0.335205 0
M  V30 9360 C 1486.13 6.83093 -1.70294 0
M  V30 9361 C 1485.42 5.79992 -0.836974 0
M  V30 9362 N 1485.47 4.41864 -1.38293 0
M  V30 9363 H 1482.63 8.13644 -3.0377 0
M  V30 9364 H 1482.36 6.42788 -2.55485 0
M  V30 9365 H 1483.23 8.12039 -0.792769 0
M  V30 9366 P 1487.19 8.91 3.70254e-12 0
M  V30 9367 O 1487.41 10.1726 0.733694 0
M  V30 9368 O 1487.98 8.73148 -1.23936 0
M  V30 9369 O 1487.44 7.66872 0.971405 0
M  V30 9370 C 1486.5 7.42309 2.04641 0
M  V30 9371 C 1487.23 6.86059 3.24661 0
M  V30 9372 O 1487.44 5.42847 3.03646 0
M  V30 9373 C 1488.63 7.41196 3.50753 0
M  V30 9374 O 1489.02 7.27073 4.86816 0
M  V30 9375 C 1489.51 6.5273 2.63741 0
M  V30 9376 C 1488.8 5.1842 2.73198 0
M  V30 9377 N 1488.85 4.38762 1.4784 0
M  V30 9378 H 1486.01 8.36803 2.32493 0
M  V30 9379 H 1485.74 6.70197 1.71129 0
M  V30 9380 H 1486.61 7.03551 4.13168 0
M  V30 9381 P 1490.57 7.20834 5.23717 0
M  V30 9382 O 1490.79 7.79853 6.57286 0
M  V30 9383 O 1491.36 7.79239 4.12957 0
M  V30 9384 O 1490.82 5.63315 5.29344 0
M  V30 9385 C 1489.88 4.80255 6.01876 0
M  V30 9386 C 1490.61 3.64202 6.65911 0
M  V30 9387 O 1490.82 2.60694 5.64732 0
M  V30 9388 C 1492.01 3.93473 7.1943 0
M  V30 9389 O 1492.4 3.02071 8.21205 0
M  V30 9390 C 1492.89 3.73047 5.97036 0
M  V30 9391 C 1492.18 2.58828 5.25741 0
M  V30 9392 N 1492.23 2.68068 3.77503 0
M  V30 9393 H 1489.39 5.40332 6.79951 0
M  V30 9394 H 1489.12 4.41613 5.32378 0
M  V30 9395 H 1489.99 3.26331 7.47797 0
M  V30 9396 P 1493.95 2.75334 8.47391 0
M  V30 9397 O 1494.17 2.44571 9.90142 0
M  V30 9398 O 1494.74 3.87688 7.92115 0
M  V30 9399 O 1494.2 1.4459 7.59357 0
M  V30 9400 C 1493.26 0.347608 7.69215 0
M  V30 9401 C 1493.99 -0.96767 7.52806 0
M  V30 9402 O 1494.2 -1.21036 6.1011 0
M  V30 9403 C 1495.39 -1.04544 8.13308 0
M  V30 9404 O 1495.78 -2.38311 8.41922 0
M  V30 9405 C 1496.27 -0.491279 7.02284 0
M  V30 9406 C 1495.56 -0.996264 5.77469 0
M  V30 9407 N 1495.61 -0.0501916 4.62973 0
M  V30 9408 H 1492.77 0.374722 8.67691 0
M  V30 9409 H 1492.5 0.443485 6.90277 0
M  V30 9410 H 1493.37 -1.75537 7.96793 0
M  V30 9411 P 1497.33 -2.75334 8.47391 0
M  V30 9412 O 1497.55 -3.84128 9.44797 0
M  V30 9413 O 1498.12 -1.51947 8.68712 0
M  V30 9414 O 1497.58 -3.29363 6.99321 0
M  V30 9415 C 1496.64 -4.24011 6.4274 0
M  V30 9416 C 1497.37 -5.20775 5.52155 0
M  V30 9417 O 1497.58 -4.56534 4.22446 0
M  V30 9418 C 1498.77 -5.62629 5.96531 0
M  V30 9419 O 1499.16 -6.87667 5.41053 0
M  V30 9420 C 1499.65 -4.52537 5.39283 0
M  V30 9421 C 1498.94 -4.20027 4.08623 0
M  V30 9422 N 1498.99 -2.76189 3.71603 0
M  V30 9423 H 1496.15 -4.797 7.24003 0
M  V30 9424 H 1495.88 -3.69856 5.84513 0
M  V30 9425 H 1496.75 -6.10356 5.41441 0
M  V30 9426 P 1500.71 -7.20834 5.23717 0
M  V30 9427 O 1500.93 -8.66104 5.38572 0
M  V30 9428 O 1501.5 -6.33544 6.1349 0
M  V30 9429 O 1500.96 -6.7751 3.72168 0
M  V30 9430 C 1500.02 -7.20825 2.7076 0
M  V30 9431 C 1500.75 -7.45864 1.40599 0
M  V30 9432 O 1500.96 -6.17651 0.734225 0
M  V30 9433 C 1502.15 -8.05808 1.51899 0
M  V30 9434 O 1502.54 -8.74358 0.335205 0
M  V30 9435 C 1503.03 -6.83093 1.70294 0
M  V30 9436 C 1502.32 -5.79992 0.836974 0
M  V30 9437 N 1502.37 -4.41864 1.38293 0
M  V30 9438 H 1499.53 -8.13644 3.0377 0
M  V30 9439 H 1499.26 -6.42788 2.55485 0
M  V30 9440 H 1500.13 -8.12039 0.792769 0
M  V30 9441 P 1504.09 -8.91 -2.59353e-12 0
M  V30 9442 O 1504.31 -10.1726 -0.733694 0
M  V30 9443 O 1504.88 -8.73148 1.23936 0
M  V30 9444 O 1504.34 -7.66872 -0.971405 0
M  V30 9445 C 1503.4 -7.42309 -2.04641 0
M  V30 9446 C 1504.13 -6.86059 -3.24661 0
M  V30 9447 O 1504.34 -5.42847 -3.03646 0
M  V30 9448 C 1505.53 -7.41196 -3.50753 0
M  V30 9449 O 1505.92 -7.27073 -4.86816 0
M  V30 9450 C 1506.41 -6.5273 -2.63741 0
M  V30 9451 C 1505.7 -5.1842 -2.73198 0
M  V30 9452 N 1505.75 -4.38762 -1.4784 0
M  V30 9453 H 1502.91 -8.36803 -2.32493 0
M  V30 9454 H 1502.64 -6.70197 -1.71129 0
M  V30 9455 H 1503.51 -7.03551 -4.13168 0
M  V30 9456 P 1507.47 -7.20834 -5.23717 0
M  V30 9457 O 1507.69 -7.80006 -6.57415 0
M  V30 9458 O 1508.26 -7.79416 -4.13051 0
M  V30 9459 O 1507.72 -5.63315 -5.29344 0
M  V30 9460 C 1506.78 -4.80318 -6.01954 0
M  V30 9461 C 1507.51 -3.64202 -6.65911 0
M  V30 9462 O 1507.72 -2.60736 -5.64823 0
M  V30 9463 C 1508.91 -3.93521 -7.19518 0
M  V30 9464 O 1509.3 -3.02071 -8.21205 0
M  V30 9465 C 1509.79 -3.73047 -5.97036 0
M  V30 9466 C 1509.08 -2.58828 -5.25741 0
M  V30 9467 N 1509.13 -2.68068 -3.77503 0
M  V30 9468 H 1506.29 -5.40394 -6.8003 0
M  V30 9469 H 1506.02 -4.41741 -5.32532 0
M  V30 9470 H 1506.89 -3.26371 -7.47889 0
M  V30 9471 H 1509.54 -1.64007 -5.56746 0
M  V30 9472 H 1509.82 -4.63439 -5.3432 0
M  V30 9473 H 1510.82 -3.44776 -6.25925 0
M  V30 9474 H 1508.98 -4.96707 -7.57347 0
M  V30 9475 P 1510.85 -2.75334 -8.47391 0
M  V30 9476 O 1511.07 -2.44571 -9.90142 0
M  V30 9477 O 1511.64 -3.87688 -7.92115 0
M  V30 9478 O 1511.1 -1.4459 -7.59357 0
M  V30 9479 C 1510.16 -0.347608 -7.69215 0
M  V30 9480 C 1510.89 0.96767 -7.52806 0
M  V30 9481 O 1511.1 1.21036 -6.1011 0
M  V30 9482 C 1512.29 1.04544 -8.13308 0
M  V30 9483 O 1512.68 2.38311 -8.41922 0
M  V30 9484 C 1513.17 0.491279 -7.02284 0
M  V30 9485 C 1512.46 0.996264 -5.77469 0
M  V30 9486 N 1512.51 0.0501916 -4.62973 0
M  V30 9487 H 1509.67 -0.374722 -8.67691 0
M  V30 9488 H 1509.4 -0.443485 -6.90277 0
M  V30 9489 H 1510.27 1.75537 -7.96793 0
M  V30 9490 P 1514.23 2.75334 -8.47391 0
M  V30 9491 O 1514.45 3.84128 -9.44797 0
M  V30 9492 O 1515.02 1.51947 -8.68712 0
M  V30 9493 O 1514.48 3.29363 -6.99321 0
M  V30 9494 C 1513.54 4.24011 -6.4274 0
M  V30 9495 C 1514.27 5.20775 -5.52155 0
M  V30 9496 O 1514.48 4.56534 -4.22446 0
M  V30 9497 C 1515.67 5.62629 -5.96531 0
M  V30 9498 O 1516.06 6.87667 -5.41053 0
M  V30 9499 C 1516.55 4.52537 -5.39283 0
M  V30 9500 C 1515.84 4.20027 -4.08623 0
M  V30 9501 N 1515.89 2.76189 -3.71603 0
M  V30 9502 H 1513.05 4.797 -7.24003 0
M  V30 9503 H 1512.78 3.69856 -5.84513 0
M  V30 9504 H 1513.65 6.10356 -5.41441 0
M  V30 9505 P 1517.61 7.20834 -5.23717 0
M  V30 9506 O 1517.83 8.66274 -5.38678 0
M  V30 9507 O 1518.4 6.33687 -6.13629 0
M  V30 9508 O 1517.86 6.7751 -3.72168 0
M  V30 9509 C 1516.92 7.20919 -2.70795 0
M  V30 9510 C 1517.65 7.45864 -1.40599 0
M  V30 9511 O 1517.86 6.17751 -0.734343 0
M  V30 9512 C 1519.05 8.05906 -1.51917 0
M  V30 9513 O 1519.44 8.74358 -0.335205 0
M  V30 9514 C 1519.93 6.83093 -1.70294 0
M  V30 9515 C 1519.22 5.79992 -0.836974 0
M  V30 9516 N 1519.27 4.41864 -1.38293 0
M  V30 9517 C 1519.19 4.02089 -2.69407 0
M  V30 9518 N 1519.26 2.73403 -2.85089 0
M  V30 9519 C 1519.41 2.25086 -1.5642 0
M  V30 9520 C 1519.54 0.942887 -1.04836 0
M  V30 9521 N 1519.55 -0.150999 -1.80369 0
M  V30 9522 N 1519.66 0.812565 0.28167 0
M  V30 9523 C 1519.65 1.90572 1.03784 0
M  V30 9524 N 1519.53 3.167 0.683905 0
M  V30 9525 C 1519.41 3.26538 -0.652815 0
M  V30 9526 H 1516.43 8.13738 -3.03804 0
M  V30 9527 H 1516.16 6.42974 -2.55559 0
M  V30 9528 H 1517.03 8.12139 -0.792866 0
M  V30 9529 H 1519.68 5.80178 0.160643 0
M  V30 9530 H 1519.96 6.51379 -2.75643 0
M  V30 9531 H 1520.96 7.01832 -1.3448 0
M  V30 9532 H 1519.12 8.73771 -2.38364 0
M  V30 9533 H 1519.08 4.7189 -3.52311 0
M  V30 9534 H 1519.46 -0.0721434 -2.82608 0
M  V30 9535 H 1519.65 -1.0785 -1.36544 0
M  V30 9536 H 1519.76 1.73207 2.10241 0
M  V30 9537 P 1520.99 8.91 1.48453e-12 0
M  V30 9538 O 1521.21 10.1726 0.733694 0
M  V30 9539 O 1521.78 8.73148 -1.23936 0
M  V30 9540 O 1521.24 7.66872 0.971405 0
M  V30 9541 C 1520.3 7.42309 2.04641 0
M  V30 9542 C 1521.03 6.86059 3.24661 0
M  V30 9543 O 1521.24 5.42847 3.03646 0
M  V30 9544 C 1522.43 7.41196 3.50753 0
M  V30 9545 O 1522.82 7.27073 4.86816 0
M  V30 9546 C 1523.31 6.5273 2.63741 0
M  V30 9547 C 1522.6 5.1842 2.73198 0
M  V30 9548 N 1522.65 4.38762 1.4784 0
M  V30 9549 H 1519.81 8.36803 2.32493 0
M  V30 9550 H 1519.54 6.70197 1.71129 0
M  V30 9551 H 1520.41 7.03551 4.13168 0
M  V30 9552 P 1524.37 7.20834 5.23717 0
M  V30 9553 O 1524.59 7.80006 6.57415 0
M  V30 9554 O 1525.16 7.79416 4.13051 0
M  V30 9555 O 1524.62 5.63315 5.29344 0
M  V30 9556 C 1523.68 4.80318 6.01954 0
M  V30 9557 C 1524.41 3.64202 6.65911 0
M  V30 9558 O 1524.62 2.60736 5.64823 0
M  V30 9559 C 1525.81 3.93521 7.19518 0
M  V30 9560 O 1526.2 3.02071 8.21205 0
M  V30 9561 C 1526.69 3.73047 5.97036 0
M  V30 9562 C 1525.98 2.58828 5.25741 0
M  V30 9563 N 1526.03 2.68068 3.77503 0
M  V30 9564 H 1523.19 5.40394 6.8003 0
M  V30 9565 H 1522.92 4.41741 5.32532 0
M  V30 9566 H 1523.79 3.26371 7.47889 0
M  V30 9567 H 1526.44 1.64007 5.56746 0
M  V30 9568 H 1526.72 4.63439 5.3432 0
M  V30 9569 H 1527.71 3.44776 6.25925 0
M  V30 9570 H 1525.88 4.96707 7.57347 0
M  V30 9571 P 1527.75 2.75334 8.47391 0
M  V30 9572 O 1527.97 2.44595 9.90239 0
M  V30 9573 O 1528.54 3.87732 7.92204 0
M  V30 9574 O 1528 1.4459 7.59357 0
M  V30 9575 C 1527.06 0.347563 7.69115 0
M  V30 9576 C 1527.79 -0.96767 7.52806 0
M  V30 9577 O 1528 -1.21036 6.1011 0
M  V30 9578 C 1529.19 -1.04544 8.13308 0
M  V30 9579 O 1529.58 -2.38311 8.41922 0
M  V30 9580 C 1530.07 -0.491279 7.02284 0
M  V30 9581 C 1529.36 -0.996264 5.77469 0
M  V30 9582 N 1529.41 -0.0501808 4.62873 0
M  V30 9583 C 1529.56 -0.588177 3.36904 0
M  V30 9584 O 1529.65 -1.78598 3.17173 0
M  V30 9585 N 1529.6 0.329694 2.33686 0
M  V30 9586 C 1529.51 1.6953 2.45079 0
M  V30 9587 O 1529.56 2.41926 1.44899 0
M  V30 9588 C 1529.36 2.16933 3.80505 0
M  V30 9589 C 1529.25 3.65373 3.97621 0
M  V30 9590 C 1529.31 1.30326 4.83752 0
M  V30 9591 H 1526.57 0.374722 8.67691 0
M  V30 9592 H 1526.3 0.443421 6.90177 0
M  V30 9593 H 1527.17 -1.75537 7.96793 0
M  V30 9594 H 1529.82 -1.94496 5.46629 0
M  V30 9595 H 1530.1 0.608651 7.04676 0
M  V30 9596 H 1531.09 -0.889672 7.08939 0
M  V30 9597 H 1529.26 -0.43308 9.04564 0
M  V30 9598 H 1529.19 1.68366 5.8516 0
M  V30 9599 H 1530.22 4.05985 4.30448 0
M  V30 9600 H 1528.48 3.88028 4.72875 0
M  V30 9601 H 1528.97 4.11381 3.01609 0
M  V30 9602 H 1529.71 -0.0393617 1.41345 0
M  V30 9603 P 1531.13 -2.75334 8.47391 0
M  V30 9604 O 1531.35 -3.84128 9.44797 0
M  V30 9605 O 1531.92 -1.51947 8.68712 0
M  V30 9606 O 1531.38 -3.29363 6.99321 0
M  V30 9607 C 1530.44 -4.24011 6.4274 0
M  V30 9608 C 1531.17 -5.20775 5.52155 0
M  V30 9609 O 1531.38 -4.56534 4.22446 0
M  V30 9610 C 1532.57 -5.62629 5.96531 0
M  V30 9611 O 1532.96 -6.87667 5.41053 0
M  V30 9612 C 1533.45 -4.52537 5.39283 0
M  V30 9613 C 1532.74 -4.20027 4.08623 0
M  V30 9614 N 1532.79 -2.76189 3.71603 0
M  V30 9615 H 1529.95 -4.797 7.24003 0
M  V30 9616 H 1529.68 -3.69856 5.84513 0
M  V30 9617 H 1530.55 -6.10356 5.41441 0
M  V30 9618 P 1534.51 -7.20834 5.23717 0
M  V30 9619 O 1534.73 -8.66104 5.38572 0
M  V30 9620 O 1535.3 -6.33544 6.1349 0
M  V30 9621 O 1534.76 -6.7751 3.72168 0
M  V30 9622 C 1533.82 -7.20825 2.7076 0
M  V30 9623 C 1534.55 -7.45864 1.40599 0
M  V30 9624 O 1534.76 -6.17651 0.734225 0
M  V30 9625 C 1535.95 -8.05808 1.51899 0
M  V30 9626 O 1536.34 -8.74358 0.335205 0
M  V30 9627 C 1536.83 -6.83093 1.70294 0
M  V30 9628 C 1536.12 -5.79992 0.836974 0
M  V30 9629 N 1536.17 -4.41864 1.38293 0
M  V30 9630 H 1533.33 -8.13644 3.0377 0
M  V30 9631 H 1533.06 -6.42788 2.55485 0
M  V30 9632 H 1533.93 -8.12039 0.792769 0
M  V30 9633 P 1537.89 -8.91 -3.75525e-13 0
M  V30 9634 O 1538.11 -10.1726 -0.733694 0
M  V30 9635 O 1538.68 -8.73148 1.23936 0
M  V30 9636 O 1538.14 -7.66872 -0.971405 0
M  V30 9637 C 1537.2 -7.42309 -2.04641 0
M  V30 9638 C 1537.93 -6.86059 -3.24661 0
M  V30 9639 O 1538.14 -5.42847 -3.03646 0
M  V30 9640 C 1539.33 -7.41196 -3.50753 0
M  V30 9641 O 1539.72 -7.27073 -4.86816 0
M  V30 9642 C 1540.21 -6.5273 -2.63741 0
M  V30 9643 C 1539.5 -5.1842 -2.73198 0
M  V30 9644 N 1539.55 -4.38762 -1.4784 0
M  V30 9645 H 1536.71 -8.36803 -2.32493 0
M  V30 9646 H 1536.44 -6.70197 -1.71129 0
M  V30 9647 H 1537.31 -7.03551 -4.13168 0
M  V30 9648 P 1541.27 -7.20834 -5.23717 0
M  V30 9649 O 1541.49 -7.79853 -6.57286 0
M  V30 9650 O 1542.06 -7.79239 -4.12957 0
M  V30 9651 O 1541.52 -5.63315 -5.29344 0
M  V30 9652 C 1540.58 -4.80255 -6.01876 0
M  V30 9653 C 1541.31 -3.64202 -6.65911 0
M  V30 9654 O 1541.52 -2.60694 -5.64732 0
M  V30 9655 C 1542.71 -3.93473 -7.1943 0
M  V30 9656 O 1543.1 -3.02071 -8.21205 0
M  V30 9657 C 1543.59 -3.73047 -5.97036 0
M  V30 9658 C 1542.88 -2.58828 -5.25741 0
M  V30 9659 N 1542.93 -2.68068 -3.77503 0
M  V30 9660 H 1540.09 -5.40332 -6.79951 0
M  V30 9661 H 1539.82 -4.41613 -5.32378 0
M  V30 9662 H 1540.69 -3.26331 -7.47797 0
M  V30 9663 P 1544.65 -2.75334 -8.47391 0
M  V30 9664 O 1544.87 -2.44595 -9.90239 0
M  V30 9665 O 1545.44 -3.87732 -7.92204 0
M  V30 9666 O 1544.9 -1.4459 -7.59357 0
M  V30 9667 C 1543.96 -0.347563 -7.69115 0
M  V30 9668 C 1544.69 0.96767 -7.52806 0
M  V30 9669 O 1544.9 1.21036 -6.1011 0
M  V30 9670 C 1546.09 1.04544 -8.13308 0
M  V30 9671 O 1546.48 2.38311 -8.41922 0
M  V30 9672 C 1546.97 0.491279 -7.02284 0
M  V30 9673 C 1546.26 0.996264 -5.77469 0
M  V30 9674 N 1546.31 0.0501808 -4.62873 0
M  V30 9675 C 1546.46 0.588177 -3.36904 0
M  V30 9676 O 1546.55 1.78598 -3.17173 0
M  V30 9677 N 1546.5 -0.329694 -2.33686 0
M  V30 9678 C 1546.41 -1.6953 -2.45079 0
M  V30 9679 C 1546.26 -2.16933 -3.80505 0
M  V30 9680 C 1546.21 -1.30326 -4.83752 0
M  V30 9681 H 1543.47 -0.374722 -8.67691 0
M  V30 9682 H 1543.2 -0.443421 -6.90177 0
M  V30 9683 H 1544.07 1.75537 -7.96793 0
M  V30 9684 H 1546.72 1.94496 -5.46629 0
M  V30 9685 H 1547 -0.608651 -7.04676 0
M  V30 9686 H 1547.99 0.889672 -7.08939 0
M  V30 9687 H 1546.16 0.43308 -9.04564 0
M  V30 9688 H 1546.09 -1.68366 -5.8516 0
M  V30 9689 P 1548.03 2.75334 -8.47391 0
M  V30 9690 O 1548.25 3.84128 -9.44797 0
M  V30 9691 O 1548.82 1.51947 -8.68712 0
M  V30 9692 O 1548.28 3.29363 -6.99321 0
M  V30 9693 C 1547.34 4.24011 -6.4274 0
M  V30 9694 C 1548.07 5.20775 -5.52155 0
M  V30 9695 O 1548.28 4.56534 -4.22446 0
M  V30 9696 C 1549.47 5.62629 -5.96531 0
M  V30 9697 O 1549.86 6.87667 -5.41053 0
M  V30 9698 C 1550.35 4.52537 -5.39283 0
M  V30 9699 C 1549.64 4.20027 -4.08623 0
M  V30 9700 N 1549.69 2.76189 -3.71603 0
M  V30 9701 C 1549.61 1.64862 -4.52822 0
M  V30 9702 N 1549.69 0.512671 -3.88633 0
M  V30 9703 C 1549.83 0.888083 -2.54977 0
M  V30 9704 C 1549.96 0.094668 -1.38677 0
M  V30 9705 O 1549.98 -1.13053 -1.28163 0
M  V30 9706 N 1550.08 0.890102 -0.232633 0
M  V30 9707 C 1550.08 2.26958 -0.21772 0
M  V30 9708 N 1550.21 2.84626 0.97925 0
M  V30 9709 N 1549.95 3.0178 -1.31033 0
M  V30 9710 C 1549.83 2.26781 -2.43843 0
M  V30 9711 H 1546.85 4.797 -7.24003 0
M  V30 9712 H 1546.58 3.69856 -5.84513 0
M  V30 9713 H 1547.45 6.10356 -5.41441 0
M  V30 9714 H 1550.1 4.79061 -3.27488 0
M  V30 9715 H 1550.38 3.64906 -6.05785 0
M  V30 9716 H 1551.37 4.8868 -5.2125 0
M  V30 9717 H 1549.54 5.66726 -7.06352 0
M  V30 9718 H 1549.49 1.71169 -5.60966 0
M  V30 9719 H 1550.17 0.419134 0.644739 0
M  V30 9720 H 1550.21 3.87332 1.06098 0
M  V30 9721 H 1550.31 2.26417 1.82483 0
M  V30 9722 P 1551.41 7.20834 -5.23717 0
M  V30 9723 O 1551.63 8.66104 -5.38572 0
M  V30 9724 O 1552.2 6.33544 -6.1349 0
M  V30 9725 O 1551.66 6.7751 -3.72168 0
M  V30 9726 C 1550.72 7.20825 -2.7076 0
M  V30 9727 C 1551.45 7.45864 -1.40599 0
M  V30 9728 O 1551.66 6.17651 -0.734225 0
M  V30 9729 C 1552.85 8.05808 -1.51899 0
M  V30 9730 O 1553.24 8.74358 -0.335205 0
M  V30 9731 C 1553.73 6.83093 -1.70294 0
M  V30 9732 C 1553.02 5.79992 -0.836974 0
M  V30 9733 N 1553.07 4.41864 -1.38293 0
M  V30 9734 H 1550.23 8.13644 -3.0377 0
M  V30 9735 H 1549.96 6.42788 -2.55485 0
M  V30 9736 H 1550.83 8.12039 -0.792769 0
M  V30 9737 P 1554.79 8.91 -7.3348e-13 0
M  V30 9738 O 1555.01 10.1726 0.733694 0
M  V30 9739 O 1555.58 8.73148 -1.23936 0
M  V30 9740 O 1555.04 7.66872 0.971405 0
M  V30 9741 C 1554.1 7.42309 2.04641 0
M  V30 9742 C 1554.83 6.86059 3.24661 0
M  V30 9743 O 1555.04 5.42847 3.03646 0
M  V30 9744 C 1556.23 7.41196 3.50753 0
M  V30 9745 O 1556.62 7.27073 4.86816 0
M  V30 9746 C 1557.11 6.5273 2.63741 0
M  V30 9747 C 1556.4 5.1842 2.73198 0
M  V30 9748 N 1556.45 4.38762 1.4784 0
M  V30 9749 H 1553.61 8.36803 2.32493 0
M  V30 9750 H 1553.34 6.70197 1.71129 0
M  V30 9751 H 1554.21 7.03551 4.13168 0
M  V30 9752 P 1558.17 7.20834 5.23717 0
M  V30 9753 O 1558.39 7.79853 6.57286 0
M  V30 9754 O 1558.96 7.79239 4.12957 0
M  V30 9755 O 1558.42 5.63315 5.29344 0
M  V30 9756 C 1557.48 4.80255 6.01876 0
M  V30 9757 C 1558.21 3.64202 6.65911 0
M  V30 9758 O 1558.42 2.60694 5.64732 0
M  V30 9759 C 1559.61 3.93473 7.1943 0
M  V30 9760 O 1560 3.02071 8.21205 0
M  V30 9761 C 1560.49 3.73047 5.97036 0
M  V30 9762 C 1559.78 2.58828 5.25741 0
M  V30 9763 N 1559.83 2.68068 3.77503 0
M  V30 9764 H 1556.99 5.40332 6.79951 0
M  V30 9765 H 1556.72 4.41613 5.32378 0
M  V30 9766 H 1557.59 3.26331 7.47797 0
M  V30 9767 P 1561.55 2.75334 8.47391 0
M  V30 9768 O 1561.77 2.44571 9.90142 0
M  V30 9769 O 1562.34 3.87688 7.92115 0
M  V30 9770 O 1561.8 1.4459 7.59357 0
M  V30 9771 C 1560.86 0.347608 7.69215 0
M  V30 9772 C 1561.59 -0.96767 7.52806 0
M  V30 9773 O 1561.8 -1.21036 6.1011 0
M  V30 9774 C 1562.99 -1.04544 8.13308 0
M  V30 9775 O 1563.38 -2.38311 8.41922 0
M  V30 9776 C 1563.87 -0.491279 7.02284 0
M  V30 9777 C 1563.16 -0.996264 5.77469 0
M  V30 9778 N 1563.21 -0.0501916 4.62973 0
M  V30 9779 H 1560.37 0.374722 8.67691 0
M  V30 9780 H 1560.1 0.443485 6.90277 0
M  V30 9781 H 1560.97 -1.75537 7.96793 0
M  V30 9782 P 1564.93 -2.75334 8.47391 0
M  V30 9783 O 1565.15 -3.84166 9.4489 0
M  V30 9784 O 1565.72 -1.51964 8.6881 0
M  V30 9785 O 1565.18 -3.29363 6.99321 0
M  V30 9786 C 1564.24 -4.23956 6.42656 0
M  V30 9787 C 1564.97 -5.20775 5.52155 0
M  V30 9788 O 1565.18 -4.56534 4.22446 0
M  V30 9789 C 1566.37 -5.62629 5.96531 0
M  V30 9790 O 1566.76 -6.87667 5.41053 0
M  V30 9791 C 1567.25 -4.52537 5.39283 0
M  V30 9792 C 1566.54 -4.20027 4.08623 0
M  V30 9793 N 1566.59 -2.7613 3.71522 0
M  V30 9794 C 1566.74 -2.45612 2.37989 0
M  V30 9795 O 1566.83 -3.30919 1.51621 0
M  V30 9796 N 1566.78 -1.10684 2.08435 0
M  V30 9797 C 1566.69 -0.0690084 2.9792 0
M  V30 9798 O 1566.74 1.10553 2.59426 0
M  V30 9799 C 1566.54 -0.481522 4.35345 0
M  V30 9800 C 1566.43 0.618778 5.36443 0
M  V30 9801 C 1566.49 -1.78906 4.67968 0
M  V30 9802 H 1563.75 -4.797 7.24003 0
M  V30 9803 H 1563.48 -3.69802 5.84429 0
M  V30 9804 H 1564.35 -6.10356 5.41441 0
M  V30 9805 H 1567 -4.78651 3.27911 0
M  V30 9806 H 1567.28 -3.64957 6.05871 0
M  V30 9807 H 1568.27 -4.8868 5.2125 0
M  V30 9808 H 1566.44 -5.66726 7.06352 0
M  V30 9809 H 1566.37 -2.07737 5.72367 0
M  V30 9810 H 1567.4 0.754375 5.86871 0
M  V30 9811 H 1565.66 0.359721 6.10641 0
M  V30 9812 H 1566.15 1.55533 4.8581 0
M  V30 9813 H 1566.89 -0.862651 1.12037 0
M  V30 9814 P 1568.31 -7.20834 5.23717 0
M  V30 9815 O 1568.53 -8.66104 5.38572 0
M  V30 9816 O 1569.1 -6.33544 6.1349 0
M  V30 9817 O 1568.56 -6.7751 3.72168 0
M  V30 9818 C 1567.62 -7.20825 2.7076 0
M  V30 9819 C 1568.35 -7.45864 1.40599 0
M  V30 9820 O 1568.56 -6.17651 0.734225 0
M  V30 9821 C 1569.75 -8.05808 1.51899 0
M  V30 9822 O 1570.14 -8.74358 0.335205 0
M  V30 9823 C 1570.63 -6.83093 1.70294 0
M  V30 9824 C 1569.92 -5.79992 0.836974 0
M  V30 9825 N 1569.97 -4.41864 1.38293 0
M  V30 9826 C 1569.89 -3.99538 2.69438 0
M  V30 9827 N 1569.97 -2.69909 2.84277 0
M  V30 9828 C 1570.11 -2.21719 1.5408 0
M  V30 9829 C 1570.24 -0.891712 1.06628 0
M  V30 9830 O 1570.26 0.161298 1.70137 0
M  V30 9831 N 1570.36 -0.856846 -0.334985 0
M  V30 9832 C 1570.36 -1.9641 -1.15789 0
M  V30 9833 N 1570.49 -1.72708 -2.46522 0
M  V30 9834 N 1570.23 -3.21165 -0.713741 0
M  V30 9835 C 1570.11 -3.26797 0.639748 0
M  V30 9836 H 1567.13 -8.13644 3.0377 0
M  V30 9837 H 1566.86 -6.42788 2.55485 0
M  V30 9838 H 1567.73 -8.12039 0.792769 0
M  V30 9839 H 1570.38 -5.80061 -0.166416 0
M  V30 9840 H 1570.66 -6.51287 2.75604 0
M  V30 9841 H 1571.65 -7.01734 1.34462 0
M  V30 9842 H 1569.82 -8.73674 2.38337 0
M  V30 9843 H 1569.77 -4.68207 3.53221 0
M  V30 9844 H 1570.45 0.0398818 -0.767965 0
M  V30 9845 H 1570.49 -2.50995 -3.13503 0
M  V30 9846 H 1570.59 -0.759148 -2.80716 0
M  V30 9847 P 1571.69 -8.91 1.84249e-12 0
M  V30 9848 O 1571.91 -10.1736 -0.733766 0
M  V30 9849 O 1572.48 -8.73247 1.2395 0
M  V30 9850 O 1571.94 -7.66872 -0.971405 0
M  V30 9851 C 1571 -7.42212 -2.04614 0
M  V30 9852 C 1571.73 -6.86059 -3.24661 0
M  V30 9853 O 1571.94 -5.42847 -3.03646 0
M  V30 9854 C 1573.13 -7.41196 -3.50753 0
M  V30 9855 O 1573.52 -7.27073 -4.86816 0
M  V30 9856 C 1574.01 -6.5273 -2.63741 0
M  V30 9857 C 1573.3 -5.1842 -2.73198 0
M  V30 9858 N 1573.35 -4.38668 -1.47808 0
M  V30 9859 C 1573.5 -3.02239 -1.60048 0
M  V30 9860 O 1573.59 -2.46459 -2.67869 0
M  V30 9861 N 1573.54 -2.32436 -0.408571 0
M  V30 9862 C 1573.45 -2.85471 0.854993 0
M  V30 9863 C 1573.3 -4.28918 0.887335 0
M  V30 9864 C 1573.25 -5.00349 -0.255399 0
M  V30 9865 H 1570.51 -8.36803 -2.32493 0
M  V30 9866 H 1570.24 -6.701 -1.71105 0
M  V30 9867 H 1571.11 -7.03551 -4.13168 0
M  V30 9868 H 1573.76 -4.59773 -3.53894 0
M  V30 9869 H 1574.04 -6.88995 -1.59871 0
M  V30 9870 H 1575.03 -6.46749 -3.03687 0
M  V30 9871 H 1573.2 -8.46908 -3.20714 0
M  V30 9872 H 1573.13 -6.08548 -0.206986 0
M  V30 9873 P 1575.07 -7.20834 -5.23717 0
M  V30 9874 O 1575.29 -7.79853 -6.57286 0
M  V30 9875 O 1575.86 -7.79239 -4.12957 0
M  V30 9876 O 1575.32 -5.63315 -5.29344 0
M  V30 9877 C 1574.38 -4.80255 -6.01876 0
M  V30 9878 C 1575.11 -3.64202 -6.65911 0
M  V30 9879 O 1575.32 -2.60694 -5.64732 0
M  V30 9880 C 1576.51 -3.93473 -7.1943 0
M  V30 9881 O 1576.9 -3.02071 -8.21205 0
M  V30 9882 C 1577.39 -3.73047 -5.97036 0
M  V30 9883 C 1576.68 -2.58828 -5.25741 0
M  V30 9884 N 1576.73 -2.68068 -3.77503 0
M  V30 9885 H 1573.89 -5.40332 -6.79951 0
M  V30 9886 H 1573.62 -4.41613 -5.32378 0
M  V30 9887 H 1574.49 -3.26331 -7.47797 0
M  V30 9888 P 1578.45 -2.75334 -8.47391 0
M  V30 9889 O 1578.67 -2.44571 -9.90142 0
M  V30 9890 O 1579.24 -3.87688 -7.92115 0
M  V30 9891 O 1578.7 -1.4459 -7.59357 0
M  V30 9892 C 1577.76 -0.347608 -7.69215 0
M  V30 9893 C 1578.49 0.96767 -7.52806 0
M  V30 9894 O 1578.7 1.21036 -6.1011 0
M  V30 9895 C 1579.89 1.04544 -8.13308 0
M  V30 9896 O 1580.28 2.38311 -8.41922 0
M  V30 9897 C 1580.77 0.491279 -7.02284 0
M  V30 9898 C 1580.06 0.996264 -5.77469 0
M  V30 9899 N 1580.11 0.0501916 -4.62973 0
M  V30 9900 H 1577.27 -0.374722 -8.67691 0
M  V30 9901 H 1577 -0.443485 -6.90277 0
M  V30 9902 H 1577.87 1.75537 -7.96793 0
M  V30 9903 P 1581.83 2.75334 -8.47391 0
M  V30 9904 O 1582.05 3.84128 -9.44797 0
M  V30 9905 O 1582.62 1.51947 -8.68712 0
M  V30 9906 O 1582.08 3.29363 -6.99321 0
M  V30 9907 C 1581.14 4.24011 -6.4274 0
M  V30 9908 C 1581.87 5.20775 -5.52155 0
M  V30 9909 O 1582.08 4.56534 -4.22446 0
M  V30 9910 C 1583.27 5.62629 -5.96531 0
M  V30 9911 O 1583.66 6.87667 -5.41053 0
M  V30 9912 C 1584.15 4.52537 -5.39283 0
M  V30 9913 C 1583.44 4.20027 -4.08623 0
M  V30 9914 N 1583.49 2.76189 -3.71603 0
M  V30 9915 H 1580.65 4.797 -7.24003 0
M  V30 9916 H 1580.38 3.69856 -5.84513 0
M  V30 9917 H 1581.25 6.10356 -5.41441 0
M  V30 9918 P 1585.21 7.20834 -5.23717 0
M  V30 9919 O 1585.43 8.66104 -5.38572 0
M  V30 9920 O 1586 6.33544 -6.1349 0
M  V30 9921 O 1585.46 6.7751 -3.72168 0
M  V30 9922 C 1584.52 7.20825 -2.7076 0
M  V30 9923 C 1585.25 7.45864 -1.40599 0
M  V30 9924 O 1585.46 6.17651 -0.734225 0
M  V30 9925 C 1586.65 8.05808 -1.51899 0
M  V30 9926 O 1587.04 8.74358 -0.335205 0
M  V30 9927 C 1587.53 6.83093 -1.70294 0
M  V30 9928 C 1586.82 5.79992 -0.836974 0
M  V30 9929 N 1586.87 4.41864 -1.38293 0
M  V30 9930 H 1584.03 8.13644 -3.0377 0
M  V30 9931 H 1583.76 6.42788 -2.55485 0
M  V30 9932 H 1584.63 8.12039 -0.792769 0
M  V30 9933 P 1588.59 8.91 -2.95149e-12 0
M  V30 9934 O 1588.81 10.1726 0.733694 0
M  V30 9935 O 1589.38 8.73148 -1.23936 0
M  V30 9936 O 1588.84 7.66872 0.971405 0
M  V30 9937 C 1587.9 7.42309 2.04641 0
M  V30 9938 C 1588.63 6.86059 3.24661 0
M  V30 9939 O 1588.84 5.42847 3.03646 0
M  V30 9940 C 1590.03 7.41196 3.50753 0
M  V30 9941 O 1590.42 7.27073 4.86816 0
M  V30 9942 C 1590.91 6.5273 2.63741 0
M  V30 9943 C 1590.2 5.1842 2.73198 0
M  V30 9944 N 1590.25 4.38762 1.4784 0
M  V30 9945 H 1587.41 8.36803 2.32493 0
M  V30 9946 H 1587.14 6.70197 1.71129 0
M  V30 9947 H 1588.01 7.03551 4.13168 0
M  V30 9948 P 1591.97 7.20834 5.23717 0
M  V30 9949 O 1592.19 7.79853 6.57286 0
M  V30 9950 O 1592.76 7.79239 4.12957 0
M  V30 9951 O 1592.22 5.63315 5.29344 0
M  V30 9952 C 1591.28 4.80255 6.01876 0
M  V30 9953 C 1592.01 3.64202 6.65911 0
M  V30 9954 O 1592.22 2.60694 5.64732 0
M  V30 9955 C 1593.41 3.93473 7.1943 0
M  V30 9956 O 1593.8 3.02071 8.21205 0
M  V30 9957 C 1594.29 3.73047 5.97036 0
M  V30 9958 C 1593.58 2.58828 5.25741 0
M  V30 9959 N 1593.63 2.68068 3.77503 0
M  V30 9960 H 1590.79 5.40332 6.79951 0
M  V30 9961 H 1590.52 4.41613 5.32378 0
M  V30 9962 H 1591.39 3.26331 7.47797 0
M  V30 9963 P 1595.35 2.75334 8.47391 0
M  V30 9964 O 1595.57 2.44619 9.90336 0
M  V30 9965 O 1596.14 3.87776 7.92294 0
M  V30 9966 O 1595.6 1.4459 7.59357 0
M  V30 9967 C 1594.66 0.347653 7.69315 0
M  V30 9968 C 1595.39 -0.96767 7.52806 0
M  V30 9969 O 1595.6 -1.21055 6.10208 0
M  V30 9970 C 1596.79 -1.04557 8.13408 0
M  V30 9971 O 1597.18 -2.38311 8.41922 0
M  V30 9972 C 1597.67 -0.491279 7.02284 0
M  V30 9973 C 1596.96 -0.996264 5.77469 0
M  V30 9974 N 1597.01 -0.0501916 4.62973 0
M  V30 9975 H 1594.17 0.374765 8.67791 0
M  V30 9976 H 1593.9 0.443613 6.90476 0
M  V30 9977 H 1594.77 -1.75559 7.96891 0
M  V30 9978 H 1597.42 -1.94563 5.46818 0
M  V30 9979 H 1597.7 0.608651 7.04676 0
M  V30 9980 H 1598.69 -0.889796 7.09039 0
M  V30 9981 H 1596.86 -0.433128 9.04664 0
M  V30 9982 P 1598.73 -2.75334 8.47391 0
M  V30 9983 O 1598.95 -3.84128 9.44797 0
M  V30 9984 O 1599.52 -1.51947 8.68712 0
M  V30 9985 O 1598.98 -3.29363 6.99321 0
M  V30 9986 C 1598.04 -4.24011 6.4274 0
M  V30 9987 C 1598.77 -5.20775 5.52155 0
M  V30 9988 O 1598.98 -4.56534 4.22446 0
M  V30 9989 C 1600.17 -5.62629 5.96531 0
M  V30 9990 O 1600.56 -6.87667 5.41053 0
M  V30 9991 C 1601.05 -4.52537 5.39283 0
M  V30 9992 C 1600.34 -4.20027 4.08623 0
M  V30 9993 N 1600.39 -2.76189 3.71603 0
M  V30 9994 H 1597.55 -4.797 7.24003 0
M  V30 9995 H 1597.28 -3.69856 5.84513 0
M  V30 9996 H 1598.15 -6.10356 5.41441 0
M  V30 9997 P 1602.11 -7.20834 5.23717 0
M  V30 9998 O 1602.33 -8.66104 5.38572 0
M  V30 9999 O 1602.9 -6.33544 6.1349 0
M  V30 10000 O 1602.36 -6.7751 3.72168 0
M  V30 10001 C 1601.42 -7.20825 2.7076 0
M  V30 10002 C 1602.15 -7.45864 1.40599 0
M  V30 10003 O 1602.36 -6.17651 0.734225 0
M  V30 10004 C 1603.55 -8.05808 1.51899 0
M  V30 10005 O 1603.94 -8.74358 0.335205 0
M  V30 10006 C 1604.43 -6.83093 1.70294 0
M  V30 10007 C 1603.72 -5.79992 0.836974 0
M  V30 10008 N 1603.77 -4.41864 1.38293 0
M  V30 10009 H 1600.93 -8.13644 3.0377 0
M  V30 10010 H 1600.66 -6.42788 2.55485 0
M  V30 10011 H 1601.53 -8.12039 0.792769 0
M  V30 10012 P 1605.49 -8.91 4.0605e-12 0
M  V30 10013 O 1605.71 -10.1726 -0.733694 0
M  V30 10014 O 1606.28 -8.73148 1.23936 0
M  V30 10015 O 1605.74 -7.66872 -0.971405 0
M  V30 10016 C 1604.8 -7.42309 -2.04641 0
M  V30 10017 C 1605.53 -6.86059 -3.24661 0
M  V30 10018 O 1605.74 -5.42847 -3.03646 0
M  V30 10019 C 1606.93 -7.41196 -3.50753 0
M  V30 10020 O 1607.32 -7.27073 -4.86816 0
M  V30 10021 C 1607.81 -6.5273 -2.63741 0
M  V30 10022 C 1607.1 -5.1842 -2.73198 0
M  V30 10023 N 1607.15 -4.38762 -1.4784 0
M  V30 10024 H 1604.31 -8.36803 -2.32493 0
M  V30 10025 H 1604.04 -6.70197 -1.71129 0
M  V30 10026 H 1604.91 -7.03551 -4.13168 0
M  V30 10027 P 1608.87 -7.20834 -5.23717 0
M  V30 10028 O 1609.09 -7.79853 -6.57286 0
M  V30 10029 O 1609.66 -7.79239 -4.12957 0
M  V30 10030 O 1609.12 -5.63315 -5.29344 0
M  V30 10031 C 1608.18 -4.80255 -6.01876 0
M  V30 10032 C 1608.91 -3.64202 -6.65911 0
M  V30 10033 O 1609.12 -2.60694 -5.64732 0
M  V30 10034 C 1610.31 -3.93473 -7.1943 0
M  V30 10035 O 1610.7 -3.02071 -8.21205 0
M  V30 10036 C 1611.19 -3.73047 -5.97036 0
M  V30 10037 C 1610.48 -2.58828 -5.25741 0
M  V30 10038 N 1610.53 -2.68068 -3.77503 0
M  V30 10039 H 1607.69 -5.40332 -6.79951 0
M  V30 10040 H 1607.42 -4.41613 -5.32378 0
M  V30 10041 H 1608.29 -3.26331 -7.47797 0
M  V30 10042 P 1612.25 -2.75334 -8.47391 0
M  V30 10043 O 1612.47 -2.44595 -9.90239 0
M  V30 10044 O 1613.04 -3.87732 -7.92204 0
M  V30 10045 O 1612.5 -1.4459 -7.59357 0
M  V30 10046 C 1611.56 -0.347563 -7.69115 0
M  V30 10047 C 1612.29 0.96767 -7.52806 0
M  V30 10048 O 1612.5 1.21036 -6.1011 0
M  V30 10049 C 1613.69 1.04544 -8.13308 0
M  V30 10050 O 1614.08 2.38311 -8.41922 0
M  V30 10051 C 1614.57 0.491279 -7.02284 0
M  V30 10052 C 1613.86 0.996264 -5.77469 0
M  V30 10053 N 1613.91 0.0501808 -4.62873 0
M  V30 10054 C 1614.06 0.588177 -3.36904 0
M  V30 10055 O 1614.15 1.78598 -3.17173 0
M  V30 10056 N 1614.1 -0.329694 -2.33686 0
M  V30 10057 C 1614.01 -1.6953 -2.45079 0
M  V30 10058 O 1614.06 -2.41926 -1.44899 0
M  V30 10059 C 1613.86 -2.16933 -3.80505 0
M  V30 10060 C 1613.75 -3.65373 -3.97621 0
M  V30 10061 C 1613.81 -1.30326 -4.83752 0
M  V30 10062 H 1611.07 -0.374722 -8.67691 0
M  V30 10063 H 1610.8 -0.443421 -6.90177 0
M  V30 10064 H 1611.67 1.75537 -7.96793 0
M  V30 10065 H 1614.32 1.94496 -5.46629 0
M  V30 10066 H 1614.6 -0.608651 -7.04676 0
M  V30 10067 H 1615.59 0.889672 -7.08939 0
M  V30 10068 H 1613.76 0.43308 -9.04564 0
M  V30 10069 H 1613.69 -1.68366 -5.8516 0
M  V30 10070 H 1614.72 -4.05985 -4.30448 0
M  V30 10071 H 1612.98 -3.88028 -4.72875 0
M  V30 10072 H 1613.47 -4.11381 -3.01609 0
M  V30 10073 H 1614.21 0.0393617 -1.41345 0
M  V30 10074 P 1615.63 2.75334 -8.47391 0
M  V30 10075 O 1615.85 3.84128 -9.44797 0
M  V30 10076 O 1616.42 1.51947 -8.68712 0
M  V30 10077 O 1615.88 3.29363 -6.99321 0
M  V30 10078 C 1614.94 4.24011 -6.4274 0
M  V30 10079 C 1615.67 5.20775 -5.52155 0
M  V30 10080 O 1615.88 4.56534 -4.22446 0
M  V30 10081 C 1617.07 5.62629 -5.96531 0
M  V30 10082 O 1617.46 6.87667 -5.41053 0
M  V30 10083 C 1617.95 4.52537 -5.39283 0
M  V30 10084 C 1617.24 4.20027 -4.08623 0
M  V30 10085 N 1617.29 2.76189 -3.71603 0
M  V30 10086 H 1614.45 4.797 -7.24003 0
M  V30 10087 H 1614.18 3.69856 -5.84513 0
M  V30 10088 H 1615.05 6.10356 -5.41441 0
M  V30 10089 P 1619.01 7.20834 -5.23717 0
M  V30 10090 O 1619.23 8.66104 -5.38572 0
M  V30 10091 O 1619.8 6.33544 -6.1349 0
M  V30 10092 O 1619.26 6.7751 -3.72168 0
M  V30 10093 C 1618.32 7.20825 -2.7076 0
M  V30 10094 C 1619.05 7.45864 -1.40599 0
M  V30 10095 O 1619.26 6.17651 -0.734225 0
M  V30 10096 C 1620.45 8.05808 -1.51899 0
M  V30 10097 O 1620.84 8.74358 -0.335205 0
M  V30 10098 C 1621.33 6.83093 -1.70294 0
M  V30 10099 C 1620.62 5.79992 -0.836974 0
M  V30 10100 N 1620.67 4.41864 -1.38293 0
M  V30 10101 H 1617.83 8.13644 -3.0377 0
M  V30 10102 H 1617.56 6.42788 -2.55485 0
M  V30 10103 H 1618.43 8.12039 -0.792769 0
M  V30 10104 P 1622.39 8.91 -5.1695e-12 0
M  V30 10105 O 1622.61 10.1736 0.733766 0
M  V30 10106 O 1623.18 8.73247 -1.2395 0
M  V30 10107 O 1622.64 7.66872 0.971405 0
M  V30 10108 C 1621.7 7.42212 2.04614 0
M  V30 10109 C 1622.43 6.86059 3.24661 0
M  V30 10110 O 1622.64 5.42847 3.03646 0
M  V30 10111 C 1623.83 7.41196 3.50753 0
M  V30 10112 O 1624.22 7.27073 4.86816 0
M  V30 10113 C 1624.71 6.5273 2.63741 0
M  V30 10114 C 1624 5.1842 2.73198 0
M  V30 10115 N 1624.05 4.38668 1.47808 0
M  V30 10116 C 1624.2 3.02239 1.60048 0
M  V30 10117 O 1624.29 2.46459 2.67869 0
M  V30 10118 N 1624.24 2.32436 0.408571 0
M  V30 10119 C 1624.15 2.85471 -0.854993 0
M  V30 10120 O 1624.2 2.12566 -1.8531 0
M  V30 10121 C 1624 4.28918 -0.887335 0
M  V30 10122 C 1623.89 4.91066 -2.24619 0
M  V30 10123 C 1623.95 5.00349 0.255399 0
M  V30 10124 H 1621.21 8.36803 2.32493 0
M  V30 10125 H 1620.94 6.701 1.71105 0
M  V30 10126 H 1621.81 7.03551 4.13168 0
M  V30 10127 H 1624.46 4.59773 3.53894 0
M  V30 10128 H 1624.74 6.88995 1.59871 0
M  V30 10129 H 1625.73 6.46749 3.03687 0
M  V30 10130 H 1623.9 8.46908 3.20714 0
M  V30 10131 H 1623.83 6.08548 0.206986 0
M  V30 10132 H 1624.86 5.34836 -2.53099 0
M  V30 10133 H 1623.12 5.69638 -2.2291 0
M  V30 10134 H 1623.61 4.13971 -2.98044 0
M  V30 10135 H 1624.35 1.33211 0.474216 0
M  V30 10136 P 1625.77 7.20834 5.23717 0
M  V30 10137 O 1625.99 7.79853 6.57286 0
M  V30 10138 O 1626.56 7.79239 4.12957 0
M  V30 10139 O 1626.02 5.63315 5.29344 0
M  V30 10140 C 1625.08 4.80255 6.01876 0
M  V30 10141 C 1625.81 3.64202 6.65911 0
M  V30 10142 O 1626.02 2.60694 5.64732 0
M  V30 10143 C 1627.21 3.93473 7.1943 0
M  V30 10144 O 1627.6 3.02071 8.21205 0
M  V30 10145 C 1628.09 3.73047 5.97036 0
M  V30 10146 C 1627.38 2.58828 5.25741 0
M  V30 10147 N 1627.43 2.68068 3.77503 0
M  V30 10148 H 1624.59 5.40332 6.79951 0
M  V30 10149 H 1624.32 4.41613 5.32378 0
M  V30 10150 H 1625.19 3.26331 7.47797 0
M  V30 10151 P 1629.15 2.75334 8.47391 0
M  V30 10152 O 1629.37 2.44571 9.90142 0
M  V30 10153 O 1629.94 3.87688 7.92115 0
M  V30 10154 O 1629.4 1.4459 7.59357 0
M  V30 10155 C 1628.46 0.347608 7.69215 0
M  V30 10156 C 1629.19 -0.96767 7.52806 0
M  V30 10157 O 1629.4 -1.21036 6.1011 0
M  V30 10158 C 1630.59 -1.04544 8.13308 0
M  V30 10159 O 1630.98 -2.38311 8.41922 0
M  V30 10160 C 1631.47 -0.491279 7.02284 0
M  V30 10161 C 1630.76 -0.996264 5.77469 0
M  V30 10162 N 1630.81 -0.0501916 4.62973 0
M  V30 10163 H 1627.97 0.374722 8.67691 0
M  V30 10164 H 1627.7 0.443485 6.90277 0
M  V30 10165 H 1628.57 -1.75537 7.96793 0
M  V30 10166 P 1632.53 -2.75334 8.47391 0
M  V30 10167 O 1632.75 -3.84166 9.4489 0
M  V30 10168 O 1633.32 -1.51964 8.6881 0
M  V30 10169 O 1632.78 -3.29363 6.99321 0
M  V30 10170 C 1631.84 -4.23956 6.42656 0
M  V30 10171 C 1632.57 -5.20775 5.52155 0
M  V30 10172 O 1632.78 -4.56534 4.22446 0
M  V30 10173 C 1633.97 -5.62629 5.96531 0
M  V30 10174 O 1634.36 -6.87667 5.41053 0
M  V30 10175 C 1634.85 -4.52537 5.39283 0
M  V30 10176 C 1634.14 -4.20027 4.08623 0
M  V30 10177 N 1634.19 -2.7613 3.71522 0
M  V30 10178 C 1634.34 -2.45612 2.37989 0
M  V30 10179 O 1634.43 -3.30919 1.51621 0
M  V30 10180 N 1634.38 -1.10684 2.08435 0
M  V30 10181 C 1634.29 -0.0690084 2.9792 0
M  V30 10182 C 1634.14 -0.481522 4.35345 0
M  V30 10183 C 1634.09 -1.78906 4.67968 0
M  V30 10184 H 1631.35 -4.797 7.24003 0
M  V30 10185 H 1631.08 -3.69802 5.84429 0
M  V30 10186 H 1631.95 -6.10356 5.41441 0
M  V30 10187 H 1634.6 -4.78651 3.27911 0
M  V30 10188 H 1634.88 -3.64957 6.05871 0
M  V30 10189 H 1635.87 -4.8868 5.2125 0
M  V30 10190 H 1634.04 -5.66726 7.06352 0
M  V30 10191 H 1633.97 -2.07737 5.72367 0
M  V30 10192 P 1635.91 -7.20834 5.23717 0
M  V30 10193 O 1636.13 -8.66104 5.38572 0
M  V30 10194 O 1636.7 -6.33544 6.1349 0
M  V30 10195 O 1636.16 -6.7751 3.72168 0
M  V30 10196 C 1635.22 -7.20825 2.7076 0
M  V30 10197 C 1635.95 -7.45864 1.40599 0
M  V30 10198 O 1636.16 -6.17651 0.734225 0
M  V30 10199 C 1637.35 -8.05808 1.51899 0
M  V30 10200 O 1637.74 -8.74358 0.335205 0
M  V30 10201 C 1638.23 -6.83093 1.70294 0
M  V30 10202 C 1637.52 -5.79992 0.836974 0
M  V30 10203 N 1637.57 -4.41864 1.38293 0
M  V30 10204 H 1634.73 -8.13644 3.0377 0
M  V30 10205 H 1634.46 -6.42788 2.55485 0
M  V30 10206 H 1635.33 -8.12039 0.792769 0
M  V30 10207 P 1639.29 -8.91 6.2785e-12 0
M  V30 10208 O 1639.51 -10.1726 -0.733694 0
M  V30 10209 O 1640.08 -8.73148 1.23936 0
M  V30 10210 O 1639.54 -7.66872 -0.971405 0
M  V30 10211 C 1638.6 -7.42309 -2.04641 0
M  V30 10212 C 1639.33 -6.86059 -3.24661 0
M  V30 10213 O 1639.54 -5.42847 -3.03646 0
M  V30 10214 C 1640.73 -7.41196 -3.50753 0
M  V30 10215 O 1641.12 -7.27073 -4.86816 0
M  V30 10216 C 1641.61 -6.5273 -2.63741 0
M  V30 10217 C 1640.9 -5.1842 -2.73198 0
M  V30 10218 N 1640.95 -4.38762 -1.4784 0
M  V30 10219 H 1638.11 -8.36803 -2.32493 0
M  V30 10220 H 1637.84 -6.70197 -1.71129 0
M  V30 10221 H 1638.71 -7.03551 -4.13168 0
M  V30 10222 P 1642.67 -7.20834 -5.23717 0
M  V30 10223 O 1642.89 -7.79853 -6.57286 0
M  V30 10224 O 1643.46 -7.79239 -4.12957 0
M  V30 10225 O 1642.92 -5.63315 -5.29344 0
M  V30 10226 C 1641.98 -4.80255 -6.01876 0
M  V30 10227 C 1642.71 -3.64202 -6.65911 0
M  V30 10228 O 1642.92 -2.60694 -5.64732 0
M  V30 10229 C 1644.11 -3.93473 -7.1943 0
M  V30 10230 O 1644.5 -3.02071 -8.21205 0
M  V30 10231 C 1644.99 -3.73047 -5.97036 0
M  V30 10232 C 1644.28 -2.58828 -5.25741 0
M  V30 10233 N 1644.33 -2.68068 -3.77503 0
M  V30 10234 H 1641.49 -5.40332 -6.79951 0
M  V30 10235 H 1641.22 -4.41613 -5.32378 0
M  V30 10236 H 1642.09 -3.26331 -7.47797 0
M  V30 10237 P 1646.05 -2.75334 -8.47391 0
M  V30 10238 O 1646.27 -2.44571 -9.90142 0
M  V30 10239 O 1646.84 -3.87688 -7.92115 0
M  V30 10240 O 1646.3 -1.4459 -7.59357 0
M  V30 10241 C 1645.36 -0.347608 -7.69215 0
M  V30 10242 C 1646.09 0.96767 -7.52806 0
M  V30 10243 O 1646.3 1.21036 -6.1011 0
M  V30 10244 C 1647.49 1.04544 -8.13308 0
M  V30 10245 O 1647.88 2.38311 -8.41922 0
M  V30 10246 C 1648.37 0.491279 -7.02284 0
M  V30 10247 C 1647.66 0.996264 -5.77469 0
M  V30 10248 N 1647.71 0.0501916 -4.62973 0
M  V30 10249 H 1644.87 -0.374722 -8.67691 0
M  V30 10250 H 1644.6 -0.443485 -6.90277 0
M  V30 10251 H 1645.47 1.75537 -7.96793 0
M  V30 10252 P 1649.43 2.75334 -8.47391 0
M  V30 10253 O 1649.65 3.84128 -9.44797 0
M  V30 10254 O 1650.22 1.51947 -8.68712 0
M  V30 10255 O 1649.68 3.29363 -6.99321 0
M  V30 10256 C 1648.74 4.24011 -6.4274 0
M  V30 10257 C 1649.47 5.20775 -5.52155 0
M  V30 10258 O 1649.68 4.56534 -4.22446 0
M  V30 10259 C 1650.87 5.62629 -5.96531 0
M  V30 10260 O 1651.26 6.87667 -5.41053 0
M  V30 10261 C 1651.75 4.52537 -5.39283 0
M  V30 10262 C 1651.04 4.20027 -4.08623 0
M  V30 10263 N 1651.09 2.76189 -3.71603 0
M  V30 10264 H 1648.25 4.797 -7.24003 0
M  V30 10265 H 1647.98 3.69856 -5.84513 0
M  V30 10266 H 1648.85 6.10356 -5.41441 0
M  V30 10267 P 1652.81 7.20834 -5.23717 0
M  V30 10268 O 1653.03 8.66104 -5.38572 0
M  V30 10269 O 1653.6 6.33544 -6.1349 0
M  V30 10270 O 1653.06 6.7751 -3.72168 0
M  V30 10271 C 1652.12 7.20825 -2.7076 0
M  V30 10272 C 1652.85 7.45864 -1.40599 0
M  V30 10273 O 1653.06 6.17651 -0.734225 0
M  V30 10274 C 1654.25 8.05808 -1.51899 0
M  V30 10275 O 1654.64 8.74358 -0.335205 0
M  V30 10276 C 1655.13 6.83093 -1.70294 0
M  V30 10277 C 1654.42 5.79992 -0.836974 0
M  V30 10278 N 1654.47 4.41864 -1.38293 0
M  V30 10279 C 1654.39 3.99538 -2.69438 0
M  V30 10280 N 1654.47 2.69909 -2.84277 0
M  V30 10281 C 1654.61 2.21719 -1.5408 0
M  V30 10282 C 1654.74 0.891712 -1.06628 0
M  V30 10283 O 1654.76 -0.161298 -1.70137 0
M  V30 10284 N 1654.86 0.856846 0.334985 0
M  V30 10285 C 1654.86 1.9641 1.15789 0
M  V30 10286 N 1654.99 1.72708 2.46522 0
M  V30 10287 N 1654.73 3.21165 0.713741 0
M  V30 10288 C 1654.61 3.26797 -0.639748 0
M  V30 10289 H 1651.63 8.13644 -3.0377 0
M  V30 10290 H 1651.36 6.42788 -2.55485 0
M  V30 10291 H 1652.23 8.12039 -0.792769 0
M  V30 10292 H 1654.88 5.80061 0.166416 0
M  V30 10293 H 1655.16 6.51287 -2.75604 0
M  V30 10294 H 1656.15 7.01734 -1.34462 0
M  V30 10295 H 1654.32 8.73674 -2.38337 0
M  V30 10296 H 1654.27 4.68207 -3.53221 0
M  V30 10297 H 1654.95 -0.0398818 0.767965 0
M  V30 10298 H 1654.99 2.50995 3.13503 0
M  V30 10299 H 1655.09 0.759148 2.80716 0
M  V30 10300 P 1656.19 8.91 -7.38751e-12 0
M  V30 10301 O 1656.41 10.1736 0.733766 0
M  V30 10302 O 1656.98 8.73247 -1.2395 0
M  V30 10303 O 1656.44 7.66872 0.971405 0
M  V30 10304 C 1655.5 7.42212 2.04614 0
M  V30 10305 C 1656.23 6.86059 3.24661 0
M  V30 10306 O 1656.44 5.42847 3.03646 0
M  V30 10307 C 1657.63 7.41196 3.50753 0
M  V30 10308 O 1658.02 7.27073 4.86816 0
M  V30 10309 C 1658.51 6.5273 2.63741 0
M  V30 10310 C 1657.8 5.1842 2.73198 0
M  V30 10311 N 1657.85 4.38668 1.47808 0
M  V30 10312 C 1658 3.02239 1.60048 0
M  V30 10313 O 1658.09 2.46459 2.67869 0
M  V30 10314 N 1658.04 2.32436 0.408571 0
M  V30 10315 C 1657.95 2.85471 -0.854993 0
M  V30 10316 C 1657.8 4.28918 -0.887335 0
M  V30 10317 C 1657.75 5.00349 0.255399 0
M  V30 10318 H 1655.01 8.36803 2.32493 0
M  V30 10319 H 1654.74 6.701 1.71105 0
M  V30 10320 H 1655.61 7.03551 4.13168 0
M  V30 10321 H 1658.26 4.59773 3.53894 0
M  V30 10322 H 1658.54 6.88995 1.59871 0
M  V30 10323 H 1659.53 6.46749 3.03687 0
M  V30 10324 H 1657.7 8.46908 3.20714 0
M  V30 10325 H 1657.63 6.08548 0.206986 0
M  V30 10326 P 1659.57 7.20834 5.23717 0
M  V30 10327 O 1659.79 7.79853 6.57286 0
M  V30 10328 O 1660.36 7.79239 4.12957 0
M  V30 10329 O 1659.82 5.63315 5.29344 0
M  V30 10330 C 1658.88 4.80255 6.01876 0
M  V30 10331 C 1659.61 3.64202 6.65911 0
M  V30 10332 O 1659.82 2.60694 5.64732 0
M  V30 10333 C 1661.01 3.93473 7.1943 0
M  V30 10334 O 1661.4 3.02071 8.21205 0
M  V30 10335 C 1661.89 3.73047 5.97036 0
M  V30 10336 C 1661.18 2.58828 5.25741 0
M  V30 10337 N 1661.23 2.68068 3.77503 0
M  V30 10338 C 1661.15 3.79715 2.96723 0
M  V30 10339 N 1661.23 3.5377 1.68852 0
M  V30 10340 C 1661.37 2.15054 1.63254 0
M  V30 10341 C 1661.5 1.28964 0.518571 0
M  V30 10342 O 1661.52 1.56826 -0.679156 0
M  V30 10343 N 1661.62 -0.0538097 0.918425 0
M  V30 10344 C 1661.62 -0.494275 2.22578 0
M  V30 10345 N 1661.75 -1.81086 2.40434 0
M  V30 10346 N 1661.49 0.313645 3.27502 0
M  V30 10347 C 1661.37 1.61829 2.91033 0
M  V30 10348 H 1658.39 5.40332 6.79951 0
M  V30 10349 H 1658.12 4.41613 5.32378 0
M  V30 10350 H 1658.99 3.26331 7.47797 0
M  V30 10351 H 1661.64 1.63422 5.56814 0
M  V30 10352 H 1661.92 4.63374 5.34244 0
M  V30 10353 H 1662.91 3.44728 6.25838 0
M  V30 10354 H 1661.08 4.96652 7.57263 0
M  V30 10355 H 1661.03 4.80617 3.3614 0
M  V30 10356 H 1661.71 -0.742702 0.199384 0
M  V30 10357 H 1661.75 -2.20598 3.35588 0
M  V30 10358 H 1661.85 -2.43518 1.58945 0
M  V30 10359 P 1662.95 2.75334 8.47391 0
M  V30 10360 O 1663.17 2.44571 9.90142 0
M  V30 10361 O 1663.74 3.87688 7.92115 0
M  V30 10362 O 1663.2 1.4459 7.59357 0
M  V30 10363 C 1662.26 0.347608 7.69215 0
M  V30 10364 C 1662.99 -0.96767 7.52806 0
M  V30 10365 O 1663.2 -1.21036 6.1011 0
M  V30 10366 C 1664.39 -1.04544 8.13308 0
M  V30 10367 O 1664.78 -2.38311 8.41922 0
M  V30 10368 C 1665.27 -0.491279 7.02284 0
M  V30 10369 C 1664.56 -0.996264 5.77469 0
M  V30 10370 N 1664.61 -0.0501916 4.62973 0
M  V30 10371 C 1664.53 1.32786 4.63244 0
M  V30 10372 N 1664.61 1.86957 3.44545 0
M  V30 10373 C 1664.75 0.780241 2.58481 0
M  V30 10374 C 1664.88 0.738536 1.17757 0
M  V30 10375 N 1665 -0.58337 0.711393 0
M  V30 10376 C 1665 -1.70816 1.51017 0
M  V30 10377 N 1665.13 -2.87826 0.880757 0
M  V30 10378 N 1664.87 -1.67126 2.8339 0
M  V30 10379 C 1664.75 -0.401421 3.30572 0
M  V30 10380 H 1661.77 0.374722 8.67691 0
M  V30 10381 H 1661.5 0.443485 6.90277 0
M  V30 10382 H 1662.37 -1.75537 7.96793 0
M  V30 10383 P 1666.33 -2.75334 8.47391 0
M  V30 10384 O 1666.55 -3.84204 9.44982 0
M  V30 10385 O 1667.12 -1.51982 8.68909 0
M  V30 10386 O 1666.58 -3.29363 6.99321 0
M  V30 10387 C 1665.64 -4.24066 6.42823 0
M  V30 10388 C 1666.37 -5.20775 5.52155 0
M  V30 10389 O 1666.58 -4.56607 4.22514 0
M  V30 10390 C 1667.77 -5.62697 5.96604 0
M  V30 10391 O 1668.16 -6.87667 5.41053 0
M  V30 10392 C 1668.65 -4.52537 5.39283 0
M  V30 10393 C 1667.94 -4.20027 4.08623 0
M  V30 10394 N 1667.99 -2.76189 3.71603 0
M  V30 10395 H 1665.15 -4.79756 7.24086 0
M  V30 10396 H 1664.88 -3.69963 5.84682 0
M  V30 10397 H 1665.75 -6.10431 5.41508 0
M  V30 10398 H 1668.4 -4.78816 3.28024 0
M  V30 10399 H 1668.68 -3.64957 6.05871 0
M  V30 10400 H 1669.67 -4.88748 5.21323 0
M  V30 10401 H 1667.84 -5.66789 7.0643 0
M  V30 10402 P 1669.71 -7.20834 5.23717 0
M  V30 10403 O 1669.93 -8.66104 5.38572 0
M  V30 10404 O 1670.5 -6.33544 6.1349 0
M  V30 10405 O 1669.96 -6.7751 3.72168 0
M  V30 10406 C 1669.02 -7.20825 2.7076 0
M  V30 10407 C 1669.75 -7.45864 1.40599 0
M  V30 10408 O 1669.96 -6.17651 0.734225 0
M  V30 10409 C 1671.15 -8.05808 1.51899 0
M  V30 10410 O 1671.54 -8.74358 0.335205 0
M  V30 10411 C 1672.03 -6.83093 1.70294 0
M  V30 10412 C 1671.32 -5.79992 0.836974 0
M  V30 10413 N 1671.37 -4.41864 1.38293 0
M  V30 10414 H 1668.53 -8.13644 3.0377 0
M  V30 10415 H 1668.26 -6.42788 2.55485 0
M  V30 10416 H 1669.13 -8.12039 0.792769 0
M  V30 10417 P 1673.09 -8.91 8.49651e-12 0
M  V30 10418 O 1673.31 -10.1726 -0.733694 0
M  V30 10419 O 1673.88 -8.73148 1.23936 0
M  V30 10420 O 1673.34 -7.66872 -0.971405 0
M  V30 10421 C 1672.4 -7.42309 -2.04641 0
M  V30 10422 C 1673.13 -6.86059 -3.24661 0
M  V30 10423 O 1673.34 -5.42847 -3.03646 0
M  V30 10424 C 1674.53 -7.41196 -3.50753 0
M  V30 10425 O 1674.92 -7.27073 -4.86816 0
M  V30 10426 C 1675.41 -6.5273 -2.63741 0
M  V30 10427 C 1674.7 -5.1842 -2.73198 0
M  V30 10428 N 1674.75 -4.38762 -1.4784 0
M  V30 10429 C 1674.67 -4.81605 -0.168631 0
M  V30 10430 N 1674.75 -3.85454 0.713363 0
M  V30 10431 C 1674.89 -2.6994 -0.0566958 0
M  V30 10432 C 1675.02 -1.34815 0.338502 0
M  V30 10433 O 1675.04 -0.869548 1.47125 0
M  V30 10434 N 1675.14 -0.496304 -0.77465 0
M  V30 10435 C 1675.14 -0.908403 -2.09122 0
M  V30 10436 N 1675.27 0.0517805 -3.00955 0
M  V30 10437 N 1675.01 -2.17875 -2.46519 0
M  V30 10438 C 1674.89 -3.01988 -1.4033 0
M  V30 10439 H 1671.91 -8.36803 -2.32493 0
M  V30 10440 H 1671.64 -6.70197 -1.71129 0
M  V30 10441 H 1672.51 -7.03551 -4.13168 0
M  V30 10442 H 1675.16 -4.59498 -3.54415 0
M  V30 10443 H 1675.44 -6.88898 -1.59848 0
M  V30 10444 H 1676.43 -6.46749 -3.03687 0
M  V30 10445 H 1674.6 -8.46908 -3.20714 0
M  V30 10446 H 1674.55 -5.86405 0.105564 0
M  V30 10447 H 1675.23 0.483664 -0.597855 0
M  V30 10448 H 1675.27 -0.187865 -4.0116 0
M  V30 10449 H 1675.37 1.03585 -2.71726 0
M  V30 10450 P 1676.47 -7.20834 -5.23717 0
M  V30 10451 O 1676.69 -7.79853 -6.57286 0
M  V30 10452 O 1677.26 -7.79239 -4.12957 0
M  V30 10453 O 1676.72 -5.63315 -5.29344 0
M  V30 10454 C 1675.78 -4.80255 -6.01876 0
M  V30 10455 C 1676.51 -3.64202 -6.65911 0
M  V30 10456 O 1676.72 -2.60694 -5.64732 0
M  V30 10457 C 1677.91 -3.93473 -7.1943 0
M  V30 10458 O 1678.3 -3.02071 -8.21205 0
M  V30 10459 C 1678.79 -3.73047 -5.97036 0
M  V30 10460 C 1678.08 -2.58828 -5.25741 0
M  V30 10461 N 1678.13 -2.68068 -3.77503 0
M  V30 10462 C 1678.05 -3.79715 -2.96723 0
M  V30 10463 N 1678.13 -3.5377 -1.68852 0
M  V30 10464 C 1678.27 -2.15054 -1.63254 0
M  V30 10465 C 1678.4 -1.28964 -0.518571 0
M  V30 10466 N 1678.52 0.0538097 -0.918425 0
M  V30 10467 C 1678.52 0.494275 -2.22578 0
M  V30 10468 N 1678.65 1.81086 -2.40434 0
M  V30 10469 N 1678.39 -0.313645 -3.27502 0
M  V30 10470 C 1678.27 -1.61829 -2.91033 0
M  V30 10471 H 1675.29 -5.40332 -6.79951 0
M  V30 10472 H 1675.02 -4.41613 -5.32378 0
M  V30 10473 H 1675.89 -3.26331 -7.47797 0
M  V30 10474 P 1679.85 -2.75334 -8.47391 0
M  V30 10475 O 1680.07 -2.44571 -9.90142 0
M  V30 10476 O 1680.64 -3.87688 -7.92115 0
M  V30 10477 O 1680.1 -1.4459 -7.59357 0
M  V30 10478 C 1679.16 -0.347608 -7.69215 0
M  V30 10479 C 1679.89 0.96767 -7.52806 0
M  V30 10480 O 1680.1 1.21036 -6.1011 0
M  V30 10481 C 1681.29 1.04544 -8.13308 0
M  V30 10482 O 1681.68 2.38311 -8.41922 0
M  V30 10483 C 1682.17 0.491279 -7.02284 0
M  V30 10484 C 1681.46 0.996264 -5.77469 0
M  V30 10485 N 1681.51 0.0501916 -4.62973 0
M  V30 10486 C 1681.43 -1.32786 -4.63244 0
M  V30 10487 N 1681.51 -1.86957 -3.44545 0
M  V30 10488 C 1681.65 -0.780241 -2.58481 0
M  V30 10489 C 1681.78 -0.738536 -1.17757 0
M  V30 10490 O 1681.8 -1.66794 -0.372349 0
M  V30 10491 N 1681.9 0.58337 -0.711393 0
M  V30 10492 C 1681.9 1.70816 -1.51017 0
M  V30 10493 N 1682.03 2.87826 -0.880757 0
M  V30 10494 N 1681.77 1.67126 -2.8339 0
M  V30 10495 C 1681.65 0.401421 -3.30572 0
M  V30 10496 H 1678.67 -0.374722 -8.67691 0
M  V30 10497 H 1678.4 -0.443485 -6.90277 0
M  V30 10498 H 1679.27 1.75537 -7.96793 0
M  V30 10499 H 1681.92 1.95076 -5.46529 0
M  V30 10500 H 1682.2 -0.608565 -7.04577 0
M  V30 10501 H 1683.19 0.889672 -7.08939 0
M  V30 10502 H 1681.36 0.43308 -9.04564 0
M  V30 10503 H 1681.31 -1.91249 -5.54442 0
M  V30 10504 H 1681.99 0.718054 0.275244 0
M  V30 10505 H 1682.03 3.75721 -1.41832 0
M  V30 10506 H 1682.13 2.90436 0.145468 0
M  V30 10507 P 1683.23 2.75334 -8.47391 0
M  V30 10508 O 1683.45 3.84128 -9.44797 0
M  V30 10509 O 1684.02 1.51947 -8.68712 0
M  V30 10510 O 1683.48 3.29363 -6.99321 0
M  V30 10511 C 1682.54 4.24011 -6.4274 0
M  V30 10512 C 1683.27 5.20775 -5.52155 0
M  V30 10513 O 1683.48 4.56534 -4.22446 0
M  V30 10514 C 1684.67 5.62629 -5.96531 0
M  V30 10515 O 1685.06 6.87667 -5.41053 0
M  V30 10516 C 1685.55 4.52537 -5.39283 0
M  V30 10517 C 1684.84 4.20027 -4.08623 0
M  V30 10518 N 1684.89 2.76189 -3.71603 0
M  V30 10519 H 1682.05 4.797 -7.24003 0
M  V30 10520 H 1681.78 3.69856 -5.84513 0
M  V30 10521 H 1682.65 6.10356 -5.41441 0
M  V30 10522 P 1686.61 7.20834 -5.23717 0
M  V30 10523 O 1686.83 8.66104 -5.38572 0
M  V30 10524 O 1687.4 6.33544 -6.1349 0
M  V30 10525 O 1686.86 6.7751 -3.72168 0
M  V30 10526 C 1685.92 7.20825 -2.7076 0
M  V30 10527 C 1686.65 7.45864 -1.40599 0
M  V30 10528 O 1686.86 6.17651 -0.734225 0
M  V30 10529 C 1688.05 8.05808 -1.51899 0
M  V30 10530 O 1688.44 8.74358 -0.335205 0
M  V30 10531 C 1688.93 6.83093 -1.70294 0
M  V30 10532 C 1688.22 5.79992 -0.836974 0
M  V30 10533 N 1688.27 4.41864 -1.38293 0
M  V30 10534 H 1685.43 8.13644 -3.0377 0
M  V30 10535 H 1685.16 6.42788 -2.55485 0
M  V30 10536 H 1686.03 8.12039 -0.792769 0
M  V30 10537 P 1689.99 8.91 -9.60552e-12 0
M  V30 10538 O 1690.21 10.1726 0.733694 0
M  V30 10539 O 1690.78 8.73148 -1.23936 0
M  V30 10540 O 1690.24 7.66872 0.971405 0
M  V30 10541 C 1689.3 7.42309 2.04641 0
M  V30 10542 C 1690.03 6.86059 3.24661 0
M  V30 10543 O 1690.24 5.42847 3.03646 0
M  V30 10544 C 1691.43 7.41196 3.50753 0
M  V30 10545 O 1691.82 7.27073 4.86816 0
M  V30 10546 C 1692.31 6.5273 2.63741 0
M  V30 10547 C 1691.6 5.1842 2.73198 0
M  V30 10548 N 1691.65 4.38762 1.4784 0
M  V30 10549 C 1691.57 4.81605 0.168631 0
M  V30 10550 N 1691.65 3.85454 -0.713363 0
M  V30 10551 C 1691.79 2.6994 0.0566958 0
M  V30 10552 C 1691.92 1.34815 -0.338502 0
M  V30 10553 N 1692.04 0.496304 0.77465 0
M  V30 10554 C 1692.04 0.908403 2.09122 0
M  V30 10555 N 1692.17 -0.0517805 3.00955 0
M  V30 10556 N 1691.91 2.17875 2.46519 0
M  V30 10557 C 1691.79 3.01988 1.4033 0
M  V30 10558 H 1688.81 8.36803 2.32493 0
M  V30 10559 H 1688.54 6.70197 1.71129 0
M  V30 10560 H 1689.41 7.03551 4.13168 0
M  V30 10561 P 1693.37 7.20834 5.23717 0
M  V30 10562 O 1693.59 7.79853 6.57286 0
M  V30 10563 O 1694.16 7.79239 4.12957 0
M  V30 10564 O 1693.62 5.63315 5.29344 0
M  V30 10565 C 1692.68 4.80255 6.01876 0
M  V30 10566 C 1693.41 3.64202 6.65911 0
M  V30 10567 O 1693.62 2.60694 5.64732 0
M  V30 10568 C 1694.81 3.93473 7.1943 0
M  V30 10569 O 1695.2 3.02071 8.21205 0
M  V30 10570 C 1695.69 3.73047 5.97036 0
M  V30 10571 C 1694.98 2.58828 5.25741 0
M  V30 10572 N 1695.03 2.68068 3.77503 0
M  V30 10573 H 1692.19 5.40332 6.79951 0
M  V30 10574 H 1691.92 4.41613 5.32378 0
M  V30 10575 H 1692.79 3.26331 7.47797 0
M  V30 10576 P 1696.75 2.75334 8.47391 0
M  V30 10577 O 1696.97 2.44619 9.90336 0
M  V30 10578 O 1697.54 3.87776 7.92294 0
M  V30 10579 O 1697 1.4459 7.59357 0
M  V30 10580 C 1696.06 0.347653 7.69315 0
M  V30 10581 C 1696.79 -0.96767 7.52806 0
M  V30 10582 O 1697 -1.21055 6.10208 0
M  V30 10583 C 1698.19 -1.04557 8.13408 0
M  V30 10584 O 1698.58 -2.38311 8.41922 0
M  V30 10585 C 1699.07 -0.491279 7.02284 0
M  V30 10586 C 1698.36 -0.996264 5.77469 0
M  V30 10587 N 1698.41 -0.0501916 4.62973 0
M  V30 10588 H 1695.57 0.374765 8.67791 0
M  V30 10589 H 1695.3 0.443613 6.90476 0
M  V30 10590 H 1696.17 -1.75559 7.96891 0
M  V30 10591 H 1698.82 -1.94563 5.46818 0
M  V30 10592 H 1699.1 0.608651 7.04676 0
M  V30 10593 H 1700.09 -0.889796 7.09039 0
M  V30 10594 H 1698.26 -0.433128 9.04664 0
M  V30 10595 P 1700.13 -2.75334 8.47391 0
M  V30 10596 O 1700.35 -3.84128 9.44797 0
M  V30 10597 O 1700.92 -1.51947 8.68712 0
M  V30 10598 O 1700.38 -3.29363 6.99321 0
M  V30 10599 C 1699.44 -4.24011 6.4274 0
M  V30 10600 C 1700.17 -5.20775 5.52155 0
M  V30 10601 O 1700.38 -4.56534 4.22446 0
M  V30 10602 C 1701.57 -5.62629 5.96531 0
M  V30 10603 O 1701.96 -6.87667 5.41053 0
M  V30 10604 C 1702.45 -4.52537 5.39283 0
M  V30 10605 C 1701.74 -4.20027 4.08623 0
M  V30 10606 N 1701.79 -2.76189 3.71603 0
M  V30 10607 H 1698.95 -4.797 7.24003 0
M  V30 10608 H 1698.68 -3.69856 5.84513 0
M  V30 10609 H 1699.55 -6.10356 5.41441 0
M  V30 10610 P 1703.51 -7.20834 5.23717 0
M  V30 10611 O 1703.73 -8.66104 5.38572 0
M  V30 10612 O 1704.3 -6.33544 6.1349 0
M  V30 10613 O 1703.76 -6.7751 3.72168 0
M  V30 10614 C 1702.82 -7.20825 2.7076 0
M  V30 10615 C 1703.55 -7.45864 1.40599 0
M  V30 10616 O 1703.76 -6.17651 0.734225 0
M  V30 10617 C 1704.95 -8.05808 1.51899 0
M  V30 10618 O 1705.34 -8.74358 0.335205 0
M  V30 10619 C 1705.83 -6.83093 1.70294 0
M  V30 10620 C 1705.12 -5.79992 0.836974 0
M  V30 10621 N 1705.17 -4.41864 1.38293 0
M  V30 10622 H 1702.33 -8.13644 3.0377 0
M  V30 10623 H 1702.06 -6.42788 2.55485 0
M  V30 10624 H 1702.93 -8.12039 0.792769 0
M  V30 10625 P 1706.89 -8.91 1.07145e-11 0
M  V30 10626 O 1707.11 -10.1726 -0.733694 0
M  V30 10627 O 1707.68 -8.73148 1.23936 0
M  V30 10628 O 1707.14 -7.66872 -0.971405 0
M  V30 10629 C 1706.2 -7.42309 -2.04641 0
M  V30 10630 C 1706.93 -6.86059 -3.24661 0
M  V30 10631 O 1707.14 -5.42847 -3.03646 0
M  V30 10632 C 1708.33 -7.41196 -3.50753 0
M  V30 10633 O 1708.72 -7.27073 -4.86816 0
M  V30 10634 C 1709.21 -6.5273 -2.63741 0
M  V30 10635 C 1708.5 -5.1842 -2.73198 0
M  V30 10636 N 1708.55 -4.38762 -1.4784 0
M  V30 10637 C 1708.47 -4.81605 -0.168631 0
M  V30 10638 N 1708.55 -3.85454 0.713363 0
M  V30 10639 C 1708.69 -2.6994 -0.0566958 0
M  V30 10640 C 1708.82 -1.34815 0.338502 0
M  V30 10641 O 1708.84 -0.869548 1.47125 0
M  V30 10642 N 1708.94 -0.496304 -0.77465 0
M  V30 10643 C 1708.94 -0.908403 -2.09122 0
M  V30 10644 N 1709.07 0.0517805 -3.00955 0
M  V30 10645 N 1708.81 -2.17875 -2.46519 0
M  V30 10646 C 1708.69 -3.01988 -1.4033 0
M  V30 10647 H 1705.71 -8.36803 -2.32493 0
M  V30 10648 H 1705.44 -6.70197 -1.71129 0
M  V30 10649 H 1706.31 -7.03551 -4.13168 0
M  V30 10650 H 1708.96 -4.59498 -3.54415 0
M  V30 10651 H 1709.24 -6.88898 -1.59848 0
M  V30 10652 H 1710.23 -6.46749 -3.03687 0
M  V30 10653 H 1708.4 -8.46908 -3.20714 0
M  V30 10654 H 1708.35 -5.86405 0.105564 0
M  V30 10655 H 1709.03 0.483664 -0.597855 0
M  V30 10656 H 1709.07 -0.187865 -4.0116 0
M  V30 10657 H 1709.17 1.03585 -2.71726 0
M  V30 10658 P 1710.27 -7.20834 -5.23717 0
M  V30 10659 O 1710.49 -7.79853 -6.57286 0
M  V30 10660 O 1711.06 -7.79239 -4.12957 0
M  V30 10661 O 1710.52 -5.63315 -5.29344 0
M  V30 10662 C 1709.58 -4.80255 -6.01876 0
M  V30 10663 C 1710.31 -3.64202 -6.65911 0
M  V30 10664 O 1710.52 -2.60694 -5.64732 0
M  V30 10665 C 1711.71 -3.93473 -7.1943 0
M  V30 10666 O 1712.1 -3.02071 -8.21205 0
M  V30 10667 C 1712.59 -3.73047 -5.97036 0
M  V30 10668 C 1711.88 -2.58828 -5.25741 0
M  V30 10669 N 1711.93 -2.68068 -3.77503 0
M  V30 10670 H 1709.09 -5.40332 -6.79951 0
M  V30 10671 H 1708.82 -4.41613 -5.32378 0
M  V30 10672 H 1709.69 -3.26331 -7.47797 0
M  V30 10673 P 1713.65 -2.75334 -8.47391 0
M  V30 10674 O 1713.87 -2.44571 -9.90142 0
M  V30 10675 O 1714.44 -3.87688 -7.92115 0
M  V30 10676 O 1713.9 -1.4459 -7.59357 0
M  V30 10677 C 1712.96 -0.347608 -7.69215 0
M  V30 10678 C 1713.69 0.96767 -7.52806 0
M  V30 10679 O 1713.9 1.21036 -6.1011 0
M  V30 10680 C 1715.09 1.04544 -8.13308 0
M  V30 10681 O 1715.48 2.38311 -8.41922 0
M  V30 10682 C 1715.97 0.491279 -7.02284 0
M  V30 10683 C 1715.26 0.996264 -5.77469 0
M  V30 10684 N 1715.31 0.0501916 -4.62973 0
M  V30 10685 H 1712.47 -0.374722 -8.67691 0
M  V30 10686 H 1712.2 -0.443485 -6.90277 0
M  V30 10687 H 1713.07 1.75537 -7.96793 0
M  V30 10688 P 1717.03 2.75334 -8.47391 0
M  V30 10689 O 1717.25 3.84204 -9.44982 0
M  V30 10690 O 1717.82 1.51982 -8.68909 0
M  V30 10691 O 1717.28 3.29363 -6.99321 0
M  V30 10692 C 1716.34 4.24066 -6.42823 0
M  V30 10693 C 1717.07 5.20775 -5.52155 0
M  V30 10694 O 1717.28 4.56607 -4.22514 0
M  V30 10695 C 1718.47 5.62697 -5.96604 0
M  V30 10696 O 1718.86 6.87667 -5.41053 0
M  V30 10697 C 1719.35 4.52537 -5.39283 0
M  V30 10698 C 1718.64 4.20027 -4.08623 0
M  V30 10699 N 1718.69 2.76189 -3.71603 0
M  V30 10700 H 1715.85 4.79756 -7.24086 0
M  V30 10701 H 1715.58 3.69963 -5.84682 0
M  V30 10702 H 1716.45 6.10431 -5.41508 0
M  V30 10703 H 1719.1 4.78816 -3.28024 0
M  V30 10704 H 1719.38 3.64957 -6.05871 0
M  V30 10705 H 1720.37 4.88748 -5.21323 0
M  V30 10706 H 1718.54 5.66789 -7.0643 0
M  V30 10707 P 1720.41 7.20834 -5.23717 0
M  V30 10708 O 1720.63 8.66104 -5.38572 0
M  V30 10709 O 1721.2 6.33544 -6.1349 0
M  V30 10710 O 1720.66 6.7751 -3.72168 0
M  V30 10711 C 1719.72 7.20825 -2.7076 0
M  V30 10712 C 1720.45 7.45864 -1.40599 0
M  V30 10713 O 1720.66 6.17651 -0.734225 0
M  V30 10714 C 1721.85 8.05808 -1.51899 0
M  V30 10715 O 1722.24 8.74358 -0.335205 0
M  V30 10716 C 1722.73 6.83093 -1.70294 0
M  V30 10717 C 1722.02 5.79992 -0.836974 0
M  V30 10718 N 1722.07 4.41864 -1.38293 0
M  V30 10719 H 1719.23 8.13644 -3.0377 0
M  V30 10720 H 1718.96 6.42788 -2.55485 0
M  V30 10721 H 1719.83 8.12039 -0.792769 0
M  V30 10722 P 1723.79 8.91 -1.18235e-11 0
M  V30 10723 O 1724.01 10.1726 0.733694 0
M  V30 10724 O 1724.58 8.73148 -1.23936 0
M  V30 10725 O 1724.04 7.66872 0.971405 0
M  V30 10726 C 1723.1 7.42309 2.04641 0
M  V30 10727 C 1723.83 6.86059 3.24661 0
M  V30 10728 O 1724.04 5.42847 3.03646 0
M  V30 10729 C 1725.23 7.41196 3.50753 0
M  V30 10730 O 1725.62 7.27073 4.86816 0
M  V30 10731 C 1726.11 6.5273 2.63741 0
M  V30 10732 C 1725.4 5.1842 2.73198 0
M  V30 10733 N 1725.45 4.38762 1.4784 0
M  V30 10734 H 1722.61 8.36803 2.32493 0
M  V30 10735 H 1722.34 6.70197 1.71129 0
M  V30 10736 H 1723.21 7.03551 4.13168 0
M  V30 10737 P 1727.17 7.20834 5.23717 0
M  V30 10738 O 1727.39 7.79853 6.57286 0
M  V30 10739 O 1727.96 7.79239 4.12957 0
M  V30 10740 O 1727.42 5.63315 5.29344 0
M  V30 10741 C 1726.48 4.80255 6.01876 0
M  V30 10742 C 1727.21 3.64202 6.65911 0
M  V30 10743 O 1727.42 2.60694 5.64732 0
M  V30 10744 C 1728.61 3.93473 7.1943 0
M  V30 10745 O 1729 3.02071 8.21205 0
M  V30 10746 C 1729.49 3.73047 5.97036 0
M  V30 10747 C 1728.78 2.58828 5.25741 0
M  V30 10748 N 1728.83 2.68068 3.77503 0
M  V30 10749 H 1725.99 5.40332 6.79951 0
M  V30 10750 H 1725.72 4.41613 5.32378 0
M  V30 10751 H 1726.59 3.26331 7.47797 0
M  V30 10752 P 1730.55 2.75334 8.47391 0
M  V30 10753 O 1730.77 2.44571 9.90142 0
M  V30 10754 O 1731.34 3.87688 7.92115 0
M  V30 10755 O 1730.8 1.4459 7.59357 0
M  V30 10756 C 1729.86 0.347608 7.69215 0
M  V30 10757 C 1730.59 -0.96767 7.52806 0
M  V30 10758 O 1730.8 -1.21036 6.1011 0
M  V30 10759 C 1731.99 -1.04544 8.13308 0
M  V30 10760 O 1732.38 -2.38311 8.41922 0
M  V30 10761 C 1732.87 -0.491279 7.02284 0
M  V30 10762 C 1732.16 -0.996264 5.77469 0
M  V30 10763 N 1732.21 -0.0501916 4.62973 0
M  V30 10764 C 1732.13 1.32786 4.63244 0
M  V30 10765 N 1732.21 1.86957 3.44545 0
M  V30 10766 C 1732.35 0.780241 2.58481 0
M  V30 10767 C 1732.48 0.738536 1.17757 0
M  V30 10768 N 1732.6 -0.58337 0.711393 0
M  V30 10769 C 1732.6 -1.70816 1.51017 0
M  V30 10770 N 1732.73 -2.87826 0.880757 0
M  V30 10771 N 1732.47 -1.67126 2.8339 0
M  V30 10772 C 1732.35 -0.401421 3.30572 0
M  V30 10773 H 1729.37 0.374722 8.67691 0
M  V30 10774 H 1729.1 0.443485 6.90277 0
M  V30 10775 H 1729.97 -1.75537 7.96793 0
M  V30 10776 P 1733.93 -2.75334 8.47391 0
M  V30 10777 O 1734.15 -3.84128 9.44797 0
M  V30 10778 O 1734.72 -1.51947 8.68712 0
M  V30 10779 O 1734.18 -3.29363 6.99321 0
M  V30 10780 C 1733.24 -4.24011 6.4274 0
M  V30 10781 C 1733.97 -5.20775 5.52155 0
M  V30 10782 O 1734.18 -4.56534 4.22446 0
M  V30 10783 C 1735.37 -5.62629 5.96531 0
M  V30 10784 O 1735.76 -6.87667 5.41053 0
M  V30 10785 C 1736.25 -4.52537 5.39283 0
M  V30 10786 C 1735.54 -4.20027 4.08623 0
M  V30 10787 N 1735.59 -2.76189 3.71603 0
M  V30 10788 H 1732.75 -4.797 7.24003 0
M  V30 10789 H 1732.48 -3.69856 5.84513 0
M  V30 10790 H 1733.35 -6.10356 5.41441 0
M  V30 10791 P 1737.31 -7.20834 5.23717 0
M  V30 10792 O 1737.53 -8.66104 5.38572 0
M  V30 10793 O 1738.1 -6.33544 6.1349 0
M  V30 10794 O 1737.56 -6.7751 3.72168 0
M  V30 10795 C 1736.62 -7.20825 2.7076 0
M  V30 10796 C 1737.35 -7.45864 1.40599 0
M  V30 10797 O 1737.56 -6.17651 0.734225 0
M  V30 10798 C 1738.75 -8.05808 1.51899 0
M  V30 10799 O 1739.14 -8.74358 0.335205 0
M  V30 10800 C 1739.63 -6.83093 1.70294 0
M  V30 10801 C 1738.92 -5.79992 0.836974 0
M  V30 10802 N 1738.97 -4.41864 1.38293 0
M  V30 10803 H 1736.13 -8.13644 3.0377 0
M  V30 10804 H 1735.86 -6.42788 2.55485 0
M  V30 10805 H 1736.73 -8.12039 0.792769 0
M  V30 10806 P 1740.69 -8.91 1.29325e-11 0
M  V30 10807 O 1740.91 -10.1726 -0.733694 0
M  V30 10808 O 1741.48 -8.73148 1.23936 0
M  V30 10809 O 1740.94 -7.66872 -0.971405 0
M  V30 10810 C 1740 -7.42309 -2.04641 0
M  V30 10811 C 1740.73 -6.86059 -3.24661 0
M  V30 10812 O 1740.94 -5.42847 -3.03646 0
M  V30 10813 C 1742.13 -7.41196 -3.50753 0
M  V30 10814 O 1742.52 -7.27073 -4.86816 0
M  V30 10815 C 1743.01 -6.5273 -2.63741 0
M  V30 10816 C 1742.3 -5.1842 -2.73198 0
M  V30 10817 N 1742.35 -4.38762 -1.4784 0
M  V30 10818 H 1739.51 -8.36803 -2.32493 0
M  V30 10819 H 1739.24 -6.70197 -1.71129 0
M  V30 10820 H 1740.11 -7.03551 -4.13168 0
M  V30 10821 P 1744.07 -7.20834 -5.23717 0
M  V30 10822 O 1744.29 -7.79853 -6.57286 0
M  V30 10823 O 1744.86 -7.79239 -4.12957 0
M  V30 10824 O 1744.32 -5.63315 -5.29344 0
M  V30 10825 C 1743.38 -4.80255 -6.01876 0
M  V30 10826 C 1744.11 -3.64202 -6.65911 0
M  V30 10827 O 1744.32 -2.60694 -5.64732 0
M  V30 10828 C 1745.51 -3.93473 -7.1943 0
M  V30 10829 O 1745.9 -3.02071 -8.21205 0
M  V30 10830 C 1746.39 -3.73047 -5.97036 0
M  V30 10831 C 1745.68 -2.58828 -5.25741 0
M  V30 10832 N 1745.73 -2.68068 -3.77503 0
M  V30 10833 H 1742.89 -5.40332 -6.79951 0
M  V30 10834 H 1742.62 -4.41613 -5.32378 0
M  V30 10835 H 1743.49 -3.26331 -7.47797 0
M  V30 10836 P 1747.45 -2.75334 -8.47391 0
M  V30 10837 O 1747.67 -2.44571 -9.90142 0
M  V30 10838 O 1748.24 -3.87688 -7.92115 0
M  V30 10839 O 1747.7 -1.4459 -7.59357 0
M  V30 10840 C 1746.76 -0.347608 -7.69215 0
M  V30 10841 C 1747.49 0.96767 -7.52806 0
M  V30 10842 O 1747.7 1.21036 -6.1011 0
M  V30 10843 C 1748.89 1.04544 -8.13308 0
M  V30 10844 O 1749.28 2.38311 -8.41922 0
M  V30 10845 C 1749.77 0.491279 -7.02284 0
M  V30 10846 C 1749.06 0.996264 -5.77469 0
M  V30 10847 N 1749.11 0.0501916 -4.62973 0
M  V30 10848 H 1746.27 -0.374722 -8.67691 0
M  V30 10849 H 1746 -0.443485 -6.90277 0
M  V30 10850 H 1746.87 1.75537 -7.96793 0
M  V30 10851 P 1750.83 2.75334 -8.47391 0
M  V30 10852 O 1751.05 3.84128 -9.44797 0
M  V30 10853 O 1751.62 1.51947 -8.68712 0
M  V30 10854 O 1751.08 3.29363 -6.99321 0
M  V30 10855 C 1750.14 4.24011 -6.4274 0
M  V30 10856 C 1750.87 5.20775 -5.52155 0
M  V30 10857 O 1751.08 4.56534 -4.22446 0
M  V30 10858 C 1752.27 5.62629 -5.96531 0
M  V30 10859 O 1752.66 6.87667 -5.41053 0
M  V30 10860 C 1753.15 4.52537 -5.39283 0
M  V30 10861 C 1752.44 4.20027 -4.08623 0
M  V30 10862 N 1752.49 2.76189 -3.71603 0
M  V30 10863 H 1749.65 4.797 -7.24003 0
M  V30 10864 H 1749.38 3.69856 -5.84513 0
M  V30 10865 H 1750.25 6.10356 -5.41441 0
M  V30 10866 P 1754.21 7.20834 -5.23717 0
M  V30 10867 O 1754.43 8.66104 -5.38572 0
M  V30 10868 O 1755 6.33544 -6.1349 0
M  V30 10869 O 1754.46 6.7751 -3.72168 0
M  V30 10870 C 1753.52 7.20825 -2.7076 0
M  V30 10871 C 1754.25 7.45864 -1.40599 0
M  V30 10872 O 1754.46 6.17651 -0.734225 0
M  V30 10873 C 1755.65 8.05808 -1.51899 0
M  V30 10874 O 1756.04 8.74358 -0.335205 0
M  V30 10875 C 1756.53 6.83093 -1.70294 0
M  V30 10876 C 1755.82 5.79992 -0.836974 0
M  V30 10877 N 1755.87 4.41864 -1.38293 0
M  V30 10878 C 1755.79 3.99538 -2.69438 0
M  V30 10879 N 1755.87 2.69909 -2.84277 0
M  V30 10880 C 1756.01 2.21719 -1.5408 0
M  V30 10881 C 1756.14 0.891712 -1.06628 0
M  V30 10882 O 1756.16 -0.161298 -1.70137 0
M  V30 10883 N 1756.26 0.856846 0.334985 0
M  V30 10884 C 1756.26 1.9641 1.15789 0
M  V30 10885 N 1756.39 1.72708 2.46522 0
M  V30 10886 N 1756.13 3.21165 0.713741 0
M  V30 10887 C 1756.01 3.26797 -0.639748 0
M  V30 10888 H 1753.03 8.13644 -3.0377 0
M  V30 10889 H 1752.76 6.42788 -2.55485 0
M  V30 10890 H 1753.63 8.12039 -0.792769 0
M  V30 10891 H 1756.28 5.80061 0.166416 0
M  V30 10892 H 1756.56 6.51287 -2.75604 0
M  V30 10893 H 1757.55 7.01734 -1.34462 0
M  V30 10894 H 1755.72 8.73674 -2.38337 0
M  V30 10895 H 1755.67 4.68207 -3.53221 0
M  V30 10896 H 1756.35 -0.0398818 0.767965 0
M  V30 10897 H 1756.39 2.50995 3.13503 0
M  V30 10898 H 1756.49 0.759148 2.80716 0
M  V30 10899 P 1757.59 8.91 -1.40415e-11 0
M  V30 10900 O 1757.81 10.1746 0.733838 0
M  V30 10901 O 1758.38 8.73346 -1.23964 0
M  V30 10902 O 1757.84 7.66872 0.971405 0
M  V30 10903 C 1756.9 7.42405 2.04668 0
M  V30 10904 C 1757.63 6.86059 3.24661 0
M  V30 10905 O 1757.84 5.42934 3.03695 0
M  V30 10906 C 1759.03 7.41287 3.50796 0
M  V30 10907 O 1759.42 7.27073 4.86816 0
M  V30 10908 C 1759.91 6.5273 2.63741 0
M  V30 10909 C 1759.2 5.1842 2.73198 0
M  V30 10910 N 1759.25 4.38762 1.4784 0
M  V30 10911 H 1756.41 8.36899 2.3252 0
M  V30 10912 H 1756.14 6.70391 1.71179 0
M  V30 10913 H 1757.01 7.03638 4.13219 0
M  V30 10914 H 1759.66 4.59931 3.54016 0
M  V30 10915 H 1759.94 6.88995 1.59871 0
M  V30 10916 H 1760.93 6.4684 3.0373 0
M  V30 10917 H 1759.1 8.47002 3.20749 0
M  V30 10918 P 1760.97 7.20834 5.23717 0
M  V30 10919 O 1761.19 7.79853 6.57286 0
M  V30 10920 O 1761.76 7.79239 4.12957 0
M  V30 10921 O 1761.22 5.63315 5.29344 0
M  V30 10922 C 1760.28 4.80255 6.01876 0
M  V30 10923 C 1761.01 3.64202 6.65911 0
M  V30 10924 O 1761.22 2.60694 5.64732 0
M  V30 10925 C 1762.41 3.93473 7.1943 0
M  V30 10926 O 1762.8 3.02071 8.21205 0
M  V30 10927 C 1763.29 3.73047 5.97036 0
M  V30 10928 C 1762.58 2.58828 5.25741 0
M  V30 10929 N 1762.63 2.68068 3.77503 0
M  V30 10930 H 1759.79 5.40332 6.79951 0
M  V30 10931 H 1759.52 4.41613 5.32378 0
M  V30 10932 H 1760.39 3.26331 7.47797 0
M  V30 10933 P 1764.35 2.75334 8.47391 0
M  V30 10934 O 1764.57 2.44571 9.90142 0
M  V30 10935 O 1765.14 3.87688 7.92115 0
M  V30 10936 O 1764.6 1.4459 7.59357 0
M  V30 10937 C 1763.66 0.347608 7.69215 0
M  V30 10938 C 1764.39 -0.96767 7.52806 0
M  V30 10939 O 1764.6 -1.21036 6.1011 0
M  V30 10940 C 1765.79 -1.04544 8.13308 0
M  V30 10941 O 1766.18 -2.38311 8.41922 0
M  V30 10942 C 1766.67 -0.491279 7.02284 0
M  V30 10943 C 1765.96 -0.996264 5.77469 0
M  V30 10944 N 1766.01 -0.0501916 4.62973 0
M  V30 10945 H 1763.17 0.374722 8.67691 0
M  V30 10946 H 1762.9 0.443485 6.90277 0
M  V30 10947 H 1763.77 -1.75537 7.96793 0
M  V30 10948 P 1767.73 -2.75334 8.47391 0
M  V30 10949 O 1767.95 -3.84128 9.44797 0
M  V30 10950 O 1768.52 -1.51947 8.68712 0
M  V30 10951 O 1767.98 -3.29363 6.99321 0
M  V30 10952 C 1767.04 -4.24011 6.4274 0
M  V30 10953 C 1767.77 -5.20775 5.52155 0
M  V30 10954 O 1767.98 -4.56534 4.22446 0
M  V30 10955 C 1769.17 -5.62629 5.96531 0
M  V30 10956 O 1769.56 -6.87667 5.41053 0
M  V30 10957 C 1770.05 -4.52537 5.39283 0
M  V30 10958 C 1769.34 -4.20027 4.08623 0
M  V30 10959 N 1769.39 -2.76189 3.71603 0
M  V30 10960 H 1766.55 -4.797 7.24003 0
M  V30 10961 H 1766.28 -3.69856 5.84513 0
M  V30 10962 H 1767.15 -6.10356 5.41441 0
M  V30 10963 P 1771.11 -7.20834 5.23717 0
M  V30 10964 O 1771.33 -8.66104 5.38572 0
M  V30 10965 O 1771.9 -6.33544 6.1349 0
M  V30 10966 O 1771.36 -6.7751 3.72168 0
M  V30 10967 C 1770.42 -7.20825 2.7076 0
M  V30 10968 C 1771.15 -7.45864 1.40599 0
M  V30 10969 O 1771.36 -6.17651 0.734225 0
M  V30 10970 C 1772.55 -8.05808 1.51899 0
M  V30 10971 O 1772.94 -8.74358 0.335205 0
M  V30 10972 C 1773.43 -6.83093 1.70294 0
M  V30 10973 C 1772.72 -5.79992 0.836974 0
M  V30 10974 N 1772.77 -4.41864 1.38293 0
M  V30 10975 H 1769.93 -8.13644 3.0377 0
M  V30 10976 H 1769.66 -6.42788 2.55485 0
M  V30 10977 H 1770.53 -8.12039 0.792769 0
M  V30 10978 P 1774.49 -8.91 1.51505e-11 0
M  V30 10979 O 1774.71 -10.1746 -0.733838 0
M  V30 10980 O 1775.28 -8.73346 1.23964 0
M  V30 10981 O 1774.74 -7.66872 -0.971405 0
M  V30 10982 C 1773.8 -7.42405 -2.04668 0
M  V30 10983 C 1774.53 -6.86059 -3.24661 0
M  V30 10984 O 1774.74 -5.42934 -3.03695 0
M  V30 10985 C 1775.93 -7.41287 -3.50796 0
M  V30 10986 O 1776.32 -7.27073 -4.86816 0
M  V30 10987 C 1776.81 -6.5273 -2.63741 0
M  V30 10988 C 1776.1 -5.1842 -2.73198 0
M  V30 10989 N 1776.15 -4.38762 -1.4784 0
M  V30 10990 H 1773.31 -8.36899 -2.3252 0
M  V30 10991 H 1773.04 -6.70391 -1.71179 0
M  V30 10992 H 1773.91 -7.03638 -4.13219 0
M  V30 10993 H 1776.56 -4.59931 -3.54016 0
M  V30 10994 H 1776.84 -6.88995 -1.59871 0
M  V30 10995 H 1777.83 -6.4684 -3.0373 0
M  V30 10996 H 1776 -8.47002 -3.20749 0
M  V30 10997 P 1777.87 -7.20834 -5.23717 0
M  V30 10998 O 1778.09 -7.7993 -6.57351 0
M  V30 10999 O 1778.66 -7.79328 -4.13004 0
M  V30 11000 O 1778.12 -5.63315 -5.29344 0
M  V30 11001 C 1777.18 -4.80193 -6.01798 0
M  V30 11002 C 1777.91 -3.64202 -6.65911 0
M  V30 11003 O 1778.12 -2.60694 -5.64732 0
M  V30 11004 C 1779.31 -3.93473 -7.1943 0
M  V30 11005 O 1779.7 -3.02071 -8.21205 0
M  V30 11006 C 1780.19 -3.73047 -5.97036 0
M  V30 11007 C 1779.48 -2.58828 -5.25741 0
M  V30 11008 N 1779.53 -2.6801 -3.77422 0
M  V30 11009 C 1779.68 -1.50443 -3.07133 0
M  V30 11010 O 1779.77 -0.419406 -3.61576 0
M  V30 11011 N 1779.72 -1.6403 -1.69677 0
M  V30 11012 C 1779.63 -2.81206 -0.986255 0
M  V30 11013 C 1779.48 -3.99158 -1.80325 0
M  V30 11014 C 1779.43 -3.89779 -3.1476 0
M  V30 11015 H 1776.69 -5.40332 -6.79951 0
M  V30 11016 H 1776.42 -4.41549 -5.32301 0
M  V30 11017 H 1777.29 -3.26331 -7.47797 0
M  V30 11018 H 1779.94 -1.6395 -5.56554 0
M  V30 11019 H 1780.22 -4.63439 -5.3432 0
M  V30 11020 H 1781.21 -3.44728 -6.25838 0
M  V30 11021 H 1779.38 -4.96652 -7.57263 0
M  V30 11022 H 1779.31 -4.80159 -3.74441 0
M  V30 11023 P 1781.25 -2.75334 -8.47391 0
M  V30 11024 O 1781.47 -2.44571 -9.90142 0
M  V30 11025 O 1782.04 -3.87688 -7.92115 0
M  V30 11026 O 1781.5 -1.4459 -7.59357 0
M  V30 11027 C 1780.56 -0.347608 -7.69215 0
M  V30 11028 C 1781.29 0.96767 -7.52806 0
M  V30 11029 O 1781.5 1.21036 -6.1011 0
M  V30 11030 C 1782.69 1.04544 -8.13308 0
M  V30 11031 O 1783.08 2.38311 -8.41922 0
M  V30 11032 C 1783.57 0.491279 -7.02284 0
M  V30 11033 C 1782.86 0.996264 -5.77469 0
M  V30 11034 N 1782.91 0.0501916 -4.62973 0
M  V30 11035 C 1782.83 -1.32786 -4.63244 0
M  V30 11036 N 1782.91 -1.86957 -3.44545 0
M  V30 11037 C 1783.05 -0.780241 -2.58481 0
M  V30 11038 C 1783.18 -0.738536 -1.17757 0
M  V30 11039 O 1783.2 -1.66794 -0.372349 0
M  V30 11040 N 1783.3 0.58337 -0.711393 0
M  V30 11041 C 1783.3 1.70816 -1.51017 0
M  V30 11042 N 1783.43 2.87826 -0.880757 0
M  V30 11043 N 1783.17 1.67126 -2.8339 0
M  V30 11044 C 1783.05 0.401421 -3.30572 0
M  V30 11045 H 1780.07 -0.374722 -8.67691 0
M  V30 11046 H 1779.8 -0.443485 -6.90277 0
M  V30 11047 H 1780.67 1.75537 -7.96793 0
M  V30 11048 H 1783.32 1.95076 -5.46529 0
M  V30 11049 H 1783.6 -0.608565 -7.04577 0
M  V30 11050 H 1784.59 0.889672 -7.08939 0
M  V30 11051 H 1782.76 0.43308 -9.04564 0
M  V30 11052 H 1782.71 -1.91249 -5.54442 0
M  V30 11053 H 1783.39 0.718054 0.275244 0
M  V30 11054 H 1783.43 3.75721 -1.41832 0
M  V30 11055 H 1783.53 2.90436 0.145468 0
M  V30 11056 P 1784.63 2.75334 -8.47391 0
M  V30 11057 O 1784.85 3.84128 -9.44797 0
M  V30 11058 O 1785.42 1.51947 -8.68712 0
M  V30 11059 O 1784.88 3.29363 -6.99321 0
M  V30 11060 C 1783.94 4.24011 -6.4274 0
M  V30 11061 C 1784.67 5.20775 -5.52155 0
M  V30 11062 O 1784.88 4.56534 -4.22446 0
M  V30 11063 C 1786.07 5.62629 -5.96531 0
M  V30 11064 O 1786.46 6.87667 -5.41053 0
M  V30 11065 C 1786.95 4.52537 -5.39283 0
M  V30 11066 C 1786.24 4.20027 -4.08623 0
M  V30 11067 N 1786.29 2.76189 -3.71603 0
M  V30 11068 H 1783.45 4.797 -7.24003 0
M  V30 11069 H 1783.18 3.69856 -5.84513 0
M  V30 11070 H 1784.05 6.10356 -5.41441 0
M  V30 11071 P 1788.01 7.20834 -5.23717 0
M  V30 11072 O 1788.23 8.66104 -5.38572 0
M  V30 11073 O 1788.8 6.33544 -6.1349 0
M  V30 11074 O 1788.26 6.7751 -3.72168 0
M  V30 11075 C 1787.32 7.20825 -2.7076 0
M  V30 11076 C 1788.05 7.45864 -1.40599 0
M  V30 11077 O 1788.26 6.17651 -0.734225 0
M  V30 11078 C 1789.45 8.05808 -1.51899 0
M  V30 11079 O 1789.84 8.74358 -0.335205 0
M  V30 11080 C 1790.33 6.83093 -1.70294 0
M  V30 11081 C 1789.62 5.79992 -0.836974 0
M  V30 11082 N 1789.67 4.41864 -1.38293 0
M  V30 11083 H 1786.83 8.13644 -3.0377 0
M  V30 11084 H 1786.56 6.42788 -2.55485 0
M  V30 11085 H 1787.43 8.12039 -0.792769 0
M  V30 11086 P 1791.39 8.91 -1.62595e-11 0
M  V30 11087 O 1791.61 10.1736 0.733766 0
M  V30 11088 O 1792.18 8.73247 -1.2395 0
M  V30 11089 O 1791.64 7.66872 0.971405 0
M  V30 11090 C 1790.7 7.42212 2.04614 0
M  V30 11091 C 1791.43 6.86059 3.24661 0
M  V30 11092 O 1791.64 5.42847 3.03646 0
M  V30 11093 C 1792.83 7.41196 3.50753 0
M  V30 11094 O 1793.22 7.27073 4.86816 0
M  V30 11095 C 1793.71 6.5273 2.63741 0
M  V30 11096 C 1793 5.1842 2.73198 0
M  V30 11097 N 1793.05 4.38668 1.47808 0
M  V30 11098 C 1793.2 3.02239 1.60048 0
M  V30 11099 O 1793.29 2.46459 2.67869 0
M  V30 11100 N 1793.24 2.32436 0.408571 0
M  V30 11101 C 1793.15 2.85471 -0.854993 0
M  V30 11102 O 1793.2 2.12566 -1.8531 0
M  V30 11103 C 1793 4.28918 -0.887335 0
M  V30 11104 C 1792.89 4.91066 -2.24619 0
M  V30 11105 C 1792.95 5.00349 0.255399 0
M  V30 11106 H 1790.21 8.36803 2.32493 0
M  V30 11107 H 1789.94 6.701 1.71105 0
M  V30 11108 H 1790.81 7.03551 4.13168 0
M  V30 11109 H 1793.46 4.59773 3.53894 0
M  V30 11110 H 1793.74 6.88995 1.59871 0
M  V30 11111 H 1794.73 6.46749 3.03687 0
M  V30 11112 H 1792.9 8.46908 3.20714 0
M  V30 11113 H 1792.83 6.08548 0.206986 0
M  V30 11114 H 1793.86 5.34836 -2.53099 0
M  V30 11115 H 1792.12 5.69638 -2.2291 0
M  V30 11116 H 1792.61 4.13971 -2.98044 0
M  V30 11117 H 1793.35 1.33211 0.474216 0
M  V30 11118 P 1794.77 7.20834 5.23717 0
M  V30 11119 O 1794.99 7.79853 6.57286 0
M  V30 11120 O 1795.56 7.79239 4.12957 0
M  V30 11121 O 1795.02 5.63315 5.29344 0
M  V30 11122 C 1794.08 4.80255 6.01876 0
M  V30 11123 C 1794.81 3.64202 6.65911 0
M  V30 11124 O 1795.02 2.60694 5.64732 0
M  V30 11125 C 1796.21 3.93473 7.1943 0
M  V30 11126 O 1796.6 3.02071 8.21205 0
M  V30 11127 C 1797.09 3.73047 5.97036 0
M  V30 11128 C 1796.38 2.58828 5.25741 0
M  V30 11129 N 1796.43 2.68068 3.77503 0
M  V30 11130 H 1793.59 5.40332 6.79951 0
M  V30 11131 H 1793.32 4.41613 5.32378 0
M  V30 11132 H 1794.19 3.26331 7.47797 0
M  V30 11133 P 1798.15 2.75334 8.47391 0
M  V30 11134 O 1798.37 2.44571 9.90142 0
M  V30 11135 O 1798.94 3.87688 7.92115 0
M  V30 11136 O 1798.4 1.4459 7.59357 0
M  V30 11137 C 1797.46 0.347608 7.69215 0
M  V30 11138 C 1798.19 -0.96767 7.52806 0
M  V30 11139 O 1798.4 -1.21036 6.1011 0
M  V30 11140 C 1799.59 -1.04544 8.13308 0
M  V30 11141 O 1799.98 -2.38311 8.41922 0
M  V30 11142 C 1800.47 -0.491279 7.02284 0
M  V30 11143 C 1799.76 -0.996264 5.77469 0
M  V30 11144 N 1799.81 -0.0501916 4.62973 0
M  V30 11145 H 1796.97 0.374722 8.67691 0
M  V30 11146 H 1796.7 0.443485 6.90277 0
M  V30 11147 H 1797.57 -1.75537 7.96793 0
M  V30 11148 P 1801.53 -2.75334 8.47391 0
M  V30 11149 O 1801.75 -3.84128 9.44797 0
M  V30 11150 O 1802.32 -1.51947 8.68712 0
M  V30 11151 O 1801.78 -3.29363 6.99321 0
M  V30 11152 C 1800.84 -4.24011 6.4274 0
M  V30 11153 C 1801.57 -5.20775 5.52155 0
M  V30 11154 O 1801.78 -4.56534 4.22446 0
M  V30 11155 C 1802.97 -5.62629 5.96531 0
M  V30 11156 O 1803.36 -6.87667 5.41053 0
M  V30 11157 C 1803.85 -4.52537 5.39283 0
M  V30 11158 C 1803.14 -4.20027 4.08623 0
M  V30 11159 N 1803.19 -2.76189 3.71603 0
M  V30 11160 H 1800.35 -4.797 7.24003 0
M  V30 11161 H 1800.08 -3.69856 5.84513 0
M  V30 11162 H 1800.95 -6.10356 5.41441 0
M  V30 11163 P 1804.91 -7.20834 5.23717 0
M  V30 11164 O 1805.13 -8.66104 5.38572 0
M  V30 11165 O 1805.7 -6.33544 6.1349 0
M  V30 11166 O 1805.16 -6.7751 3.72168 0
M  V30 11167 C 1804.22 -7.20825 2.7076 0
M  V30 11168 C 1804.95 -7.45864 1.40599 0
M  V30 11169 O 1805.16 -6.17651 0.734225 0
M  V30 11170 C 1806.35 -8.05808 1.51899 0
M  V30 11171 O 1806.74 -8.74358 0.335205 0
M  V30 11172 C 1807.23 -6.83093 1.70294 0
M  V30 11173 C 1806.52 -5.79992 0.836974 0
M  V30 11174 N 1806.57 -4.41864 1.38293 0
M  V30 11175 H 1803.73 -8.13644 3.0377 0
M  V30 11176 H 1803.46 -6.42788 2.55485 0
M  V30 11177 H 1804.33 -8.12039 0.792769 0
M  V30 11178 P 1808.29 -8.91 1.73686e-11 0
M  V30 11179 O 1808.51 -10.1726 -0.733694 0
M  V30 11180 O 1809.08 -8.73148 1.23936 0
M  V30 11181 O 1808.54 -7.66872 -0.971405 0
M  V30 11182 C 1807.6 -7.42309 -2.04641 0
M  V30 11183 C 1808.33 -6.86059 -3.24661 0
M  V30 11184 O 1808.54 -5.42847 -3.03646 0
M  V30 11185 C 1809.73 -7.41196 -3.50753 0
M  V30 11186 O 1810.12 -7.27073 -4.86816 0
M  V30 11187 C 1810.61 -6.5273 -2.63741 0
M  V30 11188 C 1809.9 -5.1842 -2.73198 0
M  V30 11189 N 1809.95 -4.38762 -1.4784 0
M  V30 11190 H 1807.11 -8.36803 -2.32493 0
M  V30 11191 H 1806.84 -6.70197 -1.71129 0
M  V30 11192 H 1807.71 -7.03551 -4.13168 0
M  V30 11193 P 1811.67 -7.20834 -5.23717 0
M  V30 11194 O 1811.89 -7.79853 -6.57286 0
M  V30 11195 O 1812.46 -7.79239 -4.12957 0
M  V30 11196 O 1811.92 -5.63315 -5.29344 0
M  V30 11197 C 1810.98 -4.80255 -6.01876 0
M  V30 11198 C 1811.71 -3.64202 -6.65911 0
M  V30 11199 O 1811.92 -2.60694 -5.64732 0
M  V30 11200 C 1813.11 -3.93473 -7.1943 0
M  V30 11201 O 1813.5 -3.02071 -8.21205 0
M  V30 11202 C 1813.99 -3.73047 -5.97036 0
M  V30 11203 C 1813.28 -2.58828 -5.25741 0
M  V30 11204 N 1813.33 -2.68068 -3.77503 0
M  V30 11205 H 1810.49 -5.40332 -6.79951 0
M  V30 11206 H 1810.22 -4.41613 -5.32378 0
M  V30 11207 H 1811.09 -3.26331 -7.47797 0
M  V30 11208 P 1815.05 -2.75334 -8.47391 0
M  V30 11209 O 1815.27 -2.44571 -9.90142 0
M  V30 11210 O 1815.84 -3.87688 -7.92115 0
M  V30 11211 O 1815.3 -1.4459 -7.59357 0
M  V30 11212 C 1814.36 -0.347608 -7.69215 0
M  V30 11213 C 1815.09 0.96767 -7.52806 0
M  V30 11214 O 1815.3 1.21036 -6.1011 0
M  V30 11215 C 1816.49 1.04544 -8.13308 0
M  V30 11216 O 1816.88 2.38311 -8.41922 0
M  V30 11217 C 1817.37 0.491279 -7.02284 0
M  V30 11218 C 1816.66 0.996264 -5.77469 0
M  V30 11219 N 1816.71 0.0501916 -4.62973 0
M  V30 11220 H 1813.87 -0.374722 -8.67691 0
M  V30 11221 H 1813.6 -0.443485 -6.90277 0
M  V30 11222 H 1814.47 1.75537 -7.96793 0
M  V30 11223 P 1818.43 2.75334 -8.47391 0
M  V30 11224 O 1818.65 3.84166 -9.4489 0
M  V30 11225 O 1819.22 1.51964 -8.6881 0
M  V30 11226 O 1818.68 3.29363 -6.99321 0
M  V30 11227 C 1817.74 4.23956 -6.42656 0
M  V30 11228 C 1818.47 5.20775 -5.52155 0
M  V30 11229 O 1818.68 4.56534 -4.22446 0
M  V30 11230 C 1819.87 5.62629 -5.96531 0
M  V30 11231 O 1820.26 6.87667 -5.41053 0
M  V30 11232 C 1820.75 4.52537 -5.39283 0
M  V30 11233 C 1820.04 4.20027 -4.08623 0
M  V30 11234 N 1820.09 2.7613 -3.71522 0
M  V30 11235 C 1820.24 2.45612 -2.37989 0
M  V30 11236 O 1820.33 3.30919 -1.51621 0
M  V30 11237 N 1820.28 1.10684 -2.08435 0
M  V30 11238 C 1820.19 0.0690084 -2.9792 0
M  V30 11239 C 1820.04 0.481522 -4.35345 0
M  V30 11240 C 1819.99 1.78906 -4.67968 0
M  V30 11241 H 1817.25 4.797 -7.24003 0
M  V30 11242 H 1816.98 3.69802 -5.84429 0
M  V30 11243 H 1817.85 6.10356 -5.41441 0
M  V30 11244 H 1820.5 4.78651 -3.27911 0
M  V30 11245 H 1820.78 3.64957 -6.05871 0
M  V30 11246 H 1821.77 4.8868 -5.2125 0
M  V30 11247 H 1819.94 5.66726 -7.06352 0
M  V30 11248 H 1819.87 2.07737 -5.72367 0
M  V30 11249 P 1821.81 7.20834 -5.23717 0
M  V30 11250 O 1822.03 8.66104 -5.38572 0
M  V30 11251 O 1822.6 6.33544 -6.1349 0
M  V30 11252 O 1822.06 6.7751 -3.72168 0
M  V30 11253 C 1821.12 7.20825 -2.7076 0
M  V30 11254 C 1821.85 7.45864 -1.40599 0
M  V30 11255 O 1822.06 6.17651 -0.734225 0
M  V30 11256 C 1823.25 8.05808 -1.51899 0
M  V30 11257 O 1823.64 8.74358 -0.335205 0
M  V30 11258 C 1824.13 6.83093 -1.70294 0
M  V30 11259 C 1823.42 5.79992 -0.836974 0
M  V30 11260 N 1823.47 4.41864 -1.38293 0
M  V30 11261 H 1820.63 8.13644 -3.0377 0
M  V30 11262 H 1820.36 6.42788 -2.55485 0
M  V30 11263 H 1821.23 8.12039 -0.792769 0
M  V30 11264 P 1825.19 8.91 -1.84776e-11 0
M  V30 11265 O 1825.41 10.1726 0.733694 0
M  V30 11266 O 1825.98 8.73148 -1.23936 0
M  V30 11267 O 1825.44 7.66872 0.971405 0
M  V30 11268 C 1824.5 7.42309 2.04641 0
M  V30 11269 C 1825.23 6.86059 3.24661 0
M  V30 11270 O 1825.44 5.42847 3.03646 0
M  V30 11271 C 1826.63 7.41196 3.50753 0
M  V30 11272 O 1827.02 7.27073 4.86816 0
M  V30 11273 C 1827.51 6.5273 2.63741 0
M  V30 11274 C 1826.8 5.1842 2.73198 0
M  V30 11275 N 1826.85 4.38762 1.4784 0
M  V30 11276 H 1824.01 8.36803 2.32493 0
M  V30 11277 H 1823.74 6.70197 1.71129 0
M  V30 11278 H 1824.61 7.03551 4.13168 0
M  V30 11279 P 1828.57 7.20834 5.23717 0
M  V30 11280 O 1828.79 7.79853 6.57286 0
M  V30 11281 O 1829.36 7.79239 4.12957 0
M  V30 11282 O 1828.82 5.63315 5.29344 0
M  V30 11283 C 1827.88 4.80255 6.01876 0
M  V30 11284 C 1828.61 3.64202 6.65911 0
M  V30 11285 O 1828.82 2.60694 5.64732 0
M  V30 11286 C 1830.01 3.93473 7.1943 0
M  V30 11287 O 1830.4 3.02071 8.21205 0
M  V30 11288 C 1830.89 3.73047 5.97036 0
M  V30 11289 C 1830.18 2.58828 5.25741 0
M  V30 11290 N 1830.23 2.68068 3.77503 0
M  V30 11291 H 1827.39 5.40332 6.79951 0
M  V30 11292 H 1827.12 4.41613 5.32378 0
M  V30 11293 H 1827.99 3.26331 7.47797 0
M  V30 11294 P 1831.95 2.75334 8.47391 0
M  V30 11295 O 1832.17 2.44619 9.90336 0
M  V30 11296 O 1832.74 3.87776 7.92294 0
M  V30 11297 O 1832.2 1.4459 7.59357 0
M  V30 11298 C 1831.26 0.347653 7.69315 0
M  V30 11299 C 1831.99 -0.96767 7.52806 0
M  V30 11300 O 1832.2 -1.21055 6.10208 0
M  V30 11301 C 1833.39 -1.04557 8.13408 0
M  V30 11302 O 1833.78 -2.38311 8.41922 0
M  V30 11303 C 1834.27 -0.491279 7.02284 0
M  V30 11304 C 1833.56 -0.996264 5.77469 0
M  V30 11305 N 1833.61 -0.0501916 4.62973 0
M  V30 11306 C 1833.53 1.31969 4.65661 0
M  V30 11307 N 1833.6 1.86649 3.48119 0
M  V30 11308 C 1833.75 0.792089 2.62406 0
M  V30 11309 C 1833.88 0.705684 1.2207 0
M  V30 11310 N 1833.89 1.76207 0.413762 0
M  V30 11311 N 1834 -0.518981 0.685754 0
M  V30 11312 C 1833.99 -1.57595 1.49174 0
M  V30 11313 N 1833.87 -1.62909 2.80066 0
M  V30 11314 C 1833.75 -0.388195 3.3073 0
M  V30 11315 H 1830.77 0.374765 8.67791 0
M  V30 11316 H 1830.5 0.443613 6.90476 0
M  V30 11317 H 1831.37 -1.75559 7.96891 0
M  V30 11318 H 1834.02 -1.94563 5.46818 0
M  V30 11319 H 1834.3 0.608651 7.04676 0
M  V30 11320 H 1835.29 -0.889796 7.09039 0
M  V30 11321 H 1833.46 -0.433128 9.04664 0
M  V30 11322 H 1833.42 1.89246 5.57664 0
M  V30 11323 H 1833.8 2.71005 0.804694 0
M  V30 11324 H 1833.99 1.63189 -0.603768 0
M  V30 11325 H 1834.1 -2.53475 0.997614 0
M  V30 11326 P 1835.33 -2.75334 8.47391 0
M  V30 11327 O 1835.55 -3.84128 9.44797 0
M  V30 11328 O 1836.12 -1.51947 8.68712 0
M  V30 11329 O 1835.58 -3.29363 6.99321 0
M  V30 11330 C 1834.64 -4.24011 6.4274 0
M  V30 11331 C 1835.37 -5.20775 5.52155 0
M  V30 11332 O 1835.58 -4.56534 4.22446 0
M  V30 11333 C 1836.77 -5.62629 5.96531 0
M  V30 11334 O 1837.16 -6.87667 5.41053 0
M  V30 11335 C 1837.65 -4.52537 5.39283 0
M  V30 11336 C 1836.94 -4.20027 4.08623 0
M  V30 11337 N 1836.99 -2.76189 3.71603 0
M  V30 11338 H 1834.15 -4.797 7.24003 0
M  V30 11339 H 1833.88 -3.69856 5.84513 0
M  V30 11340 H 1834.75 -6.10356 5.41441 0
M  V30 11341 P 1838.71 -7.20834 5.23717 0
M  V30 11342 O 1838.93 -8.66274 5.38678 0
M  V30 11343 O 1839.5 -6.33687 6.13629 0
M  V30 11344 O 1838.96 -6.7751 3.72168 0
M  V30 11345 C 1838.02 -7.20919 2.70795 0
M  V30 11346 C 1838.75 -7.45864 1.40599 0
M  V30 11347 O 1838.96 -6.17751 0.734343 0
M  V30 11348 C 1840.15 -8.05906 1.51917 0
M  V30 11349 O 1840.54 -8.74358 0.335205 0
M  V30 11350 C 1841.03 -6.83093 1.70294 0
M  V30 11351 C 1840.32 -5.79992 0.836974 0
M  V30 11352 N 1840.37 -4.41864 1.38293 0
M  V30 11353 C 1840.29 -4.02089 2.69407 0
M  V30 11354 N 1840.36 -2.73403 2.85089 0
M  V30 11355 C 1840.51 -2.25086 1.5642 0
M  V30 11356 C 1840.64 -0.942887 1.04836 0
M  V30 11357 N 1840.65 0.150999 1.80369 0
M  V30 11358 N 1840.76 -0.812565 -0.28167 0
M  V30 11359 C 1840.75 -1.90572 -1.03784 0
M  V30 11360 N 1840.63 -3.167 -0.683905 0
M  V30 11361 C 1840.51 -3.26538 0.652815 0
M  V30 11362 H 1837.53 -8.13738 3.03804 0
M  V30 11363 H 1837.26 -6.42974 2.55559 0
M  V30 11364 H 1838.13 -8.12139 0.792866 0
M  V30 11365 H 1840.78 -5.80178 -0.160643 0
M  V30 11366 H 1841.06 -6.51379 2.75643 0
M  V30 11367 H 1842.05 -7.01832 1.3448 0
M  V30 11368 H 1840.22 -8.73771 2.38364 0
M  V30 11369 H 1840.18 -4.7189 3.52311 0
M  V30 11370 H 1840.56 0.0721434 2.82608 0
M  V30 11371 H 1840.75 1.0785 1.36544 0
M  V30 11372 H 1840.86 -1.73207 -2.10241 0
M  V30 11373 P 1842.09 -8.91 1.95866e-11 0
M  V30 11374 O 1842.31 -10.1726 -0.733694 0
M  V30 11375 O 1842.88 -8.73148 1.23936 0
M  V30 11376 O 1842.34 -7.66872 -0.971405 0
M  V30 11377 C 1841.4 -7.42309 -2.04641 0
M  V30 11378 C 1842.13 -6.86059 -3.24661 0
M  V30 11379 O 1842.34 -5.42847 -3.03646 0
M  V30 11380 C 1843.53 -7.41196 -3.50753 0
M  V30 11381 O 1843.92 -7.27073 -4.86816 0
M  V30 11382 C 1844.41 -6.5273 -2.63741 0
M  V30 11383 C 1843.7 -5.1842 -2.73198 0
M  V30 11384 N 1843.75 -4.38762 -1.4784 0
M  V30 11385 H 1840.91 -8.36803 -2.32493 0
M  V30 11386 H 1840.64 -6.70197 -1.71129 0
M  V30 11387 H 1841.51 -7.03551 -4.13168 0
M  V30 11388 P 1845.47 -7.20834 -5.23717 0
M  V30 11389 O 1845.69 -7.80006 -6.57415 0
M  V30 11390 O 1846.26 -7.79416 -4.13051 0
M  V30 11391 O 1845.72 -5.63315 -5.29344 0
M  V30 11392 C 1844.78 -4.80318 -6.01954 0
M  V30 11393 C 1845.51 -3.64202 -6.65911 0
M  V30 11394 O 1845.72 -2.60736 -5.64823 0
M  V30 11395 C 1846.91 -3.93521 -7.19518 0
M  V30 11396 O 1847.3 -3.02071 -8.21205 0
M  V30 11397 C 1847.79 -3.73047 -5.97036 0
M  V30 11398 C 1847.08 -2.58828 -5.25741 0
M  V30 11399 N 1847.13 -2.68068 -3.77503 0
M  V30 11400 C 1847.05 -3.80474 -2.99159 0
M  V30 11401 N 1847.12 -3.55622 -1.71925 0
M  V30 11402 C 1847.27 -2.1832 -1.65733 0
M  V30 11403 C 1847.4 -1.28842 -0.572777 0
M  V30 11404 N 1847.41 -1.66875 0.70098 0
M  V30 11405 N 1847.52 0.016788 -0.859836 0
M  V30 11406 C 1847.51 0.398145 -2.13316 0
M  V30 11407 N 1847.39 -0.328224 -3.22333 0
M  V30 11408 C 1847.27 -1.62992 -2.90383 0
M  V30 11409 H 1844.29 -5.40394 -6.8003 0
M  V30 11410 H 1844.02 -4.41741 -5.32532 0
M  V30 11411 H 1844.89 -3.26371 -7.47889 0
M  V30 11412 H 1847.54 -1.64007 -5.56746 0
M  V30 11413 H 1847.82 -4.63439 -5.3432 0
M  V30 11414 H 1848.81 -3.44776 -6.25925 0
M  V30 11415 H 1846.98 -4.96707 -7.57347 0
M  V30 11416 H 1846.94 -4.8089 -3.39924 0
M  V30 11417 H 1847.32 -2.66547 0.941919 0
M  V30 11418 H 1847.51 -0.965341 1.44766 0
M  V30 11419 H 1847.62 1.46427 -2.29697 0
M  V30 11420 P 1848.85 -2.75334 -8.47391 0
M  V30 11421 O 1849.07 -2.44571 -9.90142 0
M  V30 11422 O 1849.64 -3.87688 -7.92115 0
M  V30 11423 O 1849.1 -1.4459 -7.59357 0
M  V30 11424 C 1848.16 -0.347608 -7.69215 0
M  V30 11425 C 1848.89 0.96767 -7.52806 0
M  V30 11426 O 1849.1 1.21036 -6.1011 0
M  V30 11427 C 1850.29 1.04544 -8.13308 0
M  V30 11428 O 1850.68 2.38311 -8.41922 0
M  V30 11429 C 1851.17 0.491279 -7.02284 0
M  V30 11430 C 1850.46 0.996264 -5.77469 0
M  V30 11431 N 1850.51 0.0501916 -4.62973 0
M  V30 11432 H 1847.67 -0.374722 -8.67691 0
M  V30 11433 H 1847.4 -0.443485 -6.90277 0
M  V30 11434 H 1848.27 1.75537 -7.96793 0
M  V30 11435 P 1852.23 2.75334 -8.47391 0
M  V30 11436 O 1852.45 3.84128 -9.44797 0
M  V30 11437 O 1853.02 1.51947 -8.68712 0
M  V30 11438 O 1852.48 3.29363 -6.99321 0
M  V30 11439 C 1851.54 4.24011 -6.4274 0
M  V30 11440 C 1852.27 5.20775 -5.52155 0
M  V30 11441 O 1852.48 4.56534 -4.22446 0
M  V30 11442 C 1853.67 5.62629 -5.96531 0
M  V30 11443 O 1854.06 6.87667 -5.41053 0
M  V30 11444 C 1854.55 4.52537 -5.39283 0
M  V30 11445 C 1853.84 4.20027 -4.08623 0
M  V30 11446 N 1853.89 2.76189 -3.71603 0
M  V30 11447 H 1851.05 4.797 -7.24003 0
M  V30 11448 H 1850.78 3.69856 -5.84513 0
M  V30 11449 H 1851.65 6.10356 -5.41441 0
M  V30 11450 P 1855.61 7.20834 -5.23717 0
M  V30 11451 O 1855.83 8.66104 -5.38572 0
M  V30 11452 O 1856.4 6.33544 -6.1349 0
M  V30 11453 O 1855.86 6.7751 -3.72168 0
M  V30 11454 C 1854.92 7.20825 -2.7076 0
M  V30 11455 C 1855.65 7.45864 -1.40599 0
M  V30 11456 O 1855.86 6.17651 -0.734225 0
M  V30 11457 C 1857.05 8.05808 -1.51899 0
M  V30 11458 O 1857.44 8.74358 -0.335205 0
M  V30 11459 C 1857.93 6.83093 -1.70294 0
M  V30 11460 C 1857.22 5.79992 -0.836974 0
M  V30 11461 N 1857.27 4.41864 -1.38293 0
M  V30 11462 H 1854.43 8.13644 -3.0377 0
M  V30 11463 H 1854.16 6.42788 -2.55485 0
M  V30 11464 H 1855.03 8.12039 -0.792769 0
M  V30 11465 P 1858.99 8.91 -2.06956e-11 0
M  V30 11466 O 1859.21 10.1726 0.733694 0
M  V30 11467 O 1859.78 8.73148 -1.23936 0
M  V30 11468 O 1859.24 7.66872 0.971405 0
M  V30 11469 C 1858.3 7.42309 2.04641 0
M  V30 11470 C 1859.03 6.86059 3.24661 0
M  V30 11471 O 1859.24 5.42847 3.03646 0
M  V30 11472 C 1860.43 7.41196 3.50753 0
M  V30 11473 O 1860.82 7.27073 4.86816 0
M  V30 11474 C 1861.31 6.5273 2.63741 0
M  V30 11475 C 1860.6 5.1842 2.73198 0
M  V30 11476 N 1860.65 4.38762 1.4784 0
M  V30 11477 H 1857.81 8.36803 2.32493 0
M  V30 11478 H 1857.54 6.70197 1.71129 0
M  V30 11479 H 1858.41 7.03551 4.13168 0
M  V30 11480 P 1862.37 7.20834 5.23717 0
M  V30 11481 O 1862.59 7.79853 6.57286 0
M  V30 11482 O 1863.16 7.79239 4.12957 0
M  V30 11483 O 1862.62 5.63315 5.29344 0
M  V30 11484 C 1861.68 4.80255 6.01876 0
M  V30 11485 C 1862.41 3.64202 6.65911 0
M  V30 11486 O 1862.62 2.60694 5.64732 0
M  V30 11487 C 1863.81 3.93473 7.1943 0
M  V30 11488 O 1864.2 3.02071 8.21205 0
M  V30 11489 C 1864.69 3.73047 5.97036 0
M  V30 11490 C 1863.98 2.58828 5.25741 0
M  V30 11491 N 1864.03 2.68068 3.77503 0
M  V30 11492 H 1861.19 5.40332 6.79951 0
M  V30 11493 H 1860.92 4.41613 5.32378 0
M  V30 11494 H 1861.79 3.26331 7.47797 0
M  V30 11495 P 1865.75 2.75334 8.47391 0
M  V30 11496 O 1865.97 2.44571 9.90142 0
M  V30 11497 O 1866.54 3.87688 7.92115 0
M  V30 11498 O 1866 1.4459 7.59357 0
M  V30 11499 C 1865.06 0.347608 7.69215 0
M  V30 11500 C 1865.79 -0.96767 7.52806 0
M  V30 11501 O 1866 -1.21036 6.1011 0
M  V30 11502 C 1867.19 -1.04544 8.13308 0
M  V30 11503 O 1867.58 -2.38311 8.41922 0
M  V30 11504 C 1868.07 -0.491279 7.02284 0
M  V30 11505 C 1867.36 -0.996264 5.77469 0
M  V30 11506 N 1867.41 -0.0501916 4.62973 0
M  V30 11507 H 1864.57 0.374722 8.67691 0
M  V30 11508 H 1864.3 0.443485 6.90277 0
M  V30 11509 H 1865.17 -1.75537 7.96793 0
M  V30 11510 P 1869.13 -2.75334 8.47391 0
M  V30 11511 O 1869.35 -3.84128 9.44797 0
M  V30 11512 O 1869.92 -1.51947 8.68712 0
M  V30 11513 O 1869.38 -3.29363 6.99321 0
M  V30 11514 C 1868.44 -4.24011 6.4274 0
M  V30 11515 C 1869.17 -5.20775 5.52155 0
M  V30 11516 O 1869.38 -4.56534 4.22446 0
M  V30 11517 C 1870.57 -5.62629 5.96531 0
M  V30 11518 O 1870.96 -6.87667 5.41053 0
M  V30 11519 C 1871.45 -4.52537 5.39283 0
M  V30 11520 C 1870.74 -4.20027 4.08623 0
M  V30 11521 N 1870.79 -2.76189 3.71603 0
M  V30 11522 H 1867.95 -4.797 7.24003 0
M  V30 11523 H 1867.68 -3.69856 5.84513 0
M  V30 11524 H 1868.55 -6.10356 5.41441 0
M  V30 11525 P 1872.51 -7.20834 5.23717 0
M  V30 11526 O 1872.73 -8.66104 5.38572 0
M  V30 11527 O 1873.3 -6.33544 6.1349 0
M  V30 11528 O 1872.76 -6.7751 3.72168 0
M  V30 11529 C 1871.82 -7.20825 2.7076 0
M  V30 11530 C 1872.55 -7.45864 1.40599 0
M  V30 11531 O 1872.76 -6.17651 0.734225 0
M  V30 11532 C 1873.95 -8.05808 1.51899 0
M  V30 11533 O 1874.34 -8.74358 0.335205 0
M  V30 11534 C 1874.83 -6.83093 1.70294 0
M  V30 11535 C 1874.12 -5.79992 0.836974 0
M  V30 11536 N 1874.17 -4.41864 1.38293 0
M  V30 11537 H 1871.33 -8.13644 3.0377 0
M  V30 11538 H 1871.06 -6.42788 2.55485 0
M  V30 11539 H 1871.93 -8.12039 0.792769 0
M  V30 11540 P 1875.89 -8.91 2.18046e-11 0
M  V30 11541 O 1876.11 -10.1726 -0.733694 0
M  V30 11542 O 1876.68 -8.73148 1.23936 0
M  V30 11543 O 1876.14 -7.66872 -0.971405 0
M  V30 11544 C 1875.2 -7.42309 -2.04641 0
M  V30 11545 C 1875.93 -6.86059 -3.24661 0
M  V30 11546 O 1876.14 -5.42847 -3.03646 0
M  V30 11547 C 1877.33 -7.41196 -3.50753 0
M  V30 11548 O 1877.72 -7.27073 -4.86816 0
M  V30 11549 C 1878.21 -6.5273 -2.63741 0
M  V30 11550 C 1877.5 -5.1842 -2.73198 0
M  V30 11551 N 1877.55 -4.38762 -1.4784 0
M  V30 11552 H 1874.71 -8.36803 -2.32493 0
M  V30 11553 H 1874.44 -6.70197 -1.71129 0
M  V30 11554 H 1875.31 -7.03551 -4.13168 0
M  V30 11555 P 1879.27 -7.20834 -5.23717 0
M  V30 11556 O 1879.49 -7.79853 -6.57286 0
M  V30 11557 O 1880.06 -7.79239 -4.12957 0
M  V30 11558 O 1879.52 -5.63315 -5.29344 0
M  V30 11559 C 1878.58 -4.80255 -6.01876 0
M  V30 11560 C 1879.31 -3.64202 -6.65911 0
M  V30 11561 O 1879.52 -2.60694 -5.64732 0
M  V30 11562 C 1880.71 -3.93473 -7.1943 0
M  V30 11563 O 1881.1 -3.02071 -8.21205 0
M  V30 11564 C 1881.59 -3.73047 -5.97036 0
M  V30 11565 C 1880.88 -2.58828 -5.25741 0
M  V30 11566 N 1880.93 -2.68068 -3.77503 0
M  V30 11567 H 1878.09 -5.40332 -6.79951 0
M  V30 11568 H 1877.82 -4.41613 -5.32378 0
M  V30 11569 H 1878.69 -3.26331 -7.47797 0
M  V30 11570 P 1882.65 -2.75334 -8.47391 0
M  V30 11571 O 1882.87 -2.44595 -9.90239 0
M  V30 11572 O 1883.44 -3.87732 -7.92204 0
M  V30 11573 O 1882.9 -1.4459 -7.59357 0
M  V30 11574 C 1881.96 -0.347563 -7.69115 0
M  V30 11575 C 1882.69 0.96767 -7.52806 0
M  V30 11576 O 1882.9 1.21036 -6.1011 0
M  V30 11577 C 1884.09 1.04544 -8.13308 0
M  V30 11578 O 1884.48 2.38311 -8.41922 0
M  V30 11579 C 1884.97 0.491279 -7.02284 0
M  V30 11580 C 1884.26 0.996264 -5.77469 0
M  V30 11581 N 1884.31 0.0501808 -4.62873 0
M  V30 11582 C 1884.46 0.588177 -3.36904 0
M  V30 11583 O 1884.55 1.78598 -3.17173 0
M  V30 11584 N 1884.5 -0.329694 -2.33686 0
M  V30 11585 C 1884.41 -1.6953 -2.45079 0
M  V30 11586 C 1884.26 -2.16933 -3.80505 0
M  V30 11587 C 1884.21 -1.30326 -4.83752 0
M  V30 11588 H 1881.47 -0.374722 -8.67691 0
M  V30 11589 H 1881.2 -0.443421 -6.90177 0
M  V30 11590 H 1882.07 1.75537 -7.96793 0
M  V30 11591 H 1884.72 1.94496 -5.46629 0
M  V30 11592 H 1885 -0.608651 -7.04676 0
M  V30 11593 H 1885.99 0.889672 -7.08939 0
M  V30 11594 H 1884.16 0.43308 -9.04564 0
M  V30 11595 H 1884.09 -1.68366 -5.8516 0
M  V30 11596 P 1886.03 2.75334 -8.47391 0
M  V30 11597 O 1886.25 3.84128 -9.44797 0
M  V30 11598 O 1886.82 1.51947 -8.68712 0
M  V30 11599 O 1886.28 3.29363 -6.99321 0
M  V30 11600 C 1885.34 4.24011 -6.4274 0
M  V30 11601 C 1886.07 5.20775 -5.52155 0
M  V30 11602 O 1886.28 4.56534 -4.22446 0
M  V30 11603 C 1887.47 5.62629 -5.96531 0
M  V30 11604 O 1887.86 6.87667 -5.41053 0
M  V30 11605 C 1888.35 4.52537 -5.39283 0
M  V30 11606 C 1887.64 4.20027 -4.08623 0
M  V30 11607 N 1887.69 2.76189 -3.71603 0
M  V30 11608 C 1887.61 1.64862 -4.52822 0
M  V30 11609 N 1887.69 0.512671 -3.88633 0
M  V30 11610 C 1887.83 0.888083 -2.54977 0
M  V30 11611 C 1887.96 0.094668 -1.38677 0
M  V30 11612 N 1888.08 0.890102 -0.232633 0
M  V30 11613 C 1888.08 2.26958 -0.21772 0
M  V30 11614 N 1888.21 2.84626 0.97925 0
M  V30 11615 N 1887.95 3.0178 -1.31033 0
M  V30 11616 C 1887.83 2.26781 -2.43843 0
M  V30 11617 H 1884.85 4.797 -7.24003 0
M  V30 11618 H 1884.58 3.69856 -5.84513 0
M  V30 11619 H 1885.45 6.10356 -5.41441 0
M  V30 11620 P 1889.41 7.20834 -5.23717 0
M  V30 11621 O 1889.63 8.66104 -5.38572 0
M  V30 11622 O 1890.2 6.33544 -6.1349 0
M  V30 11623 O 1889.66 6.7751 -3.72168 0
M  V30 11624 C 1888.72 7.20825 -2.7076 0
M  V30 11625 C 1889.45 7.45864 -1.40599 0
M  V30 11626 O 1889.66 6.17651 -0.734225 0
M  V30 11627 C 1890.85 8.05808 -1.51899 0
M  V30 11628 O 1891.24 8.74358 -0.335205 0
M  V30 11629 C 1891.73 6.83093 -1.70294 0
M  V30 11630 C 1891.02 5.79992 -0.836974 0
M  V30 11631 N 1891.07 4.41864 -1.38293 0
M  V30 11632 H 1888.23 8.13644 -3.0377 0
M  V30 11633 H 1887.96 6.42788 -2.55485 0
M  V30 11634 H 1888.83 8.12039 -0.792769 0
M  V30 11635 P 1892.79 8.91 -2.29136e-11 0
M  V30 11636 O 1893.01 10.1726 0.733694 0
M  V30 11637 O 1893.58 8.73148 -1.23936 0
M  V30 11638 O 1893.04 7.66872 0.971405 0
M  V30 11639 C 1892.1 7.42309 2.04641 0
M  V30 11640 C 1892.83 6.86059 3.24661 0
M  V30 11641 O 1893.04 5.42847 3.03646 0
M  V30 11642 C 1894.23 7.41196 3.50753 0
M  V30 11643 O 1894.62 7.27073 4.86816 0
M  V30 11644 C 1895.11 6.5273 2.63741 0
M  V30 11645 C 1894.4 5.1842 2.73198 0
M  V30 11646 N 1894.45 4.38762 1.4784 0
M  V30 11647 H 1891.61 8.36803 2.32493 0
M  V30 11648 H 1891.34 6.70197 1.71129 0
M  V30 11649 H 1892.21 7.03551 4.13168 0
M  V30 11650 P 1896.17 7.20834 5.23717 0
M  V30 11651 O 1896.39 7.79853 6.57286 0
M  V30 11652 O 1896.96 7.79239 4.12957 0
M  V30 11653 O 1896.42 5.63315 5.29344 0
M  V30 11654 C 1895.48 4.80255 6.01876 0
M  V30 11655 C 1896.21 3.64202 6.65911 0
M  V30 11656 O 1896.42 2.60694 5.64732 0
M  V30 11657 C 1897.61 3.93473 7.1943 0
M  V30 11658 O 1898 3.02071 8.21205 0
M  V30 11659 C 1898.49 3.73047 5.97036 0
M  V30 11660 C 1897.78 2.58828 5.25741 0
M  V30 11661 N 1897.83 2.68068 3.77503 0
M  V30 11662 H 1894.99 5.40332 6.79951 0
M  V30 11663 H 1894.72 4.41613 5.32378 0
M  V30 11664 H 1895.59 3.26331 7.47797 0
M  V30 11665 P 1899.55 2.75334 8.47391 0
M  V30 11666 O 1899.77 2.44619 9.90336 0
M  V30 11667 O 1900.34 3.87776 7.92294 0
M  V30 11668 O 1899.8 1.4459 7.59357 0
M  V30 11669 C 1898.86 0.347653 7.69315 0
M  V30 11670 C 1899.59 -0.96767 7.52806 0
M  V30 11671 O 1899.8 -1.21055 6.10208 0
M  V30 11672 C 1900.99 -1.04557 8.13408 0
M  V30 11673 O 1901.38 -2.38311 8.41922 0
M  V30 11674 C 1901.87 -0.491279 7.02284 0
M  V30 11675 C 1901.16 -0.996264 5.77469 0
M  V30 11676 N 1901.21 -0.0501916 4.62973 0
M  V30 11677 C 1901.13 1.31969 4.65661 0
M  V30 11678 N 1901.2 1.86649 3.48119 0
M  V30 11679 C 1901.35 0.792089 2.62406 0
M  V30 11680 C 1901.48 0.705684 1.2207 0
M  V30 11681 N 1901.49 1.76207 0.413762 0
M  V30 11682 N 1901.6 -0.518981 0.685754 0
M  V30 11683 C 1901.59 -1.57595 1.49174 0
M  V30 11684 N 1901.47 -1.62909 2.80066 0
M  V30 11685 C 1901.35 -0.388195 3.3073 0
M  V30 11686 H 1898.37 0.374765 8.67791 0
M  V30 11687 H 1898.1 0.443613 6.90476 0
M  V30 11688 H 1898.97 -1.75559 7.96891 0
M  V30 11689 H 1901.62 -1.94563 5.46818 0
M  V30 11690 H 1901.9 0.608651 7.04676 0
M  V30 11691 H 1902.89 -0.889796 7.09039 0
M  V30 11692 H 1901.06 -0.433128 9.04664 0
M  V30 11693 H 1901.02 1.89246 5.57664 0
M  V30 11694 H 1901.4 2.71005 0.804694 0
M  V30 11695 H 1901.59 1.63189 -0.603768 0
M  V30 11696 H 1901.7 -2.53475 0.997614 0
M  V30 11697 P 1902.93 -2.75334 8.47391 0
M  V30 11698 O 1903.15 -3.84166 9.4489 0
M  V30 11699 O 1903.72 -1.51964 8.6881 0
M  V30 11700 O 1903.18 -3.29363 6.99321 0
M  V30 11701 C 1902.24 -4.23956 6.42656 0
M  V30 11702 C 1902.97 -5.20775 5.52155 0
M  V30 11703 O 1903.18 -4.56534 4.22446 0
M  V30 11704 C 1904.37 -5.62629 5.96531 0
M  V30 11705 O 1904.76 -6.87667 5.41053 0
M  V30 11706 C 1905.25 -4.52537 5.39283 0
M  V30 11707 C 1904.54 -4.20027 4.08623 0
M  V30 11708 N 1904.59 -2.7613 3.71522 0
M  V30 11709 C 1904.74 -2.45612 2.37989 0
M  V30 11710 O 1904.83 -3.30919 1.51621 0
M  V30 11711 N 1904.78 -1.10684 2.08435 0
M  V30 11712 C 1904.69 -0.0690084 2.9792 0
M  V30 11713 C 1904.54 -0.481522 4.35345 0
M  V30 11714 C 1904.49 -1.78906 4.67968 0
M  V30 11715 H 1901.75 -4.797 7.24003 0
M  V30 11716 H 1901.48 -3.69802 5.84429 0
M  V30 11717 H 1902.35 -6.10356 5.41441 0
M  V30 11718 H 1905 -4.78651 3.27911 0
M  V30 11719 H 1905.28 -3.64957 6.05871 0
M  V30 11720 H 1906.27 -4.8868 5.2125 0
M  V30 11721 H 1904.44 -5.66726 7.06352 0
M  V30 11722 H 1904.37 -2.07737 5.72367 0
M  V30 11723 P 1906.31 -7.20834 5.23717 0
M  V30 11724 O 1906.53 -8.66189 5.38625 0
M  V30 11725 O 1907.1 -6.33615 6.1356 0
M  V30 11726 O 1906.56 -6.7751 3.72168 0
M  V30 11727 C 1905.62 -7.20732 2.70725 0
M  V30 11728 C 1906.35 -7.45864 1.40599 0
M  V30 11729 O 1906.56 -6.17651 0.734225 0
M  V30 11730 C 1907.75 -8.05808 1.51899 0
M  V30 11731 O 1908.14 -8.74358 0.335205 0
M  V30 11732 C 1908.63 -6.83093 1.70294 0
M  V30 11733 C 1907.92 -5.79992 0.836974 0
M  V30 11734 N 1907.97 -4.41769 1.38263 0
M  V30 11735 C 1908.12 -3.38591 0.481702 0
M  V30 11736 O 1908.21 -3.56839 -0.718452 0
M  V30 11737 N 1908.16 -2.1206 1.03569 0
M  V30 11738 C 1908.07 -1.80696 2.36966 0
M  V30 11739 C 1907.92 -2.94845 3.23898 0
M  V30 11740 C 1907.87 -4.19803 2.73435 0
M  V30 11741 H 1905.13 -8.13644 3.0377 0
M  V30 11742 H 1904.86 -6.42695 2.55448 0
M  V30 11743 H 1905.73 -8.12039 0.792769 0
M  V30 11744 H 1908.38 -5.79978 -0.160587 0
M  V30 11745 H 1908.66 -6.51379 2.75643 0
M  V30 11746 H 1909.65 -7.01734 1.34462 0
M  V30 11747 H 1907.82 -8.73674 2.38337 0
M  V30 11748 H 1907.75 -5.04492 3.4095 0
M  V30 11749 P 1909.69 -8.91 2.40226e-11 0
M  V30 11750 O 1909.91 -10.1746 -0.733838 0
M  V30 11751 O 1910.48 -8.73346 1.23964 0
M  V30 11752 O 1909.94 -7.66872 -0.971405 0
M  V30 11753 C 1909 -7.42405 -2.04668 0
M  V30 11754 C 1909.73 -6.86059 -3.24661 0
M  V30 11755 O 1909.94 -5.42934 -3.03695 0
M  V30 11756 C 1911.13 -7.41287 -3.50796 0
M  V30 11757 O 1911.52 -7.27073 -4.86816 0
M  V30 11758 C 1912.01 -6.5273 -2.63741 0
M  V30 11759 C 1911.3 -5.1842 -2.73198 0
M  V30 11760 N 1911.35 -4.38762 -1.4784 0
M  V30 11761 C 1911.27 -4.83651 -0.183876 0
M  V30 11762 N 1911.34 -3.88759 0.699393 0
M  V30 11763 C 1911.49 -2.7404 -0.0575568 0
M  V30 11764 C 1911.62 -1.37902 0.293928 0
M  V30 11765 N 1911.63 -0.938021 1.54797 0
M  V30 11766 N 1911.74 -0.491817 -0.70549 0
M  V30 11767 C 1911.73 -0.931735 -1.95979 0
M  V30 11768 N 1911.61 -2.16017 -2.41481 0
M  V30 11769 C 1911.49 -3.02547 -1.39121 0
M  V30 11770 H 1908.51 -8.36899 -2.3252 0
M  V30 11771 H 1908.24 -6.70391 -1.71179 0
M  V30 11772 H 1909.11 -7.03638 -4.13219 0
M  V30 11773 H 1911.76 -4.59931 -3.54016 0
M  V30 11774 H 1912.04 -6.88995 -1.59871 0
M  V30 11775 H 1913.03 -6.4684 -3.0373 0
M  V30 11776 H 1911.2 -8.47002 -3.20749 0
M  V30 11777 H 1911.16 -5.8885 0.0765548 0
M  V30 11778 H 1911.54 -1.60276 2.32875 0
M  V30 11779 H 1911.73 0.0699355 1.73859 0
M  V30 11780 H 1911.84 -0.165507 -2.71897 0
M  V30 11781 P 1913.07 -7.20834 -5.23717 0
M  V30 11782 O 1913.29 -7.79853 -6.57286 0
M  V30 11783 O 1913.86 -7.79239 -4.12957 0
M  V30 11784 O 1913.32 -5.63315 -5.29344 0
M  V30 11785 C 1912.38 -4.80255 -6.01876 0
M  V30 11786 C 1913.11 -3.64202 -6.65911 0
M  V30 11787 O 1913.32 -2.60694 -5.64732 0
M  V30 11788 C 1914.51 -3.93473 -7.1943 0
M  V30 11789 O 1914.9 -3.02071 -8.21205 0
M  V30 11790 C 1915.39 -3.73047 -5.97036 0
M  V30 11791 C 1914.68 -2.58828 -5.25741 0
M  V30 11792 N 1914.73 -2.68068 -3.77503 0
M  V30 11793 H 1911.89 -5.40332 -6.79951 0
M  V30 11794 H 1911.62 -4.41613 -5.32378 0
M  V30 11795 H 1912.49 -3.26331 -7.47797 0
M  V30 11796 P 1916.45 -2.75334 -8.47391 0
M  V30 11797 O 1916.67 -2.44571 -9.90142 0
M  V30 11798 O 1917.24 -3.87688 -7.92115 0
M  V30 11799 O 1916.7 -1.4459 -7.59357 0
M  V30 11800 C 1915.76 -0.347608 -7.69215 0
M  V30 11801 C 1916.49 0.96767 -7.52806 0
M  V30 11802 O 1916.7 1.21036 -6.1011 0
M  V30 11803 C 1917.89 1.04544 -8.13308 0
M  V30 11804 O 1918.28 2.38311 -8.41922 0
M  V30 11805 C 1918.77 0.491279 -7.02284 0
M  V30 11806 C 1918.06 0.996264 -5.77469 0
M  V30 11807 N 1918.11 0.0501916 -4.62973 0
M  V30 11808 C 1918.03 -1.32786 -4.63244 0
M  V30 11809 N 1918.11 -1.86957 -3.44545 0
M  V30 11810 C 1918.25 -0.780241 -2.58481 0
M  V30 11811 C 1918.38 -0.738536 -1.17757 0
M  V30 11812 O 1918.4 -1.66794 -0.372349 0
M  V30 11813 N 1918.5 0.58337 -0.711393 0
M  V30 11814 C 1918.5 1.70816 -1.51017 0
M  V30 11815 N 1918.63 2.87826 -0.880757 0
M  V30 11816 N 1918.37 1.67126 -2.8339 0
M  V30 11817 C 1918.25 0.401421 -3.30572 0
M  V30 11818 H 1915.27 -0.374722 -8.67691 0
M  V30 11819 H 1915 -0.443485 -6.90277 0
M  V30 11820 H 1915.87 1.75537 -7.96793 0
M  V30 11821 H 1918.52 1.95076 -5.46529 0
M  V30 11822 H 1918.8 -0.608565 -7.04577 0
M  V30 11823 H 1919.79 0.889672 -7.08939 0
M  V30 11824 H 1917.96 0.43308 -9.04564 0
M  V30 11825 H 1917.91 -1.91249 -5.54442 0
M  V30 11826 H 1918.59 0.718054 0.275244 0
M  V30 11827 H 1918.63 3.75721 -1.41832 0
M  V30 11828 H 1918.73 2.90436 0.145468 0
M  V30 11829 P 1919.83 2.75334 -8.47391 0
M  V30 11830 O 1920.05 3.84128 -9.44797 0
M  V30 11831 O 1920.62 1.51947 -8.68712 0
M  V30 11832 O 1920.08 3.29363 -6.99321 0
M  V30 11833 C 1919.14 4.24011 -6.4274 0
M  V30 11834 C 1919.87 5.20775 -5.52155 0
M  V30 11835 O 1920.08 4.56534 -4.22446 0
M  V30 11836 C 1921.27 5.62629 -5.96531 0
M  V30 11837 O 1921.66 6.87667 -5.41053 0
M  V30 11838 C 1922.15 4.52537 -5.39283 0
M  V30 11839 C 1921.44 4.20027 -4.08623 0
M  V30 11840 N 1921.49 2.76189 -3.71603 0
M  V30 11841 H 1918.65 4.797 -7.24003 0
M  V30 11842 H 1918.38 3.69856 -5.84513 0
M  V30 11843 H 1919.25 6.10356 -5.41441 0
M  V30 11844 P 1923.21 7.20834 -5.23717 0
M  V30 11845 O 1923.43 8.66274 -5.38678 0
M  V30 11846 O 1924 6.33687 -6.13629 0
M  V30 11847 O 1923.46 6.7751 -3.72168 0
M  V30 11848 C 1922.52 7.20919 -2.70795 0
M  V30 11849 C 1923.25 7.45864 -1.40599 0
M  V30 11850 O 1923.46 6.17751 -0.734343 0
M  V30 11851 C 1924.65 8.05906 -1.51917 0
M  V30 11852 O 1925.04 8.74358 -0.335205 0
M  V30 11853 C 1925.53 6.83093 -1.70294 0
M  V30 11854 C 1924.82 5.79992 -0.836974 0
M  V30 11855 N 1924.87 4.41864 -1.38293 0
M  V30 11856 C 1924.79 4.02089 -2.69407 0
M  V30 11857 N 1924.86 2.73403 -2.85089 0
M  V30 11858 C 1925.01 2.25086 -1.5642 0
M  V30 11859 C 1925.14 0.942887 -1.04836 0
M  V30 11860 N 1925.15 -0.150999 -1.80369 0
M  V30 11861 N 1925.26 0.812565 0.28167 0
M  V30 11862 C 1925.25 1.90572 1.03784 0
M  V30 11863 N 1925.13 3.167 0.683905 0
M  V30 11864 C 1925.01 3.26538 -0.652815 0
M  V30 11865 H 1922.03 8.13738 -3.03804 0
M  V30 11866 H 1921.76 6.42974 -2.55559 0
M  V30 11867 H 1922.63 8.12139 -0.792866 0
M  V30 11868 H 1925.28 5.80178 0.160643 0
M  V30 11869 H 1925.56 6.51379 -2.75643 0
M  V30 11870 H 1926.55 7.01832 -1.3448 0
M  V30 11871 H 1924.72 8.73771 -2.38364 0
M  V30 11872 H 1924.68 4.7189 -3.52311 0
M  V30 11873 H 1925.06 -0.0721434 -2.82608 0
M  V30 11874 H 1925.25 -1.0785 -1.36544 0
M  V30 11875 H 1925.36 1.73207 2.10241 0
M  V30 11876 P 1926.59 8.91 -2.51316e-11 0
M  V30 11877 O 1926.81 10.1726 0.733694 0
M  V30 11878 O 1927.38 8.73148 -1.23936 0
M  V30 11879 O 1926.84 7.66872 0.971405 0
M  V30 11880 C 1925.9 7.42309 2.04641 0
M  V30 11881 C 1926.63 6.86059 3.24661 0
M  V30 11882 O 1926.84 5.42847 3.03646 0
M  V30 11883 C 1928.03 7.41196 3.50753 0
M  V30 11884 O 1928.42 7.27073 4.86816 0
M  V30 11885 C 1928.91 6.5273 2.63741 0
M  V30 11886 C 1928.2 5.1842 2.73198 0
M  V30 11887 N 1928.25 4.38762 1.4784 0
M  V30 11888 H 1925.41 8.36803 2.32493 0
M  V30 11889 H 1925.14 6.70197 1.71129 0
M  V30 11890 H 1926.01 7.03551 4.13168 0
M  V30 11891 P 1929.97 7.20834 5.23717 0
M  V30 11892 O 1930.19 7.79853 6.57286 0
M  V30 11893 O 1930.76 7.79239 4.12957 0
M  V30 11894 O 1930.22 5.63315 5.29344 0
M  V30 11895 C 1929.28 4.80255 6.01876 0
M  V30 11896 C 1930.01 3.64202 6.65911 0
M  V30 11897 O 1930.22 2.60694 5.64732 0
M  V30 11898 C 1931.41 3.93473 7.1943 0
M  V30 11899 O 1931.8 3.02071 8.21205 0
M  V30 11900 C 1932.29 3.73047 5.97036 0
M  V30 11901 C 1931.58 2.58828 5.25741 0
M  V30 11902 N 1931.63 2.68068 3.77503 0
M  V30 11903 C 1931.55 3.79715 2.96723 0
M  V30 11904 N 1931.63 3.5377 1.68852 0
M  V30 11905 C 1931.77 2.15054 1.63254 0
M  V30 11906 C 1931.9 1.28964 0.518571 0
M  V30 11907 N 1932.02 -0.0538097 0.918425 0
M  V30 11908 C 1932.02 -0.494275 2.22578 0
M  V30 11909 N 1932.15 -1.81086 2.40434 0
M  V30 11910 N 1931.89 0.313645 3.27502 0
M  V30 11911 C 1931.77 1.61829 2.91033 0
M  V30 11912 H 1928.79 5.40332 6.79951 0
M  V30 11913 H 1928.52 4.41613 5.32378 0
M  V30 11914 H 1929.39 3.26331 7.47797 0
M  V30 11915 P 1933.35 2.75334 8.47391 0
M  V30 11916 O 1933.57 2.44571 9.90142 0
M  V30 11917 O 1934.14 3.87688 7.92115 0
M  V30 11918 O 1933.6 1.4459 7.59357 0
M  V30 11919 C 1932.66 0.347608 7.69215 0
M  V30 11920 C 1933.39 -0.96767 7.52806 0
M  V30 11921 O 1933.6 -1.21036 6.1011 0
M  V30 11922 C 1934.79 -1.04544 8.13308 0
M  V30 11923 O 1935.18 -2.38311 8.41922 0
M  V30 11924 C 1935.67 -0.491279 7.02284 0
M  V30 11925 C 1934.96 -0.996264 5.77469 0
M  V30 11926 N 1935.01 -0.0501916 4.62973 0
M  V30 11927 C 1934.93 1.32786 4.63244 0
M  V30 11928 N 1935.01 1.86957 3.44545 0
M  V30 11929 C 1935.15 0.780241 2.58481 0
M  V30 11930 C 1935.28 0.738536 1.17757 0
M  V30 11931 O 1935.3 1.66794 0.372349 0
M  V30 11932 N 1935.4 -0.58337 0.711393 0
M  V30 11933 C 1935.4 -1.70816 1.51017 0
M  V30 11934 N 1935.53 -2.87826 0.880757 0
M  V30 11935 N 1935.27 -1.67126 2.8339 0
M  V30 11936 C 1935.15 -0.401421 3.30572 0
M  V30 11937 H 1932.17 0.374722 8.67691 0
M  V30 11938 H 1931.9 0.443485 6.90277 0
M  V30 11939 H 1932.77 -1.75537 7.96793 0
M  V30 11940 H 1935.42 -1.95076 5.46529 0
M  V30 11941 H 1935.7 0.608565 7.04577 0
M  V30 11942 H 1936.69 -0.889672 7.08939 0
M  V30 11943 H 1934.86 -0.43308 9.04564 0
M  V30 11944 H 1934.81 1.91249 5.54442 0
M  V30 11945 H 1935.49 -0.718054 -0.275244 0
M  V30 11946 H 1935.53 -3.75721 1.41832 0
M  V30 11947 H 1935.63 -2.90436 -0.145468 0
M  V30 11948 P 1936.73 -2.75334 8.47391 0
M  V30 11949 O 1936.95 -3.84128 9.44797 0
M  V30 11950 O 1937.52 -1.51947 8.68712 0
M  V30 11951 O 1936.98 -3.29363 6.99321 0
M  V30 11952 C 1936.04 -4.24011 6.4274 0
M  V30 11953 C 1936.77 -5.20775 5.52155 0
M  V30 11954 O 1936.98 -4.56534 4.22446 0
M  V30 11955 C 1938.17 -5.62629 5.96531 0
M  V30 11956 O 1938.56 -6.87667 5.41053 0
M  V30 11957 C 1939.05 -4.52537 5.39283 0
M  V30 11958 C 1938.34 -4.20027 4.08623 0
M  V30 11959 N 1938.39 -2.76189 3.71603 0
M  V30 11960 H 1935.55 -4.797 7.24003 0
M  V30 11961 H 1935.28 -3.69856 5.84513 0
M  V30 11962 H 1936.15 -6.10356 5.41441 0
M  V30 11963 P 1940.11 -7.20834 5.23717 0
M  V30 11964 O 1940.33 -8.66104 5.38572 0
M  V30 11965 O 1940.9 -6.33544 6.1349 0
M  V30 11966 O 1940.36 -6.7751 3.72168 0
M  V30 11967 C 1939.42 -7.20825 2.7076 0
M  V30 11968 C 1940.15 -7.45864 1.40599 0
M  V30 11969 O 1940.36 -6.17651 0.734225 0
M  V30 11970 C 1941.55 -8.05808 1.51899 0
M  V30 11971 O 1941.94 -8.74358 0.335205 0
M  V30 11972 C 1942.43 -6.83093 1.70294 0
M  V30 11973 C 1941.72 -5.79992 0.836974 0
M  V30 11974 N 1941.77 -4.41864 1.38293 0
M  V30 11975 H 1938.93 -8.13644 3.0377 0
M  V30 11976 H 1938.66 -6.42788 2.55485 0
M  V30 11977 H 1939.53 -8.12039 0.792769 0
M  V30 11978 P 1943.49 -8.91 2.62406e-11 0
M  V30 11979 O 1943.71 -10.1726 -0.733694 0
M  V30 11980 O 1944.28 -8.73148 1.23936 0
M  V30 11981 O 1943.74 -7.66872 -0.971405 0
M  V30 11982 C 1942.8 -7.42309 -2.04641 0
M  V30 11983 C 1943.53 -6.86059 -3.24661 0
M  V30 11984 O 1943.74 -5.42847 -3.03646 0
M  V30 11985 C 1944.93 -7.41196 -3.50753 0
M  V30 11986 O 1945.32 -7.27073 -4.86816 0
M  V30 11987 C 1945.81 -6.5273 -2.63741 0
M  V30 11988 C 1945.1 -5.1842 -2.73198 0
M  V30 11989 N 1945.15 -4.38762 -1.4784 0
M  V30 11990 C 1945.07 -4.81605 -0.168631 0
M  V30 11991 N 1945.15 -3.85454 0.713363 0
M  V30 11992 C 1945.29 -2.6994 -0.0566958 0
M  V30 11993 C 1945.42 -1.34815 0.338502 0
M  V30 11994 O 1945.44 -0.869548 1.47125 0
M  V30 11995 N 1945.54 -0.496304 -0.77465 0
M  V30 11996 C 1945.54 -0.908403 -2.09122 0
M  V30 11997 N 1945.67 0.0517805 -3.00955 0
M  V30 11998 N 1945.41 -2.17875 -2.46519 0
M  V30 11999 C 1945.29 -3.01988 -1.4033 0
M  V30 12000 H 1942.31 -8.36803 -2.32493 0
M  V30 12001 H 1942.04 -6.70197 -1.71129 0
M  V30 12002 H 1942.91 -7.03551 -4.13168 0
M  V30 12003 H 1945.56 -4.59498 -3.54415 0
M  V30 12004 H 1945.84 -6.88898 -1.59848 0
M  V30 12005 H 1946.83 -6.46749 -3.03687 0
M  V30 12006 H 1945 -8.46908 -3.20714 0
M  V30 12007 H 1944.95 -5.86405 0.105564 0
M  V30 12008 H 1945.63 0.483664 -0.597855 0
M  V30 12009 H 1945.67 -0.187865 -4.0116 0
M  V30 12010 H 1945.77 1.03585 -2.71726 0
M  V30 12011 P 1946.87 -7.20834 -5.23717 0
M  V30 12012 O 1947.09 -7.79853 -6.57286 0
M  V30 12013 O 1947.66 -7.79239 -4.12957 0
M  V30 12014 O 1947.12 -5.63315 -5.29344 0
M  V30 12015 C 1946.18 -4.80255 -6.01876 0
M  V30 12016 C 1946.91 -3.64202 -6.65911 0
M  V30 12017 O 1947.12 -2.60694 -5.64732 0
M  V30 12018 C 1948.31 -3.93473 -7.1943 0
M  V30 12019 O 1948.7 -3.02071 -8.21205 0
M  V30 12020 C 1949.19 -3.73047 -5.97036 0
M  V30 12021 C 1948.48 -2.58828 -5.25741 0
M  V30 12022 N 1948.53 -2.68068 -3.77503 0
M  V30 12023 H 1945.69 -5.40332 -6.79951 0
M  V30 12024 H 1945.42 -4.41613 -5.32378 0
M  V30 12025 H 1946.29 -3.26331 -7.47797 0
M  V30 12026 P 1950.25 -2.75334 -8.47391 0
M  V30 12027 O 1950.47 -2.44595 -9.90239 0
M  V30 12028 O 1951.04 -3.87732 -7.92204 0
M  V30 12029 O 1950.5 -1.4459 -7.59357 0
M  V30 12030 C 1949.56 -0.347563 -7.69115 0
M  V30 12031 C 1950.29 0.96767 -7.52806 0
M  V30 12032 O 1950.5 1.21036 -6.1011 0
M  V30 12033 C 1951.69 1.04544 -8.13308 0
M  V30 12034 O 1952.08 2.38311 -8.41922 0
M  V30 12035 C 1952.57 0.491279 -7.02284 0
M  V30 12036 C 1951.86 0.996264 -5.77469 0
M  V30 12037 N 1951.91 0.0501808 -4.62873 0
M  V30 12038 C 1952.06 0.588177 -3.36904 0
M  V30 12039 O 1952.15 1.78598 -3.17173 0
M  V30 12040 N 1952.1 -0.329694 -2.33686 0
M  V30 12041 C 1952.01 -1.6953 -2.45079 0
M  V30 12042 C 1951.86 -2.16933 -3.80505 0
M  V30 12043 C 1951.81 -1.30326 -4.83752 0
M  V30 12044 H 1949.07 -0.374722 -8.67691 0
M  V30 12045 H 1948.8 -0.443421 -6.90177 0
M  V30 12046 H 1949.67 1.75537 -7.96793 0
M  V30 12047 H 1952.32 1.94496 -5.46629 0
M  V30 12048 H 1952.6 -0.608651 -7.04676 0
M  V30 12049 H 1953.59 0.889672 -7.08939 0
M  V30 12050 H 1951.76 0.43308 -9.04564 0
M  V30 12051 H 1951.69 -1.68366 -5.8516 0
M  V30 12052 P 1953.63 2.75334 -8.47391 0
M  V30 12053 O 1953.85 3.84166 -9.4489 0
M  V30 12054 O 1954.42 1.51964 -8.6881 0
M  V30 12055 O 1953.88 3.29363 -6.99321 0
M  V30 12056 C 1952.94 4.24011 -6.4274 0
M  V30 12057 C 1953.67 5.20775 -5.52155 0
M  V30 12058 O 1953.88 4.56534 -4.22446 0
M  V30 12059 C 1955.07 5.62629 -5.96531 0
M  V30 12060 O 1955.46 6.87667 -5.41053 0
M  V30 12061 C 1955.95 4.52537 -5.39283 0
M  V30 12062 C 1955.24 4.20027 -4.08623 0
M  V30 12063 N 1955.29 2.7613 -3.71522 0
M  V30 12064 C 1955.44 2.43702 -2.37085 0
M  V30 12065 O 1955.53 3.3531 -1.54039 0
M  V30 12066 N 1955.49 0.951103 -2.10621 0
M  V30 12067 C 1955.39 0.165021 -2.93537 0
M  V30 12068 N 1955.44 -1.09723 -2.53253 0
M  V30 12069 C 1955.24 0.469576 -4.32458 0
M  V30 12070 C 1955.19 1.78658 -4.65921 0
M  V30 12071 H 1952.45 4.79645 -7.23919 0
M  V30 12072 H 1952.18 3.69802 -5.84429 0
M  V30 12073 H 1953.05 6.10431 -5.41508 0
M  V30 12074 H 1955.7 4.78733 -3.27967 0
M  V30 12075 H 1955.98 3.64957 -6.05871 0
M  V30 12076 H 1956.97 4.8868 -5.2125 0
M  V30 12077 H 1955.14 5.66726 -7.06352 0
M  V30 12078 H 1955.07 2.06987 -5.70299 0
M  V30 12079 H 1955.17 -0.314383 -5.07728 0
M  V30 12080 H 1955.56 -1.31363 -1.5319 0
M  V30 12081 H 1955.36 -1.85978 -3.21943 0
M  V30 12082 P 1957.01 7.20834 -5.23717 0
M  V30 12083 O 1957.23 8.66104 -5.38572 0
M  V30 12084 O 1957.8 6.33544 -6.1349 0
M  V30 12085 O 1957.26 6.7751 -3.72168 0
M  V30 12086 C 1956.32 7.20825 -2.7076 0
M  V30 12087 C 1957.05 7.45864 -1.40599 0
M  V30 12088 O 1957.26 6.17651 -0.734225 0
M  V30 12089 C 1958.45 8.05808 -1.51899 0
M  V30 12090 O 1958.84 8.74358 -0.335205 0
M  V30 12091 C 1959.33 6.83093 -1.70294 0
M  V30 12092 C 1958.62 5.79992 -0.836974 0
M  V30 12093 N 1958.67 4.41864 -1.38293 0
M  V30 12094 H 1955.83 8.13644 -3.0377 0
M  V30 12095 H 1955.56 6.42788 -2.55485 0
M  V30 12096 H 1956.43 8.12039 -0.792769 0
M  V30 12097 P 1960.39 8.91 -2.73496e-11 0
M  V30 12098 O 1960.61 10.1726 0.733694 0
M  V30 12099 O 1961.18 8.73148 -1.23936 0
M  V30 12100 O 1960.64 7.66872 0.971405 0
M  V30 12101 C 1959.7 7.42309 2.04641 0
M  V30 12102 C 1960.43 6.86059 3.24661 0
M  V30 12103 O 1960.64 5.42847 3.03646 0
M  V30 12104 C 1961.83 7.41196 3.50753 0
M  V30 12105 O 1962.22 7.27073 4.86816 0
M  V30 12106 C 1962.71 6.5273 2.63741 0
M  V30 12107 C 1962 5.1842 2.73198 0
M  V30 12108 N 1962.05 4.38762 1.4784 0
M  V30 12109 H 1959.21 8.36803 2.32493 0
M  V30 12110 H 1958.94 6.70197 1.71129 0
M  V30 12111 H 1959.81 7.03551 4.13168 0
M  V30 12112 P 1963.77 7.20834 5.23717 0
M  V30 12113 O 1963.99 7.79853 6.57286 0
M  V30 12114 O 1964.56 7.79239 4.12957 0
M  V30 12115 O 1964.02 5.63315 5.29344 0
M  V30 12116 C 1963.08 4.80255 6.01876 0
M  V30 12117 C 1963.81 3.64202 6.65911 0
M  V30 12118 O 1964.02 2.60694 5.64732 0
M  V30 12119 C 1965.21 3.93473 7.1943 0
M  V30 12120 O 1965.6 3.02071 8.21205 0
M  V30 12121 C 1966.09 3.73047 5.97036 0
M  V30 12122 C 1965.38 2.58828 5.25741 0
M  V30 12123 N 1965.43 2.68068 3.77503 0
M  V30 12124 H 1962.59 5.40332 6.79951 0
M  V30 12125 H 1962.32 4.41613 5.32378 0
M  V30 12126 H 1963.19 3.26331 7.47797 0
M  V30 12127 P 1967.15 2.75334 8.47391 0
M  V30 12128 O 1967.37 2.44571 9.90142 0
M  V30 12129 O 1967.94 3.87688 7.92115 0
M  V30 12130 O 1967.4 1.4459 7.59357 0
M  V30 12131 C 1966.46 0.347608 7.69215 0
M  V30 12132 C 1967.19 -0.96767 7.52806 0
M  V30 12133 O 1967.4 -1.21036 6.1011 0
M  V30 12134 C 1968.59 -1.04544 8.13308 0
M  V30 12135 O 1968.98 -2.38311 8.41922 0
M  V30 12136 C 1969.47 -0.491279 7.02284 0
M  V30 12137 C 1968.76 -0.996264 5.77469 0
M  V30 12138 N 1968.81 -0.0501916 4.62973 0
M  V30 12139 H 1965.97 0.374722 8.67691 0
M  V30 12140 H 1965.7 0.443485 6.90277 0
M  V30 12141 H 1966.57 -1.75537 7.96793 0
M  V30 12142 P 1970.53 -2.75334 8.47391 0
M  V30 12143 O 1970.75 -3.84128 9.44797 0
M  V30 12144 O 1971.32 -1.51947 8.68712 0
M  V30 12145 O 1970.78 -3.29363 6.99321 0
M  V30 12146 C 1969.84 -4.24011 6.4274 0
M  V30 12147 C 1970.57 -5.20775 5.52155 0
M  V30 12148 O 1970.78 -4.56534 4.22446 0
M  V30 12149 C 1971.97 -5.62629 5.96531 0
M  V30 12150 O 1972.36 -6.87667 5.41053 0
M  V30 12151 C 1972.85 -4.52537 5.39283 0
M  V30 12152 C 1972.14 -4.20027 4.08623 0
M  V30 12153 N 1972.19 -2.76189 3.71603 0
M  V30 12154 H 1969.35 -4.797 7.24003 0
M  V30 12155 H 1969.08 -3.69856 5.84513 0
M  V30 12156 H 1969.95 -6.10356 5.41441 0
M  V30 12157 P 1973.91 -7.20834 5.23717 0
M  V30 12158 O 1974.13 -8.66104 5.38572 0
M  V30 12159 O 1974.7 -6.33544 6.1349 0
M  V30 12160 O 1974.16 -6.7751 3.72168 0
M  V30 12161 C 1973.22 -7.20825 2.7076 0
M  V30 12162 C 1973.95 -7.45864 1.40599 0
M  V30 12163 O 1974.16 -6.17651 0.734225 0
M  V30 12164 C 1975.35 -8.05808 1.51899 0
M  V30 12165 O 1975.74 -8.74358 0.335205 0
M  V30 12166 C 1976.23 -6.83093 1.70294 0
M  V30 12167 C 1975.52 -5.79992 0.836974 0
M  V30 12168 N 1975.57 -4.41864 1.38293 0
M  V30 12169 H 1972.73 -8.13644 3.0377 0
M  V30 12170 H 1972.46 -6.42788 2.55485 0
M  V30 12171 H 1973.33 -8.12039 0.792769 0
M  V30 12172 P 1977.29 -8.91 2.84586e-11 0
M  V30 12173 O 1977.51 -10.1726 -0.733694 0
M  V30 12174 O 1978.08 -8.73148 1.23936 0
M  V30 12175 O 1977.54 -7.66872 -0.971405 0
M  V30 12176 C 1976.6 -7.42309 -2.04641 0
M  V30 12177 C 1977.33 -6.86059 -3.24661 0
M  V30 12178 O 1977.54 -5.42847 -3.03646 0
M  V30 12179 C 1978.73 -7.41196 -3.50753 0
M  V30 12180 O 1979.12 -7.27073 -4.86816 0
M  V30 12181 C 1979.61 -6.5273 -2.63741 0
M  V30 12182 C 1978.9 -5.1842 -2.73198 0
M  V30 12183 N 1978.95 -4.38762 -1.4784 0
M  V30 12184 H 1976.11 -8.36803 -2.32493 0
M  V30 12185 H 1975.84 -6.70197 -1.71129 0
M  V30 12186 H 1976.71 -7.03551 -4.13168 0
M  V30 12187 P 1980.67 -7.20834 -5.23717 0
M  V30 12188 O 1980.89 -7.79853 -6.57286 0
M  V30 12189 O 1981.46 -7.79239 -4.12957 0
M  V30 12190 O 1980.92 -5.63315 -5.29344 0
M  V30 12191 C 1979.98 -4.80255 -6.01876 0
M  V30 12192 C 1980.71 -3.64202 -6.65911 0
M  V30 12193 O 1980.92 -2.60694 -5.64732 0
M  V30 12194 C 1982.11 -3.93473 -7.1943 0
M  V30 12195 O 1982.5 -3.02071 -8.21205 0
M  V30 12196 C 1982.99 -3.73047 -5.97036 0
M  V30 12197 C 1982.28 -2.58828 -5.25741 0
M  V30 12198 N 1982.33 -2.68068 -3.77503 0
M  V30 12199 C 1982.25 -3.79715 -2.96723 0
M  V30 12200 N 1982.33 -3.5377 -1.68852 0
M  V30 12201 C 1982.47 -2.15054 -1.63254 0
M  V30 12202 C 1982.6 -1.28964 -0.518571 0
M  V30 12203 O 1982.62 -1.56826 0.679156 0
M  V30 12204 N 1982.72 0.0538097 -0.918425 0
M  V30 12205 C 1982.72 0.494275 -2.22578 0
M  V30 12206 N 1982.85 1.81086 -2.40434 0
M  V30 12207 N 1982.59 -0.313645 -3.27502 0
M  V30 12208 C 1982.47 -1.61829 -2.91033 0
M  V30 12209 H 1979.49 -5.40332 -6.79951 0
M  V30 12210 H 1979.22 -4.41613 -5.32378 0
M  V30 12211 H 1980.09 -3.26331 -7.47797 0
M  V30 12212 H 1982.74 -1.63422 -5.56814 0
M  V30 12213 H 1983.02 -4.63374 -5.34244 0
M  V30 12214 H 1984.01 -3.44728 -6.25838 0
M  V30 12215 H 1982.18 -4.96652 -7.57263 0
M  V30 12216 H 1982.13 -4.80617 -3.3614 0
M  V30 12217 H 1982.81 0.742702 -0.199384 0
M  V30 12218 H 1982.85 2.20598 -3.35588 0
M  V30 12219 H 1982.95 2.43518 -1.58945 0
M  V30 12220 P 1984.05 -2.75334 -8.47391 0
M  V30 12221 O 1984.27 -2.44571 -9.90142 0
M  V30 12222 O 1984.84 -3.87688 -7.92115 0
M  V30 12223 O 1984.3 -1.4459 -7.59357 0
M  V30 12224 C 1983.36 -0.347608 -7.69215 0
M  V30 12225 C 1984.09 0.96767 -7.52806 0
M  V30 12226 O 1984.3 1.21036 -6.1011 0
M  V30 12227 C 1985.49 1.04544 -8.13308 0
M  V30 12228 O 1985.88 2.38311 -8.41922 0
M  V30 12229 C 1986.37 0.491279 -7.02284 0
M  V30 12230 C 1985.66 0.996264 -5.77469 0
M  V30 12231 N 1985.71 0.0501916 -4.62973 0
M  V30 12232 H 1982.87 -0.374722 -8.67691 0
M  V30 12233 H 1982.6 -0.443485 -6.90277 0
M  V30 12234 H 1983.47 1.75537 -7.96793 0
M  V30 12235 P 1987.43 2.75334 -8.47391 0
M  V30 12236 O 1987.65 3.84128 -9.44797 0
M  V30 12237 O 1988.22 1.51947 -8.68712 0
M  V30 12238 O 1987.68 3.29363 -6.99321 0
M  V30 12239 C 1986.74 4.24011 -6.4274 0
M  V30 12240 C 1987.47 5.20775 -5.52155 0
M  V30 12241 O 1987.68 4.56534 -4.22446 0
M  V30 12242 C 1988.87 5.62629 -5.96531 0
M  V30 12243 O 1989.26 6.87667 -5.41053 0
M  V30 12244 C 1989.75 4.52537 -5.39283 0
M  V30 12245 C 1989.04 4.20027 -4.08623 0
M  V30 12246 N 1989.09 2.76189 -3.71603 0
M  V30 12247 H 1986.25 4.797 -7.24003 0
M  V30 12248 H 1985.98 3.69856 -5.84513 0
M  V30 12249 H 1986.85 6.10356 -5.41441 0
M  V30 12250 P 1990.81 7.20834 -5.23717 0
M  V30 12251 O 1991.03 8.66104 -5.38572 0
M  V30 12252 O 1991.6 6.33544 -6.1349 0
M  V30 12253 O 1991.06 6.7751 -3.72168 0
M  V30 12254 C 1990.12 7.20825 -2.7076 0
M  V30 12255 C 1990.85 7.45864 -1.40599 0
M  V30 12256 O 1991.06 6.17651 -0.734225 0
M  V30 12257 C 1992.25 8.05808 -1.51899 0
M  V30 12258 O 1992.64 8.74358 -0.335205 0
M  V30 12259 C 1993.13 6.83093 -1.70294 0
M  V30 12260 C 1992.42 5.79992 -0.836974 0
M  V30 12261 N 1992.47 4.41864 -1.38293 0
M  V30 12262 H 1989.63 8.13644 -3.0377 0
M  V30 12263 H 1989.36 6.42788 -2.55485 0
M  V30 12264 H 1990.23 8.12039 -0.792769 0
M  V30 12265 P 1994.19 8.91 -2.95676e-11 0
M  V30 12266 O 1994.41 10.1726 0.733694 0
M  V30 12267 O 1994.98 8.73148 -1.23936 0
M  V30 12268 O 1994.44 7.66872 0.971405 0
M  V30 12269 C 1993.5 7.42309 2.04641 0
M  V30 12270 C 1994.23 6.86059 3.24661 0
M  V30 12271 O 1994.44 5.42847 3.03646 0
M  V30 12272 C 1995.63 7.41196 3.50753 0
M  V30 12273 O 1996.02 7.27073 4.86816 0
M  V30 12274 C 1996.51 6.5273 2.63741 0
M  V30 12275 C 1995.8 5.1842 2.73198 0
M  V30 12276 N 1995.85 4.38762 1.4784 0
M  V30 12277 H 1993.01 8.36803 2.32493 0
M  V30 12278 H 1992.74 6.70197 1.71129 0
M  V30 12279 H 1993.61 7.03551 4.13168 0
M  V30 12280 P 1997.57 7.20834 5.23717 0
M  V30 12281 O 1997.79 7.79853 6.57286 0
M  V30 12282 O 1998.36 7.79239 4.12957 0
M  V30 12283 O 1997.82 5.63315 5.29344 0
M  V30 12284 C 1996.88 4.80255 6.01876 0
M  V30 12285 C 1997.61 3.64202 6.65911 0
M  V30 12286 O 1997.82 2.60694 5.64732 0
M  V30 12287 C 1999.01 3.93473 7.1943 0
M  V30 12288 O 1999.4 3.02071 8.21205 0
M  V30 12289 C 1999.89 3.73047 5.97036 0
M  V30 12290 C 1999.18 2.58828 5.25741 0
M  V30 12291 N 1999.23 2.68068 3.77503 0
M  V30 12292 H 1996.39 5.40332 6.79951 0
M  V30 12293 H 1996.12 4.41613 5.32378 0
M  V30 12294 H 1996.99 3.26331 7.47797 0
M  V30 12295 P 2000.95 2.75334 8.47391 0
M  V30 12296 O 2001.17 2.44571 9.90142 0
M  V30 12297 O 2001.74 3.87688 7.92115 0
M  V30 12298 O 2001.2 1.4459 7.59357 0
M  V30 12299 C 2000.26 0.347608 7.69215 0
M  V30 12300 C 2000.99 -0.96767 7.52806 0
M  V30 12301 O 2001.2 -1.21036 6.1011 0
M  V30 12302 C 2002.39 -1.04544 8.13308 0
M  V30 12303 O 2002.78 -2.38311 8.41922 0
M  V30 12304 C 2003.27 -0.491279 7.02284 0
M  V30 12305 C 2002.56 -0.996264 5.77469 0
M  V30 12306 N 2002.61 -0.0501916 4.62973 0
M  V30 12307 H 1999.77 0.374722 8.67691 0
M  V30 12308 H 1999.5 0.443485 6.90277 0
M  V30 12309 H 2000.37 -1.75537 7.96793 0
M  V30 12310 P 2004.33 -2.75334 8.47391 0
M  V30 12311 O 2004.55 -3.84128 9.44797 0
M  V30 12312 O 2005.12 -1.51947 8.68712 0
M  V30 12313 O 2004.58 -3.29363 6.99321 0
M  V30 12314 C 2003.64 -4.24011 6.4274 0
M  V30 12315 C 2004.37 -5.20775 5.52155 0
M  V30 12316 O 2004.58 -4.56534 4.22446 0
M  V30 12317 C 2005.77 -5.62629 5.96531 0
M  V30 12318 O 2006.16 -6.87667 5.41053 0
M  V30 12319 C 2006.65 -4.52537 5.39283 0
M  V30 12320 C 2005.94 -4.20027 4.08623 0
M  V30 12321 N 2005.99 -2.76189 3.71603 0
M  V30 12322 H 2003.15 -4.797 7.24003 0
M  V30 12323 H 2002.88 -3.69856 5.84513 0
M  V30 12324 H 2003.75 -6.10356 5.41441 0
M  V30 12325 P 2007.71 -7.20834 5.23717 0
M  V30 12326 O 2007.93 -8.66104 5.38572 0
M  V30 12327 O 2008.5 -6.33544 6.1349 0
M  V30 12328 O 2007.96 -6.7751 3.72168 0
M  V30 12329 C 2007.02 -7.20825 2.7076 0
M  V30 12330 C 2007.75 -7.45864 1.40599 0
M  V30 12331 O 2007.96 -6.17651 0.734225 0
M  V30 12332 C 2009.15 -8.05808 1.51899 0
M  V30 12333 O 2009.54 -8.74358 0.335205 0
M  V30 12334 C 2010.03 -6.83093 1.70294 0
M  V30 12335 C 2009.32 -5.79992 0.836974 0
M  V30 12336 N 2009.37 -4.41864 1.38293 0
M  V30 12337 H 2006.53 -8.13644 3.0377 0
M  V30 12338 H 2006.26 -6.42788 2.55485 0
M  V30 12339 H 2007.13 -8.12039 0.792769 0
M  V30 12340 P 2011.09 -8.91 3.06766e-11 0
M  V30 12341 O 2011.31 -10.1746 -0.733838 0
M  V30 12342 O 2011.88 -8.73346 1.23964 0
M  V30 12343 O 2011.34 -7.66872 -0.971405 0
M  V30 12344 C 2010.4 -7.42405 -2.04668 0
M  V30 12345 C 2011.13 -6.86059 -3.24661 0
M  V30 12346 O 2011.34 -5.42934 -3.03695 0
M  V30 12347 C 2012.53 -7.41287 -3.50796 0
M  V30 12348 O 2012.92 -7.27073 -4.86816 0
M  V30 12349 C 2013.41 -6.5273 -2.63741 0
M  V30 12350 C 2012.7 -5.1842 -2.73198 0
M  V30 12351 N 2012.75 -4.38762 -1.4784 0
M  V30 12352 H 2009.91 -8.36899 -2.3252 0
M  V30 12353 H 2009.64 -6.70391 -1.71179 0
M  V30 12354 H 2010.51 -7.03638 -4.13219 0
M  V30 12355 H 2013.16 -4.59931 -3.54016 0
M  V30 12356 H 2013.44 -6.88995 -1.59871 0
M  V30 12357 H 2014.43 -6.4684 -3.0373 0
M  V30 12358 H 2012.6 -8.47002 -3.20749 0
M  V30 12359 P 2014.47 -7.20834 -5.23717 0
M  V30 12360 O 2014.69 -7.79853 -6.57286 0
M  V30 12361 O 2015.26 -7.79239 -4.12957 0
M  V30 12362 O 2014.72 -5.63315 -5.29344 0
M  V30 12363 C 2013.78 -4.80255 -6.01876 0
M  V30 12364 C 2014.51 -3.64202 -6.65911 0
M  V30 12365 O 2014.72 -2.60694 -5.64732 0
M  V30 12366 C 2015.91 -3.93473 -7.1943 0
M  V30 12367 O 2016.3 -3.02071 -8.21205 0
M  V30 12368 C 2016.79 -3.73047 -5.97036 0
M  V30 12369 C 2016.08 -2.58828 -5.25741 0
M  V30 12370 N 2016.13 -2.68068 -3.77503 0
M  V30 12371 H 2013.29 -5.40332 -6.79951 0
M  V30 12372 H 2013.02 -4.41613 -5.32378 0
M  V30 12373 H 2013.89 -3.26331 -7.47797 0
M  V30 12374 P 2017.85 -2.75334 -8.47391 0
M  V30 12375 O 2018.07 -2.44571 -9.90142 0
M  V30 12376 O 2018.64 -3.87688 -7.92115 0
M  V30 12377 O 2018.1 -1.4459 -7.59357 0
M  V30 12378 C 2017.16 -0.347608 -7.69215 0
M  V30 12379 C 2017.89 0.96767 -7.52806 0
M  V30 12380 O 2018.1 1.21036 -6.1011 0
M  V30 12381 C 2019.29 1.04544 -8.13308 0
M  V30 12382 O 2019.68 2.38311 -8.41922 0
M  V30 12383 C 2020.17 0.491279 -7.02284 0
M  V30 12384 C 2019.46 0.996264 -5.77469 0
M  V30 12385 N 2019.51 0.0501916 -4.62973 0
M  V30 12386 H 2016.67 -0.374722 -8.67691 0
M  V30 12387 H 2016.4 -0.443485 -6.90277 0
M  V30 12388 H 2017.27 1.75537 -7.96793 0
M  V30 12389 P 2021.23 2.75334 -8.47391 0
M  V30 12390 O 2021.45 3.84128 -9.44797 0
M  V30 12391 O 2022.02 1.51947 -8.68712 0
M  V30 12392 O 2021.48 3.29363 -6.99321 0
M  V30 12393 C 2020.54 4.24011 -6.4274 0
M  V30 12394 C 2021.27 5.20775 -5.52155 0
M  V30 12395 O 2021.48 4.56534 -4.22446 0
M  V30 12396 C 2022.67 5.62629 -5.96531 0
M  V30 12397 O 2023.06 6.87667 -5.41053 0
M  V30 12398 C 2023.55 4.52537 -5.39283 0
M  V30 12399 C 2022.84 4.20027 -4.08623 0
M  V30 12400 N 2022.89 2.76189 -3.71603 0
M  V30 12401 H 2020.05 4.797 -7.24003 0
M  V30 12402 H 2019.78 3.69856 -5.84513 0
M  V30 12403 H 2020.65 6.10356 -5.41441 0
M  V30 12404 P 2024.61 7.20834 -5.23717 0
M  V30 12405 O 2024.83 8.66104 -5.38572 0
M  V30 12406 O 2025.4 6.33544 -6.1349 0
M  V30 12407 O 2024.86 6.7751 -3.72168 0
M  V30 12408 C 2023.92 7.20825 -2.7076 0
M  V30 12409 C 2024.65 7.45864 -1.40599 0
M  V30 12410 O 2024.86 6.17651 -0.734225 0
M  V30 12411 C 2026.05 8.05808 -1.51899 0
M  V30 12412 O 2026.44 8.74358 -0.335205 0
M  V30 12413 C 2026.93 6.83093 -1.70294 0
M  V30 12414 C 2026.22 5.79992 -0.836974 0
M  V30 12415 N 2026.27 4.41864 -1.38293 0
M  V30 12416 H 2023.43 8.13644 -3.0377 0
M  V30 12417 H 2023.16 6.42788 -2.55485 0
M  V30 12418 H 2024.03 8.12039 -0.792769 0
M  V30 12419 P 2027.99 8.91 -3.17856e-11 0
M  V30 12420 O 2028.21 10.1746 0.733838 0
M  V30 12421 O 2028.78 8.73346 -1.23964 0
M  V30 12422 O 2028.24 7.66872 0.971405 0
M  V30 12423 C 2027.3 7.42405 2.04668 0
M  V30 12424 C 2028.03 6.86059 3.24661 0
M  V30 12425 O 2028.24 5.42934 3.03695 0
M  V30 12426 C 2029.43 7.41287 3.50796 0
M  V30 12427 O 2029.82 7.27073 4.86816 0
M  V30 12428 C 2030.31 6.5273 2.63741 0
M  V30 12429 C 2029.6 5.1842 2.73198 0
M  V30 12430 N 2029.65 4.38762 1.4784 0
M  V30 12431 C 2029.57 4.83651 0.183876 0
M  V30 12432 N 2029.64 3.88759 -0.699393 0
M  V30 12433 C 2029.79 2.7404 0.0575568 0
M  V30 12434 C 2029.92 1.37902 -0.293928 0
M  V30 12435 N 2029.93 0.938021 -1.54797 0
M  V30 12436 N 2030.04 0.491817 0.70549 0
M  V30 12437 C 2030.03 0.931735 1.95979 0
M  V30 12438 N 2029.91 2.16017 2.41481 0
M  V30 12439 C 2029.79 3.02547 1.39121 0
M  V30 12440 H 2026.81 8.36899 2.3252 0
M  V30 12441 H 2026.54 6.70391 1.71179 0
M  V30 12442 H 2027.41 7.03638 4.13219 0
M  V30 12443 H 2030.06 4.59931 3.54016 0
M  V30 12444 H 2030.34 6.88995 1.59871 0
M  V30 12445 H 2031.33 6.4684 3.0373 0
M  V30 12446 H 2029.5 8.47002 3.20749 0
M  V30 12447 H 2029.46 5.8885 -0.0765548 0
M  V30 12448 H 2029.84 1.60276 -2.32875 0
M  V30 12449 H 2030.03 -0.0699355 -1.73859 0
M  V30 12450 H 2030.13 0.165507 2.71897 0
M  V30 12451 P 2031.37 7.20834 5.23717 0
M  V30 12452 O 2031.59 7.79853 6.57286 0
M  V30 12453 O 2032.16 7.79239 4.12957 0
M  V30 12454 O 2031.62 5.63315 5.29344 0
M  V30 12455 C 2030.68 4.80255 6.01876 0
M  V30 12456 C 2031.41 3.64202 6.65911 0
M  V30 12457 O 2031.62 2.60694 5.64732 0
M  V30 12458 C 2032.81 3.93473 7.1943 0
M  V30 12459 O 2033.2 3.02071 8.21205 0
M  V30 12460 C 2033.69 3.73047 5.97036 0
M  V30 12461 C 2032.98 2.58828 5.25741 0
M  V30 12462 N 2033.03 2.68068 3.77503 0
M  V30 12463 H 2030.19 5.40332 6.79951 0
M  V30 12464 H 2029.92 4.41613 5.32378 0
M  V30 12465 H 2030.79 3.26331 7.47797 0
M  V30 12466 P 2034.75 2.75334 8.47391 0
M  V30 12467 O 2034.97 2.44619 9.90336 0
M  V30 12468 O 2035.54 3.87776 7.92294 0
M  V30 12469 O 2035 1.4459 7.59357 0
M  V30 12470 C 2034.06 0.347653 7.69315 0
M  V30 12471 C 2034.79 -0.96767 7.52806 0
M  V30 12472 O 2035 -1.21055 6.10208 0
M  V30 12473 C 2036.19 -1.04557 8.13408 0
M  V30 12474 O 2036.58 -2.38311 8.41922 0
M  V30 12475 C 2037.07 -0.491279 7.02284 0
M  V30 12476 C 2036.36 -0.996264 5.77469 0
M  V30 12477 N 2036.41 -0.0501916 4.62973 0
M  V30 12478 C 2036.33 1.31969 4.65661 0
M  V30 12479 N 2036.4 1.86649 3.48119 0
M  V30 12480 C 2036.55 0.792089 2.62406 0
M  V30 12481 C 2036.68 0.705684 1.2207 0
M  V30 12482 N 2036.69 1.76207 0.413762 0
M  V30 12483 N 2036.8 -0.518981 0.685754 0
M  V30 12484 C 2036.79 -1.57595 1.49174 0
M  V30 12485 N 2036.67 -1.62909 2.80066 0
M  V30 12486 C 2036.55 -0.388195 3.3073 0
M  V30 12487 H 2033.57 0.374765 8.67791 0
M  V30 12488 H 2033.3 0.443613 6.90476 0
M  V30 12489 H 2034.17 -1.75559 7.96891 0
M  V30 12490 H 2036.82 -1.94563 5.46818 0
M  V30 12491 H 2037.1 0.608651 7.04676 0
M  V30 12492 H 2038.09 -0.889796 7.09039 0
M  V30 12493 H 2036.26 -0.433128 9.04664 0
M  V30 12494 H 2036.22 1.89246 5.57664 0
M  V30 12495 H 2036.6 2.71005 0.804694 0
M  V30 12496 H 2036.79 1.63189 -0.603768 0
M  V30 12497 H 2036.89 -2.53475 0.997614 0
M  V30 12498 P 2038.13 -2.75334 8.47391 0
M  V30 12499 O 2038.35 -3.84128 9.44797 0
M  V30 12500 O 2038.92 -1.51947 8.68712 0
M  V30 12501 O 2038.38 -3.29363 6.99321 0
M  V30 12502 C 2037.44 -4.24011 6.4274 0
M  V30 12503 C 2038.17 -5.20775 5.52155 0
M  V30 12504 O 2038.38 -4.56534 4.22446 0
M  V30 12505 C 2039.57 -5.62629 5.96531 0
M  V30 12506 O 2039.96 -6.87667 5.41053 0
M  V30 12507 C 2040.45 -4.52537 5.39283 0
M  V30 12508 C 2039.74 -4.20027 4.08623 0
M  V30 12509 N 2039.79 -2.76189 3.71603 0
M  V30 12510 C 2039.71 -1.64862 4.52822 0
M  V30 12511 N 2039.79 -0.512671 3.88633 0
M  V30 12512 C 2039.93 -0.888083 2.54977 0
M  V30 12513 C 2040.06 -0.094668 1.38677 0
M  V30 12514 N 2040.18 -0.890102 0.232633 0
M  V30 12515 C 2040.18 -2.26958 0.21772 0
M  V30 12516 N 2040.31 -2.84626 -0.97925 0
M  V30 12517 N 2040.05 -3.0178 1.31033 0
M  V30 12518 C 2039.93 -2.26781 2.43843 0
M  V30 12519 H 2036.95 -4.797 7.24003 0
M  V30 12520 H 2036.68 -3.69856 5.84513 0
M  V30 12521 H 2037.55 -6.10356 5.41441 0
M  V30 12522 P 2041.51 -7.20834 5.23717 0
M  V30 12523 O 2041.73 -8.66104 5.38572 0
M  V30 12524 O 2042.3 -6.33544 6.1349 0
M  V30 12525 O 2041.76 -6.7751 3.72168 0
M  V30 12526 C 2040.82 -7.20825 2.7076 0
M  V30 12527 C 2041.55 -7.45864 1.40599 0
M  V30 12528 O 2041.76 -6.17651 0.734225 0
M  V30 12529 C 2042.95 -8.05808 1.51899 0
M  V30 12530 O 2043.34 -8.74358 0.335205 0
M  V30 12531 C 2043.83 -6.83093 1.70294 0
M  V30 12532 C 2043.12 -5.79992 0.836974 0
M  V30 12533 N 2043.17 -4.41864 1.38293 0
M  V30 12534 H 2040.33 -8.13644 3.0377 0
M  V30 12535 H 2040.06 -6.42788 2.55485 0
M  V30 12536 H 2040.93 -8.12039 0.792769 0
M  V30 12537 P 2044.89 -8.91 3.28946e-11 0
M  V30 12538 O 2045.11 -10.1746 -0.733838 0
M  V30 12539 O 2045.68 -8.73346 1.23964 0
M  V30 12540 O 2045.14 -7.66872 -0.971405 0
M  V30 12541 C 2044.2 -7.42405 -2.04668 0
M  V30 12542 C 2044.93 -6.86059 -3.24661 0
M  V30 12543 O 2045.14 -5.42934 -3.03695 0
M  V30 12544 C 2046.33 -7.41287 -3.50796 0
M  V30 12545 O 2046.72 -7.27073 -4.86816 0
M  V30 12546 C 2047.21 -6.5273 -2.63741 0
M  V30 12547 C 2046.5 -5.1842 -2.73198 0
M  V30 12548 N 2046.55 -4.38762 -1.4784 0
M  V30 12549 C 2046.47 -4.83651 -0.183876 0
M  V30 12550 N 2046.54 -3.88759 0.699393 0
M  V30 12551 C 2046.69 -2.7404 -0.0575568 0
M  V30 12552 C 2046.82 -1.37902 0.293928 0
M  V30 12553 N 2046.83 -0.938021 1.54797 0
M  V30 12554 N 2046.94 -0.491817 -0.70549 0
M  V30 12555 C 2046.93 -0.931735 -1.95979 0
M  V30 12556 N 2046.81 -2.16017 -2.41481 0
M  V30 12557 C 2046.69 -3.02547 -1.39121 0
M  V30 12558 H 2043.71 -8.36899 -2.3252 0
M  V30 12559 H 2043.44 -6.70391 -1.71179 0
M  V30 12560 H 2044.31 -7.03638 -4.13219 0
M  V30 12561 H 2046.96 -4.59931 -3.54016 0
M  V30 12562 H 2047.24 -6.88995 -1.59871 0
M  V30 12563 H 2048.23 -6.4684 -3.0373 0
M  V30 12564 H 2046.4 -8.47002 -3.20749 0
M  V30 12565 H 2046.36 -5.8885 0.0765548 0
M  V30 12566 H 2046.74 -1.60276 2.32875 0
M  V30 12567 H 2046.93 0.0699355 1.73859 0
M  V30 12568 H 2047.03 -0.165507 -2.71897 0
M  V30 12569 P 2048.27 -7.20834 -5.23717 0
M  V30 12570 O 2048.49 -7.79853 -6.57286 0
M  V30 12571 O 2049.06 -7.79239 -4.12957 0
M  V30 12572 O 2048.52 -5.63315 -5.29344 0
M  V30 12573 C 2047.58 -4.80255 -6.01876 0
M  V30 12574 C 2048.31 -3.64202 -6.65911 0
M  V30 12575 O 2048.52 -2.60694 -5.64732 0
M  V30 12576 C 2049.71 -3.93473 -7.1943 0
M  V30 12577 O 2050.1 -3.02071 -8.21205 0
M  V30 12578 C 2050.59 -3.73047 -5.97036 0
M  V30 12579 C 2049.88 -2.58828 -5.25741 0
M  V30 12580 N 2049.93 -2.68068 -3.77503 0
M  V30 12581 C 2049.85 -3.79715 -2.96723 0
M  V30 12582 N 2049.93 -3.5377 -1.68852 0
M  V30 12583 C 2050.07 -2.15054 -1.63254 0
M  V30 12584 C 2050.2 -1.28964 -0.518571 0
M  V30 12585 O 2050.22 -1.56826 0.679156 0
M  V30 12586 N 2050.32 0.0538097 -0.918425 0
M  V30 12587 C 2050.32 0.494275 -2.22578 0
M  V30 12588 N 2050.45 1.81086 -2.40434 0
M  V30 12589 N 2050.19 -0.313645 -3.27502 0
M  V30 12590 C 2050.07 -1.61829 -2.91033 0
M  V30 12591 H 2047.09 -5.40332 -6.79951 0
M  V30 12592 H 2046.82 -4.41613 -5.32378 0
M  V30 12593 H 2047.69 -3.26331 -7.47797 0
M  V30 12594 H 2050.34 -1.63422 -5.56814 0
M  V30 12595 H 2050.62 -4.63374 -5.34244 0
M  V30 12596 H 2051.61 -3.44728 -6.25838 0
M  V30 12597 H 2049.78 -4.96652 -7.57263 0
M  V30 12598 H 2049.73 -4.80617 -3.3614 0
M  V30 12599 H 2050.41 0.742702 -0.199384 0
M  V30 12600 H 2050.45 2.20598 -3.35588 0
M  V30 12601 H 2050.55 2.43518 -1.58945 0
M  V30 12602 P 2051.65 -2.75334 -8.47391 0
M  V30 12603 O 2051.87 -2.44571 -9.90142 0
M  V30 12604 O 2052.44 -3.87688 -7.92115 0
M  V30 12605 O 2051.9 -1.4459 -7.59357 0
M  V30 12606 C 2050.96 -0.347608 -7.69215 0
M  V30 12607 C 2051.69 0.96767 -7.52806 0
M  V30 12608 O 2051.9 1.21036 -6.1011 0
M  V30 12609 C 2053.09 1.04544 -8.13308 0
M  V30 12610 O 2053.48 2.38311 -8.41922 0
M  V30 12611 C 2053.97 0.491279 -7.02284 0
M  V30 12612 C 2053.26 0.996264 -5.77469 0
M  V30 12613 N 2053.31 0.0501916 -4.62973 0
M  V30 12614 H 2050.47 -0.374722 -8.67691 0
M  V30 12615 H 2050.2 -0.443485 -6.90277 0
M  V30 12616 H 2051.07 1.75537 -7.96793 0
M  V30 12617 P 2055.03 2.75334 -8.47391 0
M  V30 12618 O 2055.25 3.84128 -9.44797 0
M  V30 12619 O 2055.82 1.51947 -8.68712 0
M  V30 12620 O 2055.28 3.29363 -6.99321 0
M  V30 12621 C 2054.34 4.24011 -6.4274 0
M  V30 12622 C 2055.07 5.20775 -5.52155 0
M  V30 12623 O 2055.28 4.56534 -4.22446 0
M  V30 12624 C 2056.47 5.62629 -5.96531 0
M  V30 12625 O 2056.86 6.87667 -5.41053 0
M  V30 12626 C 2057.35 4.52537 -5.39283 0
M  V30 12627 C 2056.64 4.20027 -4.08623 0
M  V30 12628 N 2056.69 2.76189 -3.71603 0
M  V30 12629 H 2053.85 4.797 -7.24003 0
M  V30 12630 H 2053.58 3.69856 -5.84513 0
M  V30 12631 H 2054.45 6.10356 -5.41441 0
M  V30 12632 P 2058.41 7.20834 -5.23717 0
M  V30 12633 O 2058.63 8.66104 -5.38572 0
M  V30 12634 O 2059.2 6.33544 -6.1349 0
M  V30 12635 O 2058.66 6.7751 -3.72168 0
M  V30 12636 C 2057.72 7.20825 -2.7076 0
M  V30 12637 C 2058.45 7.45864 -1.40599 0
M  V30 12638 O 2058.66 6.17651 -0.734225 0
M  V30 12639 C 2059.85 8.05808 -1.51899 0
M  V30 12640 O 2060.24 8.74358 -0.335205 0
M  V30 12641 C 2060.73 6.83093 -1.70294 0
M  V30 12642 C 2060.02 5.79992 -0.836974 0
M  V30 12643 N 2060.07 4.41864 -1.38293 0
M  V30 12644 H 2057.23 8.13644 -3.0377 0
M  V30 12645 H 2056.96 6.42788 -2.55485 0
M  V30 12646 H 2057.83 8.12039 -0.792769 0
M  V30 12647 P 2061.79 8.91 -3.40036e-11 0
M  V30 12648 O 2062.01 10.1736 0.733766 0
M  V30 12649 O 2062.58 8.73247 -1.2395 0
M  V30 12650 O 2062.04 7.66872 0.971405 0
M  V30 12651 C 2061.1 7.42212 2.04614 0
M  V30 12652 C 2061.83 6.86059 3.24661 0
M  V30 12653 O 2062.04 5.42847 3.03646 0
M  V30 12654 C 2063.23 7.41196 3.50753 0
M  V30 12655 O 2063.62 7.27073 4.86816 0
M  V30 12656 C 2064.11 6.5273 2.63741 0
M  V30 12657 C 2063.4 5.1842 2.73198 0
M  V30 12658 N 2063.45 4.38668 1.47808 0
M  V30 12659 C 2063.6 3.02239 1.60048 0
M  V30 12660 O 2063.69 2.46459 2.67869 0
M  V30 12661 N 2063.64 2.32436 0.408571 0
M  V30 12662 C 2063.55 2.85471 -0.854993 0
M  V30 12663 O 2063.6 2.12566 -1.8531 0
M  V30 12664 C 2063.4 4.28918 -0.887335 0
M  V30 12665 C 2063.29 4.91066 -2.24619 0
M  V30 12666 C 2063.35 5.00349 0.255399 0
M  V30 12667 H 2060.61 8.36803 2.32493 0
M  V30 12668 H 2060.34 6.701 1.71105 0
M  V30 12669 H 2061.21 7.03551 4.13168 0
M  V30 12670 H 2063.86 4.59773 3.53894 0
M  V30 12671 H 2064.14 6.88995 1.59871 0
M  V30 12672 H 2065.13 6.46749 3.03687 0
M  V30 12673 H 2063.3 8.46908 3.20714 0
M  V30 12674 H 2063.23 6.08548 0.206986 0
M  V30 12675 H 2064.26 5.34836 -2.53099 0
M  V30 12676 H 2062.52 5.69638 -2.2291 0
M  V30 12677 H 2063.01 4.13971 -2.98044 0
M  V30 12678 H 2063.74 1.33211 0.474216 0
M  V30 12679 P 2065.17 7.20834 5.23717 0
M  V30 12680 O 2065.39 7.79853 6.57286 0
M  V30 12681 O 2065.96 7.79239 4.12957 0
M  V30 12682 O 2065.42 5.63315 5.29344 0
M  V30 12683 C 2064.48 4.80255 6.01876 0
M  V30 12684 C 2065.21 3.64202 6.65911 0
M  V30 12685 O 2065.42 2.60694 5.64732 0
M  V30 12686 C 2066.61 3.93473 7.1943 0
M  V30 12687 O 2067 3.02071 8.21205 0
M  V30 12688 C 2067.49 3.73047 5.97036 0
M  V30 12689 C 2066.78 2.58828 5.25741 0
M  V30 12690 N 2066.83 2.68068 3.77503 0
M  V30 12691 C 2066.75 3.79715 2.96723 0
M  V30 12692 N 2066.83 3.5377 1.68852 0
M  V30 12693 C 2066.97 2.15054 1.63254 0
M  V30 12694 C 2067.1 1.28964 0.518571 0
M  V30 12695 N 2067.22 -0.0538097 0.918425 0
M  V30 12696 C 2067.22 -0.494275 2.22578 0
M  V30 12697 N 2067.35 -1.81086 2.40434 0
M  V30 12698 N 2067.09 0.313645 3.27502 0
M  V30 12699 C 2066.97 1.61829 2.91033 0
M  V30 12700 H 2063.99 5.40332 6.79951 0
M  V30 12701 H 2063.72 4.41613 5.32378 0
M  V30 12702 H 2064.59 3.26331 7.47797 0
M  V30 12703 P 2068.55 2.75334 8.47391 0
M  V30 12704 O 2068.77 2.44595 9.90239 0
M  V30 12705 O 2069.34 3.87732 7.92204 0
M  V30 12706 O 2068.8 1.4459 7.59357 0
M  V30 12707 C 2067.86 0.347563 7.69115 0
M  V30 12708 C 2068.59 -0.96767 7.52806 0
M  V30 12709 O 2068.8 -1.21036 6.1011 0
M  V30 12710 C 2069.99 -1.04544 8.13308 0
M  V30 12711 O 2070.38 -2.38311 8.41922 0
M  V30 12712 C 2070.87 -0.491279 7.02284 0
M  V30 12713 C 2070.16 -0.996264 5.77469 0
M  V30 12714 N 2070.21 -0.0501808 4.62873 0
M  V30 12715 C 2070.36 -0.588177 3.36904 0
M  V30 12716 O 2070.45 -1.78598 3.17173 0
M  V30 12717 N 2070.4 0.329694 2.33686 0
M  V30 12718 C 2070.31 1.6953 2.45079 0
M  V30 12719 O 2070.36 2.41926 1.44899 0
M  V30 12720 C 2070.16 2.16933 3.80505 0
M  V30 12721 C 2070.05 3.65373 3.97621 0
M  V30 12722 C 2070.11 1.30326 4.83752 0
M  V30 12723 H 2067.37 0.374722 8.67691 0
M  V30 12724 H 2067.1 0.443421 6.90177 0
M  V30 12725 H 2067.97 -1.75537 7.96793 0
M  V30 12726 H 2070.62 -1.94496 5.46629 0
M  V30 12727 H 2070.9 0.608651 7.04676 0
M  V30 12728 H 2071.89 -0.889672 7.08939 0
M  V30 12729 H 2070.06 -0.43308 9.04564 0
M  V30 12730 H 2069.99 1.68366 5.8516 0
M  V30 12731 H 2071.02 4.05985 4.30448 0
M  V30 12732 H 2069.28 3.88028 4.72875 0
M  V30 12733 H 2069.77 4.11381 3.01609 0
M  V30 12734 H 2070.5 -0.0393617 1.41345 0
M  V30 12735 P 2071.93 -2.75334 8.47391 0
M  V30 12736 O 2072.15 -3.84128 9.44797 0
M  V30 12737 O 2072.72 -1.51947 8.68712 0
M  V30 12738 O 2072.18 -3.29363 6.99321 0
M  V30 12739 C 2071.24 -4.24011 6.4274 0
M  V30 12740 C 2071.97 -5.20775 5.52155 0
M  V30 12741 O 2072.18 -4.56534 4.22446 0
M  V30 12742 C 2073.37 -5.62629 5.96531 0
M  V30 12743 O 2073.76 -6.87667 5.41053 0
M  V30 12744 C 2074.25 -4.52537 5.39283 0
M  V30 12745 C 2073.54 -4.20027 4.08623 0
M  V30 12746 N 2073.59 -2.76189 3.71603 0
M  V30 12747 H 2070.75 -4.797 7.24003 0
M  V30 12748 H 2070.48 -3.69856 5.84513 0
M  V30 12749 H 2071.35 -6.10356 5.41441 0
M  V30 12750 P 2075.31 -7.20834 5.23717 0
M  V30 12751 O 2075.53 -8.66189 5.38625 0
M  V30 12752 O 2076.1 -6.33615 6.1356 0
M  V30 12753 O 2075.56 -6.7751 3.72168 0
M  V30 12754 C 2074.62 -7.20732 2.70725 0
M  V30 12755 C 2075.35 -7.45864 1.40599 0
M  V30 12756 O 2075.56 -6.17651 0.734225 0
M  V30 12757 C 2076.75 -8.05808 1.51899 0
M  V30 12758 O 2077.14 -8.74358 0.335205 0
M  V30 12759 C 2077.63 -6.83093 1.70294 0
M  V30 12760 C 2076.92 -5.79992 0.836974 0
M  V30 12761 N 2076.97 -4.41769 1.38263 0
M  V30 12762 C 2077.12 -3.38591 0.481702 0
M  V30 12763 O 2077.21 -3.56839 -0.718452 0
M  V30 12764 N 2077.16 -2.1206 1.03569 0
M  V30 12765 C 2077.07 -1.80696 2.36966 0
M  V30 12766 C 2076.92 -2.94845 3.23898 0
M  V30 12767 C 2076.87 -4.19803 2.73435 0
M  V30 12768 H 2074.13 -8.13644 3.0377 0
M  V30 12769 H 2073.86 -6.42695 2.55448 0
M  V30 12770 H 2074.73 -8.12039 0.792769 0
M  V30 12771 H 2077.38 -5.79978 -0.160587 0
M  V30 12772 H 2077.66 -6.51379 2.75643 0
M  V30 12773 H 2078.65 -7.01734 1.34462 0
M  V30 12774 H 2076.82 -8.73674 2.38337 0
M  V30 12775 H 2076.75 -5.04492 3.4095 0
M  V30 12776 P 2078.69 -8.91 3.51126e-11 0
M  V30 12777 O 2078.91 -10.1726 -0.733694 0
M  V30 12778 O 2079.48 -8.73148 1.23936 0
M  V30 12779 O 2078.94 -7.66872 -0.971405 0
M  V30 12780 C 2078 -7.42309 -2.04641 0
M  V30 12781 C 2078.73 -6.86059 -3.24661 0
M  V30 12782 O 2078.94 -5.42847 -3.03646 0
M  V30 12783 C 2080.13 -7.41196 -3.50753 0
M  V30 12784 O 2080.52 -7.27073 -4.86816 0
M  V30 12785 C 2081.01 -6.5273 -2.63741 0
M  V30 12786 C 2080.3 -5.1842 -2.73198 0
M  V30 12787 N 2080.35 -4.38762 -1.4784 0
M  V30 12788 H 2077.51 -8.36803 -2.32493 0
M  V30 12789 H 2077.24 -6.70197 -1.71129 0
M  V30 12790 H 2078.11 -7.03551 -4.13168 0
M  V30 12791 P 2082.07 -7.20834 -5.23717 0
M  V30 12792 O 2082.29 -7.79853 -6.57286 0
M  V30 12793 O 2082.86 -7.79239 -4.12957 0
M  V30 12794 O 2082.32 -5.63315 -5.29344 0
M  V30 12795 C 2081.38 -4.80255 -6.01876 0
M  V30 12796 C 2082.11 -3.64202 -6.65911 0
M  V30 12797 O 2082.32 -2.60694 -5.64732 0
M  V30 12798 C 2083.51 -3.93473 -7.1943 0
M  V30 12799 O 2083.9 -3.02071 -8.21205 0
M  V30 12800 C 2084.39 -3.73047 -5.97036 0
M  V30 12801 C 2083.68 -2.58828 -5.25741 0
M  V30 12802 N 2083.73 -2.68068 -3.77503 0
M  V30 12803 C 2083.65 -3.79715 -2.96723 0
M  V30 12804 N 2083.73 -3.5377 -1.68852 0
M  V30 12805 C 2083.87 -2.15054 -1.63254 0
M  V30 12806 C 2084 -1.28964 -0.518571 0
M  V30 12807 O 2084.02 -1.56826 0.679156 0
M  V30 12808 N 2084.12 0.0538097 -0.918425 0
M  V30 12809 C 2084.12 0.494275 -2.22578 0
M  V30 12810 N 2084.25 1.81086 -2.40434 0
M  V30 12811 N 2083.99 -0.313645 -3.27502 0
M  V30 12812 C 2083.87 -1.61829 -2.91033 0
M  V30 12813 H 2080.89 -5.40332 -6.79951 0
M  V30 12814 H 2080.62 -4.41613 -5.32378 0
M  V30 12815 H 2081.49 -3.26331 -7.47797 0
M  V30 12816 H 2084.14 -1.63422 -5.56814 0
M  V30 12817 H 2084.42 -4.63374 -5.34244 0
M  V30 12818 H 2085.41 -3.44728 -6.25838 0
M  V30 12819 H 2083.58 -4.96652 -7.57263 0
M  V30 12820 H 2083.53 -4.80617 -3.3614 0
M  V30 12821 H 2084.21 0.742702 -0.199384 0
M  V30 12822 H 2084.25 2.20598 -3.35588 0
M  V30 12823 H 2084.35 2.43518 -1.58945 0
M  V30 12824 P 2085.45 -2.75334 -8.47391 0
M  V30 12825 O 2085.67 -2.44571 -9.90142 0
M  V30 12826 O 2086.24 -3.87688 -7.92115 0
M  V30 12827 O 2085.7 -1.4459 -7.59357 0
M  V30 12828 C 2084.76 -0.347608 -7.69215 0
M  V30 12829 C 2085.49 0.96767 -7.52806 0
M  V30 12830 O 2085.7 1.21036 -6.1011 0
M  V30 12831 C 2086.89 1.04544 -8.13308 0
M  V30 12832 O 2087.28 2.38311 -8.41922 0
M  V30 12833 C 2087.77 0.491279 -7.02284 0
M  V30 12834 C 2087.06 0.996264 -5.77469 0
M  V30 12835 N 2087.11 0.0501916 -4.62973 0
M  V30 12836 H 2084.27 -0.374722 -8.67691 0
M  V30 12837 H 2084 -0.443485 -6.90277 0
M  V30 12838 H 2084.87 1.75537 -7.96793 0
M  V30 12839 P 2088.83 2.75334 -8.47391 0
M  V30 12840 O 2089.05 3.84128 -9.44797 0
M  V30 12841 O 2089.62 1.51947 -8.68712 0
M  V30 12842 O 2089.08 3.29363 -6.99321 0
M  V30 12843 C 2088.14 4.24011 -6.4274 0
M  V30 12844 C 2088.87 5.20775 -5.52155 0
M  V30 12845 O 2089.08 4.56534 -4.22446 0
M  V30 12846 C 2090.27 5.62629 -5.96531 0
M  V30 12847 O 2090.66 6.87667 -5.41053 0
M  V30 12848 C 2091.15 4.52537 -5.39283 0
M  V30 12849 C 2090.44 4.20027 -4.08623 0
M  V30 12850 N 2090.49 2.76189 -3.71603 0
M  V30 12851 H 2087.65 4.797 -7.24003 0
M  V30 12852 H 2087.38 3.69856 -5.84513 0
M  V30 12853 H 2088.25 6.10356 -5.41441 0
M  V30 12854 P 2092.21 7.20834 -5.23717 0
M  V30 12855 O 2092.43 8.66104 -5.38572 0
M  V30 12856 O 2093 6.33544 -6.1349 0
M  V30 12857 O 2092.46 6.7751 -3.72168 0
M  V30 12858 C 2091.52 7.20825 -2.7076 0
M  V30 12859 C 2092.25 7.45864 -1.40599 0
M  V30 12860 O 2092.46 6.17651 -0.734225 0
M  V30 12861 C 2093.65 8.05808 -1.51899 0
M  V30 12862 O 2094.04 8.74358 -0.335205 0
M  V30 12863 C 2094.53 6.83093 -1.70294 0
M  V30 12864 C 2093.82 5.79992 -0.836974 0
M  V30 12865 N 2093.87 4.41864 -1.38293 0
M  V30 12866 H 2091.03 8.13644 -3.0377 0
M  V30 12867 H 2090.76 6.42788 -2.55485 0
M  V30 12868 H 2091.63 8.12039 -0.792769 0
M  V30 12869 P 2095.59 8.91 -3.62216e-11 0
M  V30 12870 O 2095.81 10.1726 0.733694 0
M  V30 12871 O 2096.38 8.73148 -1.23936 0
M  V30 12872 O 2095.84 7.66872 0.971405 0
M  V30 12873 C 2094.9 7.42309 2.04641 0
M  V30 12874 C 2095.63 6.86059 3.24661 0
M  V30 12875 O 2095.84 5.42847 3.03646 0
M  V30 12876 C 2097.03 7.41196 3.50753 0
M  V30 12877 O 2097.42 7.27073 4.86816 0
M  V30 12878 C 2097.91 6.5273 2.63741 0
M  V30 12879 C 2097.2 5.1842 2.73198 0
M  V30 12880 N 2097.25 4.38762 1.4784 0
M  V30 12881 C 2097.17 4.81605 0.168631 0
M  V30 12882 N 2097.25 3.85454 -0.713363 0
M  V30 12883 C 2097.39 2.6994 0.0566958 0
M  V30 12884 C 2097.52 1.34815 -0.338502 0
M  V30 12885 N 2097.64 0.496304 0.77465 0
M  V30 12886 C 2097.64 0.908403 2.09122 0
M  V30 12887 N 2097.77 -0.0517805 3.00955 0
M  V30 12888 N 2097.51 2.17875 2.46519 0
M  V30 12889 C 2097.39 3.01988 1.4033 0
M  V30 12890 H 2094.41 8.36803 2.32493 0
M  V30 12891 H 2094.14 6.70197 1.71129 0
M  V30 12892 H 2095.01 7.03551 4.13168 0
M  V30 12893 P 2098.97 7.20834 5.23717 0
M  V30 12894 O 2099.19 7.79853 6.57286 0
M  V30 12895 O 2099.76 7.79239 4.12957 0
M  V30 12896 O 2099.22 5.63315 5.29344 0
M  V30 12897 C 2098.28 4.80255 6.01876 0
M  V30 12898 C 2099.01 3.64202 6.65911 0
M  V30 12899 O 2099.22 2.60694 5.64732 0
M  V30 12900 C 2100.41 3.93473 7.1943 0
M  V30 12901 O 2100.8 3.02071 8.21205 0
M  V30 12902 C 2101.29 3.73047 5.97036 0
M  V30 12903 C 2100.58 2.58828 5.25741 0
M  V30 12904 N 2100.63 2.68068 3.77503 0
M  V30 12905 H 2097.79 5.40332 6.79951 0
M  V30 12906 H 2097.52 4.41613 5.32378 0
M  V30 12907 H 2098.39 3.26331 7.47797 0
M  V30 12908 P 2102.35 2.75334 8.47391 0
M  V30 12909 O 2102.57 2.44571 9.90142 0
M  V30 12910 O 2103.14 3.87688 7.92115 0
M  V30 12911 O 2102.6 1.4459 7.59357 0
M  V30 12912 C 2101.66 0.347608 7.69215 0
M  V30 12913 C 2102.39 -0.96767 7.52806 0
M  V30 12914 O 2102.6 -1.21036 6.1011 0
M  V30 12915 C 2103.79 -1.04544 8.13308 0
M  V30 12916 O 2104.18 -2.38311 8.41922 0
M  V30 12917 C 2104.67 -0.491279 7.02284 0
M  V30 12918 C 2103.96 -0.996264 5.77469 0
M  V30 12919 N 2104.01 -0.0501916 4.62973 0
M  V30 12920 H 2101.17 0.374722 8.67691 0
M  V30 12921 H 2100.9 0.443485 6.90277 0
M  V30 12922 H 2101.77 -1.75537 7.96793 0
M  V30 12923 P 2105.73 -2.75334 8.47391 0
M  V30 12924 O 2105.95 -3.84166 9.4489 0
M  V30 12925 O 2106.52 -1.51964 8.6881 0
M  V30 12926 O 2105.98 -3.29363 6.99321 0
M  V30 12927 C 2105.04 -4.23956 6.42656 0
M  V30 12928 C 2105.77 -5.20775 5.52155 0
M  V30 12929 O 2105.98 -4.56534 4.22446 0
M  V30 12930 C 2107.17 -5.62629 5.96531 0
M  V30 12931 O 2107.56 -6.87667 5.41053 0
M  V30 12932 C 2108.05 -4.52537 5.39283 0
M  V30 12933 C 2107.34 -4.20027 4.08623 0
M  V30 12934 N 2107.39 -2.7613 3.71522 0
M  V30 12935 C 2107.54 -2.45612 2.37989 0
M  V30 12936 O 2107.63 -3.30919 1.51621 0
M  V30 12937 N 2107.58 -1.10684 2.08435 0
M  V30 12938 C 2107.49 -0.0690084 2.9792 0
M  V30 12939 O 2107.54 1.10553 2.59426 0
M  V30 12940 C 2107.34 -0.481522 4.35345 0
M  V30 12941 C 2107.23 0.618778 5.36443 0
M  V30 12942 C 2107.29 -1.78906 4.67968 0
M  V30 12943 H 2104.55 -4.797 7.24003 0
M  V30 12944 H 2104.28 -3.69802 5.84429 0
M  V30 12945 H 2105.15 -6.10356 5.41441 0
M  V30 12946 H 2107.8 -4.78651 3.27911 0
M  V30 12947 H 2108.08 -3.64957 6.05871 0
M  V30 12948 H 2109.07 -4.8868 5.2125 0
M  V30 12949 H 2107.24 -5.66726 7.06352 0
M  V30 12950 H 2107.17 -2.07737 5.72367 0
M  V30 12951 H 2108.2 0.754375 5.86871 0
M  V30 12952 H 2106.46 0.359721 6.10641 0
M  V30 12953 H 2106.95 1.55533 4.8581 0
M  V30 12954 H 2107.68 -0.862651 1.12037 0
M  V30 12955 P 2109.11 -7.20834 5.23717 0
M  V30 12956 O 2109.33 -8.66189 5.38625 0
M  V30 12957 O 2109.9 -6.33615 6.1356 0
M  V30 12958 O 2109.36 -6.7751 3.72168 0
M  V30 12959 C 2108.42 -7.20825 2.7076 0
M  V30 12960 C 2109.15 -7.45864 1.40599 0
M  V30 12961 O 2109.36 -6.17651 0.734225 0
M  V30 12962 C 2110.55 -8.05808 1.51899 0
M  V30 12963 O 2110.94 -8.74358 0.335205 0
M  V30 12964 C 2111.43 -6.83093 1.70294 0
M  V30 12965 C 2110.72 -5.79992 0.836974 0
M  V30 12966 N 2110.77 -4.41769 1.38263 0
M  V30 12967 C 2110.92 -3.36514 0.485617 0
M  V30 12968 O 2111.01 -3.61814 -0.724703 0
M  V30 12969 N 2110.97 -2.00746 1.14492 0
M  V30 12970 C 2110.87 -1.85887 2.27776 0
M  V30 12971 N 2110.92 -0.600907 2.69379 0
M  V30 12972 C 2110.72 -2.92182 3.22265 0
M  V30 12973 C 2110.67 -4.18399 2.71925 0
M  V30 12974 H 2107.93 -8.1355 3.03735 0
M  V30 12975 H 2107.66 -6.42695 2.55448 0
M  V30 12976 H 2108.53 -8.12139 0.792866 0
M  V30 12977 H 2111.18 -5.80078 -0.160615 0
M  V30 12978 H 2111.46 -6.51379 2.75643 0
M  V30 12979 H 2112.45 -7.01734 1.34462 0
M  V30 12980 H 2110.62 -8.73674 2.38337 0
M  V30 12981 H 2110.55 -5.02669 3.39718 0
M  V30 12982 H 2110.65 -2.73001 4.29239 0
M  V30 12983 H 2111.04 0.162318 2.01146 0
M  V30 12984 H 2110.84 -0.387742 3.69773 0
M  V30 12985 P 2112.49 -8.91 3.73306e-11 0
M  V30 12986 O 2112.71 -10.1726 -0.733694 0
M  V30 12987 O 2113.28 -8.73148 1.23936 0
M  V30 12988 O 2112.74 -7.66872 -0.971405 0
M  V30 12989 C 2111.8 -7.42309 -2.04641 0
M  V30 12990 C 2112.53 -6.86059 -3.24661 0
M  V30 12991 O 2112.74 -5.42847 -3.03646 0
M  V30 12992 C 2113.93 -7.41196 -3.50753 0
M  V30 12993 O 2114.32 -7.27073 -4.86816 0
M  V30 12994 C 2114.81 -6.5273 -2.63741 0
M  V30 12995 C 2114.1 -5.1842 -2.73198 0
M  V30 12996 N 2114.15 -4.38762 -1.4784 0
M  V30 12997 H 2111.31 -8.36803 -2.32493 0
M  V30 12998 H 2111.04 -6.70197 -1.71129 0
M  V30 12999 H 2111.91 -7.03551 -4.13168 0
M  V30 13000 P 2115.87 -7.20834 -5.23717 0
M  V30 13001 O 2116.09 -7.79853 -6.57286 0
M  V30 13002 O 2116.66 -7.79239 -4.12957 0
M  V30 13003 O 2116.12 -5.63315 -5.29344 0
M  V30 13004 C 2115.18 -4.80255 -6.01876 0
M  V30 13005 C 2115.91 -3.64202 -6.65911 0
M  V30 13006 O 2116.12 -2.60694 -5.64732 0
M  V30 13007 C 2117.31 -3.93473 -7.1943 0
M  V30 13008 O 2117.7 -3.02071 -8.21205 0
M  V30 13009 C 2118.19 -3.73047 -5.97036 0
M  V30 13010 C 2117.48 -2.58828 -5.25741 0
M  V30 13011 N 2117.53 -2.68068 -3.77503 0
M  V30 13012 H 2114.69 -5.40332 -6.79951 0
M  V30 13013 H 2114.42 -4.41613 -5.32378 0
M  V30 13014 H 2115.29 -3.26331 -7.47797 0
M  V30 13015 P 2119.25 -2.75334 -8.47391 0
M  V30 13016 O 2119.47 -2.44571 -9.90142 0
M  V30 13017 O 2120.04 -3.87688 -7.92115 0
M  V30 13018 O 2119.5 -1.4459 -7.59357 0
M  V30 13019 C 2118.56 -0.347608 -7.69215 0
M  V30 13020 C 2119.29 0.96767 -7.52806 0
M  V30 13021 O 2119.5 1.21036 -6.1011 0
M  V30 13022 C 2120.69 1.04544 -8.13308 0
M  V30 13023 O 2121.08 2.38311 -8.41922 0
M  V30 13024 C 2121.57 0.491279 -7.02284 0
M  V30 13025 C 2120.86 0.996264 -5.77469 0
M  V30 13026 N 2120.91 0.0501916 -4.62973 0
M  V30 13027 C 2120.83 -1.32786 -4.63244 0
M  V30 13028 N 2120.91 -1.86957 -3.44545 0
M  V30 13029 C 2121.05 -0.780241 -2.58481 0
M  V30 13030 C 2121.18 -0.738536 -1.17757 0
M  V30 13031 N 2121.3 0.58337 -0.711393 0
M  V30 13032 C 2121.3 1.70816 -1.51017 0
M  V30 13033 N 2121.43 2.87826 -0.880757 0
M  V30 13034 N 2121.17 1.67126 -2.8339 0
M  V30 13035 C 2121.05 0.401421 -3.30572 0
M  V30 13036 H 2118.07 -0.374722 -8.67691 0
M  V30 13037 H 2117.8 -0.443485 -6.90277 0
M  V30 13038 H 2118.67 1.75537 -7.96793 0
M  V30 13039 P 2122.63 2.75334 -8.47391 0
M  V30 13040 O 2122.85 3.84128 -9.44797 0
M  V30 13041 O 2123.42 1.51947 -8.68712 0
M  V30 13042 O 2122.88 3.29363 -6.99321 0
M  V30 13043 C 2121.94 4.24011 -6.4274 0
M  V30 13044 C 2122.67 5.20775 -5.52155 0
M  V30 13045 O 2122.88 4.56534 -4.22446 0
M  V30 13046 C 2124.07 5.62629 -5.96531 0
M  V30 13047 O 2124.46 6.87667 -5.41053 0
M  V30 13048 C 2124.95 4.52537 -5.39283 0
M  V30 13049 C 2124.24 4.20027 -4.08623 0
M  V30 13050 N 2124.29 2.76189 -3.71603 0
M  V30 13051 H 2121.45 4.797 -7.24003 0
M  V30 13052 H 2121.18 3.69856 -5.84513 0
M  V30 13053 H 2122.05 6.10356 -5.41441 0
M  V30 13054 P 2126.01 7.20834 -5.23717 0
M  V30 13055 O 2126.23 8.66274 -5.38678 0
M  V30 13056 O 2126.8 6.33687 -6.13629 0
M  V30 13057 O 2126.26 6.7751 -3.72168 0
M  V30 13058 C 2125.32 7.20919 -2.70795 0
M  V30 13059 C 2126.05 7.45864 -1.40599 0
M  V30 13060 O 2126.26 6.17751 -0.734343 0
M  V30 13061 C 2127.45 8.05906 -1.51917 0
M  V30 13062 O 2127.84 8.74358 -0.335205 0
M  V30 13063 C 2128.33 6.83093 -1.70294 0
M  V30 13064 C 2127.62 5.79992 -0.836974 0
M  V30 13065 N 2127.67 4.41864 -1.38293 0
M  V30 13066 C 2127.59 4.02089 -2.69407 0
M  V30 13067 N 2127.66 2.73403 -2.85089 0
M  V30 13068 C 2127.81 2.25086 -1.5642 0
M  V30 13069 C 2127.94 0.942887 -1.04836 0
M  V30 13070 N 2127.95 -0.150999 -1.80369 0
M  V30 13071 N 2128.06 0.812565 0.28167 0
M  V30 13072 C 2128.05 1.90572 1.03784 0
M  V30 13073 N 2127.93 3.167 0.683905 0
M  V30 13074 C 2127.81 3.26538 -0.652815 0
M  V30 13075 H 2124.83 8.13738 -3.03804 0
M  V30 13076 H 2124.56 6.42974 -2.55559 0
M  V30 13077 H 2125.43 8.12139 -0.792866 0
M  V30 13078 H 2128.08 5.80178 0.160643 0
M  V30 13079 H 2128.36 6.51379 -2.75643 0
M  V30 13080 H 2129.35 7.01832 -1.3448 0
M  V30 13081 H 2127.52 8.73771 -2.38364 0
M  V30 13082 H 2127.48 4.7189 -3.52311 0
M  V30 13083 H 2127.86 -0.0721434 -2.82608 0
M  V30 13084 H 2128.05 -1.0785 -1.36544 0
M  V30 13085 H 2128.15 1.73207 2.10241 0
M  V30 13086 P 2129.39 8.91 -3.84396e-11 0
M  V30 13087 O 2129.61 10.1726 0.733694 0
M  V30 13088 O 2130.18 8.73148 -1.23936 0
M  V30 13089 O 2129.64 7.66872 0.971405 0
M  V30 13090 C 2128.7 7.42309 2.04641 0
M  V30 13091 C 2129.43 6.86059 3.24661 0
M  V30 13092 O 2129.64 5.42847 3.03646 0
M  V30 13093 C 2130.83 7.41196 3.50753 0
M  V30 13094 O 2131.22 7.27073 4.86816 0
M  V30 13095 C 2131.71 6.5273 2.63741 0
M  V30 13096 C 2131 5.1842 2.73198 0
M  V30 13097 N 2131.05 4.38762 1.4784 0
M  V30 13098 C 2130.97 4.81605 0.168631 0
M  V30 13099 N 2131.05 3.85454 -0.713363 0
M  V30 13100 C 2131.19 2.6994 0.0566958 0
M  V30 13101 C 2131.32 1.34815 -0.338502 0
M  V30 13102 O 2131.34 0.869548 -1.47125 0
M  V30 13103 N 2131.44 0.496304 0.77465 0
M  V30 13104 C 2131.44 0.908403 2.09122 0
M  V30 13105 N 2131.57 -0.0517805 3.00955 0
M  V30 13106 N 2131.31 2.17875 2.46519 0
M  V30 13107 C 2131.19 3.01988 1.4033 0
M  V30 13108 H 2128.21 8.36803 2.32493 0
M  V30 13109 H 2127.94 6.70197 1.71129 0
M  V30 13110 H 2128.81 7.03551 4.13168 0
M  V30 13111 H 2131.46 4.59498 3.54415 0
M  V30 13112 H 2131.74 6.88898 1.59848 0
M  V30 13113 H 2132.73 6.46749 3.03687 0
M  V30 13114 H 2130.9 8.46908 3.20714 0
M  V30 13115 H 2130.85 5.86405 -0.105564 0
M  V30 13116 H 2131.53 -0.483664 0.597855 0
M  V30 13117 H 2131.57 0.187865 4.0116 0
M  V30 13118 H 2131.67 -1.03585 2.71726 0
M  V30 13119 P 2132.77 7.20834 5.23717 0
M  V30 13120 O 2132.99 7.79853 6.57286 0
M  V30 13121 O 2133.56 7.79239 4.12957 0
M  V30 13122 O 2133.02 5.63315 5.29344 0
M  V30 13123 C 2132.08 4.80255 6.01876 0
M  V30 13124 C 2132.81 3.64202 6.65911 0
M  V30 13125 O 2133.02 2.60694 5.64732 0
M  V30 13126 C 2134.21 3.93473 7.1943 0
M  V30 13127 O 2134.6 3.02071 8.21205 0
M  V30 13128 C 2135.09 3.73047 5.97036 0
M  V30 13129 C 2134.38 2.58828 5.25741 0
M  V30 13130 N 2134.43 2.68068 3.77503 0
M  V30 13131 H 2131.59 5.40332 6.79951 0
M  V30 13132 H 2131.32 4.41613 5.32378 0
M  V30 13133 H 2132.19 3.26331 7.47797 0
M  V30 13134 P 2136.15 2.75334 8.47391 0
M  V30 13135 O 2136.37 2.44571 9.90142 0
M  V30 13136 O 2136.94 3.87688 7.92115 0
M  V30 13137 O 2136.4 1.4459 7.59357 0
M  V30 13138 C 2135.46 0.347608 7.69215 0
M  V30 13139 C 2136.19 -0.96767 7.52806 0
M  V30 13140 O 2136.4 -1.21036 6.1011 0
M  V30 13141 C 2137.59 -1.04544 8.13308 0
M  V30 13142 O 2137.98 -2.38311 8.41922 0
M  V30 13143 C 2138.47 -0.491279 7.02284 0
M  V30 13144 C 2137.76 -0.996264 5.77469 0
M  V30 13145 N 2137.81 -0.0501916 4.62973 0
M  V30 13146 H 2134.97 0.374722 8.67691 0
M  V30 13147 H 2134.7 0.443485 6.90277 0
M  V30 13148 H 2135.57 -1.75537 7.96793 0
M  V30 13149 P 2139.53 -2.75334 8.47391 0
M  V30 13150 O 2139.75 -3.84128 9.44797 0
M  V30 13151 O 2140.32 -1.51947 8.68712 0
M  V30 13152 O 2139.78 -3.29363 6.99321 0
M  V30 13153 C 2138.84 -4.24011 6.4274 0
M  V30 13154 C 2139.57 -5.20775 5.52155 0
M  V30 13155 O 2139.78 -4.56534 4.22446 0
M  V30 13156 C 2140.97 -5.62629 5.96531 0
M  V30 13157 O 2141.36 -6.87667 5.41053 0
M  V30 13158 C 2141.85 -4.52537 5.39283 0
M  V30 13159 C 2141.14 -4.20027 4.08623 0
M  V30 13160 N 2141.19 -2.76189 3.71603 0
M  V30 13161 C 2141.11 -1.64862 4.52822 0
M  V30 13162 N 2141.19 -0.512671 3.88633 0
M  V30 13163 C 2141.33 -0.888083 2.54977 0
M  V30 13164 C 2141.46 -0.094668 1.38677 0
M  V30 13165 O 2141.48 1.13053 1.28163 0
M  V30 13166 N 2141.58 -0.890102 0.232633 0
M  V30 13167 C 2141.58 -2.26958 0.21772 0
M  V30 13168 N 2141.71 -2.84626 -0.97925 0
M  V30 13169 N 2141.45 -3.0178 1.31033 0
M  V30 13170 C 2141.33 -2.26781 2.43843 0
M  V30 13171 H 2138.35 -4.797 7.24003 0
M  V30 13172 H 2138.08 -3.69856 5.84513 0
M  V30 13173 H 2138.95 -6.10356 5.41441 0
M  V30 13174 H 2141.6 -4.79061 3.27488 0
M  V30 13175 H 2141.88 -3.64906 6.05785 0
M  V30 13176 H 2142.87 -4.8868 5.2125 0
M  V30 13177 H 2141.04 -5.66726 7.06352 0
M  V30 13178 H 2140.99 -1.71169 5.60966 0
M  V30 13179 H 2141.67 -0.419134 -0.644739 0
M  V30 13180 H 2141.71 -3.87332 -1.06098 0
M  V30 13181 H 2141.81 -2.26417 -1.82483 0
M  V30 13182 P 2142.91 -7.20834 5.23717 0
M  V30 13183 O 2143.13 -8.66104 5.38572 0
M  V30 13184 O 2143.7 -6.33544 6.1349 0
M  V30 13185 O 2143.16 -6.7751 3.72168 0
M  V30 13186 C 2142.22 -7.20825 2.7076 0
M  V30 13187 C 2142.95 -7.45864 1.40599 0
M  V30 13188 O 2143.16 -6.17651 0.734225 0
M  V30 13189 C 2144.35 -8.05808 1.51899 0
M  V30 13190 O 2144.74 -8.74358 0.335205 0
M  V30 13191 C 2145.23 -6.83093 1.70294 0
M  V30 13192 C 2144.52 -5.79992 0.836974 0
M  V30 13193 N 2144.57 -4.41864 1.38293 0
M  V30 13194 H 2141.73 -8.13644 3.0377 0
M  V30 13195 H 2141.46 -6.42788 2.55485 0
M  V30 13196 H 2142.33 -8.12039 0.792769 0
M  V30 13197 P 2146.29 -8.91 3.95487e-11 0
M  V30 13198 O 2146.51 -10.1726 -0.733694 0
M  V30 13199 O 2147.08 -8.73148 1.23936 0
M  V30 13200 O 2146.54 -7.66872 -0.971405 0
M  V30 13201 C 2145.6 -7.42309 -2.04641 0
M  V30 13202 C 2146.33 -6.86059 -3.24661 0
M  V30 13203 O 2146.54 -5.42847 -3.03646 0
M  V30 13204 C 2147.73 -7.41196 -3.50753 0
M  V30 13205 O 2148.12 -7.27073 -4.86816 0
M  V30 13206 C 2148.61 -6.5273 -2.63741 0
M  V30 13207 C 2147.9 -5.1842 -2.73198 0
M  V30 13208 N 2147.95 -4.38762 -1.4784 0
M  V30 13209 H 2145.11 -8.36803 -2.32493 0
M  V30 13210 H 2144.84 -6.70197 -1.71129 0
M  V30 13211 H 2145.71 -7.03551 -4.13168 0
M  V30 13212 P 2149.67 -7.20834 -5.23717 0
M  V30 13213 O 2149.89 -7.79853 -6.57286 0
M  V30 13214 O 2150.46 -7.79239 -4.12957 0
M  V30 13215 O 2149.92 -5.63315 -5.29344 0
M  V30 13216 C 2148.98 -4.80255 -6.01876 0
M  V30 13217 C 2149.71 -3.64202 -6.65911 0
M  V30 13218 O 2149.92 -2.60694 -5.64732 0
M  V30 13219 C 2151.11 -3.93473 -7.1943 0
M  V30 13220 O 2151.5 -3.02071 -8.21205 0
M  V30 13221 C 2151.99 -3.73047 -5.97036 0
M  V30 13222 C 2151.28 -2.58828 -5.25741 0
M  V30 13223 N 2151.33 -2.68068 -3.77503 0
M  V30 13224 H 2148.49 -5.40332 -6.79951 0
M  V30 13225 H 2148.22 -4.41613 -5.32378 0
M  V30 13226 H 2149.09 -3.26331 -7.47797 0
M  V30 13227 P 2153.05 -2.75334 -8.47391 0
M  V30 13228 O 2153.27 -2.44571 -9.90142 0
M  V30 13229 O 2153.84 -3.87688 -7.92115 0
M  V30 13230 O 2153.3 -1.4459 -7.59357 0
M  V30 13231 C 2152.36 -0.347608 -7.69215 0
M  V30 13232 C 2153.09 0.96767 -7.52806 0
M  V30 13233 O 2153.3 1.21036 -6.1011 0
M  V30 13234 C 2154.49 1.04544 -8.13308 0
M  V30 13235 O 2154.88 2.38311 -8.41922 0
M  V30 13236 C 2155.37 0.491279 -7.02284 0
M  V30 13237 C 2154.66 0.996264 -5.77469 0
M  V30 13238 N 2154.71 0.0501916 -4.62973 0
M  V30 13239 H 2151.87 -0.374722 -8.67691 0
M  V30 13240 H 2151.6 -0.443485 -6.90277 0
M  V30 13241 H 2152.47 1.75537 -7.96793 0
M  V30 13242 P 2156.43 2.75334 -8.47391 0
M  V30 13243 O 2156.65 3.84128 -9.44797 0
M  V30 13244 O 2157.22 1.51947 -8.68712 0
M  V30 13245 O 2156.68 3.29363 -6.99321 0
M  V30 13246 C 2155.74 4.24011 -6.4274 0
M  V30 13247 C 2156.47 5.20775 -5.52155 0
M  V30 13248 O 2156.68 4.56534 -4.22446 0
M  V30 13249 C 2157.87 5.62629 -5.96531 0
M  V30 13250 O 2158.26 6.87667 -5.41053 0
M  V30 13251 C 2158.75 4.52537 -5.39283 0
M  V30 13252 C 2158.04 4.20027 -4.08623 0
M  V30 13253 N 2158.09 2.76189 -3.71603 0
M  V30 13254 H 2155.25 4.797 -7.24003 0
M  V30 13255 H 2154.98 3.69856 -5.84513 0
M  V30 13256 H 2155.85 6.10356 -5.41441 0
M  V30 13257 P 2159.81 7.20834 -5.23717 0
M  V30 13258 O 2160.03 8.66189 -5.38625 0
M  V30 13259 O 2160.6 6.33615 -6.1356 0
M  V30 13260 O 2160.06 6.7751 -3.72168 0
M  V30 13261 C 2159.12 7.20732 -2.70725 0
M  V30 13262 C 2159.85 7.45864 -1.40599 0
M  V30 13263 O 2160.06 6.17651 -0.734225 0
M  V30 13264 C 2161.25 8.05808 -1.51899 0
M  V30 13265 O 2161.64 8.74358 -0.335205 0
M  V30 13266 C 2162.13 6.83093 -1.70294 0
M  V30 13267 C 2161.42 5.79992 -0.836974 0
M  V30 13268 N 2161.47 4.41769 -1.38263 0
M  V30 13269 C 2161.62 3.38591 -0.481702 0
M  V30 13270 O 2161.71 3.56839 0.718452 0
M  V30 13271 N 2161.66 2.1206 -1.03569 0
M  V30 13272 C 2161.57 1.80696 -2.36966 0
M  V30 13273 O 2161.62 0.630473 -2.74862 0
M  V30 13274 C 2161.42 2.94845 -3.23898 0
M  V30 13275 C 2161.31 2.65253 -4.70362 0
M  V30 13276 C 2161.37 4.19803 -2.73435 0
M  V30 13277 H 2158.63 8.13644 -3.0377 0
M  V30 13278 H 2158.36 6.42695 -2.55448 0
M  V30 13279 H 2159.23 8.12039 -0.792769 0
M  V30 13280 H 2161.88 5.79978 0.160587 0
M  V30 13281 H 2162.16 6.51379 -2.75643 0
M  V30 13282 H 2163.15 7.01734 -1.34462 0
M  V30 13283 H 2161.32 8.73674 -2.38337 0
M  V30 13284 H 2161.25 5.04492 -3.4095 0
M  V30 13285 H 2162.28 2.83924 -5.1913 0
M  V30 13286 H 2160.54 3.29824 -5.15163 0
M  V30 13287 H 2161.03 1.59723 -4.84449 0
M  V30 13288 H 2161.76 1.35644 -0.399345 0
M  V30 13289 P 2163.19 8.91 -4.06577e-11 0
M  V30 13290 O 2163.41 10.1726 0.733694 0
M  V30 13291 O 2163.98 8.73148 -1.23936 0
M  V30 13292 O 2163.44 7.66872 0.971405 0
M  V30 13293 C 2162.5 7.42309 2.04641 0
M  V30 13294 C 2163.23 6.86059 3.24661 0
M  V30 13295 O 2163.44 5.42847 3.03646 0
M  V30 13296 C 2164.63 7.41196 3.50753 0
M  V30 13297 O 2165.02 7.27073 4.86816 0
M  V30 13298 C 2165.51 6.5273 2.63741 0
M  V30 13299 C 2164.8 5.1842 2.73198 0
M  V30 13300 N 2164.85 4.38762 1.4784 0
M  V30 13301 H 2162.01 8.36803 2.32493 0
M  V30 13302 H 2161.74 6.70197 1.71129 0
M  V30 13303 H 2162.61 7.03551 4.13168 0
M  V30 13304 P 2166.57 7.20834 5.23717 0
M  V30 13305 O 2166.79 7.79853 6.57286 0
M  V30 13306 O 2167.36 7.79239 4.12957 0
M  V30 13307 O 2166.82 5.63315 5.29344 0
M  V30 13308 C 2165.88 4.80255 6.01876 0
M  V30 13309 C 2166.61 3.64202 6.65911 0
M  V30 13310 O 2166.82 2.60694 5.64732 0
M  V30 13311 C 2168.01 3.93473 7.1943 0
M  V30 13312 O 2168.4 3.02071 8.21205 0
M  V30 13313 C 2168.89 3.73047 5.97036 0
M  V30 13314 C 2168.18 2.58828 5.25741 0
M  V30 13315 N 2168.23 2.68068 3.77503 0
M  V30 13316 C 2168.15 3.79715 2.96723 0
M  V30 13317 N 2168.23 3.5377 1.68852 0
M  V30 13318 C 2168.37 2.15054 1.63254 0
M  V30 13319 C 2168.5 1.28964 0.518571 0
M  V30 13320 O 2168.52 1.56826 -0.679156 0
M  V30 13321 N 2168.62 -0.0538097 0.918425 0
M  V30 13322 C 2168.62 -0.494275 2.22578 0
M  V30 13323 N 2168.75 -1.81086 2.40434 0
M  V30 13324 N 2168.49 0.313645 3.27502 0
M  V30 13325 C 2168.37 1.61829 2.91033 0
M  V30 13326 H 2165.39 5.40332 6.79951 0
M  V30 13327 H 2165.12 4.41613 5.32378 0
M  V30 13328 H 2165.99 3.26331 7.47797 0
M  V30 13329 H 2168.64 1.63422 5.56814 0
M  V30 13330 H 2168.92 4.63374 5.34244 0
M  V30 13331 H 2169.91 3.44728 6.25838 0
M  V30 13332 H 2168.08 4.96652 7.57263 0
M  V30 13333 H 2168.03 4.80617 3.3614 0
M  V30 13334 H 2168.71 -0.742702 0.199384 0
M  V30 13335 H 2168.75 -2.20598 3.35588 0
M  V30 13336 H 2168.85 -2.43518 1.58945 0
M  V30 13337 P 2169.95 2.75334 8.47391 0
M  V30 13338 O 2170.17 2.44571 9.90142 0
M  V30 13339 O 2170.74 3.87688 7.92115 0
M  V30 13340 O 2170.2 1.4459 7.59357 0
M  V30 13341 C 2169.26 0.347608 7.69215 0
M  V30 13342 C 2169.99 -0.96767 7.52806 0
M  V30 13343 O 2170.2 -1.21036 6.1011 0
M  V30 13344 C 2171.39 -1.04544 8.13308 0
M  V30 13345 O 2171.78 -2.38311 8.41922 0
M  V30 13346 C 2172.27 -0.491279 7.02284 0
M  V30 13347 C 2171.56 -0.996264 5.77469 0
M  V30 13348 N 2171.61 -0.0501916 4.62973 0
M  V30 13349 C 2171.53 1.32786 4.63244 0
M  V30 13350 N 2171.61 1.86957 3.44545 0
M  V30 13351 C 2171.75 0.780241 2.58481 0
M  V30 13352 C 2171.88 0.738536 1.17757 0
M  V30 13353 N 2172 -0.58337 0.711393 0
M  V30 13354 C 2172 -1.70816 1.51017 0
M  V30 13355 N 2172.13 -2.87826 0.880757 0
M  V30 13356 N 2171.87 -1.67126 2.8339 0
M  V30 13357 C 2171.75 -0.401421 3.30572 0
M  V30 13358 H 2168.77 0.374722 8.67691 0
M  V30 13359 H 2168.5 0.443485 6.90277 0
M  V30 13360 H 2169.37 -1.75537 7.96793 0
M  V30 13361 P 2173.33 -2.75334 8.47391 0
M  V30 13362 O 2173.55 -3.84128 9.44797 0
M  V30 13363 O 2174.12 -1.51947 8.68712 0
M  V30 13364 O 2173.58 -3.29363 6.99321 0
M  V30 13365 C 2172.64 -4.24011 6.4274 0
M  V30 13366 C 2173.37 -5.20775 5.52155 0
M  V30 13367 O 2173.58 -4.56534 4.22446 0
M  V30 13368 C 2174.77 -5.62629 5.96531 0
M  V30 13369 O 2175.16 -6.87667 5.41053 0
M  V30 13370 C 2175.65 -4.52537 5.39283 0
M  V30 13371 C 2174.94 -4.20027 4.08623 0
M  V30 13372 N 2174.99 -2.76189 3.71603 0
M  V30 13373 H 2172.15 -4.797 7.24003 0
M  V30 13374 H 2171.88 -3.69856 5.84513 0
M  V30 13375 H 2172.75 -6.10356 5.41441 0
M  V30 13376 P 2176.71 -7.20834 5.23717 0
M  V30 13377 O 2176.93 -8.66104 5.38572 0
M  V30 13378 O 2177.5 -6.33544 6.1349 0
M  V30 13379 O 2176.96 -6.7751 3.72168 0
M  V30 13380 C 2176.02 -7.20825 2.7076 0
M  V30 13381 C 2176.75 -7.45864 1.40599 0
M  V30 13382 O 2176.96 -6.17651 0.734225 0
M  V30 13383 C 2178.15 -8.05808 1.51899 0
M  V30 13384 O 2178.54 -8.74358 0.335205 0
M  V30 13385 C 2179.03 -6.83093 1.70294 0
M  V30 13386 C 2178.32 -5.79992 0.836974 0
M  V30 13387 N 2178.37 -4.41864 1.38293 0
M  V30 13388 C 2178.29 -3.99538 2.69438 0
M  V30 13389 N 2178.37 -2.69909 2.84277 0
M  V30 13390 C 2178.51 -2.21719 1.5408 0
M  V30 13391 C 2178.64 -0.891712 1.06628 0
M  V30 13392 N 2178.76 -0.856846 -0.334985 0
M  V30 13393 C 2178.76 -1.9641 -1.15789 0
M  V30 13394 N 2178.89 -1.72708 -2.46522 0
M  V30 13395 N 2178.63 -3.21165 -0.713741 0
M  V30 13396 C 2178.51 -3.26797 0.639748 0
M  V30 13397 H 2175.53 -8.13644 3.0377 0
M  V30 13398 H 2175.26 -6.42788 2.55485 0
M  V30 13399 H 2176.13 -8.12039 0.792769 0
M  V30 13400 P 2180.09 -8.91 4.17667e-11 0
M  V30 13401 O 2180.31 -10.1726 -0.733694 0
M  V30 13402 O 2180.88 -8.73148 1.23936 0
M  V30 13403 O 2180.34 -7.66872 -0.971405 0
M  V30 13404 C 2179.4 -7.42309 -2.04641 0
M  V30 13405 C 2180.13 -6.86059 -3.24661 0
M  V30 13406 O 2180.34 -5.42847 -3.03646 0
M  V30 13407 C 2181.53 -7.41196 -3.50753 0
M  V30 13408 O 2181.92 -7.27073 -4.86816 0
M  V30 13409 C 2182.41 -6.5273 -2.63741 0
M  V30 13410 C 2181.7 -5.1842 -2.73198 0
M  V30 13411 N 2181.75 -4.38762 -1.4784 0
M  V30 13412 C 2181.67 -4.81605 -0.168631 0
M  V30 13413 N 2181.75 -3.85454 0.713363 0
M  V30 13414 C 2181.89 -2.6994 -0.0566958 0
M  V30 13415 C 2182.02 -1.34815 0.338502 0
M  V30 13416 O 2182.04 -0.869548 1.47125 0
M  V30 13417 N 2182.14 -0.496304 -0.77465 0
M  V30 13418 C 2182.14 -0.908403 -2.09122 0
M  V30 13419 N 2182.27 0.0517805 -3.00955 0
M  V30 13420 N 2182.01 -2.17875 -2.46519 0
M  V30 13421 C 2181.89 -3.01988 -1.4033 0
M  V30 13422 H 2178.91 -8.36803 -2.32493 0
M  V30 13423 H 2178.64 -6.70197 -1.71129 0
M  V30 13424 H 2179.51 -7.03551 -4.13168 0
M  V30 13425 H 2182.16 -4.59498 -3.54415 0
M  V30 13426 H 2182.44 -6.88898 -1.59848 0
M  V30 13427 H 2183.43 -6.46749 -3.03687 0
M  V30 13428 H 2181.6 -8.46908 -3.20714 0
M  V30 13429 H 2181.55 -5.86405 0.105564 0
M  V30 13430 H 2182.23 0.483664 -0.597855 0
M  V30 13431 H 2182.27 -0.187865 -4.0116 0
M  V30 13432 H 2182.37 1.03585 -2.71726 0
M  V30 13433 P 2183.47 -7.20834 -5.23717 0
M  V30 13434 O 2183.69 -7.79853 -6.57286 0
M  V30 13435 O 2184.26 -7.79239 -4.12957 0
M  V30 13436 O 2183.72 -5.63315 -5.29344 0
M  V30 13437 C 2182.78 -4.80255 -6.01876 0
M  V30 13438 C 2183.51 -3.64202 -6.65911 0
M  V30 13439 O 2183.72 -2.60694 -5.64732 0
M  V30 13440 C 2184.91 -3.93473 -7.1943 0
M  V30 13441 O 2185.3 -3.02071 -8.21205 0
M  V30 13442 C 2185.79 -3.73047 -5.97036 0
M  V30 13443 C 2185.08 -2.58828 -5.25741 0
M  V30 13444 N 2185.13 -2.68068 -3.77503 0
M  V30 13445 H 2182.29 -5.40332 -6.79951 0
M  V30 13446 H 2182.02 -4.41613 -5.32378 0
M  V30 13447 H 2182.89 -3.26331 -7.47797 0
M  V30 13448 P 2186.85 -2.75334 -8.47391 0
M  V30 13449 O 2187.07 -2.44571 -9.90142 0
M  V30 13450 O 2187.64 -3.87688 -7.92115 0
M  V30 13451 O 2187.1 -1.4459 -7.59357 0
M  V30 13452 C 2186.16 -0.347608 -7.69215 0
M  V30 13453 C 2186.89 0.96767 -7.52806 0
M  V30 13454 O 2187.1 1.21036 -6.1011 0
M  V30 13455 C 2188.29 1.04544 -8.13308 0
M  V30 13456 O 2188.68 2.38311 -8.41922 0
M  V30 13457 C 2189.17 0.491279 -7.02284 0
M  V30 13458 C 2188.46 0.996264 -5.77469 0
M  V30 13459 N 2188.51 0.0501916 -4.62973 0
M  V30 13460 H 2185.67 -0.374722 -8.67691 0
M  V30 13461 H 2185.4 -0.443485 -6.90277 0
M  V30 13462 H 2186.27 1.75537 -7.96793 0
M  V30 13463 P 2190.23 2.75334 -8.47391 0
M  V30 13464 O 2190.45 3.84128 -9.44797 0
M  V30 13465 O 2191.02 1.51947 -8.68712 0
M  V30 13466 O 2190.48 3.29363 -6.99321 0
M  V30 13467 C 2189.54 4.24011 -6.4274 0
M  V30 13468 C 2190.27 5.20775 -5.52155 0
M  V30 13469 O 2190.48 4.56534 -4.22446 0
M  V30 13470 C 2191.67 5.62629 -5.96531 0
M  V30 13471 O 2192.06 6.87667 -5.41053 0
M  V30 13472 C 2192.55 4.52537 -5.39283 0
M  V30 13473 C 2191.84 4.20027 -4.08623 0
M  V30 13474 N 2191.89 2.76189 -3.71603 0
M  V30 13475 H 2189.05 4.797 -7.24003 0
M  V30 13476 H 2188.78 3.69856 -5.84513 0
M  V30 13477 H 2189.65 6.10356 -5.41441 0
M  V30 13478 P 2193.61 7.20834 -5.23717 0
M  V30 13479 O 2193.83 8.66104 -5.38572 0
M  V30 13480 O 2194.4 6.33544 -6.1349 0
M  V30 13481 O 2193.86 6.7751 -3.72168 0
M  V30 13482 C 2192.92 7.20825 -2.7076 0
M  V30 13483 C 2193.65 7.45864 -1.40599 0
M  V30 13484 O 2193.86 6.17651 -0.734225 0
M  V30 13485 C 2195.05 8.05808 -1.51899 0
M  V30 13486 O 2195.44 8.74358 -0.335205 0
M  V30 13487 C 2195.93 6.83093 -1.70294 0
M  V30 13488 C 2195.22 5.79992 -0.836974 0
M  V30 13489 N 2195.27 4.41864 -1.38293 0
M  V30 13490 H 2192.43 8.13644 -3.0377 0
M  V30 13491 H 2192.16 6.42788 -2.55485 0
M  V30 13492 H 2193.03 8.12039 -0.792769 0
M  V30 13493 P 2196.99 8.91 -4.28757e-11 0
M  V30 13494 O 2197.21 10.1746 0.733838 0
M  V30 13495 O 2197.78 8.73346 -1.23964 0
M  V30 13496 O 2197.24 7.66872 0.971405 0
M  V30 13497 C 2196.3 7.42405 2.04668 0
M  V30 13498 C 2197.03 6.86059 3.24661 0
M  V30 13499 O 2197.24 5.42934 3.03695 0
M  V30 13500 C 2198.43 7.41287 3.50796 0
M  V30 13501 O 2198.82 7.27073 4.86816 0
M  V30 13502 C 2199.31 6.5273 2.63741 0
M  V30 13503 C 2198.6 5.1842 2.73198 0
M  V30 13504 N 2198.65 4.38762 1.4784 0
M  V30 13505 C 2198.57 4.83651 0.183876 0
M  V30 13506 N 2198.64 3.88759 -0.699393 0
M  V30 13507 C 2198.79 2.7404 0.0575568 0
M  V30 13508 C 2198.92 1.37902 -0.293928 0
M  V30 13509 N 2198.93 0.938021 -1.54797 0
M  V30 13510 N 2199.04 0.491817 0.70549 0
M  V30 13511 C 2199.03 0.931735 1.95979 0
M  V30 13512 N 2198.91 2.16017 2.41481 0
M  V30 13513 C 2198.79 3.02547 1.39121 0
M  V30 13514 H 2195.81 8.36899 2.3252 0
M  V30 13515 H 2195.54 6.70391 1.71179 0
M  V30 13516 H 2196.4 7.03638 4.13219 0
M  V30 13517 H 2199.06 4.59931 3.54016 0
M  V30 13518 H 2199.34 6.88995 1.59871 0
M  V30 13519 H 2200.33 6.4684 3.0373 0
M  V30 13520 H 2198.5 8.47002 3.20749 0
M  V30 13521 H 2198.46 5.8885 -0.0765548 0
M  V30 13522 H 2198.84 1.60276 -2.32875 0
M  V30 13523 H 2199.03 -0.0699355 -1.73859 0
M  V30 13524 H 2199.13 0.165507 2.71897 0
M  V30 13525 P 2200.37 7.20834 5.23717 0
M  V30 13526 O 2200.59 7.79853 6.57286 0
M  V30 13527 O 2201.16 7.79239 4.12957 0
M  V30 13528 O 2200.62 5.63315 5.29344 0
M  V30 13529 C 2199.68 4.80255 6.01876 0
M  V30 13530 C 2200.41 3.64202 6.65911 0
M  V30 13531 O 2200.62 2.60694 5.64732 0
M  V30 13532 C 2201.81 3.93473 7.1943 0
M  V30 13533 O 2202.2 3.02071 8.21205 0
M  V30 13534 C 2202.69 3.73047 5.97036 0
M  V30 13535 C 2201.98 2.58828 5.25741 0
M  V30 13536 N 2202.03 2.68068 3.77503 0
M  V30 13537 H 2199.19 5.40332 6.79951 0
M  V30 13538 H 2198.92 4.41613 5.32378 0
M  V30 13539 H 2199.78 3.26331 7.47797 0
M  V30 13540 P 2203.75 2.75334 8.47391 0
M  V30 13541 O 2203.97 2.44571 9.90142 0
M  V30 13542 O 2204.54 3.87688 7.92115 0
M  V30 13543 O 2204 1.4459 7.59357 0
M  V30 13544 C 2203.06 0.347608 7.69215 0
M  V30 13545 C 2203.79 -0.96767 7.52806 0
M  V30 13546 O 2204 -1.21036 6.1011 0
M  V30 13547 C 2205.19 -1.04544 8.13308 0
M  V30 13548 O 2205.58 -2.38311 8.41922 0
M  V30 13549 C 2206.07 -0.491279 7.02284 0
M  V30 13550 C 2205.36 -0.996264 5.77469 0
M  V30 13551 N 2205.41 -0.0501916 4.62973 0
M  V30 13552 H 2202.57 0.374722 8.67691 0
M  V30 13553 H 2202.3 0.443485 6.90277 0
M  V30 13554 H 2203.16 -1.75537 7.96793 0
M  V30 13555 P 2207.13 -2.75334 8.47391 0
M  V30 13556 O 2207.35 -3.84128 9.44797 0
M  V30 13557 O 2207.92 -1.51947 8.68712 0
M  V30 13558 O 2207.38 -3.29363 6.99321 0
M  V30 13559 C 2206.44 -4.24011 6.4274 0
M  V30 13560 C 2207.17 -5.20775 5.52155 0
M  V30 13561 O 2207.38 -4.56534 4.22446 0
M  V30 13562 C 2208.57 -5.62629 5.96531 0
M  V30 13563 O 2208.96 -6.87667 5.41053 0
M  V30 13564 C 2209.45 -4.52537 5.39283 0
M  V30 13565 C 2208.74 -4.20027 4.08623 0
M  V30 13566 N 2208.79 -2.76189 3.71603 0
M  V30 13567 C 2208.71 -1.64862 4.52822 0
M  V30 13568 N 2208.79 -0.512671 3.88633 0
M  V30 13569 C 2208.93 -0.888083 2.54977 0
M  V30 13570 C 2209.06 -0.094668 1.38677 0
M  V30 13571 N 2209.18 -0.890102 0.232633 0
M  V30 13572 C 2209.18 -2.26958 0.21772 0
M  V30 13573 N 2209.31 -2.84626 -0.97925 0
M  V30 13574 N 2209.05 -3.0178 1.31033 0
M  V30 13575 C 2208.93 -2.26781 2.43843 0
M  V30 13576 H 2205.95 -4.797 7.24003 0
M  V30 13577 H 2205.68 -3.69856 5.84513 0
M  V30 13578 H 2206.54 -6.10356 5.41441 0
M  V30 13579 P 2210.51 -7.20834 5.23717 0
M  V30 13580 O 2210.73 -8.66104 5.38572 0
M  V30 13581 O 2211.3 -6.33544 6.1349 0
M  V30 13582 O 2210.76 -6.7751 3.72168 0
M  V30 13583 C 2209.82 -7.20825 2.7076 0
M  V30 13584 C 2210.55 -7.45864 1.40599 0
M  V30 13585 O 2210.76 -6.17651 0.734225 0
M  V30 13586 C 2211.95 -8.05808 1.51899 0
M  V30 13587 O 2212.34 -8.74358 0.335205 0
M  V30 13588 C 2212.83 -6.83093 1.70294 0
M  V30 13589 C 2212.12 -5.79992 0.836974 0
M  V30 13590 N 2212.17 -4.41864 1.38293 0
M  V30 13591 H 2209.33 -8.13644 3.0377 0
M  V30 13592 H 2209.06 -6.42788 2.55485 0
M  V30 13593 H 2209.92 -8.12039 0.792769 0
M  V30 13594 P 2213.89 -8.91 4.39847e-11 0
M  V30 13595 O 2214.11 -10.1746 -0.733838 0
M  V30 13596 O 2214.68 -8.73346 1.23964 0
M  V30 13597 O 2214.14 -7.66872 -0.971405 0
M  V30 13598 C 2213.2 -7.42405 -2.04668 0
M  V30 13599 C 2213.93 -6.86059 -3.24661 0
M  V30 13600 O 2214.14 -5.42934 -3.03695 0
M  V30 13601 C 2215.33 -7.41287 -3.50796 0
M  V30 13602 O 2215.72 -7.27073 -4.86816 0
M  V30 13603 C 2216.21 -6.5273 -2.63741 0
M  V30 13604 C 2215.5 -5.1842 -2.73198 0
M  V30 13605 N 2215.55 -4.38762 -1.4784 0
M  V30 13606 C 2215.47 -4.83651 -0.183876 0
M  V30 13607 N 2215.54 -3.88759 0.699393 0
M  V30 13608 C 2215.69 -2.7404 -0.0575568 0
M  V30 13609 C 2215.82 -1.37902 0.293928 0
M  V30 13610 N 2215.83 -0.938021 1.54797 0
M  V30 13611 N 2215.94 -0.491817 -0.70549 0
M  V30 13612 C 2215.93 -0.931735 -1.95979 0
M  V30 13613 N 2215.81 -2.16017 -2.41481 0
M  V30 13614 C 2215.69 -3.02547 -1.39121 0
M  V30 13615 H 2212.71 -8.36899 -2.3252 0
M  V30 13616 H 2212.44 -6.70391 -1.71179 0
M  V30 13617 H 2213.3 -7.03638 -4.13219 0
M  V30 13618 H 2215.96 -4.59931 -3.54016 0
M  V30 13619 H 2216.24 -6.88995 -1.59871 0
M  V30 13620 H 2217.23 -6.4684 -3.0373 0
M  V30 13621 H 2215.4 -8.47002 -3.20749 0
M  V30 13622 H 2215.36 -5.8885 0.0765548 0
M  V30 13623 H 2215.74 -1.60276 2.32875 0
M  V30 13624 H 2215.93 0.0699355 1.73859 0
M  V30 13625 H 2216.03 -0.165507 -2.71897 0
M  V30 13626 P 2217.27 -7.20834 -5.23717 0
M  V30 13627 O 2217.49 -7.79853 -6.57286 0
M  V30 13628 O 2218.06 -7.79239 -4.12957 0
M  V30 13629 O 2217.52 -5.63315 -5.29344 0
M  V30 13630 C 2216.58 -4.80255 -6.01876 0
M  V30 13631 C 2217.31 -3.64202 -6.65911 0
M  V30 13632 O 2217.52 -2.60694 -5.64732 0
M  V30 13633 C 2218.71 -3.93473 -7.1943 0
M  V30 13634 O 2219.1 -3.02071 -8.21205 0
M  V30 13635 C 2219.59 -3.73047 -5.97036 0
M  V30 13636 C 2218.88 -2.58828 -5.25741 0
M  V30 13637 N 2218.93 -2.68068 -3.77503 0
M  V30 13638 H 2216.09 -5.40332 -6.79951 0
M  V30 13639 H 2215.82 -4.41613 -5.32378 0
M  V30 13640 H 2216.68 -3.26331 -7.47797 0
M  V30 13641 P 2220.65 -2.75334 -8.47391 0
M  V30 13642 O 2220.87 -2.44571 -9.90142 0
M  V30 13643 O 2221.44 -3.87688 -7.92115 0
M  V30 13644 O 2220.9 -1.4459 -7.59357 0
M  V30 13645 C 2219.96 -0.347608 -7.69215 0
M  V30 13646 C 2220.69 0.96767 -7.52806 0
M  V30 13647 O 2220.9 1.21036 -6.1011 0
M  V30 13648 C 2222.09 1.04544 -8.13308 0
M  V30 13649 O 2222.48 2.38311 -8.41922 0
M  V30 13650 C 2222.97 0.491279 -7.02284 0
M  V30 13651 C 2222.26 0.996264 -5.77469 0
M  V30 13652 N 2222.31 0.0501916 -4.62973 0
M  V30 13653 H 2219.47 -0.374722 -8.67691 0
M  V30 13654 H 2219.2 -0.443485 -6.90277 0
M  V30 13655 H 2220.06 1.75537 -7.96793 0
M  V30 13656 P 2224.03 2.75334 -8.47391 0
M  V30 13657 O 2224.25 3.84128 -9.44797 0
M  V30 13658 O 2224.82 1.51947 -8.68712 0
M  V30 13659 O 2224.28 3.29363 -6.99321 0
M  V30 13660 C 2223.34 4.24011 -6.4274 0
M  V30 13661 C 2224.07 5.20775 -5.52155 0
M  V30 13662 O 2224.28 4.56534 -4.22446 0
M  V30 13663 C 2225.47 5.62629 -5.96531 0
M  V30 13664 O 2225.86 6.87667 -5.41053 0
M  V30 13665 C 2226.35 4.52537 -5.39283 0
M  V30 13666 C 2225.64 4.20027 -4.08623 0
M  V30 13667 N 2225.69 2.76189 -3.71603 0
M  V30 13668 C 2225.61 1.64862 -4.52822 0
M  V30 13669 N 2225.69 0.512671 -3.88633 0
M  V30 13670 C 2225.83 0.888083 -2.54977 0
M  V30 13671 C 2225.96 0.094668 -1.38677 0
M  V30 13672 N 2226.08 0.890102 -0.232633 0
M  V30 13673 C 2226.08 2.26958 -0.21772 0
M  V30 13674 N 2226.21 2.84626 0.97925 0
M  V30 13675 N 2225.95 3.0178 -1.31033 0
M  V30 13676 C 2225.83 2.26781 -2.43843 0
M  V30 13677 H 2222.85 4.797 -7.24003 0
M  V30 13678 H 2222.58 3.69856 -5.84513 0
M  V30 13679 H 2223.44 6.10356 -5.41441 0
M  V30 13680 P 2227.41 7.20834 -5.23717 0
M  V30 13681 O 2227.63 8.66104 -5.38572 0
M  V30 13682 O 2228.2 6.33544 -6.1349 0
M  V30 13683 O 2227.66 6.7751 -3.72168 0
M  V30 13684 C 2226.72 7.20825 -2.7076 0
M  V30 13685 C 2227.45 7.45864 -1.40599 0
M  V30 13686 O 2227.66 6.17651 -0.734225 0
M  V30 13687 C 2228.85 8.05808 -1.51899 0
M  V30 13688 O 2229.24 8.74358 -0.335205 0
M  V30 13689 C 2229.73 6.83093 -1.70294 0
M  V30 13690 C 2229.02 5.79992 -0.836974 0
M  V30 13691 N 2229.07 4.41864 -1.38293 0
M  V30 13692 C 2228.99 3.99538 -2.69438 0
M  V30 13693 N 2229.07 2.69909 -2.84277 0
M  V30 13694 C 2229.21 2.21719 -1.5408 0
M  V30 13695 C 2229.34 0.891712 -1.06628 0
M  V30 13696 O 2229.36 -0.161298 -1.70137 0
M  V30 13697 N 2229.46 0.856846 0.334985 0
M  V30 13698 C 2229.46 1.9641 1.15789 0
M  V30 13699 N 2229.59 1.72708 2.46522 0
M  V30 13700 N 2229.33 3.21165 0.713741 0
M  V30 13701 C 2229.21 3.26797 -0.639748 0
M  V30 13702 H 2226.23 8.13644 -3.0377 0
M  V30 13703 H 2225.96 6.42788 -2.55485 0
M  V30 13704 H 2226.82 8.12039 -0.792769 0
M  V30 13705 H 2229.48 5.80061 0.166416 0
M  V30 13706 H 2229.76 6.51287 -2.75604 0
M  V30 13707 H 2230.75 7.01734 -1.34462 0
M  V30 13708 H 2228.92 8.73674 -2.38337 0
M  V30 13709 H 2228.87 4.68207 -3.53221 0
M  V30 13710 H 2229.55 -0.0398818 0.767965 0
M  V30 13711 H 2229.59 2.50995 3.13503 0
M  V30 13712 H 2229.69 0.759148 2.80716 0
M  V30 13713 P 2230.79 8.91 -4.50937e-11 0
M  V30 13714 O 2231.01 10.1726 0.733694 0
M  V30 13715 O 2231.58 8.73148 -1.23936 0
M  V30 13716 O 2231.04 7.66872 0.971405 0
M  V30 13717 C 2230.1 7.42309 2.04641 0
M  V30 13718 C 2230.83 6.86059 3.24661 0
M  V30 13719 O 2231.04 5.42847 3.03646 0
M  V30 13720 C 2232.23 7.41196 3.50753 0
M  V30 13721 O 2232.62 7.27073 4.86816 0
M  V30 13722 C 2233.11 6.5273 2.63741 0
M  V30 13723 C 2232.4 5.1842 2.73198 0
M  V30 13724 N 2232.45 4.38762 1.4784 0
M  V30 13725 H 2229.61 8.36803 2.32493 0
M  V30 13726 H 2229.34 6.70197 1.71129 0
M  V30 13727 H 2230.2 7.03551 4.13168 0
M  V30 13728 P 2234.17 7.20834 5.23717 0
M  V30 13729 O 2234.39 7.79853 6.57286 0
M  V30 13730 O 2234.96 7.79239 4.12957 0
M  V30 13731 O 2234.42 5.63315 5.29344 0
M  V30 13732 C 2233.48 4.80255 6.01876 0
M  V30 13733 C 2234.21 3.64202 6.65911 0
M  V30 13734 O 2234.42 2.60694 5.64732 0
M  V30 13735 C 2235.61 3.93473 7.1943 0
M  V30 13736 O 2236 3.02071 8.21205 0
M  V30 13737 C 2236.49 3.73047 5.97036 0
M  V30 13738 C 2235.78 2.58828 5.25741 0
M  V30 13739 N 2235.83 2.68068 3.77503 0
M  V30 13740 C 2235.75 3.79715 2.96723 0
M  V30 13741 N 2235.83 3.5377 1.68852 0
M  V30 13742 C 2235.97 2.15054 1.63254 0
M  V30 13743 C 2236.1 1.28964 0.518571 0
M  V30 13744 O 2236.12 1.56826 -0.679156 0
M  V30 13745 N 2236.22 -0.0538097 0.918425 0
M  V30 13746 C 2236.22 -0.494275 2.22578 0
M  V30 13747 N 2236.35 -1.81086 2.40434 0
M  V30 13748 N 2236.09 0.313645 3.27502 0
M  V30 13749 C 2235.97 1.61829 2.91033 0
M  V30 13750 H 2232.99 5.40332 6.79951 0
M  V30 13751 H 2232.72 4.41613 5.32378 0
M  V30 13752 H 2233.58 3.26331 7.47797 0
M  V30 13753 H 2236.24 1.63422 5.56814 0
M  V30 13754 H 2236.52 4.63374 5.34244 0
M  V30 13755 H 2237.51 3.44728 6.25838 0
M  V30 13756 H 2235.68 4.96652 7.57263 0
M  V30 13757 H 2235.63 4.80617 3.3614 0
M  V30 13758 H 2236.31 -0.742702 0.199384 0
M  V30 13759 H 2236.35 -2.20598 3.35588 0
M  V30 13760 H 2236.45 -2.43518 1.58945 0
M  V30 13761 P 2237.55 2.75334 8.47391 0
M  V30 13762 O 2237.77 2.44571 9.90142 0
M  V30 13763 O 2238.34 3.87688 7.92115 0
M  V30 13764 O 2237.8 1.4459 7.59357 0
M  V30 13765 C 2236.86 0.347608 7.69215 0
M  V30 13766 C 2237.59 -0.96767 7.52806 0
M  V30 13767 O 2237.8 -1.21036 6.1011 0
M  V30 13768 C 2238.99 -1.04544 8.13308 0
M  V30 13769 O 2239.38 -2.38311 8.41922 0
M  V30 13770 C 2239.87 -0.491279 7.02284 0
M  V30 13771 C 2239.16 -0.996264 5.77469 0
M  V30 13772 N 2239.21 -0.0501916 4.62973 0
M  V30 13773 H 2236.37 0.374722 8.67691 0
M  V30 13774 H 2236.1 0.443485 6.90277 0
M  V30 13775 H 2236.96 -1.75537 7.96793 0
M  V30 13776 P 2240.93 -2.75334 8.47391 0
M  V30 13777 O 2241.15 -3.84128 9.44797 0
M  V30 13778 O 2241.72 -1.51947 8.68712 0
M  V30 13779 O 2241.18 -3.29363 6.99321 0
M  V30 13780 C 2240.24 -4.24011 6.4274 0
M  V30 13781 C 2240.97 -5.20775 5.52155 0
M  V30 13782 O 2241.18 -4.56534 4.22446 0
M  V30 13783 C 2242.37 -5.62629 5.96531 0
M  V30 13784 O 2242.76 -6.87667 5.41053 0
M  V30 13785 C 2243.25 -4.52537 5.39283 0
M  V30 13786 C 2242.54 -4.20027 4.08623 0
M  V30 13787 N 2242.59 -2.76189 3.71603 0
M  V30 13788 C 2242.51 -1.64862 4.52822 0
M  V30 13789 N 2242.59 -0.512671 3.88633 0
M  V30 13790 C 2242.73 -0.888083 2.54977 0
M  V30 13791 C 2242.86 -0.094668 1.38677 0
M  V30 13792 N 2242.98 -0.890102 0.232633 0
M  V30 13793 C 2242.98 -2.26958 0.21772 0
M  V30 13794 N 2243.11 -2.84626 -0.97925 0
M  V30 13795 N 2242.85 -3.0178 1.31033 0
M  V30 13796 C 2242.73 -2.26781 2.43843 0
M  V30 13797 H 2239.75 -4.797 7.24003 0
M  V30 13798 H 2239.48 -3.69856 5.84513 0
M  V30 13799 H 2240.34 -6.10356 5.41441 0
M  V30 13800 P 2244.31 -7.20834 5.23717 0
M  V30 13801 O 2244.53 -8.66104 5.38572 0
M  V30 13802 O 2245.1 -6.33544 6.1349 0
M  V30 13803 O 2244.56 -6.7751 3.72168 0
M  V30 13804 C 2243.62 -7.20825 2.7076 0
M  V30 13805 C 2244.35 -7.45864 1.40599 0
M  V30 13806 O 2244.56 -6.17651 0.734225 0
M  V30 13807 C 2245.75 -8.05808 1.51899 0
M  V30 13808 O 2246.14 -8.74358 0.335205 0
M  V30 13809 C 2246.63 -6.83093 1.70294 0
M  V30 13810 C 2245.92 -5.79992 0.836974 0
M  V30 13811 N 2245.97 -4.41864 1.38293 0
M  V30 13812 H 2243.13 -8.13644 3.0377 0
M  V30 13813 H 2242.86 -6.42788 2.55485 0
M  V30 13814 H 2243.72 -8.12039 0.792769 0
M  V30 13815 P 2247.69 -8.91 4.62027e-11 0
M  V30 13816 O 2247.91 -10.1726 -0.733694 0
M  V30 13817 O 2248.48 -8.73148 1.23936 0
M  V30 13818 O 2247.94 -7.66872 -0.971405 0
M  V30 13819 C 2247 -7.42309 -2.04641 0
M  V30 13820 C 2247.73 -6.86059 -3.24661 0
M  V30 13821 O 2247.94 -5.42847 -3.03646 0
M  V30 13822 C 2249.13 -7.41196 -3.50753 0
M  V30 13823 O 2249.52 -7.27073 -4.86816 0
M  V30 13824 C 2250.01 -6.5273 -2.63741 0
M  V30 13825 C 2249.3 -5.1842 -2.73198 0
M  V30 13826 N 2249.35 -4.38762 -1.4784 0
M  V30 13827 C 2249.27 -4.81605 -0.168631 0
M  V30 13828 N 2249.35 -3.85454 0.713363 0
M  V30 13829 C 2249.49 -2.6994 -0.0566958 0
M  V30 13830 C 2249.62 -1.34815 0.338502 0
M  V30 13831 O 2249.64 -0.869548 1.47125 0
M  V30 13832 N 2249.74 -0.496304 -0.77465 0
M  V30 13833 C 2249.74 -0.908403 -2.09122 0
M  V30 13834 N 2249.87 0.0517805 -3.00955 0
M  V30 13835 N 2249.61 -2.17875 -2.46519 0
M  V30 13836 C 2249.49 -3.01988 -1.4033 0
M  V30 13837 H 2246.51 -8.36803 -2.32493 0
M  V30 13838 H 2246.24 -6.70197 -1.71129 0
M  V30 13839 H 2247.1 -7.03551 -4.13168 0
M  V30 13840 H 2249.76 -4.59498 -3.54415 0
M  V30 13841 H 2250.04 -6.88898 -1.59848 0
M  V30 13842 H 2251.03 -6.46749 -3.03687 0
M  V30 13843 H 2249.2 -8.46908 -3.20714 0
M  V30 13844 H 2249.15 -5.86405 0.105564 0
M  V30 13845 H 2249.83 0.483664 -0.597855 0
M  V30 13846 H 2249.87 -0.187865 -4.0116 0
M  V30 13847 H 2249.97 1.03585 -2.71726 0
M  V30 13848 P 2251.07 -7.20834 -5.23717 0
M  V30 13849 O 2251.29 -7.79853 -6.57286 0
M  V30 13850 O 2251.86 -7.79239 -4.12957 0
M  V30 13851 O 2251.32 -5.63315 -5.29344 0
M  V30 13852 C 2250.38 -4.80255 -6.01876 0
M  V30 13853 C 2251.11 -3.64202 -6.65911 0
M  V30 13854 O 2251.32 -2.60694 -5.64732 0
M  V30 13855 C 2252.51 -3.93473 -7.1943 0
M  V30 13856 O 2252.9 -3.02071 -8.21205 0
M  V30 13857 C 2253.39 -3.73047 -5.97036 0
M  V30 13858 C 2252.68 -2.58828 -5.25741 0
M  V30 13859 N 2252.73 -2.68068 -3.77503 0
M  V30 13860 H 2249.89 -5.40332 -6.79951 0
M  V30 13861 H 2249.62 -4.41613 -5.32378 0
M  V30 13862 H 2250.48 -3.26331 -7.47797 0
M  V30 13863 P 2254.45 -2.75334 -8.47391 0
M  V30 13864 O 2254.67 -2.44571 -9.90142 0
M  V30 13865 O 2255.24 -3.87688 -7.92115 0
M  V30 13866 O 2254.7 -1.4459 -7.59357 0
M  V30 13867 C 2253.76 -0.347608 -7.69215 0
M  V30 13868 C 2254.49 0.96767 -7.52806 0
M  V30 13869 O 2254.7 1.21036 -6.1011 0
M  V30 13870 C 2255.89 1.04544 -8.13308 0
M  V30 13871 O 2256.28 2.38311 -8.41922 0
M  V30 13872 C 2256.77 0.491279 -7.02284 0
M  V30 13873 C 2256.06 0.996264 -5.77469 0
M  V30 13874 N 2256.11 0.0501916 -4.62973 0
M  V30 13875 C 2256.03 -1.32786 -4.63244 0
M  V30 13876 N 2256.11 -1.86957 -3.44545 0
M  V30 13877 C 2256.25 -0.780241 -2.58481 0
M  V30 13878 C 2256.38 -0.738536 -1.17757 0
M  V30 13879 O 2256.4 -1.66794 -0.372349 0
M  V30 13880 N 2256.5 0.58337 -0.711393 0
M  V30 13881 C 2256.5 1.70816 -1.51017 0
M  V30 13882 N 2256.63 2.87826 -0.880757 0
M  V30 13883 N 2256.37 1.67126 -2.8339 0
M  V30 13884 C 2256.25 0.401421 -3.30572 0
M  V30 13885 H 2253.27 -0.374722 -8.67691 0
M  V30 13886 H 2253 -0.443485 -6.90277 0
M  V30 13887 H 2253.86 1.75537 -7.96793 0
M  V30 13888 H 2256.52 1.95076 -5.46529 0
M  V30 13889 H 2256.8 -0.608565 -7.04577 0
M  V30 13890 H 2257.79 0.889672 -7.08939 0
M  V30 13891 H 2255.96 0.43308 -9.04564 0
M  V30 13892 H 2255.91 -1.91249 -5.54442 0
M  V30 13893 H 2256.59 0.718054 0.275244 0
M  V30 13894 H 2256.63 3.75721 -1.41832 0
M  V30 13895 H 2256.73 2.90436 0.145468 0
M  V30 13896 P 2257.83 2.75334 -8.47391 0
M  V30 13897 O 2258.05 3.84128 -9.44797 0
M  V30 13898 O 2258.62 1.51947 -8.68712 0
M  V30 13899 O 2258.08 3.29363 -6.99321 0
M  V30 13900 C 2257.14 4.24011 -6.4274 0
M  V30 13901 C 2257.87 5.20775 -5.52155 0
M  V30 13902 O 2258.08 4.56534 -4.22446 0
M  V30 13903 C 2259.27 5.62629 -5.96531 0
M  V30 13904 O 2259.66 6.87667 -5.41053 0
M  V30 13905 C 2260.15 4.52537 -5.39283 0
M  V30 13906 C 2259.44 4.20027 -4.08623 0
M  V30 13907 N 2259.49 2.76189 -3.71603 0
M  V30 13908 H 2256.65 4.797 -7.24003 0
M  V30 13909 H 2256.38 3.69856 -5.84513 0
M  V30 13910 H 2257.24 6.10356 -5.41441 0
M  V30 13911 P 2261.21 7.20834 -5.23717 0
M  V30 13912 O 2261.43 8.66104 -5.38572 0
M  V30 13913 O 2262 6.33544 -6.1349 0
M  V30 13914 O 2261.46 6.7751 -3.72168 0
M  V30 13915 C 2260.52 7.20825 -2.7076 0
M  V30 13916 C 2261.25 7.45864 -1.40599 0
M  V30 13917 O 2261.46 6.17651 -0.734225 0
M  V30 13918 C 2262.65 8.05808 -1.51899 0
M  V30 13919 O 2263.04 8.74358 -0.335205 0
M  V30 13920 C 2263.53 6.83093 -1.70294 0
M  V30 13921 C 2262.82 5.79992 -0.836974 0
M  V30 13922 N 2262.87 4.41864 -1.38293 0
M  V30 13923 C 2262.79 3.99538 -2.69438 0
M  V30 13924 N 2262.87 2.69909 -2.84277 0
M  V30 13925 C 2263.01 2.21719 -1.5408 0
M  V30 13926 C 2263.14 0.891712 -1.06628 0
M  V30 13927 O 2263.16 -0.161298 -1.70137 0
M  V30 13928 N 2263.26 0.856846 0.334985 0
M  V30 13929 C 2263.26 1.9641 1.15789 0
M  V30 13930 N 2263.39 1.72708 2.46522 0
M  V30 13931 N 2263.13 3.21165 0.713741 0
M  V30 13932 C 2263.01 3.26797 -0.639748 0
M  V30 13933 H 2260.03 8.13644 -3.0377 0
M  V30 13934 H 2259.76 6.42788 -2.55485 0
M  V30 13935 H 2260.62 8.12039 -0.792769 0
M  V30 13936 H 2263.28 5.80061 0.166416 0
M  V30 13937 H 2263.56 6.51287 -2.75604 0
M  V30 13938 H 2264.55 7.01734 -1.34462 0
M  V30 13939 H 2262.72 8.73674 -2.38337 0
M  V30 13940 H 2262.67 4.68207 -3.53221 0
M  V30 13941 H 2263.35 -0.0398818 0.767965 0
M  V30 13942 H 2263.39 2.50995 3.13503 0
M  V30 13943 H 2263.49 0.759148 2.80716 0
M  V30 13944 P 2264.59 8.91 -4.73117e-11 0
M  V30 13945 O 2264.81 10.1726 0.733694 0
M  V30 13946 O 2265.38 8.73148 -1.23936 0
M  V30 13947 O 2264.84 7.66872 0.971405 0
M  V30 13948 C 2263.9 7.42309 2.04641 0
M  V30 13949 C 2264.63 6.86059 3.24661 0
M  V30 13950 O 2264.84 5.42847 3.03646 0
M  V30 13951 C 2266.03 7.41196 3.50753 0
M  V30 13952 O 2266.42 7.27073 4.86816 0
M  V30 13953 C 2266.91 6.5273 2.63741 0
M  V30 13954 C 2266.2 5.1842 2.73198 0
M  V30 13955 N 2266.25 4.38762 1.4784 0
M  V30 13956 H 2263.41 8.36803 2.32493 0
M  V30 13957 H 2263.14 6.70197 1.71129 0
M  V30 13958 H 2264 7.03551 4.13168 0
M  V30 13959 P 2267.97 7.20834 5.23717 0
M  V30 13960 O 2268.19 7.79853 6.57286 0
M  V30 13961 O 2268.76 7.79239 4.12957 0
M  V30 13962 O 2268.22 5.63315 5.29344 0
M  V30 13963 C 2267.28 4.80255 6.01876 0
M  V30 13964 C 2268.01 3.64202 6.65911 0
M  V30 13965 O 2268.22 2.60694 5.64732 0
M  V30 13966 C 2269.41 3.93473 7.1943 0
M  V30 13967 O 2269.8 3.02071 8.21205 0
M  V30 13968 C 2270.29 3.73047 5.97036 0
M  V30 13969 C 2269.58 2.58828 5.25741 0
M  V30 13970 N 2269.63 2.68068 3.77503 0
M  V30 13971 H 2266.79 5.40332 6.79951 0
M  V30 13972 H 2266.52 4.41613 5.32378 0
M  V30 13973 H 2267.38 3.26331 7.47797 0
M  V30 13974 P 2271.35 2.75334 8.47391 0
M  V30 13975 O 2271.57 2.44571 9.90142 0
M  V30 13976 O 2272.14 3.87688 7.92115 0
M  V30 13977 O 2271.6 1.4459 7.59357 0
M  V30 13978 C 2270.66 0.347608 7.69215 0
M  V30 13979 C 2271.39 -0.96767 7.52806 0
M  V30 13980 O 2271.6 -1.21036 6.1011 0
M  V30 13981 C 2272.79 -1.04544 8.13308 0
M  V30 13982 O 2273.18 -2.38311 8.41922 0
M  V30 13983 C 2273.67 -0.491279 7.02284 0
M  V30 13984 C 2272.96 -0.996264 5.77469 0
M  V30 13985 N 2273.01 -0.0501916 4.62973 0
M  V30 13986 H 2270.17 0.374722 8.67691 0
M  V30 13987 H 2269.9 0.443485 6.90277 0
M  V30 13988 H 2270.76 -1.75537 7.96793 0
M  V30 13989 P 2274.73 -2.75334 8.47391 0
M  V30 13990 O 2274.95 -3.84128 9.44797 0
M  V30 13991 O 2275.52 -1.51947 8.68712 0
M  V30 13992 O 2274.98 -3.29363 6.99321 0
M  V30 13993 C 2274.04 -4.24011 6.4274 0
M  V30 13994 C 2274.77 -5.20775 5.52155 0
M  V30 13995 O 2274.98 -4.56534 4.22446 0
M  V30 13996 C 2276.17 -5.62629 5.96531 0
M  V30 13997 O 2276.56 -6.87667 5.41053 0
M  V30 13998 C 2277.05 -4.52537 5.39283 0
M  V30 13999 C 2276.34 -4.20027 4.08623 0
M  V30 14000 N 2276.39 -2.76189 3.71603 0
M  V30 14001 H 2273.55 -4.797 7.24003 0
M  V30 14002 H 2273.28 -3.69856 5.84513 0
M  V30 14003 H 2274.14 -6.10356 5.41441 0
M  V30 14004 P 2278.11 -7.20834 5.23717 0
M  V30 14005 O 2278.33 -8.66104 5.38572 0
M  V30 14006 O 2278.9 -6.33544 6.1349 0
M  V30 14007 O 2278.36 -6.7751 3.72168 0
M  V30 14008 C 2277.42 -7.20825 2.7076 0
M  V30 14009 C 2278.15 -7.45864 1.40599 0
M  V30 14010 O 2278.36 -6.17651 0.734225 0
M  V30 14011 C 2279.55 -8.05808 1.51899 0
M  V30 14012 O 2279.94 -8.74358 0.335205 0
M  V30 14013 C 2280.43 -6.83093 1.70294 0
M  V30 14014 C 2279.72 -5.79992 0.836974 0
M  V30 14015 N 2279.77 -4.41864 1.38293 0
M  V30 14016 H 2276.93 -8.13644 3.0377 0
M  V30 14017 H 2276.66 -6.42788 2.55485 0
M  V30 14018 H 2277.52 -8.12039 0.792769 0
M  V30 14019 P 2281.49 -8.91 4.84207e-11 0
M  V30 14020 O 2281.71 -10.1726 -0.733694 0
M  V30 14021 O 2282.28 -8.73148 1.23936 0
M  V30 14022 O 2281.74 -7.66872 -0.971405 0
M  V30 14023 C 2280.8 -7.42309 -2.04641 0
M  V30 14024 C 2281.53 -6.86059 -3.24661 0
M  V30 14025 O 2281.74 -5.42847 -3.03646 0
M  V30 14026 C 2282.93 -7.41196 -3.50753 0
M  V30 14027 O 2283.32 -7.27073 -4.86816 0
M  V30 14028 C 2283.81 -6.5273 -2.63741 0
M  V30 14029 C 2283.1 -5.1842 -2.73198 0
M  V30 14030 N 2283.15 -4.38762 -1.4784 0
M  V30 14031 H 2280.31 -8.36803 -2.32493 0
M  V30 14032 H 2280.04 -6.70197 -1.71129 0
M  V30 14033 H 2280.9 -7.03551 -4.13168 0
M  V30 14034 P 2284.87 -7.20834 -5.23717 0
M  V30 14035 O 2285.09 -7.79853 -6.57286 0
M  V30 14036 O 2285.66 -7.79239 -4.12957 0
M  V30 14037 O 2285.12 -5.63315 -5.29344 0
M  V30 14038 C 2284.18 -4.80255 -6.01876 0
M  V30 14039 C 2284.91 -3.64202 -6.65911 0
M  V30 14040 O 2285.12 -2.60694 -5.64732 0
M  V30 14041 C 2286.31 -3.93473 -7.1943 0
M  V30 14042 O 2286.7 -3.02071 -8.21205 0
M  V30 14043 C 2287.19 -3.73047 -5.97036 0
M  V30 14044 C 2286.48 -2.58828 -5.25741 0
M  V30 14045 N 2286.53 -2.68068 -3.77503 0
M  V30 14046 H 2283.69 -5.40332 -6.79951 0
M  V30 14047 H 2283.42 -4.41613 -5.32378 0
M  V30 14048 H 2284.28 -3.26331 -7.47797 0
M  V30 14049 P 2288.25 -2.75334 -8.47391 0
M  V30 14050 O 2288.47 -2.44571 -9.90142 0
M  V30 14051 O 2289.04 -3.87688 -7.92115 0
M  V30 14052 O 2288.5 -1.4459 -7.59357 0
M  V30 14053 C 2287.56 -0.347608 -7.69215 0
M  V30 14054 C 2288.29 0.96767 -7.52806 0
M  V30 14055 O 2288.5 1.21036 -6.1011 0
M  V30 14056 C 2289.69 1.04544 -8.13308 0
M  V30 14057 O 2290.08 2.38311 -8.41922 0
M  V30 14058 C 2290.57 0.491279 -7.02284 0
M  V30 14059 C 2289.86 0.996264 -5.77469 0
M  V30 14060 N 2289.91 0.0501916 -4.62973 0
M  V30 14061 H 2287.07 -0.374722 -8.67691 0
M  V30 14062 H 2286.8 -0.443485 -6.90277 0
M  V30 14063 H 2287.66 1.75537 -7.96793 0
M  V30 14064 P 2291.63 2.75334 -8.47391 0
M  V30 14065 O 2291.85 3.84128 -9.44797 0
M  V30 14066 O 2292.42 1.51947 -8.68712 0
M  V30 14067 O 2291.88 3.29363 -6.99321 0
M  V30 14068 C 2290.94 4.24011 -6.4274 0
M  V30 14069 C 2291.67 5.20775 -5.52155 0
M  V30 14070 O 2291.88 4.56534 -4.22446 0
M  V30 14071 C 2293.07 5.62629 -5.96531 0
M  V30 14072 O 2293.46 6.87667 -5.41053 0
M  V30 14073 C 2293.95 4.52537 -5.39283 0
M  V30 14074 C 2293.24 4.20027 -4.08623 0
M  V30 14075 N 2293.29 2.76189 -3.71603 0
M  V30 14076 H 2290.45 4.797 -7.24003 0
M  V30 14077 H 2290.18 3.69856 -5.84513 0
M  V30 14078 H 2291.04 6.10356 -5.41441 0
M  V30 14079 P 2295.01 7.20834 -5.23717 0
M  V30 14080 O 2295.23 8.66104 -5.38572 0
M  V30 14081 O 2295.8 6.33544 -6.1349 0
M  V30 14082 O 2295.26 6.7751 -3.72168 0
M  V30 14083 C 2294.32 7.20825 -2.7076 0
M  V30 14084 C 2295.05 7.45864 -1.40599 0
M  V30 14085 O 2295.26 6.17651 -0.734225 0
M  V30 14086 C 2296.45 8.05808 -1.51899 0
M  V30 14087 O 2296.84 8.74358 -0.335205 0
M  V30 14088 C 2297.33 6.83093 -1.70294 0
M  V30 14089 C 2296.62 5.79992 -0.836974 0
M  V30 14090 N 2296.67 4.41864 -1.38293 0
M  V30 14091 C 2296.59 3.99538 -2.69438 0
M  V30 14092 N 2296.67 2.69909 -2.84277 0
M  V30 14093 C 2296.81 2.21719 -1.5408 0
M  V30 14094 C 2296.94 0.891712 -1.06628 0
M  V30 14095 O 2296.96 -0.161298 -1.70137 0
M  V30 14096 N 2297.06 0.856846 0.334985 0
M  V30 14097 C 2297.06 1.9641 1.15789 0
M  V30 14098 N 2297.19 1.72708 2.46522 0
M  V30 14099 N 2296.93 3.21165 0.713741 0
M  V30 14100 C 2296.81 3.26797 -0.639748 0
M  V30 14101 H 2293.83 8.13644 -3.0377 0
M  V30 14102 H 2293.56 6.42788 -2.55485 0
M  V30 14103 H 2294.42 8.12039 -0.792769 0
M  V30 14104 H 2297.08 5.80061 0.166416 0
M  V30 14105 H 2297.36 6.51287 -2.75604 0
M  V30 14106 H 2298.35 7.01734 -1.34462 0
M  V30 14107 H 2296.52 8.73674 -2.38337 0
M  V30 14108 H 2296.47 4.68207 -3.53221 0
M  V30 14109 H 2297.15 -0.0398818 0.767965 0
M  V30 14110 H 2297.19 2.50995 3.13503 0
M  V30 14111 H 2297.29 0.759148 2.80716 0
M  V30 14112 P 2298.39 8.91 -4.95297e-11 0
M  V30 14113 O 2298.61 10.1726 0.733694 0
M  V30 14114 O 2299.18 8.73148 -1.23936 0
M  V30 14115 O 2298.64 7.66872 0.971405 0
M  V30 14116 C 2297.7 7.42309 2.04641 0
M  V30 14117 C 2298.43 6.86059 3.24661 0
M  V30 14118 O 2298.64 5.42847 3.03646 0
M  V30 14119 C 2299.83 7.41196 3.50753 0
M  V30 14120 O 2300.22 7.27073 4.86816 0
M  V30 14121 C 2300.71 6.5273 2.63741 0
M  V30 14122 C 2300 5.1842 2.73198 0
M  V30 14123 N 2300.05 4.38762 1.4784 0
M  V30 14124 H 2297.21 8.36803 2.32493 0
M  V30 14125 H 2296.94 6.70197 1.71129 0
M  V30 14126 H 2297.8 7.03551 4.13168 0
M  V30 14127 P 2301.77 7.20834 5.23717 0
M  V30 14128 O 2301.99 7.79853 6.57286 0
M  V30 14129 O 2302.56 7.79239 4.12957 0
M  V30 14130 O 2302.02 5.63315 5.29344 0
M  V30 14131 C 2301.08 4.80255 6.01876 0
M  V30 14132 C 2301.81 3.64202 6.65911 0
M  V30 14133 O 2302.02 2.60694 5.64732 0
M  V30 14134 C 2303.21 3.93473 7.1943 0
M  V30 14135 O 2303.6 3.02071 8.21205 0
M  V30 14136 C 2304.09 3.73047 5.97036 0
M  V30 14137 C 2303.38 2.58828 5.25741 0
M  V30 14138 N 2303.43 2.68068 3.77503 0
M  V30 14139 H 2300.59 5.40332 6.79951 0
M  V30 14140 H 2300.32 4.41613 5.32378 0
M  V30 14141 H 2301.18 3.26331 7.47797 0
M  V30 14142 P 2305.15 2.75334 8.47391 0
M  V30 14143 O 2305.37 2.44571 9.90142 0
M  V30 14144 O 2305.94 3.87688 7.92115 0
M  V30 14145 O 2305.4 1.4459 7.59357 0
M  V30 14146 C 2304.46 0.347608 7.69215 0
M  V30 14147 C 2305.19 -0.96767 7.52806 0
M  V30 14148 O 2305.4 -1.21036 6.1011 0
M  V30 14149 C 2306.59 -1.04544 8.13308 0
M  V30 14150 O 2306.98 -2.38311 8.41922 0
M  V30 14151 C 2307.47 -0.491279 7.02284 0
M  V30 14152 C 2306.76 -0.996264 5.77469 0
M  V30 14153 N 2306.81 -0.0501916 4.62973 0
M  V30 14154 H 2303.97 0.374722 8.67691 0
M  V30 14155 H 2303.7 0.443485 6.90277 0
M  V30 14156 H 2304.56 -1.75537 7.96793 0
M  V30 14157 P 2308.53 -2.75334 8.47391 0
M  V30 14158 O 2308.75 -3.84128 9.44797 0
M  V30 14159 O 2309.32 -1.51947 8.68712 0
M  V30 14160 O 2308.78 -3.29363 6.99321 0
M  V30 14161 C 2307.84 -4.24011 6.4274 0
M  V30 14162 C 2308.57 -5.20775 5.52155 0
M  V30 14163 O 2308.78 -4.56534 4.22446 0
M  V30 14164 C 2309.97 -5.62629 5.96531 0
M  V30 14165 O 2310.36 -6.87667 5.41053 0
M  V30 14166 C 2310.85 -4.52537 5.39283 0
M  V30 14167 C 2310.14 -4.20027 4.08623 0
M  V30 14168 N 2310.19 -2.76189 3.71603 0
M  V30 14169 C 2310.11 -1.64862 4.52822 0
M  V30 14170 N 2310.19 -0.512671 3.88633 0
M  V30 14171 C 2310.33 -0.888083 2.54977 0
M  V30 14172 C 2310.46 -0.094668 1.38677 0
M  V30 14173 O 2310.48 1.13053 1.28163 0
M  V30 14174 N 2310.58 -0.890102 0.232633 0
M  V30 14175 C 2310.58 -2.26958 0.21772 0
M  V30 14176 N 2310.71 -2.84626 -0.97925 0
M  V30 14177 N 2310.45 -3.0178 1.31033 0
M  V30 14178 C 2310.33 -2.26781 2.43843 0
M  V30 14179 H 2307.35 -4.797 7.24003 0
M  V30 14180 H 2307.08 -3.69856 5.84513 0
M  V30 14181 H 2307.94 -6.10356 5.41441 0
M  V30 14182 H 2310.6 -4.79061 3.27488 0
M  V30 14183 H 2310.88 -3.64906 6.05785 0
M  V30 14184 H 2311.87 -4.8868 5.2125 0
M  V30 14185 H 2310.04 -5.66726 7.06352 0
M  V30 14186 H 2309.99 -1.71169 5.60966 0
M  V30 14187 H 2310.67 -0.419134 -0.644739 0
M  V30 14188 H 2310.71 -3.87332 -1.06098 0
M  V30 14189 H 2310.81 -2.26417 -1.82483 0
M  V30 14190 P 2311.91 -7.20834 5.23717 0
M  V30 14191 O 2312.13 -8.66104 5.38572 0
M  V30 14192 O 2312.7 -6.33544 6.1349 0
M  V30 14193 O 2312.16 -6.7751 3.72168 0
M  V30 14194 C 2311.22 -7.20825 2.7076 0
M  V30 14195 C 2311.95 -7.45864 1.40599 0
M  V30 14196 O 2312.16 -6.17651 0.734225 0
M  V30 14197 C 2313.35 -8.05808 1.51899 0
M  V30 14198 O 2313.74 -8.74358 0.335205 0
M  V30 14199 C 2314.23 -6.83093 1.70294 0
M  V30 14200 C 2313.52 -5.79992 0.836974 0
M  V30 14201 N 2313.57 -4.41864 1.38293 0
M  V30 14202 H 2310.73 -8.13644 3.0377 0
M  V30 14203 H 2310.46 -6.42788 2.55485 0
M  V30 14204 H 2311.32 -8.12039 0.792769 0
M  V30 14205 P 2315.29 -8.91 5.06387e-11 0
M  V30 14206 O 2315.51 -10.1726 -0.733694 0
M  V30 14207 O 2316.08 -8.73148 1.23936 0
M  V30 14208 O 2315.54 -7.66872 -0.971405 0
M  V30 14209 C 2314.6 -7.42309 -2.04641 0
M  V30 14210 C 2315.33 -6.86059 -3.24661 0
M  V30 14211 O 2315.54 -5.42847 -3.03646 0
M  V30 14212 C 2316.73 -7.41196 -3.50753 0
M  V30 14213 O 2317.12 -7.27073 -4.86816 0
M  V30 14214 C 2317.61 -6.5273 -2.63741 0
M  V30 14215 C 2316.9 -5.1842 -2.73198 0
M  V30 14216 N 2316.95 -4.38762 -1.4784 0
M  V30 14217 H 2314.11 -8.36803 -2.32493 0
M  V30 14218 H 2313.84 -6.70197 -1.71129 0
M  V30 14219 H 2314.7 -7.03551 -4.13168 0
M  V30 14220 P 2318.67 -7.20834 -5.23717 0
M  V30 14221 O 2318.89 -7.79853 -6.57286 0
M  V30 14222 O 2319.46 -7.79239 -4.12957 0
M  V30 14223 O 2318.92 -5.63315 -5.29344 0
M  V30 14224 C 2317.98 -4.80255 -6.01876 0
M  V30 14225 C 2318.71 -3.64202 -6.65911 0
M  V30 14226 O 2318.92 -2.60694 -5.64732 0
M  V30 14227 C 2320.11 -3.93473 -7.1943 0
M  V30 14228 O 2320.5 -3.02071 -8.21205 0
M  V30 14229 C 2320.99 -3.73047 -5.97036 0
M  V30 14230 C 2320.28 -2.58828 -5.25741 0
M  V30 14231 N 2320.33 -2.68068 -3.77503 0
M  V30 14232 C 2320.25 -3.79715 -2.96723 0
M  V30 14233 N 2320.33 -3.5377 -1.68852 0
M  V30 14234 C 2320.47 -2.15054 -1.63254 0
M  V30 14235 C 2320.6 -1.28964 -0.518571 0
M  V30 14236 N 2320.72 0.0538097 -0.918425 0
M  V30 14237 C 2320.72 0.494275 -2.22578 0
M  V30 14238 N 2320.85 1.81086 -2.40434 0
M  V30 14239 N 2320.59 -0.313645 -3.27502 0
M  V30 14240 C 2320.47 -1.61829 -2.91033 0
M  V30 14241 H 2317.49 -5.40332 -6.79951 0
M  V30 14242 H 2317.22 -4.41613 -5.32378 0
M  V30 14243 H 2318.08 -3.26331 -7.47797 0
M  V30 14244 P 2322.05 -2.75334 -8.47391 0
M  V30 14245 O 2322.27 -2.44571 -9.90142 0
M  V30 14246 O 2322.84 -3.87688 -7.92115 0
M  V30 14247 O 2322.3 -1.4459 -7.59357 0
M  V30 14248 C 2321.36 -0.347608 -7.69215 0
M  V30 14249 C 2322.09 0.96767 -7.52806 0
M  V30 14250 O 2322.3 1.21036 -6.1011 0
M  V30 14251 C 2323.49 1.04544 -8.13308 0
M  V30 14252 O 2323.88 2.38311 -8.41922 0
M  V30 14253 C 2324.37 0.491279 -7.02284 0
M  V30 14254 C 2323.66 0.996264 -5.77469 0
M  V30 14255 N 2323.71 0.0501916 -4.62973 0
M  V30 14256 H 2320.87 -0.374722 -8.67691 0
M  V30 14257 H 2320.6 -0.443485 -6.90277 0
M  V30 14258 H 2321.46 1.75537 -7.96793 0
M  V30 14259 P 2325.43 2.75334 -8.47391 0
M  V30 14260 O 2325.65 3.84128 -9.44797 0
M  V30 14261 O 2326.22 1.51947 -8.68712 0
M  V30 14262 O 2325.68 3.29363 -6.99321 0
M  V30 14263 C 2324.74 4.24011 -6.4274 0
M  V30 14264 C 2325.47 5.20775 -5.52155 0
M  V30 14265 O 2325.68 4.56534 -4.22446 0
M  V30 14266 C 2326.87 5.62629 -5.96531 0
M  V30 14267 O 2327.26 6.87667 -5.41053 0
M  V30 14268 C 2327.75 4.52537 -5.39283 0
M  V30 14269 C 2327.04 4.20027 -4.08623 0
M  V30 14270 N 2327.09 2.76189 -3.71603 0
M  V30 14271 H 2324.25 4.797 -7.24003 0
M  V30 14272 H 2323.98 3.69856 -5.84513 0
M  V30 14273 H 2324.84 6.10356 -5.41441 0
M  V30 14274 P 2328.81 7.20834 -5.23717 0
M  V30 14275 O 2329.03 8.66104 -5.38572 0
M  V30 14276 O 2329.6 6.33544 -6.1349 0
M  V30 14277 O 2329.06 6.7751 -3.72168 0
M  V30 14278 C 2328.12 7.20825 -2.7076 0
M  V30 14279 C 2328.85 7.45864 -1.40599 0
M  V30 14280 O 2329.06 6.17651 -0.734225 0
M  V30 14281 C 2330.25 8.05808 -1.51899 0
M  V30 14282 O 2330.64 8.74358 -0.335205 0
M  V30 14283 C 2331.13 6.83093 -1.70294 0
M  V30 14284 C 2330.42 5.79992 -0.836974 0
M  V30 14285 N 2330.47 4.41864 -1.38293 0
M  V30 14286 H 2327.63 8.13644 -3.0377 0
M  V30 14287 H 2327.36 6.42788 -2.55485 0
M  V30 14288 H 2328.22 8.12039 -0.792769 0
M  V30 14289 P 2332.19 8.91 -5.17477e-11 0
M  V30 14290 O 2332.41 10.1746 0.733838 0
M  V30 14291 O 2332.98 8.73346 -1.23964 0
M  V30 14292 O 2332.44 7.66872 0.971405 0
M  V30 14293 C 2331.5 7.42405 2.04668 0
M  V30 14294 C 2332.23 6.86059 3.24661 0
M  V30 14295 O 2332.44 5.42934 3.03695 0
M  V30 14296 C 2333.63 7.41287 3.50796 0
M  V30 14297 O 2334.02 7.27073 4.86816 0
M  V30 14298 C 2334.51 6.5273 2.63741 0
M  V30 14299 C 2333.8 5.1842 2.73198 0
M  V30 14300 N 2333.85 4.38762 1.4784 0
M  V30 14301 C 2333.77 4.83651 0.183876 0
M  V30 14302 N 2333.84 3.88759 -0.699393 0
M  V30 14303 C 2333.99 2.7404 0.0575568 0
M  V30 14304 C 2334.12 1.37902 -0.293928 0
M  V30 14305 N 2334.13 0.938021 -1.54797 0
M  V30 14306 N 2334.24 0.491817 0.70549 0
M  V30 14307 C 2334.23 0.931735 1.95979 0
M  V30 14308 N 2334.11 2.16017 2.41481 0
M  V30 14309 C 2333.99 3.02547 1.39121 0
M  V30 14310 H 2331.01 8.36899 2.3252 0
M  V30 14311 H 2330.74 6.70391 1.71179 0
M  V30 14312 H 2331.6 7.03638 4.13219 0
M  V30 14313 H 2334.26 4.59931 3.54016 0
M  V30 14314 H 2334.54 6.88995 1.59871 0
M  V30 14315 H 2335.53 6.4684 3.0373 0
M  V30 14316 H 2333.7 8.47002 3.20749 0
M  V30 14317 H 2333.66 5.8885 -0.0765548 0
M  V30 14318 H 2334.04 1.60276 -2.32875 0
M  V30 14319 H 2334.23 -0.0699355 -1.73859 0
M  V30 14320 H 2334.33 0.165507 2.71897 0
M  V30 14321 P 2335.57 7.20834 5.23717 0
M  V30 14322 O 2335.79 7.79853 6.57286 0
M  V30 14323 O 2336.36 7.79239 4.12957 0
M  V30 14324 O 2335.82 5.63315 5.29344 0
M  V30 14325 C 2334.88 4.80255 6.01876 0
M  V30 14326 C 2335.61 3.64202 6.65911 0
M  V30 14327 O 2335.82 2.60694 5.64732 0
M  V30 14328 C 2337.01 3.93473 7.1943 0
M  V30 14329 O 2337.4 3.02071 8.21205 0
M  V30 14330 C 2337.89 3.73047 5.97036 0
M  V30 14331 C 2337.18 2.58828 5.25741 0
M  V30 14332 N 2337.23 2.68068 3.77503 0
M  V30 14333 C 2337.15 3.79715 2.96723 0
M  V30 14334 N 2337.23 3.5377 1.68852 0
M  V30 14335 C 2337.37 2.15054 1.63254 0
M  V30 14336 C 2337.5 1.28964 0.518571 0
M  V30 14337 N 2337.62 -0.0538097 0.918425 0
M  V30 14338 C 2337.62 -0.494275 2.22578 0
M  V30 14339 N 2337.75 -1.81086 2.40434 0
M  V30 14340 N 2337.49 0.313645 3.27502 0
M  V30 14341 C 2337.37 1.61829 2.91033 0
M  V30 14342 H 2334.39 5.40332 6.79951 0
M  V30 14343 H 2334.12 4.41613 5.32378 0
M  V30 14344 H 2334.98 3.26331 7.47797 0
M  V30 14345 P 2338.95 2.75334 8.47391 0
M  V30 14346 O 2339.17 2.44571 9.90142 0
M  V30 14347 O 2339.74 3.87688 7.92115 0
M  V30 14348 O 2339.2 1.4459 7.59357 0
M  V30 14349 C 2338.26 0.347608 7.69215 0
M  V30 14350 C 2338.99 -0.96767 7.52806 0
M  V30 14351 O 2339.2 -1.21036 6.1011 0
M  V30 14352 C 2340.39 -1.04544 8.13308 0
M  V30 14353 O 2340.78 -2.38311 8.41922 0
M  V30 14354 C 2341.27 -0.491279 7.02284 0
M  V30 14355 C 2340.56 -0.996264 5.77469 0
M  V30 14356 N 2340.61 -0.0501916 4.62973 0
M  V30 14357 H 2337.77 0.374722 8.67691 0
M  V30 14358 H 2337.5 0.443485 6.90277 0
M  V30 14359 H 2338.36 -1.75537 7.96793 0
M  V30 14360 P 2342.33 -2.75334 8.47391 0
M  V30 14361 O 2342.55 -3.84166 9.4489 0
M  V30 14362 O 2343.12 -1.51964 8.6881 0
M  V30 14363 O 2342.58 -3.29363 6.99321 0
M  V30 14364 C 2341.64 -4.23956 6.42656 0
M  V30 14365 C 2342.37 -5.20775 5.52155 0
M  V30 14366 O 2342.58 -4.56534 4.22446 0
M  V30 14367 C 2343.77 -5.62629 5.96531 0
M  V30 14368 O 2344.16 -6.87667 5.41053 0
M  V30 14369 C 2344.65 -4.52537 5.39283 0
M  V30 14370 C 2343.94 -4.20027 4.08623 0
M  V30 14371 N 2343.99 -2.7613 3.71522 0
M  V30 14372 C 2344.14 -2.45612 2.37989 0
M  V30 14373 O 2344.23 -3.30919 1.51621 0
M  V30 14374 N 2344.18 -1.10684 2.08435 0
M  V30 14375 C 2344.09 -0.0690084 2.9792 0
M  V30 14376 O 2344.14 1.10553 2.59426 0
M  V30 14377 C 2343.94 -0.481522 4.35345 0
M  V30 14378 C 2343.83 0.618778 5.36443 0
M  V30 14379 C 2343.89 -1.78906 4.67968 0
M  V30 14380 H 2341.15 -4.797 7.24003 0
M  V30 14381 H 2340.88 -3.69802 5.84429 0
M  V30 14382 H 2341.74 -6.10356 5.41441 0
M  V30 14383 H 2344.4 -4.78651 3.27911 0
M  V30 14384 H 2344.68 -3.64957 6.05871 0
M  V30 14385 H 2345.67 -4.8868 5.2125 0
M  V30 14386 H 2343.84 -5.66726 7.06352 0
M  V30 14387 H 2343.77 -2.07737 5.72367 0
M  V30 14388 H 2344.8 0.754375 5.86871 0
M  V30 14389 H 2343.06 0.359721 6.10641 0
M  V30 14390 H 2343.55 1.55533 4.8581 0
M  V30 14391 H 2344.28 -0.862651 1.12037 0
M  V30 14392 P 2345.71 -7.20834 5.23717 0
M  V30 14393 O 2345.93 -8.66104 5.38572 0
M  V30 14394 O 2346.5 -6.33544 6.1349 0
M  V30 14395 O 2345.96 -6.7751 3.72168 0
M  V30 14396 C 2345.02 -7.20825 2.7076 0
M  V30 14397 C 2345.75 -7.45864 1.40599 0
M  V30 14398 O 2345.96 -6.17651 0.734225 0
M  V30 14399 C 2347.15 -8.05808 1.51899 0
M  V30 14400 O 2347.54 -8.74358 0.335205 0
M  V30 14401 C 2348.03 -6.83093 1.70294 0
M  V30 14402 C 2347.32 -5.79992 0.836974 0
M  V30 14403 N 2347.37 -4.41864 1.38293 0
M  V30 14404 C 2347.29 -3.99538 2.69438 0
M  V30 14405 N 2347.37 -2.69909 2.84277 0
M  V30 14406 C 2347.51 -2.21719 1.5408 0
M  V30 14407 C 2347.64 -0.891712 1.06628 0
M  V30 14408 O 2347.66 0.161298 1.70137 0
M  V30 14409 N 2347.76 -0.856846 -0.334985 0
M  V30 14410 C 2347.76 -1.9641 -1.15789 0
M  V30 14411 N 2347.89 -1.72708 -2.46522 0
M  V30 14412 N 2347.63 -3.21165 -0.713741 0
M  V30 14413 C 2347.51 -3.26797 0.639748 0
M  V30 14414 H 2344.53 -8.13644 3.0377 0
M  V30 14415 H 2344.26 -6.42788 2.55485 0
M  V30 14416 H 2345.12 -8.12039 0.792769 0
M  V30 14417 H 2347.78 -5.80061 -0.166416 0
M  V30 14418 H 2348.06 -6.51287 2.75604 0
M  V30 14419 H 2349.05 -7.01734 1.34462 0
M  V30 14420 H 2347.22 -8.73674 2.38337 0
M  V30 14421 H 2347.17 -4.68207 3.53221 0
M  V30 14422 H 2347.85 0.0398818 -0.767965 0
M  V30 14423 H 2347.89 -2.50995 -3.13503 0
M  V30 14424 H 2347.99 -0.759148 -2.80716 0
M  V30 14425 P 2349.09 -8.91 5.28567e-11 0
M  V30 14426 O 2349.31 -10.1726 -0.733694 0
M  V30 14427 O 2349.88 -8.73148 1.23936 0
M  V30 14428 O 2349.34 -7.66872 -0.971405 0
M  V30 14429 C 2348.4 -7.42309 -2.04641 0
M  V30 14430 C 2349.13 -6.86059 -3.24661 0
M  V30 14431 O 2349.34 -5.42847 -3.03646 0
M  V30 14432 C 2350.53 -7.41196 -3.50753 0
M  V30 14433 O 2350.92 -7.27073 -4.86816 0
M  V30 14434 C 2351.41 -6.5273 -2.63741 0
M  V30 14435 C 2350.7 -5.1842 -2.73198 0
M  V30 14436 N 2350.75 -4.38762 -1.4784 0
M  V30 14437 C 2350.67 -4.81605 -0.168631 0
M  V30 14438 N 2350.75 -3.85454 0.713363 0
M  V30 14439 C 2350.89 -2.6994 -0.0566958 0
M  V30 14440 C 2351.02 -1.34815 0.338502 0
M  V30 14441 O 2351.04 -0.869548 1.47125 0
M  V30 14442 N 2351.14 -0.496304 -0.77465 0
M  V30 14443 C 2351.14 -0.908403 -2.09122 0
M  V30 14444 N 2351.27 0.0517805 -3.00955 0
M  V30 14445 N 2351.01 -2.17875 -2.46519 0
M  V30 14446 C 2350.89 -3.01988 -1.4033 0
M  V30 14447 H 2347.91 -8.36803 -2.32493 0
M  V30 14448 H 2347.64 -6.70197 -1.71129 0
M  V30 14449 H 2348.5 -7.03551 -4.13168 0
M  V30 14450 H 2351.16 -4.59498 -3.54415 0
M  V30 14451 H 2351.44 -6.88898 -1.59848 0
M  V30 14452 H 2352.43 -6.46749 -3.03687 0
M  V30 14453 H 2350.6 -8.46908 -3.20714 0
M  V30 14454 H 2350.55 -5.86405 0.105564 0
M  V30 14455 H 2351.23 0.483664 -0.597855 0
M  V30 14456 H 2351.27 -0.187865 -4.0116 0
M  V30 14457 H 2351.37 1.03585 -2.71726 0
M  V30 14458 P 2352.47 -7.20834 -5.23717 0
M  V30 14459 O 2352.69 -7.79853 -6.57286 0
M  V30 14460 O 2353.26 -7.79239 -4.12957 0
M  V30 14461 O 2352.72 -5.63315 -5.29344 0
M  V30 14462 C 2351.78 -4.80255 -6.01876 0
M  V30 14463 C 2352.51 -3.64202 -6.65911 0
M  V30 14464 O 2352.72 -2.60694 -5.64732 0
M  V30 14465 C 2353.91 -3.93473 -7.1943 0
M  V30 14466 O 2354.3 -3.02071 -8.21205 0
M  V30 14467 C 2354.79 -3.73047 -5.97036 0
M  V30 14468 C 2354.08 -2.58828 -5.25741 0
M  V30 14469 N 2354.13 -2.68068 -3.77503 0
M  V30 14470 C 2354.05 -3.79715 -2.96723 0
M  V30 14471 N 2354.13 -3.5377 -1.68852 0
M  V30 14472 C 2354.27 -2.15054 -1.63254 0
M  V30 14473 C 2354.4 -1.28964 -0.518571 0
M  V30 14474 N 2354.52 0.0538097 -0.918425 0
M  V30 14475 C 2354.52 0.494275 -2.22578 0
M  V30 14476 N 2354.65 1.81086 -2.40434 0
M  V30 14477 N 2354.39 -0.313645 -3.27502 0
M  V30 14478 C 2354.27 -1.61829 -2.91033 0
M  V30 14479 H 2351.29 -5.40332 -6.79951 0
M  V30 14480 H 2351.02 -4.41613 -5.32378 0
M  V30 14481 H 2351.88 -3.26331 -7.47797 0
M  V30 14482 P 2355.85 -2.75334 -8.47391 0
M  V30 14483 O 2356.07 -2.44619 -9.90336 0
M  V30 14484 O 2356.64 -3.87776 -7.92294 0
M  V30 14485 O 2356.1 -1.4459 -7.59357 0
M  V30 14486 C 2355.16 -0.347653 -7.69315 0
M  V30 14487 C 2355.89 0.96767 -7.52806 0
M  V30 14488 O 2356.1 1.21055 -6.10208 0
M  V30 14489 C 2357.29 1.04557 -8.13408 0
M  V30 14490 O 2357.68 2.38311 -8.41922 0
M  V30 14491 C 2358.17 0.491279 -7.02284 0
M  V30 14492 C 2357.46 0.996264 -5.77469 0
M  V30 14493 N 2357.51 0.0501916 -4.62973 0
M  V30 14494 H 2354.67 -0.374765 -8.67791 0
M  V30 14495 H 2354.4 -0.443613 -6.90476 0
M  V30 14496 H 2355.26 1.75559 -7.96891 0
M  V30 14497 H 2357.92 1.94563 -5.46818 0
M  V30 14498 H 2358.2 -0.608651 -7.04676 0
M  V30 14499 H 2359.19 0.889796 -7.09039 0
M  V30 14500 H 2357.36 0.433128 -9.04664 0
M  V30 14501 P 2359.23 2.75334 -8.47391 0
M  V30 14502 O 2359.45 3.84128 -9.44797 0
M  V30 14503 O 2360.02 1.51947 -8.68712 0
M  V30 14504 O 2359.48 3.29363 -6.99321 0
M  V30 14505 C 2358.54 4.24011 -6.4274 0
M  V30 14506 C 2359.27 5.20775 -5.52155 0
M  V30 14507 O 2359.48 4.56534 -4.22446 0
M  V30 14508 C 2360.67 5.62629 -5.96531 0
M  V30 14509 O 2361.06 6.87667 -5.41053 0
M  V30 14510 C 2361.55 4.52537 -5.39283 0
M  V30 14511 C 2360.84 4.20027 -4.08623 0
M  V30 14512 N 2360.89 2.76189 -3.71603 0
M  V30 14513 H 2358.05 4.797 -7.24003 0
M  V30 14514 H 2357.78 3.69856 -5.84513 0
M  V30 14515 H 2358.64 6.10356 -5.41441 0
M  V30 14516 P 2362.61 7.20834 -5.23717 0
M  V30 14517 O 2362.83 8.66104 -5.38572 0
M  V30 14518 O 2363.4 6.33544 -6.1349 0
M  V30 14519 O 2362.86 6.7751 -3.72168 0
M  V30 14520 C 2361.92 7.20825 -2.7076 0
M  V30 14521 C 2362.65 7.45864 -1.40599 0
M  V30 14522 O 2362.86 6.17651 -0.734225 0
M  V30 14523 C 2364.05 8.05808 -1.51899 0
M  V30 14524 O 2364.44 8.74358 -0.335205 0
M  V30 14525 C 2364.93 6.83093 -1.70294 0
M  V30 14526 C 2364.22 5.79992 -0.836974 0
M  V30 14527 N 2364.27 4.41864 -1.38293 0
M  V30 14528 C 2364.19 3.99538 -2.69438 0
M  V30 14529 N 2364.27 2.69909 -2.84277 0
M  V30 14530 C 2364.41 2.21719 -1.5408 0
M  V30 14531 C 2364.54 0.891712 -1.06628 0
M  V30 14532 O 2364.56 -0.161298 -1.70137 0
M  V30 14533 N 2364.66 0.856846 0.334985 0
M  V30 14534 C 2364.66 1.9641 1.15789 0
M  V30 14535 N 2364.79 1.72708 2.46522 0
M  V30 14536 N 2364.53 3.21165 0.713741 0
M  V30 14537 C 2364.41 3.26797 -0.639748 0
M  V30 14538 H 2361.43 8.13644 -3.0377 0
M  V30 14539 H 2361.16 6.42788 -2.55485 0
M  V30 14540 H 2362.02 8.12039 -0.792769 0
M  V30 14541 H 2364.68 5.80061 0.166416 0
M  V30 14542 H 2364.96 6.51287 -2.75604 0
M  V30 14543 H 2365.95 7.01734 -1.34462 0
M  V30 14544 H 2364.12 8.73674 -2.38337 0
M  V30 14545 H 2364.07 4.68207 -3.53221 0
M  V30 14546 H 2364.75 -0.0398818 0.767965 0
M  V30 14547 H 2364.79 2.50995 3.13503 0
M  V30 14548 H 2364.89 0.759148 2.80716 0
M  V30 14549 P 2365.99 8.91 -5.39657e-11 0
M  V30 14550 O 2366.21 10.1736 0.733766 0
M  V30 14551 O 2366.78 8.73247 -1.2395 0
M  V30 14552 O 2366.24 7.66872 0.971405 0
M  V30 14553 C 2365.3 7.42212 2.04614 0
M  V30 14554 C 2366.03 6.86059 3.24661 0
M  V30 14555 O 2366.24 5.42847 3.03646 0
M  V30 14556 C 2367.43 7.41196 3.50753 0
M  V30 14557 O 2367.82 7.27073 4.86816 0
M  V30 14558 C 2368.31 6.5273 2.63741 0
M  V30 14559 C 2367.6 5.1842 2.73198 0
M  V30 14560 N 2367.65 4.38668 1.47808 0
M  V30 14561 C 2367.8 3.02239 1.60048 0
M  V30 14562 O 2367.89 2.46459 2.67869 0
M  V30 14563 N 2367.84 2.32436 0.408571 0
M  V30 14564 C 2367.75 2.85471 -0.854993 0
M  V30 14565 C 2367.6 4.28918 -0.887335 0
M  V30 14566 C 2367.55 5.00349 0.255399 0
M  V30 14567 H 2364.81 8.36803 2.32493 0
M  V30 14568 H 2364.54 6.701 1.71105 0
M  V30 14569 H 2365.4 7.03551 4.13168 0
M  V30 14570 H 2368.06 4.59773 3.53894 0
M  V30 14571 H 2368.34 6.88995 1.59871 0
M  V30 14572 H 2369.33 6.46749 3.03687 0
M  V30 14573 H 2367.5 8.46908 3.20714 0
M  V30 14574 H 2367.43 6.08548 0.206986 0
M  V30 14575 P 2369.37 7.20834 5.23717 0
M  V30 14576 O 2369.59 7.79853 6.57286 0
M  V30 14577 O 2370.16 7.79239 4.12957 0
M  V30 14578 O 2369.62 5.63315 5.29344 0
M  V30 14579 C 2368.68 4.80255 6.01876 0
M  V30 14580 C 2369.41 3.64202 6.65911 0
M  V30 14581 O 2369.62 2.60694 5.64732 0
M  V30 14582 C 2370.81 3.93473 7.1943 0
M  V30 14583 O 2371.2 3.02071 8.21205 0
M  V30 14584 C 2371.69 3.73047 5.97036 0
M  V30 14585 C 2370.98 2.58828 5.25741 0
M  V30 14586 N 2371.03 2.68068 3.77503 0
M  V30 14587 H 2368.19 5.40332 6.79951 0
M  V30 14588 H 2367.92 4.41613 5.32378 0
M  V30 14589 H 2368.78 3.26331 7.47797 0
M  V30 14590 P 2372.75 2.75334 8.47391 0
M  V30 14591 O 2372.97 2.44571 9.90142 0
M  V30 14592 O 2373.54 3.87688 7.92115 0
M  V30 14593 O 2373 1.4459 7.59357 0
M  V30 14594 C 2372.06 0.347608 7.69215 0
M  V30 14595 C 2372.79 -0.96767 7.52806 0
M  V30 14596 O 2373 -1.21036 6.1011 0
M  V30 14597 C 2374.19 -1.04544 8.13308 0
M  V30 14598 O 2374.58 -2.38311 8.41922 0
M  V30 14599 C 2375.07 -0.491279 7.02284 0
M  V30 14600 C 2374.36 -0.996264 5.77469 0
M  V30 14601 N 2374.41 -0.0501916 4.62973 0
M  V30 14602 C 2374.33 1.32786 4.63244 0
M  V30 14603 N 2374.41 1.86957 3.44545 0
M  V30 14604 C 2374.55 0.780241 2.58481 0
M  V30 14605 C 2374.68 0.738536 1.17757 0
M  V30 14606 O 2374.7 1.66794 0.372349 0
M  V30 14607 N 2374.8 -0.58337 0.711393 0
M  V30 14608 C 2374.8 -1.70816 1.51017 0
M  V30 14609 N 2374.93 -2.87826 0.880757 0
M  V30 14610 N 2374.67 -1.67126 2.8339 0
M  V30 14611 C 2374.55 -0.401421 3.30572 0
M  V30 14612 H 2371.57 0.374722 8.67691 0
M  V30 14613 H 2371.3 0.443485 6.90277 0
M  V30 14614 H 2372.16 -1.75537 7.96793 0
M  V30 14615 H 2374.82 -1.95076 5.46529 0
M  V30 14616 H 2375.1 0.608565 7.04577 0
M  V30 14617 H 2376.09 -0.889672 7.08939 0
M  V30 14618 H 2374.26 -0.43308 9.04564 0
M  V30 14619 H 2374.21 1.91249 5.54442 0
M  V30 14620 H 2374.89 -0.718054 -0.275244 0
M  V30 14621 H 2374.93 -3.75721 1.41832 0
M  V30 14622 H 2375.03 -2.90436 -0.145468 0
M  V30 14623 P 2376.13 -2.75334 8.47391 0
M  V30 14624 O 2376.35 -3.84204 9.44982 0
M  V30 14625 O 2376.92 -1.51982 8.68909 0
M  V30 14626 O 2376.38 -3.29363 6.99321 0
M  V30 14627 C 2375.44 -4.24066 6.42823 0
M  V30 14628 C 2376.17 -5.20775 5.52155 0
M  V30 14629 O 2376.38 -4.56607 4.22514 0
M  V30 14630 C 2377.57 -5.62697 5.96604 0
M  V30 14631 O 2377.96 -6.87667 5.41053 0
M  V30 14632 C 2378.45 -4.52537 5.39283 0
M  V30 14633 C 2377.74 -4.20027 4.08623 0
M  V30 14634 N 2377.79 -2.76189 3.71603 0
M  V30 14635 C 2377.71 -1.66944 4.54297 0
M  V30 14636 N 2377.78 -0.536169 3.91344 0
M  V30 14637 C 2377.93 -0.901569 2.58849 0
M  V30 14638 C 2378.06 -0.146599 1.40236 0
M  V30 14639 N 2378.07 1.18234 1.37046 0
M  V30 14640 N 2378.18 -0.822941 0.249738 0
M  V30 14641 C 2378.17 -2.15179 0.280525 0
M  V30 14642 N 2378.05 -2.96414 1.30822 0
M  V30 14643 C 2377.93 -2.25804 2.44748 0
M  V30 14644 H 2374.95 -4.79756 7.24086 0
M  V30 14645 H 2374.68 -3.69963 5.84682 0
M  V30 14646 H 2375.54 -6.10431 5.41508 0
M  V30 14647 H 2378.2 -4.78816 3.28024 0
M  V30 14648 H 2378.48 -3.64957 6.05871 0
M  V30 14649 H 2379.47 -4.88748 5.21323 0
M  V30 14650 H 2377.64 -5.66789 7.0643 0
M  V30 14651 H 2377.59 -1.74684 5.62396 0
M  V30 14652 H 2377.98 1.71949 2.24394 0
M  V30 14653 H 2378.16 1.67511 0.470742 0
M  V30 14654 H 2378.27 -2.63704 -0.6828 0
M  V30 14655 P 2379.51 -7.20834 5.23717 0
M  V30 14656 O 2379.73 -8.66104 5.38572 0
M  V30 14657 O 2380.3 -6.33544 6.1349 0
M  V30 14658 O 2379.76 -6.7751 3.72168 0
M  V30 14659 C 2378.82 -7.20825 2.7076 0
M  V30 14660 C 2379.55 -7.45864 1.40599 0
M  V30 14661 O 2379.76 -6.17651 0.734225 0
M  V30 14662 C 2380.95 -8.05808 1.51899 0
M  V30 14663 O 2381.34 -8.74358 0.335205 0
M  V30 14664 C 2381.83 -6.83093 1.70294 0
M  V30 14665 C 2381.12 -5.79992 0.836974 0
M  V30 14666 N 2381.17 -4.41864 1.38293 0
M  V30 14667 C 2381.09 -3.99538 2.69438 0
M  V30 14668 N 2381.17 -2.69909 2.84277 0
M  V30 14669 C 2381.31 -2.21719 1.5408 0
M  V30 14670 C 2381.44 -0.891712 1.06628 0
M  V30 14671 N 2381.56 -0.856846 -0.334985 0
M  V30 14672 C 2381.56 -1.9641 -1.15789 0
M  V30 14673 N 2381.69 -1.72708 -2.46522 0
M  V30 14674 N 2381.43 -3.21165 -0.713741 0
M  V30 14675 C 2381.31 -3.26797 0.639748 0
M  V30 14676 H 2378.33 -8.13644 3.0377 0
M  V30 14677 H 2378.06 -6.42788 2.55485 0
M  V30 14678 H 2378.92 -8.12039 0.792769 0
M  V30 14679 P 2382.89 -8.91 5.50747e-11 0
M  V30 14680 O 2383.11 -10.1726 -0.733694 0
M  V30 14681 O 2383.68 -8.73148 1.23936 0
M  V30 14682 O 2383.14 -7.66872 -0.971405 0
M  V30 14683 C 2382.2 -7.42309 -2.04641 0
M  V30 14684 C 2382.93 -6.86059 -3.24661 0
M  V30 14685 O 2383.14 -5.42847 -3.03646 0
M  V30 14686 C 2384.33 -7.41196 -3.50753 0
M  V30 14687 O 2384.72 -7.27073 -4.86816 0
M  V30 14688 C 2385.21 -6.5273 -2.63741 0
M  V30 14689 C 2384.5 -5.1842 -2.73198 0
M  V30 14690 N 2384.55 -4.38762 -1.4784 0
M  V30 14691 H 2381.71 -8.36803 -2.32493 0
M  V30 14692 H 2381.44 -6.70197 -1.71129 0
M  V30 14693 H 2382.3 -7.03551 -4.13168 0
M  V30 14694 P 2386.27 -7.20834 -5.23717 0
M  V30 14695 O 2386.49 -7.79853 -6.57286 0
M  V30 14696 O 2387.06 -7.79239 -4.12957 0
M  V30 14697 O 2386.52 -5.63315 -5.29344 0
M  V30 14698 C 2385.58 -4.80255 -6.01876 0
M  V30 14699 C 2386.31 -3.64202 -6.65911 0
M  V30 14700 O 2386.52 -2.60694 -5.64732 0
M  V30 14701 C 2387.71 -3.93473 -7.1943 0
M  V30 14702 O 2388.1 -3.02071 -8.21205 0
M  V30 14703 C 2388.59 -3.73047 -5.97036 0
M  V30 14704 C 2387.88 -2.58828 -5.25741 0
M  V30 14705 N 2387.93 -2.68068 -3.77503 0
M  V30 14706 H 2385.09 -5.40332 -6.79951 0
M  V30 14707 H 2384.82 -4.41613 -5.32378 0
M  V30 14708 H 2385.68 -3.26331 -7.47797 0
M  V30 14709 P 2389.65 -2.75334 -8.47391 0
M  V30 14710 O 2389.87 -2.44571 -9.90142 0
M  V30 14711 O 2390.44 -3.87688 -7.92115 0
M  V30 14712 O 2389.9 -1.4459 -7.59357 0
M  V30 14713 C 2388.96 -0.347608 -7.69215 0
M  V30 14714 C 2389.69 0.96767 -7.52806 0
M  V30 14715 O 2389.9 1.21036 -6.1011 0
M  V30 14716 C 2391.09 1.04544 -8.13308 0
M  V30 14717 O 2391.48 2.38311 -8.41922 0
M  V30 14718 C 2391.97 0.491279 -7.02284 0
M  V30 14719 C 2391.26 0.996264 -5.77469 0
M  V30 14720 N 2391.31 0.0501916 -4.62973 0
M  V30 14721 H 2388.47 -0.374722 -8.67691 0
M  V30 14722 H 2388.2 -0.443485 -6.90277 0
M  V30 14723 H 2389.06 1.75537 -7.96793 0
M  V30 14724 P 2393.03 2.75334 -8.47391 0
M  V30 14725 O 2393.25 3.84128 -9.44797 0
M  V30 14726 O 2393.82 1.51947 -8.68712 0
M  V30 14727 O 2393.28 3.29363 -6.99321 0
M  V30 14728 C 2392.34 4.24011 -6.4274 0
M  V30 14729 C 2393.07 5.20775 -5.52155 0
M  V30 14730 O 2393.28 4.56534 -4.22446 0
M  V30 14731 C 2394.47 5.62629 -5.96531 0
M  V30 14732 O 2394.86 6.87667 -5.41053 0
M  V30 14733 C 2395.35 4.52537 -5.39283 0
M  V30 14734 C 2394.64 4.20027 -4.08623 0
M  V30 14735 N 2394.69 2.76189 -3.71603 0
M  V30 14736 H 2391.85 4.797 -7.24003 0
M  V30 14737 H 2391.58 3.69856 -5.84513 0
M  V30 14738 H 2392.44 6.10356 -5.41441 0
M  V30 14739 P 2396.41 7.20834 -5.23717 0
M  V30 14740 O 2396.63 8.66189 -5.38625 0
M  V30 14741 O 2397.2 6.33615 -6.1356 0
M  V30 14742 O 2396.66 6.7751 -3.72168 0
M  V30 14743 C 2395.72 7.20732 -2.70725 0
M  V30 14744 C 2396.45 7.45864 -1.40599 0
M  V30 14745 O 2396.66 6.17651 -0.734225 0
M  V30 14746 C 2397.85 8.05808 -1.51899 0
M  V30 14747 O 2398.24 8.74358 -0.335205 0
M  V30 14748 C 2398.73 6.83093 -1.70294 0
M  V30 14749 C 2398.02 5.79992 -0.836974 0
M  V30 14750 N 2398.07 4.41769 -1.38263 0
M  V30 14751 C 2398.22 3.38591 -0.481702 0
M  V30 14752 O 2398.31 3.56839 0.718452 0
M  V30 14753 N 2398.26 2.1206 -1.03569 0
M  V30 14754 C 2398.17 1.80696 -2.36966 0
M  V30 14755 O 2398.22 0.630473 -2.74862 0
M  V30 14756 C 2398.02 2.94845 -3.23898 0
M  V30 14757 C 2397.91 2.65253 -4.70362 0
M  V30 14758 C 2397.97 4.19803 -2.73435 0
M  V30 14759 H 2395.23 8.13644 -3.0377 0
M  V30 14760 H 2394.96 6.42695 -2.55448 0
M  V30 14761 H 2395.82 8.12039 -0.792769 0
M  V30 14762 H 2398.48 5.79978 0.160587 0
M  V30 14763 H 2398.76 6.51379 -2.75643 0
M  V30 14764 H 2399.75 7.01734 -1.34462 0
M  V30 14765 H 2397.92 8.73674 -2.38337 0
M  V30 14766 H 2397.84 5.04492 -3.4095 0
M  V30 14767 H 2398.87 2.83924 -5.1913 0
M  V30 14768 H 2397.14 3.29824 -5.15163 0
M  V30 14769 H 2397.63 1.59723 -4.84449 0
M  V30 14770 H 2398.36 1.35644 -0.399345 0
M  V30 14771 P 2399.79 8.91 -5.61837e-11 0
M  V30 14772 O 2400.01 10.1726 0.733694 0
M  V30 14773 O 2400.58 8.73148 -1.23936 0
M  V30 14774 O 2400.04 7.66872 0.971405 0
M  V30 14775 C 2399.1 7.42309 2.04641 0
M  V30 14776 C 2399.83 6.86059 3.24661 0
M  V30 14777 O 2400.04 5.42847 3.03646 0
M  V30 14778 C 2401.23 7.41196 3.50753 0
M  V30 14779 O 2401.62 7.27073 4.86816 0
M  V30 14780 C 2402.11 6.5273 2.63741 0
M  V30 14781 C 2401.4 5.1842 2.73198 0
M  V30 14782 N 2401.45 4.38762 1.4784 0
M  V30 14783 H 2398.61 8.36803 2.32493 0
M  V30 14784 H 2398.34 6.70197 1.71129 0
M  V30 14785 H 2399.2 7.03551 4.13168 0
M  V30 14786 P 2403.17 7.20834 5.23717 0
M  V30 14787 O 2403.39 7.79853 6.57286 0
M  V30 14788 O 2403.96 7.79239 4.12957 0
M  V30 14789 O 2403.42 5.63315 5.29344 0
M  V30 14790 C 2402.48 4.80255 6.01876 0
M  V30 14791 C 2403.21 3.64202 6.65911 0
M  V30 14792 O 2403.42 2.60694 5.64732 0
M  V30 14793 C 2404.61 3.93473 7.1943 0
M  V30 14794 O 2405 3.02071 8.21205 0
M  V30 14795 C 2405.49 3.73047 5.97036 0
M  V30 14796 C 2404.78 2.58828 5.25741 0
M  V30 14797 N 2404.83 2.68068 3.77503 0
M  V30 14798 C 2404.75 3.79715 2.96723 0
M  V30 14799 N 2404.83 3.5377 1.68852 0
M  V30 14800 C 2404.97 2.15054 1.63254 0
M  V30 14801 C 2405.1 1.28964 0.518571 0
M  V30 14802 O 2405.12 1.56826 -0.679156 0
M  V30 14803 N 2405.22 -0.0538097 0.918425 0
M  V30 14804 C 2405.22 -0.494275 2.22578 0
M  V30 14805 N 2405.35 -1.81086 2.40434 0
M  V30 14806 N 2405.09 0.313645 3.27502 0
M  V30 14807 C 2404.97 1.61829 2.91033 0
M  V30 14808 H 2401.99 5.40332 6.79951 0
M  V30 14809 H 2401.72 4.41613 5.32378 0
M  V30 14810 H 2402.58 3.26331 7.47797 0
M  V30 14811 H 2405.24 1.63422 5.56814 0
M  V30 14812 H 2405.52 4.63374 5.34244 0
M  V30 14813 H 2406.51 3.44728 6.25838 0
M  V30 14814 H 2404.68 4.96652 7.57263 0
M  V30 14815 H 2404.63 4.80617 3.3614 0
M  V30 14816 H 2405.31 -0.742702 0.199384 0
M  V30 14817 H 2405.35 -2.20598 3.35588 0
M  V30 14818 H 2405.45 -2.43518 1.58945 0
M  V30 14819 P 2406.55 2.75334 8.47391 0
M  V30 14820 O 2406.77 2.44571 9.90142 0
M  V30 14821 O 2407.34 3.87688 7.92115 0
M  V30 14822 O 2406.8 1.4459 7.59357 0
M  V30 14823 C 2405.86 0.347608 7.69215 0
M  V30 14824 C 2406.59 -0.96767 7.52806 0
M  V30 14825 O 2406.8 -1.21036 6.1011 0
M  V30 14826 C 2407.99 -1.04544 8.13308 0
M  V30 14827 O 2408.38 -2.38311 8.41922 0
M  V30 14828 C 2408.87 -0.491279 7.02284 0
M  V30 14829 C 2408.16 -0.996264 5.77469 0
M  V30 14830 N 2408.21 -0.0501916 4.62973 0
M  V30 14831 H 2405.37 0.374722 8.67691 0
M  V30 14832 H 2405.1 0.443485 6.90277 0
M  V30 14833 H 2405.96 -1.75537 7.96793 0
M  V30 14834 P 2409.93 -2.75334 8.47391 0
M  V30 14835 O 2410.15 -3.84204 9.44982 0
M  V30 14836 O 2410.72 -1.51982 8.68909 0
M  V30 14837 O 2410.18 -3.29363 6.99321 0
M  V30 14838 C 2409.24 -4.24066 6.42823 0
M  V30 14839 C 2409.97 -5.20775 5.52155 0
M  V30 14840 O 2410.18 -4.56607 4.22514 0
M  V30 14841 C 2411.37 -5.62697 5.96604 0
M  V30 14842 O 2411.76 -6.87667 5.41053 0
M  V30 14843 C 2412.25 -4.52537 5.39283 0
M  V30 14844 C 2411.54 -4.20027 4.08623 0
M  V30 14845 N 2411.59 -2.76189 3.71603 0
M  V30 14846 H 2408.75 -4.79756 7.24086 0
M  V30 14847 H 2408.48 -3.69963 5.84682 0
M  V30 14848 H 2409.34 -6.10431 5.41508 0
M  V30 14849 H 2412 -4.78816 3.28024 0
M  V30 14850 H 2412.28 -3.64957 6.05871 0
M  V30 14851 H 2413.27 -4.88748 5.21323 0
M  V30 14852 H 2411.44 -5.66789 7.0643 0
M  V30 14853 P 2413.31 -7.20834 5.23717 0
M  V30 14854 O 2413.53 -8.66104 5.38572 0
M  V30 14855 O 2414.1 -6.33544 6.1349 0
M  V30 14856 O 2413.56 -6.7751 3.72168 0
M  V30 14857 C 2412.62 -7.20825 2.7076 0
M  V30 14858 C 2413.35 -7.45864 1.40599 0
M  V30 14859 O 2413.56 -6.17651 0.734225 0
M  V30 14860 C 2414.75 -8.05808 1.51899 0
M  V30 14861 O 2415.14 -8.74358 0.335205 0
M  V30 14862 C 2415.63 -6.83093 1.70294 0
M  V30 14863 C 2414.92 -5.79992 0.836974 0
M  V30 14864 N 2414.97 -4.41864 1.38293 0
M  V30 14865 H 2412.13 -8.13644 3.0377 0
M  V30 14866 H 2411.86 -6.42788 2.55485 0
M  V30 14867 H 2412.72 -8.12039 0.792769 0
M  V30 14868 P 2416.69 -8.91 5.72927e-11 0
M  V30 14869 O 2416.91 -10.1726 -0.733694 0
M  V30 14870 O 2417.48 -8.73148 1.23936 0
M  V30 14871 O 2416.94 -7.66872 -0.971405 0
M  V30 14872 C 2416 -7.42309 -2.04641 0
M  V30 14873 C 2416.73 -6.86059 -3.24661 0
M  V30 14874 O 2416.94 -5.42847 -3.03646 0
M  V30 14875 C 2418.13 -7.41196 -3.50753 0
M  V30 14876 O 2418.52 -7.27073 -4.86816 0
M  V30 14877 C 2419.01 -6.5273 -2.63741 0
M  V30 14878 C 2418.3 -5.1842 -2.73198 0
M  V30 14879 N 2418.35 -4.38762 -1.4784 0
M  V30 14880 H 2415.51 -8.36803 -2.32493 0
M  V30 14881 H 2415.24 -6.70197 -1.71129 0
M  V30 14882 H 2416.1 -7.03551 -4.13168 0
M  V30 14883 P 2420.07 -7.20834 -5.23717 0
M  V30 14884 O 2420.29 -7.79853 -6.57286 0
M  V30 14885 O 2420.86 -7.79239 -4.12957 0
M  V30 14886 O 2420.32 -5.63315 -5.29344 0
M  V30 14887 C 2419.38 -4.80255 -6.01876 0
M  V30 14888 C 2420.11 -3.64202 -6.65911 0
M  V30 14889 O 2420.32 -2.60694 -5.64732 0
M  V30 14890 C 2421.51 -3.93473 -7.1943 0
M  V30 14891 O 2421.9 -3.02071 -8.21205 0
M  V30 14892 C 2422.39 -3.73047 -5.97036 0
M  V30 14893 C 2421.68 -2.58828 -5.25741 0
M  V30 14894 N 2421.73 -2.68068 -3.77503 0
M  V30 14895 H 2418.89 -5.40332 -6.79951 0
M  V30 14896 H 2418.62 -4.41613 -5.32378 0
M  V30 14897 H 2419.48 -3.26331 -7.47797 0
M  V30 14898 P 2423.45 -2.75334 -8.47391 0
M  V30 14899 O 2423.67 -2.44571 -9.90142 0
M  V30 14900 O 2424.24 -3.87688 -7.92115 0
M  V30 14901 O 2423.7 -1.4459 -7.59357 0
M  V30 14902 C 2422.76 -0.347608 -7.69215 0
M  V30 14903 C 2423.49 0.96767 -7.52806 0
M  V30 14904 O 2423.7 1.21036 -6.1011 0
M  V30 14905 C 2424.89 1.04544 -8.13308 0
M  V30 14906 O 2425.28 2.38311 -8.41922 0
M  V30 14907 C 2425.77 0.491279 -7.02284 0
M  V30 14908 C 2425.06 0.996264 -5.77469 0
M  V30 14909 N 2425.11 0.0501916 -4.62973 0
M  V30 14910 H 2422.27 -0.374722 -8.67691 0
M  V30 14911 H 2422 -0.443485 -6.90277 0
M  V30 14912 H 2422.86 1.75537 -7.96793 0
M  V30 14913 P 2426.83 2.75334 -8.47391 0
M  V30 14914 O 2427.05 3.84128 -9.44797 0
M  V30 14915 O 2427.62 1.51947 -8.68712 0
M  V30 14916 O 2427.08 3.29363 -6.99321 0
M  V30 14917 C 2426.14 4.24011 -6.4274 0
M  V30 14918 C 2426.87 5.20775 -5.52155 0
M  V30 14919 O 2427.08 4.56534 -4.22446 0
M  V30 14920 C 2428.27 5.62629 -5.96531 0
M  V30 14921 O 2428.66 6.87667 -5.41053 0
M  V30 14922 C 2429.15 4.52537 -5.39283 0
M  V30 14923 C 2428.44 4.20027 -4.08623 0
M  V30 14924 N 2428.49 2.76189 -3.71603 0
M  V30 14925 H 2425.65 4.797 -7.24003 0
M  V30 14926 H 2425.38 3.69856 -5.84513 0
M  V30 14927 H 2426.24 6.10356 -5.41441 0
M  V30 14928 P 2430.21 7.20834 -5.23717 0
M  V30 14929 O 2430.43 8.66104 -5.38572 0
M  V30 14930 O 2431 6.33544 -6.1349 0
M  V30 14931 O 2430.46 6.7751 -3.72168 0
M  V30 14932 C 2429.52 7.20825 -2.7076 0
M  V30 14933 C 2430.25 7.45864 -1.40599 0
M  V30 14934 O 2430.46 6.17651 -0.734225 0
M  V30 14935 C 2431.65 8.05808 -1.51899 0
M  V30 14936 O 2432.04 8.74358 -0.335205 0
M  V30 14937 C 2432.53 6.83093 -1.70294 0
M  V30 14938 C 2431.82 5.79992 -0.836974 0
M  V30 14939 N 2431.87 4.41864 -1.38293 0
M  V30 14940 H 2429.03 8.13644 -3.0377 0
M  V30 14941 H 2428.76 6.42788 -2.55485 0
M  V30 14942 H 2429.62 8.12039 -0.792769 0
M  V30 14943 P 2433.59 8.91 -5.84017e-11 0
M  V30 14944 O 2433.81 10.1726 0.733694 0
M  V30 14945 O 2434.38 8.73148 -1.23936 0
M  V30 14946 O 2433.84 7.66872 0.971405 0
M  V30 14947 C 2432.9 7.42309 2.04641 0
M  V30 14948 C 2433.63 6.86059 3.24661 0
M  V30 14949 O 2433.84 5.42847 3.03646 0
M  V30 14950 C 2435.03 7.41196 3.50753 0
M  V30 14951 O 2435.42 7.27073 4.86816 0
M  V30 14952 C 2435.91 6.5273 2.63741 0
M  V30 14953 C 2435.2 5.1842 2.73198 0
M  V30 14954 N 2435.25 4.38762 1.4784 0
M  V30 14955 H 2432.41 8.36803 2.32493 0
M  V30 14956 H 2432.14 6.70197 1.71129 0
M  V30 14957 H 2433 7.03551 4.13168 0
M  V30 14958 P 2436.97 7.20834 5.23717 0
M  V30 14959 O 2437.19 7.79853 6.57286 0
M  V30 14960 O 2437.76 7.79239 4.12957 0
M  V30 14961 O 2437.22 5.63315 5.29344 0
M  V30 14962 C 2436.28 4.80255 6.01876 0
M  V30 14963 C 2437.01 3.64202 6.65911 0
M  V30 14964 O 2437.22 2.60694 5.64732 0
M  V30 14965 C 2438.41 3.93473 7.1943 0
M  V30 14966 O 2438.8 3.02071 8.21205 0
M  V30 14967 C 2439.29 3.73047 5.97036 0
M  V30 14968 C 2438.58 2.58828 5.25741 0
M  V30 14969 N 2438.63 2.68068 3.77503 0
M  V30 14970 H 2435.79 5.40332 6.79951 0
M  V30 14971 H 2435.52 4.41613 5.32378 0
M  V30 14972 H 2436.38 3.26331 7.47797 0
M  V30 14973 P 2440.35 2.75334 8.47391 0
M  V30 14974 O 2440.57 2.44571 9.90142 0
M  V30 14975 O 2441.14 3.87688 7.92115 0
M  V30 14976 O 2440.6 1.4459 7.59357 0
M  V30 14977 C 2439.66 0.347608 7.69215 0
M  V30 14978 C 2440.39 -0.96767 7.52806 0
M  V30 14979 O 2440.6 -1.21036 6.1011 0
M  V30 14980 C 2441.79 -1.04544 8.13308 0
M  V30 14981 O 2442.18 -2.38311 8.41922 0
M  V30 14982 C 2442.67 -0.491279 7.02284 0
M  V30 14983 C 2441.96 -0.996264 5.77469 0
M  V30 14984 N 2442.01 -0.0501916 4.62973 0
M  V30 14985 H 2439.17 0.374722 8.67691 0
M  V30 14986 H 2438.9 0.443485 6.90277 0
M  V30 14987 H 2439.76 -1.75537 7.96793 0
M  V30 14988 P 2443.73 -2.75334 8.47391 0
M  V30 14989 O 2443.95 -3.84204 9.44982 0
M  V30 14990 O 2444.52 -1.51982 8.68909 0
M  V30 14991 O 2443.98 -3.29363 6.99321 0
M  V30 14992 C 2443.04 -4.24066 6.42823 0
M  V30 14993 C 2443.77 -5.20775 5.52155 0
M  V30 14994 O 2443.98 -4.56607 4.22514 0
M  V30 14995 C 2445.17 -5.62697 5.96604 0
M  V30 14996 O 2445.56 -6.87667 5.41053 0
M  V30 14997 C 2446.05 -4.52537 5.39283 0
M  V30 14998 C 2445.34 -4.20027 4.08623 0
M  V30 14999 N 2445.39 -2.76189 3.71603 0
M  V30 15000 C 2445.31 -1.66944 4.54297 0
M  V30 15001 N 2445.38 -0.536169 3.91344 0
M  V30 15002 C 2445.53 -0.901569 2.58849 0
M  V30 15003 C 2445.66 -0.146599 1.40236 0
M  V30 15004 N 2445.67 1.18234 1.37046 0
M  V30 15005 N 2445.78 -0.822941 0.249738 0
M  V30 15006 C 2445.77 -2.15179 0.280525 0
M  V30 15007 N 2445.65 -2.96414 1.30822 0
M  V30 15008 C 2445.53 -2.25804 2.44748 0
M  V30 15009 H 2442.55 -4.79756 7.24086 0
M  V30 15010 H 2442.28 -3.69963 5.84682 0
M  V30 15011 H 2443.14 -6.10431 5.41508 0
M  V30 15012 H 2445.8 -4.78816 3.28024 0
M  V30 15013 H 2446.08 -3.64957 6.05871 0
M  V30 15014 H 2447.07 -4.88748 5.21323 0
M  V30 15015 H 2445.24 -5.66789 7.0643 0
M  V30 15016 H 2445.19 -1.74684 5.62396 0
M  V30 15017 H 2445.58 1.71949 2.24394 0
M  V30 15018 H 2445.76 1.67511 0.470742 0
M  V30 15019 H 2445.87 -2.63704 -0.6828 0
M  V30 15020 P 2447.11 -7.20834 5.23717 0
M  V30 15021 O 2447.33 -8.66104 5.38572 0
M  V30 15022 O 2447.9 -6.33544 6.1349 0
M  V30 15023 O 2447.36 -6.7751 3.72168 0
M  V30 15024 C 2446.42 -7.20825 2.7076 0
M  V30 15025 C 2447.15 -7.45864 1.40599 0
M  V30 15026 O 2447.36 -6.17651 0.734225 0
M  V30 15027 C 2448.55 -8.05808 1.51899 0
M  V30 15028 O 2448.94 -8.74358 0.335205 0
M  V30 15029 C 2449.43 -6.83093 1.70294 0
M  V30 15030 C 2448.72 -5.79992 0.836974 0
M  V30 15031 N 2448.77 -4.41864 1.38293 0
M  V30 15032 H 2445.93 -8.13644 3.0377 0
M  V30 15033 H 2445.66 -6.42788 2.55485 0
M  V30 15034 H 2446.52 -8.12039 0.792769 0
M  V30 15035 P 2450.49 -8.91 5.95107e-11 0
M  V30 15036 O 2450.71 -10.1726 -0.733694 0
M  V30 15037 O 2451.28 -8.73148 1.23936 0
M  V30 15038 O 2450.74 -7.66872 -0.971405 0
M  V30 15039 C 2449.8 -7.42309 -2.04641 0
M  V30 15040 C 2450.53 -6.86059 -3.24661 0
M  V30 15041 O 2450.74 -5.42847 -3.03646 0
M  V30 15042 C 2451.93 -7.41196 -3.50753 0
M  V30 15043 O 2452.32 -7.27073 -4.86816 0
M  V30 15044 C 2452.81 -6.5273 -2.63741 0
M  V30 15045 C 2452.1 -5.1842 -2.73198 0
M  V30 15046 N 2452.15 -4.38762 -1.4784 0
M  V30 15047 H 2449.31 -8.36803 -2.32493 0
M  V30 15048 H 2449.04 -6.70197 -1.71129 0
M  V30 15049 H 2449.9 -7.03551 -4.13168 0
M  V30 15050 P 2453.87 -7.20834 -5.23717 0
M  V30 15051 O 2454.09 -7.7993 -6.57351 0
M  V30 15052 O 2454.66 -7.79328 -4.13004 0
M  V30 15053 O 2454.12 -5.63315 -5.29344 0
M  V30 15054 C 2453.18 -4.80193 -6.01798 0
M  V30 15055 C 2453.91 -3.64202 -6.65911 0
M  V30 15056 O 2454.12 -2.60694 -5.64732 0
M  V30 15057 C 2455.31 -3.93473 -7.1943 0
M  V30 15058 O 2455.7 -3.02071 -8.21205 0
M  V30 15059 C 2456.19 -3.73047 -5.97036 0
M  V30 15060 C 2455.48 -2.58828 -5.25741 0
M  V30 15061 N 2455.53 -2.6801 -3.77422 0
M  V30 15062 C 2455.68 -1.50443 -3.07133 0
M  V30 15063 O 2455.77 -0.419406 -3.61576 0
M  V30 15064 N 2455.72 -1.6403 -1.69677 0
M  V30 15065 C 2455.63 -2.81206 -0.986255 0
M  V30 15066 C 2455.48 -3.99158 -1.80325 0
M  V30 15067 C 2455.43 -3.89779 -3.1476 0
M  V30 15068 H 2452.69 -5.40332 -6.79951 0
M  V30 15069 H 2452.42 -4.41549 -5.32301 0
M  V30 15070 H 2453.28 -3.26331 -7.47797 0
M  V30 15071 H 2455.94 -1.6395 -5.56554 0
M  V30 15072 H 2456.22 -4.63439 -5.3432 0
M  V30 15073 H 2457.21 -3.44728 -6.25838 0
M  V30 15074 H 2455.38 -4.96652 -7.57263 0
M  V30 15075 H 2455.3 -4.80159 -3.74441 0
M  V30 15076 P 2457.25 -2.75334 -8.47391 0
M  V30 15077 O 2457.47 -2.44571 -9.90142 0
M  V30 15078 O 2458.04 -3.87688 -7.92115 0
M  V30 15079 O 2457.5 -1.4459 -7.59357 0
M  V30 15080 C 2456.56 -0.347608 -7.69215 0
M  V30 15081 C 2457.29 0.96767 -7.52806 0
M  V30 15082 O 2457.5 1.21036 -6.1011 0
M  V30 15083 C 2458.69 1.04544 -8.13308 0
M  V30 15084 O 2459.08 2.38311 -8.41922 0
M  V30 15085 C 2459.57 0.491279 -7.02284 0
M  V30 15086 C 2458.86 0.996264 -5.77469 0
M  V30 15087 N 2458.91 0.0501916 -4.62973 0
M  V30 15088 H 2456.07 -0.374722 -8.67691 0
M  V30 15089 H 2455.8 -0.443485 -6.90277 0
M  V30 15090 H 2456.66 1.75537 -7.96793 0
M  V30 15091 P 2460.63 2.75334 -8.47391 0
M  V30 15092 O 2460.85 3.84128 -9.44797 0
M  V30 15093 O 2461.42 1.51947 -8.68712 0
M  V30 15094 O 2460.88 3.29363 -6.99321 0
M  V30 15095 C 2459.94 4.24011 -6.4274 0
M  V30 15096 C 2460.67 5.20775 -5.52155 0
M  V30 15097 O 2460.88 4.56534 -4.22446 0
M  V30 15098 C 2462.07 5.62629 -5.96531 0
M  V30 15099 O 2462.46 6.87667 -5.41053 0
M  V30 15100 C 2462.95 4.52537 -5.39283 0
M  V30 15101 C 2462.24 4.20027 -4.08623 0
M  V30 15102 N 2462.29 2.76189 -3.71603 0
M  V30 15103 H 2459.45 4.797 -7.24003 0
M  V30 15104 H 2459.18 3.69856 -5.84513 0
M  V30 15105 H 2460.04 6.10356 -5.41441 0
M  V30 15106 P 2464.01 7.20834 -5.23717 0
M  V30 15107 O 2464.23 8.66104 -5.38572 0
M  V30 15108 O 2464.8 6.33544 -6.1349 0
M  V30 15109 O 2464.26 6.7751 -3.72168 0
M  V30 15110 C 2463.32 7.20825 -2.7076 0
M  V30 15111 C 2464.05 7.45864 -1.40599 0
M  V30 15112 O 2464.26 6.17651 -0.734225 0
M  V30 15113 C 2465.45 8.05808 -1.51899 0
M  V30 15114 O 2465.84 8.74358 -0.335205 0
M  V30 15115 C 2466.33 6.83093 -1.70294 0
M  V30 15116 C 2465.62 5.79992 -0.836974 0
M  V30 15117 N 2465.67 4.41864 -1.38293 0
M  V30 15118 H 2462.83 8.13644 -3.0377 0
M  V30 15119 H 2462.56 6.42788 -2.55485 0
M  V30 15120 H 2463.42 8.12039 -0.792769 0
M  V30 15121 P 2467.39 8.91 -6.06197e-11 0
M  V30 15122 O 2467.61 10.1726 0.733694 0
M  V30 15123 O 2468.18 8.73148 -1.23936 0
M  V30 15124 O 2467.64 7.66872 0.971405 0
M  V30 15125 C 2466.7 7.42309 2.04641 0
M  V30 15126 C 2467.43 6.86059 3.24661 0
M  V30 15127 O 2467.64 5.42847 3.03646 0
M  V30 15128 C 2468.83 7.41196 3.50753 0
M  V30 15129 O 2469.22 7.27073 4.86816 0
M  V30 15130 C 2469.71 6.5273 2.63741 0
M  V30 15131 C 2469 5.1842 2.73198 0
M  V30 15132 N 2469.05 4.38762 1.4784 0
M  V30 15133 H 2466.21 8.36803 2.32493 0
M  V30 15134 H 2465.94 6.70197 1.71129 0
M  V30 15135 H 2466.8 7.03551 4.13168 0
M  V30 15136 P 2470.77 7.20834 5.23717 0
M  V30 15137 O 2470.99 7.79853 6.57286 0
M  V30 15138 O 2471.56 7.79239 4.12957 0
M  V30 15139 O 2471.02 5.63315 5.29344 0
M  V30 15140 C 2470.08 4.80255 6.01876 0
M  V30 15141 C 2470.81 3.64202 6.65911 0
M  V30 15142 O 2471.02 2.60694 5.64732 0
M  V30 15143 C 2472.21 3.93473 7.1943 0
M  V30 15144 O 2472.6 3.02071 8.21205 0
M  V30 15145 C 2473.09 3.73047 5.97036 0
M  V30 15146 C 2472.38 2.58828 5.25741 0
M  V30 15147 N 2472.43 2.68068 3.77503 0
M  V30 15148 H 2469.59 5.40332 6.79951 0
M  V30 15149 H 2469.32 4.41613 5.32378 0
M  V30 15150 H 2470.18 3.26331 7.47797 0
M  V30 15151 P 2474.15 2.75334 8.47391 0
M  V30 15152 O 2474.37 2.44619 9.90336 0
M  V30 15153 O 2474.94 3.87776 7.92294 0
M  V30 15154 O 2474.4 1.4459 7.59357 0
M  V30 15155 C 2473.46 0.347653 7.69315 0
M  V30 15156 C 2474.19 -0.96767 7.52806 0
M  V30 15157 O 2474.4 -1.21055 6.10208 0
M  V30 15158 C 2475.59 -1.04557 8.13408 0
M  V30 15159 O 2475.98 -2.38311 8.41922 0
M  V30 15160 C 2476.47 -0.491279 7.02284 0
M  V30 15161 C 2475.76 -0.996264 5.77469 0
M  V30 15162 N 2475.81 -0.0501916 4.62973 0
M  V30 15163 C 2475.73 1.31969 4.65661 0
M  V30 15164 N 2475.8 1.86649 3.48119 0
M  V30 15165 C 2475.95 0.792089 2.62406 0
M  V30 15166 C 2476.08 0.705684 1.2207 0
M  V30 15167 N 2476.09 1.76207 0.413762 0
M  V30 15168 N 2476.2 -0.518981 0.685754 0
M  V30 15169 C 2476.19 -1.57595 1.49174 0
M  V30 15170 N 2476.07 -1.62909 2.80066 0
M  V30 15171 C 2475.95 -0.388195 3.3073 0
M  V30 15172 H 2472.97 0.374765 8.67791 0
M  V30 15173 H 2472.7 0.443613 6.90476 0
M  V30 15174 H 2473.56 -1.75559 7.96891 0
M  V30 15175 H 2476.22 -1.94563 5.46818 0
M  V30 15176 H 2476.5 0.608651 7.04676 0
M  V30 15177 H 2477.49 -0.889796 7.09039 0
M  V30 15178 H 2475.66 -0.433128 9.04664 0
M  V30 15179 H 2475.61 1.89246 5.57664 0
M  V30 15180 H 2476 2.71005 0.804694 0
M  V30 15181 H 2476.18 1.63189 -0.603768 0
M  V30 15182 H 2476.29 -2.53475 0.997614 0
M  V30 15183 P 2477.53 -2.75334 8.47391 0
M  V30 15184 O 2477.75 -3.84204 9.44982 0
M  V30 15185 O 2478.32 -1.51982 8.68909 0
M  V30 15186 O 2477.78 -3.29363 6.99321 0
M  V30 15187 C 2476.84 -4.24066 6.42823 0
M  V30 15188 C 2477.57 -5.20775 5.52155 0
M  V30 15189 O 2477.78 -4.56607 4.22514 0
M  V30 15190 C 2478.97 -5.62697 5.96604 0
M  V30 15191 O 2479.36 -6.87667 5.41053 0
M  V30 15192 C 2479.85 -4.52537 5.39283 0
M  V30 15193 C 2479.14 -4.20027 4.08623 0
M  V30 15194 N 2479.19 -2.76189 3.71603 0
M  V30 15195 H 2476.35 -4.79756 7.24086 0
M  V30 15196 H 2476.08 -3.69963 5.84682 0
M  V30 15197 H 2476.94 -6.10431 5.41508 0
M  V30 15198 H 2479.6 -4.78816 3.28024 0
M  V30 15199 H 2479.88 -3.64957 6.05871 0
M  V30 15200 H 2480.87 -4.88748 5.21323 0
M  V30 15201 H 2479.04 -5.66789 7.0643 0
M  V30 15202 P 2480.91 -7.20834 5.23717 0
M  V30 15203 O 2481.13 -8.66104 5.38572 0
M  V30 15204 O 2481.7 -6.33544 6.1349 0
M  V30 15205 O 2481.16 -6.7751 3.72168 0
M  V30 15206 C 2480.22 -7.20825 2.7076 0
M  V30 15207 C 2480.95 -7.45864 1.40599 0
M  V30 15208 O 2481.16 -6.17651 0.734225 0
M  V30 15209 C 2482.35 -8.05808 1.51899 0
M  V30 15210 O 2482.74 -8.74358 0.335205 0
M  V30 15211 C 2483.23 -6.83093 1.70294 0
M  V30 15212 C 2482.52 -5.79992 0.836974 0
M  V30 15213 N 2482.57 -4.41864 1.38293 0
M  V30 15214 H 2479.73 -8.13644 3.0377 0
M  V30 15215 H 2479.46 -6.42788 2.55485 0
M  V30 15216 H 2480.32 -8.12039 0.792769 0
M  V30 15217 P 2484.29 -8.91 6.17288e-11 0
M  V30 15218 O 2484.51 -10.1726 -0.733694 0
M  V30 15219 O 2485.08 -8.73148 1.23936 0
M  V30 15220 O 2484.54 -7.66872 -0.971405 0
M  V30 15221 C 2483.6 -7.42309 -2.04641 0
M  V30 15222 C 2484.33 -6.86059 -3.24661 0
M  V30 15223 O 2484.54 -5.42847 -3.03646 0
M  V30 15224 C 2485.73 -7.41196 -3.50753 0
M  V30 15225 O 2486.12 -7.27073 -4.86816 0
M  V30 15226 C 2486.61 -6.5273 -2.63741 0
M  V30 15227 C 2485.9 -5.1842 -2.73198 0
M  V30 15228 N 2485.95 -4.38762 -1.4784 0
M  V30 15229 H 2483.11 -8.36803 -2.32493 0
M  V30 15230 H 2482.84 -6.70197 -1.71129 0
M  V30 15231 H 2483.7 -7.03551 -4.13168 0
M  V30 15232 P 2487.67 -7.20834 -5.23717 0
M  V30 15233 O 2487.89 -7.7993 -6.57351 0
M  V30 15234 O 2488.46 -7.79328 -4.13004 0
M  V30 15235 O 2487.92 -5.63315 -5.29344 0
M  V30 15236 C 2486.98 -4.80255 -6.01876 0
M  V30 15237 C 2487.71 -3.64202 -6.65911 0
M  V30 15238 O 2487.92 -2.60694 -5.64732 0
M  V30 15239 C 2489.11 -3.93473 -7.1943 0
M  V30 15240 O 2489.5 -3.02071 -8.21205 0
M  V30 15241 C 2489.99 -3.73047 -5.97036 0
M  V30 15242 C 2489.28 -2.58828 -5.25741 0
M  V30 15243 N 2489.33 -2.6801 -3.77422 0
M  V30 15244 C 2489.48 -1.50173 -3.05038 0
M  V30 15245 O 2489.57 -0.428832 -3.665 0
M  V30 15246 N 2489.53 -1.70922 -1.55541 0
M  V30 15247 C 2489.43 -2.7407 -1.06402 0
M  V30 15248 N 2489.48 -2.74764 0.260931 0
M  V30 15249 C 2489.28 -3.96781 -1.78296 0
M  V30 15250 C 2489.23 -3.87909 -3.13891 0
M  V30 15251 H 2486.49 -5.4027 -6.79873 0
M  V30 15252 H 2486.22 -4.41549 -5.32301 0
M  V30 15253 H 2487.08 -3.26371 -7.47889 0
M  V30 15254 H 2489.74 -1.63978 -5.5665 0
M  V30 15255 H 2490.02 -4.63439 -5.3432 0
M  V30 15256 H 2491.01 -3.44728 -6.25838 0
M  V30 15257 H 2489.18 -4.96652 -7.57263 0
M  V30 15258 H 2489.1 -4.78425 -3.73088 0
M  V30 15259 H 2489.21 -4.92593 -1.26997 0
M  V30 15260 H 2489.59 -1.86285 0.77595 0
M  V30 15261 H 2489.4 -3.63657 0.773896 0
M  V30 15262 P 2491.05 -2.75334 -8.47391 0
M  V30 15263 O 2491.27 -2.44571 -9.90142 0
M  V30 15264 O 2491.84 -3.87688 -7.92115 0
M  V30 15265 O 2491.3 -1.4459 -7.59357 0
M  V30 15266 C 2490.36 -0.347608 -7.69215 0
M  V30 15267 C 2491.09 0.96767 -7.52806 0
M  V30 15268 O 2491.3 1.21036 -6.1011 0
M  V30 15269 C 2492.49 1.04544 -8.13308 0
M  V30 15270 O 2492.88 2.38311 -8.41922 0
M  V30 15271 C 2493.37 0.491279 -7.02284 0
M  V30 15272 C 2492.66 0.996264 -5.77469 0
M  V30 15273 N 2492.71 0.0501916 -4.62973 0
M  V30 15274 H 2489.87 -0.374722 -8.67691 0
M  V30 15275 H 2489.6 -0.443485 -6.90277 0
M  V30 15276 H 2490.46 1.75537 -7.96793 0
M  V30 15277 P 2494.43 2.75334 -8.47391 0
M  V30 15278 O 2494.65 3.84128 -9.44797 0
M  V30 15279 O 2495.22 1.51947 -8.68712 0
M  V30 15280 O 2494.68 3.29363 -6.99321 0
M  V30 15281 C 2493.74 4.24011 -6.4274 0
M  V30 15282 C 2494.47 5.20775 -5.52155 0
M  V30 15283 O 2494.68 4.56534 -4.22446 0
M  V30 15284 C 2495.87 5.62629 -5.96531 0
M  V30 15285 O 2496.26 6.87667 -5.41053 0
M  V30 15286 C 2496.75 4.52537 -5.39283 0
M  V30 15287 C 2496.04 4.20027 -4.08623 0
M  V30 15288 N 2496.09 2.76189 -3.71603 0
M  V30 15289 H 2493.25 4.797 -7.24003 0
M  V30 15290 H 2492.98 3.69856 -5.84513 0
M  V30 15291 H 2493.84 6.10356 -5.41441 0
M  V30 15292 P 2497.81 7.20834 -5.23717 0
M  V30 15293 O 2498.03 8.66189 -5.38625 0
M  V30 15294 O 2498.6 6.33615 -6.1356 0
M  V30 15295 O 2498.06 6.7751 -3.72168 0
M  V30 15296 C 2497.12 7.20732 -2.70725 0
M  V30 15297 C 2497.85 7.45864 -1.40599 0
M  V30 15298 O 2498.06 6.17651 -0.734225 0
M  V30 15299 C 2499.25 8.05808 -1.51899 0
M  V30 15300 O 2499.64 8.74358 -0.335205 0
M  V30 15301 C 2500.13 6.83093 -1.70294 0
M  V30 15302 C 2499.42 5.79992 -0.836974 0
M  V30 15303 N 2499.47 4.41769 -1.38263 0
M  V30 15304 C 2499.62 3.38591 -0.481702 0
M  V30 15305 O 2499.71 3.56839 0.718452 0
M  V30 15306 N 2499.66 2.1206 -1.03569 0
M  V30 15307 C 2499.57 1.80696 -2.36966 0
M  V30 15308 O 2499.62 0.630473 -2.74862 0
M  V30 15309 C 2499.42 2.94845 -3.23898 0
M  V30 15310 C 2499.31 2.65253 -4.70362 0
M  V30 15311 C 2499.37 4.19803 -2.73435 0
M  V30 15312 H 2496.63 8.13644 -3.0377 0
M  V30 15313 H 2496.36 6.42695 -2.55448 0
M  V30 15314 H 2497.22 8.12039 -0.792769 0
M  V30 15315 H 2499.88 5.79978 0.160587 0
M  V30 15316 H 2500.16 6.51379 -2.75643 0
M  V30 15317 H 2501.15 7.01734 -1.34462 0
M  V30 15318 H 2499.32 8.73674 -2.38337 0
M  V30 15319 H 2499.24 5.04492 -3.4095 0
M  V30 15320 H 2500.27 2.83924 -5.1913 0
M  V30 15321 H 2498.54 3.29824 -5.15163 0
M  V30 15322 H 2499.03 1.59723 -4.84449 0
M  V30 15323 H 2499.76 1.35644 -0.399345 0
M  V30 15324 P 2501.19 8.91 -6.28378e-11 0
M  V30 15325 O 2501.41 10.1726 0.733694 0
M  V30 15326 O 2501.98 8.73148 -1.23936 0
M  V30 15327 O 2501.44 7.66872 0.971405 0
M  V30 15328 C 2500.5 7.42309 2.04641 0
M  V30 15329 C 2501.23 6.86059 3.24661 0
M  V30 15330 O 2501.44 5.42847 3.03646 0
M  V30 15331 C 2502.63 7.41196 3.50753 0
M  V30 15332 O 2503.02 7.27073 4.86816 0
M  V30 15333 C 2503.51 6.5273 2.63741 0
M  V30 15334 C 2502.8 5.1842 2.73198 0
M  V30 15335 N 2502.85 4.38762 1.4784 0
M  V30 15336 H 2500.01 8.36803 2.32493 0
M  V30 15337 H 2499.74 6.70197 1.71129 0
M  V30 15338 H 2500.6 7.03551 4.13168 0
M  V30 15339 P 2504.57 7.20834 5.23717 0
M  V30 15340 O 2504.79 7.79853 6.57286 0
M  V30 15341 O 2505.36 7.79239 4.12957 0
M  V30 15342 O 2504.82 5.63315 5.29344 0
M  V30 15343 C 2503.88 4.80255 6.01876 0
M  V30 15344 C 2504.61 3.64202 6.65911 0
M  V30 15345 O 2504.82 2.60694 5.64732 0
M  V30 15346 C 2506.01 3.93473 7.1943 0
M  V30 15347 O 2506.4 3.02071 8.21205 0
M  V30 15348 C 2506.89 3.73047 5.97036 0
M  V30 15349 C 2506.18 2.58828 5.25741 0
M  V30 15350 N 2506.23 2.68068 3.77503 0
M  V30 15351 H 2503.39 5.40332 6.79951 0
M  V30 15352 H 2503.12 4.41613 5.32378 0
M  V30 15353 H 2503.98 3.26331 7.47797 0
M  V30 15354 P 2507.95 2.75334 8.47391 0
M  V30 15355 O 2508.17 2.44571 9.90142 0
M  V30 15356 O 2508.74 3.87688 7.92115 0
M  V30 15357 O 2508.2 1.4459 7.59357 0
M  V30 15358 C 2507.26 0.347608 7.69215 0
M  V30 15359 C 2507.99 -0.96767 7.52806 0
M  V30 15360 O 2508.2 -1.21036 6.1011 0
M  V30 15361 C 2509.39 -1.04544 8.13308 0
M  V30 15362 O 2509.78 -2.38311 8.41922 0
M  V30 15363 C 2510.27 -0.491279 7.02284 0
M  V30 15364 C 2509.56 -0.996264 5.77469 0
M  V30 15365 N 2509.61 -0.0501916 4.62973 0
M  V30 15366 H 2506.77 0.374722 8.67691 0
M  V30 15367 H 2506.5 0.443485 6.90277 0
M  V30 15368 H 2507.36 -1.75537 7.96793 0
M  V30 15369 P 2511.33 -2.75334 8.47391 0
M  V30 15370 O 2511.55 -3.84128 9.44797 0
M  V30 15371 O 2512.12 -1.51947 8.68712 0
M  V30 15372 O 2511.58 -3.29363 6.99321 0
M  V30 15373 C 2510.64 -4.24011 6.4274 0
M  V30 15374 C 2511.37 -5.20775 5.52155 0
M  V30 15375 O 2511.58 -4.56534 4.22446 0
M  V30 15376 C 2512.77 -5.62629 5.96531 0
M  V30 15377 O 2513.16 -6.87667 5.41053 0
M  V30 15378 C 2513.65 -4.52537 5.39283 0
M  V30 15379 C 2512.94 -4.20027 4.08623 0
M  V30 15380 N 2512.99 -2.76189 3.71603 0
M  V30 15381 C 2512.91 -1.64862 4.52822 0
M  V30 15382 N 2512.99 -0.512671 3.88633 0
M  V30 15383 C 2513.13 -0.888083 2.54977 0
M  V30 15384 C 2513.26 -0.094668 1.38677 0
M  V30 15385 N 2513.38 -0.890102 0.232633 0
M  V30 15386 C 2513.38 -2.26958 0.21772 0
M  V30 15387 N 2513.51 -2.84626 -0.97925 0
M  V30 15388 N 2513.25 -3.0178 1.31033 0
M  V30 15389 C 2513.13 -2.26781 2.43843 0
M  V30 15390 H 2510.15 -4.797 7.24003 0
M  V30 15391 H 2509.88 -3.69856 5.84513 0
M  V30 15392 H 2510.74 -6.10356 5.41441 0
M  V30 15393 P 2514.71 -7.20834 5.23717 0
M  V30 15394 O 2514.93 -8.66104 5.38572 0
M  V30 15395 O 2515.5 -6.33544 6.1349 0
M  V30 15396 O 2514.96 -6.7751 3.72168 0
M  V30 15397 C 2514.02 -7.20825 2.7076 0
M  V30 15398 C 2514.75 -7.45864 1.40599 0
M  V30 15399 O 2514.96 -6.17651 0.734225 0
M  V30 15400 C 2516.15 -8.05808 1.51899 0
M  V30 15401 O 2516.54 -8.74358 0.335205 0
M  V30 15402 C 2517.03 -6.83093 1.70294 0
M  V30 15403 C 2516.32 -5.79992 0.836974 0
M  V30 15404 N 2516.37 -4.41864 1.38293 0
M  V30 15405 H 2513.53 -8.13644 3.0377 0
M  V30 15406 H 2513.26 -6.42788 2.55485 0
M  V30 15407 H 2514.12 -8.12039 0.792769 0
M  V30 15408 P 2518.09 -8.91 6.39468e-11 0
M  V30 15409 O 2518.31 -10.1726 -0.733694 0
M  V30 15410 O 2518.88 -8.73148 1.23936 0
M  V30 15411 O 2518.34 -7.66872 -0.971405 0
M  V30 15412 C 2517.4 -7.42309 -2.04641 0
M  V30 15413 C 2518.13 -6.86059 -3.24661 0
M  V30 15414 O 2518.34 -5.42847 -3.03646 0
M  V30 15415 C 2519.53 -7.41196 -3.50753 0
M  V30 15416 O 2519.92 -7.27073 -4.86816 0
M  V30 15417 C 2520.41 -6.5273 -2.63741 0
M  V30 15418 C 2519.7 -5.1842 -2.73198 0
M  V30 15419 N 2519.75 -4.38762 -1.4784 0
M  V30 15420 H 2516.91 -8.36803 -2.32493 0
M  V30 15421 H 2516.64 -6.70197 -1.71129 0
M  V30 15422 H 2517.5 -7.03551 -4.13168 0
M  V30 15423 P 2521.47 -7.20834 -5.23717 0
M  V30 15424 O 2521.69 -7.80006 -6.57415 0
M  V30 15425 O 2522.26 -7.79416 -4.13051 0
M  V30 15426 O 2521.72 -5.63315 -5.29344 0
M  V30 15427 C 2520.78 -4.80318 -6.01954 0
M  V30 15428 C 2521.51 -3.64202 -6.65911 0
M  V30 15429 O 2521.72 -2.60736 -5.64823 0
M  V30 15430 C 2522.91 -3.93521 -7.19518 0
M  V30 15431 O 2523.3 -3.02071 -8.21205 0
M  V30 15432 C 2523.79 -3.73047 -5.97036 0
M  V30 15433 C 2523.08 -2.58828 -5.25741 0
M  V30 15434 N 2523.13 -2.68068 -3.77503 0
M  V30 15435 C 2523.05 -3.80474 -2.99159 0
M  V30 15436 N 2523.12 -3.55622 -1.71925 0
M  V30 15437 C 2523.27 -2.1832 -1.65733 0
M  V30 15438 C 2523.4 -1.28842 -0.572777 0
M  V30 15439 N 2523.41 -1.66875 0.70098 0
M  V30 15440 N 2523.52 0.016788 -0.859836 0
M  V30 15441 C 2523.51 0.398145 -2.13316 0
M  V30 15442 N 2523.39 -0.328224 -3.22333 0
M  V30 15443 C 2523.27 -1.62992 -2.90383 0
M  V30 15444 H 2520.29 -5.40394 -6.8003 0
M  V30 15445 H 2520.02 -4.41741 -5.32532 0
M  V30 15446 H 2520.88 -3.26371 -7.47889 0
M  V30 15447 H 2523.54 -1.64007 -5.56746 0
M  V30 15448 H 2523.82 -4.63439 -5.3432 0
M  V30 15449 H 2524.81 -3.44776 -6.25925 0
M  V30 15450 H 2522.98 -4.96707 -7.57347 0
M  V30 15451 H 2522.93 -4.8089 -3.39924 0
M  V30 15452 H 2523.32 -2.66547 0.941919 0
M  V30 15453 H 2523.5 -0.965341 1.44766 0
M  V30 15454 H 2523.61 1.46427 -2.29697 0
M  V30 15455 P 2524.85 -2.75334 -8.47391 0
M  V30 15456 O 2525.07 -2.44571 -9.90142 0
M  V30 15457 O 2525.64 -3.87688 -7.92115 0
M  V30 15458 O 2525.1 -1.4459 -7.59357 0
M  V30 15459 C 2524.16 -0.347608 -7.69215 0
M  V30 15460 C 2524.89 0.96767 -7.52806 0
M  V30 15461 O 2525.1 1.21036 -6.1011 0
M  V30 15462 C 2526.29 1.04544 -8.13308 0
M  V30 15463 O 2526.68 2.38311 -8.41922 0
M  V30 15464 C 2527.17 0.491279 -7.02284 0
M  V30 15465 C 2526.46 0.996264 -5.77469 0
M  V30 15466 N 2526.51 0.0501916 -4.62973 0
M  V30 15467 H 2523.67 -0.374722 -8.67691 0
M  V30 15468 H 2523.4 -0.443485 -6.90277 0
M  V30 15469 H 2524.26 1.75537 -7.96793 0
M  V30 15470 P 2528.23 2.75334 -8.47391 0
M  V30 15471 O 2528.45 3.84204 -9.44982 0
M  V30 15472 O 2529.02 1.51982 -8.68909 0
M  V30 15473 O 2528.48 3.29363 -6.99321 0
M  V30 15474 C 2527.54 4.24066 -6.42823 0
M  V30 15475 C 2528.27 5.20775 -5.52155 0
M  V30 15476 O 2528.48 4.56607 -4.22514 0
M  V30 15477 C 2529.67 5.62697 -5.96604 0
M  V30 15478 O 2530.06 6.87667 -5.41053 0
M  V30 15479 C 2530.55 4.52537 -5.39283 0
M  V30 15480 C 2529.84 4.20027 -4.08623 0
M  V30 15481 N 2529.89 2.76189 -3.71603 0
M  V30 15482 C 2529.81 1.66944 -4.54297 0
M  V30 15483 N 2529.88 0.536169 -3.91344 0
M  V30 15484 C 2530.03 0.901569 -2.58849 0
M  V30 15485 C 2530.16 0.146599 -1.40236 0
M  V30 15486 N 2530.17 -1.18234 -1.37046 0
M  V30 15487 N 2530.28 0.822941 -0.249738 0
M  V30 15488 C 2530.27 2.15179 -0.280525 0
M  V30 15489 N 2530.15 2.96414 -1.30822 0
M  V30 15490 C 2530.03 2.25804 -2.44748 0
M  V30 15491 H 2527.05 4.79756 -7.24086 0
M  V30 15492 H 2526.78 3.69963 -5.84682 0
M  V30 15493 H 2527.64 6.10431 -5.41508 0
M  V30 15494 H 2530.3 4.78816 -3.28024 0
M  V30 15495 H 2530.58 3.64957 -6.05871 0
M  V30 15496 H 2531.57 4.88748 -5.21323 0
M  V30 15497 H 2529.74 5.66789 -7.0643 0
M  V30 15498 H 2529.69 1.74684 -5.62396 0
M  V30 15499 H 2530.08 -1.71949 -2.24394 0
M  V30 15500 H 2530.26 -1.67511 -0.470742 0
M  V30 15501 H 2530.37 2.63704 0.6828 0
M  V30 15502 P 2531.61 7.20834 -5.23717 0
M  V30 15503 O 2531.83 8.66274 -5.38678 0
M  V30 15504 O 2532.4 6.33687 -6.13629 0
M  V30 15505 O 2531.86 6.7751 -3.72168 0
M  V30 15506 C 2530.92 7.20919 -2.70795 0
M  V30 15507 C 2531.65 7.45864 -1.40599 0
M  V30 15508 O 2531.86 6.17751 -0.734343 0
M  V30 15509 C 2533.05 8.05906 -1.51917 0
M  V30 15510 O 2533.44 8.74358 -0.335205 0
M  V30 15511 C 2533.93 6.83093 -1.70294 0
M  V30 15512 C 2533.22 5.79992 -0.836974 0
M  V30 15513 N 2533.27 4.41864 -1.38293 0
M  V30 15514 H 2530.43 8.13738 -3.03804 0
M  V30 15515 H 2530.16 6.42974 -2.55559 0
M  V30 15516 H 2531.02 8.12139 -0.792866 0
M  V30 15517 H 2533.68 5.80178 0.160643 0
M  V30 15518 H 2533.96 6.51379 -2.75643 0
M  V30 15519 H 2534.95 7.01832 -1.3448 0
M  V30 15520 H 2533.12 8.73771 -2.38364 0
M  V30 15521 P 2534.99 8.91 -6.50558e-11 0
M  V30 15522 O 2535.21 10.1726 0.733694 0
M  V30 15523 O 2535.78 8.73148 -1.23936 0
M  V30 15524 O 2535.24 7.66872 0.971405 0
M  V30 15525 C 2534.3 7.42309 2.04641 0
M  V30 15526 C 2535.03 6.86059 3.24661 0
M  V30 15527 O 2535.24 5.42847 3.03646 0
M  V30 15528 C 2536.43 7.41196 3.50753 0
M  V30 15529 O 2536.82 7.27073 4.86816 0
M  V30 15530 C 2537.31 6.5273 2.63741 0
M  V30 15531 C 2536.6 5.1842 2.73198 0
M  V30 15532 N 2536.65 4.38762 1.4784 0
M  V30 15533 H 2533.81 8.36803 2.32493 0
M  V30 15534 H 2533.54 6.70197 1.71129 0
M  V30 15535 H 2534.4 7.03551 4.13168 0
M  V30 15536 P 2538.36 7.20834 5.23717 0
M  V30 15537 O 2538.58 7.79853 6.57286 0
M  V30 15538 O 2539.15 7.79239 4.12957 0
M  V30 15539 O 2538.61 5.63315 5.29344 0
M  V30 15540 C 2537.67 4.80255 6.01876 0
M  V30 15541 C 2538.4 3.64202 6.65911 0
M  V30 15542 O 2538.61 2.60694 5.64732 0
M  V30 15543 C 2539.8 3.93473 7.1943 0
M  V30 15544 O 2540.19 3.02071 8.21205 0
M  V30 15545 C 2540.68 3.73047 5.97036 0
M  V30 15546 C 2539.97 2.58828 5.25741 0
M  V30 15547 N 2540.02 2.68068 3.77503 0
M  V30 15548 H 2537.19 5.40332 6.79951 0
M  V30 15549 H 2536.92 4.41613 5.32378 0
M  V30 15550 H 2537.78 3.26331 7.47797 0
M  V30 15551 P 2541.74 2.75334 8.47391 0
M  V30 15552 O 2541.96 2.44619 9.90336 0
M  V30 15553 O 2542.53 3.87776 7.92294 0
M  V30 15554 O 2541.99 1.4459 7.59357 0
M  V30 15555 C 2541.05 0.347653 7.69315 0
M  V30 15556 C 2541.78 -0.96767 7.52806 0
M  V30 15557 O 2541.99 -1.21055 6.10208 0
M  V30 15558 C 2543.18 -1.04557 8.13408 0
M  V30 15559 O 2543.57 -2.38311 8.41922 0
M  V30 15560 C 2544.06 -0.491279 7.02284 0
M  V30 15561 C 2543.35 -0.996264 5.77469 0
M  V30 15562 N 2543.4 -0.0501916 4.62973 0
M  V30 15563 C 2543.32 1.31969 4.65661 0
M  V30 15564 N 2543.39 1.86649 3.48119 0
M  V30 15565 C 2543.54 0.792089 2.62406 0
M  V30 15566 C 2543.67 0.705684 1.2207 0
M  V30 15567 N 2543.68 1.76207 0.413762 0
M  V30 15568 N 2543.79 -0.518981 0.685754 0
M  V30 15569 C 2543.78 -1.57595 1.49174 0
M  V30 15570 N 2543.66 -1.62909 2.80066 0
M  V30 15571 C 2543.54 -0.388195 3.3073 0
M  V30 15572 H 2540.57 0.374765 8.67791 0
M  V30 15573 H 2540.29 0.443613 6.90476 0
M  V30 15574 H 2541.16 -1.75559 7.96891 0
M  V30 15575 H 2543.82 -1.94563 5.46818 0
M  V30 15576 H 2544.1 0.608651 7.04676 0
M  V30 15577 H 2545.09 -0.889796 7.09039 0
M  V30 15578 H 2543.25 -0.433128 9.04664 0
M  V30 15579 H 2543.21 1.89246 5.57664 0
M  V30 15580 H 2543.59 2.71005 0.804694 0
M  V30 15581 H 2543.78 1.63189 -0.603768 0
M  V30 15582 H 2543.89 -2.53475 0.997614 0
M  V30 15583 P 2545.12 -2.75334 8.47391 0
M  V30 15584 O 2545.34 -3.84128 9.44797 0
M  V30 15585 O 2545.91 -1.51947 8.68712 0
M  V30 15586 O 2545.37 -3.29363 6.99321 0
M  V30 15587 C 2544.43 -4.24011 6.4274 0
M  V30 15588 C 2545.16 -5.20775 5.52155 0
M  V30 15589 O 2545.37 -4.56534 4.22446 0
M  V30 15590 C 2546.56 -5.62629 5.96531 0
M  V30 15591 O 2546.95 -6.87667 5.41053 0
M  V30 15592 C 2547.44 -4.52537 5.39283 0
M  V30 15593 C 2546.73 -4.20027 4.08623 0
M  V30 15594 N 2546.78 -2.76189 3.71603 0
M  V30 15595 H 2543.95 -4.797 7.24003 0
M  V30 15596 H 2543.68 -3.69856 5.84513 0
M  V30 15597 H 2544.54 -6.10356 5.41441 0
M  V30 15598 P 2548.5 -7.20834 5.23717 0
M  V30 15599 O 2548.72 -8.66104 5.38572 0
M  V30 15600 O 2549.29 -6.33544 6.1349 0
M  V30 15601 O 2548.75 -6.7751 3.72168 0
M  V30 15602 C 2547.81 -7.20825 2.7076 0
M  V30 15603 C 2548.54 -7.45864 1.40599 0
M  V30 15604 O 2548.75 -6.17651 0.734225 0
M  V30 15605 C 2549.94 -8.05808 1.51899 0
M  V30 15606 O 2550.33 -8.74358 0.335205 0
M  V30 15607 C 2550.82 -6.83093 1.70294 0
M  V30 15608 C 2550.11 -5.79992 0.836974 0
M  V30 15609 N 2550.16 -4.41864 1.38293 0
M  V30 15610 C 2550.08 -3.99538 2.69438 0
M  V30 15611 N 2550.16 -2.69909 2.84277 0
M  V30 15612 C 2550.3 -2.21719 1.5408 0
M  V30 15613 C 2550.43 -0.891712 1.06628 0
M  V30 15614 N 2550.55 -0.856846 -0.334985 0
M  V30 15615 C 2550.55 -1.9641 -1.15789 0
M  V30 15616 N 2550.68 -1.72708 -2.46522 0
M  V30 15617 N 2550.42 -3.21165 -0.713741 0
M  V30 15618 C 2550.3 -3.26797 0.639748 0
M  V30 15619 H 2547.33 -8.13644 3.0377 0
M  V30 15620 H 2547.06 -6.42788 2.55485 0
M  V30 15621 H 2547.92 -8.12039 0.792769 0
M  V30 15622 P 2551.88 -8.91 6.61648e-11 0
M  V30 15623 O 2552.1 -10.1726 -0.733694 0
M  V30 15624 O 2552.67 -8.73148 1.23936 0
M  V30 15625 O 2552.13 -7.66872 -0.971405 0
M  V30 15626 C 2551.19 -7.42309 -2.04641 0
M  V30 15627 C 2551.92 -6.86059 -3.24661 0
M  V30 15628 O 2552.13 -5.42847 -3.03646 0
M  V30 15629 C 2553.32 -7.41196 -3.50753 0
M  V30 15630 O 2553.71 -7.27073 -4.86816 0
M  V30 15631 C 2554.2 -6.5273 -2.63741 0
M  V30 15632 C 2553.49 -5.1842 -2.73198 0
M  V30 15633 N 2553.54 -4.38762 -1.4784 0
M  V30 15634 H 2550.71 -8.36803 -2.32493 0
M  V30 15635 H 2550.44 -6.70197 -1.71129 0
M  V30 15636 H 2551.3 -7.03551 -4.13168 0
M  V30 15637 P 2555.26 -7.20834 -5.23717 0
M  V30 15638 O 2555.48 -7.7993 -6.57351 0
M  V30 15639 O 2556.05 -7.79328 -4.13004 0
M  V30 15640 O 2555.51 -5.63315 -5.29344 0
M  V30 15641 C 2554.57 -4.80193 -6.01798 0
M  V30 15642 C 2555.3 -3.64202 -6.65911 0
M  V30 15643 O 2555.51 -2.60694 -5.64732 0
M  V30 15644 C 2556.7 -3.93473 -7.1943 0
M  V30 15645 O 2557.09 -3.02071 -8.21205 0
M  V30 15646 C 2557.58 -3.73047 -5.97036 0
M  V30 15647 C 2556.87 -2.58828 -5.25741 0
M  V30 15648 N 2556.92 -2.6801 -3.77422 0
M  V30 15649 C 2557.07 -1.50443 -3.07133 0
M  V30 15650 O 2557.16 -0.419406 -3.61576 0
M  V30 15651 N 2557.11 -1.6403 -1.69677 0
M  V30 15652 C 2557.02 -2.81206 -0.986255 0
M  V30 15653 C 2556.87 -3.99158 -1.80325 0
M  V30 15654 C 2556.82 -3.89779 -3.1476 0
M  V30 15655 H 2554.08 -5.40332 -6.79951 0
M  V30 15656 H 2553.82 -4.41549 -5.32301 0
M  V30 15657 H 2554.68 -3.26331 -7.47797 0
M  V30 15658 H 2557.34 -1.6395 -5.56554 0
M  V30 15659 H 2557.62 -4.63439 -5.3432 0
M  V30 15660 H 2558.61 -3.44728 -6.25838 0
M  V30 15661 H 2556.77 -4.96652 -7.57263 0
M  V30 15662 H 2556.7 -4.80159 -3.74441 0
M  V30 15663 P 2558.64 -2.75334 -8.47391 0
M  V30 15664 O 2558.86 -2.44571 -9.90142 0
M  V30 15665 O 2559.43 -3.87688 -7.92115 0
M  V30 15666 O 2558.89 -1.4459 -7.59357 0
M  V30 15667 C 2557.95 -0.347608 -7.69215 0
M  V30 15668 C 2558.68 0.96767 -7.52806 0
M  V30 15669 O 2558.89 1.21036 -6.1011 0
M  V30 15670 C 2560.08 1.04544 -8.13308 0
M  V30 15671 O 2560.47 2.38311 -8.41922 0
M  V30 15672 C 2560.96 0.491279 -7.02284 0
M  V30 15673 C 2560.25 0.996264 -5.77469 0
M  V30 15674 N 2560.3 0.0501916 -4.62973 0
M  V30 15675 H 2557.47 -0.374722 -8.67691 0
M  V30 15676 H 2557.2 -0.443485 -6.90277 0
M  V30 15677 H 2558.06 1.75537 -7.96793 0
M  V30 15678 P 2562.02 2.75334 -8.47391 0
M  V30 15679 O 2562.24 3.84128 -9.44797 0
M  V30 15680 O 2562.81 1.51947 -8.68712 0
M  V30 15681 O 2562.27 3.29363 -6.99321 0
M  V30 15682 C 2561.33 4.24011 -6.4274 0
M  V30 15683 C 2562.06 5.20775 -5.52155 0
M  V30 15684 O 2562.27 4.56534 -4.22446 0
M  V30 15685 C 2563.46 5.62629 -5.96531 0
M  V30 15686 O 2563.85 6.87667 -5.41053 0
M  V30 15687 C 2564.34 4.52537 -5.39283 0
M  V30 15688 C 2563.63 4.20027 -4.08623 0
M  V30 15689 N 2563.68 2.76189 -3.71603 0
M  V30 15690 H 2560.85 4.797 -7.24003 0
M  V30 15691 H 2560.58 3.69856 -5.84513 0
M  V30 15692 H 2561.44 6.10356 -5.41441 0
M  V30 15693 P 2565.4 7.20834 -5.23717 0
M  V30 15694 O 2565.62 8.66104 -5.38572 0
M  V30 15695 O 2566.19 6.33544 -6.1349 0
M  V30 15696 O 2565.65 6.7751 -3.72168 0
M  V30 15697 C 2564.71 7.20825 -2.7076 0
M  V30 15698 C 2565.44 7.45864 -1.40599 0
M  V30 15699 O 2565.65 6.17651 -0.734225 0
M  V30 15700 C 2566.84 8.05808 -1.51899 0
M  V30 15701 O 2567.23 8.74358 -0.335205 0
M  V30 15702 C 2567.72 6.83093 -1.70294 0
M  V30 15703 C 2567.01 5.79992 -0.836974 0
M  V30 15704 N 2567.06 4.41864 -1.38293 0
M  V30 15705 H 2564.23 8.13644 -3.0377 0
M  V30 15706 H 2563.96 6.42788 -2.55485 0
M  V30 15707 H 2564.82 8.12039 -0.792769 0
M  V30 15708 P 2568.78 8.91 -6.72738e-11 0
M  V30 15709 O 2569 10.1726 0.733694 0
M  V30 15710 O 2569.57 8.73148 -1.23936 0
M  V30 15711 O 2569.03 7.66872 0.971405 0
M  V30 15712 C 2568.09 7.42309 2.04641 0
M  V30 15713 C 2568.82 6.86059 3.24661 0
M  V30 15714 O 2569.03 5.42847 3.03646 0
M  V30 15715 C 2570.22 7.41196 3.50753 0
M  V30 15716 O 2570.61 7.27073 4.86816 0
M  V30 15717 C 2571.1 6.5273 2.63741 0
M  V30 15718 C 2570.39 5.1842 2.73198 0
M  V30 15719 N 2570.44 4.38762 1.4784 0
M  V30 15720 H 2567.61 8.36803 2.32493 0
M  V30 15721 H 2567.34 6.70197 1.71129 0
M  V30 15722 H 2568.2 7.03551 4.13168 0
M  V30 15723 P 2572.16 7.20834 5.23717 0
M  V30 15724 O 2572.38 7.79853 6.57286 0
M  V30 15725 O 2572.95 7.79239 4.12957 0
M  V30 15726 O 2572.41 5.63315 5.29344 0
M  V30 15727 C 2571.47 4.80255 6.01876 0
M  V30 15728 C 2572.2 3.64202 6.65911 0
M  V30 15729 O 2572.41 2.60694 5.64732 0
M  V30 15730 C 2573.6 3.93473 7.1943 0
M  V30 15731 O 2573.99 3.02071 8.21205 0
M  V30 15732 C 2574.48 3.73047 5.97036 0
M  V30 15733 C 2573.77 2.58828 5.25741 0
M  V30 15734 N 2573.82 2.68068 3.77503 0
M  V30 15735 H 2570.99 5.40332 6.79951 0
M  V30 15736 H 2570.72 4.41613 5.32378 0
M  V30 15737 H 2571.58 3.26331 7.47797 0
M  V30 15738 P 2575.54 2.75334 8.47391 0
M  V30 15739 O 2575.76 2.44571 9.90142 0
M  V30 15740 O 2576.33 3.87688 7.92115 0
M  V30 15741 O 2575.79 1.4459 7.59357 0
M  V30 15742 C 2574.85 0.347608 7.69215 0
M  V30 15743 C 2575.58 -0.96767 7.52806 0
M  V30 15744 O 2575.79 -1.21036 6.1011 0
M  V30 15745 C 2576.98 -1.04544 8.13308 0
M  V30 15746 O 2577.37 -2.38311 8.41922 0
M  V30 15747 C 2577.86 -0.491279 7.02284 0
M  V30 15748 C 2577.15 -0.996264 5.77469 0
M  V30 15749 N 2577.2 -0.0501916 4.62973 0
M  V30 15750 C 2577.12 1.32786 4.63244 0
M  V30 15751 N 2577.2 1.86957 3.44545 0
M  V30 15752 C 2577.34 0.780241 2.58481 0
M  V30 15753 C 2577.47 0.738536 1.17757 0
M  V30 15754 O 2577.49 1.66794 0.372349 0
M  V30 15755 N 2577.59 -0.58337 0.711393 0
M  V30 15756 C 2577.59 -1.70816 1.51017 0
M  V30 15757 N 2577.72 -2.87826 0.880757 0
M  V30 15758 N 2577.46 -1.67126 2.8339 0
M  V30 15759 C 2577.34 -0.401421 3.30572 0
M  V30 15760 H 2574.37 0.374722 8.67691 0
M  V30 15761 H 2574.1 0.443485 6.90277 0
M  V30 15762 H 2574.96 -1.75537 7.96793 0
M  V30 15763 H 2577.62 -1.95076 5.46529 0
M  V30 15764 H 2577.9 0.608565 7.04577 0
M  V30 15765 H 2578.89 -0.889672 7.08939 0
M  V30 15766 H 2577.05 -0.43308 9.04564 0
M  V30 15767 H 2577.01 1.91249 5.54442 0
M  V30 15768 H 2577.69 -0.718054 -0.275244 0
M  V30 15769 H 2577.72 -3.75721 1.41832 0
M  V30 15770 H 2577.83 -2.90436 -0.145468 0
M  V30 15771 P 2578.92 -2.75334 8.47391 0
M  V30 15772 O 2579.14 -3.84128 9.44797 0
M  V30 15773 O 2579.71 -1.51947 8.68712 0
M  V30 15774 O 2579.17 -3.29363 6.99321 0
M  V30 15775 C 2578.23 -4.24011 6.4274 0
M  V30 15776 C 2578.96 -5.20775 5.52155 0
M  V30 15777 O 2579.17 -4.56534 4.22446 0
M  V30 15778 C 2580.36 -5.62629 5.96531 0
M  V30 15779 O 2580.75 -6.87667 5.41053 0
M  V30 15780 C 2581.24 -4.52537 5.39283 0
M  V30 15781 C 2580.53 -4.20027 4.08623 0
M  V30 15782 N 2580.58 -2.76189 3.71603 0
M  V30 15783 C 2580.5 -1.64862 4.52822 0
M  V30 15784 N 2580.58 -0.512671 3.88633 0
M  V30 15785 C 2580.72 -0.888083 2.54977 0
M  V30 15786 C 2580.85 -0.094668 1.38677 0
M  V30 15787 O 2580.87 1.13053 1.28163 0
M  V30 15788 N 2580.97 -0.890102 0.232633 0
M  V30 15789 C 2580.97 -2.26958 0.21772 0
M  V30 15790 N 2581.1 -2.84626 -0.97925 0
M  V30 15791 N 2580.84 -3.0178 1.31033 0
M  V30 15792 C 2580.72 -2.26781 2.43843 0
M  V30 15793 H 2577.75 -4.797 7.24003 0
M  V30 15794 H 2577.48 -3.69856 5.84513 0
M  V30 15795 H 2578.34 -6.10356 5.41441 0
M  V30 15796 H 2581 -4.79061 3.27488 0
M  V30 15797 H 2581.28 -3.64906 6.05785 0
M  V30 15798 H 2582.27 -4.8868 5.2125 0
M  V30 15799 H 2580.43 -5.66726 7.06352 0
M  V30 15800 H 2580.39 -1.71169 5.60966 0
M  V30 15801 H 2581.07 -0.419134 -0.644739 0
M  V30 15802 H 2581.1 -3.87332 -1.06098 0
M  V30 15803 H 2581.21 -2.26417 -1.82483 0
M  V30 15804 P 2582.3 -7.20834 5.23717 0
M  V30 15805 O 2582.52 -8.66104 5.38572 0
M  V30 15806 O 2583.09 -6.33544 6.1349 0
M  V30 15807 O 2582.55 -6.7751 3.72168 0
M  V30 15808 C 2581.61 -7.20825 2.7076 0
M  V30 15809 C 2582.34 -7.45864 1.40599 0
M  V30 15810 O 2582.55 -6.17651 0.734225 0
M  V30 15811 C 2583.74 -8.05808 1.51899 0
M  V30 15812 O 2584.13 -8.74358 0.335205 0
M  V30 15813 C 2584.62 -6.83093 1.70294 0
M  V30 15814 C 2583.91 -5.79992 0.836974 0
M  V30 15815 N 2583.96 -4.41864 1.38293 0
M  V30 15816 C 2583.88 -3.99538 2.69438 0
M  V30 15817 N 2583.96 -2.69909 2.84277 0
M  V30 15818 C 2584.1 -2.21719 1.5408 0
M  V30 15819 C 2584.23 -0.891712 1.06628 0
M  V30 15820 N 2584.35 -0.856846 -0.334985 0
M  V30 15821 C 2584.35 -1.9641 -1.15789 0
M  V30 15822 N 2584.48 -1.72708 -2.46522 0
M  V30 15823 N 2584.22 -3.21165 -0.713741 0
M  V30 15824 C 2584.1 -3.26797 0.639748 0
M  V30 15825 H 2581.13 -8.13644 3.0377 0
M  V30 15826 H 2580.86 -6.42788 2.55485 0
M  V30 15827 H 2581.72 -8.12039 0.792769 0
M  V30 15828 P 2585.68 -8.91 6.83828e-11 0
M  V30 15829 O 2585.9 -10.1726 -0.733694 0
M  V30 15830 O 2586.47 -8.73148 1.23936 0
M  V30 15831 O 2585.93 -7.66872 -0.971405 0
M  V30 15832 C 2584.99 -7.42309 -2.04641 0
M  V30 15833 C 2585.72 -6.86059 -3.24661 0
M  V30 15834 O 2585.93 -5.42847 -3.03646 0
M  V30 15835 C 2587.12 -7.41196 -3.50753 0
M  V30 15836 O 2587.51 -7.27073 -4.86816 0
M  V30 15837 C 2588 -6.5273 -2.63741 0
M  V30 15838 C 2587.29 -5.1842 -2.73198 0
M  V30 15839 N 2587.34 -4.38762 -1.4784 0
M  V30 15840 C 2587.26 -4.81605 -0.168631 0
M  V30 15841 N 2587.34 -3.85454 0.713363 0
M  V30 15842 C 2587.48 -2.6994 -0.0566958 0
M  V30 15843 C 2587.61 -1.34815 0.338502 0
M  V30 15844 N 2587.73 -0.496304 -0.77465 0
M  V30 15845 C 2587.73 -0.908403 -2.09122 0
M  V30 15846 N 2587.86 0.0517805 -3.00955 0
M  V30 15847 N 2587.6 -2.17875 -2.46519 0
M  V30 15848 C 2587.48 -3.01988 -1.4033 0
M  V30 15849 H 2584.51 -8.36803 -2.32493 0
M  V30 15850 H 2584.24 -6.70197 -1.71129 0
M  V30 15851 H 2585.1 -7.03551 -4.13168 0
M  V30 15852 P 2589.06 -7.20834 -5.23717 0
M  V30 15853 O 2589.28 -7.79853 -6.57286 0
M  V30 15854 O 2589.85 -7.79239 -4.12957 0
M  V30 15855 O 2589.31 -5.63315 -5.29344 0
M  V30 15856 C 2588.37 -4.80255 -6.01876 0
M  V30 15857 C 2589.1 -3.64202 -6.65911 0
M  V30 15858 O 2589.31 -2.60694 -5.64732 0
M  V30 15859 C 2590.5 -3.93473 -7.1943 0
M  V30 15860 O 2590.89 -3.02071 -8.21205 0
M  V30 15861 C 2591.38 -3.73047 -5.97036 0
M  V30 15862 C 2590.67 -2.58828 -5.25741 0
M  V30 15863 N 2590.72 -2.68068 -3.77503 0
M  V30 15864 H 2587.89 -5.40332 -6.79951 0
M  V30 15865 H 2587.62 -4.41613 -5.32378 0
M  V30 15866 H 2588.48 -3.26331 -7.47797 0
M  V30 15867 P 2592.44 -2.75334 -8.47391 0
M  V30 15868 O 2592.66 -2.44571 -9.90142 0
M  V30 15869 O 2593.23 -3.87688 -7.92115 0
M  V30 15870 O 2592.69 -1.4459 -7.59357 0
M  V30 15871 C 2591.75 -0.347608 -7.69215 0
M  V30 15872 C 2592.48 0.96767 -7.52806 0
M  V30 15873 O 2592.69 1.21036 -6.1011 0
M  V30 15874 C 2593.88 1.04544 -8.13308 0
M  V30 15875 O 2594.27 2.38311 -8.41922 0
M  V30 15876 C 2594.76 0.491279 -7.02284 0
M  V30 15877 C 2594.05 0.996264 -5.77469 0
M  V30 15878 N 2594.1 0.0501916 -4.62973 0
M  V30 15879 H 2591.27 -0.374722 -8.67691 0
M  V30 15880 H 2591 -0.443485 -6.90277 0
M  V30 15881 H 2591.86 1.75537 -7.96793 0
M  V30 15882 P 2595.82 2.75334 -8.47391 0
M  V30 15883 O 2596.04 3.84128 -9.44797 0
M  V30 15884 O 2596.61 1.51947 -8.68712 0
M  V30 15885 O 2596.07 3.29363 -6.99321 0
M  V30 15886 C 2595.13 4.24011 -6.4274 0
M  V30 15887 C 2595.86 5.20775 -5.52155 0
M  V30 15888 O 2596.07 4.56534 -4.22446 0
M  V30 15889 C 2597.26 5.62629 -5.96531 0
M  V30 15890 O 2597.65 6.87667 -5.41053 0
M  V30 15891 C 2598.14 4.52537 -5.39283 0
M  V30 15892 C 2597.43 4.20027 -4.08623 0
M  V30 15893 N 2597.48 2.76189 -3.71603 0
M  V30 15894 H 2594.65 4.797 -7.24003 0
M  V30 15895 H 2594.38 3.69856 -5.84513 0
M  V30 15896 H 2595.24 6.10356 -5.41441 0
M  V30 15897 P 2599.2 7.20834 -5.23717 0
M  V30 15898 O 2599.42 8.66104 -5.38572 0
M  V30 15899 O 2599.99 6.33544 -6.1349 0
M  V30 15900 O 2599.45 6.7751 -3.72168 0
M  V30 15901 C 2598.51 7.20825 -2.7076 0
M  V30 15902 C 2599.24 7.45864 -1.40599 0
M  V30 15903 O 2599.45 6.17651 -0.734225 0
M  V30 15904 C 2600.64 8.05808 -1.51899 0
M  V30 15905 O 2601.03 8.74358 -0.335205 0
M  V30 15906 C 2601.52 6.83093 -1.70294 0
M  V30 15907 C 2600.81 5.79992 -0.836974 0
M  V30 15908 N 2600.86 4.41864 -1.38293 0
M  V30 15909 H 2598.03 8.13644 -3.0377 0
M  V30 15910 H 2597.76 6.42788 -2.55485 0
M  V30 15911 H 2598.62 8.12039 -0.792769 0
M  V30 15912 P 2602.58 8.91 -6.94918e-11 0
M  V30 15913 O 2602.8 10.1726 0.733694 0
M  V30 15914 O 2603.37 8.73148 -1.23936 0
M  V30 15915 O 2602.83 7.66872 0.971405 0
M  V30 15916 C 2601.89 7.42309 2.04641 0
M  V30 15917 C 2602.62 6.86059 3.24661 0
M  V30 15918 O 2602.83 5.42847 3.03646 0
M  V30 15919 C 2604.02 7.41196 3.50753 0
M  V30 15920 O 2604.41 7.27073 4.86816 0
M  V30 15921 C 2604.9 6.5273 2.63741 0
M  V30 15922 C 2604.19 5.1842 2.73198 0
M  V30 15923 N 2604.24 4.38762 1.4784 0
M  V30 15924 H 2601.41 8.36803 2.32493 0
M  V30 15925 H 2601.14 6.70197 1.71129 0
M  V30 15926 H 2602 7.03551 4.13168 0
M  V30 15927 P 2605.96 7.20834 5.23717 0
M  V30 15928 O 2606.18 7.80006 6.57415 0
M  V30 15929 O 2606.75 7.79416 4.13051 0
M  V30 15930 O 2606.21 5.63315 5.29344 0
M  V30 15931 C 2605.27 4.80318 6.01954 0
M  V30 15932 C 2606 3.64202 6.65911 0
M  V30 15933 O 2606.21 2.60736 5.64823 0
M  V30 15934 C 2607.4 3.93521 7.19518 0
M  V30 15935 O 2607.79 3.02071 8.21205 0
M  V30 15936 C 2608.28 3.73047 5.97036 0
M  V30 15937 C 2607.57 2.58828 5.25741 0
M  V30 15938 N 2607.62 2.68068 3.77503 0
M  V30 15939 C 2607.54 3.80474 2.99159 0
M  V30 15940 N 2607.61 3.55622 1.71925 0
M  V30 15941 C 2607.76 2.1832 1.65733 0
M  V30 15942 C 2607.89 1.28842 0.572777 0
M  V30 15943 N 2607.9 1.66875 -0.70098 0
M  V30 15944 N 2608.01 -0.016788 0.859836 0
M  V30 15945 C 2608 -0.398145 2.13316 0
M  V30 15946 N 2607.88 0.328224 3.22333 0
M  V30 15947 C 2607.76 1.62992 2.90383 0
M  V30 15948 H 2604.79 5.40394 6.8003 0
M  V30 15949 H 2604.51 4.41741 5.32532 0
M  V30 15950 H 2605.38 3.26371 7.47889 0
M  V30 15951 H 2608.04 1.64007 5.56746 0
M  V30 15952 H 2608.32 4.63439 5.3432 0
M  V30 15953 H 2609.31 3.44776 6.25925 0
M  V30 15954 H 2607.47 4.96707 7.57347 0
M  V30 15955 H 2607.43 4.8089 3.39924 0
M  V30 15956 H 2607.81 2.66547 -0.941919 0
M  V30 15957 H 2608 0.965341 -1.44766 0
M  V30 15958 H 2608.11 -1.46427 2.29697 0
M  V30 15959 P 2609.34 2.75334 8.47391 0
M  V30 15960 O 2609.56 2.44619 9.90336 0
M  V30 15961 O 2610.13 3.87776 7.92294 0
M  V30 15962 O 2609.59 1.4459 7.59357 0
M  V30 15963 C 2608.65 0.347653 7.69315 0
M  V30 15964 C 2609.38 -0.96767 7.52806 0
M  V30 15965 O 2609.59 -1.21055 6.10208 0
M  V30 15966 C 2610.78 -1.04557 8.13408 0
M  V30 15967 O 2611.17 -2.38311 8.41922 0
M  V30 15968 C 2611.66 -0.491279 7.02284 0
M  V30 15969 C 2610.95 -0.996264 5.77469 0
M  V30 15970 N 2611 -0.0501916 4.62973 0
M  V30 15971 H 2608.17 0.374765 8.67791 0
M  V30 15972 H 2607.89 0.443613 6.90476 0
M  V30 15973 H 2608.76 -1.75559 7.96891 0
M  V30 15974 H 2611.42 -1.94563 5.46818 0
M  V30 15975 H 2611.7 0.608651 7.04676 0
M  V30 15976 H 2612.69 -0.889796 7.09039 0
M  V30 15977 H 2610.85 -0.433128 9.04664 0
M  V30 15978 P 2612.72 -2.75334 8.47391 0
M  V30 15979 O 2612.94 -3.84128 9.44797 0
M  V30 15980 O 2613.51 -1.51947 8.68712 0
M  V30 15981 O 2612.97 -3.29363 6.99321 0
M  V30 15982 C 2612.03 -4.24011 6.4274 0
M  V30 15983 C 2612.76 -5.20775 5.52155 0
M  V30 15984 O 2612.97 -4.56534 4.22446 0
M  V30 15985 C 2614.16 -5.62629 5.96531 0
M  V30 15986 O 2614.55 -6.87667 5.41053 0
M  V30 15987 C 2615.04 -4.52537 5.39283 0
M  V30 15988 C 2614.33 -4.20027 4.08623 0
M  V30 15989 N 2614.38 -2.76189 3.71603 0
M  V30 15990 H 2611.55 -4.797 7.24003 0
M  V30 15991 H 2611.28 -3.69856 5.84513 0
M  V30 15992 H 2612.14 -6.10356 5.41441 0
M  V30 15993 P 2616.1 -7.20834 5.23717 0
M  V30 15994 O 2616.32 -8.66104 5.38572 0
M  V30 15995 O 2616.89 -6.33544 6.1349 0
M  V30 15996 O 2616.35 -6.7751 3.72168 0
M  V30 15997 C 2615.41 -7.20825 2.7076 0
M  V30 15998 C 2616.14 -7.45864 1.40599 0
M  V30 15999 O 2616.35 -6.17651 0.734225 0
M  V30 16000 C 2617.54 -8.05808 1.51899 0
M  V30 16001 O 2617.93 -8.74358 0.335205 0
M  V30 16002 C 2618.42 -6.83093 1.70294 0
M  V30 16003 C 2617.71 -5.79992 0.836974 0
M  V30 16004 N 2617.76 -4.41864 1.38293 0
M  V30 16005 C 2617.68 -3.99538 2.69438 0
M  V30 16006 N 2617.76 -2.69909 2.84277 0
M  V30 16007 C 2617.9 -2.21719 1.5408 0
M  V30 16008 C 2618.03 -0.891712 1.06628 0
M  V30 16009 N 2618.15 -0.856846 -0.334985 0
M  V30 16010 C 2618.15 -1.9641 -1.15789 0
M  V30 16011 N 2618.28 -1.72708 -2.46522 0
M  V30 16012 N 2618.02 -3.21165 -0.713741 0
M  V30 16013 C 2617.9 -3.26797 0.639748 0
M  V30 16014 H 2614.93 -8.13644 3.0377 0
M  V30 16015 H 2614.66 -6.42788 2.55485 0
M  V30 16016 H 2615.52 -8.12039 0.792769 0
M  V30 16017 P 2619.48 -8.91 7.06008e-11 0
M  V30 16018 O 2619.7 -10.1726 -0.733694 0
M  V30 16019 O 2620.27 -8.73148 1.23936 0
M  V30 16020 O 2619.73 -7.66872 -0.971405 0
M  V30 16021 C 2618.79 -7.42309 -2.04641 0
M  V30 16022 C 2619.52 -6.86059 -3.24661 0
M  V30 16023 O 2619.73 -5.42847 -3.03646 0
M  V30 16024 C 2620.92 -7.41196 -3.50753 0
M  V30 16025 O 2621.31 -7.27073 -4.86816 0
M  V30 16026 C 2621.8 -6.5273 -2.63741 0
M  V30 16027 C 2621.09 -5.1842 -2.73198 0
M  V30 16028 N 2621.14 -4.38762 -1.4784 0
M  V30 16029 H 2618.31 -8.36803 -2.32493 0
M  V30 16030 H 2618.04 -6.70197 -1.71129 0
M  V30 16031 H 2618.9 -7.03551 -4.13168 0
M  V30 16032 P 2622.86 -7.20834 -5.23717 0
M  V30 16033 O 2623.08 -7.79853 -6.57286 0
M  V30 16034 O 2623.65 -7.79239 -4.12957 0
M  V30 16035 O 2623.11 -5.63315 -5.29344 0
M  V30 16036 C 2622.17 -4.80255 -6.01876 0
M  V30 16037 C 2622.9 -3.64202 -6.65911 0
M  V30 16038 O 2623.11 -2.60694 -5.64732 0
M  V30 16039 C 2624.3 -3.93473 -7.1943 0
M  V30 16040 O 2624.69 -3.02071 -8.21205 0
M  V30 16041 C 2625.18 -3.73047 -5.97036 0
M  V30 16042 C 2624.47 -2.58828 -5.25741 0
M  V30 16043 N 2624.52 -2.68068 -3.77503 0
M  V30 16044 H 2621.69 -5.40332 -6.79951 0
M  V30 16045 H 2621.42 -4.41613 -5.32378 0
M  V30 16046 H 2622.28 -3.26331 -7.47797 0
M  V30 16047 P 2626.24 -2.75334 -8.47391 0
M  V30 16048 O 2626.46 -2.44571 -9.90142 0
M  V30 16049 O 2627.03 -3.87688 -7.92115 0
M  V30 16050 O 2626.49 -1.4459 -7.59357 0
M  V30 16051 C 2625.55 -0.347608 -7.69215 0
M  V30 16052 C 2626.28 0.96767 -7.52806 0
M  V30 16053 O 2626.49 1.21036 -6.1011 0
M  V30 16054 C 2627.68 1.04544 -8.13308 0
M  V30 16055 O 2628.07 2.38311 -8.41922 0
M  V30 16056 C 2628.56 0.491279 -7.02284 0
M  V30 16057 C 2627.85 0.996264 -5.77469 0
M  V30 16058 N 2627.9 0.0501916 -4.62973 0
M  V30 16059 H 2625.07 -0.374722 -8.67691 0
M  V30 16060 H 2624.8 -0.443485 -6.90277 0
M  V30 16061 H 2625.66 1.75537 -7.96793 0
M  V30 16062 P 2629.62 2.75334 -8.47391 0
M  V30 16063 O 2629.84 3.84128 -9.44797 0
M  V30 16064 O 2630.41 1.51947 -8.68712 0
M  V30 16065 O 2629.87 3.29363 -6.99321 0
M  V30 16066 C 2628.93 4.24011 -6.4274 0
M  V30 16067 C 2629.66 5.20775 -5.52155 0
M  V30 16068 O 2629.87 4.56534 -4.22446 0
M  V30 16069 C 2631.06 5.62629 -5.96531 0
M  V30 16070 O 2631.45 6.87667 -5.41053 0
M  V30 16071 C 2631.94 4.52537 -5.39283 0
M  V30 16072 C 2631.23 4.20027 -4.08623 0
M  V30 16073 N 2631.28 2.76189 -3.71603 0
M  V30 16074 H 2628.45 4.797 -7.24003 0
M  V30 16075 H 2628.18 3.69856 -5.84513 0
M  V30 16076 H 2629.04 6.10356 -5.41441 0
M  V30 16077 P 2633 7.20834 -5.23717 0
M  V30 16078 O 2633.22 8.66104 -5.38572 0
M  V30 16079 O 2633.79 6.33544 -6.1349 0
M  V30 16080 O 2633.25 6.7751 -3.72168 0
M  V30 16081 C 2632.31 7.20825 -2.7076 0
M  V30 16082 C 2633.04 7.45864 -1.40599 0
M  V30 16083 O 2633.25 6.17651 -0.734225 0
M  V30 16084 C 2634.44 8.05808 -1.51899 0
M  V30 16085 O 2634.83 8.74358 -0.335205 0
M  V30 16086 C 2635.32 6.83093 -1.70294 0
M  V30 16087 C 2634.61 5.79992 -0.836974 0
M  V30 16088 N 2634.66 4.41864 -1.38293 0
M  V30 16089 H 2631.83 8.13644 -3.0377 0
M  V30 16090 H 2631.56 6.42788 -2.55485 0
M  V30 16091 H 2632.42 8.12039 -0.792769 0
M  V30 16092 P 2636.38 8.91 -7.17098e-11 0
M  V30 16093 O 2636.6 10.1726 0.733694 0
M  V30 16094 O 2637.17 8.73148 -1.23936 0
M  V30 16095 O 2636.63 7.66872 0.971405 0
M  V30 16096 C 2635.69 7.42309 2.04641 0
M  V30 16097 C 2636.42 6.86059 3.24661 0
M  V30 16098 O 2636.63 5.42847 3.03646 0
M  V30 16099 C 2637.82 7.41196 3.50753 0
M  V30 16100 O 2638.21 7.27073 4.86816 0
M  V30 16101 C 2638.7 6.5273 2.63741 0
M  V30 16102 C 2637.99 5.1842 2.73198 0
M  V30 16103 N 2638.04 4.38762 1.4784 0
M  V30 16104 H 2635.21 8.36803 2.32493 0
M  V30 16105 H 2634.94 6.70197 1.71129 0
M  V30 16106 H 2635.8 7.03551 4.13168 0
M  V30 16107 P 2639.76 7.20834 5.23717 0
M  V30 16108 O 2639.98 7.79853 6.57286 0
M  V30 16109 O 2640.55 7.79239 4.12957 0
M  V30 16110 O 2640.01 5.63315 5.29344 0
M  V30 16111 C 2639.07 4.80255 6.01876 0
M  V30 16112 C 2639.8 3.64202 6.65911 0
M  V30 16113 O 2640.01 2.60694 5.64732 0
M  V30 16114 C 2641.2 3.93473 7.1943 0
M  V30 16115 O 2641.59 3.02071 8.21205 0
M  V30 16116 C 2642.08 3.73047 5.97036 0
M  V30 16117 C 2641.37 2.58828 5.25741 0
M  V30 16118 N 2641.42 2.68068 3.77503 0
M  V30 16119 H 2638.59 5.40332 6.79951 0
M  V30 16120 H 2638.32 4.41613 5.32378 0
M  V30 16121 H 2639.18 3.26331 7.47797 0
M  V30 16122 P 2643.14 2.75334 8.47391 0
M  V30 16123 O 2643.36 2.44571 9.90142 0
M  V30 16124 O 2643.93 3.87688 7.92115 0
M  V30 16125 O 2643.39 1.4459 7.59357 0
M  V30 16126 C 2642.45 0.347608 7.69215 0
M  V30 16127 C 2643.18 -0.96767 7.52806 0
M  V30 16128 O 2643.39 -1.21036 6.1011 0
M  V30 16129 C 2644.58 -1.04544 8.13308 0
M  V30 16130 O 2644.97 -2.38311 8.41922 0
M  V30 16131 C 2645.46 -0.491279 7.02284 0
M  V30 16132 C 2644.75 -0.996264 5.77469 0
M  V30 16133 N 2644.8 -0.0501916 4.62973 0
M  V30 16134 H 2641.97 0.374722 8.67691 0
M  V30 16135 H 2641.7 0.443485 6.90277 0
M  V30 16136 H 2642.56 -1.75537 7.96793 0
M  V30 16137 P 2646.52 -2.75334 8.47391 0
M  V30 16138 O 2646.74 -3.84128 9.44797 0
M  V30 16139 O 2647.31 -1.51947 8.68712 0
M  V30 16140 O 2646.77 -3.29363 6.99321 0
M  V30 16141 C 2645.83 -4.24011 6.4274 0
M  V30 16142 C 2646.56 -5.20775 5.52155 0
M  V30 16143 O 2646.77 -4.56534 4.22446 0
M  V30 16144 C 2647.96 -5.62629 5.96531 0
M  V30 16145 O 2648.35 -6.87667 5.41053 0
M  V30 16146 C 2648.84 -4.52537 5.39283 0
M  V30 16147 C 2648.13 -4.20027 4.08623 0
M  V30 16148 N 2648.18 -2.76189 3.71603 0
M  V30 16149 C 2648.1 -1.64862 4.52822 0
M  V30 16150 N 2648.18 -0.512671 3.88633 0
M  V30 16151 C 2648.32 -0.888083 2.54977 0
M  V30 16152 C 2648.45 -0.094668 1.38677 0
M  V30 16153 N 2648.57 -0.890102 0.232633 0
M  V30 16154 C 2648.57 -2.26958 0.21772 0
M  V30 16155 N 2648.7 -2.84626 -0.97925 0
M  V30 16156 N 2648.44 -3.0178 1.31033 0
M  V30 16157 C 2648.32 -2.26781 2.43843 0
M  V30 16158 H 2645.35 -4.797 7.24003 0
M  V30 16159 H 2645.08 -3.69856 5.84513 0
M  V30 16160 H 2645.94 -6.10356 5.41441 0
M  V30 16161 P 2649.9 -7.20834 5.23717 0
M  V30 16162 O 2650.12 -8.66104 5.38572 0
M  V30 16163 O 2650.69 -6.33544 6.1349 0
M  V30 16164 O 2650.15 -6.7751 3.72168 0
M  V30 16165 C 2649.21 -7.20825 2.7076 0
M  V30 16166 C 2649.94 -7.45864 1.40599 0
M  V30 16167 O 2650.15 -6.17651 0.734225 0
M  V30 16168 C 2651.34 -8.05808 1.51899 0
M  V30 16169 O 2651.73 -8.74358 0.335205 0
M  V30 16170 C 2652.22 -6.83093 1.70294 0
M  V30 16171 C 2651.51 -5.79992 0.836974 0
M  V30 16172 N 2651.56 -4.41864 1.38293 0
M  V30 16173 H 2648.73 -8.13644 3.0377 0
M  V30 16174 H 2648.46 -6.42788 2.55485 0
M  V30 16175 H 2649.32 -8.12039 0.792769 0
M  V30 16176 P 2653.28 -8.91 7.28188e-11 0
M  V30 16177 O 2653.5 -10.1746 -0.733838 0
M  V30 16178 O 2654.07 -8.73346 1.23964 0
M  V30 16179 O 2653.53 -7.66872 -0.971405 0
M  V30 16180 C 2652.59 -7.42405 -2.04668 0
M  V30 16181 C 2653.32 -6.86059 -3.24661 0
M  V30 16182 O 2653.53 -5.42934 -3.03695 0
M  V30 16183 C 2654.72 -7.41287 -3.50796 0
M  V30 16184 O 2655.11 -7.27073 -4.86816 0
M  V30 16185 C 2655.6 -6.5273 -2.63741 0
M  V30 16186 C 2654.89 -5.1842 -2.73198 0
M  V30 16187 N 2654.94 -4.38762 -1.4784 0
M  V30 16188 H 2652.11 -8.36899 -2.3252 0
M  V30 16189 H 2651.83 -6.70391 -1.71179 0
M  V30 16190 H 2652.7 -7.03638 -4.13219 0
M  V30 16191 H 2655.36 -4.59931 -3.54016 0
M  V30 16192 H 2655.64 -6.88995 -1.59871 0
M  V30 16193 H 2656.63 -6.4684 -3.0373 0
M  V30 16194 H 2654.79 -8.47002 -3.20749 0
M  V30 16195 P 2656.66 -7.20834 -5.23717 0
M  V30 16196 O 2656.88 -7.79853 -6.57286 0
M  V30 16197 O 2657.45 -7.79239 -4.12957 0
M  V30 16198 O 2656.91 -5.63315 -5.29344 0
M  V30 16199 C 2655.97 -4.80255 -6.01876 0
M  V30 16200 C 2656.7 -3.64202 -6.65911 0
M  V30 16201 O 2656.91 -2.60694 -5.64732 0
M  V30 16202 C 2658.1 -3.93473 -7.1943 0
M  V30 16203 O 2658.49 -3.02071 -8.21205 0
M  V30 16204 C 2658.98 -3.73047 -5.97036 0
M  V30 16205 C 2658.27 -2.58828 -5.25741 0
M  V30 16206 N 2658.32 -2.68068 -3.77503 0
M  V30 16207 H 2655.49 -5.40332 -6.79951 0
M  V30 16208 H 2655.22 -4.41613 -5.32378 0
M  V30 16209 H 2656.08 -3.26331 -7.47797 0
M  V30 16210 P 2660.04 -2.75334 -8.47391 0
M  V30 16211 O 2660.26 -2.44619 -9.90336 0
M  V30 16212 O 2660.83 -3.87776 -7.92294 0
M  V30 16213 O 2660.29 -1.4459 -7.59357 0
M  V30 16214 C 2659.35 -0.347653 -7.69315 0
M  V30 16215 C 2660.08 0.96767 -7.52806 0
M  V30 16216 O 2660.29 1.21055 -6.10208 0
M  V30 16217 C 2661.48 1.04557 -8.13408 0
M  V30 16218 O 2661.87 2.38311 -8.41922 0
M  V30 16219 C 2662.36 0.491279 -7.02284 0
M  V30 16220 C 2661.65 0.996264 -5.77469 0
M  V30 16221 N 2661.7 0.0501916 -4.62973 0
M  V30 16222 C 2661.62 -1.31969 -4.65661 0
M  V30 16223 N 2661.69 -1.86649 -3.48119 0
M  V30 16224 C 2661.84 -0.792089 -2.62406 0
M  V30 16225 C 2661.97 -0.705684 -1.2207 0
M  V30 16226 N 2661.98 -1.76207 -0.413762 0
M  V30 16227 N 2662.09 0.518981 -0.685754 0
M  V30 16228 C 2662.08 1.57595 -1.49174 0
M  V30 16229 N 2661.96 1.62909 -2.80066 0
M  V30 16230 C 2661.84 0.388195 -3.3073 0
M  V30 16231 H 2658.87 -0.374765 -8.67791 0
M  V30 16232 H 2658.59 -0.443613 -6.90476 0
M  V30 16233 H 2659.46 1.75559 -7.96891 0
M  V30 16234 H 2662.12 1.94563 -5.46818 0
M  V30 16235 H 2662.4 -0.608651 -7.04676 0
M  V30 16236 H 2663.39 0.889796 -7.09039 0
M  V30 16237 H 2661.55 0.433128 -9.04664 0
M  V30 16238 H 2661.51 -1.89246 -5.57664 0
M  V30 16239 H 2661.89 -2.71005 -0.804694 0
M  V30 16240 H 2662.08 -1.63189 0.603768 0
M  V30 16241 H 2662.19 2.53475 -0.997614 0
M  V30 16242 P 2663.42 2.75334 -8.47391 0
M  V30 16243 O 2663.64 3.84204 -9.44982 0
M  V30 16244 O 2664.21 1.51982 -8.68909 0
M  V30 16245 O 2663.67 3.29363 -6.99321 0
M  V30 16246 C 2662.73 4.24066 -6.42823 0
M  V30 16247 C 2663.46 5.20775 -5.52155 0
M  V30 16248 O 2663.67 4.56607 -4.22514 0
M  V30 16249 C 2664.86 5.62697 -5.96604 0
M  V30 16250 O 2665.25 6.87667 -5.41053 0
M  V30 16251 C 2665.74 4.52537 -5.39283 0
M  V30 16252 C 2665.03 4.20027 -4.08623 0
M  V30 16253 N 2665.08 2.76189 -3.71603 0
M  V30 16254 H 2662.25 4.79756 -7.24086 0
M  V30 16255 H 2661.97 3.69963 -5.84682 0
M  V30 16256 H 2662.84 6.10431 -5.41508 0
M  V30 16257 H 2665.5 4.78816 -3.28024 0
M  V30 16258 H 2665.78 3.64957 -6.05871 0
M  V30 16259 H 2666.77 4.88748 -5.21323 0
M  V30 16260 H 2664.93 5.66789 -7.0643 0
M  V30 16261 P 2666.8 7.20834 -5.23717 0
M  V30 16262 O 2667.02 8.66104 -5.38572 0
M  V30 16263 O 2667.59 6.33544 -6.1349 0
M  V30 16264 O 2667.05 6.7751 -3.72168 0
M  V30 16265 C 2666.11 7.20825 -2.7076 0
M  V30 16266 C 2666.84 7.45864 -1.40599 0
M  V30 16267 O 2667.05 6.17651 -0.734225 0
M  V30 16268 C 2668.24 8.05808 -1.51899 0
M  V30 16269 O 2668.63 8.74358 -0.335205 0
M  V30 16270 C 2669.12 6.83093 -1.70294 0
M  V30 16271 C 2668.41 5.79992 -0.836974 0
M  V30 16272 N 2668.46 4.41864 -1.38293 0
M  V30 16273 C 2668.38 3.99538 -2.69438 0
M  V30 16274 N 2668.46 2.69909 -2.84277 0
M  V30 16275 C 2668.6 2.21719 -1.5408 0
M  V30 16276 C 2668.73 0.891712 -1.06628 0
M  V30 16277 N 2668.85 0.856846 0.334985 0
M  V30 16278 C 2668.85 1.9641 1.15789 0
M  V30 16279 N 2668.98 1.72708 2.46522 0
M  V30 16280 N 2668.72 3.21165 0.713741 0
M  V30 16281 C 2668.6 3.26797 -0.639748 0
M  V30 16282 H 2665.63 8.13644 -3.0377 0
M  V30 16283 H 2665.36 6.42788 -2.55485 0
M  V30 16284 H 2666.22 8.12039 -0.792769 0
M  V30 16285 P 2670.18 8.91 -7.39278e-11 0
M  V30 16286 O 2670.4 10.1726 0.733694 0
M  V30 16287 O 2670.97 8.73148 -1.23936 0
M  V30 16288 O 2670.43 7.66872 0.971405 0
M  V30 16289 C 2669.49 7.42309 2.04641 0
M  V30 16290 C 2670.22 6.86059 3.24661 0
M  V30 16291 O 2670.43 5.42847 3.03646 0
M  V30 16292 C 2671.62 7.41196 3.50753 0
M  V30 16293 O 2672.01 7.27073 4.86816 0
M  V30 16294 C 2672.5 6.5273 2.63741 0
M  V30 16295 C 2671.79 5.1842 2.73198 0
M  V30 16296 N 2671.84 4.38762 1.4784 0
M  V30 16297 H 2669.01 8.36803 2.32493 0
M  V30 16298 H 2668.74 6.70197 1.71129 0
M  V30 16299 H 2669.6 7.03551 4.13168 0
M  V30 16300 P 2673.56 7.20834 5.23717 0
M  V30 16301 O 2673.78 7.79853 6.57286 0
M  V30 16302 O 2674.35 7.79239 4.12957 0
M  V30 16303 O 2673.81 5.63315 5.29344 0
M  V30 16304 C 2672.87 4.80255 6.01876 0
M  V30 16305 C 2673.6 3.64202 6.65911 0
M  V30 16306 O 2673.81 2.60694 5.64732 0
M  V30 16307 C 2675 3.93473 7.1943 0
M  V30 16308 O 2675.39 3.02071 8.21205 0
M  V30 16309 C 2675.88 3.73047 5.97036 0
M  V30 16310 C 2675.17 2.58828 5.25741 0
M  V30 16311 N 2675.22 2.68068 3.77503 0
M  V30 16312 H 2672.39 5.40332 6.79951 0
M  V30 16313 H 2672.12 4.41613 5.32378 0
M  V30 16314 H 2672.98 3.26331 7.47797 0
M  V30 16315 P 2676.94 2.75334 8.47391 0
M  V30 16316 O 2677.16 2.44571 9.90142 0
M  V30 16317 O 2677.73 3.87688 7.92115 0
M  V30 16318 O 2677.19 1.4459 7.59357 0
M  V30 16319 C 2676.25 0.347608 7.69215 0
M  V30 16320 C 2676.98 -0.96767 7.52806 0
M  V30 16321 O 2677.19 -1.21036 6.1011 0
M  V30 16322 C 2678.38 -1.04544 8.13308 0
M  V30 16323 O 2678.77 -2.38311 8.41922 0
M  V30 16324 C 2679.26 -0.491279 7.02284 0
M  V30 16325 C 2678.55 -0.996264 5.77469 0
M  V30 16326 N 2678.6 -0.0501916 4.62973 0
M  V30 16327 H 2675.77 0.374722 8.67691 0
M  V30 16328 H 2675.5 0.443485 6.90277 0
M  V30 16329 H 2676.36 -1.75537 7.96793 0
M  V30 16330 P 2680.32 -2.75334 8.47391 0
M  V30 16331 O 2680.54 -3.84128 9.44797 0
M  V30 16332 O 2681.11 -1.51947 8.68712 0
M  V30 16333 O 2680.57 -3.29363 6.99321 0
M  V30 16334 C 2679.63 -4.24011 6.4274 0
M  V30 16335 C 2680.36 -5.20775 5.52155 0
M  V30 16336 O 2680.57 -4.56534 4.22446 0
M  V30 16337 C 2681.76 -5.62629 5.96531 0
M  V30 16338 O 2682.15 -6.87667 5.41053 0
M  V30 16339 C 2682.64 -4.52537 5.39283 0
M  V30 16340 C 2681.93 -4.20027 4.08623 0
M  V30 16341 N 2681.98 -2.76189 3.71603 0
M  V30 16342 C 2681.9 -1.64862 4.52822 0
M  V30 16343 N 2681.98 -0.512671 3.88633 0
M  V30 16344 C 2682.12 -0.888083 2.54977 0
M  V30 16345 C 2682.25 -0.094668 1.38677 0
M  V30 16346 N 2682.37 -0.890102 0.232633 0
M  V30 16347 C 2682.37 -2.26958 0.21772 0
M  V30 16348 N 2682.5 -2.84626 -0.97925 0
M  V30 16349 N 2682.24 -3.0178 1.31033 0
M  V30 16350 C 2682.12 -2.26781 2.43843 0
M  V30 16351 H 2679.15 -4.797 7.24003 0
M  V30 16352 H 2678.88 -3.69856 5.84513 0
M  V30 16353 H 2679.74 -6.10356 5.41441 0
M  V30 16354 P 2683.7 -7.20834 5.23717 0
M  V30 16355 O 2683.92 -8.66104 5.38572 0
M  V30 16356 O 2684.49 -6.33544 6.1349 0
M  V30 16357 O 2683.95 -6.7751 3.72168 0
M  V30 16358 C 2683.01 -7.20825 2.7076 0
M  V30 16359 C 2683.74 -7.45864 1.40599 0
M  V30 16360 O 2683.95 -6.17651 0.734225 0
M  V30 16361 C 2685.14 -8.05808 1.51899 0
M  V30 16362 O 2685.53 -8.74358 0.335205 0
M  V30 16363 C 2686.02 -6.83093 1.70294 0
M  V30 16364 C 2685.31 -5.79992 0.836974 0
M  V30 16365 N 2685.36 -4.41864 1.38293 0
M  V30 16366 H 2682.53 -8.13644 3.0377 0
M  V30 16367 H 2682.26 -6.42788 2.55485 0
M  V30 16368 H 2683.12 -8.12039 0.792769 0
M  V30 16369 P 2687.08 -8.91 7.50368e-11 0
M  V30 16370 O 2687.3 -10.1726 -0.733694 0
M  V30 16371 O 2687.87 -8.73148 1.23936 0
M  V30 16372 O 2687.33 -7.66872 -0.971405 0
M  V30 16373 C 2686.39 -7.42309 -2.04641 0
M  V30 16374 C 2687.12 -6.86059 -3.24661 0
M  V30 16375 O 2687.33 -5.42847 -3.03646 0
M  V30 16376 C 2688.52 -7.41196 -3.50753 0
M  V30 16377 O 2688.91 -7.27073 -4.86816 0
M  V30 16378 C 2689.4 -6.5273 -2.63741 0
M  V30 16379 C 2688.69 -5.1842 -2.73198 0
M  V30 16380 N 2688.74 -4.38762 -1.4784 0
M  V30 16381 C 2688.66 -4.81605 -0.168631 0
M  V30 16382 N 2688.74 -3.85454 0.713363 0
M  V30 16383 C 2688.88 -2.6994 -0.0566958 0
M  V30 16384 C 2689.01 -1.34815 0.338502 0
M  V30 16385 N 2689.13 -0.496304 -0.77465 0
M  V30 16386 C 2689.13 -0.908403 -2.09122 0
M  V30 16387 N 2689.26 0.0517805 -3.00955 0
M  V30 16388 N 2689 -2.17875 -2.46519 0
M  V30 16389 C 2688.88 -3.01988 -1.4033 0
M  V30 16390 H 2685.91 -8.36803 -2.32493 0
M  V30 16391 H 2685.64 -6.70197 -1.71129 0
M  V30 16392 H 2686.5 -7.03551 -4.13168 0
M  V30 16393 P 2690.46 -7.20834 -5.23717 0
M  V30 16394 O 2690.68 -7.79853 -6.57286 0
M  V30 16395 O 2691.25 -7.79239 -4.12957 0
M  V30 16396 O 2690.71 -5.63315 -5.29344 0
M  V30 16397 C 2689.77 -4.80255 -6.01876 0
M  V30 16398 C 2690.5 -3.64202 -6.65911 0
M  V30 16399 O 2690.71 -2.60694 -5.64732 0
M  V30 16400 C 2691.9 -3.93473 -7.1943 0
M  V30 16401 O 2692.29 -3.02071 -8.21205 0
M  V30 16402 C 2692.78 -3.73047 -5.97036 0
M  V30 16403 C 2692.07 -2.58828 -5.25741 0
M  V30 16404 N 2692.12 -2.68068 -3.77503 0
M  V30 16405 H 2689.29 -5.40332 -6.79951 0
M  V30 16406 H 2689.02 -4.41613 -5.32378 0
M  V30 16407 H 2689.88 -3.26331 -7.47797 0
M  V30 16408 P 2693.84 -2.75334 -8.47391 0
M  V30 16409 O 2694.06 -2.44571 -9.90142 0
M  V30 16410 O 2694.63 -3.87688 -7.92115 0
M  V30 16411 O 2694.09 -1.4459 -7.59357 0
M  V30 16412 C 2693.15 -0.347608 -7.69215 0
M  V30 16413 C 2693.88 0.96767 -7.52806 0
M  V30 16414 O 2694.09 1.21036 -6.1011 0
M  V30 16415 C 2695.28 1.04544 -8.13308 0
M  V30 16416 O 2695.67 2.38311 -8.41922 0
M  V30 16417 C 2696.16 0.491279 -7.02284 0
M  V30 16418 C 2695.45 0.996264 -5.77469 0
M  V30 16419 N 2695.5 0.0501916 -4.62973 0
M  V30 16420 H 2692.67 -0.374722 -8.67691 0
M  V30 16421 H 2692.4 -0.443485 -6.90277 0
M  V30 16422 H 2693.26 1.75537 -7.96793 0
M  V30 16423 P 2697.22 2.75334 -8.47391 0
M  V30 16424 O 2697.44 3.84128 -9.44797 0
M  V30 16425 O 2698.01 1.51947 -8.68712 0
M  V30 16426 O 2697.47 3.29363 -6.99321 0
M  V30 16427 C 2696.53 4.24011 -6.4274 0
M  V30 16428 C 2697.26 5.20775 -5.52155 0
M  V30 16429 O 2697.47 4.56534 -4.22446 0
M  V30 16430 C 2698.66 5.62629 -5.96531 0
M  V30 16431 O 2699.05 6.87667 -5.41053 0
M  V30 16432 C 2699.54 4.52537 -5.39283 0
M  V30 16433 C 2698.83 4.20027 -4.08623 0
M  V30 16434 N 2698.88 2.76189 -3.71603 0
M  V30 16435 H 2696.05 4.797 -7.24003 0
M  V30 16436 H 2695.78 3.69856 -5.84513 0
M  V30 16437 H 2696.64 6.10356 -5.41441 0
M  V30 16438 P 2700.6 7.20834 -5.23717 0
M  V30 16439 O 2700.82 8.66104 -5.38572 0
M  V30 16440 O 2701.39 6.33544 -6.1349 0
M  V30 16441 O 2700.85 6.7751 -3.72168 0
M  V30 16442 C 2699.91 7.20825 -2.7076 0
M  V30 16443 C 2700.64 7.45864 -1.40599 0
M  V30 16444 O 2700.85 6.17651 -0.734225 0
M  V30 16445 C 2702.04 8.05808 -1.51899 0
M  V30 16446 O 2702.43 8.74358 -0.335205 0
M  V30 16447 C 2702.92 6.83093 -1.70294 0
M  V30 16448 C 2702.21 5.79992 -0.836974 0
M  V30 16449 N 2702.26 4.41864 -1.38293 0
M  V30 16450 H 2699.43 8.13644 -3.0377 0
M  V30 16451 H 2699.16 6.42788 -2.55485 0
M  V30 16452 H 2700.02 8.12039 -0.792769 0
M  V30 16453 P 2703.98 8.91 -7.61458e-11 0
M  V30 16454 O 2704.2 10.1726 0.733694 0
M  V30 16455 O 2704.77 8.73148 -1.23936 0
M  V30 16456 O 2704.23 7.66872 0.971405 0
M  V30 16457 C 2703.29 7.42309 2.04641 0
M  V30 16458 C 2704.02 6.86059 3.24661 0
M  V30 16459 O 2704.23 5.42847 3.03646 0
M  V30 16460 C 2705.42 7.41196 3.50753 0
M  V30 16461 O 2705.81 7.27073 4.86816 0
M  V30 16462 C 2706.3 6.5273 2.63741 0
M  V30 16463 C 2705.59 5.1842 2.73198 0
M  V30 16464 N 2705.64 4.38762 1.4784 0
M  V30 16465 H 2702.81 8.36803 2.32493 0
M  V30 16466 H 2702.54 6.70197 1.71129 0
M  V30 16467 H 2703.4 7.03551 4.13168 0
M  V30 16468 P 2707.36 7.20834 5.23717 0
M  V30 16469 O 2707.58 7.79853 6.57286 0
M  V30 16470 O 2708.15 7.79239 4.12957 0
M  V30 16471 O 2707.61 5.63315 5.29344 0
M  V30 16472 C 2706.67 4.80255 6.01876 0
M  V30 16473 C 2707.4 3.64202 6.65911 0
M  V30 16474 O 2707.61 2.60694 5.64732 0
M  V30 16475 C 2708.8 3.93473 7.1943 0
M  V30 16476 O 2709.19 3.02071 8.21205 0
M  V30 16477 C 2709.68 3.73047 5.97036 0
M  V30 16478 C 2708.97 2.58828 5.25741 0
M  V30 16479 N 2709.02 2.68068 3.77503 0
M  V30 16480 H 2706.18 5.40332 6.79951 0
M  V30 16481 H 2705.91 4.41613 5.32378 0
M  V30 16482 H 2706.78 3.26331 7.47797 0
M  V30 16483 P 2710.74 2.75334 8.47391 0
M  V30 16484 O 2710.96 2.44571 9.90142 0
M  V30 16485 O 2711.53 3.87688 7.92115 0
M  V30 16486 O 2710.99 1.4459 7.59357 0
M  V30 16487 C 2710.05 0.347608 7.69215 0
M  V30 16488 C 2710.78 -0.96767 7.52806 0
M  V30 16489 O 2710.99 -1.21036 6.1011 0
M  V30 16490 C 2712.18 -1.04544 8.13308 0
M  V30 16491 O 2712.57 -2.38311 8.41922 0
M  V30 16492 C 2713.06 -0.491279 7.02284 0
M  V30 16493 C 2712.35 -0.996264 5.77469 0
M  V30 16494 N 2712.4 -0.0501916 4.62973 0
M  V30 16495 H 2709.56 0.374722 8.67691 0
M  V30 16496 H 2709.29 0.443485 6.90277 0
M  V30 16497 H 2710.16 -1.75537 7.96793 0
M  V30 16498 P 2714.12 -2.75334 8.47391 0
M  V30 16499 O 2714.34 -3.84128 9.44797 0
M  V30 16500 O 2714.91 -1.51947 8.68712 0
M  V30 16501 O 2714.37 -3.29363 6.99321 0
M  V30 16502 C 2713.43 -4.24011 6.4274 0
M  V30 16503 C 2714.16 -5.20775 5.52155 0
M  V30 16504 O 2714.37 -4.56534 4.22446 0
M  V30 16505 C 2715.56 -5.62629 5.96531 0
M  V30 16506 O 2715.95 -6.87667 5.41053 0
M  V30 16507 C 2716.44 -4.52537 5.39283 0
M  V30 16508 C 2715.73 -4.20027 4.08623 0
M  V30 16509 N 2715.78 -2.76189 3.71603 0
M  V30 16510 H 2712.94 -4.797 7.24003 0
M  V30 16511 H 2712.67 -3.69856 5.84513 0
M  V30 16512 H 2713.54 -6.10356 5.41441 0
M  V30 16513 P 2717.5 -7.20834 5.23717 0
M  V30 16514 O 2717.72 -8.66274 5.38678 0
M  V30 16515 O 2718.29 -6.33687 6.13629 0
M  V30 16516 O 2717.75 -6.7751 3.72168 0
M  V30 16517 C 2716.81 -7.20919 2.70795 0
M  V30 16518 C 2717.54 -7.45864 1.40599 0
M  V30 16519 O 2717.75 -6.17751 0.734343 0
M  V30 16520 C 2718.94 -8.05906 1.51917 0
M  V30 16521 O 2719.33 -8.74358 0.335205 0
M  V30 16522 C 2719.82 -6.83093 1.70294 0
M  V30 16523 C 2719.11 -5.79992 0.836974 0
M  V30 16524 N 2719.16 -4.41864 1.38293 0
M  V30 16525 C 2719.08 -4.02089 2.69407 0
M  V30 16526 N 2719.15 -2.73403 2.85089 0
M  V30 16527 C 2719.3 -2.25086 1.5642 0
M  V30 16528 C 2719.43 -0.942887 1.04836 0
M  V30 16529 N 2719.44 0.150999 1.80369 0
M  V30 16530 N 2719.55 -0.812565 -0.28167 0
M  V30 16531 C 2719.54 -1.90572 -1.03784 0
M  V30 16532 N 2719.42 -3.167 -0.683905 0
M  V30 16533 C 2719.3 -3.26538 0.652815 0
M  V30 16534 H 2716.33 -8.13738 3.03804 0
M  V30 16535 H 2716.05 -6.42974 2.55559 0
M  V30 16536 H 2716.92 -8.12139 0.792866 0
M  V30 16537 H 2719.58 -5.80178 -0.160643 0
M  V30 16538 H 2719.86 -6.51379 2.75643 0
M  V30 16539 H 2720.85 -7.01832 1.3448 0
M  V30 16540 H 2719.01 -8.73771 2.38364 0
M  V30 16541 H 2718.97 -4.7189 3.52311 0
M  V30 16542 H 2719.35 0.0721434 2.82608 0
M  V30 16543 H 2719.54 1.0785 1.36544 0
M  V30 16544 H 2719.65 -1.73207 -2.10241 0
M  V30 16545 P 2720.88 -8.91 7.72548e-11 0
M  V30 16546 O 2721.1 -10.1726 -0.733694 0
M  V30 16547 O 2721.67 -8.73148 1.23936 0
M  V30 16548 O 2721.13 -7.66872 -0.971405 0
M  V30 16549 C 2720.19 -7.42309 -2.04641 0
M  V30 16550 C 2720.92 -6.86059 -3.24661 0
M  V30 16551 O 2721.13 -5.42847 -3.03646 0
M  V30 16552 C 2722.32 -7.41196 -3.50753 0
M  V30 16553 O 2722.71 -7.27073 -4.86816 0
M  V30 16554 C 2723.2 -6.5273 -2.63741 0
M  V30 16555 C 2722.49 -5.1842 -2.73198 0
M  V30 16556 N 2722.54 -4.38762 -1.4784 0
M  V30 16557 H 2719.7 -8.36803 -2.32493 0
M  V30 16558 H 2719.43 -6.70197 -1.71129 0
M  V30 16559 H 2720.3 -7.03551 -4.13168 0
M  V30 16560 P 2724.26 -7.20834 -5.23717 0
M  V30 16561 O 2724.48 -7.79853 -6.57286 0
M  V30 16562 O 2725.05 -7.79239 -4.12957 0
M  V30 16563 O 2724.51 -5.63315 -5.29344 0
M  V30 16564 C 2723.57 -4.80255 -6.01876 0
M  V30 16565 C 2724.3 -3.64202 -6.65911 0
M  V30 16566 O 2724.51 -2.60694 -5.64732 0
M  V30 16567 C 2725.7 -3.93473 -7.1943 0
M  V30 16568 O 2726.09 -3.02071 -8.21205 0
M  V30 16569 C 2726.58 -3.73047 -5.97036 0
M  V30 16570 C 2725.87 -2.58828 -5.25741 0
M  V30 16571 N 2725.92 -2.68068 -3.77503 0
M  V30 16572 H 2723.08 -5.40332 -6.79951 0
M  V30 16573 H 2722.81 -4.41613 -5.32378 0
M  V30 16574 H 2723.68 -3.26331 -7.47797 0
M  V30 16575 P 2727.64 -2.75334 -8.47391 0
M  V30 16576 O 2727.86 -2.44571 -9.90142 0
M  V30 16577 O 2728.43 -3.87688 -7.92115 0
M  V30 16578 O 2727.89 -1.4459 -7.59357 0
M  V30 16579 C 2726.95 -0.347608 -7.69215 0
M  V30 16580 C 2727.68 0.96767 -7.52806 0
M  V30 16581 O 2727.89 1.21036 -6.1011 0
M  V30 16582 C 2729.08 1.04544 -8.13308 0
M  V30 16583 O 2729.47 2.38311 -8.41922 0
M  V30 16584 C 2729.96 0.491279 -7.02284 0
M  V30 16585 C 2729.25 0.996264 -5.77469 0
M  V30 16586 N 2729.3 0.0501916 -4.62973 0
M  V30 16587 H 2726.46 -0.374722 -8.67691 0
M  V30 16588 H 2726.19 -0.443485 -6.90277 0
M  V30 16589 H 2727.06 1.75537 -7.96793 0
M  V30 16590 P 2731.02 2.75334 -8.47391 0
M  V30 16591 O 2731.24 3.84128 -9.44797 0
M  V30 16592 O 2731.81 1.51947 -8.68712 0
M  V30 16593 O 2731.27 3.29363 -6.99321 0
M  V30 16594 C 2730.33 4.24011 -6.4274 0
M  V30 16595 C 2731.06 5.20775 -5.52155 0
M  V30 16596 O 2731.27 4.56534 -4.22446 0
M  V30 16597 C 2732.46 5.62629 -5.96531 0
M  V30 16598 O 2732.85 6.87667 -5.41053 0
M  V30 16599 C 2733.34 4.52537 -5.39283 0
M  V30 16600 C 2732.63 4.20027 -4.08623 0
M  V30 16601 N 2732.68 2.76189 -3.71603 0
M  V30 16602 H 2729.84 4.797 -7.24003 0
M  V30 16603 H 2729.57 3.69856 -5.84513 0
M  V30 16604 H 2730.44 6.10356 -5.41441 0
M  V30 16605 P 2734.4 7.20834 -5.23717 0
M  V30 16606 O 2734.62 8.66104 -5.38572 0
M  V30 16607 O 2735.19 6.33544 -6.1349 0
M  V30 16608 O 2734.65 6.7751 -3.72168 0
M  V30 16609 C 2733.71 7.20825 -2.7076 0
M  V30 16610 C 2734.44 7.45864 -1.40599 0
M  V30 16611 O 2734.65 6.17651 -0.734225 0
M  V30 16612 C 2735.84 8.05808 -1.51899 0
M  V30 16613 O 2736.23 8.74358 -0.335205 0
M  V30 16614 C 2736.72 6.83093 -1.70294 0
M  V30 16615 C 2736.01 5.79992 -0.836974 0
M  V30 16616 N 2736.06 4.41864 -1.38293 0
M  V30 16617 H 2733.22 8.13644 -3.0377 0
M  V30 16618 H 2732.95 6.42788 -2.55485 0
M  V30 16619 H 2733.82 8.12039 -0.792769 0
M  V30 16620 P 2737.78 8.91 -7.83638e-11 0
M  V30 16621 O 2738 10.1726 0.733694 0
M  V30 16622 O 2738.57 8.73148 -1.23936 0
M  V30 16623 O 2738.03 7.66872 0.971405 0
M  V30 16624 C 2737.09 7.42309 2.04641 0
M  V30 16625 C 2737.82 6.86059 3.24661 0
M  V30 16626 O 2738.03 5.42847 3.03646 0
M  V30 16627 C 2739.22 7.41196 3.50753 0
M  V30 16628 O 2739.61 7.27073 4.86816 0
M  V30 16629 C 2740.1 6.5273 2.63741 0
M  V30 16630 C 2739.39 5.1842 2.73198 0
M  V30 16631 N 2739.44 4.38762 1.4784 0
M  V30 16632 H 2736.6 8.36803 2.32493 0
M  V30 16633 H 2736.33 6.70197 1.71129 0
M  V30 16634 H 2737.2 7.03551 4.13168 0
M  V30 16635 P 2741.16 7.20834 5.23717 0
M  V30 16636 O 2741.38 7.79853 6.57286 0
M  V30 16637 O 2741.95 7.79239 4.12957 0
M  V30 16638 O 2741.41 5.63315 5.29344 0
M  V30 16639 C 2740.47 4.80255 6.01876 0
M  V30 16640 C 2741.2 3.64202 6.65911 0
M  V30 16641 O 2741.41 2.60694 5.64732 0
M  V30 16642 C 2742.6 3.93473 7.1943 0
M  V30 16643 O 2742.99 3.02071 8.21205 0
M  V30 16644 C 2743.48 3.73047 5.97036 0
M  V30 16645 C 2742.77 2.58828 5.25741 0
M  V30 16646 N 2742.82 2.68068 3.77503 0
M  V30 16647 H 2739.98 5.40332 6.79951 0
M  V30 16648 H 2739.71 4.41613 5.32378 0
M  V30 16649 H 2740.58 3.26331 7.47797 0
M  V30 16650 P 2744.54 2.75334 8.47391 0
M  V30 16651 O 2744.76 2.44619 9.90336 0
M  V30 16652 O 2745.33 3.87776 7.92294 0
M  V30 16653 O 2744.79 1.4459 7.59357 0
M  V30 16654 C 2743.85 0.347653 7.69315 0
M  V30 16655 C 2744.58 -0.96767 7.52806 0
M  V30 16656 O 2744.79 -1.21055 6.10208 0
M  V30 16657 C 2745.98 -1.04557 8.13408 0
M  V30 16658 O 2746.37 -2.38311 8.41922 0
M  V30 16659 C 2746.86 -0.491279 7.02284 0
M  V30 16660 C 2746.15 -0.996264 5.77469 0
M  V30 16661 N 2746.2 -0.0501916 4.62973 0
M  V30 16662 C 2746.12 1.31969 4.65661 0
M  V30 16663 N 2746.19 1.86649 3.48119 0
M  V30 16664 C 2746.34 0.792089 2.62406 0
M  V30 16665 C 2746.47 0.705684 1.2207 0
M  V30 16666 N 2746.48 1.76207 0.413762 0
M  V30 16667 N 2746.59 -0.518981 0.685754 0
M  V30 16668 C 2746.58 -1.57595 1.49174 0
M  V30 16669 N 2746.46 -1.62909 2.80066 0
M  V30 16670 C 2746.34 -0.388195 3.3073 0
M  V30 16671 H 2743.37 0.374765 8.67791 0
M  V30 16672 H 2743.09 0.443613 6.90476 0
M  V30 16673 H 2743.96 -1.75559 7.96891 0
M  V30 16674 H 2746.62 -1.94563 5.46818 0
M  V30 16675 H 2746.9 0.608651 7.04676 0
M  V30 16676 H 2747.89 -0.889796 7.09039 0
M  V30 16677 H 2746.05 -0.433128 9.04664 0
M  V30 16678 H 2746.01 1.89246 5.57664 0
M  V30 16679 H 2746.39 2.71005 0.804694 0
M  V30 16680 H 2746.58 1.63189 -0.603768 0
M  V30 16681 H 2746.69 -2.53475 0.997614 0
M  V30 16682 P 2747.92 -2.75334 8.47391 0
M  V30 16683 O 2748.14 -3.84204 9.44982 0
M  V30 16684 O 2748.71 -1.51982 8.68909 0
M  V30 16685 O 2748.17 -3.29363 6.99321 0
M  V30 16686 C 2747.23 -4.24066 6.42823 0
M  V30 16687 C 2747.96 -5.20775 5.52155 0
M  V30 16688 O 2748.17 -4.56607 4.22514 0
M  V30 16689 C 2749.36 -5.62697 5.96604 0
M  V30 16690 O 2749.75 -6.87667 5.41053 0
M  V30 16691 C 2750.24 -4.52537 5.39283 0
M  V30 16692 C 2749.53 -4.20027 4.08623 0
M  V30 16693 N 2749.58 -2.76189 3.71603 0
M  V30 16694 C 2749.5 -1.66944 4.54297 0
M  V30 16695 N 2749.57 -0.536169 3.91344 0
M  V30 16696 C 2749.72 -0.901569 2.58849 0
M  V30 16697 C 2749.85 -0.146599 1.40236 0
M  V30 16698 N 2749.86 1.18234 1.37046 0
M  V30 16699 N 2749.97 -0.822941 0.249738 0
M  V30 16700 C 2749.96 -2.15179 0.280525 0
M  V30 16701 N 2749.84 -2.96414 1.30822 0
M  V30 16702 C 2749.72 -2.25804 2.44748 0
M  V30 16703 H 2746.75 -4.79756 7.24086 0
M  V30 16704 H 2746.47 -3.69963 5.84682 0
M  V30 16705 H 2747.34 -6.10431 5.41508 0
M  V30 16706 H 2750 -4.78816 3.28024 0
M  V30 16707 H 2750.28 -3.64957 6.05871 0
M  V30 16708 H 2751.27 -4.88748 5.21323 0
M  V30 16709 H 2749.43 -5.66789 7.0643 0
M  V30 16710 H 2749.39 -1.74684 5.62396 0
M  V30 16711 H 2749.77 1.71949 2.24394 0
M  V30 16712 H 2749.96 1.67511 0.470742 0
M  V30 16713 H 2750.07 -2.63704 -0.6828 0
M  V30 16714 P 2751.3 -7.20834 5.23717 0
M  V30 16715 O 2751.52 -8.66104 5.38572 0
M  V30 16716 O 2752.09 -6.33544 6.1349 0
M  V30 16717 O 2751.55 -6.7751 3.72168 0
M  V30 16718 C 2750.61 -7.20825 2.7076 0
M  V30 16719 C 2751.34 -7.45864 1.40599 0
M  V30 16720 O 2751.55 -6.17651 0.734225 0
M  V30 16721 C 2752.74 -8.05808 1.51899 0
M  V30 16722 O 2753.13 -8.74358 0.335205 0
M  V30 16723 C 2753.62 -6.83093 1.70294 0
M  V30 16724 C 2752.91 -5.79992 0.836974 0
M  V30 16725 N 2752.96 -4.41864 1.38293 0
M  V30 16726 H 2750.12 -8.13644 3.0377 0
M  V30 16727 H 2749.85 -6.42788 2.55485 0
M  V30 16728 H 2750.72 -8.12039 0.792769 0
M  V30 16729 P 2754.68 -8.91 7.94728e-11 0
M  V30 16730 O 2754.9 -10.1726 -0.733694 0
M  V30 16731 O 2755.47 -8.73148 1.23936 0
M  V30 16732 O 2754.93 -7.66872 -0.971405 0
M  V30 16733 C 2753.99 -7.42309 -2.04641 0
M  V30 16734 C 2754.72 -6.86059 -3.24661 0
M  V30 16735 O 2754.93 -5.42847 -3.03646 0
M  V30 16736 C 2756.12 -7.41196 -3.50753 0
M  V30 16737 O 2756.51 -7.27073 -4.86816 0
M  V30 16738 C 2757 -6.5273 -2.63741 0
M  V30 16739 C 2756.29 -5.1842 -2.73198 0
M  V30 16740 N 2756.34 -4.38762 -1.4784 0
M  V30 16741 H 2753.5 -8.36803 -2.32493 0
M  V30 16742 H 2753.23 -6.70197 -1.71129 0
M  V30 16743 H 2754.1 -7.03551 -4.13168 0
M  V30 16744 P 2758.06 -7.20834 -5.23717 0
M  V30 16745 O 2758.28 -7.79853 -6.57286 0
M  V30 16746 O 2758.85 -7.79239 -4.12957 0
M  V30 16747 O 2758.31 -5.63315 -5.29344 0
M  V30 16748 C 2757.37 -4.80255 -6.01876 0
M  V30 16749 C 2758.1 -3.64202 -6.65911 0
M  V30 16750 O 2758.31 -2.60694 -5.64732 0
M  V30 16751 C 2759.5 -3.93473 -7.1943 0
M  V30 16752 O 2759.89 -3.02071 -8.21205 0
M  V30 16753 C 2760.38 -3.73047 -5.97036 0
M  V30 16754 C 2759.67 -2.58828 -5.25741 0
M  V30 16755 N 2759.72 -2.68068 -3.77503 0
M  V30 16756 H 2756.88 -5.40332 -6.79951 0
M  V30 16757 H 2756.61 -4.41613 -5.32378 0
M  V30 16758 H 2757.48 -3.26331 -7.47797 0
M  V30 16759 P 2761.44 -2.75334 -8.47391 0
M  V30 16760 O 2761.66 -2.44571 -9.90142 0
M  V30 16761 O 2762.23 -3.87688 -7.92115 0
M  V30 16762 O 2761.69 -1.4459 -7.59357 0
M  V30 16763 C 2760.75 -0.347608 -7.69215 0
M  V30 16764 C 2761.48 0.96767 -7.52806 0
M  V30 16765 O 2761.69 1.21036 -6.1011 0
M  V30 16766 C 2762.88 1.04544 -8.13308 0
M  V30 16767 O 2763.27 2.38311 -8.41922 0
M  V30 16768 C 2763.76 0.491279 -7.02284 0
M  V30 16769 C 2763.05 0.996264 -5.77469 0
M  V30 16770 N 2763.1 0.0501916 -4.62973 0
M  V30 16771 H 2760.26 -0.374722 -8.67691 0
M  V30 16772 H 2759.99 -0.443485 -6.90277 0
M  V30 16773 H 2760.86 1.75537 -7.96793 0
M  V30 16774 P 2764.82 2.75334 -8.47391 0
M  V30 16775 O 2765.04 3.84166 -9.4489 0
M  V30 16776 O 2765.61 1.51964 -8.6881 0
M  V30 16777 O 2765.07 3.29363 -6.99321 0
M  V30 16778 C 2764.13 4.24011 -6.4274 0
M  V30 16779 C 2764.86 5.20775 -5.52155 0
M  V30 16780 O 2765.07 4.56534 -4.22446 0
M  V30 16781 C 2766.26 5.62629 -5.96531 0
M  V30 16782 O 2766.65 6.87667 -5.41053 0
M  V30 16783 C 2767.14 4.52537 -5.39283 0
M  V30 16784 C 2766.43 4.20027 -4.08623 0
M  V30 16785 N 2766.48 2.7613 -3.71522 0
M  V30 16786 C 2766.63 2.43702 -2.37085 0
M  V30 16787 O 2766.72 3.3531 -1.54039 0
M  V30 16788 N 2766.68 0.951103 -2.10621 0
M  V30 16789 C 2766.58 0.165021 -2.93537 0
M  V30 16790 N 2766.63 -1.09723 -2.53253 0
M  V30 16791 C 2766.43 0.469576 -4.32458 0
M  V30 16792 C 2766.38 1.78658 -4.65921 0
M  V30 16793 H 2763.64 4.79645 -7.23919 0
M  V30 16794 H 2763.37 3.69802 -5.84429 0
M  V30 16795 H 2764.24 6.10431 -5.41508 0
M  V30 16796 H 2766.9 4.78733 -3.27967 0
M  V30 16797 H 2767.18 3.64957 -6.05871 0
M  V30 16798 H 2768.17 4.8868 -5.2125 0
M  V30 16799 H 2766.33 5.66726 -7.06352 0
M  V30 16800 H 2766.26 2.06987 -5.70299 0
M  V30 16801 H 2766.36 -0.314383 -5.07728 0
M  V30 16802 H 2766.75 -1.31363 -1.5319 0
M  V30 16803 H 2766.55 -1.85978 -3.21943 0
M  V30 16804 P 2768.2 7.20834 -5.23717 0
M  V30 16805 O 2768.42 8.66104 -5.38572 0
M  V30 16806 O 2768.99 6.33544 -6.1349 0
M  V30 16807 O 2768.45 6.7751 -3.72168 0
M  V30 16808 C 2767.51 7.20825 -2.7076 0
M  V30 16809 C 2768.24 7.45864 -1.40599 0
M  V30 16810 O 2768.45 6.17651 -0.734225 0
M  V30 16811 C 2769.64 8.05808 -1.51899 0
M  V30 16812 O 2770.03 8.74358 -0.335205 0
M  V30 16813 C 2770.52 6.83093 -1.70294 0
M  V30 16814 C 2769.81 5.79992 -0.836974 0
M  V30 16815 N 2769.86 4.41864 -1.38293 0
M  V30 16816 H 2767.02 8.13644 -3.0377 0
M  V30 16817 H 2766.75 6.42788 -2.55485 0
M  V30 16818 H 2767.62 8.12039 -0.792769 0
M  V30 16819 P 2771.58 8.91 -8.05818e-11 0
M  V30 16820 O 2771.8 10.1726 0.733694 0
M  V30 16821 O 2772.37 8.73148 -1.23936 0
M  V30 16822 O 2771.83 7.66872 0.971405 0
M  V30 16823 C 2770.89 7.42309 2.04641 0
M  V30 16824 C 2771.62 6.86059 3.24661 0
M  V30 16825 O 2771.83 5.42847 3.03646 0
M  V30 16826 C 2773.02 7.41196 3.50753 0
M  V30 16827 O 2773.41 7.27073 4.86816 0
M  V30 16828 C 2773.9 6.5273 2.63741 0
M  V30 16829 C 2773.19 5.1842 2.73198 0
M  V30 16830 N 2773.24 4.38762 1.4784 0
M  V30 16831 H 2770.4 8.36803 2.32493 0
M  V30 16832 H 2770.13 6.70197 1.71129 0
M  V30 16833 H 2771 7.03551 4.13168 0
M  V30 16834 P 2774.96 7.20834 5.23717 0
M  V30 16835 O 2775.18 7.79853 6.57286 0
M  V30 16836 O 2775.75 7.79239 4.12957 0
M  V30 16837 O 2775.21 5.63315 5.29344 0
M  V30 16838 C 2774.27 4.80255 6.01876 0
M  V30 16839 C 2775 3.64202 6.65911 0
M  V30 16840 O 2775.21 2.60694 5.64732 0
M  V30 16841 C 2776.4 3.93473 7.1943 0
M  V30 16842 O 2776.79 3.02071 8.21205 0
M  V30 16843 C 2777.28 3.73047 5.97036 0
M  V30 16844 C 2776.57 2.58828 5.25741 0
M  V30 16845 N 2776.62 2.68068 3.77503 0
M  V30 16846 H 2773.78 5.40332 6.79951 0
M  V30 16847 H 2773.51 4.41613 5.32378 0
M  V30 16848 H 2774.38 3.26331 7.47797 0
M  V30 16849 P 2778.34 2.75334 8.47391 0
M  V30 16850 O 2778.56 2.44595 9.90239 0
M  V30 16851 O 2779.13 3.87732 7.92204 0
M  V30 16852 O 2778.59 1.4459 7.59357 0
M  V30 16853 C 2777.65 0.347563 7.69115 0
M  V30 16854 C 2778.38 -0.96767 7.52806 0
M  V30 16855 O 2778.59 -1.21036 6.1011 0
M  V30 16856 C 2779.78 -1.04544 8.13308 0
M  V30 16857 O 2780.17 -2.38311 8.41922 0
M  V30 16858 C 2780.66 -0.491279 7.02284 0
M  V30 16859 C 2779.95 -0.996264 5.77469 0
M  V30 16860 N 2780 -0.0501808 4.62873 0
M  V30 16861 C 2780.15 -0.588177 3.36904 0
M  V30 16862 O 2780.24 -1.78598 3.17173 0
M  V30 16863 N 2780.19 0.329694 2.33686 0
M  V30 16864 C 2780.1 1.6953 2.45079 0
M  V30 16865 C 2779.95 2.16933 3.80505 0
M  V30 16866 C 2779.9 1.30326 4.83752 0
M  V30 16867 H 2777.16 0.374722 8.67691 0
M  V30 16868 H 2776.89 0.443421 6.90177 0
M  V30 16869 H 2777.76 -1.75537 7.96793 0
M  V30 16870 H 2780.42 -1.94496 5.46629 0
M  V30 16871 H 2780.7 0.608651 7.04676 0
M  V30 16872 H 2781.69 -0.889672 7.08939 0
M  V30 16873 H 2779.85 -0.43308 9.04564 0
M  V30 16874 H 2779.78 1.68366 5.8516 0
M  V30 16875 P 2781.72 -2.75334 8.47391 0
M  V30 16876 O 2781.94 -3.84128 9.44797 0
M  V30 16877 O 2782.51 -1.51947 8.68712 0
M  V30 16878 O 2781.97 -3.29363 6.99321 0
M  V30 16879 C 2781.03 -4.24011 6.4274 0
M  V30 16880 C 2781.76 -5.20775 5.52155 0
M  V30 16881 O 2781.97 -4.56534 4.22446 0
M  V30 16882 C 2783.16 -5.62629 5.96531 0
M  V30 16883 O 2783.55 -6.87667 5.41053 0
M  V30 16884 C 2784.04 -4.52537 5.39283 0
M  V30 16885 C 2783.33 -4.20027 4.08623 0
M  V30 16886 N 2783.38 -2.76189 3.71603 0
M  V30 16887 C 2783.3 -1.64862 4.52822 0
M  V30 16888 N 2783.38 -0.512671 3.88633 0
M  V30 16889 C 2783.52 -0.888083 2.54977 0
M  V30 16890 C 2783.65 -0.094668 1.38677 0
M  V30 16891 O 2783.67 1.13053 1.28163 0
M  V30 16892 N 2783.77 -0.890102 0.232633 0
M  V30 16893 C 2783.77 -2.26958 0.21772 0
M  V30 16894 N 2783.9 -2.84626 -0.97925 0
M  V30 16895 N 2783.64 -3.0178 1.31033 0
M  V30 16896 C 2783.52 -2.26781 2.43843 0
M  V30 16897 H 2780.54 -4.797 7.24003 0
M  V30 16898 H 2780.27 -3.69856 5.84513 0
M  V30 16899 H 2781.14 -6.10356 5.41441 0
M  V30 16900 H 2783.8 -4.79061 3.27488 0
M  V30 16901 H 2784.08 -3.64906 6.05785 0
M  V30 16902 H 2785.07 -4.8868 5.2125 0
M  V30 16903 H 2783.23 -5.66726 7.06352 0
M  V30 16904 H 2783.18 -1.71169 5.60966 0
M  V30 16905 H 2783.87 -0.419134 -0.644739 0
M  V30 16906 H 2783.9 -3.87332 -1.06098 0
M  V30 16907 H 2784 -2.26417 -1.82483 0
M  V30 16908 P 2785.1 -7.20834 5.23717 0
M  V30 16909 O 2785.32 -8.66104 5.38572 0
M  V30 16910 O 2785.89 -6.33544 6.1349 0
M  V30 16911 O 2785.35 -6.7751 3.72168 0
M  V30 16912 C 2784.41 -7.20825 2.7076 0
M  V30 16913 C 2785.14 -7.45864 1.40599 0
M  V30 16914 O 2785.35 -6.17651 0.734225 0
M  V30 16915 C 2786.54 -8.05808 1.51899 0
M  V30 16916 O 2786.93 -8.74358 0.335205 0
M  V30 16917 C 2787.42 -6.83093 1.70294 0
M  V30 16918 C 2786.71 -5.79992 0.836974 0
M  V30 16919 N 2786.76 -4.41864 1.38293 0
M  V30 16920 H 2783.92 -8.13644 3.0377 0
M  V30 16921 H 2783.65 -6.42788 2.55485 0
M  V30 16922 H 2784.52 -8.12039 0.792769 0
M  V30 16923 P 2788.48 -8.91 8.16908e-11 0
M  V30 16924 O 2788.7 -10.1736 -0.733766 0
M  V30 16925 O 2789.27 -8.73247 1.2395 0
M  V30 16926 O 2788.73 -7.66872 -0.971405 0
M  V30 16927 C 2787.79 -7.42212 -2.04614 0
M  V30 16928 C 2788.52 -6.86059 -3.24661 0
M  V30 16929 O 2788.73 -5.42847 -3.03646 0
M  V30 16930 C 2789.92 -7.41196 -3.50753 0
M  V30 16931 O 2790.31 -7.27073 -4.86816 0
M  V30 16932 C 2790.8 -6.5273 -2.63741 0
M  V30 16933 C 2790.09 -5.1842 -2.73198 0
M  V30 16934 N 2790.14 -4.38668 -1.47808 0
M  V30 16935 C 2790.29 -3.02239 -1.60048 0
M  V30 16936 O 2790.38 -2.46459 -2.67869 0
M  V30 16937 N 2790.33 -2.32436 -0.408571 0
M  V30 16938 C 2790.24 -2.85471 0.854993 0
M  V30 16939 O 2790.29 -2.12566 1.8531 0
M  V30 16940 C 2790.09 -4.28918 0.887335 0
M  V30 16941 C 2789.98 -4.91066 2.24619 0
M  V30 16942 C 2790.04 -5.00349 -0.255399 0
M  V30 16943 H 2787.3 -8.36803 -2.32493 0
M  V30 16944 H 2787.03 -6.701 -1.71105 0
M  V30 16945 H 2787.9 -7.03551 -4.13168 0
M  V30 16946 H 2790.56 -4.59773 -3.53894 0
M  V30 16947 H 2790.84 -6.88995 -1.59871 0
M  V30 16948 H 2791.83 -6.46749 -3.03687 0
M  V30 16949 H 2789.99 -8.46908 -3.20714 0
M  V30 16950 H 2789.92 -6.08548 -0.206986 0
M  V30 16951 H 2790.95 -5.34836 2.53099 0
M  V30 16952 H 2789.22 -5.69638 2.2291 0
M  V30 16953 H 2789.7 -4.13971 2.98044 0
M  V30 16954 H 2790.44 -1.33211 -0.474216 0
M  V30 16955 P 2791.86 -7.20834 -5.23717 0
M  V30 16956 O 2792.08 -7.79853 -6.57286 0
M  V30 16957 O 2792.65 -7.79239 -4.12957 0
M  V30 16958 O 2792.11 -5.63315 -5.29344 0
M  V30 16959 C 2791.17 -4.80255 -6.01876 0
M  V30 16960 C 2791.9 -3.64202 -6.65911 0
M  V30 16961 O 2792.11 -2.60694 -5.64732 0
M  V30 16962 C 2793.3 -3.93473 -7.1943 0
M  V30 16963 O 2793.69 -3.02071 -8.21205 0
M  V30 16964 C 2794.18 -3.73047 -5.97036 0
M  V30 16965 C 2793.47 -2.58828 -5.25741 0
M  V30 16966 N 2793.52 -2.68068 -3.77503 0
M  V30 16967 C 2793.44 -3.79715 -2.96723 0
M  V30 16968 N 2793.52 -3.5377 -1.68852 0
M  V30 16969 C 2793.66 -2.15054 -1.63254 0
M  V30 16970 C 2793.79 -1.28964 -0.518571 0
M  V30 16971 O 2793.81 -1.56826 0.679156 0
M  V30 16972 N 2793.91 0.0538097 -0.918425 0
M  V30 16973 C 2793.91 0.494275 -2.22578 0
M  V30 16974 N 2794.04 1.81086 -2.40434 0
M  V30 16975 N 2793.78 -0.313645 -3.27502 0
M  V30 16976 C 2793.66 -1.61829 -2.91033 0
M  V30 16977 H 2790.68 -5.40332 -6.79951 0
M  V30 16978 H 2790.41 -4.41613 -5.32378 0
M  V30 16979 H 2791.28 -3.26331 -7.47797 0
M  V30 16980 H 2793.94 -1.63422 -5.56814 0
M  V30 16981 H 2794.22 -4.63374 -5.34244 0
M  V30 16982 H 2795.21 -3.44728 -6.25838 0
M  V30 16983 H 2793.37 -4.96652 -7.57263 0
M  V30 16984 H 2793.32 -4.80617 -3.3614 0
M  V30 16985 H 2794.01 0.742702 -0.199384 0
M  V30 16986 H 2794.04 2.20598 -3.35588 0
M  V30 16987 H 2794.14 2.43518 -1.58945 0
M  V30 16988 P 2795.24 -2.75334 -8.47391 0
M  V30 16989 O 2795.46 -2.44571 -9.90142 0
M  V30 16990 O 2796.03 -3.87688 -7.92115 0
M  V30 16991 O 2795.49 -1.4459 -7.59357 0
M  V30 16992 C 2794.55 -0.347608 -7.69215 0
M  V30 16993 C 2795.28 0.96767 -7.52806 0
M  V30 16994 O 2795.49 1.21036 -6.1011 0
M  V30 16995 C 2796.68 1.04544 -8.13308 0
M  V30 16996 O 2797.07 2.38311 -8.41922 0
M  V30 16997 C 2797.56 0.491279 -7.02284 0
M  V30 16998 C 2796.85 0.996264 -5.77469 0
M  V30 16999 N 2796.9 0.0501916 -4.62973 0
M  V30 17000 H 2794.06 -0.374722 -8.67691 0
M  V30 17001 H 2793.79 -0.443485 -6.90277 0
M  V30 17002 H 2794.66 1.75537 -7.96793 0
M  V30 17003 P 2798.62 2.75334 -8.47391 0
M  V30 17004 O 2798.84 3.84128 -9.44797 0
M  V30 17005 O 2799.41 1.51947 -8.68712 0
M  V30 17006 O 2798.87 3.29363 -6.99321 0
M  V30 17007 C 2797.93 4.24011 -6.4274 0
M  V30 17008 C 2798.66 5.20775 -5.52155 0
M  V30 17009 O 2798.87 4.56534 -4.22446 0
M  V30 17010 C 2800.06 5.62629 -5.96531 0
M  V30 17011 O 2800.45 6.87667 -5.41053 0
M  V30 17012 C 2800.94 4.52537 -5.39283 0
M  V30 17013 C 2800.23 4.20027 -4.08623 0
M  V30 17014 N 2800.28 2.76189 -3.71603 0
M  V30 17015 H 2797.44 4.797 -7.24003 0
M  V30 17016 H 2797.17 3.69856 -5.84513 0
M  V30 17017 H 2798.04 6.10356 -5.41441 0
M  V30 17018 P 2802 7.20834 -5.23717 0
M  V30 17019 O 2802.22 8.66274 -5.38678 0
M  V30 17020 O 2802.79 6.33687 -6.13629 0
M  V30 17021 O 2802.25 6.7751 -3.72168 0
M  V30 17022 C 2801.31 7.20919 -2.70795 0
M  V30 17023 C 2802.04 7.45864 -1.40599 0
M  V30 17024 O 2802.25 6.17751 -0.734343 0
M  V30 17025 C 2803.44 8.05906 -1.51917 0
M  V30 17026 O 2803.83 8.74358 -0.335205 0
M  V30 17027 C 2804.32 6.83093 -1.70294 0
M  V30 17028 C 2803.61 5.79992 -0.836974 0
M  V30 17029 N 2803.66 4.41864 -1.38293 0
M  V30 17030 H 2800.83 8.13738 -3.03804 0
M  V30 17031 H 2800.55 6.42974 -2.55559 0
M  V30 17032 H 2801.42 8.12139 -0.792866 0
M  V30 17033 H 2804.08 5.80178 0.160643 0
M  V30 17034 H 2804.36 6.51379 -2.75643 0
M  V30 17035 H 2805.35 7.01832 -1.3448 0
M  V30 17036 H 2803.51 8.73771 -2.38364 0
M  V30 17037 P 2805.38 8.91 -8.27998e-11 0
M  V30 17038 O 2805.6 10.1726 0.733694 0
M  V30 17039 O 2806.17 8.73148 -1.23936 0
M  V30 17040 O 2805.63 7.66872 0.971405 0
M  V30 17041 C 2804.69 7.42309 2.04641 0
M  V30 17042 C 2805.42 6.86059 3.24661 0
M  V30 17043 O 2805.63 5.42847 3.03646 0
M  V30 17044 C 2806.82 7.41196 3.50753 0
M  V30 17045 O 2807.21 7.27073 4.86816 0
M  V30 17046 C 2807.7 6.5273 2.63741 0
M  V30 17047 C 2806.99 5.1842 2.73198 0
M  V30 17048 N 2807.04 4.38762 1.4784 0
M  V30 17049 C 2806.96 4.81605 0.168631 0
M  V30 17050 N 2807.04 3.85454 -0.713363 0
M  V30 17051 C 2807.18 2.6994 0.0566958 0
M  V30 17052 C 2807.31 1.34815 -0.338502 0
M  V30 17053 O 2807.33 0.869548 -1.47125 0
M  V30 17054 N 2807.43 0.496304 0.77465 0
M  V30 17055 C 2807.43 0.908403 2.09122 0
M  V30 17056 N 2807.56 -0.0517805 3.00955 0
M  V30 17057 N 2807.3 2.17875 2.46519 0
M  V30 17058 C 2807.18 3.01988 1.4033 0
M  V30 17059 H 2804.2 8.36803 2.32493 0
M  V30 17060 H 2803.93 6.70197 1.71129 0
M  V30 17061 H 2804.8 7.03551 4.13168 0
M  V30 17062 H 2807.46 4.59498 3.54415 0
M  V30 17063 H 2807.74 6.88898 1.59848 0
M  V30 17064 H 2808.73 6.46749 3.03687 0
M  V30 17065 H 2806.89 8.46908 3.20714 0
M  V30 17066 H 2806.84 5.86405 -0.105564 0
M  V30 17067 H 2807.53 -0.483664 0.597855 0
M  V30 17068 H 2807.56 0.187865 4.0116 0
M  V30 17069 H 2807.66 -1.03585 2.71726 0
M  V30 17070 P 2808.76 7.20834 5.23717 0
M  V30 17071 O 2808.98 7.79853 6.57286 0
M  V30 17072 O 2809.55 7.79239 4.12957 0
M  V30 17073 O 2809.01 5.63315 5.29344 0
M  V30 17074 C 2808.07 4.80255 6.01876 0
M  V30 17075 C 2808.8 3.64202 6.65911 0
M  V30 17076 O 2809.01 2.60694 5.64732 0
M  V30 17077 C 2810.2 3.93473 7.1943 0
M  V30 17078 O 2810.59 3.02071 8.21205 0
M  V30 17079 C 2811.08 3.73047 5.97036 0
M  V30 17080 C 2810.37 2.58828 5.25741 0
M  V30 17081 N 2810.42 2.68068 3.77503 0
M  V30 17082 H 2807.58 5.40332 6.79951 0
M  V30 17083 H 2807.31 4.41613 5.32378 0
M  V30 17084 H 2808.18 3.26331 7.47797 0
M  V30 17085 P 2812.14 2.75334 8.47391 0
M  V30 17086 O 2812.36 2.44571 9.90142 0
M  V30 17087 O 2812.93 3.87688 7.92115 0
M  V30 17088 O 2812.39 1.4459 7.59357 0
M  V30 17089 C 2811.45 0.347608 7.69215 0
M  V30 17090 C 2812.18 -0.96767 7.52806 0
M  V30 17091 O 2812.39 -1.21036 6.1011 0
M  V30 17092 C 2813.58 -1.04544 8.13308 0
M  V30 17093 O 2813.97 -2.38311 8.41922 0
M  V30 17094 C 2814.46 -0.491279 7.02284 0
M  V30 17095 C 2813.75 -0.996264 5.77469 0
M  V30 17096 N 2813.8 -0.0501916 4.62973 0
M  V30 17097 H 2810.96 0.374722 8.67691 0
M  V30 17098 H 2810.69 0.443485 6.90277 0
M  V30 17099 H 2811.56 -1.75537 7.96793 0
M  V30 17100 P 2815.52 -2.75334 8.47391 0
M  V30 17101 O 2815.74 -3.84128 9.44797 0
M  V30 17102 O 2816.31 -1.51947 8.68712 0
M  V30 17103 O 2815.77 -3.29363 6.99321 0
M  V30 17104 C 2814.83 -4.24011 6.4274 0
M  V30 17105 C 2815.56 -5.20775 5.52155 0
M  V30 17106 O 2815.77 -4.56534 4.22446 0
M  V30 17107 C 2816.96 -5.62629 5.96531 0
M  V30 17108 O 2817.35 -6.87667 5.41053 0
M  V30 17109 C 2817.84 -4.52537 5.39283 0
M  V30 17110 C 2817.13 -4.20027 4.08623 0
M  V30 17111 N 2817.18 -2.76189 3.71603 0
M  V30 17112 H 2814.34 -4.797 7.24003 0
M  V30 17113 H 2814.07 -3.69856 5.84513 0
M  V30 17114 H 2814.94 -6.10356 5.41441 0
M  V30 17115 P 2818.9 -7.20834 5.23717 0
M  V30 17116 O 2819.12 -8.66189 5.38625 0
M  V30 17117 O 2819.69 -6.33615 6.1356 0
M  V30 17118 O 2819.15 -6.7751 3.72168 0
M  V30 17119 C 2818.21 -7.20825 2.7076 0
M  V30 17120 C 2818.94 -7.45864 1.40599 0
M  V30 17121 O 2819.15 -6.17651 0.734225 0
M  V30 17122 C 2820.34 -8.05808 1.51899 0
M  V30 17123 O 2820.73 -8.74358 0.335205 0
M  V30 17124 C 2821.22 -6.83093 1.70294 0
M  V30 17125 C 2820.51 -5.79992 0.836974 0
M  V30 17126 N 2820.56 -4.41769 1.38263 0
M  V30 17127 C 2820.71 -3.36514 0.485617 0
M  V30 17128 O 2820.8 -3.61814 -0.724703 0
M  V30 17129 N 2820.76 -2.00746 1.14492 0
M  V30 17130 C 2820.66 -1.85887 2.27776 0
M  V30 17131 N 2820.71 -0.600907 2.69379 0
M  V30 17132 C 2820.51 -2.92182 3.22265 0
M  V30 17133 C 2820.46 -4.18399 2.71925 0
M  V30 17134 H 2817.72 -8.1355 3.03735 0
M  V30 17135 H 2817.45 -6.42695 2.55448 0
M  V30 17136 H 2818.32 -8.12139 0.792866 0
M  V30 17137 H 2820.98 -5.80078 -0.160615 0
M  V30 17138 H 2821.26 -6.51379 2.75643 0
M  V30 17139 H 2822.25 -7.01734 1.34462 0
M  V30 17140 H 2820.41 -8.73674 2.38337 0
M  V30 17141 H 2820.34 -5.02669 3.39718 0
M  V30 17142 H 2820.44 -2.73001 4.29239 0
M  V30 17143 H 2820.83 0.162318 2.01146 0
M  V30 17144 H 2820.63 -0.387742 3.69773 0
M  V30 17145 P 2822.28 -8.91 8.39088e-11 0
M  V30 17146 O 2822.5 -10.1726 -0.733694 0
M  V30 17147 O 2823.07 -8.73148 1.23936 0
M  V30 17148 O 2822.53 -7.66872 -0.971405 0
M  V30 17149 C 2821.59 -7.42309 -2.04641 0
M  V30 17150 C 2822.32 -6.86059 -3.24661 0
M  V30 17151 O 2822.53 -5.42847 -3.03646 0
M  V30 17152 C 2823.72 -7.41196 -3.50753 0
M  V30 17153 O 2824.11 -7.27073 -4.86816 0
M  V30 17154 C 2824.6 -6.5273 -2.63741 0
M  V30 17155 C 2823.89 -5.1842 -2.73198 0
M  V30 17156 N 2823.94 -4.38762 -1.4784 0
M  V30 17157 H 2821.1 -8.36803 -2.32493 0
M  V30 17158 H 2820.83 -6.70197 -1.71129 0
M  V30 17159 H 2821.7 -7.03551 -4.13168 0
M  V30 17160 P 2825.66 -7.20834 -5.23717 0
M  V30 17161 O 2825.88 -7.80006 -6.57415 0
M  V30 17162 O 2826.45 -7.79416 -4.13051 0
M  V30 17163 O 2825.91 -5.63315 -5.29344 0
M  V30 17164 C 2824.97 -4.80318 -6.01954 0
M  V30 17165 C 2825.7 -3.64202 -6.65911 0
M  V30 17166 O 2825.91 -2.60736 -5.64823 0
M  V30 17167 C 2827.1 -3.93521 -7.19518 0
M  V30 17168 O 2827.49 -3.02071 -8.21205 0
M  V30 17169 C 2827.98 -3.73047 -5.97036 0
M  V30 17170 C 2827.27 -2.58828 -5.25741 0
M  V30 17171 N 2827.32 -2.68068 -3.77503 0
M  V30 17172 H 2824.49 -5.40394 -6.8003 0
M  V30 17173 H 2824.21 -4.41741 -5.32532 0
M  V30 17174 H 2825.08 -3.26371 -7.47889 0
M  V30 17175 H 2827.74 -1.64007 -5.56746 0
M  V30 17176 H 2828.02 -4.63439 -5.3432 0
M  V30 17177 H 2829.01 -3.44776 -6.25925 0
M  V30 17178 H 2827.17 -4.96707 -7.57347 0
M  V30 17179 P 2829.04 -2.75334 -8.47391 0
M  V30 17180 O 2829.26 -2.44571 -9.90142 0
M  V30 17181 O 2829.83 -3.87688 -7.92115 0
M  V30 17182 O 2829.29 -1.4459 -7.59357 0
M  V30 17183 C 2828.35 -0.347608 -7.69215 0
M  V30 17184 C 2829.08 0.96767 -7.52806 0
M  V30 17185 O 2829.29 1.21036 -6.1011 0
M  V30 17186 C 2830.48 1.04544 -8.13308 0
M  V30 17187 O 2830.87 2.38311 -8.41922 0
M  V30 17188 C 2831.36 0.491279 -7.02284 0
M  V30 17189 C 2830.65 0.996264 -5.77469 0
M  V30 17190 N 2830.7 0.0501916 -4.62973 0
M  V30 17191 H 2827.86 -0.374722 -8.67691 0
M  V30 17192 H 2827.59 -0.443485 -6.90277 0
M  V30 17193 H 2828.46 1.75537 -7.96793 0
M  V30 17194 P 2832.42 2.75334 -8.47391 0
M  V30 17195 O 2832.64 3.84204 -9.44982 0
M  V30 17196 O 2833.21 1.51982 -8.68909 0
M  V30 17197 O 2832.67 3.29363 -6.99321 0
M  V30 17198 C 2831.73 4.24066 -6.42823 0
M  V30 17199 C 2832.46 5.20775 -5.52155 0
M  V30 17200 O 2832.67 4.56607 -4.22514 0
M  V30 17201 C 2833.86 5.62697 -5.96604 0
M  V30 17202 O 2834.25 6.87667 -5.41053 0
M  V30 17203 C 2834.74 4.52537 -5.39283 0
M  V30 17204 C 2834.03 4.20027 -4.08623 0
M  V30 17205 N 2834.08 2.76189 -3.71603 0
M  V30 17206 C 2834 1.66944 -4.54297 0
M  V30 17207 N 2834.07 0.536169 -3.91344 0
M  V30 17208 C 2834.22 0.901569 -2.58849 0
M  V30 17209 C 2834.35 0.146599 -1.40236 0
M  V30 17210 N 2834.36 -1.18234 -1.37046 0
M  V30 17211 N 2834.47 0.822941 -0.249738 0
M  V30 17212 C 2834.46 2.15179 -0.280525 0
M  V30 17213 N 2834.34 2.96414 -1.30822 0
M  V30 17214 C 2834.22 2.25804 -2.44748 0
M  V30 17215 H 2831.25 4.79756 -7.24086 0
M  V30 17216 H 2830.97 3.69963 -5.84682 0
M  V30 17217 H 2831.84 6.10431 -5.41508 0
M  V30 17218 H 2834.5 4.78816 -3.28024 0
M  V30 17219 H 2834.78 3.64957 -6.05871 0
M  V30 17220 H 2835.77 4.88748 -5.21323 0
M  V30 17221 H 2833.93 5.66789 -7.0643 0
M  V30 17222 H 2833.89 1.74684 -5.62396 0
M  V30 17223 H 2834.27 -1.71949 -2.24394 0
M  V30 17224 H 2834.46 -1.67511 -0.470742 0
M  V30 17225 H 2834.57 2.63704 0.6828 0
M  V30 17226 P 2835.8 7.20834 -5.23717 0
M  V30 17227 O 2836.02 8.66274 -5.38678 0
M  V30 17228 O 2836.59 6.33687 -6.13629 0
M  V30 17229 O 2836.05 6.7751 -3.72168 0
M  V30 17230 C 2835.11 7.20919 -2.70795 0
M  V30 17231 C 2835.84 7.45864 -1.40599 0
M  V30 17232 O 2836.05 6.17751 -0.734343 0
M  V30 17233 C 2837.24 8.05906 -1.51917 0
M  V30 17234 O 2837.63 8.74358 -0.335205 0
M  V30 17235 C 2838.12 6.83093 -1.70294 0
M  V30 17236 C 2837.41 5.79992 -0.836974 0
M  V30 17237 N 2837.46 4.41864 -1.38293 0
M  V30 17238 C 2837.38 4.02089 -2.69407 0
M  V30 17239 N 2837.45 2.73403 -2.85089 0
M  V30 17240 C 2837.6 2.25086 -1.5642 0
M  V30 17241 C 2837.73 0.942887 -1.04836 0
M  V30 17242 N 2837.74 -0.150999 -1.80369 0
M  V30 17243 N 2837.85 0.812565 0.28167 0
M  V30 17244 C 2837.84 1.90572 1.03784 0
M  V30 17245 N 2837.72 3.167 0.683905 0
M  V30 17246 C 2837.6 3.26538 -0.652815 0
M  V30 17247 H 2834.63 8.13738 -3.03804 0
M  V30 17248 H 2834.35 6.42974 -2.55559 0
M  V30 17249 H 2835.22 8.12139 -0.792866 0
M  V30 17250 H 2837.88 5.80178 0.160643 0
M  V30 17251 H 2838.16 6.51379 -2.75643 0
M  V30 17252 H 2839.15 7.01832 -1.3448 0
M  V30 17253 H 2837.31 8.73771 -2.38364 0
M  V30 17254 H 2837.27 4.7189 -3.52311 0
M  V30 17255 H 2837.65 -0.0721434 -2.82608 0
M  V30 17256 H 2837.84 -1.0785 -1.36544 0
M  V30 17257 H 2837.95 1.73207 2.10241 0
M  V30 17258 P 2839.18 8.91 -8.50179e-11 0
M  V30 17259 O 2839.4 10.1736 0.733766 0
M  V30 17260 O 2839.97 8.73247 -1.2395 0
M  V30 17261 O 2839.43 7.66872 0.971405 0
M  V30 17262 C 2838.49 7.42212 2.04614 0
M  V30 17263 C 2839.22 6.86059 3.24661 0
M  V30 17264 O 2839.43 5.42847 3.03646 0
M  V30 17265 C 2840.62 7.41196 3.50753 0
M  V30 17266 O 2841.01 7.27073 4.86816 0
M  V30 17267 C 2841.5 6.5273 2.63741 0
M  V30 17268 C 2840.79 5.1842 2.73198 0
M  V30 17269 N 2840.84 4.38668 1.47808 0
M  V30 17270 C 2840.99 3.02239 1.60048 0
M  V30 17271 O 2841.08 2.46459 2.67869 0
M  V30 17272 N 2841.03 2.32436 0.408571 0
M  V30 17273 C 2840.94 2.85471 -0.854993 0
M  V30 17274 O 2840.99 2.12566 -1.8531 0
M  V30 17275 C 2840.79 4.28918 -0.887335 0
M  V30 17276 C 2840.68 4.91066 -2.24619 0
M  V30 17277 C 2840.74 5.00349 0.255399 0
M  V30 17278 H 2838 8.36803 2.32493 0
M  V30 17279 H 2837.73 6.701 1.71105 0
M  V30 17280 H 2838.6 7.03551 4.13168 0
M  V30 17281 H 2841.26 4.59773 3.53894 0
M  V30 17282 H 2841.54 6.88995 1.59871 0
M  V30 17283 H 2842.53 6.46749 3.03687 0
M  V30 17284 H 2840.69 8.46908 3.20714 0
M  V30 17285 H 2840.62 6.08548 0.206986 0
M  V30 17286 H 2841.65 5.34836 -2.53099 0
M  V30 17287 H 2839.92 5.69638 -2.2291 0
M  V30 17288 H 2840.4 4.13971 -2.98044 0
M  V30 17289 H 2841.14 1.33211 0.474216 0
M  V30 17290 P 2842.56 7.20834 5.23717 0
M  V30 17291 O 2842.78 7.79853 6.57286 0
M  V30 17292 O 2843.35 7.79239 4.12957 0
M  V30 17293 O 2842.81 5.63315 5.29344 0
M  V30 17294 C 2841.87 4.80255 6.01876 0
M  V30 17295 C 2842.6 3.64202 6.65911 0
M  V30 17296 O 2842.81 2.60694 5.64732 0
M  V30 17297 C 2844 3.93473 7.1943 0
M  V30 17298 O 2844.39 3.02071 8.21205 0
M  V30 17299 C 2844.88 3.73047 5.97036 0
M  V30 17300 C 2844.17 2.58828 5.25741 0
M  V30 17301 N 2844.22 2.68068 3.77503 0
M  V30 17302 H 2841.38 5.40332 6.79951 0
M  V30 17303 H 2841.11 4.41613 5.32378 0
M  V30 17304 H 2841.98 3.26331 7.47797 0
M  V30 17305 P 2845.94 2.75334 8.47391 0
M  V30 17306 O 2846.16 2.44595 9.90239 0
M  V30 17307 O 2846.73 3.87732 7.92204 0
M  V30 17308 O 2846.19 1.4459 7.59357 0
M  V30 17309 C 2845.25 0.347563 7.69115 0
M  V30 17310 C 2845.98 -0.96767 7.52806 0
M  V30 17311 O 2846.19 -1.21036 6.1011 0
M  V30 17312 C 2847.38 -1.04544 8.13308 0
M  V30 17313 O 2847.77 -2.38311 8.41922 0
M  V30 17314 C 2848.26 -0.491279 7.02284 0
M  V30 17315 C 2847.55 -0.996264 5.77469 0
M  V30 17316 N 2847.6 -0.0501808 4.62873 0
M  V30 17317 C 2847.75 -0.588177 3.36904 0
M  V30 17318 O 2847.84 -1.78598 3.17173 0
M  V30 17319 N 2847.79 0.329694 2.33686 0
M  V30 17320 C 2847.7 1.6953 2.45079 0
M  V30 17321 O 2847.75 2.41926 1.44899 0
M  V30 17322 C 2847.55 2.16933 3.80505 0
M  V30 17323 C 2847.44 3.65373 3.97621 0
M  V30 17324 C 2847.5 1.30326 4.83752 0
M  V30 17325 H 2844.76 0.374722 8.67691 0
M  V30 17326 H 2844.49 0.443421 6.90177 0
M  V30 17327 H 2845.36 -1.75537 7.96793 0
M  V30 17328 H 2848.02 -1.94496 5.46629 0
M  V30 17329 H 2848.3 0.608651 7.04676 0
M  V30 17330 H 2849.29 -0.889672 7.08939 0
M  V30 17331 H 2847.45 -0.43308 9.04564 0
M  V30 17332 H 2847.38 1.68366 5.8516 0
M  V30 17333 H 2848.41 4.05985 4.30448 0
M  V30 17334 H 2846.68 3.88028 4.72875 0
M  V30 17335 H 2847.16 4.11381 3.01609 0
M  V30 17336 H 2847.9 -0.0393617 1.41345 0
M  V30 17337 P 2849.32 -2.75334 8.47391 0
M  V30 17338 O 2849.54 -3.84166 9.4489 0
M  V30 17339 O 2850.11 -1.51964 8.6881 0
M  V30 17340 O 2849.57 -3.29363 6.99321 0
M  V30 17341 C 2848.63 -4.23956 6.42656 0
M  V30 17342 C 2849.36 -5.20775 5.52155 0
M  V30 17343 O 2849.57 -4.56534 4.22446 0
M  V30 17344 C 2850.76 -5.62629 5.96531 0
M  V30 17345 O 2851.15 -6.87667 5.41053 0
M  V30 17346 C 2851.64 -4.52537 5.39283 0
M  V30 17347 C 2850.93 -4.20027 4.08623 0
M  V30 17348 N 2850.98 -2.7613 3.71522 0
M  V30 17349 C 2851.13 -2.45612 2.37989 0
M  V30 17350 O 2851.22 -3.30919 1.51621 0
M  V30 17351 N 2851.17 -1.10684 2.08435 0
M  V30 17352 C 2851.08 -0.0690084 2.9792 0
M  V30 17353 O 2851.13 1.10553 2.59426 0
M  V30 17354 C 2850.93 -0.481522 4.35345 0
M  V30 17355 C 2850.82 0.618778 5.36443 0
M  V30 17356 C 2850.88 -1.78906 4.67968 0
M  V30 17357 H 2848.14 -4.797 7.24003 0
M  V30 17358 H 2847.87 -3.69802 5.84429 0
M  V30 17359 H 2848.74 -6.10356 5.41441 0
M  V30 17360 H 2851.4 -4.78651 3.27911 0
M  V30 17361 H 2851.68 -3.64957 6.05871 0
M  V30 17362 H 2852.67 -4.8868 5.2125 0
M  V30 17363 H 2850.83 -5.66726 7.06352 0
M  V30 17364 H 2850.76 -2.07737 5.72367 0
M  V30 17365 H 2851.79 0.754375 5.86871 0
M  V30 17366 H 2850.06 0.359721 6.10641 0
M  V30 17367 H 2850.54 1.55533 4.8581 0
M  V30 17368 H 2851.28 -0.862651 1.12037 0
M  V30 17369 P 2852.7 -7.20834 5.23717 0
M  V30 17370 O 2852.92 -8.66104 5.38572 0
M  V30 17371 O 2853.49 -6.33544 6.1349 0
M  V30 17372 O 2852.95 -6.7751 3.72168 0
M  V30 17373 C 2852.01 -7.20825 2.7076 0
M  V30 17374 C 2852.74 -7.45864 1.40599 0
M  V30 17375 O 2852.95 -6.17651 0.734225 0
M  V30 17376 C 2854.14 -8.05808 1.51899 0
M  V30 17377 O 2854.53 -8.74358 0.335205 0
M  V30 17378 C 2855.02 -6.83093 1.70294 0
M  V30 17379 C 2854.31 -5.79992 0.836974 0
M  V30 17380 N 2854.36 -4.41864 1.38293 0
M  V30 17381 H 2851.52 -8.13644 3.0377 0
M  V30 17382 H 2851.25 -6.42788 2.55485 0
M  V30 17383 H 2852.12 -8.12039 0.792769 0
M  V30 17384 P 2856.08 -8.91 8.61269e-11 0
M  V30 17385 O 2856.3 -10.1726 -0.733694 0
M  V30 17386 O 2856.87 -8.73148 1.23936 0
M  V30 17387 O 2856.33 -7.66872 -0.971405 0
M  V30 17388 C 2855.39 -7.42309 -2.04641 0
M  V30 17389 C 2856.12 -6.86059 -3.24661 0
M  V30 17390 O 2856.33 -5.42847 -3.03646 0
M  V30 17391 C 2857.52 -7.41196 -3.50753 0
M  V30 17392 O 2857.91 -7.27073 -4.86816 0
M  V30 17393 C 2858.4 -6.5273 -2.63741 0
M  V30 17394 C 2857.69 -5.1842 -2.73198 0
M  V30 17395 N 2857.74 -4.38762 -1.4784 0
M  V30 17396 C 2857.66 -4.81605 -0.168631 0
M  V30 17397 N 2857.74 -3.85454 0.713363 0
M  V30 17398 C 2857.88 -2.6994 -0.0566958 0
M  V30 17399 C 2858.01 -1.34815 0.338502 0
M  V30 17400 O 2858.03 -0.869548 1.47125 0
M  V30 17401 N 2858.13 -0.496304 -0.77465 0
M  V30 17402 C 2858.13 -0.908403 -2.09122 0
M  V30 17403 N 2858.26 0.0517805 -3.00955 0
M  V30 17404 N 2858 -2.17875 -2.46519 0
M  V30 17405 C 2857.88 -3.01988 -1.4033 0
M  V30 17406 H 2854.9 -8.36803 -2.32493 0
M  V30 17407 H 2854.63 -6.70197 -1.71129 0
M  V30 17408 H 2855.5 -7.03551 -4.13168 0
M  V30 17409 H 2858.16 -4.59498 -3.54415 0
M  V30 17410 H 2858.44 -6.88898 -1.59848 0
M  V30 17411 H 2859.43 -6.46749 -3.03687 0
M  V30 17412 H 2857.59 -8.46908 -3.20714 0
M  V30 17413 H 2857.54 -5.86405 0.105564 0
M  V30 17414 H 2858.23 0.483664 -0.597855 0
M  V30 17415 H 2858.26 -0.187865 -4.0116 0
M  V30 17416 H 2858.36 1.03585 -2.71726 0
M  V30 17417 P 2859.46 -7.20834 -5.23717 0
M  V30 17418 O 2859.68 -7.79853 -6.57286 0
M  V30 17419 O 2860.25 -7.79239 -4.12957 0
M  V30 17420 O 2859.71 -5.63315 -5.29344 0
M  V30 17421 C 2858.77 -4.80255 -6.01876 0
M  V30 17422 C 2859.5 -3.64202 -6.65911 0
M  V30 17423 O 2859.71 -2.60694 -5.64732 0
M  V30 17424 C 2860.9 -3.93473 -7.1943 0
M  V30 17425 O 2861.29 -3.02071 -8.21205 0
M  V30 17426 C 2861.78 -3.73047 -5.97036 0
M  V30 17427 C 2861.07 -2.58828 -5.25741 0
M  V30 17428 N 2861.12 -2.68068 -3.77503 0
M  V30 17429 C 2861.04 -3.79715 -2.96723 0
M  V30 17430 N 2861.12 -3.5377 -1.68852 0
M  V30 17431 C 2861.26 -2.15054 -1.63254 0
M  V30 17432 C 2861.39 -1.28964 -0.518571 0
M  V30 17433 N 2861.51 0.0538097 -0.918425 0
M  V30 17434 C 2861.51 0.494275 -2.22578 0
M  V30 17435 N 2861.64 1.81086 -2.40434 0
M  V30 17436 N 2861.38 -0.313645 -3.27502 0
M  V30 17437 C 2861.26 -1.61829 -2.91033 0
M  V30 17438 H 2858.28 -5.40332 -6.79951 0
M  V30 17439 H 2858.01 -4.41613 -5.32378 0
M  V30 17440 H 2858.88 -3.26331 -7.47797 0
M  V30 17441 P 2862.84 -2.75334 -8.47391 0
M  V30 17442 O 2863.06 -2.44571 -9.90142 0
M  V30 17443 O 2863.63 -3.87688 -7.92115 0
M  V30 17444 O 2863.09 -1.4459 -7.59357 0
M  V30 17445 C 2862.15 -0.347608 -7.69215 0
M  V30 17446 C 2862.88 0.96767 -7.52806 0
M  V30 17447 O 2863.09 1.21036 -6.1011 0
M  V30 17448 C 2864.28 1.04544 -8.13308 0
M  V30 17449 O 2864.67 2.38311 -8.41922 0
M  V30 17450 C 2865.16 0.491279 -7.02284 0
M  V30 17451 C 2864.45 0.996264 -5.77469 0
M  V30 17452 N 2864.5 0.0501916 -4.62973 0
M  V30 17453 H 2861.66 -0.374722 -8.67691 0
M  V30 17454 H 2861.39 -0.443485 -6.90277 0
M  V30 17455 H 2862.26 1.75537 -7.96793 0
M  V30 17456 P 2866.22 2.75334 -8.47391 0
M  V30 17457 O 2866.44 3.84204 -9.44982 0
M  V30 17458 O 2867.01 1.51982 -8.68909 0
M  V30 17459 O 2866.47 3.29363 -6.99321 0
M  V30 17460 C 2865.53 4.24066 -6.42823 0
M  V30 17461 C 2866.26 5.20775 -5.52155 0
M  V30 17462 O 2866.47 4.56607 -4.22514 0
M  V30 17463 C 2867.66 5.62697 -5.96604 0
M  V30 17464 O 2868.05 6.87667 -5.41053 0
M  V30 17465 C 2868.54 4.52537 -5.39283 0
M  V30 17466 C 2867.83 4.20027 -4.08623 0
M  V30 17467 N 2867.88 2.76189 -3.71603 0
M  V30 17468 H 2865.05 4.79756 -7.24086 0
M  V30 17469 H 2864.77 3.69963 -5.84682 0
M  V30 17470 H 2865.64 6.10431 -5.41508 0
M  V30 17471 H 2868.3 4.78816 -3.28024 0
M  V30 17472 H 2868.58 3.64957 -6.05871 0
M  V30 17473 H 2869.57 4.88748 -5.21323 0
M  V30 17474 H 2867.73 5.66789 -7.0643 0
M  V30 17475 P 2869.6 7.20834 -5.23717 0
M  V30 17476 O 2869.82 8.66104 -5.38572 0
M  V30 17477 O 2870.39 6.33544 -6.1349 0
M  V30 17478 O 2869.85 6.7751 -3.72168 0
M  V30 17479 C 2868.91 7.20825 -2.7076 0
M  V30 17480 C 2869.64 7.45864 -1.40599 0
M  V30 17481 O 2869.85 6.17651 -0.734225 0
M  V30 17482 C 2871.04 8.05808 -1.51899 0
M  V30 17483 O 2871.43 8.74358 -0.335205 0
M  V30 17484 C 2871.92 6.83093 -1.70294 0
M  V30 17485 C 2871.21 5.79992 -0.836974 0
M  V30 17486 N 2871.26 4.41864 -1.38293 0
M  V30 17487 H 2868.42 8.13644 -3.0377 0
M  V30 17488 H 2868.15 6.42788 -2.55485 0
M  V30 17489 H 2869.02 8.12039 -0.792769 0
M  V30 17490 P 2872.98 8.91 -8.72359e-11 0
M  V30 17491 O 2873.2 10.1726 0.733694 0
M  V30 17492 O 2873.77 8.73148 -1.23936 0
M  V30 17493 O 2873.23 7.66872 0.971405 0
M  V30 17494 C 2872.29 7.42309 2.04641 0
M  V30 17495 C 2873.02 6.86059 3.24661 0
M  V30 17496 O 2873.23 5.42847 3.03646 0
M  V30 17497 C 2874.42 7.41196 3.50753 0
M  V30 17498 O 2874.81 7.27073 4.86816 0
M  V30 17499 C 2875.3 6.5273 2.63741 0
M  V30 17500 C 2874.59 5.1842 2.73198 0
M  V30 17501 N 2874.64 4.38762 1.4784 0
M  V30 17502 H 2871.8 8.36803 2.32493 0
M  V30 17503 H 2871.53 6.70197 1.71129 0
M  V30 17504 H 2872.4 7.03551 4.13168 0
M  V30 17505 P 2876.36 7.20834 5.23717 0
M  V30 17506 O 2876.58 7.80006 6.57415 0
M  V30 17507 O 2877.15 7.79416 4.13051 0
M  V30 17508 O 2876.61 5.63315 5.29344 0
M  V30 17509 C 2875.67 4.80318 6.01954 0
M  V30 17510 C 2876.4 3.64202 6.65911 0
M  V30 17511 O 2876.61 2.60736 5.64823 0
M  V30 17512 C 2877.8 3.93521 7.19518 0
M  V30 17513 O 2878.19 3.02071 8.21205 0
M  V30 17514 C 2878.68 3.73047 5.97036 0
M  V30 17515 C 2877.97 2.58828 5.25741 0
M  V30 17516 N 2878.02 2.68068 3.77503 0
M  V30 17517 C 2877.94 3.80474 2.99159 0
M  V30 17518 N 2878.01 3.55622 1.71925 0
M  V30 17519 C 2878.16 2.1832 1.65733 0
M  V30 17520 C 2878.29 1.28842 0.572777 0
M  V30 17521 N 2878.3 1.66875 -0.70098 0
M  V30 17522 N 2878.41 -0.016788 0.859836 0
M  V30 17523 C 2878.4 -0.398145 2.13316 0
M  V30 17524 N 2878.28 0.328224 3.22333 0
M  V30 17525 C 2878.16 1.62992 2.90383 0
M  V30 17526 H 2875.18 5.40394 6.8003 0
M  V30 17527 H 2874.91 4.41741 5.32532 0
M  V30 17528 H 2875.78 3.26371 7.47889 0
M  V30 17529 H 2878.44 1.64007 5.56746 0
M  V30 17530 H 2878.72 4.63439 5.3432 0
M  V30 17531 H 2879.71 3.44776 6.25925 0
M  V30 17532 H 2877.87 4.96707 7.57347 0
M  V30 17533 H 2877.83 4.8089 3.39924 0
M  V30 17534 H 2878.21 2.66547 -0.941919 0
M  V30 17535 H 2878.4 0.965341 -1.44766 0
M  V30 17536 H 2878.51 -1.46427 2.29697 0
M  V30 17537 P 2879.74 2.75334 8.47391 0
M  V30 17538 O 2879.96 2.44595 9.90239 0
M  V30 17539 O 2880.53 3.87732 7.92204 0
M  V30 17540 O 2879.99 1.4459 7.59357 0
M  V30 17541 C 2879.05 0.347563 7.69115 0
M  V30 17542 C 2879.78 -0.96767 7.52806 0
M  V30 17543 O 2879.99 -1.21036 6.1011 0
M  V30 17544 C 2881.18 -1.04544 8.13308 0
M  V30 17545 O 2881.57 -2.38311 8.41922 0
M  V30 17546 C 2882.06 -0.491279 7.02284 0
M  V30 17547 C 2881.35 -0.996264 5.77469 0
M  V30 17548 N 2881.4 -0.0501808 4.62873 0
M  V30 17549 C 2881.55 -0.588177 3.36904 0
M  V30 17550 O 2881.64 -1.78598 3.17173 0
M  V30 17551 N 2881.59 0.329694 2.33686 0
M  V30 17552 C 2881.5 1.6953 2.45079 0
M  V30 17553 O 2881.55 2.41926 1.44899 0
M  V30 17554 C 2881.35 2.16933 3.80505 0
M  V30 17555 C 2881.24 3.65373 3.97621 0
M  V30 17556 C 2881.3 1.30326 4.83752 0
M  V30 17557 H 2878.56 0.374722 8.67691 0
M  V30 17558 H 2878.29 0.443421 6.90177 0
M  V30 17559 H 2879.16 -1.75537 7.96793 0
M  V30 17560 H 2881.82 -1.94496 5.46629 0
M  V30 17561 H 2882.09 0.608651 7.04676 0
M  V30 17562 H 2883.09 -0.889672 7.08939 0
M  V30 17563 H 2881.25 -0.43308 9.04564 0
M  V30 17564 H 2881.18 1.68366 5.8516 0
M  V30 17565 H 2882.21 4.05985 4.30448 0
M  V30 17566 H 2880.47 3.88028 4.72875 0
M  V30 17567 H 2880.96 4.11381 3.01609 0
M  V30 17568 H 2881.7 -0.0393617 1.41345 0
M  V30 17569 P 2883.12 -2.75334 8.47391 0
M  V30 17570 O 2883.34 -3.84128 9.44797 0
M  V30 17571 O 2883.91 -1.51947 8.68712 0
M  V30 17572 O 2883.37 -3.29363 6.99321 0
M  V30 17573 C 2882.43 -4.24011 6.4274 0
M  V30 17574 C 2883.16 -5.20775 5.52155 0
M  V30 17575 O 2883.37 -4.56534 4.22446 0
M  V30 17576 C 2884.56 -5.62629 5.96531 0
M  V30 17577 O 2884.95 -6.87667 5.41053 0
M  V30 17578 C 2885.44 -4.52537 5.39283 0
M  V30 17579 C 2884.73 -4.20027 4.08623 0
M  V30 17580 N 2884.78 -2.76189 3.71603 0
M  V30 17581 C 2884.7 -1.64862 4.52822 0
M  V30 17582 N 2884.78 -0.512671 3.88633 0
M  V30 17583 C 2884.92 -0.888083 2.54977 0
M  V30 17584 C 2885.05 -0.094668 1.38677 0
M  V30 17585 N 2885.17 -0.890102 0.232633 0
M  V30 17586 C 2885.17 -2.26958 0.21772 0
M  V30 17587 N 2885.3 -2.84626 -0.97925 0
M  V30 17588 N 2885.04 -3.0178 1.31033 0
M  V30 17589 C 2884.92 -2.26781 2.43843 0
M  V30 17590 H 2881.94 -4.797 7.24003 0
M  V30 17591 H 2881.67 -3.69856 5.84513 0
M  V30 17592 H 2882.54 -6.10356 5.41441 0
M  V30 17593 P 2886.5 -7.20834 5.23717 0
M  V30 17594 O 2886.72 -8.66274 5.38678 0
M  V30 17595 O 2887.29 -6.33687 6.13629 0
M  V30 17596 O 2886.75 -6.7751 3.72168 0
M  V30 17597 C 2885.81 -7.20919 2.70795 0
M  V30 17598 C 2886.54 -7.45864 1.40599 0
M  V30 17599 O 2886.75 -6.17751 0.734343 0
M  V30 17600 C 2887.94 -8.05906 1.51917 0
M  V30 17601 O 2888.33 -8.74358 0.335205 0
M  V30 17602 C 2888.82 -6.83093 1.70294 0
M  V30 17603 C 2888.11 -5.79992 0.836974 0
M  V30 17604 N 2888.16 -4.41864 1.38293 0
M  V30 17605 C 2888.08 -4.02089 2.69407 0
M  V30 17606 N 2888.15 -2.73403 2.85089 0
M  V30 17607 C 2888.3 -2.25086 1.5642 0
M  V30 17608 C 2888.43 -0.942887 1.04836 0
M  V30 17609 N 2888.44 0.150999 1.80369 0
M  V30 17610 N 2888.55 -0.812565 -0.28167 0
M  V30 17611 C 2888.54 -1.90572 -1.03784 0
M  V30 17612 N 2888.42 -3.167 -0.683905 0
M  V30 17613 C 2888.3 -3.26538 0.652815 0
M  V30 17614 H 2885.32 -8.13738 3.03804 0
M  V30 17615 H 2885.05 -6.42974 2.55559 0
M  V30 17616 H 2885.92 -8.12139 0.792866 0
M  V30 17617 H 2888.58 -5.80178 -0.160643 0
M  V30 17618 H 2888.86 -6.51379 2.75643 0
M  V30 17619 H 2889.85 -7.01832 1.3448 0
M  V30 17620 H 2888.01 -8.73771 2.38364 0
M  V30 17621 H 2887.97 -4.7189 3.52311 0
M  V30 17622 H 2888.35 0.0721434 2.82608 0
M  V30 17623 H 2888.54 1.0785 1.36544 0
M  V30 17624 H 2888.65 -1.73207 -2.10241 0
M  V30 17625 P 2889.88 -8.91 8.83449e-11 0
M  V30 17626 O 2890.1 -10.1736 -0.733766 0
M  V30 17627 O 2890.67 -8.73247 1.2395 0
M  V30 17628 O 2890.13 -7.66872 -0.971405 0
M  V30 17629 C 2889.19 -7.42212 -2.04614 0
M  V30 17630 C 2889.92 -6.86059 -3.24661 0
M  V30 17631 O 2890.13 -5.42847 -3.03646 0
M  V30 17632 C 2891.32 -7.41196 -3.50753 0
M  V30 17633 O 2891.71 -7.27073 -4.86816 0
M  V30 17634 C 2892.2 -6.5273 -2.63741 0
M  V30 17635 C 2891.49 -5.1842 -2.73198 0
M  V30 17636 N 2891.54 -4.38668 -1.47808 0
M  V30 17637 C 2891.69 -3.02239 -1.60048 0
M  V30 17638 O 2891.78 -2.46459 -2.67869 0
M  V30 17639 N 2891.73 -2.32436 -0.408571 0
M  V30 17640 C 2891.64 -2.85471 0.854993 0
M  V30 17641 C 2891.49 -4.28918 0.887335 0
M  V30 17642 C 2891.44 -5.00349 -0.255399 0
M  V30 17643 H 2888.7 -8.36803 -2.32493 0
M  V30 17644 H 2888.43 -6.701 -1.71105 0
M  V30 17645 H 2889.3 -7.03551 -4.13168 0
M  V30 17646 H 2891.96 -4.59773 -3.53894 0
M  V30 17647 H 2892.23 -6.88995 -1.59871 0
M  V30 17648 H 2893.23 -6.46749 -3.03687 0
M  V30 17649 H 2891.39 -8.46908 -3.20714 0
M  V30 17650 H 2891.32 -6.08548 -0.206986 0
M  V30 17651 P 2893.26 -7.20834 -5.23717 0
M  V30 17652 O 2893.48 -7.79853 -6.57286 0
M  V30 17653 O 2894.05 -7.79239 -4.12957 0
M  V30 17654 O 2893.51 -5.63315 -5.29344 0
M  V30 17655 C 2892.57 -4.80255 -6.01876 0
M  V30 17656 C 2893.3 -3.64202 -6.65911 0
M  V30 17657 O 2893.51 -2.60694 -5.64732 0
M  V30 17658 C 2894.7 -3.93473 -7.1943 0
M  V30 17659 O 2895.09 -3.02071 -8.21205 0
M  V30 17660 C 2895.58 -3.73047 -5.97036 0
M  V30 17661 C 2894.87 -2.58828 -5.25741 0
M  V30 17662 N 2894.92 -2.68068 -3.77503 0
M  V30 17663 H 2892.08 -5.40332 -6.79951 0
M  V30 17664 H 2891.81 -4.41613 -5.32378 0
M  V30 17665 H 2892.68 -3.26331 -7.47797 0
M  V30 17666 P 2896.64 -2.75334 -8.47391 0
M  V30 17667 O 2896.86 -2.44619 -9.90336 0
M  V30 17668 O 2897.43 -3.87776 -7.92294 0
M  V30 17669 O 2896.89 -1.4459 -7.59357 0
M  V30 17670 C 2895.95 -0.347653 -7.69315 0
M  V30 17671 C 2896.68 0.96767 -7.52806 0
M  V30 17672 O 2896.89 1.21055 -6.10208 0
M  V30 17673 C 2898.08 1.04557 -8.13408 0
M  V30 17674 O 2898.47 2.38311 -8.41922 0
M  V30 17675 C 2898.96 0.491279 -7.02284 0
M  V30 17676 C 2898.25 0.996264 -5.77469 0
M  V30 17677 N 2898.3 0.0501916 -4.62973 0
M  V30 17678 H 2895.46 -0.374765 -8.67791 0
M  V30 17679 H 2895.19 -0.443613 -6.90476 0
M  V30 17680 H 2896.06 1.75559 -7.96891 0
M  V30 17681 H 2898.72 1.94563 -5.46818 0
M  V30 17682 H 2899 -0.608651 -7.04676 0
M  V30 17683 H 2899.99 0.889796 -7.09039 0
M  V30 17684 H 2898.15 0.433128 -9.04664 0
M  V30 17685 P 2900.02 2.75334 -8.47391 0
M  V30 17686 O 2900.24 3.84204 -9.44982 0
M  V30 17687 O 2900.81 1.51982 -8.68909 0
M  V30 17688 O 2900.27 3.29363 -6.99321 0
M  V30 17689 C 2899.33 4.24066 -6.42823 0
M  V30 17690 C 2900.06 5.20775 -5.52155 0
M  V30 17691 O 2900.27 4.56607 -4.22514 0
M  V30 17692 C 2901.46 5.62697 -5.96604 0
M  V30 17693 O 2901.85 6.87667 -5.41053 0
M  V30 17694 C 2902.34 4.52537 -5.39283 0
M  V30 17695 C 2901.63 4.20027 -4.08623 0
M  V30 17696 N 2901.68 2.76189 -3.71603 0
M  V30 17697 C 2901.6 1.66944 -4.54297 0
M  V30 17698 N 2901.67 0.536169 -3.91344 0
M  V30 17699 C 2901.82 0.901569 -2.58849 0
M  V30 17700 C 2901.95 0.146599 -1.40236 0
M  V30 17701 N 2901.96 -1.18234 -1.37046 0
M  V30 17702 N 2902.07 0.822941 -0.249738 0
M  V30 17703 C 2902.06 2.15179 -0.280525 0
M  V30 17704 N 2901.94 2.96414 -1.30822 0
M  V30 17705 C 2901.82 2.25804 -2.44748 0
M  V30 17706 H 2898.84 4.79756 -7.24086 0
M  V30 17707 H 2898.57 3.69963 -5.84682 0
M  V30 17708 H 2899.44 6.10431 -5.41508 0
M  V30 17709 H 2902.1 4.78816 -3.28024 0
M  V30 17710 H 2902.38 3.64957 -6.05871 0
M  V30 17711 H 2903.37 4.88748 -5.21323 0
M  V30 17712 H 2901.53 5.66789 -7.0643 0
M  V30 17713 H 2901.49 1.74684 -5.62396 0
M  V30 17714 H 2901.87 -1.71949 -2.24394 0
M  V30 17715 H 2902.06 -1.67511 -0.470742 0
M  V30 17716 H 2902.17 2.63704 0.6828 0
M  V30 17717 P 2903.4 7.20834 -5.23717 0
M  V30 17718 O 2903.62 8.66104 -5.38572 0
M  V30 17719 O 2904.19 6.33544 -6.1349 0
M  V30 17720 O 2903.65 6.7751 -3.72168 0
M  V30 17721 C 2902.71 7.20825 -2.7076 0
M  V30 17722 C 2903.44 7.45864 -1.40599 0
M  V30 17723 O 2903.65 6.17651 -0.734225 0
M  V30 17724 C 2904.84 8.05808 -1.51899 0
M  V30 17725 O 2905.23 8.74358 -0.335205 0
M  V30 17726 C 2905.72 6.83093 -1.70294 0
M  V30 17727 C 2905.01 5.79992 -0.836974 0
M  V30 17728 N 2905.06 4.41864 -1.38293 0
M  V30 17729 C 2904.98 3.99538 -2.69438 0
M  V30 17730 N 2905.06 2.69909 -2.84277 0
M  V30 17731 C 2905.2 2.21719 -1.5408 0
M  V30 17732 C 2905.33 0.891712 -1.06628 0
M  V30 17733 N 2905.45 0.856846 0.334985 0
M  V30 17734 C 2905.45 1.9641 1.15789 0
M  V30 17735 N 2905.58 1.72708 2.46522 0
M  V30 17736 N 2905.32 3.21165 0.713741 0
M  V30 17737 C 2905.2 3.26797 -0.639748 0
M  V30 17738 H 2902.22 8.13644 -3.0377 0
M  V30 17739 H 2901.95 6.42788 -2.55485 0
M  V30 17740 H 2902.82 8.12039 -0.792769 0
M  V30 17741 P 2906.78 8.91 -8.94539e-11 0
M  V30 17742 O 2907 10.1746 0.733838 0
M  V30 17743 O 2907.57 8.73346 -1.23964 0
M  V30 17744 O 2907.03 7.66872 0.971405 0
M  V30 17745 C 2906.09 7.42405 2.04668 0
M  V30 17746 C 2906.82 6.86059 3.24661 0
M  V30 17747 O 2907.03 5.42934 3.03695 0
M  V30 17748 C 2908.22 7.41287 3.50796 0
M  V30 17749 O 2908.61 7.27073 4.86816 0
M  V30 17750 C 2909.1 6.5273 2.63741 0
M  V30 17751 C 2908.39 5.1842 2.73198 0
M  V30 17752 N 2908.44 4.38762 1.4784 0
M  V30 17753 H 2905.6 8.36899 2.3252 0
M  V30 17754 H 2905.33 6.70391 1.71179 0
M  V30 17755 H 2906.2 7.03638 4.13219 0
M  V30 17756 H 2908.86 4.59931 3.54016 0
M  V30 17757 H 2909.14 6.88995 1.59871 0
M  V30 17758 H 2910.13 6.4684 3.0373 0
M  V30 17759 H 2908.29 8.47002 3.20749 0
M  V30 17760 P 2910.16 7.20834 5.23717 0
M  V30 17761 O 2910.38 7.80006 6.57415 0
M  V30 17762 O 2910.95 7.79416 4.13051 0
M  V30 17763 O 2910.41 5.63315 5.29344 0
M  V30 17764 C 2909.47 4.80318 6.01954 0
M  V30 17765 C 2910.2 3.64202 6.65911 0
M  V30 17766 O 2910.41 2.60736 5.64823 0
M  V30 17767 C 2911.6 3.93521 7.19518 0
M  V30 17768 O 2911.99 3.02071 8.21205 0
M  V30 17769 C 2912.48 3.73047 5.97036 0
M  V30 17770 C 2911.77 2.58828 5.25741 0
M  V30 17771 N 2911.82 2.68068 3.77503 0
M  V30 17772 C 2911.74 3.80474 2.99159 0
M  V30 17773 N 2911.81 3.55622 1.71925 0
M  V30 17774 C 2911.96 2.1832 1.65733 0
M  V30 17775 C 2912.09 1.28842 0.572777 0
M  V30 17776 N 2912.1 1.66875 -0.70098 0
M  V30 17777 N 2912.21 -0.016788 0.859836 0
M  V30 17778 C 2912.2 -0.398145 2.13316 0
M  V30 17779 N 2912.08 0.328224 3.22333 0
M  V30 17780 C 2911.96 1.62992 2.90383 0
M  V30 17781 H 2908.98 5.40394 6.8003 0
M  V30 17782 H 2908.71 4.41741 5.32532 0
M  V30 17783 H 2909.58 3.26371 7.47889 0
M  V30 17784 H 2912.24 1.64007 5.56746 0
M  V30 17785 H 2912.52 4.63439 5.3432 0
M  V30 17786 H 2913.51 3.44776 6.25925 0
M  V30 17787 H 2911.67 4.96707 7.57347 0
M  V30 17788 H 2911.63 4.8089 3.39924 0
M  V30 17789 H 2912.01 2.66547 -0.941919 0
M  V30 17790 H 2912.2 0.965341 -1.44766 0
M  V30 17791 H 2912.31 -1.46427 2.29697 0
M  V30 17792 P 2913.54 2.75334 8.47391 0
M  V30 17793 O 2913.76 2.44571 9.90142 0
M  V30 17794 O 2914.33 3.87688 7.92115 0
M  V30 17795 O 2913.79 1.4459 7.59357 0
M  V30 17796 C 2912.85 0.347608 7.69215 0
M  V30 17797 C 2913.58 -0.96767 7.52806 0
M  V30 17798 O 2913.79 -1.21036 6.1011 0
M  V30 17799 C 2914.98 -1.04544 8.13308 0
M  V30 17800 O 2915.37 -2.38311 8.41922 0
M  V30 17801 C 2915.86 -0.491279 7.02284 0
M  V30 17802 C 2915.15 -0.996264 5.77469 0
M  V30 17803 N 2915.2 -0.0501916 4.62973 0
M  V30 17804 H 2912.36 0.374722 8.67691 0
M  V30 17805 H 2912.09 0.443485 6.90277 0
M  V30 17806 H 2912.96 -1.75537 7.96793 0
M  V30 17807 P 2916.92 -2.75334 8.47391 0
M  V30 17808 O 2917.14 -3.84128 9.44797 0
M  V30 17809 O 2917.71 -1.51947 8.68712 0
M  V30 17810 O 2917.17 -3.29363 6.99321 0
M  V30 17811 C 2916.23 -4.24011 6.4274 0
M  V30 17812 C 2916.96 -5.20775 5.52155 0
M  V30 17813 O 2917.17 -4.56534 4.22446 0
M  V30 17814 C 2918.36 -5.62629 5.96531 0
M  V30 17815 O 2918.75 -6.87667 5.41053 0
M  V30 17816 C 2919.24 -4.52537 5.39283 0
M  V30 17817 C 2918.53 -4.20027 4.08623 0
M  V30 17818 N 2918.58 -2.76189 3.71603 0
M  V30 17819 H 2915.74 -4.797 7.24003 0
M  V30 17820 H 2915.47 -3.69856 5.84513 0
M  V30 17821 H 2916.34 -6.10356 5.41441 0
M  V30 17822 P 2920.3 -7.20834 5.23717 0
M  V30 17823 O 2920.52 -8.66104 5.38572 0
M  V30 17824 O 2921.09 -6.33544 6.1349 0
M  V30 17825 O 2920.55 -6.7751 3.72168 0
M  V30 17826 C 2919.61 -7.20825 2.7076 0
M  V30 17827 C 2920.34 -7.45864 1.40599 0
M  V30 17828 O 2920.55 -6.17651 0.734225 0
M  V30 17829 C 2921.74 -8.05808 1.51899 0
M  V30 17830 O 2922.13 -8.74358 0.335205 0
M  V30 17831 C 2922.62 -6.83093 1.70294 0
M  V30 17832 C 2921.91 -5.79992 0.836974 0
M  V30 17833 N 2921.96 -4.41864 1.38293 0
M  V30 17834 H 2919.12 -8.13644 3.0377 0
M  V30 17835 H 2918.85 -6.42788 2.55485 0
M  V30 17836 H 2919.72 -8.12039 0.792769 0
M  V30 17837 P 2923.68 -8.91 9.05629e-11 0
M  V30 17838 O 2923.9 -10.1726 -0.733694 0
M  V30 17839 O 2924.47 -8.73148 1.23936 0
M  V30 17840 O 2923.93 -7.66872 -0.971405 0
M  V30 17841 C 2922.99 -7.42309 -2.04641 0
M  V30 17842 C 2923.72 -6.86059 -3.24661 0
M  V30 17843 O 2923.93 -5.42847 -3.03646 0
M  V30 17844 C 2925.12 -7.41196 -3.50753 0
M  V30 17845 O 2925.51 -7.27073 -4.86816 0
M  V30 17846 C 2926 -6.5273 -2.63741 0
M  V30 17847 C 2925.29 -5.1842 -2.73198 0
M  V30 17848 N 2925.34 -4.38762 -1.4784 0
M  V30 17849 H 2922.5 -8.36803 -2.32493 0
M  V30 17850 H 2922.23 -6.70197 -1.71129 0
M  V30 17851 H 2923.1 -7.03551 -4.13168 0
M  V30 17852 P 2927.06 -7.20834 -5.23717 0
M  V30 17853 O 2927.28 -7.79853 -6.57286 0
M  V30 17854 O 2927.85 -7.79239 -4.12957 0
M  V30 17855 O 2927.31 -5.63315 -5.29344 0
M  V30 17856 C 2926.37 -4.80255 -6.01876 0
M  V30 17857 C 2927.1 -3.64202 -6.65911 0
M  V30 17858 O 2927.31 -2.60694 -5.64732 0
M  V30 17859 C 2928.5 -3.93473 -7.1943 0
M  V30 17860 O 2928.89 -3.02071 -8.21205 0
M  V30 17861 C 2929.38 -3.73047 -5.97036 0
M  V30 17862 C 2928.67 -2.58828 -5.25741 0
M  V30 17863 N 2928.72 -2.68068 -3.77503 0
M  V30 17864 H 2925.88 -5.40332 -6.79951 0
M  V30 17865 H 2925.61 -4.41613 -5.32378 0
M  V30 17866 H 2926.48 -3.26331 -7.47797 0
M  V30 17867 P 2930.44 -2.75334 -8.47391 0
M  V30 17868 O 2930.66 -2.44571 -9.90142 0
M  V30 17869 O 2931.23 -3.87688 -7.92115 0
M  V30 17870 O 2930.69 -1.4459 -7.59357 0
M  V30 17871 C 2929.75 -0.347608 -7.69215 0
M  V30 17872 C 2930.48 0.96767 -7.52806 0
M  V30 17873 O 2930.69 1.21036 -6.1011 0
M  V30 17874 C 2931.88 1.04544 -8.13308 0
M  V30 17875 O 2932.27 2.38311 -8.41922 0
M  V30 17876 C 2932.76 0.491279 -7.02284 0
M  V30 17877 C 2932.05 0.996264 -5.77469 0
M  V30 17878 N 2932.1 0.0501916 -4.62973 0
M  V30 17879 H 2929.26 -0.374722 -8.67691 0
M  V30 17880 H 2928.99 -0.443485 -6.90277 0
M  V30 17881 H 2929.86 1.75537 -7.96793 0
M  V30 17882 P 2933.82 2.75334 -8.47391 0
M  V30 17883 O 2934.04 3.84204 -9.44982 0
M  V30 17884 O 2934.61 1.51982 -8.68909 0
M  V30 17885 O 2934.07 3.29363 -6.99321 0
M  V30 17886 C 2933.13 4.24066 -6.42823 0
M  V30 17887 C 2933.86 5.20775 -5.52155 0
M  V30 17888 O 2934.07 4.56607 -4.22514 0
M  V30 17889 C 2935.26 5.62697 -5.96604 0
M  V30 17890 O 2935.65 6.87667 -5.41053 0
M  V30 17891 C 2936.14 4.52537 -5.39283 0
M  V30 17892 C 2935.43 4.20027 -4.08623 0
M  V30 17893 N 2935.48 2.76189 -3.71603 0
M  V30 17894 C 2935.4 1.66944 -4.54297 0
M  V30 17895 N 2935.47 0.536169 -3.91344 0
M  V30 17896 C 2935.62 0.901569 -2.58849 0
M  V30 17897 C 2935.75 0.146599 -1.40236 0
M  V30 17898 N 2935.76 -1.18234 -1.37046 0
M  V30 17899 N 2935.87 0.822941 -0.249738 0
M  V30 17900 C 2935.86 2.15179 -0.280525 0
M  V30 17901 N 2935.74 2.96414 -1.30822 0
M  V30 17902 C 2935.62 2.25804 -2.44748 0
M  V30 17903 H 2932.64 4.79756 -7.24086 0
M  V30 17904 H 2932.37 3.69963 -5.84682 0
M  V30 17905 H 2933.24 6.10431 -5.41508 0
M  V30 17906 H 2935.9 4.78816 -3.28024 0
M  V30 17907 H 2936.18 3.64957 -6.05871 0
M  V30 17908 H 2937.17 4.88748 -5.21323 0
M  V30 17909 H 2935.33 5.66789 -7.0643 0
M  V30 17910 H 2935.29 1.74684 -5.62396 0
M  V30 17911 H 2935.67 -1.71949 -2.24394 0
M  V30 17912 H 2935.86 -1.67511 -0.470742 0
M  V30 17913 H 2935.97 2.63704 0.6828 0
M  V30 17914 P 2937.2 7.20834 -5.23717 0
M  V30 17915 O 2937.42 8.66104 -5.38572 0
M  V30 17916 O 2937.99 6.33544 -6.1349 0
M  V30 17917 O 2937.45 6.7751 -3.72168 0
M  V30 17918 C 2936.51 7.20825 -2.7076 0
M  V30 17919 C 2937.24 7.45864 -1.40599 0
M  V30 17920 O 2937.45 6.17651 -0.734225 0
M  V30 17921 C 2938.64 8.05808 -1.51899 0
M  V30 17922 O 2939.03 8.74358 -0.335205 0
M  V30 17923 C 2939.52 6.83093 -1.70294 0
M  V30 17924 C 2938.81 5.79992 -0.836974 0
M  V30 17925 N 2938.86 4.41864 -1.38293 0
M  V30 17926 H 2936.02 8.13644 -3.0377 0
M  V30 17927 H 2935.75 6.42788 -2.55485 0
M  V30 17928 H 2936.62 8.12039 -0.792769 0
M  V30 17929 P 2940.58 8.91 -9.16719e-11 0
M  V30 17930 O 2940.8 10.1726 0.733694 0
M  V30 17931 O 2941.37 8.73148 -1.23936 0
M  V30 17932 O 2940.83 7.66872 0.971405 0
M  V30 17933 C 2939.89 7.42309 2.04641 0
M  V30 17934 C 2940.62 6.86059 3.24661 0
M  V30 17935 O 2940.83 5.42847 3.03646 0
M  V30 17936 C 2942.02 7.41196 3.50753 0
M  V30 17937 O 2942.41 7.27073 4.86816 0
M  V30 17938 C 2942.9 6.5273 2.63741 0
M  V30 17939 C 2942.19 5.1842 2.73198 0
M  V30 17940 N 2942.24 4.38762 1.4784 0
M  V30 17941 H 2939.4 8.36803 2.32493 0
M  V30 17942 H 2939.13 6.70197 1.71129 0
M  V30 17943 H 2940 7.03551 4.13168 0
M  V30 17944 P 2943.96 7.20834 5.23717 0
M  V30 17945 O 2944.18 7.79853 6.57286 0
M  V30 17946 O 2944.75 7.79239 4.12957 0
M  V30 17947 O 2944.21 5.63315 5.29344 0
M  V30 17948 C 2943.27 4.80255 6.01876 0
M  V30 17949 C 2944 3.64202 6.65911 0
M  V30 17950 O 2944.21 2.60694 5.64732 0
M  V30 17951 C 2945.4 3.93473 7.1943 0
M  V30 17952 O 2945.79 3.02071 8.21205 0
M  V30 17953 C 2946.28 3.73047 5.97036 0
M  V30 17954 C 2945.57 2.58828 5.25741 0
M  V30 17955 N 2945.62 2.68068 3.77503 0
M  V30 17956 H 2942.78 5.40332 6.79951 0
M  V30 17957 H 2942.51 4.41613 5.32378 0
M  V30 17958 H 2943.38 3.26331 7.47797 0
M  V30 17959 P 2947.34 2.75334 8.47391 0
M  V30 17960 O 2947.56 2.44571 9.90142 0
M  V30 17961 O 2948.13 3.87688 7.92115 0
M  V30 17962 O 2947.59 1.4459 7.59357 0
M  V30 17963 C 2946.65 0.347608 7.69215 0
M  V30 17964 C 2947.38 -0.96767 7.52806 0
M  V30 17965 O 2947.59 -1.21036 6.1011 0
M  V30 17966 C 2948.78 -1.04544 8.13308 0
M  V30 17967 O 2949.17 -2.38311 8.41922 0
M  V30 17968 C 2949.66 -0.491279 7.02284 0
M  V30 17969 C 2948.95 -0.996264 5.77469 0
M  V30 17970 N 2949 -0.0501916 4.62973 0
M  V30 17971 H 2946.16 0.374722 8.67691 0
M  V30 17972 H 2945.89 0.443485 6.90277 0
M  V30 17973 H 2946.76 -1.75537 7.96793 0
M  V30 17974 P 2950.72 -2.75334 8.47391 0
M  V30 17975 O 2950.94 -3.84204 9.44982 0
M  V30 17976 O 2951.51 -1.51982 8.68909 0
M  V30 17977 O 2950.97 -3.29363 6.99321 0
M  V30 17978 C 2950.03 -4.24066 6.42823 0
M  V30 17979 C 2950.76 -5.20775 5.52155 0
M  V30 17980 O 2950.97 -4.56607 4.22514 0
M  V30 17981 C 2952.16 -5.62697 5.96604 0
M  V30 17982 O 2952.55 -6.87667 5.41053 0
M  V30 17983 C 2953.04 -4.52537 5.39283 0
M  V30 17984 C 2952.33 -4.20027 4.08623 0
M  V30 17985 N 2952.38 -2.76189 3.71603 0
M  V30 17986 C 2952.3 -1.66944 4.54297 0
M  V30 17987 N 2952.37 -0.536169 3.91344 0
M  V30 17988 C 2952.52 -0.901569 2.58849 0
M  V30 17989 C 2952.65 -0.146599 1.40236 0
M  V30 17990 N 2952.66 1.18234 1.37046 0
M  V30 17991 N 2952.77 -0.822941 0.249738 0
M  V30 17992 C 2952.76 -2.15179 0.280525 0
M  V30 17993 N 2952.64 -2.96414 1.30822 0
M  V30 17994 C 2952.52 -2.25804 2.44748 0
M  V30 17995 H 2949.54 -4.79756 7.24086 0
M  V30 17996 H 2949.27 -3.69963 5.84682 0
M  V30 17997 H 2950.14 -6.10431 5.41508 0
M  V30 17998 H 2952.8 -4.78816 3.28024 0
M  V30 17999 H 2953.08 -3.64957 6.05871 0
M  V30 18000 H 2954.07 -4.88748 5.21323 0
M  V30 18001 H 2952.23 -5.66789 7.0643 0
M  V30 18002 H 2952.19 -1.74684 5.62396 0
M  V30 18003 H 2952.57 1.71949 2.24394 0
M  V30 18004 H 2952.76 1.67511 0.470742 0
M  V30 18005 H 2952.87 -2.63704 -0.6828 0
M  V30 18006 P 2954.1 -7.20834 5.23717 0
M  V30 18007 O 2954.32 -8.66274 5.38678 0
M  V30 18008 O 2954.89 -6.33687 6.13629 0
M  V30 18009 O 2954.35 -6.7751 3.72168 0
M  V30 18010 C 2953.41 -7.20919 2.70795 0
M  V30 18011 C 2954.14 -7.45864 1.40599 0
M  V30 18012 O 2954.35 -6.17751 0.734343 0
M  V30 18013 C 2955.54 -8.05906 1.51917 0
M  V30 18014 O 2955.93 -8.74358 0.335205 0
M  V30 18015 C 2956.42 -6.83093 1.70294 0
M  V30 18016 C 2955.71 -5.79992 0.836974 0
M  V30 18017 N 2955.76 -4.41864 1.38293 0
M  V30 18018 C 2955.68 -4.02089 2.69407 0
M  V30 18019 N 2955.75 -2.73403 2.85089 0
M  V30 18020 C 2955.9 -2.25086 1.5642 0
M  V30 18021 C 2956.03 -0.942887 1.04836 0
M  V30 18022 N 2956.04 0.150999 1.80369 0
M  V30 18023 N 2956.15 -0.812565 -0.28167 0
M  V30 18024 C 2956.14 -1.90572 -1.03784 0
M  V30 18025 N 2956.02 -3.167 -0.683905 0
M  V30 18026 C 2955.9 -3.26538 0.652815 0
M  V30 18027 H 2952.92 -8.13738 3.03804 0
M  V30 18028 H 2952.65 -6.42974 2.55559 0
M  V30 18029 H 2953.52 -8.12139 0.792866 0
M  V30 18030 H 2956.18 -5.80178 -0.160643 0
M  V30 18031 H 2956.46 -6.51379 2.75643 0
M  V30 18032 H 2957.45 -7.01832 1.3448 0
M  V30 18033 H 2955.61 -8.73771 2.38364 0
M  V30 18034 H 2955.57 -4.7189 3.52311 0
M  V30 18035 H 2955.95 0.0721434 2.82608 0
M  V30 18036 H 2956.14 1.0785 1.36544 0
M  V30 18037 H 2956.25 -1.73207 -2.10241 0
M  V30 18038 P 2957.48 -8.91 9.27809e-11 0
M  V30 18039 O 2957.7 -10.1726 -0.733694 0
M  V30 18040 O 2958.27 -8.73148 1.23936 0
M  V30 18041 O 2957.73 -7.66872 -0.971405 0
M  V30 18042 C 2956.79 -7.42309 -2.04641 0
M  V30 18043 C 2957.52 -6.86059 -3.24661 0
M  V30 18044 O 2957.73 -5.42847 -3.03646 0
M  V30 18045 C 2958.92 -7.41196 -3.50753 0
M  V30 18046 O 2959.31 -7.27073 -4.86816 0
M  V30 18047 C 2959.8 -6.5273 -2.63741 0
M  V30 18048 C 2959.09 -5.1842 -2.73198 0
M  V30 18049 N 2959.14 -4.38762 -1.4784 0
M  V30 18050 C 2959.06 -4.81605 -0.168631 0
M  V30 18051 N 2959.14 -3.85454 0.713363 0
M  V30 18052 C 2959.28 -2.6994 -0.0566958 0
M  V30 18053 C 2959.41 -1.34815 0.338502 0
M  V30 18054 O 2959.43 -0.869548 1.47125 0
M  V30 18055 N 2959.53 -0.496304 -0.77465 0
M  V30 18056 C 2959.53 -0.908403 -2.09122 0
M  V30 18057 N 2959.66 0.0517805 -3.00955 0
M  V30 18058 N 2959.4 -2.17875 -2.46519 0
M  V30 18059 C 2959.28 -3.01988 -1.4033 0
M  V30 18060 H 2956.3 -8.36803 -2.32493 0
M  V30 18061 H 2956.03 -6.70197 -1.71129 0
M  V30 18062 H 2956.9 -7.03551 -4.13168 0
M  V30 18063 H 2959.56 -4.59498 -3.54415 0
M  V30 18064 H 2959.83 -6.88898 -1.59848 0
M  V30 18065 H 2960.83 -6.46749 -3.03687 0
M  V30 18066 H 2958.99 -8.46908 -3.20714 0
M  V30 18067 H 2958.94 -5.86405 0.105564 0
M  V30 18068 H 2959.63 0.483664 -0.597855 0
M  V30 18069 H 2959.66 -0.187865 -4.0116 0
M  V30 18070 H 2959.76 1.03585 -2.71726 0
M  V30 18071 P 2960.86 -7.20834 -5.23717 0
M  V30 18072 O 2961.08 -7.80006 -6.57415 0
M  V30 18073 O 2961.65 -7.79416 -4.13051 0
M  V30 18074 O 2961.11 -5.63315 -5.29344 0
M  V30 18075 C 2960.17 -4.80318 -6.01954 0
M  V30 18076 C 2960.9 -3.64202 -6.65911 0
M  V30 18077 O 2961.11 -2.60736 -5.64823 0
M  V30 18078 C 2962.3 -3.93521 -7.19518 0
M  V30 18079 O 2962.69 -3.02071 -8.21205 0
M  V30 18080 C 2963.18 -3.73047 -5.97036 0
M  V30 18081 C 2962.47 -2.58828 -5.25741 0
M  V30 18082 N 2962.52 -2.68068 -3.77503 0
M  V30 18083 H 2959.68 -5.40394 -6.8003 0
M  V30 18084 H 2959.41 -4.41741 -5.32532 0
M  V30 18085 H 2960.28 -3.26371 -7.47889 0
M  V30 18086 H 2962.94 -1.64007 -5.56746 0
M  V30 18087 H 2963.22 -4.63439 -5.3432 0
M  V30 18088 H 2964.21 -3.44776 -6.25925 0
M  V30 18089 H 2962.37 -4.96707 -7.57347 0
M  V30 18090 P 2964.24 -2.75334 -8.47391 0
M  V30 18091 O 2964.46 -2.44571 -9.90142 0
M  V30 18092 O 2965.03 -3.87688 -7.92115 0
M  V30 18093 O 2964.49 -1.4459 -7.59357 0
M  V30 18094 C 2963.55 -0.347608 -7.69215 0
M  V30 18095 C 2964.28 0.96767 -7.52806 0
M  V30 18096 O 2964.49 1.21036 -6.1011 0
M  V30 18097 C 2965.68 1.04544 -8.13308 0
M  V30 18098 O 2966.07 2.38311 -8.41922 0
M  V30 18099 C 2966.56 0.491279 -7.02284 0
M  V30 18100 C 2965.85 0.996264 -5.77469 0
M  V30 18101 N 2965.9 0.0501916 -4.62973 0
M  V30 18102 C 2965.82 -1.32786 -4.63244 0
M  V30 18103 N 2965.9 -1.86957 -3.44545 0
M  V30 18104 C 2966.04 -0.780241 -2.58481 0
M  V30 18105 C 2966.17 -0.738536 -1.17757 0
M  V30 18106 N 2966.29 0.58337 -0.711393 0
M  V30 18107 C 2966.29 1.70816 -1.51017 0
M  V30 18108 N 2966.42 2.87826 -0.880757 0
M  V30 18109 N 2966.16 1.67126 -2.8339 0
M  V30 18110 C 2966.04 0.401421 -3.30572 0
M  V30 18111 H 2963.06 -0.374722 -8.67691 0
M  V30 18112 H 2962.79 -0.443485 -6.90277 0
M  V30 18113 H 2963.66 1.75537 -7.96793 0
M  V30 18114 P 2967.62 2.75334 -8.47391 0
M  V30 18115 O 2967.84 3.84204 -9.44982 0
M  V30 18116 O 2968.41 1.51982 -8.68909 0
M  V30 18117 O 2967.87 3.29363 -6.99321 0
M  V30 18118 C 2966.93 4.24066 -6.42823 0
M  V30 18119 C 2967.66 5.20775 -5.52155 0
M  V30 18120 O 2967.87 4.56607 -4.22514 0
M  V30 18121 C 2969.06 5.62697 -5.96604 0
M  V30 18122 O 2969.45 6.87667 -5.41053 0
M  V30 18123 C 2969.94 4.52537 -5.39283 0
M  V30 18124 C 2969.23 4.20027 -4.08623 0
M  V30 18125 N 2969.28 2.76189 -3.71603 0
M  V30 18126 C 2969.2 1.66944 -4.54297 0
M  V30 18127 N 2969.27 0.536169 -3.91344 0
M  V30 18128 C 2969.42 0.901569 -2.58849 0
M  V30 18129 C 2969.55 0.146599 -1.40236 0
M  V30 18130 N 2969.56 -1.18234 -1.37046 0
M  V30 18131 N 2969.67 0.822941 -0.249738 0
M  V30 18132 C 2969.66 2.15179 -0.280525 0
M  V30 18133 N 2969.54 2.96414 -1.30822 0
M  V30 18134 C 2969.42 2.25804 -2.44748 0
M  V30 18135 H 2966.44 4.79756 -7.24086 0
M  V30 18136 H 2966.17 3.69963 -5.84682 0
M  V30 18137 H 2967.04 6.10431 -5.41508 0
M  V30 18138 H 2969.7 4.78816 -3.28024 0
M  V30 18139 H 2969.98 3.64957 -6.05871 0
M  V30 18140 H 2970.97 4.88748 -5.21323 0
M  V30 18141 H 2969.13 5.66789 -7.0643 0
M  V30 18142 H 2969.09 1.74684 -5.62396 0
M  V30 18143 H 2969.47 -1.71949 -2.24394 0
M  V30 18144 H 2969.66 -1.67511 -0.470742 0
M  V30 18145 H 2969.77 2.63704 0.6828 0
M  V30 18146 P 2971 7.20834 -5.23717 0
M  V30 18147 O 2971.22 8.66104 -5.38572 0
M  V30 18148 O 2971.79 6.33544 -6.1349 0
M  V30 18149 O 2971.25 6.7751 -3.72168 0
M  V30 18150 C 2970.31 7.20825 -2.7076 0
M  V30 18151 C 2971.04 7.45864 -1.40599 0
M  V30 18152 O 2971.25 6.17651 -0.734225 0
M  V30 18153 C 2972.44 8.05808 -1.51899 0
M  V30 18154 O 2972.83 8.74358 -0.335205 0
M  V30 18155 C 2973.32 6.83093 -1.70294 0
M  V30 18156 C 2972.61 5.79992 -0.836974 0
M  V30 18157 N 2972.66 4.41864 -1.38293 0
M  V30 18158 H 2969.82 8.13644 -3.0377 0
M  V30 18159 H 2969.55 6.42788 -2.55485 0
M  V30 18160 H 2970.42 8.12039 -0.792769 0
M  V30 18161 P 2974.38 8.91 -9.38899e-11 0
M  V30 18162 O 2974.6 10.1726 0.733694 0
M  V30 18163 O 2975.17 8.73148 -1.23936 0
M  V30 18164 O 2974.63 7.66872 0.971405 0
M  V30 18165 C 2973.69 7.42309 2.04641 0
M  V30 18166 C 2974.42 6.86059 3.24661 0
M  V30 18167 O 2974.63 5.42847 3.03646 0
M  V30 18168 C 2975.82 7.41196 3.50753 0
M  V30 18169 O 2976.21 7.27073 4.86816 0
M  V30 18170 C 2976.7 6.5273 2.63741 0
M  V30 18171 C 2975.99 5.1842 2.73198 0
M  V30 18172 N 2976.04 4.38762 1.4784 0
M  V30 18173 C 2975.96 4.81605 0.168631 0
M  V30 18174 N 2976.04 3.85454 -0.713363 0
M  V30 18175 C 2976.18 2.6994 0.0566958 0
M  V30 18176 C 2976.31 1.34815 -0.338502 0
M  V30 18177 O 2976.33 0.869548 -1.47125 0
M  V30 18178 N 2976.43 0.496304 0.77465 0
M  V30 18179 C 2976.43 0.908403 2.09122 0
M  V30 18180 N 2976.56 -0.0517805 3.00955 0
M  V30 18181 N 2976.3 2.17875 2.46519 0
M  V30 18182 C 2976.18 3.01988 1.4033 0
M  V30 18183 H 2973.2 8.36803 2.32493 0
M  V30 18184 H 2972.93 6.70197 1.71129 0
M  V30 18185 H 2973.8 7.03551 4.13168 0
M  V30 18186 H 2976.46 4.59498 3.54415 0
M  V30 18187 H 2976.73 6.88898 1.59848 0
M  V30 18188 H 2977.73 6.46749 3.03687 0
M  V30 18189 H 2975.89 8.46908 3.20714 0
M  V30 18190 H 2975.84 5.86405 -0.105564 0
M  V30 18191 H 2976.53 -0.483664 0.597855 0
M  V30 18192 H 2976.56 0.187865 4.0116 0
M  V30 18193 H 2976.66 -1.03585 2.71726 0
M  V30 18194 P 2977.76 7.20834 5.23717 0
M  V30 18195 O 2977.98 7.79853 6.57286 0
M  V30 18196 O 2978.55 7.79239 4.12957 0
M  V30 18197 O 2978.01 5.63315 5.29344 0
M  V30 18198 C 2977.07 4.80255 6.01876 0
M  V30 18199 C 2977.8 3.64202 6.65911 0
M  V30 18200 O 2978.01 2.60694 5.64732 0
M  V30 18201 C 2979.2 3.93473 7.1943 0
M  V30 18202 O 2979.59 3.02071 8.21205 0
M  V30 18203 C 2980.08 3.73047 5.97036 0
M  V30 18204 C 2979.37 2.58828 5.25741 0
M  V30 18205 N 2979.42 2.68068 3.77503 0
M  V30 18206 H 2976.58 5.40332 6.79951 0
M  V30 18207 H 2976.31 4.41613 5.32378 0
M  V30 18208 H 2977.18 3.26331 7.47797 0
M  V30 18209 P 2981.14 2.75334 8.47391 0
M  V30 18210 O 2981.36 2.44595 9.90239 0
M  V30 18211 O 2981.93 3.87732 7.92204 0
M  V30 18212 O 2981.39 1.4459 7.59357 0
M  V30 18213 C 2980.45 0.347563 7.69115 0
M  V30 18214 C 2981.18 -0.96767 7.52806 0
M  V30 18215 O 2981.39 -1.21036 6.1011 0
M  V30 18216 C 2982.58 -1.04544 8.13308 0
M  V30 18217 O 2982.97 -2.38311 8.41922 0
M  V30 18218 C 2983.46 -0.491279 7.02284 0
M  V30 18219 C 2982.75 -0.996264 5.77469 0
M  V30 18220 N 2982.8 -0.0501808 4.62873 0
M  V30 18221 C 2982.95 -0.588177 3.36904 0
M  V30 18222 O 2983.04 -1.78598 3.17173 0
M  V30 18223 N 2982.99 0.329694 2.33686 0
M  V30 18224 C 2982.9 1.6953 2.45079 0
M  V30 18225 C 2982.75 2.16933 3.80505 0
M  V30 18226 C 2982.7 1.30326 4.83752 0
M  V30 18227 H 2979.96 0.374722 8.67691 0
M  V30 18228 H 2979.69 0.443421 6.90177 0
M  V30 18229 H 2980.56 -1.75537 7.96793 0
M  V30 18230 H 2983.22 -1.94496 5.46629 0
M  V30 18231 H 2983.49 0.608651 7.04676 0
M  V30 18232 H 2984.49 -0.889672 7.08939 0
M  V30 18233 H 2982.65 -0.43308 9.04564 0
M  V30 18234 H 2982.58 1.68366 5.8516 0
M  V30 18235 P 2984.52 -2.75334 8.47391 0
M  V30 18236 O 2984.74 -3.84128 9.44797 0
M  V30 18237 O 2985.31 -1.51947 8.68712 0
M  V30 18238 O 2984.77 -3.29363 6.99321 0
M  V30 18239 C 2983.83 -4.24011 6.4274 0
M  V30 18240 C 2984.56 -5.20775 5.52155 0
M  V30 18241 O 2984.77 -4.56534 4.22446 0
M  V30 18242 C 2985.96 -5.62629 5.96531 0
M  V30 18243 O 2986.35 -6.87667 5.41053 0
M  V30 18244 C 2986.84 -4.52537 5.39283 0
M  V30 18245 C 2986.13 -4.20027 4.08623 0
M  V30 18246 N 2986.18 -2.76189 3.71603 0
M  V30 18247 H 2983.34 -4.797 7.24003 0
M  V30 18248 H 2983.07 -3.69856 5.84513 0
M  V30 18249 H 2983.94 -6.10356 5.41441 0
M  V30 18250 P 2987.9 -7.20834 5.23717 0
M  V30 18251 O 2988.12 -8.66274 5.38678 0
M  V30 18252 O 2988.69 -6.33687 6.13629 0
M  V30 18253 O 2988.15 -6.7751 3.72168 0
M  V30 18254 C 2987.21 -7.20919 2.70795 0
M  V30 18255 C 2987.94 -7.45864 1.40599 0
M  V30 18256 O 2988.15 -6.17751 0.734343 0
M  V30 18257 C 2989.34 -8.05906 1.51917 0
M  V30 18258 O 2989.73 -8.74358 0.335205 0
M  V30 18259 C 2990.22 -6.83093 1.70294 0
M  V30 18260 C 2989.51 -5.79992 0.836974 0
M  V30 18261 N 2989.56 -4.41864 1.38293 0
M  V30 18262 H 2986.72 -8.13738 3.03804 0
M  V30 18263 H 2986.45 -6.42974 2.55559 0
M  V30 18264 H 2987.32 -8.12139 0.792866 0
M  V30 18265 H 2989.98 -5.80178 -0.160643 0
M  V30 18266 H 2990.26 -6.51379 2.75643 0
M  V30 18267 H 2991.25 -7.01832 1.3448 0
M  V30 18268 H 2989.41 -8.73771 2.38364 0
M  V30 18269 P 2991.28 -8.91 9.49989e-11 0
M  V30 18270 O 2991.5 -10.1726 -0.733694 0
M  V30 18271 O 2992.07 -8.73148 1.23936 0
M  V30 18272 O 2991.53 -7.66872 -0.971405 0
M  V30 18273 C 2990.59 -7.42309 -2.04641 0
M  V30 18274 C 2991.32 -6.86059 -3.24661 0
M  V30 18275 O 2991.53 -5.42847 -3.03646 0
M  V30 18276 C 2992.72 -7.41196 -3.50753 0
M  V30 18277 O 2993.11 -7.27073 -4.86816 0
M  V30 18278 C 2993.6 -6.5273 -2.63741 0
M  V30 18279 C 2992.89 -5.1842 -2.73198 0
M  V30 18280 N 2992.94 -4.38762 -1.4784 0
M  V30 18281 C 2992.86 -4.81605 -0.168631 0
M  V30 18282 N 2992.94 -3.85454 0.713363 0
M  V30 18283 C 2993.08 -2.6994 -0.0566958 0
M  V30 18284 C 2993.21 -1.34815 0.338502 0
M  V30 18285 N 2993.33 -0.496304 -0.77465 0
M  V30 18286 C 2993.33 -0.908403 -2.09122 0
M  V30 18287 N 2993.46 0.0517805 -3.00955 0
M  V30 18288 N 2993.2 -2.17875 -2.46519 0
M  V30 18289 C 2993.08 -3.01988 -1.4033 0
M  V30 18290 H 2990.1 -8.36803 -2.32493 0
M  V30 18291 H 2989.83 -6.70197 -1.71129 0
M  V30 18292 H 2990.7 -7.03551 -4.13168 0
M  V30 18293 P 2994.66 -7.20834 -5.23717 0
M  V30 18294 O 2994.88 -7.79853 -6.57286 0
M  V30 18295 O 2995.45 -7.79239 -4.12957 0
M  V30 18296 O 2994.91 -5.63315 -5.29344 0
M  V30 18297 C 2993.97 -4.80255 -6.01876 0
M  V30 18298 C 2994.7 -3.64202 -6.65911 0
M  V30 18299 O 2994.91 -2.60694 -5.64732 0
M  V30 18300 C 2996.1 -3.93473 -7.1943 0
M  V30 18301 O 2996.49 -3.02071 -8.21205 0
M  V30 18302 C 2996.98 -3.73047 -5.97036 0
M  V30 18303 C 2996.27 -2.58828 -5.25741 0
M  V30 18304 N 2996.32 -2.68068 -3.77503 0
M  V30 18305 H 2993.48 -5.40332 -6.79951 0
M  V30 18306 H 2993.21 -4.41613 -5.32378 0
M  V30 18307 H 2994.08 -3.26331 -7.47797 0
M  V30 18308 P 2998.04 -2.75334 -8.47391 0
M  V30 18309 O 2998.26 -2.44571 -9.90142 0
M  V30 18310 O 2998.83 -3.87688 -7.92115 0
M  V30 18311 O 2998.29 -1.4459 -7.59357 0
M  V30 18312 C 2997.35 -0.347608 -7.69215 0
M  V30 18313 C 2998.08 0.96767 -7.52806 0
M  V30 18314 O 2998.29 1.21036 -6.1011 0
M  V30 18315 C 2999.48 1.04544 -8.13308 0
M  V30 18316 O 2999.87 2.38311 -8.41922 0
M  V30 18317 C 3000.36 0.491279 -7.02284 0
M  V30 18318 C 2999.65 0.996264 -5.77469 0
M  V30 18319 N 2999.7 0.0501916 -4.62973 0
M  V30 18320 H 2996.86 -0.374722 -8.67691 0
M  V30 18321 H 2996.59 -0.443485 -6.90277 0
M  V30 18322 H 2997.46 1.75537 -7.96793 0
M  V30 18323 P 3001.42 2.75334 -8.47391 0
M  V30 18324 O 3001.64 3.84166 -9.4489 0
M  V30 18325 O 3002.21 1.51964 -8.6881 0
M  V30 18326 O 3001.67 3.29363 -6.99321 0
M  V30 18327 C 3000.73 4.23956 -6.42656 0
M  V30 18328 C 3001.46 5.20775 -5.52155 0
M  V30 18329 O 3001.67 4.56534 -4.22446 0
M  V30 18330 C 3002.86 5.62629 -5.96531 0
M  V30 18331 O 3003.25 6.87667 -5.41053 0
M  V30 18332 C 3003.74 4.52537 -5.39283 0
M  V30 18333 C 3003.03 4.20027 -4.08623 0
M  V30 18334 N 3003.08 2.7613 -3.71522 0
M  V30 18335 C 3003.23 2.45612 -2.37989 0
M  V30 18336 O 3003.32 3.30919 -1.51621 0
M  V30 18337 N 3003.27 1.10684 -2.08435 0
M  V30 18338 C 3003.18 0.0690084 -2.9792 0
M  V30 18339 C 3003.03 0.481522 -4.35345 0
M  V30 18340 C 3002.98 1.78906 -4.67968 0
M  V30 18341 H 3000.24 4.797 -7.24003 0
M  V30 18342 H 2999.97 3.69802 -5.84429 0
M  V30 18343 H 3000.84 6.10356 -5.41441 0
M  V30 18344 H 3003.5 4.78651 -3.27911 0
M  V30 18345 H 3003.77 3.64957 -6.05871 0
M  V30 18346 H 3004.77 4.8868 -5.2125 0
M  V30 18347 H 3002.93 5.66726 -7.06352 0
M  V30 18348 H 3002.86 2.07737 -5.72367 0
M  V30 18349 P 3004.8 7.20834 -5.23717 0
M  V30 18350 O 3005.02 8.66104 -5.38572 0
M  V30 18351 O 3005.59 6.33544 -6.1349 0
M  V30 18352 O 3005.05 6.7751 -3.72168 0
M  V30 18353 C 3004.11 7.20825 -2.7076 0
M  V30 18354 C 3004.84 7.45864 -1.40599 0
M  V30 18355 O 3005.05 6.17651 -0.734225 0
M  V30 18356 C 3006.24 8.05808 -1.51899 0
M  V30 18357 O 3006.63 8.74358 -0.335205 0
M  V30 18358 C 3007.12 6.83093 -1.70294 0
M  V30 18359 C 3006.41 5.79992 -0.836974 0
M  V30 18360 N 3006.46 4.41864 -1.38293 0
M  V30 18361 C 3006.38 3.99538 -2.69438 0
M  V30 18362 N 3006.46 2.69909 -2.84277 0
M  V30 18363 C 3006.6 2.21719 -1.5408 0
M  V30 18364 C 3006.73 0.891712 -1.06628 0
M  V30 18365 O 3006.75 -0.161298 -1.70137 0
M  V30 18366 N 3006.85 0.856846 0.334985 0
M  V30 18367 C 3006.85 1.9641 1.15789 0
M  V30 18368 N 3006.98 1.72708 2.46522 0
M  V30 18369 N 3006.72 3.21165 0.713741 0
M  V30 18370 C 3006.6 3.26797 -0.639748 0
M  V30 18371 H 3003.62 8.13644 -3.0377 0
M  V30 18372 H 3003.35 6.42788 -2.55485 0
M  V30 18373 H 3004.22 8.12039 -0.792769 0
M  V30 18374 H 3006.88 5.80061 0.166416 0
M  V30 18375 H 3007.15 6.51287 -2.75604 0
M  V30 18376 H 3008.15 7.01734 -1.34462 0
M  V30 18377 H 3006.31 8.73674 -2.38337 0
M  V30 18378 H 3006.26 4.68207 -3.53221 0
M  V30 18379 H 3006.95 -0.0398818 0.767965 0
M  V30 18380 H 3006.98 2.50995 3.13503 0
M  V30 18381 H 3007.08 0.759148 2.80716 0
M  V30 18382 P 3008.18 8.91 -9.61079e-11 0
M  V30 18383 O 3008.4 10.1726 0.733694 0
M  V30 18384 O 3008.97 8.73148 -1.23936 0
M  V30 18385 O 3008.43 7.66872 0.971405 0
M  V30 18386 C 3007.49 7.42309 2.04641 0
M  V30 18387 C 3008.22 6.86059 3.24661 0
M  V30 18388 O 3008.43 5.42847 3.03646 0
M  V30 18389 C 3009.62 7.41196 3.50753 0
M  V30 18390 O 3010.01 7.27073 4.86816 0
M  V30 18391 C 3010.5 6.5273 2.63741 0
M  V30 18392 C 3009.79 5.1842 2.73198 0
M  V30 18393 N 3009.84 4.38762 1.4784 0
M  V30 18394 H 3007 8.36803 2.32493 0
M  V30 18395 H 3006.73 6.70197 1.71129 0
M  V30 18396 H 3007.6 7.03551 4.13168 0
M  V30 18397 P 3011.56 7.20834 5.23717 0
M  V30 18398 O 3011.78 7.7993 6.57351 0
M  V30 18399 O 3012.35 7.79328 4.13004 0
M  V30 18400 O 3011.81 5.63315 5.29344 0
M  V30 18401 C 3010.87 4.80193 6.01798 0
M  V30 18402 C 3011.6 3.64202 6.65911 0
M  V30 18403 O 3011.81 2.60694 5.64732 0
M  V30 18404 C 3013 3.93473 7.1943 0
M  V30 18405 O 3013.39 3.02071 8.21205 0
M  V30 18406 C 3013.88 3.73047 5.97036 0
M  V30 18407 C 3013.17 2.58828 5.25741 0
M  V30 18408 N 3013.22 2.6801 3.77422 0
M  V30 18409 C 3013.37 1.50443 3.07133 0
M  V30 18410 O 3013.46 0.419406 3.61576 0
M  V30 18411 N 3013.41 1.6403 1.69677 0
M  V30 18412 C 3013.32 2.81206 0.986255 0
M  V30 18413 O 3013.37 2.80892 -0.249754 0
M  V30 18414 C 3013.17 3.99158 1.80325 0
M  V30 18415 C 3013.06 5.29309 1.06921 0
M  V30 18416 C 3013.12 3.89779 3.1476 0
M  V30 18417 H 3010.38 5.40332 6.79951 0
M  V30 18418 H 3010.11 4.41549 5.32301 0
M  V30 18419 H 3010.98 3.26331 7.47797 0
M  V30 18420 H 3013.64 1.6395 5.56554 0
M  V30 18421 H 3013.91 4.63439 5.3432 0
M  V30 18422 H 3014.91 3.44728 6.25838 0
M  V30 18423 H 3013.07 4.96652 7.57263 0
M  V30 18424 H 3013 4.80159 3.74441 0
M  V30 18425 H 3014.03 5.81459 1.09608 0
M  V30 18426 H 3012.29 5.9187 1.54487 0
M  V30 18427 H 3012.78 5.10095 0.0220288 0
M  V30 18428 H 3013.52 0.798962 1.16664 0
M  V30 18429 P 3014.94 2.75334 8.47391 0
M  V30 18430 O 3015.16 2.44571 9.90142 0
M  V30 18431 O 3015.73 3.87688 7.92115 0
M  V30 18432 O 3015.19 1.4459 7.59357 0
M  V30 18433 C 3014.25 0.347608 7.69215 0
M  V30 18434 C 3014.98 -0.96767 7.52806 0
M  V30 18435 O 3015.19 -1.21036 6.1011 0
M  V30 18436 C 3016.38 -1.04544 8.13308 0
M  V30 18437 O 3016.77 -2.38311 8.41922 0
M  V30 18438 C 3017.26 -0.491279 7.02284 0
M  V30 18439 C 3016.55 -0.996264 5.77469 0
M  V30 18440 N 3016.6 -0.0501916 4.62973 0
M  V30 18441 H 3013.76 0.374722 8.67691 0
M  V30 18442 H 3013.49 0.443485 6.90277 0
M  V30 18443 H 3014.36 -1.75537 7.96793 0
M  V30 18444 P 3018.32 -2.75334 8.47391 0
M  V30 18445 O 3018.54 -3.84128 9.44797 0
M  V30 18446 O 3019.11 -1.51947 8.68712 0
M  V30 18447 O 3018.57 -3.29363 6.99321 0
M  V30 18448 C 3017.63 -4.24011 6.4274 0
M  V30 18449 C 3018.36 -5.20775 5.52155 0
M  V30 18450 O 3018.57 -4.56534 4.22446 0
M  V30 18451 C 3019.76 -5.62629 5.96531 0
M  V30 18452 O 3020.15 -6.87667 5.41053 0
M  V30 18453 C 3020.64 -4.52537 5.39283 0
M  V30 18454 C 3019.93 -4.20027 4.08623 0
M  V30 18455 N 3019.98 -2.76189 3.71603 0
M  V30 18456 H 3017.14 -4.797 7.24003 0
M  V30 18457 H 3016.87 -3.69856 5.84513 0
M  V30 18458 H 3017.74 -6.10356 5.41441 0
M  V30 18459 P 3021.7 -7.20834 5.23717 0
M  V30 18460 O 3021.92 -8.66104 5.38572 0
M  V30 18461 O 3022.49 -6.33544 6.1349 0
M  V30 18462 O 3021.95 -6.7751 3.72168 0
M  V30 18463 C 3021.01 -7.20825 2.7076 0
M  V30 18464 C 3021.74 -7.45864 1.40599 0
M  V30 18465 O 3021.95 -6.17651 0.734225 0
M  V30 18466 C 3023.14 -8.05808 1.51899 0
M  V30 18467 O 3023.53 -8.74358 0.335205 0
M  V30 18468 C 3024.02 -6.83093 1.70294 0
M  V30 18469 C 3023.31 -5.79992 0.836974 0
M  V30 18470 N 3023.36 -4.41864 1.38293 0
M  V30 18471 H 3020.52 -8.13644 3.0377 0
M  V30 18472 H 3020.25 -6.42788 2.55485 0
M  V30 18473 H 3021.12 -8.12039 0.792769 0
M  V30 18474 P 3025.08 -8.91 9.72169e-11 0
M  V30 18475 O 3025.3 -10.1726 -0.733694 0
M  V30 18476 O 3025.87 -8.73148 1.23936 0
M  V30 18477 O 3025.33 -7.66872 -0.971405 0
M  V30 18478 C 3024.39 -7.42309 -2.04641 0
M  V30 18479 C 3025.12 -6.86059 -3.24661 0
M  V30 18480 O 3025.33 -5.42847 -3.03646 0
M  V30 18481 C 3026.52 -7.41196 -3.50753 0
M  V30 18482 O 3026.91 -7.27073 -4.86816 0
M  V30 18483 C 3027.4 -6.5273 -2.63741 0
M  V30 18484 C 3026.69 -5.1842 -2.73198 0
M  V30 18485 N 3026.74 -4.38762 -1.4784 0
M  V30 18486 H 3023.9 -8.36803 -2.32493 0
M  V30 18487 H 3023.63 -6.70197 -1.71129 0
M  V30 18488 H 3024.5 -7.03551 -4.13168 0
M  V30 18489 P 3028.46 -7.20834 -5.23717 0
M  V30 18490 O 3028.68 -7.79853 -6.57286 0
M  V30 18491 O 3029.25 -7.79239 -4.12957 0
M  V30 18492 O 3028.71 -5.63315 -5.29344 0
M  V30 18493 C 3027.77 -4.80255 -6.01876 0
M  V30 18494 C 3028.5 -3.64202 -6.65911 0
M  V30 18495 O 3028.71 -2.60694 -5.64732 0
M  V30 18496 C 3029.9 -3.93473 -7.1943 0
M  V30 18497 O 3030.29 -3.02071 -8.21205 0
M  V30 18498 C 3030.78 -3.73047 -5.97036 0
M  V30 18499 C 3030.07 -2.58828 -5.25741 0
M  V30 18500 N 3030.12 -2.68068 -3.77503 0
M  V30 18501 H 3027.28 -5.40332 -6.79951 0
M  V30 18502 H 3027.01 -4.41613 -5.32378 0
M  V30 18503 H 3027.88 -3.26331 -7.47797 0
M  V30 18504 P 3031.84 -2.75334 -8.47391 0
M  V30 18505 O 3032.06 -2.44571 -9.90142 0
M  V30 18506 O 3032.63 -3.87688 -7.92115 0
M  V30 18507 O 3032.09 -1.4459 -7.59357 0
M  V30 18508 C 3031.15 -0.347608 -7.69215 0
M  V30 18509 C 3031.88 0.96767 -7.52806 0
M  V30 18510 O 3032.09 1.21036 -6.1011 0
M  V30 18511 C 3033.28 1.04544 -8.13308 0
M  V30 18512 O 3033.67 2.38311 -8.41922 0
M  V30 18513 C 3034.16 0.491279 -7.02284 0
M  V30 18514 C 3033.45 0.996264 -5.77469 0
M  V30 18515 N 3033.5 0.0501916 -4.62973 0
M  V30 18516 H 3030.66 -0.374722 -8.67691 0
M  V30 18517 H 3030.39 -0.443485 -6.90277 0
M  V30 18518 H 3031.26 1.75537 -7.96793 0
M  V30 18519 P 3035.22 2.75334 -8.47391 0
M  V30 18520 O 3035.44 3.84166 -9.4489 0
M  V30 18521 O 3036.01 1.51964 -8.6881 0
M  V30 18522 O 3035.47 3.29363 -6.99321 0
M  V30 18523 C 3034.53 4.24011 -6.4274 0
M  V30 18524 C 3035.26 5.20775 -5.52155 0
M  V30 18525 O 3035.47 4.56534 -4.22446 0
M  V30 18526 C 3036.66 5.62629 -5.96531 0
M  V30 18527 O 3037.05 6.87667 -5.41053 0
M  V30 18528 C 3037.54 4.52537 -5.39283 0
M  V30 18529 C 3036.83 4.20027 -4.08623 0
M  V30 18530 N 3036.88 2.7613 -3.71522 0
M  V30 18531 C 3037.03 2.43702 -2.37085 0
M  V30 18532 O 3037.12 3.3531 -1.54039 0
M  V30 18533 N 3037.08 0.951103 -2.10621 0
M  V30 18534 C 3036.98 0.165021 -2.93537 0
M  V30 18535 N 3037.03 -1.09723 -2.53253 0
M  V30 18536 C 3036.83 0.469576 -4.32458 0
M  V30 18537 C 3036.78 1.78658 -4.65921 0
M  V30 18538 H 3034.04 4.79645 -7.23919 0
M  V30 18539 H 3033.77 3.69802 -5.84429 0
M  V30 18540 H 3034.64 6.10431 -5.41508 0
M  V30 18541 H 3037.3 4.78733 -3.27967 0
M  V30 18542 H 3037.57 3.64957 -6.05871 0
M  V30 18543 H 3038.57 4.8868 -5.2125 0
M  V30 18544 H 3036.73 5.66726 -7.06352 0
M  V30 18545 H 3036.66 2.06987 -5.70299 0
M  V30 18546 H 3036.76 -0.314383 -5.07728 0
M  V30 18547 H 3037.15 -1.31363 -1.5319 0
M  V30 18548 H 3036.95 -1.85978 -3.21943 0
M  V30 18549 P 3038.6 7.20834 -5.23717 0
M  V30 18550 O 3038.82 8.66104 -5.38572 0
M  V30 18551 O 3039.39 6.33544 -6.1349 0
M  V30 18552 O 3038.85 6.7751 -3.72168 0
M  V30 18553 C 3037.91 7.20825 -2.7076 0
M  V30 18554 C 3038.64 7.45864 -1.40599 0
M  V30 18555 O 3038.85 6.17651 -0.734225 0
M  V30 18556 C 3040.04 8.05808 -1.51899 0
M  V30 18557 O 3040.43 8.74358 -0.335205 0
M  V30 18558 C 3040.92 6.83093 -1.70294 0
M  V30 18559 C 3040.21 5.79992 -0.836974 0
M  V30 18560 N 3040.26 4.41864 -1.38293 0
M  V30 18561 C 3040.18 3.99538 -2.69438 0
M  V30 18562 N 3040.26 2.69909 -2.84277 0
M  V30 18563 C 3040.4 2.21719 -1.5408 0
M  V30 18564 C 3040.53 0.891712 -1.06628 0
M  V30 18565 N 3040.65 0.856846 0.334985 0
M  V30 18566 C 3040.65 1.9641 1.15789 0
M  V30 18567 N 3040.78 1.72708 2.46522 0
M  V30 18568 N 3040.52 3.21165 0.713741 0
M  V30 18569 C 3040.4 3.26797 -0.639748 0
M  V30 18570 H 3037.42 8.13644 -3.0377 0
M  V30 18571 H 3037.15 6.42788 -2.55485 0
M  V30 18572 H 3038.02 8.12039 -0.792769 0
M  V30 18573 P 3041.98 8.91 -9.83259e-11 0
M  V30 18574 O 3042.2 10.1726 0.733694 0
M  V30 18575 O 3042.77 8.73148 -1.23936 0
M  V30 18576 O 3042.23 7.66872 0.971405 0
M  V30 18577 C 3041.29 7.42309 2.04641 0
M  V30 18578 C 3042.02 6.86059 3.24661 0
M  V30 18579 O 3042.23 5.42847 3.03646 0
M  V30 18580 C 3043.42 7.41196 3.50753 0
M  V30 18581 O 3043.81 7.27073 4.86816 0
M  V30 18582 C 3044.3 6.5273 2.63741 0
M  V30 18583 C 3043.59 5.1842 2.73198 0
M  V30 18584 N 3043.64 4.38762 1.4784 0
M  V30 18585 C 3043.56 4.81605 0.168631 0
M  V30 18586 N 3043.64 3.85454 -0.713363 0
M  V30 18587 C 3043.78 2.6994 0.0566958 0
M  V30 18588 C 3043.91 1.34815 -0.338502 0
M  V30 18589 O 3043.93 0.869548 -1.47125 0
M  V30 18590 N 3044.03 0.496304 0.77465 0
M  V30 18591 C 3044.03 0.908403 2.09122 0
M  V30 18592 N 3044.16 -0.0517805 3.00955 0
M  V30 18593 N 3043.9 2.17875 2.46519 0
M  V30 18594 C 3043.78 3.01988 1.4033 0
M  V30 18595 H 3040.8 8.36803 2.32493 0
M  V30 18596 H 3040.53 6.70197 1.71129 0
M  V30 18597 H 3041.4 7.03551 4.13168 0
M  V30 18598 H 3044.06 4.59498 3.54415 0
M  V30 18599 H 3044.33 6.88898 1.59848 0
M  V30 18600 H 3045.33 6.46749 3.03687 0
M  V30 18601 H 3043.49 8.46908 3.20714 0
M  V30 18602 H 3043.44 5.86405 -0.105564 0
M  V30 18603 H 3044.13 -0.483664 0.597855 0
M  V30 18604 H 3044.16 0.187865 4.0116 0
M  V30 18605 H 3044.26 -1.03585 2.71726 0
M  V30 18606 P 3045.36 7.20834 5.23717 0
M  V30 18607 O 3045.58 7.79853 6.57286 0
M  V30 18608 O 3046.15 7.79239 4.12957 0
M  V30 18609 O 3045.61 5.63315 5.29344 0
M  V30 18610 C 3044.67 4.80255 6.01876 0
M  V30 18611 C 3045.4 3.64202 6.65911 0
M  V30 18612 O 3045.61 2.60694 5.64732 0
M  V30 18613 C 3046.8 3.93473 7.1943 0
M  V30 18614 O 3047.19 3.02071 8.21205 0
M  V30 18615 C 3047.68 3.73047 5.97036 0
M  V30 18616 C 3046.97 2.58828 5.25741 0
M  V30 18617 N 3047.02 2.68068 3.77503 0
M  V30 18618 H 3044.18 5.40332 6.79951 0
M  V30 18619 H 3043.91 4.41613 5.32378 0
M  V30 18620 H 3044.78 3.26331 7.47797 0
M  V30 18621 P 3048.74 2.75334 8.47391 0
M  V30 18622 O 3048.96 2.44595 9.90239 0
M  V30 18623 O 3049.53 3.87732 7.92204 0
M  V30 18624 O 3048.99 1.4459 7.59357 0
M  V30 18625 C 3048.05 0.347563 7.69115 0
M  V30 18626 C 3048.78 -0.96767 7.52806 0
M  V30 18627 O 3048.99 -1.21036 6.1011 0
M  V30 18628 C 3050.18 -1.04544 8.13308 0
M  V30 18629 O 3050.57 -2.38311 8.41922 0
M  V30 18630 C 3051.06 -0.491279 7.02284 0
M  V30 18631 C 3050.35 -0.996264 5.77469 0
M  V30 18632 N 3050.4 -0.0501808 4.62873 0
M  V30 18633 C 3050.55 -0.588177 3.36904 0
M  V30 18634 O 3050.64 -1.78598 3.17173 0
M  V30 18635 N 3050.59 0.329694 2.33686 0
M  V30 18636 C 3050.5 1.6953 2.45079 0
M  V30 18637 O 3050.55 2.41926 1.44899 0
M  V30 18638 C 3050.35 2.16933 3.80505 0
M  V30 18639 C 3050.24 3.65373 3.97621 0
M  V30 18640 C 3050.3 1.30326 4.83752 0
M  V30 18641 H 3047.56 0.374722 8.67691 0
M  V30 18642 H 3047.29 0.443421 6.90177 0
M  V30 18643 H 3048.16 -1.75537 7.96793 0
M  V30 18644 H 3050.81 -1.94496 5.46629 0
M  V30 18645 H 3051.09 0.608651 7.04676 0
M  V30 18646 H 3052.09 -0.889672 7.08939 0
M  V30 18647 H 3050.25 -0.43308 9.04564 0
M  V30 18648 H 3050.18 1.68366 5.8516 0
M  V30 18649 H 3051.21 4.05985 4.30448 0
M  V30 18650 H 3049.47 3.88028 4.72875 0
M  V30 18651 H 3049.96 4.11381 3.01609 0
M  V30 18652 H 3050.7 -0.0393617 1.41345 0
M  V30 18653 P 3052.12 -2.75334 8.47391 0
M  V30 18654 O 3052.34 -3.84204 9.44982 0
M  V30 18655 O 3052.91 -1.51982 8.68909 0
M  V30 18656 O 3052.37 -3.29363 6.99321 0
M  V30 18657 C 3051.43 -4.24066 6.42823 0
M  V30 18658 C 3052.16 -5.20775 5.52155 0
M  V30 18659 O 3052.37 -4.56607 4.22514 0
M  V30 18660 C 3053.56 -5.62697 5.96604 0
M  V30 18661 O 3053.95 -6.87667 5.41053 0
M  V30 18662 C 3054.44 -4.52537 5.39283 0
M  V30 18663 C 3053.73 -4.20027 4.08623 0
M  V30 18664 N 3053.78 -2.76189 3.71603 0
M  V30 18665 C 3053.7 -1.66944 4.54297 0
M  V30 18666 N 3053.77 -0.536169 3.91344 0
M  V30 18667 C 3053.92 -0.901569 2.58849 0
M  V30 18668 C 3054.05 -0.146599 1.40236 0
M  V30 18669 N 3054.06 1.18234 1.37046 0
M  V30 18670 N 3054.17 -0.822941 0.249738 0
M  V30 18671 C 3054.16 -2.15179 0.280525 0
M  V30 18672 N 3054.04 -2.96414 1.30822 0
M  V30 18673 C 3053.92 -2.25804 2.44748 0
M  V30 18674 H 3050.94 -4.79756 7.24086 0
M  V30 18675 H 3050.67 -3.69963 5.84682 0
M  V30 18676 H 3051.54 -6.10431 5.41508 0
M  V30 18677 H 3054.19 -4.78816 3.28024 0
M  V30 18678 H 3054.47 -3.64957 6.05871 0
M  V30 18679 H 3055.47 -4.88748 5.21323 0
M  V30 18680 H 3053.63 -5.66789 7.0643 0
M  V30 18681 H 3053.59 -1.74684 5.62396 0
M  V30 18682 H 3053.97 1.71949 2.24394 0
M  V30 18683 H 3054.16 1.67511 0.470742 0
M  V30 18684 H 3054.27 -2.63704 -0.6828 0
M  V30 18685 P 3055.5 -7.20834 5.23717 0
M  V30 18686 O 3055.72 -8.66274 5.38678 0
M  V30 18687 O 3056.29 -6.33687 6.13629 0
M  V30 18688 O 3055.75 -6.7751 3.72168 0
M  V30 18689 C 3054.81 -7.20919 2.70795 0
M  V30 18690 C 3055.54 -7.45864 1.40599 0
M  V30 18691 O 3055.75 -6.17751 0.734343 0
M  V30 18692 C 3056.94 -8.05906 1.51917 0
M  V30 18693 O 3057.33 -8.74358 0.335205 0
M  V30 18694 C 3057.82 -6.83093 1.70294 0
M  V30 18695 C 3057.11 -5.79992 0.836974 0
M  V30 18696 N 3057.16 -4.41864 1.38293 0
M  V30 18697 C 3057.08 -4.02089 2.69407 0
M  V30 18698 N 3057.15 -2.73403 2.85089 0
M  V30 18699 C 3057.3 -2.25086 1.5642 0
M  V30 18700 C 3057.43 -0.942887 1.04836 0
M  V30 18701 N 3057.44 0.150999 1.80369 0
M  V30 18702 N 3057.55 -0.812565 -0.28167 0
M  V30 18703 C 3057.54 -1.90572 -1.03784 0
M  V30 18704 N 3057.42 -3.167 -0.683905 0
M  V30 18705 C 3057.3 -3.26538 0.652815 0
M  V30 18706 H 3054.32 -8.13738 3.03804 0
M  V30 18707 H 3054.05 -6.42974 2.55559 0
M  V30 18708 H 3054.92 -8.12139 0.792866 0
M  V30 18709 H 3057.57 -5.80178 -0.160643 0
M  V30 18710 H 3057.85 -6.51379 2.75643 0
M  V30 18711 H 3058.85 -7.01832 1.3448 0
M  V30 18712 H 3057.01 -8.73771 2.38364 0
M  V30 18713 H 3056.97 -4.7189 3.52311 0
M  V30 18714 H 3057.35 0.0721434 2.82608 0
M  V30 18715 H 3057.54 1.0785 1.36544 0
M  V30 18716 H 3057.65 -1.73207 -2.10241 0
M  V30 18717 P 3058.88 -8.91 9.94349e-11 0
M  V30 18718 O 3059.1 -10.1726 -0.733694 0
M  V30 18719 O 3059.67 -8.73148 1.23936 0
M  V30 18720 O 3059.13 -7.66872 -0.971405 0
M  V30 18721 C 3058.19 -7.42309 -2.04641 0
M  V30 18722 C 3058.92 -6.86059 -3.24661 0
M  V30 18723 O 3059.13 -5.42847 -3.03646 0
M  V30 18724 C 3060.32 -7.41196 -3.50753 0
M  V30 18725 O 3060.71 -7.27073 -4.86816 0
M  V30 18726 C 3061.2 -6.5273 -2.63741 0
M  V30 18727 C 3060.49 -5.1842 -2.73198 0
M  V30 18728 N 3060.54 -4.38762 -1.4784 0
M  V30 18729 C 3060.46 -4.81605 -0.168631 0
M  V30 18730 N 3060.54 -3.85454 0.713363 0
M  V30 18731 C 3060.68 -2.6994 -0.0566958 0
M  V30 18732 C 3060.81 -1.34815 0.338502 0
M  V30 18733 O 3060.83 -0.869548 1.47125 0
M  V30 18734 N 3060.93 -0.496304 -0.77465 0
M  V30 18735 C 3060.93 -0.908403 -2.09122 0
M  V30 18736 N 3061.06 0.0517805 -3.00955 0
M  V30 18737 N 3060.8 -2.17875 -2.46519 0
M  V30 18738 C 3060.68 -3.01988 -1.4033 0
M  V30 18739 H 3057.7 -8.36803 -2.32493 0
M  V30 18740 H 3057.43 -6.70197 -1.71129 0
M  V30 18741 H 3058.3 -7.03551 -4.13168 0
M  V30 18742 H 3060.95 -4.59498 -3.54415 0
M  V30 18743 H 3061.23 -6.88898 -1.59848 0
M  V30 18744 H 3062.23 -6.46749 -3.03687 0
M  V30 18745 H 3060.39 -8.46908 -3.20714 0
M  V30 18746 H 3060.34 -5.86405 0.105564 0
M  V30 18747 H 3061.02 0.483664 -0.597855 0
M  V30 18748 H 3061.06 -0.187865 -4.0116 0
M  V30 18749 H 3061.16 1.03585 -2.71726 0
M  V30 18750 P 3062.26 -7.20834 -5.23717 0
M  V30 18751 O 3062.48 -7.79853 -6.57286 0
M  V30 18752 O 3063.05 -7.79239 -4.12957 0
M  V30 18753 O 3062.51 -5.63315 -5.29344 0
M  V30 18754 C 3061.57 -4.80255 -6.01876 0
M  V30 18755 C 3062.3 -3.64202 -6.65911 0
M  V30 18756 O 3062.51 -2.60694 -5.64732 0
M  V30 18757 C 3063.7 -3.93473 -7.1943 0
M  V30 18758 O 3064.09 -3.02071 -8.21205 0
M  V30 18759 C 3064.58 -3.73047 -5.97036 0
M  V30 18760 C 3063.87 -2.58828 -5.25741 0
M  V30 18761 N 3063.92 -2.68068 -3.77503 0
M  V30 18762 H 3061.08 -5.40332 -6.79951 0
M  V30 18763 H 3060.81 -4.41613 -5.32378 0
M  V30 18764 H 3061.68 -3.26331 -7.47797 0
M  V30 18765 P 3065.64 -2.75334 -8.47391 0
M  V30 18766 O 3065.86 -2.44571 -9.90142 0
M  V30 18767 O 3066.43 -3.87688 -7.92115 0
M  V30 18768 O 3065.89 -1.4459 -7.59357 0
M  V30 18769 C 3064.95 -0.347608 -7.69215 0
M  V30 18770 C 3065.68 0.96767 -7.52806 0
M  V30 18771 O 3065.89 1.21036 -6.1011 0
M  V30 18772 C 3067.08 1.04544 -8.13308 0
M  V30 18773 O 3067.47 2.38311 -8.41922 0
M  V30 18774 C 3067.96 0.491279 -7.02284 0
M  V30 18775 C 3067.25 0.996264 -5.77469 0
M  V30 18776 N 3067.3 0.0501916 -4.62973 0
M  V30 18777 H 3064.46 -0.374722 -8.67691 0
M  V30 18778 H 3064.19 -0.443485 -6.90277 0
M  V30 18779 H 3065.06 1.75537 -7.96793 0
M  V30 18780 P 3069.02 2.75334 -8.47391 0
M  V30 18781 O 3069.24 3.84204 -9.44982 0
M  V30 18782 O 3069.81 1.51982 -8.68909 0
M  V30 18783 O 3069.27 3.29363 -6.99321 0
M  V30 18784 C 3068.33 4.24066 -6.42823 0
M  V30 18785 C 3069.06 5.20775 -5.52155 0
M  V30 18786 O 3069.27 4.56607 -4.22514 0
M  V30 18787 C 3070.46 5.62697 -5.96604 0
M  V30 18788 O 3070.85 6.87667 -5.41053 0
M  V30 18789 C 3071.34 4.52537 -5.39283 0
M  V30 18790 C 3070.63 4.20027 -4.08623 0
M  V30 18791 N 3070.68 2.76189 -3.71603 0
M  V30 18792 C 3070.6 1.66944 -4.54297 0
M  V30 18793 N 3070.67 0.536169 -3.91344 0
M  V30 18794 C 3070.82 0.901569 -2.58849 0
M  V30 18795 C 3070.95 0.146599 -1.40236 0
M  V30 18796 N 3070.96 -1.18234 -1.37046 0
M  V30 18797 N 3071.07 0.822941 -0.249738 0
M  V30 18798 C 3071.06 2.15179 -0.280525 0
M  V30 18799 N 3070.94 2.96414 -1.30822 0
M  V30 18800 C 3070.82 2.25804 -2.44748 0
M  V30 18801 H 3067.84 4.79756 -7.24086 0
M  V30 18802 H 3067.57 3.69963 -5.84682 0
M  V30 18803 H 3068.44 6.10431 -5.41508 0
M  V30 18804 H 3071.09 4.78816 -3.28024 0
M  V30 18805 H 3071.37 3.64957 -6.05871 0
M  V30 18806 H 3072.37 4.88748 -5.21323 0
M  V30 18807 H 3070.53 5.66789 -7.0643 0
M  V30 18808 H 3070.49 1.74684 -5.62396 0
M  V30 18809 H 3070.87 -1.71949 -2.24394 0
M  V30 18810 H 3071.06 -1.67511 -0.470742 0
M  V30 18811 H 3071.17 2.63704 0.6828 0
M  V30 18812 P 3072.4 7.20834 -5.23717 0
M  V30 18813 O 3072.62 8.66274 -5.38678 0
M  V30 18814 O 3073.19 6.33687 -6.13629 0
M  V30 18815 O 3072.65 6.7751 -3.72168 0
M  V30 18816 C 3071.71 7.20919 -2.70795 0
M  V30 18817 C 3072.44 7.45864 -1.40599 0
M  V30 18818 O 3072.65 6.17751 -0.734343 0
M  V30 18819 C 3073.84 8.05906 -1.51917 0
M  V30 18820 O 3074.23 8.74358 -0.335205 0
M  V30 18821 C 3074.72 6.83093 -1.70294 0
M  V30 18822 C 3074.01 5.79992 -0.836974 0
M  V30 18823 N 3074.06 4.41864 -1.38293 0
M  V30 18824 H 3071.22 8.13738 -3.03804 0
M  V30 18825 H 3070.95 6.42974 -2.55559 0
M  V30 18826 H 3071.82 8.12139 -0.792866 0
M  V30 18827 H 3074.47 5.80178 0.160643 0
M  V30 18828 H 3074.75 6.51379 -2.75643 0
M  V30 18829 H 3075.75 7.01832 -1.3448 0
M  V30 18830 H 3073.91 8.73771 -2.38364 0
M  V30 18831 P 3075.78 8.91 -1.00544e-10 0
M  V30 18832 O 3076 10.1726 0.733694 0
M  V30 18833 O 3076.57 8.73148 -1.23936 0
M  V30 18834 O 3076.03 7.66872 0.971405 0
M  V30 18835 C 3075.09 7.42309 2.04641 0
M  V30 18836 C 3075.82 6.86059 3.24661 0
M  V30 18837 O 3076.03 5.42847 3.03646 0
M  V30 18838 C 3077.22 7.41196 3.50753 0
M  V30 18839 O 3077.61 7.27073 4.86816 0
M  V30 18840 C 3078.1 6.5273 2.63741 0
M  V30 18841 C 3077.39 5.1842 2.73198 0
M  V30 18842 N 3077.44 4.38762 1.4784 0
M  V30 18843 C 3077.36 4.81605 0.168631 0
M  V30 18844 N 3077.44 3.85454 -0.713363 0
M  V30 18845 C 3077.58 2.6994 0.0566958 0
M  V30 18846 C 3077.71 1.34815 -0.338502 0
M  V30 18847 O 3077.73 0.869548 -1.47125 0
M  V30 18848 N 3077.83 0.496304 0.77465 0
M  V30 18849 C 3077.83 0.908403 2.09122 0
M  V30 18850 N 3077.96 -0.0517805 3.00955 0
M  V30 18851 N 3077.7 2.17875 2.46519 0
M  V30 18852 C 3077.58 3.01988 1.4033 0
M  V30 18853 H 3074.6 8.36803 2.32493 0
M  V30 18854 H 3074.33 6.70197 1.71129 0
M  V30 18855 H 3075.2 7.03551 4.13168 0
M  V30 18856 H 3077.85 4.59498 3.54415 0
M  V30 18857 H 3078.13 6.88898 1.59848 0
M  V30 18858 H 3079.13 6.46749 3.03687 0
M  V30 18859 H 3077.29 8.46908 3.20714 0
M  V30 18860 H 3077.24 5.86405 -0.105564 0
M  V30 18861 H 3077.92 -0.483664 0.597855 0
M  V30 18862 H 3077.96 0.187865 4.0116 0
M  V30 18863 H 3078.06 -1.03585 2.71726 0
M  V30 18864 P 3079.16 7.20834 5.23717 0
M  V30 18865 O 3079.38 7.79853 6.57286 0
M  V30 18866 O 3079.95 7.79239 4.12957 0
M  V30 18867 O 3079.41 5.63315 5.29344 0
M  V30 18868 C 3078.47 4.80255 6.01876 0
M  V30 18869 C 3079.2 3.64202 6.65911 0
M  V30 18870 O 3079.41 2.60694 5.64732 0
M  V30 18871 C 3080.6 3.93473 7.1943 0
M  V30 18872 O 3080.99 3.02071 8.21205 0
M  V30 18873 C 3081.48 3.73047 5.97036 0
M  V30 18874 C 3080.77 2.58828 5.25741 0
M  V30 18875 N 3080.82 2.68068 3.77503 0
M  V30 18876 H 3077.98 5.40332 6.79951 0
M  V30 18877 H 3077.71 4.41613 5.32378 0
M  V30 18878 H 3078.58 3.26331 7.47797 0
M  V30 18879 P 3082.54 2.75334 8.47391 0
M  V30 18880 O 3082.76 2.44571 9.90142 0
M  V30 18881 O 3083.33 3.87688 7.92115 0
M  V30 18882 O 3082.79 1.4459 7.59357 0
M  V30 18883 C 3081.85 0.347608 7.69215 0
M  V30 18884 C 3082.58 -0.96767 7.52806 0
M  V30 18885 O 3082.79 -1.21036 6.1011 0
M  V30 18886 C 3083.98 -1.04544 8.13308 0
M  V30 18887 O 3084.37 -2.38311 8.41922 0
M  V30 18888 C 3084.86 -0.491279 7.02284 0
M  V30 18889 C 3084.15 -0.996264 5.77469 0
M  V30 18890 N 3084.2 -0.0501916 4.62973 0
M  V30 18891 H 3081.36 0.374722 8.67691 0
M  V30 18892 H 3081.09 0.443485 6.90277 0
M  V30 18893 H 3081.96 -1.75537 7.96793 0
M  V30 18894 P 3085.92 -2.75334 8.47391 0
M  V30 18895 O 3086.14 -3.84204 9.44982 0
M  V30 18896 O 3086.71 -1.51982 8.68909 0
M  V30 18897 O 3086.17 -3.29363 6.99321 0
M  V30 18898 C 3085.23 -4.24066 6.42823 0
M  V30 18899 C 3085.96 -5.20775 5.52155 0
M  V30 18900 O 3086.17 -4.56607 4.22514 0
M  V30 18901 C 3087.36 -5.62697 5.96604 0
M  V30 18902 O 3087.75 -6.87667 5.41053 0
M  V30 18903 C 3088.24 -4.52537 5.39283 0
M  V30 18904 C 3087.53 -4.20027 4.08623 0
M  V30 18905 N 3087.58 -2.76189 3.71603 0
M  V30 18906 H 3084.74 -4.79756 7.24086 0
M  V30 18907 H 3084.47 -3.69963 5.84682 0
M  V30 18908 H 3085.34 -6.10431 5.41508 0
M  V30 18909 H 3087.99 -4.78816 3.28024 0
M  V30 18910 H 3088.27 -3.64957 6.05871 0
M  V30 18911 H 3089.27 -4.88748 5.21323 0
M  V30 18912 H 3087.43 -5.66789 7.0643 0
M  V30 18913 P 3089.3 -7.20834 5.23717 0
M  V30 18914 O 3089.52 -8.66274 5.38678 0
M  V30 18915 O 3090.09 -6.33687 6.13629 0
M  V30 18916 O 3089.55 -6.7751 3.72168 0
M  V30 18917 C 3088.61 -7.20919 2.70795 0
M  V30 18918 C 3089.34 -7.45864 1.40599 0
M  V30 18919 O 3089.55 -6.17751 0.734343 0
M  V30 18920 C 3090.74 -8.05906 1.51917 0
M  V30 18921 O 3091.13 -8.74358 0.335205 0
M  V30 18922 C 3091.62 -6.83093 1.70294 0
M  V30 18923 C 3090.91 -5.79992 0.836974 0
M  V30 18924 N 3090.96 -4.41864 1.38293 0
M  V30 18925 C 3090.88 -4.02089 2.69407 0
M  V30 18926 N 3090.95 -2.73403 2.85089 0
M  V30 18927 C 3091.1 -2.25086 1.5642 0
M  V30 18928 C 3091.23 -0.942887 1.04836 0
M  V30 18929 N 3091.24 0.150999 1.80369 0
M  V30 18930 N 3091.35 -0.812565 -0.28167 0
M  V30 18931 C 3091.34 -1.90572 -1.03784 0
M  V30 18932 N 3091.22 -3.167 -0.683905 0
M  V30 18933 C 3091.1 -3.26538 0.652815 0
M  V30 18934 H 3088.12 -8.13738 3.03804 0
M  V30 18935 H 3087.85 -6.42974 2.55559 0
M  V30 18936 H 3088.72 -8.12139 0.792866 0
M  V30 18937 H 3091.37 -5.80178 -0.160643 0
M  V30 18938 H 3091.65 -6.51379 2.75643 0
M  V30 18939 H 3092.65 -7.01832 1.3448 0
M  V30 18940 H 3090.81 -8.73771 2.38364 0
M  V30 18941 H 3090.77 -4.7189 3.52311 0
M  V30 18942 H 3091.15 0.0721434 2.82608 0
M  V30 18943 H 3091.34 1.0785 1.36544 0
M  V30 18944 H 3091.45 -1.73207 -2.10241 0
M  V30 18945 P 3092.68 -8.91 1.01653e-10 0
M  V30 18946 O 3092.9 -10.1726 -0.733694 0
M  V30 18947 O 3093.47 -8.73148 1.23936 0
M  V30 18948 O 3092.93 -7.66872 -0.971405 0
M  V30 18949 C 3091.99 -7.42309 -2.04641 0
M  V30 18950 C 3092.72 -6.86059 -3.24661 0
M  V30 18951 O 3092.93 -5.42847 -3.03646 0
M  V30 18952 C 3094.12 -7.41196 -3.50753 0
M  V30 18953 O 3094.51 -7.27073 -4.86816 0
M  V30 18954 C 3095 -6.5273 -2.63741 0
M  V30 18955 C 3094.29 -5.1842 -2.73198 0
M  V30 18956 N 3094.34 -4.38762 -1.4784 0
M  V30 18957 H 3091.5 -8.36803 -2.32493 0
M  V30 18958 H 3091.23 -6.70197 -1.71129 0
M  V30 18959 H 3092.1 -7.03551 -4.13168 0
M  V30 18960 P 3096.06 -7.20834 -5.23717 0
M  V30 18961 O 3096.28 -7.80006 -6.57415 0
M  V30 18962 O 3096.85 -7.79416 -4.13051 0
M  V30 18963 O 3096.31 -5.63315 -5.29344 0
M  V30 18964 C 3095.37 -4.80318 -6.01954 0
M  V30 18965 C 3096.1 -3.64202 -6.65911 0
M  V30 18966 O 3096.31 -2.60736 -5.64823 0
M  V30 18967 C 3097.5 -3.93521 -7.19518 0
M  V30 18968 O 3097.89 -3.02071 -8.21205 0
M  V30 18969 C 3098.38 -3.73047 -5.97036 0
M  V30 18970 C 3097.67 -2.58828 -5.25741 0
M  V30 18971 N 3097.72 -2.68068 -3.77503 0
M  V30 18972 H 3094.88 -5.40394 -6.8003 0
M  V30 18973 H 3094.61 -4.41741 -5.32532 0
M  V30 18974 H 3095.48 -3.26371 -7.47889 0
M  V30 18975 H 3098.13 -1.64007 -5.56746 0
M  V30 18976 H 3098.41 -4.63439 -5.3432 0
M  V30 18977 H 3099.41 -3.44776 -6.25925 0
M  V30 18978 H 3097.57 -4.96707 -7.57347 0
M  V30 18979 P 3099.44 -2.75334 -8.47391 0
M  V30 18980 O 3099.66 -2.44571 -9.90142 0
M  V30 18981 O 3100.23 -3.87688 -7.92115 0
M  V30 18982 O 3099.69 -1.4459 -7.59357 0
M  V30 18983 C 3098.75 -0.347608 -7.69215 0
M  V30 18984 C 3099.48 0.96767 -7.52806 0
M  V30 18985 O 3099.69 1.21036 -6.1011 0
M  V30 18986 C 3100.88 1.04544 -8.13308 0
M  V30 18987 O 3101.27 2.38311 -8.41922 0
M  V30 18988 C 3101.76 0.491279 -7.02284 0
M  V30 18989 C 3101.05 0.996264 -5.77469 0
M  V30 18990 N 3101.1 0.0501916 -4.62973 0
M  V30 18991 H 3098.26 -0.374722 -8.67691 0
M  V30 18992 H 3097.99 -0.443485 -6.90277 0
M  V30 18993 H 3098.86 1.75537 -7.96793 0
M  V30 18994 P 3102.82 2.75334 -8.47391 0
M  V30 18995 O 3103.04 3.84128 -9.44797 0
M  V30 18996 O 3103.61 1.51947 -8.68712 0
M  V30 18997 O 3103.07 3.29363 -6.99321 0
M  V30 18998 C 3102.13 4.24011 -6.4274 0
M  V30 18999 C 3102.86 5.20775 -5.52155 0
M  V30 19000 O 3103.07 4.56534 -4.22446 0
M  V30 19001 C 3104.26 5.62629 -5.96531 0
M  V30 19002 O 3104.65 6.87667 -5.41053 0
M  V30 19003 C 3105.14 4.52537 -5.39283 0
M  V30 19004 C 3104.43 4.20027 -4.08623 0
M  V30 19005 N 3104.48 2.76189 -3.71603 0
M  V30 19006 H 3101.64 4.797 -7.24003 0
M  V30 19007 H 3101.37 3.69856 -5.84513 0
M  V30 19008 H 3102.24 6.10356 -5.41441 0
M  V30 19009 P 3106.2 7.20834 -5.23717 0
M  V30 19010 O 3106.42 8.66104 -5.38572 0
M  V30 19011 O 3106.99 6.33544 -6.1349 0
M  V30 19012 O 3106.45 6.7751 -3.72168 0
M  V30 19013 C 3105.51 7.20825 -2.7076 0
M  V30 19014 C 3106.24 7.45864 -1.40599 0
M  V30 19015 O 3106.45 6.17651 -0.734225 0
M  V30 19016 C 3107.64 8.05808 -1.51899 0
M  V30 19017 O 3108.03 8.74358 -0.335205 0
M  V30 19018 C 3108.52 6.83093 -1.70294 0
M  V30 19019 C 3107.81 5.79992 -0.836974 0
M  V30 19020 N 3107.86 4.41864 -1.38293 0
M  V30 19021 C 3107.78 3.99538 -2.69438 0
M  V30 19022 N 3107.86 2.69909 -2.84277 0
M  V30 19023 C 3108 2.21719 -1.5408 0
M  V30 19024 C 3108.13 0.891712 -1.06628 0
M  V30 19025 N 3108.25 0.856846 0.334985 0
M  V30 19026 C 3108.25 1.9641 1.15789 0
M  V30 19027 N 3108.38 1.72708 2.46522 0
M  V30 19028 N 3108.12 3.21165 0.713741 0
M  V30 19029 C 3108 3.26797 -0.639748 0
M  V30 19030 H 3105.02 8.13644 -3.0377 0
M  V30 19031 H 3104.75 6.42788 -2.55485 0
M  V30 19032 H 3105.62 8.12039 -0.792769 0
M  V30 19033 P 3109.58 8.91 -1.02762e-10 0
M  V30 19034 O 3109.8 10.1746 0.733838 0
M  V30 19035 O 3110.37 8.73346 -1.23964 0
M  V30 19036 O 3109.83 7.66872 0.971405 0
M  V30 19037 C 3108.89 7.42405 2.04668 0
M  V30 19038 C 3109.62 6.86059 3.24661 0
M  V30 19039 O 3109.83 5.42934 3.03695 0
M  V30 19040 C 3111.02 7.41287 3.50796 0
M  V30 19041 O 3111.41 7.27073 4.86816 0
M  V30 19042 C 3111.9 6.5273 2.63741 0
M  V30 19043 C 3111.19 5.1842 2.73198 0
M  V30 19044 N 3111.24 4.38762 1.4784 0
M  V30 19045 C 3111.16 4.83651 0.183876 0
M  V30 19046 N 3111.23 3.88759 -0.699393 0
M  V30 19047 C 3111.38 2.7404 0.0575568 0
M  V30 19048 C 3111.51 1.37902 -0.293928 0
M  V30 19049 N 3111.52 0.938021 -1.54797 0
M  V30 19050 N 3111.63 0.491817 0.70549 0
M  V30 19051 C 3111.62 0.931735 1.95979 0
M  V30 19052 N 3111.5 2.16017 2.41481 0
M  V30 19053 C 3111.38 3.02547 1.39121 0
M  V30 19054 H 3108.4 8.36899 2.3252 0
M  V30 19055 H 3108.13 6.70391 1.71179 0
M  V30 19056 H 3109 7.03638 4.13219 0
M  V30 19057 H 3111.65 4.59931 3.54016 0
M  V30 19058 H 3111.93 6.88995 1.59871 0
M  V30 19059 H 3112.93 6.4684 3.0373 0
M  V30 19060 H 3111.09 8.47002 3.20749 0
M  V30 19061 H 3111.05 5.8885 -0.0765548 0
M  V30 19062 H 3111.43 1.60276 -2.32875 0
M  V30 19063 H 3111.62 -0.0699355 -1.73859 0
M  V30 19064 H 3111.73 0.165507 2.71897 0
M  V30 19065 P 3112.96 7.20834 5.23717 0
M  V30 19066 O 3113.18 7.79853 6.57286 0
M  V30 19067 O 3113.75 7.79239 4.12957 0
M  V30 19068 O 3113.21 5.63315 5.29344 0
M  V30 19069 C 3112.27 4.80255 6.01876 0
M  V30 19070 C 3113 3.64202 6.65911 0
M  V30 19071 O 3113.21 2.60694 5.64732 0
M  V30 19072 C 3114.4 3.93473 7.1943 0
M  V30 19073 O 3114.79 3.02071 8.21205 0
M  V30 19074 C 3115.28 3.73047 5.97036 0
M  V30 19075 C 3114.57 2.58828 5.25741 0
M  V30 19076 N 3114.62 2.68068 3.77503 0
M  V30 19077 H 3111.78 5.40332 6.79951 0
M  V30 19078 H 3111.51 4.41613 5.32378 0
M  V30 19079 H 3112.38 3.26331 7.47797 0
M  V30 19080 P 3116.34 2.75334 8.47391 0
M  V30 19081 O 3116.56 2.44571 9.90142 0
M  V30 19082 O 3117.13 3.87688 7.92115 0
M  V30 19083 O 3116.59 1.4459 7.59357 0
M  V30 19084 C 3115.65 0.347608 7.69215 0
M  V30 19085 C 3116.38 -0.96767 7.52806 0
M  V30 19086 O 3116.59 -1.21036 6.1011 0
M  V30 19087 C 3117.78 -1.04544 8.13308 0
M  V30 19088 O 3118.17 -2.38311 8.41922 0
M  V30 19089 C 3118.66 -0.491279 7.02284 0
M  V30 19090 C 3117.95 -0.996264 5.77469 0
M  V30 19091 N 3118 -0.0501916 4.62973 0
M  V30 19092 H 3115.16 0.374722 8.67691 0
M  V30 19093 H 3114.89 0.443485 6.90277 0
M  V30 19094 H 3115.76 -1.75537 7.96793 0
M  V30 19095 P 3119.72 -2.75334 8.47391 0
M  V30 19096 O 3119.94 -3.84128 9.44797 0
M  V30 19097 O 3120.51 -1.51947 8.68712 0
M  V30 19098 O 3119.97 -3.29363 6.99321 0
M  V30 19099 C 3119.03 -4.24011 6.4274 0
M  V30 19100 C 3119.76 -5.20775 5.52155 0
M  V30 19101 O 3119.97 -4.56534 4.22446 0
M  V30 19102 C 3121.16 -5.62629 5.96531 0
M  V30 19103 O 3121.55 -6.87667 5.41053 0
M  V30 19104 C 3122.04 -4.52537 5.39283 0
M  V30 19105 C 3121.33 -4.20027 4.08623 0
M  V30 19106 N 3121.38 -2.76189 3.71603 0
M  V30 19107 H 3118.54 -4.797 7.24003 0
M  V30 19108 H 3118.27 -3.69856 5.84513 0
M  V30 19109 H 3119.14 -6.10356 5.41441 0
M  V30 19110 P 3123.1 -7.20834 5.23717 0
M  V30 19111 O 3123.32 -8.66104 5.38572 0
M  V30 19112 O 3123.89 -6.33544 6.1349 0
M  V30 19113 O 3123.35 -6.7751 3.72168 0
M  V30 19114 C 3122.41 -7.20825 2.7076 0
M  V30 19115 C 3123.14 -7.45864 1.40599 0
M  V30 19116 O 3123.35 -6.17651 0.734225 0
M  V30 19117 C 3124.54 -8.05808 1.51899 0
M  V30 19118 O 3124.93 -8.74358 0.335205 0
M  V30 19119 C 3125.42 -6.83093 1.70294 0
M  V30 19120 C 3124.71 -5.79992 0.836974 0
M  V30 19121 N 3124.76 -4.41864 1.38293 0
M  V30 19122 H 3121.92 -8.13644 3.0377 0
M  V30 19123 H 3121.65 -6.42788 2.55485 0
M  V30 19124 H 3122.52 -8.12039 0.792769 0
M  V30 19125 P 3126.48 -8.91 1.03871e-10 0
M  V30 19126 O 3126.7 -10.1726 -0.733694 0
M  V30 19127 O 3127.27 -8.73148 1.23936 0
M  V30 19128 O 3126.73 -7.66872 -0.971405 0
M  V30 19129 C 3125.79 -7.42309 -2.04641 0
M  V30 19130 C 3126.52 -6.86059 -3.24661 0
M  V30 19131 O 3126.73 -5.42847 -3.03646 0
M  V30 19132 C 3127.92 -7.41196 -3.50753 0
M  V30 19133 O 3128.31 -7.27073 -4.86816 0
M  V30 19134 C 3128.8 -6.5273 -2.63741 0
M  V30 19135 C 3128.09 -5.1842 -2.73198 0
M  V30 19136 N 3128.14 -4.38762 -1.4784 0
M  V30 19137 H 3125.3 -8.36803 -2.32493 0
M  V30 19138 H 3125.03 -6.70197 -1.71129 0
M  V30 19139 H 3125.9 -7.03551 -4.13168 0
M  V30 19140 P 3129.86 -7.20834 -5.23717 0
M  V30 19141 O 3130.08 -7.79853 -6.57286 0
M  V30 19142 O 3130.65 -7.79239 -4.12957 0
M  V30 19143 O 3130.11 -5.63315 -5.29344 0
M  V30 19144 C 3129.17 -4.80255 -6.01876 0
M  V30 19145 C 3129.9 -3.64202 -6.65911 0
M  V30 19146 O 3130.11 -2.60694 -5.64732 0
M  V30 19147 C 3131.3 -3.93473 -7.1943 0
M  V30 19148 O 3131.69 -3.02071 -8.21205 0
M  V30 19149 C 3132.18 -3.73047 -5.97036 0
M  V30 19150 C 3131.47 -2.58828 -5.25741 0
M  V30 19151 N 3131.52 -2.68068 -3.77503 0
M  V30 19152 H 3128.68 -5.40332 -6.79951 0
M  V30 19153 H 3128.41 -4.41613 -5.32378 0
M  V30 19154 H 3129.28 -3.26331 -7.47797 0
M  V30 19155 P 3133.24 -2.75334 -8.47391 0
M  V30 19156 O 3133.46 -2.44571 -9.90142 0
M  V30 19157 O 3134.03 -3.87688 -7.92115 0
M  V30 19158 O 3133.49 -1.4459 -7.59357 0
M  V30 19159 C 3132.55 -0.347608 -7.69215 0
M  V30 19160 C 3133.28 0.96767 -7.52806 0
M  V30 19161 O 3133.49 1.21036 -6.1011 0
M  V30 19162 C 3134.68 1.04544 -8.13308 0
M  V30 19163 O 3135.07 2.38311 -8.41922 0
M  V30 19164 C 3135.56 0.491279 -7.02284 0
M  V30 19165 C 3134.85 0.996264 -5.77469 0
M  V30 19166 N 3134.9 0.0501916 -4.62973 0
M  V30 19167 H 3132.06 -0.374722 -8.67691 0
M  V30 19168 H 3131.79 -0.443485 -6.90277 0
M  V30 19169 H 3132.66 1.75537 -7.96793 0
M  V30 19170 P 3136.62 2.75334 -8.47391 0
M  V30 19171 O 3136.84 3.84128 -9.44797 0
M  V30 19172 O 3137.41 1.51947 -8.68712 0
M  V30 19173 O 3136.87 3.29363 -6.99321 0
M  V30 19174 C 3135.93 4.24011 -6.4274 0
M  V30 19175 C 3136.66 5.20775 -5.52155 0
M  V30 19176 O 3136.87 4.56534 -4.22446 0
M  V30 19177 C 3138.06 5.62629 -5.96531 0
M  V30 19178 O 3138.45 6.87667 -5.41053 0
M  V30 19179 C 3138.94 4.52537 -5.39283 0
M  V30 19180 C 3138.23 4.20027 -4.08623 0
M  V30 19181 N 3138.28 2.76189 -3.71603 0
M  V30 19182 H 3135.44 4.797 -7.24003 0
M  V30 19183 H 3135.17 3.69856 -5.84513 0
M  V30 19184 H 3136.04 6.10356 -5.41441 0
M  V30 19185 P 3140 7.20834 -5.23717 0
M  V30 19186 O 3140.22 8.66104 -5.38572 0
M  V30 19187 O 3140.79 6.33544 -6.1349 0
M  V30 19188 O 3140.25 6.7751 -3.72168 0
M  V30 19189 C 3139.31 7.20825 -2.7076 0
M  V30 19190 C 3140.04 7.45864 -1.40599 0
M  V30 19191 O 3140.25 6.17651 -0.734225 0
M  V30 19192 C 3141.44 8.05808 -1.51899 0
M  V30 19193 O 3141.83 8.74358 -0.335205 0
M  V30 19194 C 3142.32 6.83093 -1.70294 0
M  V30 19195 C 3141.61 5.79992 -0.836974 0
M  V30 19196 N 3141.66 4.41864 -1.38293 0
M  V30 19197 H 3138.82 8.13644 -3.0377 0
M  V30 19198 H 3138.55 6.42788 -2.55485 0
M  V30 19199 H 3139.42 8.12039 -0.792769 0
M  V30 19200 P 3143.38 8.91 -1.0498e-10 0
M  V30 19201 O 3143.6 10.1736 0.733766 0
M  V30 19202 O 3144.17 8.73247 -1.2395 0
M  V30 19203 O 3143.63 7.66872 0.971405 0
M  V30 19204 C 3142.69 7.42309 2.04641 0
M  V30 19205 C 3143.42 6.86059 3.24661 0
M  V30 19206 O 3143.63 5.42847 3.03646 0
M  V30 19207 C 3144.82 7.41196 3.50753 0
M  V30 19208 O 3145.21 7.27073 4.86816 0
M  V30 19209 C 3145.7 6.5273 2.63741 0
M  V30 19210 C 3144.99 5.1842 2.73198 0
M  V30 19211 N 3145.04 4.38668 1.47808 0
M  V30 19212 C 3145.19 3.00789 1.58511 0
M  V30 19213 O 3145.28 2.50116 2.71298 0
M  V30 19214 N 3145.24 2.29703 0.253698 0
M  V30 19215 C 3145.14 2.84269 -0.750133 0
M  V30 19216 N 3145.19 2.06951 -1.82612 0
M  V30 19217 C 3144.99 4.25803 -0.889776 0
M  V30 19218 C 3144.94 4.98326 0.259363 0
M  V30 19219 H 3142.2 8.36707 2.32466 0
M  V30 19220 H 3141.93 6.701 1.71105 0
M  V30 19221 H 3142.8 7.03638 4.13219 0
M  V30 19222 H 3145.45 4.59852 3.53955 0
M  V30 19223 H 3145.73 6.88995 1.59871 0
M  V30 19224 H 3146.73 6.46749 3.03687 0
M  V30 19225 H 3144.89 8.46908 3.20714 0
M  V30 19226 H 3144.82 6.06349 0.206238 0
M  V30 19227 H 3144.92 4.73163 -1.86796 0
M  V30 19228 H 3145.31 1.05099 -1.72271 0
M  V30 19229 H 3145.11 2.48716 -2.76361 0
M  V30 19230 P 3146.76 7.20834 5.23717 0
M  V30 19231 O 3146.98 7.79853 6.57286 0
M  V30 19232 O 3147.55 7.79239 4.12957 0
M  V30 19233 O 3147.01 5.63315 5.29344 0
M  V30 19234 C 3146.07 4.80255 6.01876 0
M  V30 19235 C 3146.8 3.64202 6.65911 0
M  V30 19236 O 3147.01 2.60694 5.64732 0
M  V30 19237 C 3148.2 3.93473 7.1943 0
M  V30 19238 O 3148.59 3.02071 8.21205 0
M  V30 19239 C 3149.08 3.73047 5.97036 0
M  V30 19240 C 3148.37 2.58828 5.25741 0
M  V30 19241 N 3148.42 2.68068 3.77503 0
M  V30 19242 H 3145.58 5.40332 6.79951 0
M  V30 19243 H 3145.31 4.41613 5.32378 0
M  V30 19244 H 3146.18 3.26331 7.47797 0
M  V30 19245 P 3150.14 2.75334 8.47391 0
M  V30 19246 O 3150.36 2.44571 9.90142 0
M  V30 19247 O 3150.93 3.87688 7.92115 0
M  V30 19248 O 3150.39 1.4459 7.59357 0
M  V30 19249 C 3149.45 0.347608 7.69215 0
M  V30 19250 C 3150.18 -0.96767 7.52806 0
M  V30 19251 O 3150.39 -1.21036 6.1011 0
M  V30 19252 C 3151.58 -1.04544 8.13308 0
M  V30 19253 O 3151.97 -2.38311 8.41922 0
M  V30 19254 C 3152.46 -0.491279 7.02284 0
M  V30 19255 C 3151.75 -0.996264 5.77469 0
M  V30 19256 N 3151.8 -0.0501916 4.62973 0
M  V30 19257 H 3148.96 0.374722 8.67691 0
M  V30 19258 H 3148.69 0.443485 6.90277 0
M  V30 19259 H 3149.56 -1.75537 7.96793 0
M  V30 19260 P 3153.52 -2.75334 8.47391 0
M  V30 19261 O 3153.74 -3.84166 9.4489 0
M  V30 19262 O 3154.31 -1.51964 8.6881 0
M  V30 19263 O 3153.77 -3.29363 6.99321 0
M  V30 19264 C 3152.83 -4.23956 6.42656 0
M  V30 19265 C 3153.56 -5.20775 5.52155 0
M  V30 19266 O 3153.77 -4.56534 4.22446 0
M  V30 19267 C 3154.96 -5.62629 5.96531 0
M  V30 19268 O 3155.35 -6.87667 5.41053 0
M  V30 19269 C 3155.84 -4.52537 5.39283 0
M  V30 19270 C 3155.13 -4.20027 4.08623 0
M  V30 19271 N 3155.18 -2.7613 3.71522 0
M  V30 19272 C 3155.33 -2.45612 2.37989 0
M  V30 19273 O 3155.42 -3.30919 1.51621 0
M  V30 19274 N 3155.37 -1.10684 2.08435 0
M  V30 19275 C 3155.28 -0.0690084 2.9792 0
M  V30 19276 O 3155.33 1.10553 2.59426 0
M  V30 19277 C 3155.13 -0.481522 4.35345 0
M  V30 19278 C 3155.02 0.618778 5.36443 0
M  V30 19279 C 3155.08 -1.78906 4.67968 0
M  V30 19280 H 3152.34 -4.797 7.24003 0
M  V30 19281 H 3152.07 -3.69802 5.84429 0
M  V30 19282 H 3152.94 -6.10356 5.41441 0
M  V30 19283 H 3155.59 -4.78651 3.27911 0
M  V30 19284 H 3155.87 -3.64957 6.05871 0
M  V30 19285 H 3156.87 -4.8868 5.2125 0
M  V30 19286 H 3155.03 -5.66726 7.06352 0
M  V30 19287 H 3154.96 -2.07737 5.72367 0
M  V30 19288 H 3155.99 0.754375 5.86871 0
M  V30 19289 H 3154.25 0.359721 6.10641 0
M  V30 19290 H 3154.74 1.55533 4.8581 0
M  V30 19291 H 3155.48 -0.862651 1.12037 0
M  V30 19292 P 3156.9 -7.20834 5.23717 0
M  V30 19293 O 3157.12 -8.66104 5.38572 0
M  V30 19294 O 3157.69 -6.33544 6.1349 0
M  V30 19295 O 3157.15 -6.7751 3.72168 0
M  V30 19296 C 3156.21 -7.20825 2.7076 0
M  V30 19297 C 3156.94 -7.45864 1.40599 0
M  V30 19298 O 3157.15 -6.17651 0.734225 0
M  V30 19299 C 3158.34 -8.05808 1.51899 0
M  V30 19300 O 3158.73 -8.74358 0.335205 0
M  V30 19301 C 3159.22 -6.83093 1.70294 0
M  V30 19302 C 3158.51 -5.79992 0.836974 0
M  V30 19303 N 3158.56 -4.41864 1.38293 0
M  V30 19304 H 3155.72 -8.13644 3.0377 0
M  V30 19305 H 3155.45 -6.42788 2.55485 0
M  V30 19306 H 3156.32 -8.12039 0.792769 0
M  V30 19307 P 3160.28 -8.91 1.06089e-10 0
M  V30 19308 O 3160.5 -10.1736 -0.733766 0
M  V30 19309 O 3161.07 -8.73247 1.2395 0
M  V30 19310 O 3160.53 -7.66872 -0.971405 0
M  V30 19311 C 3159.59 -7.42212 -2.04614 0
M  V30 19312 C 3160.32 -6.86059 -3.24661 0
M  V30 19313 O 3160.53 -5.42847 -3.03646 0
M  V30 19314 C 3161.72 -7.41196 -3.50753 0
M  V30 19315 O 3162.11 -7.27073 -4.86816 0
M  V30 19316 C 3162.6 -6.5273 -2.63741 0
M  V30 19317 C 3161.89 -5.1842 -2.73198 0
M  V30 19318 N 3161.94 -4.38668 -1.47808 0
M  V30 19319 C 3162.09 -3.02239 -1.60048 0
M  V30 19320 O 3162.18 -2.46459 -2.67869 0
M  V30 19321 N 3162.13 -2.32436 -0.408571 0
M  V30 19322 C 3162.04 -2.85471 0.854993 0
M  V30 19323 O 3162.09 -2.12566 1.8531 0
M  V30 19324 C 3161.89 -4.28918 0.887335 0
M  V30 19325 C 3161.78 -4.91066 2.24619 0
M  V30 19326 C 3161.84 -5.00349 -0.255399 0
M  V30 19327 H 3159.1 -8.36803 -2.32493 0
M  V30 19328 H 3158.83 -6.701 -1.71105 0
M  V30 19329 H 3159.7 -7.03551 -4.13168 0
M  V30 19330 H 3162.35 -4.59773 -3.53894 0
M  V30 19331 H 3162.63 -6.88995 -1.59871 0
M  V30 19332 H 3163.63 -6.46749 -3.03687 0
M  V30 19333 H 3161.79 -8.46908 -3.20714 0
M  V30 19334 H 3161.72 -6.08548 -0.206986 0
M  V30 19335 H 3162.75 -5.34836 2.53099 0
M  V30 19336 H 3161.01 -5.69638 2.2291 0
M  V30 19337 H 3161.5 -4.13971 2.98044 0
M  V30 19338 H 3162.24 -1.33211 -0.474216 0
M  V30 19339 P 3163.66 -7.20834 -5.23717 0
M  V30 19340 O 3163.88 -7.79853 -6.57286 0
M  V30 19341 O 3164.45 -7.79239 -4.12957 0
M  V30 19342 O 3163.91 -5.63315 -5.29344 0
M  V30 19343 C 3162.97 -4.80255 -6.01876 0
M  V30 19344 C 3163.7 -3.64202 -6.65911 0
M  V30 19345 O 3163.91 -2.60694 -5.64732 0
M  V30 19346 C 3165.1 -3.93473 -7.1943 0
M  V30 19347 O 3165.49 -3.02071 -8.21205 0
M  V30 19348 C 3165.98 -3.73047 -5.97036 0
M  V30 19349 C 3165.27 -2.58828 -5.25741 0
M  V30 19350 N 3165.32 -2.68068 -3.77503 0
M  V30 19351 H 3162.48 -5.40332 -6.79951 0
M  V30 19352 H 3162.21 -4.41613 -5.32378 0
M  V30 19353 H 3163.08 -3.26331 -7.47797 0
M  V30 19354 P 3167.04 -2.75334 -8.47391 0
M  V30 19355 O 3167.26 -2.44571 -9.90142 0
M  V30 19356 O 3167.83 -3.87688 -7.92115 0
M  V30 19357 O 3167.29 -1.4459 -7.59357 0
M  V30 19358 C 3166.35 -0.347608 -7.69215 0
M  V30 19359 C 3167.08 0.96767 -7.52806 0
M  V30 19360 O 3167.29 1.21036 -6.1011 0
M  V30 19361 C 3168.48 1.04544 -8.13308 0
M  V30 19362 O 3168.87 2.38311 -8.41922 0
M  V30 19363 C 3169.36 0.491279 -7.02284 0
M  V30 19364 C 3168.65 0.996264 -5.77469 0
M  V30 19365 N 3168.7 0.0501916 -4.62973 0
M  V30 19366 H 3165.86 -0.374722 -8.67691 0
M  V30 19367 H 3165.59 -0.443485 -6.90277 0
M  V30 19368 H 3166.46 1.75537 -7.96793 0
M  V30 19369 P 3170.42 2.75334 -8.47391 0
M  V30 19370 O 3170.64 3.84128 -9.44797 0
M  V30 19371 O 3171.21 1.51947 -8.68712 0
M  V30 19372 O 3170.67 3.29363 -6.99321 0
M  V30 19373 C 3169.73 4.24011 -6.4274 0
M  V30 19374 C 3170.46 5.20775 -5.52155 0
M  V30 19375 O 3170.67 4.56534 -4.22446 0
M  V30 19376 C 3171.86 5.62629 -5.96531 0
M  V30 19377 O 3172.25 6.87667 -5.41053 0
M  V30 19378 C 3172.74 4.52537 -5.39283 0
M  V30 19379 C 3172.03 4.20027 -4.08623 0
M  V30 19380 N 3172.08 2.76189 -3.71603 0
M  V30 19381 H 3169.24 4.797 -7.24003 0
M  V30 19382 H 3168.97 3.69856 -5.84513 0
M  V30 19383 H 3169.84 6.10356 -5.41441 0
M  V30 19384 P 3173.8 7.20834 -5.23717 0
M  V30 19385 O 3174.02 8.66104 -5.38572 0
M  V30 19386 O 3174.59 6.33544 -6.1349 0
M  V30 19387 O 3174.05 6.7751 -3.72168 0
M  V30 19388 C 3173.11 7.20825 -2.7076 0
M  V30 19389 C 3173.84 7.45864 -1.40599 0
M  V30 19390 O 3174.05 6.17651 -0.734225 0
M  V30 19391 C 3175.24 8.05808 -1.51899 0
M  V30 19392 O 3175.63 8.74358 -0.335205 0
M  V30 19393 C 3176.12 6.83093 -1.70294 0
M  V30 19394 C 3175.41 5.79992 -0.836974 0
M  V30 19395 N 3175.46 4.41864 -1.38293 0
M  V30 19396 H 3172.62 8.13644 -3.0377 0
M  V30 19397 H 3172.35 6.42788 -2.55485 0
M  V30 19398 H 3173.22 8.12039 -0.792769 0
M  V30 19399 P 3177.18 8.91 -1.07198e-10 0
M  V30 19400 O 3177.4 10.1726 0.733694 0
M  V30 19401 O 3177.97 8.73148 -1.23936 0
M  V30 19402 O 3177.43 7.66872 0.971405 0
M  V30 19403 C 3176.49 7.42309 2.04641 0
M  V30 19404 C 3177.22 6.86059 3.24661 0
M  V30 19405 O 3177.43 5.42847 3.03646 0
M  V30 19406 C 3178.62 7.41196 3.50753 0
M  V30 19407 O 3179.01 7.27073 4.86816 0
M  V30 19408 C 3179.5 6.5273 2.63741 0
M  V30 19409 C 3178.79 5.1842 2.73198 0
M  V30 19410 N 3178.84 4.38762 1.4784 0
M  V30 19411 H 3176 8.36803 2.32493 0
M  V30 19412 H 3175.73 6.70197 1.71129 0
M  V30 19413 H 3176.6 7.03551 4.13168 0
M  V30 19414 P 3180.56 7.20834 5.23717 0
M  V30 19415 O 3180.78 7.80006 6.57415 0
M  V30 19416 O 3181.35 7.79416 4.13051 0
M  V30 19417 O 3180.81 5.63315 5.29344 0
M  V30 19418 C 3179.87 4.80318 6.01954 0
M  V30 19419 C 3180.6 3.64202 6.65911 0
M  V30 19420 O 3180.81 2.60736 5.64823 0
M  V30 19421 C 3182 3.93521 7.19518 0
M  V30 19422 O 3182.39 3.02071 8.21205 0
M  V30 19423 C 3182.88 3.73047 5.97036 0
M  V30 19424 C 3182.17 2.58828 5.25741 0
M  V30 19425 N 3182.22 2.68068 3.77503 0
M  V30 19426 C 3182.14 3.80474 2.99159 0
M  V30 19427 N 3182.21 3.55622 1.71925 0
M  V30 19428 C 3182.36 2.1832 1.65733 0
M  V30 19429 C 3182.49 1.28842 0.572777 0
M  V30 19430 N 3182.5 1.66875 -0.70098 0
M  V30 19431 N 3182.61 -0.016788 0.859836 0
M  V30 19432 C 3182.6 -0.398145 2.13316 0
M  V30 19433 N 3182.48 0.328224 3.22333 0
M  V30 19434 C 3182.36 1.62992 2.90383 0
M  V30 19435 H 3179.38 5.40394 6.8003 0
M  V30 19436 H 3179.11 4.41741 5.32532 0
M  V30 19437 H 3179.98 3.26371 7.47889 0
M  V30 19438 H 3182.63 1.64007 5.56746 0
M  V30 19439 H 3182.91 4.63439 5.3432 0
M  V30 19440 H 3183.91 3.44776 6.25925 0
M  V30 19441 H 3182.07 4.96707 7.57347 0
M  V30 19442 H 3182.03 4.8089 3.39924 0
M  V30 19443 H 3182.41 2.66547 -0.941919 0
M  V30 19444 H 3182.6 0.965341 -1.44766 0
M  V30 19445 H 3182.71 -1.46427 2.29697 0
M  V30 19446 P 3183.94 2.75334 8.47391 0
M  V30 19447 O 3184.16 2.44571 9.90142 0
M  V30 19448 O 3184.73 3.87688 7.92115 0
M  V30 19449 O 3184.19 1.4459 7.59357 0
M  V30 19450 C 3183.25 0.347608 7.69215 0
M  V30 19451 C 3183.98 -0.96767 7.52806 0
M  V30 19452 O 3184.19 -1.21036 6.1011 0
M  V30 19453 C 3185.38 -1.04544 8.13308 0
M  V30 19454 O 3185.77 -2.38311 8.41922 0
M  V30 19455 C 3186.26 -0.491279 7.02284 0
M  V30 19456 C 3185.55 -0.996264 5.77469 0
M  V30 19457 N 3185.6 -0.0501916 4.62973 0
M  V30 19458 H 3182.76 0.374722 8.67691 0
M  V30 19459 H 3182.49 0.443485 6.90277 0
M  V30 19460 H 3183.36 -1.75537 7.96793 0
M  V30 19461 P 3187.32 -2.75334 8.47391 0
M  V30 19462 O 3187.54 -3.84128 9.44797 0
M  V30 19463 O 3188.11 -1.51947 8.68712 0
M  V30 19464 O 3187.57 -3.29363 6.99321 0
M  V30 19465 C 3186.63 -4.24011 6.4274 0
M  V30 19466 C 3187.36 -5.20775 5.52155 0
M  V30 19467 O 3187.57 -4.56534 4.22446 0
M  V30 19468 C 3188.76 -5.62629 5.96531 0
M  V30 19469 O 3189.15 -6.87667 5.41053 0
M  V30 19470 C 3189.64 -4.52537 5.39283 0
M  V30 19471 C 3188.93 -4.20027 4.08623 0
M  V30 19472 N 3188.98 -2.76189 3.71603 0
M  V30 19473 H 3186.14 -4.797 7.24003 0
M  V30 19474 H 3185.87 -3.69856 5.84513 0
M  V30 19475 H 3186.74 -6.10356 5.41441 0
M  V30 19476 P 3190.7 -7.20834 5.23717 0
M  V30 19477 O 3190.92 -8.66104 5.38572 0
M  V30 19478 O 3191.49 -6.33544 6.1349 0
M  V30 19479 O 3190.95 -6.7751 3.72168 0
M  V30 19480 C 3190.01 -7.20825 2.7076 0
M  V30 19481 C 3190.74 -7.45864 1.40599 0
M  V30 19482 O 3190.95 -6.17651 0.734225 0
M  V30 19483 C 3192.14 -8.05808 1.51899 0
M  V30 19484 O 3192.53 -8.74358 0.335205 0
M  V30 19485 C 3193.02 -6.83093 1.70294 0
M  V30 19486 C 3192.31 -5.79992 0.836974 0
M  V30 19487 N 3192.36 -4.41864 1.38293 0
M  V30 19488 H 3189.52 -8.13644 3.0377 0
M  V30 19489 H 3189.25 -6.42788 2.55485 0
M  V30 19490 H 3190.12 -8.12039 0.792769 0
M  V30 19491 P 3194.08 -8.91 1.08307e-10 0
M  V30 19492 O 3194.3 -10.1736 -0.733766 0
M  V30 19493 O 3194.87 -8.73247 1.2395 0
M  V30 19494 O 3194.33 -7.66872 -0.971405 0
M  V30 19495 C 3193.39 -7.42212 -2.04614 0
M  V30 19496 C 3194.12 -6.86059 -3.24661 0
M  V30 19497 O 3194.33 -5.42847 -3.03646 0
M  V30 19498 C 3195.52 -7.41196 -3.50753 0
M  V30 19499 O 3195.91 -7.27073 -4.86816 0
M  V30 19500 C 3196.4 -6.5273 -2.63741 0
M  V30 19501 C 3195.69 -5.1842 -2.73198 0
M  V30 19502 N 3195.74 -4.38668 -1.47808 0
M  V30 19503 C 3195.89 -3.02239 -1.60048 0
M  V30 19504 O 3195.98 -2.46459 -2.67869 0
M  V30 19505 N 3195.93 -2.32436 -0.408571 0
M  V30 19506 C 3195.84 -2.85471 0.854993 0
M  V30 19507 C 3195.69 -4.28918 0.887335 0
M  V30 19508 C 3195.64 -5.00349 -0.255399 0
M  V30 19509 H 3192.9 -8.36803 -2.32493 0
M  V30 19510 H 3192.63 -6.701 -1.71105 0
M  V30 19511 H 3193.5 -7.03551 -4.13168 0
M  V30 19512 H 3196.15 -4.59773 -3.53894 0
M  V30 19513 H 3196.43 -6.88995 -1.59871 0
M  V30 19514 H 3197.43 -6.46749 -3.03687 0
M  V30 19515 H 3195.59 -8.46908 -3.20714 0
M  V30 19516 H 3195.52 -6.08548 -0.206986 0
M  V30 19517 P 3197.46 -7.20834 -5.23717 0
M  V30 19518 O 3197.68 -7.79853 -6.57286 0
M  V30 19519 O 3198.25 -7.79239 -4.12957 0
M  V30 19520 O 3197.71 -5.63315 -5.29344 0
M  V30 19521 C 3196.77 -4.80255 -6.01876 0
M  V30 19522 C 3197.5 -3.64202 -6.65911 0
M  V30 19523 O 3197.71 -2.60694 -5.64732 0
M  V30 19524 C 3198.9 -3.93473 -7.1943 0
M  V30 19525 O 3199.29 -3.02071 -8.21205 0
M  V30 19526 C 3199.78 -3.73047 -5.97036 0
M  V30 19527 C 3199.07 -2.58828 -5.25741 0
M  V30 19528 N 3199.12 -2.68068 -3.77503 0
M  V30 19529 H 3196.28 -5.40332 -6.79951 0
M  V30 19530 H 3196.01 -4.41613 -5.32378 0
M  V30 19531 H 3196.88 -3.26331 -7.47797 0
M  V30 19532 P 3200.84 -2.75334 -8.47391 0
M  V30 19533 O 3201.06 -2.44571 -9.90142 0
M  V30 19534 O 3201.63 -3.87688 -7.92115 0
M  V30 19535 O 3201.09 -1.4459 -7.59357 0
M  V30 19536 C 3200.15 -0.347608 -7.69215 0
M  V30 19537 C 3200.88 0.96767 -7.52806 0
M  V30 19538 O 3201.09 1.21036 -6.1011 0
M  V30 19539 C 3202.28 1.04544 -8.13308 0
M  V30 19540 O 3202.67 2.38311 -8.41922 0
M  V30 19541 C 3203.16 0.491279 -7.02284 0
M  V30 19542 C 3202.45 0.996264 -5.77469 0
M  V30 19543 N 3202.5 0.0501916 -4.62973 0
M  V30 19544 C 3202.42 -1.32786 -4.63244 0
M  V30 19545 N 3202.5 -1.86957 -3.44545 0
M  V30 19546 C 3202.64 -0.780241 -2.58481 0
M  V30 19547 C 3202.77 -0.738536 -1.17757 0
M  V30 19548 O 3202.79 -1.66794 -0.372349 0
M  V30 19549 N 3202.89 0.58337 -0.711393 0
M  V30 19550 C 3202.89 1.70816 -1.51017 0
M  V30 19551 N 3203.02 2.87826 -0.880757 0
M  V30 19552 N 3202.76 1.67126 -2.8339 0
M  V30 19553 C 3202.64 0.401421 -3.30572 0
M  V30 19554 H 3199.66 -0.374722 -8.67691 0
M  V30 19555 H 3199.39 -0.443485 -6.90277 0
M  V30 19556 H 3200.26 1.75537 -7.96793 0
M  V30 19557 H 3202.91 1.95076 -5.46529 0
M  V30 19558 H 3203.19 -0.608565 -7.04577 0
M  V30 19559 H 3204.19 0.889672 -7.08939 0
M  V30 19560 H 3202.35 0.43308 -9.04564 0
M  V30 19561 H 3202.3 -1.91249 -5.54442 0
M  V30 19562 H 3202.98 0.718054 0.275244 0
M  V30 19563 H 3203.02 3.75721 -1.41832 0
M  V30 19564 H 3203.12 2.90436 0.145468 0
M  V30 19565 P 3204.22 2.75334 -8.47391 0
M  V30 19566 O 3204.44 3.84128 -9.44797 0
M  V30 19567 O 3205.01 1.51947 -8.68712 0
M  V30 19568 O 3204.47 3.29363 -6.99321 0
M  V30 19569 C 3203.53 4.24011 -6.4274 0
M  V30 19570 C 3204.26 5.20775 -5.52155 0
M  V30 19571 O 3204.47 4.56534 -4.22446 0
M  V30 19572 C 3205.66 5.62629 -5.96531 0
M  V30 19573 O 3206.05 6.87667 -5.41053 0
M  V30 19574 C 3206.54 4.52537 -5.39283 0
M  V30 19575 C 3205.83 4.20027 -4.08623 0
M  V30 19576 N 3205.88 2.76189 -3.71603 0
M  V30 19577 H 3203.04 4.797 -7.24003 0
M  V30 19578 H 3202.77 3.69856 -5.84513 0
M  V30 19579 H 3203.64 6.10356 -5.41441 0
M  V30 19580 P 3207.6 7.20834 -5.23717 0
M  V30 19581 O 3207.82 8.66104 -5.38572 0
M  V30 19582 O 3208.39 6.33544 -6.1349 0
M  V30 19583 O 3207.85 6.7751 -3.72168 0
M  V30 19584 C 3206.91 7.20825 -2.7076 0
M  V30 19585 C 3207.64 7.45864 -1.40599 0
M  V30 19586 O 3207.85 6.17651 -0.734225 0
M  V30 19587 C 3209.04 8.05808 -1.51899 0
M  V30 19588 O 3209.43 8.74358 -0.335205 0
M  V30 19589 C 3209.92 6.83093 -1.70294 0
M  V30 19590 C 3209.21 5.79992 -0.836974 0
M  V30 19591 N 3209.26 4.41864 -1.38293 0
M  V30 19592 H 3206.42 8.13644 -3.0377 0
M  V30 19593 H 3206.15 6.42788 -2.55485 0
M  V30 19594 H 3207.02 8.12039 -0.792769 0
M  V30 19595 P 3210.98 8.91 -1.09416e-10 0
M  V30 19596 O 3211.2 10.1736 0.733766 0
M  V30 19597 O 3211.77 8.73247 -1.2395 0
M  V30 19598 O 3211.23 7.66872 0.971405 0
M  V30 19599 C 3210.29 7.42309 2.04641 0
M  V30 19600 C 3211.02 6.86059 3.24661 0
M  V30 19601 O 3211.23 5.42847 3.03646 0
M  V30 19602 C 3212.42 7.41196 3.50753 0
M  V30 19603 O 3212.81 7.27073 4.86816 0
M  V30 19604 C 3213.3 6.5273 2.63741 0
M  V30 19605 C 3212.59 5.1842 2.73198 0
M  V30 19606 N 3212.64 4.38668 1.47808 0
M  V30 19607 C 3212.79 3.00789 1.58511 0
M  V30 19608 O 3212.88 2.50116 2.71298 0
M  V30 19609 N 3212.84 2.29703 0.253698 0
M  V30 19610 C 3212.74 2.84269 -0.750133 0
M  V30 19611 N 3212.79 2.06951 -1.82612 0
M  V30 19612 C 3212.59 4.25803 -0.889776 0
M  V30 19613 C 3212.54 4.98326 0.259363 0
M  V30 19614 H 3209.8 8.36707 2.32466 0
M  V30 19615 H 3209.53 6.701 1.71105 0
M  V30 19616 H 3210.4 7.03638 4.13219 0
M  V30 19617 H 3213.05 4.59852 3.53955 0
M  V30 19618 H 3213.33 6.88995 1.59871 0
M  V30 19619 H 3214.33 6.46749 3.03687 0
M  V30 19620 H 3212.49 8.46908 3.20714 0
M  V30 19621 H 3212.42 6.06349 0.206238 0
M  V30 19622 H 3212.52 4.73163 -1.86796 0
M  V30 19623 H 3212.91 1.05099 -1.72271 0
M  V30 19624 H 3212.71 2.48716 -2.76361 0
M  V30 19625 P 3214.36 7.20834 5.23717 0
M  V30 19626 O 3214.58 7.79853 6.57286 0
M  V30 19627 O 3215.15 7.79239 4.12957 0
M  V30 19628 O 3214.61 5.63315 5.29344 0
M  V30 19629 C 3213.67 4.80255 6.01876 0
M  V30 19630 C 3214.4 3.64202 6.65911 0
M  V30 19631 O 3214.61 2.60694 5.64732 0
M  V30 19632 C 3215.8 3.93473 7.1943 0
M  V30 19633 O 3216.19 3.02071 8.21205 0
M  V30 19634 C 3216.68 3.73047 5.97036 0
M  V30 19635 C 3215.97 2.58828 5.25741 0
M  V30 19636 N 3216.02 2.68068 3.77503 0
M  V30 19637 C 3215.94 3.79715 2.96723 0
M  V30 19638 N 3216.02 3.5377 1.68852 0
M  V30 19639 C 3216.16 2.15054 1.63254 0
M  V30 19640 C 3216.29 1.28964 0.518571 0
M  V30 19641 O 3216.31 1.56826 -0.679156 0
M  V30 19642 N 3216.41 -0.0538097 0.918425 0
M  V30 19643 C 3216.41 -0.494275 2.22578 0
M  V30 19644 N 3216.54 -1.81086 2.40434 0
M  V30 19645 N 3216.28 0.313645 3.27502 0
M  V30 19646 C 3216.16 1.61829 2.91033 0
M  V30 19647 H 3213.18 5.40332 6.79951 0
M  V30 19648 H 3212.91 4.41613 5.32378 0
M  V30 19649 H 3213.78 3.26331 7.47797 0
M  V30 19650 H 3216.43 1.63422 5.56814 0
M  V30 19651 H 3216.71 4.63374 5.34244 0
M  V30 19652 H 3217.7 3.44728 6.25838 0
M  V30 19653 H 3215.87 4.96652 7.57263 0
M  V30 19654 H 3215.82 4.80617 3.3614 0
M  V30 19655 H 3216.5 -0.742702 0.199384 0
M  V30 19656 H 3216.54 -2.20598 3.35588 0
M  V30 19657 H 3216.64 -2.43518 1.58945 0
M  V30 19658 P 3217.74 2.75334 8.47391 0
M  V30 19659 O 3217.96 2.44571 9.90142 0
M  V30 19660 O 3218.53 3.87688 7.92115 0
M  V30 19661 O 3217.99 1.4459 7.59357 0
M  V30 19662 C 3217.05 0.347608 7.69215 0
M  V30 19663 C 3217.78 -0.96767 7.52806 0
M  V30 19664 O 3217.99 -1.21036 6.1011 0
M  V30 19665 C 3219.18 -1.04544 8.13308 0
M  V30 19666 O 3219.57 -2.38311 8.41922 0
M  V30 19667 C 3220.06 -0.491279 7.02284 0
M  V30 19668 C 3219.35 -0.996264 5.77469 0
M  V30 19669 N 3219.4 -0.0501916 4.62973 0
M  V30 19670 C 3219.32 1.32786 4.63244 0
M  V30 19671 N 3219.4 1.86957 3.44545 0
M  V30 19672 C 3219.54 0.780241 2.58481 0
M  V30 19673 C 3219.67 0.738536 1.17757 0
M  V30 19674 O 3219.69 1.66794 0.372349 0
M  V30 19675 N 3219.79 -0.58337 0.711393 0
M  V30 19676 C 3219.79 -1.70816 1.51017 0
M  V30 19677 N 3219.92 -2.87826 0.880757 0
M  V30 19678 N 3219.66 -1.67126 2.8339 0
M  V30 19679 C 3219.54 -0.401421 3.30572 0
M  V30 19680 H 3216.56 0.374722 8.67691 0
M  V30 19681 H 3216.29 0.443485 6.90277 0
M  V30 19682 H 3217.16 -1.75537 7.96793 0
M  V30 19683 H 3219.81 -1.95076 5.46529 0
M  V30 19684 H 3220.09 0.608565 7.04577 0
M  V30 19685 H 3221.08 -0.889672 7.08939 0
M  V30 19686 H 3219.25 -0.43308 9.04564 0
M  V30 19687 H 3219.2 1.91249 5.54442 0
M  V30 19688 H 3219.88 -0.718054 -0.275244 0
M  V30 19689 H 3219.92 -3.75721 1.41832 0
M  V30 19690 H 3220.02 -2.90436 -0.145468 0
M  V30 19691 P 3221.12 -2.75334 8.47391 0
M  V30 19692 O 3221.34 -3.84128 9.44797 0
M  V30 19693 O 3221.91 -1.51947 8.68712 0
M  V30 19694 O 3221.37 -3.29363 6.99321 0
M  V30 19695 C 3220.43 -4.24011 6.4274 0
M  V30 19696 C 3221.16 -5.20775 5.52155 0
M  V30 19697 O 3221.37 -4.56534 4.22446 0
M  V30 19698 C 3222.56 -5.62629 5.96531 0
M  V30 19699 O 3222.95 -6.87667 5.41053 0
M  V30 19700 C 3223.44 -4.52537 5.39283 0
M  V30 19701 C 3222.73 -4.20027 4.08623 0
M  V30 19702 N 3222.78 -2.76189 3.71603 0
M  V30 19703 H 3219.94 -4.797 7.24003 0
M  V30 19704 H 3219.67 -3.69856 5.84513 0
M  V30 19705 H 3220.54 -6.10356 5.41441 0
M  V30 19706 P 3224.5 -7.20834 5.23717 0
M  V30 19707 O 3224.72 -8.66274 5.38678 0
M  V30 19708 O 3225.29 -6.33687 6.13629 0
M  V30 19709 O 3224.75 -6.7751 3.72168 0
M  V30 19710 C 3223.81 -7.20919 2.70795 0
M  V30 19711 C 3224.54 -7.45864 1.40599 0
M  V30 19712 O 3224.75 -6.17751 0.734343 0
M  V30 19713 C 3225.94 -8.05906 1.51917 0
M  V30 19714 O 3226.33 -8.74358 0.335205 0
M  V30 19715 C 3226.82 -6.83093 1.70294 0
M  V30 19716 C 3226.11 -5.79992 0.836974 0
M  V30 19717 N 3226.16 -4.41864 1.38293 0
M  V30 19718 H 3223.32 -8.13738 3.03804 0
M  V30 19719 H 3223.05 -6.42974 2.55559 0
M  V30 19720 H 3223.92 -8.12139 0.792866 0
M  V30 19721 H 3226.57 -5.80178 -0.160643 0
M  V30 19722 H 3226.85 -6.51379 2.75643 0
M  V30 19723 H 3227.84 -7.01832 1.3448 0
M  V30 19724 H 3226.01 -8.73771 2.38364 0
M  V30 19725 P 3227.88 -8.91 1.10525e-10 0
M  V30 19726 O 3228.1 -10.1726 -0.733694 0
M  V30 19727 O 3228.67 -8.73148 1.23936 0
M  V30 19728 O 3228.13 -7.66872 -0.971405 0
M  V30 19729 C 3227.19 -7.42309 -2.04641 0
M  V30 19730 C 3227.92 -6.86059 -3.24661 0
M  V30 19731 O 3228.13 -5.42847 -3.03646 0
M  V30 19732 C 3229.32 -7.41196 -3.50753 0
M  V30 19733 O 3229.71 -7.27073 -4.86816 0
M  V30 19734 C 3230.2 -6.5273 -2.63741 0
M  V30 19735 C 3229.49 -5.1842 -2.73198 0
M  V30 19736 N 3229.54 -4.38762 -1.4784 0
M  V30 19737 H 3226.7 -8.36803 -2.32493 0
M  V30 19738 H 3226.43 -6.70197 -1.71129 0
M  V30 19739 H 3227.3 -7.03551 -4.13168 0
M  V30 19740 P 3231.26 -7.20834 -5.23717 0
M  V30 19741 O 3231.48 -7.79853 -6.57286 0
M  V30 19742 O 3232.05 -7.79239 -4.12957 0
M  V30 19743 O 3231.51 -5.63315 -5.29344 0
M  V30 19744 C 3230.57 -4.80255 -6.01876 0
M  V30 19745 C 3231.3 -3.64202 -6.65911 0
M  V30 19746 O 3231.51 -2.60694 -5.64732 0
M  V30 19747 C 3232.7 -3.93473 -7.1943 0
M  V30 19748 O 3233.09 -3.02071 -8.21205 0
M  V30 19749 C 3233.58 -3.73047 -5.97036 0
M  V30 19750 C 3232.87 -2.58828 -5.25741 0
M  V30 19751 N 3232.92 -2.68068 -3.77503 0
M  V30 19752 H 3230.08 -5.40332 -6.79951 0
M  V30 19753 H 3229.81 -4.41613 -5.32378 0
M  V30 19754 H 3230.68 -3.26331 -7.47797 0
M  V30 19755 P 3234.64 -2.75334 -8.47391 0
M  V30 19756 O 3234.86 -2.44571 -9.90142 0
M  V30 19757 O 3235.43 -3.87688 -7.92115 0
M  V30 19758 O 3234.89 -1.4459 -7.59357 0
M  V30 19759 C 3233.95 -0.347608 -7.69215 0
M  V30 19760 C 3234.68 0.96767 -7.52806 0
M  V30 19761 O 3234.89 1.21036 -6.1011 0
M  V30 19762 C 3236.08 1.04544 -8.13308 0
M  V30 19763 O 3236.47 2.38311 -8.41922 0
M  V30 19764 C 3236.96 0.491279 -7.02284 0
M  V30 19765 C 3236.25 0.996264 -5.77469 0
M  V30 19766 N 3236.3 0.0501916 -4.62973 0
M  V30 19767 H 3233.46 -0.374722 -8.67691 0
M  V30 19768 H 3233.19 -0.443485 -6.90277 0
M  V30 19769 H 3234.06 1.75537 -7.96793 0
M  V30 19770 P 3238.02 2.75334 -8.47391 0
M  V30 19771 O 3238.24 3.84128 -9.44797 0
M  V30 19772 O 3238.81 1.51947 -8.68712 0
M  V30 19773 O 3238.27 3.29363 -6.99321 0
M  V30 19774 C 3237.33 4.24011 -6.4274 0
M  V30 19775 C 3238.06 5.20775 -5.52155 0
M  V30 19776 O 3238.27 4.56534 -4.22446 0
M  V30 19777 C 3239.46 5.62629 -5.96531 0
M  V30 19778 O 3239.85 6.87667 -5.41053 0
M  V30 19779 C 3240.34 4.52537 -5.39283 0
M  V30 19780 C 3239.63 4.20027 -4.08623 0
M  V30 19781 N 3239.68 2.76189 -3.71603 0
M  V30 19782 C 3239.6 1.64862 -4.52822 0
M  V30 19783 N 3239.68 0.512671 -3.88633 0
M  V30 19784 C 3239.82 0.888083 -2.54977 0
M  V30 19785 C 3239.95 0.094668 -1.38677 0
M  V30 19786 O 3239.97 -1.13053 -1.28163 0
M  V30 19787 N 3240.07 0.890102 -0.232633 0
M  V30 19788 C 3240.07 2.26958 -0.21772 0
M  V30 19789 N 3240.2 2.84626 0.97925 0
M  V30 19790 N 3239.94 3.0178 -1.31033 0
M  V30 19791 C 3239.82 2.26781 -2.43843 0
M  V30 19792 H 3236.84 4.797 -7.24003 0
M  V30 19793 H 3236.57 3.69856 -5.84513 0
M  V30 19794 H 3237.44 6.10356 -5.41441 0
M  V30 19795 H 3240.09 4.79061 -3.27488 0
M  V30 19796 H 3240.37 3.64906 -6.05785 0
M  V30 19797 H 3241.36 4.8868 -5.2125 0
M  V30 19798 H 3239.53 5.66726 -7.06352 0
M  V30 19799 H 3239.48 1.71169 -5.60966 0
M  V30 19800 H 3240.16 0.419134 0.644739 0
M  V30 19801 H 3240.2 3.87332 1.06098 0
M  V30 19802 H 3240.3 2.26417 1.82483 0
M  V30 19803 P 3241.4 7.20834 -5.23717 0
M  V30 19804 O 3241.62 8.66104 -5.38572 0
M  V30 19805 O 3242.19 6.33544 -6.1349 0
M  V30 19806 O 3241.65 6.7751 -3.72168 0
M  V30 19807 C 3240.71 7.20825 -2.7076 0
M  V30 19808 C 3241.44 7.45864 -1.40599 0
M  V30 19809 O 3241.65 6.17651 -0.734225 0
M  V30 19810 C 3242.84 8.05808 -1.51899 0
M  V30 19811 O 3243.23 8.74358 -0.335205 0
M  V30 19812 C 3243.72 6.83093 -1.70294 0
M  V30 19813 C 3243.01 5.79992 -0.836974 0
M  V30 19814 N 3243.06 4.41864 -1.38293 0
M  V30 19815 H 3240.22 8.13644 -3.0377 0
M  V30 19816 H 3239.95 6.42788 -2.55485 0
M  V30 19817 H 3240.82 8.12039 -0.792769 0
M  V30 19818 P 3244.78 8.91 -1.11634e-10 0
M  V30 19819 O 3245 10.1726 0.733694 0
M  V30 19820 O 3245.57 8.73148 -1.23936 0
M  V30 19821 O 3245.03 7.66872 0.971405 0
M  V30 19822 C 3244.09 7.42309 2.04641 0
M  V30 19823 C 3244.82 6.86059 3.24661 0
M  V30 19824 O 3245.03 5.42847 3.03646 0
M  V30 19825 C 3246.22 7.41196 3.50753 0
M  V30 19826 O 3246.61 7.27073 4.86816 0
M  V30 19827 C 3247.1 6.5273 2.63741 0
M  V30 19828 C 3246.39 5.1842 2.73198 0
M  V30 19829 N 3246.44 4.38762 1.4784 0
M  V30 19830 H 3243.6 8.36803 2.32493 0
M  V30 19831 H 3243.33 6.70197 1.71129 0
M  V30 19832 H 3244.2 7.03551 4.13168 0
M  V30 19833 P 3248.16 7.20834 5.23717 0
M  V30 19834 O 3248.38 7.79853 6.57286 0
M  V30 19835 O 3248.95 7.79239 4.12957 0
M  V30 19836 O 3248.41 5.63315 5.29344 0
M  V30 19837 C 3247.47 4.80255 6.01876 0
M  V30 19838 C 3248.2 3.64202 6.65911 0
M  V30 19839 O 3248.41 2.60694 5.64732 0
M  V30 19840 C 3249.6 3.93473 7.1943 0
M  V30 19841 O 3249.99 3.02071 8.21205 0
M  V30 19842 C 3250.48 3.73047 5.97036 0
M  V30 19843 C 3249.77 2.58828 5.25741 0
M  V30 19844 N 3249.82 2.68068 3.77503 0
M  V30 19845 H 3246.98 5.40332 6.79951 0
M  V30 19846 H 3246.71 4.41613 5.32378 0
M  V30 19847 H 3247.58 3.26331 7.47797 0
M  V30 19848 P 3251.54 2.75334 8.47391 0
M  V30 19849 O 3251.76 2.44571 9.90142 0
M  V30 19850 O 3252.33 3.87688 7.92115 0
M  V30 19851 O 3251.79 1.4459 7.59357 0
M  V30 19852 C 3250.85 0.347608 7.69215 0
M  V30 19853 C 3251.58 -0.96767 7.52806 0
M  V30 19854 O 3251.79 -1.21036 6.1011 0
M  V30 19855 C 3252.98 -1.04544 8.13308 0
M  V30 19856 O 3253.37 -2.38311 8.41922 0
M  V30 19857 C 3253.86 -0.491279 7.02284 0
M  V30 19858 C 3253.15 -0.996264 5.77469 0
M  V30 19859 N 3253.2 -0.0501916 4.62973 0
M  V30 19860 H 3250.36 0.374722 8.67691 0
M  V30 19861 H 3250.09 0.443485 6.90277 0
M  V30 19862 H 3250.96 -1.75537 7.96793 0
M  V30 19863 P 3254.92 -2.75334 8.47391 0
M  V30 19864 O 3255.14 -3.84128 9.44797 0
M  V30 19865 O 3255.71 -1.51947 8.68712 0
M  V30 19866 O 3255.17 -3.29363 6.99321 0
M  V30 19867 C 3254.23 -4.24011 6.4274 0
M  V30 19868 C 3254.96 -5.20775 5.52155 0
M  V30 19869 O 3255.17 -4.56534 4.22446 0
M  V30 19870 C 3256.36 -5.62629 5.96531 0
M  V30 19871 O 3256.75 -6.87667 5.41053 0
M  V30 19872 C 3257.24 -4.52537 5.39283 0
M  V30 19873 C 3256.53 -4.20027 4.08623 0
M  V30 19874 N 3256.58 -2.76189 3.71603 0
M  V30 19875 C 3256.5 -1.64862 4.52822 0
M  V30 19876 N 3256.58 -0.512671 3.88633 0
M  V30 19877 C 3256.72 -0.888083 2.54977 0
M  V30 19878 C 3256.85 -0.094668 1.38677 0
M  V30 19879 N 3256.97 -0.890102 0.232633 0
M  V30 19880 C 3256.97 -2.26958 0.21772 0
M  V30 19881 N 3257.1 -2.84626 -0.97925 0
M  V30 19882 N 3256.84 -3.0178 1.31033 0
M  V30 19883 C 3256.72 -2.26781 2.43843 0
M  V30 19884 H 3253.74 -4.797 7.24003 0
M  V30 19885 H 3253.47 -3.69856 5.84513 0
M  V30 19886 H 3254.34 -6.10356 5.41441 0
M  V30 19887 P 3258.3 -7.20834 5.23717 0
M  V30 19888 O 3258.52 -8.66104 5.38572 0
M  V30 19889 O 3259.09 -6.33544 6.1349 0
M  V30 19890 O 3258.55 -6.7751 3.72168 0
M  V30 19891 C 3257.61 -7.20825 2.7076 0
M  V30 19892 C 3258.34 -7.45864 1.40599 0
M  V30 19893 O 3258.55 -6.17651 0.734225 0
M  V30 19894 C 3259.74 -8.05808 1.51899 0
M  V30 19895 O 3260.13 -8.74358 0.335205 0
M  V30 19896 C 3260.62 -6.83093 1.70294 0
M  V30 19897 C 3259.91 -5.79992 0.836974 0
M  V30 19898 N 3259.96 -4.41864 1.38293 0
M  V30 19899 H 3257.12 -8.13644 3.0377 0
M  V30 19900 H 3256.85 -6.42788 2.55485 0
M  V30 19901 H 3257.72 -8.12039 0.792769 0
M  V30 19902 P 3261.68 -8.91 1.12743e-10 0
M  V30 19903 O 3261.9 -10.1726 -0.733694 0
M  V30 19904 O 3262.47 -8.73148 1.23936 0
M  V30 19905 O 3261.93 -7.66872 -0.971405 0
M  V30 19906 C 3260.99 -7.42309 -2.04641 0
M  V30 19907 C 3261.72 -6.86059 -3.24661 0
M  V30 19908 O 3261.93 -5.42847 -3.03646 0
M  V30 19909 C 3263.12 -7.41196 -3.50753 0
M  V30 19910 O 3263.51 -7.27073 -4.86816 0
M  V30 19911 C 3264 -6.5273 -2.63741 0
M  V30 19912 C 3263.29 -5.1842 -2.73198 0
M  V30 19913 N 3263.34 -4.38762 -1.4784 0
M  V30 19914 H 3260.5 -8.36803 -2.32493 0
M  V30 19915 H 3260.23 -6.70197 -1.71129 0
M  V30 19916 H 3261.1 -7.03551 -4.13168 0
M  V30 19917 P 3265.06 -7.20834 -5.23717 0
M  V30 19918 O 3265.28 -7.79853 -6.57286 0
M  V30 19919 O 3265.85 -7.79239 -4.12957 0
M  V30 19920 O 3265.31 -5.63315 -5.29344 0
M  V30 19921 C 3264.37 -4.80255 -6.01876 0
M  V30 19922 C 3265.1 -3.64202 -6.65911 0
M  V30 19923 O 3265.31 -2.60694 -5.64732 0
M  V30 19924 C 3266.5 -3.93473 -7.1943 0
M  V30 19925 O 3266.89 -3.02071 -8.21205 0
M  V30 19926 C 3267.38 -3.73047 -5.97036 0
M  V30 19927 C 3266.67 -2.58828 -5.25741 0
M  V30 19928 N 3266.72 -2.68068 -3.77503 0
M  V30 19929 H 3263.88 -5.40332 -6.79951 0
M  V30 19930 H 3263.61 -4.41613 -5.32378 0
M  V30 19931 H 3264.48 -3.26331 -7.47797 0
M  V30 19932 P 3268.44 -2.75334 -8.47391 0
M  V30 19933 O 3268.66 -2.44595 -9.90239 0
M  V30 19934 O 3269.23 -3.87732 -7.92204 0
M  V30 19935 O 3268.69 -1.4459 -7.59357 0
M  V30 19936 C 3267.75 -0.347608 -7.69215 0
M  V30 19937 C 3268.48 0.96767 -7.52806 0
M  V30 19938 O 3268.69 1.21036 -6.1011 0
M  V30 19939 C 3269.88 1.04544 -8.13308 0
M  V30 19940 O 3270.27 2.38311 -8.41922 0
M  V30 19941 C 3270.76 0.491279 -7.02284 0
M  V30 19942 C 3270.05 0.996264 -5.77469 0
M  V30 19943 N 3270.1 0.0501808 -4.62873 0
M  V30 19944 C 3270.25 0.578037 -3.3505 0
M  V30 19945 O 3270.34 1.8073 -3.21711 0
M  V30 19946 N 3270.3 -0.468541 -2.263 0
M  V30 19947 C 3270.2 -1.59186 -2.47176 0
M  V30 19948 N 3270.25 -2.37626 -1.40392 0
M  V30 19949 C 3270.05 -2.16203 -3.77467 0
M  V30 19950 C 3270 -1.29324 -4.8195 0
M  V30 19951 H 3267.26 -0.374679 -8.67591 0
M  V30 19952 H 3266.99 -0.443421 -6.90177 0
M  V30 19953 H 3267.86 1.75559 -7.96891 0
M  V30 19954 H 3270.51 1.94529 -5.46723 0
M  V30 19955 H 3270.79 -0.608651 -7.04676 0
M  V30 19956 H 3271.78 0.889672 -7.08939 0
M  V30 19957 H 3269.95 0.43308 -9.04564 0
M  V30 19958 H 3269.88 -1.67758 -5.83046 0
M  V30 19959 H 3269.98 -3.23869 -3.92281 0
M  V30 19960 H 3270.37 -1.96317 -0.467202 0
M  V30 19961 H 3270.17 -3.39693 -1.51142 0
M  V30 19962 P 3271.82 2.75334 -8.47391 0
M  V30 19963 O 3272.04 3.84204 -9.44982 0
M  V30 19964 O 3272.61 1.51982 -8.68909 0
M  V30 19965 O 3272.07 3.29363 -6.99321 0
M  V30 19966 C 3271.13 4.24066 -6.42823 0
M  V30 19967 C 3271.86 5.20775 -5.52155 0
M  V30 19968 O 3272.07 4.56607 -4.22514 0
M  V30 19969 C 3273.26 5.62697 -5.96604 0
M  V30 19970 O 3273.65 6.87667 -5.41053 0
M  V30 19971 C 3274.14 4.52537 -5.39283 0
M  V30 19972 C 3273.43 4.20027 -4.08623 0
M  V30 19973 N 3273.48 2.76189 -3.71603 0
M  V30 19974 C 3273.4 1.66944 -4.54297 0
M  V30 19975 N 3273.47 0.536169 -3.91344 0
M  V30 19976 C 3273.62 0.901569 -2.58849 0
M  V30 19977 C 3273.75 0.146599 -1.40236 0
M  V30 19978 N 3273.76 -1.18234 -1.37046 0
M  V30 19979 N 3273.87 0.822941 -0.249738 0
M  V30 19980 C 3273.86 2.15179 -0.280525 0
M  V30 19981 N 3273.74 2.96414 -1.30822 0
M  V30 19982 C 3273.62 2.25804 -2.44748 0
M  V30 19983 H 3270.64 4.79756 -7.24086 0
M  V30 19984 H 3270.37 3.69963 -5.84682 0
M  V30 19985 H 3271.24 6.10431 -5.41508 0
M  V30 19986 H 3273.89 4.78816 -3.28024 0
M  V30 19987 H 3274.17 3.64957 -6.05871 0
M  V30 19988 H 3275.16 4.88748 -5.21323 0
M  V30 19989 H 3273.33 5.66789 -7.0643 0
M  V30 19990 H 3273.29 1.74684 -5.62396 0
M  V30 19991 H 3273.67 -1.71949 -2.24394 0
M  V30 19992 H 3273.86 -1.67511 -0.470742 0
M  V30 19993 H 3273.97 2.63704 0.6828 0
M  V30 19994 P 3275.2 7.20834 -5.23717 0
M  V30 19995 O 3275.42 8.66104 -5.38572 0
M  V30 19996 O 3275.99 6.33544 -6.1349 0
M  V30 19997 O 3275.45 6.7751 -3.72168 0
M  V30 19998 C 3274.51 7.20825 -2.7076 0
M  V30 19999 C 3275.24 7.45864 -1.40599 0
M  V30 20000 O 3275.45 6.17651 -0.734225 0
M  V30 20001 C 3276.64 8.05808 -1.51899 0
M  V30 20002 O 3277.03 8.74358 -0.335205 0
M  V30 20003 C 3277.52 6.83093 -1.70294 0
M  V30 20004 C 3276.81 5.79992 -0.836974 0
M  V30 20005 N 3276.86 4.41864 -1.38293 0
M  V30 20006 H 3274.02 8.13644 -3.0377 0
M  V30 20007 H 3273.75 6.42788 -2.55485 0
M  V30 20008 H 3274.62 8.12039 -0.792769 0
M  V30 20009 P 3278.58 8.91 -1.13852e-10 0
M  V30 20010 O 3278.8 10.1726 0.733694 0
M  V30 20011 O 3279.37 8.73148 -1.23936 0
M  V30 20012 O 3278.83 7.66872 0.971405 0
M  V30 20013 C 3277.89 7.42309 2.04641 0
M  V30 20014 C 3278.62 6.86059 3.24661 0
M  V30 20015 O 3278.83 5.42847 3.03646 0
M  V30 20016 C 3280.02 7.41196 3.50753 0
M  V30 20017 O 3280.41 7.27073 4.86816 0
M  V30 20018 C 3280.9 6.5273 2.63741 0
M  V30 20019 C 3280.19 5.1842 2.73198 0
M  V30 20020 N 3280.24 4.38762 1.4784 0
M  V30 20021 H 3277.4 8.36803 2.32493 0
M  V30 20022 H 3277.13 6.70197 1.71129 0
M  V30 20023 H 3278 7.03551 4.13168 0
M  V30 20024 P 3281.96 7.20834 5.23717 0
M  V30 20025 O 3282.18 7.79853 6.57286 0
M  V30 20026 O 3282.75 7.79239 4.12957 0
M  V30 20027 O 3282.21 5.63315 5.29344 0
M  V30 20028 C 3281.27 4.80255 6.01876 0
M  V30 20029 C 3282 3.64202 6.65911 0
M  V30 20030 O 3282.21 2.60694 5.64732 0
M  V30 20031 C 3283.4 3.93473 7.1943 0
M  V30 20032 O 3283.79 3.02071 8.21205 0
M  V30 20033 C 3284.28 3.73047 5.97036 0
M  V30 20034 C 3283.57 2.58828 5.25741 0
M  V30 20035 N 3283.62 2.68068 3.77503 0
M  V30 20036 H 3280.78 5.40332 6.79951 0
M  V30 20037 H 3280.51 4.41613 5.32378 0
M  V30 20038 H 3281.38 3.26331 7.47797 0
M  V30 20039 P 3285.34 2.75334 8.47391 0
M  V30 20040 O 3285.56 2.44571 9.90142 0
M  V30 20041 O 3286.13 3.87688 7.92115 0
M  V30 20042 O 3285.59 1.4459 7.59357 0
M  V30 20043 C 3284.65 0.347608 7.69215 0
M  V30 20044 C 3285.38 -0.96767 7.52806 0
M  V30 20045 O 3285.59 -1.21036 6.1011 0
M  V30 20046 C 3286.78 -1.04544 8.13308 0
M  V30 20047 O 3287.17 -2.38311 8.41922 0
M  V30 20048 C 3287.66 -0.491279 7.02284 0
M  V30 20049 C 3286.95 -0.996264 5.77469 0
M  V30 20050 N 3287 -0.0501916 4.62973 0
M  V30 20051 C 3286.92 1.32786 4.63244 0
M  V30 20052 N 3287 1.86957 3.44545 0
M  V30 20053 C 3287.14 0.780241 2.58481 0
M  V30 20054 C 3287.27 0.738536 1.17757 0
M  V30 20055 N 3287.39 -0.58337 0.711393 0
M  V30 20056 C 3287.39 -1.70816 1.51017 0
M  V30 20057 N 3287.52 -2.87826 0.880757 0
M  V30 20058 N 3287.26 -1.67126 2.8339 0
M  V30 20059 C 3287.14 -0.401421 3.30572 0
M  V30 20060 H 3284.16 0.374722 8.67691 0
M  V30 20061 H 3283.89 0.443485 6.90277 0
M  V30 20062 H 3284.76 -1.75537 7.96793 0
M  V30 20063 P 3288.72 -2.75334 8.47391 0
M  V30 20064 O 3288.94 -3.84166 9.4489 0
M  V30 20065 O 3289.51 -1.51964 8.6881 0
M  V30 20066 O 3288.97 -3.29363 6.99321 0
M  V30 20067 C 3288.03 -4.23956 6.42656 0
M  V30 20068 C 3288.76 -5.20775 5.52155 0
M  V30 20069 O 3288.97 -4.56534 4.22446 0
M  V30 20070 C 3290.16 -5.62629 5.96531 0
M  V30 20071 O 3290.55 -6.87667 5.41053 0
M  V30 20072 C 3291.04 -4.52537 5.39283 0
M  V30 20073 C 3290.33 -4.20027 4.08623 0
M  V30 20074 N 3290.38 -2.7613 3.71522 0
M  V30 20075 C 3290.53 -2.45612 2.37989 0
M  V30 20076 O 3290.62 -3.30919 1.51621 0
M  V30 20077 N 3290.57 -1.10684 2.08435 0
M  V30 20078 C 3290.48 -0.0690084 2.9792 0
M  V30 20079 O 3290.53 1.10553 2.59426 0
M  V30 20080 C 3290.33 -0.481522 4.35345 0
M  V30 20081 C 3290.22 0.618778 5.36443 0
M  V30 20082 C 3290.28 -1.78906 4.67968 0
M  V30 20083 H 3287.54 -4.797 7.24003 0
M  V30 20084 H 3287.27 -3.69802 5.84429 0
M  V30 20085 H 3288.14 -6.10356 5.41441 0
M  V30 20086 H 3290.79 -4.78651 3.27911 0
M  V30 20087 H 3291.07 -3.64957 6.05871 0
M  V30 20088 H 3292.06 -4.8868 5.2125 0
M  V30 20089 H 3290.23 -5.66726 7.06352 0
M  V30 20090 H 3290.16 -2.07737 5.72367 0
M  V30 20091 H 3291.19 0.754375 5.86871 0
M  V30 20092 H 3289.45 0.359721 6.10641 0
M  V30 20093 H 3289.94 1.55533 4.8581 0
M  V30 20094 H 3290.68 -0.862651 1.12037 0
M  V30 20095 P 3292.1 -7.20834 5.23717 0
M  V30 20096 O 3292.32 -8.66104 5.38572 0
M  V30 20097 O 3292.89 -6.33544 6.1349 0
M  V30 20098 O 3292.35 -6.7751 3.72168 0
M  V30 20099 C 3291.41 -7.20825 2.7076 0
M  V30 20100 C 3292.14 -7.45864 1.40599 0
M  V30 20101 O 3292.35 -6.17651 0.734225 0
M  V30 20102 C 3293.54 -8.05808 1.51899 0
M  V30 20103 O 3293.93 -8.74358 0.335205 0
M  V30 20104 C 3294.42 -6.83093 1.70294 0
M  V30 20105 C 3293.71 -5.79992 0.836974 0
M  V30 20106 N 3293.76 -4.41864 1.38293 0
M  V30 20107 H 3290.92 -8.13644 3.0377 0
M  V30 20108 H 3290.65 -6.42788 2.55485 0
M  V30 20109 H 3291.52 -8.12039 0.792769 0
M  V30 20110 P 3295.48 -8.91 1.14961e-10 0
M  V30 20111 O 3295.7 -10.1726 -0.733694 0
M  V30 20112 O 3296.27 -8.73148 1.23936 0
M  V30 20113 O 3295.73 -7.66872 -0.971405 0
M  V30 20114 C 3294.79 -7.42309 -2.04641 0
M  V30 20115 C 3295.52 -6.86059 -3.24661 0
M  V30 20116 O 3295.73 -5.42847 -3.03646 0
M  V30 20117 C 3296.92 -7.41196 -3.50753 0
M  V30 20118 O 3297.31 -7.27073 -4.86816 0
M  V30 20119 C 3297.8 -6.5273 -2.63741 0
M  V30 20120 C 3297.09 -5.1842 -2.73198 0
M  V30 20121 N 3297.14 -4.38762 -1.4784 0
M  V30 20122 C 3297.06 -4.81605 -0.168631 0
M  V30 20123 N 3297.14 -3.85454 0.713363 0
M  V30 20124 C 3297.28 -2.6994 -0.0566958 0
M  V30 20125 C 3297.41 -1.34815 0.338502 0
M  V30 20126 N 3297.53 -0.496304 -0.77465 0
M  V30 20127 C 3297.53 -0.908403 -2.09122 0
M  V30 20128 N 3297.66 0.0517805 -3.00955 0
M  V30 20129 N 3297.4 -2.17875 -2.46519 0
M  V30 20130 C 3297.28 -3.01988 -1.4033 0
M  V30 20131 H 3294.3 -8.36803 -2.32493 0
M  V30 20132 H 3294.03 -6.70197 -1.71129 0
M  V30 20133 H 3294.9 -7.03551 -4.13168 0
M  V30 20134 P 3298.86 -7.20834 -5.23717 0
M  V30 20135 O 3299.08 -7.80006 -6.57415 0
M  V30 20136 O 3299.65 -7.79416 -4.13051 0
M  V30 20137 O 3299.11 -5.63315 -5.29344 0
M  V30 20138 C 3298.17 -4.80318 -6.01954 0
M  V30 20139 C 3298.9 -3.64202 -6.65911 0
M  V30 20140 O 3299.11 -2.60736 -5.64823 0
M  V30 20141 C 3300.3 -3.93521 -7.19518 0
M  V30 20142 O 3300.69 -3.02071 -8.21205 0
M  V30 20143 C 3301.18 -3.73047 -5.97036 0
M  V30 20144 C 3300.47 -2.58828 -5.25741 0
M  V30 20145 N 3300.52 -2.68068 -3.77503 0
M  V30 20146 C 3300.44 -3.80474 -2.99159 0
M  V30 20147 N 3300.51 -3.55622 -1.71925 0
M  V30 20148 C 3300.66 -2.1832 -1.65733 0
M  V30 20149 C 3300.79 -1.28842 -0.572777 0
M  V30 20150 N 3300.8 -1.66875 0.70098 0
M  V30 20151 N 3300.91 0.016788 -0.859836 0
M  V30 20152 C 3300.9 0.398145 -2.13316 0
M  V30 20153 N 3300.78 -0.328224 -3.22333 0
M  V30 20154 C 3300.66 -1.62992 -2.90383 0
M  V30 20155 H 3297.68 -5.40394 -6.8003 0
M  V30 20156 H 3297.41 -4.41741 -5.32532 0
M  V30 20157 H 3298.28 -3.26371 -7.47889 0
M  V30 20158 H 3300.93 -1.64007 -5.56746 0
M  V30 20159 H 3301.21 -4.63439 -5.3432 0
M  V30 20160 H 3302.2 -3.44776 -6.25925 0
M  V30 20161 H 3300.37 -4.96707 -7.57347 0
M  V30 20162 H 3300.33 -4.8089 -3.39924 0
M  V30 20163 H 3300.71 -2.66547 0.941919 0
M  V30 20164 H 3300.9 -0.965341 1.44766 0
M  V30 20165 H 3301.01 1.46427 -2.29697 0
M  V30 20166 P 3302.24 -2.75334 -8.47391 0
M  V30 20167 O 3302.46 -2.44571 -9.90142 0
M  V30 20168 O 3303.03 -3.87688 -7.92115 0
M  V30 20169 O 3302.49 -1.4459 -7.59357 0
M  V30 20170 C 3301.55 -0.347608 -7.69215 0
M  V30 20171 C 3302.28 0.96767 -7.52806 0
M  V30 20172 O 3302.49 1.21036 -6.1011 0
M  V30 20173 C 3303.68 1.04544 -8.13308 0
M  V30 20174 O 3304.07 2.38311 -8.41922 0
M  V30 20175 C 3304.56 0.491279 -7.02284 0
M  V30 20176 C 3303.85 0.996264 -5.77469 0
M  V30 20177 N 3303.9 0.0501916 -4.62973 0
M  V30 20178 H 3301.06 -0.374722 -8.67691 0
M  V30 20179 H 3300.79 -0.443485 -6.90277 0
M  V30 20180 H 3301.66 1.75537 -7.96793 0
M  V30 20181 P 3305.62 2.75334 -8.47391 0
M  V30 20182 O 3305.84 3.84128 -9.44797 0
M  V30 20183 O 3306.41 1.51947 -8.68712 0
M  V30 20184 O 3305.87 3.29363 -6.99321 0
M  V30 20185 C 3304.93 4.24011 -6.4274 0
M  V30 20186 C 3305.66 5.20775 -5.52155 0
M  V30 20187 O 3305.87 4.56534 -4.22446 0
M  V30 20188 C 3307.06 5.62629 -5.96531 0
M  V30 20189 O 3307.45 6.87667 -5.41053 0
M  V30 20190 C 3307.94 4.52537 -5.39283 0
M  V30 20191 C 3307.23 4.20027 -4.08623 0
M  V30 20192 N 3307.28 2.76189 -3.71603 0
M  V30 20193 H 3304.44 4.797 -7.24003 0
M  V30 20194 H 3304.17 3.69856 -5.84513 0
M  V30 20195 H 3305.04 6.10356 -5.41441 0
M  V30 20196 P 3309 7.20834 -5.23717 0
M  V30 20197 O 3309.22 8.66104 -5.38572 0
M  V30 20198 O 3309.79 6.33544 -6.1349 0
M  V30 20199 O 3309.25 6.7751 -3.72168 0
M  V30 20200 C 3308.31 7.20825 -2.7076 0
M  V30 20201 C 3309.04 7.45864 -1.40599 0
M  V30 20202 O 3309.25 6.17651 -0.734225 0
M  V30 20203 C 3310.44 8.05808 -1.51899 0
M  V30 20204 O 3310.83 8.74358 -0.335205 0
M  V30 20205 C 3311.32 6.83093 -1.70294 0
M  V30 20206 C 3310.61 5.79992 -0.836974 0
M  V30 20207 N 3310.66 4.41864 -1.38293 0
M  V30 20208 H 3307.82 8.13644 -3.0377 0
M  V30 20209 H 3307.55 6.42788 -2.55485 0
M  V30 20210 H 3308.42 8.12039 -0.792769 0
M  V30 20211 P 3312.38 8.91 -1.1607e-10 0
M  V30 20212 O 3312.6 10.1726 0.733694 0
M  V30 20213 O 3313.17 8.73148 -1.23936 0
M  V30 20214 O 3312.63 7.66872 0.971405 0
M  V30 20215 C 3311.69 7.42309 2.04641 0
M  V30 20216 C 3312.42 6.86059 3.24661 0
M  V30 20217 O 3312.63 5.42847 3.03646 0
M  V30 20218 C 3313.82 7.41196 3.50753 0
M  V30 20219 O 3314.21 7.27073 4.86816 0
M  V30 20220 C 3314.7 6.5273 2.63741 0
M  V30 20221 C 3313.99 5.1842 2.73198 0
M  V30 20222 N 3314.04 4.38762 1.4784 0
M  V30 20223 H 3311.2 8.36803 2.32493 0
M  V30 20224 H 3310.93 6.70197 1.71129 0
M  V30 20225 H 3311.8 7.03551 4.13168 0
M  V30 20226 P 3315.76 7.20834 5.23717 0
M  V30 20227 O 3315.98 7.79853 6.57286 0
M  V30 20228 O 3316.55 7.79239 4.12957 0
M  V30 20229 O 3316.01 5.63315 5.29344 0
M  V30 20230 C 3315.07 4.80255 6.01876 0
M  V30 20231 C 3315.8 3.64202 6.65911 0
M  V30 20232 O 3316.01 2.60694 5.64732 0
M  V30 20233 C 3317.2 3.93473 7.1943 0
M  V30 20234 O 3317.59 3.02071 8.21205 0
M  V30 20235 C 3318.08 3.73047 5.97036 0
M  V30 20236 C 3317.37 2.58828 5.25741 0
M  V30 20237 N 3317.42 2.68068 3.77503 0
M  V30 20238 H 3314.58 5.40332 6.79951 0
M  V30 20239 H 3314.31 4.41613 5.32378 0
M  V30 20240 H 3315.18 3.26331 7.47797 0
M  V30 20241 P 3319.14 2.75334 8.47391 0
M  V30 20242 O 3319.36 2.44571 9.90142 0
M  V30 20243 O 3319.93 3.87688 7.92115 0
M  V30 20244 O 3319.39 1.4459 7.59357 0
M  V30 20245 C 3318.45 0.347608 7.69215 0
M  V30 20246 C 3319.18 -0.96767 7.52806 0
M  V30 20247 O 3319.39 -1.21036 6.1011 0
M  V30 20248 C 3320.58 -1.04544 8.13308 0
M  V30 20249 O 3320.97 -2.38311 8.41922 0
M  V30 20250 C 3321.46 -0.491279 7.02284 0
M  V30 20251 C 3320.75 -0.996264 5.77469 0
M  V30 20252 N 3320.8 -0.0501916 4.62973 0
M  V30 20253 H 3317.96 0.374722 8.67691 0
M  V30 20254 H 3317.69 0.443485 6.90277 0
M  V30 20255 H 3318.56 -1.75537 7.96793 0
M  V30 20256 P 3322.52 -2.75334 8.47391 0
M  V30 20257 O 3322.74 -3.84166 9.4489 0
M  V30 20258 O 3323.31 -1.51964 8.6881 0
M  V30 20259 O 3322.77 -3.29363 6.99321 0
M  V30 20260 C 3321.83 -4.23956 6.42656 0
M  V30 20261 C 3322.56 -5.20775 5.52155 0
M  V30 20262 O 3322.77 -4.56534 4.22446 0
M  V30 20263 C 3323.96 -5.62629 5.96531 0
M  V30 20264 O 3324.35 -6.87667 5.41053 0
M  V30 20265 C 3324.84 -4.52537 5.39283 0
M  V30 20266 C 3324.13 -4.20027 4.08623 0
M  V30 20267 N 3324.18 -2.7613 3.71522 0
M  V30 20268 C 3324.33 -2.45612 2.37989 0
M  V30 20269 O 3324.42 -3.30919 1.51621 0
M  V30 20270 N 3324.37 -1.10684 2.08435 0
M  V30 20271 C 3324.28 -0.0690084 2.9792 0
M  V30 20272 C 3324.13 -0.481522 4.35345 0
M  V30 20273 C 3324.08 -1.78906 4.67968 0
M  V30 20274 H 3321.34 -4.797 7.24003 0
M  V30 20275 H 3321.07 -3.69802 5.84429 0
M  V30 20276 H 3321.94 -6.10356 5.41441 0
M  V30 20277 H 3324.59 -4.78651 3.27911 0
M  V30 20278 H 3324.87 -3.64957 6.05871 0
M  V30 20279 H 3325.86 -4.8868 5.2125 0
M  V30 20280 H 3324.03 -5.66726 7.06352 0
M  V30 20281 H 3323.96 -2.07737 5.72367 0
M  V30 20282 P 3325.9 -7.20834 5.23717 0
M  V30 20283 O 3326.12 -8.66104 5.38572 0
M  V30 20284 O 3326.69 -6.33544 6.1349 0
M  V30 20285 O 3326.15 -6.7751 3.72168 0
M  V30 20286 C 3325.21 -7.20825 2.7076 0
M  V30 20287 C 3325.94 -7.45864 1.40599 0
M  V30 20288 O 3326.15 -6.17651 0.734225 0
M  V30 20289 C 3327.34 -8.05808 1.51899 0
M  V30 20290 O 3327.73 -8.74358 0.335205 0
M  V30 20291 C 3328.22 -6.83093 1.70294 0
M  V30 20292 C 3327.51 -5.79992 0.836974 0
M  V30 20293 N 3327.56 -4.41864 1.38293 0
M  V30 20294 H 3324.72 -8.13644 3.0377 0
M  V30 20295 H 3324.45 -6.42788 2.55485 0
M  V30 20296 H 3325.32 -8.12039 0.792769 0
M  V30 20297 P 3329.28 -8.91 1.17179e-10 0
M  V30 20298 O 3329.5 -10.1726 -0.733694 0
M  V30 20299 O 3330.07 -8.73148 1.23936 0
M  V30 20300 O 3329.53 -7.66872 -0.971405 0
M  V30 20301 C 3328.59 -7.42309 -2.04641 0
M  V30 20302 C 3329.32 -6.86059 -3.24661 0
M  V30 20303 O 3329.53 -5.42847 -3.03646 0
M  V30 20304 C 3330.72 -7.41196 -3.50753 0
M  V30 20305 O 3331.11 -7.27073 -4.86816 0
M  V30 20306 C 3331.6 -6.5273 -2.63741 0
M  V30 20307 C 3330.89 -5.1842 -2.73198 0
M  V30 20308 N 3330.94 -4.38762 -1.4784 0
M  V30 20309 H 3328.1 -8.36803 -2.32493 0
M  V30 20310 H 3327.83 -6.70197 -1.71129 0
M  V30 20311 H 3328.7 -7.03551 -4.13168 0
M  V30 20312 P 3332.66 -7.20834 -5.23717 0
M  V30 20313 O 3332.88 -7.7993 -6.57351 0
M  V30 20314 O 3333.45 -7.79328 -4.13004 0
M  V30 20315 O 3332.91 -5.63315 -5.29344 0
M  V30 20316 C 3331.97 -4.80193 -6.01798 0
M  V30 20317 C 3332.7 -3.64202 -6.65911 0
M  V30 20318 O 3332.91 -2.60694 -5.64732 0
M  V30 20319 C 3334.1 -3.93473 -7.1943 0
M  V30 20320 O 3334.49 -3.02071 -8.21205 0
M  V30 20321 C 3334.98 -3.73047 -5.97036 0
M  V30 20322 C 3334.27 -2.58828 -5.25741 0
M  V30 20323 N 3334.32 -2.6801 -3.77422 0
M  V30 20324 C 3334.47 -1.50443 -3.07133 0
M  V30 20325 O 3334.56 -0.419406 -3.61576 0
M  V30 20326 N 3334.51 -1.6403 -1.69677 0
M  V30 20327 C 3334.42 -2.81206 -0.986255 0
M  V30 20328 O 3334.47 -2.80892 0.249754 0
M  V30 20329 C 3334.27 -3.99158 -1.80325 0
M  V30 20330 C 3334.16 -5.29309 -1.06921 0
M  V30 20331 C 3334.22 -3.89779 -3.1476 0
M  V30 20332 H 3331.48 -5.40332 -6.79951 0
M  V30 20333 H 3331.21 -4.41549 -5.32301 0
M  V30 20334 H 3332.08 -3.26331 -7.47797 0
M  V30 20335 H 3334.73 -1.6395 -5.56554 0
M  V30 20336 H 3335.01 -4.63439 -5.3432 0
M  V30 20337 H 3336 -3.44728 -6.25838 0
M  V30 20338 H 3334.17 -4.96652 -7.57263 0
M  V30 20339 H 3334.1 -4.80159 -3.74441 0
M  V30 20340 H 3335.13 -5.81459 -1.09608 0
M  V30 20341 H 3333.39 -5.9187 -1.54487 0
M  V30 20342 H 3333.88 -5.10095 -0.0220288 0
M  V30 20343 H 3334.62 -0.798962 -1.16664 0
M  V30 20344 P 3336.04 -2.75334 -8.47391 0
M  V30 20345 O 3336.26 -2.44571 -9.90142 0
M  V30 20346 O 3336.83 -3.87688 -7.92115 0
M  V30 20347 O 3336.29 -1.4459 -7.59357 0
M  V30 20348 C 3335.35 -0.347608 -7.69215 0
M  V30 20349 C 3336.08 0.96767 -7.52806 0
M  V30 20350 O 3336.29 1.21036 -6.1011 0
M  V30 20351 C 3337.48 1.04544 -8.13308 0
M  V30 20352 O 3337.87 2.38311 -8.41922 0
M  V30 20353 C 3338.36 0.491279 -7.02284 0
M  V30 20354 C 3337.65 0.996264 -5.77469 0
M  V30 20355 N 3337.7 0.0501916 -4.62973 0
M  V30 20356 H 3334.86 -0.374722 -8.67691 0
M  V30 20357 H 3334.59 -0.443485 -6.90277 0
M  V30 20358 H 3335.46 1.75537 -7.96793 0
M  V30 20359 P 3339.42 2.75334 -8.47391 0
M  V30 20360 O 3339.64 3.84128 -9.44797 0
M  V30 20361 O 3340.21 1.51947 -8.68712 0
M  V30 20362 O 3339.67 3.29363 -6.99321 0
M  V30 20363 C 3338.73 4.24011 -6.4274 0
M  V30 20364 C 3339.46 5.20775 -5.52155 0
M  V30 20365 O 3339.67 4.56534 -4.22446 0
M  V30 20366 C 3340.86 5.62629 -5.96531 0
M  V30 20367 O 3341.25 6.87667 -5.41053 0
M  V30 20368 C 3341.74 4.52537 -5.39283 0
M  V30 20369 C 3341.03 4.20027 -4.08623 0
M  V30 20370 N 3341.08 2.76189 -3.71603 0
M  V30 20371 H 3338.24 4.797 -7.24003 0
M  V30 20372 H 3337.97 3.69856 -5.84513 0
M  V30 20373 H 3338.84 6.10356 -5.41441 0
M  V30 20374 P 3342.8 7.20834 -5.23717 0
M  V30 20375 O 3343.02 8.66104 -5.38572 0
M  V30 20376 O 3343.59 6.33544 -6.1349 0
M  V30 20377 O 3343.05 6.7751 -3.72168 0
M  V30 20378 C 3342.11 7.20825 -2.7076 0
M  V30 20379 C 3342.84 7.45864 -1.40599 0
M  V30 20380 O 3343.05 6.17651 -0.734225 0
M  V30 20381 C 3344.24 8.05808 -1.51899 0
M  V30 20382 O 3344.63 8.74358 -0.335205 0
M  V30 20383 C 3345.12 6.83093 -1.70294 0
M  V30 20384 C 3344.41 5.79992 -0.836974 0
M  V30 20385 N 3344.46 4.41864 -1.38293 0
M  V30 20386 C 3344.38 3.99538 -2.69438 0
M  V30 20387 N 3344.46 2.69909 -2.84277 0
M  V30 20388 C 3344.6 2.21719 -1.5408 0
M  V30 20389 C 3344.73 0.891712 -1.06628 0
M  V30 20390 O 3344.75 -0.161298 -1.70137 0
M  V30 20391 N 3344.85 0.856846 0.334985 0
M  V30 20392 C 3344.85 1.9641 1.15789 0
M  V30 20393 N 3344.98 1.72708 2.46522 0
M  V30 20394 N 3344.72 3.21165 0.713741 0
M  V30 20395 C 3344.6 3.26797 -0.639748 0
M  V30 20396 H 3341.62 8.13644 -3.0377 0
M  V30 20397 H 3341.35 6.42788 -2.55485 0
M  V30 20398 H 3342.22 8.12039 -0.792769 0
M  V30 20399 H 3344.87 5.80061 0.166416 0
M  V30 20400 H 3345.15 6.51287 -2.75604 0
M  V30 20401 H 3346.14 7.01734 -1.34462 0
M  V30 20402 H 3344.31 8.73674 -2.38337 0
M  V30 20403 H 3344.26 4.68207 -3.53221 0
M  V30 20404 H 3344.94 -0.0398818 0.767965 0
M  V30 20405 H 3344.98 2.50995 3.13503 0
M  V30 20406 H 3345.08 0.759148 2.80716 0
M  V30 20407 P 3346.18 8.91 -1.18288e-10 0
M  V30 20408 O 3346.4 10.1746 0.733838 0
M  V30 20409 O 3346.97 8.73346 -1.23964 0
M  V30 20410 O 3346.43 7.66872 0.971405 0
M  V30 20411 C 3345.49 7.42405 2.04668 0
M  V30 20412 C 3346.22 6.86059 3.24661 0
M  V30 20413 O 3346.43 5.42934 3.03695 0
M  V30 20414 C 3347.62 7.41287 3.50796 0
M  V30 20415 O 3348.01 7.27073 4.86816 0
M  V30 20416 C 3348.5 6.5273 2.63741 0
M  V30 20417 C 3347.79 5.1842 2.73198 0
M  V30 20418 N 3347.84 4.38762 1.4784 0
M  V30 20419 C 3347.76 4.83651 0.183876 0
M  V30 20420 N 3347.83 3.88759 -0.699393 0
M  V30 20421 C 3347.98 2.7404 0.0575568 0
M  V30 20422 C 3348.11 1.37902 -0.293928 0
M  V30 20423 N 3348.12 0.938021 -1.54797 0
M  V30 20424 N 3348.23 0.491817 0.70549 0
M  V30 20425 C 3348.22 0.931735 1.95979 0
M  V30 20426 N 3348.1 2.16017 2.41481 0
M  V30 20427 C 3347.98 3.02547 1.39121 0
M  V30 20428 H 3345 8.36899 2.3252 0
M  V30 20429 H 3344.73 6.70391 1.71179 0
M  V30 20430 H 3345.6 7.03638 4.13219 0
M  V30 20431 H 3348.25 4.59931 3.54016 0
M  V30 20432 H 3348.53 6.88995 1.59871 0
M  V30 20433 H 3349.52 6.4684 3.0373 0
M  V30 20434 H 3347.69 8.47002 3.20749 0
M  V30 20435 H 3347.65 5.8885 -0.0765548 0
M  V30 20436 H 3348.03 1.60276 -2.32875 0
M  V30 20437 H 3348.22 -0.0699355 -1.73859 0
M  V30 20438 H 3348.33 0.165507 2.71897 0
M  V30 20439 P 3349.56 7.20834 5.23717 0
M  V30 20440 O 3349.78 7.80006 6.57415 0
M  V30 20441 O 3350.35 7.79416 4.13051 0
M  V30 20442 O 3349.81 5.63315 5.29344 0
M  V30 20443 C 3348.87 4.80318 6.01954 0
M  V30 20444 C 3349.6 3.64202 6.65911 0
M  V30 20445 O 3349.81 2.60736 5.64823 0
M  V30 20446 C 3351 3.93521 7.19518 0
M  V30 20447 O 3351.39 3.02071 8.21205 0
M  V30 20448 C 3351.88 3.73047 5.97036 0
M  V30 20449 C 3351.17 2.58828 5.25741 0
M  V30 20450 N 3351.22 2.68068 3.77503 0
M  V30 20451 C 3351.14 3.80474 2.99159 0
M  V30 20452 N 3351.21 3.55622 1.71925 0
M  V30 20453 C 3351.36 2.1832 1.65733 0
M  V30 20454 C 3351.49 1.28842 0.572777 0
M  V30 20455 N 3351.5 1.66875 -0.70098 0
M  V30 20456 N 3351.61 -0.016788 0.859836 0
M  V30 20457 C 3351.6 -0.398145 2.13316 0
M  V30 20458 N 3351.48 0.328224 3.22333 0
M  V30 20459 C 3351.36 1.62992 2.90383 0
M  V30 20460 H 3348.38 5.40394 6.8003 0
M  V30 20461 H 3348.11 4.41741 5.32532 0
M  V30 20462 H 3348.98 3.26371 7.47889 0
M  V30 20463 H 3351.63 1.64007 5.56746 0
M  V30 20464 H 3351.91 4.63439 5.3432 0
M  V30 20465 H 3352.9 3.44776 6.25925 0
M  V30 20466 H 3351.07 4.96707 7.57347 0
M  V30 20467 H 3351.03 4.8089 3.39924 0
M  V30 20468 H 3351.41 2.66547 -0.941919 0
M  V30 20469 H 3351.6 0.965341 -1.44766 0
M  V30 20470 H 3351.71 -1.46427 2.29697 0
M  V30 20471 P 3352.94 2.75334 8.47391 0
M  V30 20472 O 3353.16 2.44619 9.90336 0
M  V30 20473 O 3353.73 3.87776 7.92294 0
M  V30 20474 O 3353.19 1.4459 7.59357 0
M  V30 20475 C 3352.25 0.347653 7.69315 0
M  V30 20476 C 3352.98 -0.96767 7.52806 0
M  V30 20477 O 3353.19 -1.21055 6.10208 0
M  V30 20478 C 3354.38 -1.04557 8.13408 0
M  V30 20479 O 3354.77 -2.38311 8.41922 0
M  V30 20480 C 3355.26 -0.491279 7.02284 0
M  V30 20481 C 3354.55 -0.996264 5.77469 0
M  V30 20482 N 3354.6 -0.0501916 4.62973 0
M  V30 20483 C 3354.52 1.31969 4.65661 0
M  V30 20484 N 3354.59 1.86649 3.48119 0
M  V30 20485 C 3354.74 0.792089 2.62406 0
M  V30 20486 C 3354.87 0.705684 1.2207 0
M  V30 20487 N 3354.88 1.76207 0.413762 0
M  V30 20488 N 3354.99 -0.518981 0.685754 0
M  V30 20489 C 3354.98 -1.57595 1.49174 0
M  V30 20490 N 3354.86 -1.62909 2.80066 0
M  V30 20491 C 3354.74 -0.388195 3.3073 0
M  V30 20492 H 3351.76 0.374765 8.67791 0
M  V30 20493 H 3351.49 0.443613 6.90476 0
M  V30 20494 H 3352.36 -1.75559 7.96891 0
M  V30 20495 H 3355.01 -1.94563 5.46818 0
M  V30 20496 H 3355.29 0.608651 7.04676 0
M  V30 20497 H 3356.28 -0.889796 7.09039 0
M  V30 20498 H 3354.45 -0.433128 9.04664 0
M  V30 20499 H 3354.41 1.89246 5.57664 0
M  V30 20500 H 3354.79 2.71005 0.804694 0
M  V30 20501 H 3354.98 1.63189 -0.603768 0
M  V30 20502 H 3355.09 -2.53475 0.997614 0
M  V30 20503 P 3356.32 -2.75334 8.47391 0
M  V30 20504 O 3356.54 -3.84204 9.44982 0
M  V30 20505 O 3357.11 -1.51982 8.68909 0
M  V30 20506 O 3356.57 -3.29363 6.99321 0
M  V30 20507 C 3355.63 -4.24066 6.42823 0
M  V30 20508 C 3356.36 -5.20775 5.52155 0
M  V30 20509 O 3356.57 -4.56607 4.22514 0
M  V30 20510 C 3357.76 -5.62697 5.96604 0
M  V30 20511 O 3358.15 -6.87667 5.41053 0
M  V30 20512 C 3358.64 -4.52537 5.39283 0
M  V30 20513 C 3357.93 -4.20027 4.08623 0
M  V30 20514 N 3357.98 -2.76189 3.71603 0
M  V30 20515 C 3357.9 -1.66944 4.54297 0
M  V30 20516 N 3357.97 -0.536169 3.91344 0
M  V30 20517 C 3358.12 -0.901569 2.58849 0
M  V30 20518 C 3358.25 -0.146599 1.40236 0
M  V30 20519 N 3358.26 1.18234 1.37046 0
M  V30 20520 N 3358.37 -0.822941 0.249738 0
M  V30 20521 C 3358.36 -2.15179 0.280525 0
M  V30 20522 N 3358.24 -2.96414 1.30822 0
M  V30 20523 C 3358.12 -2.25804 2.44748 0
M  V30 20524 H 3355.14 -4.79756 7.24086 0
M  V30 20525 H 3354.87 -3.69963 5.84682 0
M  V30 20526 H 3355.74 -6.10431 5.41508 0
M  V30 20527 H 3358.39 -4.78816 3.28024 0
M  V30 20528 H 3358.67 -3.64957 6.05871 0
M  V30 20529 H 3359.66 -4.88748 5.21323 0
M  V30 20530 H 3357.83 -5.66789 7.0643 0
M  V30 20531 H 3357.79 -1.74684 5.62396 0
M  V30 20532 H 3358.17 1.71949 2.24394 0
M  V30 20533 H 3358.36 1.67511 0.470742 0
M  V30 20534 H 3358.47 -2.63704 -0.6828 0
M  V30 20535 P 3359.7 -7.20834 5.23717 0
M  V30 20536 O 3359.92 -8.66104 5.38572 0
M  V30 20537 O 3360.49 -6.33544 6.1349 0
M  V30 20538 O 3359.95 -6.7751 3.72168 0
M  V30 20539 C 3359.01 -7.20825 2.7076 0
M  V30 20540 C 3359.74 -7.45864 1.40599 0
M  V30 20541 O 3359.95 -6.17651 0.734225 0
M  V30 20542 C 3361.14 -8.05808 1.51899 0
M  V30 20543 O 3361.53 -8.74358 0.335205 0
M  V30 20544 C 3362.02 -6.83093 1.70294 0
M  V30 20545 C 3361.31 -5.79992 0.836974 0
M  V30 20546 N 3361.36 -4.41864 1.38293 0
M  V30 20547 H 3358.52 -8.13644 3.0377 0
M  V30 20548 H 3358.25 -6.42788 2.55485 0
M  V30 20549 H 3359.12 -8.12039 0.792769 0
M  V30 20550 P 3363.08 -8.91 1.19397e-10 0
M  V30 20551 O 3363.3 -10.1746 -0.733838 0
M  V30 20552 O 3363.87 -8.73346 1.23964 0
M  V30 20553 O 3363.33 -7.66872 -0.971405 0
M  V30 20554 C 3362.39 -7.42405 -2.04668 0
M  V30 20555 C 3363.12 -6.86059 -3.24661 0
M  V30 20556 O 3363.33 -5.42934 -3.03695 0
M  V30 20557 C 3364.52 -7.41287 -3.50796 0
M  V30 20558 O 3364.91 -7.27073 -4.86816 0
M  V30 20559 C 3365.4 -6.5273 -2.63741 0
M  V30 20560 C 3364.69 -5.1842 -2.73198 0
M  V30 20561 N 3364.74 -4.38762 -1.4784 0
M  V30 20562 C 3364.66 -4.83651 -0.183876 0
M  V30 20563 N 3364.73 -3.88759 0.699393 0
M  V30 20564 C 3364.88 -2.7404 -0.0575568 0
M  V30 20565 C 3365.01 -1.37902 0.293928 0
M  V30 20566 N 3365.02 -0.938021 1.54797 0
M  V30 20567 N 3365.13 -0.491817 -0.70549 0
M  V30 20568 C 3365.12 -0.931735 -1.95979 0
M  V30 20569 N 3365 -2.16017 -2.41481 0
M  V30 20570 C 3364.88 -3.02547 -1.39121 0
M  V30 20571 H 3361.9 -8.36899 -2.3252 0
M  V30 20572 H 3361.63 -6.70391 -1.71179 0
M  V30 20573 H 3362.5 -7.03638 -4.13219 0
M  V30 20574 H 3365.15 -4.59931 -3.54016 0
M  V30 20575 H 3365.43 -6.88995 -1.59871 0
M  V30 20576 H 3366.42 -6.4684 -3.0373 0
M  V30 20577 H 3364.59 -8.47002 -3.20749 0
M  V30 20578 H 3364.55 -5.8885 0.0765548 0
M  V30 20579 H 3364.93 -1.60276 2.32875 0
M  V30 20580 H 3365.12 0.0699355 1.73859 0
M  V30 20581 H 3365.23 -0.165507 -2.71897 0
M  V30 20582 P 3366.46 -7.20834 -5.23717 0
M  V30 20583 O 3366.68 -7.79853 -6.57286 0
M  V30 20584 O 3367.25 -7.79239 -4.12957 0
M  V30 20585 O 3366.71 -5.63315 -5.29344 0
M  V30 20586 C 3365.77 -4.80255 -6.01876 0
M  V30 20587 C 3366.5 -3.64202 -6.65911 0
M  V30 20588 O 3366.71 -2.60694 -5.64732 0
M  V30 20589 C 3367.9 -3.93473 -7.1943 0
M  V30 20590 O 3368.29 -3.02071 -8.21205 0
M  V30 20591 C 3368.78 -3.73047 -5.97036 0
M  V30 20592 C 3368.07 -2.58828 -5.25741 0
M  V30 20593 N 3368.12 -2.68068 -3.77503 0
M  V30 20594 H 3365.28 -5.40332 -6.79951 0
M  V30 20595 H 3365.01 -4.41613 -5.32378 0
M  V30 20596 H 3365.88 -3.26331 -7.47797 0
M  V30 20597 P 3369.84 -2.75334 -8.47391 0
M  V30 20598 O 3370.06 -2.44571 -9.90142 0
M  V30 20599 O 3370.63 -3.87688 -7.92115 0
M  V30 20600 O 3370.09 -1.4459 -7.59357 0
M  V30 20601 C 3369.15 -0.347608 -7.69215 0
M  V30 20602 C 3369.88 0.96767 -7.52806 0
M  V30 20603 O 3370.09 1.21036 -6.1011 0
M  V30 20604 C 3371.28 1.04544 -8.13308 0
M  V30 20605 O 3371.67 2.38311 -8.41922 0
M  V30 20606 C 3372.16 0.491279 -7.02284 0
M  V30 20607 C 3371.45 0.996264 -5.77469 0
M  V30 20608 N 3371.5 0.0501916 -4.62973 0
M  V30 20609 C 3371.42 -1.32786 -4.63244 0
M  V30 20610 N 3371.5 -1.86957 -3.44545 0
M  V30 20611 C 3371.64 -0.780241 -2.58481 0
M  V30 20612 C 3371.77 -0.738536 -1.17757 0
M  V30 20613 N 3371.89 0.58337 -0.711393 0
M  V30 20614 C 3371.89 1.70816 -1.51017 0
M  V30 20615 N 3372.02 2.87826 -0.880757 0
M  V30 20616 N 3371.76 1.67126 -2.8339 0
M  V30 20617 C 3371.64 0.401421 -3.30572 0
M  V30 20618 H 3368.66 -0.374722 -8.67691 0
M  V30 20619 H 3368.39 -0.443485 -6.90277 0
M  V30 20620 H 3369.26 1.75537 -7.96793 0
M  V30 20621 P 3373.22 2.75334 -8.47391 0
M  V30 20622 O 3373.44 3.84128 -9.44797 0
M  V30 20623 O 3374.01 1.51947 -8.68712 0
M  V30 20624 O 3373.47 3.29363 -6.99321 0
M  V30 20625 C 3372.53 4.24011 -6.4274 0
M  V30 20626 C 3373.26 5.20775 -5.52155 0
M  V30 20627 O 3373.47 4.56534 -4.22446 0
M  V30 20628 C 3374.66 5.62629 -5.96531 0
M  V30 20629 O 3375.05 6.87667 -5.41053 0
M  V30 20630 C 3375.54 4.52537 -5.39283 0
M  V30 20631 C 3374.83 4.20027 -4.08623 0
M  V30 20632 N 3374.88 2.76189 -3.71603 0
M  V30 20633 H 3372.04 4.797 -7.24003 0
M  V30 20634 H 3371.77 3.69856 -5.84513 0
M  V30 20635 H 3372.64 6.10356 -5.41441 0
M  V30 20636 P 3376.6 7.20834 -5.23717 0
M  V30 20637 O 3376.82 8.66274 -5.38678 0
M  V30 20638 O 3377.39 6.33687 -6.13629 0
M  V30 20639 O 3376.85 6.7751 -3.72168 0
M  V30 20640 C 3375.91 7.20919 -2.70795 0
M  V30 20641 C 3376.64 7.45864 -1.40599 0
M  V30 20642 O 3376.85 6.17751 -0.734343 0
M  V30 20643 C 3378.04 8.05906 -1.51917 0
M  V30 20644 O 3378.43 8.74358 -0.335205 0
M  V30 20645 C 3378.92 6.83093 -1.70294 0
M  V30 20646 C 3378.21 5.79992 -0.836974 0
M  V30 20647 N 3378.26 4.41864 -1.38293 0
M  V30 20648 C 3378.18 4.02089 -2.69407 0
M  V30 20649 N 3378.25 2.73403 -2.85089 0
M  V30 20650 C 3378.4 2.25086 -1.5642 0
M  V30 20651 C 3378.53 0.942887 -1.04836 0
M  V30 20652 N 3378.54 -0.150999 -1.80369 0
M  V30 20653 N 3378.65 0.812565 0.28167 0
M  V30 20654 C 3378.64 1.90572 1.03784 0
M  V30 20655 N 3378.52 3.167 0.683905 0
M  V30 20656 C 3378.4 3.26538 -0.652815 0
M  V30 20657 H 3375.42 8.13738 -3.03804 0
M  V30 20658 H 3375.15 6.42974 -2.55559 0
M  V30 20659 H 3376.02 8.12139 -0.792866 0
M  V30 20660 H 3378.67 5.80178 0.160643 0
M  V30 20661 H 3378.95 6.51379 -2.75643 0
M  V30 20662 H 3379.94 7.01832 -1.3448 0
M  V30 20663 H 3378.11 8.73771 -2.38364 0
M  V30 20664 H 3378.07 4.7189 -3.52311 0
M  V30 20665 H 3378.45 -0.0721434 -2.82608 0
M  V30 20666 H 3378.64 -1.0785 -1.36544 0
M  V30 20667 H 3378.75 1.73207 2.10241 0
M  V30 20668 P 3379.98 8.91 -1.20506e-10 0
M  V30 20669 O 3380.2 10.1726 0.733694 0
M  V30 20670 O 3380.77 8.73148 -1.23936 0
M  V30 20671 O 3380.23 7.66872 0.971405 0
M  V30 20672 C 3379.29 7.42309 2.04641 0
M  V30 20673 C 3380.02 6.86059 3.24661 0
M  V30 20674 O 3380.23 5.42847 3.03646 0
M  V30 20675 C 3381.42 7.41196 3.50753 0
M  V30 20676 O 3381.81 7.27073 4.86816 0
M  V30 20677 C 3382.3 6.5273 2.63741 0
M  V30 20678 C 3381.59 5.1842 2.73198 0
M  V30 20679 N 3381.64 4.38762 1.4784 0
M  V30 20680 H 3378.8 8.36803 2.32493 0
M  V30 20681 H 3378.53 6.70197 1.71129 0
M  V30 20682 H 3379.4 7.03551 4.13168 0
M  V30 20683 P 3383.36 7.20834 5.23717 0
M  V30 20684 O 3383.58 7.79853 6.57286 0
M  V30 20685 O 3384.15 7.79239 4.12957 0
M  V30 20686 O 3383.61 5.63315 5.29344 0
M  V30 20687 C 3382.67 4.80255 6.01876 0
M  V30 20688 C 3383.4 3.64202 6.65911 0
M  V30 20689 O 3383.61 2.60694 5.64732 0
M  V30 20690 C 3384.8 3.93473 7.1943 0
M  V30 20691 O 3385.19 3.02071 8.21205 0
M  V30 20692 C 3385.68 3.73047 5.97036 0
M  V30 20693 C 3384.97 2.58828 5.25741 0
M  V30 20694 N 3385.02 2.68068 3.77503 0
M  V30 20695 H 3382.18 5.40332 6.79951 0
M  V30 20696 H 3381.91 4.41613 5.32378 0
M  V30 20697 H 3382.78 3.26331 7.47797 0
M  V30 20698 P 3386.74 2.75334 8.47391 0
M  V30 20699 O 3386.96 2.44619 9.90336 0
M  V30 20700 O 3387.53 3.87776 7.92294 0
M  V30 20701 O 3386.99 1.4459 7.59357 0
M  V30 20702 C 3386.05 0.347653 7.69315 0
M  V30 20703 C 3386.78 -0.96767 7.52806 0
M  V30 20704 O 3386.99 -1.21055 6.10208 0
M  V30 20705 C 3388.18 -1.04557 8.13408 0
M  V30 20706 O 3388.57 -2.38311 8.41922 0
M  V30 20707 C 3389.06 -0.491279 7.02284 0
M  V30 20708 C 3388.35 -0.996264 5.77469 0
M  V30 20709 N 3388.4 -0.0501916 4.62973 0
M  V30 20710 H 3385.56 0.374765 8.67791 0
M  V30 20711 H 3385.29 0.443613 6.90476 0
M  V30 20712 H 3386.16 -1.75559 7.96891 0
M  V30 20713 H 3388.81 -1.94563 5.46818 0
M  V30 20714 H 3389.09 0.608651 7.04676 0
M  V30 20715 H 3390.08 -0.889796 7.09039 0
M  V30 20716 H 3388.25 -0.433128 9.04664 0
M  V30 20717 P 3390.12 -2.75334 8.47391 0
M  V30 20718 O 3390.34 -3.84128 9.44797 0
M  V30 20719 O 3390.91 -1.51947 8.68712 0
M  V30 20720 O 3390.37 -3.29363 6.99321 0
M  V30 20721 C 3389.43 -4.24011 6.4274 0
M  V30 20722 C 3390.16 -5.20775 5.52155 0
M  V30 20723 O 3390.37 -4.56534 4.22446 0
M  V30 20724 C 3391.56 -5.62629 5.96531 0
M  V30 20725 O 3391.95 -6.87667 5.41053 0
M  V30 20726 C 3392.44 -4.52537 5.39283 0
M  V30 20727 C 3391.73 -4.20027 4.08623 0
M  V30 20728 N 3391.78 -2.76189 3.71603 0
M  V30 20729 H 3388.94 -4.797 7.24003 0
M  V30 20730 H 3388.67 -3.69856 5.84513 0
M  V30 20731 H 3389.54 -6.10356 5.41441 0
M  V30 20732 P 3393.5 -7.20834 5.23717 0
M  V30 20733 O 3393.72 -8.66274 5.38678 0
M  V30 20734 O 3394.29 -6.33687 6.13629 0
M  V30 20735 O 3393.75 -6.7751 3.72168 0
M  V30 20736 C 3392.81 -7.20919 2.70795 0
M  V30 20737 C 3393.54 -7.45864 1.40599 0
M  V30 20738 O 3393.75 -6.17751 0.734343 0
M  V30 20739 C 3394.94 -8.05906 1.51917 0
M  V30 20740 O 3395.33 -8.74358 0.335205 0
M  V30 20741 C 3395.82 -6.83093 1.70294 0
M  V30 20742 C 3395.11 -5.79992 0.836974 0
M  V30 20743 N 3395.16 -4.41864 1.38293 0
M  V30 20744 C 3395.08 -4.02089 2.69407 0
M  V30 20745 N 3395.15 -2.73403 2.85089 0
M  V30 20746 C 3395.3 -2.25086 1.5642 0
M  V30 20747 C 3395.43 -0.942887 1.04836 0
M  V30 20748 N 3395.44 0.150999 1.80369 0
M  V30 20749 N 3395.55 -0.812565 -0.28167 0
M  V30 20750 C 3395.54 -1.90572 -1.03784 0
M  V30 20751 N 3395.42 -3.167 -0.683905 0
M  V30 20752 C 3395.3 -3.26538 0.652815 0
M  V30 20753 H 3392.32 -8.13738 3.03804 0
M  V30 20754 H 3392.05 -6.42974 2.55559 0
M  V30 20755 H 3392.92 -8.12139 0.792866 0
M  V30 20756 H 3395.57 -5.80178 -0.160643 0
M  V30 20757 H 3395.85 -6.51379 2.75643 0
M  V30 20758 H 3396.84 -7.01832 1.3448 0
M  V30 20759 H 3395.01 -8.73771 2.38364 0
M  V30 20760 H 3394.97 -4.7189 3.52311 0
M  V30 20761 H 3395.35 0.0721434 2.82608 0
M  V30 20762 H 3395.54 1.0785 1.36544 0
M  V30 20763 H 3395.65 -1.73207 -2.10241 0
M  V30 20764 P 3396.88 -8.91 1.21615e-10 0
M  V30 20765 O 3397.1 -10.1726 -0.733694 0
M  V30 20766 O 3397.67 -8.73148 1.23936 0
M  V30 20767 O 3397.13 -7.66872 -0.971405 0
M  V30 20768 C 3396.19 -7.42309 -2.04641 0
M  V30 20769 C 3396.92 -6.86059 -3.24661 0
M  V30 20770 O 3397.13 -5.42847 -3.03646 0
M  V30 20771 C 3398.32 -7.41196 -3.50753 0
M  V30 20772 O 3398.71 -7.27073 -4.86816 0
M  V30 20773 C 3399.2 -6.5273 -2.63741 0
M  V30 20774 C 3398.49 -5.1842 -2.73198 0
M  V30 20775 N 3398.54 -4.38762 -1.4784 0
M  V30 20776 C 3398.46 -4.81605 -0.168631 0
M  V30 20777 N 3398.54 -3.85454 0.713363 0
M  V30 20778 C 3398.68 -2.6994 -0.0566958 0
M  V30 20779 C 3398.81 -1.34815 0.338502 0
M  V30 20780 N 3398.93 -0.496304 -0.77465 0
M  V30 20781 C 3398.93 -0.908403 -2.09122 0
M  V30 20782 N 3399.06 0.0517805 -3.00955 0
M  V30 20783 N 3398.8 -2.17875 -2.46519 0
M  V30 20784 C 3398.68 -3.01988 -1.4033 0
M  V30 20785 H 3395.7 -8.36803 -2.32493 0
M  V30 20786 H 3395.43 -6.70197 -1.71129 0
M  V30 20787 H 3396.3 -7.03551 -4.13168 0
M  V30 20788 P 3400.26 -7.20834 -5.23717 0
M  V30 20789 O 3400.48 -7.79853 -6.57286 0
M  V30 20790 O 3401.05 -7.79239 -4.12957 0
M  V30 20791 O 3400.51 -5.63315 -5.29344 0
M  V30 20792 C 3399.57 -4.80255 -6.01876 0
M  V30 20793 C 3400.3 -3.64202 -6.65911 0
M  V30 20794 O 3400.51 -2.60694 -5.64732 0
M  V30 20795 C 3401.7 -3.93473 -7.1943 0
M  V30 20796 O 3402.09 -3.02071 -8.21205 0
M  V30 20797 C 3402.58 -3.73047 -5.97036 0
M  V30 20798 C 3401.87 -2.58828 -5.25741 0
M  V30 20799 N 3401.92 -2.68068 -3.77503 0
M  V30 20800 H 3399.08 -5.40332 -6.79951 0
M  V30 20801 H 3398.81 -4.41613 -5.32378 0
M  V30 20802 H 3399.68 -3.26331 -7.47797 0
M  V30 20803 P 3403.64 -2.75334 -8.47391 0
M  V30 20804 O 3403.86 -2.44571 -9.90142 0
M  V30 20805 O 3404.43 -3.87688 -7.92115 0
M  V30 20806 O 3403.89 -1.4459 -7.59357 0
M  V30 20807 C 3402.95 -0.347608 -7.69215 0
M  V30 20808 C 3403.68 0.96767 -7.52806 0
M  V30 20809 O 3403.89 1.21036 -6.1011 0
M  V30 20810 C 3405.08 1.04544 -8.13308 0
M  V30 20811 O 3405.47 2.38311 -8.41922 0
M  V30 20812 C 3405.96 0.491279 -7.02284 0
M  V30 20813 C 3405.25 0.996264 -5.77469 0
M  V30 20814 N 3405.3 0.0501916 -4.62973 0
M  V30 20815 H 3402.46 -0.374722 -8.67691 0
M  V30 20816 H 3402.19 -0.443485 -6.90277 0
M  V30 20817 H 3403.06 1.75537 -7.96793 0
M  V30 20818 P 3407.02 2.75334 -8.47391 0
M  V30 20819 O 3407.24 3.84128 -9.44797 0
M  V30 20820 O 3407.81 1.51947 -8.68712 0
M  V30 20821 O 3407.27 3.29363 -6.99321 0
M  V30 20822 C 3406.33 4.24011 -6.4274 0
M  V30 20823 C 3407.06 5.20775 -5.52155 0
M  V30 20824 O 3407.27 4.56534 -4.22446 0
M  V30 20825 C 3408.46 5.62629 -5.96531 0
M  V30 20826 O 3408.85 6.87667 -5.41053 0
M  V30 20827 C 3409.34 4.52537 -5.39283 0
M  V30 20828 C 3408.63 4.20027 -4.08623 0
M  V30 20829 N 3408.68 2.76189 -3.71603 0
M  V30 20830 H 3405.84 4.797 -7.24003 0
M  V30 20831 H 3405.57 3.69856 -5.84513 0
M  V30 20832 H 3406.44 6.10356 -5.41441 0
M  V30 20833 P 3410.4 7.20834 -5.23717 0
M  V30 20834 O 3410.62 8.66104 -5.38572 0
M  V30 20835 O 3411.19 6.33544 -6.1349 0
M  V30 20836 O 3410.65 6.7751 -3.72168 0
M  V30 20837 C 3409.71 7.20825 -2.7076 0
M  V30 20838 C 3410.44 7.45864 -1.40599 0
M  V30 20839 O 3410.65 6.17651 -0.734225 0
M  V30 20840 C 3411.84 8.05808 -1.51899 0
M  V30 20841 O 3412.23 8.74358 -0.335205 0
M  V30 20842 C 3412.72 6.83093 -1.70294 0
M  V30 20843 C 3412.01 5.79992 -0.836974 0
M  V30 20844 N 3412.06 4.41864 -1.38293 0
M  V30 20845 H 3409.22 8.13644 -3.0377 0
M  V30 20846 H 3408.95 6.42788 -2.55485 0
M  V30 20847 H 3409.82 8.12039 -0.792769 0
M  V30 20848 P 3413.78 8.91 -1.22724e-10 0
M  V30 20849 O 3414 10.1726 0.733694 0
M  V30 20850 O 3414.57 8.73148 -1.23936 0
M  V30 20851 O 3414.03 7.66872 0.971405 0
M  V30 20852 C 3413.09 7.42309 2.04641 0
M  V30 20853 C 3413.82 6.86059 3.24661 0
M  V30 20854 O 3414.03 5.42847 3.03646 0
M  V30 20855 C 3415.22 7.41196 3.50753 0
M  V30 20856 O 3415.61 7.27073 4.86816 0
M  V30 20857 C 3416.1 6.5273 2.63741 0
M  V30 20858 C 3415.39 5.1842 2.73198 0
M  V30 20859 N 3415.44 4.38762 1.4784 0
M  V30 20860 C 3415.36 4.81605 0.168631 0
M  V30 20861 N 3415.44 3.85454 -0.713363 0
M  V30 20862 C 3415.58 2.6994 0.0566958 0
M  V30 20863 C 3415.71 1.34815 -0.338502 0
M  V30 20864 O 3415.73 0.869548 -1.47125 0
M  V30 20865 N 3415.83 0.496304 0.77465 0
M  V30 20866 C 3415.83 0.908403 2.09122 0
M  V30 20867 N 3415.96 -0.0517805 3.00955 0
M  V30 20868 N 3415.7 2.17875 2.46519 0
M  V30 20869 C 3415.58 3.01988 1.4033 0
M  V30 20870 H 3412.6 8.36803 2.32493 0
M  V30 20871 H 3412.33 6.70197 1.71129 0
M  V30 20872 H 3413.2 7.03551 4.13168 0
M  V30 20873 H 3415.85 4.59498 3.54415 0
M  V30 20874 H 3416.13 6.88898 1.59848 0
M  V30 20875 H 3417.12 6.46749 3.03687 0
M  V30 20876 H 3415.29 8.46908 3.20714 0
M  V30 20877 H 3415.24 5.86405 -0.105564 0
M  V30 20878 H 3415.92 -0.483664 0.597855 0
M  V30 20879 H 3415.96 0.187865 4.0116 0
M  V30 20880 H 3416.06 -1.03585 2.71726 0
M  V30 20881 P 3417.16 7.20834 5.23717 0
M  V30 20882 O 3417.38 7.79853 6.57286 0
M  V30 20883 O 3417.95 7.79239 4.12957 0
M  V30 20884 O 3417.41 5.63315 5.29344 0
M  V30 20885 C 3416.47 4.80255 6.01876 0
M  V30 20886 C 3417.2 3.64202 6.65911 0
M  V30 20887 O 3417.41 2.60694 5.64732 0
M  V30 20888 C 3418.6 3.93473 7.1943 0
M  V30 20889 O 3418.99 3.02071 8.21205 0
M  V30 20890 C 3419.48 3.73047 5.97036 0
M  V30 20891 C 3418.77 2.58828 5.25741 0
M  V30 20892 N 3418.82 2.68068 3.77503 0
M  V30 20893 H 3415.98 5.40332 6.79951 0
M  V30 20894 H 3415.71 4.41613 5.32378 0
M  V30 20895 H 3416.58 3.26331 7.47797 0
M  V30 20896 P 3420.54 2.75334 8.47391 0
M  V30 20897 O 3420.76 2.44571 9.90142 0
M  V30 20898 O 3421.33 3.87688 7.92115 0
M  V30 20899 O 3420.79 1.4459 7.59357 0
M  V30 20900 C 3419.85 0.347608 7.69215 0
M  V30 20901 C 3420.58 -0.96767 7.52806 0
M  V30 20902 O 3420.79 -1.21036 6.1011 0
M  V30 20903 C 3421.98 -1.04544 8.13308 0
M  V30 20904 O 3422.37 -2.38311 8.41922 0
M  V30 20905 C 3422.86 -0.491279 7.02284 0
M  V30 20906 C 3422.15 -0.996264 5.77469 0
M  V30 20907 N 3422.2 -0.0501916 4.62973 0
M  V30 20908 H 3419.36 0.374722 8.67691 0
M  V30 20909 H 3419.09 0.443485 6.90277 0
M  V30 20910 H 3419.96 -1.75537 7.96793 0
M  V30 20911 P 3423.92 -2.75334 8.47391 0
M  V30 20912 O 3424.14 -3.84204 9.44982 0
M  V30 20913 O 3424.71 -1.51982 8.68909 0
M  V30 20914 O 3424.17 -3.29363 6.99321 0
M  V30 20915 C 3423.23 -4.24066 6.42823 0
M  V30 20916 C 3423.96 -5.20775 5.52155 0
M  V30 20917 O 3424.17 -4.56607 4.22514 0
M  V30 20918 C 3425.36 -5.62697 5.96604 0
M  V30 20919 O 3425.75 -6.87667 5.41053 0
M  V30 20920 C 3426.24 -4.52537 5.39283 0
M  V30 20921 C 3425.53 -4.20027 4.08623 0
M  V30 20922 N 3425.58 -2.76189 3.71603 0
M  V30 20923 C 3425.5 -1.66944 4.54297 0
M  V30 20924 N 3425.57 -0.536169 3.91344 0
M  V30 20925 C 3425.72 -0.901569 2.58849 0
M  V30 20926 C 3425.85 -0.146599 1.40236 0
M  V30 20927 N 3425.86 1.18234 1.37046 0
M  V30 20928 N 3425.97 -0.822941 0.249738 0
M  V30 20929 C 3425.96 -2.15179 0.280525 0
M  V30 20930 N 3425.84 -2.96414 1.30822 0
M  V30 20931 C 3425.72 -2.25804 2.44748 0
M  V30 20932 H 3422.74 -4.79756 7.24086 0
M  V30 20933 H 3422.47 -3.69963 5.84682 0
M  V30 20934 H 3423.34 -6.10431 5.41508 0
M  V30 20935 H 3425.99 -4.78816 3.28024 0
M  V30 20936 H 3426.27 -3.64957 6.05871 0
M  V30 20937 H 3427.26 -4.88748 5.21323 0
M  V30 20938 H 3425.43 -5.66789 7.0643 0
M  V30 20939 H 3425.39 -1.74684 5.62396 0
M  V30 20940 H 3425.77 1.71949 2.24394 0
M  V30 20941 H 3425.96 1.67511 0.470742 0
M  V30 20942 H 3426.07 -2.63704 -0.6828 0
M  V30 20943 P 3427.3 -7.20834 5.23717 0
M  V30 20944 O 3427.52 -8.66104 5.38572 0
M  V30 20945 O 3428.09 -6.33544 6.1349 0
M  V30 20946 O 3427.55 -6.7751 3.72168 0
M  V30 20947 C 3426.61 -7.20825 2.7076 0
M  V30 20948 C 3427.34 -7.45864 1.40599 0
M  V30 20949 O 3427.55 -6.17651 0.734225 0
M  V30 20950 C 3428.74 -8.05808 1.51899 0
M  V30 20951 O 3429.13 -8.74358 0.335205 0
M  V30 20952 C 3429.62 -6.83093 1.70294 0
M  V30 20953 C 3428.91 -5.79992 0.836974 0
M  V30 20954 N 3428.96 -4.41864 1.38293 0
M  V30 20955 H 3426.12 -8.13644 3.0377 0
M  V30 20956 H 3425.85 -6.42788 2.55485 0
M  V30 20957 H 3426.72 -8.12039 0.792769 0
M  V30 20958 P 3430.68 -8.91 1.23833e-10 0
M  V30 20959 O 3430.9 -10.1726 -0.733694 0
M  V30 20960 O 3431.47 -8.73148 1.23936 0
M  V30 20961 O 3430.93 -7.66872 -0.971405 0
M  V30 20962 C 3429.99 -7.42309 -2.04641 0
M  V30 20963 C 3430.72 -6.86059 -3.24661 0
M  V30 20964 O 3430.93 -5.42847 -3.03646 0
M  V30 20965 C 3432.12 -7.41196 -3.50753 0
M  V30 20966 O 3432.51 -7.27073 -4.86816 0
M  V30 20967 C 3433 -6.5273 -2.63741 0
M  V30 20968 C 3432.29 -5.1842 -2.73198 0
M  V30 20969 N 3432.34 -4.38762 -1.4784 0
M  V30 20970 C 3432.26 -4.81605 -0.168631 0
M  V30 20971 N 3432.34 -3.85454 0.713363 0
M  V30 20972 C 3432.48 -2.6994 -0.0566958 0
M  V30 20973 C 3432.61 -1.34815 0.338502 0
M  V30 20974 O 3432.63 -0.869548 1.47125 0
M  V30 20975 N 3432.73 -0.496304 -0.77465 0
M  V30 20976 C 3432.73 -0.908403 -2.09122 0
M  V30 20977 N 3432.86 0.0517805 -3.00955 0
M  V30 20978 N 3432.6 -2.17875 -2.46519 0
M  V30 20979 C 3432.48 -3.01988 -1.4033 0
M  V30 20980 H 3429.5 -8.36803 -2.32493 0
M  V30 20981 H 3429.23 -6.70197 -1.71129 0
M  V30 20982 H 3430.1 -7.03551 -4.13168 0
M  V30 20983 H 3432.75 -4.59498 -3.54415 0
M  V30 20984 H 3433.03 -6.88898 -1.59848 0
M  V30 20985 H 3434.02 -6.46749 -3.03687 0
M  V30 20986 H 3432.19 -8.46908 -3.20714 0
M  V30 20987 H 3432.14 -5.86405 0.105564 0
M  V30 20988 H 3432.82 0.483664 -0.597855 0
M  V30 20989 H 3432.86 -0.187865 -4.0116 0
M  V30 20990 H 3432.96 1.03585 -2.71726 0
M  V30 20991 P 3434.06 -7.20834 -5.23717 0
M  V30 20992 O 3434.28 -7.80006 -6.57415 0
M  V30 20993 O 3434.85 -7.79416 -4.13051 0
M  V30 20994 O 3434.31 -5.63315 -5.29344 0
M  V30 20995 C 3433.37 -4.80318 -6.01954 0
M  V30 20996 C 3434.1 -3.64202 -6.65911 0
M  V30 20997 O 3434.31 -2.60736 -5.64823 0
M  V30 20998 C 3435.5 -3.93521 -7.19518 0
M  V30 20999 O 3435.89 -3.02071 -8.21205 0
M  V30 21000 C 3436.38 -3.73047 -5.97036 0
M  V30 21001 C 3435.67 -2.58828 -5.25741 0
M  V30 21002 N 3435.72 -2.68068 -3.77503 0
M  V30 21003 C 3435.64 -3.80474 -2.99159 0
M  V30 21004 N 3435.71 -3.55622 -1.71925 0
M  V30 21005 C 3435.86 -2.1832 -1.65733 0
M  V30 21006 C 3435.99 -1.28842 -0.572777 0
M  V30 21007 N 3436 -1.66875 0.70098 0
M  V30 21008 N 3436.11 0.016788 -0.859836 0
M  V30 21009 C 3436.1 0.398145 -2.13316 0
M  V30 21010 N 3435.98 -0.328224 -3.22333 0
M  V30 21011 C 3435.86 -1.62992 -2.90383 0
M  V30 21012 H 3432.88 -5.40394 -6.8003 0
M  V30 21013 H 3432.61 -4.41741 -5.32532 0
M  V30 21014 H 3433.48 -3.26371 -7.47889 0
M  V30 21015 H 3436.13 -1.64007 -5.56746 0
M  V30 21016 H 3436.41 -4.63439 -5.3432 0
M  V30 21017 H 3437.4 -3.44776 -6.25925 0
M  V30 21018 H 3435.57 -4.96707 -7.57347 0
M  V30 21019 H 3435.53 -4.8089 -3.39924 0
M  V30 21020 H 3435.91 -2.66547 0.941919 0
M  V30 21021 H 3436.1 -0.965341 1.44766 0
M  V30 21022 H 3436.21 1.46427 -2.29697 0
M  V30 21023 P 3437.44 -2.75334 -8.47391 0
M  V30 21024 O 3437.66 -2.44571 -9.90142 0
M  V30 21025 O 3438.23 -3.87688 -7.92115 0
M  V30 21026 O 3437.69 -1.4459 -7.59357 0
M  V30 21027 C 3436.75 -0.347608 -7.69215 0
M  V30 21028 C 3437.48 0.96767 -7.52806 0
M  V30 21029 O 3437.69 1.21036 -6.1011 0
M  V30 21030 C 3438.88 1.04544 -8.13308 0
M  V30 21031 O 3439.27 2.38311 -8.41922 0
M  V30 21032 C 3439.76 0.491279 -7.02284 0
M  V30 21033 C 3439.05 0.996264 -5.77469 0
M  V30 21034 N 3439.1 0.0501916 -4.62973 0
M  V30 21035 H 3436.26 -0.374722 -8.67691 0
M  V30 21036 H 3435.99 -0.443485 -6.90277 0
M  V30 21037 H 3436.86 1.75537 -7.96793 0
M  V30 21038 P 3440.82 2.75334 -8.47391 0
M  V30 21039 O 3441.04 3.84128 -9.44797 0
M  V30 21040 O 3441.61 1.51947 -8.68712 0
M  V30 21041 O 3441.07 3.29363 -6.99321 0
M  V30 21042 C 3440.13 4.24011 -6.4274 0
M  V30 21043 C 3440.86 5.20775 -5.52155 0
M  V30 21044 O 3441.07 4.56534 -4.22446 0
M  V30 21045 C 3442.26 5.62629 -5.96531 0
M  V30 21046 O 3442.65 6.87667 -5.41053 0
M  V30 21047 C 3443.14 4.52537 -5.39283 0
M  V30 21048 C 3442.43 4.20027 -4.08623 0
M  V30 21049 N 3442.48 2.76189 -3.71603 0
M  V30 21050 H 3439.64 4.797 -7.24003 0
M  V30 21051 H 3439.37 3.69856 -5.84513 0
M  V30 21052 H 3440.24 6.10356 -5.41441 0
M  V30 21053 P 3444.2 7.20834 -5.23717 0
M  V30 21054 O 3444.42 8.66104 -5.38572 0
M  V30 21055 O 3444.99 6.33544 -6.1349 0
M  V30 21056 O 3444.45 6.7751 -3.72168 0
M  V30 21057 C 3443.51 7.20825 -2.7076 0
M  V30 21058 C 3444.24 7.45864 -1.40599 0
M  V30 21059 O 3444.45 6.17651 -0.734225 0
M  V30 21060 C 3445.64 8.05808 -1.51899 0
M  V30 21061 O 3446.03 8.74358 -0.335205 0
M  V30 21062 C 3446.52 6.83093 -1.70294 0
M  V30 21063 C 3445.81 5.79992 -0.836974 0
M  V30 21064 N 3445.86 4.41864 -1.38293 0
M  V30 21065 H 3443.02 8.13644 -3.0377 0
M  V30 21066 H 3442.75 6.42788 -2.55485 0
M  V30 21067 H 3443.62 8.12039 -0.792769 0
M  V30 21068 P 3447.58 8.91 -1.24942e-10 0
M  V30 21069 O 3447.8 10.1726 0.733694 0
M  V30 21070 O 3448.37 8.73148 -1.23936 0
M  V30 21071 O 3447.83 7.66872 0.971405 0
M  V30 21072 C 3446.89 7.42309 2.04641 0
M  V30 21073 C 3447.62 6.86059 3.24661 0
M  V30 21074 O 3447.83 5.42847 3.03646 0
M  V30 21075 C 3449.02 7.41196 3.50753 0
M  V30 21076 O 3449.41 7.27073 4.86816 0
M  V30 21077 C 3449.9 6.5273 2.63741 0
M  V30 21078 C 3449.19 5.1842 2.73198 0
M  V30 21079 N 3449.24 4.38762 1.4784 0
M  V30 21080 H 3446.4 8.36803 2.32493 0
M  V30 21081 H 3446.13 6.70197 1.71129 0
M  V30 21082 H 3447 7.03551 4.13168 0
M  V30 21083 P 3450.96 7.20834 5.23717 0
M  V30 21084 O 3451.18 7.80006 6.57415 0
M  V30 21085 O 3451.75 7.79416 4.13051 0
M  V30 21086 O 3451.21 5.63315 5.29344 0
M  V30 21087 C 3450.27 4.80318 6.01954 0
M  V30 21088 C 3451 3.64202 6.65911 0
M  V30 21089 O 3451.21 2.60736 5.64823 0
M  V30 21090 C 3452.4 3.93521 7.19518 0
M  V30 21091 O 3452.79 3.02071 8.21205 0
M  V30 21092 C 3453.28 3.73047 5.97036 0
M  V30 21093 C 3452.57 2.58828 5.25741 0
M  V30 21094 N 3452.62 2.68068 3.77503 0
M  V30 21095 C 3452.54 3.80474 2.99159 0
M  V30 21096 N 3452.61 3.55622 1.71925 0
M  V30 21097 C 3452.76 2.1832 1.65733 0
M  V30 21098 C 3452.89 1.28842 0.572777 0
M  V30 21099 N 3452.9 1.66875 -0.70098 0
M  V30 21100 N 3453.01 -0.016788 0.859836 0
M  V30 21101 C 3453 -0.398145 2.13316 0
M  V30 21102 N 3452.88 0.328224 3.22333 0
M  V30 21103 C 3452.76 1.62992 2.90383 0
M  V30 21104 H 3449.78 5.40394 6.8003 0
M  V30 21105 H 3449.51 4.41741 5.32532 0
M  V30 21106 H 3450.38 3.26371 7.47889 0
M  V30 21107 H 3453.03 1.64007 5.56746 0
M  V30 21108 H 3453.31 4.63439 5.3432 0
M  V30 21109 H 3454.3 3.44776 6.25925 0
M  V30 21110 H 3452.47 4.96707 7.57347 0
M  V30 21111 H 3452.43 4.8089 3.39924 0
M  V30 21112 H 3452.81 2.66547 -0.941919 0
M  V30 21113 H 3453 0.965341 -1.44766 0
M  V30 21114 H 3453.11 -1.46427 2.29697 0
M  V30 21115 P 3454.34 2.75334 8.47391 0
M  V30 21116 O 3454.56 2.44619 9.90336 0
M  V30 21117 O 3455.13 3.87776 7.92294 0
M  V30 21118 O 3454.59 1.4459 7.59357 0
M  V30 21119 C 3453.65 0.347653 7.69315 0
M  V30 21120 C 3454.38 -0.96767 7.52806 0
M  V30 21121 O 3454.59 -1.21055 6.10208 0
M  V30 21122 C 3455.78 -1.04557 8.13408 0
M  V30 21123 O 3456.17 -2.38311 8.41922 0
M  V30 21124 C 3456.66 -0.491279 7.02284 0
M  V30 21125 C 3455.95 -0.996264 5.77469 0
M  V30 21126 N 3456 -0.0501916 4.62973 0
M  V30 21127 H 3453.16 0.374765 8.67791 0
M  V30 21128 H 3452.89 0.443613 6.90476 0
M  V30 21129 H 3453.76 -1.75559 7.96891 0
M  V30 21130 H 3456.41 -1.94563 5.46818 0
M  V30 21131 H 3456.69 0.608651 7.04676 0
M  V30 21132 H 3457.68 -0.889796 7.09039 0
M  V30 21133 H 3455.85 -0.433128 9.04664 0
M  V30 21134 P 3457.72 -2.75334 8.47391 0
M  V30 21135 O 3457.94 -3.84128 9.44797 0
M  V30 21136 O 3458.51 -1.51947 8.68712 0
M  V30 21137 O 3457.97 -3.29363 6.99321 0
M  V30 21138 C 3457.03 -4.24011 6.4274 0
M  V30 21139 C 3457.76 -5.20775 5.52155 0
M  V30 21140 O 3457.97 -4.56534 4.22446 0
M  V30 21141 C 3459.16 -5.62629 5.96531 0
M  V30 21142 O 3459.55 -6.87667 5.41053 0
M  V30 21143 C 3460.04 -4.52537 5.39283 0
M  V30 21144 C 3459.33 -4.20027 4.08623 0
M  V30 21145 N 3459.38 -2.76189 3.71603 0
M  V30 21146 C 3459.3 -1.64862 4.52822 0
M  V30 21147 N 3459.38 -0.512671 3.88633 0
M  V30 21148 C 3459.52 -0.888083 2.54977 0
M  V30 21149 C 3459.65 -0.094668 1.38677 0
M  V30 21150 N 3459.77 -0.890102 0.232633 0
M  V30 21151 C 3459.77 -2.26958 0.21772 0
M  V30 21152 N 3459.9 -2.84626 -0.97925 0
M  V30 21153 N 3459.64 -3.0178 1.31033 0
M  V30 21154 C 3459.52 -2.26781 2.43843 0
M  V30 21155 H 3456.54 -4.797 7.24003 0
M  V30 21156 H 3456.27 -3.69856 5.84513 0
M  V30 21157 H 3457.14 -6.10356 5.41441 0
M  V30 21158 P 3461.1 -7.20834 5.23717 0
M  V30 21159 O 3461.32 -8.66104 5.38572 0
M  V30 21160 O 3461.89 -6.33544 6.1349 0
M  V30 21161 O 3461.35 -6.7751 3.72168 0
M  V30 21162 C 3460.41 -7.20825 2.7076 0
M  V30 21163 C 3461.14 -7.45864 1.40599 0
M  V30 21164 O 3461.35 -6.17651 0.734225 0
M  V30 21165 C 3462.54 -8.05808 1.51899 0
M  V30 21166 O 3462.93 -8.74358 0.335205 0
M  V30 21167 C 3463.42 -6.83093 1.70294 0
M  V30 21168 C 3462.71 -5.79992 0.836974 0
M  V30 21169 N 3462.76 -4.41864 1.38293 0
M  V30 21170 C 3462.68 -3.99538 2.69438 0
M  V30 21171 N 3462.76 -2.69909 2.84277 0
M  V30 21172 C 3462.9 -2.21719 1.5408 0
M  V30 21173 C 3463.03 -0.891712 1.06628 0
M  V30 21174 N 3463.15 -0.856846 -0.334985 0
M  V30 21175 C 3463.15 -1.9641 -1.15789 0
M  V30 21176 N 3463.28 -1.72708 -2.46522 0
M  V30 21177 N 3463.02 -3.21165 -0.713741 0
M  V30 21178 C 3462.9 -3.26797 0.639748 0
M  V30 21179 H 3459.92 -8.13644 3.0377 0
M  V30 21180 H 3459.65 -6.42788 2.55485 0
M  V30 21181 H 3460.52 -8.12039 0.792769 0
M  V30 21182 P 3464.48 -8.91 1.26051e-10 0
M  V30 21183 O 3464.7 -10.1726 -0.733694 0
M  V30 21184 O 3465.27 -8.73148 1.23936 0
M  V30 21185 O 3464.73 -7.66872 -0.971405 0
M  V30 21186 C 3463.79 -7.42309 -2.04641 0
M  V30 21187 C 3464.52 -6.86059 -3.24661 0
M  V30 21188 O 3464.73 -5.42847 -3.03646 0
M  V30 21189 C 3465.92 -7.41196 -3.50753 0
M  V30 21190 O 3466.31 -7.27073 -4.86816 0
M  V30 21191 C 3466.8 -6.5273 -2.63741 0
M  V30 21192 C 3466.09 -5.1842 -2.73198 0
M  V30 21193 N 3466.14 -4.38762 -1.4784 0
M  V30 21194 H 3463.3 -8.36803 -2.32493 0
M  V30 21195 H 3463.03 -6.70197 -1.71129 0
M  V30 21196 H 3463.9 -7.03551 -4.13168 0
M  V30 21197 P 3467.86 -7.20834 -5.23717 0
M  V30 21198 O 3468.08 -7.7993 -6.57351 0
M  V30 21199 O 3468.65 -7.79328 -4.13004 0
M  V30 21200 O 3468.11 -5.63315 -5.29344 0
M  V30 21201 C 3467.17 -4.80193 -6.01798 0
M  V30 21202 C 3467.9 -3.64202 -6.65911 0
M  V30 21203 O 3468.11 -2.60694 -5.64732 0
M  V30 21204 C 3469.3 -3.93473 -7.1943 0
M  V30 21205 O 3469.69 -3.02071 -8.21205 0
M  V30 21206 C 3470.18 -3.73047 -5.97036 0
M  V30 21207 C 3469.47 -2.58828 -5.25741 0
M  V30 21208 N 3469.52 -2.6801 -3.77422 0
M  V30 21209 C 3469.67 -1.50443 -3.07133 0
M  V30 21210 O 3469.76 -0.419406 -3.61576 0
M  V30 21211 N 3469.71 -1.6403 -1.69677 0
M  V30 21212 C 3469.62 -2.81206 -0.986255 0
M  V30 21213 O 3469.67 -2.80892 0.249754 0
M  V30 21214 C 3469.47 -3.99158 -1.80325 0
M  V30 21215 C 3469.36 -5.29309 -1.06921 0
M  V30 21216 C 3469.42 -3.89779 -3.1476 0
M  V30 21217 H 3466.68 -5.40332 -6.79951 0
M  V30 21218 H 3466.41 -4.41549 -5.32301 0
M  V30 21219 H 3467.28 -3.26331 -7.47797 0
M  V30 21220 H 3469.93 -1.6395 -5.56554 0
M  V30 21221 H 3470.21 -4.63439 -5.3432 0
M  V30 21222 H 3471.2 -3.44728 -6.25838 0
M  V30 21223 H 3469.37 -4.96652 -7.57263 0
M  V30 21224 H 3469.3 -4.80159 -3.74441 0
M  V30 21225 H 3470.33 -5.81459 -1.09608 0
M  V30 21226 H 3468.59 -5.9187 -1.54487 0
M  V30 21227 H 3469.08 -5.10095 -0.0220288 0
M  V30 21228 H 3469.82 -0.798962 -1.16664 0
M  V30 21229 P 3471.24 -2.75334 -8.47391 0
M  V30 21230 O 3471.46 -2.44571 -9.90142 0
M  V30 21231 O 3472.03 -3.87688 -7.92115 0
M  V30 21232 O 3471.49 -1.4459 -7.59357 0
M  V30 21233 C 3470.55 -0.347608 -7.69215 0
M  V30 21234 C 3471.28 0.96767 -7.52806 0
M  V30 21235 O 3471.49 1.21036 -6.1011 0
M  V30 21236 C 3472.68 1.04544 -8.13308 0
M  V30 21237 O 3473.07 2.38311 -8.41922 0
M  V30 21238 C 3473.56 0.491279 -7.02284 0
M  V30 21239 C 3472.85 0.996264 -5.77469 0
M  V30 21240 N 3472.9 0.0501916 -4.62973 0
M  V30 21241 H 3470.06 -0.374722 -8.67691 0
M  V30 21242 H 3469.79 -0.443485 -6.90277 0
M  V30 21243 H 3470.66 1.75537 -7.96793 0
M  V30 21244 P 3474.62 2.75334 -8.47391 0
M  V30 21245 O 3474.84 3.84128 -9.44797 0
M  V30 21246 O 3475.41 1.51947 -8.68712 0
M  V30 21247 O 3474.87 3.29363 -6.99321 0
M  V30 21248 C 3473.93 4.24011 -6.4274 0
M  V30 21249 C 3474.66 5.20775 -5.52155 0
M  V30 21250 O 3474.87 4.56534 -4.22446 0
M  V30 21251 C 3476.06 5.62629 -5.96531 0
M  V30 21252 O 3476.45 6.87667 -5.41053 0
M  V30 21253 C 3476.94 4.52537 -5.39283 0
M  V30 21254 C 3476.23 4.20027 -4.08623 0
M  V30 21255 N 3476.28 2.76189 -3.71603 0
M  V30 21256 H 3473.44 4.797 -7.24003 0
M  V30 21257 H 3473.17 3.69856 -5.84513 0
M  V30 21258 H 3474.04 6.10356 -5.41441 0
M  V30 21259 P 3478 7.20834 -5.23717 0
M  V30 21260 O 3478.22 8.66104 -5.38572 0
M  V30 21261 O 3478.79 6.33544 -6.1349 0
M  V30 21262 O 3478.25 6.7751 -3.72168 0
M  V30 21263 C 3477.31 7.20825 -2.7076 0
M  V30 21264 C 3478.04 7.45864 -1.40599 0
M  V30 21265 O 3478.25 6.17651 -0.734225 0
M  V30 21266 C 3479.44 8.05808 -1.51899 0
M  V30 21267 O 3479.83 8.74358 -0.335205 0
M  V30 21268 C 3480.32 6.83093 -1.70294 0
M  V30 21269 C 3479.61 5.79992 -0.836974 0
M  V30 21270 N 3479.66 4.41864 -1.38293 0
M  V30 21271 H 3476.82 8.13644 -3.0377 0
M  V30 21272 H 3476.55 6.42788 -2.55485 0
M  V30 21273 H 3477.42 8.12039 -0.792769 0
M  V30 21274 P 3481.38 8.91 -1.2716e-10 0
M  V30 21275 O 3481.6 10.1726 0.733694 0
M  V30 21276 O 3482.17 8.73148 -1.23936 0
M  V30 21277 O 3481.63 7.66872 0.971405 0
M  V30 21278 C 3480.69 7.42309 2.04641 0
M  V30 21279 C 3481.42 6.86059 3.24661 0
M  V30 21280 O 3481.63 5.42847 3.03646 0
M  V30 21281 C 3482.82 7.41196 3.50753 0
M  V30 21282 O 3483.21 7.27073 4.86816 0
M  V30 21283 C 3483.7 6.5273 2.63741 0
M  V30 21284 C 3482.99 5.1842 2.73198 0
M  V30 21285 N 3483.04 4.38762 1.4784 0
M  V30 21286 C 3482.96 4.81605 0.168631 0
M  V30 21287 N 3483.04 3.85454 -0.713363 0
M  V30 21288 C 3483.18 2.6994 0.0566958 0
M  V30 21289 C 3483.31 1.34815 -0.338502 0
M  V30 21290 N 3483.43 0.496304 0.77465 0
M  V30 21291 C 3483.43 0.908403 2.09122 0
M  V30 21292 N 3483.56 -0.0517805 3.00955 0
M  V30 21293 N 3483.3 2.17875 2.46519 0
M  V30 21294 C 3483.18 3.01988 1.4033 0
M  V30 21295 H 3480.2 8.36803 2.32493 0
M  V30 21296 H 3479.93 6.70197 1.71129 0
M  V30 21297 H 3480.8 7.03551 4.13168 0
M  V30 21298 P 3484.76 7.20834 5.23717 0
M  V30 21299 O 3484.98 7.79853 6.57286 0
M  V30 21300 O 3485.55 7.79239 4.12957 0
M  V30 21301 O 3485.01 5.63315 5.29344 0
M  V30 21302 C 3484.07 4.80255 6.01876 0
M  V30 21303 C 3484.8 3.64202 6.65911 0
M  V30 21304 O 3485.01 2.60694 5.64732 0
M  V30 21305 C 3486.2 3.93473 7.1943 0
M  V30 21306 O 3486.59 3.02071 8.21205 0
M  V30 21307 C 3487.08 3.73047 5.97036 0
M  V30 21308 C 3486.37 2.58828 5.25741 0
M  V30 21309 N 3486.42 2.68068 3.77503 0
M  V30 21310 H 3483.58 5.40332 6.79951 0
M  V30 21311 H 3483.31 4.41613 5.32378 0
M  V30 21312 H 3484.18 3.26331 7.47797 0
M  V30 21313 P 3488.14 2.75334 8.47391 0
M  V30 21314 O 3488.36 2.44571 9.90142 0
M  V30 21315 O 3488.93 3.87688 7.92115 0
M  V30 21316 O 3488.39 1.4459 7.59357 0
M  V30 21317 C 3487.45 0.347608 7.69215 0
M  V30 21318 C 3488.18 -0.96767 7.52806 0
M  V30 21319 O 3488.39 -1.21036 6.1011 0
M  V30 21320 C 3489.58 -1.04544 8.13308 0
M  V30 21321 O 3489.97 -2.38311 8.41922 0
M  V30 21322 C 3490.46 -0.491279 7.02284 0
M  V30 21323 C 3489.75 -0.996264 5.77469 0
M  V30 21324 N 3489.8 -0.0501916 4.62973 0
M  V30 21325 H 3486.96 0.374722 8.67691 0
M  V30 21326 H 3486.69 0.443485 6.90277 0
M  V30 21327 H 3487.56 -1.75537 7.96793 0
M  V30 21328 P 3491.52 -2.75334 8.47391 0
M  V30 21329 O 3491.74 -3.84128 9.44797 0
M  V30 21330 O 3492.31 -1.51947 8.68712 0
M  V30 21331 O 3491.77 -3.29363 6.99321 0
M  V30 21332 C 3490.83 -4.24011 6.4274 0
M  V30 21333 C 3491.56 -5.20775 5.52155 0
M  V30 21334 O 3491.77 -4.56534 4.22446 0
M  V30 21335 C 3492.96 -5.62629 5.96531 0
M  V30 21336 O 3493.35 -6.87667 5.41053 0
M  V30 21337 C 3493.84 -4.52537 5.39283 0
M  V30 21338 C 3493.13 -4.20027 4.08623 0
M  V30 21339 N 3493.18 -2.76189 3.71603 0
M  V30 21340 H 3490.34 -4.797 7.24003 0
M  V30 21341 H 3490.07 -3.69856 5.84513 0
M  V30 21342 H 3490.94 -6.10356 5.41441 0
M  V30 21343 P 3494.9 -7.20834 5.23717 0
M  V30 21344 O 3495.12 -8.66104 5.38572 0
M  V30 21345 O 3495.69 -6.33544 6.1349 0
M  V30 21346 O 3495.15 -6.7751 3.72168 0
M  V30 21347 C 3494.21 -7.20825 2.7076 0
M  V30 21348 C 3494.94 -7.45864 1.40599 0
M  V30 21349 O 3495.15 -6.17651 0.734225 0
M  V30 21350 C 3496.34 -8.05808 1.51899 0
M  V30 21351 O 3496.73 -8.74358 0.335205 0
M  V30 21352 C 3497.22 -6.83093 1.70294 0
M  V30 21353 C 3496.51 -5.79992 0.836974 0
M  V30 21354 N 3496.56 -4.41864 1.38293 0
M  V30 21355 H 3493.72 -8.13644 3.0377 0
M  V30 21356 H 3493.45 -6.42788 2.55485 0
M  V30 21357 H 3494.32 -8.12039 0.792769 0
M  V30 21358 P 3498.28 -8.91 1.28269e-10 0
M  V30 21359 O 3498.5 -10.1726 -0.733694 0
M  V30 21360 O 3499.07 -8.73148 1.23936 0
M  V30 21361 O 3498.53 -7.66872 -0.971405 0
M  V30 21362 C 3497.59 -7.42309 -2.04641 0
M  V30 21363 C 3498.32 -6.86059 -3.24661 0
M  V30 21364 O 3498.53 -5.42847 -3.03646 0
M  V30 21365 C 3499.72 -7.41196 -3.50753 0
M  V30 21366 O 3500.11 -7.27073 -4.86816 0
M  V30 21367 C 3500.6 -6.5273 -2.63741 0
M  V30 21368 C 3499.89 -5.1842 -2.73198 0
M  V30 21369 N 3499.94 -4.38762 -1.4784 0
M  V30 21370 H 3497.1 -8.36803 -2.32493 0
M  V30 21371 H 3496.83 -6.70197 -1.71129 0
M  V30 21372 H 3497.7 -7.03551 -4.13168 0
M  V30 21373 P 3501.66 -7.20834 -5.23717 0
M  V30 21374 O 3501.88 -7.79853 -6.57286 0
M  V30 21375 O 3502.45 -7.79239 -4.12957 0
M  V30 21376 O 3501.91 -5.63315 -5.29344 0
M  V30 21377 C 3500.97 -4.80255 -6.01876 0
M  V30 21378 C 3501.7 -3.64202 -6.65911 0
M  V30 21379 O 3501.91 -2.60694 -5.64732 0
M  V30 21380 C 3503.1 -3.93473 -7.1943 0
M  V30 21381 O 3503.49 -3.02071 -8.21205 0
M  V30 21382 C 3503.98 -3.73047 -5.97036 0
M  V30 21383 C 3503.27 -2.58828 -5.25741 0
M  V30 21384 N 3503.32 -2.68068 -3.77503 0
M  V30 21385 H 3500.48 -5.40332 -6.79951 0
M  V30 21386 H 3500.21 -4.41613 -5.32378 0
M  V30 21387 H 3501.08 -3.26331 -7.47797 0
M  V30 21388 P 3505.04 -2.75334 -8.47391 0
M  V30 21389 O 3505.26 -2.44571 -9.90142 0
M  V30 21390 O 3505.83 -3.87688 -7.92115 0
M  V30 21391 O 3505.29 -1.4459 -7.59357 0
M  V30 21392 C 3504.35 -0.347608 -7.69215 0
M  V30 21393 C 3505.08 0.96767 -7.52806 0
M  V30 21394 O 3505.29 1.21036 -6.1011 0
M  V30 21395 C 3506.48 1.04544 -8.13308 0
M  V30 21396 O 3506.87 2.38311 -8.41922 0
M  V30 21397 C 3507.36 0.491279 -7.02284 0
M  V30 21398 C 3506.65 0.996264 -5.77469 0
M  V30 21399 N 3506.7 0.0501916 -4.62973 0
M  V30 21400 H 3503.86 -0.374722 -8.67691 0
M  V30 21401 H 3503.59 -0.443485 -6.90277 0
M  V30 21402 H 3504.46 1.75537 -7.96793 0
M  V30 21403 P 3508.42 2.75334 -8.47391 0
M  V30 21404 O 3508.64 3.84166 -9.4489 0
M  V30 21405 O 3509.21 1.51964 -8.6881 0
M  V30 21406 O 3508.67 3.29363 -6.99321 0
M  V30 21407 C 3507.73 4.23956 -6.42656 0
M  V30 21408 C 3508.46 5.20775 -5.52155 0
M  V30 21409 O 3508.67 4.56534 -4.22446 0
M  V30 21410 C 3509.86 5.62629 -5.96531 0
M  V30 21411 O 3510.25 6.87667 -5.41053 0
M  V30 21412 C 3510.74 4.52537 -5.39283 0
M  V30 21413 C 3510.03 4.20027 -4.08623 0
M  V30 21414 N 3510.08 2.7613 -3.71522 0
M  V30 21415 C 3510.23 2.45612 -2.37989 0
M  V30 21416 O 3510.32 3.30919 -1.51621 0
M  V30 21417 N 3510.27 1.10684 -2.08435 0
M  V30 21418 C 3510.18 0.0690084 -2.9792 0
M  V30 21419 O 3510.23 -1.10553 -2.59426 0
M  V30 21420 C 3510.03 0.481522 -4.35345 0
M  V30 21421 C 3509.92 -0.618778 -5.36443 0
M  V30 21422 C 3509.98 1.78906 -4.67968 0
M  V30 21423 H 3507.24 4.797 -7.24003 0
M  V30 21424 H 3506.97 3.69802 -5.84429 0
M  V30 21425 H 3507.84 6.10356 -5.41441 0
M  V30 21426 H 3510.49 4.78651 -3.27911 0
M  V30 21427 H 3510.77 3.64957 -6.05871 0
M  V30 21428 H 3511.76 4.8868 -5.2125 0
M  V30 21429 H 3509.93 5.66726 -7.06352 0
M  V30 21430 H 3509.86 2.07737 -5.72367 0
M  V30 21431 H 3510.89 -0.754375 -5.86871 0
M  V30 21432 H 3509.15 -0.359721 -6.10641 0
M  V30 21433 H 3509.64 -1.55533 -4.8581 0
M  V30 21434 H 3510.38 0.862651 -1.12037 0
M  V30 21435 P 3511.8 7.20834 -5.23717 0
M  V30 21436 O 3512.02 8.66274 -5.38678 0
M  V30 21437 O 3512.59 6.33687 -6.13629 0
M  V30 21438 O 3512.05 6.7751 -3.72168 0
M  V30 21439 C 3511.11 7.20919 -2.70795 0
M  V30 21440 C 3511.84 7.45864 -1.40599 0
M  V30 21441 O 3512.05 6.17751 -0.734343 0
M  V30 21442 C 3513.24 8.05906 -1.51917 0
M  V30 21443 O 3513.63 8.74358 -0.335205 0
M  V30 21444 C 3514.12 6.83093 -1.70294 0
M  V30 21445 C 3513.41 5.79992 -0.836974 0
M  V30 21446 N 3513.46 4.41864 -1.38293 0
M  V30 21447 C 3513.38 4.02089 -2.69407 0
M  V30 21448 N 3513.45 2.73403 -2.85089 0
M  V30 21449 C 3513.6 2.25086 -1.5642 0
M  V30 21450 C 3513.73 0.942887 -1.04836 0
M  V30 21451 N 3513.74 -0.150999 -1.80369 0
M  V30 21452 N 3513.85 0.812565 0.28167 0
M  V30 21453 C 3513.84 1.90572 1.03784 0
M  V30 21454 N 3513.72 3.167 0.683905 0
M  V30 21455 C 3513.6 3.26538 -0.652815 0
M  V30 21456 H 3510.62 8.13738 -3.03804 0
M  V30 21457 H 3510.35 6.42974 -2.55559 0
M  V30 21458 H 3511.22 8.12139 -0.792866 0
M  V30 21459 H 3513.87 5.80178 0.160643 0
M  V30 21460 H 3514.15 6.51379 -2.75643 0
M  V30 21461 H 3515.14 7.01832 -1.3448 0
M  V30 21462 H 3513.31 8.73771 -2.38364 0
M  V30 21463 H 3513.27 4.7189 -3.52311 0
M  V30 21464 H 3513.65 -0.0721434 -2.82608 0
M  V30 21465 H 3513.84 -1.0785 -1.36544 0
M  V30 21466 H 3513.95 1.73207 2.10241 0
M  V30 21467 P 3515.18 8.91 -1.29378e-10 0
M  V30 21468 O 3515.4 10.1726 0.733694 0
M  V30 21469 O 3515.97 8.73148 -1.23936 0
M  V30 21470 O 3515.43 7.66872 0.971405 0
M  V30 21471 C 3514.49 7.42309 2.04641 0
M  V30 21472 C 3515.22 6.86059 3.24661 0
M  V30 21473 O 3515.43 5.42847 3.03646 0
M  V30 21474 C 3516.62 7.41196 3.50753 0
M  V30 21475 O 3517.01 7.27073 4.86816 0
M  V30 21476 C 3517.5 6.5273 2.63741 0
M  V30 21477 C 3516.79 5.1842 2.73198 0
M  V30 21478 N 3516.84 4.38762 1.4784 0
M  V30 21479 H 3514 8.36803 2.32493 0
M  V30 21480 H 3513.73 6.70197 1.71129 0
M  V30 21481 H 3514.6 7.03551 4.13168 0
M  V30 21482 P 3518.56 7.20834 5.23717 0
M  V30 21483 O 3518.78 7.79853 6.57286 0
M  V30 21484 O 3519.35 7.79239 4.12957 0
M  V30 21485 O 3518.81 5.63315 5.29344 0
M  V30 21486 C 3517.87 4.80255 6.01876 0
M  V30 21487 C 3518.6 3.64202 6.65911 0
M  V30 21488 O 3518.81 2.60694 5.64732 0
M  V30 21489 C 3520 3.93473 7.1943 0
M  V30 21490 O 3520.39 3.02071 8.21205 0
M  V30 21491 C 3520.88 3.73047 5.97036 0
M  V30 21492 C 3520.17 2.58828 5.25741 0
M  V30 21493 N 3520.22 2.68068 3.77503 0
M  V30 21494 H 3517.38 5.40332 6.79951 0
M  V30 21495 H 3517.11 4.41613 5.32378 0
M  V30 21496 H 3517.98 3.26331 7.47797 0
M  V30 21497 P 3521.94 2.75334 8.47391 0
M  V30 21498 O 3522.16 2.44571 9.90142 0
M  V30 21499 O 3522.73 3.87688 7.92115 0
M  V30 21500 O 3522.19 1.4459 7.59357 0
M  V30 21501 C 3521.25 0.347608 7.69215 0
M  V30 21502 C 3521.98 -0.96767 7.52806 0
M  V30 21503 O 3522.19 -1.21036 6.1011 0
M  V30 21504 C 3523.38 -1.04544 8.13308 0
M  V30 21505 O 3523.77 -2.38311 8.41922 0
M  V30 21506 C 3524.26 -0.491279 7.02284 0
M  V30 21507 C 3523.55 -0.996264 5.77469 0
M  V30 21508 N 3523.6 -0.0501916 4.62973 0
M  V30 21509 H 3520.76 0.374722 8.67691 0
M  V30 21510 H 3520.49 0.443485 6.90277 0
M  V30 21511 H 3521.36 -1.75537 7.96793 0
M  V30 21512 P 3525.32 -2.75334 8.47391 0
M  V30 21513 O 3525.54 -3.84128 9.44797 0
M  V30 21514 O 3526.11 -1.51947 8.68712 0
M  V30 21515 O 3525.57 -3.29363 6.99321 0
M  V30 21516 C 3524.63 -4.24011 6.4274 0
M  V30 21517 C 3525.36 -5.20775 5.52155 0
M  V30 21518 O 3525.57 -4.56534 4.22446 0
M  V30 21519 C 3526.76 -5.62629 5.96531 0
M  V30 21520 O 3527.15 -6.87667 5.41053 0
M  V30 21521 C 3527.64 -4.52537 5.39283 0
M  V30 21522 C 3526.93 -4.20027 4.08623 0
M  V30 21523 N 3526.98 -2.76189 3.71603 0
M  V30 21524 C 3526.9 -1.64862 4.52822 0
M  V30 21525 N 3526.98 -0.512671 3.88633 0
M  V30 21526 C 3527.12 -0.888083 2.54977 0
M  V30 21527 C 3527.25 -0.094668 1.38677 0
M  V30 21528 N 3527.37 -0.890102 0.232633 0
M  V30 21529 C 3527.37 -2.26958 0.21772 0
M  V30 21530 N 3527.5 -2.84626 -0.97925 0
M  V30 21531 N 3527.24 -3.0178 1.31033 0
M  V30 21532 C 3527.12 -2.26781 2.43843 0
M  V30 21533 H 3524.14 -4.797 7.24003 0
M  V30 21534 H 3523.87 -3.69856 5.84513 0
M  V30 21535 H 3524.74 -6.10356 5.41441 0
M  V30 21536 P 3528.7 -7.20834 5.23717 0
M  V30 21537 O 3528.92 -8.66274 5.38678 0
M  V30 21538 O 3529.49 -6.33687 6.13629 0
M  V30 21539 O 3528.95 -6.7751 3.72168 0
M  V30 21540 C 3528.01 -7.20919 2.70795 0
M  V30 21541 C 3528.74 -7.45864 1.40599 0
M  V30 21542 O 3528.95 -6.17751 0.734343 0
M  V30 21543 C 3530.14 -8.05906 1.51917 0
M  V30 21544 O 3530.53 -8.74358 0.335205 0
M  V30 21545 C 3531.02 -6.83093 1.70294 0
M  V30 21546 C 3530.31 -5.79992 0.836974 0
M  V30 21547 N 3530.36 -4.41864 1.38293 0
M  V30 21548 H 3527.52 -8.13738 3.03804 0
M  V30 21549 H 3527.25 -6.42974 2.55559 0
M  V30 21550 H 3528.12 -8.12139 0.792866 0
M  V30 21551 H 3530.77 -5.80178 -0.160643 0
M  V30 21552 H 3531.05 -6.51379 2.75643 0
M  V30 21553 H 3532.04 -7.01832 1.3448 0
M  V30 21554 H 3530.21 -8.73771 2.38364 0
M  V30 21555 P 3532.08 -8.91 1.30487e-10 0
M  V30 21556 O 3532.3 -10.1726 -0.733694 0
M  V30 21557 O 3532.87 -8.73148 1.23936 0
M  V30 21558 O 3532.33 -7.66872 -0.971405 0
M  V30 21559 C 3531.39 -7.42309 -2.04641 0
M  V30 21560 C 3532.12 -6.86059 -3.24661 0
M  V30 21561 O 3532.33 -5.42847 -3.03646 0
M  V30 21562 C 3533.52 -7.41196 -3.50753 0
M  V30 21563 O 3533.91 -7.27073 -4.86816 0
M  V30 21564 C 3534.4 -6.5273 -2.63741 0
M  V30 21565 C 3533.69 -5.1842 -2.73198 0
M  V30 21566 N 3533.74 -4.38762 -1.4784 0
M  V30 21567 H 3530.9 -8.36803 -2.32493 0
M  V30 21568 H 3530.63 -6.70197 -1.71129 0
M  V30 21569 H 3531.5 -7.03551 -4.13168 0
M  V30 21570 P 3535.46 -7.20834 -5.23717 0
M  V30 21571 O 3535.68 -7.79853 -6.57286 0
M  V30 21572 O 3536.25 -7.79239 -4.12957 0
M  V30 21573 O 3535.71 -5.63315 -5.29344 0
M  V30 21574 C 3534.77 -4.80255 -6.01876 0
M  V30 21575 C 3535.5 -3.64202 -6.65911 0
M  V30 21576 O 3535.71 -2.60694 -5.64732 0
M  V30 21577 C 3536.9 -3.93473 -7.1943 0
M  V30 21578 O 3537.29 -3.02071 -8.21205 0
M  V30 21579 C 3537.78 -3.73047 -5.97036 0
M  V30 21580 C 3537.07 -2.58828 -5.25741 0
M  V30 21581 N 3537.12 -2.68068 -3.77503 0
M  V30 21582 C 3537.04 -3.79715 -2.96723 0
M  V30 21583 N 3537.12 -3.5377 -1.68852 0
M  V30 21584 C 3537.26 -2.15054 -1.63254 0
M  V30 21585 C 3537.39 -1.28964 -0.518571 0
M  V30 21586 N 3537.51 0.0538097 -0.918425 0
M  V30 21587 C 3537.51 0.494275 -2.22578 0
M  V30 21588 N 3537.64 1.81086 -2.40434 0
M  V30 21589 N 3537.38 -0.313645 -3.27502 0
M  V30 21590 C 3537.26 -1.61829 -2.91033 0
M  V30 21591 H 3534.28 -5.40332 -6.79951 0
M  V30 21592 H 3534.01 -4.41613 -5.32378 0
M  V30 21593 H 3534.88 -3.26331 -7.47797 0
M  V30 21594 P 3538.84 -2.75334 -8.47391 0
M  V30 21595 O 3539.06 -2.44619 -9.90336 0
M  V30 21596 O 3539.63 -3.87776 -7.92294 0
M  V30 21597 O 3539.09 -1.4459 -7.59357 0
M  V30 21598 C 3538.15 -0.347653 -7.69315 0
M  V30 21599 C 3538.88 0.96767 -7.52806 0
M  V30 21600 O 3539.09 1.21055 -6.10208 0
M  V30 21601 C 3540.28 1.04557 -8.13408 0
M  V30 21602 O 3540.67 2.38311 -8.41922 0
M  V30 21603 C 3541.16 0.491279 -7.02284 0
M  V30 21604 C 3540.45 0.996264 -5.77469 0
M  V30 21605 N 3540.5 0.0501916 -4.62973 0
M  V30 21606 C 3540.42 -1.31969 -4.65661 0
M  V30 21607 N 3540.49 -1.86649 -3.48119 0
M  V30 21608 C 3540.64 -0.792089 -2.62406 0
M  V30 21609 C 3540.77 -0.705684 -1.2207 0
M  V30 21610 N 3540.78 -1.76207 -0.413762 0
M  V30 21611 N 3540.89 0.518981 -0.685754 0
M  V30 21612 C 3540.88 1.57595 -1.49174 0
M  V30 21613 N 3540.76 1.62909 -2.80066 0
M  V30 21614 C 3540.64 0.388195 -3.3073 0
M  V30 21615 H 3537.66 -0.374765 -8.67791 0
M  V30 21616 H 3537.39 -0.443613 -6.90476 0
M  V30 21617 H 3538.26 1.75559 -7.96891 0
M  V30 21618 H 3540.91 1.94563 -5.46818 0
M  V30 21619 H 3541.19 -0.608651 -7.04676 0
M  V30 21620 H 3542.18 0.889796 -7.09039 0
M  V30 21621 H 3540.35 0.433128 -9.04664 0
M  V30 21622 H 3540.31 -1.89246 -5.57664 0
M  V30 21623 H 3540.69 -2.71005 -0.804694 0
M  V30 21624 H 3540.88 -1.63189 0.603768 0
M  V30 21625 H 3540.99 2.53475 -0.997614 0
M  V30 21626 P 3542.22 2.75334 -8.47391 0
M  V30 21627 O 3542.44 3.84166 -9.4489 0
M  V30 21628 O 3543.01 1.51964 -8.6881 0
M  V30 21629 O 3542.47 3.29363 -6.99321 0
M  V30 21630 C 3541.53 4.23956 -6.42656 0
M  V30 21631 C 3542.26 5.20775 -5.52155 0
M  V30 21632 O 3542.47 4.56534 -4.22446 0
M  V30 21633 C 3543.66 5.62629 -5.96531 0
M  V30 21634 O 3544.05 6.87667 -5.41053 0
M  V30 21635 C 3544.54 4.52537 -5.39283 0
M  V30 21636 C 3543.83 4.20027 -4.08623 0
M  V30 21637 N 3543.88 2.7613 -3.71522 0
M  V30 21638 C 3544.03 2.45612 -2.37989 0
M  V30 21639 O 3544.12 3.30919 -1.51621 0
M  V30 21640 N 3544.07 1.10684 -2.08435 0
M  V30 21641 C 3543.98 0.0690084 -2.9792 0
M  V30 21642 C 3543.83 0.481522 -4.35345 0
M  V30 21643 C 3543.78 1.78906 -4.67968 0
M  V30 21644 H 3541.04 4.797 -7.24003 0
M  V30 21645 H 3540.77 3.69802 -5.84429 0
M  V30 21646 H 3541.64 6.10356 -5.41441 0
M  V30 21647 H 3544.29 4.78651 -3.27911 0
M  V30 21648 H 3544.57 3.64957 -6.05871 0
M  V30 21649 H 3545.56 4.8868 -5.2125 0
M  V30 21650 H 3543.73 5.66726 -7.06352 0
M  V30 21651 H 3543.66 2.07737 -5.72367 0
M  V30 21652 P 3545.6 7.20834 -5.23717 0
M  V30 21653 O 3545.82 8.66189 -5.38625 0
M  V30 21654 O 3546.39 6.33615 -6.1356 0
M  V30 21655 O 3545.85 6.7751 -3.72168 0
M  V30 21656 C 3544.91 7.20732 -2.70725 0
M  V30 21657 C 3545.64 7.45864 -1.40599 0
M  V30 21658 O 3545.85 6.17651 -0.734225 0
M  V30 21659 C 3547.04 8.05808 -1.51899 0
M  V30 21660 O 3547.43 8.74358 -0.335205 0
M  V30 21661 C 3547.92 6.83093 -1.70294 0
M  V30 21662 C 3547.21 5.79992 -0.836974 0
M  V30 21663 N 3547.26 4.41769 -1.38263 0
M  V30 21664 C 3547.41 3.38591 -0.481702 0
M  V30 21665 O 3547.5 3.56839 0.718452 0
M  V30 21666 N 3547.45 2.1206 -1.03569 0
M  V30 21667 C 3547.36 1.80696 -2.36966 0
M  V30 21668 O 3547.41 0.630473 -2.74862 0
M  V30 21669 C 3547.21 2.94845 -3.23898 0
M  V30 21670 C 3547.1 2.65253 -4.70362 0
M  V30 21671 C 3547.16 4.19803 -2.73435 0
M  V30 21672 H 3544.42 8.13644 -3.0377 0
M  V30 21673 H 3544.15 6.42695 -2.55448 0
M  V30 21674 H 3545.02 8.12039 -0.792769 0
M  V30 21675 H 3547.67 5.79978 0.160587 0
M  V30 21676 H 3547.95 6.51379 -2.75643 0
M  V30 21677 H 3548.94 7.01734 -1.34462 0
M  V30 21678 H 3547.11 8.73674 -2.38337 0
M  V30 21679 H 3547.04 5.04492 -3.4095 0
M  V30 21680 H 3548.07 2.83924 -5.1913 0
M  V30 21681 H 3546.33 3.29824 -5.15163 0
M  V30 21682 H 3546.82 1.59723 -4.84449 0
M  V30 21683 H 3547.56 1.35644 -0.399345 0
M  V30 21684 P 3548.98 8.91 -1.31596e-10 0
M  V30 21685 O 3549.2 10.1726 0.733694 0
M  V30 21686 O 3549.77 8.73148 -1.23936 0
M  V30 21687 O 3549.23 7.66872 0.971405 0
M  V30 21688 C 3548.29 7.42309 2.04641 0
M  V30 21689 C 3549.02 6.86059 3.24661 0
M  V30 21690 O 3549.23 5.42847 3.03646 0
M  V30 21691 C 3550.42 7.41196 3.50753 0
M  V30 21692 O 3550.81 7.27073 4.86816 0
M  V30 21693 C 3551.3 6.5273 2.63741 0
M  V30 21694 C 3550.59 5.1842 2.73198 0
M  V30 21695 N 3550.64 4.38762 1.4784 0
M  V30 21696 H 3547.8 8.36803 2.32493 0
M  V30 21697 H 3547.53 6.70197 1.71129 0
M  V30 21698 H 3548.4 7.03551 4.13168 0
M  V30 21699 P 3552.36 7.20834 5.23717 0
M  V30 21700 O 3552.58 7.79853 6.57286 0
M  V30 21701 O 3553.15 7.79239 4.12957 0
M  V30 21702 O 3552.61 5.63315 5.29344 0
M  V30 21703 C 3551.67 4.80255 6.01876 0
M  V30 21704 C 3552.4 3.64202 6.65911 0
M  V30 21705 O 3552.61 2.60694 5.64732 0
M  V30 21706 C 3553.8 3.93473 7.1943 0
M  V30 21707 O 3554.19 3.02071 8.21205 0
M  V30 21708 C 3554.68 3.73047 5.97036 0
M  V30 21709 C 3553.97 2.58828 5.25741 0
M  V30 21710 N 3554.02 2.68068 3.77503 0
M  V30 21711 H 3551.18 5.40332 6.79951 0
M  V30 21712 H 3550.91 4.41613 5.32378 0
M  V30 21713 H 3551.78 3.26331 7.47797 0
M  V30 21714 P 3555.74 2.75334 8.47391 0
M  V30 21715 O 3555.96 2.44571 9.90142 0
M  V30 21716 O 3556.53 3.87688 7.92115 0
M  V30 21717 O 3555.99 1.4459 7.59357 0
M  V30 21718 C 3555.05 0.347608 7.69215 0
M  V30 21719 C 3555.78 -0.96767 7.52806 0
M  V30 21720 O 3555.99 -1.21036 6.1011 0
M  V30 21721 C 3557.18 -1.04544 8.13308 0
M  V30 21722 O 3557.57 -2.38311 8.41922 0
M  V30 21723 C 3558.06 -0.491279 7.02284 0
M  V30 21724 C 3557.35 -0.996264 5.77469 0
M  V30 21725 N 3557.4 -0.0501916 4.62973 0
M  V30 21726 C 3557.32 1.32786 4.63244 0
M  V30 21727 N 3557.4 1.86957 3.44545 0
M  V30 21728 C 3557.54 0.780241 2.58481 0
M  V30 21729 C 3557.67 0.738536 1.17757 0
M  V30 21730 N 3557.79 -0.58337 0.711393 0
M  V30 21731 C 3557.79 -1.70816 1.51017 0
M  V30 21732 N 3557.92 -2.87826 0.880757 0
M  V30 21733 N 3557.66 -1.67126 2.8339 0
M  V30 21734 C 3557.54 -0.401421 3.30572 0
M  V30 21735 H 3554.56 0.374722 8.67691 0
M  V30 21736 H 3554.29 0.443485 6.90277 0
M  V30 21737 H 3555.16 -1.75537 7.96793 0
M  V30 21738 P 3559.12 -2.75334 8.47391 0
M  V30 21739 O 3559.34 -3.84128 9.44797 0
M  V30 21740 O 3559.91 -1.51947 8.68712 0
M  V30 21741 O 3559.37 -3.29363 6.99321 0
M  V30 21742 C 3558.43 -4.24011 6.4274 0
M  V30 21743 C 3559.16 -5.20775 5.52155 0
M  V30 21744 O 3559.37 -4.56534 4.22446 0
M  V30 21745 C 3560.56 -5.62629 5.96531 0
M  V30 21746 O 3560.95 -6.87667 5.41053 0
M  V30 21747 C 3561.44 -4.52537 5.39283 0
M  V30 21748 C 3560.73 -4.20027 4.08623 0
M  V30 21749 N 3560.78 -2.76189 3.71603 0
M  V30 21750 H 3557.94 -4.797 7.24003 0
M  V30 21751 H 3557.67 -3.69856 5.84513 0
M  V30 21752 H 3558.54 -6.10356 5.41441 0
M  V30 21753 P 3562.5 -7.20834 5.23717 0
M  V30 21754 O 3562.72 -8.66274 5.38678 0
M  V30 21755 O 3563.29 -6.33687 6.13629 0
M  V30 21756 O 3562.75 -6.7751 3.72168 0
M  V30 21757 C 3561.81 -7.20919 2.70795 0
M  V30 21758 C 3562.54 -7.45864 1.40599 0
M  V30 21759 O 3562.75 -6.17751 0.734343 0
M  V30 21760 C 3563.94 -8.05906 1.51917 0
M  V30 21761 O 3564.33 -8.74358 0.335205 0
M  V30 21762 C 3564.82 -6.83093 1.70294 0
M  V30 21763 C 3564.11 -5.79992 0.836974 0
M  V30 21764 N 3564.16 -4.41864 1.38293 0
M  V30 21765 C 3564.08 -4.02089 2.69407 0
M  V30 21766 N 3564.15 -2.73403 2.85089 0
M  V30 21767 C 3564.3 -2.25086 1.5642 0
M  V30 21768 C 3564.43 -0.942887 1.04836 0
M  V30 21769 N 3564.44 0.150999 1.80369 0
M  V30 21770 N 3564.55 -0.812565 -0.28167 0
M  V30 21771 C 3564.54 -1.90572 -1.03784 0
M  V30 21772 N 3564.42 -3.167 -0.683905 0
M  V30 21773 C 3564.3 -3.26538 0.652815 0
M  V30 21774 H 3561.32 -8.13738 3.03804 0
M  V30 21775 H 3561.05 -6.42974 2.55559 0
M  V30 21776 H 3561.92 -8.12139 0.792866 0
M  V30 21777 H 3564.57 -5.80178 -0.160643 0
M  V30 21778 H 3564.85 -6.51379 2.75643 0
M  V30 21779 H 3565.84 -7.01832 1.3448 0
M  V30 21780 H 3564.01 -8.73771 2.38364 0
M  V30 21781 H 3563.97 -4.7189 3.52311 0
M  V30 21782 H 3564.35 0.0721434 2.82608 0
M  V30 21783 H 3564.54 1.0785 1.36544 0
M  V30 21784 H 3564.65 -1.73207 -2.10241 0
M  V30 21785 P 3565.88 -8.91 1.32705e-10 0
M  V30 21786 O 3566.1 -10.1746 -0.733838 0
M  V30 21787 O 3566.67 -8.73346 1.23964 0
M  V30 21788 O 3566.13 -7.66872 -0.971405 0
M  V30 21789 C 3565.19 -7.42405 -2.04668 0
M  V30 21790 C 3565.92 -6.86059 -3.24661 0
M  V30 21791 O 3566.13 -5.42934 -3.03695 0
M  V30 21792 C 3567.32 -7.41287 -3.50796 0
M  V30 21793 O 3567.71 -7.27073 -4.86816 0
M  V30 21794 C 3568.2 -6.5273 -2.63741 0
M  V30 21795 C 3567.49 -5.1842 -2.73198 0
M  V30 21796 N 3567.54 -4.38762 -1.4784 0
M  V30 21797 H 3564.7 -8.36899 -2.3252 0
M  V30 21798 H 3564.43 -6.70391 -1.71179 0
M  V30 21799 H 3565.3 -7.03638 -4.13219 0
M  V30 21800 H 3567.95 -4.59931 -3.54016 0
M  V30 21801 H 3568.23 -6.88995 -1.59871 0
M  V30 21802 H 3569.22 -6.4684 -3.0373 0
M  V30 21803 H 3567.39 -8.47002 -3.20749 0
M  V30 21804 P 3569.26 -7.20834 -5.23717 0
M  V30 21805 O 3569.48 -7.79853 -6.57286 0
M  V30 21806 O 3570.05 -7.79239 -4.12957 0
M  V30 21807 O 3569.51 -5.63315 -5.29344 0
M  V30 21808 C 3568.57 -4.80255 -6.01876 0
M  V30 21809 C 3569.3 -3.64202 -6.65911 0
M  V30 21810 O 3569.51 -2.60694 -5.64732 0
M  V30 21811 C 3570.7 -3.93473 -7.1943 0
M  V30 21812 O 3571.09 -3.02071 -8.21205 0
M  V30 21813 C 3571.58 -3.73047 -5.97036 0
M  V30 21814 C 3570.87 -2.58828 -5.25741 0
M  V30 21815 N 3570.92 -2.68068 -3.77503 0
M  V30 21816 H 3568.08 -5.40332 -6.79951 0
M  V30 21817 H 3567.81 -4.41613 -5.32378 0
M  V30 21818 H 3568.68 -3.26331 -7.47797 0
M  V30 21819 P 3572.64 -2.75334 -8.47391 0
M  V30 21820 O 3572.86 -2.44595 -9.90239 0
M  V30 21821 O 3573.43 -3.87732 -7.92204 0
M  V30 21822 O 3572.89 -1.4459 -7.59357 0
M  V30 21823 C 3571.95 -0.347563 -7.69115 0
M  V30 21824 C 3572.68 0.96767 -7.52806 0
M  V30 21825 O 3572.89 1.21036 -6.1011 0
M  V30 21826 C 3574.08 1.04544 -8.13308 0
M  V30 21827 O 3574.47 2.38311 -8.41922 0
M  V30 21828 C 3574.96 0.491279 -7.02284 0
M  V30 21829 C 3574.25 0.996264 -5.77469 0
M  V30 21830 N 3574.3 0.0501808 -4.62873 0
M  V30 21831 C 3574.45 0.588177 -3.36904 0
M  V30 21832 O 3574.54 1.78598 -3.17173 0
M  V30 21833 N 3574.49 -0.329694 -2.33686 0
M  V30 21834 C 3574.4 -1.6953 -2.45079 0
M  V30 21835 O 3574.45 -2.41926 -1.44899 0
M  V30 21836 C 3574.25 -2.16933 -3.80505 0
M  V30 21837 C 3574.14 -3.65373 -3.97621 0
M  V30 21838 C 3574.2 -1.30326 -4.83752 0
M  V30 21839 H 3571.46 -0.374722 -8.67691 0
M  V30 21840 H 3571.19 -0.443421 -6.90177 0
M  V30 21841 H 3572.06 1.75537 -7.96793 0
M  V30 21842 H 3574.71 1.94496 -5.46629 0
M  V30 21843 H 3574.99 -0.608651 -7.04676 0
M  V30 21844 H 3575.98 0.889672 -7.08939 0
M  V30 21845 H 3574.15 0.43308 -9.04564 0
M  V30 21846 H 3574.08 -1.68366 -5.8516 0
M  V30 21847 H 3575.11 -4.05985 -4.30448 0
M  V30 21848 H 3573.37 -3.88028 -4.72875 0
M  V30 21849 H 3573.86 -4.11381 -3.01609 0
M  V30 21850 H 3574.59 0.0393617 -1.41345 0
M  V30 21851 P 3576.02 2.75334 -8.47391 0
M  V30 21852 O 3576.24 3.84128 -9.44797 0
M  V30 21853 O 3576.81 1.51947 -8.68712 0
M  V30 21854 O 3576.27 3.29363 -6.99321 0
M  V30 21855 C 3575.33 4.24011 -6.4274 0
M  V30 21856 C 3576.06 5.20775 -5.52155 0
M  V30 21857 O 3576.27 4.56534 -4.22446 0
M  V30 21858 C 3577.46 5.62629 -5.96531 0
M  V30 21859 O 3577.85 6.87667 -5.41053 0
M  V30 21860 C 3578.34 4.52537 -5.39283 0
M  V30 21861 C 3577.63 4.20027 -4.08623 0
M  V30 21862 N 3577.68 2.76189 -3.71603 0
M  V30 21863 H 3574.84 4.797 -7.24003 0
M  V30 21864 H 3574.57 3.69856 -5.84513 0
M  V30 21865 H 3575.44 6.10356 -5.41441 0
M  V30 21866 P 3579.4 7.20834 -5.23717 0
M  V30 21867 O 3579.62 8.66189 -5.38625 0
M  V30 21868 O 3580.19 6.33615 -6.1356 0
M  V30 21869 O 3579.65 6.7751 -3.72168 0
M  V30 21870 C 3578.71 7.20732 -2.70725 0
M  V30 21871 C 3579.44 7.45864 -1.40599 0
M  V30 21872 O 3579.65 6.17651 -0.734225 0
M  V30 21873 C 3580.84 8.05808 -1.51899 0
M  V30 21874 O 3581.23 8.74358 -0.335205 0
M  V30 21875 C 3581.72 6.83093 -1.70294 0
M  V30 21876 C 3581.01 5.79992 -0.836974 0
M  V30 21877 N 3581.06 4.41769 -1.38263 0
M  V30 21878 C 3581.21 3.38591 -0.481702 0
M  V30 21879 O 3581.3 3.56839 0.718452 0
M  V30 21880 N 3581.25 2.1206 -1.03569 0
M  V30 21881 C 3581.16 1.80696 -2.36966 0
M  V30 21882 C 3581.01 2.94845 -3.23898 0
M  V30 21883 C 3580.96 4.19803 -2.73435 0
M  V30 21884 H 3578.22 8.13644 -3.0377 0
M  V30 21885 H 3577.95 6.42695 -2.55448 0
M  V30 21886 H 3578.82 8.12039 -0.792769 0
M  V30 21887 H 3581.47 5.79978 0.160587 0
M  V30 21888 H 3581.75 6.51379 -2.75643 0
M  V30 21889 H 3582.74 7.01734 -1.34462 0
M  V30 21890 H 3580.91 8.73674 -2.38337 0
M  V30 21891 H 3580.84 5.04492 -3.4095 0
M  V30 21892 P 3582.78 8.91 -1.33814e-10 0
M  V30 21893 O 3583 10.1736 0.733766 0
M  V30 21894 O 3583.57 8.73247 -1.2395 0
M  V30 21895 O 3583.03 7.66872 0.971405 0
M  V30 21896 C 3582.09 7.42212 2.04614 0
M  V30 21897 C 3582.82 6.86059 3.24661 0
M  V30 21898 O 3583.03 5.42847 3.03646 0
M  V30 21899 C 3584.22 7.41196 3.50753 0
M  V30 21900 O 3584.61 7.27073 4.86816 0
M  V30 21901 C 3585.1 6.5273 2.63741 0
M  V30 21902 C 3584.39 5.1842 2.73198 0
M  V30 21903 N 3584.44 4.38668 1.47808 0
M  V30 21904 C 3584.59 3.02239 1.60048 0
M  V30 21905 O 3584.68 2.46459 2.67869 0
M  V30 21906 N 3584.63 2.32436 0.408571 0
M  V30 21907 C 3584.54 2.85471 -0.854993 0
M  V30 21908 C 3584.39 4.28918 -0.887335 0
M  V30 21909 C 3584.34 5.00349 0.255399 0
M  V30 21910 H 3581.6 8.36803 2.32493 0
M  V30 21911 H 3581.33 6.701 1.71105 0
M  V30 21912 H 3582.2 7.03551 4.13168 0
M  V30 21913 H 3584.85 4.59773 3.53894 0
M  V30 21914 H 3585.13 6.88995 1.59871 0
M  V30 21915 H 3586.12 6.46749 3.03687 0
M  V30 21916 H 3584.29 8.46908 3.20714 0
M  V30 21917 H 3584.22 6.08548 0.206986 0
M  V30 21918 P 3586.16 7.20834 5.23717 0
M  V30 21919 O 3586.38 7.79853 6.57286 0
M  V30 21920 O 3586.95 7.79239 4.12957 0
M  V30 21921 O 3586.41 5.63315 5.29344 0
M  V30 21922 C 3585.47 4.80255 6.01876 0
M  V30 21923 C 3586.2 3.64202 6.65911 0
M  V30 21924 O 3586.41 2.60694 5.64732 0
M  V30 21925 C 3587.6 3.93473 7.1943 0
M  V30 21926 O 3587.99 3.02071 8.21205 0
M  V30 21927 C 3588.48 3.73047 5.97036 0
M  V30 21928 C 3587.77 2.58828 5.25741 0
M  V30 21929 N 3587.82 2.68068 3.77503 0
M  V30 21930 H 3584.98 5.40332 6.79951 0
M  V30 21931 H 3584.71 4.41613 5.32378 0
M  V30 21932 H 3585.58 3.26331 7.47797 0
M  V30 21933 P 3589.54 2.75334 8.47391 0
M  V30 21934 O 3589.76 2.44571 9.90142 0
M  V30 21935 O 3590.33 3.87688 7.92115 0
M  V30 21936 O 3589.79 1.4459 7.59357 0
M  V30 21937 C 3588.85 0.347608 7.69215 0
M  V30 21938 C 3589.58 -0.96767 7.52806 0
M  V30 21939 O 3589.79 -1.21036 6.1011 0
M  V30 21940 C 3590.98 -1.04544 8.13308 0
M  V30 21941 O 3591.37 -2.38311 8.41922 0
M  V30 21942 C 3591.86 -0.491279 7.02284 0
M  V30 21943 C 3591.15 -0.996264 5.77469 0
M  V30 21944 N 3591.2 -0.0501916 4.62973 0
M  V30 21945 H 3588.36 0.374722 8.67691 0
M  V30 21946 H 3588.09 0.443485 6.90277 0
M  V30 21947 H 3588.96 -1.75537 7.96793 0
M  V30 21948 P 3592.92 -2.75334 8.47391 0
M  V30 21949 O 3593.14 -3.84204 9.44982 0
M  V30 21950 O 3593.71 -1.51982 8.68909 0
M  V30 21951 O 3593.17 -3.29363 6.99321 0
M  V30 21952 C 3592.23 -4.24066 6.42823 0
M  V30 21953 C 3592.96 -5.20775 5.52155 0
M  V30 21954 O 3593.17 -4.56607 4.22514 0
M  V30 21955 C 3594.36 -5.62697 5.96604 0
M  V30 21956 O 3594.75 -6.87667 5.41053 0
M  V30 21957 C 3595.24 -4.52537 5.39283 0
M  V30 21958 C 3594.53 -4.20027 4.08623 0
M  V30 21959 N 3594.58 -2.76189 3.71603 0
M  V30 21960 H 3591.74 -4.79756 7.24086 0
M  V30 21961 H 3591.47 -3.69963 5.84682 0
M  V30 21962 H 3592.34 -6.10431 5.41508 0
M  V30 21963 H 3594.99 -4.78816 3.28024 0
M  V30 21964 H 3595.27 -3.64957 6.05871 0
M  V30 21965 H 3596.26 -4.88748 5.21323 0
M  V30 21966 H 3594.43 -5.66789 7.0643 0
M  V30 21967 P 3596.3 -7.20834 5.23717 0
M  V30 21968 O 3596.52 -8.66274 5.38678 0
M  V30 21969 O 3597.09 -6.33687 6.13629 0
M  V30 21970 O 3596.55 -6.7751 3.72168 0
M  V30 21971 C 3595.61 -7.20919 2.70795 0
M  V30 21972 C 3596.34 -7.45864 1.40599 0
M  V30 21973 O 3596.55 -6.17751 0.734343 0
M  V30 21974 C 3597.74 -8.05906 1.51917 0
M  V30 21975 O 3598.13 -8.74358 0.335205 0
M  V30 21976 C 3598.62 -6.83093 1.70294 0
M  V30 21977 C 3597.91 -5.79992 0.836974 0
M  V30 21978 N 3597.96 -4.41864 1.38293 0
M  V30 21979 C 3597.88 -4.02089 2.69407 0
M  V30 21980 N 3597.95 -2.73403 2.85089 0
M  V30 21981 C 3598.1 -2.25086 1.5642 0
M  V30 21982 C 3598.23 -0.942887 1.04836 0
M  V30 21983 N 3598.24 0.150999 1.80369 0
M  V30 21984 N 3598.35 -0.812565 -0.28167 0
M  V30 21985 C 3598.34 -1.90572 -1.03784 0
M  V30 21986 N 3598.22 -3.167 -0.683905 0
M  V30 21987 C 3598.1 -3.26538 0.652815 0
M  V30 21988 H 3595.12 -8.13738 3.03804 0
M  V30 21989 H 3594.85 -6.42974 2.55559 0
M  V30 21990 H 3595.72 -8.12139 0.792866 0
M  V30 21991 H 3598.37 -5.80178 -0.160643 0
M  V30 21992 H 3598.65 -6.51379 2.75643 0
M  V30 21993 H 3599.64 -7.01832 1.3448 0
M  V30 21994 H 3597.81 -8.73771 2.38364 0
M  V30 21995 H 3597.77 -4.7189 3.52311 0
M  V30 21996 H 3598.15 0.0721434 2.82608 0
M  V30 21997 H 3598.34 1.0785 1.36544 0
M  V30 21998 H 3598.45 -1.73207 -2.10241 0
M  V30 21999 P 3599.68 -8.91 1.34923e-10 0
M  V30 22000 O 3599.9 -10.1726 -0.733694 0
M  V30 22001 O 3600.47 -8.73148 1.23936 0
M  V30 22002 O 3599.93 -7.66872 -0.971405 0
M  V30 22003 C 3598.99 -7.42309 -2.04641 0
M  V30 22004 C 3599.72 -6.86059 -3.24661 0
M  V30 22005 O 3599.93 -5.42847 -3.03646 0
M  V30 22006 C 3601.12 -7.41196 -3.50753 0
M  V30 22007 O 3601.51 -7.27073 -4.86816 0
M  V30 22008 C 3602 -6.5273 -2.63741 0
M  V30 22009 C 3601.29 -5.1842 -2.73198 0
M  V30 22010 N 3601.34 -4.38762 -1.4784 0
M  V30 22011 C 3601.26 -4.81605 -0.168631 0
M  V30 22012 N 3601.34 -3.85454 0.713363 0
M  V30 22013 C 3601.48 -2.6994 -0.0566958 0
M  V30 22014 C 3601.61 -1.34815 0.338502 0
M  V30 22015 N 3601.73 -0.496304 -0.77465 0
M  V30 22016 C 3601.73 -0.908403 -2.09122 0
M  V30 22017 N 3601.86 0.0517805 -3.00955 0
M  V30 22018 N 3601.6 -2.17875 -2.46519 0
M  V30 22019 C 3601.48 -3.01988 -1.4033 0
M  V30 22020 H 3598.5 -8.36803 -2.32493 0
M  V30 22021 H 3598.23 -6.70197 -1.71129 0
M  V30 22022 H 3599.1 -7.03551 -4.13168 0
M  V30 22023 P 3603.06 -7.20834 -5.23717 0
M  V30 22024 O 3603.28 -7.79853 -6.57286 0
M  V30 22025 O 3603.85 -7.79239 -4.12957 0
M  V30 22026 O 3603.31 -5.63315 -5.29344 0
M  V30 22027 C 3602.37 -4.80255 -6.01876 0
M  V30 22028 C 3603.1 -3.64202 -6.65911 0
M  V30 22029 O 3603.31 -2.60694 -5.64732 0
M  V30 22030 C 3604.5 -3.93473 -7.1943 0
M  V30 22031 O 3604.89 -3.02071 -8.21205 0
M  V30 22032 C 3605.38 -3.73047 -5.97036 0
M  V30 22033 C 3604.67 -2.58828 -5.25741 0
M  V30 22034 N 3604.72 -2.68068 -3.77503 0
M  V30 22035 C 3604.64 -3.79715 -2.96723 0
M  V30 22036 N 3604.72 -3.5377 -1.68852 0
M  V30 22037 C 3604.86 -2.15054 -1.63254 0
M  V30 22038 C 3604.99 -1.28964 -0.518571 0
M  V30 22039 N 3605.11 0.0538097 -0.918425 0
M  V30 22040 C 3605.11 0.494275 -2.22578 0
M  V30 22041 N 3605.24 1.81086 -2.40434 0
M  V30 22042 N 3604.98 -0.313645 -3.27502 0
M  V30 22043 C 3604.86 -1.61829 -2.91033 0
M  V30 22044 H 3601.88 -5.40332 -6.79951 0
M  V30 22045 H 3601.61 -4.41613 -5.32378 0
M  V30 22046 H 3602.48 -3.26331 -7.47797 0
M  V30 22047 P 3606.44 -2.75334 -8.47391 0
M  V30 22048 O 3606.66 -2.44619 -9.90336 0
M  V30 22049 O 3607.23 -3.87776 -7.92294 0
M  V30 22050 O 3606.69 -1.4459 -7.59357 0
M  V30 22051 C 3605.75 -0.347653 -7.69315 0
M  V30 22052 C 3606.48 0.96767 -7.52806 0
M  V30 22053 O 3606.69 1.21055 -6.10208 0
M  V30 22054 C 3607.88 1.04557 -8.13408 0
M  V30 22055 O 3608.27 2.38311 -8.41922 0
M  V30 22056 C 3608.76 0.491279 -7.02284 0
M  V30 22057 C 3608.05 0.996264 -5.77469 0
M  V30 22058 N 3608.1 0.0501916 -4.62973 0
M  V30 22059 C 3608.02 -1.31969 -4.65661 0
M  V30 22060 N 3608.09 -1.86649 -3.48119 0
M  V30 22061 C 3608.24 -0.792089 -2.62406 0
M  V30 22062 C 3608.37 -0.705684 -1.2207 0
M  V30 22063 N 3608.38 -1.76207 -0.413762 0
M  V30 22064 N 3608.49 0.518981 -0.685754 0
M  V30 22065 C 3608.48 1.57595 -1.49174 0
M  V30 22066 N 3608.36 1.62909 -2.80066 0
M  V30 22067 C 3608.24 0.388195 -3.3073 0
M  V30 22068 H 3605.26 -0.374765 -8.67791 0
M  V30 22069 H 3604.99 -0.443613 -6.90476 0
M  V30 22070 H 3605.86 1.75559 -7.96891 0
M  V30 22071 H 3608.51 1.94563 -5.46818 0
M  V30 22072 H 3608.79 -0.608651 -7.04676 0
M  V30 22073 H 3609.78 0.889796 -7.09039 0
M  V30 22074 H 3607.95 0.433128 -9.04664 0
M  V30 22075 H 3607.91 -1.89246 -5.57664 0
M  V30 22076 H 3608.29 -2.71005 -0.804694 0
M  V30 22077 H 3608.48 -1.63189 0.603768 0
M  V30 22078 H 3608.59 2.53475 -0.997614 0
M  V30 22079 P 3609.82 2.75334 -8.47391 0
M  V30 22080 O 3610.04 3.84128 -9.44797 0
M  V30 22081 O 3610.61 1.51947 -8.68712 0
M  V30 22082 O 3610.07 3.29363 -6.99321 0
M  V30 22083 C 3609.13 4.24011 -6.4274 0
M  V30 22084 C 3609.86 5.20775 -5.52155 0
M  V30 22085 O 3610.07 4.56534 -4.22446 0
M  V30 22086 C 3611.26 5.62629 -5.96531 0
M  V30 22087 O 3611.65 6.87667 -5.41053 0
M  V30 22088 C 3612.14 4.52537 -5.39283 0
M  V30 22089 C 3611.43 4.20027 -4.08623 0
M  V30 22090 N 3611.48 2.76189 -3.71603 0
M  V30 22091 H 3608.64 4.797 -7.24003 0
M  V30 22092 H 3608.37 3.69856 -5.84513 0
M  V30 22093 H 3609.24 6.10356 -5.41441 0
M  V30 22094 P 3613.2 7.20834 -5.23717 0
M  V30 22095 O 3613.42 8.66104 -5.38572 0
M  V30 22096 O 3613.99 6.33544 -6.1349 0
M  V30 22097 O 3613.45 6.7751 -3.72168 0
M  V30 22098 C 3612.51 7.20825 -2.7076 0
M  V30 22099 C 3613.24 7.45864 -1.40599 0
M  V30 22100 O 3613.45 6.17651 -0.734225 0
M  V30 22101 C 3614.64 8.05808 -1.51899 0
M  V30 22102 O 3615.03 8.74358 -0.335205 0
M  V30 22103 C 3615.52 6.83093 -1.70294 0
M  V30 22104 C 3614.81 5.79992 -0.836974 0
M  V30 22105 N 3614.86 4.41864 -1.38293 0
M  V30 22106 H 3612.02 8.13644 -3.0377 0
M  V30 22107 H 3611.75 6.42788 -2.55485 0
M  V30 22108 H 3612.62 8.12039 -0.792769 0
M  V30 22109 P 3616.58 8.91 -1.36032e-10 0
M  V30 22110 O 3616.8 10.1726 0.733694 0
M  V30 22111 O 3617.37 8.73148 -1.23936 0
M  V30 22112 O 3616.83 7.66872 0.971405 0
M  V30 22113 C 3615.89 7.42309 2.04641 0
M  V30 22114 C 3616.62 6.86059 3.24661 0
M  V30 22115 O 3616.83 5.42847 3.03646 0
M  V30 22116 C 3618.02 7.41196 3.50753 0
M  V30 22117 O 3618.41 7.27073 4.86816 0
M  V30 22118 C 3618.9 6.5273 2.63741 0
M  V30 22119 C 3618.19 5.1842 2.73198 0
M  V30 22120 N 3618.24 4.38762 1.4784 0
M  V30 22121 H 3615.4 8.36803 2.32493 0
M  V30 22122 H 3615.13 6.70197 1.71129 0
M  V30 22123 H 3616 7.03551 4.13168 0
M  V30 22124 P 3619.96 7.20834 5.23717 0
M  V30 22125 O 3620.18 7.79853 6.57286 0
M  V30 22126 O 3620.75 7.79239 4.12957 0
M  V30 22127 O 3620.21 5.63315 5.29344 0
M  V30 22128 C 3619.27 4.80255 6.01876 0
M  V30 22129 C 3620 3.64202 6.65911 0
M  V30 22130 O 3620.21 2.60694 5.64732 0
M  V30 22131 C 3621.4 3.93473 7.1943 0
M  V30 22132 O 3621.79 3.02071 8.21205 0
M  V30 22133 C 3622.28 3.73047 5.97036 0
M  V30 22134 C 3621.57 2.58828 5.25741 0
M  V30 22135 N 3621.62 2.68068 3.77503 0
M  V30 22136 H 3618.78 5.40332 6.79951 0
M  V30 22137 H 3618.51 4.41613 5.32378 0
M  V30 22138 H 3619.38 3.26331 7.47797 0
M  V30 22139 P 3623.34 2.75334 8.47391 0
M  V30 22140 O 3623.56 2.44571 9.90142 0
M  V30 22141 O 3624.13 3.87688 7.92115 0
M  V30 22142 O 3623.59 1.4459 7.59357 0
M  V30 22143 C 3622.65 0.347608 7.69215 0
M  V30 22144 C 3623.38 -0.96767 7.52806 0
M  V30 22145 O 3623.59 -1.21036 6.1011 0
M  V30 22146 C 3624.78 -1.04544 8.13308 0
M  V30 22147 O 3625.17 -2.38311 8.41922 0
M  V30 22148 C 3625.66 -0.491279 7.02284 0
M  V30 22149 C 3624.95 -0.996264 5.77469 0
M  V30 22150 N 3625 -0.0501916 4.62973 0
M  V30 22151 H 3622.16 0.374722 8.67691 0
M  V30 22152 H 3621.89 0.443485 6.90277 0
M  V30 22153 H 3622.76 -1.75537 7.96793 0
M  V30 22154 P 3626.72 -2.75334 8.47391 0
M  V30 22155 O 3626.94 -3.84128 9.44797 0
M  V30 22156 O 3627.51 -1.51947 8.68712 0
M  V30 22157 O 3626.97 -3.29363 6.99321 0
M  V30 22158 C 3626.03 -4.24011 6.4274 0
M  V30 22159 C 3626.76 -5.20775 5.52155 0
M  V30 22160 O 3626.97 -4.56534 4.22446 0
M  V30 22161 C 3628.16 -5.62629 5.96531 0
M  V30 22162 O 3628.55 -6.87667 5.41053 0
M  V30 22163 C 3629.04 -4.52537 5.39283 0
M  V30 22164 C 3628.33 -4.20027 4.08623 0
M  V30 22165 N 3628.38 -2.76189 3.71603 0
M  V30 22166 H 3625.54 -4.797 7.24003 0
M  V30 22167 H 3625.27 -3.69856 5.84513 0
M  V30 22168 H 3626.14 -6.10356 5.41441 0
M  V30 22169 P 3630.1 -7.20834 5.23717 0
M  V30 22170 O 3630.32 -8.66104 5.38572 0
M  V30 22171 O 3630.89 -6.33544 6.1349 0
M  V30 22172 O 3630.35 -6.7751 3.72168 0
M  V30 22173 C 3629.41 -7.20825 2.7076 0
M  V30 22174 C 3630.14 -7.45864 1.40599 0
M  V30 22175 O 3630.35 -6.17651 0.734225 0
M  V30 22176 C 3631.54 -8.05808 1.51899 0
M  V30 22177 O 3631.93 -8.74358 0.335205 0
M  V30 22178 C 3632.42 -6.83093 1.70294 0
M  V30 22179 C 3631.71 -5.79992 0.836974 0
M  V30 22180 N 3631.76 -4.41864 1.38293 0
M  V30 22181 H 3628.92 -8.13644 3.0377 0
M  V30 22182 H 3628.65 -6.42788 2.55485 0
M  V30 22183 H 3629.52 -8.12039 0.792769 0
M  V30 22184 P 3633.48 -8.91 1.37141e-10 0
M  V30 22185 O 3633.7 -10.1726 -0.733694 0
M  V30 22186 O 3634.27 -8.73148 1.23936 0
M  V30 22187 O 3633.73 -7.66872 -0.971405 0
M  V30 22188 C 3632.79 -7.42309 -2.04641 0
M  V30 22189 C 3633.52 -6.86059 -3.24661 0
M  V30 22190 O 3633.73 -5.42847 -3.03646 0
M  V30 22191 C 3634.92 -7.41196 -3.50753 0
M  V30 22192 O 3635.31 -7.27073 -4.86816 0
M  V30 22193 C 3635.8 -6.5273 -2.63741 0
M  V30 22194 C 3635.09 -5.1842 -2.73198 0
M  V30 22195 N 3635.14 -4.38762 -1.4784 0
M  V30 22196 C 3635.06 -4.81605 -0.168631 0
M  V30 22197 N 3635.14 -3.85454 0.713363 0
M  V30 22198 C 3635.28 -2.6994 -0.0566958 0
M  V30 22199 C 3635.41 -1.34815 0.338502 0
M  V30 22200 N 3635.53 -0.496304 -0.77465 0
M  V30 22201 C 3635.53 -0.908403 -2.09122 0
M  V30 22202 N 3635.66 0.0517805 -3.00955 0
M  V30 22203 N 3635.4 -2.17875 -2.46519 0
M  V30 22204 C 3635.28 -3.01988 -1.4033 0
M  V30 22205 H 3632.3 -8.36803 -2.32493 0
M  V30 22206 H 3632.03 -6.70197 -1.71129 0
M  V30 22207 H 3632.9 -7.03551 -4.13168 0
M  V30 22208 P 3636.86 -7.20834 -5.23717 0
M  V30 22209 O 3637.08 -7.79853 -6.57286 0
M  V30 22210 O 3637.65 -7.79239 -4.12957 0
M  V30 22211 O 3637.11 -5.63315 -5.29344 0
M  V30 22212 C 3636.17 -4.80255 -6.01876 0
M  V30 22213 C 3636.9 -3.64202 -6.65911 0
M  V30 22214 O 3637.11 -2.60694 -5.64732 0
M  V30 22215 C 3638.3 -3.93473 -7.1943 0
M  V30 22216 O 3638.69 -3.02071 -8.21205 0
M  V30 22217 C 3639.18 -3.73047 -5.97036 0
M  V30 22218 C 3638.47 -2.58828 -5.25741 0
M  V30 22219 N 3638.52 -2.68068 -3.77503 0
M  V30 22220 H 3635.68 -5.40332 -6.79951 0
M  V30 22221 H 3635.41 -4.41613 -5.32378 0
M  V30 22222 H 3636.28 -3.26331 -7.47797 0
M  V30 22223 P 3640.24 -2.75334 -8.47391 0
M  V30 22224 O 3640.46 -2.44571 -9.90142 0
M  V30 22225 O 3641.03 -3.87688 -7.92115 0
M  V30 22226 O 3640.49 -1.4459 -7.59357 0
M  V30 22227 C 3639.55 -0.347608 -7.69215 0
M  V30 22228 C 3640.28 0.96767 -7.52806 0
M  V30 22229 O 3640.49 1.21036 -6.1011 0
M  V30 22230 C 3641.68 1.04544 -8.13308 0
M  V30 22231 O 3642.07 2.38311 -8.41922 0
M  V30 22232 C 3642.56 0.491279 -7.02284 0
M  V30 22233 C 3641.85 0.996264 -5.77469 0
M  V30 22234 N 3641.9 0.0501916 -4.62973 0
M  V30 22235 H 3639.06 -0.374722 -8.67691 0
M  V30 22236 H 3638.79 -0.443485 -6.90277 0
M  V30 22237 H 3639.66 1.75537 -7.96793 0
M  V30 22238 P 3643.62 2.75334 -8.47391 0
M  V30 22239 O 3643.84 3.84166 -9.4489 0
M  V30 22240 O 3644.41 1.51964 -8.6881 0
M  V30 22241 O 3643.87 3.29363 -6.99321 0
M  V30 22242 C 3642.93 4.23956 -6.42656 0
M  V30 22243 C 3643.66 5.20775 -5.52155 0
M  V30 22244 O 3643.87 4.56534 -4.22446 0
M  V30 22245 C 3645.06 5.62629 -5.96531 0
M  V30 22246 O 3645.45 6.87667 -5.41053 0
M  V30 22247 C 3645.94 4.52537 -5.39283 0
M  V30 22248 C 3645.23 4.20027 -4.08623 0
M  V30 22249 N 3645.28 2.7613 -3.71522 0
M  V30 22250 C 3645.43 2.45612 -2.37989 0
M  V30 22251 O 3645.52 3.30919 -1.51621 0
M  V30 22252 N 3645.47 1.10684 -2.08435 0
M  V30 22253 C 3645.38 0.0690084 -2.9792 0
M  V30 22254 C 3645.23 0.481522 -4.35345 0
M  V30 22255 C 3645.18 1.78906 -4.67968 0
M  V30 22256 H 3642.44 4.797 -7.24003 0
M  V30 22257 H 3642.17 3.69802 -5.84429 0
M  V30 22258 H 3643.04 6.10356 -5.41441 0
M  V30 22259 H 3645.69 4.78651 -3.27911 0
M  V30 22260 H 3645.97 3.64957 -6.05871 0
M  V30 22261 H 3646.96 4.8868 -5.2125 0
M  V30 22262 H 3645.13 5.66726 -7.06352 0
M  V30 22263 H 3645.06 2.07737 -5.72367 0
M  V30 22264 P 3647 7.20834 -5.23717 0
M  V30 22265 O 3647.22 8.66104 -5.38572 0
M  V30 22266 O 3647.79 6.33544 -6.1349 0
M  V30 22267 O 3647.25 6.7751 -3.72168 0
M  V30 22268 C 3646.31 7.20825 -2.7076 0
M  V30 22269 C 3647.04 7.45864 -1.40599 0
M  V30 22270 O 3647.25 6.17651 -0.734225 0
M  V30 22271 C 3648.44 8.05808 -1.51899 0
M  V30 22272 O 3648.83 8.74358 -0.335205 0
M  V30 22273 C 3649.32 6.83093 -1.70294 0
M  V30 22274 C 3648.61 5.79992 -0.836974 0
M  V30 22275 N 3648.66 4.41864 -1.38293 0
M  V30 22276 H 3645.82 8.13644 -3.0377 0
M  V30 22277 H 3645.55 6.42788 -2.55485 0
M  V30 22278 H 3646.42 8.12039 -0.792769 0
M  V30 22279 P 3650.38 8.91 -1.3825e-10 0
M  V30 22280 O 3650.6 10.1726 0.733694 0
M  V30 22281 O 3651.17 8.73148 -1.23936 0
M  V30 22282 O 3650.63 7.66872 0.971405 0
M  V30 22283 C 3649.69 7.42309 2.04641 0
M  V30 22284 C 3650.42 6.86059 3.24661 0
M  V30 22285 O 3650.63 5.42847 3.03646 0
M  V30 22286 C 3651.82 7.41196 3.50753 0
M  V30 22287 O 3652.21 7.27073 4.86816 0
M  V30 22288 C 3652.7 6.5273 2.63741 0
M  V30 22289 C 3651.99 5.1842 2.73198 0
M  V30 22290 N 3652.04 4.38762 1.4784 0
M  V30 22291 H 3649.2 8.36803 2.32493 0
M  V30 22292 H 3648.93 6.70197 1.71129 0
M  V30 22293 H 3649.8 7.03551 4.13168 0
M  V30 22294 P 3653.76 7.20834 5.23717 0
M  V30 22295 O 3653.98 7.79853 6.57286 0
M  V30 22296 O 3654.55 7.79239 4.12957 0
M  V30 22297 O 3654.01 5.63315 5.29344 0
M  V30 22298 C 3653.07 4.80255 6.01876 0
M  V30 22299 C 3653.8 3.64202 6.65911 0
M  V30 22300 O 3654.01 2.60694 5.64732 0
M  V30 22301 C 3655.2 3.93473 7.1943 0
M  V30 22302 O 3655.59 3.02071 8.21205 0
M  V30 22303 C 3656.08 3.73047 5.97036 0
M  V30 22304 C 3655.37 2.58828 5.25741 0
M  V30 22305 N 3655.42 2.68068 3.77503 0
M  V30 22306 H 3652.58 5.40332 6.79951 0
M  V30 22307 H 3652.31 4.41613 5.32378 0
M  V30 22308 H 3653.18 3.26331 7.47797 0
M  V30 22309 P 3657.14 2.75334 8.47391 0
M  V30 22310 O 3657.36 2.44619 9.90336 0
M  V30 22311 O 3657.93 3.87776 7.92294 0
M  V30 22312 O 3657.39 1.4459 7.59357 0
M  V30 22313 C 3656.45 0.347653 7.69315 0
M  V30 22314 C 3657.18 -0.96767 7.52806 0
M  V30 22315 O 3657.39 -1.21055 6.10208 0
M  V30 22316 C 3658.58 -1.04557 8.13408 0
M  V30 22317 O 3658.97 -2.38311 8.41922 0
M  V30 22318 C 3659.46 -0.491279 7.02284 0
M  V30 22319 C 3658.75 -0.996264 5.77469 0
M  V30 22320 N 3658.8 -0.0501916 4.62973 0
M  V30 22321 C 3658.72 1.31969 4.65661 0
M  V30 22322 N 3658.79 1.86649 3.48119 0
M  V30 22323 C 3658.94 0.792089 2.62406 0
M  V30 22324 C 3659.07 0.705684 1.2207 0
M  V30 22325 N 3659.08 1.76207 0.413762 0
M  V30 22326 N 3659.19 -0.518981 0.685754 0
M  V30 22327 C 3659.18 -1.57595 1.49174 0
M  V30 22328 N 3659.06 -1.62909 2.80066 0
M  V30 22329 C 3658.94 -0.388195 3.3073 0
M  V30 22330 H 3655.96 0.374765 8.67791 0
M  V30 22331 H 3655.69 0.443613 6.90476 0
M  V30 22332 H 3656.56 -1.75559 7.96891 0
M  V30 22333 H 3659.21 -1.94563 5.46818 0
M  V30 22334 H 3659.49 0.608651 7.04676 0
M  V30 22335 H 3660.48 -0.889796 7.09039 0
M  V30 22336 H 3658.65 -0.433128 9.04664 0
M  V30 22337 H 3658.61 1.89246 5.57664 0
M  V30 22338 H 3658.99 2.71005 0.804694 0
M  V30 22339 H 3659.18 1.63189 -0.603768 0
M  V30 22340 H 3659.29 -2.53475 0.997614 0
M  V30 22341 P 3660.52 -2.75334 8.47391 0
M  V30 22342 O 3660.74 -3.84128 9.44797 0
M  V30 22343 O 3661.31 -1.51947 8.68712 0
M  V30 22344 O 3660.77 -3.29363 6.99321 0
M  V30 22345 C 3659.83 -4.24011 6.4274 0
M  V30 22346 C 3660.56 -5.20775 5.52155 0
M  V30 22347 O 3660.77 -4.56534 4.22446 0
M  V30 22348 C 3661.96 -5.62629 5.96531 0
M  V30 22349 O 3662.35 -6.87667 5.41053 0
M  V30 22350 C 3662.84 -4.52537 5.39283 0
M  V30 22351 C 3662.13 -4.20027 4.08623 0
M  V30 22352 N 3662.18 -2.76189 3.71603 0
M  V30 22353 H 3659.34 -4.797 7.24003 0
M  V30 22354 H 3659.07 -3.69856 5.84513 0
M  V30 22355 H 3659.94 -6.10356 5.41441 0
M  V30 22356 P 3663.9 -7.20834 5.23717 0
M  V30 22357 O 3664.12 -8.66189 5.38625 0
M  V30 22358 O 3664.69 -6.33615 6.1356 0
M  V30 22359 O 3664.15 -6.7751 3.72168 0
M  V30 22360 C 3663.21 -7.20732 2.70725 0
M  V30 22361 C 3663.94 -7.45864 1.40599 0
M  V30 22362 O 3664.15 -6.17651 0.734225 0
M  V30 22363 C 3665.34 -8.05808 1.51899 0
M  V30 22364 O 3665.73 -8.74358 0.335205 0
M  V30 22365 C 3666.22 -6.83093 1.70294 0
M  V30 22366 C 3665.51 -5.79992 0.836974 0
M  V30 22367 N 3665.56 -4.41769 1.38263 0
M  V30 22368 C 3665.71 -3.38591 0.481702 0
M  V30 22369 O 3665.8 -3.56839 -0.718452 0
M  V30 22370 N 3665.75 -2.1206 1.03569 0
M  V30 22371 C 3665.66 -1.80696 2.36966 0
M  V30 22372 O 3665.71 -0.630473 2.74862 0
M  V30 22373 C 3665.51 -2.94845 3.23898 0
M  V30 22374 C 3665.4 -2.65253 4.70362 0
M  V30 22375 C 3665.46 -4.19803 2.73435 0
M  V30 22376 H 3662.72 -8.13644 3.0377 0
M  V30 22377 H 3662.45 -6.42695 2.55448 0
M  V30 22378 H 3663.32 -8.12039 0.792769 0
M  V30 22379 H 3665.97 -5.79978 -0.160587 0
M  V30 22380 H 3666.25 -6.51379 2.75643 0
M  V30 22381 H 3667.24 -7.01734 1.34462 0
M  V30 22382 H 3665.41 -8.73674 2.38337 0
M  V30 22383 H 3665.34 -5.04492 3.4095 0
M  V30 22384 H 3666.37 -2.83924 5.1913 0
M  V30 22385 H 3664.63 -3.29824 5.15163 0
M  V30 22386 H 3665.12 -1.59723 4.84449 0
M  V30 22387 H 3665.85 -1.35644 0.399345 0
M  V30 22388 P 3667.28 -8.91 1.39359e-10 0
M  V30 22389 O 3667.5 -10.1726 -0.733694 0
M  V30 22390 O 3668.07 -8.73148 1.23936 0
M  V30 22391 O 3667.53 -7.66872 -0.971405 0
M  V30 22392 C 3666.59 -7.42309 -2.04641 0
M  V30 22393 C 3667.32 -6.86059 -3.24661 0
M  V30 22394 O 3667.53 -5.42847 -3.03646 0
M  V30 22395 C 3668.72 -7.41196 -3.50753 0
M  V30 22396 O 3669.11 -7.27073 -4.86816 0
M  V30 22397 C 3669.6 -6.5273 -2.63741 0
M  V30 22398 C 3668.89 -5.1842 -2.73198 0
M  V30 22399 N 3668.94 -4.38762 -1.4784 0
M  V30 22400 C 3668.86 -4.81605 -0.168631 0
M  V30 22401 N 3668.94 -3.85454 0.713363 0
M  V30 22402 C 3669.08 -2.6994 -0.0566958 0
M  V30 22403 C 3669.21 -1.34815 0.338502 0
M  V30 22404 N 3669.33 -0.496304 -0.77465 0
M  V30 22405 C 3669.33 -0.908403 -2.09122 0
M  V30 22406 N 3669.46 0.0517805 -3.00955 0
M  V30 22407 N 3669.2 -2.17875 -2.46519 0
M  V30 22408 C 3669.08 -3.01988 -1.4033 0
M  V30 22409 H 3666.1 -8.36803 -2.32493 0
M  V30 22410 H 3665.83 -6.70197 -1.71129 0
M  V30 22411 H 3666.7 -7.03551 -4.13168 0
M  V30 22412 P 3670.66 -7.20834 -5.23717 0
M  V30 22413 O 3670.88 -7.79853 -6.57286 0
M  V30 22414 O 3671.45 -7.79239 -4.12957 0
M  V30 22415 O 3670.91 -5.63315 -5.29344 0
M  V30 22416 C 3669.97 -4.80255 -6.01876 0
M  V30 22417 C 3670.7 -3.64202 -6.65911 0
M  V30 22418 O 3670.91 -2.60694 -5.64732 0
M  V30 22419 C 3672.1 -3.93473 -7.1943 0
M  V30 22420 O 3672.49 -3.02071 -8.21205 0
M  V30 22421 C 3672.98 -3.73047 -5.97036 0
M  V30 22422 C 3672.27 -2.58828 -5.25741 0
M  V30 22423 N 3672.32 -2.68068 -3.77503 0
M  V30 22424 H 3669.48 -5.40332 -6.79951 0
M  V30 22425 H 3669.21 -4.41613 -5.32378 0
M  V30 22426 H 3670.08 -3.26331 -7.47797 0
M  V30 22427 P 3674.04 -2.75334 -8.47391 0
M  V30 22428 O 3674.26 -2.44571 -9.90142 0
M  V30 22429 O 3674.83 -3.87688 -7.92115 0
M  V30 22430 O 3674.29 -1.4459 -7.59357 0
M  V30 22431 C 3673.35 -0.347608 -7.69215 0
M  V30 22432 C 3674.08 0.96767 -7.52806 0
M  V30 22433 O 3674.29 1.21036 -6.1011 0
M  V30 22434 C 3675.48 1.04544 -8.13308 0
M  V30 22435 O 3675.87 2.38311 -8.41922 0
M  V30 22436 C 3676.36 0.491279 -7.02284 0
M  V30 22437 C 3675.65 0.996264 -5.77469 0
M  V30 22438 N 3675.7 0.0501916 -4.62973 0
M  V30 22439 H 3672.86 -0.374722 -8.67691 0
M  V30 22440 H 3672.59 -0.443485 -6.90277 0
M  V30 22441 H 3673.46 1.75537 -7.96793 0
M  V30 22442 P 3677.42 2.75334 -8.47391 0
M  V30 22443 O 3677.64 3.84128 -9.44797 0
M  V30 22444 O 3678.21 1.51947 -8.68712 0
M  V30 22445 O 3677.67 3.29363 -6.99321 0
M  V30 22446 C 3676.73 4.24011 -6.4274 0
M  V30 22447 C 3677.46 5.20775 -5.52155 0
M  V30 22448 O 3677.67 4.56534 -4.22446 0
M  V30 22449 C 3678.86 5.62629 -5.96531 0
M  V30 22450 O 3679.25 6.87667 -5.41053 0
M  V30 22451 C 3679.74 4.52537 -5.39283 0
M  V30 22452 C 3679.03 4.20027 -4.08623 0
M  V30 22453 N 3679.08 2.76189 -3.71603 0
M  V30 22454 H 3676.24 4.797 -7.24003 0
M  V30 22455 H 3675.97 3.69856 -5.84513 0
M  V30 22456 H 3676.84 6.10356 -5.41441 0
M  V30 22457 P 3680.8 7.20834 -5.23717 0
M  V30 22458 O 3681.02 8.66104 -5.38572 0
M  V30 22459 O 3681.59 6.33544 -6.1349 0
M  V30 22460 O 3681.05 6.7751 -3.72168 0
M  V30 22461 C 3680.11 7.20825 -2.7076 0
M  V30 22462 C 3680.84 7.45864 -1.40599 0
M  V30 22463 O 3681.05 6.17651 -0.734225 0
M  V30 22464 C 3682.24 8.05808 -1.51899 0
M  V30 22465 O 3682.63 8.74358 -0.335205 0
M  V30 22466 C 3683.12 6.83093 -1.70294 0
M  V30 22467 C 3682.41 5.79992 -0.836974 0
M  V30 22468 N 3682.46 4.41864 -1.38293 0
M  V30 22469 H 3679.62 8.13644 -3.0377 0
M  V30 22470 H 3679.35 6.42788 -2.55485 0
M  V30 22471 H 3680.22 8.12039 -0.792769 0
M  V30 22472 P 3684.18 8.91 -1.40468e-10 0
M  V30 22473 O 3684.4 10.1736 0.733766 0
M  V30 22474 O 3684.97 8.73247 -1.2395 0
M  V30 22475 O 3684.43 7.66872 0.971405 0
M  V30 22476 C 3683.49 7.42212 2.04614 0
M  V30 22477 C 3684.22 6.86059 3.24661 0
M  V30 22478 O 3684.43 5.42847 3.03646 0
M  V30 22479 C 3685.62 7.41196 3.50753 0
M  V30 22480 O 3686.01 7.27073 4.86816 0
M  V30 22481 C 3686.5 6.5273 2.63741 0
M  V30 22482 C 3685.79 5.1842 2.73198 0
M  V30 22483 N 3685.84 4.38668 1.47808 0
M  V30 22484 C 3685.99 3.02239 1.60048 0
M  V30 22485 O 3686.08 2.46459 2.67869 0
M  V30 22486 N 3686.03 2.32436 0.408571 0
M  V30 22487 C 3685.94 2.85471 -0.854993 0
M  V30 22488 O 3685.99 2.12566 -1.8531 0
M  V30 22489 C 3685.79 4.28918 -0.887335 0
M  V30 22490 C 3685.68 4.91066 -2.24619 0
M  V30 22491 C 3685.74 5.00349 0.255399 0
M  V30 22492 H 3683 8.36803 2.32493 0
M  V30 22493 H 3682.73 6.701 1.71105 0
M  V30 22494 H 3683.6 7.03551 4.13168 0
M  V30 22495 H 3686.25 4.59773 3.53894 0
M  V30 22496 H 3686.53 6.88995 1.59871 0
M  V30 22497 H 3687.52 6.46749 3.03687 0
M  V30 22498 H 3685.69 8.46908 3.20714 0
M  V30 22499 H 3685.62 6.08548 0.206986 0
M  V30 22500 H 3686.65 5.34836 -2.53099 0
M  V30 22501 H 3684.91 5.69638 -2.2291 0
M  V30 22502 H 3685.4 4.13971 -2.98044 0
M  V30 22503 H 3686.13 1.33211 0.474216 0
M  V30 22504 P 3687.56 7.20834 5.23717 0
M  V30 22505 O 3687.78 7.79853 6.57286 0
M  V30 22506 O 3688.35 7.79239 4.12957 0
M  V30 22507 O 3687.81 5.63315 5.29344 0
M  V30 22508 C 3686.87 4.80255 6.01876 0
M  V30 22509 C 3687.6 3.64202 6.65911 0
M  V30 22510 O 3687.81 2.60694 5.64732 0
M  V30 22511 C 3689 3.93473 7.1943 0
M  V30 22512 O 3689.39 3.02071 8.21205 0
M  V30 22513 C 3689.88 3.73047 5.97036 0
M  V30 22514 C 3689.17 2.58828 5.25741 0
M  V30 22515 N 3689.22 2.68068 3.77503 0
M  V30 22516 H 3686.38 5.40332 6.79951 0
M  V30 22517 H 3686.11 4.41613 5.32378 0
M  V30 22518 H 3686.98 3.26331 7.47797 0
M  V30 22519 P 3690.94 2.75334 8.47391 0
M  V30 22520 O 3691.16 2.44619 9.90336 0
M  V30 22521 O 3691.73 3.87776 7.92294 0
M  V30 22522 O 3691.19 1.4459 7.59357 0
M  V30 22523 C 3690.25 0.347653 7.69315 0
M  V30 22524 C 3690.98 -0.96767 7.52806 0
M  V30 22525 O 3691.19 -1.21055 6.10208 0
M  V30 22526 C 3692.38 -1.04557 8.13408 0
M  V30 22527 O 3692.77 -2.38311 8.41922 0
M  V30 22528 C 3693.26 -0.491279 7.02284 0
M  V30 22529 C 3692.55 -0.996264 5.77469 0
M  V30 22530 N 3692.6 -0.0501916 4.62973 0
M  V30 22531 C 3692.52 1.31969 4.65661 0
M  V30 22532 N 3692.59 1.86649 3.48119 0
M  V30 22533 C 3692.74 0.792089 2.62406 0
M  V30 22534 C 3692.87 0.705684 1.2207 0
M  V30 22535 N 3692.88 1.76207 0.413762 0
M  V30 22536 N 3692.99 -0.518981 0.685754 0
M  V30 22537 C 3692.98 -1.57595 1.49174 0
M  V30 22538 N 3692.86 -1.62909 2.80066 0
M  V30 22539 C 3692.74 -0.388195 3.3073 0
M  V30 22540 H 3689.76 0.374765 8.67791 0
M  V30 22541 H 3689.49 0.443613 6.90476 0
M  V30 22542 H 3690.36 -1.75559 7.96891 0
M  V30 22543 H 3693.01 -1.94563 5.46818 0
M  V30 22544 H 3693.29 0.608651 7.04676 0
M  V30 22545 H 3694.28 -0.889796 7.09039 0
M  V30 22546 H 3692.45 -0.433128 9.04664 0
M  V30 22547 H 3692.41 1.89246 5.57664 0
M  V30 22548 H 3692.79 2.71005 0.804694 0
M  V30 22549 H 3692.98 1.63189 -0.603768 0
M  V30 22550 H 3693.09 -2.53475 0.997614 0
M  V30 22551 P 3694.32 -2.75334 8.47391 0
M  V30 22552 O 3694.54 -3.84128 9.44797 0
M  V30 22553 O 3695.11 -1.51947 8.68712 0
M  V30 22554 O 3694.57 -3.29363 6.99321 0
M  V30 22555 C 3693.63 -4.24011 6.4274 0
M  V30 22556 C 3694.36 -5.20775 5.52155 0
M  V30 22557 O 3694.57 -4.56534 4.22446 0
M  V30 22558 C 3695.76 -5.62629 5.96531 0
M  V30 22559 O 3696.15 -6.87667 5.41053 0
M  V30 22560 C 3696.64 -4.52537 5.39283 0
M  V30 22561 C 3695.93 -4.20027 4.08623 0
M  V30 22562 N 3695.98 -2.76189 3.71603 0
M  V30 22563 C 3695.9 -1.64862 4.52822 0
M  V30 22564 N 3695.98 -0.512671 3.88633 0
M  V30 22565 C 3696.12 -0.888083 2.54977 0
M  V30 22566 C 3696.25 -0.094668 1.38677 0
M  V30 22567 N 3696.37 -0.890102 0.232633 0
M  V30 22568 C 3696.37 -2.26958 0.21772 0
M  V30 22569 N 3696.5 -2.84626 -0.97925 0
M  V30 22570 N 3696.24 -3.0178 1.31033 0
M  V30 22571 C 3696.12 -2.26781 2.43843 0
M  V30 22572 H 3693.14 -4.797 7.24003 0
M  V30 22573 H 3692.87 -3.69856 5.84513 0
M  V30 22574 H 3693.74 -6.10356 5.41441 0
M  V30 22575 P 3697.7 -7.20834 5.23717 0
M  V30 22576 O 3697.92 -8.66104 5.38572 0
M  V30 22577 O 3698.49 -6.33544 6.1349 0
M  V30 22578 O 3697.95 -6.7751 3.72168 0
M  V30 22579 C 3697.01 -7.20825 2.7076 0
M  V30 22580 C 3697.74 -7.45864 1.40599 0
M  V30 22581 O 3697.95 -6.17651 0.734225 0
M  V30 22582 C 3699.14 -8.05808 1.51899 0
M  V30 22583 O 3699.53 -8.74358 0.335205 0
M  V30 22584 C 3700.02 -6.83093 1.70294 0
M  V30 22585 C 3699.31 -5.79992 0.836974 0
M  V30 22586 N 3699.36 -4.41864 1.38293 0
M  V30 22587 H 3696.52 -8.13644 3.0377 0
M  V30 22588 H 3696.25 -6.42788 2.55485 0
M  V30 22589 H 3697.12 -8.12039 0.792769 0
M  V30 22590 P 3701.08 -8.91 1.41577e-10 0
M  V30 22591 O 3701.3 -10.1746 -0.733838 0
M  V30 22592 O 3701.87 -8.73346 1.23964 0
M  V30 22593 O 3701.33 -7.66872 -0.971405 0
M  V30 22594 C 3700.39 -7.42405 -2.04668 0
M  V30 22595 C 3701.12 -6.86059 -3.24661 0
M  V30 22596 O 3701.33 -5.42934 -3.03695 0
M  V30 22597 C 3702.52 -7.41287 -3.50796 0
M  V30 22598 O 3702.91 -7.27073 -4.86816 0
M  V30 22599 C 3703.4 -6.5273 -2.63741 0
M  V30 22600 C 3702.69 -5.1842 -2.73198 0
M  V30 22601 N 3702.74 -4.38762 -1.4784 0
M  V30 22602 C 3702.66 -4.83651 -0.183876 0
M  V30 22603 N 3702.73 -3.88759 0.699393 0
M  V30 22604 C 3702.88 -2.7404 -0.0575568 0
M  V30 22605 C 3703.01 -1.37902 0.293928 0
M  V30 22606 N 3703.02 -0.938021 1.54797 0
M  V30 22607 N 3703.13 -0.491817 -0.70549 0
M  V30 22608 C 3703.12 -0.931735 -1.95979 0
M  V30 22609 N 3703 -2.16017 -2.41481 0
M  V30 22610 C 3702.88 -3.02547 -1.39121 0
M  V30 22611 H 3699.9 -8.36899 -2.3252 0
M  V30 22612 H 3699.63 -6.70391 -1.71179 0
M  V30 22613 H 3700.5 -7.03638 -4.13219 0
M  V30 22614 H 3703.15 -4.59931 -3.54016 0
M  V30 22615 H 3703.43 -6.88995 -1.59871 0
M  V30 22616 H 3704.42 -6.4684 -3.0373 0
M  V30 22617 H 3702.59 -8.47002 -3.20749 0
M  V30 22618 H 3702.55 -5.8885 0.0765548 0
M  V30 22619 H 3702.93 -1.60276 2.32875 0
M  V30 22620 H 3703.12 0.0699355 1.73859 0
M  V30 22621 H 3703.23 -0.165507 -2.71897 0
M  V30 22622 P 3704.46 -7.20834 -5.23717 0
M  V30 22623 O 3704.68 -7.80006 -6.57415 0
M  V30 22624 O 3705.25 -7.79416 -4.13051 0
M  V30 22625 O 3704.71 -5.63315 -5.29344 0
M  V30 22626 C 3703.77 -4.80318 -6.01954 0
M  V30 22627 C 3704.5 -3.64202 -6.65911 0
M  V30 22628 O 3704.71 -2.60736 -5.64823 0
M  V30 22629 C 3705.9 -3.93521 -7.19518 0
M  V30 22630 O 3706.29 -3.02071 -8.21205 0
M  V30 22631 C 3706.78 -3.73047 -5.97036 0
M  V30 22632 C 3706.07 -2.58828 -5.25741 0
M  V30 22633 N 3706.12 -2.68068 -3.77503 0
M  V30 22634 C 3706.04 -3.80474 -2.99159 0
M  V30 22635 N 3706.11 -3.55622 -1.71925 0
M  V30 22636 C 3706.26 -2.1832 -1.65733 0
M  V30 22637 C 3706.39 -1.28842 -0.572777 0
M  V30 22638 N 3706.4 -1.66875 0.70098 0
M  V30 22639 N 3706.51 0.016788 -0.859836 0
M  V30 22640 C 3706.5 0.398145 -2.13316 0
M  V30 22641 N 3706.38 -0.328224 -3.22333 0
M  V30 22642 C 3706.26 -1.62992 -2.90383 0
M  V30 22643 H 3703.28 -5.40394 -6.8003 0
M  V30 22644 H 3703.01 -4.41741 -5.32532 0
M  V30 22645 H 3703.88 -3.26371 -7.47889 0
M  V30 22646 H 3706.53 -1.64007 -5.56746 0
M  V30 22647 H 3706.81 -4.63439 -5.3432 0
M  V30 22648 H 3707.8 -3.44776 -6.25925 0
M  V30 22649 H 3705.97 -4.96707 -7.57347 0
M  V30 22650 H 3705.93 -4.8089 -3.39924 0
M  V30 22651 H 3706.31 -2.66547 0.941919 0
M  V30 22652 H 3706.5 -0.965341 1.44766 0
M  V30 22653 H 3706.61 1.46427 -2.29697 0
M  V30 22654 P 3707.84 -2.75334 -8.47391 0
M  V30 22655 O 3708.06 -2.44571 -9.90142 0
M  V30 22656 O 3708.63 -3.87688 -7.92115 0
M  V30 22657 O 3708.09 -1.4459 -7.59357 0
M  V30 22658 C 3707.15 -0.347608 -7.69215 0
M  V30 22659 C 3707.88 0.96767 -7.52806 0
M  V30 22660 O 3708.09 1.21036 -6.1011 0
M  V30 22661 C 3709.28 1.04544 -8.13308 0
M  V30 22662 O 3709.67 2.38311 -8.41922 0
M  V30 22663 C 3710.16 0.491279 -7.02284 0
M  V30 22664 C 3709.45 0.996264 -5.77469 0
M  V30 22665 N 3709.5 0.0501916 -4.62973 0
M  V30 22666 H 3706.66 -0.374722 -8.67691 0
M  V30 22667 H 3706.39 -0.443485 -6.90277 0
M  V30 22668 H 3707.26 1.75537 -7.96793 0
M  V30 22669 P 3711.22 2.75334 -8.47391 0
M  V30 22670 O 3711.44 3.84128 -9.44797 0
M  V30 22671 O 3712.01 1.51947 -8.68712 0
M  V30 22672 O 3711.47 3.29363 -6.99321 0
M  V30 22673 C 3710.53 4.24011 -6.4274 0
M  V30 22674 C 3711.26 5.20775 -5.52155 0
M  V30 22675 O 3711.47 4.56534 -4.22446 0
M  V30 22676 C 3712.66 5.62629 -5.96531 0
M  V30 22677 O 3713.05 6.87667 -5.41053 0
M  V30 22678 C 3713.54 4.52537 -5.39283 0
M  V30 22679 C 3712.83 4.20027 -4.08623 0
M  V30 22680 N 3712.88 2.76189 -3.71603 0
M  V30 22681 C 3712.8 1.64862 -4.52822 0
M  V30 22682 N 3712.88 0.512671 -3.88633 0
M  V30 22683 C 3713.02 0.888083 -2.54977 0
M  V30 22684 C 3713.15 0.094668 -1.38677 0
M  V30 22685 N 3713.27 0.890102 -0.232633 0
M  V30 22686 C 3713.27 2.26958 -0.21772 0
M  V30 22687 N 3713.4 2.84626 0.97925 0
M  V30 22688 N 3713.14 3.0178 -1.31033 0
M  V30 22689 C 3713.02 2.26781 -2.43843 0
M  V30 22690 H 3710.04 4.797 -7.24003 0
M  V30 22691 H 3709.77 3.69856 -5.84513 0
M  V30 22692 H 3710.64 6.10356 -5.41441 0
M  V30 22693 P 3714.6 7.20834 -5.23717 0
M  V30 22694 O 3714.82 8.66104 -5.38572 0
M  V30 22695 O 3715.39 6.33544 -6.1349 0
M  V30 22696 O 3714.85 6.7751 -3.72168 0
M  V30 22697 C 3713.91 7.20825 -2.7076 0
M  V30 22698 C 3714.64 7.45864 -1.40599 0
M  V30 22699 O 3714.85 6.17651 -0.734225 0
M  V30 22700 C 3716.04 8.05808 -1.51899 0
M  V30 22701 O 3716.43 8.74358 -0.335205 0
M  V30 22702 C 3716.92 6.83093 -1.70294 0
M  V30 22703 C 3716.21 5.79992 -0.836974 0
M  V30 22704 N 3716.26 4.41864 -1.38293 0
M  V30 22705 H 3713.42 8.13644 -3.0377 0
M  V30 22706 H 3713.15 6.42788 -2.55485 0
M  V30 22707 H 3714.02 8.12039 -0.792769 0
M  V30 22708 P 3717.98 8.91 -1.42686e-10 0
M  V30 22709 O 3718.2 10.1726 0.733694 0
M  V30 22710 O 3718.77 8.73148 -1.23936 0
M  V30 22711 O 3718.23 7.66872 0.971405 0
M  V30 22712 C 3717.29 7.42309 2.04641 0
M  V30 22713 C 3718.02 6.86059 3.24661 0
M  V30 22714 O 3718.23 5.42847 3.03646 0
M  V30 22715 C 3719.42 7.41196 3.50753 0
M  V30 22716 O 3719.81 7.27073 4.86816 0
M  V30 22717 C 3720.3 6.5273 2.63741 0
M  V30 22718 C 3719.59 5.1842 2.73198 0
M  V30 22719 N 3719.64 4.38762 1.4784 0
M  V30 22720 H 3716.8 8.36803 2.32493 0
M  V30 22721 H 3716.53 6.70197 1.71129 0
M  V30 22722 H 3717.4 7.03551 4.13168 0
M  V30 22723 P 3721.36 7.20834 5.23717 0
M  V30 22724 O 3721.58 7.79853 6.57286 0
M  V30 22725 O 3722.15 7.79239 4.12957 0
M  V30 22726 O 3721.61 5.63315 5.29344 0
M  V30 22727 C 3720.67 4.80255 6.01876 0
M  V30 22728 C 3721.4 3.64202 6.65911 0
M  V30 22729 O 3721.61 2.60694 5.64732 0
M  V30 22730 C 3722.8 3.93473 7.1943 0
M  V30 22731 O 3723.19 3.02071 8.21205 0
M  V30 22732 C 3723.68 3.73047 5.97036 0
M  V30 22733 C 3722.97 2.58828 5.25741 0
M  V30 22734 N 3723.02 2.68068 3.77503 0
M  V30 22735 H 3720.18 5.40332 6.79951 0
M  V30 22736 H 3719.91 4.41613 5.32378 0
M  V30 22737 H 3720.78 3.26331 7.47797 0
M  V30 22738 P 3724.74 2.75334 8.47391 0
M  V30 22739 O 3724.96 2.44619 9.90336 0
M  V30 22740 O 3725.53 3.87776 7.92294 0
M  V30 22741 O 3724.99 1.4459 7.59357 0
M  V30 22742 C 3724.05 0.347653 7.69315 0
M  V30 22743 C 3724.78 -0.96767 7.52806 0
M  V30 22744 O 3724.99 -1.21055 6.10208 0
M  V30 22745 C 3726.18 -1.04557 8.13408 0
M  V30 22746 O 3726.57 -2.38311 8.41922 0
M  V30 22747 C 3727.06 -0.491279 7.02284 0
M  V30 22748 C 3726.35 -0.996264 5.77469 0
M  V30 22749 N 3726.4 -0.0501916 4.62973 0
M  V30 22750 C 3726.32 1.31969 4.65661 0
M  V30 22751 N 3726.39 1.86649 3.48119 0
M  V30 22752 C 3726.54 0.792089 2.62406 0
M  V30 22753 C 3726.67 0.705684 1.2207 0
M  V30 22754 N 3726.68 1.76207 0.413762 0
M  V30 22755 N 3726.79 -0.518981 0.685754 0
M  V30 22756 C 3726.78 -1.57595 1.49174 0
M  V30 22757 N 3726.66 -1.62909 2.80066 0
M  V30 22758 C 3726.54 -0.388195 3.3073 0
M  V30 22759 H 3723.56 0.374765 8.67791 0
M  V30 22760 H 3723.29 0.443613 6.90476 0
M  V30 22761 H 3724.16 -1.75559 7.96891 0
M  V30 22762 H 3726.81 -1.94563 5.46818 0
M  V30 22763 H 3727.09 0.608651 7.04676 0
M  V30 22764 H 3728.08 -0.889796 7.09039 0
M  V30 22765 H 3726.25 -0.433128 9.04664 0
M  V30 22766 H 3726.21 1.89246 5.57664 0
M  V30 22767 H 3726.59 2.71005 0.804694 0
M  V30 22768 H 3726.78 1.63189 -0.603768 0
M  V30 22769 H 3726.88 -2.53475 0.997614 0
M  V30 22770 P 3728.12 -2.75334 8.47391 0
M  V30 22771 O 3728.34 -3.84204 9.44982 0
M  V30 22772 O 3728.91 -1.51982 8.68909 0
M  V30 22773 O 3728.37 -3.29363 6.99321 0
M  V30 22774 C 3727.43 -4.24066 6.42823 0
M  V30 22775 C 3728.16 -5.20775 5.52155 0
M  V30 22776 O 3728.37 -4.56607 4.22514 0
M  V30 22777 C 3729.56 -5.62697 5.96604 0
M  V30 22778 O 3729.95 -6.87667 5.41053 0
M  V30 22779 C 3730.44 -4.52537 5.39283 0
M  V30 22780 C 3729.73 -4.20027 4.08623 0
M  V30 22781 N 3729.78 -2.76189 3.71603 0
M  V30 22782 C 3729.7 -1.66944 4.54297 0
M  V30 22783 N 3729.77 -0.536169 3.91344 0
M  V30 22784 C 3729.92 -0.901569 2.58849 0
M  V30 22785 C 3730.05 -0.146599 1.40236 0
M  V30 22786 N 3730.06 1.18234 1.37046 0
M  V30 22787 N 3730.17 -0.822941 0.249738 0
M  V30 22788 C 3730.16 -2.15179 0.280525 0
M  V30 22789 N 3730.04 -2.96414 1.30822 0
M  V30 22790 C 3729.92 -2.25804 2.44748 0
M  V30 22791 H 3726.94 -4.79756 7.24086 0
M  V30 22792 H 3726.67 -3.69963 5.84682 0
M  V30 22793 H 3727.54 -6.10431 5.41508 0
M  V30 22794 H 3730.19 -4.78816 3.28024 0
M  V30 22795 H 3730.47 -3.64957 6.05871 0
M  V30 22796 H 3731.46 -4.88748 5.21323 0
M  V30 22797 H 3729.63 -5.66789 7.0643 0
M  V30 22798 H 3729.59 -1.74684 5.62396 0
M  V30 22799 H 3729.97 1.71949 2.24394 0
M  V30 22800 H 3730.16 1.67511 0.470742 0
M  V30 22801 H 3730.26 -2.63704 -0.6828 0
M  V30 22802 P 3731.5 -7.20834 5.23717 0
M  V30 22803 O 3731.72 -8.66274 5.38678 0
M  V30 22804 O 3732.29 -6.33687 6.13629 0
M  V30 22805 O 3731.75 -6.7751 3.72168 0
M  V30 22806 C 3730.81 -7.20919 2.70795 0
M  V30 22807 C 3731.54 -7.45864 1.40599 0
M  V30 22808 O 3731.75 -6.17751 0.734343 0
M  V30 22809 C 3732.94 -8.05906 1.51917 0
M  V30 22810 O 3733.33 -8.74358 0.335205 0
M  V30 22811 C 3733.82 -6.83093 1.70294 0
M  V30 22812 C 3733.11 -5.79992 0.836974 0
M  V30 22813 N 3733.16 -4.41864 1.38293 0
M  V30 22814 C 3733.08 -4.02089 2.69407 0
M  V30 22815 N 3733.15 -2.73403 2.85089 0
M  V30 22816 C 3733.3 -2.25086 1.5642 0
M  V30 22817 C 3733.43 -0.942887 1.04836 0
M  V30 22818 N 3733.44 0.150999 1.80369 0
M  V30 22819 N 3733.55 -0.812565 -0.28167 0
M  V30 22820 C 3733.54 -1.90572 -1.03784 0
M  V30 22821 N 3733.42 -3.167 -0.683905 0
M  V30 22822 C 3733.3 -3.26538 0.652815 0
M  V30 22823 H 3730.32 -8.13738 3.03804 0
M  V30 22824 H 3730.05 -6.42974 2.55559 0
M  V30 22825 H 3730.92 -8.12139 0.792866 0
M  V30 22826 H 3733.57 -5.80178 -0.160643 0
M  V30 22827 H 3733.85 -6.51379 2.75643 0
M  V30 22828 H 3734.84 -7.01832 1.3448 0
M  V30 22829 H 3733.01 -8.73771 2.38364 0
M  V30 22830 H 3732.97 -4.7189 3.52311 0
M  V30 22831 H 3733.35 0.0721434 2.82608 0
M  V30 22832 H 3733.54 1.0785 1.36544 0
M  V30 22833 H 3733.64 -1.73207 -2.10241 0
M  V30 22834 P 3734.88 -8.91 1.43795e-10 0
M  V30 22835 O 3735.1 -10.1726 -0.733694 0
M  V30 22836 O 3735.67 -8.73148 1.23936 0
M  V30 22837 O 3735.13 -7.66872 -0.971405 0
M  V30 22838 C 3734.19 -7.42309 -2.04641 0
M  V30 22839 C 3734.92 -6.86059 -3.24661 0
M  V30 22840 O 3735.13 -5.42847 -3.03646 0
M  V30 22841 C 3736.32 -7.41196 -3.50753 0
M  V30 22842 O 3736.71 -7.27073 -4.86816 0
M  V30 22843 C 3737.2 -6.5273 -2.63741 0
M  V30 22844 C 3736.49 -5.1842 -2.73198 0
M  V30 22845 N 3736.54 -4.38762 -1.4784 0
M  V30 22846 H 3733.7 -8.36803 -2.32493 0
M  V30 22847 H 3733.43 -6.70197 -1.71129 0
M  V30 22848 H 3734.3 -7.03551 -4.13168 0
M  V30 22849 P 3738.26 -7.20834 -5.23717 0
M  V30 22850 O 3738.48 -7.79853 -6.57286 0
M  V30 22851 O 3739.05 -7.79239 -4.12957 0
M  V30 22852 O 3738.51 -5.63315 -5.29344 0
M  V30 22853 C 3737.57 -4.80255 -6.01876 0
M  V30 22854 C 3738.3 -3.64202 -6.65911 0
M  V30 22855 O 3738.51 -2.60694 -5.64732 0
M  V30 22856 C 3739.7 -3.93473 -7.1943 0
M  V30 22857 O 3740.09 -3.02071 -8.21205 0
M  V30 22858 C 3740.58 -3.73047 -5.97036 0
M  V30 22859 C 3739.87 -2.58828 -5.25741 0
M  V30 22860 N 3739.92 -2.68068 -3.77503 0
M  V30 22861 C 3739.84 -3.79715 -2.96723 0
M  V30 22862 N 3739.92 -3.5377 -1.68852 0
M  V30 22863 C 3740.06 -2.15054 -1.63254 0
M  V30 22864 C 3740.19 -1.28964 -0.518571 0
M  V30 22865 O 3740.21 -1.56826 0.679156 0
M  V30 22866 N 3740.31 0.0538097 -0.918425 0
M  V30 22867 C 3740.31 0.494275 -2.22578 0
M  V30 22868 N 3740.44 1.81086 -2.40434 0
M  V30 22869 N 3740.18 -0.313645 -3.27502 0
M  V30 22870 C 3740.06 -1.61829 -2.91033 0
M  V30 22871 H 3737.08 -5.40332 -6.79951 0
M  V30 22872 H 3736.81 -4.41613 -5.32378 0
M  V30 22873 H 3737.68 -3.26331 -7.47797 0
M  V30 22874 H 3740.33 -1.63422 -5.56814 0
M  V30 22875 H 3740.61 -4.63374 -5.34244 0
M  V30 22876 H 3741.6 -3.44728 -6.25838 0
M  V30 22877 H 3739.77 -4.96652 -7.57263 0
M  V30 22878 H 3739.72 -4.80617 -3.3614 0
M  V30 22879 H 3740.4 0.742702 -0.199384 0
M  V30 22880 H 3740.44 2.20598 -3.35588 0
M  V30 22881 H 3740.54 2.43518 -1.58945 0
M  V30 22882 P 3741.64 -2.75334 -8.47391 0
M  V30 22883 O 3741.86 -2.44571 -9.90142 0
M  V30 22884 O 3742.43 -3.87688 -7.92115 0
M  V30 22885 O 3741.89 -1.4459 -7.59357 0
M  V30 22886 C 3740.95 -0.347608 -7.69215 0
M  V30 22887 C 3741.68 0.96767 -7.52806 0
M  V30 22888 O 3741.89 1.21036 -6.1011 0
M  V30 22889 C 3743.08 1.04544 -8.13308 0
M  V30 22890 O 3743.47 2.38311 -8.41922 0
M  V30 22891 C 3743.96 0.491279 -7.02284 0
M  V30 22892 C 3743.25 0.996264 -5.77469 0
M  V30 22893 N 3743.3 0.0501916 -4.62973 0
M  V30 22894 H 3740.46 -0.374722 -8.67691 0
M  V30 22895 H 3740.19 -0.443485 -6.90277 0
M  V30 22896 H 3741.06 1.75537 -7.96793 0
M  V30 22897 P 3745.02 2.75334 -8.47391 0
M  V30 22898 O 3745.24 3.84128 -9.44797 0
M  V30 22899 O 3745.81 1.51947 -8.68712 0
M  V30 22900 O 3745.27 3.29363 -6.99321 0
M  V30 22901 C 3744.33 4.24011 -6.4274 0
M  V30 22902 C 3745.06 5.20775 -5.52155 0
M  V30 22903 O 3745.27 4.56534 -4.22446 0
M  V30 22904 C 3746.46 5.62629 -5.96531 0
M  V30 22905 O 3746.85 6.87667 -5.41053 0
M  V30 22906 C 3747.34 4.52537 -5.39283 0
M  V30 22907 C 3746.63 4.20027 -4.08623 0
M  V30 22908 N 3746.68 2.76189 -3.71603 0
M  V30 22909 H 3743.84 4.797 -7.24003 0
M  V30 22910 H 3743.57 3.69856 -5.84513 0
M  V30 22911 H 3744.44 6.10356 -5.41441 0
M  V30 22912 P 3748.4 7.20834 -5.23717 0
M  V30 22913 O 3748.62 8.66104 -5.38572 0
M  V30 22914 O 3749.19 6.33544 -6.1349 0
M  V30 22915 O 3748.65 6.7751 -3.72168 0
M  V30 22916 C 3747.71 7.20825 -2.7076 0
M  V30 22917 C 3748.44 7.45864 -1.40599 0
M  V30 22918 O 3748.65 6.17651 -0.734225 0
M  V30 22919 C 3749.84 8.05808 -1.51899 0
M  V30 22920 O 3750.23 8.74358 -0.335205 0
M  V30 22921 C 3750.72 6.83093 -1.70294 0
M  V30 22922 C 3750.01 5.79992 -0.836974 0
M  V30 22923 N 3750.06 4.41864 -1.38293 0
M  V30 22924 H 3747.22 8.13644 -3.0377 0
M  V30 22925 H 3746.95 6.42788 -2.55485 0
M  V30 22926 H 3747.82 8.12039 -0.792769 0
M  V30 22927 P 3751.78 8.91 -1.44904e-10 0
M  V30 22928 O 3752 10.1746 0.733838 0
M  V30 22929 O 3752.57 8.73346 -1.23964 0
M  V30 22930 O 3752.03 7.66872 0.971405 0
M  V30 22931 C 3751.09 7.42405 2.04668 0
M  V30 22932 C 3751.82 6.86059 3.24661 0
M  V30 22933 O 3752.03 5.42934 3.03695 0
M  V30 22934 C 3753.22 7.41287 3.50796 0
M  V30 22935 O 3753.61 7.27073 4.86816 0
M  V30 22936 C 3754.1 6.5273 2.63741 0
M  V30 22937 C 3753.39 5.1842 2.73198 0
M  V30 22938 N 3753.44 4.38762 1.4784 0
M  V30 22939 C 3753.36 4.83651 0.183876 0
M  V30 22940 N 3753.43 3.88759 -0.699393 0
M  V30 22941 C 3753.58 2.7404 0.0575568 0
M  V30 22942 C 3753.71 1.37902 -0.293928 0
M  V30 22943 N 3753.72 0.938021 -1.54797 0
M  V30 22944 N 3753.83 0.491817 0.70549 0
M  V30 22945 C 3753.82 0.931735 1.95979 0
M  V30 22946 N 3753.7 2.16017 2.41481 0
M  V30 22947 C 3753.58 3.02547 1.39121 0
M  V30 22948 H 3750.6 8.36899 2.3252 0
M  V30 22949 H 3750.33 6.70391 1.71179 0
M  V30 22950 H 3751.2 7.03638 4.13219 0
M  V30 22951 H 3753.85 4.59931 3.54016 0
M  V30 22952 H 3754.13 6.88995 1.59871 0
M  V30 22953 H 3755.12 6.4684 3.0373 0
M  V30 22954 H 3753.29 8.47002 3.20749 0
M  V30 22955 H 3753.25 5.8885 -0.0765548 0
M  V30 22956 H 3753.63 1.60276 -2.32875 0
M  V30 22957 H 3753.82 -0.0699355 -1.73859 0
M  V30 22958 H 3753.92 0.165507 2.71897 0
M  V30 22959 P 3755.16 7.20834 5.23717 0
M  V30 22960 O 3755.38 7.79853 6.57286 0
M  V30 22961 O 3755.95 7.79239 4.12957 0
M  V30 22962 O 3755.41 5.63315 5.29344 0
M  V30 22963 C 3754.47 4.80255 6.01876 0
M  V30 22964 C 3755.2 3.64202 6.65911 0
M  V30 22965 O 3755.41 2.60694 5.64732 0
M  V30 22966 C 3756.6 3.93473 7.1943 0
M  V30 22967 O 3756.99 3.02071 8.21205 0
M  V30 22968 C 3757.48 3.73047 5.97036 0
M  V30 22969 C 3756.77 2.58828 5.25741 0
M  V30 22970 N 3756.82 2.68068 3.77503 0
M  V30 22971 H 3753.98 5.40332 6.79951 0
M  V30 22972 H 3753.71 4.41613 5.32378 0
M  V30 22973 H 3754.58 3.26331 7.47797 0
M  V30 22974 P 3758.54 2.75334 8.47391 0
M  V30 22975 O 3758.76 2.44571 9.90142 0
M  V30 22976 O 3759.33 3.87688 7.92115 0
M  V30 22977 O 3758.79 1.4459 7.59357 0
M  V30 22978 C 3757.85 0.347608 7.69215 0
M  V30 22979 C 3758.58 -0.96767 7.52806 0
M  V30 22980 O 3758.79 -1.21036 6.1011 0
M  V30 22981 C 3759.98 -1.04544 8.13308 0
M  V30 22982 O 3760.37 -2.38311 8.41922 0
M  V30 22983 C 3760.86 -0.491279 7.02284 0
M  V30 22984 C 3760.15 -0.996264 5.77469 0
M  V30 22985 N 3760.2 -0.0501916 4.62973 0
M  V30 22986 H 3757.36 0.374722 8.67691 0
M  V30 22987 H 3757.09 0.443485 6.90277 0
M  V30 22988 H 3757.96 -1.75537 7.96793 0
M  V30 22989 P 3761.92 -2.75334 8.47391 0
M  V30 22990 O 3762.14 -3.84204 9.44982 0
M  V30 22991 O 3762.71 -1.51982 8.68909 0
M  V30 22992 O 3762.17 -3.29363 6.99321 0
M  V30 22993 C 3761.23 -4.24066 6.42823 0
M  V30 22994 C 3761.96 -5.20775 5.52155 0
M  V30 22995 O 3762.17 -4.56607 4.22514 0
M  V30 22996 C 3763.36 -5.62697 5.96604 0
M  V30 22997 O 3763.75 -6.87667 5.41053 0
M  V30 22998 C 3764.24 -4.52537 5.39283 0
M  V30 22999 C 3763.53 -4.20027 4.08623 0
M  V30 23000 N 3763.58 -2.76189 3.71603 0
M  V30 23001 C 3763.5 -1.66944 4.54297 0
M  V30 23002 N 3763.57 -0.536169 3.91344 0
M  V30 23003 C 3763.72 -0.901569 2.58849 0
M  V30 23004 C 3763.85 -0.146599 1.40236 0
M  V30 23005 N 3763.86 1.18234 1.37046 0
M  V30 23006 N 3763.97 -0.822941 0.249738 0
M  V30 23007 C 3763.96 -2.15179 0.280525 0
M  V30 23008 N 3763.84 -2.96414 1.30822 0
M  V30 23009 C 3763.72 -2.25804 2.44748 0
M  V30 23010 H 3760.74 -4.79756 7.24086 0
M  V30 23011 H 3760.47 -3.69963 5.84682 0
M  V30 23012 H 3761.34 -6.10431 5.41508 0
M  V30 23013 H 3763.99 -4.78816 3.28024 0
M  V30 23014 H 3764.27 -3.64957 6.05871 0
M  V30 23015 H 3765.26 -4.88748 5.21323 0
M  V30 23016 H 3763.43 -5.66789 7.0643 0
M  V30 23017 H 3763.39 -1.74684 5.62396 0
M  V30 23018 H 3763.77 1.71949 2.24394 0
M  V30 23019 H 3763.96 1.67511 0.470742 0
M  V30 23020 H 3764.06 -2.63704 -0.6828 0
M  V30 23021 P 3765.3 -7.20834 5.23717 0
M  V30 23022 O 3765.52 -8.66274 5.38678 0
M  V30 23023 O 3766.09 -6.33687 6.13629 0
M  V30 23024 O 3765.55 -6.7751 3.72168 0
M  V30 23025 C 3764.61 -7.20919 2.70795 0
M  V30 23026 C 3765.34 -7.45864 1.40599 0
M  V30 23027 O 3765.55 -6.17751 0.734343 0
M  V30 23028 C 3766.74 -8.05906 1.51917 0
M  V30 23029 O 3767.13 -8.74358 0.335205 0
M  V30 23030 C 3767.62 -6.83093 1.70294 0
M  V30 23031 C 3766.91 -5.79992 0.836974 0
M  V30 23032 N 3766.96 -4.41864 1.38293 0
M  V30 23033 C 3766.88 -4.02089 2.69407 0
M  V30 23034 N 3766.95 -2.73403 2.85089 0
M  V30 23035 C 3767.1 -2.25086 1.5642 0
M  V30 23036 C 3767.23 -0.942887 1.04836 0
M  V30 23037 N 3767.24 0.150999 1.80369 0
M  V30 23038 N 3767.35 -0.812565 -0.28167 0
M  V30 23039 C 3767.34 -1.90572 -1.03784 0
M  V30 23040 N 3767.22 -3.167 -0.683905 0
M  V30 23041 C 3767.1 -3.26538 0.652815 0
M  V30 23042 H 3764.12 -8.13738 3.03804 0
M  V30 23043 H 3763.85 -6.42974 2.55559 0
M  V30 23044 H 3764.72 -8.12139 0.792866 0
M  V30 23045 H 3767.37 -5.80178 -0.160643 0
M  V30 23046 H 3767.65 -6.51379 2.75643 0
M  V30 23047 H 3768.64 -7.01832 1.3448 0
M  V30 23048 H 3766.81 -8.73771 2.38364 0
M  V30 23049 H 3766.77 -4.7189 3.52311 0
M  V30 23050 H 3767.15 0.0721434 2.82608 0
M  V30 23051 H 3767.34 1.0785 1.36544 0
M  V30 23052 H 3767.44 -1.73207 -2.10241 0
M  V30 23053 P 3768.68 -8.91 1.46013e-10 0
M  V30 23054 O 3768.9 -10.1726 -0.733694 0
M  V30 23055 O 3769.47 -8.73148 1.23936 0
M  V30 23056 O 3768.93 -7.66872 -0.971405 0
M  V30 23057 C 3767.99 -7.42309 -2.04641 0
M  V30 23058 C 3768.72 -6.86059 -3.24661 0
M  V30 23059 O 3768.93 -5.42847 -3.03646 0
M  V30 23060 C 3770.12 -7.41196 -3.50753 0
M  V30 23061 O 3770.51 -7.27073 -4.86816 0
M  V30 23062 C 3771 -6.5273 -2.63741 0
M  V30 23063 C 3770.29 -5.1842 -2.73198 0
M  V30 23064 N 3770.34 -4.38762 -1.4784 0
M  V30 23065 H 3767.5 -8.36803 -2.32493 0
M  V30 23066 H 3767.23 -6.70197 -1.71129 0
M  V30 23067 H 3768.1 -7.03551 -4.13168 0
M  V30 23068 P 3772.06 -7.20834 -5.23717 0
M  V30 23069 O 3772.28 -7.79853 -6.57286 0
M  V30 23070 O 3772.85 -7.79239 -4.12957 0
M  V30 23071 O 3772.31 -5.63315 -5.29344 0
M  V30 23072 C 3771.37 -4.80255 -6.01876 0
M  V30 23073 C 3772.1 -3.64202 -6.65911 0
M  V30 23074 O 3772.31 -2.60694 -5.64732 0
M  V30 23075 C 3773.5 -3.93473 -7.1943 0
M  V30 23076 O 3773.89 -3.02071 -8.21205 0
M  V30 23077 C 3774.38 -3.73047 -5.97036 0
M  V30 23078 C 3773.67 -2.58828 -5.25741 0
M  V30 23079 N 3773.72 -2.68068 -3.77503 0
M  V30 23080 H 3770.88 -5.40332 -6.79951 0
M  V30 23081 H 3770.61 -4.41613 -5.32378 0
M  V30 23082 H 3771.48 -3.26331 -7.47797 0
M  V30 23083 P 3775.44 -2.75334 -8.47391 0
M  V30 23084 O 3775.66 -2.44571 -9.90142 0
M  V30 23085 O 3776.23 -3.87688 -7.92115 0
M  V30 23086 O 3775.69 -1.4459 -7.59357 0
M  V30 23087 C 3774.75 -0.347608 -7.69215 0
M  V30 23088 C 3775.48 0.96767 -7.52806 0
M  V30 23089 O 3775.69 1.21036 -6.1011 0
M  V30 23090 C 3776.88 1.04544 -8.13308 0
M  V30 23091 O 3777.27 2.38311 -8.41922 0
M  V30 23092 C 3777.76 0.491279 -7.02284 0
M  V30 23093 C 3777.05 0.996264 -5.77469 0
M  V30 23094 N 3777.1 0.0501916 -4.62973 0
M  V30 23095 H 3774.26 -0.374722 -8.67691 0
M  V30 23096 H 3773.99 -0.443485 -6.90277 0
M  V30 23097 H 3774.86 1.75537 -7.96793 0
M  V30 23098 P 3778.82 2.75334 -8.47391 0
M  V30 23099 O 3779.04 3.84128 -9.44797 0
M  V30 23100 O 3779.61 1.51947 -8.68712 0
M  V30 23101 O 3779.07 3.29363 -6.99321 0
M  V30 23102 C 3778.13 4.24011 -6.4274 0
M  V30 23103 C 3778.86 5.20775 -5.52155 0
M  V30 23104 O 3779.07 4.56534 -4.22446 0
M  V30 23105 C 3780.26 5.62629 -5.96531 0
M  V30 23106 O 3780.65 6.87667 -5.41053 0
M  V30 23107 C 3781.14 4.52537 -5.39283 0
M  V30 23108 C 3780.43 4.20027 -4.08623 0
M  V30 23109 N 3780.48 2.76189 -3.71603 0
M  V30 23110 H 3777.64 4.797 -7.24003 0
M  V30 23111 H 3777.37 3.69856 -5.84513 0
M  V30 23112 H 3778.24 6.10356 -5.41441 0
M  V30 23113 P 3782.2 7.20834 -5.23717 0
M  V30 23114 O 3782.42 8.66274 -5.38678 0
M  V30 23115 O 3782.99 6.33687 -6.13629 0
M  V30 23116 O 3782.45 6.7751 -3.72168 0
M  V30 23117 C 3781.51 7.20919 -2.70795 0
M  V30 23118 C 3782.24 7.45864 -1.40599 0
M  V30 23119 O 3782.45 6.17751 -0.734343 0
M  V30 23120 C 3783.64 8.05906 -1.51917 0
M  V30 23121 O 3784.03 8.74358 -0.335205 0
M  V30 23122 C 3784.52 6.83093 -1.70294 0
M  V30 23123 C 3783.81 5.79992 -0.836974 0
M  V30 23124 N 3783.86 4.41864 -1.38293 0
M  V30 23125 C 3783.78 4.02089 -2.69407 0
M  V30 23126 N 3783.85 2.73403 -2.85089 0
M  V30 23127 C 3784 2.25086 -1.5642 0
M  V30 23128 C 3784.13 0.942887 -1.04836 0
M  V30 23129 N 3784.14 -0.150999 -1.80369 0
M  V30 23130 N 3784.25 0.812565 0.28167 0
M  V30 23131 C 3784.24 1.90572 1.03784 0
M  V30 23132 N 3784.12 3.167 0.683905 0
M  V30 23133 C 3784 3.26538 -0.652815 0
M  V30 23134 H 3781.02 8.13738 -3.03804 0
M  V30 23135 H 3780.75 6.42974 -2.55559 0
M  V30 23136 H 3781.62 8.12139 -0.792866 0
M  V30 23137 H 3784.27 5.80178 0.160643 0
M  V30 23138 H 3784.55 6.51379 -2.75643 0
M  V30 23139 H 3785.54 7.01832 -1.3448 0
M  V30 23140 H 3783.71 8.73771 -2.38364 0
M  V30 23141 H 3783.67 4.7189 -3.52311 0
M  V30 23142 H 3784.05 -0.0721434 -2.82608 0
M  V30 23143 H 3784.24 -1.0785 -1.36544 0
M  V30 23144 H 3784.34 1.73207 2.10241 0
M  V30 23145 P 3785.58 8.91 -1.47122e-10 0
M  V30 23146 O 3785.8 10.1726 0.733694 0
M  V30 23147 O 3786.37 8.73148 -1.23936 0
M  V30 23148 O 3785.83 7.66872 0.971405 0
M  V30 23149 C 3784.89 7.42309 2.04641 0
M  V30 23150 C 3785.62 6.86059 3.24661 0
M  V30 23151 O 3785.83 5.42847 3.03646 0
M  V30 23152 C 3787.02 7.41196 3.50753 0
M  V30 23153 O 3787.41 7.27073 4.86816 0
M  V30 23154 C 3787.9 6.5273 2.63741 0
M  V30 23155 C 3787.19 5.1842 2.73198 0
M  V30 23156 N 3787.24 4.38762 1.4784 0
M  V30 23157 H 3784.4 8.36803 2.32493 0
M  V30 23158 H 3784.13 6.70197 1.71129 0
M  V30 23159 H 3785 7.03551 4.13168 0
M  V30 23160 P 3788.96 7.20834 5.23717 0
M  V30 23161 O 3789.18 7.79853 6.57286 0
M  V30 23162 O 3789.75 7.79239 4.12957 0
M  V30 23163 O 3789.21 5.63315 5.29344 0
M  V30 23164 C 3788.27 4.80255 6.01876 0
M  V30 23165 C 3789 3.64202 6.65911 0
M  V30 23166 O 3789.21 2.60694 5.64732 0
M  V30 23167 C 3790.4 3.93473 7.1943 0
M  V30 23168 O 3790.79 3.02071 8.21205 0
M  V30 23169 C 3791.28 3.73047 5.97036 0
M  V30 23170 C 3790.57 2.58828 5.25741 0
M  V30 23171 N 3790.62 2.68068 3.77503 0
M  V30 23172 C 3790.54 3.79715 2.96723 0
M  V30 23173 N 3790.62 3.5377 1.68852 0
M  V30 23174 C 3790.76 2.15054 1.63254 0
M  V30 23175 C 3790.89 1.28964 0.518571 0
M  V30 23176 N 3791.01 -0.0538097 0.918425 0
M  V30 23177 C 3791.01 -0.494275 2.22578 0
M  V30 23178 N 3791.14 -1.81086 2.40434 0
M  V30 23179 N 3790.88 0.313645 3.27502 0
M  V30 23180 C 3790.76 1.61829 2.91033 0
M  V30 23181 H 3787.78 5.40332 6.79951 0
M  V30 23182 H 3787.51 4.41613 5.32378 0
M  V30 23183 H 3788.38 3.26331 7.47797 0
M  V30 23184 P 3792.34 2.75334 8.47391 0
M  V30 23185 O 3792.56 2.44571 9.90142 0
M  V30 23186 O 3793.13 3.87688 7.92115 0
M  V30 23187 O 3792.59 1.4459 7.59357 0
M  V30 23188 C 3791.65 0.347608 7.69215 0
M  V30 23189 C 3792.38 -0.96767 7.52806 0
M  V30 23190 O 3792.59 -1.21036 6.1011 0
M  V30 23191 C 3793.78 -1.04544 8.13308 0
M  V30 23192 O 3794.17 -2.38311 8.41922 0
M  V30 23193 C 3794.66 -0.491279 7.02284 0
M  V30 23194 C 3793.95 -0.996264 5.77469 0
M  V30 23195 N 3794 -0.0501916 4.62973 0
M  V30 23196 H 3791.16 0.374722 8.67691 0
M  V30 23197 H 3790.89 0.443485 6.90277 0
M  V30 23198 H 3791.76 -1.75537 7.96793 0
M  V30 23199 P 3795.72 -2.75334 8.47391 0
M  V30 23200 O 3795.94 -3.84128 9.44797 0
M  V30 23201 O 3796.51 -1.51947 8.68712 0
M  V30 23202 O 3795.97 -3.29363 6.99321 0
M  V30 23203 C 3795.03 -4.24011 6.4274 0
M  V30 23204 C 3795.76 -5.20775 5.52155 0
M  V30 23205 O 3795.97 -4.56534 4.22446 0
M  V30 23206 C 3797.16 -5.62629 5.96531 0
M  V30 23207 O 3797.55 -6.87667 5.41053 0
M  V30 23208 C 3798.04 -4.52537 5.39283 0
M  V30 23209 C 3797.33 -4.20027 4.08623 0
M  V30 23210 N 3797.38 -2.76189 3.71603 0
M  V30 23211 C 3797.3 -1.64862 4.52822 0
M  V30 23212 N 3797.38 -0.512671 3.88633 0
M  V30 23213 C 3797.52 -0.888083 2.54977 0
M  V30 23214 C 3797.65 -0.094668 1.38677 0
M  V30 23215 N 3797.77 -0.890102 0.232633 0
M  V30 23216 C 3797.77 -2.26958 0.21772 0
M  V30 23217 N 3797.9 -2.84626 -0.97925 0
M  V30 23218 N 3797.64 -3.0178 1.31033 0
M  V30 23219 C 3797.52 -2.26781 2.43843 0
M  V30 23220 H 3794.54 -4.797 7.24003 0
M  V30 23221 H 3794.27 -3.69856 5.84513 0
M  V30 23222 H 3795.14 -6.10356 5.41441 0
M  V30 23223 P 3799.1 -7.20834 5.23717 0
M  V30 23224 O 3799.32 -8.66104 5.38572 0
M  V30 23225 O 3799.89 -6.33544 6.1349 0
M  V30 23226 O 3799.35 -6.7751 3.72168 0
M  V30 23227 C 3798.41 -7.20825 2.7076 0
M  V30 23228 C 3799.14 -7.45864 1.40599 0
M  V30 23229 O 3799.35 -6.17651 0.734225 0
M  V30 23230 C 3800.54 -8.05808 1.51899 0
M  V30 23231 O 3800.93 -8.74358 0.335205 0
M  V30 23232 C 3801.42 -6.83093 1.70294 0
M  V30 23233 C 3800.71 -5.79992 0.836974 0
M  V30 23234 N 3800.76 -4.41864 1.38293 0
M  V30 23235 H 3797.92 -8.13644 3.0377 0
M  V30 23236 H 3797.65 -6.42788 2.55485 0
M  V30 23237 H 3798.52 -8.12039 0.792769 0
M  V30 23238 P 3802.48 -8.91 1.48231e-10 0
M  V30 23239 O 3802.7 -10.1736 -0.733766 0
M  V30 23240 O 3803.27 -8.73247 1.2395 0
M  V30 23241 O 3802.73 -7.66872 -0.971405 0
M  V30 23242 C 3801.79 -7.42212 -2.04614 0
M  V30 23243 C 3802.52 -6.86059 -3.24661 0
M  V30 23244 O 3802.73 -5.42847 -3.03646 0
M  V30 23245 C 3803.92 -7.41196 -3.50753 0
M  V30 23246 O 3804.31 -7.27073 -4.86816 0
M  V30 23247 C 3804.8 -6.5273 -2.63741 0
M  V30 23248 C 3804.09 -5.1842 -2.73198 0
M  V30 23249 N 3804.14 -4.38668 -1.47808 0
M  V30 23250 C 3804.29 -3.02239 -1.60048 0
M  V30 23251 O 3804.38 -2.46459 -2.67869 0
M  V30 23252 N 3804.33 -2.32436 -0.408571 0
M  V30 23253 C 3804.24 -2.85471 0.854993 0
M  V30 23254 O 3804.29 -2.12566 1.8531 0
M  V30 23255 C 3804.09 -4.28918 0.887335 0
M  V30 23256 C 3803.98 -4.91066 2.24619 0
M  V30 23257 C 3804.04 -5.00349 -0.255399 0
M  V30 23258 H 3801.3 -8.36803 -2.32493 0
M  V30 23259 H 3801.03 -6.701 -1.71105 0
M  V30 23260 H 3801.9 -7.03551 -4.13168 0
M  V30 23261 H 3804.55 -4.59773 -3.53894 0
M  V30 23262 H 3804.83 -6.88995 -1.59871 0
M  V30 23263 H 3805.82 -6.46749 -3.03687 0
M  V30 23264 H 3803.99 -8.46908 -3.20714 0
M  V30 23265 H 3803.92 -6.08548 -0.206986 0
M  V30 23266 H 3804.95 -5.34836 2.53099 0
M  V30 23267 H 3803.21 -5.69638 2.2291 0
M  V30 23268 H 3803.7 -4.13971 2.98044 0
M  V30 23269 H 3804.43 -1.33211 -0.474216 0
M  V30 23270 P 3805.86 -7.20834 -5.23717 0
M  V30 23271 O 3806.08 -7.79853 -6.57286 0
M  V30 23272 O 3806.65 -7.79239 -4.12957 0
M  V30 23273 O 3806.11 -5.63315 -5.29344 0
M  V30 23274 C 3805.17 -4.80255 -6.01876 0
M  V30 23275 C 3805.9 -3.64202 -6.65911 0
M  V30 23276 O 3806.11 -2.60694 -5.64732 0
M  V30 23277 C 3807.3 -3.93473 -7.1943 0
M  V30 23278 O 3807.69 -3.02071 -8.21205 0
M  V30 23279 C 3808.18 -3.73047 -5.97036 0
M  V30 23280 C 3807.47 -2.58828 -5.25741 0
M  V30 23281 N 3807.52 -2.68068 -3.77503 0
M  V30 23282 H 3804.68 -5.40332 -6.79951 0
M  V30 23283 H 3804.41 -4.41613 -5.32378 0
M  V30 23284 H 3805.28 -3.26331 -7.47797 0
M  V30 23285 P 3809.24 -2.75334 -8.47391 0
M  V30 23286 O 3809.46 -2.44571 -9.90142 0
M  V30 23287 O 3810.03 -3.87688 -7.92115 0
M  V30 23288 O 3809.49 -1.4459 -7.59357 0
M  V30 23289 C 3808.55 -0.347608 -7.69215 0
M  V30 23290 C 3809.28 0.96767 -7.52806 0
M  V30 23291 O 3809.49 1.21036 -6.1011 0
M  V30 23292 C 3810.68 1.04544 -8.13308 0
M  V30 23293 O 3811.07 2.38311 -8.41922 0
M  V30 23294 C 3811.56 0.491279 -7.02284 0
M  V30 23295 C 3810.85 0.996264 -5.77469 0
M  V30 23296 N 3810.9 0.0501916 -4.62973 0
M  V30 23297 H 3808.06 -0.374722 -8.67691 0
M  V30 23298 H 3807.79 -0.443485 -6.90277 0
M  V30 23299 H 3808.66 1.75537 -7.96793 0
M  V30 23300 P 3812.62 2.75334 -8.47391 0
M  V30 23301 O 3812.84 3.84204 -9.44982 0
M  V30 23302 O 3813.41 1.51982 -8.68909 0
M  V30 23303 O 3812.87 3.29363 -6.99321 0
M  V30 23304 C 3811.93 4.24066 -6.42823 0
M  V30 23305 C 3812.66 5.20775 -5.52155 0
M  V30 23306 O 3812.87 4.56607 -4.22514 0
M  V30 23307 C 3814.06 5.62697 -5.96604 0
M  V30 23308 O 3814.45 6.87667 -5.41053 0
M  V30 23309 C 3814.94 4.52537 -5.39283 0
M  V30 23310 C 3814.23 4.20027 -4.08623 0
M  V30 23311 N 3814.28 2.76189 -3.71603 0
M  V30 23312 H 3811.44 4.79756 -7.24086 0
M  V30 23313 H 3811.17 3.69963 -5.84682 0
M  V30 23314 H 3812.04 6.10431 -5.41508 0
M  V30 23315 H 3814.69 4.78816 -3.28024 0
M  V30 23316 H 3814.97 3.64957 -6.05871 0
M  V30 23317 H 3815.96 4.88748 -5.21323 0
M  V30 23318 H 3814.13 5.66789 -7.0643 0
M  V30 23319 P 3816 7.20834 -5.23717 0
M  V30 23320 O 3816.22 8.66274 -5.38678 0
M  V30 23321 O 3816.79 6.33687 -6.13629 0
M  V30 23322 O 3816.25 6.7751 -3.72168 0
M  V30 23323 C 3815.31 7.20919 -2.70795 0
M  V30 23324 C 3816.04 7.45864 -1.40599 0
M  V30 23325 O 3816.25 6.17751 -0.734343 0
M  V30 23326 C 3817.44 8.05906 -1.51917 0
M  V30 23327 O 3817.83 8.74358 -0.335205 0
M  V30 23328 C 3818.32 6.83093 -1.70294 0
M  V30 23329 C 3817.61 5.79992 -0.836974 0
M  V30 23330 N 3817.66 4.41864 -1.38293 0
M  V30 23331 C 3817.58 4.02089 -2.69407 0
M  V30 23332 N 3817.65 2.73403 -2.85089 0
M  V30 23333 C 3817.8 2.25086 -1.5642 0
M  V30 23334 C 3817.93 0.942887 -1.04836 0
M  V30 23335 N 3817.94 -0.150999 -1.80369 0
M  V30 23336 N 3818.05 0.812565 0.28167 0
M  V30 23337 C 3818.04 1.90572 1.03784 0
M  V30 23338 N 3817.92 3.167 0.683905 0
M  V30 23339 C 3817.8 3.26538 -0.652815 0
M  V30 23340 H 3814.82 8.13738 -3.03804 0
M  V30 23341 H 3814.55 6.42974 -2.55559 0
M  V30 23342 H 3815.42 8.12139 -0.792866 0
M  V30 23343 H 3818.07 5.80178 0.160643 0
M  V30 23344 H 3818.35 6.51379 -2.75643 0
M  V30 23345 H 3819.34 7.01832 -1.3448 0
M  V30 23346 H 3817.51 8.73771 -2.38364 0
M  V30 23347 H 3817.47 4.7189 -3.52311 0
M  V30 23348 H 3817.85 -0.0721434 -2.82608 0
M  V30 23349 H 3818.04 -1.0785 -1.36544 0
M  V30 23350 H 3818.14 1.73207 2.10241 0
M  V30 23351 P 3819.38 8.91 -1.4934e-10 0
M  V30 23352 O 3819.6 10.1726 0.733694 0
M  V30 23353 O 3820.17 8.73148 -1.23936 0
M  V30 23354 O 3819.63 7.66872 0.971405 0
M  V30 23355 C 3818.69 7.42309 2.04641 0
M  V30 23356 C 3819.42 6.86059 3.24661 0
M  V30 23357 O 3819.63 5.42847 3.03646 0
M  V30 23358 C 3820.82 7.41196 3.50753 0
M  V30 23359 O 3821.21 7.27073 4.86816 0
M  V30 23360 C 3821.7 6.5273 2.63741 0
M  V30 23361 C 3820.99 5.1842 2.73198 0
M  V30 23362 N 3821.04 4.38762 1.4784 0
M  V30 23363 H 3818.2 8.36803 2.32493 0
M  V30 23364 H 3817.93 6.70197 1.71129 0
M  V30 23365 H 3818.8 7.03551 4.13168 0
M  V30 23366 P 3822.76 7.20834 5.23717 0
M  V30 23367 O 3822.98 7.79853 6.57286 0
M  V30 23368 O 3823.55 7.79239 4.12957 0
M  V30 23369 O 3823.01 5.63315 5.29344 0
M  V30 23370 C 3822.07 4.80255 6.01876 0
M  V30 23371 C 3822.8 3.64202 6.65911 0
M  V30 23372 O 3823.01 2.60694 5.64732 0
M  V30 23373 C 3824.2 3.93473 7.1943 0
M  V30 23374 O 3824.59 3.02071 8.21205 0
M  V30 23375 C 3825.08 3.73047 5.97036 0
M  V30 23376 C 3824.37 2.58828 5.25741 0
M  V30 23377 N 3824.42 2.68068 3.77503 0
M  V30 23378 H 3821.58 5.40332 6.79951 0
M  V30 23379 H 3821.31 4.41613 5.32378 0
M  V30 23380 H 3822.18 3.26331 7.47797 0
M  V30 23381 P 3826.14 2.75334 8.47391 0
M  V30 23382 O 3826.36 2.44571 9.90142 0
M  V30 23383 O 3826.93 3.87688 7.92115 0
M  V30 23384 O 3826.39 1.4459 7.59357 0
M  V30 23385 C 3825.45 0.347608 7.69215 0
M  V30 23386 C 3826.18 -0.96767 7.52806 0
M  V30 23387 O 3826.39 -1.21036 6.1011 0
M  V30 23388 C 3827.58 -1.04544 8.13308 0
M  V30 23389 O 3827.97 -2.38311 8.41922 0
M  V30 23390 C 3828.46 -0.491279 7.02284 0
M  V30 23391 C 3827.75 -0.996264 5.77469 0
M  V30 23392 N 3827.8 -0.0501916 4.62973 0
M  V30 23393 H 3824.96 0.374722 8.67691 0
M  V30 23394 H 3824.69 0.443485 6.90277 0
M  V30 23395 H 3825.56 -1.75537 7.96793 0
M  V30 23396 P 3829.52 -2.75334 8.47391 0
M  V30 23397 O 3829.74 -3.84128 9.44797 0
M  V30 23398 O 3830.31 -1.51947 8.68712 0
M  V30 23399 O 3829.77 -3.29363 6.99321 0
M  V30 23400 C 3828.83 -4.24011 6.4274 0
M  V30 23401 C 3829.56 -5.20775 5.52155 0
M  V30 23402 O 3829.77 -4.56534 4.22446 0
M  V30 23403 C 3830.96 -5.62629 5.96531 0
M  V30 23404 O 3831.35 -6.87667 5.41053 0
M  V30 23405 C 3831.84 -4.52537 5.39283 0
M  V30 23406 C 3831.13 -4.20027 4.08623 0
M  V30 23407 N 3831.18 -2.76189 3.71603 0
M  V30 23408 C 3831.1 -1.64862 4.52822 0
M  V30 23409 N 3831.18 -0.512671 3.88633 0
M  V30 23410 C 3831.32 -0.888083 2.54977 0
M  V30 23411 C 3831.45 -0.094668 1.38677 0
M  V30 23412 O 3831.47 1.13053 1.28163 0
M  V30 23413 N 3831.57 -0.890102 0.232633 0
M  V30 23414 C 3831.57 -2.26958 0.21772 0
M  V30 23415 N 3831.7 -2.84626 -0.97925 0
M  V30 23416 N 3831.44 -3.0178 1.31033 0
M  V30 23417 C 3831.32 -2.26781 2.43843 0
M  V30 23418 H 3828.34 -4.797 7.24003 0
M  V30 23419 H 3828.07 -3.69856 5.84513 0
M  V30 23420 H 3828.94 -6.10356 5.41441 0
M  V30 23421 H 3831.59 -4.79061 3.27488 0
M  V30 23422 H 3831.87 -3.64906 6.05785 0
M  V30 23423 H 3832.86 -4.8868 5.2125 0
M  V30 23424 H 3831.03 -5.66726 7.06352 0
M  V30 23425 H 3830.98 -1.71169 5.60966 0
M  V30 23426 H 3831.66 -0.419134 -0.644739 0
M  V30 23427 H 3831.7 -3.87332 -1.06098 0
M  V30 23428 H 3831.8 -2.26417 -1.82483 0
M  V30 23429 P 3832.9 -7.20834 5.23717 0
M  V30 23430 O 3833.12 -8.66104 5.38572 0
M  V30 23431 O 3833.69 -6.33544 6.1349 0
M  V30 23432 O 3833.15 -6.7751 3.72168 0
M  V30 23433 C 3832.21 -7.20825 2.7076 0
M  V30 23434 C 3832.94 -7.45864 1.40599 0
M  V30 23435 O 3833.15 -6.17651 0.734225 0
M  V30 23436 C 3834.34 -8.05808 1.51899 0
M  V30 23437 O 3834.73 -8.74358 0.335205 0
M  V30 23438 C 3835.22 -6.83093 1.70294 0
M  V30 23439 C 3834.51 -5.79992 0.836974 0
M  V30 23440 N 3834.56 -4.41864 1.38293 0
M  V30 23441 C 3834.48 -3.99538 2.69438 0
M  V30 23442 N 3834.56 -2.69909 2.84277 0
M  V30 23443 C 3834.7 -2.21719 1.5408 0
M  V30 23444 C 3834.83 -0.891712 1.06628 0
M  V30 23445 O 3834.85 0.161298 1.70137 0
M  V30 23446 N 3834.95 -0.856846 -0.334985 0
M  V30 23447 C 3834.95 -1.9641 -1.15789 0
M  V30 23448 N 3835.08 -1.72708 -2.46522 0
M  V30 23449 N 3834.82 -3.21165 -0.713741 0
M  V30 23450 C 3834.7 -3.26797 0.639748 0
M  V30 23451 H 3831.72 -8.13644 3.0377 0
M  V30 23452 H 3831.45 -6.42788 2.55485 0
M  V30 23453 H 3832.32 -8.12039 0.792769 0
M  V30 23454 H 3834.97 -5.80061 -0.166416 0
M  V30 23455 H 3835.25 -6.51287 2.75604 0
M  V30 23456 H 3836.24 -7.01734 1.34462 0
M  V30 23457 H 3834.41 -8.73674 2.38337 0
M  V30 23458 H 3834.36 -4.68207 3.53221 0
M  V30 23459 H 3835.04 0.0398818 -0.767965 0
M  V30 23460 H 3835.08 -2.50995 -3.13503 0
M  V30 23461 H 3835.18 -0.759148 -2.80716 0
M  V30 23462 P 3836.28 -8.91 1.50449e-10 0
M  V30 23463 O 3836.5 -10.1746 -0.733838 0
M  V30 23464 O 3837.07 -8.73346 1.23964 0
M  V30 23465 O 3836.53 -7.66872 -0.971405 0
M  V30 23466 C 3835.59 -7.42405 -2.04668 0
M  V30 23467 C 3836.32 -6.86059 -3.24661 0
M  V30 23468 O 3836.53 -5.42934 -3.03695 0
M  V30 23469 C 3837.72 -7.41287 -3.50796 0
M  V30 23470 O 3838.11 -7.27073 -4.86816 0
M  V30 23471 C 3838.6 -6.5273 -2.63741 0
M  V30 23472 C 3837.89 -5.1842 -2.73198 0
M  V30 23473 N 3837.94 -4.38762 -1.4784 0
M  V30 23474 C 3837.86 -4.83651 -0.183876 0
M  V30 23475 N 3837.93 -3.88759 0.699393 0
M  V30 23476 C 3838.08 -2.7404 -0.0575568 0
M  V30 23477 C 3838.21 -1.37902 0.293928 0
M  V30 23478 N 3838.22 -0.938021 1.54797 0
M  V30 23479 N 3838.33 -0.491817 -0.70549 0
M  V30 23480 C 3838.32 -0.931735 -1.95979 0
M  V30 23481 N 3838.2 -2.16017 -2.41481 0
M  V30 23482 C 3838.08 -3.02547 -1.39121 0
M  V30 23483 H 3835.1 -8.36899 -2.3252 0
M  V30 23484 H 3834.83 -6.70391 -1.71179 0
M  V30 23485 H 3835.7 -7.03638 -4.13219 0
M  V30 23486 H 3838.35 -4.59931 -3.54016 0
M  V30 23487 H 3838.63 -6.88995 -1.59871 0
M  V30 23488 H 3839.62 -6.4684 -3.0373 0
M  V30 23489 H 3837.79 -8.47002 -3.20749 0
M  V30 23490 H 3837.75 -5.8885 0.0765548 0
M  V30 23491 H 3838.13 -1.60276 2.32875 0
M  V30 23492 H 3838.32 0.0699355 1.73859 0
M  V30 23493 H 3838.42 -0.165507 -2.71897 0
M  V30 23494 P 3839.66 -7.20834 -5.23717 0
M  V30 23495 O 3839.88 -7.79853 -6.57286 0
M  V30 23496 O 3840.45 -7.79239 -4.12957 0
M  V30 23497 O 3839.91 -5.63315 -5.29344 0
M  V30 23498 C 3838.97 -4.80255 -6.01876 0
M  V30 23499 C 3839.7 -3.64202 -6.65911 0
M  V30 23500 O 3839.91 -2.60694 -5.64732 0
M  V30 23501 C 3841.1 -3.93473 -7.1943 0
M  V30 23502 O 3841.49 -3.02071 -8.21205 0
M  V30 23503 C 3841.98 -3.73047 -5.97036 0
M  V30 23504 C 3841.27 -2.58828 -5.25741 0
M  V30 23505 N 3841.32 -2.68068 -3.77503 0
M  V30 23506 H 3838.48 -5.40332 -6.79951 0
M  V30 23507 H 3838.21 -4.41613 -5.32378 0
M  V30 23508 H 3839.08 -3.26331 -7.47797 0
M  V30 23509 P 3843.04 -2.75334 -8.47391 0
M  V30 23510 O 3843.26 -2.44571 -9.90142 0
M  V30 23511 O 3843.83 -3.87688 -7.92115 0
M  V30 23512 O 3843.29 -1.4459 -7.59357 0
M  V30 23513 C 3842.35 -0.347608 -7.69215 0
M  V30 23514 C 3843.08 0.96767 -7.52806 0
M  V30 23515 O 3843.29 1.21036 -6.1011 0
M  V30 23516 C 3844.48 1.04544 -8.13308 0
M  V30 23517 O 3844.87 2.38311 -8.41922 0
M  V30 23518 C 3845.36 0.491279 -7.02284 0
M  V30 23519 C 3844.65 0.996264 -5.77469 0
M  V30 23520 N 3844.7 0.0501916 -4.62973 0
M  V30 23521 H 3841.86 -0.374722 -8.67691 0
M  V30 23522 H 3841.59 -0.443485 -6.90277 0
M  V30 23523 H 3842.46 1.75537 -7.96793 0
M  V30 23524 P 3846.42 2.75334 -8.47391 0
M  V30 23525 O 3846.64 3.84128 -9.44797 0
M  V30 23526 O 3847.21 1.51947 -8.68712 0
M  V30 23527 O 3846.67 3.29363 -6.99321 0
M  V30 23528 C 3845.73 4.24011 -6.4274 0
M  V30 23529 C 3846.46 5.20775 -5.52155 0
M  V30 23530 O 3846.67 4.56534 -4.22446 0
M  V30 23531 C 3847.86 5.62629 -5.96531 0
M  V30 23532 O 3848.25 6.87667 -5.41053 0
M  V30 23533 C 3848.74 4.52537 -5.39283 0
M  V30 23534 C 3848.03 4.20027 -4.08623 0
M  V30 23535 N 3848.08 2.76189 -3.71603 0
M  V30 23536 H 3845.24 4.797 -7.24003 0
M  V30 23537 H 3844.97 3.69856 -5.84513 0
M  V30 23538 H 3845.84 6.10356 -5.41441 0
M  V30 23539 P 3849.8 7.20834 -5.23717 0
M  V30 23540 O 3850.02 8.66104 -5.38572 0
M  V30 23541 O 3850.59 6.33544 -6.1349 0
M  V30 23542 O 3850.05 6.7751 -3.72168 0
M  V30 23543 C 3849.11 7.20825 -2.7076 0
M  V30 23544 C 3849.84 7.45864 -1.40599 0
M  V30 23545 O 3850.05 6.17651 -0.734225 0
M  V30 23546 C 3851.24 8.05808 -1.51899 0
M  V30 23547 O 3851.63 8.74358 -0.335205 0
M  V30 23548 C 3852.12 6.83093 -1.70294 0
M  V30 23549 C 3851.41 5.79992 -0.836974 0
M  V30 23550 N 3851.46 4.41864 -1.38293 0
M  V30 23551 C 3851.38 3.99538 -2.69438 0
M  V30 23552 N 3851.46 2.69909 -2.84277 0
M  V30 23553 C 3851.6 2.21719 -1.5408 0
M  V30 23554 C 3851.73 0.891712 -1.06628 0
M  V30 23555 N 3851.85 0.856846 0.334985 0
M  V30 23556 C 3851.85 1.9641 1.15789 0
M  V30 23557 N 3851.98 1.72708 2.46522 0
M  V30 23558 N 3851.72 3.21165 0.713741 0
M  V30 23559 C 3851.6 3.26797 -0.639748 0
M  V30 23560 H 3848.62 8.13644 -3.0377 0
M  V30 23561 H 3848.35 6.42788 -2.55485 0
M  V30 23562 H 3849.22 8.12039 -0.792769 0
M  V30 23563 P 3853.18 8.91 -1.51558e-10 0
M  V30 23564 O 3853.4 10.1726 0.733694 0
M  V30 23565 O 3853.97 8.73148 -1.23936 0
M  V30 23566 O 3853.43 7.66872 0.971405 0
M  V30 23567 C 3852.49 7.42309 2.04641 0
M  V30 23568 C 3853.22 6.86059 3.24661 0
M  V30 23569 O 3853.43 5.42847 3.03646 0
M  V30 23570 C 3854.62 7.41196 3.50753 0
M  V30 23571 O 3855.01 7.27073 4.86816 0
M  V30 23572 C 3855.5 6.5273 2.63741 0
M  V30 23573 C 3854.79 5.1842 2.73198 0
M  V30 23574 N 3854.84 4.38762 1.4784 0
M  V30 23575 H 3852 8.36803 2.32493 0
M  V30 23576 H 3851.73 6.70197 1.71129 0
M  V30 23577 H 3852.6 7.03551 4.13168 0
M  V30 23578 P 3856.56 7.20834 5.23717 0
M  V30 23579 O 3856.78 7.79853 6.57286 0
M  V30 23580 O 3857.35 7.79239 4.12957 0
M  V30 23581 O 3856.81 5.63315 5.29344 0
M  V30 23582 C 3855.87 4.80255 6.01876 0
M  V30 23583 C 3856.6 3.64202 6.65911 0
M  V30 23584 O 3856.81 2.60694 5.64732 0
M  V30 23585 C 3858 3.93473 7.1943 0
M  V30 23586 O 3858.39 3.02071 8.21205 0
M  V30 23587 C 3858.88 3.73047 5.97036 0
M  V30 23588 C 3858.17 2.58828 5.25741 0
M  V30 23589 N 3858.22 2.68068 3.77503 0
M  V30 23590 H 3855.38 5.40332 6.79951 0
M  V30 23591 H 3855.11 4.41613 5.32378 0
M  V30 23592 H 3855.98 3.26331 7.47797 0
M  V30 23593 P 3859.94 2.75334 8.47391 0
M  V30 23594 O 3860.16 2.44571 9.90142 0
M  V30 23595 O 3860.73 3.87688 7.92115 0
M  V30 23596 O 3860.19 1.4459 7.59357 0
M  V30 23597 C 3859.25 0.347608 7.69215 0
M  V30 23598 C 3859.98 -0.96767 7.52806 0
M  V30 23599 O 3860.19 -1.21036 6.1011 0
M  V30 23600 C 3861.38 -1.04544 8.13308 0
M  V30 23601 O 3861.77 -2.38311 8.41922 0
M  V30 23602 C 3862.26 -0.491279 7.02284 0
M  V30 23603 C 3861.55 -0.996264 5.77469 0
M  V30 23604 N 3861.6 -0.0501916 4.62973 0
M  V30 23605 H 3858.76 0.374722 8.67691 0
M  V30 23606 H 3858.49 0.443485 6.90277 0
M  V30 23607 H 3859.36 -1.75537 7.96793 0
M  V30 23608 P 3863.32 -2.75334 8.47391 0
M  V30 23609 O 3863.54 -3.84128 9.44797 0
M  V30 23610 O 3864.11 -1.51947 8.68712 0
M  V30 23611 O 3863.57 -3.29363 6.99321 0
M  V30 23612 C 3862.63 -4.24011 6.4274 0
M  V30 23613 C 3863.36 -5.20775 5.52155 0
M  V30 23614 O 3863.57 -4.56534 4.22446 0
M  V30 23615 C 3864.76 -5.62629 5.96531 0
M  V30 23616 O 3865.15 -6.87667 5.41053 0
M  V30 23617 C 3865.64 -4.52537 5.39283 0
M  V30 23618 C 3864.93 -4.20027 4.08623 0
M  V30 23619 N 3864.98 -2.76189 3.71603 0
M  V30 23620 H 3862.14 -4.797 7.24003 0
M  V30 23621 H 3861.87 -3.69856 5.84513 0
M  V30 23622 H 3862.74 -6.10356 5.41441 0
M  V30 23623 P 3866.7 -7.20834 5.23717 0
M  V30 23624 O 3866.92 -8.66104 5.38572 0
M  V30 23625 O 3867.49 -6.33544 6.1349 0
M  V30 23626 O 3866.95 -6.7751 3.72168 0
M  V30 23627 C 3866.01 -7.20825 2.7076 0
M  V30 23628 C 3866.74 -7.45864 1.40599 0
M  V30 23629 O 3866.95 -6.17651 0.734225 0
M  V30 23630 C 3868.14 -8.05808 1.51899 0
M  V30 23631 O 3868.53 -8.74358 0.335205 0
M  V30 23632 C 3869.02 -6.83093 1.70294 0
M  V30 23633 C 3868.31 -5.79992 0.836974 0
M  V30 23634 N 3868.36 -4.41864 1.38293 0
M  V30 23635 H 3865.52 -8.13644 3.0377 0
M  V30 23636 H 3865.25 -6.42788 2.55485 0
M  V30 23637 H 3866.12 -8.12039 0.792769 0
M  V30 23638 P 3870.08 -8.91 1.52667e-10 0
M  V30 23639 O 3870.3 -10.1726 -0.733694 0
M  V30 23640 O 3870.87 -8.73148 1.23936 0
M  V30 23641 O 3870.33 -7.66872 -0.971405 0
M  V30 23642 C 3869.39 -7.42309 -2.04641 0
M  V30 23643 C 3870.12 -6.86059 -3.24661 0
M  V30 23644 O 3870.33 -5.42847 -3.03646 0
M  V30 23645 C 3871.52 -7.41196 -3.50753 0
M  V30 23646 O 3871.91 -7.27073 -4.86816 0
M  V30 23647 C 3872.4 -6.5273 -2.63741 0
M  V30 23648 C 3871.69 -5.1842 -2.73198 0
M  V30 23649 N 3871.74 -4.38762 -1.4784 0
M  V30 23650 H 3868.9 -8.36803 -2.32493 0
M  V30 23651 H 3868.63 -6.70197 -1.71129 0
M  V30 23652 H 3869.5 -7.03551 -4.13168 0
M  V30 23653 P 3873.46 -7.20834 -5.23717 0
M  V30 23654 O 3873.68 -7.79853 -6.57286 0
M  V30 23655 O 3874.25 -7.79239 -4.12957 0
M  V30 23656 O 3873.71 -5.63315 -5.29344 0
M  V30 23657 C 3872.77 -4.80255 -6.01876 0
M  V30 23658 C 3873.5 -3.64202 -6.65911 0
M  V30 23659 O 3873.71 -2.60694 -5.64732 0
M  V30 23660 C 3874.9 -3.93473 -7.1943 0
M  V30 23661 O 3875.29 -3.02071 -8.21205 0
M  V30 23662 C 3875.78 -3.73047 -5.97036 0
M  V30 23663 C 3875.07 -2.58828 -5.25741 0
M  V30 23664 N 3875.12 -2.68068 -3.77503 0
M  V30 23665 H 3872.28 -5.40332 -6.79951 0
M  V30 23666 H 3872.01 -4.41613 -5.32378 0
M  V30 23667 H 3872.88 -3.26331 -7.47797 0
M  V30 23668 P 3876.84 -2.75334 -8.47391 0
M  V30 23669 O 3877.06 -2.44619 -9.90336 0
M  V30 23670 O 3877.63 -3.87776 -7.92294 0
M  V30 23671 O 3877.09 -1.4459 -7.59357 0
M  V30 23672 C 3876.15 -0.347653 -7.69315 0
M  V30 23673 C 3876.88 0.96767 -7.52806 0
M  V30 23674 O 3877.09 1.21055 -6.10208 0
M  V30 23675 C 3878.28 1.04557 -8.13408 0
M  V30 23676 O 3878.67 2.38311 -8.41922 0
M  V30 23677 C 3879.16 0.491279 -7.02284 0
M  V30 23678 C 3878.45 0.996264 -5.77469 0
M  V30 23679 N 3878.5 0.0501916 -4.62973 0
M  V30 23680 C 3878.42 -1.31969 -4.65661 0
M  V30 23681 N 3878.49 -1.86649 -3.48119 0
M  V30 23682 C 3878.64 -0.792089 -2.62406 0
M  V30 23683 C 3878.77 -0.705684 -1.2207 0
M  V30 23684 N 3878.78 -1.76207 -0.413762 0
M  V30 23685 N 3878.89 0.518981 -0.685754 0
M  V30 23686 C 3878.88 1.57595 -1.49174 0
M  V30 23687 N 3878.76 1.62909 -2.80066 0
M  V30 23688 C 3878.64 0.388195 -3.3073 0
M  V30 23689 H 3875.66 -0.374765 -8.67791 0
M  V30 23690 H 3875.39 -0.443613 -6.90476 0
M  V30 23691 H 3876.26 1.75559 -7.96891 0
M  V30 23692 H 3878.91 1.94563 -5.46818 0
M  V30 23693 H 3879.19 -0.608651 -7.04676 0
M  V30 23694 H 3880.18 0.889796 -7.09039 0
M  V30 23695 H 3878.35 0.433128 -9.04664 0
M  V30 23696 H 3878.31 -1.89246 -5.57664 0
M  V30 23697 H 3878.69 -2.71005 -0.804694 0
M  V30 23698 H 3878.88 -1.63189 0.603768 0
M  V30 23699 H 3878.98 2.53475 -0.997614 0
M  V30 23700 P 3880.22 2.75334 -8.47391 0
M  V30 23701 O 3880.44 3.84128 -9.44797 0
M  V30 23702 O 3881.01 1.51947 -8.68712 0
M  V30 23703 O 3880.47 3.29363 -6.99321 0
M  V30 23704 C 3879.53 4.24011 -6.4274 0
M  V30 23705 C 3880.26 5.20775 -5.52155 0
M  V30 23706 O 3880.47 4.56534 -4.22446 0
M  V30 23707 C 3881.66 5.62629 -5.96531 0
M  V30 23708 O 3882.05 6.87667 -5.41053 0
M  V30 23709 C 3882.54 4.52537 -5.39283 0
M  V30 23710 C 3881.83 4.20027 -4.08623 0
M  V30 23711 N 3881.88 2.76189 -3.71603 0
M  V30 23712 H 3879.04 4.797 -7.24003 0
M  V30 23713 H 3878.77 3.69856 -5.84513 0
M  V30 23714 H 3879.64 6.10356 -5.41441 0
M  V30 23715 P 3883.6 7.20834 -5.23717 0
M  V30 23716 O 3883.82 8.66104 -5.38572 0
M  V30 23717 O 3884.39 6.33544 -6.1349 0
M  V30 23718 O 3883.85 6.7751 -3.72168 0
M  V30 23719 C 3882.91 7.20825 -2.7076 0
M  V30 23720 C 3883.64 7.45864 -1.40599 0
M  V30 23721 O 3883.85 6.17651 -0.734225 0
M  V30 23722 C 3885.04 8.05808 -1.51899 0
M  V30 23723 O 3885.43 8.74358 -0.335205 0
M  V30 23724 C 3885.92 6.83093 -1.70294 0
M  V30 23725 C 3885.21 5.79992 -0.836974 0
M  V30 23726 N 3885.26 4.41864 -1.38293 0
M  V30 23727 H 3882.42 8.13644 -3.0377 0
M  V30 23728 H 3882.15 6.42788 -2.55485 0
M  V30 23729 H 3883.02 8.12039 -0.792769 0
M  V30 23730 P 3886.98 8.91 -1.53776e-10 0
M  V30 23731 O 3887.2 10.1726 0.733694 0
M  V30 23732 O 3887.77 8.73148 -1.23936 0
M  V30 23733 O 3887.23 7.66872 0.971405 0
M  V30 23734 C 3886.29 7.42309 2.04641 0
M  V30 23735 C 3887.02 6.86059 3.24661 0
M  V30 23736 O 3887.23 5.42847 3.03646 0
M  V30 23737 C 3888.42 7.41196 3.50753 0
M  V30 23738 O 3888.81 7.27073 4.86816 0
M  V30 23739 C 3889.3 6.5273 2.63741 0
M  V30 23740 C 3888.59 5.1842 2.73198 0
M  V30 23741 N 3888.64 4.38762 1.4784 0
M  V30 23742 H 3885.8 8.36803 2.32493 0
M  V30 23743 H 3885.53 6.70197 1.71129 0
M  V30 23744 H 3886.4 7.03551 4.13168 0
M  V30 23745 P 3890.36 7.20834 5.23717 0
M  V30 23746 O 3890.58 7.79853 6.57286 0
M  V30 23747 O 3891.15 7.79239 4.12957 0
M  V30 23748 O 3890.61 5.63315 5.29344 0
M  V30 23749 C 3889.67 4.80255 6.01876 0
M  V30 23750 C 3890.4 3.64202 6.65911 0
M  V30 23751 O 3890.61 2.60694 5.64732 0
M  V30 23752 C 3891.8 3.93473 7.1943 0
M  V30 23753 O 3892.19 3.02071 8.21205 0
M  V30 23754 C 3892.68 3.73047 5.97036 0
M  V30 23755 C 3891.97 2.58828 5.25741 0
M  V30 23756 N 3892.02 2.68068 3.77503 0
M  V30 23757 C 3891.94 3.79715 2.96723 0
M  V30 23758 N 3892.02 3.5377 1.68852 0
M  V30 23759 C 3892.16 2.15054 1.63254 0
M  V30 23760 C 3892.29 1.28964 0.518571 0
M  V30 23761 O 3892.31 1.56826 -0.679156 0
M  V30 23762 N 3892.41 -0.0538097 0.918425 0
M  V30 23763 C 3892.41 -0.494275 2.22578 0
M  V30 23764 N 3892.54 -1.81086 2.40434 0
M  V30 23765 N 3892.28 0.313645 3.27502 0
M  V30 23766 C 3892.16 1.61829 2.91033 0
M  V30 23767 H 3889.18 5.40332 6.79951 0
M  V30 23768 H 3888.91 4.41613 5.32378 0
M  V30 23769 H 3889.77 3.26331 7.47797 0
M  V30 23770 H 3892.43 1.63422 5.56814 0
M  V30 23771 H 3892.71 4.63374 5.34244 0
M  V30 23772 H 3893.7 3.44728 6.25838 0
M  V30 23773 H 3891.87 4.96652 7.57263 0
M  V30 23774 H 3891.82 4.80617 3.3614 0
M  V30 23775 H 3892.5 -0.742702 0.199384 0
M  V30 23776 H 3892.54 -2.20598 3.35588 0
M  V30 23777 H 3892.64 -2.43518 1.58945 0
M  V30 23778 P 3893.74 2.75334 8.47391 0
M  V30 23779 O 3893.96 2.44595 9.90239 0
M  V30 23780 O 3894.53 3.87732 7.92204 0
M  V30 23781 O 3893.99 1.4459 7.59357 0
M  V30 23782 C 3893.05 0.347563 7.69115 0
M  V30 23783 C 3893.78 -0.96767 7.52806 0
M  V30 23784 O 3893.99 -1.21036 6.1011 0
M  V30 23785 C 3895.18 -1.04544 8.13308 0
M  V30 23786 O 3895.57 -2.38311 8.41922 0
M  V30 23787 C 3896.06 -0.491279 7.02284 0
M  V30 23788 C 3895.35 -0.996264 5.77469 0
M  V30 23789 N 3895.4 -0.0501808 4.62873 0
M  V30 23790 C 3895.55 -0.588177 3.36904 0
M  V30 23791 O 3895.64 -1.78598 3.17173 0
M  V30 23792 N 3895.59 0.329694 2.33686 0
M  V30 23793 C 3895.5 1.6953 2.45079 0
M  V30 23794 C 3895.35 2.16933 3.80505 0
M  V30 23795 C 3895.3 1.30326 4.83752 0
M  V30 23796 H 3892.56 0.374722 8.67691 0
M  V30 23797 H 3892.29 0.443421 6.90177 0
M  V30 23798 H 3893.15 -1.75537 7.96793 0
M  V30 23799 H 3895.81 -1.94496 5.46629 0
M  V30 23800 H 3896.09 0.608651 7.04676 0
M  V30 23801 H 3897.08 -0.889672 7.08939 0
M  V30 23802 H 3895.25 -0.43308 9.04564 0
M  V30 23803 H 3895.18 1.68366 5.8516 0
M  V30 23804 P 3897.12 -2.75334 8.47391 0
M  V30 23805 O 3897.34 -3.84204 9.44982 0
M  V30 23806 O 3897.91 -1.51982 8.68909 0
M  V30 23807 O 3897.37 -3.29363 6.99321 0
M  V30 23808 C 3896.43 -4.24066 6.42823 0
M  V30 23809 C 3897.16 -5.20775 5.52155 0
M  V30 23810 O 3897.37 -4.56607 4.22514 0
M  V30 23811 C 3898.56 -5.62697 5.96604 0
M  V30 23812 O 3898.95 -6.87667 5.41053 0
M  V30 23813 C 3899.44 -4.52537 5.39283 0
M  V30 23814 C 3898.73 -4.20027 4.08623 0
M  V30 23815 N 3898.78 -2.76189 3.71603 0
M  V30 23816 C 3898.7 -1.66944 4.54297 0
M  V30 23817 N 3898.77 -0.536169 3.91344 0
M  V30 23818 C 3898.92 -0.901569 2.58849 0
M  V30 23819 C 3899.05 -0.146599 1.40236 0
M  V30 23820 N 3899.06 1.18234 1.37046 0
M  V30 23821 N 3899.17 -0.822941 0.249738 0
M  V30 23822 C 3899.16 -2.15179 0.280525 0
M  V30 23823 N 3899.04 -2.96414 1.30822 0
M  V30 23824 C 3898.92 -2.25804 2.44748 0
M  V30 23825 H 3895.94 -4.79756 7.24086 0
M  V30 23826 H 3895.67 -3.69963 5.84682 0
M  V30 23827 H 3896.53 -6.10431 5.41508 0
M  V30 23828 H 3899.19 -4.78816 3.28024 0
M  V30 23829 H 3899.47 -3.64957 6.05871 0
M  V30 23830 H 3900.46 -4.88748 5.21323 0
M  V30 23831 H 3898.63 -5.66789 7.0643 0
M  V30 23832 H 3898.59 -1.74684 5.62396 0
M  V30 23833 H 3898.97 1.71949 2.24394 0
M  V30 23834 H 3899.16 1.67511 0.470742 0
M  V30 23835 H 3899.26 -2.63704 -0.6828 0
M  V30 23836 P 3900.5 -7.20834 5.23717 0
M  V30 23837 O 3900.72 -8.66104 5.38572 0
M  V30 23838 O 3901.29 -6.33544 6.1349 0
M  V30 23839 O 3900.75 -6.7751 3.72168 0
M  V30 23840 C 3899.81 -7.20825 2.7076 0
M  V30 23841 C 3900.54 -7.45864 1.40599 0
M  V30 23842 O 3900.75 -6.17651 0.734225 0
M  V30 23843 C 3901.94 -8.05808 1.51899 0
M  V30 23844 O 3902.33 -8.74358 0.335205 0
M  V30 23845 C 3902.82 -6.83093 1.70294 0
M  V30 23846 C 3902.11 -5.79992 0.836974 0
M  V30 23847 N 3902.16 -4.41864 1.38293 0
M  V30 23848 H 3899.32 -8.13644 3.0377 0
M  V30 23849 H 3899.05 -6.42788 2.55485 0
M  V30 23850 H 3899.91 -8.12039 0.792769 0
M  V30 23851 P 3903.88 -8.91 1.54885e-10 0
M  V30 23852 O 3904.1 -10.1746 -0.733838 0
M  V30 23853 O 3904.67 -8.73346 1.23964 0
M  V30 23854 O 3904.13 -7.66872 -0.971405 0
M  V30 23855 C 3903.19 -7.42405 -2.04668 0
M  V30 23856 C 3903.92 -6.86059 -3.24661 0
M  V30 23857 O 3904.13 -5.42934 -3.03695 0
M  V30 23858 C 3905.32 -7.41287 -3.50796 0
M  V30 23859 O 3905.71 -7.27073 -4.86816 0
M  V30 23860 C 3906.2 -6.5273 -2.63741 0
M  V30 23861 C 3905.49 -5.1842 -2.73198 0
M  V30 23862 N 3905.54 -4.38762 -1.4784 0
M  V30 23863 C 3905.46 -4.83651 -0.183876 0
M  V30 23864 N 3905.53 -3.88759 0.699393 0
M  V30 23865 C 3905.68 -2.7404 -0.0575568 0
M  V30 23866 C 3905.81 -1.37902 0.293928 0
M  V30 23867 N 3905.82 -0.938021 1.54797 0
M  V30 23868 N 3905.93 -0.491817 -0.70549 0
M  V30 23869 C 3905.92 -0.931735 -1.95979 0
M  V30 23870 N 3905.8 -2.16017 -2.41481 0
M  V30 23871 C 3905.68 -3.02547 -1.39121 0
M  V30 23872 H 3902.7 -8.36899 -2.3252 0
M  V30 23873 H 3902.43 -6.70391 -1.71179 0
M  V30 23874 H 3903.29 -7.03638 -4.13219 0
M  V30 23875 H 3905.95 -4.59931 -3.54016 0
M  V30 23876 H 3906.23 -6.88995 -1.59871 0
M  V30 23877 H 3907.22 -6.4684 -3.0373 0
M  V30 23878 H 3905.39 -8.47002 -3.20749 0
M  V30 23879 H 3905.35 -5.8885 0.0765548 0
M  V30 23880 H 3905.73 -1.60276 2.32875 0
M  V30 23881 H 3905.92 0.0699355 1.73859 0
M  V30 23882 H 3906.02 -0.165507 -2.71897 0
M  V30 23883 P 3907.26 -7.20834 -5.23717 0
M  V30 23884 O 3907.48 -7.79853 -6.57286 0
M  V30 23885 O 3908.05 -7.79239 -4.12957 0
M  V30 23886 O 3907.51 -5.63315 -5.29344 0
M  V30 23887 C 3906.57 -4.80255 -6.01876 0
M  V30 23888 C 3907.3 -3.64202 -6.65911 0
M  V30 23889 O 3907.51 -2.60694 -5.64732 0
M  V30 23890 C 3908.7 -3.93473 -7.1943 0
M  V30 23891 O 3909.09 -3.02071 -8.21205 0
M  V30 23892 C 3909.58 -3.73047 -5.97036 0
M  V30 23893 C 3908.87 -2.58828 -5.25741 0
M  V30 23894 N 3908.92 -2.68068 -3.77503 0
M  V30 23895 C 3908.84 -3.79715 -2.96723 0
M  V30 23896 N 3908.92 -3.5377 -1.68852 0
M  V30 23897 C 3909.06 -2.15054 -1.63254 0
M  V30 23898 C 3909.19 -1.28964 -0.518571 0
M  V30 23899 N 3909.31 0.0538097 -0.918425 0
M  V30 23900 C 3909.31 0.494275 -2.22578 0
M  V30 23901 N 3909.44 1.81086 -2.40434 0
M  V30 23902 N 3909.18 -0.313645 -3.27502 0
M  V30 23903 C 3909.06 -1.61829 -2.91033 0
M  V30 23904 H 3906.08 -5.40332 -6.79951 0
M  V30 23905 H 3905.81 -4.41613 -5.32378 0
M  V30 23906 H 3906.67 -3.26331 -7.47797 0
M  V30 23907 P 3910.64 -2.75334 -8.47391 0
M  V30 23908 O 3910.86 -2.44571 -9.90142 0
M  V30 23909 O 3911.43 -3.87688 -7.92115 0
M  V30 23910 O 3910.89 -1.4459 -7.59357 0
M  V30 23911 C 3909.95 -0.347608 -7.69215 0
M  V30 23912 C 3910.68 0.96767 -7.52806 0
M  V30 23913 O 3910.89 1.21036 -6.1011 0
M  V30 23914 C 3912.08 1.04544 -8.13308 0
M  V30 23915 O 3912.47 2.38311 -8.41922 0
M  V30 23916 C 3912.96 0.491279 -7.02284 0
M  V30 23917 C 3912.25 0.996264 -5.77469 0
M  V30 23918 N 3912.3 0.0501916 -4.62973 0
M  V30 23919 C 3912.22 -1.32786 -4.63244 0
M  V30 23920 N 3912.3 -1.86957 -3.44545 0
M  V30 23921 C 3912.44 -0.780241 -2.58481 0
M  V30 23922 C 3912.57 -0.738536 -1.17757 0
M  V30 23923 O 3912.59 -1.66794 -0.372349 0
M  V30 23924 N 3912.69 0.58337 -0.711393 0
M  V30 23925 C 3912.69 1.70816 -1.51017 0
M  V30 23926 N 3912.82 2.87826 -0.880757 0
M  V30 23927 N 3912.56 1.67126 -2.8339 0
M  V30 23928 C 3912.44 0.401421 -3.30572 0
M  V30 23929 H 3909.46 -0.374722 -8.67691 0
M  V30 23930 H 3909.19 -0.443485 -6.90277 0
M  V30 23931 H 3910.05 1.75537 -7.96793 0
M  V30 23932 H 3912.71 1.95076 -5.46529 0
M  V30 23933 H 3912.99 -0.608565 -7.04577 0
M  V30 23934 H 3913.98 0.889672 -7.08939 0
M  V30 23935 H 3912.15 0.43308 -9.04564 0
M  V30 23936 H 3912.1 -1.91249 -5.54442 0
M  V30 23937 H 3912.78 0.718054 0.275244 0
M  V30 23938 H 3912.82 3.75721 -1.41832 0
M  V30 23939 H 3912.92 2.90436 0.145468 0
M  V30 23940 P 3914.02 2.75334 -8.47391 0
M  V30 23941 O 3914.24 3.84128 -9.44797 0
M  V30 23942 O 3914.81 1.51947 -8.68712 0
M  V30 23943 O 3914.27 3.29363 -6.99321 0
M  V30 23944 C 3913.33 4.24011 -6.4274 0
M  V30 23945 C 3914.06 5.20775 -5.52155 0
M  V30 23946 O 3914.27 4.56534 -4.22446 0
M  V30 23947 C 3915.46 5.62629 -5.96531 0
M  V30 23948 O 3915.85 6.87667 -5.41053 0
M  V30 23949 C 3916.34 4.52537 -5.39283 0
M  V30 23950 C 3915.63 4.20027 -4.08623 0
M  V30 23951 N 3915.68 2.76189 -3.71603 0
M  V30 23952 H 3912.84 4.797 -7.24003 0
M  V30 23953 H 3912.57 3.69856 -5.84513 0
M  V30 23954 H 3913.43 6.10356 -5.41441 0
M  V30 23955 P 3917.4 7.20834 -5.23717 0
M  V30 23956 O 3917.62 8.66104 -5.38572 0
M  V30 23957 O 3918.19 6.33544 -6.1349 0
M  V30 23958 O 3917.65 6.7751 -3.72168 0
M  V30 23959 C 3916.71 7.20825 -2.7076 0
M  V30 23960 C 3917.44 7.45864 -1.40599 0
M  V30 23961 O 3917.65 6.17651 -0.734225 0
M  V30 23962 C 3918.84 8.05808 -1.51899 0
M  V30 23963 O 3919.23 8.74358 -0.335205 0
M  V30 23964 C 3919.72 6.83093 -1.70294 0
M  V30 23965 C 3919.01 5.79992 -0.836974 0
M  V30 23966 N 3919.06 4.41864 -1.38293 0
M  V30 23967 H 3916.22 8.13644 -3.0377 0
M  V30 23968 H 3915.95 6.42788 -2.55485 0
M  V30 23969 H 3916.81 8.12039 -0.792769 0
M  V30 23970 P 3920.78 8.91 -1.55994e-10 0
M  V30 23971 O 3921 10.1726 0.733694 0
M  V30 23972 O 3921.57 8.73148 -1.23936 0
M  V30 23973 O 3921.03 7.66872 0.971405 0
M  V30 23974 C 3920.09 7.42309 2.04641 0
M  V30 23975 C 3920.82 6.86059 3.24661 0
M  V30 23976 O 3921.03 5.42847 3.03646 0
M  V30 23977 C 3922.22 7.41196 3.50753 0
M  V30 23978 O 3922.61 7.27073 4.86816 0
M  V30 23979 C 3923.1 6.5273 2.63741 0
M  V30 23980 C 3922.39 5.1842 2.73198 0
M  V30 23981 N 3922.44 4.38762 1.4784 0
M  V30 23982 H 3919.6 8.36803 2.32493 0
M  V30 23983 H 3919.33 6.70197 1.71129 0
M  V30 23984 H 3920.19 7.03551 4.13168 0
M  V30 23985 P 3924.16 7.20834 5.23717 0
M  V30 23986 O 3924.38 7.79853 6.57286 0
M  V30 23987 O 3924.95 7.79239 4.12957 0
M  V30 23988 O 3924.41 5.63315 5.29344 0
M  V30 23989 C 3923.47 4.80255 6.01876 0
M  V30 23990 C 3924.2 3.64202 6.65911 0
M  V30 23991 O 3924.41 2.60694 5.64732 0
M  V30 23992 C 3925.6 3.93473 7.1943 0
M  V30 23993 O 3925.99 3.02071 8.21205 0
M  V30 23994 C 3926.48 3.73047 5.97036 0
M  V30 23995 C 3925.77 2.58828 5.25741 0
M  V30 23996 N 3925.82 2.68068 3.77503 0
M  V30 23997 H 3922.98 5.40332 6.79951 0
M  V30 23998 H 3922.71 4.41613 5.32378 0
M  V30 23999 H 3923.57 3.26331 7.47797 0
M  V30 24000 P 3927.54 2.75334 8.47391 0
M  V30 24001 O 3927.76 2.44595 9.90239 0
M  V30 24002 O 3928.33 3.87732 7.92204 0
M  V30 24003 O 3927.79 1.4459 7.59357 0
M  V30 24004 C 3926.85 0.347563 7.69115 0
M  V30 24005 C 3927.58 -0.96767 7.52806 0
M  V30 24006 O 3927.79 -1.21036 6.1011 0
M  V30 24007 C 3928.98 -1.04544 8.13308 0
M  V30 24008 O 3929.37 -2.38311 8.41922 0
M  V30 24009 C 3929.86 -0.491279 7.02284 0
M  V30 24010 C 3929.15 -0.996264 5.77469 0
M  V30 24011 N 3929.2 -0.0501808 4.62873 0
M  V30 24012 C 3929.35 -0.588177 3.36904 0
M  V30 24013 O 3929.44 -1.78598 3.17173 0
M  V30 24014 N 3929.39 0.329694 2.33686 0
M  V30 24015 C 3929.3 1.6953 2.45079 0
M  V30 24016 O 3929.35 2.41926 1.44899 0
M  V30 24017 C 3929.15 2.16933 3.80505 0
M  V30 24018 C 3929.04 3.65373 3.97621 0
M  V30 24019 C 3929.1 1.30326 4.83752 0
M  V30 24020 H 3926.36 0.374722 8.67691 0
M  V30 24021 H 3926.09 0.443421 6.90177 0
M  V30 24022 H 3926.95 -1.75537 7.96793 0
M  V30 24023 H 3929.61 -1.94496 5.46629 0
M  V30 24024 H 3929.89 0.608651 7.04676 0
M  V30 24025 H 3930.88 -0.889672 7.08939 0
M  V30 24026 H 3929.05 -0.43308 9.04564 0
M  V30 24027 H 3928.98 1.68366 5.8516 0
M  V30 24028 H 3930.01 4.05985 4.30448 0
M  V30 24029 H 3928.27 3.88028 4.72875 0
M  V30 24030 H 3928.76 4.11381 3.01609 0
M  V30 24031 H 3929.49 -0.0393617 1.41345 0
M  V30 24032 P 3930.92 -2.75334 8.47391 0
M  V30 24033 O 3931.14 -3.84128 9.44797 0
M  V30 24034 O 3931.71 -1.51947 8.68712 0
M  V30 24035 O 3931.17 -3.29363 6.99321 0
M  V30 24036 C 3930.23 -4.24011 6.4274 0
M  V30 24037 C 3930.96 -5.20775 5.52155 0
M  V30 24038 O 3931.17 -4.56534 4.22446 0
M  V30 24039 C 3932.36 -5.62629 5.96531 0
M  V30 24040 O 3932.75 -6.87667 5.41053 0
M  V30 24041 C 3933.24 -4.52537 5.39283 0
M  V30 24042 C 3932.53 -4.20027 4.08623 0
M  V30 24043 N 3932.58 -2.76189 3.71603 0
M  V30 24044 H 3929.74 -4.797 7.24003 0
M  V30 24045 H 3929.47 -3.69856 5.84513 0
M  V30 24046 H 3930.33 -6.10356 5.41441 0
M  V30 24047 P 3934.3 -7.20834 5.23717 0
M  V30 24048 O 3934.52 -8.66189 5.38625 0
M  V30 24049 O 3935.09 -6.33615 6.1356 0
M  V30 24050 O 3934.55 -6.7751 3.72168 0
M  V30 24051 C 3933.61 -7.20732 2.70725 0
M  V30 24052 C 3934.34 -7.45864 1.40599 0
M  V30 24053 O 3934.55 -6.17651 0.734225 0
M  V30 24054 C 3935.74 -8.05808 1.51899 0
M  V30 24055 O 3936.13 -8.74358 0.335205 0
M  V30 24056 C 3936.62 -6.83093 1.70294 0
M  V30 24057 C 3935.91 -5.79992 0.836974 0
M  V30 24058 N 3935.96 -4.41769 1.38263 0
M  V30 24059 C 3936.11 -3.38591 0.481702 0
M  V30 24060 O 3936.2 -3.56839 -0.718452 0
M  V30 24061 N 3936.15 -2.1206 1.03569 0
M  V30 24062 C 3936.06 -1.80696 2.36966 0
M  V30 24063 C 3935.91 -2.94845 3.23898 0
M  V30 24064 C 3935.86 -4.19803 2.73435 0
M  V30 24065 H 3933.12 -8.13644 3.0377 0
M  V30 24066 H 3932.85 -6.42695 2.55448 0
M  V30 24067 H 3933.71 -8.12039 0.792769 0
M  V30 24068 H 3936.37 -5.79978 -0.160587 0
M  V30 24069 H 3936.65 -6.51379 2.75643 0
M  V30 24070 H 3937.64 -7.01734 1.34462 0
M  V30 24071 H 3935.81 -8.73674 2.38337 0
M  V30 24072 H 3935.74 -5.04492 3.4095 0
M  V30 24073 P 3937.68 -8.91 1.57103e-10 0
M  V30 24074 O 3937.9 -10.1736 -0.733766 0
M  V30 24075 O 3938.47 -8.73247 1.2395 0
M  V30 24076 O 3937.93 -7.66872 -0.971405 0
M  V30 24077 C 3936.99 -7.42212 -2.04614 0
M  V30 24078 C 3937.72 -6.86059 -3.24661 0
M  V30 24079 O 3937.93 -5.42847 -3.03646 0
M  V30 24080 C 3939.12 -7.41196 -3.50753 0
M  V30 24081 O 3939.51 -7.27073 -4.86816 0
M  V30 24082 C 3940 -6.5273 -2.63741 0
M  V30 24083 C 3939.29 -5.1842 -2.73198 0
M  V30 24084 N 3939.34 -4.38668 -1.47808 0
M  V30 24085 C 3939.49 -3.02239 -1.60048 0
M  V30 24086 O 3939.58 -2.46459 -2.67869 0
M  V30 24087 N 3939.53 -2.32436 -0.408571 0
M  V30 24088 C 3939.44 -2.85471 0.854993 0
M  V30 24089 C 3939.29 -4.28918 0.887335 0
M  V30 24090 C 3939.24 -5.00349 -0.255399 0
M  V30 24091 H 3936.5 -8.36803 -2.32493 0
M  V30 24092 H 3936.23 -6.701 -1.71105 0
M  V30 24093 H 3937.09 -7.03551 -4.13168 0
M  V30 24094 H 3939.75 -4.59773 -3.53894 0
M  V30 24095 H 3940.03 -6.88995 -1.59871 0
M  V30 24096 H 3941.02 -6.46749 -3.03687 0
M  V30 24097 H 3939.19 -8.46908 -3.20714 0
M  V30 24098 H 3939.12 -6.08548 -0.206986 0
M  V30 24099 P 3941.06 -7.20834 -5.23717 0
M  V30 24100 O 3941.28 -7.79853 -6.57286 0
M  V30 24101 O 3941.85 -7.79239 -4.12957 0
M  V30 24102 O 3941.31 -5.63315 -5.29344 0
M  V30 24103 C 3940.37 -4.80255 -6.01876 0
M  V30 24104 C 3941.1 -3.64202 -6.65911 0
M  V30 24105 O 3941.31 -2.60694 -5.64732 0
M  V30 24106 C 3942.5 -3.93473 -7.1943 0
M  V30 24107 O 3942.89 -3.02071 -8.21205 0
M  V30 24108 C 3943.38 -3.73047 -5.97036 0
M  V30 24109 C 3942.67 -2.58828 -5.25741 0
M  V30 24110 N 3942.72 -2.68068 -3.77503 0
M  V30 24111 H 3939.88 -5.40332 -6.79951 0
M  V30 24112 H 3939.61 -4.41613 -5.32378 0
M  V30 24113 H 3940.47 -3.26331 -7.47797 0
M  V30 24114 P 3944.44 -2.75334 -8.47391 0
M  V30 24115 O 3944.66 -2.44571 -9.90142 0
M  V30 24116 O 3945.23 -3.87688 -7.92115 0
M  V30 24117 O 3944.69 -1.4459 -7.59357 0
M  V30 24118 C 3943.75 -0.347608 -7.69215 0
M  V30 24119 C 3944.48 0.96767 -7.52806 0
M  V30 24120 O 3944.69 1.21036 -6.1011 0
M  V30 24121 C 3945.88 1.04544 -8.13308 0
M  V30 24122 O 3946.27 2.38311 -8.41922 0
M  V30 24123 C 3946.76 0.491279 -7.02284 0
M  V30 24124 C 3946.05 0.996264 -5.77469 0
M  V30 24125 N 3946.1 0.0501916 -4.62973 0
M  V30 24126 H 3943.26 -0.374722 -8.67691 0
M  V30 24127 H 3942.99 -0.443485 -6.90277 0
M  V30 24128 H 3943.85 1.75537 -7.96793 0
M  V30 24129 P 3947.82 2.75334 -8.47391 0
M  V30 24130 O 3948.04 3.84204 -9.44982 0
M  V30 24131 O 3948.61 1.51982 -8.68909 0
M  V30 24132 O 3948.07 3.29363 -6.99321 0
M  V30 24133 C 3947.13 4.24066 -6.42823 0
M  V30 24134 C 3947.86 5.20775 -5.52155 0
M  V30 24135 O 3948.07 4.56607 -4.22514 0
M  V30 24136 C 3949.26 5.62697 -5.96604 0
M  V30 24137 O 3949.65 6.87667 -5.41053 0
M  V30 24138 C 3950.14 4.52537 -5.39283 0
M  V30 24139 C 3949.43 4.20027 -4.08623 0
M  V30 24140 N 3949.48 2.76189 -3.71603 0
M  V30 24141 H 3946.64 4.79756 -7.24086 0
M  V30 24142 H 3946.37 3.69963 -5.84682 0
M  V30 24143 H 3947.23 6.10431 -5.41508 0
M  V30 24144 H 3949.89 4.78816 -3.28024 0
M  V30 24145 H 3950.17 3.64957 -6.05871 0
M  V30 24146 H 3951.16 4.88748 -5.21323 0
M  V30 24147 H 3949.33 5.66789 -7.0643 0
M  V30 24148 P 3951.2 7.20834 -5.23717 0
M  V30 24149 O 3951.42 8.66104 -5.38572 0
M  V30 24150 O 3951.99 6.33544 -6.1349 0
M  V30 24151 O 3951.45 6.7751 -3.72168 0
M  V30 24152 C 3950.51 7.20825 -2.7076 0
M  V30 24153 C 3951.24 7.45864 -1.40599 0
M  V30 24154 O 3951.45 6.17651 -0.734225 0
M  V30 24155 C 3952.64 8.05808 -1.51899 0
M  V30 24156 O 3953.03 8.74358 -0.335205 0
M  V30 24157 C 3953.52 6.83093 -1.70294 0
M  V30 24158 C 3952.81 5.79992 -0.836974 0
M  V30 24159 N 3952.86 4.41864 -1.38293 0
M  V30 24160 H 3950.02 8.13644 -3.0377 0
M  V30 24161 H 3949.75 6.42788 -2.55485 0
M  V30 24162 H 3950.61 8.12039 -0.792769 0
M  V30 24163 P 3954.58 8.91 -1.58212e-10 0
M  V30 24164 O 3954.8 10.1726 0.733694 0
M  V30 24165 O 3955.37 8.73148 -1.23936 0
M  V30 24166 O 3954.83 7.66872 0.971405 0
M  V30 24167 C 3953.89 7.42309 2.04641 0
M  V30 24168 C 3954.62 6.86059 3.24661 0
M  V30 24169 O 3954.83 5.42847 3.03646 0
M  V30 24170 C 3956.02 7.41196 3.50753 0
M  V30 24171 O 3956.41 7.27073 4.86816 0
M  V30 24172 C 3956.9 6.5273 2.63741 0
M  V30 24173 C 3956.19 5.1842 2.73198 0
M  V30 24174 N 3956.24 4.38762 1.4784 0
M  V30 24175 H 3953.4 8.36803 2.32493 0
M  V30 24176 H 3953.13 6.70197 1.71129 0
M  V30 24177 H 3953.99 7.03551 4.13168 0
M  V30 24178 P 3957.96 7.20834 5.23717 0
M  V30 24179 O 3958.18 7.79853 6.57286 0
M  V30 24180 O 3958.75 7.79239 4.12957 0
M  V30 24181 O 3958.21 5.63315 5.29344 0
M  V30 24182 C 3957.27 4.80255 6.01876 0
M  V30 24183 C 3958 3.64202 6.65911 0
M  V30 24184 O 3958.21 2.60694 5.64732 0
M  V30 24185 C 3959.4 3.93473 7.1943 0
M  V30 24186 O 3959.79 3.02071 8.21205 0
M  V30 24187 C 3960.28 3.73047 5.97036 0
M  V30 24188 C 3959.57 2.58828 5.25741 0
M  V30 24189 N 3959.62 2.68068 3.77503 0
M  V30 24190 C 3959.54 3.79715 2.96723 0
M  V30 24191 N 3959.62 3.5377 1.68852 0
M  V30 24192 C 3959.76 2.15054 1.63254 0
M  V30 24193 C 3959.89 1.28964 0.518571 0
M  V30 24194 O 3959.91 1.56826 -0.679156 0
M  V30 24195 N 3960.01 -0.0538097 0.918425 0
M  V30 24196 C 3960.01 -0.494275 2.22578 0
M  V30 24197 N 3960.14 -1.81086 2.40434 0
M  V30 24198 N 3959.88 0.313645 3.27502 0
M  V30 24199 C 3959.76 1.61829 2.91033 0
M  V30 24200 H 3956.78 5.40332 6.79951 0
M  V30 24201 H 3956.51 4.41613 5.32378 0
M  V30 24202 H 3957.37 3.26331 7.47797 0
M  V30 24203 H 3960.03 1.63422 5.56814 0
M  V30 24204 H 3960.31 4.63374 5.34244 0
M  V30 24205 H 3961.3 3.44728 6.25838 0
M  V30 24206 H 3959.47 4.96652 7.57263 0
M  V30 24207 H 3959.42 4.80617 3.3614 0
M  V30 24208 H 3960.1 -0.742702 0.199384 0
M  V30 24209 H 3960.14 -2.20598 3.35588 0
M  V30 24210 H 3960.24 -2.43518 1.58945 0
M  V30 24211 P 3961.34 2.75334 8.47391 0
M  V30 24212 O 3961.56 2.44619 9.90336 0
M  V30 24213 O 3962.13 3.87776 7.92294 0
M  V30 24214 O 3961.59 1.4459 7.59357 0
M  V30 24215 C 3960.65 0.347653 7.69315 0
M  V30 24216 C 3961.38 -0.96767 7.52806 0
M  V30 24217 O 3961.59 -1.21055 6.10208 0
M  V30 24218 C 3962.78 -1.04557 8.13408 0
M  V30 24219 O 3963.17 -2.38311 8.41922 0
M  V30 24220 C 3963.66 -0.491279 7.02284 0
M  V30 24221 C 3962.95 -0.996264 5.77469 0
M  V30 24222 N 3963 -0.0501916 4.62973 0
M  V30 24223 C 3962.92 1.31969 4.65661 0
M  V30 24224 N 3962.99 1.86649 3.48119 0
M  V30 24225 C 3963.14 0.792089 2.62406 0
M  V30 24226 C 3963.27 0.705684 1.2207 0
M  V30 24227 N 3963.28 1.76207 0.413762 0
M  V30 24228 N 3963.39 -0.518981 0.685754 0
M  V30 24229 C 3963.38 -1.57595 1.49174 0
M  V30 24230 N 3963.26 -1.62909 2.80066 0
M  V30 24231 C 3963.14 -0.388195 3.3073 0
M  V30 24232 H 3960.16 0.374765 8.67791 0
M  V30 24233 H 3959.89 0.443613 6.90476 0
M  V30 24234 H 3960.75 -1.75559 7.96891 0
M  V30 24235 H 3963.41 -1.94563 5.46818 0
M  V30 24236 H 3963.69 0.608651 7.04676 0
M  V30 24237 H 3964.68 -0.889796 7.09039 0
M  V30 24238 H 3962.85 -0.433128 9.04664 0
M  V30 24239 H 3962.81 1.89246 5.57664 0
M  V30 24240 H 3963.19 2.71005 0.804694 0
M  V30 24241 H 3963.38 1.63189 -0.603768 0
M  V30 24242 H 3963.48 -2.53475 0.997614 0
M  V30 24243 P 3964.72 -2.75334 8.47391 0
M  V30 24244 O 3964.94 -3.84204 9.44982 0
M  V30 24245 O 3965.51 -1.51982 8.68909 0
M  V30 24246 O 3964.97 -3.29363 6.99321 0
M  V30 24247 C 3964.03 -4.24066 6.42823 0
M  V30 24248 C 3964.76 -5.20775 5.52155 0
M  V30 24249 O 3964.97 -4.56607 4.22514 0
M  V30 24250 C 3966.16 -5.62697 5.96604 0
M  V30 24251 O 3966.55 -6.87667 5.41053 0
M  V30 24252 C 3967.04 -4.52537 5.39283 0
M  V30 24253 C 3966.33 -4.20027 4.08623 0
M  V30 24254 N 3966.38 -2.76189 3.71603 0
M  V30 24255 C 3966.3 -1.66944 4.54297 0
M  V30 24256 N 3966.37 -0.536169 3.91344 0
M  V30 24257 C 3966.52 -0.901569 2.58849 0
M  V30 24258 C 3966.65 -0.146599 1.40236 0
M  V30 24259 N 3966.66 1.18234 1.37046 0
M  V30 24260 N 3966.77 -0.822941 0.249738 0
M  V30 24261 C 3966.76 -2.15179 0.280525 0
M  V30 24262 N 3966.64 -2.96414 1.30822 0
M  V30 24263 C 3966.52 -2.25804 2.44748 0
M  V30 24264 H 3963.54 -4.79756 7.24086 0
M  V30 24265 H 3963.27 -3.69963 5.84682 0
M  V30 24266 H 3964.13 -6.10431 5.41508 0
M  V30 24267 H 3966.79 -4.78816 3.28024 0
M  V30 24268 H 3967.07 -3.64957 6.05871 0
M  V30 24269 H 3968.06 -4.88748 5.21323 0
M  V30 24270 H 3966.23 -5.66789 7.0643 0
M  V30 24271 H 3966.19 -1.74684 5.62396 0
M  V30 24272 H 3966.57 1.71949 2.24394 0
M  V30 24273 H 3966.76 1.67511 0.470742 0
M  V30 24274 H 3966.86 -2.63704 -0.6828 0
M  V30 24275 P 3968.1 -7.20834 5.23717 0
M  V30 24276 O 3968.32 -8.66189 5.38625 0
M  V30 24277 O 3968.89 -6.33615 6.1356 0
M  V30 24278 O 3968.35 -6.7751 3.72168 0
M  V30 24279 C 3967.41 -7.20825 2.7076 0
M  V30 24280 C 3968.14 -7.45864 1.40599 0
M  V30 24281 O 3968.35 -6.17651 0.734225 0
M  V30 24282 C 3969.54 -8.05808 1.51899 0
M  V30 24283 O 3969.93 -8.74358 0.335205 0
M  V30 24284 C 3970.42 -6.83093 1.70294 0
M  V30 24285 C 3969.71 -5.79992 0.836974 0
M  V30 24286 N 3969.76 -4.41769 1.38263 0
M  V30 24287 C 3969.91 -3.36514 0.485617 0
M  V30 24288 O 3970 -3.61814 -0.724703 0
M  V30 24289 N 3969.96 -2.00746 1.14492 0
M  V30 24290 C 3969.86 -1.85887 2.27776 0
M  V30 24291 N 3969.91 -0.600907 2.69379 0
M  V30 24292 C 3969.71 -2.92182 3.22265 0
M  V30 24293 C 3969.66 -4.18399 2.71925 0
M  V30 24294 H 3966.92 -8.1355 3.03735 0
M  V30 24295 H 3966.65 -6.42695 2.55448 0
M  V30 24296 H 3967.51 -8.12139 0.792866 0
M  V30 24297 H 3970.17 -5.80078 -0.160615 0
M  V30 24298 H 3970.45 -6.51379 2.75643 0
M  V30 24299 H 3971.44 -7.01734 1.34462 0
M  V30 24300 H 3969.61 -8.73674 2.38337 0
M  V30 24301 H 3969.53 -5.02669 3.39718 0
M  V30 24302 H 3969.64 -2.73001 4.29239 0
M  V30 24303 H 3970.02 0.162318 2.01146 0
M  V30 24304 H 3969.83 -0.387742 3.69773 0
M  V30 24305 P 3971.48 -8.91 1.59321e-10 0
M  V30 24306 O 3971.7 -10.1726 -0.733694 0
M  V30 24307 O 3972.27 -8.73148 1.23936 0
M  V30 24308 O 3971.73 -7.66872 -0.971405 0
M  V30 24309 C 3970.79 -7.42309 -2.04641 0
M  V30 24310 C 3971.52 -6.86059 -3.24661 0
M  V30 24311 O 3971.73 -5.42847 -3.03646 0
M  V30 24312 C 3972.92 -7.41196 -3.50753 0
M  V30 24313 O 3973.31 -7.27073 -4.86816 0
M  V30 24314 C 3973.8 -6.5273 -2.63741 0
M  V30 24315 C 3973.09 -5.1842 -2.73198 0
M  V30 24316 N 3973.14 -4.38762 -1.4784 0
M  V30 24317 H 3970.3 -8.36803 -2.32493 0
M  V30 24318 H 3970.03 -6.70197 -1.71129 0
M  V30 24319 H 3970.89 -7.03551 -4.13168 0
M  V30 24320 P 3974.86 -7.20834 -5.23717 0
M  V30 24321 O 3975.08 -7.7993 -6.57351 0
M  V30 24322 O 3975.65 -7.79328 -4.13004 0
M  V30 24323 O 3975.11 -5.63315 -5.29344 0
M  V30 24324 C 3974.17 -4.80193 -6.01798 0
M  V30 24325 C 3974.9 -3.64202 -6.65911 0
M  V30 24326 O 3975.11 -2.60694 -5.64732 0
M  V30 24327 C 3976.3 -3.93473 -7.1943 0
M  V30 24328 O 3976.69 -3.02071 -8.21205 0
M  V30 24329 C 3977.18 -3.73047 -5.97036 0
M  V30 24330 C 3976.47 -2.58828 -5.25741 0
M  V30 24331 N 3976.52 -2.6801 -3.77422 0
M  V30 24332 C 3976.67 -1.50443 -3.07133 0
M  V30 24333 O 3976.76 -0.419406 -3.61576 0
M  V30 24334 N 3976.71 -1.6403 -1.69677 0
M  V30 24335 C 3976.62 -2.81206 -0.986255 0
M  V30 24336 O 3976.67 -2.80892 0.249754 0
M  V30 24337 C 3976.47 -3.99158 -1.80325 0
M  V30 24338 C 3976.36 -5.29309 -1.06921 0
M  V30 24339 C 3976.42 -3.89779 -3.1476 0
M  V30 24340 H 3973.68 -5.40332 -6.79951 0
M  V30 24341 H 3973.41 -4.41549 -5.32301 0
M  V30 24342 H 3974.27 -3.26331 -7.47797 0
M  V30 24343 H 3976.93 -1.6395 -5.56554 0
M  V30 24344 H 3977.21 -4.63439 -5.3432 0
M  V30 24345 H 3978.2 -3.44728 -6.25838 0
M  V30 24346 H 3976.37 -4.96652 -7.57263 0
M  V30 24347 H 3976.3 -4.80159 -3.74441 0
M  V30 24348 H 3977.33 -5.81459 -1.09608 0
M  V30 24349 H 3975.59 -5.9187 -1.54487 0
M  V30 24350 H 3976.08 -5.10095 -0.0220288 0
M  V30 24351 H 3976.81 -0.798962 -1.16664 0
M  V30 24352 P 3978.24 -2.75334 -8.47391 0
M  V30 24353 O 3978.46 -2.44571 -9.90142 0
M  V30 24354 O 3979.03 -3.87688 -7.92115 0
M  V30 24355 O 3978.49 -1.4459 -7.59357 0
M  V30 24356 C 3977.55 -0.347608 -7.69215 0
M  V30 24357 C 3978.28 0.96767 -7.52806 0
M  V30 24358 O 3978.49 1.21036 -6.1011 0
M  V30 24359 C 3979.68 1.04544 -8.13308 0
M  V30 24360 O 3980.07 2.38311 -8.41922 0
M  V30 24361 C 3980.56 0.491279 -7.02284 0
M  V30 24362 C 3979.85 0.996264 -5.77469 0
M  V30 24363 N 3979.9 0.0501916 -4.62973 0
M  V30 24364 H 3977.06 -0.374722 -8.67691 0
M  V30 24365 H 3976.79 -0.443485 -6.90277 0
M  V30 24366 H 3977.65 1.75537 -7.96793 0
M  V30 24367 P 3981.62 2.75334 -8.47391 0
M  V30 24368 O 3981.84 3.84128 -9.44797 0
M  V30 24369 O 3982.41 1.51947 -8.68712 0
M  V30 24370 O 3981.87 3.29363 -6.99321 0
M  V30 24371 C 3980.93 4.24011 -6.4274 0
M  V30 24372 C 3981.66 5.20775 -5.52155 0
M  V30 24373 O 3981.87 4.56534 -4.22446 0
M  V30 24374 C 3983.06 5.62629 -5.96531 0
M  V30 24375 O 3983.45 6.87667 -5.41053 0
M  V30 24376 C 3983.94 4.52537 -5.39283 0
M  V30 24377 C 3983.23 4.20027 -4.08623 0
M  V30 24378 N 3983.28 2.76189 -3.71603 0
M  V30 24379 H 3980.44 4.797 -7.24003 0
M  V30 24380 H 3980.17 3.69856 -5.84513 0
M  V30 24381 H 3981.03 6.10356 -5.41441 0
M  V30 24382 P 3985 7.20834 -5.23717 0
M  V30 24383 O 3985.22 8.66274 -5.38678 0
M  V30 24384 O 3985.79 6.33687 -6.13629 0
M  V30 24385 O 3985.25 6.7751 -3.72168 0
M  V30 24386 C 3984.31 7.20919 -2.70795 0
M  V30 24387 C 3985.04 7.45864 -1.40599 0
M  V30 24388 O 3985.25 6.17751 -0.734343 0
M  V30 24389 C 3986.44 8.05906 -1.51917 0
M  V30 24390 O 3986.83 8.74358 -0.335205 0
M  V30 24391 C 3987.32 6.83093 -1.70294 0
M  V30 24392 C 3986.61 5.79992 -0.836974 0
M  V30 24393 N 3986.66 4.41864 -1.38293 0
M  V30 24394 C 3986.58 4.02089 -2.69407 0
M  V30 24395 N 3986.65 2.73403 -2.85089 0
M  V30 24396 C 3986.8 2.25086 -1.5642 0
M  V30 24397 C 3986.93 0.942887 -1.04836 0
M  V30 24398 N 3986.94 -0.150999 -1.80369 0
M  V30 24399 N 3987.05 0.812565 0.28167 0
M  V30 24400 C 3987.04 1.90572 1.03784 0
M  V30 24401 N 3986.92 3.167 0.683905 0
M  V30 24402 C 3986.8 3.26538 -0.652815 0
M  V30 24403 H 3983.82 8.13738 -3.03804 0
M  V30 24404 H 3983.55 6.42974 -2.55559 0
M  V30 24405 H 3984.41 8.12139 -0.792866 0
M  V30 24406 H 3987.07 5.80178 0.160643 0
M  V30 24407 H 3987.35 6.51379 -2.75643 0
M  V30 24408 H 3988.34 7.01832 -1.3448 0
M  V30 24409 H 3986.51 8.73771 -2.38364 0
M  V30 24410 H 3986.47 4.7189 -3.52311 0
M  V30 24411 H 3986.85 -0.0721434 -2.82608 0
M  V30 24412 H 3987.04 -1.0785 -1.36544 0
M  V30 24413 H 3987.14 1.73207 2.10241 0
M  V30 24414 P 3988.38 8.91 -1.6043e-10 0
M  V30 24415 O 3988.6 10.1726 0.733694 0
M  V30 24416 O 3989.17 8.73148 -1.23936 0
M  V30 24417 O 3988.63 7.66872 0.971405 0
M  V30 24418 C 3987.69 7.42309 2.04641 0
M  V30 24419 C 3988.42 6.86059 3.24661 0
M  V30 24420 O 3988.63 5.42847 3.03646 0
M  V30 24421 C 3989.82 7.41196 3.50753 0
M  V30 24422 O 3990.21 7.27073 4.86816 0
M  V30 24423 C 3990.7 6.5273 2.63741 0
M  V30 24424 C 3989.99 5.1842 2.73198 0
M  V30 24425 N 3990.04 4.38762 1.4784 0
M  V30 24426 H 3987.2 8.36803 2.32493 0
M  V30 24427 H 3986.93 6.70197 1.71129 0
M  V30 24428 H 3987.79 7.03551 4.13168 0
M  V30 24429 P 3991.76 7.20834 5.23717 0
M  V30 24430 O 3991.98 7.79853 6.57286 0
M  V30 24431 O 3992.55 7.79239 4.12957 0
M  V30 24432 O 3992.01 5.63315 5.29344 0
M  V30 24433 C 3991.07 4.80255 6.01876 0
M  V30 24434 C 3991.8 3.64202 6.65911 0
M  V30 24435 O 3992.01 2.60694 5.64732 0
M  V30 24436 C 3993.2 3.93473 7.1943 0
M  V30 24437 O 3993.59 3.02071 8.21205 0
M  V30 24438 C 3994.08 3.73047 5.97036 0
M  V30 24439 C 3993.37 2.58828 5.25741 0
M  V30 24440 N 3993.42 2.68068 3.77503 0
M  V30 24441 H 3990.58 5.40332 6.79951 0
M  V30 24442 H 3990.31 4.41613 5.32378 0
M  V30 24443 H 3991.17 3.26331 7.47797 0
M  V30 24444 P 3995.14 2.75334 8.47391 0
M  V30 24445 O 3995.36 2.44571 9.90142 0
M  V30 24446 O 3995.93 3.87688 7.92115 0
M  V30 24447 O 3995.39 1.4459 7.59357 0
M  V30 24448 C 3994.45 0.347608 7.69215 0
M  V30 24449 C 3995.18 -0.96767 7.52806 0
M  V30 24450 O 3995.39 -1.21036 6.1011 0
M  V30 24451 C 3996.58 -1.04544 8.13308 0
M  V30 24452 O 3996.97 -2.38311 8.41922 0
M  V30 24453 C 3997.46 -0.491279 7.02284 0
M  V30 24454 C 3996.75 -0.996264 5.77469 0
M  V30 24455 N 3996.8 -0.0501916 4.62973 0
M  V30 24456 C 3996.72 1.32786 4.63244 0
M  V30 24457 N 3996.8 1.86957 3.44545 0
M  V30 24458 C 3996.94 0.780241 2.58481 0
M  V30 24459 C 3997.07 0.738536 1.17757 0
M  V30 24460 O 3997.09 1.66794 0.372349 0
M  V30 24461 N 3997.19 -0.58337 0.711393 0
M  V30 24462 C 3997.19 -1.70816 1.51017 0
M  V30 24463 N 3997.32 -2.87826 0.880757 0
M  V30 24464 N 3997.06 -1.67126 2.8339 0
M  V30 24465 C 3996.94 -0.401421 3.30572 0
M  V30 24466 H 3993.96 0.374722 8.67691 0
M  V30 24467 H 3993.69 0.443485 6.90277 0
M  V30 24468 H 3994.55 -1.75537 7.96793 0
M  V30 24469 H 3997.21 -1.95076 5.46529 0
M  V30 24470 H 3997.49 0.608565 7.04577 0
M  V30 24471 H 3998.48 -0.889672 7.08939 0
M  V30 24472 H 3996.65 -0.43308 9.04564 0
M  V30 24473 H 3996.6 1.91249 5.54442 0
M  V30 24474 H 3997.28 -0.718054 -0.275244 0
M  V30 24475 H 3997.32 -3.75721 1.41832 0
M  V30 24476 H 3997.42 -2.90436 -0.145468 0
M  V30 24477 P 3998.52 -2.75334 8.47391 0
M  V30 24478 O 3998.74 -3.84128 9.44797 0
M  V30 24479 O 3999.31 -1.51947 8.68712 0
M  V30 24480 O 3998.77 -3.29363 6.99321 0
M  V30 24481 C 3997.83 -4.24011 6.4274 0
M  V30 24482 C 3998.56 -5.20775 5.52155 0
M  V30 24483 O 3998.77 -4.56534 4.22446 0
M  V30 24484 C 3999.96 -5.62629 5.96531 0
M  V30 24485 O 4000.35 -6.87667 5.41053 0
M  V30 24486 C 4000.84 -4.52537 5.39283 0
M  V30 24487 C 4000.13 -4.20027 4.08623 0
M  V30 24488 N 4000.18 -2.76189 3.71603 0
M  V30 24489 H 3997.34 -4.797 7.24003 0
M  V30 24490 H 3997.07 -3.69856 5.84513 0
M  V30 24491 H 3997.93 -6.10356 5.41441 0
M  V30 24492 P 4001.9 -7.20834 5.23717 0
M  V30 24493 O 4002.12 -8.66104 5.38572 0
M  V30 24494 O 4002.69 -6.33544 6.1349 0
M  V30 24495 O 4002.15 -6.7751 3.72168 0
M  V30 24496 C 4001.21 -7.20825 2.7076 0
M  V30 24497 C 4001.94 -7.45864 1.40599 0
M  V30 24498 O 4002.15 -6.17651 0.734225 0
M  V30 24499 C 4003.34 -8.05808 1.51899 0
M  V30 24500 O 4003.73 -8.74358 0.335205 0
M  V30 24501 C 4004.22 -6.83093 1.70294 0
M  V30 24502 C 4003.51 -5.79992 0.836974 0
M  V30 24503 N 4003.56 -4.41864 1.38293 0
M  V30 24504 H 4000.72 -8.13644 3.0377 0
M  V30 24505 H 4000.45 -6.42788 2.55485 0
M  V30 24506 H 4001.31 -8.12039 0.792769 0
M  V30 24507 P 4005.28 -8.91 1.61539e-10 0
M  V30 24508 O 4005.5 -10.1746 -0.733838 0
M  V30 24509 O 4006.07 -8.73346 1.23964 0
M  V30 24510 O 4005.53 -7.66872 -0.971405 0
M  V30 24511 C 4004.59 -7.42405 -2.04668 0
M  V30 24512 C 4005.32 -6.86059 -3.24661 0
M  V30 24513 O 4005.53 -5.42934 -3.03695 0
M  V30 24514 C 4006.72 -7.41287 -3.50796 0
M  V30 24515 O 4007.11 -7.27073 -4.86816 0
M  V30 24516 C 4007.6 -6.5273 -2.63741 0
M  V30 24517 C 4006.89 -5.1842 -2.73198 0
M  V30 24518 N 4006.94 -4.38762 -1.4784 0
M  V30 24519 C 4006.86 -4.83651 -0.183876 0
M  V30 24520 N 4006.93 -3.88759 0.699393 0
M  V30 24521 C 4007.08 -2.7404 -0.0575568 0
M  V30 24522 C 4007.21 -1.37902 0.293928 0
M  V30 24523 N 4007.22 -0.938021 1.54797 0
M  V30 24524 N 4007.33 -0.491817 -0.70549 0
M  V30 24525 C 4007.32 -0.931735 -1.95979 0
M  V30 24526 N 4007.2 -2.16017 -2.41481 0
M  V30 24527 C 4007.08 -3.02547 -1.39121 0
M  V30 24528 H 4004.1 -8.36899 -2.3252 0
M  V30 24529 H 4003.83 -6.70391 -1.71179 0
M  V30 24530 H 4004.69 -7.03638 -4.13219 0
M  V30 24531 H 4007.35 -4.59931 -3.54016 0
M  V30 24532 H 4007.63 -6.88995 -1.59871 0
M  V30 24533 H 4008.62 -6.4684 -3.0373 0
M  V30 24534 H 4006.79 -8.47002 -3.20749 0
M  V30 24535 H 4006.75 -5.8885 0.0765548 0
M  V30 24536 H 4007.13 -1.60276 2.32875 0
M  V30 24537 H 4007.32 0.0699355 1.73859 0
M  V30 24538 H 4007.42 -0.165507 -2.71897 0
M  V30 24539 P 4008.66 -7.20834 -5.23717 0
M  V30 24540 O 4008.88 -7.79853 -6.57286 0
M  V30 24541 O 4009.45 -7.79239 -4.12957 0
M  V30 24542 O 4008.91 -5.63315 -5.29344 0
M  V30 24543 C 4007.97 -4.80255 -6.01876 0
M  V30 24544 C 4008.7 -3.64202 -6.65911 0
M  V30 24545 O 4008.91 -2.60694 -5.64732 0
M  V30 24546 C 4010.1 -3.93473 -7.1943 0
M  V30 24547 O 4010.49 -3.02071 -8.21205 0
M  V30 24548 C 4010.98 -3.73047 -5.97036 0
M  V30 24549 C 4010.27 -2.58828 -5.25741 0
M  V30 24550 N 4010.32 -2.68068 -3.77503 0
M  V30 24551 H 4007.48 -5.40332 -6.79951 0
M  V30 24552 H 4007.21 -4.41613 -5.32378 0
M  V30 24553 H 4008.07 -3.26331 -7.47797 0
M  V30 24554 P 4012.04 -2.75334 -8.47391 0
M  V30 24555 O 4012.26 -2.44571 -9.90142 0
M  V30 24556 O 4012.83 -3.87688 -7.92115 0
M  V30 24557 O 4012.29 -1.4459 -7.59357 0
M  V30 24558 C 4011.35 -0.347608 -7.69215 0
M  V30 24559 C 4012.08 0.96767 -7.52806 0
M  V30 24560 O 4012.29 1.21036 -6.1011 0
M  V30 24561 C 4013.48 1.04544 -8.13308 0
M  V30 24562 O 4013.87 2.38311 -8.41922 0
M  V30 24563 C 4014.36 0.491279 -7.02284 0
M  V30 24564 C 4013.65 0.996264 -5.77469 0
M  V30 24565 N 4013.7 0.0501916 -4.62973 0
M  V30 24566 H 4010.86 -0.374722 -8.67691 0
M  V30 24567 H 4010.59 -0.443485 -6.90277 0
M  V30 24568 H 4011.45 1.75537 -7.96793 0
M  V30 24569 P 4015.42 2.75334 -8.47391 0
M  V30 24570 O 4015.64 3.84166 -9.4489 0
M  V30 24571 O 4016.21 1.51964 -8.6881 0
M  V30 24572 O 4015.67 3.29363 -6.99321 0
M  V30 24573 C 4014.73 4.23956 -6.42656 0
M  V30 24574 C 4015.46 5.20775 -5.52155 0
M  V30 24575 O 4015.67 4.56534 -4.22446 0
M  V30 24576 C 4016.86 5.62629 -5.96531 0
M  V30 24577 O 4017.25 6.87667 -5.41053 0
M  V30 24578 C 4017.74 4.52537 -5.39283 0
M  V30 24579 C 4017.03 4.20027 -4.08623 0
M  V30 24580 N 4017.08 2.7613 -3.71522 0
M  V30 24581 C 4017.23 2.45612 -2.37989 0
M  V30 24582 O 4017.32 3.30919 -1.51621 0
M  V30 24583 N 4017.27 1.10684 -2.08435 0
M  V30 24584 C 4017.18 0.0690084 -2.9792 0
M  V30 24585 O 4017.23 -1.10553 -2.59426 0
M  V30 24586 C 4017.03 0.481522 -4.35345 0
M  V30 24587 C 4016.92 -0.618778 -5.36443 0
M  V30 24588 C 4016.98 1.78906 -4.67968 0
M  V30 24589 H 4014.24 4.797 -7.24003 0
M  V30 24590 H 4013.97 3.69802 -5.84429 0
M  V30 24591 H 4014.83 6.10356 -5.41441 0
M  V30 24592 H 4017.49 4.78651 -3.27911 0
M  V30 24593 H 4017.77 3.64957 -6.05871 0
M  V30 24594 H 4018.76 4.8868 -5.2125 0
M  V30 24595 H 4016.93 5.66726 -7.06352 0
M  V30 24596 H 4016.86 2.07737 -5.72367 0
M  V30 24597 H 4017.89 -0.754375 -5.86871 0
M  V30 24598 H 4016.15 -0.359721 -6.10641 0
M  V30 24599 H 4016.64 -1.55533 -4.8581 0
M  V30 24600 H 4017.37 0.862651 -1.12037 0
M  V30 24601 P 4018.8 7.20834 -5.23717 0
M  V30 24602 O 4019.02 8.66104 -5.38572 0
M  V30 24603 O 4019.59 6.33544 -6.1349 0
M  V30 24604 O 4019.05 6.7751 -3.72168 0
M  V30 24605 C 4018.11 7.20825 -2.7076 0
M  V30 24606 C 4018.84 7.45864 -1.40599 0
M  V30 24607 O 4019.05 6.17651 -0.734225 0
M  V30 24608 C 4020.24 8.05808 -1.51899 0
M  V30 24609 O 4020.63 8.74358 -0.335205 0
M  V30 24610 C 4021.12 6.83093 -1.70294 0
M  V30 24611 C 4020.41 5.79992 -0.836974 0
M  V30 24612 N 4020.46 4.41864 -1.38293 0
M  V30 24613 H 4017.62 8.13644 -3.0377 0
M  V30 24614 H 4017.35 6.42788 -2.55485 0
M  V30 24615 H 4018.21 8.12039 -0.792769 0
M  V30 24616 P 4022.18 8.91 -1.62648e-10 0
M  V30 24617 O 4022.4 10.1726 0.733694 0
M  V30 24618 O 4022.97 8.73148 -1.23936 0
M  V30 24619 O 4022.43 7.66872 0.971405 0
M  V30 24620 C 4021.49 7.42309 2.04641 0
M  V30 24621 C 4022.22 6.86059 3.24661 0
M  V30 24622 O 4022.43 5.42847 3.03646 0
M  V30 24623 C 4023.62 7.41196 3.50753 0
M  V30 24624 O 4024.01 7.27073 4.86816 0
M  V30 24625 C 4024.5 6.5273 2.63741 0
M  V30 24626 C 4023.79 5.1842 2.73198 0
M  V30 24627 N 4023.84 4.38762 1.4784 0
M  V30 24628 H 4021 8.36803 2.32493 0
M  V30 24629 H 4020.73 6.70197 1.71129 0
M  V30 24630 H 4021.59 7.03551 4.13168 0
M  V30 24631 P 4025.56 7.20834 5.23717 0
M  V30 24632 O 4025.78 7.79853 6.57286 0
M  V30 24633 O 4026.35 7.79239 4.12957 0
M  V30 24634 O 4025.81 5.63315 5.29344 0
M  V30 24635 C 4024.87 4.80255 6.01876 0
M  V30 24636 C 4025.6 3.64202 6.65911 0
M  V30 24637 O 4025.81 2.60694 5.64732 0
M  V30 24638 C 4027 3.93473 7.1943 0
M  V30 24639 O 4027.39 3.02071 8.21205 0
M  V30 24640 C 4027.88 3.73047 5.97036 0
M  V30 24641 C 4027.17 2.58828 5.25741 0
M  V30 24642 N 4027.22 2.68068 3.77503 0
M  V30 24643 H 4024.38 5.40332 6.79951 0
M  V30 24644 H 4024.11 4.41613 5.32378 0
M  V30 24645 H 4024.97 3.26331 7.47797 0
M  V30 24646 P 4028.94 2.75334 8.47391 0
M  V30 24647 O 4029.16 2.44571 9.90142 0
M  V30 24648 O 4029.73 3.87688 7.92115 0
M  V30 24649 O 4029.19 1.4459 7.59357 0
M  V30 24650 C 4028.25 0.347608 7.69215 0
M  V30 24651 C 4028.98 -0.96767 7.52806 0
M  V30 24652 O 4029.19 -1.21036 6.1011 0
M  V30 24653 C 4030.38 -1.04544 8.13308 0
M  V30 24654 O 4030.77 -2.38311 8.41922 0
M  V30 24655 C 4031.26 -0.491279 7.02284 0
M  V30 24656 C 4030.55 -0.996264 5.77469 0
M  V30 24657 N 4030.6 -0.0501916 4.62973 0
M  V30 24658 H 4027.76 0.374722 8.67691 0
M  V30 24659 H 4027.49 0.443485 6.90277 0
M  V30 24660 H 4028.35 -1.75537 7.96793 0
M  V30 24661 P 4032.32 -2.75334 8.47391 0
M  V30 24662 O 4032.54 -3.84128 9.44797 0
M  V30 24663 O 4033.11 -1.51947 8.68712 0
M  V30 24664 O 4032.57 -3.29363 6.99321 0
M  V30 24665 C 4031.63 -4.24011 6.4274 0
M  V30 24666 C 4032.36 -5.20775 5.52155 0
M  V30 24667 O 4032.57 -4.56534 4.22446 0
M  V30 24668 C 4033.76 -5.62629 5.96531 0
M  V30 24669 O 4034.15 -6.87667 5.41053 0
M  V30 24670 C 4034.64 -4.52537 5.39283 0
M  V30 24671 C 4033.93 -4.20027 4.08623 0
M  V30 24672 N 4033.98 -2.76189 3.71603 0
M  V30 24673 H 4031.14 -4.797 7.24003 0
M  V30 24674 H 4030.87 -3.69856 5.84513 0
M  V30 24675 H 4031.73 -6.10356 5.41441 0
M  V30 24676 P 4035.7 -7.20834 5.23717 0
M  V30 24677 O 4035.92 -8.66104 5.38572 0
M  V30 24678 O 4036.49 -6.33544 6.1349 0
M  V30 24679 O 4035.95 -6.7751 3.72168 0
M  V30 24680 C 4035.01 -7.20825 2.7076 0
M  V30 24681 C 4035.74 -7.45864 1.40599 0
M  V30 24682 O 4035.95 -6.17651 0.734225 0
M  V30 24683 C 4037.14 -8.05808 1.51899 0
M  V30 24684 O 4037.53 -8.74358 0.335205 0
M  V30 24685 C 4038.02 -6.83093 1.70294 0
M  V30 24686 C 4037.31 -5.79992 0.836974 0
M  V30 24687 N 4037.36 -4.41864 1.38293 0
M  V30 24688 C 4037.28 -3.99538 2.69438 0
M  V30 24689 N 4037.36 -2.69909 2.84277 0
M  V30 24690 C 4037.5 -2.21719 1.5408 0
M  V30 24691 C 4037.63 -0.891712 1.06628 0
M  V30 24692 N 4037.75 -0.856846 -0.334985 0
M  V30 24693 C 4037.75 -1.9641 -1.15789 0
M  V30 24694 N 4037.88 -1.72708 -2.46522 0
M  V30 24695 N 4037.62 -3.21165 -0.713741 0
M  V30 24696 C 4037.5 -3.26797 0.639748 0
M  V30 24697 H 4034.52 -8.13644 3.0377 0
M  V30 24698 H 4034.25 -6.42788 2.55485 0
M  V30 24699 H 4035.11 -8.12039 0.792769 0
M  V30 24700 P 4039.08 -8.91 1.63757e-10 0
M  V30 24701 O 4039.3 -10.1726 -0.733694 0
M  V30 24702 O 4039.87 -8.73148 1.23936 0
M  V30 24703 O 4039.33 -7.66872 -0.971405 0
M  V30 24704 C 4038.39 -7.42309 -2.04641 0
M  V30 24705 C 4039.12 -6.86059 -3.24661 0
M  V30 24706 O 4039.33 -5.42847 -3.03646 0
M  V30 24707 C 4040.52 -7.41196 -3.50753 0
M  V30 24708 O 4040.91 -7.27073 -4.86816 0
M  V30 24709 C 4041.4 -6.5273 -2.63741 0
M  V30 24710 C 4040.69 -5.1842 -2.73198 0
M  V30 24711 N 4040.74 -4.38762 -1.4784 0
M  V30 24712 H 4037.9 -8.36803 -2.32493 0
M  V30 24713 H 4037.63 -6.70197 -1.71129 0
M  V30 24714 H 4038.49 -7.03551 -4.13168 0
M  V30 24715 P 4042.46 -7.20834 -5.23717 0
M  V30 24716 O 4042.68 -7.79853 -6.57286 0
M  V30 24717 O 4043.25 -7.79239 -4.12957 0
M  V30 24718 O 4042.71 -5.63315 -5.29344 0
M  V30 24719 C 4041.77 -4.80255 -6.01876 0
M  V30 24720 C 4042.5 -3.64202 -6.65911 0
M  V30 24721 O 4042.71 -2.60694 -5.64732 0
M  V30 24722 C 4043.9 -3.93473 -7.1943 0
M  V30 24723 O 4044.29 -3.02071 -8.21205 0
M  V30 24724 C 4044.78 -3.73047 -5.97036 0
M  V30 24725 C 4044.07 -2.58828 -5.25741 0
M  V30 24726 N 4044.12 -2.68068 -3.77503 0
M  V30 24727 H 4041.28 -5.40332 -6.79951 0
M  V30 24728 H 4041.01 -4.41613 -5.32378 0
M  V30 24729 H 4041.87 -3.26331 -7.47797 0
M  V30 24730 P 4045.84 -2.75334 -8.47391 0
M  V30 24731 O 4046.06 -2.44571 -9.90142 0
M  V30 24732 O 4046.63 -3.87688 -7.92115 0
M  V30 24733 O 4046.09 -1.4459 -7.59357 0
M  V30 24734 C 4045.15 -0.347608 -7.69215 0
M  V30 24735 C 4045.88 0.96767 -7.52806 0
M  V30 24736 O 4046.09 1.21036 -6.1011 0
M  V30 24737 C 4047.28 1.04544 -8.13308 0
M  V30 24738 O 4047.67 2.38311 -8.41922 0
M  V30 24739 C 4048.16 0.491279 -7.02284 0
M  V30 24740 C 4047.45 0.996264 -5.77469 0
M  V30 24741 N 4047.5 0.0501916 -4.62973 0
M  V30 24742 H 4044.66 -0.374722 -8.67691 0
M  V30 24743 H 4044.39 -0.443485 -6.90277 0
M  V30 24744 H 4045.25 1.75537 -7.96793 0
M  V30 24745 P 4049.22 2.75334 -8.47391 0
M  V30 24746 O 4049.44 3.84128 -9.44797 0
M  V30 24747 O 4050.01 1.51947 -8.68712 0
M  V30 24748 O 4049.47 3.29363 -6.99321 0
M  V30 24749 C 4048.53 4.24011 -6.4274 0
M  V30 24750 C 4049.26 5.20775 -5.52155 0
M  V30 24751 O 4049.47 4.56534 -4.22446 0
M  V30 24752 C 4050.66 5.62629 -5.96531 0
M  V30 24753 O 4051.05 6.87667 -5.41053 0
M  V30 24754 C 4051.54 4.52537 -5.39283 0
M  V30 24755 C 4050.83 4.20027 -4.08623 0
M  V30 24756 N 4050.88 2.76189 -3.71603 0
M  V30 24757 H 4048.04 4.797 -7.24003 0
M  V30 24758 H 4047.77 3.69856 -5.84513 0
M  V30 24759 H 4048.63 6.10356 -5.41441 0
M  V30 24760 P 4052.6 7.20834 -5.23717 0
M  V30 24761 O 4052.82 8.66189 -5.38625 0
M  V30 24762 O 4053.39 6.33615 -6.1356 0
M  V30 24763 O 4052.85 6.7751 -3.72168 0
M  V30 24764 C 4051.91 7.20732 -2.70725 0
M  V30 24765 C 4052.64 7.45864 -1.40599 0
M  V30 24766 O 4052.85 6.17651 -0.734225 0
M  V30 24767 C 4054.04 8.05808 -1.51899 0
M  V30 24768 O 4054.43 8.74358 -0.335205 0
M  V30 24769 C 4054.92 6.83093 -1.70294 0
M  V30 24770 C 4054.21 5.79992 -0.836974 0
M  V30 24771 N 4054.26 4.41769 -1.38263 0
M  V30 24772 C 4054.41 3.38591 -0.481702 0
M  V30 24773 O 4054.5 3.56839 0.718452 0
M  V30 24774 N 4054.45 2.1206 -1.03569 0
M  V30 24775 C 4054.36 1.80696 -2.36966 0
M  V30 24776 O 4054.41 0.630473 -2.74862 0
M  V30 24777 C 4054.21 2.94845 -3.23898 0
M  V30 24778 C 4054.1 2.65253 -4.70362 0
M  V30 24779 C 4054.16 4.19803 -2.73435 0
M  V30 24780 H 4051.42 8.13644 -3.0377 0
M  V30 24781 H 4051.15 6.42695 -2.55448 0
M  V30 24782 H 4052.01 8.12039 -0.792769 0
M  V30 24783 H 4054.67 5.79978 0.160587 0
M  V30 24784 H 4054.95 6.51379 -2.75643 0
M  V30 24785 H 4055.94 7.01734 -1.34462 0
M  V30 24786 H 4054.11 8.73674 -2.38337 0
M  V30 24787 H 4054.04 5.04492 -3.4095 0
M  V30 24788 H 4055.07 2.83924 -5.1913 0
M  V30 24789 H 4053.33 3.29824 -5.15163 0
M  V30 24790 H 4053.82 1.59723 -4.84449 0
M  V30 24791 H 4054.55 1.35644 -0.399345 0
M  V30 24792 P 4055.98 8.91 -1.64866e-10 0
M  V30 24793 O 4056.2 10.1746 0.733838 0
M  V30 24794 O 4056.77 8.73346 -1.23964 0
M  V30 24795 O 4056.23 7.66872 0.971405 0
M  V30 24796 C 4055.29 7.42405 2.04668 0
M  V30 24797 C 4056.02 6.86059 3.24661 0
M  V30 24798 O 4056.23 5.42934 3.03695 0
M  V30 24799 C 4057.42 7.41287 3.50796 0
M  V30 24800 O 4057.81 7.27073 4.86816 0
M  V30 24801 C 4058.3 6.5273 2.63741 0
M  V30 24802 C 4057.59 5.1842 2.73198 0
M  V30 24803 N 4057.64 4.38762 1.4784 0
M  V30 24804 H 4054.8 8.36899 2.3252 0
M  V30 24805 H 4054.53 6.70391 1.71179 0
M  V30 24806 H 4055.39 7.03638 4.13219 0
M  V30 24807 H 4058.05 4.59931 3.54016 0
M  V30 24808 H 4058.33 6.88995 1.59871 0
M  V30 24809 H 4059.32 6.4684 3.0373 0
M  V30 24810 H 4057.49 8.47002 3.20749 0
M  V30 24811 P 4059.36 7.20834 5.23717 0
M  V30 24812 O 4059.58 7.80006 6.57415 0
M  V30 24813 O 4060.15 7.79416 4.13051 0
M  V30 24814 O 4059.61 5.63315 5.29344 0
M  V30 24815 C 4058.67 4.80318 6.01954 0
M  V30 24816 C 4059.4 3.64202 6.65911 0
M  V30 24817 O 4059.61 2.60736 5.64823 0
M  V30 24818 C 4060.8 3.93521 7.19518 0
M  V30 24819 O 4061.19 3.02071 8.21205 0
M  V30 24820 C 4061.68 3.73047 5.97036 0
M  V30 24821 C 4060.97 2.58828 5.25741 0
M  V30 24822 N 4061.02 2.68068 3.77503 0
M  V30 24823 H 4058.18 5.40394 6.8003 0
M  V30 24824 H 4057.91 4.41741 5.32532 0
M  V30 24825 H 4058.77 3.26371 7.47889 0
M  V30 24826 H 4061.43 1.64007 5.56746 0
M  V30 24827 H 4061.71 4.63439 5.3432 0
M  V30 24828 H 4062.7 3.44776 6.25925 0
M  V30 24829 H 4060.87 4.96707 7.57347 0
M  V30 24830 P 4062.74 2.75334 8.47391 0
M  V30 24831 O 4062.96 2.44571 9.90142 0
M  V30 24832 O 4063.53 3.87688 7.92115 0
M  V30 24833 O 4062.99 1.4459 7.59357 0
M  V30 24834 C 4062.05 0.347608 7.69215 0
M  V30 24835 C 4062.78 -0.96767 7.52806 0
M  V30 24836 O 4062.99 -1.21036 6.1011 0
M  V30 24837 C 4064.18 -1.04544 8.13308 0
M  V30 24838 O 4064.57 -2.38311 8.41922 0
M  V30 24839 C 4065.06 -0.491279 7.02284 0
M  V30 24840 C 4064.35 -0.996264 5.77469 0
M  V30 24841 N 4064.4 -0.0501916 4.62973 0
M  V30 24842 H 4061.56 0.374722 8.67691 0
M  V30 24843 H 4061.29 0.443485 6.90277 0
M  V30 24844 H 4062.15 -1.75537 7.96793 0
M  V30 24845 P 4066.12 -2.75334 8.47391 0
M  V30 24846 O 4066.34 -3.84128 9.44797 0
M  V30 24847 O 4066.91 -1.51947 8.68712 0
M  V30 24848 O 4066.37 -3.29363 6.99321 0
M  V30 24849 C 4065.43 -4.24011 6.4274 0
M  V30 24850 C 4066.16 -5.20775 5.52155 0
M  V30 24851 O 4066.37 -4.56534 4.22446 0
M  V30 24852 C 4067.56 -5.62629 5.96531 0
M  V30 24853 O 4067.95 -6.87667 5.41053 0
M  V30 24854 C 4068.44 -4.52537 5.39283 0
M  V30 24855 C 4067.73 -4.20027 4.08623 0
M  V30 24856 N 4067.78 -2.76189 3.71603 0
M  V30 24857 H 4064.94 -4.797 7.24003 0
M  V30 24858 H 4064.67 -3.69856 5.84513 0
M  V30 24859 H 4065.53 -6.10356 5.41441 0
M  V30 24860 P 4069.5 -7.20834 5.23717 0
M  V30 24861 O 4069.72 -8.66104 5.38572 0
M  V30 24862 O 4070.29 -6.33544 6.1349 0
M  V30 24863 O 4069.75 -6.7751 3.72168 0
M  V30 24864 C 4068.81 -7.20825 2.7076 0
M  V30 24865 C 4069.54 -7.45864 1.40599 0
M  V30 24866 O 4069.75 -6.17651 0.734225 0
M  V30 24867 C 4070.94 -8.05808 1.51899 0
M  V30 24868 O 4071.33 -8.74358 0.335205 0
M  V30 24869 C 4071.82 -6.83093 1.70294 0
M  V30 24870 C 4071.11 -5.79992 0.836974 0
M  V30 24871 N 4071.16 -4.41864 1.38293 0
M  V30 24872 H 4068.32 -8.13644 3.0377 0
M  V30 24873 H 4068.05 -6.42788 2.55485 0
M  V30 24874 H 4068.91 -8.12039 0.792769 0
M  V30 24875 P 4072.88 -8.91 1.65975e-10 0
M  V30 24876 O 4073.1 -10.1726 -0.733694 0
M  V30 24877 O 4073.67 -8.73148 1.23936 0
M  V30 24878 O 4073.13 -7.66872 -0.971405 0
M  V30 24879 C 4072.19 -7.42309 -2.04641 0
M  V30 24880 C 4072.92 -6.86059 -3.24661 0
M  V30 24881 O 4073.13 -5.42847 -3.03646 0
M  V30 24882 C 4074.32 -7.41196 -3.50753 0
M  V30 24883 O 4074.71 -7.27073 -4.86816 0
M  V30 24884 C 4075.2 -6.5273 -2.63741 0
M  V30 24885 C 4074.49 -5.1842 -2.73198 0
M  V30 24886 N 4074.54 -4.38762 -1.4784 0
M  V30 24887 H 4071.7 -8.36803 -2.32493 0
M  V30 24888 H 4071.43 -6.70197 -1.71129 0
M  V30 24889 H 4072.29 -7.03551 -4.13168 0
M  V30 24890 P 4076.26 -7.20834 -5.23717 0
M  V30 24891 O 4076.48 -7.79853 -6.57286 0
M  V30 24892 O 4077.05 -7.79239 -4.12957 0
M  V30 24893 O 4076.51 -5.63315 -5.29344 0
M  V30 24894 C 4075.57 -4.80255 -6.01876 0
M  V30 24895 C 4076.3 -3.64202 -6.65911 0
M  V30 24896 O 4076.51 -2.60694 -5.64732 0
M  V30 24897 C 4077.7 -3.93473 -7.1943 0
M  V30 24898 O 4078.09 -3.02071 -8.21205 0
M  V30 24899 C 4078.58 -3.73047 -5.97036 0
M  V30 24900 C 4077.87 -2.58828 -5.25741 0
M  V30 24901 N 4077.92 -2.68068 -3.77503 0
M  V30 24902 H 4075.08 -5.40332 -6.79951 0
M  V30 24903 H 4074.81 -4.41613 -5.32378 0
M  V30 24904 H 4075.67 -3.26331 -7.47797 0
M  V30 24905 P 4079.64 -2.75334 -8.47391 0
M  V30 24906 O 4079.86 -2.44619 -9.90336 0
M  V30 24907 O 4080.43 -3.87776 -7.92294 0
M  V30 24908 O 4079.89 -1.4459 -7.59357 0
M  V30 24909 C 4078.95 -0.347653 -7.69315 0
M  V30 24910 C 4079.68 0.96767 -7.52806 0
M  V30 24911 O 4079.89 1.21055 -6.10208 0
M  V30 24912 C 4081.08 1.04557 -8.13408 0
M  V30 24913 O 4081.47 2.38311 -8.41922 0
M  V30 24914 C 4081.96 0.491279 -7.02284 0
M  V30 24915 C 4081.25 0.996264 -5.77469 0
M  V30 24916 N 4081.3 0.0501916 -4.62973 0
M  V30 24917 C 4081.22 -1.31969 -4.65661 0
M  V30 24918 N 4081.29 -1.86649 -3.48119 0
M  V30 24919 C 4081.44 -0.792089 -2.62406 0
M  V30 24920 C 4081.57 -0.705684 -1.2207 0
M  V30 24921 N 4081.58 -1.76207 -0.413762 0
M  V30 24922 N 4081.69 0.518981 -0.685754 0
M  V30 24923 C 4081.68 1.57595 -1.49174 0
M  V30 24924 N 4081.56 1.62909 -2.80066 0
M  V30 24925 C 4081.44 0.388195 -3.3073 0
M  V30 24926 H 4078.46 -0.374765 -8.67791 0
M  V30 24927 H 4078.19 -0.443613 -6.90476 0
M  V30 24928 H 4079.05 1.75559 -7.96891 0
M  V30 24929 H 4081.71 1.94563 -5.46818 0
M  V30 24930 H 4081.99 -0.608651 -7.04676 0
M  V30 24931 H 4082.98 0.889796 -7.09039 0
M  V30 24932 H 4081.15 0.433128 -9.04664 0
M  V30 24933 H 4081.1 -1.89246 -5.57664 0
M  V30 24934 H 4081.49 -2.71005 -0.804694 0
M  V30 24935 H 4081.67 -1.63189 0.603768 0
M  V30 24936 H 4081.78 2.53475 -0.997614 0
M  V30 24937 P 4083.02 2.75334 -8.47391 0
M  V30 24938 O 4083.24 3.84204 -9.44982 0
M  V30 24939 O 4083.81 1.51982 -8.68909 0
M  V30 24940 O 4083.27 3.29363 -6.99321 0
M  V30 24941 C 4082.33 4.24066 -6.42823 0
M  V30 24942 C 4083.06 5.20775 -5.52155 0
M  V30 24943 O 4083.27 4.56607 -4.22514 0
M  V30 24944 C 4084.46 5.62697 -5.96604 0
M  V30 24945 O 4084.85 6.87667 -5.41053 0
M  V30 24946 C 4085.34 4.52537 -5.39283 0
M  V30 24947 C 4084.63 4.20027 -4.08623 0
M  V30 24948 N 4084.68 2.76189 -3.71603 0
M  V30 24949 C 4084.6 1.66944 -4.54297 0
M  V30 24950 N 4084.67 0.536169 -3.91344 0
M  V30 24951 C 4084.82 0.901569 -2.58849 0
M  V30 24952 C 4084.95 0.146599 -1.40236 0
M  V30 24953 N 4084.96 -1.18234 -1.37046 0
M  V30 24954 N 4085.07 0.822941 -0.249738 0
M  V30 24955 C 4085.06 2.15179 -0.280525 0
M  V30 24956 N 4084.94 2.96414 -1.30822 0
M  V30 24957 C 4084.82 2.25804 -2.44748 0
M  V30 24958 H 4081.84 4.79756 -7.24086 0
M  V30 24959 H 4081.57 3.69963 -5.84682 0
M  V30 24960 H 4082.43 6.10431 -5.41508 0
M  V30 24961 H 4085.09 4.78816 -3.28024 0
M  V30 24962 H 4085.37 3.64957 -6.05871 0
M  V30 24963 H 4086.36 4.88748 -5.21323 0
M  V30 24964 H 4084.53 5.66789 -7.0643 0
M  V30 24965 H 4084.48 1.74684 -5.62396 0
M  V30 24966 H 4084.87 -1.71949 -2.24394 0
M  V30 24967 H 4085.05 -1.67511 -0.470742 0
M  V30 24968 H 4085.16 2.63704 0.6828 0
M  V30 24969 P 4086.4 7.20834 -5.23717 0
M  V30 24970 O 4086.62 8.66104 -5.38572 0
M  V30 24971 O 4087.19 6.33544 -6.1349 0
M  V30 24972 O 4086.65 6.7751 -3.72168 0
M  V30 24973 C 4085.71 7.20825 -2.7076 0
M  V30 24974 C 4086.44 7.45864 -1.40599 0
M  V30 24975 O 4086.65 6.17651 -0.734225 0
M  V30 24976 C 4087.84 8.05808 -1.51899 0
M  V30 24977 O 4088.23 8.74358 -0.335205 0
M  V30 24978 C 4088.72 6.83093 -1.70294 0
M  V30 24979 C 4088.01 5.79992 -0.836974 0
M  V30 24980 N 4088.06 4.41864 -1.38293 0
M  V30 24981 C 4087.98 3.99538 -2.69438 0
M  V30 24982 N 4088.06 2.69909 -2.84277 0
M  V30 24983 C 4088.2 2.21719 -1.5408 0
M  V30 24984 C 4088.33 0.891712 -1.06628 0
M  V30 24985 N 4088.45 0.856846 0.334985 0
M  V30 24986 C 4088.45 1.9641 1.15789 0
M  V30 24987 N 4088.58 1.72708 2.46522 0
M  V30 24988 N 4088.32 3.21165 0.713741 0
M  V30 24989 C 4088.2 3.26797 -0.639748 0
M  V30 24990 H 4085.22 8.13644 -3.0377 0
M  V30 24991 H 4084.95 6.42788 -2.55485 0
M  V30 24992 H 4085.81 8.12039 -0.792769 0
M  V30 24993 P 4089.78 8.91 -1.67084e-10 0
M  V30 24994 O 4090 10.1726 0.733694 0
M  V30 24995 O 4090.57 8.73148 -1.23936 0
M  V30 24996 O 4090.03 7.66872 0.971405 0
M  V30 24997 C 4089.09 7.42309 2.04641 0
M  V30 24998 C 4089.82 6.86059 3.24661 0
M  V30 24999 O 4090.03 5.42847 3.03646 0
M  V30 25000 C 4091.22 7.41196 3.50753 0
M  V30 25001 O 4091.61 7.27073 4.86816 0
M  V30 25002 C 4092.1 6.5273 2.63741 0
M  V30 25003 C 4091.39 5.1842 2.73198 0
M  V30 25004 N 4091.44 4.38762 1.4784 0
M  V30 25005 H 4088.6 8.36803 2.32493 0
M  V30 25006 H 4088.33 6.70197 1.71129 0
M  V30 25007 H 4089.19 7.03551 4.13168 0
M  V30 25008 P 4093.16 7.20834 5.23717 0
M  V30 25009 O 4093.38 7.79853 6.57286 0
M  V30 25010 O 4093.95 7.79239 4.12957 0
M  V30 25011 O 4093.41 5.63315 5.29344 0
M  V30 25012 C 4092.47 4.80255 6.01876 0
M  V30 25013 C 4093.2 3.64202 6.65911 0
M  V30 25014 O 4093.41 2.60694 5.64732 0
M  V30 25015 C 4094.6 3.93473 7.1943 0
M  V30 25016 O 4094.99 3.02071 8.21205 0
M  V30 25017 C 4095.48 3.73047 5.97036 0
M  V30 25018 C 4094.77 2.58828 5.25741 0
M  V30 25019 N 4094.82 2.68068 3.77503 0
M  V30 25020 C 4094.74 3.79715 2.96723 0
M  V30 25021 N 4094.82 3.5377 1.68852 0
M  V30 25022 C 4094.96 2.15054 1.63254 0
M  V30 25023 C 4095.09 1.28964 0.518571 0
M  V30 25024 N 4095.21 -0.0538097 0.918425 0
M  V30 25025 C 4095.21 -0.494275 2.22578 0
M  V30 25026 N 4095.34 -1.81086 2.40434 0
M  V30 25027 N 4095.08 0.313645 3.27502 0
M  V30 25028 C 4094.96 1.61829 2.91033 0
M  V30 25029 H 4091.98 5.40332 6.79951 0
M  V30 25030 H 4091.71 4.41613 5.32378 0
M  V30 25031 H 4092.57 3.26331 7.47797 0
M  V30 25032 P 4096.54 2.75334 8.47391 0
M  V30 25033 O 4096.76 2.44619 9.90336 0
M  V30 25034 O 4097.33 3.87776 7.92294 0
M  V30 25035 O 4096.79 1.4459 7.59357 0
M  V30 25036 C 4095.85 0.347653 7.69315 0
M  V30 25037 C 4096.58 -0.96767 7.52806 0
M  V30 25038 O 4096.79 -1.21055 6.10208 0
M  V30 25039 C 4097.98 -1.04557 8.13408 0
M  V30 25040 O 4098.37 -2.38311 8.41922 0
M  V30 25041 C 4098.86 -0.491279 7.02284 0
M  V30 25042 C 4098.15 -0.996264 5.77469 0
M  V30 25043 N 4098.2 -0.0501916 4.62973 0
M  V30 25044 C 4098.12 1.31969 4.65661 0
M  V30 25045 N 4098.19 1.86649 3.48119 0
M  V30 25046 C 4098.34 0.792089 2.62406 0
M  V30 25047 C 4098.47 0.705684 1.2207 0
M  V30 25048 N 4098.48 1.76207 0.413762 0
M  V30 25049 N 4098.59 -0.518981 0.685754 0
M  V30 25050 C 4098.58 -1.57595 1.49174 0
M  V30 25051 N 4098.46 -1.62909 2.80066 0
M  V30 25052 C 4098.34 -0.388195 3.3073 0
M  V30 25053 H 4095.36 0.374765 8.67791 0
M  V30 25054 H 4095.09 0.443613 6.90476 0
M  V30 25055 H 4095.95 -1.75559 7.96891 0
M  V30 25056 H 4098.61 -1.94563 5.46818 0
M  V30 25057 H 4098.89 0.608651 7.04676 0
M  V30 25058 H 4099.88 -0.889796 7.09039 0
M  V30 25059 H 4098.05 -0.433128 9.04664 0
M  V30 25060 H 4098 1.89246 5.57664 0
M  V30 25061 H 4098.39 2.71005 0.804694 0
M  V30 25062 H 4098.57 1.63189 -0.603768 0
M  V30 25063 H 4098.68 -2.53475 0.997614 0
M  V30 25064 P 4099.92 -2.75334 8.47391 0
M  V30 25065 O 4100.14 -3.84204 9.44982 0
M  V30 25066 O 4100.71 -1.51982 8.68909 0
M  V30 25067 O 4100.17 -3.29363 6.99321 0
M  V30 25068 C 4099.23 -4.24066 6.42823 0
M  V30 25069 C 4099.96 -5.20775 5.52155 0
M  V30 25070 O 4100.17 -4.56607 4.22514 0
M  V30 25071 C 4101.36 -5.62697 5.96604 0
M  V30 25072 O 4101.75 -6.87667 5.41053 0
M  V30 25073 C 4102.24 -4.52537 5.39283 0
M  V30 25074 C 4101.53 -4.20027 4.08623 0
M  V30 25075 N 4101.58 -2.76189 3.71603 0
M  V30 25076 C 4101.5 -1.66944 4.54297 0
M  V30 25077 N 4101.57 -0.536169 3.91344 0
M  V30 25078 C 4101.72 -0.901569 2.58849 0
M  V30 25079 C 4101.85 -0.146599 1.40236 0
M  V30 25080 N 4101.86 1.18234 1.37046 0
M  V30 25081 N 4101.97 -0.822941 0.249738 0
M  V30 25082 C 4101.96 -2.15179 0.280525 0
M  V30 25083 N 4101.84 -2.96414 1.30822 0
M  V30 25084 C 4101.72 -2.25804 2.44748 0
M  V30 25085 H 4098.74 -4.79756 7.24086 0
M  V30 25086 H 4098.47 -3.69963 5.84682 0
M  V30 25087 H 4099.33 -6.10431 5.41508 0
M  V30 25088 H 4101.99 -4.78816 3.28024 0
M  V30 25089 H 4102.27 -3.64957 6.05871 0
M  V30 25090 H 4103.26 -4.88748 5.21323 0
M  V30 25091 H 4101.43 -5.66789 7.0643 0
M  V30 25092 H 4101.38 -1.74684 5.62396 0
M  V30 25093 H 4101.77 1.71949 2.24394 0
M  V30 25094 H 4101.95 1.67511 0.470742 0
M  V30 25095 H 4102.06 -2.63704 -0.6828 0
M  V30 25096 P 4103.3 -7.20834 5.23717 0
M  V30 25097 O 4103.52 -8.66104 5.38572 0
M  V30 25098 O 4104.09 -6.33544 6.1349 0
M  V30 25099 O 4103.55 -6.7751 3.72168 0
M  V30 25100 C 4102.61 -7.20825 2.7076 0
M  V30 25101 C 4103.34 -7.45864 1.40599 0
M  V30 25102 O 4103.55 -6.17651 0.734225 0
M  V30 25103 C 4104.74 -8.05808 1.51899 0
M  V30 25104 O 4105.13 -8.74358 0.335205 0
M  V30 25105 C 4105.62 -6.83093 1.70294 0
M  V30 25106 C 4104.91 -5.79992 0.836974 0
M  V30 25107 N 4104.96 -4.41864 1.38293 0
M  V30 25108 C 4104.88 -3.99538 2.69438 0
M  V30 25109 N 4104.96 -2.69909 2.84277 0
M  V30 25110 C 4105.1 -2.21719 1.5408 0
M  V30 25111 C 4105.23 -0.891712 1.06628 0
M  V30 25112 O 4105.25 0.161298 1.70137 0
M  V30 25113 N 4105.35 -0.856846 -0.334985 0
M  V30 25114 C 4105.35 -1.9641 -1.15789 0
M  V30 25115 N 4105.48 -1.72708 -2.46522 0
M  V30 25116 N 4105.22 -3.21165 -0.713741 0
M  V30 25117 C 4105.1 -3.26797 0.639748 0
M  V30 25118 H 4102.12 -8.13644 3.0377 0
M  V30 25119 H 4101.85 -6.42788 2.55485 0
M  V30 25120 H 4102.71 -8.12039 0.792769 0
M  V30 25121 H 4105.37 -5.80061 -0.166416 0
M  V30 25122 H 4105.65 -6.51287 2.75604 0
M  V30 25123 H 4106.64 -7.01734 1.34462 0
M  V30 25124 H 4104.81 -8.73674 2.38337 0
M  V30 25125 H 4104.76 -4.68207 3.53221 0
M  V30 25126 H 4105.44 0.0398818 -0.767965 0
M  V30 25127 H 4105.48 -2.50995 -3.13503 0
M  V30 25128 H 4105.58 -0.759148 -2.80716 0
M  V30 25129 P 4106.68 -8.91 1.68193e-10 0
M  V30 25130 O 4106.9 -10.1726 -0.733694 0
M  V30 25131 O 4107.47 -8.73148 1.23936 0
M  V30 25132 O 4106.93 -7.66872 -0.971405 0
M  V30 25133 C 4105.99 -7.42309 -2.04641 0
M  V30 25134 C 4106.72 -6.86059 -3.24661 0
M  V30 25135 O 4106.93 -5.42847 -3.03646 0
M  V30 25136 C 4108.12 -7.41196 -3.50753 0
M  V30 25137 O 4108.51 -7.27073 -4.86816 0
M  V30 25138 C 4109 -6.5273 -2.63741 0
M  V30 25139 C 4108.29 -5.1842 -2.73198 0
M  V30 25140 N 4108.34 -4.38762 -1.4784 0
M  V30 25141 H 4105.5 -8.36803 -2.32493 0
M  V30 25142 H 4105.23 -6.70197 -1.71129 0
M  V30 25143 H 4106.09 -7.03551 -4.13168 0
M  V30 25144 P 4110.06 -7.20834 -5.23717 0
M  V30 25145 O 4110.28 -7.79853 -6.57286 0
M  V30 25146 O 4110.85 -7.79239 -4.12957 0
M  V30 25147 O 4110.31 -5.63315 -5.29344 0
M  V30 25148 C 4109.37 -4.80255 -6.01876 0
M  V30 25149 C 4110.1 -3.64202 -6.65911 0
M  V30 25150 O 4110.31 -2.60694 -5.64732 0
M  V30 25151 C 4111.5 -3.93473 -7.1943 0
M  V30 25152 O 4111.89 -3.02071 -8.21205 0
M  V30 25153 C 4112.38 -3.73047 -5.97036 0
M  V30 25154 C 4111.67 -2.58828 -5.25741 0
M  V30 25155 N 4111.72 -2.68068 -3.77503 0
M  V30 25156 C 4111.64 -3.79715 -2.96723 0
M  V30 25157 N 4111.72 -3.5377 -1.68852 0
M  V30 25158 C 4111.86 -2.15054 -1.63254 0
M  V30 25159 C 4111.99 -1.28964 -0.518571 0
M  V30 25160 O 4112.01 -1.56826 0.679156 0
M  V30 25161 N 4112.11 0.0538097 -0.918425 0
M  V30 25162 C 4112.11 0.494275 -2.22578 0
M  V30 25163 N 4112.24 1.81086 -2.40434 0
M  V30 25164 N 4111.98 -0.313645 -3.27502 0
M  V30 25165 C 4111.86 -1.61829 -2.91033 0
M  V30 25166 H 4108.88 -5.40332 -6.79951 0
M  V30 25167 H 4108.61 -4.41613 -5.32378 0
M  V30 25168 H 4109.47 -3.26331 -7.47797 0
M  V30 25169 H 4112.13 -1.63422 -5.56814 0
M  V30 25170 H 4112.41 -4.63374 -5.34244 0
M  V30 25171 H 4113.4 -3.44728 -6.25838 0
M  V30 25172 H 4111.57 -4.96652 -7.57263 0
M  V30 25173 H 4111.52 -4.80617 -3.3614 0
M  V30 25174 H 4112.2 0.742702 -0.199384 0
M  V30 25175 H 4112.24 2.20598 -3.35588 0
M  V30 25176 H 4112.34 2.43518 -1.58945 0
M  V30 25177 P 4113.44 -2.75334 -8.47391 0
M  V30 25178 O 4113.66 -2.44571 -9.90142 0
M  V30 25179 O 4114.23 -3.87688 -7.92115 0
M  V30 25180 O 4113.69 -1.4459 -7.59357 0
M  V30 25181 C 4112.75 -0.347608 -7.69215 0
M  V30 25182 C 4113.48 0.96767 -7.52806 0
M  V30 25183 O 4113.69 1.21036 -6.1011 0
M  V30 25184 C 4114.88 1.04544 -8.13308 0
M  V30 25185 O 4115.27 2.38311 -8.41922 0
M  V30 25186 C 4115.76 0.491279 -7.02284 0
M  V30 25187 C 4115.05 0.996264 -5.77469 0
M  V30 25188 N 4115.1 0.0501916 -4.62973 0
M  V30 25189 H 4112.26 -0.374722 -8.67691 0
M  V30 25190 H 4111.99 -0.443485 -6.90277 0
M  V30 25191 H 4112.85 1.75537 -7.96793 0
M  V30 25192 P 4116.82 2.75334 -8.47391 0
M  V30 25193 O 4117.04 3.84204 -9.44982 0
M  V30 25194 O 4117.61 1.51982 -8.68909 0
M  V30 25195 O 4117.07 3.29363 -6.99321 0
M  V30 25196 C 4116.13 4.24066 -6.42823 0
M  V30 25197 C 4116.86 5.20775 -5.52155 0
M  V30 25198 O 4117.07 4.56607 -4.22514 0
M  V30 25199 C 4118.26 5.62697 -5.96604 0
M  V30 25200 O 4118.65 6.87667 -5.41053 0
M  V30 25201 C 4119.14 4.52537 -5.39283 0
M  V30 25202 C 4118.43 4.20027 -4.08623 0
M  V30 25203 N 4118.48 2.76189 -3.71603 0
M  V30 25204 C 4118.4 1.66944 -4.54297 0
M  V30 25205 N 4118.47 0.536169 -3.91344 0
M  V30 25206 C 4118.62 0.901569 -2.58849 0
M  V30 25207 C 4118.75 0.146599 -1.40236 0
M  V30 25208 N 4118.76 -1.18234 -1.37046 0
M  V30 25209 N 4118.87 0.822941 -0.249738 0
M  V30 25210 C 4118.86 2.15179 -0.280525 0
M  V30 25211 N 4118.74 2.96414 -1.30822 0
M  V30 25212 C 4118.62 2.25804 -2.44748 0
M  V30 25213 H 4115.64 4.79756 -7.24086 0
M  V30 25214 H 4115.37 3.69963 -5.84682 0
M  V30 25215 H 4116.23 6.10431 -5.41508 0
M  V30 25216 H 4118.89 4.78816 -3.28024 0
M  V30 25217 H 4119.17 3.64957 -6.05871 0
M  V30 25218 H 4120.16 4.88748 -5.21323 0
M  V30 25219 H 4118.33 5.66789 -7.0643 0
M  V30 25220 H 4118.28 1.74684 -5.62396 0
M  V30 25221 H 4118.67 -1.71949 -2.24394 0
M  V30 25222 H 4118.85 -1.67511 -0.470742 0
M  V30 25223 H 4118.96 2.63704 0.6828 0
M  V30 25224 P 4120.2 7.20834 -5.23717 0
M  V30 25225 O 4120.42 8.66104 -5.38572 0
M  V30 25226 O 4120.99 6.33544 -6.1349 0
M  V30 25227 O 4120.45 6.7751 -3.72168 0
M  V30 25228 C 4119.51 7.20825 -2.7076 0
M  V30 25229 C 4120.24 7.45864 -1.40599 0
M  V30 25230 O 4120.45 6.17651 -0.734225 0
M  V30 25231 C 4121.64 8.05808 -1.51899 0
M  V30 25232 O 4122.03 8.74358 -0.335205 0
M  V30 25233 C 4122.52 6.83093 -1.70294 0
M  V30 25234 C 4121.81 5.79992 -0.836974 0
M  V30 25235 N 4121.86 4.41864 -1.38293 0
M  V30 25236 C 4121.78 3.99538 -2.69438 0
M  V30 25237 N 4121.86 2.69909 -2.84277 0
M  V30 25238 C 4122 2.21719 -1.5408 0
M  V30 25239 C 4122.13 0.891712 -1.06628 0
M  V30 25240 O 4122.15 -0.161298 -1.70137 0
M  V30 25241 N 4122.25 0.856846 0.334985 0
M  V30 25242 C 4122.25 1.9641 1.15789 0
M  V30 25243 N 4122.38 1.72708 2.46522 0
M  V30 25244 N 4122.12 3.21165 0.713741 0
M  V30 25245 C 4122 3.26797 -0.639748 0
M  V30 25246 H 4119.02 8.13644 -3.0377 0
M  V30 25247 H 4118.75 6.42788 -2.55485 0
M  V30 25248 H 4119.61 8.12039 -0.792769 0
M  V30 25249 H 4122.27 5.80061 0.166416 0
M  V30 25250 H 4122.55 6.51287 -2.75604 0
M  V30 25251 H 4123.54 7.01734 -1.34462 0
M  V30 25252 H 4121.71 8.73674 -2.38337 0
M  V30 25253 H 4121.66 4.68207 -3.53221 0
M  V30 25254 H 4122.34 -0.0398818 0.767965 0
M  V30 25255 H 4122.38 2.50995 3.13503 0
M  V30 25256 H 4122.48 0.759148 2.80716 0
M  V30 25257 P 4123.58 8.91 -1.69302e-10 0
M  V30 25258 O 4123.8 10.1746 0.733838 0
M  V30 25259 O 4124.37 8.73346 -1.23964 0
M  V30 25260 O 4123.83 7.66872 0.971405 0
M  V30 25261 C 4122.89 7.42405 2.04668 0
M  V30 25262 C 4123.62 6.86059 3.24661 0
M  V30 25263 O 4123.83 5.42934 3.03695 0
M  V30 25264 C 4125.02 7.41287 3.50796 0
M  V30 25265 O 4125.41 7.27073 4.86816 0
M  V30 25266 C 4125.9 6.5273 2.63741 0
M  V30 25267 C 4125.19 5.1842 2.73198 0
M  V30 25268 N 4125.24 4.38762 1.4784 0
M  V30 25269 C 4125.16 4.83651 0.183876 0
M  V30 25270 N 4125.23 3.88759 -0.699393 0
M  V30 25271 C 4125.38 2.7404 0.0575568 0
M  V30 25272 C 4125.51 1.37902 -0.293928 0
M  V30 25273 N 4125.52 0.938021 -1.54797 0
M  V30 25274 N 4125.63 0.491817 0.70549 0
M  V30 25275 C 4125.62 0.931735 1.95979 0
M  V30 25276 N 4125.5 2.16017 2.41481 0
M  V30 25277 C 4125.38 3.02547 1.39121 0
M  V30 25278 H 4122.4 8.36899 2.3252 0
M  V30 25279 H 4122.13 6.70391 1.71179 0
M  V30 25280 H 4122.99 7.03638 4.13219 0
M  V30 25281 H 4125.65 4.59931 3.54016 0
M  V30 25282 H 4125.93 6.88995 1.59871 0
M  V30 25283 H 4126.92 6.4684 3.0373 0
M  V30 25284 H 4125.09 8.47002 3.20749 0
M  V30 25285 H 4125.04 5.8885 -0.0765548 0
M  V30 25286 H 4125.43 1.60276 -2.32875 0
M  V30 25287 H 4125.61 -0.0699355 -1.73859 0
M  V30 25288 H 4125.72 0.165507 2.71897 0
M  V30 25289 P 4126.96 7.20834 5.23717 0
M  V30 25290 O 4127.18 7.79853 6.57286 0
M  V30 25291 O 4127.75 7.79239 4.12957 0
M  V30 25292 O 4127.21 5.63315 5.29344 0
M  V30 25293 C 4126.27 4.80255 6.01876 0
M  V30 25294 C 4127 3.64202 6.65911 0
M  V30 25295 O 4127.21 2.60694 5.64732 0
M  V30 25296 C 4128.4 3.93473 7.1943 0
M  V30 25297 O 4128.79 3.02071 8.21205 0
M  V30 25298 C 4129.28 3.73047 5.97036 0
M  V30 25299 C 4128.57 2.58828 5.25741 0
M  V30 25300 N 4128.62 2.68068 3.77503 0
M  V30 25301 C 4128.54 3.79715 2.96723 0
M  V30 25302 N 4128.62 3.5377 1.68852 0
M  V30 25303 C 4128.76 2.15054 1.63254 0
M  V30 25304 C 4128.89 1.28964 0.518571 0
M  V30 25305 O 4128.91 1.56826 -0.679156 0
M  V30 25306 N 4129.01 -0.0538097 0.918425 0
M  V30 25307 C 4129.01 -0.494275 2.22578 0
M  V30 25308 N 4129.14 -1.81086 2.40434 0
M  V30 25309 N 4128.88 0.313645 3.27502 0
M  V30 25310 C 4128.76 1.61829 2.91033 0
M  V30 25311 H 4125.78 5.40332 6.79951 0
M  V30 25312 H 4125.51 4.41613 5.32378 0
M  V30 25313 H 4126.37 3.26331 7.47797 0
M  V30 25314 H 4129.03 1.63422 5.56814 0
M  V30 25315 H 4129.31 4.63374 5.34244 0
M  V30 25316 H 4130.3 3.44728 6.25838 0
M  V30 25317 H 4128.47 4.96652 7.57263 0
M  V30 25318 H 4128.42 4.80617 3.3614 0
M  V30 25319 H 4129.1 -0.742702 0.199384 0
M  V30 25320 H 4129.14 -2.20598 3.35588 0
M  V30 25321 H 4129.24 -2.43518 1.58945 0
M  V30 25322 P 4130.34 2.75334 8.47391 0
M  V30 25323 O 4130.56 2.44619 9.90336 0
M  V30 25324 O 4131.13 3.87776 7.92294 0
M  V30 25325 O 4130.59 1.4459 7.59357 0
M  V30 25326 C 4129.65 0.347653 7.69315 0
M  V30 25327 C 4130.38 -0.96767 7.52806 0
M  V30 25328 O 4130.59 -1.21055 6.10208 0
M  V30 25329 C 4131.78 -1.04557 8.13408 0
M  V30 25330 O 4132.17 -2.38311 8.41922 0
M  V30 25331 C 4132.66 -0.491279 7.02284 0
M  V30 25332 C 4131.95 -0.996264 5.77469 0
M  V30 25333 N 4132 -0.0501916 4.62973 0
M  V30 25334 C 4131.92 1.31969 4.65661 0
M  V30 25335 N 4131.99 1.86649 3.48119 0
M  V30 25336 C 4132.14 0.792089 2.62406 0
M  V30 25337 C 4132.27 0.705684 1.2207 0
M  V30 25338 N 4132.28 1.76207 0.413762 0
M  V30 25339 N 4132.39 -0.518981 0.685754 0
M  V30 25340 C 4132.38 -1.57595 1.49174 0
M  V30 25341 N 4132.26 -1.62909 2.80066 0
M  V30 25342 C 4132.14 -0.388195 3.3073 0
M  V30 25343 H 4129.16 0.374765 8.67791 0
M  V30 25344 H 4128.89 0.443613 6.90476 0
M  V30 25345 H 4129.75 -1.75559 7.96891 0
M  V30 25346 H 4132.41 -1.94563 5.46818 0
M  V30 25347 H 4132.69 0.608651 7.04676 0
M  V30 25348 H 4133.68 -0.889796 7.09039 0
M  V30 25349 H 4131.85 -0.433128 9.04664 0
M  V30 25350 H 4131.8 1.89246 5.57664 0
M  V30 25351 H 4132.19 2.71005 0.804694 0
M  V30 25352 H 4132.37 1.63189 -0.603768 0
M  V30 25353 H 4132.48 -2.53475 0.997614 0
M  V30 25354 P 4133.72 -2.75334 8.47391 0
M  V30 25355 O 4133.94 -3.84166 9.4489 0
M  V30 25356 O 4134.51 -1.51964 8.6881 0
M  V30 25357 O 4133.97 -3.29363 6.99321 0
M  V30 25358 C 4133.03 -4.23956 6.42656 0
M  V30 25359 C 4133.76 -5.20775 5.52155 0
M  V30 25360 O 4133.97 -4.56534 4.22446 0
M  V30 25361 C 4135.16 -5.62629 5.96531 0
M  V30 25362 O 4135.55 -6.87667 5.41053 0
M  V30 25363 C 4136.04 -4.52537 5.39283 0
M  V30 25364 C 4135.33 -4.20027 4.08623 0
M  V30 25365 N 4135.38 -2.7613 3.71522 0
M  V30 25366 C 4135.53 -2.45612 2.37989 0
M  V30 25367 O 4135.62 -3.30919 1.51621 0
M  V30 25368 N 4135.57 -1.10684 2.08435 0
M  V30 25369 C 4135.48 -0.0690084 2.9792 0
M  V30 25370 O 4135.53 1.10553 2.59426 0
M  V30 25371 C 4135.33 -0.481522 4.35345 0
M  V30 25372 C 4135.22 0.618778 5.36443 0
M  V30 25373 C 4135.28 -1.78906 4.67968 0
M  V30 25374 H 4132.54 -4.797 7.24003 0
M  V30 25375 H 4132.27 -3.69802 5.84429 0
M  V30 25376 H 4133.13 -6.10356 5.41441 0
M  V30 25377 H 4135.79 -4.78651 3.27911 0
M  V30 25378 H 4136.07 -3.64957 6.05871 0
M  V30 25379 H 4137.06 -4.8868 5.2125 0
M  V30 25380 H 4135.23 -5.66726 7.06352 0
M  V30 25381 H 4135.15 -2.07737 5.72367 0
M  V30 25382 H 4136.18 0.754375 5.86871 0
M  V30 25383 H 4134.45 0.359721 6.10641 0
M  V30 25384 H 4134.94 1.55533 4.8581 0
M  V30 25385 H 4135.67 -0.862651 1.12037 0
M  V30 25386 P 4137.1 -7.20834 5.23717 0
M  V30 25387 O 4137.32 -8.66274 5.38678 0
M  V30 25388 O 4137.89 -6.33687 6.13629 0
M  V30 25389 O 4137.35 -6.7751 3.72168 0
M  V30 25390 C 4136.41 -7.20919 2.70795 0
M  V30 25391 C 4137.14 -7.45864 1.40599 0
M  V30 25392 O 4137.35 -6.17751 0.734343 0
M  V30 25393 C 4138.54 -8.05906 1.51917 0
M  V30 25394 O 4138.93 -8.74358 0.335205 0
M  V30 25395 C 4139.42 -6.83093 1.70294 0
M  V30 25396 C 4138.71 -5.79992 0.836974 0
M  V30 25397 N 4138.76 -4.41864 1.38293 0
M  V30 25398 C 4138.68 -4.02089 2.69407 0
M  V30 25399 N 4138.75 -2.73403 2.85089 0
M  V30 25400 C 4138.9 -2.25086 1.5642 0
M  V30 25401 C 4139.03 -0.942887 1.04836 0
M  V30 25402 N 4139.04 0.150999 1.80369 0
M  V30 25403 N 4139.15 -0.812565 -0.28167 0
M  V30 25404 C 4139.14 -1.90572 -1.03784 0
M  V30 25405 N 4139.02 -3.167 -0.683905 0
M  V30 25406 C 4138.9 -3.26538 0.652815 0
M  V30 25407 H 4135.92 -8.13738 3.03804 0
M  V30 25408 H 4135.65 -6.42974 2.55559 0
M  V30 25409 H 4136.51 -8.12139 0.792866 0
M  V30 25410 H 4139.17 -5.80178 -0.160643 0
M  V30 25411 H 4139.45 -6.51379 2.75643 0
M  V30 25412 H 4140.44 -7.01832 1.3448 0
M  V30 25413 H 4138.61 -8.73771 2.38364 0
M  V30 25414 H 4138.56 -4.7189 3.52311 0
M  V30 25415 H 4138.95 0.0721434 2.82608 0
M  V30 25416 H 4139.13 1.0785 1.36544 0
M  V30 25417 H 4139.24 -1.73207 -2.10241 0
M  V30 25418 P 4140.48 -8.91 1.70411e-10 0
M  V30 25419 O 4140.7 -10.1726 -0.733694 0
M  V30 25420 O 4141.27 -8.73148 1.23936 0
M  V30 25421 O 4140.73 -7.66872 -0.971405 0
M  V30 25422 C 4139.79 -7.42309 -2.04641 0
M  V30 25423 C 4140.52 -6.86059 -3.24661 0
M  V30 25424 O 4140.73 -5.42847 -3.03646 0
M  V30 25425 C 4141.92 -7.41196 -3.50753 0
M  V30 25426 O 4142.31 -7.27073 -4.86816 0
M  V30 25427 C 4142.8 -6.5273 -2.63741 0
M  V30 25428 C 4142.09 -5.1842 -2.73198 0
M  V30 25429 N 4142.14 -4.38762 -1.4784 0
M  V30 25430 H 4139.3 -8.36803 -2.32493 0
M  V30 25431 H 4139.03 -6.70197 -1.71129 0
M  V30 25432 H 4139.89 -7.03551 -4.13168 0
M  V30 25433 P 4143.86 -7.20834 -5.23717 0
M  V30 25434 O 4144.08 -7.79853 -6.57286 0
M  V30 25435 O 4144.65 -7.79239 -4.12957 0
M  V30 25436 O 4144.11 -5.63315 -5.29344 0
M  V30 25437 C 4143.17 -4.80255 -6.01876 0
M  V30 25438 C 4143.9 -3.64202 -6.65911 0
M  V30 25439 O 4144.11 -2.60694 -5.64732 0
M  V30 25440 C 4145.3 -3.93473 -7.1943 0
M  V30 25441 O 4145.69 -3.02071 -8.21205 0
M  V30 25442 C 4146.18 -3.73047 -5.97036 0
M  V30 25443 C 4145.47 -2.58828 -5.25741 0
M  V30 25444 N 4145.52 -2.68068 -3.77503 0
M  V30 25445 H 4142.68 -5.40332 -6.79951 0
M  V30 25446 H 4142.41 -4.41613 -5.32378 0
M  V30 25447 H 4143.27 -3.26331 -7.47797 0
M  V30 25448 P 4147.24 -2.75334 -8.47391 0
M  V30 25449 O 4147.46 -2.44595 -9.90239 0
M  V30 25450 O 4148.03 -3.87732 -7.92204 0
M  V30 25451 O 4147.49 -1.4459 -7.59357 0
M  V30 25452 C 4146.55 -0.347563 -7.69115 0
M  V30 25453 C 4147.28 0.96767 -7.52806 0
M  V30 25454 O 4147.49 1.21036 -6.1011 0
M  V30 25455 C 4148.68 1.04544 -8.13308 0
M  V30 25456 O 4149.07 2.38311 -8.41922 0
M  V30 25457 C 4149.56 0.491279 -7.02284 0
M  V30 25458 C 4148.85 0.996264 -5.77469 0
M  V30 25459 N 4148.9 0.0501808 -4.62873 0
M  V30 25460 C 4149.05 0.588177 -3.36904 0
M  V30 25461 O 4149.14 1.78598 -3.17173 0
M  V30 25462 N 4149.09 -0.329694 -2.33686 0
M  V30 25463 C 4149 -1.6953 -2.45079 0
M  V30 25464 O 4149.05 -2.41926 -1.44899 0
M  V30 25465 C 4148.85 -2.16933 -3.80505 0
M  V30 25466 C 4148.74 -3.65373 -3.97621 0
M  V30 25467 C 4148.8 -1.30326 -4.83752 0
M  V30 25468 H 4146.06 -0.374722 -8.67691 0
M  V30 25469 H 4145.79 -0.443421 -6.90177 0
M  V30 25470 H 4146.65 1.75537 -7.96793 0
M  V30 25471 H 4149.31 1.94496 -5.46629 0
M  V30 25472 H 4149.59 -0.608651 -7.04676 0
M  V30 25473 H 4150.58 0.889672 -7.08939 0
M  V30 25474 H 4148.75 0.43308 -9.04564 0
M  V30 25475 H 4148.67 -1.68366 -5.8516 0
M  V30 25476 H 4149.7 -4.05985 -4.30448 0
M  V30 25477 H 4147.97 -3.88028 -4.72875 0
M  V30 25478 H 4148.46 -4.11381 -3.01609 0
M  V30 25479 H 4149.19 0.0393617 -1.41345 0
M  V30 25480 P 4150.62 2.75334 -8.47391 0
M  V30 25481 O 4150.84 3.84128 -9.44797 0
M  V30 25482 O 4151.41 1.51947 -8.68712 0
M  V30 25483 O 4150.87 3.29363 -6.99321 0
M  V30 25484 C 4149.93 4.24011 -6.4274 0
M  V30 25485 C 4150.66 5.20775 -5.52155 0
M  V30 25486 O 4150.87 4.56534 -4.22446 0
M  V30 25487 C 4152.06 5.62629 -5.96531 0
M  V30 25488 O 4152.45 6.87667 -5.41053 0
M  V30 25489 C 4152.94 4.52537 -5.39283 0
M  V30 25490 C 4152.23 4.20027 -4.08623 0
M  V30 25491 N 4152.28 2.76189 -3.71603 0
M  V30 25492 C 4152.2 1.64862 -4.52822 0
M  V30 25493 N 4152.28 0.512671 -3.88633 0
M  V30 25494 C 4152.42 0.888083 -2.54977 0
M  V30 25495 C 4152.55 0.094668 -1.38677 0
M  V30 25496 N 4152.67 0.890102 -0.232633 0
M  V30 25497 C 4152.67 2.26958 -0.21772 0
M  V30 25498 N 4152.8 2.84626 0.97925 0
M  V30 25499 N 4152.54 3.0178 -1.31033 0
M  V30 25500 C 4152.42 2.26781 -2.43843 0
M  V30 25501 H 4149.44 4.797 -7.24003 0
M  V30 25502 H 4149.17 3.69856 -5.84513 0
M  V30 25503 H 4150.03 6.10356 -5.41441 0
M  V30 25504 P 4154 7.20834 -5.23717 0
M  V30 25505 O 4154.22 8.66104 -5.38572 0
M  V30 25506 O 4154.79 6.33544 -6.1349 0
M  V30 25507 O 4154.25 6.7751 -3.72168 0
M  V30 25508 C 4153.31 7.20825 -2.7076 0
M  V30 25509 C 4154.04 7.45864 -1.40599 0
M  V30 25510 O 4154.25 6.17651 -0.734225 0
M  V30 25511 C 4155.44 8.05808 -1.51899 0
M  V30 25512 O 4155.83 8.74358 -0.335205 0
M  V30 25513 C 4156.32 6.83093 -1.70294 0
M  V30 25514 C 4155.61 5.79992 -0.836974 0
M  V30 25515 N 4155.66 4.41864 -1.38293 0
M  V30 25516 C 4155.58 3.99538 -2.69438 0
M  V30 25517 N 4155.66 2.69909 -2.84277 0
M  V30 25518 C 4155.8 2.21719 -1.5408 0
M  V30 25519 C 4155.93 0.891712 -1.06628 0
M  V30 25520 N 4156.05 0.856846 0.334985 0
M  V30 25521 C 4156.05 1.9641 1.15789 0
M  V30 25522 N 4156.18 1.72708 2.46522 0
M  V30 25523 N 4155.92 3.21165 0.713741 0
M  V30 25524 C 4155.8 3.26797 -0.639748 0
M  V30 25525 H 4152.82 8.13644 -3.0377 0
M  V30 25526 H 4152.55 6.42788 -2.55485 0
M  V30 25527 H 4153.41 8.12039 -0.792769 0
M  V30 25528 P 4157.38 8.91 -1.7152e-10 0
M  V30 25529 O 4157.6 10.1746 0.733838 0
M  V30 25530 O 4158.17 8.73346 -1.23964 0
M  V30 25531 O 4157.63 7.66872 0.971405 0
M  V30 25532 C 4156.69 7.42405 2.04668 0
M  V30 25533 C 4157.42 6.86059 3.24661 0
M  V30 25534 O 4157.63 5.42934 3.03695 0
M  V30 25535 C 4158.82 7.41287 3.50796 0
M  V30 25536 O 4159.21 7.27073 4.86816 0
M  V30 25537 C 4159.7 6.5273 2.63741 0
M  V30 25538 C 4158.99 5.1842 2.73198 0
M  V30 25539 N 4159.04 4.38762 1.4784 0
M  V30 25540 H 4156.2 8.36899 2.3252 0
M  V30 25541 H 4155.93 6.70391 1.71179 0
M  V30 25542 H 4156.79 7.03638 4.13219 0
M  V30 25543 H 4159.45 4.59931 3.54016 0
M  V30 25544 H 4159.73 6.88995 1.59871 0
M  V30 25545 H 4160.72 6.4684 3.0373 0
M  V30 25546 H 4158.89 8.47002 3.20749 0
M  V30 25547 P 4160.76 7.20834 5.23717 0
M  V30 25548 O 4160.98 7.79853 6.57286 0
M  V30 25549 O 4161.55 7.79239 4.12957 0
M  V30 25550 O 4161.01 5.63315 5.29344 0
M  V30 25551 C 4160.07 4.80255 6.01876 0
M  V30 25552 C 4160.8 3.64202 6.65911 0
M  V30 25553 O 4161.01 2.60694 5.64732 0
M  V30 25554 C 4162.2 3.93473 7.1943 0
M  V30 25555 O 4162.59 3.02071 8.21205 0
M  V30 25556 C 4163.08 3.73047 5.97036 0
M  V30 25557 C 4162.37 2.58828 5.25741 0
M  V30 25558 N 4162.42 2.68068 3.77503 0
M  V30 25559 H 4159.58 5.40332 6.79951 0
M  V30 25560 H 4159.31 4.41613 5.32378 0
M  V30 25561 H 4160.17 3.26331 7.47797 0
M  V30 25562 P 4164.14 2.75334 8.47391 0
M  V30 25563 O 4164.36 2.44619 9.90336 0
M  V30 25564 O 4164.93 3.87776 7.92294 0
M  V30 25565 O 4164.39 1.4459 7.59357 0
M  V30 25566 C 4163.45 0.347653 7.69315 0
M  V30 25567 C 4164.18 -0.96767 7.52806 0
M  V30 25568 O 4164.39 -1.21055 6.10208 0
M  V30 25569 C 4165.58 -1.04557 8.13408 0
M  V30 25570 O 4165.97 -2.38311 8.41922 0
M  V30 25571 C 4166.46 -0.491279 7.02284 0
M  V30 25572 C 4165.75 -0.996264 5.77469 0
M  V30 25573 N 4165.8 -0.0501916 4.62973 0
M  V30 25574 H 4162.96 0.374765 8.67791 0
M  V30 25575 H 4162.69 0.443613 6.90476 0
M  V30 25576 H 4163.55 -1.75559 7.96891 0
M  V30 25577 H 4166.21 -1.94563 5.46818 0
M  V30 25578 H 4166.49 0.608651 7.04676 0
M  V30 25579 H 4167.48 -0.889796 7.09039 0
M  V30 25580 H 4165.65 -0.433128 9.04664 0
M  V30 25581 P 4167.52 -2.75334 8.47391 0
M  V30 25582 O 4167.74 -3.84128 9.44797 0
M  V30 25583 O 4168.31 -1.51947 8.68712 0
M  V30 25584 O 4167.77 -3.29363 6.99321 0
M  V30 25585 C 4166.83 -4.24011 6.4274 0
M  V30 25586 C 4167.56 -5.20775 5.52155 0
M  V30 25587 O 4167.77 -4.56534 4.22446 0
M  V30 25588 C 4168.96 -5.62629 5.96531 0
M  V30 25589 O 4169.35 -6.87667 5.41053 0
M  V30 25590 C 4169.84 -4.52537 5.39283 0
M  V30 25591 C 4169.13 -4.20027 4.08623 0
M  V30 25592 N 4169.18 -2.76189 3.71603 0
M  V30 25593 C 4169.1 -1.64862 4.52822 0
M  V30 25594 N 4169.18 -0.512671 3.88633 0
M  V30 25595 C 4169.32 -0.888083 2.54977 0
M  V30 25596 C 4169.45 -0.094668 1.38677 0
M  V30 25597 N 4169.57 -0.890102 0.232633 0
M  V30 25598 C 4169.57 -2.26958 0.21772 0
M  V30 25599 N 4169.7 -2.84626 -0.97925 0
M  V30 25600 N 4169.44 -3.0178 1.31033 0
M  V30 25601 C 4169.32 -2.26781 2.43843 0
M  V30 25602 H 4166.34 -4.797 7.24003 0
M  V30 25603 H 4166.07 -3.69856 5.84513 0
M  V30 25604 H 4166.93 -6.10356 5.41441 0
M  V30 25605 P 4170.9 -7.20834 5.23717 0
M  V30 25606 O 4171.12 -8.66274 5.38678 0
M  V30 25607 O 4171.69 -6.33687 6.13629 0
M  V30 25608 O 4171.15 -6.7751 3.72168 0
M  V30 25609 C 4170.21 -7.20919 2.70795 0
M  V30 25610 C 4170.94 -7.45864 1.40599 0
M  V30 25611 O 4171.15 -6.17751 0.734343 0
M  V30 25612 C 4172.34 -8.05906 1.51917 0
M  V30 25613 O 4172.73 -8.74358 0.335205 0
M  V30 25614 C 4173.22 -6.83093 1.70294 0
M  V30 25615 C 4172.51 -5.79992 0.836974 0
M  V30 25616 N 4172.56 -4.41864 1.38293 0
M  V30 25617 C 4172.48 -4.02089 2.69407 0
M  V30 25618 N 4172.55 -2.73403 2.85089 0
M  V30 25619 C 4172.7 -2.25086 1.5642 0
M  V30 25620 C 4172.83 -0.942887 1.04836 0
M  V30 25621 N 4172.84 0.150999 1.80369 0
M  V30 25622 N 4172.95 -0.812565 -0.28167 0
M  V30 25623 C 4172.94 -1.90572 -1.03784 0
M  V30 25624 N 4172.82 -3.167 -0.683905 0
M  V30 25625 C 4172.7 -3.26538 0.652815 0
M  V30 25626 H 4169.72 -8.13738 3.03804 0
M  V30 25627 H 4169.45 -6.42974 2.55559 0
M  V30 25628 H 4170.31 -8.12139 0.792866 0
M  V30 25629 H 4172.97 -5.80178 -0.160643 0
M  V30 25630 H 4173.25 -6.51379 2.75643 0
M  V30 25631 H 4174.24 -7.01832 1.3448 0
M  V30 25632 H 4172.41 -8.73771 2.38364 0
M  V30 25633 H 4172.36 -4.7189 3.52311 0
M  V30 25634 H 4172.75 0.0721434 2.82608 0
M  V30 25635 H 4172.93 1.0785 1.36544 0
M  V30 25636 H 4173.04 -1.73207 -2.10241 0
M  V30 25637 P 4174.28 -8.91 1.72629e-10 0
M  V30 25638 O 4174.5 -10.1726 -0.733694 0
M  V30 25639 O 4175.07 -8.73148 1.23936 0
M  V30 25640 O 4174.53 -7.66872 -0.971405 0
M  V30 25641 C 4173.59 -7.42309 -2.04641 0
M  V30 25642 C 4174.32 -6.86059 -3.24661 0
M  V30 25643 O 4174.53 -5.42847 -3.03646 0
M  V30 25644 C 4175.72 -7.41196 -3.50753 0
M  V30 25645 O 4176.11 -7.27073 -4.86816 0
M  V30 25646 C 4176.6 -6.5273 -2.63741 0
M  V30 25647 C 4175.89 -5.1842 -2.73198 0
M  V30 25648 N 4175.94 -4.38762 -1.4784 0
M  V30 25649 H 4173.1 -8.36803 -2.32493 0
M  V30 25650 H 4172.83 -6.70197 -1.71129 0
M  V30 25651 H 4173.69 -7.03551 -4.13168 0
M  V30 25652 P 4177.66 -7.20834 -5.23717 0
M  V30 25653 O 4177.88 -7.79853 -6.57286 0
M  V30 25654 O 4178.45 -7.79239 -4.12957 0
M  V30 25655 O 4177.91 -5.63315 -5.29344 0
M  V30 25656 C 4176.97 -4.80255 -6.01876 0
M  V30 25657 C 4177.7 -3.64202 -6.65911 0
M  V30 25658 O 4177.91 -2.60694 -5.64732 0
M  V30 25659 C 4179.1 -3.93473 -7.1943 0
M  V30 25660 O 4179.49 -3.02071 -8.21205 0
M  V30 25661 C 4179.98 -3.73047 -5.97036 0
M  V30 25662 C 4179.27 -2.58828 -5.25741 0
M  V30 25663 N 4179.32 -2.68068 -3.77503 0
M  V30 25664 H 4176.48 -5.40332 -6.79951 0
M  V30 25665 H 4176.21 -4.41613 -5.32378 0
M  V30 25666 H 4177.07 -3.26331 -7.47797 0
M  V30 25667 P 4181.04 -2.75334 -8.47391 0
M  V30 25668 O 4181.26 -2.44595 -9.90239 0
M  V30 25669 O 4181.83 -3.87732 -7.92204 0
M  V30 25670 O 4181.29 -1.4459 -7.59357 0
M  V30 25671 C 4180.35 -0.347563 -7.69115 0
M  V30 25672 C 4181.08 0.96767 -7.52806 0
M  V30 25673 O 4181.29 1.21036 -6.1011 0
M  V30 25674 C 4182.48 1.04544 -8.13308 0
M  V30 25675 O 4182.87 2.38311 -8.41922 0
M  V30 25676 C 4183.36 0.491279 -7.02284 0
M  V30 25677 C 4182.65 0.996264 -5.77469 0
M  V30 25678 N 4182.7 0.0501808 -4.62873 0
M  V30 25679 C 4182.85 0.588177 -3.36904 0
M  V30 25680 O 4182.94 1.78598 -3.17173 0
M  V30 25681 N 4182.89 -0.329694 -2.33686 0
M  V30 25682 C 4182.8 -1.6953 -2.45079 0
M  V30 25683 O 4182.85 -2.41926 -1.44899 0
M  V30 25684 C 4182.65 -2.16933 -3.80505 0
M  V30 25685 C 4182.54 -3.65373 -3.97621 0
M  V30 25686 C 4182.6 -1.30326 -4.83752 0
M  V30 25687 H 4179.86 -0.374722 -8.67691 0
M  V30 25688 H 4179.59 -0.443421 -6.90177 0
M  V30 25689 H 4180.45 1.75537 -7.96793 0
M  V30 25690 H 4183.11 1.94496 -5.46629 0
M  V30 25691 H 4183.39 -0.608651 -7.04676 0
M  V30 25692 H 4184.38 0.889672 -7.08939 0
M  V30 25693 H 4182.55 0.43308 -9.04564 0
M  V30 25694 H 4182.47 -1.68366 -5.8516 0
M  V30 25695 H 4183.5 -4.05985 -4.30448 0
M  V30 25696 H 4181.77 -3.88028 -4.72875 0
M  V30 25697 H 4182.26 -4.11381 -3.01609 0
M  V30 25698 H 4182.99 0.0393617 -1.41345 0
M  V30 25699 P 4184.42 2.75334 -8.47391 0
M  V30 25700 O 4184.64 3.84128 -9.44797 0
M  V30 25701 O 4185.21 1.51947 -8.68712 0
M  V30 25702 O 4184.67 3.29363 -6.99321 0
M  V30 25703 C 4183.73 4.24011 -6.4274 0
M  V30 25704 C 4184.46 5.20775 -5.52155 0
M  V30 25705 O 4184.67 4.56534 -4.22446 0
M  V30 25706 C 4185.86 5.62629 -5.96531 0
M  V30 25707 O 4186.25 6.87667 -5.41053 0
M  V30 25708 C 4186.74 4.52537 -5.39283 0
M  V30 25709 C 4186.03 4.20027 -4.08623 0
M  V30 25710 N 4186.08 2.76189 -3.71603 0
M  V30 25711 H 4183.24 4.797 -7.24003 0
M  V30 25712 H 4182.97 3.69856 -5.84513 0
M  V30 25713 H 4183.83 6.10356 -5.41441 0
M  V30 25714 P 4187.8 7.20834 -5.23717 0
M  V30 25715 O 4188.02 8.66274 -5.38678 0
M  V30 25716 O 4188.59 6.33687 -6.13629 0
M  V30 25717 O 4188.05 6.7751 -3.72168 0
M  V30 25718 C 4187.11 7.20919 -2.70795 0
M  V30 25719 C 4187.84 7.45864 -1.40599 0
M  V30 25720 O 4188.05 6.17751 -0.734343 0
M  V30 25721 C 4189.24 8.05906 -1.51917 0
M  V30 25722 O 4189.63 8.74358 -0.335205 0
M  V30 25723 C 4190.12 6.83093 -1.70294 0
M  V30 25724 C 4189.41 5.79992 -0.836974 0
M  V30 25725 N 4189.46 4.41864 -1.38293 0
M  V30 25726 C 4189.38 4.02089 -2.69407 0
M  V30 25727 N 4189.45 2.73403 -2.85089 0
M  V30 25728 C 4189.6 2.25086 -1.5642 0
M  V30 25729 C 4189.73 0.942887 -1.04836 0
M  V30 25730 N 4189.74 -0.150999 -1.80369 0
M  V30 25731 N 4189.85 0.812565 0.28167 0
M  V30 25732 C 4189.84 1.90572 1.03784 0
M  V30 25733 N 4189.72 3.167 0.683905 0
M  V30 25734 C 4189.6 3.26538 -0.652815 0
M  V30 25735 H 4186.62 8.13738 -3.03804 0
M  V30 25736 H 4186.35 6.42974 -2.55559 0
M  V30 25737 H 4187.21 8.12139 -0.792866 0
M  V30 25738 H 4189.87 5.80178 0.160643 0
M  V30 25739 H 4190.15 6.51379 -2.75643 0
M  V30 25740 H 4191.14 7.01832 -1.3448 0
M  V30 25741 H 4189.31 8.73771 -2.38364 0
M  V30 25742 H 4189.26 4.7189 -3.52311 0
M  V30 25743 H 4189.65 -0.0721434 -2.82608 0
M  V30 25744 H 4189.83 -1.0785 -1.36544 0
M  V30 25745 H 4189.94 1.73207 2.10241 0
M  V30 25746 H 4189.49 8.17008 0.422618 0
M  V30 25747 H 4193.52 -9.01697 3.02546 0
M  V30 25748 O 4193.4 -8.19513 3.48153 0
M  V30 25749 P 4191.96 -8.03563 3.84925 0
M  V30 25750 O 4191.74 -8.85821 5.0569 0
M  V30 25751 O 4191.17 -8.41101 2.65469 0
M  V30 25752 O 4191.71 -6.4965 4.18908 0
M  V30 25753 C 4192.65 -5.80886 5.05289 0
M  V30 25754 C 4191.92 -4.78366 5.89277 0
M  V30 25755 O 4191.71 -3.58302 5.08433 0
M  V30 25756 C 4190.52 -5.16748 6.36559 0
M  V30 25757 O 4190.13 -4.45271 7.53232 0
M  V30 25758 C 4189.64 -4.74572 5.19863 0
M  V30 25759 C 4190.35 -3.49373 4.70338 0
M  V30 25760 N 4190.3 -3.31704 3.22876 0
M  V30 25761 C 4190.15 -2.03326 2.74871 0
M  V30 25762 O 4190.06 -1.06486 3.48076 0
M  V30 25763 N 4190.11 -1.91838 1.37456 0
M  V30 25764 C 4190.2 -2.94295 0.462035 0
M  V30 25765 O 4190.15 -2.71763 -0.752928 0
M  V30 25766 C 4190.35 -4.25064 1.05249 0
M  V30 25767 C 4190.46 -5.39815 0.095697 0
M  V30 25768 C 4190.4 -4.40214 2.39192 0
M  V30 25769 H 4193.14 -6.54063 5.71245 0
M  V30 25770 H 4193.41 -5.30339 4.43905 0
M  V30 25771 H 4192.54 -4.55889 6.76652 0
M  V30 25772 H 4189.88 -2.6167 5.17842 0
M  V30 25773 H 4189.6 -5.52155 4.41878 0
M  V30 25774 H 4188.61 -4.51918 5.53297 0
M  V30 25775 H 4190.45 -6.25055 6.55162 0
M  V30 25776 H 4190.52 -5.39798 2.81523 0
M  V30 25777 H 4189.49 -5.91593 0.0279582 0
M  V30 25778 H 4191.22 -6.10038 0.450573 0
M  V30 25779 H 4190.74 -5.02007 -0.89937 0
M  V30 25780 H 4190 -0.995326 1.00435 0
M  V30 25781 P 4188.58 -4.23843 7.83734 0
M  V30 25782 O 4188.36 -4.19407 9.29784 0
M  V30 25783 O 4187.79 -5.24426 7.09156 0
M  V30 25784 O 4188.33 -2.7935 7.20758 0
M  V30 25785 C 4189.27 -1.7299 7.50419 0
M  V30 25786 C 4188.54 -0.406376 7.57911 0
M  V30 25787 O 4188.33 0.0897726 6.21935 0
M  V30 25788 C 4187.14 -0.447224 8.1878 0
M  V30 25789 O 4186.75 0.825065 8.71101 0
M  V30 25790 C 4186.26 -0.783801 6.99623 0
M  V30 25791 C 4186.97 -0.0619192 5.85967 0
M  V30 25792 N 4186.92 -0.7859 4.56281 0
M  V30 25793 H 4189.75 -1.93423 8.4679 0
M  V30 25794 H 4190.03 -1.68181 6.71046 0
M  V30 25795 H 4189.16 0.289041 8.15388 0
M  V30 25796 P 4185.2 1.17771 8.83182 0
M  V30 25797 O 4184.98 2.07206 9.98732 0
M  V30 25798 O 4184.41 -0.0743816 8.81969 0
M  V30 25799 O 4184.95 1.97652 7.47304 0
M  V30 25800 C 4185.89 3.01133 7.08783 0
M  V30 25801 C 4185.16 4.12613 6.37049 0
M  V30 25802 O 4184.95 3.72827 4.97879 0
M  V30 25803 C 4183.76 4.45085 6.88694 0
M  V30 25804 O 4183.37 5.7877 6.5624 0
M  V30 25805 C 4182.88 3.47817 6.12078 0
M  V30 25806 C 4183.59 3.39414 4.77697 0
M  V30 25807 N 4183.54 2.04199 4.15538 0
M  V30 25808 C 4183.62 0.821545 4.76977 0
M  V30 25809 N 4183.55 -0.1794 3.94592 0
M  V30 25810 C 4183.4 0.419121 2.70776 0
M  V30 25811 C 4183.27 -0.109072 1.40577 0
M  V30 25812 N 4183.26 -1.4104 1.1344 0
M  V30 25813 N 4183.15 0.764381 0.39411 0
M  V30 25814 C 4183.16 2.06587 0.664135 0
M  V30 25815 N 4183.28 2.67948 1.82153 0
M  V30 25816 C 4183.4 1.77942 2.8147 0
M  V30 25817 H 4186.37 3.41248 7.98759 0
M  V30 25818 H 4186.65 2.57728 6.42 0
M  V30 25819 H 4185.78 5.02657 6.42673 0
M  V30 25820 H 4183.12 4.11708 4.08956 0
M  V30 25821 H 4182.84 2.49626 6.61679 0
M  V30 25822 H 4181.85 3.8662 6.00862 0
M  V30 25823 H 4183.69 4.29991 7.97006 0
M  V30 25824 H 4183.73 0.702451 5.84696 0
M  V30 25825 H 4183.35 -2.09647 1.89651 0
M  V30 25826 H 4183.16 -1.73358 0.160575 0
M  V30 25827 H 4183.05 2.71695 -0.195838 0
M  V30 25828 P 4181.82 6.144 6.45285 0
M  V30 25829 O 4181.6 7.54673 6.86199 0
M  V30 25830 O 4181.03 5.12391 7.179 0
M  V30 25831 O 4181.57 5.99158 4.88404 0
M  V30 25832 C 4182.51 6.60234 3.96415 0
M  V30 25833 C 4181.78 7.08259 2.72856 0
M  V30 25834 O 4181.57 5.9427 1.83651 0
M  V30 25835 C 4180.38 7.64886 2.9555 0
M  V30 25836 O 4179.99 8.53963 1.90717 0
M  V30 25837 C 4179.5 6.4116 2.90739 0
M  V30 25838 C 4180.21 5.55375 1.86963 0
M  V30 25839 N 4180.16 4.09448 2.16152 0
M  V30 25840 H 4182.99 7.45574 4.45629 0
M  V30 25841 H 4183.27 5.85864 3.679 0
M  V30 25842 H 4182.4 7.84412 2.24479 0
M  V30 25843 H 4179.74 5.73457 0.888562 0
M  V30 25844 H 4179.46 5.90877 3.88583 0
M  V30 25845 H 4178.47 6.6596 2.58858 0
M  V30 25846 H 4180.31 8.16339 3.92049 0
M  V30 25847 P 4178.44 8.7635 1.60911 0
M  V30 25848 O 4178.22 10.1388 1.11561 0
M  V30 25849 O 4177.65 8.36503 2.79617 0
M  V30 25850 O 4178.19 7.71806 0.42951 0
M  V30 25851 C 4179.13 7.67148 -0.673689 0
M  V30 25852 C 4178.4 7.33374 -1.95559 0
M  V30 25853 O 4178.19 5.88721 -2.00726 0
M  V30 25854 C 4177 7.92526 -2.10483 0
M  V30 25855 O 4176.61 8.02971 -3.47653 0
M  V30 25856 C 4176.12 6.89602 -1.41652 0
M  V30 25857 C 4176.83 5.59201 -1.75185 0
M  V30 25858 N 4176.78 4.58235 -0.662552 0
M  V30 25859 H 4179.61 8.65116 -0.777161 0
M  V30 25860 H 4179.89 6.90173 -0.474152 0
M  V30 25861 H 4179.02 7.66548 -2.79458 0
M  V30 25862 P 4175.06 8.03563 -3.84925 0
M  V30 25863 O 4174.84 8.85821 -5.0569 0
M  V30 25864 O 4174.27 8.41101 -2.65469 0
M  V30 25865 O 4174.81 6.4965 -4.18908 0
M  V30 25866 C 4175.75 5.80886 -5.05289 0
M  V30 25867 C 4175.02 4.78366 -5.89277 0
M  V30 25868 O 4174.81 3.58302 -5.08433 0
M  V30 25869 C 4173.62 5.16748 -6.36559 0
M  V30 25870 O 4173.23 4.45271 -7.53232 0
M  V30 25871 C 4172.74 4.74572 -5.19863 0
M  V30 25872 C 4173.45 3.49373 -4.70338 0
M  V30 25873 N 4173.4 3.31704 -3.22876 0
M  V30 25874 C 4173.25 2.03326 -2.74871 0
M  V30 25875 O 4173.16 1.06486 -3.48076 0
M  V30 25876 N 4173.21 1.91838 -1.37456 0
M  V30 25877 C 4173.3 2.94295 -0.462035 0
M  V30 25878 O 4173.25 2.71763 0.752928 0
M  V30 25879 C 4173.45 4.25064 -1.05249 0
M  V30 25880 C 4173.56 5.39815 -0.095697 0
M  V30 25881 C 4173.5 4.40214 -2.39192 0
M  V30 25882 H 4176.24 6.54063 -5.71245 0
M  V30 25883 H 4176.51 5.30339 -4.43905 0
M  V30 25884 H 4175.64 4.55889 -6.76652 0
M  V30 25885 H 4172.98 2.6167 -5.17842 0
M  V30 25886 H 4172.7 5.52155 -4.41878 0
M  V30 25887 H 4171.71 4.51918 -5.53297 0
M  V30 25888 H 4173.55 6.25055 -6.55162 0
M  V30 25889 H 4173.62 5.39798 -2.81523 0
M  V30 25890 H 4172.59 5.91593 -0.0279582 0
M  V30 25891 H 4174.32 6.10038 -0.450573 0
M  V30 25892 H 4173.84 5.02007 0.89937 0
M  V30 25893 H 4173.1 0.995326 -1.00435 0
M  V30 25894 P 4171.68 4.23843 -7.83734 0
M  V30 25895 O 4171.46 4.19407 -9.29784 0
M  V30 25896 O 4170.89 5.24426 -7.09156 0
M  V30 25897 O 4171.43 2.7935 -7.20758 0
M  V30 25898 C 4172.37 1.72945 -7.50224 0
M  V30 25899 C 4171.64 0.406376 -7.57911 0
M  V30 25900 O 4171.43 -0.0897726 -6.21935 0
M  V30 25901 C 4170.24 0.438983 -8.18724 0
M  V30 25902 O 4169.85 -0.825065 -8.71101 0
M  V30 25903 C 4169.36 0.783689 -6.99524 0
M  V30 25904 C 4170.07 0.0619086 -5.85867 0
M  V30 25905 N 4170.02 0.78573 -4.56183 0
M  V30 25906 C 4169.87 0.0292889 -3.41887 0
M  V30 25907 O 4169.78 -1.18445 -3.4419 0
M  V30 25908 N 4169.83 0.744061 -2.23964 0
M  V30 25909 C 4169.92 2.10932 -2.10362 0
M  V30 25910 C 4170.07 2.8202 -3.34994 0
M  V30 25911 C 4170.12 2.15547 -4.52261 0
M  V30 25912 H 4172.86 1.93379 -8.46595 0
M  V30 25913 H 4173.13 1.68132 -6.70852 0
M  V30 25914 H 4172.26 -0.289041 -8.15388 0
M  V30 25915 H 4169.6 -0.926847 -5.72749 0
M  V30 25916 H 4169.32 1.86973 -6.82036 0
M  V30 25917 H 4168.33 0.403896 -7.13257 0
M  V30 25918 H 4170.17 1.20585 -8.97435 0
M  V30 25919 H 4170.24 2.71231 -5.45042 0
M  V30 25920 P 4168.3 -1.17771 -8.83182 0
M  V30 25921 O 4168.08 -2.07206 -9.98732 0
M  V30 25922 O 4167.51 0.0743816 -8.81969 0
M  V30 25923 O 4168.05 -1.97652 -7.47304 0
M  V30 25924 C 4168.99 -3.01133 -7.08783 0
M  V30 25925 C 4168.26 -4.12613 -6.37049 0
M  V30 25926 O 4168.05 -3.72827 -4.97879 0
M  V30 25927 C 4166.86 -4.45085 -6.88694 0
M  V30 25928 O 4166.47 -5.7877 -6.5624 0
M  V30 25929 C 4165.98 -3.47817 -6.12078 0
M  V30 25930 C 4166.69 -3.39414 -4.77697 0
M  V30 25931 N 4166.64 -2.04615 -4.15333 0
M  V30 25932 H 4169.47 -3.41248 -7.98759 0
M  V30 25933 H 4169.75 -2.5837 -6.41742 0
M  V30 25934 H 4168.88 -5.02657 -6.42673 0
M  V30 25935 P 4164.92 -6.144 -6.45285 0
M  V30 25936 O 4164.7 -7.54673 -6.86199 0
M  V30 25937 O 4164.13 -5.12391 -7.179 0
M  V30 25938 O 4164.67 -5.99158 -4.88404 0
M  V30 25939 C 4165.61 -6.60234 -3.96415 0
M  V30 25940 C 4164.88 -7.08259 -2.72856 0
M  V30 25941 O 4164.67 -5.9427 -1.83651 0
M  V30 25942 C 4163.48 -7.64886 -2.9555 0
M  V30 25943 O 4163.09 -8.53963 -1.90717 0
M  V30 25944 C 4162.6 -6.4116 -2.90739 0
M  V30 25945 C 4163.31 -5.55375 -1.86963 0
M  V30 25946 N 4163.26 -4.09664 -2.15742 0
M  V30 25947 H 4166.09 -7.45574 -4.45629 0
M  V30 25948 H 4166.37 -5.86232 -3.67314 0
M  V30 25949 H 4165.5 -7.84412 -2.24479 0
M  V30 25950 P 4161.54 -8.7635 -1.60911 0
M  V30 25951 O 4161.32 -10.1388 -1.11561 0
M  V30 25952 O 4160.75 -8.36503 -2.79617 0
M  V30 25953 O 4161.29 -7.71806 -0.42951 0
M  V30 25954 C 4162.23 -7.67148 0.673689 0
M  V30 25955 C 4161.5 -7.33374 1.95559 0
M  V30 25956 O 4161.29 -5.88721 2.00726 0
M  V30 25957 C 4160.1 -7.92526 2.10483 0
M  V30 25958 O 4159.71 -8.02971 3.47653 0
M  V30 25959 C 4159.22 -6.89602 1.41652 0
M  V30 25960 C 4159.93 -5.59201 1.75185 0
M  V30 25961 N 4159.88 -4.58235 0.662552 0
M  V30 25962 H 4162.71 -8.65116 0.777161 0
M  V30 25963 H 4162.99 -6.90173 0.474152 0
M  V30 25964 H 4162.12 -7.66548 2.79458 0
M  V30 25965 P 4158.16 -8.03563 3.84925 0
M  V30 25966 O 4157.94 -8.85821 5.0569 0
M  V30 25967 O 4157.37 -8.41101 2.65469 0
M  V30 25968 O 4157.91 -6.4965 4.18908 0
M  V30 25969 C 4158.85 -5.80886 5.05289 0
M  V30 25970 C 4158.12 -4.78366 5.89277 0
M  V30 25971 O 4157.91 -3.58302 5.08433 0
M  V30 25972 C 4156.72 -5.16748 6.36559 0
M  V30 25973 O 4156.33 -4.45271 7.53232 0
M  V30 25974 C 4155.84 -4.74572 5.19863 0
M  V30 25975 C 4156.55 -3.49373 4.70338 0
M  V30 25976 N 4156.5 -3.31704 3.22876 0
M  V30 25977 C 4156.35 -2.03326 2.74871 0
M  V30 25978 O 4156.26 -1.06486 3.48076 0
M  V30 25979 N 4156.31 -1.91838 1.37456 0
M  V30 25980 C 4156.4 -2.94295 0.462035 0
M  V30 25981 C 4156.55 -4.25064 1.05249 0
M  V30 25982 C 4156.6 -4.40214 2.39192 0
M  V30 25983 H 4159.34 -6.54063 5.71245 0
M  V30 25984 H 4159.61 -5.30339 4.43905 0
M  V30 25985 H 4158.74 -4.55889 6.76652 0
M  V30 25986 H 4156.08 -2.6167 5.17842 0
M  V30 25987 H 4155.8 -5.52155 4.41878 0
M  V30 25988 H 4154.81 -4.51918 5.53297 0
M  V30 25989 H 4156.65 -6.25055 6.55162 0
M  V30 25990 H 4156.72 -5.39798 2.81523 0
M  V30 25991 P 4154.78 -4.23843 7.83734 0
M  V30 25992 O 4154.56 -4.19407 9.29784 0
M  V30 25993 O 4153.99 -5.24426 7.09156 0
M  V30 25994 O 4154.53 -2.7935 7.20758 0
M  V30 25995 C 4155.47 -1.72945 7.50224 0
M  V30 25996 C 4154.74 -0.406376 7.57911 0
M  V30 25997 O 4154.53 0.0897726 6.21935 0
M  V30 25998 C 4153.34 -0.438983 8.18724 0
M  V30 25999 O 4152.95 0.825065 8.71101 0
M  V30 26000 C 4152.46 -0.783689 6.99524 0
M  V30 26001 C 4153.17 -0.0619086 5.85867 0
M  V30 26002 N 4153.12 -0.78573 4.56183 0
M  V30 26003 C 4152.97 -0.0292889 3.41887 0
M  V30 26004 O 4152.88 1.18445 3.4419 0
M  V30 26005 N 4152.93 -0.744061 2.23964 0
M  V30 26006 C 4153.02 -2.10932 2.10362 0
M  V30 26007 C 4153.17 -2.8202 3.34994 0
M  V30 26008 C 4153.22 -2.15547 4.52261 0
M  V30 26009 H 4155.96 -1.93379 8.46595 0
M  V30 26010 H 4156.23 -1.68132 6.70852 0
M  V30 26011 H 4155.36 0.289041 8.15388 0
M  V30 26012 H 4152.7 0.926847 5.72749 0
M  V30 26013 H 4152.42 -1.86973 6.82036 0
M  V30 26014 H 4151.43 -0.403896 7.13257 0
M  V30 26015 H 4153.27 -1.20585 8.97435 0
M  V30 26016 H 4153.34 -2.71231 5.45042 0
M  V30 26017 P 4151.4 1.17771 8.83182 0
M  V30 26018 O 4151.18 2.07206 9.98732 0
M  V30 26019 O 4150.61 -0.0743816 8.81969 0
M  V30 26020 O 4151.15 1.97652 7.47304 0
M  V30 26021 C 4152.09 3.01133 7.08783 0
M  V30 26022 C 4151.36 4.12613 6.37049 0
M  V30 26023 O 4151.15 3.72827 4.97879 0
M  V30 26024 C 4149.96 4.45085 6.88694 0
M  V30 26025 O 4149.57 5.7877 6.5624 0
M  V30 26026 C 4149.08 3.47817 6.12078 0
M  V30 26027 C 4149.79 3.39414 4.77697 0
M  V30 26028 N 4149.74 2.04199 4.15538 0
M  V30 26029 C 4149.82 0.821545 4.76977 0
M  V30 26030 N 4149.75 -0.1794 3.94592 0
M  V30 26031 C 4149.6 0.419121 2.70776 0
M  V30 26032 C 4149.47 -0.109072 1.40577 0
M  V30 26033 N 4149.46 -1.4104 1.1344 0
M  V30 26034 N 4149.35 0.764381 0.39411 0
M  V30 26035 C 4149.36 2.06587 0.664135 0
M  V30 26036 N 4149.48 2.67948 1.82153 0
M  V30 26037 C 4149.6 1.77942 2.8147 0
M  V30 26038 H 4152.57 3.41248 7.98759 0
M  V30 26039 H 4152.85 2.57728 6.42 0
M  V30 26040 H 4151.98 5.02657 6.42673 0
M  V30 26041 H 4149.32 4.11708 4.08956 0
M  V30 26042 H 4149.04 2.49626 6.61679 0
M  V30 26043 H 4148.05 3.8662 6.00862 0
M  V30 26044 H 4149.89 4.29991 7.97006 0
M  V30 26045 H 4149.93 0.702451 5.84696 0
M  V30 26046 H 4149.55 -2.09647 1.89651 0
M  V30 26047 H 4149.36 -1.73358 0.160575 0
M  V30 26048 H 4149.25 2.71695 -0.195838 0
M  V30 26049 P 4148.02 6.144 6.45285 0
M  V30 26050 O 4147.8 7.54673 6.86199 0
M  V30 26051 O 4147.23 5.12391 7.179 0
M  V30 26052 O 4147.77 5.99158 4.88404 0
M  V30 26053 C 4148.71 6.60234 3.96415 0
M  V30 26054 C 4147.98 7.08259 2.72856 0
M  V30 26055 O 4147.77 5.9427 1.83651 0
M  V30 26056 C 4146.58 7.64886 2.9555 0
M  V30 26057 O 4146.19 8.53963 1.90717 0
M  V30 26058 C 4145.7 6.4116 2.90739 0
M  V30 26059 C 4146.41 5.55375 1.86963 0
M  V30 26060 N 4146.36 4.09664 2.15742 0
M  V30 26061 H 4149.19 7.45574 4.45629 0
M  V30 26062 H 4149.47 5.86232 3.67314 0
M  V30 26063 H 4148.6 7.84412 2.24479 0
M  V30 26064 P 4144.64 8.7635 1.60911 0
M  V30 26065 O 4144.42 10.1388 1.11561 0
M  V30 26066 O 4143.85 8.36503 2.79617 0
M  V30 26067 O 4144.39 7.71806 0.42951 0
M  V30 26068 C 4145.33 7.67148 -0.673689 0
M  V30 26069 C 4144.6 7.33374 -1.95559 0
M  V30 26070 O 4144.39 5.88721 -2.00726 0
M  V30 26071 C 4143.2 7.92526 -2.10483 0
M  V30 26072 O 4142.81 8.02971 -3.47653 0
M  V30 26073 C 4142.32 6.89602 -1.41652 0
M  V30 26074 C 4143.03 5.59201 -1.75185 0
M  V30 26075 N 4142.98 4.58235 -0.662552 0
M  V30 26076 H 4145.81 8.65116 -0.777161 0
M  V30 26077 H 4146.09 6.90173 -0.474152 0
M  V30 26078 H 4145.22 7.66548 -2.79458 0
M  V30 26079 P 4141.26 8.03563 -3.84925 0
M  V30 26080 O 4141.04 8.85821 -5.0569 0
M  V30 26081 O 4140.47 8.41101 -2.65469 0
M  V30 26082 O 4141.01 6.4965 -4.18908 0
M  V30 26083 C 4141.95 5.80886 -5.05289 0
M  V30 26084 C 4141.22 4.78366 -5.89277 0
M  V30 26085 O 4141.01 3.58302 -5.08433 0
M  V30 26086 C 4139.82 5.16748 -6.36559 0
M  V30 26087 O 4139.43 4.45271 -7.53232 0
M  V30 26088 C 4138.94 4.74572 -5.19863 0
M  V30 26089 C 4139.65 3.49373 -4.70338 0
M  V30 26090 N 4139.6 3.31704 -3.22876 0
M  V30 26091 C 4139.45 2.03326 -2.74871 0
M  V30 26092 O 4139.36 1.06486 -3.48076 0
M  V30 26093 N 4139.41 1.91838 -1.37456 0
M  V30 26094 C 4139.5 2.94295 -0.462035 0
M  V30 26095 O 4139.45 2.71763 0.752928 0
M  V30 26096 C 4139.65 4.25064 -1.05249 0
M  V30 26097 C 4139.76 5.39815 -0.095697 0
M  V30 26098 C 4139.7 4.40214 -2.39192 0
M  V30 26099 H 4142.44 6.54063 -5.71245 0
M  V30 26100 H 4142.71 5.30339 -4.43905 0
M  V30 26101 H 4141.84 4.55889 -6.76652 0
M  V30 26102 H 4139.18 2.6167 -5.17842 0
M  V30 26103 H 4138.9 5.52155 -4.41878 0
M  V30 26104 H 4137.91 4.51918 -5.53297 0
M  V30 26105 H 4139.75 6.25055 -6.55162 0
M  V30 26106 H 4139.82 5.39798 -2.81523 0
M  V30 26107 H 4138.79 5.91593 -0.0279582 0
M  V30 26108 H 4140.52 6.10038 -0.450573 0
M  V30 26109 H 4140.04 5.02007 0.89937 0
M  V30 26110 H 4139.3 0.995326 -1.00435 0
M  V30 26111 P 4137.88 4.23843 -7.83734 0
M  V30 26112 O 4137.66 4.19407 -9.29784 0
M  V30 26113 O 4137.09 5.24426 -7.09156 0
M  V30 26114 O 4137.63 2.7935 -7.20758 0
M  V30 26115 C 4138.57 1.7299 -7.50419 0
M  V30 26116 C 4137.84 0.406376 -7.57911 0
M  V30 26117 O 4137.63 -0.0897726 -6.21935 0
M  V30 26118 C 4136.44 0.447224 -8.1878 0
M  V30 26119 O 4136.05 -0.825065 -8.71101 0
M  V30 26120 C 4135.56 0.783801 -6.99623 0
M  V30 26121 C 4136.27 0.0619192 -5.85967 0
M  V30 26122 N 4136.22 0.790462 -4.56202 0
M  V30 26123 C 4136.3 2.13895 -4.34171 0
M  V30 26124 N 4136.23 2.46449 -3.08687 0
M  V30 26125 C 4136.08 1.2525 -2.43697 0
M  V30 26126 C 4135.95 0.914535 -1.07318 0
M  V30 26127 N 4135.94 1.80782 -0.0887348 0
M  V30 26128 N 4135.83 -0.386745 -0.768133 0
M  V30 26129 C 4135.84 -1.28096 -1.75159 0
M  V30 26130 N 4135.96 -1.09708 -3.04861 0
M  V30 26131 C 4136.08 0.214857 -3.32306 0
M  V30 26132 H 4139.05 1.93423 -8.4679 0
M  V30 26133 H 4139.33 1.68852 -6.70877 0
M  V30 26134 H 4138.46 -0.289041 -8.15388 0
M  V30 26135 H 4135.8 -0.927006 -5.72848 0
M  V30 26136 H 4135.52 1.86973 -6.82036 0
M  V30 26137 H 4134.53 0.403953 -7.13357 0
M  V30 26138 H 4136.37 1.20599 -8.97534 0
M  V30 26139 H 4136.41 2.86846 -5.14318 0
M  V30 26140 H 4136.03 2.81082 -0.302037 0
M  V30 26141 H 4135.84 1.49688 0.889064 0
M  V30 26142 H 4135.73 -2.31317 -1.43855 0
M  V30 26143 P 4134.5 -1.17771 -8.83182 0
M  V30 26144 O 4134.28 -2.07206 -9.98732 0
M  V30 26145 O 4133.71 0.0743816 -8.81969 0
M  V30 26146 O 4134.25 -1.97652 -7.47304 0
M  V30 26147 C 4135.19 -3.01055 -7.08599 0
M  V30 26148 C 4134.46 -4.12613 -6.37049 0
M  V30 26149 O 4134.25 -3.72827 -4.97879 0
M  V30 26150 C 4133.06 -4.45719 -6.88164 0
M  V30 26151 O 4132.67 -5.7877 -6.5624 0
M  V30 26152 C 4132.18 -3.47768 -6.11991 0
M  V30 26153 C 4132.89 -3.39356 -4.77615 0
M  V30 26154 N 4132.84 -2.04571 -4.15244 0
M  V30 26155 C 4132.69 -1.98587 -2.78314 0
M  V30 26156 O 4132.6 -2.98134 -2.08835 0
M  V30 26157 N 4132.65 -0.714467 -2.24925 0
M  V30 26158 C 4132.74 0.470001 -2.94169 0
M  V30 26159 O 4132.69 1.55587 -2.35195 0
M  V30 26160 C 4132.89 0.312541 -4.36783 0
M  V30 26161 C 4133 1.57711 -5.16352 0
M  V30 26162 C 4132.94 -0.914512 -4.92583 0
M  V30 26163 H 4135.68 -3.41169 -7.98575 0
M  V30 26164 H 4135.95 -2.58295 -6.41556 0
M  V30 26165 H 4135.08 -5.02657 -6.42673 0
M  V30 26166 H 4132.42 -4.11637 -4.08885 0
M  V30 26167 H 4132.14 -2.49626 -6.61679 0
M  V30 26168 H 4131.15 -3.86566 -6.00778 0
M  V30 26169 H 4132.99 -4.29943 -7.96918 0
M  V30 26170 H 4133.06 -1.00937 -6.00374 0
M  V30 26171 H 4132.03 1.80153 -5.63503 0
M  V30 26172 H 4133.76 1.4566 -5.94104 0
M  V30 26173 H 4133.28 2.40664 -4.49645 0
M  V30 26174 H 4132.54 -0.647622 -1.25697 0
M  V30 26175 P 4131.12 -6.144 -6.45285 0
M  V30 26176 O 4130.9 -7.54673 -6.86199 0
M  V30 26177 O 4130.33 -5.12391 -7.179 0
M  V30 26178 O 4130.87 -5.99236 -4.88467 0
M  V30 26179 C 4131.81 -6.60234 -3.96415 0
M  V30 26180 C 4131.08 -7.08079 -2.736 0
M  V30 26181 O 4130.87 -5.94365 -1.8368 0
M  V30 26182 C 4129.68 -7.64886 -2.9555 0
M  V30 26183 O 4129.29 -8.5406 -1.90739 0
M  V30 26184 C 4128.8 -6.4116 -2.90739 0
M  V30 26185 C 4129.51 -5.55375 -1.86963 0
M  V30 26186 N 4129.46 -4.09664 -2.15742 0
M  V30 26187 C 4129.31 -3.22231 -1.08477 0
M  V30 26188 O 4129.22 -3.68951 0.0600489 0
M  V30 26189 N 4129.26 -1.76692 -1.48799 0
M  V30 26190 C 4129.36 -1.41695 -2.57602 0
M  V30 26191 N 4129.31 -0.107296 -2.75791 0
M  V30 26192 C 4129.51 -2.29178 -3.69733 0
M  V30 26193 C 4129.56 -3.62753 -3.42653 0
M  V30 26194 H 4132.3 -7.45488 -4.45578 0
M  V30 26195 H 4132.57 -5.86232 -3.67314 0
M  V30 26196 H 4131.7 -7.84508 -2.24507 0
M  V30 26197 H 4129.04 -5.73556 -0.888715 0
M  V30 26198 H 4128.76 -5.9096 -3.88638 0
M  V30 26199 H 4127.77 -6.66053 -2.58894 0
M  V30 26200 H 4129.61 -8.16339 -3.92049 0
M  V30 26201 H 4129.68 -4.33052 -4.24913 0
M  V30 26202 H 4129.58 -1.9103 -4.71577 0
M  V30 26203 H 4129.19 0.521221 -1.95056 0
M  V30 26204 H 4129.38 0.286429 -3.70695 0
M  V30 26205 P 4127.74 -8.7635 -1.60911 0
M  V30 26206 O 4127.52 -10.1388 -1.11561 0
M  V30 26207 O 4126.95 -8.36503 -2.79617 0
M  V30 26208 O 4127.49 -7.71806 -0.42951 0
M  V30 26209 C 4128.43 -7.66948 0.673514 0
M  V30 26210 C 4127.7 -7.33374 1.95559 0
M  V30 26211 O 4127.49 -5.88721 2.00726 0
M  V30 26212 C 4126.3 -7.92218 2.1125 0
M  V30 26213 O 4125.91 -8.02971 3.47653 0
M  V30 26214 C 4125.42 -6.89504 1.41631 0
M  V30 26215 C 4126.13 -5.59106 1.75155 0
M  V30 26216 N 4126.08 -4.58136 0.662409 0
M  V30 26217 C 4125.93 -3.26059 1.02863 0
M  V30 26218 O 4125.84 -2.90743 2.19009 0
M  V30 26219 N 4125.89 -2.35995 -0.0155585 0
M  V30 26220 C 4125.98 -2.65248 -1.35603 0
M  V30 26221 O 4125.93 -1.75605 -2.20651 0
M  V30 26222 C 4126.13 -4.05747 -1.64698 0
M  V30 26223 C 4126.24 -4.42345 -3.09553 0
M  V30 26224 C 4126.18 -4.96734 -0.652411 0
M  V30 26225 H 4128.92 -8.64917 0.776982 0
M  V30 26226 H 4129.19 -6.89974 0.474015 0
M  V30 26227 H 4128.32 -7.66548 2.79458 0
M  V30 26228 H 4125.66 -5.16076 2.65138 0
M  V30 26229 H 4125.38 -7.06433 0.329384 0
M  V30 26230 H 4124.39 -6.90829 1.81996 0
M  V30 26231 H 4126.23 -8.90774 1.62639 0
M  V30 26232 H 4126.3 -6.02181 -0.895285 0
M  V30 26233 H 4125.27 -4.80252 -3.45468 0
M  V30 26234 H 4127 -5.20015 -3.22119 0
M  V30 26235 H 4126.52 -3.53269 -3.67833 0
M  V30 26236 H 4125.78 -1.39558 0.227499 0
M  V30 26237 P 4124.36 -8.03563 3.84925 0
M  V30 26238 O 4124.14 -8.85821 5.0569 0
M  V30 26239 O 4123.57 -8.41101 2.65469 0
M  V30 26240 O 4124.11 -6.49734 4.18962 0
M  V30 26241 C 4125.05 -5.81037 5.05421 0
M  V30 26242 C 4124.32 -4.79018 5.88876 0
M  V30 26243 O 4124.11 -3.58359 5.08515 0
M  V30 26244 C 4122.92 -5.17448 6.36119 0
M  V30 26245 O 4122.53 -4.45322 7.53318 0
M  V30 26246 C 4122.04 -4.74639 5.19936 0
M  V30 26247 C 4122.75 -3.49432 4.70418 0
M  V30 26248 N 4122.7 -3.31776 3.22945 0
M  V30 26249 C 4122.55 -2.02742 2.72939 0
M  V30 26250 O 4122.46 -1.08301 3.52749 0
M  V30 26251 N 4122.5 -1.96117 1.22063 0
M  V30 26252 C 4122.6 -2.8878 0.551566 0
M  V30 26253 N 4122.55 -2.65609 -0.750198 0
M  V30 26254 C 4122.75 -4.22457 1.03707 0
M  V30 26255 C 4122.8 -4.37979 2.39113 0
M  V30 26256 H 4125.54 -6.54138 5.7131 0
M  V30 26257 H 4125.81 -5.30492 4.44033 0
M  V30 26258 H 4124.94 -4.55945 6.76735 0
M  V30 26259 H 4122.28 -2.6176 5.18021 0
M  V30 26260 H 4122 -5.52233 4.41941 0
M  V30 26261 H 4121.01 -4.52045 5.53452 0
M  V30 26262 H 4122.85 -6.25124 6.55234 0
M  V30 26263 H 4122.92 -5.37936 2.80552 0
M  V30 26264 H 4122.82 -5.07528 0.359553 0
M  V30 26265 H 4122.43 -1.69403 -1.09847 0
M  V30 26266 H 4122.62 -3.43701 -1.41792 0
M  V30 26267 P 4120.98 -4.23843 7.83734 0
M  V30 26268 O 4120.76 -4.19407 9.29784 0
M  V30 26269 O 4120.19 -5.24426 7.09156 0
M  V30 26270 O 4120.73 -2.7935 7.20758 0
M  V30 26271 C 4121.67 -1.72945 7.50224 0
M  V30 26272 C 4120.94 -0.406376 7.57911 0
M  V30 26273 O 4120.73 0.0897726 6.21935 0
M  V30 26274 C 4119.54 -0.438983 8.18724 0
M  V30 26275 O 4119.15 0.825065 8.71101 0
M  V30 26276 C 4118.66 -0.783689 6.99524 0
M  V30 26277 C 4119.37 -0.0619086 5.85867 0
M  V30 26278 N 4119.32 -0.78573 4.56183 0
M  V30 26279 C 4119.17 -0.0292889 3.41887 0
M  V30 26280 O 4119.08 1.18445 3.4419 0
M  V30 26281 N 4119.13 -0.744061 2.23964 0
M  V30 26282 C 4119.22 -2.10932 2.10362 0
M  V30 26283 O 4119.17 -2.64117 0.98825 0
M  V30 26284 C 4119.37 -2.8202 3.34994 0
M  V30 26285 C 4119.48 -4.31095 3.25037 0
M  V30 26286 C 4119.42 -2.15547 4.52261 0
M  V30 26287 H 4122.16 -1.93379 8.46595 0
M  V30 26288 H 4122.43 -1.68132 6.70852 0
M  V30 26289 H 4121.56 0.289041 8.15388 0
M  V30 26290 H 4118.9 0.926847 5.72749 0
M  V30 26291 H 4118.62 -1.86973 6.82036 0
M  V30 26292 H 4117.63 -0.403896 7.13257 0
M  V30 26293 H 4119.47 -1.20585 8.97435 0
M  V30 26294 H 4119.54 -2.71231 5.45042 0
M  V30 26295 H 4118.51 -4.76966 3.49992 0
M  V30 26296 H 4120.24 -4.67047 3.95024 0
M  V30 26297 H 4119.76 -4.58996 2.22312 0
M  V30 26298 H 4119.02 -0.214893 1.39758 0
M  V30 26299 P 4117.6 1.17771 8.83182 0
M  V30 26300 O 4117.38 2.07206 9.98732 0
M  V30 26301 O 4116.81 -0.0743816 8.81969 0
M  V30 26302 O 4117.35 1.97652 7.47304 0
M  V30 26303 C 4118.29 3.01133 7.08783 0
M  V30 26304 C 4117.56 4.12613 6.37049 0
M  V30 26305 O 4117.35 3.72827 4.97879 0
M  V30 26306 C 4116.16 4.45085 6.88694 0
M  V30 26307 O 4115.77 5.7877 6.5624 0
M  V30 26308 C 4115.28 3.47817 6.12078 0
M  V30 26309 C 4115.99 3.39414 4.77697 0
M  V30 26310 N 4115.94 2.04615 4.15333 0
M  V30 26311 H 4118.77 3.41248 7.98759 0
M  V30 26312 H 4119.05 2.5837 6.41742 0
M  V30 26313 H 4118.18 5.02657 6.42673 0
M  V30 26314 P 4114.22 6.144 6.45285 0
M  V30 26315 O 4114 7.54673 6.86199 0
M  V30 26316 O 4113.43 5.12391 7.179 0
M  V30 26317 O 4113.97 5.99236 4.88467 0
M  V30 26318 C 4114.91 6.60234 3.96415 0
M  V30 26319 C 4114.18 7.08079 2.736 0
M  V30 26320 O 4113.97 5.94365 1.8368 0
M  V30 26321 C 4112.78 7.64886 2.9555 0
M  V30 26322 O 4112.39 8.5406 1.90739 0
M  V30 26323 C 4111.9 6.4116 2.90739 0
M  V30 26324 C 4112.61 5.55375 1.86963 0
M  V30 26325 N 4112.56 4.09664 2.15742 0
M  V30 26326 C 4112.41 3.22231 1.08477 0
M  V30 26327 O 4112.32 3.68951 -0.0600489 0
M  V30 26328 N 4112.36 1.76692 1.48799 0
M  V30 26329 C 4112.46 1.41695 2.57602 0
M  V30 26330 N 4112.41 0.107296 2.75791 0
M  V30 26331 C 4112.61 2.29178 3.69733 0
M  V30 26332 C 4112.66 3.62753 3.42653 0
M  V30 26333 H 4115.4 7.45488 4.45578 0
M  V30 26334 H 4115.67 5.86232 3.67314 0
M  V30 26335 H 4114.8 7.84508 2.24507 0
M  V30 26336 H 4112.14 5.73556 0.888715 0
M  V30 26337 H 4111.86 5.9096 3.88638 0
M  V30 26338 H 4110.87 6.66053 2.58894 0
M  V30 26339 H 4112.71 8.16339 3.92049 0
M  V30 26340 H 4112.78 4.33052 4.24913 0
M  V30 26341 H 4112.68 1.9103 4.71577 0
M  V30 26342 H 4112.29 -0.521221 1.95056 0
M  V30 26343 H 4112.48 -0.286429 3.70695 0
M  V30 26344 P 4110.84 8.7635 1.60911 0
M  V30 26345 O 4110.62 10.1388 1.11561 0
M  V30 26346 O 4110.05 8.36503 2.79617 0
M  V30 26347 O 4110.59 7.71806 0.42951 0
M  V30 26348 C 4111.53 7.67148 -0.673689 0
M  V30 26349 C 4110.8 7.33374 -1.95559 0
M  V30 26350 O 4110.59 5.88721 -2.00726 0
M  V30 26351 C 4109.4 7.92526 -2.10483 0
M  V30 26352 O 4109.01 8.02971 -3.47653 0
M  V30 26353 C 4108.52 6.89602 -1.41652 0
M  V30 26354 C 4109.23 5.59201 -1.75185 0
M  V30 26355 N 4109.18 4.58235 -0.662552 0
M  V30 26356 H 4112.01 8.65116 -0.777161 0
M  V30 26357 H 4112.29 6.90173 -0.474152 0
M  V30 26358 H 4111.42 7.66548 -2.79458 0
M  V30 26359 P 4107.46 8.03563 -3.84925 0
M  V30 26360 O 4107.24 8.85821 -5.0569 0
M  V30 26361 O 4106.67 8.41101 -2.65469 0
M  V30 26362 O 4107.21 6.49734 -4.18962 0
M  V30 26363 C 4108.15 5.81037 -5.05421 0
M  V30 26364 C 4107.42 4.79018 -5.88876 0
M  V30 26365 O 4107.21 3.58359 -5.08515 0
M  V30 26366 C 4106.02 5.17448 -6.36119 0
M  V30 26367 O 4105.63 4.45322 -7.53318 0
M  V30 26368 C 4105.14 4.74639 -5.19936 0
M  V30 26369 C 4105.85 3.49432 -4.70418 0
M  V30 26370 N 4105.8 3.31776 -3.22945 0
M  V30 26371 C 4105.65 2.02742 -2.72939 0
M  V30 26372 O 4105.56 1.08301 -3.52749 0
M  V30 26373 N 4105.6 1.96117 -1.22063 0
M  V30 26374 C 4105.7 2.8878 -0.551566 0
M  V30 26375 N 4105.65 2.65609 0.750198 0
M  V30 26376 C 4105.85 4.22457 -1.03707 0
M  V30 26377 C 4105.9 4.37979 -2.39113 0
M  V30 26378 H 4108.64 6.54138 -5.7131 0
M  V30 26379 H 4108.91 5.30492 -4.44033 0
M  V30 26380 H 4108.04 4.55945 -6.76735 0
M  V30 26381 H 4105.38 2.6176 -5.18021 0
M  V30 26382 H 4105.1 5.52233 -4.41941 0
M  V30 26383 H 4104.11 4.52045 -5.53452 0
M  V30 26384 H 4105.95 6.25124 -6.55234 0
M  V30 26385 H 4106.02 5.37936 -2.80552 0
M  V30 26386 H 4105.92 5.07528 -0.359553 0
M  V30 26387 H 4105.53 1.69403 1.09847 0
M  V30 26388 H 4105.72 3.43701 1.41792 0
M  V30 26389 P 4104.08 4.23843 -7.83734 0
M  V30 26390 O 4103.86 4.19407 -9.29784 0
M  V30 26391 O 4103.29 5.24426 -7.09156 0
M  V30 26392 O 4103.83 2.7935 -7.20758 0
M  V30 26393 C 4104.77 1.72945 -7.50224 0
M  V30 26394 C 4104.04 0.406376 -7.57911 0
M  V30 26395 O 4103.83 -0.0897726 -6.21935 0
M  V30 26396 C 4102.64 0.438983 -8.18724 0
M  V30 26397 O 4102.25 -0.825065 -8.71101 0
M  V30 26398 C 4101.76 0.783689 -6.99524 0
M  V30 26399 C 4102.47 0.0619086 -5.85867 0
M  V30 26400 N 4102.42 0.78573 -4.56183 0
M  V30 26401 C 4102.27 0.0292889 -3.41887 0
M  V30 26402 O 4102.18 -1.18445 -3.4419 0
M  V30 26403 N 4102.23 0.744061 -2.23964 0
M  V30 26404 C 4102.32 2.10932 -2.10362 0
M  V30 26405 O 4102.27 2.64117 -0.98825 0
M  V30 26406 C 4102.47 2.8202 -3.34994 0
M  V30 26407 C 4102.58 4.31095 -3.25037 0
M  V30 26408 C 4102.52 2.15547 -4.52261 0
M  V30 26409 H 4105.26 1.93379 -8.46595 0
M  V30 26410 H 4105.53 1.68132 -6.70852 0
M  V30 26411 H 4104.66 -0.289041 -8.15388 0
M  V30 26412 H 4102 -0.926847 -5.72749 0
M  V30 26413 H 4101.72 1.86973 -6.82036 0
M  V30 26414 H 4100.73 0.403896 -7.13257 0
M  V30 26415 H 4102.57 1.20585 -8.97435 0
M  V30 26416 H 4102.64 2.71231 -5.45042 0
M  V30 26417 H 4101.61 4.76966 -3.49992 0
M  V30 26418 H 4103.34 4.67047 -3.95024 0
M  V30 26419 H 4102.86 4.58996 -2.22312 0
M  V30 26420 H 4102.12 0.214893 -1.39758 0
M  V30 26421 P 4100.7 -1.17771 -8.83182 0
M  V30 26422 O 4100.48 -2.07206 -9.98732 0
M  V30 26423 O 4099.91 0.0743816 -8.81969 0
M  V30 26424 O 4100.45 -1.97652 -7.47304 0
M  V30 26425 C 4101.39 -3.01055 -7.08599 0
M  V30 26426 C 4100.66 -4.12613 -6.37049 0
M  V30 26427 O 4100.45 -3.72827 -4.97879 0
M  V30 26428 C 4099.26 -4.45719 -6.88164 0
M  V30 26429 O 4098.87 -5.7877 -6.5624 0
M  V30 26430 C 4098.38 -3.47768 -6.11991 0
M  V30 26431 C 4099.09 -3.39356 -4.77615 0
M  V30 26432 N 4099.04 -2.04571 -4.15244 0
M  V30 26433 C 4098.89 -1.98587 -2.78314 0
M  V30 26434 O 4098.8 -2.98134 -2.08835 0
M  V30 26435 N 4098.85 -0.714467 -2.24925 0
M  V30 26436 C 4098.94 0.470001 -2.94169 0
M  V30 26437 O 4098.89 1.55587 -2.35195 0
M  V30 26438 C 4099.09 0.312541 -4.36783 0
M  V30 26439 C 4099.2 1.57711 -5.16352 0
M  V30 26440 C 4099.14 -0.914512 -4.92583 0
M  V30 26441 H 4101.88 -3.41169 -7.98575 0
M  V30 26442 H 4102.15 -2.58295 -6.41556 0
M  V30 26443 H 4101.28 -5.02657 -6.42673 0
M  V30 26444 H 4098.62 -4.11637 -4.08885 0
M  V30 26445 H 4098.34 -2.49626 -6.61679 0
M  V30 26446 H 4097.35 -3.86566 -6.00778 0
M  V30 26447 H 4099.19 -4.29943 -7.96918 0
M  V30 26448 H 4099.26 -1.00937 -6.00374 0
M  V30 26449 H 4098.23 1.80153 -5.63503 0
M  V30 26450 H 4099.96 1.4566 -5.94104 0
M  V30 26451 H 4099.48 2.40664 -4.49645 0
M  V30 26452 H 4098.74 -0.647622 -1.25697 0
M  V30 26453 P 4097.32 -6.144 -6.45285 0
M  V30 26454 O 4097.1 -7.54673 -6.86199 0
M  V30 26455 O 4096.53 -5.12391 -7.179 0
M  V30 26456 O 4097.07 -5.99158 -4.88404 0
M  V30 26457 C 4098.01 -6.60062 -3.96313 0
M  V30 26458 C 4097.28 -7.08259 -2.72856 0
M  V30 26459 O 4097.07 -5.9427 -1.83651 0
M  V30 26460 C 4095.88 -7.65087 -2.94749 0
M  V30 26461 O 4095.49 -8.53963 -1.90717 0
M  V30 26462 C 4095 -6.41069 -2.90698 0
M  V30 26463 C 4095.71 -5.5528 -1.86931 0
M  V30 26464 N 4095.66 -4.09575 -2.15696 0
M  V30 26465 C 4095.51 -3.24249 -1.08435 0
M  V30 26466 O 4095.42 -3.63946 0.0628747 0
M  V30 26467 N 4095.47 -1.90009 -1.39973 0
M  V30 26468 C 4095.56 -1.34884 -2.65614 0
M  V30 26469 C 4095.71 -2.3145 -3.71736 0
M  V30 26470 C 4095.76 -3.63518 -3.44754 0
M  V30 26471 H 4098.5 -7.45402 -4.45526 0
M  V30 26472 H 4098.77 -5.86062 -3.67208 0
M  V30 26473 H 4097.9 -7.84412 -2.24479 0
M  V30 26474 H 4095.24 -5.73358 -0.888409 0
M  V30 26475 H 4094.96 -5.90877 -3.88583 0
M  V30 26476 H 4093.97 -6.65867 -2.58821 0
M  V30 26477 H 4095.81 -8.16248 -3.92006 0
M  V30 26478 H 4095.88 -4.34551 -4.26383 0
M  V30 26479 P 4093.94 -8.7635 -1.60911 0
M  V30 26480 O 4093.72 -10.1388 -1.11561 0
M  V30 26481 O 4093.15 -8.36503 -2.79617 0
M  V30 26482 O 4093.69 -7.71806 -0.42951 0
M  V30 26483 C 4094.63 -7.67148 0.673689 0
M  V30 26484 C 4093.9 -7.33374 1.95559 0
M  V30 26485 O 4093.69 -5.88721 2.00726 0
M  V30 26486 C 4092.5 -7.92526 2.10483 0
M  V30 26487 O 4092.11 -8.02971 3.47653 0
M  V30 26488 C 4091.62 -6.89602 1.41652 0
M  V30 26489 C 4092.33 -5.59201 1.75185 0
M  V30 26490 N 4092.28 -4.58235 0.662552 0
M  V30 26491 H 4095.11 -8.65116 0.777161 0
M  V30 26492 H 4095.39 -6.90173 0.474152 0
M  V30 26493 H 4094.52 -7.66548 2.79458 0
M  V30 26494 P 4090.56 -8.03563 3.84925 0
M  V30 26495 O 4090.34 -8.85821 5.0569 0
M  V30 26496 O 4089.77 -8.41101 2.65469 0
M  V30 26497 O 4090.31 -6.4965 4.18908 0
M  V30 26498 C 4091.25 -5.80886 5.05289 0
M  V30 26499 C 4090.52 -4.78366 5.89277 0
M  V30 26500 O 4090.31 -3.58302 5.08433 0
M  V30 26501 C 4089.12 -5.16748 6.36559 0
M  V30 26502 O 4088.73 -4.45271 7.53232 0
M  V30 26503 C 4088.24 -4.74572 5.19863 0
M  V30 26504 C 4088.95 -3.49373 4.70338 0
M  V30 26505 N 4088.9 -3.31704 3.22876 0
M  V30 26506 C 4088.75 -2.03326 2.74871 0
M  V30 26507 O 4088.66 -1.06486 3.48076 0
M  V30 26508 N 4088.71 -1.91838 1.37456 0
M  V30 26509 C 4088.8 -2.94295 0.462035 0
M  V30 26510 C 4088.95 -4.25064 1.05249 0
M  V30 26511 C 4089 -4.40214 2.39192 0
M  V30 26512 H 4091.74 -6.54063 5.71245 0
M  V30 26513 H 4092.01 -5.30339 4.43905 0
M  V30 26514 H 4091.14 -4.55889 6.76652 0
M  V30 26515 H 4088.48 -2.6167 5.17842 0
M  V30 26516 H 4088.2 -5.52155 4.41878 0
M  V30 26517 H 4087.21 -4.51918 5.53297 0
M  V30 26518 H 4089.05 -6.25055 6.55162 0
M  V30 26519 H 4089.12 -5.39798 2.81523 0
M  V30 26520 P 4087.18 -4.23843 7.83734 0
M  V30 26521 O 4086.96 -4.19407 9.29784 0
M  V30 26522 O 4086.39 -5.24426 7.09156 0
M  V30 26523 O 4086.93 -2.7935 7.20758 0
M  V30 26524 C 4087.87 -1.72945 7.50224 0
M  V30 26525 C 4087.14 -0.406376 7.57911 0
M  V30 26526 O 4086.93 0.0897726 6.21935 0
M  V30 26527 C 4085.74 -0.438983 8.18724 0
M  V30 26528 O 4085.35 0.825065 8.71101 0
M  V30 26529 C 4084.86 -0.783689 6.99524 0
M  V30 26530 C 4085.57 -0.0619086 5.85867 0
M  V30 26531 N 4085.52 -0.78573 4.56183 0
M  V30 26532 C 4085.37 -0.0292889 3.41887 0
M  V30 26533 O 4085.28 1.18445 3.4419 0
M  V30 26534 N 4085.33 -0.744061 2.23964 0
M  V30 26535 C 4085.42 -2.10932 2.10362 0
M  V30 26536 O 4085.37 -2.64117 0.98825 0
M  V30 26537 C 4085.57 -2.8202 3.34994 0
M  V30 26538 C 4085.68 -4.31095 3.25037 0
M  V30 26539 C 4085.62 -2.15547 4.52261 0
M  V30 26540 H 4088.36 -1.93379 8.46595 0
M  V30 26541 H 4088.63 -1.68132 6.70852 0
M  V30 26542 H 4087.76 0.289041 8.15388 0
M  V30 26543 H 4085.1 0.926847 5.72749 0
M  V30 26544 H 4084.82 -1.86973 6.82036 0
M  V30 26545 H 4083.83 -0.403896 7.13257 0
M  V30 26546 H 4085.67 -1.20585 8.97435 0
M  V30 26547 H 4085.74 -2.71231 5.45042 0
M  V30 26548 H 4084.71 -4.76966 3.49992 0
M  V30 26549 H 4086.44 -4.67047 3.95024 0
M  V30 26550 H 4085.96 -4.58996 2.22312 0
M  V30 26551 H 4085.22 -0.214893 1.39758 0
M  V30 26552 P 4083.8 1.17771 8.83182 0
M  V30 26553 O 4083.58 2.07206 9.98732 0
M  V30 26554 O 4083.01 -0.0743816 8.81969 0
M  V30 26555 O 4083.55 1.97652 7.47304 0
M  V30 26556 C 4084.49 3.01055 7.08599 0
M  V30 26557 C 4083.76 4.12613 6.37049 0
M  V30 26558 O 4083.55 3.72827 4.97879 0
M  V30 26559 C 4082.36 4.45719 6.88164 0
M  V30 26560 O 4081.97 5.7877 6.5624 0
M  V30 26561 C 4081.48 3.47768 6.11991 0
M  V30 26562 C 4082.19 3.39356 4.77615 0
M  V30 26563 N 4082.14 2.04571 4.15244 0
M  V30 26564 C 4081.99 1.98587 2.78314 0
M  V30 26565 O 4081.9 2.98134 2.08835 0
M  V30 26566 N 4081.95 0.714467 2.24925 0
M  V30 26567 C 4082.04 -0.470001 2.94169 0
M  V30 26568 O 4081.99 -1.55587 2.35195 0
M  V30 26569 C 4082.19 -0.312541 4.36783 0
M  V30 26570 C 4082.3 -1.57711 5.16352 0
M  V30 26571 C 4082.24 0.914512 4.92583 0
M  V30 26572 H 4084.98 3.41169 7.98575 0
M  V30 26573 H 4085.25 2.58295 6.41556 0
M  V30 26574 H 4084.38 5.02657 6.42673 0
M  V30 26575 H 4081.72 4.11637 4.08885 0
M  V30 26576 H 4081.44 2.49626 6.61679 0
M  V30 26577 H 4080.45 3.86566 6.00778 0
M  V30 26578 H 4082.29 4.29943 7.96918 0
M  V30 26579 H 4082.36 1.00937 6.00374 0
M  V30 26580 H 4081.33 -1.80153 5.63503 0
M  V30 26581 H 4083.06 -1.4566 5.94104 0
M  V30 26582 H 4082.58 -2.40664 4.49645 0
M  V30 26583 H 4081.84 0.647622 1.25697 0
M  V30 26584 P 4080.42 6.144 6.45285 0
M  V30 26585 O 4080.2 7.54673 6.86199 0
M  V30 26586 O 4079.63 5.12391 7.179 0
M  V30 26587 O 4080.17 5.99158 4.88404 0
M  V30 26588 C 4081.11 6.60234 3.96415 0
M  V30 26589 C 4080.38 7.08259 2.72856 0
M  V30 26590 O 4080.17 5.9427 1.83651 0
M  V30 26591 C 4078.98 7.64886 2.9555 0
M  V30 26592 O 4078.59 8.53963 1.90717 0
M  V30 26593 C 4078.1 6.4116 2.90739 0
M  V30 26594 C 4078.81 5.55375 1.86963 0
M  V30 26595 N 4078.76 4.09664 2.15742 0
M  V30 26596 H 4081.59 7.45574 4.45629 0
M  V30 26597 H 4081.87 5.86232 3.67314 0
M  V30 26598 H 4081 7.84412 2.24479 0
M  V30 26599 P 4077.04 8.7635 1.60911 0
M  V30 26600 O 4076.82 10.1388 1.11561 0
M  V30 26601 O 4076.25 8.36503 2.79617 0
M  V30 26602 O 4076.79 7.71806 0.42951 0
M  V30 26603 C 4077.73 7.67148 -0.673689 0
M  V30 26604 C 4077 7.33374 -1.95559 0
M  V30 26605 O 4076.79 5.88721 -2.00726 0
M  V30 26606 C 4075.6 7.92526 -2.10483 0
M  V30 26607 O 4075.21 8.02971 -3.47653 0
M  V30 26608 C 4074.72 6.89602 -1.41652 0
M  V30 26609 C 4075.43 5.59201 -1.75185 0
M  V30 26610 N 4075.38 4.58301 -0.657969 0
M  V30 26611 H 4078.21 8.65116 -0.777161 0
M  V30 26612 H 4078.49 6.9022 -0.46725 0
M  V30 26613 H 4077.62 7.66548 -2.79458 0
M  V30 26614 H 4074.96 5.16165 -2.65183 0
M  V30 26615 H 4074.68 7.06433 -0.329384 0
M  V30 26616 H 4073.69 6.90926 -1.82021 0
M  V30 26617 H 4075.53 8.90873 -1.62657 0
M  V30 26618 P 4073.66 8.03563 -3.84925 0
M  V30 26619 O 4073.44 8.85821 -5.0569 0
M  V30 26620 O 4072.87 8.41101 -2.65469 0
M  V30 26621 O 4073.41 6.4965 -4.18908 0
M  V30 26622 C 4074.35 5.81037 -5.05421 0
M  V30 26623 C 4073.62 4.78366 -5.89277 0
M  V30 26624 O 4073.41 3.58302 -5.08433 0
M  V30 26625 C 4072.22 5.17448 -6.36119 0
M  V30 26626 O 4071.83 4.45271 -7.53232 0
M  V30 26627 C 4071.34 4.74639 -5.19936 0
M  V30 26628 C 4072.05 3.49432 -4.70418 0
M  V30 26629 N 4072 3.32099 -3.22613 0
M  V30 26630 H 4074.83 6.54213 -5.71376 0
M  V30 26631 H 4075.11 5.30936 -4.43503 0
M  V30 26632 H 4074.24 4.55889 -6.76652 0
M  V30 26633 H 4071.58 2.61715 -5.17932 0
M  V30 26634 H 4071.3 5.52155 -4.41878 0
M  V30 26635 H 4070.31 4.51981 -5.53374 0
M  V30 26636 H 4072.15 6.25124 -6.55234 0
M  V30 26637 P 4070.28 4.23843 -7.83734 0
M  V30 26638 O 4070.06 4.19407 -9.29784 0
M  V30 26639 O 4069.49 5.24426 -7.09156 0
M  V30 26640 O 4070.03 2.7935 -7.20758 0
M  V30 26641 C 4070.97 1.7299 -7.50419 0
M  V30 26642 C 4070.24 0.406376 -7.57911 0
M  V30 26643 O 4070.03 -0.0897726 -6.21935 0
M  V30 26644 C 4068.84 0.447224 -8.1878 0
M  V30 26645 O 4068.45 -0.825065 -8.71101 0
M  V30 26646 C 4067.96 0.783801 -6.99623 0
M  V30 26647 C 4068.67 0.0619192 -5.85967 0
M  V30 26648 N 4068.62 0.7859 -4.56281 0
M  V30 26649 H 4071.45 1.93423 -8.4679 0
M  V30 26650 H 4071.73 1.68181 -6.71046 0
M  V30 26651 H 4070.86 -0.289041 -8.15388 0
M  V30 26652 P 4066.9 -1.17771 -8.83182 0
M  V30 26653 O 4066.68 -2.07206 -9.98732 0
M  V30 26654 O 4066.11 0.0743816 -8.81969 0
M  V30 26655 O 4066.65 -1.97652 -7.47304 0
M  V30 26656 C 4067.59 -3.01133 -7.08783 0
M  V30 26657 C 4066.86 -4.12613 -6.37049 0
M  V30 26658 O 4066.65 -3.72827 -4.97879 0
M  V30 26659 C 4065.46 -4.45085 -6.88694 0
M  V30 26660 O 4065.07 -5.7877 -6.5624 0
M  V30 26661 C 4064.58 -3.47817 -6.12078 0
M  V30 26662 C 4065.29 -3.39414 -4.77697 0
M  V30 26663 N 4065.24 -2.04615 -4.15333 0
M  V30 26664 H 4068.07 -3.41248 -7.98759 0
M  V30 26665 H 4068.35 -2.5837 -6.41742 0
M  V30 26666 H 4067.48 -5.02657 -6.42673 0
M  V30 26667 P 4063.52 -6.144 -6.45285 0
M  V30 26668 O 4063.3 -7.54673 -6.86199 0
M  V30 26669 O 4062.73 -5.12391 -7.179 0
M  V30 26670 O 4063.27 -5.99158 -4.88404 0
M  V30 26671 C 4064.21 -6.60234 -3.96415 0
M  V30 26672 C 4063.48 -7.08259 -2.72856 0
M  V30 26673 O 4063.27 -5.9427 -1.83651 0
M  V30 26674 C 4062.08 -7.64886 -2.9555 0
M  V30 26675 O 4061.69 -8.53963 -1.90717 0
M  V30 26676 C 4061.2 -6.4116 -2.90739 0
M  V30 26677 C 4061.91 -5.55375 -1.86963 0
M  V30 26678 N 4061.86 -4.09664 -2.15742 0
M  V30 26679 H 4064.69 -7.45574 -4.45629 0
M  V30 26680 H 4064.97 -5.86232 -3.67314 0
M  V30 26681 H 4064.1 -7.84412 -2.24479 0
M  V30 26682 P 4060.14 -8.7635 -1.60911 0
M  V30 26683 O 4059.92 -10.1388 -1.11561 0
M  V30 26684 O 4059.35 -8.36503 -2.79617 0
M  V30 26685 O 4059.89 -7.71806 -0.42951 0
M  V30 26686 C 4060.83 -7.67148 0.673689 0
M  V30 26687 C 4060.1 -7.33374 1.95559 0
M  V30 26688 O 4059.89 -5.88721 2.00726 0
M  V30 26689 C 4058.7 -7.92526 2.10483 0
M  V30 26690 O 4058.31 -8.02971 3.47653 0
M  V30 26691 C 4057.82 -6.89602 1.41652 0
M  V30 26692 C 4058.53 -5.59201 1.75185 0
M  V30 26693 N 4058.48 -4.58235 0.662552 0
M  V30 26694 H 4061.32 -8.65116 0.777161 0
M  V30 26695 H 4061.59 -6.90173 0.474152 0
M  V30 26696 H 4060.72 -7.66548 2.79458 0
M  V30 26697 P 4056.76 -8.03563 3.84925 0
M  V30 26698 O 4056.54 -8.85821 5.0569 0
M  V30 26699 O 4055.97 -8.41101 2.65469 0
M  V30 26700 O 4056.51 -6.4965 4.18908 0
M  V30 26701 C 4057.45 -5.81037 5.05421 0
M  V30 26702 C 4056.72 -4.78366 5.89277 0
M  V30 26703 O 4056.51 -3.58302 5.08433 0
M  V30 26704 C 4055.32 -5.17448 6.36119 0
M  V30 26705 O 4054.93 -4.45271 7.53232 0
M  V30 26706 C 4054.44 -4.74639 5.19936 0
M  V30 26707 C 4055.15 -3.49432 4.70418 0
M  V30 26708 N 4055.1 -3.32099 3.22613 0
M  V30 26709 C 4055.18 -4.28245 2.25527 0
M  V30 26710 N 4055.11 -3.80823 1.04874 0
M  V30 26711 C 4054.96 -2.44571 1.23535 0
M  V30 26712 C 4054.83 -1.37068 0.330675 0
M  V30 26713 N 4054.82 -1.51472 -0.990824 0
M  V30 26714 N 4054.71 -0.138614 0.848756 0
M  V30 26715 C 4054.72 0.00675923 2.16999 0
M  V30 26716 N 4054.84 -0.904372 3.11122 0
M  V30 26717 C 4054.96 -2.12707 2.56212 0
M  V30 26718 H 4057.94 -6.54213 5.71376 0
M  V30 26719 H 4058.21 -5.30936 4.43503 0
M  V30 26720 H 4057.34 -4.55889 6.76652 0
M  V30 26721 H 4054.68 -2.61715 5.17932 0
M  V30 26722 H 4054.4 -5.52155 4.41878 0
M  V30 26723 H 4053.41 -4.51981 5.53374 0
M  V30 26724 H 4055.25 -6.25124 6.55234 0
M  V30 26725 H 4055.29 -5.34372 2.47488 0
M  V30 26726 H 4054.91 -2.45153 -1.4078 0
M  V30 26727 H 4054.72 -0.688422 -1.59911 0
M  V30 26728 H 4054.61 1.02584 2.52346 0
M  V30 26729 P 4053.38 -4.23843 7.83734 0
M  V30 26730 O 4053.16 -4.19407 9.29784 0
M  V30 26731 O 4052.59 -5.24426 7.09156 0
M  V30 26732 O 4053.13 -2.7935 7.20758 0
M  V30 26733 C 4054.07 -1.7299 7.50419 0
M  V30 26734 C 4053.34 -0.406376 7.57911 0
M  V30 26735 O 4053.13 0.0897726 6.21935 0
M  V30 26736 C 4051.94 -0.447224 8.1878 0
M  V30 26737 O 4051.55 0.825065 8.71101 0
M  V30 26738 C 4051.06 -0.783801 6.99623 0
M  V30 26739 C 4051.77 -0.0619192 5.85967 0
M  V30 26740 N 4051.72 -0.7859 4.56281 0
M  V30 26741 H 4054.56 -1.93423 8.4679 0
M  V30 26742 H 4054.83 -1.68181 6.71046 0
M  V30 26743 H 4053.96 0.289041 8.15388 0
M  V30 26744 P 4050 1.17771 8.83182 0
M  V30 26745 O 4049.78 2.07206 9.98732 0
M  V30 26746 O 4049.21 -0.0743816 8.81969 0
M  V30 26747 O 4049.75 1.97652 7.47304 0
M  V30 26748 C 4050.69 3.01133 7.08783 0
M  V30 26749 C 4049.96 4.12613 6.37049 0
M  V30 26750 O 4049.75 3.72827 4.97879 0
M  V30 26751 C 4048.56 4.45085 6.88694 0
M  V30 26752 O 4048.17 5.7877 6.5624 0
M  V30 26753 C 4047.68 3.47817 6.12078 0
M  V30 26754 C 4048.39 3.39414 4.77697 0
M  V30 26755 N 4048.34 2.04615 4.15333 0
M  V30 26756 H 4051.18 3.41248 7.98759 0
M  V30 26757 H 4051.45 2.5837 6.41742 0
M  V30 26758 H 4050.58 5.02657 6.42673 0
M  V30 26759 P 4046.62 6.144 6.45285 0
M  V30 26760 O 4046.4 7.54673 6.86199 0
M  V30 26761 O 4045.83 5.12391 7.179 0
M  V30 26762 O 4046.37 5.99158 4.88404 0
M  V30 26763 C 4047.31 6.60234 3.96415 0
M  V30 26764 C 4046.58 7.08259 2.72856 0
M  V30 26765 O 4046.37 5.9427 1.83651 0
M  V30 26766 C 4045.18 7.64886 2.9555 0
M  V30 26767 O 4044.79 8.53963 1.90717 0
M  V30 26768 C 4044.3 6.4116 2.90739 0
M  V30 26769 C 4045.01 5.55375 1.86963 0
M  V30 26770 N 4044.96 4.09664 2.15742 0
M  V30 26771 H 4047.8 7.45574 4.45629 0
M  V30 26772 H 4048.07 5.86232 3.67314 0
M  V30 26773 H 4047.2 7.84412 2.24479 0
M  V30 26774 P 4043.24 8.7635 1.60911 0
M  V30 26775 O 4043.02 10.1388 1.11561 0
M  V30 26776 O 4042.45 8.36503 2.79617 0
M  V30 26777 O 4042.99 7.71806 0.42951 0
M  V30 26778 C 4043.93 7.67148 -0.673689 0
M  V30 26779 C 4043.2 7.33374 -1.95559 0
M  V30 26780 O 4042.99 5.88721 -2.00726 0
M  V30 26781 C 4041.8 7.92526 -2.10483 0
M  V30 26782 O 4041.41 8.02971 -3.47653 0
M  V30 26783 C 4040.92 6.89602 -1.41652 0
M  V30 26784 C 4041.63 5.59201 -1.75185 0
M  V30 26785 N 4041.58 4.58235 -0.662552 0
M  V30 26786 H 4044.42 8.65116 -0.777161 0
M  V30 26787 H 4044.69 6.90173 -0.474152 0
M  V30 26788 H 4043.82 7.66548 -2.79458 0
M  V30 26789 P 4039.86 8.03563 -3.84925 0
M  V30 26790 O 4039.64 8.85821 -5.0569 0
M  V30 26791 O 4039.07 8.41101 -2.65469 0
M  V30 26792 O 4039.61 6.4965 -4.18908 0
M  V30 26793 C 4040.55 5.80886 -5.05289 0
M  V30 26794 C 4039.82 4.78366 -5.89277 0
M  V30 26795 O 4039.61 3.58302 -5.08433 0
M  V30 26796 C 4038.42 5.16748 -6.36559 0
M  V30 26797 O 4038.03 4.45271 -7.53232 0
M  V30 26798 C 4037.54 4.74572 -5.19863 0
M  V30 26799 C 4038.25 3.49373 -4.70338 0
M  V30 26800 N 4038.2 3.31704 -3.22876 0
M  V30 26801 C 4038.05 2.03326 -2.74871 0
M  V30 26802 O 4037.96 1.06486 -3.48076 0
M  V30 26803 N 4038.01 1.91838 -1.37456 0
M  V30 26804 C 4038.1 2.94295 -0.462035 0
M  V30 26805 C 4038.25 4.25064 -1.05249 0
M  V30 26806 C 4038.3 4.40214 -2.39192 0
M  V30 26807 H 4041.04 6.54063 -5.71245 0
M  V30 26808 H 4041.31 5.30339 -4.43905 0
M  V30 26809 H 4040.44 4.55889 -6.76652 0
M  V30 26810 H 4037.78 2.6167 -5.17842 0
M  V30 26811 H 4037.51 5.52155 -4.41878 0
M  V30 26812 H 4036.51 4.51918 -5.53297 0
M  V30 26813 H 4038.35 6.25055 -6.55162 0
M  V30 26814 H 4038.42 5.39798 -2.81523 0
M  V30 26815 P 4036.48 4.23843 -7.83734 0
M  V30 26816 O 4036.26 4.19407 -9.29784 0
M  V30 26817 O 4035.69 5.24426 -7.09156 0
M  V30 26818 O 4036.23 2.7935 -7.20758 0
M  V30 26819 C 4037.17 1.7299 -7.50419 0
M  V30 26820 C 4036.44 0.406376 -7.57911 0
M  V30 26821 O 4036.23 -0.0897726 -6.21935 0
M  V30 26822 C 4035.04 0.447224 -8.1878 0
M  V30 26823 O 4034.65 -0.825065 -8.71101 0
M  V30 26824 C 4034.16 0.783801 -6.99623 0
M  V30 26825 C 4034.87 0.0619192 -5.85967 0
M  V30 26826 N 4034.82 0.790462 -4.56202 0
M  V30 26827 H 4037.66 1.93423 -8.4679 0
M  V30 26828 H 4037.93 1.68852 -6.70877 0
M  V30 26829 H 4037.06 -0.289041 -8.15388 0
M  V30 26830 H 4034.4 -0.927006 -5.72848 0
M  V30 26831 H 4034.12 1.86973 -6.82036 0
M  V30 26832 H 4033.13 0.403953 -7.13357 0
M  V30 26833 H 4034.97 1.20599 -8.97534 0
M  V30 26834 P 4033.1 -1.17771 -8.83182 0
M  V30 26835 O 4032.88 -2.07206 -9.98732 0
M  V30 26836 O 4032.31 0.0743816 -8.81969 0
M  V30 26837 O 4032.85 -1.97652 -7.47304 0
M  V30 26838 C 4033.79 -3.01133 -7.08783 0
M  V30 26839 C 4033.06 -4.12613 -6.37049 0
M  V30 26840 O 4032.85 -3.72827 -4.97879 0
M  V30 26841 C 4031.66 -4.45085 -6.88694 0
M  V30 26842 O 4031.27 -5.7877 -6.5624 0
M  V30 26843 C 4030.78 -3.47817 -6.12078 0
M  V30 26844 C 4031.49 -3.39414 -4.77697 0
M  V30 26845 N 4031.44 -2.04615 -4.15333 0
M  V30 26846 H 4034.28 -3.41248 -7.98759 0
M  V30 26847 H 4034.55 -2.5837 -6.41742 0
M  V30 26848 H 4033.68 -5.02657 -6.42673 0
M  V30 26849 P 4029.72 -6.144 -6.45285 0
M  V30 26850 O 4029.5 -7.54673 -6.86199 0
M  V30 26851 O 4028.93 -5.12391 -7.179 0
M  V30 26852 O 4029.47 -5.99158 -4.88404 0
M  V30 26853 C 4030.41 -6.60234 -3.96415 0
M  V30 26854 C 4029.68 -7.08259 -2.72856 0
M  V30 26855 O 4029.47 -5.9427 -1.83651 0
M  V30 26856 C 4028.28 -7.64886 -2.9555 0
M  V30 26857 O 4027.89 -8.53963 -1.90717 0
M  V30 26858 C 4027.4 -6.4116 -2.90739 0
M  V30 26859 C 4028.11 -5.55375 -1.86963 0
M  V30 26860 N 4028.06 -4.09664 -2.15742 0
M  V30 26861 H 4030.9 -7.45574 -4.45629 0
M  V30 26862 H 4031.17 -5.86232 -3.67314 0
M  V30 26863 H 4030.3 -7.84412 -2.24479 0
M  V30 26864 P 4026.34 -8.7635 -1.60911 0
M  V30 26865 O 4026.12 -10.1388 -1.11561 0
M  V30 26866 O 4025.55 -8.36503 -2.79617 0
M  V30 26867 O 4026.09 -7.71806 -0.42951 0
M  V30 26868 C 4027.03 -7.67148 0.673689 0
M  V30 26869 C 4026.3 -7.33374 1.95559 0
M  V30 26870 O 4026.09 -5.88721 2.00726 0
M  V30 26871 C 4024.9 -7.92526 2.10483 0
M  V30 26872 O 4024.51 -8.02971 3.47653 0
M  V30 26873 C 4024.02 -6.89602 1.41652 0
M  V30 26874 C 4024.73 -5.59201 1.75185 0
M  V30 26875 N 4024.68 -4.58301 0.657969 0
M  V30 26876 H 4027.52 -8.65116 0.777161 0
M  V30 26877 H 4027.79 -6.9022 0.46725 0
M  V30 26878 H 4026.92 -7.66548 2.79458 0
M  V30 26879 H 4024.26 -5.16165 2.65183 0
M  V30 26880 H 4023.98 -7.06433 0.329384 0
M  V30 26881 H 4022.99 -6.90926 1.82021 0
M  V30 26882 H 4024.83 -8.90873 1.62657 0
M  V30 26883 P 4022.96 -8.03563 3.84925 0
M  V30 26884 O 4022.74 -8.85821 5.0569 0
M  V30 26885 O 4022.17 -8.41101 2.65469 0
M  V30 26886 O 4022.71 -6.4965 4.18908 0
M  V30 26887 C 4023.65 -5.81037 5.05421 0
M  V30 26888 C 4022.92 -4.78366 5.89277 0
M  V30 26889 O 4022.71 -3.58302 5.08433 0
M  V30 26890 C 4021.52 -5.17448 6.36119 0
M  V30 26891 O 4021.13 -4.45271 7.53232 0
M  V30 26892 C 4020.64 -4.74639 5.19936 0
M  V30 26893 C 4021.35 -3.49432 4.70418 0
M  V30 26894 N 4021.3 -3.31776 3.22945 0
M  V30 26895 H 4024.14 -6.54213 5.71376 0
M  V30 26896 H 4024.41 -5.30492 4.44033 0
M  V30 26897 H 4023.54 -4.55889 6.76652 0
M  V30 26898 P 4019.58 -4.23843 7.83734 0
M  V30 26899 O 4019.36 -4.19407 9.29784 0
M  V30 26900 O 4018.79 -5.24426 7.09156 0
M  V30 26901 O 4019.33 -2.7935 7.20758 0
M  V30 26902 C 4020.27 -1.7299 7.50419 0
M  V30 26903 C 4019.54 -0.406376 7.57911 0
M  V30 26904 O 4019.33 0.0897726 6.21935 0
M  V30 26905 C 4018.14 -0.447224 8.1878 0
M  V30 26906 O 4017.75 0.825065 8.71101 0
M  V30 26907 C 4017.26 -0.783801 6.99623 0
M  V30 26908 C 4017.97 -0.0619192 5.85967 0
M  V30 26909 N 4017.92 -0.790462 4.56202 0
M  V30 26910 C 4018 -2.13895 4.34171 0
M  V30 26911 N 4017.93 -2.46449 3.08687 0
M  V30 26912 C 4017.78 -1.2525 2.43697 0
M  V30 26913 C 4017.65 -0.914535 1.07318 0
M  V30 26914 N 4017.64 -1.80782 0.0887348 0
M  V30 26915 N 4017.53 0.386745 0.768133 0
M  V30 26916 C 4017.54 1.28096 1.75159 0
M  V30 26917 N 4017.66 1.09708 3.04861 0
M  V30 26918 C 4017.78 -0.214857 3.32306 0
M  V30 26919 H 4020.76 -1.93423 8.4679 0
M  V30 26920 H 4021.03 -1.68852 6.70877 0
M  V30 26921 H 4020.16 0.289041 8.15388 0
M  V30 26922 H 4017.5 0.927006 5.72848 0
M  V30 26923 H 4017.22 -1.86973 6.82036 0
M  V30 26924 H 4016.23 -0.403953 7.13357 0
M  V30 26925 H 4018.07 -1.20599 8.97534 0
M  V30 26926 H 4018.11 -2.86846 5.14318 0
M  V30 26927 H 4017.73 -2.81082 0.302037 0
M  V30 26928 H 4017.54 -1.49688 -0.889064 0
M  V30 26929 H 4017.43 2.31317 1.43855 0
M  V30 26930 P 4016.2 1.17771 8.83182 0
M  V30 26931 O 4015.98 2.07206 9.98732 0
M  V30 26932 O 4015.41 -0.0743816 8.81969 0
M  V30 26933 O 4015.95 1.97652 7.47304 0
M  V30 26934 C 4016.89 3.01133 7.08783 0
M  V30 26935 C 4016.16 4.12613 6.37049 0
M  V30 26936 O 4015.95 3.72827 4.97879 0
M  V30 26937 C 4014.76 4.45085 6.88694 0
M  V30 26938 O 4014.37 5.7877 6.5624 0
M  V30 26939 C 4013.88 3.47817 6.12078 0
M  V30 26940 C 4014.59 3.39414 4.77697 0
M  V30 26941 N 4014.54 2.04615 4.15333 0
M  V30 26942 H 4017.38 3.41248 7.98759 0
M  V30 26943 H 4017.65 2.5837 6.41742 0
M  V30 26944 H 4016.78 5.02657 6.42673 0
M  V30 26945 P 4012.82 6.144 6.45285 0
M  V30 26946 O 4012.6 7.54673 6.86199 0
M  V30 26947 O 4012.03 5.12391 7.179 0
M  V30 26948 O 4012.57 5.99158 4.88404 0
M  V30 26949 C 4013.51 6.60234 3.96415 0
M  V30 26950 C 4012.78 7.08259 2.72856 0
M  V30 26951 O 4012.57 5.9427 1.83651 0
M  V30 26952 C 4011.38 7.64886 2.9555 0
M  V30 26953 O 4010.99 8.53963 1.90717 0
M  V30 26954 C 4010.5 6.4116 2.90739 0
M  V30 26955 C 4011.21 5.55375 1.86963 0
M  V30 26956 N 4011.16 4.09448 2.16152 0
M  V30 26957 H 4014 7.45574 4.45629 0
M  V30 26958 H 4014.27 5.85864 3.679 0
M  V30 26959 H 4013.4 7.84412 2.24479 0
M  V30 26960 H 4010.74 5.73457 0.888562 0
M  V30 26961 H 4010.46 5.90877 3.88583 0
M  V30 26962 H 4009.47 6.6596 2.58858 0
M  V30 26963 H 4011.31 8.16339 3.92049 0
M  V30 26964 P 4009.44 8.7635 1.60911 0
M  V30 26965 O 4009.22 10.1388 1.11561 0
M  V30 26966 O 4008.65 8.36503 2.79617 0
M  V30 26967 O 4009.19 7.71806 0.42951 0
M  V30 26968 C 4010.13 7.66948 -0.673514 0
M  V30 26969 C 4009.4 7.33374 -1.95559 0
M  V30 26970 O 4009.19 5.88721 -2.00726 0
M  V30 26971 C 4008 7.92218 -2.1125 0
M  V30 26972 O 4007.61 8.02971 -3.47653 0
M  V30 26973 C 4007.12 6.89504 -1.41631 0
M  V30 26974 C 4007.83 5.59106 -1.75155 0
M  V30 26975 N 4007.78 4.58136 -0.662409 0
M  V30 26976 C 4007.63 3.26059 -1.02863 0
M  V30 26977 O 4007.54 2.90743 -2.19009 0
M  V30 26978 N 4007.59 2.35995 0.0155585 0
M  V30 26979 C 4007.68 2.65248 1.35603 0
M  V30 26980 O 4007.63 1.75605 2.20651 0
M  V30 26981 C 4007.83 4.05747 1.64698 0
M  V30 26982 C 4007.94 4.42345 3.09553 0
M  V30 26983 C 4007.88 4.96734 0.652411 0
M  V30 26984 H 4010.62 8.64917 -0.776982 0
M  V30 26985 H 4010.89 6.89974 -0.474015 0
M  V30 26986 H 4010.02 7.66548 -2.79458 0
M  V30 26987 H 4007.36 5.16076 -2.65138 0
M  V30 26988 H 4007.09 7.06433 -0.329384 0
M  V30 26989 H 4006.09 6.90829 -1.81996 0
M  V30 26990 H 4007.93 8.90774 -1.62639 0
M  V30 26991 H 4008 6.02181 0.895285 0
M  V30 26992 H 4006.97 4.80252 3.45468 0
M  V30 26993 H 4008.71 5.20015 3.22119 0
M  V30 26994 H 4008.22 3.53269 3.67833 0
M  V30 26995 H 4007.48 1.39558 -0.227499 0
M  V30 26996 P 4006.06 8.03563 -3.84925 0
M  V30 26997 O 4005.84 8.85821 -5.0569 0
M  V30 26998 O 4005.27 8.41101 -2.65469 0
M  V30 26999 O 4005.81 6.4965 -4.18908 0
M  V30 27000 C 4006.75 5.81037 -5.05421 0
M  V30 27001 C 4006.02 4.78366 -5.89277 0
M  V30 27002 O 4005.81 3.58302 -5.08433 0
M  V30 27003 C 4004.62 5.17448 -6.36119 0
M  V30 27004 O 4004.23 4.45271 -7.53232 0
M  V30 27005 C 4003.74 4.74639 -5.19936 0
M  V30 27006 C 4004.45 3.49432 -4.70418 0
M  V30 27007 N 4004.4 3.31776 -3.22945 0
M  V30 27008 H 4007.24 6.54213 -5.71376 0
M  V30 27009 H 4007.51 5.30492 -4.44033 0
M  V30 27010 H 4006.64 4.55889 -6.76652 0
M  V30 27011 P 4002.68 4.23843 -7.83734 0
M  V30 27012 O 4002.46 4.19407 -9.29784 0
M  V30 27013 O 4001.89 5.24426 -7.09156 0
M  V30 27014 O 4002.43 2.7935 -7.20758 0
M  V30 27015 C 4003.37 1.7299 -7.50419 0
M  V30 27016 C 4002.64 0.406376 -7.57911 0
M  V30 27017 O 4002.43 -0.0897726 -6.21935 0
M  V30 27018 C 4001.24 0.447224 -8.1878 0
M  V30 27019 O 4000.85 -0.825065 -8.71101 0
M  V30 27020 C 4000.36 0.783801 -6.99623 0
M  V30 27021 C 4001.07 0.0619192 -5.85967 0
M  V30 27022 N 4001.02 0.7859 -4.56281 0
M  V30 27023 H 4003.86 1.93423 -8.4679 0
M  V30 27024 H 4004.13 1.68181 -6.71046 0
M  V30 27025 H 4003.26 -0.289041 -8.15388 0
M  V30 27026 P 3999.3 -1.17771 -8.83182 0
M  V30 27027 O 3999.08 -2.07206 -9.98732 0
M  V30 27028 O 3998.51 0.0743816 -8.81969 0
M  V30 27029 O 3999.05 -1.97678 -7.474 0
M  V30 27030 C 3999.99 -3.01133 -7.08783 0
M  V30 27031 C 3999.26 -4.1203 -6.37546 0
M  V30 27032 O 3999.05 -3.72887 -4.9796 0
M  V30 27033 C 3997.86 -4.45085 -6.88694 0
M  V30 27034 O 3997.47 -5.78836 -6.56315 0
M  V30 27035 C 3996.98 -3.47817 -6.12078 0
M  V30 27036 C 3997.69 -3.39414 -4.77697 0
M  V30 27037 N 3997.64 -2.04615 -4.15333 0
M  V30 27038 C 3997.49 -1.96929 -2.77162 0
M  V30 27039 O 3997.4 -3.02017 -2.12006 0
M  V30 27040 N 3997.44 -0.55485 -2.24237 0
M  V30 27041 C 3997.54 0.367808 -2.9169 0
M  V30 27042 N 3997.49 1.53426 -2.29427 0
M  V30 27043 C 3997.69 0.319148 -4.33828 0
M  V30 27044 C 3997.74 -0.920672 -4.90433 0
M  V30 27045 H 4000.48 -3.41209 -7.98667 0
M  V30 27046 H 4000.75 -2.5837 -6.41742 0
M  V30 27047 H 3999.88 -5.02718 -6.42752 0
M  V30 27048 H 3997.22 -4.11779 -4.09026 0
M  V30 27049 H 3996.94 -2.49661 -6.61772 0
M  V30 27050 H 3995.95 -3.86674 -6.00946 0
M  V30 27051 H 3997.79 -4.29991 -7.97006 0
M  V30 27052 H 3997.86 -1.00589 -5.98303 0
M  V30 27053 H 3997.76 1.22639 -4.93799 0
M  V30 27054 H 3997.37 1.56819 -1.27167 0
M  V30 27055 H 3997.57 2.41062 -2.83063 0
M  V30 27056 P 3995.92 -6.144 -6.45285 0
M  V30 27057 O 3995.7 -7.54673 -6.86199 0
M  V30 27058 O 3995.13 -5.12391 -7.179 0
M  V30 27059 O 3995.67 -5.99158 -4.88404 0
M  V30 27060 C 3996.61 -6.60234 -3.96415 0
M  V30 27061 C 3995.88 -7.08259 -2.72856 0
M  V30 27062 O 3995.67 -5.9427 -1.83651 0
M  V30 27063 C 3994.48 -7.64886 -2.9555 0
M  V30 27064 O 3994.09 -8.53963 -1.90717 0
M  V30 27065 C 3993.6 -6.4116 -2.90739 0
M  V30 27066 C 3994.31 -5.55375 -1.86963 0
M  V30 27067 N 3994.26 -4.09664 -2.15742 0
M  V30 27068 H 3997.1 -7.45574 -4.45629 0
M  V30 27069 H 3997.37 -5.86232 -3.67314 0
M  V30 27070 H 3996.5 -7.84412 -2.24479 0
M  V30 27071 P 3992.54 -8.7635 -1.60911 0
M  V30 27072 O 3992.32 -10.1388 -1.11561 0
M  V30 27073 O 3991.75 -8.36503 -2.79617 0
M  V30 27074 O 3992.29 -7.71806 -0.42951 0
M  V30 27075 C 3993.23 -7.67148 0.673689 0
M  V30 27076 C 3992.5 -7.33374 1.95559 0
M  V30 27077 O 3992.29 -5.88721 2.00726 0
M  V30 27078 C 3991.1 -7.92526 2.10483 0
M  V30 27079 O 3990.71 -8.02971 3.47653 0
M  V30 27080 C 3990.22 -6.89602 1.41652 0
M  V30 27081 C 3990.93 -5.59201 1.75185 0
M  V30 27082 N 3990.88 -4.58235 0.662552 0
M  V30 27083 H 3993.72 -8.65116 0.777161 0
M  V30 27084 H 3993.99 -6.90173 0.474152 0
M  V30 27085 H 3993.12 -7.66548 2.79458 0
M  V30 27086 P 3989.16 -8.03563 3.84925 0
M  V30 27087 O 3988.94 -8.85821 5.0569 0
M  V30 27088 O 3988.37 -8.41101 2.65469 0
M  V30 27089 O 3988.91 -6.4965 4.18908 0
M  V30 27090 C 3989.85 -5.80886 5.05289 0
M  V30 27091 C 3989.12 -4.78366 5.89277 0
M  V30 27092 O 3988.91 -3.58302 5.08433 0
M  V30 27093 C 3987.72 -5.16748 6.36559 0
M  V30 27094 O 3987.33 -4.45271 7.53232 0
M  V30 27095 C 3986.84 -4.74572 5.19863 0
M  V30 27096 C 3987.55 -3.49373 4.70338 0
M  V30 27097 N 3987.5 -3.31704 3.22876 0
M  V30 27098 C 3987.35 -2.03326 2.74871 0
M  V30 27099 O 3987.26 -1.06486 3.48076 0
M  V30 27100 N 3987.31 -1.91838 1.37456 0
M  V30 27101 C 3987.4 -2.94295 0.462035 0
M  V30 27102 O 3987.35 -2.71763 -0.752928 0
M  V30 27103 C 3987.55 -4.25064 1.05249 0
M  V30 27104 C 3987.66 -5.39815 0.095697 0
M  V30 27105 C 3987.6 -4.40214 2.39192 0
M  V30 27106 H 3990.34 -6.54063 5.71245 0
M  V30 27107 H 3990.61 -5.30339 4.43905 0
M  V30 27108 H 3989.74 -4.55889 6.76652 0
M  V30 27109 H 3987.08 -2.6167 5.17842 0
M  V30 27110 H 3986.81 -5.52155 4.41878 0
M  V30 27111 H 3985.81 -4.51918 5.53297 0
M  V30 27112 H 3987.65 -6.25055 6.55162 0
M  V30 27113 H 3987.72 -5.39798 2.81523 0
M  V30 27114 H 3986.69 -5.91593 0.0279582 0
M  V30 27115 H 3988.43 -6.10038 0.450573 0
M  V30 27116 H 3987.94 -5.02007 -0.89937 0
M  V30 27117 H 3987.2 -0.995326 1.00435 0
M  V30 27118 P 3985.78 -4.23843 7.83734 0
M  V30 27119 O 3985.56 -4.19407 9.29784 0
M  V30 27120 O 3984.99 -5.24426 7.09156 0
M  V30 27121 O 3985.53 -2.7935 7.20758 0
M  V30 27122 C 3986.47 -1.7299 7.50419 0
M  V30 27123 C 3985.74 -0.406376 7.57911 0
M  V30 27124 O 3985.53 0.0897726 6.21935 0
M  V30 27125 C 3984.34 -0.447224 8.1878 0
M  V30 27126 O 3983.95 0.825065 8.71101 0
M  V30 27127 C 3983.46 -0.783801 6.99623 0
M  V30 27128 C 3984.17 -0.0619192 5.85967 0
M  V30 27129 N 3984.12 -0.790462 4.56202 0
M  V30 27130 H 3986.96 -1.93423 8.4679 0
M  V30 27131 H 3987.23 -1.68852 6.70877 0
M  V30 27132 H 3986.36 0.289041 8.15388 0
M  V30 27133 H 3983.7 0.927006 5.72848 0
M  V30 27134 H 3983.42 -1.86973 6.82036 0
M  V30 27135 H 3982.43 -0.403953 7.13357 0
M  V30 27136 H 3984.27 -1.20599 8.97534 0
M  V30 27137 P 3982.4 1.17771 8.83182 0
M  V30 27138 O 3982.18 2.07206 9.98732 0
M  V30 27139 O 3981.61 -0.0743816 8.81969 0
M  V30 27140 O 3982.15 1.97652 7.47304 0
M  V30 27141 C 3983.09 3.01133 7.08783 0
M  V30 27142 C 3982.36 4.12613 6.37049 0
M  V30 27143 O 3982.15 3.72827 4.97879 0
M  V30 27144 C 3980.96 4.45085 6.88694 0
M  V30 27145 O 3980.57 5.7877 6.5624 0
M  V30 27146 C 3980.08 3.47817 6.12078 0
M  V30 27147 C 3980.79 3.39414 4.77697 0
M  V30 27148 N 3980.74 2.04615 4.15333 0
M  V30 27149 H 3983.58 3.41248 7.98759 0
M  V30 27150 H 3983.85 2.5837 6.41742 0
M  V30 27151 H 3982.98 5.02657 6.42673 0
M  V30 27152 P 3979.02 6.144 6.45285 0
M  V30 27153 O 3978.8 7.54673 6.86199 0
M  V30 27154 O 3978.23 5.12391 7.179 0
M  V30 27155 O 3978.77 5.99158 4.88404 0
M  V30 27156 C 3979.71 6.60234 3.96415 0
M  V30 27157 C 3978.98 7.08259 2.72856 0
M  V30 27158 O 3978.77 5.9427 1.83651 0
M  V30 27159 C 3977.58 7.64886 2.9555 0
M  V30 27160 O 3977.19 8.53963 1.90717 0
M  V30 27161 C 3976.7 6.4116 2.90739 0
M  V30 27162 C 3977.41 5.55375 1.86963 0
M  V30 27163 N 3977.36 4.09448 2.16152 0
M  V30 27164 C 3977.44 3.46824 3.37593 0
M  V30 27165 N 3977.37 2.17422 3.29777 0
M  V30 27166 C 3977.22 1.93065 1.94427 0
M  V30 27167 C 3977.09 0.738053 1.20141 0
M  V30 27168 N 3977.08 -0.474256 1.74676 0
M  V30 27169 N 3976.97 0.850049 -0.13045 0
M  V30 27170 C 3976.98 2.06169 -0.676992 0
M  V30 27171 N 3977.1 3.23842 -0.101312 0
M  V30 27172 C 3977.22 3.09402 1.23122 0
M  V30 27173 H 3980.2 7.45574 4.45629 0
M  V30 27174 H 3980.47 5.85864 3.679 0
M  V30 27175 H 3979.6 7.84412 2.24479 0
M  V30 27176 H 3976.94 5.73457 0.888562 0
M  V30 27177 H 3976.66 5.90877 3.88583 0
M  V30 27178 H 3975.67 6.6596 2.58858 0
M  V30 27179 H 3977.51 8.16339 3.92049 0
M  V30 27180 H 3977.55 4.00505 4.3174 0
M  V30 27181 H 3977.17 -0.581337 2.76658 0
M  V30 27182 H 3976.98 -1.30811 1.14888 0
M  V30 27183 H 3976.87 2.08295 -1.75542 0
M  V30 27184 P 3975.64 8.7635 1.60911 0
M  V30 27185 O 3975.42 10.1388 1.11561 0
M  V30 27186 O 3974.85 8.36503 2.79617 0
M  V30 27187 O 3975.39 7.71806 0.42951 0
M  V30 27188 C 3976.33 7.67148 -0.673689 0
M  V30 27189 C 3975.6 7.33374 -1.95559 0
M  V30 27190 O 3975.39 5.88721 -2.00726 0
M  V30 27191 C 3974.2 7.92526 -2.10483 0
M  V30 27192 O 3973.81 8.02971 -3.47653 0
M  V30 27193 C 3973.32 6.89602 -1.41652 0
M  V30 27194 C 3974.03 5.59201 -1.75185 0
M  V30 27195 N 3973.98 4.58235 -0.662552 0
M  V30 27196 H 3976.82 8.65116 -0.777161 0
M  V30 27197 H 3977.09 6.90173 -0.474152 0
M  V30 27198 H 3976.22 7.66548 -2.79458 0
M  V30 27199 P 3972.26 8.03563 -3.84925 0
M  V30 27200 O 3972.04 8.85821 -5.0569 0
M  V30 27201 O 3971.47 8.41101 -2.65469 0
M  V30 27202 O 3972.01 6.4965 -4.18908 0
M  V30 27203 C 3972.95 5.81037 -5.05421 0
M  V30 27204 C 3972.22 4.78366 -5.89277 0
M  V30 27205 O 3972.01 3.58302 -5.08433 0
M  V30 27206 C 3970.82 5.17448 -6.36119 0
M  V30 27207 O 3970.43 4.45271 -7.53232 0
M  V30 27208 C 3969.94 4.74639 -5.19936 0
M  V30 27209 C 3970.65 3.49432 -4.70418 0
M  V30 27210 N 3970.6 3.31776 -3.22945 0
M  V30 27211 C 3970.68 4.27147 -2.23315 0
M  V30 27212 N 3970.6 3.78447 -1.02186 0
M  V30 27213 C 3970.46 2.41001 -1.21732 0
M  V30 27214 C 3970.33 1.36111 -0.27694 0
M  V30 27215 O 3970.31 1.42065 0.951767 0
M  V30 27216 N 3970.21 0.113683 -0.912949 0
M  V30 27217 C 3970.21 -0.0846396 -2.27943 0
M  V30 27218 N 3970.08 -1.34737 -2.6916 0
M  V30 27219 N 3970.34 0.902521 -3.16379 0
M  V30 27220 C 3970.46 2.11937 -2.56849 0
M  V30 27221 H 3973.44 6.54213 -5.71376 0
M  V30 27222 H 3973.71 5.30492 -4.44033 0
M  V30 27223 H 3972.84 4.55889 -6.76652 0
M  V30 27224 H 3970.18 2.6176 -5.18021 0
M  V30 27225 H 3969.9 5.52233 -4.41941 0
M  V30 27226 H 3968.91 4.52045 -5.53452 0
M  V30 27227 H 3970.75 6.25193 -6.55307 0
M  V30 27228 H 3970.8 5.3351 -2.43857 0
M  V30 27229 H 3970.11 -0.69331 -0.330371 0
M  V30 27230 H 3970.08 -1.56433 -3.6988 0
M  V30 27231 H 3969.98 -2.10701 -2.00133 0
M  V30 27232 P 3968.88 4.23843 -7.83734 0
M  V30 27233 O 3968.66 4.19407 -9.29784 0
M  V30 27234 O 3968.09 5.24426 -7.09156 0
M  V30 27235 O 3968.63 2.7935 -7.20758 0
M  V30 27236 C 3969.57 1.72945 -7.50224 0
M  V30 27237 C 3968.84 0.406376 -7.57911 0
M  V30 27238 O 3968.63 -0.0897726 -6.21935 0
M  V30 27239 C 3967.44 0.438983 -8.18724 0
M  V30 27240 O 3967.05 -0.825065 -8.71101 0
M  V30 27241 C 3966.56 0.783689 -6.99524 0
M  V30 27242 C 3967.27 0.0619086 -5.85867 0
M  V30 27243 N 3967.22 0.78573 -4.56183 0
M  V30 27244 C 3967.07 0.0292889 -3.41887 0
M  V30 27245 O 3966.98 -1.18445 -3.4419 0
M  V30 27246 N 3967.03 0.744061 -2.23964 0
M  V30 27247 C 3967.12 2.10932 -2.10362 0
M  V30 27248 O 3967.07 2.64117 -0.98825 0
M  V30 27249 C 3967.27 2.8202 -3.34994 0
M  V30 27250 C 3967.38 4.31095 -3.25037 0
M  V30 27251 C 3967.32 2.15547 -4.52261 0
M  V30 27252 H 3970.06 1.93379 -8.46595 0
M  V30 27253 H 3970.33 1.68132 -6.70852 0
M  V30 27254 H 3969.46 -0.289041 -8.15388 0
M  V30 27255 H 3966.8 -0.926847 -5.72749 0
M  V30 27256 H 3966.53 1.86973 -6.82036 0
M  V30 27257 H 3965.53 0.403896 -7.13257 0
M  V30 27258 H 3967.37 1.20585 -8.97435 0
M  V30 27259 H 3967.44 2.71231 -5.45042 0
M  V30 27260 H 3966.41 4.76966 -3.49992 0
M  V30 27261 H 3968.15 4.67047 -3.95024 0
M  V30 27262 H 3967.66 4.58996 -2.22312 0
M  V30 27263 H 3966.92 0.214893 -1.39758 0
M  V30 27264 P 3965.5 -1.17771 -8.83182 0
M  V30 27265 O 3965.28 -2.07206 -9.98732 0
M  V30 27266 O 3964.71 0.0743816 -8.81969 0
M  V30 27267 O 3965.25 -1.97652 -7.47304 0
M  V30 27268 C 3966.19 -3.01055 -7.08599 0
M  V30 27269 C 3965.46 -4.12613 -6.37049 0
M  V30 27270 O 3965.25 -3.72827 -4.97879 0
M  V30 27271 C 3964.06 -4.45719 -6.88164 0
M  V30 27272 O 3963.67 -5.7877 -6.5624 0
M  V30 27273 C 3963.18 -3.47768 -6.11991 0
M  V30 27274 C 3963.89 -3.39356 -4.77615 0
M  V30 27275 N 3963.84 -2.04571 -4.15244 0
M  V30 27276 C 3963.69 -1.98587 -2.78314 0
M  V30 27277 O 3963.6 -2.98134 -2.08835 0
M  V30 27278 N 3963.65 -0.714467 -2.24925 0
M  V30 27279 C 3963.74 0.470001 -2.94169 0
M  V30 27280 O 3963.69 1.55587 -2.35195 0
M  V30 27281 C 3963.89 0.312541 -4.36783 0
M  V30 27282 C 3964 1.57711 -5.16352 0
M  V30 27283 C 3963.94 -0.914512 -4.92583 0
M  V30 27284 H 3966.68 -3.41169 -7.98575 0
M  V30 27285 H 3966.95 -2.58295 -6.41556 0
M  V30 27286 H 3966.08 -5.02657 -6.42673 0
M  V30 27287 H 3963.42 -4.11637 -4.08885 0
M  V30 27288 H 3963.15 -2.49626 -6.61679 0
M  V30 27289 H 3962.15 -3.86566 -6.00778 0
M  V30 27290 H 3963.99 -4.29943 -7.96918 0
M  V30 27291 H 3964.06 -1.00937 -6.00374 0
M  V30 27292 H 3963.03 1.80153 -5.63503 0
M  V30 27293 H 3964.77 1.4566 -5.94104 0
M  V30 27294 H 3964.28 2.40664 -4.49645 0
M  V30 27295 H 3963.54 -0.647622 -1.25697 0
M  V30 27296 P 3962.12 -6.144 -6.45285 0
M  V30 27297 O 3961.9 -7.54673 -6.86199 0
M  V30 27298 O 3961.33 -5.12391 -7.179 0
M  V30 27299 O 3961.87 -5.99236 -4.88467 0
M  V30 27300 C 3962.81 -6.60234 -3.96415 0
M  V30 27301 C 3962.08 -7.08079 -2.736 0
M  V30 27302 O 3961.87 -5.94365 -1.8368 0
M  V30 27303 C 3960.68 -7.64886 -2.9555 0
M  V30 27304 O 3960.29 -8.5406 -1.90739 0
M  V30 27305 C 3959.8 -6.4116 -2.90739 0
M  V30 27306 C 3960.51 -5.55375 -1.86963 0
M  V30 27307 N 3960.46 -4.09664 -2.15742 0
M  V30 27308 C 3960.31 -3.22231 -1.08477 0
M  V30 27309 O 3960.22 -3.68951 0.0600489 0
M  V30 27310 N 3960.26 -1.76692 -1.48799 0
M  V30 27311 C 3960.36 -1.41695 -2.57602 0
M  V30 27312 N 3960.31 -0.107296 -2.75791 0
M  V30 27313 C 3960.51 -2.29178 -3.69733 0
M  V30 27314 C 3960.56 -3.62753 -3.42653 0
M  V30 27315 H 3963.3 -7.45488 -4.45578 0
M  V30 27316 H 3963.57 -5.86232 -3.67314 0
M  V30 27317 H 3962.7 -7.84508 -2.24507 0
M  V30 27318 H 3960.04 -5.73556 -0.888715 0
M  V30 27319 H 3959.76 -5.9096 -3.88638 0
M  V30 27320 H 3958.77 -6.66053 -2.58894 0
M  V30 27321 H 3960.61 -8.16339 -3.92049 0
M  V30 27322 H 3960.68 -4.33052 -4.24913 0
M  V30 27323 H 3960.58 -1.9103 -4.71577 0
M  V30 27324 H 3960.19 0.521221 -1.95056 0
M  V30 27325 H 3960.39 0.286429 -3.70695 0
M  V30 27326 P 3958.74 -8.7635 -1.60911 0
M  V30 27327 O 3958.52 -10.1388 -1.11561 0
M  V30 27328 O 3957.95 -8.36503 -2.79617 0
M  V30 27329 O 3958.49 -7.71806 -0.42951 0
M  V30 27330 C 3959.43 -7.67148 0.673689 0
M  V30 27331 C 3958.7 -7.33374 1.95559 0
M  V30 27332 O 3958.49 -5.88721 2.00726 0
M  V30 27333 C 3957.3 -7.92526 2.10483 0
M  V30 27334 O 3956.91 -8.02971 3.47653 0
M  V30 27335 C 3956.42 -6.89602 1.41652 0
M  V30 27336 C 3957.13 -5.59201 1.75185 0
M  V30 27337 N 3957.08 -4.58235 0.662552 0
M  V30 27338 H 3959.92 -8.65116 0.777161 0
M  V30 27339 H 3960.19 -6.90173 0.474152 0
M  V30 27340 H 3959.32 -7.66548 2.79458 0
M  V30 27341 P 3955.36 -8.03563 3.84925 0
M  V30 27342 O 3955.14 -8.85821 5.0569 0
M  V30 27343 O 3954.57 -8.41101 2.65469 0
M  V30 27344 O 3955.11 -6.4965 4.18908 0
M  V30 27345 C 3956.05 -5.81037 5.05421 0
M  V30 27346 C 3955.32 -4.78366 5.89277 0
M  V30 27347 O 3955.11 -3.58302 5.08433 0
M  V30 27348 C 3953.92 -5.17448 6.36119 0
M  V30 27349 O 3953.53 -4.45271 7.53232 0
M  V30 27350 C 3953.04 -4.74639 5.19936 0
M  V30 27351 C 3953.75 -3.49432 4.70418 0
M  V30 27352 N 3953.7 -3.31776 3.22945 0
M  V30 27353 H 3956.54 -6.54213 5.71376 0
M  V30 27354 H 3956.81 -5.30492 4.44033 0
M  V30 27355 H 3955.94 -4.55889 6.76652 0
M  V30 27356 P 3951.98 -4.23843 7.83734 0
M  V30 27357 O 3951.76 -4.19407 9.29784 0
M  V30 27358 O 3951.19 -5.24426 7.09156 0
M  V30 27359 O 3951.73 -2.7935 7.20758 0
M  V30 27360 C 3952.67 -1.7299 7.50419 0
M  V30 27361 C 3951.94 -0.406376 7.57911 0
M  V30 27362 O 3951.73 0.0897726 6.21935 0
M  V30 27363 C 3950.54 -0.447224 8.1878 0
M  V30 27364 O 3950.15 0.825065 8.71101 0
M  V30 27365 C 3949.66 -0.783801 6.99623 0
M  V30 27366 C 3950.37 -0.0619192 5.85967 0
M  V30 27367 N 3950.32 -0.7859 4.56281 0
M  V30 27368 H 3953.16 -1.93423 8.4679 0
M  V30 27369 H 3953.43 -1.68181 6.71046 0
M  V30 27370 H 3952.56 0.289041 8.15388 0
M  V30 27371 P 3948.6 1.17771 8.83182 0
M  V30 27372 O 3948.38 2.07206 9.98732 0
M  V30 27373 O 3947.81 -0.0743816 8.81969 0
M  V30 27374 O 3948.35 1.97652 7.47304 0
M  V30 27375 C 3949.29 3.01133 7.08783 0
M  V30 27376 C 3948.56 4.12613 6.37049 0
M  V30 27377 O 3948.35 3.72827 4.97879 0
M  V30 27378 C 3947.16 4.45085 6.88694 0
M  V30 27379 O 3946.77 5.7877 6.5624 0
M  V30 27380 C 3946.28 3.47817 6.12078 0
M  V30 27381 C 3946.99 3.39414 4.77697 0
M  V30 27382 N 3946.94 2.04199 4.15538 0
M  V30 27383 H 3949.78 3.41248 7.98759 0
M  V30 27384 H 3950.05 2.57728 6.42 0
M  V30 27385 H 3949.18 5.02657 6.42673 0
M  V30 27386 H 3946.52 4.11708 4.08956 0
M  V30 27387 H 3946.24 2.49626 6.61679 0
M  V30 27388 H 3945.25 3.8662 6.00862 0
M  V30 27389 H 3947.09 4.29991 7.97006 0
M  V30 27390 P 3945.22 6.144 6.45285 0
M  V30 27391 O 3945 7.54673 6.86199 0
M  V30 27392 O 3944.43 5.12391 7.179 0
M  V30 27393 O 3944.97 5.99158 4.88404 0
M  V30 27394 C 3945.91 6.60234 3.96415 0
M  V30 27395 C 3945.18 7.08259 2.72856 0
M  V30 27396 O 3944.97 5.9427 1.83651 0
M  V30 27397 C 3943.78 7.64886 2.9555 0
M  V30 27398 O 3943.39 8.53963 1.90717 0
M  V30 27399 C 3942.9 6.4116 2.90739 0
M  V30 27400 C 3943.61 5.55375 1.86963 0
M  V30 27401 N 3943.56 4.09664 2.15742 0
M  V30 27402 H 3946.4 7.45574 4.45629 0
M  V30 27403 H 3946.67 5.86232 3.67314 0
M  V30 27404 H 3945.8 7.84412 2.24479 0
M  V30 27405 P 3941.84 8.7635 1.60911 0
M  V30 27406 O 3941.62 10.1388 1.11561 0
M  V30 27407 O 3941.05 8.36503 2.79617 0
M  V30 27408 O 3941.59 7.71806 0.42951 0
M  V30 27409 C 3942.53 7.67148 -0.673689 0
M  V30 27410 C 3941.8 7.33374 -1.95559 0
M  V30 27411 O 3941.59 5.88721 -2.00726 0
M  V30 27412 C 3940.4 7.92526 -2.10483 0
M  V30 27413 O 3940.01 8.02971 -3.47653 0
M  V30 27414 C 3939.52 6.89602 -1.41652 0
M  V30 27415 C 3940.23 5.59201 -1.75185 0
M  V30 27416 N 3940.18 4.58235 -0.662552 0
M  V30 27417 C 3940.26 4.7683 0.704049 0
M  V30 27418 N 3940.18 3.66233 1.39775 0
M  V30 27419 C 3940.04 2.66526 0.431739 0
M  V30 27420 C 3939.91 1.26394 0.575992 0
M  V30 27421 N 3939.79 0.62859 -0.67177 0
M  V30 27422 C 3939.79 1.27134 -1.89385 0
M  V30 27423 N 3939.66 0.492035 -2.96951 0
M  V30 27424 N 3939.92 2.58978 -2.02907 0
M  V30 27425 C 3940.04 3.22433 -0.832218 0
M  V30 27426 H 3943.02 8.65116 -0.777161 0
M  V30 27427 H 3943.29 6.90173 -0.474152 0
M  V30 27428 H 3942.42 7.66548 -2.79458 0
M  V30 27429 P 3938.46 8.03563 -3.84925 0
M  V30 27430 O 3938.24 8.85821 -5.0569 0
M  V30 27431 O 3937.67 8.41101 -2.65469 0
M  V30 27432 O 3938.21 6.4965 -4.18908 0
M  V30 27433 C 3939.15 5.81037 -5.05421 0
M  V30 27434 C 3938.42 4.78366 -5.89277 0
M  V30 27435 O 3938.21 3.58302 -5.08433 0
M  V30 27436 C 3937.02 5.17448 -6.36119 0
M  V30 27437 O 3936.63 4.45271 -7.53232 0
M  V30 27438 C 3936.14 4.74639 -5.19936 0
M  V30 27439 C 3936.85 3.49432 -4.70418 0
M  V30 27440 N 3936.8 3.31776 -3.22945 0
M  V30 27441 C 3936.88 4.27147 -2.23315 0
M  V30 27442 N 3936.8 3.78447 -1.02186 0
M  V30 27443 C 3936.66 2.41001 -1.21732 0
M  V30 27444 C 3936.53 1.36111 -0.27694 0
M  V30 27445 N 3936.41 0.113683 -0.912949 0
M  V30 27446 C 3936.41 -0.0846396 -2.27943 0
M  V30 27447 N 3936.28 -1.34737 -2.6916 0
M  V30 27448 N 3936.54 0.902521 -3.16379 0
M  V30 27449 C 3936.66 2.11937 -2.56849 0
M  V30 27450 H 3939.64 6.54213 -5.71376 0
M  V30 27451 H 3939.91 5.30492 -4.44033 0
M  V30 27452 H 3939.04 4.55889 -6.76652 0
M  V30 27453 P 3935.08 4.23843 -7.83734 0
M  V30 27454 O 3934.86 4.19407 -9.29784 0
M  V30 27455 O 3934.29 5.24426 -7.09156 0
M  V30 27456 O 3934.83 2.7935 -7.20758 0
M  V30 27457 C 3935.77 1.7299 -7.50419 0
M  V30 27458 C 3935.04 0.406376 -7.57911 0
M  V30 27459 O 3934.83 -0.0897726 -6.21935 0
M  V30 27460 C 3933.64 0.447224 -8.1878 0
M  V30 27461 O 3933.25 -0.825065 -8.71101 0
M  V30 27462 C 3932.76 0.783801 -6.99623 0
M  V30 27463 C 3933.47 0.0619192 -5.85967 0
M  V30 27464 N 3933.42 0.790462 -4.56202 0
M  V30 27465 H 3936.26 1.93423 -8.4679 0
M  V30 27466 H 3936.53 1.68852 -6.70877 0
M  V30 27467 H 3935.66 -0.289041 -8.15388 0
M  V30 27468 H 3933 -0.927006 -5.72848 0
M  V30 27469 H 3932.72 1.86973 -6.82036 0
M  V30 27470 H 3931.73 0.403953 -7.13357 0
M  V30 27471 H 3933.57 1.20599 -8.97534 0
M  V30 27472 P 3931.7 -1.17771 -8.83182 0
M  V30 27473 O 3931.48 -2.07206 -9.98732 0
M  V30 27474 O 3930.91 0.0743816 -8.81969 0
M  V30 27475 O 3931.45 -1.97652 -7.47304 0
M  V30 27476 C 3932.39 -3.01133 -7.08783 0
M  V30 27477 C 3931.66 -4.12613 -6.37049 0
M  V30 27478 O 3931.45 -3.72827 -4.97879 0
M  V30 27479 C 3930.26 -4.45085 -6.88694 0
M  V30 27480 O 3929.87 -5.7877 -6.5624 0
M  V30 27481 C 3929.38 -3.47817 -6.12078 0
M  V30 27482 C 3930.09 -3.39414 -4.77697 0
M  V30 27483 N 3930.04 -2.04199 -4.15538 0
M  V30 27484 C 3930.12 -0.821545 -4.76977 0
M  V30 27485 N 3930.05 0.1794 -3.94592 0
M  V30 27486 C 3929.9 -0.419121 -2.70776 0
M  V30 27487 C 3929.77 0.109072 -1.40577 0
M  V30 27488 N 3929.76 1.4104 -1.1344 0
M  V30 27489 N 3929.65 -0.764381 -0.39411 0
M  V30 27490 C 3929.66 -2.06587 -0.664135 0
M  V30 27491 N 3929.78 -2.67948 -1.82153 0
M  V30 27492 C 3929.9 -1.77942 -2.8147 0
M  V30 27493 H 3932.88 -3.41248 -7.98759 0
M  V30 27494 H 3933.15 -2.57728 -6.42 0
M  V30 27495 H 3932.28 -5.02657 -6.42673 0
M  V30 27496 H 3929.62 -4.11708 -4.08956 0
M  V30 27497 H 3929.34 -2.49626 -6.61679 0
M  V30 27498 H 3928.35 -3.8662 -6.00862 0
M  V30 27499 H 3930.19 -4.29991 -7.97006 0
M  V30 27500 H 3930.23 -0.702451 -5.84696 0
M  V30 27501 H 3929.85 2.09647 -1.89651 0
M  V30 27502 H 3929.66 1.73358 -0.160575 0
M  V30 27503 H 3929.55 -2.71695 0.195838 0
M  V30 27504 P 3928.32 -6.144 -6.45285 0
M  V30 27505 O 3928.1 -7.54673 -6.86199 0
M  V30 27506 O 3927.53 -5.12391 -7.179 0
M  V30 27507 O 3928.07 -5.99158 -4.88404 0
M  V30 27508 C 3929.01 -6.60234 -3.96415 0
M  V30 27509 C 3928.28 -7.08259 -2.72856 0
M  V30 27510 O 3928.07 -5.9427 -1.83651 0
M  V30 27511 C 3926.88 -7.64886 -2.9555 0
M  V30 27512 O 3926.49 -8.53963 -1.90717 0
M  V30 27513 C 3926 -6.4116 -2.90739 0
M  V30 27514 C 3926.71 -5.55375 -1.86963 0
M  V30 27515 N 3926.66 -4.09664 -2.15742 0
M  V30 27516 H 3929.5 -7.45574 -4.45629 0
M  V30 27517 H 3929.77 -5.86232 -3.67314 0
M  V30 27518 H 3928.9 -7.84412 -2.24479 0
M  V30 27519 P 3924.94 -8.7635 -1.60911 0
M  V30 27520 O 3924.72 -10.1388 -1.11561 0
M  V30 27521 O 3924.15 -8.36503 -2.79617 0
M  V30 27522 O 3924.69 -7.71806 -0.42951 0
M  V30 27523 C 3925.63 -7.67148 0.673689 0
M  V30 27524 C 3924.9 -7.33374 1.95559 0
M  V30 27525 O 3924.69 -5.88721 2.00726 0
M  V30 27526 C 3923.5 -7.92526 2.10483 0
M  V30 27527 O 3923.11 -8.02971 3.47653 0
M  V30 27528 C 3922.62 -6.89602 1.41652 0
M  V30 27529 C 3923.33 -5.59201 1.75185 0
M  V30 27530 N 3923.28 -4.58235 0.662552 0
M  V30 27531 H 3926.12 -8.65116 0.777161 0
M  V30 27532 H 3926.39 -6.90173 0.474152 0
M  V30 27533 H 3925.52 -7.66548 2.79458 0
M  V30 27534 P 3921.56 -8.03563 3.84925 0
M  V30 27535 O 3921.34 -8.85821 5.0569 0
M  V30 27536 O 3920.77 -8.41101 2.65469 0
M  V30 27537 O 3921.31 -6.4965 4.18908 0
M  V30 27538 C 3922.25 -5.81037 5.05421 0
M  V30 27539 C 3921.52 -4.78366 5.89277 0
M  V30 27540 O 3921.31 -3.58302 5.08433 0
M  V30 27541 C 3920.12 -5.17448 6.36119 0
M  V30 27542 O 3919.73 -4.45271 7.53232 0
M  V30 27543 C 3919.24 -4.74639 5.19936 0
M  V30 27544 C 3919.95 -3.49432 4.70418 0
M  V30 27545 N 3919.9 -3.31776 3.22945 0
M  V30 27546 H 3922.74 -6.54213 5.71376 0
M  V30 27547 H 3923.01 -5.30492 4.44033 0
M  V30 27548 H 3922.14 -4.55889 6.76652 0
M  V30 27549 P 3918.18 -4.23843 7.83734 0
M  V30 27550 O 3917.96 -4.19407 9.29784 0
M  V30 27551 O 3917.39 -5.24426 7.09156 0
M  V30 27552 O 3917.93 -2.7935 7.20758 0
M  V30 27553 C 3918.87 -1.7299 7.50419 0
M  V30 27554 C 3918.14 -0.406376 7.57911 0
M  V30 27555 O 3917.93 0.0897726 6.21935 0
M  V30 27556 C 3916.74 -0.447224 8.1878 0
M  V30 27557 O 3916.35 0.825065 8.71101 0
M  V30 27558 C 3915.86 -0.783801 6.99623 0
M  V30 27559 C 3916.57 -0.0619192 5.85967 0
M  V30 27560 N 3916.52 -0.7859 4.56281 0
M  V30 27561 H 3919.36 -1.93423 8.4679 0
M  V30 27562 H 3919.63 -1.68181 6.71046 0
M  V30 27563 H 3918.76 0.289041 8.15388 0
M  V30 27564 P 3914.8 1.17771 8.83182 0
M  V30 27565 O 3914.58 2.07206 9.98732 0
M  V30 27566 O 3914.01 -0.0743816 8.81969 0
M  V30 27567 O 3914.55 1.97678 7.474 0
M  V30 27568 C 3915.49 3.01133 7.08783 0
M  V30 27569 C 3914.76 4.1203 6.37546 0
M  V30 27570 O 3914.55 3.72887 4.9796 0
M  V30 27571 C 3913.36 4.45085 6.88694 0
M  V30 27572 O 3912.97 5.78836 6.56315 0
M  V30 27573 C 3912.48 3.47817 6.12078 0
M  V30 27574 C 3913.19 3.39414 4.77697 0
M  V30 27575 N 3913.14 2.04615 4.15333 0
M  V30 27576 C 3912.99 1.96929 2.77162 0
M  V30 27577 O 3912.9 3.02017 2.12006 0
M  V30 27578 N 3912.94 0.55485 2.24237 0
M  V30 27579 C 3913.04 -0.367808 2.9169 0
M  V30 27580 N 3912.99 -1.53426 2.29427 0
M  V30 27581 C 3913.19 -0.319148 4.33828 0
M  V30 27582 C 3913.24 0.920672 4.90433 0
M  V30 27583 H 3915.98 3.41209 7.98667 0
M  V30 27584 H 3916.25 2.5837 6.41742 0
M  V30 27585 H 3915.38 5.02718 6.42752 0
M  V30 27586 H 3912.72 4.11779 4.09026 0
M  V30 27587 H 3912.44 2.49661 6.61772 0
M  V30 27588 H 3911.45 3.86674 6.00946 0
M  V30 27589 H 3913.29 4.29991 7.97006 0
M  V30 27590 H 3913.36 1.00589 5.98303 0
M  V30 27591 H 3913.26 -1.22639 4.93799 0
M  V30 27592 H 3912.87 -1.56819 1.27167 0
M  V30 27593 H 3913.07 -2.41062 2.83063 0
M  V30 27594 P 3911.42 6.144 6.45285 0
M  V30 27595 O 3911.2 7.54673 6.86199 0
M  V30 27596 O 3910.63 5.12391 7.179 0
M  V30 27597 O 3911.17 5.99158 4.88404 0
M  V30 27598 C 3912.11 6.60062 3.96313 0
M  V30 27599 C 3911.38 7.08259 2.72856 0
M  V30 27600 O 3911.17 5.9427 1.83651 0
M  V30 27601 C 3909.98 7.65087 2.94749 0
M  V30 27602 O 3909.59 8.53963 1.90717 0
M  V30 27603 C 3909.1 6.41069 2.90698 0
M  V30 27604 C 3909.81 5.5528 1.86931 0
M  V30 27605 N 3909.76 4.09575 2.15696 0
M  V30 27606 C 3909.61 3.24249 1.08435 0
M  V30 27607 O 3909.52 3.63946 -0.0628747 0
M  V30 27608 N 3909.57 1.90009 1.39973 0
M  V30 27609 C 3909.66 1.34884 2.65614 0
M  V30 27610 C 3909.81 2.3145 3.71736 0
M  V30 27611 C 3909.86 3.63518 3.44754 0
M  V30 27612 H 3912.6 7.45402 4.45526 0
M  V30 27613 H 3912.87 5.86062 3.67208 0
M  V30 27614 H 3912 7.84412 2.24479 0
M  V30 27615 H 3909.34 5.73358 0.888409 0
M  V30 27616 H 3909.07 5.90877 3.88583 0
M  V30 27617 H 3908.07 6.65867 2.58821 0
M  V30 27618 H 3909.91 8.16248 3.92006 0
M  V30 27619 H 3909.98 4.34551 4.26383 0
M  V30 27620 P 3908.04 8.7635 1.60911 0
M  V30 27621 O 3907.82 10.1388 1.11561 0
M  V30 27622 O 3907.25 8.36503 2.79617 0
M  V30 27623 O 3907.79 7.71806 0.42951 0
M  V30 27624 C 3908.73 7.66948 -0.673514 0
M  V30 27625 C 3908 7.33374 -1.95559 0
M  V30 27626 O 3907.79 5.88721 -2.00726 0
M  V30 27627 C 3906.6 7.92218 -2.1125 0
M  V30 27628 O 3906.21 8.02971 -3.47653 0
M  V30 27629 C 3905.72 6.89504 -1.41631 0
M  V30 27630 C 3906.43 5.59106 -1.75155 0
M  V30 27631 N 3906.38 4.58136 -0.662409 0
M  V30 27632 C 3906.23 3.26059 -1.02863 0
M  V30 27633 O 3906.14 2.90743 -2.19009 0
M  V30 27634 N 3906.19 2.35995 0.0155585 0
M  V30 27635 C 3906.28 2.65248 1.35603 0
M  V30 27636 O 3906.23 1.75605 2.20651 0
M  V30 27637 C 3906.43 4.05747 1.64698 0
M  V30 27638 C 3906.54 4.42345 3.09553 0
M  V30 27639 C 3906.48 4.96734 0.652411 0
M  V30 27640 H 3909.22 8.64917 -0.776982 0
M  V30 27641 H 3909.49 6.89974 -0.474015 0
M  V30 27642 H 3908.62 7.66548 -2.79458 0
M  V30 27643 H 3905.96 5.16076 -2.65138 0
M  V30 27644 H 3905.69 7.06433 -0.329384 0
M  V30 27645 H 3904.69 6.90829 -1.81996 0
M  V30 27646 H 3906.53 8.90774 -1.62639 0
M  V30 27647 H 3906.6 6.02181 0.895285 0
M  V30 27648 H 3905.57 4.80252 3.45468 0
M  V30 27649 H 3907.31 5.20015 3.22119 0
M  V30 27650 H 3906.82 3.53269 3.67833 0
M  V30 27651 H 3906.08 1.39558 -0.227499 0
M  V30 27652 P 3904.66 8.03563 -3.84925 0
M  V30 27653 O 3904.44 8.85821 -5.0569 0
M  V30 27654 O 3903.87 8.41101 -2.65469 0
M  V30 27655 O 3904.41 6.4965 -4.18908 0
M  V30 27656 C 3905.35 5.81037 -5.05421 0
M  V30 27657 C 3904.62 4.78366 -5.89277 0
M  V30 27658 O 3904.41 3.58302 -5.08433 0
M  V30 27659 C 3903.22 5.17448 -6.36119 0
M  V30 27660 O 3902.83 4.45271 -7.53232 0
M  V30 27661 C 3902.34 4.74639 -5.19936 0
M  V30 27662 C 3903.05 3.49432 -4.70418 0
M  V30 27663 N 3903 3.31776 -3.22945 0
M  V30 27664 H 3905.84 6.54213 -5.71376 0
M  V30 27665 H 3906.11 5.30492 -4.44033 0
M  V30 27666 H 3905.24 4.55889 -6.76652 0
M  V30 27667 P 3901.28 4.23843 -7.83734 0
M  V30 27668 O 3901.06 4.19407 -9.29784 0
M  V30 27669 O 3900.49 5.24426 -7.09156 0
M  V30 27670 O 3901.03 2.7935 -7.20758 0
M  V30 27671 C 3901.97 1.72945 -7.50224 0
M  V30 27672 C 3901.24 0.406376 -7.57911 0
M  V30 27673 O 3901.03 -0.0897726 -6.21935 0
M  V30 27674 C 3899.84 0.438983 -8.18724 0
M  V30 27675 O 3899.45 -0.825065 -8.71101 0
M  V30 27676 C 3898.96 0.783689 -6.99524 0
M  V30 27677 C 3899.67 0.0619086 -5.85867 0
M  V30 27678 N 3899.62 0.78573 -4.56183 0
M  V30 27679 C 3899.47 0.0292889 -3.41887 0
M  V30 27680 O 3899.38 -1.18445 -3.4419 0
M  V30 27681 N 3899.43 0.744061 -2.23964 0
M  V30 27682 C 3899.52 2.10932 -2.10362 0
M  V30 27683 O 3899.47 2.64117 -0.98825 0
M  V30 27684 C 3899.67 2.8202 -3.34994 0
M  V30 27685 C 3899.78 4.31095 -3.25037 0
M  V30 27686 C 3899.72 2.15547 -4.52261 0
M  V30 27687 H 3902.46 1.93379 -8.46595 0
M  V30 27688 H 3902.73 1.68132 -6.70852 0
M  V30 27689 H 3901.86 -0.289041 -8.15388 0
M  V30 27690 H 3899.2 -0.926847 -5.72749 0
M  V30 27691 H 3898.93 1.86973 -6.82036 0
M  V30 27692 H 3897.93 0.403896 -7.13257 0
M  V30 27693 H 3899.77 1.20585 -8.97435 0
M  V30 27694 H 3899.84 2.71231 -5.45042 0
M  V30 27695 H 3898.81 4.76966 -3.49992 0
M  V30 27696 H 3900.55 4.67047 -3.95024 0
M  V30 27697 H 3900.06 4.58996 -2.22312 0
M  V30 27698 H 3899.32 0.214893 -1.39758 0
M  V30 27699 P 3897.9 -1.17771 -8.83182 0
M  V30 27700 O 3897.68 -2.07206 -9.98732 0
M  V30 27701 O 3897.11 0.0743816 -8.81969 0
M  V30 27702 O 3897.65 -1.97652 -7.47304 0
M  V30 27703 C 3898.59 -3.01133 -7.08783 0
M  V30 27704 C 3897.86 -4.12613 -6.37049 0
M  V30 27705 O 3897.65 -3.72827 -4.97879 0
M  V30 27706 C 3896.46 -4.45085 -6.88694 0
M  V30 27707 O 3896.07 -5.7877 -6.5624 0
M  V30 27708 C 3895.58 -3.47817 -6.12078 0
M  V30 27709 C 3896.29 -3.39414 -4.77697 0
M  V30 27710 N 3896.24 -2.04615 -4.15333 0
M  V30 27711 C 3896.32 -0.803897 -4.75249 0
M  V30 27712 N 3896.24 0.197615 -3.91502 0
M  V30 27713 C 3896.1 -0.413002 -2.66823 0
M  V30 27714 C 3895.97 0.157221 -1.38007 0
M  V30 27715 N 3895.85 -0.833136 -0.390236 0
M  V30 27716 C 3895.85 -2.19402 -0.623885 0
M  V30 27717 N 3895.72 -2.97622 0.449677 0
M  V30 27718 N 3895.98 -2.73005 -1.83601 0
M  V30 27719 C 3896.1 -1.78786 -2.80935 0
M  V30 27720 H 3899.08 -3.41248 -7.98759 0
M  V30 27721 H 3899.35 -2.5837 -6.41742 0
M  V30 27722 H 3898.48 -5.02657 -6.42673 0
M  V30 27723 P 3894.52 -6.144 -6.45285 0
M  V30 27724 O 3894.3 -7.54673 -6.86199 0
M  V30 27725 O 3893.73 -5.12391 -7.179 0
M  V30 27726 O 3894.27 -5.99236 -4.88467 0
M  V30 27727 C 3895.21 -6.60234 -3.96415 0
M  V30 27728 C 3894.48 -7.08079 -2.736 0
M  V30 27729 O 3894.27 -5.94365 -1.8368 0
M  V30 27730 C 3893.08 -7.64886 -2.9555 0
M  V30 27731 O 3892.69 -8.5406 -1.90739 0
M  V30 27732 C 3892.2 -6.4116 -2.90739 0
M  V30 27733 C 3892.91 -5.55375 -1.86963 0
M  V30 27734 N 3892.86 -4.09664 -2.15742 0
M  V30 27735 C 3892.71 -3.22231 -1.08477 0
M  V30 27736 O 3892.62 -3.68951 0.0600489 0
M  V30 27737 N 3892.66 -1.76692 -1.48799 0
M  V30 27738 C 3892.76 -1.41695 -2.57602 0
M  V30 27739 N 3892.71 -0.107296 -2.75791 0
M  V30 27740 C 3892.91 -2.29178 -3.69733 0
M  V30 27741 C 3892.96 -3.62753 -3.42653 0
M  V30 27742 H 3895.7 -7.45488 -4.45578 0
M  V30 27743 H 3895.97 -5.86232 -3.67314 0
M  V30 27744 H 3895.1 -7.84508 -2.24507 0
M  V30 27745 H 3892.44 -5.73556 -0.888715 0
M  V30 27746 H 3892.16 -5.9096 -3.88638 0
M  V30 27747 H 3891.17 -6.66053 -2.58894 0
M  V30 27748 H 3893.01 -8.16339 -3.92049 0
M  V30 27749 H 3893.08 -4.33052 -4.24913 0
M  V30 27750 H 3892.98 -1.9103 -4.71577 0
M  V30 27751 H 3892.59 0.521221 -1.95056 0
M  V30 27752 H 3892.79 0.286429 -3.70695 0
M  V30 27753 P 3891.14 -8.7635 -1.60911 0
M  V30 27754 O 3890.92 -10.1388 -1.11561 0
M  V30 27755 O 3890.35 -8.36503 -2.79617 0
M  V30 27756 O 3890.89 -7.71806 -0.42951 0
M  V30 27757 C 3891.83 -7.67148 0.673689 0
M  V30 27758 C 3891.1 -7.33374 1.95559 0
M  V30 27759 O 3890.89 -5.88721 2.00726 0
M  V30 27760 C 3889.7 -7.92526 2.10483 0
M  V30 27761 O 3889.31 -8.02971 3.47653 0
M  V30 27762 C 3888.82 -6.89602 1.41652 0
M  V30 27763 C 3889.53 -5.59201 1.75185 0
M  V30 27764 N 3889.48 -4.58235 0.662552 0
M  V30 27765 H 3892.32 -8.65116 0.777161 0
M  V30 27766 H 3892.59 -6.90173 0.474152 0
M  V30 27767 H 3891.72 -7.66548 2.79458 0
M  V30 27768 P 3887.76 -8.03563 3.84925 0
M  V30 27769 O 3887.54 -8.85821 5.0569 0
M  V30 27770 O 3886.97 -8.41101 2.65469 0
M  V30 27771 O 3887.51 -6.4965 4.18908 0
M  V30 27772 C 3888.45 -5.81037 5.05421 0
M  V30 27773 C 3887.72 -4.78366 5.89277 0
M  V30 27774 O 3887.51 -3.58302 5.08433 0
M  V30 27775 C 3886.32 -5.17448 6.36119 0
M  V30 27776 O 3885.93 -4.45271 7.53232 0
M  V30 27777 C 3885.44 -4.74639 5.19936 0
M  V30 27778 C 3886.15 -3.49432 4.70418 0
M  V30 27779 N 3886.1 -3.32099 3.22613 0
M  V30 27780 H 3888.94 -6.54213 5.71376 0
M  V30 27781 H 3889.21 -5.30936 4.43503 0
M  V30 27782 H 3888.34 -4.55889 6.76652 0
M  V30 27783 H 3885.69 -2.61715 5.17932 0
M  V30 27784 H 3885.41 -5.52155 4.41878 0
M  V30 27785 H 3884.41 -4.51981 5.53374 0
M  V30 27786 H 3886.25 -6.25124 6.55234 0
M  V30 27787 P 3884.38 -4.23843 7.83734 0
M  V30 27788 O 3884.16 -4.19407 9.29784 0
M  V30 27789 O 3883.59 -5.24426 7.09156 0
M  V30 27790 O 3884.13 -2.7935 7.20758 0
M  V30 27791 C 3885.07 -1.7299 7.50419 0
M  V30 27792 C 3884.34 -0.406376 7.57911 0
M  V30 27793 O 3884.13 0.0897726 6.21935 0
M  V30 27794 C 3882.94 -0.447224 8.1878 0
M  V30 27795 O 3882.55 0.825065 8.71101 0
M  V30 27796 C 3882.06 -0.783801 6.99623 0
M  V30 27797 C 3882.77 -0.0619192 5.85967 0
M  V30 27798 N 3882.72 -0.7859 4.56281 0
M  V30 27799 H 3885.56 -1.93423 8.4679 0
M  V30 27800 H 3885.83 -1.68181 6.71046 0
M  V30 27801 H 3884.96 0.289041 8.15388 0
M  V30 27802 P 3881 1.17771 8.83182 0
M  V30 27803 O 3880.78 2.07206 9.98732 0
M  V30 27804 O 3880.21 -0.0743816 8.81969 0
M  V30 27805 O 3880.75 1.97652 7.47304 0
M  V30 27806 C 3881.69 3.01055 7.08599 0
M  V30 27807 C 3880.96 4.12613 6.37049 0
M  V30 27808 O 3880.75 3.72827 4.97879 0
M  V30 27809 C 3879.56 4.45719 6.88164 0
M  V30 27810 O 3879.17 5.7877 6.5624 0
M  V30 27811 C 3878.68 3.47768 6.11991 0
M  V30 27812 C 3879.39 3.39356 4.77615 0
M  V30 27813 N 3879.34 2.04571 4.15244 0
M  V30 27814 C 3879.19 1.98587 2.78314 0
M  V30 27815 O 3879.1 2.98134 2.08835 0
M  V30 27816 N 3879.15 0.714467 2.24925 0
M  V30 27817 C 3879.24 -0.470001 2.94169 0
M  V30 27818 O 3879.19 -1.55587 2.35195 0
M  V30 27819 C 3879.39 -0.312541 4.36783 0
M  V30 27820 C 3879.5 -1.57711 5.16352 0
M  V30 27821 C 3879.44 0.914512 4.92583 0
M  V30 27822 H 3882.18 3.41169 7.98575 0
M  V30 27823 H 3882.45 2.58295 6.41556 0
M  V30 27824 H 3881.58 5.02657 6.42673 0
M  V30 27825 H 3878.93 4.11637 4.08885 0
M  V30 27826 H 3878.65 2.49626 6.61679 0
M  V30 27827 H 3877.65 3.86566 6.00778 0
M  V30 27828 H 3879.49 4.29943 7.96918 0
M  V30 27829 H 3879.56 1.00937 6.00374 0
M  V30 27830 H 3878.53 -1.80153 5.63503 0
M  V30 27831 H 3880.27 -1.4566 5.94104 0
M  V30 27832 H 3879.78 -2.40664 4.49645 0
M  V30 27833 H 3879.04 0.647622 1.25697 0
M  V30 27834 P 3877.62 6.144 6.45285 0
M  V30 27835 O 3877.4 7.54673 6.86199 0
M  V30 27836 O 3876.83 5.12391 7.179 0
M  V30 27837 O 3877.37 5.99158 4.88404 0
M  V30 27838 C 3878.31 6.60234 3.96415 0
M  V30 27839 C 3877.58 7.08259 2.72856 0
M  V30 27840 O 3877.37 5.9427 1.83651 0
M  V30 27841 C 3876.18 7.64886 2.9555 0
M  V30 27842 O 3875.79 8.53963 1.90717 0
M  V30 27843 C 3875.3 6.4116 2.90739 0
M  V30 27844 C 3876.01 5.55375 1.86963 0
M  V30 27845 N 3875.96 4.09664 2.15742 0
M  V30 27846 H 3878.8 7.45574 4.45629 0
M  V30 27847 H 3879.07 5.86232 3.67314 0
M  V30 27848 H 3878.2 7.84412 2.24479 0
M  V30 27849 P 3874.24 8.7635 1.60911 0
M  V30 27850 O 3874.02 10.1388 1.11561 0
M  V30 27851 O 3873.45 8.36503 2.79617 0
M  V30 27852 O 3873.99 7.71806 0.42951 0
M  V30 27853 C 3874.93 7.67148 -0.673689 0
M  V30 27854 C 3874.2 7.33374 -1.95559 0
M  V30 27855 O 3873.99 5.88721 -2.00726 0
M  V30 27856 C 3872.8 7.92526 -2.10483 0
M  V30 27857 O 3872.41 8.02971 -3.47653 0
M  V30 27858 C 3871.92 6.89602 -1.41652 0
M  V30 27859 C 3872.63 5.59201 -1.75185 0
M  V30 27860 N 3872.58 4.58235 -0.662552 0
M  V30 27861 H 3875.42 8.65116 -0.777161 0
M  V30 27862 H 3875.69 6.90173 -0.474152 0
M  V30 27863 H 3874.82 7.66548 -2.79458 0
M  V30 27864 P 3870.86 8.03563 -3.84925 0
M  V30 27865 O 3870.64 8.85821 -5.0569 0
M  V30 27866 O 3870.07 8.41101 -2.65469 0
M  V30 27867 O 3870.61 6.4965 -4.18908 0
M  V30 27868 C 3871.55 5.81037 -5.05421 0
M  V30 27869 C 3870.82 4.78366 -5.89277 0
M  V30 27870 O 3870.61 3.58302 -5.08433 0
M  V30 27871 C 3869.42 5.17448 -6.36119 0
M  V30 27872 O 3869.03 4.45271 -7.53232 0
M  V30 27873 C 3868.54 4.74639 -5.19936 0
M  V30 27874 C 3869.25 3.49432 -4.70418 0
M  V30 27875 N 3869.2 3.32099 -3.22613 0
M  V30 27876 H 3872.04 6.54213 -5.71376 0
M  V30 27877 H 3872.31 5.30936 -4.43503 0
M  V30 27878 H 3871.44 4.55889 -6.76652 0
M  V30 27879 H 3868.79 2.61715 -5.17932 0
M  V30 27880 H 3868.51 5.52155 -4.41878 0
M  V30 27881 H 3867.51 4.51981 -5.53374 0
M  V30 27882 H 3869.35 6.25124 -6.55234 0
M  V30 27883 P 3867.48 4.23843 -7.83734 0
M  V30 27884 O 3867.26 4.19407 -9.29784 0
M  V30 27885 O 3866.69 5.24426 -7.09156 0
M  V30 27886 O 3867.23 2.7935 -7.20758 0
M  V30 27887 C 3868.17 1.7299 -7.50419 0
M  V30 27888 C 3867.44 0.406376 -7.57911 0
M  V30 27889 O 3867.23 -0.0897726 -6.21935 0
M  V30 27890 C 3866.04 0.447224 -8.1878 0
M  V30 27891 O 3865.65 -0.825065 -8.71101 0
M  V30 27892 C 3865.16 0.783801 -6.99623 0
M  V30 27893 C 3865.87 0.0619192 -5.85967 0
M  V30 27894 N 3865.82 0.7859 -4.56281 0
M  V30 27895 H 3868.66 1.93423 -8.4679 0
M  V30 27896 H 3868.93 1.68181 -6.71046 0
M  V30 27897 H 3868.06 -0.289041 -8.15388 0
M  V30 27898 P 3864.1 -1.17771 -8.83182 0
M  V30 27899 O 3863.88 -2.07206 -9.98732 0
M  V30 27900 O 3863.31 0.0743816 -8.81969 0
M  V30 27901 O 3863.85 -1.97652 -7.47304 0
M  V30 27902 C 3864.79 -3.01133 -7.08783 0
M  V30 27903 C 3864.06 -4.12613 -6.37049 0
M  V30 27904 O 3863.85 -3.72827 -4.97879 0
M  V30 27905 C 3862.66 -4.45085 -6.88694 0
M  V30 27906 O 3862.27 -5.7877 -6.5624 0
M  V30 27907 C 3861.78 -3.47817 -6.12078 0
M  V30 27908 C 3862.49 -3.39414 -4.77697 0
M  V30 27909 N 3862.44 -2.04615 -4.15333 0
M  V30 27910 H 3865.28 -3.41248 -7.98759 0
M  V30 27911 H 3865.55 -2.5837 -6.41742 0
M  V30 27912 H 3864.68 -5.02657 -6.42673 0
M  V30 27913 P 3860.72 -6.144 -6.45285 0
M  V30 27914 O 3860.5 -7.54673 -6.86199 0
M  V30 27915 O 3859.93 -5.12391 -7.179 0
M  V30 27916 O 3860.47 -5.99158 -4.88404 0
M  V30 27917 C 3861.41 -6.60234 -3.96415 0
M  V30 27918 C 3860.68 -7.08259 -2.72856 0
M  V30 27919 O 3860.47 -5.9427 -1.83651 0
M  V30 27920 C 3859.28 -7.64886 -2.9555 0
M  V30 27921 O 3858.89 -8.53963 -1.90717 0
M  V30 27922 C 3858.4 -6.4116 -2.90739 0
M  V30 27923 C 3859.11 -5.55375 -1.86963 0
M  V30 27924 N 3859.06 -4.09664 -2.15742 0
M  V30 27925 H 3861.9 -7.45574 -4.45629 0
M  V30 27926 H 3862.17 -5.86232 -3.67314 0
M  V30 27927 H 3861.3 -7.84412 -2.24479 0
M  V30 27928 P 3857.34 -8.7635 -1.60911 0
M  V30 27929 O 3857.12 -10.1388 -1.11561 0
M  V30 27930 O 3856.55 -8.36503 -2.79617 0
M  V30 27931 O 3857.09 -7.71806 -0.42951 0
M  V30 27932 C 3858.03 -7.67148 0.673689 0
M  V30 27933 C 3857.3 -7.33374 1.95559 0
M  V30 27934 O 3857.09 -5.88721 2.00726 0
M  V30 27935 C 3855.9 -7.92526 2.10483 0
M  V30 27936 O 3855.51 -8.02971 3.47653 0
M  V30 27937 C 3855.02 -6.89602 1.41652 0
M  V30 27938 C 3855.73 -5.59201 1.75185 0
M  V30 27939 N 3855.68 -4.58301 0.657969 0
M  V30 27940 H 3858.52 -8.65116 0.777161 0
M  V30 27941 H 3858.79 -6.9022 0.46725 0
M  V30 27942 H 3857.92 -7.66548 2.79458 0
M  V30 27943 H 3855.27 -5.16165 2.65183 0
M  V30 27944 H 3854.99 -7.06433 0.329384 0
M  V30 27945 H 3853.99 -6.90926 1.82021 0
M  V30 27946 H 3855.83 -8.90873 1.62657 0
M  V30 27947 P 3853.96 -8.03563 3.84925 0
M  V30 27948 O 3853.74 -8.85821 5.0569 0
M  V30 27949 O 3853.17 -8.41101 2.65469 0
M  V30 27950 O 3853.71 -6.4965 4.18908 0
M  V30 27951 C 3854.65 -5.80886 5.05289 0
M  V30 27952 C 3853.92 -4.78366 5.89277 0
M  V30 27953 O 3853.71 -3.58302 5.08433 0
M  V30 27954 C 3852.52 -5.16748 6.36559 0
M  V30 27955 O 3852.13 -4.45271 7.53232 0
M  V30 27956 C 3851.64 -4.74572 5.19863 0
M  V30 27957 C 3852.35 -3.49373 4.70338 0
M  V30 27958 N 3852.3 -3.31704 3.22876 0
M  V30 27959 C 3852.15 -2.03326 2.74871 0
M  V30 27960 O 3852.06 -1.06486 3.48076 0
M  V30 27961 N 3852.11 -1.91838 1.37456 0
M  V30 27962 C 3852.2 -2.94295 0.462035 0
M  V30 27963 C 3852.35 -4.25064 1.05249 0
M  V30 27964 C 3852.4 -4.40214 2.39192 0
M  V30 27965 H 3855.14 -6.54063 5.71245 0
M  V30 27966 H 3855.41 -5.30339 4.43905 0
M  V30 27967 H 3854.54 -4.55889 6.76652 0
M  V30 27968 H 3851.89 -2.6167 5.17842 0
M  V30 27969 H 3851.61 -5.52155 4.41878 0
M  V30 27970 H 3850.61 -4.51918 5.53297 0
M  V30 27971 H 3852.45 -6.25055 6.55162 0
M  V30 27972 H 3852.52 -5.39798 2.81523 0
M  V30 27973 P 3850.58 -4.23843 7.83734 0
M  V30 27974 O 3850.36 -4.19407 9.29784 0
M  V30 27975 O 3849.79 -5.24426 7.09156 0
M  V30 27976 O 3850.33 -2.7935 7.20758 0
M  V30 27977 C 3851.27 -1.7299 7.50419 0
M  V30 27978 C 3850.54 -0.406376 7.57911 0
M  V30 27979 O 3850.33 0.0897726 6.21935 0
M  V30 27980 C 3849.14 -0.447224 8.1878 0
M  V30 27981 O 3848.75 0.825065 8.71101 0
M  V30 27982 C 3848.26 -0.783801 6.99623 0
M  V30 27983 C 3848.97 -0.0619192 5.85967 0
M  V30 27984 N 3848.92 -0.7859 4.56281 0
M  V30 27985 H 3851.76 -1.93423 8.4679 0
M  V30 27986 H 3852.03 -1.68181 6.71046 0
M  V30 27987 H 3851.16 0.289041 8.15388 0
M  V30 27988 P 3847.2 1.17771 8.83182 0
M  V30 27989 O 3846.98 2.07206 9.98732 0
M  V30 27990 O 3846.41 -0.0743816 8.81969 0
M  V30 27991 O 3846.95 1.97652 7.47304 0
M  V30 27992 C 3847.89 3.01133 7.08783 0
M  V30 27993 C 3847.16 4.12613 6.37049 0
M  V30 27994 O 3846.95 3.72827 4.97879 0
M  V30 27995 C 3845.76 4.45085 6.88694 0
M  V30 27996 O 3845.37 5.7877 6.5624 0
M  V30 27997 C 3844.88 3.47817 6.12078 0
M  V30 27998 C 3845.59 3.39414 4.77697 0
M  V30 27999 N 3845.54 2.04199 4.15538 0
M  V30 28000 H 3848.38 3.41248 7.98759 0
M  V30 28001 H 3848.65 2.57728 6.42 0
M  V30 28002 H 3847.78 5.02657 6.42673 0
M  V30 28003 H 3845.13 4.11708 4.08956 0
M  V30 28004 H 3844.85 2.49626 6.61679 0
M  V30 28005 H 3843.85 3.8662 6.00862 0
M  V30 28006 H 3845.69 4.29991 7.97006 0
M  V30 28007 P 3843.82 6.144 6.45285 0
M  V30 28008 O 3843.6 7.54673 6.86199 0
M  V30 28009 O 3843.03 5.12391 7.179 0
M  V30 28010 O 3843.57 5.99158 4.88404 0
M  V30 28011 C 3844.51 6.60234 3.96415 0
M  V30 28012 C 3843.78 7.08259 2.72856 0
M  V30 28013 O 3843.57 5.9427 1.83651 0
M  V30 28014 C 3842.38 7.64886 2.9555 0
M  V30 28015 O 3841.99 8.53963 1.90717 0
M  V30 28016 C 3841.5 6.4116 2.90739 0
M  V30 28017 C 3842.21 5.55375 1.86963 0
M  V30 28018 N 3842.16 4.09448 2.16152 0
M  V30 28019 H 3845 7.45574 4.45629 0
M  V30 28020 H 3845.27 5.85864 3.679 0
M  V30 28021 H 3844.4 7.84412 2.24479 0
M  V30 28022 H 3841.75 5.73457 0.888562 0
M  V30 28023 H 3841.47 5.90877 3.88583 0
M  V30 28024 H 3840.47 6.6596 2.58858 0
M  V30 28025 H 3842.31 8.16339 3.92049 0
M  V30 28026 P 3840.44 8.7635 1.60911 0
M  V30 28027 O 3840.22 10.1388 1.11561 0
M  V30 28028 O 3839.65 8.36503 2.79617 0
M  V30 28029 O 3840.19 7.71806 0.42951 0
M  V30 28030 C 3841.13 7.66948 -0.673514 0
M  V30 28031 C 3840.4 7.33374 -1.95559 0
M  V30 28032 O 3840.19 5.88721 -2.00726 0
M  V30 28033 C 3839 7.92218 -2.1125 0
M  V30 28034 O 3838.61 8.02971 -3.47653 0
M  V30 28035 C 3838.12 6.89504 -1.41631 0
M  V30 28036 C 3838.83 5.59106 -1.75155 0
M  V30 28037 N 3838.78 4.58136 -0.662409 0
M  V30 28038 C 3838.63 3.26059 -1.02863 0
M  V30 28039 O 3838.54 2.90743 -2.19009 0
M  V30 28040 N 3838.59 2.35995 0.0155585 0
M  V30 28041 C 3838.68 2.65248 1.35603 0
M  V30 28042 O 3838.63 1.75605 2.20651 0
M  V30 28043 C 3838.83 4.05747 1.64698 0
M  V30 28044 C 3838.94 4.42345 3.09553 0
M  V30 28045 C 3838.88 4.96734 0.652411 0
M  V30 28046 H 3841.62 8.64917 -0.776982 0
M  V30 28047 H 3841.89 6.89974 -0.474015 0
M  V30 28048 H 3841.02 7.66548 -2.79458 0
M  V30 28049 H 3838.37 5.16076 -2.65138 0
M  V30 28050 H 3838.09 7.06433 -0.329384 0
M  V30 28051 H 3837.09 6.90829 -1.81996 0
M  V30 28052 H 3838.93 8.90774 -1.62639 0
M  V30 28053 H 3839 6.02181 0.895285 0
M  V30 28054 H 3837.97 4.80252 3.45468 0
M  V30 28055 H 3839.71 5.20015 3.22119 0
M  V30 28056 H 3839.22 3.53269 3.67833 0
M  V30 28057 H 3838.48 1.39558 -0.227499 0
M  V30 28058 P 3837.06 8.03563 -3.84925 0
M  V30 28059 O 3836.84 8.85821 -5.0569 0
M  V30 28060 O 3836.27 8.41101 -2.65469 0
M  V30 28061 O 3836.81 6.49734 -4.18962 0
M  V30 28062 C 3837.75 5.81037 -5.05421 0
M  V30 28063 C 3837.02 4.79018 -5.88876 0
M  V30 28064 O 3836.81 3.58359 -5.08515 0
M  V30 28065 C 3835.62 5.17448 -6.36119 0
M  V30 28066 O 3835.23 4.45322 -7.53318 0
M  V30 28067 C 3834.74 4.74639 -5.19936 0
M  V30 28068 C 3835.45 3.49432 -4.70418 0
M  V30 28069 N 3835.4 3.31776 -3.22945 0
M  V30 28070 C 3835.25 2.02742 -2.72939 0
M  V30 28071 O 3835.16 1.08301 -3.52749 0
M  V30 28072 N 3835.2 1.96117 -1.22063 0
M  V30 28073 C 3835.3 2.8878 -0.551566 0
M  V30 28074 N 3835.25 2.65609 0.750198 0
M  V30 28075 C 3835.45 4.22457 -1.03707 0
M  V30 28076 C 3835.5 4.37979 -2.39113 0
M  V30 28077 H 3838.24 6.54138 -5.7131 0
M  V30 28078 H 3838.51 5.30492 -4.44033 0
M  V30 28079 H 3837.64 4.55945 -6.76735 0
M  V30 28080 H 3834.99 2.6176 -5.18021 0
M  V30 28081 H 3834.71 5.52233 -4.41941 0
M  V30 28082 H 3833.71 4.52045 -5.53452 0
M  V30 28083 H 3835.55 6.25124 -6.55234 0
M  V30 28084 H 3835.62 5.37936 -2.80552 0
M  V30 28085 H 3835.52 5.07528 -0.359553 0
M  V30 28086 H 3835.13 1.69403 1.09847 0
M  V30 28087 H 3835.33 3.43701 1.41792 0
M  V30 28088 P 3833.68 4.23843 -7.83734 0
M  V30 28089 O 3833.46 4.19407 -9.29784 0
M  V30 28090 O 3832.89 5.24426 -7.09156 0
M  V30 28091 O 3833.43 2.79386 -7.20852 0
M  V30 28092 C 3834.37 1.7299 -7.50419 0
M  V30 28093 C 3833.64 0.41401 -7.5797 0
M  V30 28094 O 3833.43 -0.089787 -6.22035 0
M  V30 28095 C 3832.24 0.447224 -8.1878 0
M  V30 28096 O 3831.85 -0.825159 -8.71201 0
M  V30 28097 C 3831.36 0.783801 -6.99623 0
M  V30 28098 C 3832.07 0.0619192 -5.85967 0
M  V30 28099 N 3832.02 0.7859 -4.56281 0
M  V30 28100 C 3831.87 0.0359258 -3.39981 0
M  V30 28101 O 3831.78 -1.19723 -3.49038 0
M  V30 28102 N 3831.82 0.869151 -2.14025 0
M  V30 28103 C 3831.92 2.01207 -2.14363 0
M  V30 28104 N 3831.87 2.58978 -0.954287 0
M  V30 28105 C 3832.07 2.80817 -3.32215 0
M  V30 28106 C 3832.12 2.13785 -4.50884 0
M  V30 28107 H 3834.86 1.93401 -8.46693 0
M  V30 28108 H 3835.13 1.68181 -6.71046 0
M  V30 28109 H 3834.26 -0.289076 -8.15488 0
M  V30 28110 H 3831.61 -0.927166 -5.72947 0
M  V30 28111 H 3831.33 1.87 -6.82132 0
M  V30 28112 H 3830.33 0.404009 -7.13457 0
M  V30 28113 H 3832.17 1.20599 -8.97534 0
M  V30 28114 H 3832.24 2.70295 -5.43162 0
M  V30 28115 H 3832.14 3.89465 -3.27406 0
M  V30 28116 H 3831.75 2.01616 -0.107046 0
M  V30 28117 H 3831.95 3.61403 -0.873101 0
M  V30 28118 P 3830.3 -1.17771 -8.83182 0
M  V30 28119 O 3830.08 -2.07206 -9.98732 0
M  V30 28120 O 3829.51 0.0743816 -8.81969 0
M  V30 28121 O 3830.05 -1.97652 -7.47304 0
M  V30 28122 C 3830.99 -3.01133 -7.08783 0
M  V30 28123 C 3830.26 -4.12613 -6.37049 0
M  V30 28124 O 3830.05 -3.72827 -4.97879 0
M  V30 28125 C 3828.86 -4.45085 -6.88694 0
M  V30 28126 O 3828.47 -5.7877 -6.5624 0
M  V30 28127 C 3827.98 -3.47817 -6.12078 0
M  V30 28128 C 3828.69 -3.39414 -4.77697 0
M  V30 28129 N 3828.64 -2.04615 -4.15333 0
M  V30 28130 H 3831.48 -3.41248 -7.98759 0
M  V30 28131 H 3831.75 -2.5837 -6.41742 0
M  V30 28132 H 3830.88 -5.02657 -6.42673 0
M  V30 28133 P 3826.92 -6.144 -6.45285 0
M  V30 28134 O 3826.7 -7.54673 -6.86199 0
M  V30 28135 O 3826.13 -5.12391 -7.179 0
M  V30 28136 O 3826.67 -5.99158 -4.88404 0
M  V30 28137 C 3827.61 -6.60234 -3.96415 0
M  V30 28138 C 3826.88 -7.08259 -2.72856 0
M  V30 28139 O 3826.67 -5.9427 -1.83651 0
M  V30 28140 C 3825.48 -7.64886 -2.9555 0
M  V30 28141 O 3825.09 -8.53963 -1.90717 0
M  V30 28142 C 3824.6 -6.4116 -2.90739 0
M  V30 28143 C 3825.31 -5.55375 -1.86963 0
M  V30 28144 N 3825.26 -4.09664 -2.15742 0
M  V30 28145 H 3828.1 -7.45574 -4.45629 0
M  V30 28146 H 3828.37 -5.86232 -3.67314 0
M  V30 28147 H 3827.5 -7.84412 -2.24479 0
M  V30 28148 P 3823.54 -8.7635 -1.60911 0
M  V30 28149 O 3823.32 -10.1388 -1.11561 0
M  V30 28150 O 3822.75 -8.36503 -2.79617 0
M  V30 28151 O 3823.29 -7.71806 -0.42951 0
M  V30 28152 C 3824.23 -7.67148 0.673689 0
M  V30 28153 C 3823.5 -7.33374 1.95559 0
M  V30 28154 O 3823.29 -5.88721 2.00726 0
M  V30 28155 C 3822.1 -7.92526 2.10483 0
M  V30 28156 O 3821.71 -8.02971 3.47653 0
M  V30 28157 C 3821.22 -6.89602 1.41652 0
M  V30 28158 C 3821.93 -5.59201 1.75185 0
M  V30 28159 N 3821.88 -4.58301 0.657969 0
M  V30 28160 H 3824.72 -8.65116 0.777161 0
M  V30 28161 H 3824.99 -6.9022 0.46725 0
M  V30 28162 H 3824.12 -7.66548 2.79458 0
M  V30 28163 H 3821.47 -5.16165 2.65183 0
M  V30 28164 H 3821.19 -7.06433 0.329384 0
M  V30 28165 H 3820.19 -6.90926 1.82021 0
M  V30 28166 H 3822.03 -8.90873 1.62657 0
M  V30 28167 P 3820.16 -8.03563 3.84925 0
M  V30 28168 O 3819.94 -8.85821 5.0569 0
M  V30 28169 O 3819.37 -8.41101 2.65469 0
M  V30 28170 O 3819.91 -6.4965 4.18908 0
M  V30 28171 C 3820.85 -5.80886 5.05289 0
M  V30 28172 C 3820.12 -4.78366 5.89277 0
M  V30 28173 O 3819.91 -3.58302 5.08433 0
M  V30 28174 C 3818.72 -5.16748 6.36559 0
M  V30 28175 O 3818.33 -4.45271 7.53232 0
M  V30 28176 C 3817.84 -4.74572 5.19863 0
M  V30 28177 C 3818.55 -3.49373 4.70338 0
M  V30 28178 N 3818.5 -3.31704 3.22876 0
M  V30 28179 C 3818.35 -2.03326 2.74871 0
M  V30 28180 O 3818.26 -1.06486 3.48076 0
M  V30 28181 N 3818.31 -1.91838 1.37456 0
M  V30 28182 C 3818.4 -2.94295 0.462035 0
M  V30 28183 O 3818.35 -2.71763 -0.752928 0
M  V30 28184 C 3818.55 -4.25064 1.05249 0
M  V30 28185 C 3818.66 -5.39815 0.095697 0
M  V30 28186 C 3818.6 -4.40214 2.39192 0
M  V30 28187 H 3821.34 -6.54063 5.71245 0
M  V30 28188 H 3821.61 -5.30339 4.43905 0
M  V30 28189 H 3820.74 -4.55889 6.76652 0
M  V30 28190 H 3818.09 -2.6167 5.17842 0
M  V30 28191 H 3817.81 -5.52155 4.41878 0
M  V30 28192 H 3816.81 -4.51918 5.53297 0
M  V30 28193 H 3818.65 -6.25055 6.55162 0
M  V30 28194 H 3818.72 -5.39798 2.81523 0
M  V30 28195 H 3817.69 -5.91593 0.0279582 0
M  V30 28196 H 3819.43 -6.10038 0.450573 0
M  V30 28197 H 3818.94 -5.02007 -0.89937 0
M  V30 28198 H 3818.2 -0.995326 1.00435 0
M  V30 28199 P 3816.78 -4.23843 7.83734 0
M  V30 28200 O 3816.56 -4.19407 9.29784 0
M  V30 28201 O 3815.99 -5.24426 7.09156 0
M  V30 28202 O 3816.53 -2.7935 7.20758 0
M  V30 28203 C 3817.47 -1.7299 7.50419 0
M  V30 28204 C 3816.74 -0.406376 7.57911 0
M  V30 28205 O 3816.53 0.0897726 6.21935 0
M  V30 28206 C 3815.34 -0.447224 8.1878 0
M  V30 28207 O 3814.95 0.825065 8.71101 0
M  V30 28208 C 3814.46 -0.783801 6.99623 0
M  V30 28209 C 3815.17 -0.0619192 5.85967 0
M  V30 28210 N 3815.12 -0.7859 4.56281 0
M  V30 28211 H 3817.96 -1.93423 8.4679 0
M  V30 28212 H 3818.23 -1.68181 6.71046 0
M  V30 28213 H 3817.36 0.289041 8.15388 0
M  V30 28214 P 3813.4 1.17771 8.83182 0
M  V30 28215 O 3813.18 2.07206 9.98732 0
M  V30 28216 O 3812.61 -0.0743816 8.81969 0
M  V30 28217 O 3813.15 1.97652 7.47304 0
M  V30 28218 C 3814.09 3.01133 7.08783 0
M  V30 28219 C 3813.36 4.12613 6.37049 0
M  V30 28220 O 3813.15 3.72827 4.97879 0
M  V30 28221 C 3811.96 4.45085 6.88694 0
M  V30 28222 O 3811.57 5.7877 6.5624 0
M  V30 28223 C 3811.08 3.47817 6.12078 0
M  V30 28224 C 3811.79 3.39414 4.77697 0
M  V30 28225 N 3811.74 2.04199 4.15538 0
M  V30 28226 H 3814.58 3.41248 7.98759 0
M  V30 28227 H 3814.85 2.57728 6.42 0
M  V30 28228 H 3813.98 5.02657 6.42673 0
M  V30 28229 H 3811.33 4.11708 4.08956 0
M  V30 28230 H 3811.05 2.49626 6.61679 0
M  V30 28231 H 3810.05 3.8662 6.00862 0
M  V30 28232 H 3811.89 4.29991 7.97006 0
M  V30 28233 P 3810.02 6.144 6.45285 0
M  V30 28234 O 3809.8 7.54673 6.86199 0
M  V30 28235 O 3809.23 5.12391 7.179 0
M  V30 28236 O 3809.77 5.99158 4.88404 0
M  V30 28237 C 3810.71 6.60234 3.96415 0
M  V30 28238 C 3809.98 7.08259 2.72856 0
M  V30 28239 O 3809.77 5.9427 1.83651 0
M  V30 28240 C 3808.58 7.64886 2.9555 0
M  V30 28241 O 3808.19 8.53963 1.90717 0
M  V30 28242 C 3807.7 6.4116 2.90739 0
M  V30 28243 C 3808.41 5.55375 1.86963 0
M  V30 28244 N 3808.36 4.09664 2.15742 0
M  V30 28245 H 3811.2 7.45574 4.45629 0
M  V30 28246 H 3811.47 5.86232 3.67314 0
M  V30 28247 H 3810.6 7.84412 2.24479 0
M  V30 28248 P 3806.64 8.7635 1.60911 0
M  V30 28249 O 3806.42 10.1388 1.11561 0
M  V30 28250 O 3805.85 8.36503 2.79617 0
M  V30 28251 O 3806.39 7.71806 0.42951 0
M  V30 28252 C 3807.33 7.67148 -0.673689 0
M  V30 28253 C 3806.6 7.33374 -1.95559 0
M  V30 28254 O 3806.39 5.88721 -2.00726 0
M  V30 28255 C 3805.2 7.92526 -2.10483 0
M  V30 28256 O 3804.81 8.02971 -3.47653 0
M  V30 28257 C 3804.32 6.89602 -1.41652 0
M  V30 28258 C 3805.03 5.59201 -1.75185 0
M  V30 28259 N 3804.98 4.58301 -0.657969 0
M  V30 28260 C 3805.06 4.79019 0.692603 0
M  V30 28261 N 3804.99 3.69736 1.38998 0
M  V30 28262 C 3804.84 2.70474 0.438135 0
M  V30 28263 C 3804.71 1.30327 0.538142 0
M  V30 28264 N 3804.7 0.64304 1.69192 0
M  V30 28265 N 3804.59 0.611027 -0.605183 0
M  V30 28266 C 3804.6 1.27002 -1.75953 0
M  V30 28267 N 3804.72 2.56038 -1.98546 0
M  V30 28268 C 3804.84 3.22681 -0.822541 0
M  V30 28269 H 3807.82 8.65116 -0.777161 0
M  V30 28270 H 3808.09 6.9022 -0.46725 0
M  V30 28271 H 3807.22 7.66548 -2.79458 0
M  V30 28272 H 3804.57 5.16165 -2.65183 0
M  V30 28273 H 3804.29 7.06433 -0.329384 0
M  V30 28274 H 3803.29 6.90926 -1.82021 0
M  V30 28275 H 3805.13 8.90873 -1.62657 0
M  V30 28276 H 3805.17 5.77785 1.13874 0
M  V30 28277 H 3804.79 1.15585 2.57991 0
M  V30 28278 H 3804.6 -0.382989 1.69835 0
M  V30 28279 H 3804.49 0.653331 -2.64449 0
M  V30 28280 P 3803.26 8.03563 -3.84925 0
M  V30 28281 O 3803.04 8.85821 -5.0569 0
M  V30 28282 O 3802.47 8.41101 -2.65469 0
M  V30 28283 O 3803.01 6.4965 -4.18908 0
M  V30 28284 C 3803.95 5.81037 -5.05421 0
M  V30 28285 C 3803.22 4.78366 -5.89277 0
M  V30 28286 O 3803.01 3.58302 -5.08433 0
M  V30 28287 C 3801.82 5.17448 -6.36119 0
M  V30 28288 O 3801.43 4.45271 -7.53232 0
M  V30 28289 C 3800.94 4.74639 -5.19936 0
M  V30 28290 C 3801.65 3.49432 -4.70418 0
M  V30 28291 N 3801.6 3.31776 -3.22945 0
M  V30 28292 H 3804.44 6.54213 -5.71376 0
M  V30 28293 H 3804.71 5.30492 -4.44033 0
M  V30 28294 H 3803.84 4.55889 -6.76652 0
M  V30 28295 P 3799.88 4.23843 -7.83734 0
M  V30 28296 O 3799.66 4.19407 -9.29784 0
M  V30 28297 O 3799.09 5.24426 -7.09156 0
M  V30 28298 O 3799.63 2.7935 -7.20758 0
M  V30 28299 C 3800.57 1.72945 -7.50224 0
M  V30 28300 C 3799.84 0.406376 -7.57911 0
M  V30 28301 O 3799.63 -0.0897726 -6.21935 0
M  V30 28302 C 3798.44 0.438983 -8.18724 0
M  V30 28303 O 3798.05 -0.825065 -8.71101 0
M  V30 28304 C 3797.56 0.783689 -6.99524 0
M  V30 28305 C 3798.27 0.0619086 -5.85867 0
M  V30 28306 N 3798.22 0.78573 -4.56183 0
M  V30 28307 C 3798.07 0.0292889 -3.41887 0
M  V30 28308 O 3797.98 -1.18445 -3.4419 0
M  V30 28309 N 3798.03 0.744061 -2.23964 0
M  V30 28310 C 3798.12 2.10932 -2.10362 0
M  V30 28311 C 3798.27 2.8202 -3.34994 0
M  V30 28312 C 3798.32 2.15547 -4.52261 0
M  V30 28313 H 3801.06 1.93379 -8.46595 0
M  V30 28314 H 3801.33 1.68132 -6.70852 0
M  V30 28315 H 3800.46 -0.289041 -8.15388 0
M  V30 28316 H 3797.81 -0.926847 -5.72749 0
M  V30 28317 H 3797.53 1.86973 -6.82036 0
M  V30 28318 H 3796.53 0.403896 -7.13257 0
M  V30 28319 H 3798.37 1.20585 -8.97435 0
M  V30 28320 H 3798.44 2.71231 -5.45042 0
M  V30 28321 P 3796.5 -1.17771 -8.83182 0
M  V30 28322 O 3796.28 -2.07206 -9.98732 0
M  V30 28323 O 3795.71 0.0743816 -8.81969 0
M  V30 28324 O 3796.25 -1.97652 -7.47304 0
M  V30 28325 C 3797.19 -3.01133 -7.08783 0
M  V30 28326 C 3796.46 -4.12613 -6.37049 0
M  V30 28327 O 3796.25 -3.72827 -4.97879 0
M  V30 28328 C 3795.06 -4.45085 -6.88694 0
M  V30 28329 O 3794.67 -5.7877 -6.5624 0
M  V30 28330 C 3794.18 -3.47817 -6.12078 0
M  V30 28331 C 3794.89 -3.39414 -4.77697 0
M  V30 28332 N 3794.84 -2.04615 -4.15333 0
M  V30 28333 H 3797.68 -3.41248 -7.98759 0
M  V30 28334 H 3797.95 -2.5837 -6.41742 0
M  V30 28335 H 3797.08 -5.02657 -6.42673 0
M  V30 28336 P 3793.12 -6.144 -6.45285 0
M  V30 28337 O 3792.9 -7.54673 -6.86199 0
M  V30 28338 O 3792.33 -5.12391 -7.179 0
M  V30 28339 O 3792.87 -5.99158 -4.88404 0
M  V30 28340 C 3793.81 -6.60062 -3.96313 0
M  V30 28341 C 3793.08 -7.08259 -2.72856 0
M  V30 28342 O 3792.87 -5.9427 -1.83651 0
M  V30 28343 C 3791.68 -7.65087 -2.94749 0
M  V30 28344 O 3791.29 -8.53963 -1.90717 0
M  V30 28345 C 3790.8 -6.41069 -2.90698 0
M  V30 28346 C 3791.51 -5.5528 -1.86931 0
M  V30 28347 N 3791.46 -4.09575 -2.15696 0
M  V30 28348 C 3791.31 -3.24249 -1.08435 0
M  V30 28349 O 3791.22 -3.63946 0.0628747 0
M  V30 28350 N 3791.27 -1.90009 -1.39973 0
M  V30 28351 C 3791.36 -1.34884 -2.65614 0
M  V30 28352 C 3791.51 -2.3145 -3.71736 0
M  V30 28353 C 3791.56 -3.63518 -3.44754 0
M  V30 28354 H 3794.3 -7.45402 -4.45526 0
M  V30 28355 H 3794.57 -5.86062 -3.67208 0
M  V30 28356 H 3793.7 -7.84412 -2.24479 0
M  V30 28357 H 3791.05 -5.73358 -0.888409 0
M  V30 28358 H 3790.77 -5.90877 -3.88583 0
M  V30 28359 H 3789.77 -6.65867 -2.58821 0
M  V30 28360 H 3791.61 -8.16248 -3.92006 0
M  V30 28361 H 3791.68 -4.34551 -4.26383 0
M  V30 28362 P 3789.74 -8.7635 -1.60911 0
M  V30 28363 O 3789.52 -10.1388 -1.11561 0
M  V30 28364 O 3788.95 -8.36503 -2.79617 0
M  V30 28365 O 3789.49 -7.71806 -0.42951 0
M  V30 28366 C 3790.43 -7.67148 0.673689 0
M  V30 28367 C 3789.7 -7.33374 1.95559 0
M  V30 28368 O 3789.49 -5.88721 2.00726 0
M  V30 28369 C 3788.3 -7.92526 2.10483 0
M  V30 28370 O 3787.91 -8.02971 3.47653 0
M  V30 28371 C 3787.42 -6.89602 1.41652 0
M  V30 28372 C 3788.13 -5.59201 1.75185 0
M  V30 28373 N 3788.08 -4.58301 0.657969 0
M  V30 28374 H 3790.92 -8.65116 0.777161 0
M  V30 28375 H 3791.19 -6.9022 0.46725 0
M  V30 28376 H 3790.32 -7.66548 2.79458 0
M  V30 28377 H 3787.67 -5.16165 2.65183 0
M  V30 28378 H 3787.39 -7.06433 0.329384 0
M  V30 28379 H 3786.39 -6.90926 1.82021 0
M  V30 28380 H 3788.23 -8.90873 1.62657 0
M  V30 28381 P 3786.36 -8.03563 3.84925 0
M  V30 28382 O 3786.14 -8.85821 5.0569 0
M  V30 28383 O 3785.57 -8.41101 2.65469 0
M  V30 28384 O 3786.11 -6.4965 4.18908 0
M  V30 28385 C 3787.05 -5.80886 5.05289 0
M  V30 28386 C 3786.32 -4.78366 5.89277 0
M  V30 28387 O 3786.11 -3.58302 5.08433 0
M  V30 28388 C 3784.92 -5.16748 6.36559 0
M  V30 28389 O 3784.53 -4.45271 7.53232 0
M  V30 28390 C 3784.04 -4.74572 5.19863 0
M  V30 28391 C 3784.75 -3.49373 4.70338 0
M  V30 28392 N 3784.7 -3.31704 3.22876 0
M  V30 28393 C 3784.55 -2.03326 2.74871 0
M  V30 28394 O 3784.46 -1.06486 3.48076 0
M  V30 28395 N 3784.51 -1.91838 1.37456 0
M  V30 28396 C 3784.6 -2.94295 0.462035 0
M  V30 28397 O 3784.55 -2.71763 -0.752928 0
M  V30 28398 C 3784.75 -4.25064 1.05249 0
M  V30 28399 C 3784.86 -5.39815 0.095697 0
M  V30 28400 C 3784.8 -4.40214 2.39192 0
M  V30 28401 H 3787.54 -6.54063 5.71245 0
M  V30 28402 H 3787.81 -5.30339 4.43905 0
M  V30 28403 H 3786.94 -4.55889 6.76652 0
M  V30 28404 H 3784.29 -2.6167 5.17842 0
M  V30 28405 H 3784.01 -5.52155 4.41878 0
M  V30 28406 H 3783.01 -4.51918 5.53297 0
M  V30 28407 H 3784.85 -6.25055 6.55162 0
M  V30 28408 H 3784.92 -5.39798 2.81523 0
M  V30 28409 H 3783.89 -5.91593 0.0279582 0
M  V30 28410 H 3785.63 -6.10038 0.450573 0
M  V30 28411 H 3785.14 -5.02007 -0.89937 0
M  V30 28412 H 3784.4 -0.995326 1.00435 0
M  V30 28413 P 3782.98 -4.23843 7.83734 0
M  V30 28414 O 3782.76 -4.19407 9.29784 0
M  V30 28415 O 3782.19 -5.24426 7.09156 0
M  V30 28416 O 3782.73 -2.7935 7.20758 0
M  V30 28417 C 3783.67 -1.7299 7.50419 0
M  V30 28418 C 3782.94 -0.406376 7.57911 0
M  V30 28419 O 3782.73 0.0897726 6.21935 0
M  V30 28420 C 3781.54 -0.447224 8.1878 0
M  V30 28421 O 3781.15 0.825065 8.71101 0
M  V30 28422 C 3780.66 -0.783801 6.99623 0
M  V30 28423 C 3781.37 -0.0619192 5.85967 0
M  V30 28424 N 3781.32 -0.7859 4.56281 0
M  V30 28425 H 3784.16 -1.93423 8.4679 0
M  V30 28426 H 3784.43 -1.68181 6.71046 0
M  V30 28427 H 3783.56 0.289041 8.15388 0
M  V30 28428 P 3779.6 1.17771 8.83182 0
M  V30 28429 O 3779.38 2.07206 9.98732 0
M  V30 28430 O 3778.81 -0.0743816 8.81969 0
M  V30 28431 O 3779.35 1.97652 7.47304 0
M  V30 28432 C 3780.29 3.01133 7.08783 0
M  V30 28433 C 3779.56 4.12613 6.37049 0
M  V30 28434 O 3779.35 3.72827 4.97879 0
M  V30 28435 C 3778.16 4.45085 6.88694 0
M  V30 28436 O 3777.77 5.7877 6.5624 0
M  V30 28437 C 3777.28 3.47817 6.12078 0
M  V30 28438 C 3777.99 3.39414 4.77697 0
M  V30 28439 N 3777.94 2.04199 4.15538 0
M  V30 28440 H 3780.78 3.41248 7.98759 0
M  V30 28441 H 3781.05 2.57728 6.42 0
M  V30 28442 H 3780.18 5.02657 6.42673 0
M  V30 28443 H 3777.53 4.11708 4.08956 0
M  V30 28444 H 3777.25 2.49626 6.61679 0
M  V30 28445 H 3776.25 3.8662 6.00862 0
M  V30 28446 H 3778.09 4.29991 7.97006 0
M  V30 28447 P 3776.22 6.144 6.45285 0
M  V30 28448 O 3776 7.54673 6.86199 0
M  V30 28449 O 3775.43 5.12391 7.179 0
M  V30 28450 O 3775.97 5.99158 4.88404 0
M  V30 28451 C 3776.91 6.60234 3.96415 0
M  V30 28452 C 3776.18 7.08259 2.72856 0
M  V30 28453 O 3775.97 5.9427 1.83651 0
M  V30 28454 C 3774.78 7.64886 2.9555 0
M  V30 28455 O 3774.39 8.53963 1.90717 0
M  V30 28456 C 3773.9 6.4116 2.90739 0
M  V30 28457 C 3774.61 5.55375 1.86963 0
M  V30 28458 N 3774.56 4.09664 2.15742 0
M  V30 28459 H 3777.4 7.45574 4.45629 0
M  V30 28460 H 3777.67 5.86232 3.67314 0
M  V30 28461 H 3776.8 7.84412 2.24479 0
M  V30 28462 P 3772.84 8.7635 1.60911 0
M  V30 28463 O 3772.62 10.1388 1.11561 0
M  V30 28464 O 3772.05 8.36503 2.79617 0
M  V30 28465 O 3772.59 7.71806 0.42951 0
M  V30 28466 C 3773.53 7.67148 -0.673689 0
M  V30 28467 C 3772.8 7.33374 -1.95559 0
M  V30 28468 O 3772.59 5.88721 -2.00726 0
M  V30 28469 C 3771.4 7.92526 -2.10483 0
M  V30 28470 O 3771.01 8.02971 -3.47653 0
M  V30 28471 C 3770.52 6.89602 -1.41652 0
M  V30 28472 C 3771.23 5.59201 -1.75185 0
M  V30 28473 N 3771.18 4.58235 -0.662552 0
M  V30 28474 H 3774.02 8.65116 -0.777161 0
M  V30 28475 H 3774.29 6.90173 -0.474152 0
M  V30 28476 H 3773.42 7.66548 -2.79458 0
M  V30 28477 P 3769.46 8.03563 -3.84925 0
M  V30 28478 O 3769.24 8.85821 -5.0569 0
M  V30 28479 O 3768.67 8.41101 -2.65469 0
M  V30 28480 O 3769.21 6.4965 -4.18908 0
M  V30 28481 C 3770.15 5.80886 -5.05289 0
M  V30 28482 C 3769.42 4.78366 -5.89277 0
M  V30 28483 O 3769.21 3.58302 -5.08433 0
M  V30 28484 C 3768.02 5.16748 -6.36559 0
M  V30 28485 O 3767.63 4.45271 -7.53232 0
M  V30 28486 C 3767.14 4.74572 -5.19863 0
M  V30 28487 C 3767.85 3.49373 -4.70338 0
M  V30 28488 N 3767.8 3.31704 -3.22876 0
M  V30 28489 C 3767.65 2.03326 -2.74871 0
M  V30 28490 O 3767.56 1.06486 -3.48076 0
M  V30 28491 N 3767.61 1.91838 -1.37456 0
M  V30 28492 C 3767.7 2.94295 -0.462035 0
M  V30 28493 O 3767.65 2.71763 0.752928 0
M  V30 28494 C 3767.85 4.25064 -1.05249 0
M  V30 28495 C 3767.96 5.39815 -0.095697 0
M  V30 28496 C 3767.9 4.40214 -2.39192 0
M  V30 28497 H 3770.64 6.54063 -5.71245 0
M  V30 28498 H 3770.91 5.30339 -4.43905 0
M  V30 28499 H 3770.04 4.55889 -6.76652 0
M  V30 28500 H 3767.39 2.6167 -5.17842 0
M  V30 28501 H 3767.11 5.52155 -4.41878 0
M  V30 28502 H 3766.11 4.51918 -5.53297 0
M  V30 28503 H 3767.95 6.25055 -6.55162 0
M  V30 28504 H 3768.02 5.39798 -2.81523 0
M  V30 28505 H 3766.99 5.91593 -0.0279582 0
M  V30 28506 H 3768.73 6.10038 -0.450573 0
M  V30 28507 H 3768.24 5.02007 0.89937 0
M  V30 28508 H 3767.5 0.995326 -1.00435 0
M  V30 28509 P 3766.08 4.23843 -7.83734 0
M  V30 28510 O 3765.86 4.19407 -9.29784 0
M  V30 28511 O 3765.29 5.24426 -7.09156 0
M  V30 28512 O 3765.83 2.7935 -7.20758 0
M  V30 28513 C 3766.77 1.72945 -7.50224 0
M  V30 28514 C 3766.04 0.406376 -7.57911 0
M  V30 28515 O 3765.83 -0.0897726 -6.21935 0
M  V30 28516 C 3764.64 0.438983 -8.18724 0
M  V30 28517 O 3764.25 -0.825065 -8.71101 0
M  V30 28518 C 3763.76 0.783689 -6.99524 0
M  V30 28519 C 3764.47 0.0619086 -5.85867 0
M  V30 28520 N 3764.42 0.78573 -4.56183 0
M  V30 28521 C 3764.27 0.0292889 -3.41887 0
M  V30 28522 O 3764.18 -1.18445 -3.4419 0
M  V30 28523 N 3764.23 0.744061 -2.23964 0
M  V30 28524 C 3764.32 2.10932 -2.10362 0
M  V30 28525 O 3764.27 2.64117 -0.98825 0
M  V30 28526 C 3764.47 2.8202 -3.34994 0
M  V30 28527 C 3764.58 4.31095 -3.25037 0
M  V30 28528 C 3764.52 2.15547 -4.52261 0
M  V30 28529 H 3767.26 1.93379 -8.46595 0
M  V30 28530 H 3767.53 1.68132 -6.70852 0
M  V30 28531 H 3766.66 -0.289041 -8.15388 0
M  V30 28532 H 3764.01 -0.926847 -5.72749 0
M  V30 28533 H 3763.73 1.86973 -6.82036 0
M  V30 28534 H 3762.73 0.403896 -7.13257 0
M  V30 28535 H 3764.57 1.20585 -8.97435 0
M  V30 28536 H 3764.64 2.71231 -5.45042 0
M  V30 28537 H 3763.61 4.76966 -3.49992 0
M  V30 28538 H 3765.35 4.67047 -3.95024 0
M  V30 28539 H 3764.86 4.58996 -2.22312 0
M  V30 28540 H 3764.12 0.214893 -1.39758 0
M  V30 28541 P 3762.7 -1.17771 -8.83182 0
M  V30 28542 O 3762.48 -2.07206 -9.98732 0
M  V30 28543 O 3761.91 0.0743816 -8.81969 0
M  V30 28544 O 3762.45 -1.97652 -7.47304 0
M  V30 28545 C 3763.39 -3.01133 -7.08783 0
M  V30 28546 C 3762.66 -4.12613 -6.37049 0
M  V30 28547 O 3762.45 -3.72827 -4.97879 0
M  V30 28548 C 3761.26 -4.45085 -6.88694 0
M  V30 28549 O 3760.87 -5.7877 -6.5624 0
M  V30 28550 C 3760.38 -3.47817 -6.12078 0
M  V30 28551 C 3761.09 -3.39414 -4.77697 0
M  V30 28552 N 3761.04 -2.04615 -4.15333 0
M  V30 28553 H 3763.88 -3.41248 -7.98759 0
M  V30 28554 H 3764.15 -2.5837 -6.41742 0
M  V30 28555 H 3763.28 -5.02657 -6.42673 0
M  V30 28556 P 3759.32 -6.144 -6.45285 0
M  V30 28557 O 3759.1 -7.54673 -6.86199 0
M  V30 28558 O 3758.53 -5.12391 -7.179 0
M  V30 28559 O 3759.07 -5.99158 -4.88404 0
M  V30 28560 C 3760.01 -6.60234 -3.96415 0
M  V30 28561 C 3759.28 -7.08259 -2.72856 0
M  V30 28562 O 3759.07 -5.9427 -1.83651 0
M  V30 28563 C 3757.88 -7.64886 -2.9555 0
M  V30 28564 O 3757.49 -8.53963 -1.90717 0
M  V30 28565 C 3757 -6.4116 -2.90739 0
M  V30 28566 C 3757.71 -5.55375 -1.86963 0
M  V30 28567 N 3757.66 -4.09664 -2.15742 0
M  V30 28568 H 3760.5 -7.45574 -4.45629 0
M  V30 28569 H 3760.77 -5.86232 -3.67314 0
M  V30 28570 H 3759.9 -7.84412 -2.24479 0
M  V30 28571 P 3755.94 -8.7635 -1.60911 0
M  V30 28572 O 3755.72 -10.1388 -1.11561 0
M  V30 28573 O 3755.15 -8.36503 -2.79617 0
M  V30 28574 O 3755.69 -7.71806 -0.42951 0
M  V30 28575 C 3756.63 -7.66948 0.673514 0
M  V30 28576 C 3755.9 -7.33374 1.95559 0
M  V30 28577 O 3755.69 -5.88721 2.00726 0
M  V30 28578 C 3754.5 -7.92218 2.1125 0
M  V30 28579 O 3754.11 -8.02971 3.47653 0
M  V30 28580 C 3753.62 -6.89504 1.41631 0
M  V30 28581 C 3754.33 -5.59106 1.75155 0
M  V30 28582 N 3754.28 -4.58136 0.662409 0
M  V30 28583 C 3754.13 -3.26059 1.02863 0
M  V30 28584 O 3754.04 -2.90743 2.19009 0
M  V30 28585 N 3754.09 -2.35995 -0.0155585 0
M  V30 28586 C 3754.18 -2.65248 -1.35603 0
M  V30 28587 O 3754.13 -1.75605 -2.20651 0
M  V30 28588 C 3754.33 -4.05747 -1.64698 0
M  V30 28589 C 3754.44 -4.42345 -3.09553 0
M  V30 28590 C 3754.38 -4.96734 -0.652411 0
M  V30 28591 H 3757.12 -8.64917 0.776982 0
M  V30 28592 H 3757.39 -6.89974 0.474015 0
M  V30 28593 H 3756.52 -7.66548 2.79458 0
M  V30 28594 H 3753.87 -5.16076 2.65138 0
M  V30 28595 H 3753.59 -7.06433 0.329384 0
M  V30 28596 H 3752.59 -6.90829 1.81996 0
M  V30 28597 H 3754.43 -8.90774 1.62639 0
M  V30 28598 H 3754.5 -6.02181 -0.895285 0
M  V30 28599 H 3753.47 -4.80252 -3.45468 0
M  V30 28600 H 3755.21 -5.20015 -3.22119 0
M  V30 28601 H 3754.72 -3.53269 -3.67833 0
M  V30 28602 H 3753.98 -1.39558 0.227499 0
M  V30 28603 P 3752.56 -8.03563 3.84925 0
M  V30 28604 O 3752.34 -8.85821 5.0569 0
M  V30 28605 O 3751.77 -8.41101 2.65469 0
M  V30 28606 O 3752.31 -6.4965 4.18908 0
M  V30 28607 C 3753.25 -5.81037 5.05421 0
M  V30 28608 C 3752.52 -4.78366 5.89277 0
M  V30 28609 O 3752.31 -3.58302 5.08433 0
M  V30 28610 C 3751.12 -5.17448 6.36119 0
M  V30 28611 O 3750.73 -4.45271 7.53232 0
M  V30 28612 C 3750.24 -4.74639 5.19936 0
M  V30 28613 C 3750.95 -3.49432 4.70418 0
M  V30 28614 N 3750.9 -3.31776 3.22945 0
M  V30 28615 H 3753.74 -6.54213 5.71376 0
M  V30 28616 H 3754.01 -5.30492 4.44033 0
M  V30 28617 H 3753.14 -4.55889 6.76652 0
M  V30 28618 P 3749.18 -4.23843 7.83734 0
M  V30 28619 O 3748.96 -4.19407 9.29784 0
M  V30 28620 O 3748.39 -5.24426 7.09156 0
M  V30 28621 O 3748.93 -2.7935 7.20758 0
M  V30 28622 C 3749.87 -1.7299 7.50419 0
M  V30 28623 C 3749.14 -0.406376 7.57911 0
M  V30 28624 O 3748.93 0.0897726 6.21935 0
M  V30 28625 C 3747.74 -0.447224 8.1878 0
M  V30 28626 O 3747.35 0.825065 8.71101 0
M  V30 28627 C 3746.86 -0.783801 6.99623 0
M  V30 28628 C 3747.57 -0.0619192 5.85967 0
M  V30 28629 N 3747.52 -0.7859 4.56281 0
M  V30 28630 H 3750.36 -1.93423 8.4679 0
M  V30 28631 H 3750.63 -1.68181 6.71046 0
M  V30 28632 H 3749.76 0.289041 8.15388 0
M  V30 28633 P 3745.8 1.17771 8.83182 0
M  V30 28634 O 3745.58 2.07206 9.98732 0
M  V30 28635 O 3745.01 -0.0743816 8.81969 0
M  V30 28636 O 3745.55 1.97652 7.47304 0
M  V30 28637 C 3746.49 3.01133 7.08783 0
M  V30 28638 C 3745.76 4.12613 6.37049 0
M  V30 28639 O 3745.55 3.72827 4.97879 0
M  V30 28640 C 3744.36 4.45085 6.88694 0
M  V30 28641 O 3743.97 5.7877 6.5624 0
M  V30 28642 C 3743.48 3.47817 6.12078 0
M  V30 28643 C 3744.19 3.39414 4.77697 0
M  V30 28644 N 3744.14 2.04199 4.15538 0
M  V30 28645 H 3746.98 3.41248 7.98759 0
M  V30 28646 H 3747.25 2.57728 6.42 0
M  V30 28647 H 3746.38 5.02657 6.42673 0
M  V30 28648 H 3743.73 4.11708 4.08956 0
M  V30 28649 H 3743.45 2.49626 6.61679 0
M  V30 28650 H 3742.45 3.8662 6.00862 0
M  V30 28651 H 3744.29 4.29991 7.97006 0
M  V30 28652 P 3742.42 6.144 6.45285 0
M  V30 28653 O 3742.2 7.54673 6.86199 0
M  V30 28654 O 3741.63 5.12391 7.179 0
M  V30 28655 O 3742.17 5.99236 4.88467 0
M  V30 28656 C 3743.11 6.60234 3.96415 0
M  V30 28657 C 3742.38 7.08079 2.736 0
M  V30 28658 O 3742.17 5.94365 1.8368 0
M  V30 28659 C 3740.98 7.64886 2.9555 0
M  V30 28660 O 3740.59 8.5406 1.90739 0
M  V30 28661 C 3740.1 6.4116 2.90739 0
M  V30 28662 C 3740.81 5.55375 1.86963 0
M  V30 28663 N 3740.76 4.09664 2.15742 0
M  V30 28664 C 3740.61 3.22231 1.08477 0
M  V30 28665 O 3740.52 3.68951 -0.0600489 0
M  V30 28666 N 3740.56 1.76692 1.48799 0
M  V30 28667 C 3740.66 1.41695 2.57602 0
M  V30 28668 N 3740.61 0.107296 2.75791 0
M  V30 28669 C 3740.81 2.29178 3.69733 0
M  V30 28670 C 3740.86 3.62753 3.42653 0
M  V30 28671 H 3743.6 7.45488 4.45578 0
M  V30 28672 H 3743.87 5.86232 3.67314 0
M  V30 28673 H 3743 7.84508 2.24507 0
M  V30 28674 H 3740.35 5.73556 0.888715 0
M  V30 28675 H 3740.07 5.9096 3.88638 0
M  V30 28676 H 3739.07 6.66053 2.58894 0
M  V30 28677 H 3740.91 8.16339 3.92049 0
M  V30 28678 H 3740.98 4.33052 4.24913 0
M  V30 28679 H 3740.88 1.9103 4.71577 0
M  V30 28680 H 3740.49 -0.521221 1.95056 0
M  V30 28681 H 3740.69 -0.286429 3.70695 0
M  V30 28682 P 3739.04 8.7635 1.60911 0
M  V30 28683 O 3738.82 10.1388 1.11561 0
M  V30 28684 O 3738.25 8.36503 2.79617 0
M  V30 28685 O 3738.79 7.71806 0.42951 0
M  V30 28686 C 3739.73 7.67148 -0.673689 0
M  V30 28687 C 3739 7.33374 -1.95559 0
M  V30 28688 O 3738.79 5.88721 -2.00726 0
M  V30 28689 C 3737.6 7.92526 -2.10483 0
M  V30 28690 O 3737.21 8.02971 -3.47653 0
M  V30 28691 C 3736.72 6.89602 -1.41652 0
M  V30 28692 C 3737.43 5.59201 -1.75185 0
M  V30 28693 N 3737.38 4.58235 -0.662552 0
M  V30 28694 H 3740.22 8.65116 -0.777161 0
M  V30 28695 H 3740.49 6.90173 -0.474152 0
M  V30 28696 H 3739.62 7.66548 -2.79458 0
M  V30 28697 P 3735.66 8.03563 -3.84925 0
M  V30 28698 O 3735.44 8.85821 -5.0569 0
M  V30 28699 O 3734.87 8.41101 -2.65469 0
M  V30 28700 O 3735.41 6.4965 -4.18908 0
M  V30 28701 C 3736.35 5.80886 -5.05289 0
M  V30 28702 C 3735.62 4.78366 -5.89277 0
M  V30 28703 O 3735.41 3.58302 -5.08433 0
M  V30 28704 C 3734.22 5.16748 -6.36559 0
M  V30 28705 O 3733.83 4.45271 -7.53232 0
M  V30 28706 C 3733.34 4.74572 -5.19863 0
M  V30 28707 C 3734.05 3.49373 -4.70338 0
M  V30 28708 N 3734 3.31704 -3.22876 0
M  V30 28709 C 3733.85 2.03326 -2.74871 0
M  V30 28710 O 3733.76 1.06486 -3.48076 0
M  V30 28711 N 3733.81 1.91838 -1.37456 0
M  V30 28712 C 3733.9 2.94295 -0.462035 0
M  V30 28713 O 3733.85 2.71763 0.752928 0
M  V30 28714 C 3734.05 4.25064 -1.05249 0
M  V30 28715 C 3734.16 5.39815 -0.095697 0
M  V30 28716 C 3734.1 4.40214 -2.39192 0
M  V30 28717 H 3736.84 6.54063 -5.71245 0
M  V30 28718 H 3737.11 5.30339 -4.43905 0
M  V30 28719 H 3736.24 4.55889 -6.76652 0
M  V30 28720 H 3733.59 2.6167 -5.17842 0
M  V30 28721 H 3733.31 5.52155 -4.41878 0
M  V30 28722 H 3732.31 4.51918 -5.53297 0
M  V30 28723 H 3734.15 6.25055 -6.55162 0
M  V30 28724 H 3734.22 5.39798 -2.81523 0
M  V30 28725 H 3733.19 5.91593 -0.0279582 0
M  V30 28726 H 3734.93 6.10038 -0.450573 0
M  V30 28727 H 3734.44 5.02007 0.89937 0
M  V30 28728 H 3733.7 0.995326 -1.00435 0
M  V30 28729 P 3732.28 4.23843 -7.83734 0
M  V30 28730 O 3732.06 4.19407 -9.29784 0
M  V30 28731 O 3731.49 5.24426 -7.09156 0
M  V30 28732 O 3732.03 2.7935 -7.20758 0
M  V30 28733 C 3732.97 1.72945 -7.50224 0
M  V30 28734 C 3732.24 0.406376 -7.57911 0
M  V30 28735 O 3732.03 -0.0897726 -6.21935 0
M  V30 28736 C 3730.84 0.438983 -8.18724 0
M  V30 28737 O 3730.45 -0.825065 -8.71101 0
M  V30 28738 C 3729.96 0.783689 -6.99524 0
M  V30 28739 C 3730.67 0.0619086 -5.85867 0
M  V30 28740 N 3730.62 0.78573 -4.56183 0
M  V30 28741 C 3730.47 0.0292889 -3.41887 0
M  V30 28742 O 3730.38 -1.18445 -3.4419 0
M  V30 28743 N 3730.43 0.744061 -2.23964 0
M  V30 28744 C 3730.52 2.10932 -2.10362 0
M  V30 28745 O 3730.47 2.64117 -0.98825 0
M  V30 28746 C 3730.67 2.8202 -3.34994 0
M  V30 28747 C 3730.78 4.31095 -3.25037 0
M  V30 28748 C 3730.72 2.15547 -4.52261 0
M  V30 28749 H 3733.46 1.93379 -8.46595 0
M  V30 28750 H 3733.73 1.68132 -6.70852 0
M  V30 28751 H 3732.86 -0.289041 -8.15388 0
M  V30 28752 H 3730.21 -0.926847 -5.72749 0
M  V30 28753 H 3729.93 1.86973 -6.82036 0
M  V30 28754 H 3728.93 0.403896 -7.13257 0
M  V30 28755 H 3730.77 1.20585 -8.97435 0
M  V30 28756 H 3730.84 2.71231 -5.45042 0
M  V30 28757 H 3729.81 4.76966 -3.49992 0
M  V30 28758 H 3731.55 4.67047 -3.95024 0
M  V30 28759 H 3731.06 4.58996 -2.22312 0
M  V30 28760 H 3730.32 0.214893 -1.39758 0
M  V30 28761 P 3728.9 -1.17771 -8.83182 0
M  V30 28762 O 3728.68 -2.07206 -9.98732 0
M  V30 28763 O 3728.11 0.0743816 -8.81969 0
M  V30 28764 O 3728.65 -1.97652 -7.47304 0
M  V30 28765 C 3729.59 -3.01055 -7.08599 0
M  V30 28766 C 3728.86 -4.12613 -6.37049 0
M  V30 28767 O 3728.65 -3.72827 -4.97879 0
M  V30 28768 C 3727.46 -4.45719 -6.88164 0
M  V30 28769 O 3727.07 -5.7877 -6.5624 0
M  V30 28770 C 3726.58 -3.47768 -6.11991 0
M  V30 28771 C 3727.29 -3.39356 -4.77615 0
M  V30 28772 N 3727.24 -2.04571 -4.15244 0
M  V30 28773 C 3727.09 -1.98587 -2.78314 0
M  V30 28774 O 3727 -2.98134 -2.08835 0
M  V30 28775 N 3727.05 -0.714467 -2.24925 0
M  V30 28776 C 3727.14 0.470001 -2.94169 0
M  V30 28777 O 3727.09 1.55587 -2.35195 0
M  V30 28778 C 3727.29 0.312541 -4.36783 0
M  V30 28779 C 3727.4 1.57711 -5.16352 0
M  V30 28780 C 3727.34 -0.914512 -4.92583 0
M  V30 28781 H 3730.08 -3.41169 -7.98575 0
M  V30 28782 H 3730.35 -2.58295 -6.41556 0
M  V30 28783 H 3729.48 -5.02657 -6.42673 0
M  V30 28784 H 3726.83 -4.11637 -4.08885 0
M  V30 28785 H 3726.55 -2.49626 -6.61679 0
M  V30 28786 H 3725.55 -3.86566 -6.00778 0
M  V30 28787 H 3727.39 -4.29943 -7.96918 0
M  V30 28788 H 3727.46 -1.00937 -6.00374 0
M  V30 28789 H 3726.43 1.80153 -5.63503 0
M  V30 28790 H 3728.17 1.4566 -5.94104 0
M  V30 28791 H 3727.68 2.40664 -4.49645 0
M  V30 28792 H 3726.94 -0.647622 -1.25697 0
M  V30 28793 P 3725.52 -6.144 -6.45285 0
M  V30 28794 O 3725.3 -7.54673 -6.86199 0
M  V30 28795 O 3724.73 -5.12391 -7.179 0
M  V30 28796 O 3725.27 -5.99158 -4.88404 0
M  V30 28797 C 3726.21 -6.60234 -3.96415 0
M  V30 28798 C 3725.48 -7.08259 -2.72856 0
M  V30 28799 O 3725.27 -5.9427 -1.83651 0
M  V30 28800 C 3724.08 -7.64886 -2.9555 0
M  V30 28801 O 3723.69 -8.53963 -1.90717 0
M  V30 28802 C 3723.2 -6.4116 -2.90739 0
M  V30 28803 C 3723.91 -5.55375 -1.86963 0
M  V30 28804 N 3723.86 -4.09448 -2.16152 0
M  V30 28805 H 3726.7 -7.45574 -4.45629 0
M  V30 28806 H 3726.97 -5.85864 -3.679 0
M  V30 28807 H 3726.1 -7.84412 -2.24479 0
M  V30 28808 H 3723.45 -5.73457 -0.888562 0
M  V30 28809 H 3723.17 -5.90877 -3.88583 0
M  V30 28810 H 3722.17 -6.6596 -2.58858 0
M  V30 28811 H 3724.01 -8.16339 -3.92049 0
M  V30 28812 P 3722.14 -8.7635 -1.60911 0
M  V30 28813 O 3721.92 -10.1388 -1.11561 0
M  V30 28814 O 3721.35 -8.36503 -2.79617 0
M  V30 28815 O 3721.89 -7.71806 -0.42951 0
M  V30 28816 C 3722.83 -7.67148 0.673689 0
M  V30 28817 C 3722.1 -7.33374 1.95559 0
M  V30 28818 O 3721.89 -5.88721 2.00726 0
M  V30 28819 C 3720.7 -7.92526 2.10483 0
M  V30 28820 O 3720.31 -8.02971 3.47653 0
M  V30 28821 C 3719.82 -6.89602 1.41652 0
M  V30 28822 C 3720.53 -5.59201 1.75185 0
M  V30 28823 N 3720.48 -4.58235 0.662552 0
M  V30 28824 H 3723.32 -8.65116 0.777161 0
M  V30 28825 H 3723.59 -6.90173 0.474152 0
M  V30 28826 H 3722.72 -7.66548 2.79458 0
M  V30 28827 P 3718.76 -8.03563 3.84925 0
M  V30 28828 O 3718.54 -8.85821 5.0569 0
M  V30 28829 O 3717.97 -8.41101 2.65469 0
M  V30 28830 O 3718.51 -6.4965 4.18908 0
M  V30 28831 C 3719.45 -5.81037 5.05421 0
M  V30 28832 C 3718.72 -4.78366 5.89277 0
M  V30 28833 O 3718.51 -3.58302 5.08433 0
M  V30 28834 C 3717.32 -5.17448 6.36119 0
M  V30 28835 O 3716.93 -4.45271 7.53232 0
M  V30 28836 C 3716.44 -4.74639 5.19936 0
M  V30 28837 C 3717.15 -3.49432 4.70418 0
M  V30 28838 N 3717.1 -3.31776 3.22945 0
M  V30 28839 H 3719.94 -6.54213 5.71376 0
M  V30 28840 H 3720.21 -5.30492 4.44033 0
M  V30 28841 H 3719.34 -4.55889 6.76652 0
M  V30 28842 P 3715.38 -4.23843 7.83734 0
M  V30 28843 O 3715.16 -4.19407 9.29784 0
M  V30 28844 O 3714.59 -5.24426 7.09156 0
M  V30 28845 O 3715.13 -2.7935 7.20758 0
M  V30 28846 C 3716.07 -1.72945 7.50224 0
M  V30 28847 C 3715.34 -0.406376 7.57911 0
M  V30 28848 O 3715.13 0.0897726 6.21935 0
M  V30 28849 C 3713.94 -0.438983 8.18724 0
M  V30 28850 O 3713.55 0.825065 8.71101 0
M  V30 28851 C 3713.06 -0.783689 6.99524 0
M  V30 28852 C 3713.77 -0.0619086 5.85867 0
M  V30 28853 N 3713.72 -0.78573 4.56183 0
M  V30 28854 C 3713.57 -0.0292889 3.41887 0
M  V30 28855 O 3713.48 1.18445 3.4419 0
M  V30 28856 N 3713.53 -0.744061 2.23964 0
M  V30 28857 C 3713.62 -2.10932 2.10362 0
M  V30 28858 C 3713.77 -2.8202 3.34994 0
M  V30 28859 C 3713.82 -2.15547 4.52261 0
M  V30 28860 H 3716.56 -1.93379 8.46595 0
M  V30 28861 H 3716.83 -1.68132 6.70852 0
M  V30 28862 H 3715.96 0.289041 8.15388 0
M  V30 28863 H 3713.31 0.926847 5.72749 0
M  V30 28864 H 3713.03 -1.86973 6.82036 0
M  V30 28865 H 3712.04 -0.403896 7.13257 0
M  V30 28866 H 3713.87 -1.20585 8.97435 0
M  V30 28867 H 3713.94 -2.71231 5.45042 0
M  V30 28868 P 3712 1.17771 8.83182 0
M  V30 28869 O 3711.78 2.07206 9.98732 0
M  V30 28870 O 3711.21 -0.0743816 8.81969 0
M  V30 28871 O 3711.75 1.97652 7.47304 0
M  V30 28872 C 3712.69 3.01133 7.08783 0
M  V30 28873 C 3711.96 4.12613 6.37049 0
M  V30 28874 O 3711.75 3.72827 4.97879 0
M  V30 28875 C 3710.56 4.45085 6.88694 0
M  V30 28876 O 3710.17 5.7877 6.5624 0
M  V30 28877 C 3709.68 3.47817 6.12078 0
M  V30 28878 C 3710.39 3.39414 4.77697 0
M  V30 28879 N 3710.34 2.04615 4.15333 0
M  V30 28880 H 3713.18 3.41248 7.98759 0
M  V30 28881 H 3713.45 2.5837 6.41742 0
M  V30 28882 H 3712.58 5.02657 6.42673 0
M  V30 28883 P 3708.62 6.144 6.45285 0
M  V30 28884 O 3708.4 7.54673 6.86199 0
M  V30 28885 O 3707.83 5.12391 7.179 0
M  V30 28886 O 3708.37 5.99158 4.88404 0
M  V30 28887 C 3709.31 6.60062 3.96313 0
M  V30 28888 C 3708.58 7.08259 2.72856 0
M  V30 28889 O 3708.37 5.9427 1.83651 0
M  V30 28890 C 3707.18 7.65087 2.94749 0
M  V30 28891 O 3706.79 8.53963 1.90717 0
M  V30 28892 C 3706.3 6.41069 2.90698 0
M  V30 28893 C 3707.01 5.5528 1.86931 0
M  V30 28894 N 3706.96 4.09575 2.15696 0
M  V30 28895 C 3706.81 3.24249 1.08435 0
M  V30 28896 O 3706.72 3.63946 -0.0628747 0
M  V30 28897 N 3706.77 1.90009 1.39973 0
M  V30 28898 C 3706.86 1.34884 2.65614 0
M  V30 28899 O 3706.81 0.123716 2.81728 0
M  V30 28900 C 3707.01 2.3145 3.71736 0
M  V30 28901 C 3707.12 1.75913 5.10438 0
M  V30 28902 C 3707.06 3.63518 3.44754 0
M  V30 28903 H 3709.8 7.45402 4.45526 0
M  V30 28904 H 3710.07 5.86062 3.67208 0
M  V30 28905 H 3709.2 7.84412 2.24479 0
M  V30 28906 H 3706.55 5.73358 0.888409 0
M  V30 28907 H 3706.27 5.90877 3.88583 0
M  V30 28908 H 3705.28 6.65867 2.58821 0
M  V30 28909 H 3707.11 8.16248 3.92006 0
M  V30 28910 H 3707.18 4.34551 4.26383 0
M  V30 28911 H 3706.15 1.85471 5.61775 0
M  V30 28912 H 3707.89 2.31364 5.66257 0
M  V30 28913 H 3707.4 0.695936 5.05229 0
M  V30 28914 H 3706.66 1.26277 0.63625 0
M  V30 28915 P 3705.24 8.7635 1.60911 0
M  V30 28916 O 3705.02 10.1388 1.11561 0
M  V30 28917 O 3704.45 8.36503 2.79617 0
M  V30 28918 O 3704.99 7.71806 0.42951 0
M  V30 28919 C 3705.93 7.66948 -0.673514 0
M  V30 28920 C 3705.2 7.33374 -1.95559 0
M  V30 28921 O 3704.99 5.88721 -2.00726 0
M  V30 28922 C 3703.8 7.92218 -2.1125 0
M  V30 28923 O 3703.41 8.02971 -3.47653 0
M  V30 28924 C 3702.92 6.89504 -1.41631 0
M  V30 28925 C 3703.63 5.59106 -1.75155 0
M  V30 28926 N 3703.58 4.58136 -0.662409 0
M  V30 28927 C 3703.43 3.26059 -1.02863 0
M  V30 28928 O 3703.34 2.90743 -2.19009 0
M  V30 28929 N 3703.39 2.35995 0.0155585 0
M  V30 28930 C 3703.48 2.65248 1.35603 0
M  V30 28931 O 3703.43 1.75605 2.20651 0
M  V30 28932 C 3703.63 4.05747 1.64698 0
M  V30 28933 C 3703.74 4.42345 3.09553 0
M  V30 28934 C 3703.68 4.96734 0.652411 0
M  V30 28935 H 3706.42 8.64917 -0.776982 0
M  V30 28936 H 3706.69 6.89974 -0.474015 0
M  V30 28937 H 3705.82 7.66548 -2.79458 0
M  V30 28938 H 3703.17 5.16076 -2.65138 0
M  V30 28939 H 3702.89 7.06433 -0.329384 0
M  V30 28940 H 3701.9 6.90829 -1.81996 0
M  V30 28941 H 3703.73 8.90774 -1.62639 0
M  V30 28942 H 3703.8 6.02181 0.895285 0
M  V30 28943 H 3702.77 4.80252 3.45468 0
M  V30 28944 H 3704.51 5.20015 3.22119 0
M  V30 28945 H 3704.02 3.53269 3.67833 0
M  V30 28946 H 3703.28 1.39558 -0.227499 0
M  V30 28947 P 3701.86 8.03563 -3.84925 0
M  V30 28948 O 3701.64 8.85821 -5.0569 0
M  V30 28949 O 3701.07 8.41101 -2.65469 0
M  V30 28950 O 3701.61 6.4965 -4.18908 0
M  V30 28951 C 3702.55 5.81037 -5.05421 0
M  V30 28952 C 3701.82 4.78366 -5.89277 0
M  V30 28953 O 3701.61 3.58302 -5.08433 0
M  V30 28954 C 3700.42 5.17448 -6.36119 0
M  V30 28955 O 3700.03 4.45271 -7.53232 0
M  V30 28956 C 3699.54 4.74639 -5.19936 0
M  V30 28957 C 3700.25 3.49432 -4.70418 0
M  V30 28958 N 3700.2 3.31776 -3.22945 0
M  V30 28959 H 3703.04 6.54213 -5.71376 0
M  V30 28960 H 3703.31 5.30492 -4.44033 0
M  V30 28961 H 3702.44 4.55889 -6.76652 0
M  V30 28962 P 3698.48 4.23843 -7.83734 0
M  V30 28963 O 3698.26 4.19407 -9.29784 0
M  V30 28964 O 3697.69 5.24426 -7.09156 0
M  V30 28965 O 3698.23 2.7935 -7.20758 0
M  V30 28966 C 3699.17 1.72945 -7.50224 0
M  V30 28967 C 3698.44 0.406376 -7.57911 0
M  V30 28968 O 3698.23 -0.0897726 -6.21935 0
M  V30 28969 C 3697.04 0.438983 -8.18724 0
M  V30 28970 O 3696.65 -0.825065 -8.71101 0
M  V30 28971 C 3696.16 0.783689 -6.99524 0
M  V30 28972 C 3696.87 0.0619086 -5.85867 0
M  V30 28973 N 3696.82 0.78573 -4.56183 0
M  V30 28974 C 3696.67 0.0292889 -3.41887 0
M  V30 28975 O 3696.58 -1.18445 -3.4419 0
M  V30 28976 N 3696.63 0.744061 -2.23964 0
M  V30 28977 C 3696.72 2.10932 -2.10362 0
M  V30 28978 C 3696.87 2.8202 -3.34994 0
M  V30 28979 C 3696.92 2.15547 -4.52261 0
M  V30 28980 H 3699.66 1.93379 -8.46595 0
M  V30 28981 H 3699.93 1.68132 -6.70852 0
M  V30 28982 H 3699.06 -0.289041 -8.15388 0
M  V30 28983 H 3696.41 -0.926847 -5.72749 0
M  V30 28984 H 3696.13 1.86973 -6.82036 0
M  V30 28985 H 3695.14 0.403896 -7.13257 0
M  V30 28986 H 3696.97 1.20585 -8.97435 0
M  V30 28987 H 3697.04 2.71231 -5.45042 0
M  V30 28988 P 3695.1 -1.17771 -8.83182 0
M  V30 28989 O 3694.88 -2.07206 -9.98732 0
M  V30 28990 O 3694.31 0.0743816 -8.81969 0
M  V30 28991 O 3694.85 -1.97652 -7.47304 0
M  V30 28992 C 3695.79 -3.01055 -7.08599 0
M  V30 28993 C 3695.06 -4.12613 -6.37049 0
M  V30 28994 O 3694.85 -3.72827 -4.97879 0
M  V30 28995 C 3693.66 -4.45719 -6.88164 0
M  V30 28996 O 3693.27 -5.7877 -6.5624 0
M  V30 28997 C 3692.78 -3.47768 -6.11991 0
M  V30 28998 C 3693.49 -3.39356 -4.77615 0
M  V30 28999 N 3693.44 -2.04571 -4.15244 0
M  V30 29000 C 3693.29 -1.98587 -2.78314 0
M  V30 29001 O 3693.2 -2.98134 -2.08835 0
M  V30 29002 N 3693.25 -0.714467 -2.24925 0
M  V30 29003 C 3693.34 0.470001 -2.94169 0
M  V30 29004 O 3693.29 1.55587 -2.35195 0
M  V30 29005 C 3693.49 0.312541 -4.36783 0
M  V30 29006 C 3693.6 1.57711 -5.16352 0
M  V30 29007 C 3693.54 -0.914512 -4.92583 0
M  V30 29008 H 3696.28 -3.41169 -7.98575 0
M  V30 29009 H 3696.55 -2.58295 -6.41556 0
M  V30 29010 H 3695.68 -5.02657 -6.42673 0
M  V30 29011 H 3693.03 -4.11637 -4.08885 0
M  V30 29012 H 3692.75 -2.49626 -6.61679 0
M  V30 29013 H 3691.76 -3.86566 -6.00778 0
M  V30 29014 H 3693.59 -4.29943 -7.96918 0
M  V30 29015 H 3693.66 -1.00937 -6.00374 0
M  V30 29016 H 3692.63 1.80153 -5.63503 0
M  V30 29017 H 3694.37 1.4566 -5.94104 0
M  V30 29018 H 3693.88 2.40664 -4.49645 0
M  V30 29019 H 3693.14 -0.647622 -1.25697 0
M  V30 29020 P 3691.72 -6.144 -6.45285 0
M  V30 29021 O 3691.5 -7.54673 -6.86199 0
M  V30 29022 O 3690.93 -5.12391 -7.179 0
M  V30 29023 O 3691.47 -5.99158 -4.88404 0
M  V30 29024 C 3692.41 -6.60234 -3.96415 0
M  V30 29025 C 3691.68 -7.08259 -2.72856 0
M  V30 29026 O 3691.47 -5.9427 -1.83651 0
M  V30 29027 C 3690.28 -7.64886 -2.9555 0
M  V30 29028 O 3689.89 -8.53963 -1.90717 0
M  V30 29029 C 3689.4 -6.4116 -2.90739 0
M  V30 29030 C 3690.11 -5.55375 -1.86963 0
M  V30 29031 N 3690.06 -4.09664 -2.15742 0
M  V30 29032 H 3692.9 -7.45574 -4.45629 0
M  V30 29033 H 3693.17 -5.86232 -3.67314 0
M  V30 29034 H 3692.3 -7.84412 -2.24479 0
M  V30 29035 P 3688.34 -8.7635 -1.60911 0
M  V30 29036 O 3688.12 -10.1388 -1.11561 0
M  V30 29037 O 3687.55 -8.36503 -2.79617 0
M  V30 29038 O 3688.09 -7.71806 -0.42951 0
M  V30 29039 C 3689.03 -7.67148 0.673689 0
M  V30 29040 C 3688.3 -7.33374 1.95559 0
M  V30 29041 O 3688.09 -5.88721 2.00726 0
M  V30 29042 C 3686.9 -7.92526 2.10483 0
M  V30 29043 O 3686.51 -8.02971 3.47653 0
M  V30 29044 C 3686.02 -6.89602 1.41652 0
M  V30 29045 C 3686.73 -5.59201 1.75185 0
M  V30 29046 N 3686.68 -4.58301 0.657969 0
M  V30 29047 C 3686.76 -4.79019 -0.692603 0
M  V30 29048 N 3686.69 -3.69736 -1.38998 0
M  V30 29049 C 3686.54 -2.70474 -0.438135 0
M  V30 29050 C 3686.41 -1.30327 -0.538142 0
M  V30 29051 N 3686.4 -0.64304 -1.69192 0
M  V30 29052 N 3686.29 -0.611027 0.605183 0
M  V30 29053 C 3686.3 -1.27002 1.75953 0
M  V30 29054 N 3686.42 -2.56038 1.98546 0
M  V30 29055 C 3686.54 -3.22681 0.822541 0
M  V30 29056 H 3689.52 -8.65116 0.777161 0
M  V30 29057 H 3689.79 -6.9022 0.46725 0
M  V30 29058 H 3688.92 -7.66548 2.79458 0
M  V30 29059 H 3686.27 -5.16165 2.65183 0
M  V30 29060 H 3685.99 -7.06433 0.329384 0
M  V30 29061 H 3685 -6.90926 1.82021 0
M  V30 29062 H 3686.83 -8.90873 1.62657 0
M  V30 29063 H 3686.87 -5.77785 -1.13874 0
M  V30 29064 H 3686.49 -1.15585 -2.57991 0
M  V30 29065 H 3686.3 0.382989 -1.69835 0
M  V30 29066 H 3686.19 -0.653331 2.64449 0
M  V30 29067 P 3684.96 -8.03563 3.84925 0
M  V30 29068 O 3684.74 -8.85821 5.0569 0
M  V30 29069 O 3684.17 -8.41101 2.65469 0
M  V30 29070 O 3684.71 -6.4965 4.18908 0
M  V30 29071 C 3685.65 -5.81037 5.05421 0
M  V30 29072 C 3684.92 -4.78366 5.89277 0
M  V30 29073 O 3684.71 -3.58302 5.08433 0
M  V30 29074 C 3683.52 -5.17448 6.36119 0
M  V30 29075 O 3683.13 -4.45271 7.53232 0
M  V30 29076 C 3682.64 -4.74639 5.19936 0
M  V30 29077 C 3683.35 -3.49432 4.70418 0
M  V30 29078 N 3683.3 -3.31776 3.22945 0
M  V30 29079 H 3686.14 -6.54213 5.71376 0
M  V30 29080 H 3686.41 -5.30492 4.44033 0
M  V30 29081 H 3685.54 -4.55889 6.76652 0
M  V30 29082 P 3681.58 -4.23843 7.83734 0
M  V30 29083 O 3681.36 -4.19407 9.29784 0
M  V30 29084 O 3680.79 -5.24426 7.09156 0
M  V30 29085 O 3681.33 -2.7935 7.20758 0
M  V30 29086 C 3682.27 -1.7299 7.50419 0
M  V30 29087 C 3681.54 -0.406376 7.57911 0
M  V30 29088 O 3681.33 0.0897726 6.21935 0
M  V30 29089 C 3680.14 -0.447224 8.1878 0
M  V30 29090 O 3679.75 0.825065 8.71101 0
M  V30 29091 C 3679.26 -0.783801 6.99623 0
M  V30 29092 C 3679.97 -0.0619192 5.85967 0
M  V30 29093 N 3679.92 -0.7859 4.56281 0
M  V30 29094 H 3682.76 -1.93423 8.4679 0
M  V30 29095 H 3683.03 -1.68181 6.71046 0
M  V30 29096 H 3682.16 0.289041 8.15388 0
M  V30 29097 P 3678.2 1.17771 8.83182 0
M  V30 29098 O 3677.98 2.07206 9.98732 0
M  V30 29099 O 3677.41 -0.0743816 8.81969 0
M  V30 29100 O 3677.95 1.97652 7.47304 0
M  V30 29101 C 3678.89 3.01133 7.08783 0
M  V30 29102 C 3678.16 4.12613 6.37049 0
M  V30 29103 O 3677.95 3.72827 4.97879 0
M  V30 29104 C 3676.76 4.45085 6.88694 0
M  V30 29105 O 3676.37 5.7877 6.5624 0
M  V30 29106 C 3675.88 3.47817 6.12078 0
M  V30 29107 C 3676.59 3.39414 4.77697 0
M  V30 29108 N 3676.54 2.04615 4.15333 0
M  V30 29109 H 3679.38 3.41248 7.98759 0
M  V30 29110 H 3679.65 2.5837 6.41742 0
M  V30 29111 H 3678.78 5.02657 6.42673 0
M  V30 29112 P 3674.82 6.144 6.45285 0
M  V30 29113 O 3674.6 7.54673 6.86199 0
M  V30 29114 O 3674.03 5.12391 7.179 0
M  V30 29115 O 3674.57 5.99158 4.88404 0
M  V30 29116 C 3675.51 6.60234 3.96415 0
M  V30 29117 C 3674.78 7.08259 2.72856 0
M  V30 29118 O 3674.57 5.9427 1.83651 0
M  V30 29119 C 3673.38 7.64886 2.9555 0
M  V30 29120 O 3672.99 8.53963 1.90717 0
M  V30 29121 C 3672.5 6.4116 2.90739 0
M  V30 29122 C 3673.21 5.55375 1.86963 0
M  V30 29123 N 3673.16 4.09664 2.15742 0
M  V30 29124 H 3676 7.45574 4.45629 0
M  V30 29125 H 3676.27 5.86232 3.67314 0
M  V30 29126 H 3675.4 7.84412 2.24479 0
M  V30 29127 P 3671.44 8.7635 1.60911 0
M  V30 29128 O 3671.22 10.1388 1.11561 0
M  V30 29129 O 3670.65 8.36503 2.79617 0
M  V30 29130 O 3671.19 7.71806 0.42951 0
M  V30 29131 C 3672.13 7.66948 -0.673514 0
M  V30 29132 C 3671.4 7.33374 -1.95559 0
M  V30 29133 O 3671.19 5.88721 -2.00726 0
M  V30 29134 C 3670 7.92218 -2.1125 0
M  V30 29135 O 3669.61 8.02971 -3.47653 0
M  V30 29136 C 3669.12 6.89504 -1.41631 0
M  V30 29137 C 3669.83 5.59106 -1.75155 0
M  V30 29138 N 3669.78 4.58136 -0.662409 0
M  V30 29139 C 3669.63 3.26059 -1.02863 0
M  V30 29140 O 3669.54 2.90743 -2.19009 0
M  V30 29141 N 3669.59 2.35995 0.0155585 0
M  V30 29142 C 3669.68 2.65248 1.35603 0
M  V30 29143 C 3669.83 4.05747 1.64698 0
M  V30 29144 C 3669.88 4.96734 0.652411 0
M  V30 29145 H 3672.62 8.64917 -0.776982 0
M  V30 29146 H 3672.89 6.89974 -0.474015 0
M  V30 29147 H 3672.02 7.66548 -2.79458 0
M  V30 29148 H 3669.37 5.16076 -2.65138 0
M  V30 29149 H 3669.09 7.06433 -0.329384 0
M  V30 29150 H 3668.1 6.90829 -1.81996 0
M  V30 29151 H 3669.93 8.90774 -1.62639 0
M  V30 29152 H 3670 6.02181 0.895285 0
M  V30 29153 P 3668.06 8.03563 -3.84925 0
M  V30 29154 O 3667.84 8.85821 -5.0569 0
M  V30 29155 O 3667.27 8.41101 -2.65469 0
M  V30 29156 O 3667.81 6.4965 -4.18908 0
M  V30 29157 C 3668.75 5.81037 -5.05421 0
M  V30 29158 C 3668.02 4.78366 -5.89277 0
M  V30 29159 O 3667.81 3.58302 -5.08433 0
M  V30 29160 C 3666.62 5.17448 -6.36119 0
M  V30 29161 O 3666.23 4.45271 -7.53232 0
M  V30 29162 C 3665.74 4.74639 -5.19936 0
M  V30 29163 C 3666.45 3.49432 -4.70418 0
M  V30 29164 N 3666.4 3.32099 -3.22613 0
M  V30 29165 C 3666.48 4.28245 -2.25527 0
M  V30 29166 N 3666.41 3.80823 -1.04874 0
M  V30 29167 C 3666.26 2.44571 -1.23535 0
M  V30 29168 C 3666.13 1.37068 -0.330675 0
M  V30 29169 N 3666.12 1.51472 0.990824 0
M  V30 29170 N 3666.01 0.138614 -0.848756 0
M  V30 29171 C 3666.02 -0.00675923 -2.16999 0
M  V30 29172 N 3666.14 0.904372 -3.11122 0
M  V30 29173 C 3666.26 2.12707 -2.56212 0
M  V30 29174 H 3669.24 6.54213 -5.71376 0
M  V30 29175 H 3669.51 5.30936 -4.43503 0
M  V30 29176 H 3668.64 4.55889 -6.76652 0
M  V30 29177 H 3665.99 2.61715 -5.17932 0
M  V30 29178 H 3665.71 5.52155 -4.41878 0
M  V30 29179 H 3664.72 4.51981 -5.53374 0
M  V30 29180 H 3666.55 6.25124 -6.55234 0
M  V30 29181 H 3666.59 5.34372 -2.47488 0
M  V30 29182 H 3666.21 2.45153 1.4078 0
M  V30 29183 H 3666.02 0.688422 1.59911 0
M  V30 29184 H 3665.91 -1.02584 -2.52346 0
M  V30 29185 P 3664.68 4.23843 -7.83734 0
M  V30 29186 O 3664.46 4.19407 -9.29784 0
M  V30 29187 O 3663.89 5.24426 -7.09156 0
M  V30 29188 O 3664.43 2.7935 -7.20758 0
M  V30 29189 C 3665.37 1.7299 -7.50419 0
M  V30 29190 C 3664.64 0.406376 -7.57911 0
M  V30 29191 O 3664.43 -0.0897726 -6.21935 0
M  V30 29192 C 3663.24 0.447224 -8.1878 0
M  V30 29193 O 3662.85 -0.825065 -8.71101 0
M  V30 29194 C 3662.36 0.783801 -6.99623 0
M  V30 29195 C 3663.07 0.0619192 -5.85967 0
M  V30 29196 N 3663.02 0.7859 -4.56281 0
M  V30 29197 H 3665.86 1.93423 -8.4679 0
M  V30 29198 H 3666.13 1.68181 -6.71046 0
M  V30 29199 H 3665.26 -0.289041 -8.15388 0
M  V30 29200 P 3661.3 -1.17771 -8.83182 0
M  V30 29201 O 3661.08 -2.07206 -9.98732 0
M  V30 29202 O 3660.51 0.0743816 -8.81969 0
M  V30 29203 O 3661.05 -1.97652 -7.47304 0
M  V30 29204 C 3661.99 -3.01055 -7.08599 0
M  V30 29205 C 3661.26 -4.12613 -6.37049 0
M  V30 29206 O 3661.05 -3.72827 -4.97879 0
M  V30 29207 C 3659.86 -4.45719 -6.88164 0
M  V30 29208 O 3659.47 -5.7877 -6.5624 0
M  V30 29209 C 3658.98 -3.47768 -6.11991 0
M  V30 29210 C 3659.69 -3.39356 -4.77615 0
M  V30 29211 N 3659.64 -2.04571 -4.15244 0
M  V30 29212 C 3659.49 -1.98587 -2.78314 0
M  V30 29213 O 3659.4 -2.98134 -2.08835 0
M  V30 29214 N 3659.45 -0.714467 -2.24925 0
M  V30 29215 C 3659.54 0.470001 -2.94169 0
M  V30 29216 O 3659.49 1.55587 -2.35195 0
M  V30 29217 C 3659.69 0.312541 -4.36783 0
M  V30 29218 C 3659.8 1.57711 -5.16352 0
M  V30 29219 C 3659.74 -0.914512 -4.92583 0
M  V30 29220 H 3662.48 -3.41169 -7.98575 0
M  V30 29221 H 3662.75 -2.58295 -6.41556 0
M  V30 29222 H 3661.88 -5.02657 -6.42673 0
M  V30 29223 H 3659.23 -4.11637 -4.08885 0
M  V30 29224 H 3658.95 -2.49626 -6.61679 0
M  V30 29225 H 3657.96 -3.86566 -6.00778 0
M  V30 29226 H 3659.79 -4.29943 -7.96918 0
M  V30 29227 H 3659.86 -1.00937 -6.00374 0
M  V30 29228 H 3658.83 1.80153 -5.63503 0
M  V30 29229 H 3660.57 1.4566 -5.94104 0
M  V30 29230 H 3660.08 2.40664 -4.49645 0
M  V30 29231 H 3659.34 -0.647622 -1.25697 0
M  V30 29232 P 3657.92 -6.144 -6.45285 0
M  V30 29233 O 3657.7 -7.54673 -6.86199 0
M  V30 29234 O 3657.13 -5.12391 -7.179 0
M  V30 29235 O 3657.67 -5.99158 -4.88404 0
M  V30 29236 C 3658.61 -6.60234 -3.96415 0
M  V30 29237 C 3657.88 -7.08259 -2.72856 0
M  V30 29238 O 3657.67 -5.9427 -1.83651 0
M  V30 29239 C 3656.48 -7.64886 -2.9555 0
M  V30 29240 O 3656.09 -8.53963 -1.90717 0
M  V30 29241 C 3655.6 -6.4116 -2.90739 0
M  V30 29242 C 3656.31 -5.55375 -1.86963 0
M  V30 29243 N 3656.26 -4.09664 -2.15742 0
M  V30 29244 H 3659.1 -7.45574 -4.45629 0
M  V30 29245 H 3659.37 -5.86232 -3.67314 0
M  V30 29246 H 3658.5 -7.84412 -2.24479 0
M  V30 29247 P 3654.54 -8.7635 -1.60911 0
M  V30 29248 O 3654.32 -10.1388 -1.11561 0
M  V30 29249 O 3653.75 -8.36503 -2.79617 0
M  V30 29250 O 3654.29 -7.71806 -0.42951 0
M  V30 29251 C 3655.23 -7.67148 0.673689 0
M  V30 29252 C 3654.5 -7.33374 1.95559 0
M  V30 29253 O 3654.29 -5.88721 2.00726 0
M  V30 29254 C 3653.1 -7.92526 2.10483 0
M  V30 29255 O 3652.71 -8.02971 3.47653 0
M  V30 29256 C 3652.22 -6.89602 1.41652 0
M  V30 29257 C 3652.93 -5.59201 1.75185 0
M  V30 29258 N 3652.88 -4.58235 0.662552 0
M  V30 29259 H 3655.72 -8.65116 0.777161 0
M  V30 29260 H 3655.99 -6.90173 0.474152 0
M  V30 29261 H 3655.12 -7.66548 2.79458 0
M  V30 29262 P 3651.16 -8.03563 3.84925 0
M  V30 29263 O 3650.94 -8.85821 5.0569 0
M  V30 29264 O 3650.37 -8.41101 2.65469 0
M  V30 29265 O 3650.91 -6.4965 4.18908 0
M  V30 29266 C 3651.85 -5.81037 5.05421 0
M  V30 29267 C 3651.12 -4.78366 5.89277 0
M  V30 29268 O 3650.91 -3.58302 5.08433 0
M  V30 29269 C 3649.72 -5.17448 6.36119 0
M  V30 29270 O 3649.33 -4.45271 7.53232 0
M  V30 29271 C 3648.84 -4.74639 5.19936 0
M  V30 29272 C 3649.55 -3.49432 4.70418 0
M  V30 29273 N 3649.5 -3.31776 3.22945 0
M  V30 29274 H 3652.34 -6.54213 5.71376 0
M  V30 29275 H 3652.61 -5.30492 4.44033 0
M  V30 29276 H 3651.74 -4.55889 6.76652 0
M  V30 29277 P 3647.78 -4.23843 7.83734 0
M  V30 29278 O 3647.56 -4.19407 9.29784 0
M  V30 29279 O 3646.99 -5.24426 7.09156 0
M  V30 29280 O 3647.53 -2.7935 7.20758 0
M  V30 29281 C 3648.47 -1.7299 7.50419 0
M  V30 29282 C 3647.74 -0.406376 7.57911 0
M  V30 29283 O 3647.53 0.0897726 6.21935 0
M  V30 29284 C 3646.34 -0.447224 8.1878 0
M  V30 29285 O 3645.95 0.825065 8.71101 0
M  V30 29286 C 3645.46 -0.783801 6.99623 0
M  V30 29287 C 3646.17 -0.0619192 5.85967 0
M  V30 29288 N 3646.12 -0.7859 4.56281 0
M  V30 29289 C 3646.2 -2.14308 4.31736 0
M  V30 29290 N 3646.12 -2.46106 3.05116 0
M  V30 29291 C 3645.98 -1.23422 2.4014 0
M  V30 29292 C 3645.85 -0.938381 1.02409 0
M  V30 29293 N 3645.73 0.444647 0.805413 0
M  V30 29294 C 3645.73 1.40829 1.79435 0
M  V30 29295 N 3645.6 2.67213 1.38558 0
M  V30 29296 N 3645.86 1.12947 3.09005 0
M  V30 29297 C 3645.98 -0.204887 3.32369 0
M  V30 29298 H 3648.96 -1.93423 8.4679 0
M  V30 29299 H 3649.23 -1.68181 6.71046 0
M  V30 29300 H 3648.36 0.289041 8.15388 0
M  V30 29301 P 3644.4 1.17771 8.83182 0
M  V30 29302 O 3644.18 2.07206 9.98732 0
M  V30 29303 O 3643.61 -0.0743816 8.81969 0
M  V30 29304 O 3644.15 1.97652 7.47304 0
M  V30 29305 C 3645.09 3.01133 7.08783 0
M  V30 29306 C 3644.36 4.12613 6.37049 0
M  V30 29307 O 3644.15 3.72827 4.97879 0
M  V30 29308 C 3642.96 4.45085 6.88694 0
M  V30 29309 O 3642.57 5.7877 6.5624 0
M  V30 29310 C 3642.08 3.47817 6.12078 0
M  V30 29311 C 3642.79 3.39414 4.77697 0
M  V30 29312 N 3642.74 2.04615 4.15333 0
M  V30 29313 H 3645.58 3.41248 7.98759 0
M  V30 29314 H 3645.85 2.5837 6.41742 0
M  V30 29315 H 3644.98 5.02657 6.42673 0
M  V30 29316 P 3641.02 6.144 6.45285 0
M  V30 29317 O 3640.8 7.54673 6.86199 0
M  V30 29318 O 3640.23 5.12391 7.179 0
M  V30 29319 O 3640.77 5.99158 4.88404 0
M  V30 29320 C 3641.71 6.60234 3.96415 0
M  V30 29321 C 3640.98 7.08259 2.72856 0
M  V30 29322 O 3640.77 5.9427 1.83651 0
M  V30 29323 C 3639.58 7.64886 2.9555 0
M  V30 29324 O 3639.19 8.53963 1.90717 0
M  V30 29325 C 3638.7 6.4116 2.90739 0
M  V30 29326 C 3639.41 5.55375 1.86963 0
M  V30 29327 N 3639.36 4.09664 2.15742 0
M  V30 29328 H 3642.2 7.45574 4.45629 0
M  V30 29329 H 3642.47 5.86232 3.67314 0
M  V30 29330 H 3641.6 7.84412 2.24479 0
M  V30 29331 P 3637.64 8.7635 1.60911 0
M  V30 29332 O 3637.42 10.1388 1.11561 0
M  V30 29333 O 3636.85 8.36503 2.79617 0
M  V30 29334 O 3637.39 7.71806 0.42951 0
M  V30 29335 C 3638.33 7.66948 -0.673514 0
M  V30 29336 C 3637.6 7.33374 -1.95559 0
M  V30 29337 O 3637.39 5.88721 -2.00726 0
M  V30 29338 C 3636.2 7.92218 -2.1125 0
M  V30 29339 O 3635.81 8.02971 -3.47653 0
M  V30 29340 C 3635.32 6.89504 -1.41631 0
M  V30 29341 C 3636.03 5.59106 -1.75155 0
M  V30 29342 N 3635.98 4.58136 -0.662409 0
M  V30 29343 C 3635.83 3.26059 -1.02863 0
M  V30 29344 O 3635.74 2.90743 -2.19009 0
M  V30 29345 N 3635.79 2.35995 0.0155585 0
M  V30 29346 C 3635.88 2.65248 1.35603 0
M  V30 29347 C 3636.03 4.05747 1.64698 0
M  V30 29348 C 3636.08 4.96734 0.652411 0
M  V30 29349 H 3638.82 8.64917 -0.776982 0
M  V30 29350 H 3639.09 6.89974 -0.474015 0
M  V30 29351 H 3638.22 7.66548 -2.79458 0
M  V30 29352 H 3635.57 5.16076 -2.65138 0
M  V30 29353 H 3635.29 7.06433 -0.329384 0
M  V30 29354 H 3634.3 6.90829 -1.81996 0
M  V30 29355 H 3636.13 8.90774 -1.62639 0
M  V30 29356 H 3636.2 6.02181 0.895285 0
M  V30 29357 P 3634.26 8.03563 -3.84925 0
M  V30 29358 O 3634.04 8.85821 -5.0569 0
M  V30 29359 O 3633.47 8.41101 -2.65469 0
M  V30 29360 O 3634.01 6.4965 -4.18908 0
M  V30 29361 C 3634.95 5.81037 -5.05421 0
M  V30 29362 C 3634.22 4.78366 -5.89277 0
M  V30 29363 O 3634.01 3.58302 -5.08433 0
M  V30 29364 C 3632.82 5.17448 -6.36119 0
M  V30 29365 O 3632.43 4.45271 -7.53232 0
M  V30 29366 C 3631.94 4.74639 -5.19936 0
M  V30 29367 C 3632.65 3.49432 -4.70418 0
M  V30 29368 N 3632.6 3.32099 -3.22613 0
M  V30 29369 H 3635.44 6.54213 -5.71376 0
M  V30 29370 H 3635.71 5.30936 -4.43503 0
M  V30 29371 H 3634.84 4.55889 -6.76652 0
M  V30 29372 H 3632.19 2.61715 -5.17932 0
M  V30 29373 H 3631.91 5.52155 -4.41878 0
M  V30 29374 H 3630.92 4.51981 -5.53374 0
M  V30 29375 H 3632.75 6.25124 -6.55234 0
M  V30 29376 P 3630.88 4.23843 -7.83734 0
M  V30 29377 O 3630.66 4.19407 -9.29784 0
M  V30 29378 O 3630.09 5.24426 -7.09156 0
M  V30 29379 O 3630.63 2.7935 -7.20758 0
M  V30 29380 C 3631.57 1.7299 -7.50419 0
M  V30 29381 C 3630.84 0.406376 -7.57911 0
M  V30 29382 O 3630.63 -0.0897726 -6.21935 0
M  V30 29383 C 3629.44 0.447224 -8.1878 0
M  V30 29384 O 3629.05 -0.825065 -8.71101 0
M  V30 29385 C 3628.56 0.783801 -6.99623 0
M  V30 29386 C 3629.27 0.0619192 -5.85967 0
M  V30 29387 N 3629.22 0.790462 -4.56202 0
M  V30 29388 H 3632.06 1.93423 -8.4679 0
M  V30 29389 H 3632.33 1.68852 -6.70877 0
M  V30 29390 H 3631.46 -0.289041 -8.15388 0
M  V30 29391 H 3628.81 -0.927006 -5.72848 0
M  V30 29392 H 3628.53 1.86973 -6.82036 0
M  V30 29393 H 3627.54 0.403953 -7.13357 0
M  V30 29394 H 3629.37 1.20599 -8.97534 0
M  V30 29395 P 3627.5 -1.17771 -8.83182 0
M  V30 29396 O 3627.28 -2.07206 -9.98732 0
M  V30 29397 O 3626.71 0.0743816 -8.81969 0
M  V30 29398 O 3627.25 -1.97652 -7.47304 0
M  V30 29399 C 3628.19 -3.01133 -7.08783 0
M  V30 29400 C 3627.46 -4.12613 -6.37049 0
M  V30 29401 O 3627.25 -3.72827 -4.97879 0
M  V30 29402 C 3626.06 -4.45085 -6.88694 0
M  V30 29403 O 3625.67 -5.7877 -6.5624 0
M  V30 29404 C 3625.18 -3.47817 -6.12078 0
M  V30 29405 C 3625.89 -3.39414 -4.77697 0
M  V30 29406 N 3625.84 -2.04615 -4.15333 0
M  V30 29407 H 3628.68 -3.41248 -7.98759 0
M  V30 29408 H 3628.95 -2.5837 -6.41742 0
M  V30 29409 H 3628.08 -5.02657 -6.42673 0
M  V30 29410 P 3624.12 -6.144 -6.45285 0
M  V30 29411 O 3623.9 -7.54673 -6.86199 0
M  V30 29412 O 3623.33 -5.12391 -7.179 0
M  V30 29413 O 3623.87 -5.99158 -4.88404 0
M  V30 29414 C 3624.81 -6.60234 -3.96415 0
M  V30 29415 C 3624.08 -7.08259 -2.72856 0
M  V30 29416 O 3623.87 -5.9427 -1.83651 0
M  V30 29417 C 3622.68 -7.64886 -2.9555 0
M  V30 29418 O 3622.29 -8.53963 -1.90717 0
M  V30 29419 C 3621.8 -6.4116 -2.90739 0
M  V30 29420 C 3622.51 -5.55375 -1.86963 0
M  V30 29421 N 3622.46 -4.09448 -2.16152 0
M  V30 29422 H 3625.3 -7.45574 -4.45629 0
M  V30 29423 H 3625.57 -5.85864 -3.679 0
M  V30 29424 H 3624.7 -7.84412 -2.24479 0
M  V30 29425 H 3622.05 -5.73457 -0.888562 0
M  V30 29426 H 3621.77 -5.90877 -3.88583 0
M  V30 29427 H 3620.78 -6.6596 -2.58858 0
M  V30 29428 H 3622.61 -8.16339 -3.92049 0
M  V30 29429 P 3620.74 -8.7635 -1.60911 0
M  V30 29430 O 3620.52 -10.1388 -1.11561 0
M  V30 29431 O 3619.95 -8.36503 -2.79617 0
M  V30 29432 O 3620.49 -7.71806 -0.42951 0
M  V30 29433 C 3621.43 -7.67148 0.673689 0
M  V30 29434 C 3620.7 -7.33374 1.95559 0
M  V30 29435 O 3620.49 -5.88721 2.00726 0
M  V30 29436 C 3619.3 -7.92526 2.10483 0
M  V30 29437 O 3618.91 -8.02971 3.47653 0
M  V30 29438 C 3618.42 -6.89602 1.41652 0
M  V30 29439 C 3619.13 -5.59201 1.75185 0
M  V30 29440 N 3619.08 -4.58235 0.662552 0
M  V30 29441 H 3621.92 -8.65116 0.777161 0
M  V30 29442 H 3622.19 -6.90173 0.474152 0
M  V30 29443 H 3621.32 -7.66548 2.79458 0
M  V30 29444 P 3617.36 -8.03563 3.84925 0
M  V30 29445 O 3617.14 -8.85821 5.0569 0
M  V30 29446 O 3616.57 -8.41101 2.65469 0
M  V30 29447 O 3617.11 -6.4965 4.18908 0
M  V30 29448 C 3618.05 -5.81037 5.05421 0
M  V30 29449 C 3617.32 -4.78366 5.89277 0
M  V30 29450 O 3617.11 -3.58302 5.08433 0
M  V30 29451 C 3615.92 -5.17448 6.36119 0
M  V30 29452 O 3615.53 -4.45271 7.53232 0
M  V30 29453 C 3615.04 -4.74639 5.19936 0
M  V30 29454 C 3615.75 -3.49432 4.70418 0
M  V30 29455 N 3615.7 -3.31776 3.22945 0
M  V30 29456 H 3618.54 -6.54213 5.71376 0
M  V30 29457 H 3618.81 -5.30492 4.44033 0
M  V30 29458 H 3617.94 -4.55889 6.76652 0
M  V30 29459 P 3613.98 -4.23843 7.83734 0
M  V30 29460 O 3613.76 -4.19407 9.29784 0
M  V30 29461 O 3613.19 -5.24426 7.09156 0
M  V30 29462 O 3613.73 -2.7935 7.20758 0
M  V30 29463 C 3614.67 -1.7299 7.50419 0
M  V30 29464 C 3613.94 -0.406376 7.57911 0
M  V30 29465 O 3613.73 0.0897726 6.21935 0
M  V30 29466 C 3612.54 -0.447224 8.1878 0
M  V30 29467 O 3612.15 0.825065 8.71101 0
M  V30 29468 C 3611.66 -0.783801 6.99623 0
M  V30 29469 C 3612.37 -0.0619192 5.85967 0
M  V30 29470 N 3612.32 -0.7859 4.56281 0
M  V30 29471 H 3615.16 -1.93423 8.4679 0
M  V30 29472 H 3615.43 -1.68181 6.71046 0
M  V30 29473 H 3614.56 0.289041 8.15388 0
M  V30 29474 P 3610.6 1.17771 8.83182 0
M  V30 29475 O 3610.38 2.07206 9.98732 0
M  V30 29476 O 3609.81 -0.0743816 8.81969 0
M  V30 29477 O 3610.35 1.97652 7.47304 0
M  V30 29478 C 3611.29 3.01055 7.08599 0
M  V30 29479 C 3610.56 4.12613 6.37049 0
M  V30 29480 O 3610.35 3.72827 4.97879 0
M  V30 29481 C 3609.16 4.45719 6.88164 0
M  V30 29482 O 3608.77 5.7877 6.5624 0
M  V30 29483 C 3608.28 3.47768 6.11991 0
M  V30 29484 C 3608.99 3.39356 4.77615 0
M  V30 29485 N 3608.94 2.04571 4.15244 0
M  V30 29486 C 3608.79 1.98587 2.78314 0
M  V30 29487 O 3608.7 2.98134 2.08835 0
M  V30 29488 N 3608.75 0.714467 2.24925 0
M  V30 29489 C 3608.84 -0.470001 2.94169 0
M  V30 29490 O 3608.79 -1.55587 2.35195 0
M  V30 29491 C 3608.99 -0.312541 4.36783 0
M  V30 29492 C 3609.1 -1.57711 5.16352 0
M  V30 29493 C 3609.04 0.914512 4.92583 0
M  V30 29494 H 3611.78 3.41169 7.98575 0
M  V30 29495 H 3612.05 2.58295 6.41556 0
M  V30 29496 H 3611.18 5.02657 6.42673 0
M  V30 29497 H 3608.53 4.11637 4.08885 0
M  V30 29498 H 3608.25 2.49626 6.61679 0
M  V30 29499 H 3607.26 3.86566 6.00778 0
M  V30 29500 H 3609.09 4.29943 7.96918 0
M  V30 29501 H 3609.16 1.00937 6.00374 0
M  V30 29502 H 3608.13 -1.80153 5.63503 0
M  V30 29503 H 3609.87 -1.4566 5.94104 0
M  V30 29504 H 3609.38 -2.40664 4.49645 0
M  V30 29505 H 3608.64 0.647622 1.25697 0
M  V30 29506 P 3607.22 6.144 6.45285 0
M  V30 29507 O 3607 7.54673 6.86199 0
M  V30 29508 O 3606.43 5.12391 7.179 0
M  V30 29509 O 3606.97 5.99158 4.88404 0
M  V30 29510 C 3607.91 6.60062 3.96313 0
M  V30 29511 C 3607.18 7.08259 2.72856 0
M  V30 29512 O 3606.97 5.9427 1.83651 0
M  V30 29513 C 3605.78 7.65087 2.94749 0
M  V30 29514 O 3605.39 8.53963 1.90717 0
M  V30 29515 C 3604.9 6.41069 2.90698 0
M  V30 29516 C 3605.61 5.5528 1.86931 0
M  V30 29517 N 3605.56 4.09575 2.15696 0
M  V30 29518 C 3605.41 3.24249 1.08435 0
M  V30 29519 O 3605.32 3.63946 -0.0628747 0
M  V30 29520 N 3605.37 1.90009 1.39973 0
M  V30 29521 C 3605.46 1.34884 2.65614 0
M  V30 29522 C 3605.61 2.3145 3.71736 0
M  V30 29523 C 3605.66 3.63518 3.44754 0
M  V30 29524 H 3608.4 7.45402 4.45526 0
M  V30 29525 H 3608.67 5.86062 3.67208 0
M  V30 29526 H 3607.8 7.84412 2.24479 0
M  V30 29527 H 3605.15 5.73358 0.888409 0
M  V30 29528 H 3604.87 5.90877 3.88583 0
M  V30 29529 H 3603.88 6.65867 2.58821 0
M  V30 29530 H 3605.71 8.16248 3.92006 0
M  V30 29531 H 3605.78 4.34551 4.26383 0
M  V30 29532 P 3603.84 8.7635 1.60911 0
M  V30 29533 O 3603.62 10.1388 1.11561 0
M  V30 29534 O 3603.05 8.36503 2.79617 0
M  V30 29535 O 3603.59 7.71806 0.42951 0
M  V30 29536 C 3604.53 7.66948 -0.673514 0
M  V30 29537 C 3603.8 7.33374 -1.95559 0
M  V30 29538 O 3603.59 5.88721 -2.00726 0
M  V30 29539 C 3602.4 7.92218 -2.1125 0
M  V30 29540 O 3602.01 8.02971 -3.47653 0
M  V30 29541 C 3601.52 6.89504 -1.41631 0
M  V30 29542 C 3602.23 5.59106 -1.75155 0
M  V30 29543 N 3602.18 4.58136 -0.662409 0
M  V30 29544 C 3602.03 3.26059 -1.02863 0
M  V30 29545 O 3601.94 2.90743 -2.19009 0
M  V30 29546 N 3601.99 2.35995 0.0155585 0
M  V30 29547 C 3602.08 2.65248 1.35603 0
M  V30 29548 C 3602.23 4.05747 1.64698 0
M  V30 29549 C 3602.28 4.96734 0.652411 0
M  V30 29550 H 3605.02 8.64917 -0.776982 0
M  V30 29551 H 3605.29 6.89974 -0.474015 0
M  V30 29552 H 3604.42 7.66548 -2.79458 0
M  V30 29553 H 3601.77 5.16076 -2.65138 0
M  V30 29554 H 3601.49 7.06433 -0.329384 0
M  V30 29555 H 3600.5 6.90829 -1.81996 0
M  V30 29556 H 3602.33 8.90774 -1.62639 0
M  V30 29557 H 3602.4 6.02181 0.895285 0
M  V30 29558 P 3600.46 8.03563 -3.84925 0
M  V30 29559 O 3600.24 8.85821 -5.0569 0
M  V30 29560 O 3599.67 8.41101 -2.65469 0
M  V30 29561 O 3600.21 6.4965 -4.18908 0
M  V30 29562 C 3601.15 5.80886 -5.05289 0
M  V30 29563 C 3600.42 4.78366 -5.89277 0
M  V30 29564 O 3600.21 3.58302 -5.08433 0
M  V30 29565 C 3599.02 5.16748 -6.36559 0
M  V30 29566 O 3598.63 4.45271 -7.53232 0
M  V30 29567 C 3598.14 4.74572 -5.19863 0
M  V30 29568 C 3598.85 3.49373 -4.70338 0
M  V30 29569 N 3598.8 3.31704 -3.22876 0
M  V30 29570 C 3598.65 2.03326 -2.74871 0
M  V30 29571 O 3598.56 1.06486 -3.48076 0
M  V30 29572 N 3598.61 1.91838 -1.37456 0
M  V30 29573 C 3598.7 2.94295 -0.462035 0
M  V30 29574 O 3598.65 2.71763 0.752928 0
M  V30 29575 C 3598.85 4.25064 -1.05249 0
M  V30 29576 C 3598.96 5.39815 -0.095697 0
M  V30 29577 C 3598.9 4.40214 -2.39192 0
M  V30 29578 H 3601.64 6.54063 -5.71245 0
M  V30 29579 H 3601.91 5.30339 -4.43905 0
M  V30 29580 H 3601.04 4.55889 -6.76652 0
M  V30 29581 H 3598.39 2.6167 -5.17842 0
M  V30 29582 H 3598.11 5.52155 -4.41878 0
M  V30 29583 H 3597.12 4.51918 -5.53297 0
M  V30 29584 H 3598.95 6.25055 -6.55162 0
M  V30 29585 H 3599.02 5.39798 -2.81523 0
M  V30 29586 H 3597.99 5.91593 -0.0279582 0
M  V30 29587 H 3599.73 6.10038 -0.450573 0
M  V30 29588 H 3599.24 5.02007 0.89937 0
M  V30 29589 H 3598.5 0.995326 -1.00435 0
M  V30 29590 P 3597.08 4.23843 -7.83734 0
M  V30 29591 O 3596.86 4.19407 -9.29784 0
M  V30 29592 O 3596.29 5.24426 -7.09156 0
M  V30 29593 O 3596.83 2.7935 -7.20758 0
M  V30 29594 C 3597.77 1.7299 -7.50419 0
M  V30 29595 C 3597.04 0.406376 -7.57911 0
M  V30 29596 O 3596.83 -0.0897726 -6.21935 0
M  V30 29597 C 3595.64 0.447224 -8.1878 0
M  V30 29598 O 3595.25 -0.825065 -8.71101 0
M  V30 29599 C 3594.76 0.783801 -6.99623 0
M  V30 29600 C 3595.47 0.0619192 -5.85967 0
M  V30 29601 N 3595.42 0.7859 -4.56281 0
M  V30 29602 H 3598.26 1.93423 -8.4679 0
M  V30 29603 H 3598.53 1.68181 -6.71046 0
M  V30 29604 H 3597.66 -0.289041 -8.15388 0
M  V30 29605 P 3593.7 -1.17771 -8.83182 0
M  V30 29606 O 3593.48 -2.07206 -9.98732 0
M  V30 29607 O 3592.91 0.0743816 -8.81969 0
M  V30 29608 O 3593.45 -1.97652 -7.47304 0
M  V30 29609 C 3594.39 -3.01133 -7.08783 0
M  V30 29610 C 3593.66 -4.12613 -6.37049 0
M  V30 29611 O 3593.45 -3.72827 -4.97879 0
M  V30 29612 C 3592.26 -4.45085 -6.88694 0
M  V30 29613 O 3591.87 -5.7877 -6.5624 0
M  V30 29614 C 3591.38 -3.47817 -6.12078 0
M  V30 29615 C 3592.09 -3.39414 -4.77697 0
M  V30 29616 N 3592.04 -2.04615 -4.15333 0
M  V30 29617 H 3594.88 -3.41248 -7.98759 0
M  V30 29618 H 3595.15 -2.5837 -6.41742 0
M  V30 29619 H 3594.28 -5.02657 -6.42673 0
M  V30 29620 P 3590.32 -6.144 -6.45285 0
M  V30 29621 O 3590.1 -7.54673 -6.86199 0
M  V30 29622 O 3589.53 -5.12391 -7.179 0
M  V30 29623 O 3590.07 -5.99158 -4.88404 0
M  V30 29624 C 3591.01 -6.60234 -3.96415 0
M  V30 29625 C 3590.28 -7.08259 -2.72856 0
M  V30 29626 O 3590.07 -5.9427 -1.83651 0
M  V30 29627 C 3588.88 -7.64886 -2.9555 0
M  V30 29628 O 3588.49 -8.53963 -1.90717 0
M  V30 29629 C 3588 -6.4116 -2.90739 0
M  V30 29630 C 3588.71 -5.55375 -1.86963 0
M  V30 29631 N 3588.66 -4.09448 -2.16152 0
M  V30 29632 H 3591.5 -7.45574 -4.45629 0
M  V30 29633 H 3591.77 -5.85864 -3.679 0
M  V30 29634 H 3590.9 -7.84412 -2.24479 0
M  V30 29635 H 3588.25 -5.73457 -0.888562 0
M  V30 29636 H 3587.97 -5.90877 -3.88583 0
M  V30 29637 H 3586.98 -6.6596 -2.58858 0
M  V30 29638 H 3588.81 -8.16339 -3.92049 0
M  V30 29639 P 3586.94 -8.7635 -1.60911 0
M  V30 29640 O 3586.72 -10.1388 -1.11561 0
M  V30 29641 O 3586.15 -8.36503 -2.79617 0
M  V30 29642 O 3586.69 -7.71806 -0.42951 0
M  V30 29643 C 3587.63 -7.67148 0.673689 0
M  V30 29644 C 3586.9 -7.33374 1.95559 0
M  V30 29645 O 3586.69 -5.88721 2.00726 0
M  V30 29646 C 3585.5 -7.92526 2.10483 0
M  V30 29647 O 3585.11 -8.02971 3.47653 0
M  V30 29648 C 3584.62 -6.89602 1.41652 0
M  V30 29649 C 3585.33 -5.59201 1.75185 0
M  V30 29650 N 3585.28 -4.58235 0.662552 0
M  V30 29651 C 3585.36 -4.7683 -0.704049 0
M  V30 29652 N 3585.28 -3.66233 -1.39775 0
M  V30 29653 C 3585.14 -2.66526 -0.431739 0
M  V30 29654 C 3585.01 -1.26394 -0.575992 0
M  V30 29655 N 3584.89 -0.62859 0.67177 0
M  V30 29656 C 3584.89 -1.27134 1.89385 0
M  V30 29657 N 3584.76 -0.492035 2.96951 0
M  V30 29658 N 3585.02 -2.58978 2.02907 0
M  V30 29659 C 3585.14 -3.22433 0.832218 0
M  V30 29660 H 3588.12 -8.65116 0.777161 0
M  V30 29661 H 3588.39 -6.90173 0.474152 0
M  V30 29662 H 3587.52 -7.66548 2.79458 0
M  V30 29663 P 3583.56 -8.03563 3.84925 0
M  V30 29664 O 3583.34 -8.85821 5.0569 0
M  V30 29665 O 3582.77 -8.41101 2.65469 0
M  V30 29666 O 3583.31 -6.4965 4.18908 0
M  V30 29667 C 3584.25 -5.81037 5.05421 0
M  V30 29668 C 3583.52 -4.78366 5.89277 0
M  V30 29669 O 3583.31 -3.58302 5.08433 0
M  V30 29670 C 3582.12 -5.17448 6.36119 0
M  V30 29671 O 3581.73 -4.45271 7.53232 0
M  V30 29672 C 3581.24 -4.74639 5.19936 0
M  V30 29673 C 3581.95 -3.49432 4.70418 0
M  V30 29674 N 3581.9 -3.31776 3.22945 0
M  V30 29675 C 3581.98 -4.27147 2.23315 0
M  V30 29676 N 3581.9 -3.78447 1.02186 0
M  V30 29677 C 3581.76 -2.41001 1.21732 0
M  V30 29678 C 3581.63 -1.36111 0.27694 0
M  V30 29679 N 3581.51 -0.113683 0.912949 0
M  V30 29680 C 3581.51 0.0846396 2.27943 0
M  V30 29681 N 3581.38 1.34737 2.6916 0
M  V30 29682 N 3581.64 -0.902521 3.16379 0
M  V30 29683 C 3581.76 -2.11937 2.56849 0
M  V30 29684 H 3584.74 -6.54213 5.71376 0
M  V30 29685 H 3585.01 -5.30492 4.44033 0
M  V30 29686 H 3584.14 -4.55889 6.76652 0
M  V30 29687 P 3580.18 -4.23843 7.83734 0
M  V30 29688 O 3579.96 -4.19407 9.29784 0
M  V30 29689 O 3579.39 -5.24426 7.09156 0
M  V30 29690 O 3579.93 -2.7935 7.20758 0
M  V30 29691 C 3580.87 -1.7299 7.50419 0
M  V30 29692 C 3580.14 -0.406376 7.57911 0
M  V30 29693 O 3579.93 0.0897726 6.21935 0
M  V30 29694 C 3578.74 -0.447224 8.1878 0
M  V30 29695 O 3578.35 0.825065 8.71101 0
M  V30 29696 C 3577.86 -0.783801 6.99623 0
M  V30 29697 C 3578.57 -0.0619192 5.85967 0
M  V30 29698 N 3578.52 -0.7859 4.56281 0
M  V30 29699 H 3581.36 -1.93423 8.4679 0
M  V30 29700 H 3581.63 -1.68181 6.71046 0
M  V30 29701 H 3580.76 0.289041 8.15388 0
M  V30 29702 P 3576.8 1.17771 8.83182 0
M  V30 29703 O 3576.58 2.07206 9.98732 0
M  V30 29704 O 3576.01 -0.0743816 8.81969 0
M  V30 29705 O 3576.55 1.97652 7.47304 0
M  V30 29706 C 3577.49 3.01133 7.08783 0
M  V30 29707 C 3576.76 4.12613 6.37049 0
M  V30 29708 O 3576.55 3.72827 4.97879 0
M  V30 29709 C 3575.36 4.45085 6.88694 0
M  V30 29710 O 3574.97 5.7877 6.5624 0
M  V30 29711 C 3574.48 3.47817 6.12078 0
M  V30 29712 C 3575.19 3.39414 4.77697 0
M  V30 29713 N 3575.14 2.04199 4.15538 0
M  V30 29714 C 3575.22 0.821545 4.76977 0
M  V30 29715 N 3575.15 -0.1794 3.94592 0
M  V30 29716 C 3575 0.419121 2.70776 0
M  V30 29717 C 3574.87 -0.109072 1.40577 0
M  V30 29718 N 3574.86 -1.4104 1.1344 0
M  V30 29719 N 3574.75 0.764381 0.39411 0
M  V30 29720 C 3574.76 2.06587 0.664135 0
M  V30 29721 N 3574.88 2.67948 1.82153 0
M  V30 29722 C 3575 1.77942 2.8147 0
M  V30 29723 H 3577.98 3.41248 7.98759 0
M  V30 29724 H 3578.25 2.57728 6.42 0
M  V30 29725 H 3577.38 5.02657 6.42673 0
M  V30 29726 H 3574.73 4.11708 4.08956 0
M  V30 29727 H 3574.45 2.49626 6.61679 0
M  V30 29728 H 3573.46 3.8662 6.00862 0
M  V30 29729 H 3575.29 4.29991 7.97006 0
M  V30 29730 H 3575.33 0.702451 5.84696 0
M  V30 29731 H 3574.95 -2.09647 1.89651 0
M  V30 29732 H 3574.76 -1.73358 0.160575 0
M  V30 29733 H 3574.65 2.71695 -0.195838 0
M  V30 29734 P 3573.42 6.144 6.45285 0
M  V30 29735 O 3573.2 7.54673 6.86199 0
M  V30 29736 O 3572.63 5.12391 7.179 0
M  V30 29737 O 3573.17 5.99158 4.88404 0
M  V30 29738 C 3574.11 6.60234 3.96415 0
M  V30 29739 C 3573.38 7.08259 2.72856 0
M  V30 29740 O 3573.17 5.9427 1.83651 0
M  V30 29741 C 3571.98 7.64886 2.9555 0
M  V30 29742 O 3571.59 8.53963 1.90717 0
M  V30 29743 C 3571.1 6.4116 2.90739 0
M  V30 29744 C 3571.81 5.55375 1.86963 0
M  V30 29745 N 3571.76 4.09664 2.15742 0
M  V30 29746 H 3574.6 7.45574 4.45629 0
M  V30 29747 H 3574.87 5.86232 3.67314 0
M  V30 29748 H 3574 7.84412 2.24479 0
M  V30 29749 P 3570.04 8.7635 1.60911 0
M  V30 29750 O 3569.82 10.1388 1.11561 0
M  V30 29751 O 3569.25 8.36503 2.79617 0
M  V30 29752 O 3569.79 7.71806 0.42951 0
M  V30 29753 C 3570.73 7.67148 -0.673689 0
M  V30 29754 C 3570 7.33374 -1.95559 0
M  V30 29755 O 3569.79 5.88721 -2.00726 0
M  V30 29756 C 3568.6 7.92526 -2.10483 0
M  V30 29757 O 3568.21 8.02971 -3.47653 0
M  V30 29758 C 3567.72 6.89602 -1.41652 0
M  V30 29759 C 3568.43 5.59201 -1.75185 0
M  V30 29760 N 3568.38 4.58235 -0.662552 0
M  V30 29761 H 3571.22 8.65116 -0.777161 0
M  V30 29762 H 3571.49 6.90173 -0.474152 0
M  V30 29763 H 3570.62 7.66548 -2.79458 0
M  V30 29764 P 3566.66 8.03563 -3.84925 0
M  V30 29765 O 3566.44 8.85821 -5.0569 0
M  V30 29766 O 3565.87 8.41101 -2.65469 0
M  V30 29767 O 3566.41 6.4965 -4.18908 0
M  V30 29768 C 3567.35 5.80886 -5.05289 0
M  V30 29769 C 3566.62 4.78366 -5.89277 0
M  V30 29770 O 3566.41 3.58302 -5.08433 0
M  V30 29771 C 3565.22 5.16748 -6.36559 0
M  V30 29772 O 3564.83 4.45271 -7.53232 0
M  V30 29773 C 3564.34 4.74572 -5.19863 0
M  V30 29774 C 3565.05 3.49373 -4.70338 0
M  V30 29775 N 3565 3.31704 -3.22876 0
M  V30 29776 C 3564.85 2.03326 -2.74871 0
M  V30 29777 O 3564.76 1.06486 -3.48076 0
M  V30 29778 N 3564.81 1.91838 -1.37456 0
M  V30 29779 C 3564.9 2.94295 -0.462035 0
M  V30 29780 O 3564.85 2.71763 0.752928 0
M  V30 29781 C 3565.05 4.25064 -1.05249 0
M  V30 29782 C 3565.16 5.39815 -0.095697 0
M  V30 29783 C 3565.1 4.40214 -2.39192 0
M  V30 29784 H 3567.84 6.54063 -5.71245 0
M  V30 29785 H 3568.11 5.30339 -4.43905 0
M  V30 29786 H 3567.24 4.55889 -6.76652 0
M  V30 29787 H 3564.59 2.6167 -5.17842 0
M  V30 29788 H 3564.31 5.52155 -4.41878 0
M  V30 29789 H 3563.32 4.51918 -5.53297 0
M  V30 29790 H 3565.15 6.25055 -6.55162 0
M  V30 29791 H 3565.22 5.39798 -2.81523 0
M  V30 29792 H 3564.19 5.91593 -0.0279582 0
M  V30 29793 H 3565.93 6.10038 -0.450573 0
M  V30 29794 H 3565.44 5.02007 0.89937 0
M  V30 29795 H 3564.7 0.995326 -1.00435 0
M  V30 29796 P 3563.28 4.23843 -7.83734 0
M  V30 29797 O 3563.06 4.19407 -9.29784 0
M  V30 29798 O 3562.49 5.24426 -7.09156 0
M  V30 29799 O 3563.03 2.7935 -7.20758 0
M  V30 29800 C 3563.97 1.7299 -7.50419 0
M  V30 29801 C 3563.24 0.406376 -7.57911 0
M  V30 29802 O 3563.03 -0.0897726 -6.21935 0
M  V30 29803 C 3561.84 0.447224 -8.1878 0
M  V30 29804 O 3561.45 -0.825065 -8.71101 0
M  V30 29805 C 3560.96 0.783801 -6.99623 0
M  V30 29806 C 3561.67 0.0619192 -5.85967 0
M  V30 29807 N 3561.62 0.7859 -4.56281 0
M  V30 29808 H 3564.46 1.93423 -8.4679 0
M  V30 29809 H 3564.73 1.68181 -6.71046 0
M  V30 29810 H 3563.86 -0.289041 -8.15388 0
M  V30 29811 P 3559.9 -1.17771 -8.83182 0
M  V30 29812 O 3559.68 -2.07206 -9.98732 0
M  V30 29813 O 3559.11 0.0743816 -8.81969 0
M  V30 29814 O 3559.65 -1.97652 -7.47304 0
M  V30 29815 C 3560.59 -3.01055 -7.08599 0
M  V30 29816 C 3559.86 -4.12613 -6.37049 0
M  V30 29817 O 3559.65 -3.72827 -4.97879 0
M  V30 29818 C 3558.46 -4.45719 -6.88164 0
M  V30 29819 O 3558.07 -5.7877 -6.5624 0
M  V30 29820 C 3557.58 -3.47768 -6.11991 0
M  V30 29821 C 3558.29 -3.39356 -4.77615 0
M  V30 29822 N 3558.24 -2.04571 -4.15244 0
M  V30 29823 C 3558.09 -1.98587 -2.78314 0
M  V30 29824 O 3558 -2.98134 -2.08835 0
M  V30 29825 N 3558.05 -0.714467 -2.24925 0
M  V30 29826 C 3558.14 0.470001 -2.94169 0
M  V30 29827 C 3558.29 0.312541 -4.36783 0
M  V30 29828 C 3558.34 -0.914512 -4.92583 0
M  V30 29829 H 3561.08 -3.41169 -7.98575 0
M  V30 29830 H 3561.35 -2.58295 -6.41556 0
M  V30 29831 H 3560.48 -5.02657 -6.42673 0
M  V30 29832 H 3557.83 -4.11637 -4.08885 0
M  V30 29833 H 3557.55 -2.49626 -6.61679 0
M  V30 29834 H 3556.56 -3.86566 -6.00778 0
M  V30 29835 H 3558.39 -4.29943 -7.96918 0
M  V30 29836 H 3558.46 -1.00937 -6.00374 0
M  V30 29837 P 3556.52 -6.144 -6.45285 0
M  V30 29838 O 3556.3 -7.54673 -6.86199 0
M  V30 29839 O 3555.73 -5.12391 -7.179 0
M  V30 29840 O 3556.27 -5.99158 -4.88404 0
M  V30 29841 C 3557.21 -6.60234 -3.96415 0
M  V30 29842 C 3556.48 -7.08259 -2.72856 0
M  V30 29843 O 3556.27 -5.9427 -1.83651 0
M  V30 29844 C 3555.08 -7.64886 -2.9555 0
M  V30 29845 O 3554.69 -8.53963 -1.90717 0
M  V30 29846 C 3554.2 -6.4116 -2.90739 0
M  V30 29847 C 3554.91 -5.55375 -1.86963 0
M  V30 29848 N 3554.86 -4.09448 -2.16152 0
M  V30 29849 H 3557.7 -7.45574 -4.45629 0
M  V30 29850 H 3557.97 -5.85864 -3.679 0
M  V30 29851 H 3557.1 -7.84412 -2.24479 0
M  V30 29852 H 3554.45 -5.73457 -0.888562 0
M  V30 29853 H 3554.17 -5.90877 -3.88583 0
M  V30 29854 H 3553.18 -6.6596 -2.58858 0
M  V30 29855 H 3555.01 -8.16339 -3.92049 0
M  V30 29856 P 3553.14 -8.7635 -1.60911 0
M  V30 29857 O 3552.92 -10.1388 -1.11561 0
M  V30 29858 O 3552.35 -8.36503 -2.79617 0
M  V30 29859 O 3552.89 -7.71806 -0.42951 0
M  V30 29860 C 3553.83 -7.67148 0.673689 0
M  V30 29861 C 3553.1 -7.33374 1.95559 0
M  V30 29862 O 3552.89 -5.88721 2.00726 0
M  V30 29863 C 3551.7 -7.92526 2.10483 0
M  V30 29864 O 3551.31 -8.02971 3.47653 0
M  V30 29865 C 3550.82 -6.89602 1.41652 0
M  V30 29866 C 3551.53 -5.59201 1.75185 0
M  V30 29867 N 3551.48 -4.58235 0.662552 0
M  V30 29868 H 3554.32 -8.65116 0.777161 0
M  V30 29869 H 3554.59 -6.90173 0.474152 0
M  V30 29870 H 3553.72 -7.66548 2.79458 0
M  V30 29871 P 3549.76 -8.03563 3.84925 0
M  V30 29872 O 3549.54 -8.85821 5.0569 0
M  V30 29873 O 3548.97 -8.41101 2.65469 0
M  V30 29874 O 3549.51 -6.4965 4.18908 0
M  V30 29875 C 3550.45 -5.81037 5.05421 0
M  V30 29876 C 3549.72 -4.78366 5.89277 0
M  V30 29877 O 3549.51 -3.58302 5.08433 0
M  V30 29878 C 3548.32 -5.17448 6.36119 0
M  V30 29879 O 3547.93 -4.45271 7.53232 0
M  V30 29880 C 3547.44 -4.74639 5.19936 0
M  V30 29881 C 3548.15 -3.49432 4.70418 0
M  V30 29882 N 3548.1 -3.32099 3.22613 0
M  V30 29883 C 3548.18 -4.28245 2.25527 0
M  V30 29884 N 3548.11 -3.80823 1.04874 0
M  V30 29885 C 3547.96 -2.44571 1.23535 0
M  V30 29886 C 3547.83 -1.37068 0.330675 0
M  V30 29887 N 3547.82 -1.51472 -0.990824 0
M  V30 29888 N 3547.71 -0.138614 0.848756 0
M  V30 29889 C 3547.72 0.00675923 2.16999 0
M  V30 29890 N 3547.84 -0.904372 3.11122 0
M  V30 29891 C 3547.96 -2.12707 2.56212 0
M  V30 29892 H 3550.94 -6.54213 5.71376 0
M  V30 29893 H 3551.21 -5.30936 4.43503 0
M  V30 29894 H 3550.34 -4.55889 6.76652 0
M  V30 29895 H 3547.69 -2.61715 5.17932 0
M  V30 29896 H 3547.41 -5.52155 4.41878 0
M  V30 29897 H 3546.42 -4.51981 5.53374 0
M  V30 29898 H 3548.25 -6.25124 6.55234 0
M  V30 29899 H 3548.29 -5.34372 2.47488 0
M  V30 29900 H 3547.91 -2.45153 -1.4078 0
M  V30 29901 H 3547.72 -0.688422 -1.59911 0
M  V30 29902 H 3547.61 1.02584 2.52346 0
M  V30 29903 P 3546.38 -4.23843 7.83734 0
M  V30 29904 O 3546.16 -4.19407 9.29784 0
M  V30 29905 O 3545.59 -5.24426 7.09156 0
M  V30 29906 O 3546.13 -2.7935 7.20758 0
M  V30 29907 C 3547.07 -1.7299 7.50419 0
M  V30 29908 C 3546.34 -0.406376 7.57911 0
M  V30 29909 O 3546.13 0.0897726 6.21935 0
M  V30 29910 C 3544.94 -0.447224 8.1878 0
M  V30 29911 O 3544.55 0.825065 8.71101 0
M  V30 29912 C 3544.06 -0.783801 6.99623 0
M  V30 29913 C 3544.77 -0.0619192 5.85967 0
M  V30 29914 N 3544.72 -0.7859 4.56281 0
M  V30 29915 C 3544.8 -2.14308 4.31736 0
M  V30 29916 N 3544.72 -2.46106 3.05116 0
M  V30 29917 C 3544.58 -1.23422 2.4014 0
M  V30 29918 C 3544.45 -0.938381 1.02409 0
M  V30 29919 N 3544.33 0.444647 0.805413 0
M  V30 29920 C 3544.33 1.40829 1.79435 0
M  V30 29921 N 3544.2 2.67213 1.38558 0
M  V30 29922 N 3544.46 1.12947 3.09005 0
M  V30 29923 C 3544.58 -0.204887 3.32369 0
M  V30 29924 H 3547.56 -1.93423 8.4679 0
M  V30 29925 H 3547.83 -1.68181 6.71046 0
M  V30 29926 H 3546.96 0.289041 8.15388 0
M  V30 29927 P 3543 1.17771 8.83182 0
M  V30 29928 O 3542.78 2.07206 9.98732 0
M  V30 29929 O 3542.21 -0.0743816 8.81969 0
M  V30 29930 O 3542.75 1.97652 7.47304 0
M  V30 29931 C 3543.69 3.01055 7.08599 0
M  V30 29932 C 3542.96 4.12613 6.37049 0
M  V30 29933 O 3542.75 3.72827 4.97879 0
M  V30 29934 C 3541.56 4.45719 6.88164 0
M  V30 29935 O 3541.17 5.7877 6.5624 0
M  V30 29936 C 3540.68 3.47768 6.11991 0
M  V30 29937 C 3541.39 3.39356 4.77615 0
M  V30 29938 N 3541.34 2.04571 4.15244 0
M  V30 29939 C 3541.19 1.98587 2.78314 0
M  V30 29940 O 3541.1 2.98134 2.08835 0
M  V30 29941 N 3541.15 0.714467 2.24925 0
M  V30 29942 C 3541.24 -0.470001 2.94169 0
M  V30 29943 O 3541.19 -1.55587 2.35195 0
M  V30 29944 C 3541.39 -0.312541 4.36783 0
M  V30 29945 C 3541.5 -1.57711 5.16352 0
M  V30 29946 C 3541.44 0.914512 4.92583 0
M  V30 29947 H 3544.18 3.41169 7.98575 0
M  V30 29948 H 3544.45 2.58295 6.41556 0
M  V30 29949 H 3543.58 5.02657 6.42673 0
M  V30 29950 H 3540.93 4.11637 4.08885 0
M  V30 29951 H 3540.65 2.49626 6.61679 0
M  V30 29952 H 3539.66 3.86566 6.00778 0
M  V30 29953 H 3541.49 4.29943 7.96918 0
M  V30 29954 H 3541.56 1.00937 6.00374 0
M  V30 29955 H 3540.53 -1.80153 5.63503 0
M  V30 29956 H 3542.27 -1.4566 5.94104 0
M  V30 29957 H 3541.78 -2.40664 4.49645 0
M  V30 29958 H 3541.04 0.647622 1.25697 0
M  V30 29959 P 3539.62 6.144 6.45285 0
M  V30 29960 O 3539.4 7.54673 6.86199 0
M  V30 29961 O 3538.83 5.12391 7.179 0
M  V30 29962 O 3539.37 5.99158 4.88404 0
M  V30 29963 C 3540.31 6.60062 3.96313 0
M  V30 29964 C 3539.58 7.08259 2.72856 0
M  V30 29965 O 3539.37 5.9427 1.83651 0
M  V30 29966 C 3538.18 7.65087 2.94749 0
M  V30 29967 O 3537.79 8.53963 1.90717 0
M  V30 29968 C 3537.3 6.41069 2.90698 0
M  V30 29969 C 3538.01 5.5528 1.86931 0
M  V30 29970 N 3537.96 4.09575 2.15696 0
M  V30 29971 C 3537.81 3.24249 1.08435 0
M  V30 29972 O 3537.72 3.63946 -0.0628747 0
M  V30 29973 N 3537.77 1.90009 1.39973 0
M  V30 29974 C 3537.86 1.34884 2.65614 0
M  V30 29975 C 3538.01 2.3145 3.71736 0
M  V30 29976 C 3538.06 3.63518 3.44754 0
M  V30 29977 H 3540.8 7.45402 4.45526 0
M  V30 29978 H 3541.07 5.86062 3.67208 0
M  V30 29979 H 3540.2 7.84412 2.24479 0
M  V30 29980 H 3537.55 5.73358 0.888409 0
M  V30 29981 H 3537.27 5.90877 3.88583 0
M  V30 29982 H 3536.28 6.65867 2.58821 0
M  V30 29983 H 3538.11 8.16248 3.92006 0
M  V30 29984 H 3538.18 4.34551 4.26383 0
M  V30 29985 P 3536.24 8.7635 1.60911 0
M  V30 29986 O 3536.02 10.1388 1.11561 0
M  V30 29987 O 3535.45 8.36503 2.79617 0
M  V30 29988 O 3535.99 7.71806 0.42951 0
M  V30 29989 C 3536.93 7.67148 -0.673689 0
M  V30 29990 C 3536.2 7.33374 -1.95559 0
M  V30 29991 O 3535.99 5.88721 -2.00726 0
M  V30 29992 C 3534.8 7.92526 -2.10483 0
M  V30 29993 O 3534.41 8.02971 -3.47653 0
M  V30 29994 C 3533.92 6.89602 -1.41652 0
M  V30 29995 C 3534.63 5.59201 -1.75185 0
M  V30 29996 N 3534.58 4.58235 -0.662552 0
M  V30 29997 H 3537.42 8.65116 -0.777161 0
M  V30 29998 H 3537.69 6.90173 -0.474152 0
M  V30 29999 H 3536.82 7.66548 -2.79458 0
M  V30 30000 P 3532.86 8.03563 -3.84925 0
M  V30 30001 O 3532.64 8.85821 -5.0569 0
M  V30 30002 O 3532.07 8.41101 -2.65469 0
M  V30 30003 O 3532.61 6.4965 -4.18908 0
M  V30 30004 C 3533.55 5.81037 -5.05421 0
M  V30 30005 C 3532.82 4.78366 -5.89277 0
M  V30 30006 O 3532.61 3.58302 -5.08433 0
M  V30 30007 C 3531.42 5.17448 -6.36119 0
M  V30 30008 O 3531.03 4.45271 -7.53232 0
M  V30 30009 C 3530.54 4.74639 -5.19936 0
M  V30 30010 C 3531.25 3.49432 -4.70418 0
M  V30 30011 N 3531.2 3.31776 -3.22945 0
M  V30 30012 H 3534.04 6.54213 -5.71376 0
M  V30 30013 H 3534.31 5.30492 -4.44033 0
M  V30 30014 H 3533.44 4.55889 -6.76652 0
M  V30 30015 P 3529.48 4.23843 -7.83734 0
M  V30 30016 O 3529.26 4.19407 -9.29784 0
M  V30 30017 O 3528.69 5.24426 -7.09156 0
M  V30 30018 O 3529.23 2.7935 -7.20758 0
M  V30 30019 C 3530.17 1.72945 -7.50224 0
M  V30 30020 C 3529.44 0.406376 -7.57911 0
M  V30 30021 O 3529.23 -0.0897726 -6.21935 0
M  V30 30022 C 3528.04 0.438983 -8.18724 0
M  V30 30023 O 3527.65 -0.825065 -8.71101 0
M  V30 30024 C 3527.16 0.783689 -6.99524 0
M  V30 30025 C 3527.87 0.0619086 -5.85867 0
M  V30 30026 N 3527.82 0.78573 -4.56183 0
M  V30 30027 C 3527.67 0.0292889 -3.41887 0
M  V30 30028 O 3527.58 -1.18445 -3.4419 0
M  V30 30029 N 3527.63 0.744061 -2.23964 0
M  V30 30030 C 3527.72 2.10932 -2.10362 0
M  V30 30031 C 3527.87 2.8202 -3.34994 0
M  V30 30032 C 3527.92 2.15547 -4.52261 0
M  V30 30033 H 3530.66 1.93379 -8.46595 0
M  V30 30034 H 3530.93 1.68132 -6.70852 0
M  V30 30035 H 3530.06 -0.289041 -8.15388 0
M  V30 30036 H 3527.41 -0.926847 -5.72749 0
M  V30 30037 H 3527.13 1.86973 -6.82036 0
M  V30 30038 H 3526.14 0.403896 -7.13257 0
M  V30 30039 H 3527.97 1.20585 -8.97435 0
M  V30 30040 H 3528.04 2.71231 -5.45042 0
M  V30 30041 P 3526.1 -1.17771 -8.83182 0
M  V30 30042 O 3525.88 -2.07206 -9.98732 0
M  V30 30043 O 3525.31 0.0743816 -8.81969 0
M  V30 30044 O 3525.85 -1.97652 -7.47304 0
M  V30 30045 C 3526.79 -3.01133 -7.08783 0
M  V30 30046 C 3526.06 -4.12613 -6.37049 0
M  V30 30047 O 3525.85 -3.72827 -4.97879 0
M  V30 30048 C 3524.66 -4.45085 -6.88694 0
M  V30 30049 O 3524.27 -5.7877 -6.5624 0
M  V30 30050 C 3523.78 -3.47817 -6.12078 0
M  V30 30051 C 3524.49 -3.39414 -4.77697 0
M  V30 30052 N 3524.44 -2.04199 -4.15538 0
M  V30 30053 H 3527.28 -3.41248 -7.98759 0
M  V30 30054 H 3527.55 -2.57728 -6.42 0
M  V30 30055 H 3526.68 -5.02657 -6.42673 0
M  V30 30056 H 3524.03 -4.11708 -4.08956 0
M  V30 30057 H 3523.75 -2.49626 -6.61679 0
M  V30 30058 H 3522.76 -3.8662 -6.00862 0
M  V30 30059 H 3524.59 -4.29991 -7.97006 0
M  V30 30060 P 3522.72 -6.144 -6.45285 0
M  V30 30061 O 3522.5 -7.54673 -6.86199 0
M  V30 30062 O 3521.93 -5.12391 -7.179 0
M  V30 30063 O 3522.47 -5.99158 -4.88404 0
M  V30 30064 C 3523.41 -6.60234 -3.96415 0
M  V30 30065 C 3522.68 -7.08259 -2.72856 0
M  V30 30066 O 3522.47 -5.9427 -1.83651 0
M  V30 30067 C 3521.28 -7.64886 -2.9555 0
M  V30 30068 O 3520.89 -8.53963 -1.90717 0
M  V30 30069 C 3520.4 -6.4116 -2.90739 0
M  V30 30070 C 3521.11 -5.55375 -1.86963 0
M  V30 30071 N 3521.06 -4.09664 -2.15742 0
M  V30 30072 H 3523.9 -7.45574 -4.45629 0
M  V30 30073 H 3524.17 -5.86232 -3.67314 0
M  V30 30074 H 3523.3 -7.84412 -2.24479 0
M  V30 30075 P 3519.34 -8.7635 -1.60911 0
M  V30 30076 O 3519.12 -10.1388 -1.11561 0
M  V30 30077 O 3518.55 -8.36503 -2.79617 0
M  V30 30078 O 3519.09 -7.71806 -0.42951 0
M  V30 30079 C 3520.03 -7.67148 0.673689 0
M  V30 30080 C 3519.3 -7.33374 1.95559 0
M  V30 30081 O 3519.09 -5.88721 2.00726 0
M  V30 30082 C 3517.9 -7.92526 2.10483 0
M  V30 30083 O 3517.51 -8.02971 3.47653 0
M  V30 30084 C 3517.02 -6.89602 1.41652 0
M  V30 30085 C 3517.73 -5.59201 1.75185 0
M  V30 30086 N 3517.68 -4.58235 0.662552 0
M  V30 30087 H 3520.52 -8.65116 0.777161 0
M  V30 30088 H 3520.79 -6.90173 0.474152 0
M  V30 30089 H 3519.92 -7.66548 2.79458 0
M  V30 30090 P 3515.96 -8.03563 3.84925 0
M  V30 30091 O 3515.74 -8.85821 5.0569 0
M  V30 30092 O 3515.17 -8.41101 2.65469 0
M  V30 30093 O 3515.71 -6.4965 4.18908 0
M  V30 30094 C 3516.65 -5.80886 5.05289 0
M  V30 30095 C 3515.92 -4.78366 5.89277 0
M  V30 30096 O 3515.71 -3.58302 5.08433 0
M  V30 30097 C 3514.52 -5.16748 6.36559 0
M  V30 30098 O 3514.13 -4.45271 7.53232 0
M  V30 30099 C 3513.64 -4.74572 5.19863 0
M  V30 30100 C 3514.35 -3.49373 4.70338 0
M  V30 30101 N 3514.3 -3.31704 3.22876 0
M  V30 30102 C 3514.15 -2.03326 2.74871 0
M  V30 30103 O 3514.06 -1.06486 3.48076 0
M  V30 30104 N 3514.11 -1.91838 1.37456 0
M  V30 30105 C 3514.2 -2.94295 0.462035 0
M  V30 30106 O 3514.15 -2.71763 -0.752928 0
M  V30 30107 C 3514.35 -4.25064 1.05249 0
M  V30 30108 C 3514.46 -5.39815 0.095697 0
M  V30 30109 C 3514.4 -4.40214 2.39192 0
M  V30 30110 H 3517.14 -6.54063 5.71245 0
M  V30 30111 H 3517.41 -5.30339 4.43905 0
M  V30 30112 H 3516.54 -4.55889 6.76652 0
M  V30 30113 H 3513.89 -2.6167 5.17842 0
M  V30 30114 H 3513.61 -5.52155 4.41878 0
M  V30 30115 H 3512.62 -4.51918 5.53297 0
M  V30 30116 H 3514.45 -6.25055 6.55162 0
M  V30 30117 H 3514.52 -5.39798 2.81523 0
M  V30 30118 H 3513.49 -5.91593 0.0279582 0
M  V30 30119 H 3515.23 -6.10038 0.450573 0
M  V30 30120 H 3514.74 -5.02007 -0.89937 0
M  V30 30121 H 3514 -0.995326 1.00435 0
M  V30 30122 P 3512.58 -4.23843 7.83734 0
M  V30 30123 O 3512.36 -4.19407 9.29784 0
M  V30 30124 O 3511.79 -5.24426 7.09156 0
M  V30 30125 O 3512.33 -2.7935 7.20758 0
M  V30 30126 C 3513.27 -1.7299 7.50419 0
M  V30 30127 C 3512.54 -0.406376 7.57911 0
M  V30 30128 O 3512.33 0.0897726 6.21935 0
M  V30 30129 C 3511.14 -0.447224 8.1878 0
M  V30 30130 O 3510.75 0.825065 8.71101 0
M  V30 30131 C 3510.26 -0.783801 6.99623 0
M  V30 30132 C 3510.97 -0.0619192 5.85967 0
M  V30 30133 N 3510.92 -0.790462 4.56202 0
M  V30 30134 C 3511 -2.13895 4.34171 0
M  V30 30135 N 3510.93 -2.46449 3.08687 0
M  V30 30136 C 3510.78 -1.2525 2.43697 0
M  V30 30137 C 3510.65 -0.914535 1.07318 0
M  V30 30138 N 3510.64 -1.80782 0.0887348 0
M  V30 30139 N 3510.53 0.386745 0.768133 0
M  V30 30140 C 3510.54 1.28096 1.75159 0
M  V30 30141 N 3510.66 1.09708 3.04861 0
M  V30 30142 C 3510.78 -0.214857 3.32306 0
M  V30 30143 H 3513.76 -1.93423 8.4679 0
M  V30 30144 H 3514.03 -1.68852 6.70877 0
M  V30 30145 H 3513.16 0.289041 8.15388 0
M  V30 30146 H 3510.51 0.927006 5.72848 0
M  V30 30147 H 3510.23 -1.86973 6.82036 0
M  V30 30148 H 3509.24 -0.403953 7.13357 0
M  V30 30149 H 3511.07 -1.20599 8.97534 0
M  V30 30150 H 3511.11 -2.86846 5.14318 0
M  V30 30151 H 3510.73 -2.81082 0.302037 0
M  V30 30152 H 3510.54 -1.49688 -0.889064 0
M  V30 30153 H 3510.43 2.31317 1.43855 0
M  V30 30154 P 3509.2 1.17771 8.83182 0
M  V30 30155 O 3508.98 2.07206 9.98732 0
M  V30 30156 O 3508.41 -0.0743816 8.81969 0
M  V30 30157 O 3508.95 1.97652 7.47304 0
M  V30 30158 C 3509.89 3.01133 7.08783 0
M  V30 30159 C 3509.16 4.12613 6.37049 0
M  V30 30160 O 3508.95 3.72827 4.97879 0
M  V30 30161 C 3507.76 4.45085 6.88694 0
M  V30 30162 O 3507.37 5.7877 6.5624 0
M  V30 30163 C 3506.88 3.47817 6.12078 0
M  V30 30164 C 3507.59 3.39414 4.77697 0
M  V30 30165 N 3507.54 2.04615 4.15333 0
M  V30 30166 H 3510.38 3.41248 7.98759 0
M  V30 30167 H 3510.65 2.5837 6.41742 0
M  V30 30168 H 3509.78 5.02657 6.42673 0
M  V30 30169 P 3505.82 6.144 6.45285 0
M  V30 30170 O 3505.6 7.54673 6.86199 0
M  V30 30171 O 3505.03 5.12391 7.179 0
M  V30 30172 O 3505.57 5.99158 4.88404 0
M  V30 30173 C 3506.51 6.60234 3.96415 0
M  V30 30174 C 3505.78 7.08259 2.72856 0
M  V30 30175 O 3505.57 5.9427 1.83651 0
M  V30 30176 C 3504.38 7.64886 2.9555 0
M  V30 30177 O 3503.99 8.53963 1.90717 0
M  V30 30178 C 3503.5 6.4116 2.90739 0
M  V30 30179 C 3504.21 5.55375 1.86963 0
M  V30 30180 N 3504.16 4.09664 2.15742 0
M  V30 30181 H 3507 7.45574 4.45629 0
M  V30 30182 H 3507.27 5.86232 3.67314 0
M  V30 30183 H 3506.4 7.84412 2.24479 0
M  V30 30184 P 3502.44 8.7635 1.60911 0
M  V30 30185 O 3502.22 10.1388 1.11561 0
M  V30 30186 O 3501.65 8.36503 2.79617 0
M  V30 30187 O 3502.19 7.71806 0.42951 0
M  V30 30188 C 3503.13 7.67148 -0.673689 0
M  V30 30189 C 3502.4 7.33374 -1.95559 0
M  V30 30190 O 3502.19 5.88721 -2.00726 0
M  V30 30191 C 3501 7.92526 -2.10483 0
M  V30 30192 O 3500.61 8.02971 -3.47653 0
M  V30 30193 C 3500.12 6.89602 -1.41652 0
M  V30 30194 C 3500.83 5.59201 -1.75185 0
M  V30 30195 N 3500.78 4.58235 -0.662552 0
M  V30 30196 H 3503.62 8.65116 -0.777161 0
M  V30 30197 H 3503.89 6.90173 -0.474152 0
M  V30 30198 H 3503.02 7.66548 -2.79458 0
M  V30 30199 P 3499.06 8.03563 -3.84925 0
M  V30 30200 O 3498.84 8.85821 -5.0569 0
M  V30 30201 O 3498.27 8.41101 -2.65469 0
M  V30 30202 O 3498.81 6.4965 -4.18908 0
M  V30 30203 C 3499.75 5.81037 -5.05421 0
M  V30 30204 C 3499.02 4.78366 -5.89277 0
M  V30 30205 O 3498.81 3.58302 -5.08433 0
M  V30 30206 C 3497.62 5.17448 -6.36119 0
M  V30 30207 O 3497.23 4.45271 -7.53232 0
M  V30 30208 C 3496.74 4.74639 -5.19936 0
M  V30 30209 C 3497.45 3.49432 -4.70418 0
M  V30 30210 N 3497.4 3.32099 -3.22613 0
M  V30 30211 H 3500.24 6.54213 -5.71376 0
M  V30 30212 H 3500.51 5.30936 -4.43503 0
M  V30 30213 H 3499.64 4.55889 -6.76652 0
M  V30 30214 H 3496.99 2.61715 -5.17932 0
M  V30 30215 H 3496.71 5.52155 -4.41878 0
M  V30 30216 H 3495.72 4.51981 -5.53374 0
M  V30 30217 H 3497.55 6.25124 -6.55234 0
M  V30 30218 P 3495.68 4.23843 -7.83734 0
M  V30 30219 O 3495.46 4.19407 -9.29784 0
M  V30 30220 O 3494.89 5.24426 -7.09156 0
M  V30 30221 O 3495.43 2.7935 -7.20758 0
M  V30 30222 C 3496.37 1.7299 -7.50419 0
M  V30 30223 C 3495.64 0.406376 -7.57911 0
M  V30 30224 O 3495.43 -0.0897726 -6.21935 0
M  V30 30225 C 3494.24 0.447224 -8.1878 0
M  V30 30226 O 3493.85 -0.825065 -8.71101 0
M  V30 30227 C 3493.36 0.783801 -6.99623 0
M  V30 30228 C 3494.07 0.0619192 -5.85967 0
M  V30 30229 N 3494.02 0.7859 -4.56281 0
M  V30 30230 H 3496.86 1.93423 -8.4679 0
M  V30 30231 H 3497.13 1.68181 -6.71046 0
M  V30 30232 H 3496.26 -0.289041 -8.15388 0
M  V30 30233 P 3492.3 -1.17771 -8.83182 0
M  V30 30234 O 3492.08 -2.07206 -9.98732 0
M  V30 30235 O 3491.51 0.0743816 -8.81969 0
M  V30 30236 O 3492.05 -1.97652 -7.47304 0
M  V30 30237 C 3492.99 -3.01133 -7.08783 0
M  V30 30238 C 3492.26 -4.12613 -6.37049 0
M  V30 30239 O 3492.05 -3.72827 -4.97879 0
M  V30 30240 C 3490.86 -4.45085 -6.88694 0
M  V30 30241 O 3490.47 -5.7877 -6.5624 0
M  V30 30242 C 3489.98 -3.47817 -6.12078 0
M  V30 30243 C 3490.69 -3.39414 -4.77697 0
M  V30 30244 N 3490.64 -2.04615 -4.15333 0
M  V30 30245 H 3493.48 -3.41248 -7.98759 0
M  V30 30246 H 3493.75 -2.5837 -6.41742 0
M  V30 30247 H 3492.88 -5.02657 -6.42673 0
M  V30 30248 P 3488.92 -6.144 -6.45285 0
M  V30 30249 O 3488.7 -7.54673 -6.86199 0
M  V30 30250 O 3488.13 -5.12391 -7.179 0
M  V30 30251 O 3488.67 -5.99158 -4.88404 0
M  V30 30252 C 3489.61 -6.60234 -3.96415 0
M  V30 30253 C 3488.88 -7.08259 -2.72856 0
M  V30 30254 O 3488.67 -5.9427 -1.83651 0
M  V30 30255 C 3487.48 -7.64886 -2.9555 0
M  V30 30256 O 3487.09 -8.53963 -1.90717 0
M  V30 30257 C 3486.6 -6.4116 -2.90739 0
M  V30 30258 C 3487.31 -5.55375 -1.86963 0
M  V30 30259 N 3487.26 -4.09448 -2.16152 0
M  V30 30260 H 3490.1 -7.45574 -4.45629 0
M  V30 30261 H 3490.37 -5.85864 -3.679 0
M  V30 30262 H 3489.5 -7.84412 -2.24479 0
M  V30 30263 H 3486.85 -5.73457 -0.888562 0
M  V30 30264 H 3486.57 -5.90877 -3.88583 0
M  V30 30265 H 3485.58 -6.6596 -2.58858 0
M  V30 30266 H 3487.41 -8.16339 -3.92049 0
M  V30 30267 P 3485.54 -8.7635 -1.60911 0
M  V30 30268 O 3485.32 -10.1388 -1.11561 0
M  V30 30269 O 3484.75 -8.36503 -2.79617 0
M  V30 30270 O 3485.29 -7.71806 -0.42951 0
M  V30 30271 C 3486.23 -7.66948 0.673514 0
M  V30 30272 C 3485.5 -7.33374 1.95559 0
M  V30 30273 O 3485.29 -5.88721 2.00726 0
M  V30 30274 C 3484.1 -7.92218 2.1125 0
M  V30 30275 O 3483.71 -8.02971 3.47653 0
M  V30 30276 C 3483.22 -6.89504 1.41631 0
M  V30 30277 C 3483.93 -5.59106 1.75155 0
M  V30 30278 N 3483.88 -4.58136 0.662409 0
M  V30 30279 C 3483.73 -3.26059 1.02863 0
M  V30 30280 O 3483.64 -2.90743 2.19009 0
M  V30 30281 N 3483.69 -2.35995 -0.0155585 0
M  V30 30282 C 3483.78 -2.65248 -1.35603 0
M  V30 30283 C 3483.93 -4.05747 -1.64698 0
M  V30 30284 C 3483.98 -4.96734 -0.652411 0
M  V30 30285 H 3486.72 -8.64917 0.776982 0
M  V30 30286 H 3486.99 -6.89974 0.474015 0
M  V30 30287 H 3486.12 -7.66548 2.79458 0
M  V30 30288 H 3483.47 -5.16076 2.65138 0
M  V30 30289 H 3483.19 -7.06433 0.329384 0
M  V30 30290 H 3482.2 -6.90829 1.81996 0
M  V30 30291 H 3484.03 -8.90774 1.62639 0
M  V30 30292 H 3484.1 -6.02181 -0.895285 0
M  V30 30293 P 3482.16 -8.03563 3.84925 0
M  V30 30294 O 3481.94 -8.85821 5.0569 0
M  V30 30295 O 3481.37 -8.41101 2.65469 0
M  V30 30296 O 3481.91 -6.4965 4.18908 0
M  V30 30297 C 3482.85 -5.81037 5.05421 0
M  V30 30298 C 3482.12 -4.78366 5.89277 0
M  V30 30299 O 3481.91 -3.58302 5.08433 0
M  V30 30300 C 3480.72 -5.17448 6.36119 0
M  V30 30301 O 3480.33 -4.45271 7.53232 0
M  V30 30302 C 3479.84 -4.74639 5.19936 0
M  V30 30303 C 3480.55 -3.49432 4.70418 0
M  V30 30304 N 3480.5 -3.31776 3.22945 0
M  V30 30305 H 3483.34 -6.54213 5.71376 0
M  V30 30306 H 3483.61 -5.30492 4.44033 0
M  V30 30307 H 3482.74 -4.55889 6.76652 0
M  V30 30308 P 3478.78 -4.23843 7.83734 0
M  V30 30309 O 3478.56 -4.19407 9.29784 0
M  V30 30310 O 3477.99 -5.24426 7.09156 0
M  V30 30311 O 3478.53 -2.7935 7.20758 0
M  V30 30312 C 3479.47 -1.7299 7.50419 0
M  V30 30313 C 3478.74 -0.406376 7.57911 0
M  V30 30314 O 3478.53 0.0897726 6.21935 0
M  V30 30315 C 3477.34 -0.447224 8.1878 0
M  V30 30316 O 3476.95 0.825065 8.71101 0
M  V30 30317 C 3476.46 -0.783801 6.99623 0
M  V30 30318 C 3477.17 -0.0619192 5.85967 0
M  V30 30319 N 3477.12 -0.7859 4.56281 0
M  V30 30320 H 3479.96 -1.93423 8.4679 0
M  V30 30321 H 3480.23 -1.68181 6.71046 0
M  V30 30322 H 3479.36 0.289041 8.15388 0
M  V30 30323 P 3475.4 1.17771 8.83182 0
M  V30 30324 O 3475.18 2.07206 9.98732 0
M  V30 30325 O 3474.61 -0.0743816 8.81969 0
M  V30 30326 O 3475.15 1.97652 7.47304 0
M  V30 30327 C 3476.09 3.01133 7.08783 0
M  V30 30328 C 3475.36 4.12613 6.37049 0
M  V30 30329 O 3475.15 3.72827 4.97879 0
M  V30 30330 C 3473.96 4.45085 6.88694 0
M  V30 30331 O 3473.57 5.7877 6.5624 0
M  V30 30332 C 3473.08 3.47817 6.12078 0
M  V30 30333 C 3473.79 3.39414 4.77697 0
M  V30 30334 N 3473.74 2.04199 4.15538 0
M  V30 30335 H 3476.58 3.41248 7.98759 0
M  V30 30336 H 3476.85 2.57728 6.42 0
M  V30 30337 H 3475.98 5.02657 6.42673 0
M  V30 30338 H 3473.33 4.11708 4.08956 0
M  V30 30339 H 3473.05 2.49626 6.61679 0
M  V30 30340 H 3472.06 3.8662 6.00862 0
M  V30 30341 H 3473.89 4.29991 7.97006 0
M  V30 30342 P 3472.02 6.144 6.45285 0
M  V30 30343 O 3471.8 7.54673 6.86199 0
M  V30 30344 O 3471.23 5.12391 7.179 0
M  V30 30345 O 3471.77 5.99158 4.88404 0
M  V30 30346 C 3472.71 6.60234 3.96415 0
M  V30 30347 C 3471.98 7.08259 2.72856 0
M  V30 30348 O 3471.77 5.9427 1.83651 0
M  V30 30349 C 3470.58 7.64886 2.9555 0
M  V30 30350 O 3470.19 8.53963 1.90717 0
M  V30 30351 C 3469.7 6.4116 2.90739 0
M  V30 30352 C 3470.41 5.55375 1.86963 0
M  V30 30353 N 3470.36 4.09448 2.16152 0
M  V30 30354 C 3470.44 3.46824 3.37593 0
M  V30 30355 N 3470.37 2.17422 3.29777 0
M  V30 30356 C 3470.22 1.93065 1.94427 0
M  V30 30357 C 3470.09 0.738053 1.20141 0
M  V30 30358 N 3470.08 -0.474256 1.74676 0
M  V30 30359 N 3469.97 0.850049 -0.13045 0
M  V30 30360 C 3469.98 2.06169 -0.676992 0
M  V30 30361 N 3470.1 3.23842 -0.101312 0
M  V30 30362 C 3470.22 3.09402 1.23122 0
M  V30 30363 H 3473.2 7.45574 4.45629 0
M  V30 30364 H 3473.47 5.85864 3.679 0
M  V30 30365 H 3472.6 7.84412 2.24479 0
M  V30 30366 H 3469.95 5.73457 0.888562 0
M  V30 30367 H 3469.67 5.90877 3.88583 0
M  V30 30368 H 3468.68 6.6596 2.58858 0
M  V30 30369 H 3470.51 8.16339 3.92049 0
M  V30 30370 H 3470.55 4.00505 4.3174 0
M  V30 30371 H 3470.17 -0.581337 2.76658 0
M  V30 30372 H 3469.98 -1.30811 1.14888 0
M  V30 30373 H 3469.87 2.08295 -1.75542 0
M  V30 30374 P 3468.64 8.7635 1.60911 0
M  V30 30375 O 3468.42 10.1388 1.11561 0
M  V30 30376 O 3467.85 8.36503 2.79617 0
M  V30 30377 O 3468.39 7.71806 0.42951 0
M  V30 30378 C 3469.33 7.67148 -0.673689 0
M  V30 30379 C 3468.6 7.33374 -1.95559 0
M  V30 30380 O 3468.39 5.88721 -2.00726 0
M  V30 30381 C 3467.2 7.92526 -2.10483 0
M  V30 30382 O 3466.81 8.02971 -3.47653 0
M  V30 30383 C 3466.32 6.89602 -1.41652 0
M  V30 30384 C 3467.03 5.59201 -1.75185 0
M  V30 30385 N 3466.98 4.58235 -0.662552 0
M  V30 30386 H 3469.82 8.65116 -0.777161 0
M  V30 30387 H 3470.09 6.90173 -0.474152 0
M  V30 30388 H 3469.22 7.66548 -2.79458 0
M  V30 30389 P 3465.26 8.03563 -3.84925 0
M  V30 30390 O 3465.04 8.85821 -5.0569 0
M  V30 30391 O 3464.47 8.41101 -2.65469 0
M  V30 30392 O 3465.01 6.4965 -4.18908 0
M  V30 30393 C 3465.95 5.80886 -5.05289 0
M  V30 30394 C 3465.22 4.78366 -5.89277 0
M  V30 30395 O 3465.01 3.58302 -5.08433 0
M  V30 30396 C 3463.82 5.16748 -6.36559 0
M  V30 30397 O 3463.43 4.45271 -7.53232 0
M  V30 30398 C 3462.94 4.74572 -5.19863 0
M  V30 30399 C 3463.65 3.49373 -4.70338 0
M  V30 30400 N 3463.6 3.31704 -3.22876 0
M  V30 30401 C 3463.45 2.03326 -2.74871 0
M  V30 30402 O 3463.36 1.06486 -3.48076 0
M  V30 30403 N 3463.41 1.91838 -1.37456 0
M  V30 30404 C 3463.5 2.94295 -0.462035 0
M  V30 30405 C 3463.65 4.25064 -1.05249 0
M  V30 30406 C 3463.7 4.40214 -2.39192 0
M  V30 30407 H 3466.44 6.54063 -5.71245 0
M  V30 30408 H 3466.71 5.30339 -4.43905 0
M  V30 30409 H 3465.84 4.55889 -6.76652 0
M  V30 30410 H 3463.19 2.6167 -5.17842 0
M  V30 30411 H 3462.91 5.52155 -4.41878 0
M  V30 30412 H 3461.92 4.51918 -5.53297 0
M  V30 30413 H 3463.75 6.25055 -6.55162 0
M  V30 30414 H 3463.82 5.39798 -2.81523 0
M  V30 30415 P 3461.88 4.23843 -7.83734 0
M  V30 30416 O 3461.66 4.19407 -9.29784 0
M  V30 30417 O 3461.09 5.24426 -7.09156 0
M  V30 30418 O 3461.63 2.7935 -7.20758 0
M  V30 30419 C 3462.57 1.72945 -7.50224 0
M  V30 30420 C 3461.84 0.406376 -7.57911 0
M  V30 30421 O 3461.63 -0.0897726 -6.21935 0
M  V30 30422 C 3460.44 0.438983 -8.18724 0
M  V30 30423 O 3460.05 -0.825065 -8.71101 0
M  V30 30424 C 3459.56 0.783689 -6.99524 0
M  V30 30425 C 3460.27 0.0619086 -5.85867 0
M  V30 30426 N 3460.22 0.78573 -4.56183 0
M  V30 30427 C 3460.07 0.0292889 -3.41887 0
M  V30 30428 O 3459.98 -1.18445 -3.4419 0
M  V30 30429 N 3460.03 0.744061 -2.23964 0
M  V30 30430 C 3460.12 2.10932 -2.10362 0
M  V30 30431 C 3460.27 2.8202 -3.34994 0
M  V30 30432 C 3460.32 2.15547 -4.52261 0
M  V30 30433 H 3463.06 1.93379 -8.46595 0
M  V30 30434 H 3463.33 1.68132 -6.70852 0
M  V30 30435 H 3462.46 -0.289041 -8.15388 0
M  V30 30436 H 3459.81 -0.926847 -5.72749 0
M  V30 30437 H 3459.53 1.86973 -6.82036 0
M  V30 30438 H 3458.54 0.403896 -7.13257 0
M  V30 30439 H 3460.37 1.20585 -8.97435 0
M  V30 30440 H 3460.44 2.71231 -5.45042 0
M  V30 30441 P 3458.5 -1.17771 -8.83182 0
M  V30 30442 O 3458.28 -2.07206 -9.98732 0
M  V30 30443 O 3457.71 0.0743816 -8.81969 0
M  V30 30444 O 3458.25 -1.97652 -7.47304 0
M  V30 30445 C 3459.19 -3.01133 -7.08783 0
M  V30 30446 C 3458.46 -4.12613 -6.37049 0
M  V30 30447 O 3458.25 -3.72827 -4.97879 0
M  V30 30448 C 3457.06 -4.45085 -6.88694 0
M  V30 30449 O 3456.67 -5.7877 -6.5624 0
M  V30 30450 C 3456.18 -3.47817 -6.12078 0
M  V30 30451 C 3456.89 -3.39414 -4.77697 0
M  V30 30452 N 3456.84 -2.04615 -4.15333 0
M  V30 30453 H 3459.68 -3.41248 -7.98759 0
M  V30 30454 H 3459.95 -2.5837 -6.41742 0
M  V30 30455 H 3459.08 -5.02657 -6.42673 0
M  V30 30456 P 3455.12 -6.144 -6.45285 0
M  V30 30457 O 3454.9 -7.54673 -6.86199 0
M  V30 30458 O 3454.33 -5.12391 -7.179 0
M  V30 30459 O 3454.87 -5.99158 -4.88404 0
M  V30 30460 C 3455.81 -6.60062 -3.96313 0
M  V30 30461 C 3455.08 -7.08259 -2.72856 0
M  V30 30462 O 3454.87 -5.9427 -1.83651 0
M  V30 30463 C 3453.68 -7.65087 -2.94749 0
M  V30 30464 O 3453.29 -8.53963 -1.90717 0
M  V30 30465 C 3452.8 -6.41069 -2.90698 0
M  V30 30466 C 3453.51 -5.5528 -1.86931 0
M  V30 30467 N 3453.46 -4.09575 -2.15696 0
M  V30 30468 C 3453.31 -3.24249 -1.08435 0
M  V30 30469 O 3453.22 -3.63946 0.0628747 0
M  V30 30470 N 3453.27 -1.90009 -1.39973 0
M  V30 30471 C 3453.36 -1.34884 -2.65614 0
M  V30 30472 O 3453.31 -0.123716 -2.81728 0
M  V30 30473 C 3453.51 -2.3145 -3.71736 0
M  V30 30474 C 3453.62 -1.75913 -5.10438 0
M  V30 30475 C 3453.56 -3.63518 -3.44754 0
M  V30 30476 H 3456.3 -7.45402 -4.45526 0
M  V30 30477 H 3456.57 -5.86062 -3.67208 0
M  V30 30478 H 3455.7 -7.84412 -2.24479 0
M  V30 30479 H 3453.05 -5.73358 -0.888409 0
M  V30 30480 H 3452.77 -5.90877 -3.88583 0
M  V30 30481 H 3451.78 -6.65867 -2.58821 0
M  V30 30482 H 3453.61 -8.16248 -3.92006 0
M  V30 30483 H 3453.68 -4.34551 -4.26383 0
M  V30 30484 H 3452.65 -1.85471 -5.61775 0
M  V30 30485 H 3454.39 -2.31364 -5.66257 0
M  V30 30486 H 3453.9 -0.695936 -5.05229 0
M  V30 30487 H 3453.16 -1.26277 -0.63625 0
M  V30 30488 P 3451.74 -8.7635 -1.60911 0
M  V30 30489 O 3451.52 -10.1388 -1.11561 0
M  V30 30490 O 3450.95 -8.36503 -2.79617 0
M  V30 30491 O 3451.49 -7.71806 -0.42951 0
M  V30 30492 C 3452.43 -7.67148 0.673689 0
M  V30 30493 C 3451.7 -7.33374 1.95559 0
M  V30 30494 O 3451.49 -5.88721 2.00726 0
M  V30 30495 C 3450.3 -7.92526 2.10483 0
M  V30 30496 O 3449.91 -8.02971 3.47653 0
M  V30 30497 C 3449.42 -6.89602 1.41652 0
M  V30 30498 C 3450.13 -5.59201 1.75185 0
M  V30 30499 N 3450.08 -4.58301 0.657969 0
M  V30 30500 H 3452.92 -8.65116 0.777161 0
M  V30 30501 H 3453.19 -6.9022 0.46725 0
M  V30 30502 H 3452.32 -7.66548 2.79458 0
M  V30 30503 H 3449.67 -5.16165 2.65183 0
M  V30 30504 H 3449.39 -7.06433 0.329384 0
M  V30 30505 H 3448.4 -6.90926 1.82021 0
M  V30 30506 H 3450.23 -8.90873 1.62657 0
M  V30 30507 P 3448.36 -8.03563 3.84925 0
M  V30 30508 O 3448.14 -8.85821 5.0569 0
M  V30 30509 O 3447.57 -8.41101 2.65469 0
M  V30 30510 O 3448.11 -6.4965 4.18908 0
M  V30 30511 C 3449.05 -5.81037 5.05421 0
M  V30 30512 C 3448.32 -4.78366 5.89277 0
M  V30 30513 O 3448.11 -3.58302 5.08433 0
M  V30 30514 C 3446.92 -5.17448 6.36119 0
M  V30 30515 O 3446.53 -4.45271 7.53232 0
M  V30 30516 C 3446.04 -4.74639 5.19936 0
M  V30 30517 C 3446.75 -3.49432 4.70418 0
M  V30 30518 N 3446.7 -3.31776 3.22945 0
M  V30 30519 H 3449.54 -6.54213 5.71376 0
M  V30 30520 H 3449.81 -5.30492 4.44033 0
M  V30 30521 H 3448.94 -4.55889 6.76652 0
M  V30 30522 P 3444.98 -4.23843 7.83734 0
M  V30 30523 O 3444.76 -4.19407 9.29784 0
M  V30 30524 O 3444.19 -5.24426 7.09156 0
M  V30 30525 O 3444.73 -2.7935 7.20758 0
M  V30 30526 C 3445.67 -1.7299 7.50419 0
M  V30 30527 C 3444.94 -0.406376 7.57911 0
M  V30 30528 O 3444.73 0.0897726 6.21935 0
M  V30 30529 C 3443.54 -0.447224 8.1878 0
M  V30 30530 O 3443.15 0.825065 8.71101 0
M  V30 30531 C 3442.66 -0.783801 6.99623 0
M  V30 30532 C 3443.37 -0.0619192 5.85967 0
M  V30 30533 N 3443.32 -0.7859 4.56281 0
M  V30 30534 H 3446.16 -1.93423 8.4679 0
M  V30 30535 H 3446.43 -1.68181 6.71046 0
M  V30 30536 H 3445.56 0.289041 8.15388 0
M  V30 30537 P 3441.6 1.17771 8.83182 0
M  V30 30538 O 3441.38 2.07206 9.98732 0
M  V30 30539 O 3440.81 -0.0743816 8.81969 0
M  V30 30540 O 3441.35 1.97652 7.47304 0
M  V30 30541 C 3442.29 3.01133 7.08783 0
M  V30 30542 C 3441.56 4.12613 6.37049 0
M  V30 30543 O 3441.35 3.72827 4.97879 0
M  V30 30544 C 3440.16 4.45085 6.88694 0
M  V30 30545 O 3439.77 5.7877 6.5624 0
M  V30 30546 C 3439.28 3.47817 6.12078 0
M  V30 30547 C 3439.99 3.39414 4.77697 0
M  V30 30548 N 3439.94 2.04615 4.15333 0
M  V30 30549 H 3442.78 3.41248 7.98759 0
M  V30 30550 H 3443.05 2.5837 6.41742 0
M  V30 30551 H 3442.18 5.02657 6.42673 0
M  V30 30552 P 3438.22 6.144 6.45285 0
M  V30 30553 O 3438 7.54673 6.86199 0
M  V30 30554 O 3437.43 5.12391 7.179 0
M  V30 30555 O 3437.97 5.99158 4.88404 0
M  V30 30556 C 3438.91 6.60062 3.96313 0
M  V30 30557 C 3438.18 7.08259 2.72856 0
M  V30 30558 O 3437.97 5.9427 1.83651 0
M  V30 30559 C 3436.78 7.65087 2.94749 0
M  V30 30560 O 3436.39 8.53963 1.90717 0
M  V30 30561 C 3435.9 6.41069 2.90698 0
M  V30 30562 C 3436.61 5.5528 1.86931 0
M  V30 30563 N 3436.56 4.09575 2.15696 0
M  V30 30564 C 3436.41 3.24249 1.08435 0
M  V30 30565 O 3436.32 3.63946 -0.0628747 0
M  V30 30566 N 3436.37 1.90009 1.39973 0
M  V30 30567 C 3436.46 1.34884 2.65614 0
M  V30 30568 O 3436.41 0.123716 2.81728 0
M  V30 30569 C 3436.61 2.3145 3.71736 0
M  V30 30570 C 3436.72 1.75913 5.10438 0
M  V30 30571 C 3436.66 3.63518 3.44754 0
M  V30 30572 H 3439.4 7.45402 4.45526 0
M  V30 30573 H 3439.67 5.86062 3.67208 0
M  V30 30574 H 3438.8 7.84412 2.24479 0
M  V30 30575 H 3436.15 5.73358 0.888409 0
M  V30 30576 H 3435.87 5.90877 3.88583 0
M  V30 30577 H 3434.88 6.65867 2.58821 0
M  V30 30578 H 3436.71 8.16248 3.92006 0
M  V30 30579 H 3436.78 4.34551 4.26383 0
M  V30 30580 H 3435.75 1.85471 5.61775 0
M  V30 30581 H 3437.49 2.31364 5.66257 0
M  V30 30582 H 3437 0.695936 5.05229 0
M  V30 30583 H 3436.26 1.26277 0.63625 0
M  V30 30584 P 3434.84 8.7635 1.60911 0
M  V30 30585 O 3434.62 10.1388 1.11561 0
M  V30 30586 O 3434.05 8.36503 2.79617 0
M  V30 30587 O 3434.59 7.71906 0.429565 0
M  V30 30588 C 3435.53 7.67148 -0.673689 0
M  V30 30589 C 3434.8 7.33666 -1.94851 0
M  V30 30590 O 3434.59 5.88816 -2.00759 0
M  V30 30591 C 3433.4 7.92526 -2.10483 0
M  V30 30592 O 3433.01 8.03063 -3.47693 0
M  V30 30593 C 3432.52 6.89602 -1.41652 0
M  V30 30594 C 3433.23 5.59201 -1.75185 0
M  V30 30595 N 3433.18 4.58235 -0.662552 0
M  V30 30596 C 3433.03 3.24451 -1.01643 0
M  V30 30597 O 3432.94 2.94958 -2.21722 0
M  V30 30598 N 3432.98 2.30408 0.165238 0
M  V30 30599 C 3433.08 2.66048 1.25118 0
M  V30 30600 N 3433.03 1.70787 2.16813 0
M  V30 30601 C 3433.23 4.02732 1.64413 0
M  V30 30602 C 3433.28 4.9488 0.63991 0
M  V30 30603 H 3436.02 8.65017 -0.777072 0
M  V30 30604 H 3436.29 6.90173 -0.474152 0
M  V30 30605 H 3435.42 7.66642 -2.79492 0
M  V30 30606 H 3432.77 5.16254 -2.65229 0
M  V30 30607 H 3432.49 7.06532 -0.329431 0
M  V30 30608 H 3431.5 6.91023 -1.82047 0
M  V30 30609 H 3433.33 8.90873 -1.62657 0
M  V30 30610 H 3433.4 6.00104 0.892197 0
M  V30 30611 H 3433.3 4.31733 2.69229 0
M  V30 30612 H 3432.91 0.724835 1.8844 0
M  V30 30613 H 3433.11 1.94716 3.16734 0
M  V30 30614 P 3431.46 8.03563 -3.84925 0
M  V30 30615 O 3431.24 8.85821 -5.0569 0
M  V30 30616 O 3430.67 8.41101 -2.65469 0
M  V30 30617 O 3431.21 6.4965 -4.18908 0
M  V30 30618 C 3432.15 5.81037 -5.05421 0
M  V30 30619 C 3431.42 4.78366 -5.89277 0
M  V30 30620 O 3431.21 3.58302 -5.08433 0
M  V30 30621 C 3430.02 5.17448 -6.36119 0
M  V30 30622 O 3429.63 4.45271 -7.53232 0
M  V30 30623 C 3429.14 4.74639 -5.19936 0
M  V30 30624 C 3429.85 3.49432 -4.70418 0
M  V30 30625 N 3429.8 3.31776 -3.22945 0
M  V30 30626 H 3432.64 6.54213 -5.71376 0
M  V30 30627 H 3432.91 5.30492 -4.44033 0
M  V30 30628 H 3432.04 4.55889 -6.76652 0
M  V30 30629 P 3428.08 4.23843 -7.83734 0
M  V30 30630 O 3427.86 4.19407 -9.29784 0
M  V30 30631 O 3427.29 5.24426 -7.09156 0
M  V30 30632 O 3427.83 2.7935 -7.20758 0
M  V30 30633 C 3428.77 1.72945 -7.50224 0
M  V30 30634 C 3428.04 0.406376 -7.57911 0
M  V30 30635 O 3427.83 -0.0897726 -6.21935 0
M  V30 30636 C 3426.64 0.438983 -8.18724 0
M  V30 30637 O 3426.25 -0.825065 -8.71101 0
M  V30 30638 C 3425.76 0.783689 -6.99524 0
M  V30 30639 C 3426.47 0.0619086 -5.85867 0
M  V30 30640 N 3426.42 0.78573 -4.56183 0
M  V30 30641 C 3426.27 0.0292889 -3.41887 0
M  V30 30642 O 3426.18 -1.18445 -3.4419 0
M  V30 30643 N 3426.23 0.744061 -2.23964 0
M  V30 30644 C 3426.32 2.10932 -2.10362 0
M  V30 30645 O 3426.27 2.64117 -0.98825 0
M  V30 30646 C 3426.47 2.8202 -3.34994 0
M  V30 30647 C 3426.58 4.31095 -3.25037 0
M  V30 30648 C 3426.52 2.15547 -4.52261 0
M  V30 30649 H 3429.26 1.93379 -8.46595 0
M  V30 30650 H 3429.53 1.68132 -6.70852 0
M  V30 30651 H 3428.66 -0.289041 -8.15388 0
M  V30 30652 H 3426.01 -0.926847 -5.72749 0
M  V30 30653 H 3425.73 1.86973 -6.82036 0
M  V30 30654 H 3424.74 0.403896 -7.13257 0
M  V30 30655 H 3426.57 1.20585 -8.97435 0
M  V30 30656 H 3426.64 2.71231 -5.45042 0
M  V30 30657 H 3425.61 4.76966 -3.49992 0
M  V30 30658 H 3427.35 4.67047 -3.95024 0
M  V30 30659 H 3426.86 4.58996 -2.22312 0
M  V30 30660 H 3426.12 0.214893 -1.39758 0
M  V30 30661 P 3424.7 -1.17771 -8.83182 0
M  V30 30662 O 3424.48 -2.07206 -9.98732 0
M  V30 30663 O 3423.91 0.0743816 -8.81969 0
M  V30 30664 O 3424.45 -1.97652 -7.47304 0
M  V30 30665 C 3425.39 -3.01133 -7.08783 0
M  V30 30666 C 3424.66 -4.12613 -6.37049 0
M  V30 30667 O 3424.45 -3.72827 -4.97879 0
M  V30 30668 C 3423.26 -4.45085 -6.88694 0
M  V30 30669 O 3422.87 -5.7877 -6.5624 0
M  V30 30670 C 3422.38 -3.47817 -6.12078 0
M  V30 30671 C 3423.09 -3.39414 -4.77697 0
M  V30 30672 N 3423.04 -2.04615 -4.15333 0
M  V30 30673 H 3425.88 -3.41248 -7.98759 0
M  V30 30674 H 3426.15 -2.5837 -6.41742 0
M  V30 30675 H 3425.28 -5.02657 -6.42673 0
M  V30 30676 P 3421.32 -6.144 -6.45285 0
M  V30 30677 O 3421.1 -7.54673 -6.86199 0
M  V30 30678 O 3420.53 -5.12391 -7.179 0
M  V30 30679 O 3421.07 -5.99158 -4.88404 0
M  V30 30680 C 3422.01 -6.60234 -3.96415 0
M  V30 30681 C 3421.28 -7.08259 -2.72856 0
M  V30 30682 O 3421.07 -5.9427 -1.83651 0
M  V30 30683 C 3419.88 -7.64886 -2.9555 0
M  V30 30684 O 3419.49 -8.53963 -1.90717 0
M  V30 30685 C 3419 -6.4116 -2.90739 0
M  V30 30686 C 3419.71 -5.55375 -1.86963 0
M  V30 30687 N 3419.66 -4.09664 -2.15742 0
M  V30 30688 H 3422.5 -7.45574 -4.45629 0
M  V30 30689 H 3422.77 -5.86232 -3.67314 0
M  V30 30690 H 3421.9 -7.84412 -2.24479 0
M  V30 30691 P 3417.94 -8.7635 -1.60911 0
M  V30 30692 O 3417.72 -10.1388 -1.11561 0
M  V30 30693 O 3417.15 -8.36503 -2.79617 0
M  V30 30694 O 3417.69 -7.71906 -0.429565 0
M  V30 30695 C 3418.63 -7.67148 0.673689 0
M  V30 30696 C 3417.9 -7.33666 1.94851 0
M  V30 30697 O 3417.69 -5.88816 2.00759 0
M  V30 30698 C 3416.5 -7.92526 2.10483 0
M  V30 30699 O 3416.11 -8.03063 3.47693 0
M  V30 30700 C 3415.62 -6.89602 1.41652 0
M  V30 30701 C 3416.33 -5.59201 1.75185 0
M  V30 30702 N 3416.28 -4.58235 0.662552 0
M  V30 30703 C 3416.13 -3.24451 1.01643 0
M  V30 30704 O 3416.04 -2.94958 2.21722 0
M  V30 30705 N 3416.08 -2.30408 -0.165238 0
M  V30 30706 C 3416.18 -2.66048 -1.25118 0
M  V30 30707 N 3416.13 -1.70787 -2.16813 0
M  V30 30708 C 3416.33 -4.02732 -1.64413 0
M  V30 30709 C 3416.38 -4.9488 -0.63991 0
M  V30 30710 H 3419.12 -8.65017 0.777072 0
M  V30 30711 H 3419.39 -6.90173 0.474152 0
M  V30 30712 H 3418.52 -7.66642 2.79492 0
M  V30 30713 H 3415.87 -5.16254 2.65229 0
M  V30 30714 H 3415.59 -7.06532 0.329431 0
M  V30 30715 H 3414.6 -6.91023 1.82047 0
M  V30 30716 H 3416.43 -8.90873 1.62657 0
M  V30 30717 H 3416.5 -6.00104 -0.892197 0
M  V30 30718 H 3416.4 -4.31733 -2.69229 0
M  V30 30719 H 3416.01 -0.724835 -1.8844 0
M  V30 30720 H 3416.21 -1.94716 -3.16734 0
M  V30 30721 P 3414.56 -8.03563 3.84925 0
M  V30 30722 O 3414.34 -8.85821 5.0569 0
M  V30 30723 O 3413.77 -8.41101 2.65469 0
M  V30 30724 O 3414.31 -6.4965 4.18908 0
M  V30 30725 C 3415.25 -5.81037 5.05421 0
M  V30 30726 C 3414.52 -4.78366 5.89277 0
M  V30 30727 O 3414.31 -3.58302 5.08433 0
M  V30 30728 C 3413.12 -5.17448 6.36119 0
M  V30 30729 O 3412.73 -4.45271 7.53232 0
M  V30 30730 C 3412.24 -4.74639 5.19936 0
M  V30 30731 C 3412.95 -3.49432 4.70418 0
M  V30 30732 N 3412.9 -3.31776 3.22945 0
M  V30 30733 H 3415.74 -6.54213 5.71376 0
M  V30 30734 H 3416.01 -5.30492 4.44033 0
M  V30 30735 H 3415.14 -4.55889 6.76652 0
M  V30 30736 P 3411.18 -4.23843 7.83734 0
M  V30 30737 O 3410.96 -4.19407 9.29784 0
M  V30 30738 O 3410.39 -5.24426 7.09156 0
M  V30 30739 O 3410.93 -2.7935 7.20758 0
M  V30 30740 C 3411.87 -1.7299 7.50419 0
M  V30 30741 C 3411.14 -0.406376 7.57911 0
M  V30 30742 O 3410.93 0.0897726 6.21935 0
M  V30 30743 C 3409.74 -0.447224 8.1878 0
M  V30 30744 O 3409.35 0.825065 8.71101 0
M  V30 30745 C 3408.86 -0.783801 6.99623 0
M  V30 30746 C 3409.57 -0.0619192 5.85967 0
M  V30 30747 N 3409.52 -0.7859 4.56281 0
M  V30 30748 H 3412.36 -1.93423 8.4679 0
M  V30 30749 H 3412.63 -1.68181 6.71046 0
M  V30 30750 H 3411.76 0.289041 8.15388 0
M  V30 30751 P 3407.8 1.17771 8.83182 0
M  V30 30752 O 3407.58 2.07206 9.98732 0
M  V30 30753 O 3407.01 -0.0743816 8.81969 0
M  V30 30754 O 3407.55 1.97652 7.47304 0
M  V30 30755 C 3408.49 3.01133 7.08783 0
M  V30 30756 C 3407.76 4.12613 6.37049 0
M  V30 30757 O 3407.55 3.72827 4.97879 0
M  V30 30758 C 3406.36 4.45085 6.88694 0
M  V30 30759 O 3405.97 5.7877 6.5624 0
M  V30 30760 C 3405.48 3.47817 6.12078 0
M  V30 30761 C 3406.19 3.39414 4.77697 0
M  V30 30762 N 3406.14 2.04615 4.15333 0
M  V30 30763 H 3408.98 3.41248 7.98759 0
M  V30 30764 H 3409.25 2.5837 6.41742 0
M  V30 30765 H 3408.38 5.02657 6.42673 0
M  V30 30766 P 3404.42 6.144 6.45285 0
M  V30 30767 O 3404.2 7.54673 6.86199 0
M  V30 30768 O 3403.63 5.12391 7.179 0
M  V30 30769 O 3404.17 5.99158 4.88404 0
M  V30 30770 C 3405.11 6.60234 3.96415 0
M  V30 30771 C 3404.38 7.08259 2.72856 0
M  V30 30772 O 3404.17 5.9427 1.83651 0
M  V30 30773 C 3402.98 7.64886 2.9555 0
M  V30 30774 O 3402.59 8.53963 1.90717 0
M  V30 30775 C 3402.1 6.4116 2.90739 0
M  V30 30776 C 3402.81 5.55375 1.86963 0
M  V30 30777 N 3402.76 4.09664 2.15742 0
M  V30 30778 H 3405.6 7.45574 4.45629 0
M  V30 30779 H 3405.87 5.86232 3.67314 0
M  V30 30780 H 3405 7.84412 2.24479 0
M  V30 30781 P 3401.04 8.7635 1.60911 0
M  V30 30782 O 3400.82 10.1388 1.11561 0
M  V30 30783 O 3400.25 8.36503 2.79617 0
M  V30 30784 O 3400.79 7.71806 0.42951 0
M  V30 30785 C 3401.73 7.66948 -0.673514 0
M  V30 30786 C 3401 7.33374 -1.95559 0
M  V30 30787 O 3400.79 5.88721 -2.00726 0
M  V30 30788 C 3399.6 7.92218 -2.1125 0
M  V30 30789 O 3399.21 8.02971 -3.47653 0
M  V30 30790 C 3398.72 6.89504 -1.41631 0
M  V30 30791 C 3399.43 5.59106 -1.75155 0
M  V30 30792 N 3399.38 4.58136 -0.662409 0
M  V30 30793 C 3399.23 3.26059 -1.02863 0
M  V30 30794 O 3399.14 2.90743 -2.19009 0
M  V30 30795 N 3399.19 2.35995 0.0155585 0
M  V30 30796 C 3399.28 2.65248 1.35603 0
M  V30 30797 C 3399.43 4.05747 1.64698 0
M  V30 30798 C 3399.48 4.96734 0.652411 0
M  V30 30799 H 3402.22 8.64917 -0.776982 0
M  V30 30800 H 3402.49 6.89974 -0.474015 0
M  V30 30801 H 3401.62 7.66548 -2.79458 0
M  V30 30802 H 3398.97 5.16076 -2.65138 0
M  V30 30803 H 3398.69 7.06433 -0.329384 0
M  V30 30804 H 3397.7 6.90829 -1.81996 0
M  V30 30805 H 3399.53 8.90774 -1.62639 0
M  V30 30806 H 3399.6 6.02181 0.895285 0
M  V30 30807 P 3397.66 8.03563 -3.84925 0
M  V30 30808 O 3397.44 8.85821 -5.0569 0
M  V30 30809 O 3396.87 8.41101 -2.65469 0
M  V30 30810 O 3397.41 6.4965 -4.18908 0
M  V30 30811 C 3398.35 5.80886 -5.05289 0
M  V30 30812 C 3397.62 4.78366 -5.89277 0
M  V30 30813 O 3397.41 3.58302 -5.08433 0
M  V30 30814 C 3396.22 5.16748 -6.36559 0
M  V30 30815 O 3395.83 4.45271 -7.53232 0
M  V30 30816 C 3395.34 4.74572 -5.19863 0
M  V30 30817 C 3396.05 3.49373 -4.70338 0
M  V30 30818 N 3396 3.31704 -3.22876 0
M  V30 30819 C 3395.85 2.03326 -2.74871 0
M  V30 30820 O 3395.76 1.06486 -3.48076 0
M  V30 30821 N 3395.81 1.91838 -1.37456 0
M  V30 30822 C 3395.9 2.94295 -0.462035 0
M  V30 30823 O 3395.85 2.71763 0.752928 0
M  V30 30824 C 3396.05 4.25064 -1.05249 0
M  V30 30825 C 3396.16 5.39815 -0.095697 0
M  V30 30826 C 3396.1 4.40214 -2.39192 0
M  V30 30827 H 3398.84 6.54063 -5.71245 0
M  V30 30828 H 3399.11 5.30339 -4.43905 0
M  V30 30829 H 3398.24 4.55889 -6.76652 0
M  V30 30830 H 3395.59 2.6167 -5.17842 0
M  V30 30831 H 3395.31 5.52155 -4.41878 0
M  V30 30832 H 3394.32 4.51918 -5.53297 0
M  V30 30833 H 3396.15 6.25055 -6.55162 0
M  V30 30834 H 3396.22 5.39798 -2.81523 0
M  V30 30835 H 3395.19 5.91593 -0.0279582 0
M  V30 30836 H 3396.93 6.10038 -0.450573 0
M  V30 30837 H 3396.44 5.02007 0.89937 0
M  V30 30838 H 3395.7 0.995326 -1.00435 0
M  V30 30839 P 3394.28 4.23843 -7.83734 0
M  V30 30840 O 3394.06 4.19407 -9.29784 0
M  V30 30841 O 3393.49 5.24426 -7.09156 0
M  V30 30842 O 3394.03 2.7935 -7.20758 0
M  V30 30843 C 3394.97 1.7299 -7.50419 0
M  V30 30844 C 3394.24 0.406376 -7.57911 0
M  V30 30845 O 3394.03 -0.0897726 -6.21935 0
M  V30 30846 C 3392.84 0.447224 -8.1878 0
M  V30 30847 O 3392.45 -0.825065 -8.71101 0
M  V30 30848 C 3391.96 0.783801 -6.99623 0
M  V30 30849 C 3392.67 0.0619192 -5.85967 0
M  V30 30850 N 3392.62 0.7859 -4.56281 0
M  V30 30851 H 3395.46 1.93423 -8.4679 0
M  V30 30852 H 3395.73 1.68181 -6.71046 0
M  V30 30853 H 3394.86 -0.289041 -8.15388 0
M  V30 30854 P 3390.9 -1.17771 -8.83182 0
M  V30 30855 O 3390.68 -2.07206 -9.98732 0
M  V30 30856 O 3390.11 0.0743816 -8.81969 0
M  V30 30857 O 3390.65 -1.97652 -7.47304 0
M  V30 30858 C 3391.59 -3.01133 -7.08783 0
M  V30 30859 C 3390.86 -4.12613 -6.37049 0
M  V30 30860 O 3390.65 -3.72827 -4.97879 0
M  V30 30861 C 3389.46 -4.45085 -6.88694 0
M  V30 30862 O 3389.07 -5.7877 -6.5624 0
M  V30 30863 C 3388.58 -3.47817 -6.12078 0
M  V30 30864 C 3389.29 -3.39414 -4.77697 0
M  V30 30865 N 3389.24 -2.04615 -4.15333 0
M  V30 30866 H 3392.08 -3.41248 -7.98759 0
M  V30 30867 H 3392.35 -2.5837 -6.41742 0
M  V30 30868 H 3391.48 -5.02657 -6.42673 0
M  V30 30869 P 3387.52 -6.144 -6.45285 0
M  V30 30870 O 3387.3 -7.54673 -6.86199 0
M  V30 30871 O 3386.73 -5.12391 -7.179 0
M  V30 30872 O 3387.27 -5.99158 -4.88404 0
M  V30 30873 C 3388.21 -6.60234 -3.96415 0
M  V30 30874 C 3387.48 -7.08259 -2.72856 0
M  V30 30875 O 3387.27 -5.9427 -1.83651 0
M  V30 30876 C 3386.08 -7.64886 -2.9555 0
M  V30 30877 O 3385.69 -8.53963 -1.90717 0
M  V30 30878 C 3385.2 -6.4116 -2.90739 0
M  V30 30879 C 3385.91 -5.55375 -1.86963 0
M  V30 30880 N 3385.86 -4.09664 -2.15742 0
M  V30 30881 H 3388.7 -7.45574 -4.45629 0
M  V30 30882 H 3388.97 -5.86232 -3.67314 0
M  V30 30883 H 3388.1 -7.84412 -2.24479 0
M  V30 30884 P 3384.14 -8.7635 -1.60911 0
M  V30 30885 O 3383.92 -10.1388 -1.11561 0
M  V30 30886 O 3383.35 -8.36503 -2.79617 0
M  V30 30887 O 3383.89 -7.71806 -0.42951 0
M  V30 30888 C 3384.83 -7.67148 0.673689 0
M  V30 30889 C 3384.1 -7.33374 1.95559 0
M  V30 30890 O 3383.89 -5.88721 2.00726 0
M  V30 30891 C 3382.7 -7.92526 2.10483 0
M  V30 30892 O 3382.31 -8.02971 3.47653 0
M  V30 30893 C 3381.82 -6.89602 1.41652 0
M  V30 30894 C 3382.53 -5.59201 1.75185 0
M  V30 30895 N 3382.48 -4.58235 0.662552 0
M  V30 30896 H 3385.32 -8.65116 0.777161 0
M  V30 30897 H 3385.59 -6.90173 0.474152 0
M  V30 30898 H 3384.72 -7.66548 2.79458 0
M  V30 30899 P 3380.76 -8.03563 3.84925 0
M  V30 30900 O 3380.54 -8.85821 5.0569 0
M  V30 30901 O 3379.97 -8.41101 2.65469 0
M  V30 30902 O 3380.51 -6.4965 4.18908 0
M  V30 30903 C 3381.45 -5.80886 5.05289 0
M  V30 30904 C 3380.72 -4.78366 5.89277 0
M  V30 30905 O 3380.51 -3.58302 5.08433 0
M  V30 30906 C 3379.32 -5.16748 6.36559 0
M  V30 30907 O 3378.93 -4.45271 7.53232 0
M  V30 30908 C 3378.44 -4.74572 5.19863 0
M  V30 30909 C 3379.15 -3.49373 4.70338 0
M  V30 30910 N 3379.1 -3.31704 3.22876 0
M  V30 30911 C 3378.95 -2.03326 2.74871 0
M  V30 30912 O 3378.86 -1.06486 3.48076 0
M  V30 30913 N 3378.91 -1.91838 1.37456 0
M  V30 30914 C 3379 -2.94295 0.462035 0
M  V30 30915 O 3378.95 -2.71763 -0.752928 0
M  V30 30916 C 3379.15 -4.25064 1.05249 0
M  V30 30917 C 3379.26 -5.39815 0.095697 0
M  V30 30918 C 3379.2 -4.40214 2.39192 0
M  V30 30919 H 3381.94 -6.54063 5.71245 0
M  V30 30920 H 3382.21 -5.30339 4.43905 0
M  V30 30921 H 3381.34 -4.55889 6.76652 0
M  V30 30922 H 3378.69 -2.6167 5.17842 0
M  V30 30923 H 3378.41 -5.52155 4.41878 0
M  V30 30924 H 3377.42 -4.51918 5.53297 0
M  V30 30925 H 3379.25 -6.25055 6.55162 0
M  V30 30926 H 3379.32 -5.39798 2.81523 0
M  V30 30927 H 3378.29 -5.91593 0.0279582 0
M  V30 30928 H 3380.03 -6.10038 0.450573 0
M  V30 30929 H 3379.54 -5.02007 -0.89937 0
M  V30 30930 H 3378.81 -0.995326 1.00435 0
M  V30 30931 P 3377.38 -4.23843 7.83734 0
M  V30 30932 O 3377.16 -4.19407 9.29784 0
M  V30 30933 O 3376.59 -5.24426 7.09156 0
M  V30 30934 O 3377.13 -2.7935 7.20758 0
M  V30 30935 C 3378.07 -1.7299 7.50419 0
M  V30 30936 C 3377.34 -0.406376 7.57911 0
M  V30 30937 O 3377.13 0.0897726 6.21935 0
M  V30 30938 C 3375.94 -0.447224 8.1878 0
M  V30 30939 O 3375.55 0.825065 8.71101 0
M  V30 30940 C 3375.06 -0.783801 6.99623 0
M  V30 30941 C 3375.77 -0.0619192 5.85967 0
M  V30 30942 N 3375.72 -0.7859 4.56281 0
M  V30 30943 H 3378.56 -1.93423 8.4679 0
M  V30 30944 H 3378.83 -1.68181 6.71046 0
M  V30 30945 H 3377.96 0.289041 8.15388 0
M  V30 30946 P 3374 1.17771 8.83182 0
M  V30 30947 O 3373.78 2.07206 9.98732 0
M  V30 30948 O 3373.21 -0.0743816 8.81969 0
M  V30 30949 O 3373.75 1.97652 7.47304 0
M  V30 30950 C 3374.69 3.01055 7.08599 0
M  V30 30951 C 3373.96 4.12613 6.37049 0
M  V30 30952 O 3373.75 3.72827 4.97879 0
M  V30 30953 C 3372.56 4.45719 6.88164 0
M  V30 30954 O 3372.17 5.7877 6.5624 0
M  V30 30955 C 3371.68 3.47768 6.11991 0
M  V30 30956 C 3372.39 3.39356 4.77615 0
M  V30 30957 N 3372.34 2.04571 4.15244 0
M  V30 30958 C 3372.19 1.98587 2.78314 0
M  V30 30959 O 3372.1 2.98134 2.08835 0
M  V30 30960 N 3372.15 0.714467 2.24925 0
M  V30 30961 C 3372.24 -0.470001 2.94169 0
M  V30 30962 C 3372.39 -0.312541 4.36783 0
M  V30 30963 C 3372.44 0.914512 4.92583 0
M  V30 30964 H 3375.18 3.41169 7.98575 0
M  V30 30965 H 3375.45 2.58295 6.41556 0
M  V30 30966 H 3374.58 5.02657 6.42673 0
M  V30 30967 H 3371.93 4.11637 4.08885 0
M  V30 30968 H 3371.65 2.49626 6.61679 0
M  V30 30969 H 3370.66 3.86566 6.00778 0
M  V30 30970 H 3372.49 4.29943 7.96918 0
M  V30 30971 H 3372.56 1.00937 6.00374 0
M  V30 30972 P 3370.62 6.144 6.45285 0
M  V30 30973 O 3370.4 7.54673 6.86199 0
M  V30 30974 O 3369.83 5.12391 7.179 0
M  V30 30975 O 3370.37 5.99158 4.88404 0
M  V30 30976 C 3371.31 6.60234 3.96415 0
M  V30 30977 C 3370.58 7.08259 2.72856 0
M  V30 30978 O 3370.37 5.9427 1.83651 0
M  V30 30979 C 3369.18 7.64886 2.9555 0
M  V30 30980 O 3368.79 8.53963 1.90717 0
M  V30 30981 C 3368.3 6.4116 2.90739 0
M  V30 30982 C 3369.01 5.55375 1.86963 0
M  V30 30983 N 3368.96 4.09664 2.15742 0
M  V30 30984 H 3371.8 7.45574 4.45629 0
M  V30 30985 H 3372.07 5.86232 3.67314 0
M  V30 30986 H 3371.2 7.84412 2.24479 0
M  V30 30987 P 3367.24 8.7635 1.60911 0
M  V30 30988 O 3367.02 10.1388 1.11561 0
M  V30 30989 O 3366.45 8.36503 2.79617 0
M  V30 30990 O 3366.99 7.71806 0.42951 0
M  V30 30991 C 3367.93 7.66948 -0.673514 0
M  V30 30992 C 3367.2 7.33374 -1.95559 0
M  V30 30993 O 3366.99 5.88721 -2.00726 0
M  V30 30994 C 3365.8 7.92218 -2.1125 0
M  V30 30995 O 3365.41 8.02971 -3.47653 0
M  V30 30996 C 3364.92 6.89504 -1.41631 0
M  V30 30997 C 3365.63 5.59106 -1.75155 0
M  V30 30998 N 3365.58 4.58136 -0.662409 0
M  V30 30999 C 3365.43 3.26059 -1.02863 0
M  V30 31000 O 3365.34 2.90743 -2.19009 0
M  V30 31001 N 3365.39 2.35995 0.0155585 0
M  V30 31002 C 3365.48 2.65248 1.35603 0
M  V30 31003 O 3365.43 1.75605 2.20651 0
M  V30 31004 C 3365.63 4.05747 1.64698 0
M  V30 31005 C 3365.74 4.42345 3.09553 0
M  V30 31006 C 3365.68 4.96734 0.652411 0
M  V30 31007 H 3368.42 8.64917 -0.776982 0
M  V30 31008 H 3368.69 6.89974 -0.474015 0
M  V30 31009 H 3367.82 7.66548 -2.79458 0
M  V30 31010 H 3365.17 5.16076 -2.65138 0
M  V30 31011 H 3364.89 7.06433 -0.329384 0
M  V30 31012 H 3363.9 6.90829 -1.81996 0
M  V30 31013 H 3365.73 8.90774 -1.62639 0
M  V30 31014 H 3365.8 6.02181 0.895285 0
M  V30 31015 H 3364.77 4.80252 3.45468 0
M  V30 31016 H 3366.51 5.20015 3.22119 0
M  V30 31017 H 3366.02 3.53269 3.67833 0
M  V30 31018 H 3365.29 1.39558 -0.227499 0
M  V30 31019 P 3363.86 8.03563 -3.84925 0
M  V30 31020 O 3363.64 8.85821 -5.0569 0
M  V30 31021 O 3363.07 8.41101 -2.65469 0
M  V30 31022 O 3363.61 6.4965 -4.18908 0
M  V30 31023 C 3364.55 5.81037 -5.05421 0
M  V30 31024 C 3363.82 4.78366 -5.89277 0
M  V30 31025 O 3363.61 3.58302 -5.08433 0
M  V30 31026 C 3362.42 5.17448 -6.36119 0
M  V30 31027 O 3362.03 4.45271 -7.53232 0
M  V30 31028 C 3361.54 4.74639 -5.19936 0
M  V30 31029 C 3362.25 3.49432 -4.70418 0
M  V30 31030 N 3362.2 3.31776 -3.22945 0
M  V30 31031 H 3365.04 6.54213 -5.71376 0
M  V30 31032 H 3365.31 5.30492 -4.44033 0
M  V30 31033 H 3364.44 4.55889 -6.76652 0
M  V30 31034 P 3360.48 4.23843 -7.83734 0
M  V30 31035 O 3360.26 4.19407 -9.29784 0
M  V30 31036 O 3359.69 5.24426 -7.09156 0
M  V30 31037 O 3360.23 2.7935 -7.20758 0
M  V30 31038 C 3361.17 1.72945 -7.50224 0
M  V30 31039 C 3360.44 0.406376 -7.57911 0
M  V30 31040 O 3360.23 -0.0897726 -6.21935 0
M  V30 31041 C 3359.04 0.438983 -8.18724 0
M  V30 31042 O 3358.65 -0.825065 -8.71101 0
M  V30 31043 C 3358.16 0.783689 -6.99524 0
M  V30 31044 C 3358.87 0.0619086 -5.85867 0
M  V30 31045 N 3358.82 0.78573 -4.56183 0
M  V30 31046 C 3358.67 0.0292889 -3.41887 0
M  V30 31047 O 3358.58 -1.18445 -3.4419 0
M  V30 31048 N 3358.63 0.744061 -2.23964 0
M  V30 31049 C 3358.72 2.10932 -2.10362 0
M  V30 31050 O 3358.67 2.64117 -0.98825 0
M  V30 31051 C 3358.87 2.8202 -3.34994 0
M  V30 31052 C 3358.98 4.31095 -3.25037 0
M  V30 31053 C 3358.92 2.15547 -4.52261 0
M  V30 31054 H 3361.66 1.93379 -8.46595 0
M  V30 31055 H 3361.93 1.68132 -6.70852 0
M  V30 31056 H 3361.06 -0.289041 -8.15388 0
M  V30 31057 H 3358.41 -0.926847 -5.72749 0
M  V30 31058 H 3358.13 1.86973 -6.82036 0
M  V30 31059 H 3357.14 0.403896 -7.13257 0
M  V30 31060 H 3358.97 1.20585 -8.97435 0
M  V30 31061 H 3359.04 2.71231 -5.45042 0
M  V30 31062 H 3358.01 4.76966 -3.49992 0
M  V30 31063 H 3359.75 4.67047 -3.95024 0
M  V30 31064 H 3359.26 4.58996 -2.22312 0
M  V30 31065 H 3358.53 0.214893 -1.39758 0
M  V30 31066 P 3357.1 -1.17771 -8.83182 0
M  V30 31067 O 3356.88 -2.07206 -9.98732 0
M  V30 31068 O 3356.31 0.0743816 -8.81969 0
M  V30 31069 O 3356.85 -1.97652 -7.47304 0
M  V30 31070 C 3357.79 -3.01055 -7.08599 0
M  V30 31071 C 3357.06 -4.12613 -6.37049 0
M  V30 31072 O 3356.85 -3.72827 -4.97879 0
M  V30 31073 C 3355.66 -4.45719 -6.88164 0
M  V30 31074 O 3355.27 -5.7877 -6.5624 0
M  V30 31075 C 3354.78 -3.47768 -6.11991 0
M  V30 31076 C 3355.49 -3.39356 -4.77615 0
M  V30 31077 N 3355.44 -2.04571 -4.15244 0
M  V30 31078 C 3355.29 -1.98587 -2.78314 0
M  V30 31079 O 3355.2 -2.98134 -2.08835 0
M  V30 31080 N 3355.25 -0.714467 -2.24925 0
M  V30 31081 C 3355.34 0.470001 -2.94169 0
M  V30 31082 O 3355.29 1.55587 -2.35195 0
M  V30 31083 C 3355.49 0.312541 -4.36783 0
M  V30 31084 C 3355.6 1.57711 -5.16352 0
M  V30 31085 C 3355.54 -0.914512 -4.92583 0
M  V30 31086 H 3358.28 -3.41169 -7.98575 0
M  V30 31087 H 3358.55 -2.58295 -6.41556 0
M  V30 31088 H 3357.68 -5.02657 -6.42673 0
M  V30 31089 H 3355.03 -4.11637 -4.08885 0
M  V30 31090 H 3354.75 -2.49626 -6.61679 0
M  V30 31091 H 3353.76 -3.86566 -6.00778 0
M  V30 31092 H 3355.59 -4.29943 -7.96918 0
M  V30 31093 H 3355.66 -1.00937 -6.00374 0
M  V30 31094 H 3354.63 1.80153 -5.63503 0
M  V30 31095 H 3356.37 1.4566 -5.94104 0
M  V30 31096 H 3355.88 2.40664 -4.49645 0
M  V30 31097 H 3355.15 -0.647622 -1.25697 0
M  V30 31098 P 3353.72 -6.144 -6.45285 0
M  V30 31099 O 3353.5 -7.54673 -6.86199 0
M  V30 31100 O 3352.93 -5.12391 -7.179 0
M  V30 31101 O 3353.47 -5.99158 -4.88404 0
M  V30 31102 C 3354.41 -6.60062 -3.96313 0
M  V30 31103 C 3353.68 -7.08259 -2.72856 0
M  V30 31104 O 3353.47 -5.9427 -1.83651 0
M  V30 31105 C 3352.28 -7.65087 -2.94749 0
M  V30 31106 O 3351.89 -8.53963 -1.90717 0
M  V30 31107 C 3351.4 -6.41069 -2.90698 0
M  V30 31108 C 3352.11 -5.5528 -1.86931 0
M  V30 31109 N 3352.06 -4.09575 -2.15696 0
M  V30 31110 C 3351.91 -3.24249 -1.08435 0
M  V30 31111 O 3351.82 -3.63946 0.0628747 0
M  V30 31112 N 3351.87 -1.90009 -1.39973 0
M  V30 31113 C 3351.96 -1.34884 -2.65614 0
M  V30 31114 O 3351.91 -0.123716 -2.81728 0
M  V30 31115 C 3352.11 -2.3145 -3.71736 0
M  V30 31116 C 3352.22 -1.75913 -5.10438 0
M  V30 31117 C 3352.16 -3.63518 -3.44754 0
M  V30 31118 H 3354.9 -7.45402 -4.45526 0
M  V30 31119 H 3355.17 -5.86062 -3.67208 0
M  V30 31120 H 3354.3 -7.84412 -2.24479 0
M  V30 31121 H 3351.65 -5.73358 -0.888409 0
M  V30 31122 H 3351.37 -5.90877 -3.88583 0
M  V30 31123 H 3350.38 -6.65867 -2.58821 0
M  V30 31124 H 3352.21 -8.16248 -3.92006 0
M  V30 31125 H 3352.28 -4.34551 -4.26383 0
M  V30 31126 H 3351.25 -1.85471 -5.61775 0
M  V30 31127 H 3352.99 -2.31364 -5.66257 0
M  V30 31128 H 3352.5 -0.695936 -5.05229 0
M  V30 31129 H 3351.77 -1.26277 -0.63625 0
M  V30 31130 P 3350.34 -8.7635 -1.60911 0
M  V30 31131 O 3350.12 -10.1388 -1.11561 0
M  V30 31132 O 3349.55 -8.36503 -2.79617 0
M  V30 31133 O 3350.09 -7.71806 -0.42951 0
M  V30 31134 C 3351.03 -7.66948 0.673514 0
M  V30 31135 C 3350.3 -7.33374 1.95559 0
M  V30 31136 O 3350.09 -5.88721 2.00726 0
M  V30 31137 C 3348.9 -7.92218 2.1125 0
M  V30 31138 O 3348.51 -8.02971 3.47653 0
M  V30 31139 C 3348.02 -6.89504 1.41631 0
M  V30 31140 C 3348.73 -5.59106 1.75155 0
M  V30 31141 N 3348.68 -4.58136 0.662409 0
M  V30 31142 C 3348.53 -3.26059 1.02863 0
M  V30 31143 O 3348.44 -2.90743 2.19009 0
M  V30 31144 N 3348.49 -2.35995 -0.0155585 0
M  V30 31145 C 3348.58 -2.65248 -1.35603 0
M  V30 31146 O 3348.53 -1.75605 -2.20651 0
M  V30 31147 C 3348.73 -4.05747 -1.64698 0
M  V30 31148 C 3348.84 -4.42345 -3.09553 0
M  V30 31149 C 3348.78 -4.96734 -0.652411 0
M  V30 31150 H 3351.52 -8.64917 0.776982 0
M  V30 31151 H 3351.79 -6.89974 0.474015 0
M  V30 31152 H 3350.92 -7.66548 2.79458 0
M  V30 31153 H 3348.27 -5.16076 2.65138 0
M  V30 31154 H 3347.99 -7.06433 0.329384 0
M  V30 31155 H 3347 -6.90829 1.81996 0
M  V30 31156 H 3348.83 -8.90774 1.62639 0
M  V30 31157 H 3348.9 -6.02181 -0.895285 0
M  V30 31158 H 3347.87 -4.80252 -3.45468 0
M  V30 31159 H 3349.61 -5.20015 -3.22119 0
M  V30 31160 H 3349.12 -3.53269 -3.67833 0
M  V30 31161 H 3348.39 -1.39558 0.227499 0
M  V30 31162 P 3346.96 -8.03563 3.84925 0
M  V30 31163 O 3346.74 -8.85821 5.0569 0
M  V30 31164 O 3346.17 -8.41101 2.65469 0
M  V30 31165 O 3346.71 -6.49734 4.18962 0
M  V30 31166 C 3347.65 -5.81037 5.05421 0
M  V30 31167 C 3346.92 -4.79018 5.88876 0
M  V30 31168 O 3346.71 -3.58359 5.08515 0
M  V30 31169 C 3345.52 -5.17448 6.36119 0
M  V30 31170 O 3345.13 -4.45322 7.53318 0
M  V30 31171 C 3344.64 -4.74639 5.19936 0
M  V30 31172 C 3345.35 -3.49432 4.70418 0
M  V30 31173 N 3345.3 -3.31776 3.22945 0
M  V30 31174 C 3345.15 -2.02742 2.72939 0
M  V30 31175 O 3345.06 -1.08301 3.52749 0
M  V30 31176 N 3345.1 -1.96117 1.22063 0
M  V30 31177 C 3345.2 -2.8878 0.551566 0
M  V30 31178 N 3345.15 -2.65609 -0.750198 0
M  V30 31179 C 3345.35 -4.22457 1.03707 0
M  V30 31180 C 3345.4 -4.37979 2.39113 0
M  V30 31181 H 3348.14 -6.54138 5.7131 0
M  V30 31182 H 3348.41 -5.30492 4.44033 0
M  V30 31183 H 3347.54 -4.55945 6.76735 0
M  V30 31184 H 3344.89 -2.6176 5.18021 0
M  V30 31185 H 3344.61 -5.52233 4.41941 0
M  V30 31186 H 3343.62 -4.52045 5.53452 0
M  V30 31187 H 3345.45 -6.25124 6.55234 0
M  V30 31188 H 3345.52 -5.37936 2.80552 0
M  V30 31189 H 3345.42 -5.07528 0.359553 0
M  V30 31190 H 3345.03 -1.69403 -1.09847 0
M  V30 31191 H 3345.23 -3.43701 -1.41792 0
M  V30 31192 P 3343.58 -4.23843 7.83734 0
M  V30 31193 O 3343.36 -4.19407 9.29784 0
M  V30 31194 O 3342.79 -5.24426 7.09156 0
M  V30 31195 O 3343.33 -2.7935 7.20758 0
M  V30 31196 C 3344.27 -1.7299 7.50419 0
M  V30 31197 C 3343.54 -0.406376 7.57911 0
M  V30 31198 O 3343.33 0.0897726 6.21935 0
M  V30 31199 C 3342.14 -0.447224 8.1878 0
M  V30 31200 O 3341.75 0.825065 8.71101 0
M  V30 31201 C 3341.26 -0.783801 6.99623 0
M  V30 31202 C 3341.97 -0.0619192 5.85967 0
M  V30 31203 N 3341.92 -0.790462 4.56202 0
M  V30 31204 H 3344.76 -1.93423 8.4679 0
M  V30 31205 H 3345.03 -1.68852 6.70877 0
M  V30 31206 H 3344.16 0.289041 8.15388 0
M  V30 31207 H 3341.51 0.927006 5.72848 0
M  V30 31208 H 3341.23 -1.86973 6.82036 0
M  V30 31209 H 3340.24 -0.403953 7.13357 0
M  V30 31210 H 3342.07 -1.20599 8.97534 0
M  V30 31211 P 3340.2 1.17771 8.83182 0
M  V30 31212 O 3339.98 2.07206 9.98732 0
M  V30 31213 O 3339.41 -0.0743816 8.81969 0
M  V30 31214 O 3339.95 1.97652 7.47304 0
M  V30 31215 C 3340.89 3.01133 7.08783 0
M  V30 31216 C 3340.16 4.12613 6.37049 0
M  V30 31217 O 3339.95 3.72827 4.97879 0
M  V30 31218 C 3338.76 4.45085 6.88694 0
M  V30 31219 O 3338.37 5.7877 6.5624 0
M  V30 31220 C 3337.88 3.47817 6.12078 0
M  V30 31221 C 3338.59 3.39414 4.77697 0
M  V30 31222 N 3338.54 2.04615 4.15333 0
M  V30 31223 H 3341.38 3.41248 7.98759 0
M  V30 31224 H 3341.65 2.5837 6.41742 0
M  V30 31225 H 3340.78 5.02657 6.42673 0
M  V30 31226 P 3336.82 6.144 6.45285 0
M  V30 31227 O 3336.6 7.54673 6.86199 0
M  V30 31228 O 3336.03 5.12391 7.179 0
M  V30 31229 O 3336.57 5.99158 4.88404 0
M  V30 31230 C 3337.51 6.60234 3.96415 0
M  V30 31231 C 3336.78 7.08259 2.72856 0
M  V30 31232 O 3336.57 5.9427 1.83651 0
M  V30 31233 C 3335.38 7.64886 2.9555 0
M  V30 31234 O 3334.99 8.53963 1.90717 0
M  V30 31235 C 3334.5 6.4116 2.90739 0
M  V30 31236 C 3335.21 5.55375 1.86963 0
M  V30 31237 N 3335.16 4.09448 2.16152 0
M  V30 31238 C 3335.24 3.46824 3.37593 0
M  V30 31239 N 3335.17 2.17422 3.29777 0
M  V30 31240 C 3335.02 1.93065 1.94427 0
M  V30 31241 C 3334.89 0.738053 1.20141 0
M  V30 31242 N 3334.88 -0.474256 1.74676 0
M  V30 31243 N 3334.77 0.850049 -0.13045 0
M  V30 31244 C 3334.78 2.06169 -0.676992 0
M  V30 31245 N 3334.9 3.23842 -0.101312 0
M  V30 31246 C 3335.02 3.09402 1.23122 0
M  V30 31247 H 3338 7.45574 4.45629 0
M  V30 31248 H 3338.27 5.85864 3.679 0
M  V30 31249 H 3337.4 7.84412 2.24479 0
M  V30 31250 H 3334.75 5.73457 0.888562 0
M  V30 31251 H 3334.47 5.90877 3.88583 0
M  V30 31252 H 3333.48 6.6596 2.58858 0
M  V30 31253 H 3335.31 8.16339 3.92049 0
M  V30 31254 H 3335.35 4.00505 4.3174 0
M  V30 31255 H 3334.97 -0.581337 2.76658 0
M  V30 31256 H 3334.78 -1.30811 1.14888 0
M  V30 31257 H 3334.67 2.08295 -1.75542 0
M  V30 31258 P 3333.44 8.7635 1.60911 0
M  V30 31259 O 3333.22 10.1388 1.11561 0
M  V30 31260 O 3332.65 8.36503 2.79617 0
M  V30 31261 O 3333.19 7.71806 0.42951 0
M  V30 31262 C 3334.13 7.67148 -0.673689 0
M  V30 31263 C 3333.4 7.33374 -1.95559 0
M  V30 31264 O 3333.19 5.88721 -2.00726 0
M  V30 31265 C 3332 7.92526 -2.10483 0
M  V30 31266 O 3331.61 8.02971 -3.47653 0
M  V30 31267 C 3331.12 6.89602 -1.41652 0
M  V30 31268 C 3331.83 5.59201 -1.75185 0
M  V30 31269 N 3331.78 4.58301 -0.657969 0
M  V30 31270 H 3334.62 8.65116 -0.777161 0
M  V30 31271 H 3334.89 6.9022 -0.46725 0
M  V30 31272 H 3334.02 7.66548 -2.79458 0
M  V30 31273 H 3331.37 5.16165 -2.65183 0
M  V30 31274 H 3331.09 7.06433 -0.329384 0
M  V30 31275 H 3330.1 6.90926 -1.82021 0
M  V30 31276 H 3331.93 8.90873 -1.62657 0
M  V30 31277 P 3330.06 8.03563 -3.84925 0
M  V30 31278 O 3329.84 8.85821 -5.0569 0
M  V30 31279 O 3329.27 8.41101 -2.65469 0
M  V30 31280 O 3329.81 6.4965 -4.18908 0
M  V30 31281 C 3330.75 5.81037 -5.05421 0
M  V30 31282 C 3330.02 4.78366 -5.89277 0
M  V30 31283 O 3329.81 3.58302 -5.08433 0
M  V30 31284 C 3328.62 5.17448 -6.36119 0
M  V30 31285 O 3328.23 4.45271 -7.53232 0
M  V30 31286 C 3327.74 4.74639 -5.19936 0
M  V30 31287 C 3328.45 3.49432 -4.70418 0
M  V30 31288 N 3328.4 3.32099 -3.22613 0
M  V30 31289 H 3331.24 6.54213 -5.71376 0
M  V30 31290 H 3331.51 5.30936 -4.43503 0
M  V30 31291 H 3330.64 4.55889 -6.76652 0
M  V30 31292 H 3327.99 2.61715 -5.17932 0
M  V30 31293 H 3327.71 5.52155 -4.41878 0
M  V30 31294 H 3326.72 4.51981 -5.53374 0
M  V30 31295 H 3328.55 6.25124 -6.55234 0
M  V30 31296 P 3326.68 4.23843 -7.83734 0
M  V30 31297 O 3326.46 4.19407 -9.29784 0
M  V30 31298 O 3325.89 5.24426 -7.09156 0
M  V30 31299 O 3326.43 2.7935 -7.20758 0
M  V30 31300 C 3327.37 1.7299 -7.50419 0
M  V30 31301 C 3326.64 0.406376 -7.57911 0
M  V30 31302 O 3326.43 -0.0897726 -6.21935 0
M  V30 31303 C 3325.24 0.447224 -8.1878 0
M  V30 31304 O 3324.85 -0.825065 -8.71101 0
M  V30 31305 C 3324.36 0.783801 -6.99623 0
M  V30 31306 C 3325.07 0.0619192 -5.85967 0
M  V30 31307 N 3325.02 0.7859 -4.56281 0
M  V30 31308 C 3325.1 2.14308 -4.31736 0
M  V30 31309 N 3325.02 2.46106 -3.05116 0
M  V30 31310 C 3324.88 1.23422 -2.4014 0
M  V30 31311 C 3324.75 0.938381 -1.02409 0
M  V30 31312 N 3324.63 -0.444647 -0.805413 0
M  V30 31313 C 3324.63 -1.40829 -1.79435 0
M  V30 31314 N 3324.5 -2.67213 -1.38558 0
M  V30 31315 N 3324.76 -1.12947 -3.09005 0
M  V30 31316 C 3324.88 0.204887 -3.32369 0
M  V30 31317 H 3327.86 1.93423 -8.4679 0
M  V30 31318 H 3328.13 1.68181 -6.71046 0
M  V30 31319 H 3327.26 -0.289041 -8.15388 0
M  V30 31320 P 3323.3 -1.17771 -8.83182 0
M  V30 31321 O 3323.08 -2.07206 -9.98732 0
M  V30 31322 O 3322.51 0.0743816 -8.81969 0
M  V30 31323 O 3323.05 -1.97652 -7.47304 0
M  V30 31324 C 3323.99 -3.01133 -7.08783 0
M  V30 31325 C 3323.26 -4.12613 -6.37049 0
M  V30 31326 O 3323.05 -3.72827 -4.97879 0
M  V30 31327 C 3321.86 -4.45085 -6.88694 0
M  V30 31328 O 3321.47 -5.7877 -6.5624 0
M  V30 31329 C 3320.98 -3.47817 -6.12078 0
M  V30 31330 C 3321.69 -3.39414 -4.77697 0
M  V30 31331 N 3321.64 -2.04615 -4.15333 0
M  V30 31332 H 3324.48 -3.41248 -7.98759 0
M  V30 31333 H 3324.75 -2.5837 -6.41742 0
M  V30 31334 H 3323.88 -5.02657 -6.42673 0
M  V30 31335 P 3319.92 -6.144 -6.45285 0
M  V30 31336 O 3319.7 -7.54673 -6.86199 0
M  V30 31337 O 3319.13 -5.12391 -7.179 0
M  V30 31338 O 3319.67 -5.99158 -4.88404 0
M  V30 31339 C 3320.61 -6.60234 -3.96415 0
M  V30 31340 C 3319.88 -7.08259 -2.72856 0
M  V30 31341 O 3319.67 -5.9427 -1.83651 0
M  V30 31342 C 3318.48 -7.64886 -2.9555 0
M  V30 31343 O 3318.09 -8.53963 -1.90717 0
M  V30 31344 C 3317.6 -6.4116 -2.90739 0
M  V30 31345 C 3318.31 -5.55375 -1.86963 0
M  V30 31346 N 3318.26 -4.09664 -2.15742 0
M  V30 31347 H 3321.1 -7.45574 -4.45629 0
M  V30 31348 H 3321.37 -5.86232 -3.67314 0
M  V30 31349 H 3320.5 -7.84412 -2.24479 0
M  V30 31350 P 3316.54 -8.7635 -1.60911 0
M  V30 31351 O 3316.32 -10.1388 -1.11561 0
M  V30 31352 O 3315.75 -8.36503 -2.79617 0
M  V30 31353 O 3316.29 -7.71806 -0.42951 0
M  V30 31354 C 3317.23 -7.67148 0.673689 0
M  V30 31355 C 3316.5 -7.33374 1.95559 0
M  V30 31356 O 3316.29 -5.88721 2.00726 0
M  V30 31357 C 3315.1 -7.92526 2.10483 0
M  V30 31358 O 3314.71 -8.02971 3.47653 0
M  V30 31359 C 3314.22 -6.89602 1.41652 0
M  V30 31360 C 3314.93 -5.59201 1.75185 0
M  V30 31361 N 3314.88 -4.58235 0.662552 0
M  V30 31362 H 3317.72 -8.65116 0.777161 0
M  V30 31363 H 3317.99 -6.90173 0.474152 0
M  V30 31364 H 3317.12 -7.66548 2.79458 0
M  V30 31365 P 3313.16 -8.03563 3.84925 0
M  V30 31366 O 3312.94 -8.85821 5.0569 0
M  V30 31367 O 3312.37 -8.41101 2.65469 0
M  V30 31368 O 3312.91 -6.4965 4.18908 0
M  V30 31369 C 3313.85 -5.81037 5.05421 0
M  V30 31370 C 3313.12 -4.78366 5.89277 0
M  V30 31371 O 3312.91 -3.58302 5.08433 0
M  V30 31372 C 3311.72 -5.17448 6.36119 0
M  V30 31373 O 3311.33 -4.45271 7.53232 0
M  V30 31374 C 3310.84 -4.74639 5.19936 0
M  V30 31375 C 3311.55 -3.49432 4.70418 0
M  V30 31376 N 3311.5 -3.32099 3.22613 0
M  V30 31377 H 3314.34 -6.54213 5.71376 0
M  V30 31378 H 3314.61 -5.30936 4.43503 0
M  V30 31379 H 3313.74 -4.55889 6.76652 0
M  V30 31380 H 3311.09 -2.61715 5.17932 0
M  V30 31381 H 3310.81 -5.52155 4.41878 0
M  V30 31382 H 3309.82 -4.51981 5.53374 0
M  V30 31383 H 3311.65 -6.25124 6.55234 0
M  V30 31384 P 3309.78 -4.23843 7.83734 0
M  V30 31385 O 3309.56 -4.19407 9.29784 0
M  V30 31386 O 3308.99 -5.24426 7.09156 0
M  V30 31387 O 3309.53 -2.7935 7.20758 0
M  V30 31388 C 3310.47 -1.7299 7.50419 0
M  V30 31389 C 3309.74 -0.406376 7.57911 0
M  V30 31390 O 3309.53 0.0897726 6.21935 0
M  V30 31391 C 3308.34 -0.447224 8.1878 0
M  V30 31392 O 3307.95 0.825065 8.71101 0
M  V30 31393 C 3307.46 -0.783801 6.99623 0
M  V30 31394 C 3308.17 -0.0619192 5.85967 0
M  V30 31395 N 3308.12 -0.7859 4.56281 0
M  V30 31396 H 3310.96 -1.93423 8.4679 0
M  V30 31397 H 3311.23 -1.68181 6.71046 0
M  V30 31398 H 3310.36 0.289041 8.15388 0
M  V30 31399 P 3306.4 1.17771 8.83182 0
M  V30 31400 O 3306.18 2.07206 9.98732 0
M  V30 31401 O 3305.61 -0.0743816 8.81969 0
M  V30 31402 O 3306.15 1.97652 7.47304 0
M  V30 31403 C 3307.09 3.01133 7.08783 0
M  V30 31404 C 3306.36 4.12613 6.37049 0
M  V30 31405 O 3306.15 3.72827 4.97879 0
M  V30 31406 C 3304.96 4.45085 6.88694 0
M  V30 31407 O 3304.57 5.7877 6.5624 0
M  V30 31408 C 3304.08 3.47817 6.12078 0
M  V30 31409 C 3304.79 3.39414 4.77697 0
M  V30 31410 N 3304.74 2.04615 4.15333 0
M  V30 31411 H 3307.58 3.41248 7.98759 0
M  V30 31412 H 3307.85 2.5837 6.41742 0
M  V30 31413 H 3306.98 5.02657 6.42673 0
M  V30 31414 P 3303.02 6.144 6.45285 0
M  V30 31415 O 3302.8 7.54673 6.86199 0
M  V30 31416 O 3302.23 5.12391 7.179 0
M  V30 31417 O 3302.77 5.99158 4.88404 0
M  V30 31418 C 3303.71 6.60062 3.96313 0
M  V30 31419 C 3302.98 7.08259 2.72856 0
M  V30 31420 O 3302.77 5.9427 1.83651 0
M  V30 31421 C 3301.58 7.65087 2.94749 0
M  V30 31422 O 3301.19 8.53963 1.90717 0
M  V30 31423 C 3300.7 6.41069 2.90698 0
M  V30 31424 C 3301.41 5.5528 1.86931 0
M  V30 31425 N 3301.36 4.09575 2.15696 0
M  V30 31426 C 3301.21 3.24249 1.08435 0
M  V30 31427 O 3301.12 3.63946 -0.0628747 0
M  V30 31428 N 3301.17 1.90009 1.39973 0
M  V30 31429 C 3301.26 1.34884 2.65614 0
M  V30 31430 O 3301.21 0.123716 2.81728 0
M  V30 31431 C 3301.41 2.3145 3.71736 0
M  V30 31432 C 3301.52 1.75913 5.10438 0
M  V30 31433 C 3301.46 3.63518 3.44754 0
M  V30 31434 H 3304.2 7.45402 4.45526 0
M  V30 31435 H 3304.47 5.86062 3.67208 0
M  V30 31436 H 3303.6 7.84412 2.24479 0
M  V30 31437 H 3300.95 5.73358 0.888409 0
M  V30 31438 H 3300.67 5.90877 3.88583 0
M  V30 31439 H 3299.68 6.65867 2.58821 0
M  V30 31440 H 3301.51 8.16248 3.92006 0
M  V30 31441 H 3301.58 4.34551 4.26383 0
M  V30 31442 H 3300.55 1.85471 5.61775 0
M  V30 31443 H 3302.29 2.31364 5.66257 0
M  V30 31444 H 3301.8 0.695936 5.05229 0
M  V30 31445 H 3301.07 1.26277 0.63625 0
M  V30 31446 P 3299.64 8.7635 1.60911 0
M  V30 31447 O 3299.42 10.1388 1.11561 0
M  V30 31448 O 3298.85 8.36503 2.79617 0
M  V30 31449 O 3299.39 7.71806 0.42951 0
M  V30 31450 C 3300.33 7.66948 -0.673514 0
M  V30 31451 C 3299.6 7.33374 -1.95559 0
M  V30 31452 O 3299.39 5.88721 -2.00726 0
M  V30 31453 C 3298.2 7.92218 -2.1125 0
M  V30 31454 O 3297.81 8.02971 -3.47653 0
M  V30 31455 C 3297.32 6.89504 -1.41631 0
M  V30 31456 C 3298.03 5.59106 -1.75155 0
M  V30 31457 N 3297.98 4.58136 -0.662409 0
M  V30 31458 C 3297.83 3.26059 -1.02863 0
M  V30 31459 O 3297.74 2.90743 -2.19009 0
M  V30 31460 N 3297.79 2.35995 0.0155585 0
M  V30 31461 C 3297.88 2.65248 1.35603 0
M  V30 31462 C 3298.03 4.05747 1.64698 0
M  V30 31463 C 3298.08 4.96734 0.652411 0
M  V30 31464 H 3300.82 8.64917 -0.776982 0
M  V30 31465 H 3301.09 6.89974 -0.474015 0
M  V30 31466 H 3300.22 7.66548 -2.79458 0
M  V30 31467 H 3297.57 5.16076 -2.65138 0
M  V30 31468 H 3297.29 7.06433 -0.329384 0
M  V30 31469 H 3296.3 6.90829 -1.81996 0
M  V30 31470 H 3298.13 8.90774 -1.62639 0
M  V30 31471 H 3298.2 6.02181 0.895285 0
M  V30 31472 P 3296.26 8.03563 -3.84925 0
M  V30 31473 O 3296.04 8.85821 -5.0569 0
M  V30 31474 O 3295.47 8.41101 -2.65469 0
M  V30 31475 O 3296.01 6.4965 -4.18908 0
M  V30 31476 C 3296.95 5.81037 -5.05421 0
M  V30 31477 C 3296.22 4.78366 -5.89277 0
M  V30 31478 O 3296.01 3.58302 -5.08433 0
M  V30 31479 C 3294.82 5.17448 -6.36119 0
M  V30 31480 O 3294.43 4.45271 -7.53232 0
M  V30 31481 C 3293.94 4.74639 -5.19936 0
M  V30 31482 C 3294.65 3.49432 -4.70418 0
M  V30 31483 N 3294.6 3.32099 -3.22613 0
M  V30 31484 H 3297.44 6.54213 -5.71376 0
M  V30 31485 H 3297.71 5.30936 -4.43503 0
M  V30 31486 H 3296.84 4.55889 -6.76652 0
M  V30 31487 H 3294.19 2.61715 -5.17932 0
M  V30 31488 H 3293.91 5.52155 -4.41878 0
M  V30 31489 H 3292.92 4.51981 -5.53374 0
M  V30 31490 H 3294.75 6.25124 -6.55234 0
M  V30 31491 P 3292.88 4.23843 -7.83734 0
M  V30 31492 O 3292.66 4.19407 -9.29784 0
M  V30 31493 O 3292.09 5.24426 -7.09156 0
M  V30 31494 O 3292.63 2.7935 -7.20758 0
M  V30 31495 C 3293.57 1.7299 -7.50419 0
M  V30 31496 C 3292.84 0.406376 -7.57911 0
M  V30 31497 O 3292.63 -0.0897726 -6.21935 0
M  V30 31498 C 3291.44 0.447224 -8.1878 0
M  V30 31499 O 3291.05 -0.825065 -8.71101 0
M  V30 31500 C 3290.56 0.783801 -6.99623 0
M  V30 31501 C 3291.27 0.0619192 -5.85967 0
M  V30 31502 N 3291.22 0.790462 -4.56202 0
M  V30 31503 C 3291.3 2.13895 -4.34171 0
M  V30 31504 N 3291.23 2.46449 -3.08687 0
M  V30 31505 C 3291.08 1.2525 -2.43697 0
M  V30 31506 C 3290.95 0.914535 -1.07318 0
M  V30 31507 N 3290.94 1.80782 -0.0887348 0
M  V30 31508 N 3290.83 -0.386745 -0.768133 0
M  V30 31509 C 3290.84 -1.28096 -1.75159 0
M  V30 31510 N 3290.96 -1.09708 -3.04861 0
M  V30 31511 C 3291.08 0.214857 -3.32306 0
M  V30 31512 H 3294.06 1.93423 -8.4679 0
M  V30 31513 H 3294.33 1.68852 -6.70877 0
M  V30 31514 H 3293.46 -0.289041 -8.15388 0
M  V30 31515 H 3290.81 -0.927006 -5.72848 0
M  V30 31516 H 3290.53 1.86973 -6.82036 0
M  V30 31517 H 3289.54 0.403953 -7.13357 0
M  V30 31518 H 3291.37 1.20599 -8.97534 0
M  V30 31519 H 3291.41 2.86846 -5.14318 0
M  V30 31520 H 3291.03 2.81082 -0.302037 0
M  V30 31521 H 3290.84 1.49688 0.889064 0
M  V30 31522 H 3290.73 -2.31317 -1.43855 0
M  V30 31523 P 3289.5 -1.17771 -8.83182 0
M  V30 31524 O 3289.28 -2.07206 -9.98732 0
M  V30 31525 O 3288.71 0.0743816 -8.81969 0
M  V30 31526 O 3289.25 -1.97652 -7.47304 0
M  V30 31527 C 3290.19 -3.01055 -7.08599 0
M  V30 31528 C 3289.46 -4.12613 -6.37049 0
M  V30 31529 O 3289.25 -3.72827 -4.97879 0
M  V30 31530 C 3288.06 -4.45719 -6.88164 0
M  V30 31531 O 3287.67 -5.7877 -6.5624 0
M  V30 31532 C 3287.18 -3.47768 -6.11991 0
M  V30 31533 C 3287.89 -3.39356 -4.77615 0
M  V30 31534 N 3287.84 -2.04571 -4.15244 0
M  V30 31535 C 3287.69 -1.98587 -2.78314 0
M  V30 31536 O 3287.6 -2.98134 -2.08835 0
M  V30 31537 N 3287.65 -0.714467 -2.24925 0
M  V30 31538 C 3287.74 0.470001 -2.94169 0
M  V30 31539 C 3287.89 0.312541 -4.36783 0
M  V30 31540 C 3287.94 -0.914512 -4.92583 0
M  V30 31541 H 3290.68 -3.41169 -7.98575 0
M  V30 31542 H 3290.95 -2.58295 -6.41556 0
M  V30 31543 H 3290.08 -5.02657 -6.42673 0
M  V30 31544 H 3287.43 -4.11637 -4.08885 0
M  V30 31545 H 3287.15 -2.49626 -6.61679 0
M  V30 31546 H 3286.16 -3.86566 -6.00778 0
M  V30 31547 H 3287.99 -4.29943 -7.96918 0
M  V30 31548 H 3288.06 -1.00937 -6.00374 0
M  V30 31549 P 3286.12 -6.144 -6.45285 0
M  V30 31550 O 3285.9 -7.54673 -6.86199 0
M  V30 31551 O 3285.33 -5.12391 -7.179 0
M  V30 31552 O 3285.87 -5.99158 -4.88404 0
M  V30 31553 C 3286.81 -6.60234 -3.96415 0
M  V30 31554 C 3286.08 -7.08259 -2.72856 0
M  V30 31555 O 3285.87 -5.9427 -1.83651 0
M  V30 31556 C 3284.68 -7.64886 -2.9555 0
M  V30 31557 O 3284.29 -8.53963 -1.90717 0
M  V30 31558 C 3283.8 -6.4116 -2.90739 0
M  V30 31559 C 3284.51 -5.55375 -1.86963 0
M  V30 31560 N 3284.46 -4.09664 -2.15742 0
M  V30 31561 H 3287.3 -7.45574 -4.45629 0
M  V30 31562 H 3287.57 -5.86232 -3.67314 0
M  V30 31563 H 3286.7 -7.84412 -2.24479 0
M  V30 31564 P 3282.74 -8.7635 -1.60911 0
M  V30 31565 O 3282.52 -10.1388 -1.11561 0
M  V30 31566 O 3281.95 -8.36503 -2.79617 0
M  V30 31567 O 3282.49 -7.71806 -0.42951 0
M  V30 31568 C 3283.43 -7.67148 0.673689 0
M  V30 31569 C 3282.7 -7.33374 1.95559 0
M  V30 31570 O 3282.49 -5.88721 2.00726 0
M  V30 31571 C 3281.3 -7.92526 2.10483 0
M  V30 31572 O 3280.91 -8.02971 3.47653 0
M  V30 31573 C 3280.42 -6.89602 1.41652 0
M  V30 31574 C 3281.13 -5.59201 1.75185 0
M  V30 31575 N 3281.08 -4.58235 0.662552 0
M  V30 31576 H 3283.92 -8.65116 0.777161 0
M  V30 31577 H 3284.19 -6.90173 0.474152 0
M  V30 31578 H 3283.32 -7.66548 2.79458 0
M  V30 31579 P 3279.36 -8.03563 3.84925 0
M  V30 31580 O 3279.14 -8.85821 5.0569 0
M  V30 31581 O 3278.57 -8.41101 2.65469 0
M  V30 31582 O 3279.11 -6.4965 4.18908 0
M  V30 31583 C 3280.05 -5.81037 5.05421 0
M  V30 31584 C 3279.32 -4.78366 5.89277 0
M  V30 31585 O 3279.11 -3.58302 5.08433 0
M  V30 31586 C 3277.92 -5.17448 6.36119 0
M  V30 31587 O 3277.53 -4.45271 7.53232 0
M  V30 31588 C 3277.04 -4.74639 5.19936 0
M  V30 31589 C 3277.75 -3.49432 4.70418 0
M  V30 31590 N 3277.7 -3.31776 3.22945 0
M  V30 31591 H 3280.54 -6.54213 5.71376 0
M  V30 31592 H 3280.81 -5.30492 4.44033 0
M  V30 31593 H 3279.94 -4.55889 6.76652 0
M  V30 31594 P 3275.98 -4.23843 7.83734 0
M  V30 31595 O 3275.76 -4.19407 9.29784 0
M  V30 31596 O 3275.19 -5.24426 7.09156 0
M  V30 31597 O 3275.73 -2.7935 7.20758 0
M  V30 31598 C 3276.67 -1.72945 7.50224 0
M  V30 31599 C 3275.94 -0.406376 7.57911 0
M  V30 31600 O 3275.73 0.0897726 6.21935 0
M  V30 31601 C 3274.54 -0.438983 8.18724 0
M  V30 31602 O 3274.15 0.825065 8.71101 0
M  V30 31603 C 3273.66 -0.783689 6.99524 0
M  V30 31604 C 3274.37 -0.0619086 5.85867 0
M  V30 31605 N 3274.32 -0.78573 4.56183 0
M  V30 31606 C 3274.17 -0.0292889 3.41887 0
M  V30 31607 O 3274.08 1.18445 3.4419 0
M  V30 31608 N 3274.13 -0.744061 2.23964 0
M  V30 31609 C 3274.22 -2.10932 2.10362 0
M  V30 31610 O 3274.17 -2.64117 0.98825 0
M  V30 31611 C 3274.37 -2.8202 3.34994 0
M  V30 31612 C 3274.48 -4.31095 3.25037 0
M  V30 31613 C 3274.42 -2.15547 4.52261 0
M  V30 31614 H 3277.16 -1.93379 8.46595 0
M  V30 31615 H 3277.43 -1.68132 6.70852 0
M  V30 31616 H 3276.56 0.289041 8.15388 0
M  V30 31617 H 3273.91 0.926847 5.72749 0
M  V30 31618 H 3273.63 -1.86973 6.82036 0
M  V30 31619 H 3272.64 -0.403896 7.13257 0
M  V30 31620 H 3274.47 -1.20585 8.97435 0
M  V30 31621 H 3274.54 -2.71231 5.45042 0
M  V30 31622 H 3273.51 -4.76966 3.49992 0
M  V30 31623 H 3275.25 -4.67047 3.95024 0
M  V30 31624 H 3274.76 -4.58996 2.22312 0
M  V30 31625 H 3274.03 -0.214893 1.39758 0
M  V30 31626 P 3272.6 1.17771 8.83182 0
M  V30 31627 O 3272.38 2.07206 9.98732 0
M  V30 31628 O 3271.81 -0.0743816 8.81969 0
M  V30 31629 O 3272.35 1.97652 7.47304 0
M  V30 31630 C 3273.29 3.01133 7.08783 0
M  V30 31631 C 3272.56 4.12613 6.37049 0
M  V30 31632 O 3272.35 3.72827 4.97879 0
M  V30 31633 C 3271.16 4.45085 6.88694 0
M  V30 31634 O 3270.77 5.7877 6.5624 0
M  V30 31635 C 3270.28 3.47817 6.12078 0
M  V30 31636 C 3270.99 3.39414 4.77697 0
M  V30 31637 N 3270.94 2.04615 4.15333 0
M  V30 31638 C 3271.02 0.803897 4.75249 0
M  V30 31639 N 3270.94 -0.197615 3.91502 0
M  V30 31640 C 3270.8 0.413002 2.66823 0
M  V30 31641 C 3270.67 -0.157221 1.38007 0
M  V30 31642 O 3270.65 -1.34419 1.057 0
M  V30 31643 N 3270.55 0.833136 0.390236 0
M  V30 31644 C 3270.55 2.19402 0.623885 0
M  V30 31645 N 3270.42 2.97622 -0.449677 0
M  V30 31646 N 3270.68 2.73005 1.83601 0
M  V30 31647 C 3270.8 1.78786 2.80935 0
M  V30 31648 H 3273.78 3.41248 7.98759 0
M  V30 31649 H 3274.05 2.5837 6.41742 0
M  V30 31650 H 3273.18 5.02657 6.42673 0
M  V30 31651 H 3270.53 4.11779 4.09026 0
M  V30 31652 H 3270.25 2.49661 6.61772 0
M  V30 31653 H 3269.26 3.86674 6.00946 0
M  V30 31654 H 3271.09 4.30038 7.97094 0
M  V30 31655 H 3271.14 0.670579 5.82754 0
M  V30 31656 H 3270.46 0.528446 -0.557287 0
M  V30 31657 H 3270.42 4.00117 -0.344773 0
M  V30 31658 H 3270.32 2.55448 -1.38544 0
M  V30 31659 P 3269.22 6.144 6.45285 0
M  V30 31660 O 3269 7.54673 6.86199 0
M  V30 31661 O 3268.43 5.12391 7.179 0
M  V30 31662 O 3268.97 5.99158 4.88404 0
M  V30 31663 C 3269.91 6.60234 3.96415 0
M  V30 31664 C 3269.18 7.08259 2.72856 0
M  V30 31665 O 3268.97 5.9427 1.83651 0
M  V30 31666 C 3267.78 7.64886 2.9555 0
M  V30 31667 O 3267.39 8.53963 1.90717 0
M  V30 31668 C 3266.9 6.4116 2.90739 0
M  V30 31669 C 3267.61 5.55375 1.86963 0
M  V30 31670 N 3267.56 4.09664 2.15742 0
M  V30 31671 H 3270.4 7.45574 4.45629 0
M  V30 31672 H 3270.67 5.86232 3.67314 0
M  V30 31673 H 3269.8 7.84412 2.24479 0
M  V30 31674 P 3265.84 8.7635 1.60911 0
M  V30 31675 O 3265.62 10.1388 1.11561 0
M  V30 31676 O 3265.05 8.36503 2.79617 0
M  V30 31677 O 3265.59 7.71806 0.42951 0
M  V30 31678 C 3266.53 7.67148 -0.673689 0
M  V30 31679 C 3265.8 7.33374 -1.95559 0
M  V30 31680 O 3265.59 5.88721 -2.00726 0
M  V30 31681 C 3264.4 7.92526 -2.10483 0
M  V30 31682 O 3264.01 8.02971 -3.47653 0
M  V30 31683 C 3263.52 6.89602 -1.41652 0
M  V30 31684 C 3264.23 5.59201 -1.75185 0
M  V30 31685 N 3264.18 4.58235 -0.662552 0
M  V30 31686 H 3267.02 8.65116 -0.777161 0
M  V30 31687 H 3267.29 6.90173 -0.474152 0
M  V30 31688 H 3266.42 7.66548 -2.79458 0
M  V30 31689 P 3262.46 8.03563 -3.84925 0
M  V30 31690 O 3262.24 8.85821 -5.0569 0
M  V30 31691 O 3261.67 8.41101 -2.65469 0
M  V30 31692 O 3262.21 6.4965 -4.18908 0
M  V30 31693 C 3263.15 5.81037 -5.05421 0
M  V30 31694 C 3262.42 4.78366 -5.89277 0
M  V30 31695 O 3262.21 3.58302 -5.08433 0
M  V30 31696 C 3261.02 5.17448 -6.36119 0
M  V30 31697 O 3260.63 4.45271 -7.53232 0
M  V30 31698 C 3260.14 4.74639 -5.19936 0
M  V30 31699 C 3260.85 3.49432 -4.70418 0
M  V30 31700 N 3260.8 3.32099 -3.22613 0
M  V30 31701 H 3263.64 6.54213 -5.71376 0
M  V30 31702 H 3263.91 5.30936 -4.43503 0
M  V30 31703 H 3263.04 4.55889 -6.76652 0
M  V30 31704 H 3260.39 2.61715 -5.17932 0
M  V30 31705 H 3260.11 5.52155 -4.41878 0
M  V30 31706 H 3259.12 4.51981 -5.53374 0
M  V30 31707 H 3260.95 6.25124 -6.55234 0
M  V30 31708 P 3259.08 4.23843 -7.83734 0
M  V30 31709 O 3258.86 4.19407 -9.29784 0
M  V30 31710 O 3258.29 5.24426 -7.09156 0
M  V30 31711 O 3258.83 2.7935 -7.20758 0
M  V30 31712 C 3259.77 1.72945 -7.50224 0
M  V30 31713 C 3259.04 0.406376 -7.57911 0
M  V30 31714 O 3258.83 -0.0897726 -6.21935 0
M  V30 31715 C 3257.64 0.438983 -8.18724 0
M  V30 31716 O 3257.25 -0.825065 -8.71101 0
M  V30 31717 C 3256.76 0.783689 -6.99524 0
M  V30 31718 C 3257.47 0.0619086 -5.85867 0
M  V30 31719 N 3257.42 0.78573 -4.56183 0
M  V30 31720 C 3257.27 0.0292889 -3.41887 0
M  V30 31721 O 3257.18 -1.18445 -3.4419 0
M  V30 31722 N 3257.23 0.744061 -2.23964 0
M  V30 31723 C 3257.32 2.10932 -2.10362 0
M  V30 31724 C 3257.47 2.8202 -3.34994 0
M  V30 31725 C 3257.52 2.15547 -4.52261 0
M  V30 31726 H 3260.26 1.93379 -8.46595 0
M  V30 31727 H 3260.53 1.68132 -6.70852 0
M  V30 31728 H 3259.66 -0.289041 -8.15388 0
M  V30 31729 H 3257.01 -0.926847 -5.72749 0
M  V30 31730 H 3256.73 1.86973 -6.82036 0
M  V30 31731 H 3255.74 0.403896 -7.13257 0
M  V30 31732 H 3257.57 1.20585 -8.97435 0
M  V30 31733 H 3257.64 2.71231 -5.45042 0
M  V30 31734 P 3255.7 -1.17771 -8.83182 0
M  V30 31735 O 3255.48 -2.07206 -9.98732 0
M  V30 31736 O 3254.91 0.0743816 -8.81969 0
M  V30 31737 O 3255.45 -1.97652 -7.47304 0
M  V30 31738 C 3256.39 -3.01133 -7.08783 0
M  V30 31739 C 3255.66 -4.12613 -6.37049 0
M  V30 31740 O 3255.45 -3.72827 -4.97879 0
M  V30 31741 C 3254.26 -4.45085 -6.88694 0
M  V30 31742 O 3253.87 -5.7877 -6.5624 0
M  V30 31743 C 3253.38 -3.47817 -6.12078 0
M  V30 31744 C 3254.09 -3.39414 -4.77697 0
M  V30 31745 N 3254.04 -2.04615 -4.15333 0
M  V30 31746 H 3256.88 -3.41248 -7.98759 0
M  V30 31747 H 3257.15 -2.5837 -6.41742 0
M  V30 31748 H 3256.28 -5.02657 -6.42673 0
M  V30 31749 P 3252.32 -6.144 -6.45285 0
M  V30 31750 O 3252.1 -7.54673 -6.86199 0
M  V30 31751 O 3251.53 -5.12391 -7.179 0
M  V30 31752 O 3252.07 -5.99158 -4.88404 0
M  V30 31753 C 3253.01 -6.60234 -3.96415 0
M  V30 31754 C 3252.28 -7.08259 -2.72856 0
M  V30 31755 O 3252.07 -5.9427 -1.83651 0
M  V30 31756 C 3250.88 -7.64886 -2.9555 0
M  V30 31757 O 3250.49 -8.53963 -1.90717 0
M  V30 31758 C 3250 -6.4116 -2.90739 0
M  V30 31759 C 3250.71 -5.55375 -1.86963 0
M  V30 31760 N 3250.66 -4.09664 -2.15742 0
M  V30 31761 H 3253.5 -7.45574 -4.45629 0
M  V30 31762 H 3253.77 -5.86232 -3.67314 0
M  V30 31763 H 3252.9 -7.84412 -2.24479 0
M  V30 31764 P 3248.94 -8.7635 -1.60911 0
M  V30 31765 O 3248.72 -10.1388 -1.11561 0
M  V30 31766 O 3248.15 -8.36503 -2.79617 0
M  V30 31767 O 3248.69 -7.71806 -0.42951 0
M  V30 31768 C 3249.63 -7.67148 0.673689 0
M  V30 31769 C 3248.9 -7.33374 1.95559 0
M  V30 31770 O 3248.69 -5.88721 2.00726 0
M  V30 31771 C 3247.5 -7.92526 2.10483 0
M  V30 31772 O 3247.11 -8.02971 3.47653 0
M  V30 31773 C 3246.62 -6.89602 1.41652 0
M  V30 31774 C 3247.33 -5.59201 1.75185 0
M  V30 31775 N 3247.28 -4.58301 0.657969 0
M  V30 31776 H 3250.12 -8.65116 0.777161 0
M  V30 31777 H 3250.39 -6.9022 0.46725 0
M  V30 31778 H 3249.52 -7.66548 2.79458 0
M  V30 31779 H 3246.87 -5.16165 2.65183 0
M  V30 31780 H 3246.59 -7.06433 0.329384 0
M  V30 31781 H 3245.6 -6.90926 1.82021 0
M  V30 31782 H 3247.43 -8.90873 1.62657 0
M  V30 31783 P 3245.56 -8.03563 3.84925 0
M  V30 31784 O 3245.34 -8.85821 5.0569 0
M  V30 31785 O 3244.77 -8.41101 2.65469 0
M  V30 31786 O 3245.31 -6.4965 4.18908 0
M  V30 31787 C 3246.25 -5.81037 5.05421 0
M  V30 31788 C 3245.52 -4.78366 5.89277 0
M  V30 31789 O 3245.31 -3.58302 5.08433 0
M  V30 31790 C 3244.12 -5.17448 6.36119 0
M  V30 31791 O 3243.73 -4.45271 7.53232 0
M  V30 31792 C 3243.24 -4.74639 5.19936 0
M  V30 31793 C 3243.95 -3.49432 4.70418 0
M  V30 31794 N 3243.9 -3.31776 3.22945 0
M  V30 31795 H 3246.74 -6.54213 5.71376 0
M  V30 31796 H 3247.01 -5.30492 4.44033 0
M  V30 31797 H 3246.14 -4.55889 6.76652 0
M  V30 31798 P 3242.18 -4.23843 7.83734 0
M  V30 31799 O 3241.96 -4.19407 9.29784 0
M  V30 31800 O 3241.39 -5.24426 7.09156 0
M  V30 31801 O 3241.93 -2.79386 7.20852 0
M  V30 31802 C 3242.87 -1.7299 7.50419 0
M  V30 31803 C 3242.14 -0.41401 7.5797 0
M  V30 31804 O 3241.93 0.089787 6.22035 0
M  V30 31805 C 3240.74 -0.447224 8.1878 0
M  V30 31806 O 3240.35 0.825159 8.71201 0
M  V30 31807 C 3239.86 -0.783801 6.99623 0
M  V30 31808 C 3240.57 -0.0619192 5.85967 0
M  V30 31809 N 3240.52 -0.7859 4.56281 0
M  V30 31810 C 3240.37 -0.0359258 3.39981 0
M  V30 31811 O 3240.28 1.19723 3.49038 0
M  V30 31812 N 3240.32 -0.869151 2.14025 0
M  V30 31813 C 3240.42 -2.01207 2.14363 0
M  V30 31814 N 3240.37 -2.58978 0.954287 0
M  V30 31815 C 3240.57 -2.80817 3.32215 0
M  V30 31816 C 3240.62 -2.13785 4.50884 0
M  V30 31817 H 3243.36 -1.93401 8.46693 0
M  V30 31818 H 3243.63 -1.68181 6.71046 0
M  V30 31819 H 3242.76 0.289076 8.15488 0
M  V30 31820 H 3240.11 0.927166 5.72947 0
M  V30 31821 H 3239.83 -1.87 6.82132 0
M  V30 31822 H 3238.84 -0.404009 7.13457 0
M  V30 31823 H 3240.67 -1.20599 8.97534 0
M  V30 31824 H 3240.74 -2.70295 5.43162 0
M  V30 31825 H 3240.64 -3.89465 3.27406 0
M  V30 31826 H 3240.25 -2.01616 0.107046 0
M  V30 31827 H 3240.45 -3.61403 0.873101 0
M  V30 31828 P 3238.8 1.17771 8.83182 0
M  V30 31829 O 3238.58 2.07206 9.98732 0
M  V30 31830 O 3238.01 -0.0743816 8.81969 0
M  V30 31831 O 3238.55 1.97652 7.47304 0
M  V30 31832 C 3239.49 3.01133 7.08783 0
M  V30 31833 C 3238.76 4.12613 6.37049 0
M  V30 31834 O 3238.55 3.72827 4.97879 0
M  V30 31835 C 3237.36 4.45085 6.88694 0
M  V30 31836 O 3236.97 5.7877 6.5624 0
M  V30 31837 C 3236.48 3.47817 6.12078 0
M  V30 31838 C 3237.19 3.39414 4.77697 0
M  V30 31839 N 3237.14 2.04199 4.15538 0
M  V30 31840 H 3239.98 3.41248 7.98759 0
M  V30 31841 H 3240.25 2.57728 6.42 0
M  V30 31842 H 3239.38 5.02657 6.42673 0
M  V30 31843 H 3236.73 4.11708 4.08956 0
M  V30 31844 H 3236.45 2.49626 6.61679 0
M  V30 31845 H 3235.46 3.8662 6.00862 0
M  V30 31846 H 3237.29 4.29991 7.97006 0
M  V30 31847 P 3235.42 6.144 6.45285 0
M  V30 31848 O 3235.2 7.54673 6.86199 0
M  V30 31849 O 3234.63 5.12391 7.179 0
M  V30 31850 O 3235.17 5.99158 4.88404 0
M  V30 31851 C 3236.11 6.60234 3.96415 0
M  V30 31852 C 3235.38 7.08259 2.72856 0
M  V30 31853 O 3235.17 5.9427 1.83651 0
M  V30 31854 C 3233.98 7.64886 2.9555 0
M  V30 31855 O 3233.59 8.53963 1.90717 0
M  V30 31856 C 3233.1 6.4116 2.90739 0
M  V30 31857 C 3233.81 5.55375 1.86963 0
M  V30 31858 N 3233.76 4.09664 2.15742 0
M  V30 31859 H 3236.6 7.45574 4.45629 0
M  V30 31860 H 3236.87 5.86232 3.67314 0
M  V30 31861 H 3236 7.84412 2.24479 0
M  V30 31862 P 3232.04 8.7635 1.60911 0
M  V30 31863 O 3231.82 10.1388 1.11561 0
M  V30 31864 O 3231.25 8.36503 2.79617 0
M  V30 31865 O 3231.79 7.71806 0.42951 0
M  V30 31866 C 3232.73 7.67148 -0.673689 0
M  V30 31867 C 3232 7.33374 -1.95559 0
M  V30 31868 O 3231.79 5.88721 -2.00726 0
M  V30 31869 C 3230.6 7.92526 -2.10483 0
M  V30 31870 O 3230.21 8.02971 -3.47653 0
M  V30 31871 C 3229.72 6.89602 -1.41652 0
M  V30 31872 C 3230.43 5.59201 -1.75185 0
M  V30 31873 N 3230.38 4.58235 -0.662552 0
M  V30 31874 H 3233.22 8.65116 -0.777161 0
M  V30 31875 H 3233.49 6.90173 -0.474152 0
M  V30 31876 H 3232.62 7.66548 -2.79458 0
M  V30 31877 P 3228.66 8.03563 -3.84925 0
M  V30 31878 O 3228.44 8.85821 -5.0569 0
M  V30 31879 O 3227.87 8.41101 -2.65469 0
M  V30 31880 O 3228.41 6.4965 -4.18908 0
M  V30 31881 C 3229.35 5.81037 -5.05421 0
M  V30 31882 C 3228.62 4.78366 -5.89277 0
M  V30 31883 O 3228.41 3.58302 -5.08433 0
M  V30 31884 C 3227.22 5.17448 -6.36119 0
M  V30 31885 O 3226.83 4.45271 -7.53232 0
M  V30 31886 C 3226.34 4.74639 -5.19936 0
M  V30 31887 C 3227.05 3.49432 -4.70418 0
M  V30 31888 N 3227 3.31776 -3.22945 0
M  V30 31889 H 3229.84 6.54213 -5.71376 0
M  V30 31890 H 3230.11 5.30492 -4.44033 0
M  V30 31891 H 3229.24 4.55889 -6.76652 0
M  V30 31892 P 3225.28 4.23843 -7.83734 0
M  V30 31893 O 3225.06 4.19407 -9.29784 0
M  V30 31894 O 3224.49 5.24426 -7.09156 0
M  V30 31895 O 3225.03 2.7935 -7.20758 0
M  V30 31896 C 3225.97 1.7299 -7.50419 0
M  V30 31897 C 3225.24 0.406376 -7.57911 0
M  V30 31898 O 3225.03 -0.0897726 -6.21935 0
M  V30 31899 C 3223.84 0.447224 -8.1878 0
M  V30 31900 O 3223.45 -0.825065 -8.71101 0
M  V30 31901 C 3222.96 0.783801 -6.99623 0
M  V30 31902 C 3223.67 0.0619192 -5.85967 0
M  V30 31903 N 3223.62 0.790462 -4.56202 0
M  V30 31904 H 3226.46 1.93423 -8.4679 0
M  V30 31905 H 3226.73 1.68852 -6.70877 0
M  V30 31906 H 3225.86 -0.289041 -8.15388 0
M  V30 31907 H 3223.21 -0.927006 -5.72848 0
M  V30 31908 H 3222.93 1.86973 -6.82036 0
M  V30 31909 H 3221.94 0.403953 -7.13357 0
M  V30 31910 H 3223.77 1.20599 -8.97534 0
M  V30 31911 P 3221.9 -1.17771 -8.83182 0
M  V30 31912 O 3221.68 -2.07206 -9.98732 0
M  V30 31913 O 3221.11 0.0743816 -8.81969 0
M  V30 31914 O 3221.65 -1.97678 -7.474 0
M  V30 31915 C 3222.59 -3.01133 -7.08783 0
M  V30 31916 C 3221.86 -4.1203 -6.37546 0
M  V30 31917 O 3221.65 -3.72887 -4.9796 0
M  V30 31918 C 3220.46 -4.45085 -6.88694 0
M  V30 31919 O 3220.07 -5.78836 -6.56315 0
M  V30 31920 C 3219.58 -3.47817 -6.12078 0
M  V30 31921 C 3220.29 -3.39414 -4.77697 0
M  V30 31922 N 3220.24 -2.04615 -4.15333 0
M  V30 31923 C 3220.09 -1.96929 -2.77162 0
M  V30 31924 O 3220 -3.02017 -2.12006 0
M  V30 31925 N 3220.04 -0.55485 -2.24237 0
M  V30 31926 C 3220.14 0.367808 -2.9169 0
M  V30 31927 N 3220.09 1.53426 -2.29427 0
M  V30 31928 C 3220.29 0.319148 -4.33828 0
M  V30 31929 C 3220.34 -0.920672 -4.90433 0
M  V30 31930 H 3223.08 -3.41209 -7.98667 0
M  V30 31931 H 3223.35 -2.5837 -6.41742 0
M  V30 31932 H 3222.48 -5.02718 -6.42752 0
M  V30 31933 H 3219.83 -4.11779 -4.09026 0
M  V30 31934 H 3219.55 -2.49661 -6.61772 0
M  V30 31935 H 3218.56 -3.86674 -6.00946 0
M  V30 31936 H 3220.39 -4.29991 -7.97006 0
M  V30 31937 H 3220.46 -1.00589 -5.98303 0
M  V30 31938 H 3220.36 1.22639 -4.93799 0
M  V30 31939 H 3219.97 1.56819 -1.27167 0
M  V30 31940 H 3220.17 2.41062 -2.83063 0
M  V30 31941 P 3218.52 -6.144 -6.45285 0
M  V30 31942 O 3218.3 -7.54673 -6.86199 0
M  V30 31943 O 3217.73 -5.12391 -7.179 0
M  V30 31944 O 3218.27 -5.99236 -4.88467 0
M  V30 31945 C 3219.21 -6.60234 -3.96415 0
M  V30 31946 C 3218.48 -7.08079 -2.736 0
M  V30 31947 O 3218.27 -5.94365 -1.8368 0
M  V30 31948 C 3217.08 -7.64886 -2.9555 0
M  V30 31949 O 3216.69 -8.5406 -1.90739 0
M  V30 31950 C 3216.2 -6.4116 -2.90739 0
M  V30 31951 C 3216.91 -5.55375 -1.86963 0
M  V30 31952 N 3216.86 -4.09664 -2.15742 0
M  V30 31953 C 3216.71 -3.22231 -1.08477 0
M  V30 31954 O 3216.62 -3.68951 0.0600489 0
M  V30 31955 N 3216.66 -1.76692 -1.48799 0
M  V30 31956 C 3216.76 -1.41695 -2.57602 0
M  V30 31957 N 3216.71 -0.107296 -2.75791 0
M  V30 31958 C 3216.91 -2.29178 -3.69733 0
M  V30 31959 C 3216.96 -3.62753 -3.42653 0
M  V30 31960 H 3219.7 -7.45488 -4.45578 0
M  V30 31961 H 3219.97 -5.86232 -3.67314 0
M  V30 31962 H 3219.1 -7.84508 -2.24507 0
M  V30 31963 H 3216.45 -5.73556 -0.888715 0
M  V30 31964 H 3216.17 -5.9096 -3.88638 0
M  V30 31965 H 3215.18 -6.66053 -2.58894 0
M  V30 31966 H 3217.01 -8.16339 -3.92049 0
M  V30 31967 H 3217.08 -4.33052 -4.24913 0
M  V30 31968 H 3216.98 -1.9103 -4.71577 0
M  V30 31969 H 3216.59 0.521221 -1.95056 0
M  V30 31970 H 3216.79 0.286429 -3.70695 0
M  V30 31971 P 3215.14 -8.7635 -1.60911 0
M  V30 31972 O 3214.92 -10.1388 -1.11561 0
M  V30 31973 O 3214.35 -8.36503 -2.79617 0
M  V30 31974 O 3214.89 -7.71806 -0.42951 0
M  V30 31975 C 3215.83 -7.67148 0.673689 0
M  V30 31976 C 3215.1 -7.33374 1.95559 0
M  V30 31977 O 3214.89 -5.88721 2.00726 0
M  V30 31978 C 3213.7 -7.92526 2.10483 0
M  V30 31979 O 3213.31 -8.02971 3.47653 0
M  V30 31980 C 3212.82 -6.89602 1.41652 0
M  V30 31981 C 3213.53 -5.59201 1.75185 0
M  V30 31982 N 3213.48 -4.58235 0.662552 0
M  V30 31983 C 3213.56 -4.7683 -0.704049 0
M  V30 31984 N 3213.48 -3.66233 -1.39775 0
M  V30 31985 C 3213.34 -2.66526 -0.431739 0
M  V30 31986 C 3213.21 -1.26394 -0.575992 0
M  V30 31987 O 3213.19 -0.589894 -1.60503 0
M  V30 31988 N 3213.09 -0.62859 0.67177 0
M  V30 31989 C 3213.09 -1.27134 1.89385 0
M  V30 31990 N 3212.96 -0.492035 2.96951 0
M  V30 31991 N 3213.22 -2.58978 2.02907 0
M  V30 31992 C 3213.34 -3.22433 0.832218 0
M  V30 31993 H 3216.32 -8.65116 0.777161 0
M  V30 31994 H 3216.59 -6.90173 0.474152 0
M  V30 31995 H 3215.72 -7.66548 2.79458 0
M  V30 31996 H 3213.07 -5.16254 2.65229 0
M  V30 31997 H 3212.79 -7.06532 0.329431 0
M  V30 31998 H 3211.8 -6.91023 1.82047 0
M  V30 31999 H 3213.63 -8.90971 1.62675 0
M  V30 32000 H 3213.68 -5.74954 -1.16305 0
M  V30 32001 H 3213 0.366713 0.674793 0
M  V30 32002 H 3212.96 -0.908532 3.91188 0
M  V30 32003 H 3212.86 0.528253 2.85758 0
M  V30 32004 P 3211.76 -8.03563 3.84925 0
M  V30 32005 O 3211.54 -8.85821 5.0569 0
M  V30 32006 O 3210.97 -8.41101 2.65469 0
M  V30 32007 O 3211.51 -6.4965 4.18908 0
M  V30 32008 C 3212.45 -5.81037 5.05421 0
M  V30 32009 C 3211.72 -4.78366 5.89277 0
M  V30 32010 O 3211.51 -3.58302 5.08433 0
M  V30 32011 C 3210.32 -5.17448 6.36119 0
M  V30 32012 O 3209.93 -4.45271 7.53232 0
M  V30 32013 C 3209.44 -4.74639 5.19936 0
M  V30 32014 C 3210.15 -3.49432 4.70418 0
M  V30 32015 N 3210.1 -3.31776 3.22945 0
M  V30 32016 H 3212.94 -6.54213 5.71376 0
M  V30 32017 H 3213.21 -5.30492 4.44033 0
M  V30 32018 H 3212.34 -4.55889 6.76652 0
M  V30 32019 P 3208.38 -4.23843 7.83734 0
M  V30 32020 O 3208.16 -4.19407 9.29784 0
M  V30 32021 O 3207.59 -5.24426 7.09156 0
M  V30 32022 O 3208.13 -2.7935 7.20758 0
M  V30 32023 C 3209.07 -1.7299 7.50419 0
M  V30 32024 C 3208.34 -0.406376 7.57911 0
M  V30 32025 O 3208.13 0.0897726 6.21935 0
M  V30 32026 C 3206.94 -0.447224 8.1878 0
M  V30 32027 O 3206.55 0.825065 8.71101 0
M  V30 32028 C 3206.06 -0.783801 6.99623 0
M  V30 32029 C 3206.77 -0.0619192 5.85967 0
M  V30 32030 N 3206.72 -0.7859 4.56281 0
M  V30 32031 H 3209.56 -1.93423 8.4679 0
M  V30 32032 H 3209.83 -1.68181 6.71046 0
M  V30 32033 H 3208.96 0.289041 8.15388 0
M  V30 32034 P 3205 1.17771 8.83182 0
M  V30 32035 O 3204.78 2.07206 9.98732 0
M  V30 32036 O 3204.21 -0.0743816 8.81969 0
M  V30 32037 O 3204.75 1.97678 7.474 0
M  V30 32038 C 3205.69 3.01133 7.08783 0
M  V30 32039 C 3204.96 4.1203 6.37546 0
M  V30 32040 O 3204.75 3.72887 4.9796 0
M  V30 32041 C 3203.56 4.45085 6.88694 0
M  V30 32042 O 3203.17 5.78836 6.56315 0
M  V30 32043 C 3202.68 3.47817 6.12078 0
M  V30 32044 C 3203.39 3.39414 4.77697 0
M  V30 32045 N 3203.34 2.04615 4.15333 0
M  V30 32046 C 3203.19 1.96929 2.77162 0
M  V30 32047 O 3203.1 3.02017 2.12006 0
M  V30 32048 N 3203.14 0.55485 2.24237 0
M  V30 32049 C 3203.24 -0.367808 2.9169 0
M  V30 32050 N 3203.19 -1.53426 2.29427 0
M  V30 32051 C 3203.39 -0.319148 4.33828 0
M  V30 32052 C 3203.44 0.920672 4.90433 0
M  V30 32053 H 3206.18 3.41209 7.98667 0
M  V30 32054 H 3206.45 2.5837 6.41742 0
M  V30 32055 H 3205.58 5.02718 6.42752 0
M  V30 32056 H 3202.93 4.11779 4.09026 0
M  V30 32057 H 3202.65 2.49661 6.61772 0
M  V30 32058 H 3201.66 3.86674 6.00946 0
M  V30 32059 H 3203.49 4.29991 7.97006 0
M  V30 32060 H 3203.56 1.00589 5.98303 0
M  V30 32061 H 3203.46 -1.22639 4.93799 0
M  V30 32062 H 3203.07 -1.56819 1.27167 0
M  V30 32063 H 3203.27 -2.41062 2.83063 0
M  V30 32064 P 3201.62 6.144 6.45285 0
M  V30 32065 O 3201.4 7.54673 6.86199 0
M  V30 32066 O 3200.83 5.12391 7.179 0
M  V30 32067 O 3201.37 5.99158 4.88404 0
M  V30 32068 C 3202.31 6.60234 3.96415 0
M  V30 32069 C 3201.58 7.08259 2.72856 0
M  V30 32070 O 3201.37 5.9427 1.83651 0
M  V30 32071 C 3200.18 7.64886 2.9555 0
M  V30 32072 O 3199.79 8.53963 1.90717 0
M  V30 32073 C 3199.3 6.4116 2.90739 0
M  V30 32074 C 3200.01 5.55375 1.86963 0
M  V30 32075 N 3199.96 4.09664 2.15742 0
M  V30 32076 H 3202.8 7.45574 4.45629 0
M  V30 32077 H 3203.07 5.86232 3.67314 0
M  V30 32078 H 3202.2 7.84412 2.24479 0
M  V30 32079 P 3198.24 8.7635 1.60911 0
M  V30 32080 O 3198.02 10.1388 1.11561 0
M  V30 32081 O 3197.45 8.36503 2.79617 0
M  V30 32082 O 3197.99 7.71806 0.42951 0
M  V30 32083 C 3198.93 7.67148 -0.673689 0
M  V30 32084 C 3198.2 7.33374 -1.95559 0
M  V30 32085 O 3197.99 5.88721 -2.00726 0
M  V30 32086 C 3196.8 7.92526 -2.10483 0
M  V30 32087 O 3196.41 8.02971 -3.47653 0
M  V30 32088 C 3195.92 6.89602 -1.41652 0
M  V30 32089 C 3196.63 5.59201 -1.75185 0
M  V30 32090 N 3196.58 4.58235 -0.662552 0
M  V30 32091 C 3196.66 4.7683 0.704049 0
M  V30 32092 N 3196.58 3.66233 1.39775 0
M  V30 32093 C 3196.44 2.66526 0.431739 0
M  V30 32094 C 3196.31 1.26394 0.575992 0
M  V30 32095 N 3196.19 0.62859 -0.67177 0
M  V30 32096 C 3196.19 1.27134 -1.89385 0
M  V30 32097 N 3196.06 0.492035 -2.96951 0
M  V30 32098 N 3196.32 2.58978 -2.02907 0
M  V30 32099 C 3196.44 3.22433 -0.832218 0
M  V30 32100 H 3199.42 8.65116 -0.777161 0
M  V30 32101 H 3199.69 6.90173 -0.474152 0
M  V30 32102 H 3198.82 7.66548 -2.79458 0
M  V30 32103 P 3194.86 8.03563 -3.84925 0
M  V30 32104 O 3194.64 8.85821 -5.0569 0
M  V30 32105 O 3194.07 8.41101 -2.65469 0
M  V30 32106 O 3194.61 6.4965 -4.18908 0
M  V30 32107 C 3195.55 5.81037 -5.05421 0
M  V30 32108 C 3194.82 4.78366 -5.89277 0
M  V30 32109 O 3194.61 3.58302 -5.08433 0
M  V30 32110 C 3193.42 5.17448 -6.36119 0
M  V30 32111 O 3193.03 4.45271 -7.53232 0
M  V30 32112 C 3192.54 4.74639 -5.19936 0
M  V30 32113 C 3193.25 3.49432 -4.70418 0
M  V30 32114 N 3193.2 3.32099 -3.22613 0
M  V30 32115 H 3196.04 6.54213 -5.71376 0
M  V30 32116 H 3196.31 5.30936 -4.43503 0
M  V30 32117 H 3195.44 4.55889 -6.76652 0
M  V30 32118 H 3192.79 2.61715 -5.17932 0
M  V30 32119 H 3192.51 5.52155 -4.41878 0
M  V30 32120 H 3191.52 4.51981 -5.53374 0
M  V30 32121 H 3193.35 6.25124 -6.55234 0
M  V30 32122 P 3191.48 4.23843 -7.83734 0
M  V30 32123 O 3191.26 4.19407 -9.29784 0
M  V30 32124 O 3190.69 5.24426 -7.09156 0
M  V30 32125 O 3191.23 2.7935 -7.20758 0
M  V30 32126 C 3192.17 1.7299 -7.50419 0
M  V30 32127 C 3191.44 0.406376 -7.57911 0
M  V30 32128 O 3191.23 -0.0897726 -6.21935 0
M  V30 32129 C 3190.04 0.447224 -8.1878 0
M  V30 32130 O 3189.65 -0.825065 -8.71101 0
M  V30 32131 C 3189.16 0.783801 -6.99623 0
M  V30 32132 C 3189.87 0.0619192 -5.85967 0
M  V30 32133 N 3189.82 0.790462 -4.56202 0
M  V30 32134 H 3192.66 1.93423 -8.4679 0
M  V30 32135 H 3192.93 1.68852 -6.70877 0
M  V30 32136 H 3192.06 -0.289041 -8.15388 0
M  V30 32137 H 3189.41 -0.927006 -5.72848 0
M  V30 32138 H 3189.13 1.86973 -6.82036 0
M  V30 32139 H 3188.14 0.403953 -7.13357 0
M  V30 32140 H 3189.97 1.20599 -8.97534 0
M  V30 32141 P 3188.1 -1.17771 -8.83182 0
M  V30 32142 O 3187.88 -2.07206 -9.98732 0
M  V30 32143 O 3187.31 0.0743816 -8.81969 0
M  V30 32144 O 3187.85 -1.97652 -7.47304 0
M  V30 32145 C 3188.79 -3.01133 -7.08783 0
M  V30 32146 C 3188.06 -4.12613 -6.37049 0
M  V30 32147 O 3187.85 -3.72827 -4.97879 0
M  V30 32148 C 3186.66 -4.45085 -6.88694 0
M  V30 32149 O 3186.27 -5.7877 -6.5624 0
M  V30 32150 C 3185.78 -3.47817 -6.12078 0
M  V30 32151 C 3186.49 -3.39414 -4.77697 0
M  V30 32152 N 3186.44 -2.04199 -4.15538 0
M  V30 32153 H 3189.28 -3.41248 -7.98759 0
M  V30 32154 H 3189.55 -2.57728 -6.42 0
M  V30 32155 H 3188.68 -5.02657 -6.42673 0
M  V30 32156 H 3186.03 -4.11708 -4.08956 0
M  V30 32157 H 3185.75 -2.49626 -6.61679 0
M  V30 32158 H 3184.76 -3.8662 -6.00862 0
M  V30 32159 H 3186.59 -4.29991 -7.97006 0
M  V30 32160 P 3184.72 -6.144 -6.45285 0
M  V30 32161 O 3184.5 -7.54673 -6.86199 0
M  V30 32162 O 3183.93 -5.12391 -7.179 0
M  V30 32163 O 3184.47 -5.99158 -4.88404 0
M  V30 32164 C 3185.41 -6.60062 -3.96313 0
M  V30 32165 C 3184.68 -7.08259 -2.72856 0
M  V30 32166 O 3184.47 -5.9427 -1.83651 0
M  V30 32167 C 3183.28 -7.65087 -2.94749 0
M  V30 32168 O 3182.89 -8.53963 -1.90717 0
M  V30 32169 C 3182.4 -6.41069 -2.90698 0
M  V30 32170 C 3183.11 -5.5528 -1.86931 0
M  V30 32171 N 3183.06 -4.09575 -2.15696 0
M  V30 32172 C 3182.91 -3.24249 -1.08435 0
M  V30 32173 O 3182.82 -3.63946 0.0628747 0
M  V30 32174 N 3182.87 -1.90009 -1.39973 0
M  V30 32175 C 3182.96 -1.34884 -2.65614 0
M  V30 32176 O 3182.91 -0.123716 -2.81728 0
M  V30 32177 C 3183.11 -2.3145 -3.71736 0
M  V30 32178 C 3183.22 -1.75913 -5.10438 0
M  V30 32179 C 3183.16 -3.63518 -3.44754 0
M  V30 32180 H 3185.9 -7.45402 -4.45526 0
M  V30 32181 H 3186.17 -5.86062 -3.67208 0
M  V30 32182 H 3185.3 -7.84412 -2.24479 0
M  V30 32183 H 3182.65 -5.73358 -0.888409 0
M  V30 32184 H 3182.37 -5.90877 -3.88583 0
M  V30 32185 H 3181.38 -6.65867 -2.58821 0
M  V30 32186 H 3183.21 -8.16248 -3.92006 0
M  V30 32187 H 3183.28 -4.34551 -4.26383 0
M  V30 32188 H 3182.25 -1.85471 -5.61775 0
M  V30 32189 H 3183.99 -2.31364 -5.66257 0
M  V30 32190 H 3183.5 -0.695936 -5.05229 0
M  V30 32191 H 3182.77 -1.26277 -0.63625 0
M  V30 32192 P 3181.34 -8.7635 -1.60911 0
M  V30 32193 O 3181.12 -10.1388 -1.11561 0
M  V30 32194 O 3180.55 -8.36503 -2.79617 0
M  V30 32195 O 3181.09 -7.71806 -0.42951 0
M  V30 32196 C 3182.03 -7.67148 0.673689 0
M  V30 32197 C 3181.3 -7.33374 1.95559 0
M  V30 32198 O 3181.09 -5.88721 2.00726 0
M  V30 32199 C 3179.9 -7.92526 2.10483 0
M  V30 32200 O 3179.51 -8.02971 3.47653 0
M  V30 32201 C 3179.02 -6.89602 1.41652 0
M  V30 32202 C 3179.73 -5.59201 1.75185 0
M  V30 32203 N 3179.68 -4.58235 0.662552 0
M  V30 32204 H 3182.52 -8.65116 0.777161 0
M  V30 32205 H 3182.79 -6.90173 0.474152 0
M  V30 32206 H 3181.92 -7.66548 2.79458 0
M  V30 32207 P 3177.96 -8.03563 3.84925 0
M  V30 32208 O 3177.74 -8.85821 5.0569 0
M  V30 32209 O 3177.17 -8.41101 2.65469 0
M  V30 32210 O 3177.71 -6.4965 4.18908 0
M  V30 32211 C 3178.65 -5.81037 5.05421 0
M  V30 32212 C 3177.92 -4.78366 5.89277 0
M  V30 32213 O 3177.71 -3.58302 5.08433 0
M  V30 32214 C 3176.52 -5.17448 6.36119 0
M  V30 32215 O 3176.13 -4.45271 7.53232 0
M  V30 32216 C 3175.64 -4.74639 5.19936 0
M  V30 32217 C 3176.35 -3.49432 4.70418 0
M  V30 32218 N 3176.3 -3.31776 3.22945 0
M  V30 32219 H 3179.14 -6.54213 5.71376 0
M  V30 32220 H 3179.41 -5.30492 4.44033 0
M  V30 32221 H 3178.54 -4.55889 6.76652 0
M  V30 32222 P 3174.58 -4.23843 7.83734 0
M  V30 32223 O 3174.36 -4.19407 9.29784 0
M  V30 32224 O 3173.79 -5.24426 7.09156 0
M  V30 32225 O 3174.33 -2.7935 7.20758 0
M  V30 32226 C 3175.27 -1.7299 7.50419 0
M  V30 32227 C 3174.54 -0.406376 7.57911 0
M  V30 32228 O 3174.33 0.0897726 6.21935 0
M  V30 32229 C 3173.14 -0.447224 8.1878 0
M  V30 32230 O 3172.75 0.825065 8.71101 0
M  V30 32231 C 3172.26 -0.783801 6.99623 0
M  V30 32232 C 3172.97 -0.0619192 5.85967 0
M  V30 32233 N 3172.92 -0.7859 4.56281 0
M  V30 32234 H 3175.76 -1.93423 8.4679 0
M  V30 32235 H 3176.03 -1.68181 6.71046 0
M  V30 32236 H 3175.16 0.289041 8.15388 0
M  V30 32237 P 3171.2 1.17771 8.83182 0
M  V30 32238 O 3170.98 2.07206 9.98732 0
M  V30 32239 O 3170.41 -0.0743816 8.81969 0
M  V30 32240 O 3170.95 1.97652 7.47304 0
M  V30 32241 C 3171.89 3.01133 7.08783 0
M  V30 32242 C 3171.16 4.12613 6.37049 0
M  V30 32243 O 3170.95 3.72827 4.97879 0
M  V30 32244 C 3169.76 4.45085 6.88694 0
M  V30 32245 O 3169.37 5.7877 6.5624 0
M  V30 32246 C 3168.88 3.47817 6.12078 0
M  V30 32247 C 3169.59 3.39414 4.77697 0
M  V30 32248 N 3169.54 2.04615 4.15333 0
M  V30 32249 H 3172.38 3.41248 7.98759 0
M  V30 32250 H 3172.65 2.5837 6.41742 0
M  V30 32251 H 3171.78 5.02657 6.42673 0
M  V30 32252 P 3167.82 6.144 6.45285 0
M  V30 32253 O 3167.6 7.54673 6.86199 0
M  V30 32254 O 3167.03 5.12391 7.179 0
M  V30 32255 O 3167.57 5.99158 4.88404 0
M  V30 32256 C 3168.51 6.60234 3.96415 0
M  V30 32257 C 3167.78 7.08259 2.72856 0
M  V30 32258 O 3167.57 5.9427 1.83651 0
M  V30 32259 C 3166.38 7.64886 2.9555 0
M  V30 32260 O 3165.99 8.53963 1.90717 0
M  V30 32261 C 3165.5 6.4116 2.90739 0
M  V30 32262 C 3166.21 5.55375 1.86963 0
M  V30 32263 N 3166.16 4.09448 2.16152 0
M  V30 32264 H 3169 7.45574 4.45629 0
M  V30 32265 H 3169.27 5.85864 3.679 0
M  V30 32266 H 3168.4 7.84412 2.24479 0
M  V30 32267 H 3165.75 5.73457 0.888562 0
M  V30 32268 H 3165.47 5.90877 3.88583 0
M  V30 32269 H 3164.48 6.6596 2.58858 0
M  V30 32270 H 3166.31 8.16339 3.92049 0
M  V30 32271 P 3164.44 8.7635 1.60911 0
M  V30 32272 O 3164.22 10.1388 1.11561 0
M  V30 32273 O 3163.65 8.36503 2.79617 0
M  V30 32274 O 3164.19 7.71806 0.42951 0
M  V30 32275 C 3165.13 7.67148 -0.673689 0
M  V30 32276 C 3164.4 7.33374 -1.95559 0
M  V30 32277 O 3164.19 5.88721 -2.00726 0
M  V30 32278 C 3163 7.92526 -2.10483 0
M  V30 32279 O 3162.61 8.02971 -3.47653 0
M  V30 32280 C 3162.12 6.89602 -1.41652 0
M  V30 32281 C 3162.83 5.59201 -1.75185 0
M  V30 32282 N 3162.78 4.58301 -0.657969 0
M  V30 32283 C 3162.86 4.79019 0.692603 0
M  V30 32284 N 3162.79 3.69736 1.38998 0
M  V30 32285 C 3162.64 2.70474 0.438135 0
M  V30 32286 C 3162.51 1.30327 0.538142 0
M  V30 32287 N 3162.5 0.64304 1.69192 0
M  V30 32288 N 3162.39 0.611027 -0.605183 0
M  V30 32289 C 3162.4 1.27002 -1.75953 0
M  V30 32290 N 3162.52 2.56038 -1.98546 0
M  V30 32291 C 3162.64 3.22681 -0.822541 0
M  V30 32292 H 3165.62 8.65116 -0.777161 0
M  V30 32293 H 3165.89 6.9022 -0.46725 0
M  V30 32294 H 3165.02 7.66548 -2.79458 0
M  V30 32295 H 3162.37 5.16165 -2.65183 0
M  V30 32296 H 3162.09 7.06433 -0.329384 0
M  V30 32297 H 3161.1 6.90926 -1.82021 0
M  V30 32298 H 3162.93 8.90873 -1.62657 0
M  V30 32299 H 3162.97 5.77785 1.13874 0
M  V30 32300 H 3162.59 1.15585 2.57991 0
M  V30 32301 H 3162.4 -0.382989 1.69835 0
M  V30 32302 H 3162.3 0.653331 -2.64449 0
M  V30 32303 P 3161.06 8.03563 -3.84925 0
M  V30 32304 O 3160.84 8.85821 -5.0569 0
M  V30 32305 O 3160.27 8.41101 -2.65469 0
M  V30 32306 O 3160.81 6.4965 -4.18908 0
M  V30 32307 C 3161.75 5.81037 -5.05421 0
M  V30 32308 C 3161.02 4.78366 -5.89277 0
M  V30 32309 O 3160.81 3.58302 -5.08433 0
M  V30 32310 C 3159.62 5.17448 -6.36119 0
M  V30 32311 O 3159.23 4.45271 -7.53232 0
M  V30 32312 C 3158.74 4.74639 -5.19936 0
M  V30 32313 C 3159.45 3.49432 -4.70418 0
M  V30 32314 N 3159.4 3.31776 -3.22945 0
M  V30 32315 H 3162.24 6.54213 -5.71376 0
M  V30 32316 H 3162.51 5.30492 -4.44033 0
M  V30 32317 H 3161.64 4.55889 -6.76652 0
M  V30 32318 P 3157.68 4.23843 -7.83734 0
M  V30 32319 O 3157.46 4.19407 -9.29784 0
M  V30 32320 O 3156.89 5.24426 -7.09156 0
M  V30 32321 O 3157.43 2.7935 -7.20758 0
M  V30 32322 C 3158.37 1.7299 -7.50419 0
M  V30 32323 C 3157.64 0.406376 -7.57911 0
M  V30 32324 O 3157.43 -0.0897726 -6.21935 0
M  V30 32325 C 3156.24 0.447224 -8.1878 0
M  V30 32326 O 3155.85 -0.825065 -8.71101 0
M  V30 32327 C 3155.36 0.783801 -6.99623 0
M  V30 32328 C 3156.07 0.0619192 -5.85967 0
M  V30 32329 N 3156.02 0.790462 -4.56202 0
M  V30 32330 C 3156.1 2.13895 -4.34171 0
M  V30 32331 N 3156.03 2.46449 -3.08687 0
M  V30 32332 C 3155.88 1.2525 -2.43697 0
M  V30 32333 C 3155.75 0.914535 -1.07318 0
M  V30 32334 N 3155.74 1.80782 -0.0887348 0
M  V30 32335 N 3155.63 -0.386745 -0.768133 0
M  V30 32336 C 3155.64 -1.28096 -1.75159 0
M  V30 32337 N 3155.76 -1.09708 -3.04861 0
M  V30 32338 C 3155.88 0.214857 -3.32306 0
M  V30 32339 H 3158.86 1.93423 -8.4679 0
M  V30 32340 H 3159.13 1.68852 -6.70877 0
M  V30 32341 H 3158.26 -0.289041 -8.15388 0
M  V30 32342 H 3155.61 -0.927006 -5.72848 0
M  V30 32343 H 3155.33 1.86973 -6.82036 0
M  V30 32344 H 3154.34 0.403953 -7.13357 0
M  V30 32345 H 3156.17 1.20599 -8.97534 0
M  V30 32346 H 3156.21 2.86846 -5.14318 0
M  V30 32347 H 3155.83 2.81082 -0.302037 0
M  V30 32348 H 3155.64 1.49688 0.889064 0
M  V30 32349 H 3155.54 -2.31317 -1.43855 0
M  V30 32350 P 3154.3 -1.17771 -8.83182 0
M  V30 32351 O 3154.08 -2.07206 -9.98732 0
M  V30 32352 O 3153.51 0.0743816 -8.81969 0
M  V30 32353 O 3154.05 -1.97652 -7.47304 0
M  V30 32354 C 3154.99 -3.01133 -7.08783 0
M  V30 32355 C 3154.26 -4.12613 -6.37049 0
M  V30 32356 O 3154.05 -3.72827 -4.97879 0
M  V30 32357 C 3152.86 -4.45085 -6.88694 0
M  V30 32358 O 3152.47 -5.7877 -6.5624 0
M  V30 32359 C 3151.98 -3.47817 -6.12078 0
M  V30 32360 C 3152.69 -3.39414 -4.77697 0
M  V30 32361 N 3152.64 -2.04199 -4.15538 0
M  V30 32362 H 3155.48 -3.41248 -7.98759 0
M  V30 32363 H 3155.75 -2.57728 -6.42 0
M  V30 32364 H 3154.88 -5.02657 -6.42673 0
M  V30 32365 H 3152.23 -4.11708 -4.08956 0
M  V30 32366 H 3151.95 -2.49626 -6.61679 0
M  V30 32367 H 3150.96 -3.8662 -6.00862 0
M  V30 32368 H 3152.79 -4.29991 -7.97006 0
M  V30 32369 P 3150.92 -6.144 -6.45285 0
M  V30 32370 O 3150.7 -7.54673 -6.86199 0
M  V30 32371 O 3150.13 -5.12391 -7.179 0
M  V30 32372 O 3150.67 -5.99158 -4.88404 0
M  V30 32373 C 3151.61 -6.60234 -3.96415 0
M  V30 32374 C 3150.88 -7.08259 -2.72856 0
M  V30 32375 O 3150.67 -5.9427 -1.83651 0
M  V30 32376 C 3149.48 -7.64886 -2.9555 0
M  V30 32377 O 3149.09 -8.53963 -1.90717 0
M  V30 32378 C 3148.6 -6.4116 -2.90739 0
M  V30 32379 C 3149.31 -5.55375 -1.86963 0
M  V30 32380 N 3149.26 -4.09664 -2.15742 0
M  V30 32381 H 3152.1 -7.45574 -4.45629 0
M  V30 32382 H 3152.37 -5.86232 -3.67314 0
M  V30 32383 H 3151.5 -7.84412 -2.24479 0
M  V30 32384 P 3147.54 -8.7635 -1.60911 0
M  V30 32385 O 3147.32 -10.1388 -1.11561 0
M  V30 32386 O 3146.75 -8.36503 -2.79617 0
M  V30 32387 O 3147.29 -7.71806 -0.42951 0
M  V30 32388 C 3148.23 -7.67148 0.673689 0
M  V30 32389 C 3147.5 -7.33374 1.95559 0
M  V30 32390 O 3147.29 -5.88721 2.00726 0
M  V30 32391 C 3146.1 -7.92526 2.10483 0
M  V30 32392 O 3145.71 -8.02971 3.47653 0
M  V30 32393 C 3145.22 -6.89602 1.41652 0
M  V30 32394 C 3145.93 -5.59201 1.75185 0
M  V30 32395 N 3145.88 -4.58235 0.662552 0
M  V30 32396 C 3145.96 -4.7683 -0.704049 0
M  V30 32397 N 3145.88 -3.66233 -1.39775 0
M  V30 32398 C 3145.74 -2.66526 -0.431739 0
M  V30 32399 C 3145.61 -1.26394 -0.575992 0
M  V30 32400 O 3145.59 -0.589894 -1.60503 0
M  V30 32401 N 3145.49 -0.62859 0.67177 0
M  V30 32402 C 3145.49 -1.27134 1.89385 0
M  V30 32403 N 3145.36 -0.492035 2.96951 0
M  V30 32404 N 3145.62 -2.58978 2.02907 0
M  V30 32405 C 3145.74 -3.22433 0.832218 0
M  V30 32406 H 3148.72 -8.65116 0.777161 0
M  V30 32407 H 3148.99 -6.90173 0.474152 0
M  V30 32408 H 3148.12 -7.66548 2.79458 0
M  V30 32409 H 3145.47 -5.16254 2.65229 0
M  V30 32410 H 3145.19 -7.06532 0.329431 0
M  V30 32411 H 3144.2 -6.91023 1.82047 0
M  V30 32412 H 3146.03 -8.90971 1.62675 0
M  V30 32413 H 3146.08 -5.74954 -1.16305 0
M  V30 32414 H 3145.4 0.366713 0.674793 0
M  V30 32415 H 3145.36 -0.908532 3.91188 0
M  V30 32416 H 3145.26 0.528253 2.85758 0
M  V30 32417 P 3144.16 -8.03563 3.84925 0
M  V30 32418 O 3143.94 -8.85821 5.0569 0
M  V30 32419 O 3143.37 -8.41101 2.65469 0
M  V30 32420 O 3143.91 -6.4965 4.18908 0
M  V30 32421 C 3144.85 -5.81037 5.05421 0
M  V30 32422 C 3144.12 -4.78366 5.89277 0
M  V30 32423 O 3143.91 -3.58302 5.08433 0
M  V30 32424 C 3142.72 -5.17448 6.36119 0
M  V30 32425 O 3142.33 -4.45271 7.53232 0
M  V30 32426 C 3141.84 -4.74639 5.19936 0
M  V30 32427 C 3142.55 -3.49432 4.70418 0
M  V30 32428 N 3142.5 -3.31776 3.22945 0
M  V30 32429 H 3145.34 -6.54213 5.71376 0
M  V30 32430 H 3145.61 -5.30492 4.44033 0
M  V30 32431 H 3144.74 -4.55889 6.76652 0
M  V30 32432 P 3140.78 -4.23843 7.83734 0
M  V30 32433 O 3140.56 -4.19407 9.29784 0
M  V30 32434 O 3139.99 -5.24426 7.09156 0
M  V30 32435 O 3140.53 -2.7935 7.20758 0
M  V30 32436 C 3141.47 -1.7299 7.50419 0
M  V30 32437 C 3140.74 -0.406376 7.57911 0
M  V30 32438 O 3140.53 0.0897726 6.21935 0
M  V30 32439 C 3139.34 -0.447224 8.1878 0
M  V30 32440 O 3138.95 0.825065 8.71101 0
M  V30 32441 C 3138.46 -0.783801 6.99623 0
M  V30 32442 C 3139.17 -0.0619192 5.85967 0
M  V30 32443 N 3139.12 -0.7859 4.56281 0
M  V30 32444 H 3141.96 -1.93423 8.4679 0
M  V30 32445 H 3142.23 -1.68181 6.71046 0
M  V30 32446 H 3141.36 0.289041 8.15388 0
M  V30 32447 P 3137.4 1.17771 8.83182 0
M  V30 32448 O 3137.18 2.07206 9.98732 0
M  V30 32449 O 3136.61 -0.0743816 8.81969 0
M  V30 32450 O 3137.15 1.97652 7.47304 0
M  V30 32451 C 3138.09 3.01133 7.08783 0
M  V30 32452 C 3137.36 4.12613 6.37049 0
M  V30 32453 O 3137.15 3.72827 4.97879 0
M  V30 32454 C 3135.96 4.45085 6.88694 0
M  V30 32455 O 3135.57 5.7877 6.5624 0
M  V30 32456 C 3135.08 3.47817 6.12078 0
M  V30 32457 C 3135.79 3.39414 4.77697 0
M  V30 32458 N 3135.74 2.04199 4.15538 0
M  V30 32459 H 3138.58 3.41248 7.98759 0
M  V30 32460 H 3138.85 2.57728 6.42 0
M  V30 32461 H 3137.98 5.02657 6.42673 0
M  V30 32462 H 3135.33 4.11708 4.08956 0
M  V30 32463 H 3135.05 2.49626 6.61679 0
M  V30 32464 H 3134.06 3.8662 6.00862 0
M  V30 32465 H 3135.89 4.29991 7.97006 0
M  V30 32466 P 3134.02 6.144 6.45285 0
M  V30 32467 O 3133.8 7.54673 6.86199 0
M  V30 32468 O 3133.23 5.12391 7.179 0
M  V30 32469 O 3133.77 5.99158 4.88404 0
M  V30 32470 C 3134.71 6.60234 3.96415 0
M  V30 32471 C 3133.98 7.08259 2.72856 0
M  V30 32472 O 3133.77 5.9427 1.83651 0
M  V30 32473 C 3132.58 7.64886 2.9555 0
M  V30 32474 O 3132.19 8.53963 1.90717 0
M  V30 32475 C 3131.7 6.4116 2.90739 0
M  V30 32476 C 3132.41 5.55375 1.86963 0
M  V30 32477 N 3132.36 4.09664 2.15742 0
M  V30 32478 H 3135.2 7.45574 4.45629 0
M  V30 32479 H 3135.47 5.86232 3.67314 0
M  V30 32480 H 3134.6 7.84412 2.24479 0
M  V30 32481 P 3130.64 8.7635 1.60911 0
M  V30 32482 O 3130.42 10.1388 1.11561 0
M  V30 32483 O 3129.85 8.36503 2.79617 0
M  V30 32484 O 3130.39 7.71806 0.42951 0
M  V30 32485 C 3131.33 7.67148 -0.673689 0
M  V30 32486 C 3130.6 7.33374 -1.95559 0
M  V30 32487 O 3130.39 5.88721 -2.00726 0
M  V30 32488 C 3129.2 7.92526 -2.10483 0
M  V30 32489 O 3128.81 8.02971 -3.47653 0
M  V30 32490 C 3128.32 6.89602 -1.41652 0
M  V30 32491 C 3129.03 5.59201 -1.75185 0
M  V30 32492 N 3128.98 4.58235 -0.662552 0
M  V30 32493 H 3131.82 8.65116 -0.777161 0
M  V30 32494 H 3132.09 6.90173 -0.474152 0
M  V30 32495 H 3131.22 7.66548 -2.79458 0
M  V30 32496 P 3127.26 8.03563 -3.84925 0
M  V30 32497 O 3127.04 8.85821 -5.0569 0
M  V30 32498 O 3126.47 8.41101 -2.65469 0
M  V30 32499 O 3127.01 6.4965 -4.18908 0
M  V30 32500 C 3127.95 5.81037 -5.05421 0
M  V30 32501 C 3127.22 4.78366 -5.89277 0
M  V30 32502 O 3127.01 3.58302 -5.08433 0
M  V30 32503 C 3125.82 5.17448 -6.36119 0
M  V30 32504 O 3125.43 4.45271 -7.53232 0
M  V30 32505 C 3124.94 4.74639 -5.19936 0
M  V30 32506 C 3125.65 3.49432 -4.70418 0
M  V30 32507 N 3125.6 3.31776 -3.22945 0
M  V30 32508 H 3128.44 6.54213 -5.71376 0
M  V30 32509 H 3128.71 5.30492 -4.44033 0
M  V30 32510 H 3127.84 4.55889 -6.76652 0
M  V30 32511 P 3123.88 4.23843 -7.83734 0
M  V30 32512 O 3123.66 4.19407 -9.29784 0
M  V30 32513 O 3123.09 5.24426 -7.09156 0
M  V30 32514 O 3123.63 2.7935 -7.20758 0
M  V30 32515 C 3124.57 1.7299 -7.50419 0
M  V30 32516 C 3123.84 0.406376 -7.57911 0
M  V30 32517 O 3123.63 -0.0897726 -6.21935 0
M  V30 32518 C 3122.44 0.447224 -8.1878 0
M  V30 32519 O 3122.05 -0.825065 -8.71101 0
M  V30 32520 C 3121.56 0.783801 -6.99623 0
M  V30 32521 C 3122.27 0.0619192 -5.85967 0
M  V30 32522 N 3122.22 0.7859 -4.56281 0
M  V30 32523 H 3125.06 1.93423 -8.4679 0
M  V30 32524 H 3125.33 1.68181 -6.71046 0
M  V30 32525 H 3124.46 -0.289041 -8.15388 0
M  V30 32526 P 3120.5 -1.17771 -8.83182 0
M  V30 32527 O 3120.28 -2.07206 -9.98732 0
M  V30 32528 O 3119.71 0.0743816 -8.81969 0
M  V30 32529 O 3120.25 -1.97652 -7.47304 0
M  V30 32530 C 3121.19 -3.01133 -7.08783 0
M  V30 32531 C 3120.46 -4.12613 -6.37049 0
M  V30 32532 O 3120.25 -3.72827 -4.97879 0
M  V30 32533 C 3119.06 -4.45085 -6.88694 0
M  V30 32534 O 3118.67 -5.7877 -6.5624 0
M  V30 32535 C 3118.18 -3.47817 -6.12078 0
M  V30 32536 C 3118.89 -3.39414 -4.77697 0
M  V30 32537 N 3118.84 -2.04615 -4.15333 0
M  V30 32538 H 3121.68 -3.41248 -7.98759 0
M  V30 32539 H 3121.95 -2.5837 -6.41742 0
M  V30 32540 H 3121.08 -5.02657 -6.42673 0
M  V30 32541 P 3117.12 -6.144 -6.45285 0
M  V30 32542 O 3116.9 -7.54673 -6.86199 0
M  V30 32543 O 3116.33 -5.12391 -7.179 0
M  V30 32544 O 3116.87 -5.99158 -4.88404 0
M  V30 32545 C 3117.81 -6.60234 -3.96415 0
M  V30 32546 C 3117.08 -7.08259 -2.72856 0
M  V30 32547 O 3116.87 -5.9427 -1.83651 0
M  V30 32548 C 3115.68 -7.64886 -2.9555 0
M  V30 32549 O 3115.29 -8.53963 -1.90717 0
M  V30 32550 C 3114.8 -6.4116 -2.90739 0
M  V30 32551 C 3115.51 -5.55375 -1.86963 0
M  V30 32552 N 3115.46 -4.09664 -2.15742 0
M  V30 32553 H 3118.3 -7.45574 -4.45629 0
M  V30 32554 H 3118.57 -5.86232 -3.67314 0
M  V30 32555 H 3117.7 -7.84412 -2.24479 0
M  V30 32556 P 3113.74 -8.7635 -1.60911 0
M  V30 32557 O 3113.52 -10.1388 -1.11561 0
M  V30 32558 O 3112.95 -8.36503 -2.79617 0
M  V30 32559 O 3113.49 -7.71806 -0.42951 0
M  V30 32560 C 3114.43 -7.66948 0.673514 0
M  V30 32561 C 3113.7 -7.33374 1.95559 0
M  V30 32562 O 3113.49 -5.88721 2.00726 0
M  V30 32563 C 3112.3 -7.92218 2.1125 0
M  V30 32564 O 3111.91 -8.02971 3.47653 0
M  V30 32565 C 3111.42 -6.89504 1.41631 0
M  V30 32566 C 3112.13 -5.59106 1.75155 0
M  V30 32567 N 3112.08 -4.58136 0.662409 0
M  V30 32568 C 3111.93 -3.26059 1.02863 0
M  V30 32569 O 3111.84 -2.90743 2.19009 0
M  V30 32570 N 3111.89 -2.35995 -0.0155585 0
M  V30 32571 C 3111.98 -2.65248 -1.35603 0
M  V30 32572 O 3111.93 -1.75605 -2.20651 0
M  V30 32573 C 3112.13 -4.05747 -1.64698 0
M  V30 32574 C 3112.24 -4.42345 -3.09553 0
M  V30 32575 C 3112.18 -4.96734 -0.652411 0
M  V30 32576 H 3114.92 -8.64917 0.776982 0
M  V30 32577 H 3115.19 -6.89974 0.474015 0
M  V30 32578 H 3114.32 -7.66548 2.79458 0
M  V30 32579 H 3111.67 -5.16076 2.65138 0
M  V30 32580 H 3111.39 -7.06433 0.329384 0
M  V30 32581 H 3110.4 -6.90829 1.81996 0
M  V30 32582 H 3112.23 -8.90774 1.62639 0
M  V30 32583 H 3112.3 -6.02181 -0.895285 0
M  V30 32584 H 3111.27 -4.80252 -3.45468 0
M  V30 32585 H 3113.01 -5.20015 -3.22119 0
M  V30 32586 H 3112.52 -3.53269 -3.67833 0
M  V30 32587 H 3111.79 -1.39558 0.227499 0
M  V30 32588 P 3110.36 -8.03563 3.84925 0
M  V30 32589 O 3110.14 -8.85821 5.0569 0
M  V30 32590 O 3109.57 -8.41101 2.65469 0
M  V30 32591 O 3110.11 -6.4965 4.18908 0
M  V30 32592 C 3111.05 -5.80886 5.05289 0
M  V30 32593 C 3110.32 -4.78366 5.89277 0
M  V30 32594 O 3110.11 -3.58302 5.08433 0
M  V30 32595 C 3108.92 -5.16748 6.36559 0
M  V30 32596 O 3108.53 -4.45271 7.53232 0
M  V30 32597 C 3108.04 -4.74572 5.19863 0
M  V30 32598 C 3108.75 -3.49373 4.70338 0
M  V30 32599 N 3108.7 -3.31704 3.22876 0
M  V30 32600 C 3108.55 -2.03326 2.74871 0
M  V30 32601 O 3108.46 -1.06486 3.48076 0
M  V30 32602 N 3108.51 -1.91838 1.37456 0
M  V30 32603 C 3108.6 -2.94295 0.462035 0
M  V30 32604 C 3108.75 -4.25064 1.05249 0
M  V30 32605 C 3108.8 -4.40214 2.39192 0
M  V30 32606 H 3111.54 -6.54063 5.71245 0
M  V30 32607 H 3111.81 -5.30339 4.43905 0
M  V30 32608 H 3110.94 -4.55889 6.76652 0
M  V30 32609 H 3108.29 -2.6167 5.17842 0
M  V30 32610 H 3108.01 -5.52155 4.41878 0
M  V30 32611 H 3107.02 -4.51918 5.53297 0
M  V30 32612 H 3108.85 -6.25055 6.55162 0
M  V30 32613 H 3108.92 -5.39798 2.81523 0
M  V30 32614 P 3106.98 -4.23843 7.83734 0
M  V30 32615 O 3106.76 -4.19407 9.29784 0
M  V30 32616 O 3106.19 -5.24426 7.09156 0
M  V30 32617 O 3106.73 -2.7935 7.20758 0
M  V30 32618 C 3107.67 -1.7299 7.50419 0
M  V30 32619 C 3106.94 -0.406376 7.57911 0
M  V30 32620 O 3106.73 0.0897726 6.21935 0
M  V30 32621 C 3105.54 -0.447224 8.1878 0
M  V30 32622 O 3105.15 0.825065 8.71101 0
M  V30 32623 C 3104.66 -0.783801 6.99623 0
M  V30 32624 C 3105.37 -0.0619192 5.85967 0
M  V30 32625 N 3105.32 -0.790462 4.56202 0
M  V30 32626 H 3108.16 -1.93423 8.4679 0
M  V30 32627 H 3108.43 -1.68852 6.70877 0
M  V30 32628 H 3107.56 0.289041 8.15388 0
M  V30 32629 H 3104.91 0.927006 5.72848 0
M  V30 32630 H 3104.63 -1.86973 6.82036 0
M  V30 32631 H 3103.64 -0.403953 7.13357 0
M  V30 32632 H 3105.47 -1.20599 8.97534 0
M  V30 32633 P 3103.6 1.17771 8.83182 0
M  V30 32634 O 3103.38 2.07206 9.98732 0
M  V30 32635 O 3102.81 -0.0743816 8.81969 0
M  V30 32636 O 3103.35 1.97652 7.47304 0
M  V30 32637 C 3104.29 3.01133 7.08783 0
M  V30 32638 C 3103.56 4.12613 6.37049 0
M  V30 32639 O 3103.35 3.72827 4.97879 0
M  V30 32640 C 3102.16 4.45085 6.88694 0
M  V30 32641 O 3101.77 5.7877 6.5624 0
M  V30 32642 C 3101.28 3.47817 6.12078 0
M  V30 32643 C 3101.99 3.39414 4.77697 0
M  V30 32644 N 3101.94 2.04615 4.15333 0
M  V30 32645 H 3104.78 3.41248 7.98759 0
M  V30 32646 H 3105.05 2.5837 6.41742 0
M  V30 32647 H 3104.18 5.02657 6.42673 0
M  V30 32648 P 3100.22 6.144 6.45285 0
M  V30 32649 O 3100 7.54673 6.86199 0
M  V30 32650 O 3099.43 5.12391 7.179 0
M  V30 32651 O 3099.97 5.99158 4.88404 0
M  V30 32652 C 3100.91 6.60234 3.96415 0
M  V30 32653 C 3100.18 7.08259 2.72856 0
M  V30 32654 O 3099.97 5.9427 1.83651 0
M  V30 32655 C 3098.78 7.64886 2.9555 0
M  V30 32656 O 3098.39 8.53963 1.90717 0
M  V30 32657 C 3097.9 6.4116 2.90739 0
M  V30 32658 C 3098.61 5.55375 1.86963 0
M  V30 32659 N 3098.56 4.09664 2.15742 0
M  V30 32660 H 3101.4 7.45574 4.45629 0
M  V30 32661 H 3101.67 5.86232 3.67314 0
M  V30 32662 H 3100.8 7.84412 2.24479 0
M  V30 32663 P 3096.84 8.7635 1.60911 0
M  V30 32664 O 3096.62 10.1388 1.11561 0
M  V30 32665 O 3096.05 8.36503 2.79617 0
M  V30 32666 O 3096.59 7.71806 0.42951 0
M  V30 32667 C 3097.53 7.67148 -0.673689 0
M  V30 32668 C 3096.8 7.33374 -1.95559 0
M  V30 32669 O 3096.59 5.88721 -2.00726 0
M  V30 32670 C 3095.4 7.92526 -2.10483 0
M  V30 32671 O 3095.01 8.02971 -3.47653 0
M  V30 32672 C 3094.52 6.89602 -1.41652 0
M  V30 32673 C 3095.23 5.59201 -1.75185 0
M  V30 32674 N 3095.18 4.58301 -0.657969 0
M  V30 32675 H 3098.02 8.65116 -0.777161 0
M  V30 32676 H 3098.29 6.9022 -0.46725 0
M  V30 32677 H 3097.42 7.66548 -2.79458 0
M  V30 32678 H 3094.77 5.16165 -2.65183 0
M  V30 32679 H 3094.49 7.06433 -0.329384 0
M  V30 32680 H 3093.5 6.90926 -1.82021 0
M  V30 32681 H 3095.33 8.90873 -1.62657 0
M  V30 32682 P 3093.46 8.03563 -3.84925 0
M  V30 32683 O 3093.24 8.85821 -5.0569 0
M  V30 32684 O 3092.67 8.41101 -2.65469 0
M  V30 32685 O 3093.21 6.4965 -4.18908 0
M  V30 32686 C 3094.15 5.80886 -5.05289 0
M  V30 32687 C 3093.42 4.78366 -5.89277 0
M  V30 32688 O 3093.21 3.58302 -5.08433 0
M  V30 32689 C 3092.02 5.16748 -6.36559 0
M  V30 32690 O 3091.63 4.45271 -7.53232 0
M  V30 32691 C 3091.14 4.74572 -5.19863 0
M  V30 32692 C 3091.85 3.49373 -4.70338 0
M  V30 32693 N 3091.8 3.31704 -3.22876 0
M  V30 32694 C 3091.65 2.03326 -2.74871 0
M  V30 32695 O 3091.56 1.06486 -3.48076 0
M  V30 32696 N 3091.61 1.91838 -1.37456 0
M  V30 32697 C 3091.7 2.94295 -0.462035 0
M  V30 32698 O 3091.65 2.71763 0.752928 0
M  V30 32699 C 3091.85 4.25064 -1.05249 0
M  V30 32700 C 3091.96 5.39815 -0.095697 0
M  V30 32701 C 3091.9 4.40214 -2.39192 0
M  V30 32702 H 3094.64 6.54063 -5.71245 0
M  V30 32703 H 3094.91 5.30339 -4.43905 0
M  V30 32704 H 3094.04 4.55889 -6.76652 0
M  V30 32705 H 3091.39 2.6167 -5.17842 0
M  V30 32706 H 3091.11 5.52155 -4.41878 0
M  V30 32707 H 3090.12 4.51918 -5.53297 0
M  V30 32708 H 3091.95 6.25055 -6.55162 0
M  V30 32709 H 3092.02 5.39798 -2.81523 0
M  V30 32710 H 3090.99 5.91593 -0.0279582 0
M  V30 32711 H 3092.73 6.10038 -0.450573 0
M  V30 32712 H 3092.24 5.02007 0.89937 0
M  V30 32713 H 3091.51 0.995326 -1.00435 0
M  V30 32714 P 3090.08 4.23843 -7.83734 0
M  V30 32715 O 3089.86 4.19407 -9.29784 0
M  V30 32716 O 3089.29 5.24426 -7.09156 0
M  V30 32717 O 3089.83 2.7935 -7.20758 0
M  V30 32718 C 3090.77 1.7299 -7.50419 0
M  V30 32719 C 3090.04 0.406376 -7.57911 0
M  V30 32720 O 3089.83 -0.0897726 -6.21935 0
M  V30 32721 C 3088.64 0.447224 -8.1878 0
M  V30 32722 O 3088.25 -0.825065 -8.71101 0
M  V30 32723 C 3087.76 0.783801 -6.99623 0
M  V30 32724 C 3088.47 0.0619192 -5.85967 0
M  V30 32725 N 3088.42 0.7859 -4.56281 0
M  V30 32726 H 3091.26 1.93423 -8.4679 0
M  V30 32727 H 3091.53 1.68181 -6.71046 0
M  V30 32728 H 3090.66 -0.289041 -8.15388 0
M  V30 32729 P 3086.7 -1.17771 -8.83182 0
M  V30 32730 O 3086.48 -2.07206 -9.98732 0
M  V30 32731 O 3085.91 0.0743816 -8.81969 0
M  V30 32732 O 3086.45 -1.97652 -7.47304 0
M  V30 32733 C 3087.39 -3.01133 -7.08783 0
M  V30 32734 C 3086.66 -4.12613 -6.37049 0
M  V30 32735 O 3086.45 -3.72827 -4.97879 0
M  V30 32736 C 3085.26 -4.45085 -6.88694 0
M  V30 32737 O 3084.87 -5.7877 -6.5624 0
M  V30 32738 C 3084.38 -3.47817 -6.12078 0
M  V30 32739 C 3085.09 -3.39414 -4.77697 0
M  V30 32740 N 3085.04 -2.04199 -4.15538 0
M  V30 32741 H 3087.88 -3.41248 -7.98759 0
M  V30 32742 H 3088.15 -2.57728 -6.42 0
M  V30 32743 H 3087.28 -5.02657 -6.42673 0
M  V30 32744 H 3084.63 -4.11708 -4.08956 0
M  V30 32745 H 3084.35 -2.49626 -6.61679 0
M  V30 32746 H 3083.36 -3.8662 -6.00862 0
M  V30 32747 H 3085.19 -4.29991 -7.97006 0
M  V30 32748 P 3083.32 -6.144 -6.45285 0
M  V30 32749 O 3083.1 -7.54673 -6.86199 0
M  V30 32750 O 3082.53 -5.12391 -7.179 0
M  V30 32751 O 3083.07 -5.99158 -4.88404 0
M  V30 32752 C 3084.01 -6.60234 -3.96415 0
M  V30 32753 C 3083.28 -7.08259 -2.72856 0
M  V30 32754 O 3083.07 -5.9427 -1.83651 0
M  V30 32755 C 3081.88 -7.64886 -2.9555 0
M  V30 32756 O 3081.49 -8.53963 -1.90717 0
M  V30 32757 C 3081 -6.4116 -2.90739 0
M  V30 32758 C 3081.71 -5.55375 -1.86963 0
M  V30 32759 N 3081.66 -4.09448 -2.16152 0
M  V30 32760 H 3084.5 -7.45574 -4.45629 0
M  V30 32761 H 3084.77 -5.85864 -3.679 0
M  V30 32762 H 3083.9 -7.84412 -2.24479 0
M  V30 32763 H 3081.25 -5.73457 -0.888562 0
M  V30 32764 H 3080.97 -5.90877 -3.88583 0
M  V30 32765 H 3079.98 -6.6596 -2.58858 0
M  V30 32766 H 3081.81 -8.16339 -3.92049 0
M  V30 32767 P 3079.94 -8.7635 -1.60911 0
M  V30 32768 O 3079.72 -10.1388 -1.11561 0
M  V30 32769 O 3079.15 -8.36503 -2.79617 0
M  V30 32770 O 3079.69 -7.71906 -0.429565 0
M  V30 32771 C 3080.63 -7.67148 0.673689 0
M  V30 32772 C 3079.9 -7.33666 1.94851 0
M  V30 32773 O 3079.69 -5.88816 2.00759 0
M  V30 32774 C 3078.5 -7.92526 2.10483 0
M  V30 32775 O 3078.11 -8.03063 3.47693 0
M  V30 32776 C 3077.62 -6.89602 1.41652 0
M  V30 32777 C 3078.33 -5.59201 1.75185 0
M  V30 32778 N 3078.28 -4.58235 0.662552 0
M  V30 32779 C 3078.13 -3.24451 1.01643 0
M  V30 32780 O 3078.04 -2.94958 2.21722 0
M  V30 32781 N 3078.08 -2.30408 -0.165238 0
M  V30 32782 C 3078.18 -2.66048 -1.25118 0
M  V30 32783 N 3078.13 -1.70787 -2.16813 0
M  V30 32784 C 3078.33 -4.02732 -1.64413 0
M  V30 32785 C 3078.38 -4.9488 -0.63991 0
M  V30 32786 H 3081.12 -8.65017 0.777072 0
M  V30 32787 H 3081.39 -6.90173 0.474152 0
M  V30 32788 H 3080.52 -7.66642 2.79492 0
M  V30 32789 H 3077.87 -5.16254 2.65229 0
M  V30 32790 H 3077.59 -7.06532 0.329431 0
M  V30 32791 H 3076.6 -6.91023 1.82047 0
M  V30 32792 H 3078.43 -8.90873 1.62657 0
M  V30 32793 H 3078.5 -6.00104 -0.892197 0
M  V30 32794 H 3078.4 -4.31733 -2.69229 0
M  V30 32795 H 3078.01 -0.724835 -1.8844 0
M  V30 32796 H 3078.21 -1.94716 -3.16734 0
M  V30 32797 P 3076.56 -8.03563 3.84925 0
M  V30 32798 O 3076.34 -8.85821 5.0569 0
M  V30 32799 O 3075.77 -8.41101 2.65469 0
M  V30 32800 O 3076.31 -6.4965 4.18908 0
M  V30 32801 C 3077.25 -5.81037 5.05421 0
M  V30 32802 C 3076.52 -4.78366 5.89277 0
M  V30 32803 O 3076.31 -3.58302 5.08433 0
M  V30 32804 C 3075.12 -5.17448 6.36119 0
M  V30 32805 O 3074.73 -4.45271 7.53232 0
M  V30 32806 C 3074.24 -4.74639 5.19936 0
M  V30 32807 C 3074.95 -3.49432 4.70418 0
M  V30 32808 N 3074.9 -3.31776 3.22945 0
M  V30 32809 H 3077.74 -6.54213 5.71376 0
M  V30 32810 H 3078.01 -5.30492 4.44033 0
M  V30 32811 H 3077.14 -4.55889 6.76652 0
M  V30 32812 P 3073.18 -4.23843 7.83734 0
M  V30 32813 O 3072.96 -4.19407 9.29784 0
M  V30 32814 O 3072.39 -5.24426 7.09156 0
M  V30 32815 O 3072.93 -2.7935 7.20758 0
M  V30 32816 C 3073.87 -1.72945 7.50224 0
M  V30 32817 C 3073.14 -0.406376 7.57911 0
M  V30 32818 O 3072.93 0.0897726 6.21935 0
M  V30 32819 C 3071.74 -0.438983 8.18724 0
M  V30 32820 O 3071.35 0.825065 8.71101 0
M  V30 32821 C 3070.86 -0.783689 6.99524 0
M  V30 32822 C 3071.57 -0.0619086 5.85867 0
M  V30 32823 N 3071.52 -0.78573 4.56183 0
M  V30 32824 C 3071.37 -0.0292889 3.41887 0
M  V30 32825 O 3071.28 1.18445 3.4419 0
M  V30 32826 N 3071.33 -0.744061 2.23964 0
M  V30 32827 C 3071.42 -2.10932 2.10362 0
M  V30 32828 O 3071.37 -2.64117 0.98825 0
M  V30 32829 C 3071.57 -2.8202 3.34994 0
M  V30 32830 C 3071.68 -4.31095 3.25037 0
M  V30 32831 C 3071.62 -2.15547 4.52261 0
M  V30 32832 H 3074.36 -1.93379 8.46595 0
M  V30 32833 H 3074.63 -1.68132 6.70852 0
M  V30 32834 H 3073.76 0.289041 8.15388 0
M  V30 32835 H 3071.11 0.926847 5.72749 0
M  V30 32836 H 3070.83 -1.86973 6.82036 0
M  V30 32837 H 3069.84 -0.403896 7.13257 0
M  V30 32838 H 3071.67 -1.20585 8.97435 0
M  V30 32839 H 3071.74 -2.71231 5.45042 0
M  V30 32840 H 3070.71 -4.76966 3.49992 0
M  V30 32841 H 3072.45 -4.67047 3.95024 0
M  V30 32842 H 3071.96 -4.58996 2.22312 0
M  V30 32843 H 3071.23 -0.214893 1.39758 0
M  V30 32844 P 3069.8 1.17771 8.83182 0
M  V30 32845 O 3069.58 2.07206 9.98732 0
M  V30 32846 O 3069.01 -0.0743816 8.81969 0
M  V30 32847 O 3069.55 1.97652 7.47304 0
M  V30 32848 C 3070.49 3.01133 7.08783 0
M  V30 32849 C 3069.76 4.12613 6.37049 0
M  V30 32850 O 3069.55 3.72827 4.97879 0
M  V30 32851 C 3068.36 4.45085 6.88694 0
M  V30 32852 O 3067.97 5.7877 6.5624 0
M  V30 32853 C 3067.48 3.47817 6.12078 0
M  V30 32854 C 3068.19 3.39414 4.77697 0
M  V30 32855 N 3068.14 2.04615 4.15333 0
M  V30 32856 H 3070.98 3.41248 7.98759 0
M  V30 32857 H 3071.25 2.5837 6.41742 0
M  V30 32858 H 3070.38 5.02657 6.42673 0
M  V30 32859 P 3066.42 6.144 6.45285 0
M  V30 32860 O 3066.2 7.54673 6.86199 0
M  V30 32861 O 3065.63 5.12391 7.179 0
M  V30 32862 O 3066.17 5.99158 4.88404 0
M  V30 32863 C 3067.11 6.60234 3.96415 0
M  V30 32864 C 3066.38 7.08259 2.72856 0
M  V30 32865 O 3066.17 5.9427 1.83651 0
M  V30 32866 C 3064.98 7.64886 2.9555 0
M  V30 32867 O 3064.59 8.53963 1.90717 0
M  V30 32868 C 3064.1 6.4116 2.90739 0
M  V30 32869 C 3064.81 5.55375 1.86963 0
M  V30 32870 N 3064.76 4.09664 2.15742 0
M  V30 32871 H 3067.6 7.45574 4.45629 0
M  V30 32872 H 3067.87 5.86232 3.67314 0
M  V30 32873 H 3067 7.84412 2.24479 0
M  V30 32874 P 3063.04 8.7635 1.60911 0
M  V30 32875 O 3062.82 10.1388 1.11561 0
M  V30 32876 O 3062.25 8.36503 2.79617 0
M  V30 32877 O 3062.79 7.71906 0.429565 0
M  V30 32878 C 3063.73 7.67148 -0.673689 0
M  V30 32879 C 3063 7.33666 -1.94851 0
M  V30 32880 O 3062.79 5.88816 -2.00759 0
M  V30 32881 C 3061.6 7.92526 -2.10483 0
M  V30 32882 O 3061.21 8.03063 -3.47693 0
M  V30 32883 C 3060.72 6.89602 -1.41652 0
M  V30 32884 C 3061.43 5.59201 -1.75185 0
M  V30 32885 N 3061.38 4.58235 -0.662552 0
M  V30 32886 C 3061.23 3.24451 -1.01643 0
M  V30 32887 O 3061.14 2.94958 -2.21722 0
M  V30 32888 N 3061.18 2.30408 0.165238 0
M  V30 32889 C 3061.28 2.66048 1.25118 0
M  V30 32890 N 3061.23 1.70787 2.16813 0
M  V30 32891 C 3061.43 4.02732 1.64413 0
M  V30 32892 C 3061.48 4.9488 0.63991 0
M  V30 32893 H 3064.22 8.65017 -0.777072 0
M  V30 32894 H 3064.49 6.90173 -0.474152 0
M  V30 32895 H 3063.62 7.66642 -2.79492 0
M  V30 32896 H 3060.97 5.16254 -2.65229 0
M  V30 32897 H 3060.69 7.06532 -0.329431 0
M  V30 32898 H 3059.7 6.91023 -1.82047 0
M  V30 32899 H 3061.53 8.90873 -1.62657 0
M  V30 32900 H 3061.6 6.00104 0.892197 0
M  V30 32901 H 3061.5 4.31733 2.69229 0
M  V30 32902 H 3061.11 0.724835 1.8844 0
M  V30 32903 H 3061.31 1.94716 3.16734 0
M  V30 32904 P 3059.66 8.03563 -3.84925 0
M  V30 32905 O 3059.44 8.85821 -5.0569 0
M  V30 32906 O 3058.87 8.41101 -2.65469 0
M  V30 32907 O 3059.41 6.4965 -4.18908 0
M  V30 32908 C 3060.35 5.80886 -5.05289 0
M  V30 32909 C 3059.62 4.78366 -5.89277 0
M  V30 32910 O 3059.41 3.58302 -5.08433 0
M  V30 32911 C 3058.22 5.16748 -6.36559 0
M  V30 32912 O 3057.83 4.45271 -7.53232 0
M  V30 32913 C 3057.34 4.74572 -5.19863 0
M  V30 32914 C 3058.05 3.49373 -4.70338 0
M  V30 32915 N 3058 3.31704 -3.22876 0
M  V30 32916 C 3057.85 2.03326 -2.74871 0
M  V30 32917 O 3057.76 1.06486 -3.48076 0
M  V30 32918 N 3057.81 1.91838 -1.37456 0
M  V30 32919 C 3057.9 2.94295 -0.462035 0
M  V30 32920 O 3057.85 2.71763 0.752928 0
M  V30 32921 C 3058.05 4.25064 -1.05249 0
M  V30 32922 C 3058.16 5.39815 -0.095697 0
M  V30 32923 C 3058.1 4.40214 -2.39192 0
M  V30 32924 H 3060.84 6.54063 -5.71245 0
M  V30 32925 H 3061.11 5.30339 -4.43905 0
M  V30 32926 H 3060.24 4.55889 -6.76652 0
M  V30 32927 H 3057.59 2.6167 -5.17842 0
M  V30 32928 H 3057.31 5.52155 -4.41878 0
M  V30 32929 H 3056.32 4.51918 -5.53297 0
M  V30 32930 H 3058.15 6.25055 -6.55162 0
M  V30 32931 H 3058.22 5.39798 -2.81523 0
M  V30 32932 H 3057.19 5.91593 -0.0279582 0
M  V30 32933 H 3058.93 6.10038 -0.450573 0
M  V30 32934 H 3058.44 5.02007 0.89937 0
M  V30 32935 H 3057.71 0.995326 -1.00435 0
M  V30 32936 P 3056.28 4.23843 -7.83734 0
M  V30 32937 O 3056.06 4.19407 -9.29784 0
M  V30 32938 O 3055.49 5.24426 -7.09156 0
M  V30 32939 O 3056.03 2.7935 -7.20758 0
M  V30 32940 C 3056.97 1.72945 -7.50224 0
M  V30 32941 C 3056.24 0.406376 -7.57911 0
M  V30 32942 O 3056.03 -0.0897726 -6.21935 0
M  V30 32943 C 3054.84 0.438983 -8.18724 0
M  V30 32944 O 3054.45 -0.825065 -8.71101 0
M  V30 32945 C 3053.96 0.783689 -6.99524 0
M  V30 32946 C 3054.67 0.0619086 -5.85867 0
M  V30 32947 N 3054.62 0.78573 -4.56183 0
M  V30 32948 C 3054.47 0.0292889 -3.41887 0
M  V30 32949 O 3054.38 -1.18445 -3.4419 0
M  V30 32950 N 3054.43 0.744061 -2.23964 0
M  V30 32951 C 3054.52 2.10932 -2.10362 0
M  V30 32952 O 3054.47 2.64117 -0.98825 0
M  V30 32953 C 3054.67 2.8202 -3.34994 0
M  V30 32954 C 3054.78 4.31095 -3.25037 0
M  V30 32955 C 3054.72 2.15547 -4.52261 0
M  V30 32956 H 3057.46 1.93379 -8.46595 0
M  V30 32957 H 3057.73 1.68132 -6.70852 0
M  V30 32958 H 3056.86 -0.289041 -8.15388 0
M  V30 32959 H 3054.21 -0.926847 -5.72749 0
M  V30 32960 H 3053.93 1.86973 -6.82036 0
M  V30 32961 H 3052.94 0.403896 -7.13257 0
M  V30 32962 H 3054.77 1.20585 -8.97435 0
M  V30 32963 H 3054.84 2.71231 -5.45042 0
M  V30 32964 H 3053.81 4.76966 -3.49992 0
M  V30 32965 H 3055.55 4.67047 -3.95024 0
M  V30 32966 H 3055.06 4.58996 -2.22312 0
M  V30 32967 H 3054.33 0.214893 -1.39758 0
M  V30 32968 P 3052.9 -1.17771 -8.83182 0
M  V30 32969 O 3052.68 -2.07206 -9.98732 0
M  V30 32970 O 3052.11 0.0743816 -8.81969 0
M  V30 32971 O 3052.65 -1.97652 -7.47304 0
M  V30 32972 C 3053.59 -3.01133 -7.08783 0
M  V30 32973 C 3052.86 -4.12613 -6.37049 0
M  V30 32974 O 3052.65 -3.72827 -4.97879 0
M  V30 32975 C 3051.46 -4.45085 -6.88694 0
M  V30 32976 O 3051.07 -5.7877 -6.5624 0
M  V30 32977 C 3050.58 -3.47817 -6.12078 0
M  V30 32978 C 3051.29 -3.39414 -4.77697 0
M  V30 32979 N 3051.24 -2.04199 -4.15538 0
M  V30 32980 C 3051.32 -0.821545 -4.76977 0
M  V30 32981 N 3051.25 0.1794 -3.94592 0
M  V30 32982 C 3051.1 -0.419121 -2.70776 0
M  V30 32983 C 3050.97 0.109072 -1.40577 0
M  V30 32984 N 3050.96 1.4104 -1.1344 0
M  V30 32985 N 3050.85 -0.764381 -0.39411 0
M  V30 32986 C 3050.86 -2.06587 -0.664135 0
M  V30 32987 N 3050.98 -2.67948 -1.82153 0
M  V30 32988 C 3051.1 -1.77942 -2.8147 0
M  V30 32989 H 3054.08 -3.41248 -7.98759 0
M  V30 32990 H 3054.35 -2.57728 -6.42 0
M  V30 32991 H 3053.48 -5.02657 -6.42673 0
M  V30 32992 H 3050.83 -4.11708 -4.08956 0
M  V30 32993 H 3050.55 -2.49626 -6.61679 0
M  V30 32994 H 3049.56 -3.8662 -6.00862 0
M  V30 32995 H 3051.39 -4.29991 -7.97006 0
M  V30 32996 H 3051.43 -0.702451 -5.84696 0
M  V30 32997 H 3051.05 2.09647 -1.89651 0
M  V30 32998 H 3050.86 1.73358 -0.160575 0
M  V30 32999 H 3050.76 -2.71695 0.195838 0
M  V30 33000 P 3049.52 -6.144 -6.45285 0
M  V30 33001 O 3049.3 -7.54673 -6.86199 0
M  V30 33002 O 3048.73 -5.12391 -7.179 0
M  V30 33003 O 3049.27 -5.99158 -4.88404 0
M  V30 33004 C 3050.21 -6.60234 -3.96415 0
M  V30 33005 C 3049.48 -7.08259 -2.72856 0
M  V30 33006 O 3049.27 -5.9427 -1.83651 0
M  V30 33007 C 3048.08 -7.64886 -2.9555 0
M  V30 33008 O 3047.69 -8.53963 -1.90717 0
M  V30 33009 C 3047.2 -6.4116 -2.90739 0
M  V30 33010 C 3047.91 -5.55375 -1.86963 0
M  V30 33011 N 3047.86 -4.09664 -2.15742 0
M  V30 33012 H 3050.7 -7.45574 -4.45629 0
M  V30 33013 H 3050.97 -5.86232 -3.67314 0
M  V30 33014 H 3050.1 -7.84412 -2.24479 0
M  V30 33015 P 3046.14 -8.7635 -1.60911 0
M  V30 33016 O 3045.92 -10.1388 -1.11561 0
M  V30 33017 O 3045.35 -8.36503 -2.79617 0
M  V30 33018 O 3045.89 -7.71906 -0.429565 0
M  V30 33019 C 3046.83 -7.67148 0.673689 0
M  V30 33020 C 3046.1 -7.33666 1.94851 0
M  V30 33021 O 3045.89 -5.88816 2.00759 0
M  V30 33022 C 3044.7 -7.92526 2.10483 0
M  V30 33023 O 3044.31 -8.03063 3.47693 0
M  V30 33024 C 3043.82 -6.89602 1.41652 0
M  V30 33025 C 3044.53 -5.59201 1.75185 0
M  V30 33026 N 3044.48 -4.58235 0.662552 0
M  V30 33027 C 3044.33 -3.24451 1.01643 0
M  V30 33028 O 3044.24 -2.94958 2.21722 0
M  V30 33029 N 3044.28 -2.30408 -0.165238 0
M  V30 33030 C 3044.38 -2.66048 -1.25118 0
M  V30 33031 N 3044.33 -1.70787 -2.16813 0
M  V30 33032 C 3044.53 -4.02732 -1.64413 0
M  V30 33033 C 3044.58 -4.9488 -0.63991 0
M  V30 33034 H 3047.32 -8.65017 0.777072 0
M  V30 33035 H 3047.59 -6.90173 0.474152 0
M  V30 33036 H 3046.73 -7.66642 2.79492 0
M  V30 33037 H 3044.07 -5.16254 2.65229 0
M  V30 33038 H 3043.79 -7.06532 0.329431 0
M  V30 33039 H 3042.8 -6.91023 1.82047 0
M  V30 33040 H 3044.63 -8.90873 1.62657 0
M  V30 33041 H 3044.71 -6.00104 -0.892197 0
M  V30 33042 H 3044.6 -4.31733 -2.69229 0
M  V30 33043 H 3044.22 -0.724835 -1.8844 0
M  V30 33044 H 3044.41 -1.94716 -3.16734 0
M  V30 33045 P 3042.76 -8.03563 3.84925 0
M  V30 33046 O 3042.54 -8.85821 5.0569 0
M  V30 33047 O 3041.97 -8.41101 2.65469 0
M  V30 33048 O 3042.51 -6.4965 4.18908 0
M  V30 33049 C 3043.45 -5.80886 5.05289 0
M  V30 33050 C 3042.72 -4.78366 5.89277 0
M  V30 33051 O 3042.51 -3.58302 5.08433 0
M  V30 33052 C 3041.32 -5.16748 6.36559 0
M  V30 33053 O 3040.93 -4.45271 7.53232 0
M  V30 33054 C 3040.44 -4.74572 5.19863 0
M  V30 33055 C 3041.15 -3.49373 4.70338 0
M  V30 33056 N 3041.1 -3.31704 3.22876 0
M  V30 33057 C 3040.95 -2.03326 2.74871 0
M  V30 33058 O 3040.86 -1.06486 3.48076 0
M  V30 33059 N 3040.91 -1.91838 1.37456 0
M  V30 33060 C 3041 -2.94295 0.462035 0
M  V30 33061 C 3041.15 -4.25064 1.05249 0
M  V30 33062 C 3041.2 -4.40214 2.39192 0
M  V30 33063 H 3043.94 -6.54063 5.71245 0
M  V30 33064 H 3044.21 -5.30339 4.43905 0
M  V30 33065 H 3043.35 -4.55889 6.76652 0
M  V30 33066 H 3040.69 -2.6167 5.17842 0
M  V30 33067 H 3040.41 -5.52155 4.41878 0
M  V30 33068 H 3039.42 -4.51918 5.53297 0
M  V30 33069 H 3041.25 -6.25055 6.55162 0
M  V30 33070 H 3041.32 -5.39798 2.81523 0
M  V30 33071 P 3039.38 -4.23843 7.83734 0
M  V30 33072 O 3039.16 -4.19407 9.29784 0
M  V30 33073 O 3038.59 -5.24426 7.09156 0
M  V30 33074 O 3039.13 -2.7935 7.20758 0
M  V30 33075 C 3040.07 -1.7299 7.50419 0
M  V30 33076 C 3039.34 -0.406376 7.57911 0
M  V30 33077 O 3039.13 0.0897726 6.21935 0
M  V30 33078 C 3037.94 -0.447224 8.1878 0
M  V30 33079 O 3037.55 0.825065 8.71101 0
M  V30 33080 C 3037.06 -0.783801 6.99623 0
M  V30 33081 C 3037.77 -0.0619192 5.85967 0
M  V30 33082 N 3037.72 -0.7859 4.56281 0
M  V30 33083 C 3037.8 -2.14308 4.31736 0
M  V30 33084 N 3037.72 -2.46106 3.05116 0
M  V30 33085 C 3037.58 -1.23422 2.4014 0
M  V30 33086 C 3037.45 -0.938381 1.02409 0
M  V30 33087 O 3037.43 -1.70876 0.0650402 0
M  V30 33088 N 3037.33 0.444647 0.805413 0
M  V30 33089 C 3037.33 1.40829 1.79435 0
M  V30 33090 N 3037.2 2.67213 1.38558 0
M  V30 33091 N 3037.46 1.12947 3.09005 0
M  V30 33092 C 3037.58 -0.204887 3.32369 0
M  V30 33093 H 3040.56 -1.93423 8.4679 0
M  V30 33094 H 3040.83 -1.68181 6.71046 0
M  V30 33095 H 3039.97 0.289041 8.15388 0
M  V30 33096 H 3037.31 0.927166 5.72947 0
M  V30 33097 H 3037.03 -1.87 6.82132 0
M  V30 33098 H 3036.04 -0.404009 7.13457 0
M  V30 33099 H 3037.87 -1.20612 8.97633 0
M  V30 33100 H 3037.92 -2.88284 5.10874 0
M  V30 33101 H 3037.24 0.755087 -0.140242 0
M  V30 33102 H 3037.2 3.43967 2.0729 0
M  V30 33103 H 3037.1 2.88096 0.380644 0
M  V30 33104 P 3036 1.17771 8.83182 0
M  V30 33105 O 3035.78 2.07206 9.98732 0
M  V30 33106 O 3035.21 -0.0743816 8.81969 0
M  V30 33107 O 3035.75 1.97652 7.47304 0
M  V30 33108 C 3036.69 3.01133 7.08783 0
M  V30 33109 C 3035.96 4.12613 6.37049 0
M  V30 33110 O 3035.75 3.72827 4.97879 0
M  V30 33111 C 3034.56 4.45085 6.88694 0
M  V30 33112 O 3034.17 5.7877 6.5624 0
M  V30 33113 C 3033.68 3.47817 6.12078 0
M  V30 33114 C 3034.39 3.39414 4.77697 0
M  V30 33115 N 3034.34 2.04615 4.15333 0
M  V30 33116 H 3037.18 3.41248 7.98759 0
M  V30 33117 H 3037.45 2.5837 6.41742 0
M  V30 33118 H 3036.59 5.02657 6.42673 0
M  V30 33119 P 3032.62 6.144 6.45285 0
M  V30 33120 O 3032.4 7.54673 6.86199 0
M  V30 33121 O 3031.83 5.12391 7.179 0
M  V30 33122 O 3032.37 5.99158 4.88404 0
M  V30 33123 C 3033.31 6.60234 3.96415 0
M  V30 33124 C 3032.58 7.08259 2.72856 0
M  V30 33125 O 3032.37 5.9427 1.83651 0
M  V30 33126 C 3031.18 7.64886 2.9555 0
M  V30 33127 O 3030.79 8.53963 1.90717 0
M  V30 33128 C 3030.3 6.4116 2.90739 0
M  V30 33129 C 3031.01 5.55375 1.86963 0
M  V30 33130 N 3030.96 4.09664 2.15742 0
M  V30 33131 H 3033.8 7.45574 4.45629 0
M  V30 33132 H 3034.07 5.86232 3.67314 0
M  V30 33133 H 3033.21 7.84412 2.24479 0
M  V30 33134 P 3029.24 8.7635 1.60911 0
M  V30 33135 O 3029.02 10.1388 1.11561 0
M  V30 33136 O 3028.45 8.36503 2.79617 0
M  V30 33137 O 3028.99 7.71806 0.42951 0
M  V30 33138 C 3029.93 7.67148 -0.673689 0
M  V30 33139 C 3029.2 7.33374 -1.95559 0
M  V30 33140 O 3028.99 5.88721 -2.00726 0
M  V30 33141 C 3027.8 7.92526 -2.10483 0
M  V30 33142 O 3027.41 8.02971 -3.47653 0
M  V30 33143 C 3026.92 6.89602 -1.41652 0
M  V30 33144 C 3027.63 5.59201 -1.75185 0
M  V30 33145 N 3027.58 4.58235 -0.662552 0
M  V30 33146 H 3030.42 8.65116 -0.777161 0
M  V30 33147 H 3030.69 6.90173 -0.474152 0
M  V30 33148 H 3029.83 7.66548 -2.79458 0
M  V30 33149 P 3025.86 8.03563 -3.84925 0
M  V30 33150 O 3025.64 8.85821 -5.0569 0
M  V30 33151 O 3025.07 8.41101 -2.65469 0
M  V30 33152 O 3025.61 6.4965 -4.18908 0
M  V30 33153 C 3026.55 5.81037 -5.05421 0
M  V30 33154 C 3025.82 4.78366 -5.89277 0
M  V30 33155 O 3025.61 3.58302 -5.08433 0
M  V30 33156 C 3024.42 5.17448 -6.36119 0
M  V30 33157 O 3024.03 4.45271 -7.53232 0
M  V30 33158 C 3023.54 4.74639 -5.19936 0
M  V30 33159 C 3024.25 3.49432 -4.70418 0
M  V30 33160 N 3024.2 3.31776 -3.22945 0
M  V30 33161 H 3027.04 6.54213 -5.71376 0
M  V30 33162 H 3027.31 5.30492 -4.44033 0
M  V30 33163 H 3026.45 4.55889 -6.76652 0
M  V30 33164 P 3022.48 4.23843 -7.83734 0
M  V30 33165 O 3022.26 4.19407 -9.29784 0
M  V30 33166 O 3021.69 5.24426 -7.09156 0
M  V30 33167 O 3022.23 2.7935 -7.20758 0
M  V30 33168 C 3023.17 1.7299 -7.50419 0
M  V30 33169 C 3022.44 0.406376 -7.57911 0
M  V30 33170 O 3022.23 -0.0897726 -6.21935 0
M  V30 33171 C 3021.04 0.447224 -8.1878 0
M  V30 33172 O 3020.65 -0.825065 -8.71101 0
M  V30 33173 C 3020.16 0.783801 -6.99623 0
M  V30 33174 C 3020.87 0.0619192 -5.85967 0
M  V30 33175 N 3020.82 0.790462 -4.56202 0
M  V30 33176 H 3023.66 1.93423 -8.4679 0
M  V30 33177 H 3023.93 1.68852 -6.70877 0
M  V30 33178 H 3023.07 -0.289041 -8.15388 0
M  V30 33179 H 3020.41 -0.927006 -5.72848 0
M  V30 33180 H 3020.13 1.86973 -6.82036 0
M  V30 33181 H 3019.14 0.403953 -7.13357 0
M  V30 33182 H 3020.97 1.20599 -8.97534 0
M  V30 33183 P 3019.1 -1.17771 -8.83182 0
M  V30 33184 O 3018.88 -2.07206 -9.98732 0
M  V30 33185 O 3018.31 0.0743816 -8.81969 0
M  V30 33186 O 3018.85 -1.97652 -7.47304 0
M  V30 33187 C 3019.79 -3.01133 -7.08783 0
M  V30 33188 C 3019.06 -4.12613 -6.37049 0
M  V30 33189 O 3018.85 -3.72827 -4.97879 0
M  V30 33190 C 3017.66 -4.45085 -6.88694 0
M  V30 33191 O 3017.27 -5.7877 -6.5624 0
M  V30 33192 C 3016.78 -3.47817 -6.12078 0
M  V30 33193 C 3017.49 -3.39414 -4.77697 0
M  V30 33194 N 3017.44 -2.04199 -4.15538 0
M  V30 33195 H 3020.28 -3.41248 -7.98759 0
M  V30 33196 H 3020.55 -2.57728 -6.42 0
M  V30 33197 H 3019.69 -5.02657 -6.42673 0
M  V30 33198 H 3017.03 -4.11708 -4.08956 0
M  V30 33199 H 3016.75 -2.49626 -6.61679 0
M  V30 33200 H 3015.76 -3.8662 -6.00862 0
M  V30 33201 H 3017.59 -4.29991 -7.97006 0
M  V30 33202 P 3015.72 -6.144 -6.45285 0
M  V30 33203 O 3015.5 -7.54673 -6.86199 0
M  V30 33204 O 3014.93 -5.12391 -7.179 0
M  V30 33205 O 3015.47 -5.99158 -4.88404 0
M  V30 33206 C 3016.41 -6.60234 -3.96415 0
M  V30 33207 C 3015.68 -7.08259 -2.72856 0
M  V30 33208 O 3015.47 -5.9427 -1.83651 0
M  V30 33209 C 3014.28 -7.64886 -2.9555 0
M  V30 33210 O 3013.89 -8.53963 -1.90717 0
M  V30 33211 C 3013.4 -6.4116 -2.90739 0
M  V30 33212 C 3014.11 -5.55375 -1.86963 0
M  V30 33213 N 3014.06 -4.09448 -2.16152 0
M  V30 33214 C 3014.14 -3.46824 -3.37593 0
M  V30 33215 N 3014.07 -2.17422 -3.29777 0
M  V30 33216 C 3013.92 -1.93065 -1.94427 0
M  V30 33217 C 3013.79 -0.738053 -1.20141 0
M  V30 33218 N 3013.78 0.474256 -1.74676 0
M  V30 33219 N 3013.67 -0.850049 0.13045 0
M  V30 33220 C 3013.68 -2.06169 0.676992 0
M  V30 33221 N 3013.8 -3.23842 0.101312 0
M  V30 33222 C 3013.92 -3.09402 -1.23122 0
M  V30 33223 H 3016.9 -7.45574 -4.45629 0
M  V30 33224 H 3017.17 -5.85864 -3.679 0
M  V30 33225 H 3016.31 -7.84412 -2.24479 0
M  V30 33226 H 3013.65 -5.73457 -0.888562 0
M  V30 33227 H 3013.37 -5.90877 -3.88583 0
M  V30 33228 H 3012.38 -6.6596 -2.58858 0
M  V30 33229 H 3014.21 -8.16339 -3.92049 0
M  V30 33230 H 3014.25 -4.00505 -4.3174 0
M  V30 33231 H 3013.87 0.581337 -2.76658 0
M  V30 33232 H 3013.68 1.30811 -1.14888 0
M  V30 33233 H 3013.58 -2.08295 1.75542 0
M  V30 33234 P 3012.34 -8.7635 -1.60911 0
M  V30 33235 O 3012.12 -10.1388 -1.11561 0
M  V30 33236 O 3011.55 -8.36503 -2.79617 0
M  V30 33237 O 3012.09 -7.71806 -0.42951 0
M  V30 33238 C 3013.03 -7.67148 0.673689 0
M  V30 33239 C 3012.3 -7.33374 1.95559 0
M  V30 33240 O 3012.09 -5.88721 2.00726 0
M  V30 33241 C 3010.9 -7.92526 2.10483 0
M  V30 33242 O 3010.51 -8.02971 3.47653 0
M  V30 33243 C 3010.02 -6.89602 1.41652 0
M  V30 33244 C 3010.73 -5.59201 1.75185 0
M  V30 33245 N 3010.68 -4.58301 0.657969 0
M  V30 33246 H 3013.52 -8.65116 0.777161 0
M  V30 33247 H 3013.79 -6.9022 0.46725 0
M  V30 33248 H 3012.93 -7.66548 2.79458 0
M  V30 33249 H 3010.27 -5.16165 2.65183 0
M  V30 33250 H 3009.99 -7.06433 0.329384 0
M  V30 33251 H 3009 -6.90926 1.82021 0
M  V30 33252 H 3010.83 -8.90873 1.62657 0
M  V30 33253 P 3008.96 -8.03563 3.84925 0
M  V30 33254 O 3008.74 -8.85821 5.0569 0
M  V30 33255 O 3008.17 -8.41101 2.65469 0
M  V30 33256 O 3008.71 -6.49734 4.18962 0
M  V30 33257 C 3009.65 -5.81037 5.05421 0
M  V30 33258 C 3008.92 -4.79018 5.88876 0
M  V30 33259 O 3008.71 -3.58359 5.08515 0
M  V30 33260 C 3007.52 -5.17448 6.36119 0
M  V30 33261 O 3007.13 -4.45322 7.53318 0
M  V30 33262 C 3006.64 -4.74639 5.19936 0
M  V30 33263 C 3007.35 -3.49432 4.70418 0
M  V30 33264 N 3007.3 -3.31776 3.22945 0
M  V30 33265 C 3007.15 -2.02742 2.72939 0
M  V30 33266 O 3007.06 -1.08301 3.52749 0
M  V30 33267 N 3007.1 -1.96117 1.22063 0
M  V30 33268 C 3007.2 -2.8878 0.551566 0
M  V30 33269 N 3007.15 -2.65609 -0.750198 0
M  V30 33270 C 3007.35 -4.22457 1.03707 0
M  V30 33271 C 3007.4 -4.37979 2.39113 0
M  V30 33272 H 3010.14 -6.54138 5.7131 0
M  V30 33273 H 3010.41 -5.30492 4.44033 0
M  V30 33274 H 3009.55 -4.55945 6.76735 0
M  V30 33275 H 3006.89 -2.6176 5.18021 0
M  V30 33276 H 3006.61 -5.52233 4.41941 0
M  V30 33277 H 3005.62 -4.52045 5.53452 0
M  V30 33278 H 3007.45 -6.25124 6.55234 0
M  V30 33279 H 3007.53 -5.37936 2.80552 0
M  V30 33280 H 3007.42 -5.07528 0.359553 0
M  V30 33281 H 3007.04 -1.69403 -1.09847 0
M  V30 33282 H 3007.23 -3.43701 -1.41792 0
M  V30 33283 P 3005.58 -4.23843 7.83734 0
M  V30 33284 O 3005.36 -4.19407 9.29784 0
M  V30 33285 O 3004.79 -5.24426 7.09156 0
M  V30 33286 O 3005.33 -2.7935 7.20758 0
M  V30 33287 C 3006.27 -1.7299 7.50419 0
M  V30 33288 C 3005.54 -0.406376 7.57911 0
M  V30 33289 O 3005.33 0.0897726 6.21935 0
M  V30 33290 C 3004.14 -0.447224 8.1878 0
M  V30 33291 O 3003.75 0.825065 8.71101 0
M  V30 33292 C 3003.26 -0.783801 6.99623 0
M  V30 33293 C 3003.97 -0.0619192 5.85967 0
M  V30 33294 N 3003.92 -0.7859 4.56281 0
M  V30 33295 C 3004 -2.14308 4.31736 0
M  V30 33296 N 3003.92 -2.46106 3.05116 0
M  V30 33297 C 3003.78 -1.23422 2.4014 0
M  V30 33298 C 3003.65 -0.938381 1.02409 0
M  V30 33299 N 3003.53 0.444647 0.805413 0
M  V30 33300 C 3003.53 1.40829 1.79435 0
M  V30 33301 N 3003.4 2.67213 1.38558 0
M  V30 33302 N 3003.66 1.12947 3.09005 0
M  V30 33303 C 3003.78 -0.204887 3.32369 0
M  V30 33304 H 3006.76 -1.93423 8.4679 0
M  V30 33305 H 3007.03 -1.68181 6.71046 0
M  V30 33306 H 3006.17 0.289041 8.15388 0
M  V30 33307 P 3002.2 1.17771 8.83182 0
M  V30 33308 O 3001.98 2.07206 9.98732 0
M  V30 33309 O 3001.41 -0.0743816 8.81969 0
M  V30 33310 O 3001.95 1.97652 7.47304 0
M  V30 33311 C 3002.89 3.01133 7.08783 0
M  V30 33312 C 3002.16 4.12613 6.37049 0
M  V30 33313 O 3001.95 3.72827 4.97879 0
M  V30 33314 C 3000.76 4.45085 6.88694 0
M  V30 33315 O 3000.37 5.7877 6.5624 0
M  V30 33316 C 2999.88 3.47817 6.12078 0
M  V30 33317 C 3000.59 3.39414 4.77697 0
M  V30 33318 N 3000.54 2.04615 4.15333 0
M  V30 33319 H 3003.38 3.41248 7.98759 0
M  V30 33320 H 3003.65 2.5837 6.41742 0
M  V30 33321 H 3002.79 5.02657 6.42673 0
M  V30 33322 P 2998.82 6.144 6.45285 0
M  V30 33323 O 2998.6 7.54673 6.86199 0
M  V30 33324 O 2998.03 5.12391 7.179 0
M  V30 33325 O 2998.57 5.99158 4.88404 0
M  V30 33326 C 2999.51 6.60234 3.96415 0
M  V30 33327 C 2998.78 7.08259 2.72856 0
M  V30 33328 O 2998.57 5.9427 1.83651 0
M  V30 33329 C 2997.38 7.64886 2.9555 0
M  V30 33330 O 2996.99 8.53963 1.90717 0
M  V30 33331 C 2996.5 6.4116 2.90739 0
M  V30 33332 C 2997.21 5.55375 1.86963 0
M  V30 33333 N 2997.16 4.09664 2.15742 0
M  V30 33334 H 3000 7.45574 4.45629 0
M  V30 33335 H 3000.27 5.86232 3.67314 0
M  V30 33336 H 2999.41 7.84412 2.24479 0
M  V30 33337 P 2995.44 8.7635 1.60911 0
M  V30 33338 O 2995.22 10.1388 1.11561 0
M  V30 33339 O 2994.65 8.36503 2.79617 0
M  V30 33340 O 2995.19 7.71806 0.42951 0
M  V30 33341 C 2996.13 7.66948 -0.673514 0
M  V30 33342 C 2995.4 7.33374 -1.95559 0
M  V30 33343 O 2995.19 5.88721 -2.00726 0
M  V30 33344 C 2994 7.92218 -2.1125 0
M  V30 33345 O 2993.61 8.02971 -3.47653 0
M  V30 33346 C 2993.12 6.89504 -1.41631 0
M  V30 33347 C 2993.83 5.59106 -1.75155 0
M  V30 33348 N 2993.78 4.58136 -0.662409 0
M  V30 33349 C 2993.63 3.26059 -1.02863 0
M  V30 33350 O 2993.54 2.90743 -2.19009 0
M  V30 33351 N 2993.59 2.35995 0.0155585 0
M  V30 33352 C 2993.68 2.65248 1.35603 0
M  V30 33353 C 2993.83 4.05747 1.64698 0
M  V30 33354 C 2993.88 4.96734 0.652411 0
M  V30 33355 H 2996.62 8.64917 -0.776982 0
M  V30 33356 H 2996.89 6.89974 -0.474015 0
M  V30 33357 H 2996.03 7.66548 -2.79458 0
M  V30 33358 H 2993.37 5.16076 -2.65138 0
M  V30 33359 H 2993.09 7.06433 -0.329384 0
M  V30 33360 H 2992.1 6.90829 -1.81996 0
M  V30 33361 H 2993.93 8.90774 -1.62639 0
M  V30 33362 H 2994 6.02181 0.895285 0
M  V30 33363 P 2992.06 8.03563 -3.84925 0
M  V30 33364 O 2991.84 8.85821 -5.0569 0
M  V30 33365 O 2991.27 8.41101 -2.65469 0
M  V30 33366 O 2991.81 6.4965 -4.18908 0
M  V30 33367 C 2992.75 5.81037 -5.05421 0
M  V30 33368 C 2992.02 4.78366 -5.89277 0
M  V30 33369 O 2991.81 3.58302 -5.08433 0
M  V30 33370 C 2990.62 5.17448 -6.36119 0
M  V30 33371 O 2990.23 4.45271 -7.53232 0
M  V30 33372 C 2989.74 4.74639 -5.19936 0
M  V30 33373 C 2990.45 3.49432 -4.70418 0
M  V30 33374 N 2990.4 3.31776 -3.22945 0
M  V30 33375 H 2993.24 6.54213 -5.71376 0
M  V30 33376 H 2993.51 5.30492 -4.44033 0
M  V30 33377 H 2992.65 4.55889 -6.76652 0
M  V30 33378 P 2988.68 4.23843 -7.83734 0
M  V30 33379 O 2988.46 4.19407 -9.29784 0
M  V30 33380 O 2987.89 5.24426 -7.09156 0
M  V30 33381 O 2988.43 2.7935 -7.20758 0
M  V30 33382 C 2989.37 1.7299 -7.50419 0
M  V30 33383 C 2988.64 0.406376 -7.57911 0
M  V30 33384 O 2988.43 -0.0897726 -6.21935 0
M  V30 33385 C 2987.24 0.447224 -8.1878 0
M  V30 33386 O 2986.85 -0.825065 -8.71101 0
M  V30 33387 C 2986.36 0.783801 -6.99623 0
M  V30 33388 C 2987.07 0.0619192 -5.85967 0
M  V30 33389 N 2987.02 0.790462 -4.56202 0
M  V30 33390 H 2989.86 1.93423 -8.4679 0
M  V30 33391 H 2990.13 1.68852 -6.70877 0
M  V30 33392 H 2989.27 -0.289041 -8.15388 0
M  V30 33393 H 2986.61 -0.927006 -5.72848 0
M  V30 33394 H 2986.33 1.86973 -6.82036 0
M  V30 33395 H 2985.34 0.403953 -7.13357 0
M  V30 33396 H 2987.17 1.20599 -8.97534 0
M  V30 33397 P 2985.3 -1.17771 -8.83182 0
M  V30 33398 O 2985.08 -2.07206 -9.98732 0
M  V30 33399 O 2984.51 0.0743816 -8.81969 0
M  V30 33400 O 2985.05 -1.97652 -7.47304 0
M  V30 33401 C 2985.99 -3.01133 -7.08783 0
M  V30 33402 C 2985.26 -4.12613 -6.37049 0
M  V30 33403 O 2985.05 -3.72827 -4.97879 0
M  V30 33404 C 2983.86 -4.45085 -6.88694 0
M  V30 33405 O 2983.47 -5.7877 -6.5624 0
M  V30 33406 C 2982.98 -3.47817 -6.12078 0
M  V30 33407 C 2983.69 -3.39414 -4.77697 0
M  V30 33408 N 2983.64 -2.04615 -4.15333 0
M  V30 33409 C 2983.72 -0.803897 -4.75249 0
M  V30 33410 N 2983.64 0.197615 -3.91502 0
M  V30 33411 C 2983.5 -0.413002 -2.66823 0
M  V30 33412 C 2983.37 0.157221 -1.38007 0
M  V30 33413 N 2983.25 -0.833136 -0.390236 0
M  V30 33414 C 2983.25 -2.19402 -0.623885 0
M  V30 33415 N 2983.12 -2.97622 0.449677 0
M  V30 33416 N 2983.38 -2.73005 -1.83601 0
M  V30 33417 C 2983.5 -1.78786 -2.80935 0
M  V30 33418 H 2986.48 -3.41248 -7.98759 0
M  V30 33419 H 2986.75 -2.5837 -6.41742 0
M  V30 33420 H 2985.89 -5.02657 -6.42673 0
M  V30 33421 P 2981.92 -6.144 -6.45285 0
M  V30 33422 O 2981.7 -7.54673 -6.86199 0
M  V30 33423 O 2981.13 -5.12391 -7.179 0
M  V30 33424 O 2981.67 -5.99158 -4.88404 0
M  V30 33425 C 2982.61 -6.60234 -3.96415 0
M  V30 33426 C 2981.88 -7.08259 -2.72856 0
M  V30 33427 O 2981.67 -5.9427 -1.83651 0
M  V30 33428 C 2980.48 -7.64886 -2.9555 0
M  V30 33429 O 2980.09 -8.53963 -1.90717 0
M  V30 33430 C 2979.6 -6.4116 -2.90739 0
M  V30 33431 C 2980.31 -5.55375 -1.86963 0
M  V30 33432 N 2980.26 -4.09664 -2.15742 0
M  V30 33433 H 2983.1 -7.45574 -4.45629 0
M  V30 33434 H 2983.37 -5.86232 -3.67314 0
M  V30 33435 H 2982.51 -7.84412 -2.24479 0
M  V30 33436 P 2978.54 -8.7635 -1.60911 0
M  V30 33437 O 2978.32 -10.1388 -1.11561 0
M  V30 33438 O 2977.75 -8.36503 -2.79617 0
M  V30 33439 O 2978.29 -7.71906 -0.429565 0
M  V30 33440 C 2979.23 -7.67148 0.673689 0
M  V30 33441 C 2978.5 -7.33666 1.94851 0
M  V30 33442 O 2978.29 -5.88816 2.00759 0
M  V30 33443 C 2977.1 -7.92526 2.10483 0
M  V30 33444 O 2976.71 -8.03063 3.47693 0
M  V30 33445 C 2976.22 -6.89602 1.41652 0
M  V30 33446 C 2976.93 -5.59201 1.75185 0
M  V30 33447 N 2976.88 -4.58235 0.662552 0
M  V30 33448 C 2976.73 -3.24451 1.01643 0
M  V30 33449 O 2976.64 -2.94958 2.21722 0
M  V30 33450 N 2976.68 -2.30408 -0.165238 0
M  V30 33451 C 2976.78 -2.66048 -1.25118 0
M  V30 33452 N 2976.73 -1.70787 -2.16813 0
M  V30 33453 C 2976.93 -4.02732 -1.64413 0
M  V30 33454 C 2976.98 -4.9488 -0.63991 0
M  V30 33455 H 2979.72 -8.65017 0.777072 0
M  V30 33456 H 2979.99 -6.90173 0.474152 0
M  V30 33457 H 2979.13 -7.66642 2.79492 0
M  V30 33458 H 2976.47 -5.16254 2.65229 0
M  V30 33459 H 2976.19 -7.06532 0.329431 0
M  V30 33460 H 2975.2 -6.91023 1.82047 0
M  V30 33461 H 2977.03 -8.90873 1.62657 0
M  V30 33462 H 2977.11 -6.00104 -0.892197 0
M  V30 33463 H 2977 -4.31733 -2.69229 0
M  V30 33464 H 2976.62 -0.724835 -1.8844 0
M  V30 33465 H 2976.81 -1.94716 -3.16734 0
M  V30 33466 P 2975.16 -8.03563 3.84925 0
M  V30 33467 O 2974.94 -8.85821 5.0569 0
M  V30 33468 O 2974.37 -8.41101 2.65469 0
M  V30 33469 O 2974.91 -6.4965 4.18908 0
M  V30 33470 C 2975.85 -5.81037 5.05421 0
M  V30 33471 C 2975.12 -4.78366 5.89277 0
M  V30 33472 O 2974.91 -3.58302 5.08433 0
M  V30 33473 C 2973.72 -5.17448 6.36119 0
M  V30 33474 O 2973.33 -4.45271 7.53232 0
M  V30 33475 C 2972.84 -4.74639 5.19936 0
M  V30 33476 C 2973.55 -3.49432 4.70418 0
M  V30 33477 N 2973.5 -3.31776 3.22945 0
M  V30 33478 H 2976.34 -6.54213 5.71376 0
M  V30 33479 H 2976.61 -5.30492 4.44033 0
M  V30 33480 H 2975.75 -4.55889 6.76652 0
M  V30 33481 P 2971.78 -4.23843 7.83734 0
M  V30 33482 O 2971.56 -4.19407 9.29784 0
M  V30 33483 O 2970.99 -5.24426 7.09156 0
M  V30 33484 O 2971.53 -2.7935 7.20758 0
M  V30 33485 C 2972.47 -1.72945 7.50224 0
M  V30 33486 C 2971.74 -0.406376 7.57911 0
M  V30 33487 O 2971.53 0.0897726 6.21935 0
M  V30 33488 C 2970.34 -0.438983 8.18724 0
M  V30 33489 O 2969.95 0.825065 8.71101 0
M  V30 33490 C 2969.46 -0.783689 6.99524 0
M  V30 33491 C 2970.17 -0.0619086 5.85867 0
M  V30 33492 N 2970.12 -0.78573 4.56183 0
M  V30 33493 C 2969.97 -0.0292889 3.41887 0
M  V30 33494 O 2969.88 1.18445 3.4419 0
M  V30 33495 N 2969.93 -0.744061 2.23964 0
M  V30 33496 C 2970.02 -2.10932 2.10362 0
M  V30 33497 O 2969.97 -2.64117 0.98825 0
M  V30 33498 C 2970.17 -2.8202 3.34994 0
M  V30 33499 C 2970.28 -4.31095 3.25037 0
M  V30 33500 C 2970.22 -2.15547 4.52261 0
M  V30 33501 H 2972.96 -1.93379 8.46595 0
M  V30 33502 H 2973.23 -1.68132 6.70852 0
M  V30 33503 H 2972.37 0.289041 8.15388 0
M  V30 33504 H 2969.71 0.926847 5.72749 0
M  V30 33505 H 2969.43 -1.86973 6.82036 0
M  V30 33506 H 2968.44 -0.403896 7.13257 0
M  V30 33507 H 2970.27 -1.20585 8.97435 0
M  V30 33508 H 2970.34 -2.71231 5.45042 0
M  V30 33509 H 2969.31 -4.76966 3.49992 0
M  V30 33510 H 2971.05 -4.67047 3.95024 0
M  V30 33511 H 2970.56 -4.58996 2.22312 0
M  V30 33512 H 2969.83 -0.214893 1.39758 0
M  V30 33513 P 2968.4 1.17771 8.83182 0
M  V30 33514 O 2968.18 2.07206 9.98732 0
M  V30 33515 O 2967.61 -0.0743816 8.81969 0
M  V30 33516 O 2968.15 1.97652 7.47304 0
M  V30 33517 C 2969.09 3.01055 7.08599 0
M  V30 33518 C 2968.36 4.12613 6.37049 0
M  V30 33519 O 2968.15 3.72827 4.97879 0
M  V30 33520 C 2966.96 4.45719 6.88164 0
M  V30 33521 O 2966.57 5.7877 6.5624 0
M  V30 33522 C 2966.08 3.47768 6.11991 0
M  V30 33523 C 2966.79 3.39356 4.77615 0
M  V30 33524 N 2966.74 2.04571 4.15244 0
M  V30 33525 C 2966.59 1.98587 2.78314 0
M  V30 33526 O 2966.5 2.98134 2.08835 0
M  V30 33527 N 2966.55 0.714467 2.24925 0
M  V30 33528 C 2966.64 -0.470001 2.94169 0
M  V30 33529 C 2966.79 -0.312541 4.36783 0
M  V30 33530 C 2966.84 0.914512 4.92583 0
M  V30 33531 H 2969.58 3.41169 7.98575 0
M  V30 33532 H 2969.85 2.58295 6.41556 0
M  V30 33533 H 2968.99 5.02657 6.42673 0
M  V30 33534 H 2966.33 4.11637 4.08885 0
M  V30 33535 H 2966.05 2.49626 6.61679 0
M  V30 33536 H 2965.06 3.86566 6.00778 0
M  V30 33537 H 2966.89 4.29943 7.96918 0
M  V30 33538 H 2966.96 1.00937 6.00374 0
M  V30 33539 P 2965.02 6.144 6.45285 0
M  V30 33540 O 2964.8 7.54673 6.86199 0
M  V30 33541 O 2964.23 5.12391 7.179 0
M  V30 33542 O 2964.77 5.99158 4.88404 0
M  V30 33543 C 2965.71 6.60234 3.96415 0
M  V30 33544 C 2964.98 7.08259 2.72856 0
M  V30 33545 O 2964.77 5.9427 1.83651 0
M  V30 33546 C 2963.58 7.64886 2.9555 0
M  V30 33547 O 2963.19 8.53963 1.90717 0
M  V30 33548 C 2962.7 6.4116 2.90739 0
M  V30 33549 C 2963.41 5.55375 1.86963 0
M  V30 33550 N 2963.36 4.09664 2.15742 0
M  V30 33551 H 2966.2 7.45574 4.45629 0
M  V30 33552 H 2966.47 5.86232 3.67314 0
M  V30 33553 H 2965.61 7.84412 2.24479 0
M  V30 33554 P 2961.64 8.7635 1.60911 0
M  V30 33555 O 2961.42 10.1388 1.11561 0
M  V30 33556 O 2960.85 8.36503 2.79617 0
M  V30 33557 O 2961.39 7.71906 0.429565 0
M  V30 33558 C 2962.33 7.67148 -0.673689 0
M  V30 33559 C 2961.6 7.33666 -1.94851 0
M  V30 33560 O 2961.39 5.88816 -2.00759 0
M  V30 33561 C 2960.2 7.92526 -2.10483 0
M  V30 33562 O 2959.81 8.03063 -3.47693 0
M  V30 33563 C 2959.32 6.89602 -1.41652 0
M  V30 33564 C 2960.03 5.59201 -1.75185 0
M  V30 33565 N 2959.98 4.58235 -0.662552 0
M  V30 33566 C 2959.83 3.24451 -1.01643 0
M  V30 33567 O 2959.74 2.94958 -2.21722 0
M  V30 33568 N 2959.78 2.30408 0.165238 0
M  V30 33569 C 2959.88 2.66048 1.25118 0
M  V30 33570 N 2959.83 1.70787 2.16813 0
M  V30 33571 C 2960.03 4.02732 1.64413 0
M  V30 33572 C 2960.08 4.9488 0.63991 0
M  V30 33573 H 2962.82 8.65017 -0.777072 0
M  V30 33574 H 2963.09 6.90173 -0.474152 0
M  V30 33575 H 2962.23 7.66642 -2.79492 0
M  V30 33576 H 2959.57 5.16254 -2.65229 0
M  V30 33577 H 2959.29 7.06532 -0.329431 0
M  V30 33578 H 2958.3 6.91023 -1.82047 0
M  V30 33579 H 2960.13 8.90873 -1.62657 0
M  V30 33580 H 2960.21 6.00104 0.892197 0
M  V30 33581 H 2960.1 4.31733 2.69229 0
M  V30 33582 H 2959.72 0.724835 1.8844 0
M  V30 33583 H 2959.91 1.94716 3.16734 0
M  V30 33584 P 2958.26 8.03563 -3.84925 0
M  V30 33585 O 2958.04 8.85821 -5.0569 0
M  V30 33586 O 2957.47 8.41101 -2.65469 0
M  V30 33587 O 2958.01 6.4965 -4.18908 0
M  V30 33588 C 2958.95 5.80886 -5.05289 0
M  V30 33589 C 2958.22 4.78366 -5.89277 0
M  V30 33590 O 2958.01 3.58302 -5.08433 0
M  V30 33591 C 2956.82 5.16748 -6.36559 0
M  V30 33592 O 2956.43 4.45271 -7.53232 0
M  V30 33593 C 2955.94 4.74572 -5.19863 0
M  V30 33594 C 2956.65 3.49373 -4.70338 0
M  V30 33595 N 2956.6 3.31704 -3.22876 0
M  V30 33596 C 2956.45 2.03326 -2.74871 0
M  V30 33597 O 2956.36 1.06486 -3.48076 0
M  V30 33598 N 2956.41 1.91838 -1.37456 0
M  V30 33599 C 2956.5 2.94295 -0.462035 0
M  V30 33600 O 2956.45 2.71763 0.752928 0
M  V30 33601 C 2956.65 4.25064 -1.05249 0
M  V30 33602 C 2956.76 5.39815 -0.095697 0
M  V30 33603 C 2956.7 4.40214 -2.39192 0
M  V30 33604 H 2959.44 6.54063 -5.71245 0
M  V30 33605 H 2959.71 5.30339 -4.43905 0
M  V30 33606 H 2958.85 4.55889 -6.76652 0
M  V30 33607 H 2956.19 2.6167 -5.17842 0
M  V30 33608 H 2955.91 5.52155 -4.41878 0
M  V30 33609 H 2954.92 4.51918 -5.53297 0
M  V30 33610 H 2956.75 6.25055 -6.55162 0
M  V30 33611 H 2956.82 5.39798 -2.81523 0
M  V30 33612 H 2955.79 5.91593 -0.0279582 0
M  V30 33613 H 2957.53 6.10038 -0.450573 0
M  V30 33614 H 2957.04 5.02007 0.89937 0
M  V30 33615 H 2956.31 0.995326 -1.00435 0
M  V30 33616 P 2954.88 4.23843 -7.83734 0
M  V30 33617 O 2954.66 4.19407 -9.29784 0
M  V30 33618 O 2954.09 5.24426 -7.09156 0
M  V30 33619 O 2954.63 2.7935 -7.20758 0
M  V30 33620 C 2955.57 1.72945 -7.50224 0
M  V30 33621 C 2954.84 0.406376 -7.57911 0
M  V30 33622 O 2954.63 -0.0897726 -6.21935 0
M  V30 33623 C 2953.44 0.438983 -8.18724 0
M  V30 33624 O 2953.05 -0.825065 -8.71101 0
M  V30 33625 C 2952.56 0.783689 -6.99524 0
M  V30 33626 C 2953.27 0.0619086 -5.85867 0
M  V30 33627 N 2953.22 0.78573 -4.56183 0
M  V30 33628 C 2953.07 0.0292889 -3.41887 0
M  V30 33629 O 2952.98 -1.18445 -3.4419 0
M  V30 33630 N 2953.03 0.744061 -2.23964 0
M  V30 33631 C 2953.12 2.10932 -2.10362 0
M  V30 33632 O 2953.07 2.64117 -0.98825 0
M  V30 33633 C 2953.27 2.8202 -3.34994 0
M  V30 33634 C 2953.38 4.31095 -3.25037 0
M  V30 33635 C 2953.32 2.15547 -4.52261 0
M  V30 33636 H 2956.06 1.93379 -8.46595 0
M  V30 33637 H 2956.33 1.68132 -6.70852 0
M  V30 33638 H 2955.47 -0.289041 -8.15388 0
M  V30 33639 H 2952.81 -0.926847 -5.72749 0
M  V30 33640 H 2952.53 1.86973 -6.82036 0
M  V30 33641 H 2951.54 0.403896 -7.13257 0
M  V30 33642 H 2953.37 1.20585 -8.97435 0
M  V30 33643 H 2953.44 2.71231 -5.45042 0
M  V30 33644 H 2952.41 4.76966 -3.49992 0
M  V30 33645 H 2954.15 4.67047 -3.95024 0
M  V30 33646 H 2953.66 4.58996 -2.22312 0
M  V30 33647 H 2952.93 0.214893 -1.39758 0
M  V30 33648 P 2951.5 -1.17771 -8.83182 0
M  V30 33649 O 2951.28 -2.07206 -9.98732 0
M  V30 33650 O 2950.71 0.0743816 -8.81969 0
M  V30 33651 O 2951.25 -1.97652 -7.47304 0
M  V30 33652 C 2952.19 -3.01133 -7.08783 0
M  V30 33653 C 2951.46 -4.12613 -6.37049 0
M  V30 33654 O 2951.25 -3.72827 -4.97879 0
M  V30 33655 C 2950.06 -4.45085 -6.88694 0
M  V30 33656 O 2949.67 -5.7877 -6.5624 0
M  V30 33657 C 2949.18 -3.47817 -6.12078 0
M  V30 33658 C 2949.89 -3.39414 -4.77697 0
M  V30 33659 N 2949.84 -2.04615 -4.15333 0
M  V30 33660 H 2952.68 -3.41248 -7.98759 0
M  V30 33661 H 2952.95 -2.5837 -6.41742 0
M  V30 33662 H 2952.09 -5.02657 -6.42673 0
M  V30 33663 P 2948.12 -6.144 -6.45285 0
M  V30 33664 O 2947.9 -7.54673 -6.86199 0
M  V30 33665 O 2947.33 -5.12391 -7.179 0
M  V30 33666 O 2947.87 -5.99158 -4.88404 0
M  V30 33667 C 2948.81 -6.60234 -3.96415 0
M  V30 33668 C 2948.08 -7.08259 -2.72856 0
M  V30 33669 O 2947.87 -5.9427 -1.83651 0
M  V30 33670 C 2946.68 -7.64886 -2.9555 0
M  V30 33671 O 2946.29 -8.53963 -1.90717 0
M  V30 33672 C 2945.8 -6.4116 -2.90739 0
M  V30 33673 C 2946.51 -5.55375 -1.86963 0
M  V30 33674 N 2946.46 -4.09664 -2.15742 0
M  V30 33675 H 2949.3 -7.45574 -4.45629 0
M  V30 33676 H 2949.57 -5.86232 -3.67314 0
M  V30 33677 H 2948.71 -7.84412 -2.24479 0
M  V30 33678 P 2944.74 -8.7635 -1.60911 0
M  V30 33679 O 2944.52 -10.1388 -1.11561 0
M  V30 33680 O 2943.95 -8.36503 -2.79617 0
M  V30 33681 O 2944.49 -7.71806 -0.42951 0
M  V30 33682 C 2945.43 -7.67148 0.673689 0
M  V30 33683 C 2944.7 -7.33374 1.95559 0
M  V30 33684 O 2944.49 -5.88721 2.00726 0
M  V30 33685 C 2943.3 -7.92526 2.10483 0
M  V30 33686 O 2942.91 -8.02971 3.47653 0
M  V30 33687 C 2942.42 -6.89602 1.41652 0
M  V30 33688 C 2943.13 -5.59201 1.75185 0
M  V30 33689 N 2943.08 -4.58235 0.662552 0
M  V30 33690 H 2945.92 -8.65116 0.777161 0
M  V30 33691 H 2946.19 -6.90173 0.474152 0
M  V30 33692 H 2945.33 -7.66548 2.79458 0
M  V30 33693 P 2941.36 -8.03563 3.84925 0
M  V30 33694 O 2941.14 -8.85821 5.0569 0
M  V30 33695 O 2940.57 -8.41101 2.65469 0
M  V30 33696 O 2941.11 -6.4965 4.18908 0
M  V30 33697 C 2942.05 -5.81037 5.05421 0
M  V30 33698 C 2941.32 -4.78366 5.89277 0
M  V30 33699 O 2941.11 -3.58302 5.08433 0
M  V30 33700 C 2939.92 -5.17448 6.36119 0
M  V30 33701 O 2939.53 -4.45271 7.53232 0
M  V30 33702 C 2939.04 -4.74639 5.19936 0
M  V30 33703 C 2939.75 -3.49432 4.70418 0
M  V30 33704 N 2939.7 -3.32099 3.22613 0
M  V30 33705 H 2942.54 -6.54213 5.71376 0
M  V30 33706 H 2942.81 -5.30936 4.43503 0
M  V30 33707 H 2941.95 -4.55889 6.76652 0
M  V30 33708 H 2939.29 -2.61715 5.17932 0
M  V30 33709 H 2939.01 -5.52155 4.41878 0
M  V30 33710 H 2938.02 -4.51981 5.53374 0
M  V30 33711 H 2939.85 -6.25124 6.55234 0
M  V30 33712 P 2937.98 -4.23843 7.83734 0
M  V30 33713 O 2937.76 -4.19407 9.29784 0
M  V30 33714 O 2937.19 -5.24426 7.09156 0
M  V30 33715 O 2937.73 -2.7935 7.20758 0
M  V30 33716 C 2938.67 -1.72945 7.50224 0
M  V30 33717 C 2937.94 -0.406376 7.57911 0
M  V30 33718 O 2937.73 0.0897726 6.21935 0
M  V30 33719 C 2936.54 -0.438983 8.18724 0
M  V30 33720 O 2936.15 0.825065 8.71101 0
M  V30 33721 C 2935.66 -0.783689 6.99524 0
M  V30 33722 C 2936.37 -0.0619086 5.85867 0
M  V30 33723 N 2936.32 -0.78573 4.56183 0
M  V30 33724 C 2936.17 -0.0292889 3.41887 0
M  V30 33725 O 2936.08 1.18445 3.4419 0
M  V30 33726 N 2936.13 -0.744061 2.23964 0
M  V30 33727 C 2936.22 -2.10932 2.10362 0
M  V30 33728 O 2936.17 -2.64117 0.98825 0
M  V30 33729 C 2936.37 -2.8202 3.34994 0
M  V30 33730 C 2936.48 -4.31095 3.25037 0
M  V30 33731 C 2936.42 -2.15547 4.52261 0
M  V30 33732 H 2939.16 -1.93379 8.46595 0
M  V30 33733 H 2939.43 -1.68132 6.70852 0
M  V30 33734 H 2938.57 0.289041 8.15388 0
M  V30 33735 H 2935.91 0.926847 5.72749 0
M  V30 33736 H 2935.63 -1.86973 6.82036 0
M  V30 33737 H 2934.64 -0.403896 7.13257 0
M  V30 33738 H 2936.47 -1.20585 8.97435 0
M  V30 33739 H 2936.54 -2.71231 5.45042 0
M  V30 33740 H 2935.51 -4.76966 3.49992 0
M  V30 33741 H 2937.25 -4.67047 3.95024 0
M  V30 33742 H 2936.76 -4.58996 2.22312 0
M  V30 33743 H 2936.03 -0.214893 1.39758 0
M  V30 33744 P 2934.6 1.17771 8.83182 0
M  V30 33745 O 2934.38 2.07206 9.98732 0
M  V30 33746 O 2933.81 -0.0743816 8.81969 0
M  V30 33747 O 2934.35 1.97652 7.47304 0
M  V30 33748 C 2935.29 3.01133 7.08783 0
M  V30 33749 C 2934.56 4.12613 6.37049 0
M  V30 33750 O 2934.35 3.72827 4.97879 0
M  V30 33751 C 2933.16 4.45085 6.88694 0
M  V30 33752 O 2932.77 5.7877 6.5624 0
M  V30 33753 C 2932.28 3.47817 6.12078 0
M  V30 33754 C 2932.99 3.39414 4.77697 0
M  V30 33755 N 2932.94 2.04615 4.15333 0
M  V30 33756 H 2935.78 3.41248 7.98759 0
M  V30 33757 H 2936.05 2.5837 6.41742 0
M  V30 33758 H 2935.19 5.02657 6.42673 0
M  V30 33759 P 2931.22 6.144 6.45285 0
M  V30 33760 O 2931 7.54673 6.86199 0
M  V30 33761 O 2930.43 5.12391 7.179 0
M  V30 33762 O 2930.97 5.99158 4.88404 0
M  V30 33763 C 2931.91 6.60234 3.96415 0
M  V30 33764 C 2931.18 7.08259 2.72856 0
M  V30 33765 O 2930.97 5.9427 1.83651 0
M  V30 33766 C 2929.78 7.64886 2.9555 0
M  V30 33767 O 2929.39 8.53963 1.90717 0
M  V30 33768 C 2928.9 6.4116 2.90739 0
M  V30 33769 C 2929.61 5.55375 1.86963 0
M  V30 33770 N 2929.56 4.09664 2.15742 0
M  V30 33771 H 2932.4 7.45574 4.45629 0
M  V30 33772 H 2932.67 5.86232 3.67314 0
M  V30 33773 H 2931.81 7.84412 2.24479 0
M  V30 33774 P 2927.84 8.7635 1.60911 0
M  V30 33775 O 2927.62 10.1388 1.11561 0
M  V30 33776 O 2927.05 8.36503 2.79617 0
M  V30 33777 O 2927.59 7.71806 0.42951 0
M  V30 33778 C 2928.53 7.67148 -0.673689 0
M  V30 33779 C 2927.8 7.33374 -1.95559 0
M  V30 33780 O 2927.59 5.88721 -2.00726 0
M  V30 33781 C 2926.4 7.92526 -2.10483 0
M  V30 33782 O 2926.01 8.02971 -3.47653 0
M  V30 33783 C 2925.52 6.89602 -1.41652 0
M  V30 33784 C 2926.23 5.59201 -1.75185 0
M  V30 33785 N 2926.18 4.58235 -0.662552 0
M  V30 33786 H 2929.02 8.65116 -0.777161 0
M  V30 33787 H 2929.29 6.90173 -0.474152 0
M  V30 33788 H 2928.43 7.66548 -2.79458 0
M  V30 33789 P 2924.46 8.03563 -3.84925 0
M  V30 33790 O 2924.24 8.85821 -5.0569 0
M  V30 33791 O 2923.67 8.41101 -2.65469 0
M  V30 33792 O 2924.21 6.4965 -4.18908 0
M  V30 33793 C 2925.15 5.81037 -5.05421 0
M  V30 33794 C 2924.42 4.78366 -5.89277 0
M  V30 33795 O 2924.21 3.58302 -5.08433 0
M  V30 33796 C 2923.02 5.17448 -6.36119 0
M  V30 33797 O 2922.63 4.45271 -7.53232 0
M  V30 33798 C 2922.14 4.74639 -5.19936 0
M  V30 33799 C 2922.85 3.49432 -4.70418 0
M  V30 33800 N 2922.8 3.32099 -3.22613 0
M  V30 33801 H 2925.64 6.54213 -5.71376 0
M  V30 33802 H 2925.91 5.30936 -4.43503 0
M  V30 33803 H 2925.05 4.55889 -6.76652 0
M  V30 33804 H 2922.39 2.61715 -5.17932 0
M  V30 33805 H 2922.11 5.52155 -4.41878 0
M  V30 33806 H 2921.12 4.51981 -5.53374 0
M  V30 33807 H 2922.95 6.25124 -6.55234 0
M  V30 33808 P 2921.08 4.23843 -7.83734 0
M  V30 33809 O 2920.86 4.19407 -9.29784 0
M  V30 33810 O 2920.29 5.24426 -7.09156 0
M  V30 33811 O 2920.83 2.7935 -7.20758 0
M  V30 33812 C 2921.77 1.7299 -7.50419 0
M  V30 33813 C 2921.04 0.406376 -7.57911 0
M  V30 33814 O 2920.83 -0.0897726 -6.21935 0
M  V30 33815 C 2919.64 0.447224 -8.1878 0
M  V30 33816 O 2919.25 -0.825065 -8.71101 0
M  V30 33817 C 2918.76 0.783801 -6.99623 0
M  V30 33818 C 2919.47 0.0619192 -5.85967 0
M  V30 33819 N 2919.42 0.7859 -4.56281 0
M  V30 33820 H 2922.26 1.93423 -8.4679 0
M  V30 33821 H 2922.53 1.68181 -6.71046 0
M  V30 33822 H 2921.67 -0.289041 -8.15388 0
M  V30 33823 P 2917.7 -1.17771 -8.83182 0
M  V30 33824 O 2917.48 -2.07206 -9.98732 0
M  V30 33825 O 2916.91 0.0743816 -8.81969 0
M  V30 33826 O 2917.45 -1.97652 -7.47304 0
M  V30 33827 C 2918.39 -3.01133 -7.08783 0
M  V30 33828 C 2917.66 -4.12613 -6.37049 0
M  V30 33829 O 2917.45 -3.72827 -4.97879 0
M  V30 33830 C 2916.26 -4.45085 -6.88694 0
M  V30 33831 O 2915.87 -5.7877 -6.5624 0
M  V30 33832 C 2915.38 -3.47817 -6.12078 0
M  V30 33833 C 2916.09 -3.39414 -4.77697 0
M  V30 33834 N 2916.04 -2.04615 -4.15333 0
M  V30 33835 H 2918.88 -3.41248 -7.98759 0
M  V30 33836 H 2919.15 -2.5837 -6.41742 0
M  V30 33837 H 2918.29 -5.02657 -6.42673 0
M  V30 33838 P 2914.32 -6.144 -6.45285 0
M  V30 33839 O 2914.1 -7.54673 -6.86199 0
M  V30 33840 O 2913.53 -5.12391 -7.179 0
M  V30 33841 O 2914.07 -5.99158 -4.88404 0
M  V30 33842 C 2915.01 -6.60062 -3.96313 0
M  V30 33843 C 2914.28 -7.08259 -2.72856 0
M  V30 33844 O 2914.07 -5.9427 -1.83651 0
M  V30 33845 C 2912.88 -7.65087 -2.94749 0
M  V30 33846 O 2912.49 -8.53963 -1.90717 0
M  V30 33847 C 2912 -6.41069 -2.90698 0
M  V30 33848 C 2912.71 -5.5528 -1.86931 0
M  V30 33849 N 2912.66 -4.09575 -2.15696 0
M  V30 33850 C 2912.51 -3.24249 -1.08435 0
M  V30 33851 O 2912.42 -3.63946 0.0628747 0
M  V30 33852 N 2912.47 -1.90009 -1.39973 0
M  V30 33853 C 2912.56 -1.34884 -2.65614 0
M  V30 33854 O 2912.51 -0.123716 -2.81728 0
M  V30 33855 C 2912.71 -2.3145 -3.71736 0
M  V30 33856 C 2912.82 -1.75913 -5.10438 0
M  V30 33857 C 2912.76 -3.63518 -3.44754 0
M  V30 33858 H 2915.5 -7.45402 -4.45526 0
M  V30 33859 H 2915.77 -5.86062 -3.67208 0
M  V30 33860 H 2914.91 -7.84412 -2.24479 0
M  V30 33861 H 2912.25 -5.73358 -0.888409 0
M  V30 33862 H 2911.97 -5.90877 -3.88583 0
M  V30 33863 H 2910.98 -6.65867 -2.58821 0
M  V30 33864 H 2912.81 -8.16248 -3.92006 0
M  V30 33865 H 2912.88 -4.34551 -4.26383 0
M  V30 33866 H 2911.85 -1.85471 -5.61775 0
M  V30 33867 H 2913.59 -2.31364 -5.66257 0
M  V30 33868 H 2913.1 -0.695936 -5.05229 0
M  V30 33869 H 2912.37 -1.26277 -0.63625 0
M  V30 33870 P 2910.94 -8.7635 -1.60911 0
M  V30 33871 O 2910.72 -10.1388 -1.11561 0
M  V30 33872 O 2910.15 -8.36503 -2.79617 0
M  V30 33873 O 2910.69 -7.71806 -0.42951 0
M  V30 33874 C 2911.63 -7.67148 0.673689 0
M  V30 33875 C 2910.9 -7.33374 1.95559 0
M  V30 33876 O 2910.69 -5.88721 2.00726 0
M  V30 33877 C 2909.5 -7.92526 2.10483 0
M  V30 33878 O 2909.11 -8.02971 3.47653 0
M  V30 33879 C 2908.62 -6.89602 1.41652 0
M  V30 33880 C 2909.33 -5.59201 1.75185 0
M  V30 33881 N 2909.28 -4.58235 0.662552 0
M  V30 33882 H 2912.12 -8.65116 0.777161 0
M  V30 33883 H 2912.39 -6.90173 0.474152 0
M  V30 33884 H 2911.53 -7.66548 2.79458 0
M  V30 33885 P 2907.56 -8.03563 3.84925 0
M  V30 33886 O 2907.34 -8.85821 5.0569 0
M  V30 33887 O 2906.77 -8.41101 2.65469 0
M  V30 33888 O 2907.31 -6.4965 4.18908 0
M  V30 33889 C 2908.25 -5.80886 5.05289 0
M  V30 33890 C 2907.52 -4.78366 5.89277 0
M  V30 33891 O 2907.31 -3.58302 5.08433 0
M  V30 33892 C 2906.12 -5.16748 6.36559 0
M  V30 33893 O 2905.73 -4.45271 7.53232 0
M  V30 33894 C 2905.24 -4.74572 5.19863 0
M  V30 33895 C 2905.95 -3.49373 4.70338 0
M  V30 33896 N 2905.9 -3.31704 3.22876 0
M  V30 33897 C 2905.75 -2.03326 2.74871 0
M  V30 33898 O 2905.66 -1.06486 3.48076 0
M  V30 33899 N 2905.71 -1.91838 1.37456 0
M  V30 33900 C 2905.8 -2.94295 0.462035 0
M  V30 33901 C 2905.95 -4.25064 1.05249 0
M  V30 33902 C 2906 -4.40214 2.39192 0
M  V30 33903 H 2908.74 -6.54063 5.71245 0
M  V30 33904 H 2909.01 -5.30339 4.43905 0
M  V30 33905 H 2908.15 -4.55889 6.76652 0
M  V30 33906 H 2905.49 -2.6167 5.17842 0
M  V30 33907 H 2905.21 -5.52155 4.41878 0
M  V30 33908 H 2904.22 -4.51918 5.53297 0
M  V30 33909 H 2906.05 -6.25055 6.55162 0
M  V30 33910 H 2906.12 -5.39798 2.81523 0
M  V30 33911 P 2904.18 -4.23843 7.83734 0
M  V30 33912 O 2903.96 -4.19407 9.29784 0
M  V30 33913 O 2903.39 -5.24426 7.09156 0
M  V30 33914 O 2903.93 -2.7935 7.20758 0
M  V30 33915 C 2904.87 -1.72945 7.50224 0
M  V30 33916 C 2904.14 -0.406376 7.57911 0
M  V30 33917 O 2903.93 0.0897726 6.21935 0
M  V30 33918 C 2902.74 -0.438983 8.18724 0
M  V30 33919 O 2902.35 0.825065 8.71101 0
M  V30 33920 C 2901.86 -0.783689 6.99524 0
M  V30 33921 C 2902.57 -0.0619086 5.85867 0
M  V30 33922 N 2902.52 -0.78573 4.56183 0
M  V30 33923 C 2902.37 -0.0292889 3.41887 0
M  V30 33924 O 2902.28 1.18445 3.4419 0
M  V30 33925 N 2902.33 -0.744061 2.23964 0
M  V30 33926 C 2902.42 -2.10932 2.10362 0
M  V30 33927 O 2902.37 -2.64117 0.98825 0
M  V30 33928 C 2902.57 -2.8202 3.34994 0
M  V30 33929 C 2902.68 -4.31095 3.25037 0
M  V30 33930 C 2902.62 -2.15547 4.52261 0
M  V30 33931 H 2905.36 -1.93379 8.46595 0
M  V30 33932 H 2905.63 -1.68132 6.70852 0
M  V30 33933 H 2904.77 0.289041 8.15388 0
M  V30 33934 H 2902.11 0.926847 5.72749 0
M  V30 33935 H 2901.83 -1.86973 6.82036 0
M  V30 33936 H 2900.84 -0.403896 7.13257 0
M  V30 33937 H 2902.67 -1.20585 8.97435 0
M  V30 33938 H 2902.74 -2.71231 5.45042 0
M  V30 33939 H 2901.71 -4.76966 3.49992 0
M  V30 33940 H 2903.45 -4.67047 3.95024 0
M  V30 33941 H 2902.96 -4.58996 2.22312 0
M  V30 33942 H 2902.23 -0.214893 1.39758 0
M  V30 33943 P 2900.8 1.17771 8.83182 0
M  V30 33944 O 2900.58 2.07206 9.98732 0
M  V30 33945 O 2900.01 -0.0743816 8.81969 0
M  V30 33946 O 2900.55 1.97652 7.47304 0
M  V30 33947 C 2901.49 3.01133 7.08783 0
M  V30 33948 C 2900.76 4.12613 6.37049 0
M  V30 33949 O 2900.55 3.72827 4.97879 0
M  V30 33950 C 2899.36 4.45085 6.88694 0
M  V30 33951 O 2898.97 5.7877 6.5624 0
M  V30 33952 C 2898.48 3.47817 6.12078 0
M  V30 33953 C 2899.19 3.39414 4.77697 0
M  V30 33954 N 2899.14 2.04615 4.15333 0
M  V30 33955 H 2901.98 3.41248 7.98759 0
M  V30 33956 H 2902.25 2.5837 6.41742 0
M  V30 33957 H 2901.39 5.02657 6.42673 0
M  V30 33958 P 2897.42 6.144 6.45285 0
M  V30 33959 O 2897.2 7.54673 6.86199 0
M  V30 33960 O 2896.63 5.12391 7.179 0
M  V30 33961 O 2897.17 5.99158 4.88404 0
M  V30 33962 C 2898.11 6.60234 3.96415 0
M  V30 33963 C 2897.38 7.08259 2.72856 0
M  V30 33964 O 2897.17 5.9427 1.83651 0
M  V30 33965 C 2895.98 7.64886 2.9555 0
M  V30 33966 O 2895.59 8.53963 1.90717 0
M  V30 33967 C 2895.1 6.4116 2.90739 0
M  V30 33968 C 2895.81 5.55375 1.86963 0
M  V30 33969 N 2895.76 4.09664 2.15742 0
M  V30 33970 H 2898.6 7.45574 4.45629 0
M  V30 33971 H 2898.87 5.86232 3.67314 0
M  V30 33972 H 2898.01 7.84412 2.24479 0
M  V30 33973 P 2894.04 8.7635 1.60911 0
M  V30 33974 O 2893.82 10.1388 1.11561 0
M  V30 33975 O 2893.25 8.36503 2.79617 0
M  V30 33976 O 2893.79 7.71806 0.42951 0
M  V30 33977 C 2894.73 7.67148 -0.673689 0
M  V30 33978 C 2894 7.33374 -1.95559 0
M  V30 33979 O 2893.79 5.88721 -2.00726 0
M  V30 33980 C 2892.6 7.92526 -2.10483 0
M  V30 33981 O 2892.21 8.02971 -3.47653 0
M  V30 33982 C 2891.72 6.89602 -1.41652 0
M  V30 33983 C 2892.43 5.59201 -1.75185 0
M  V30 33984 N 2892.38 4.58235 -0.662552 0
M  V30 33985 C 2892.46 4.7683 0.704049 0
M  V30 33986 N 2892.38 3.66233 1.39775 0
M  V30 33987 C 2892.24 2.66526 0.431739 0
M  V30 33988 C 2892.11 1.26394 0.575992 0
M  V30 33989 N 2891.99 0.62859 -0.67177 0
M  V30 33990 C 2891.99 1.27134 -1.89385 0
M  V30 33991 N 2891.86 0.492035 -2.96951 0
M  V30 33992 N 2892.12 2.58978 -2.02907 0
M  V30 33993 C 2892.24 3.22433 -0.832218 0
M  V30 33994 H 2895.22 8.65116 -0.777161 0
M  V30 33995 H 2895.49 6.90173 -0.474152 0
M  V30 33996 H 2894.63 7.66548 -2.79458 0
M  V30 33997 P 2890.66 8.03563 -3.84925 0
M  V30 33998 O 2890.44 8.85821 -5.0569 0
M  V30 33999 O 2889.87 8.41101 -2.65469 0
M  V30 34000 O 2890.41 6.4965 -4.18908 0
M  V30 34001 C 2891.35 5.80886 -5.05289 0
M  V30 34002 C 2890.62 4.78366 -5.89277 0
M  V30 34003 O 2890.41 3.58302 -5.08433 0
M  V30 34004 C 2889.22 5.16748 -6.36559 0
M  V30 34005 O 2888.83 4.45271 -7.53232 0
M  V30 34006 C 2888.34 4.74572 -5.19863 0
M  V30 34007 C 2889.05 3.49373 -4.70338 0
M  V30 34008 N 2889 3.31704 -3.22876 0
M  V30 34009 C 2888.85 2.03326 -2.74871 0
M  V30 34010 O 2888.76 1.06486 -3.48076 0
M  V30 34011 N 2888.81 1.91838 -1.37456 0
M  V30 34012 C 2888.9 2.94295 -0.462035 0
M  V30 34013 O 2888.85 2.71763 0.752928 0
M  V30 34014 C 2889.05 4.25064 -1.05249 0
M  V30 34015 C 2889.16 5.39815 -0.095697 0
M  V30 34016 C 2889.1 4.40214 -2.39192 0
M  V30 34017 H 2891.84 6.54063 -5.71245 0
M  V30 34018 H 2892.11 5.30339 -4.43905 0
M  V30 34019 H 2891.25 4.55889 -6.76652 0
M  V30 34020 H 2888.59 2.6167 -5.17842 0
M  V30 34021 H 2888.31 5.52155 -4.41878 0
M  V30 34022 H 2887.32 4.51918 -5.53297 0
M  V30 34023 H 2889.15 6.25055 -6.55162 0
M  V30 34024 H 2889.22 5.39798 -2.81523 0
M  V30 34025 H 2888.19 5.91593 -0.0279582 0
M  V30 34026 H 2889.93 6.10038 -0.450573 0
M  V30 34027 H 2889.44 5.02007 0.89937 0
M  V30 34028 H 2888.71 0.995326 -1.00435 0
M  V30 34029 P 2887.28 4.23843 -7.83734 0
M  V30 34030 O 2887.06 4.19407 -9.29784 0
M  V30 34031 O 2886.49 5.24426 -7.09156 0
M  V30 34032 O 2887.03 2.7935 -7.20758 0
M  V30 34033 C 2887.97 1.72945 -7.50224 0
M  V30 34034 C 2887.24 0.406376 -7.57911 0
M  V30 34035 O 2887.03 -0.0897726 -6.21935 0
M  V30 34036 C 2885.84 0.438983 -8.18724 0
M  V30 34037 O 2885.45 -0.825065 -8.71101 0
M  V30 34038 C 2884.96 0.783689 -6.99524 0
M  V30 34039 C 2885.67 0.0619086 -5.85867 0
M  V30 34040 N 2885.62 0.78573 -4.56183 0
M  V30 34041 C 2885.47 0.0292889 -3.41887 0
M  V30 34042 O 2885.38 -1.18445 -3.4419 0
M  V30 34043 N 2885.43 0.744061 -2.23964 0
M  V30 34044 C 2885.52 2.10932 -2.10362 0
M  V30 34045 C 2885.67 2.8202 -3.34994 0
M  V30 34046 C 2885.72 2.15547 -4.52261 0
M  V30 34047 H 2888.46 1.93379 -8.46595 0
M  V30 34048 H 2888.73 1.68132 -6.70852 0
M  V30 34049 H 2887.87 -0.289041 -8.15388 0
M  V30 34050 H 2885.21 -0.926847 -5.72749 0
M  V30 34051 H 2884.93 1.86973 -6.82036 0
M  V30 34052 H 2883.94 0.403896 -7.13257 0
M  V30 34053 H 2885.77 1.20585 -8.97435 0
M  V30 34054 H 2885.84 2.71231 -5.45042 0
M  V30 34055 P 2883.9 -1.17771 -8.83182 0
M  V30 34056 O 2883.68 -2.07206 -9.98732 0
M  V30 34057 O 2883.11 0.0743816 -8.81969 0
M  V30 34058 O 2883.65 -1.97652 -7.47304 0
M  V30 34059 C 2884.59 -3.01133 -7.08783 0
M  V30 34060 C 2883.86 -4.12613 -6.37049 0
M  V30 34061 O 2883.65 -3.72827 -4.97879 0
M  V30 34062 C 2882.46 -4.45085 -6.88694 0
M  V30 34063 O 2882.07 -5.7877 -6.5624 0
M  V30 34064 C 2881.58 -3.47817 -6.12078 0
M  V30 34065 C 2882.29 -3.39414 -4.77697 0
M  V30 34066 N 2882.24 -2.04199 -4.15538 0
M  V30 34067 C 2882.32 -0.821545 -4.76977 0
M  V30 34068 N 2882.25 0.1794 -3.94592 0
M  V30 34069 C 2882.1 -0.419121 -2.70776 0
M  V30 34070 C 2881.97 0.109072 -1.40577 0
M  V30 34071 N 2881.96 1.4104 -1.1344 0
M  V30 34072 N 2881.85 -0.764381 -0.39411 0
M  V30 34073 C 2881.86 -2.06587 -0.664135 0
M  V30 34074 N 2881.98 -2.67948 -1.82153 0
M  V30 34075 C 2882.1 -1.77942 -2.8147 0
M  V30 34076 H 2885.08 -3.41248 -7.98759 0
M  V30 34077 H 2885.35 -2.57728 -6.42 0
M  V30 34078 H 2884.49 -5.02657 -6.42673 0
M  V30 34079 H 2881.83 -4.11708 -4.08956 0
M  V30 34080 H 2881.55 -2.49626 -6.61679 0
M  V30 34081 H 2880.56 -3.8662 -6.00862 0
M  V30 34082 H 2882.39 -4.29991 -7.97006 0
M  V30 34083 H 2882.43 -0.702451 -5.84696 0
M  V30 34084 H 2882.05 2.09647 -1.89651 0
M  V30 34085 H 2881.86 1.73358 -0.160575 0
M  V30 34086 H 2881.76 -2.71695 0.195838 0
M  V30 34087 P 2880.52 -6.144 -6.45285 0
M  V30 34088 O 2880.3 -7.54673 -6.86199 0
M  V30 34089 O 2879.73 -5.12391 -7.179 0
M  V30 34090 O 2880.27 -5.99158 -4.88404 0
M  V30 34091 C 2881.21 -6.60062 -3.96313 0
M  V30 34092 C 2880.48 -7.08259 -2.72856 0
M  V30 34093 O 2880.27 -5.9427 -1.83651 0
M  V30 34094 C 2879.08 -7.65087 -2.94749 0
M  V30 34095 O 2878.69 -8.53963 -1.90717 0
M  V30 34096 C 2878.2 -6.41069 -2.90698 0
M  V30 34097 C 2878.91 -5.5528 -1.86931 0
M  V30 34098 N 2878.86 -4.09575 -2.15696 0
M  V30 34099 C 2878.71 -3.24249 -1.08435 0
M  V30 34100 O 2878.62 -3.63946 0.0628747 0
M  V30 34101 N 2878.67 -1.90009 -1.39973 0
M  V30 34102 C 2878.76 -1.34884 -2.65614 0
M  V30 34103 O 2878.71 -0.123716 -2.81728 0
M  V30 34104 C 2878.91 -2.3145 -3.71736 0
M  V30 34105 C 2879.02 -1.75913 -5.10438 0
M  V30 34106 C 2878.96 -3.63518 -3.44754 0
M  V30 34107 H 2881.7 -7.45402 -4.45526 0
M  V30 34108 H 2881.97 -5.86062 -3.67208 0
M  V30 34109 H 2881.11 -7.84412 -2.24479 0
M  V30 34110 H 2878.45 -5.73358 -0.888409 0
M  V30 34111 H 2878.17 -5.90877 -3.88583 0
M  V30 34112 H 2877.18 -6.65867 -2.58821 0
M  V30 34113 H 2879.01 -8.16248 -3.92006 0
M  V30 34114 H 2879.08 -4.34551 -4.26383 0
M  V30 34115 H 2878.05 -1.85471 -5.61775 0
M  V30 34116 H 2879.79 -2.31364 -5.66257 0
M  V30 34117 H 2879.3 -0.695936 -5.05229 0
M  V30 34118 H 2878.57 -1.26277 -0.63625 0
M  V30 34119 P 2877.14 -8.7635 -1.60911 0
M  V30 34120 O 2876.92 -10.1388 -1.11561 0
M  V30 34121 O 2876.35 -8.36503 -2.79617 0
M  V30 34122 O 2876.89 -7.71806 -0.42951 0
M  V30 34123 C 2877.83 -7.67148 0.673689 0
M  V30 34124 C 2877.1 -7.33374 1.95559 0
M  V30 34125 O 2876.89 -5.88721 2.00726 0
M  V30 34126 C 2875.7 -7.92526 2.10483 0
M  V30 34127 O 2875.31 -8.02971 3.47653 0
M  V30 34128 C 2874.82 -6.89602 1.41652 0
M  V30 34129 C 2875.53 -5.59201 1.75185 0
M  V30 34130 N 2875.48 -4.58235 0.662552 0
M  V30 34131 H 2878.32 -8.65116 0.777161 0
M  V30 34132 H 2878.59 -6.90173 0.474152 0
M  V30 34133 H 2877.73 -7.66548 2.79458 0
M  V30 34134 P 2873.76 -8.03563 3.84925 0
M  V30 34135 O 2873.54 -8.85821 5.0569 0
M  V30 34136 O 2872.97 -8.41101 2.65469 0
M  V30 34137 O 2873.51 -6.4965 4.18908 0
M  V30 34138 C 2874.45 -5.81037 5.05421 0
M  V30 34139 C 2873.72 -4.78366 5.89277 0
M  V30 34140 O 2873.51 -3.58302 5.08433 0
M  V30 34141 C 2872.32 -5.17448 6.36119 0
M  V30 34142 O 2871.93 -4.45271 7.53232 0
M  V30 34143 C 2871.44 -4.74639 5.19936 0
M  V30 34144 C 2872.15 -3.49432 4.70418 0
M  V30 34145 N 2872.1 -3.31776 3.22945 0
M  V30 34146 H 2874.94 -6.54213 5.71376 0
M  V30 34147 H 2875.21 -5.30492 4.44033 0
M  V30 34148 H 2874.35 -4.55889 6.76652 0
M  V30 34149 P 2870.38 -4.23843 7.83734 0
M  V30 34150 O 2870.16 -4.19407 9.29784 0
M  V30 34151 O 2869.59 -5.24426 7.09156 0
M  V30 34152 O 2870.13 -2.7935 7.20758 0
M  V30 34153 C 2871.07 -1.7299 7.50419 0
M  V30 34154 C 2870.34 -0.406376 7.57911 0
M  V30 34155 O 2870.13 0.0897726 6.21935 0
M  V30 34156 C 2868.94 -0.447224 8.1878 0
M  V30 34157 O 2868.55 0.825065 8.71101 0
M  V30 34158 C 2868.06 -0.783801 6.99623 0
M  V30 34159 C 2868.77 -0.0619192 5.85967 0
M  V30 34160 N 2868.72 -0.7859 4.56281 0
M  V30 34161 H 2871.56 -1.93423 8.4679 0
M  V30 34162 H 2871.83 -1.68181 6.71046 0
M  V30 34163 H 2870.97 0.289041 8.15388 0
M  V30 34164 P 2867 1.17771 8.83182 0
M  V30 34165 O 2866.78 2.07206 9.98732 0
M  V30 34166 O 2866.21 -0.0743816 8.81969 0
M  V30 34167 O 2866.75 1.97652 7.47304 0
M  V30 34168 C 2867.69 3.01133 7.08783 0
M  V30 34169 C 2866.96 4.12613 6.37049 0
M  V30 34170 O 2866.75 3.72827 4.97879 0
M  V30 34171 C 2865.56 4.45085 6.88694 0
M  V30 34172 O 2865.17 5.7877 6.5624 0
M  V30 34173 C 2864.68 3.47817 6.12078 0
M  V30 34174 C 2865.39 3.39414 4.77697 0
M  V30 34175 N 2865.34 2.04615 4.15333 0
M  V30 34176 H 2868.18 3.41248 7.98759 0
M  V30 34177 H 2868.45 2.5837 6.41742 0
M  V30 34178 H 2867.59 5.02657 6.42673 0
M  V30 34179 P 2863.62 6.144 6.45285 0
M  V30 34180 O 2863.4 7.54673 6.86199 0
M  V30 34181 O 2862.83 5.12391 7.179 0
M  V30 34182 O 2863.37 5.99158 4.88404 0
M  V30 34183 C 2864.31 6.60062 3.96313 0
M  V30 34184 C 2863.58 7.08259 2.72856 0
M  V30 34185 O 2863.37 5.9427 1.83651 0
M  V30 34186 C 2862.18 7.65087 2.94749 0
M  V30 34187 O 2861.79 8.53963 1.90717 0
M  V30 34188 C 2861.3 6.41069 2.90698 0
M  V30 34189 C 2862.01 5.5528 1.86931 0
M  V30 34190 N 2861.96 4.09575 2.15696 0
M  V30 34191 C 2861.81 3.24249 1.08435 0
M  V30 34192 O 2861.72 3.63946 -0.0628747 0
M  V30 34193 N 2861.77 1.90009 1.39973 0
M  V30 34194 C 2861.86 1.34884 2.65614 0
M  V30 34195 C 2862.01 2.3145 3.71736 0
M  V30 34196 C 2862.06 3.63518 3.44754 0
M  V30 34197 H 2864.8 7.45402 4.45526 0
M  V30 34198 H 2865.07 5.86062 3.67208 0
M  V30 34199 H 2864.21 7.84412 2.24479 0
M  V30 34200 H 2861.55 5.73358 0.888409 0
M  V30 34201 H 2861.27 5.90877 3.88583 0
M  V30 34202 H 2860.28 6.65867 2.58821 0
M  V30 34203 H 2862.11 8.16248 3.92006 0
M  V30 34204 H 2862.19 4.34551 4.26383 0
M  V30 34205 P 2860.24 8.7635 1.60911 0
M  V30 34206 O 2860.02 10.1388 1.11561 0
M  V30 34207 O 2859.45 8.36503 2.79617 0
M  V30 34208 O 2859.99 7.71906 0.429565 0
M  V30 34209 C 2860.93 7.67148 -0.673689 0
M  V30 34210 C 2860.2 7.33666 -1.94851 0
M  V30 34211 O 2859.99 5.88816 -2.00759 0
M  V30 34212 C 2858.8 7.92526 -2.10483 0
M  V30 34213 O 2858.41 8.03063 -3.47693 0
M  V30 34214 C 2857.92 6.89602 -1.41652 0
M  V30 34215 C 2858.63 5.59201 -1.75185 0
M  V30 34216 N 2858.58 4.58235 -0.662552 0
M  V30 34217 C 2858.43 3.24451 -1.01643 0
M  V30 34218 O 2858.34 2.94958 -2.21722 0
M  V30 34219 N 2858.38 2.30408 0.165238 0
M  V30 34220 C 2858.48 2.66048 1.25118 0
M  V30 34221 N 2858.43 1.70787 2.16813 0
M  V30 34222 C 2858.63 4.02732 1.64413 0
M  V30 34223 C 2858.68 4.9488 0.63991 0
M  V30 34224 H 2861.42 8.65017 -0.777072 0
M  V30 34225 H 2861.69 6.90173 -0.474152 0
M  V30 34226 H 2860.83 7.66642 -2.79492 0
M  V30 34227 H 2858.17 5.16254 -2.65229 0
M  V30 34228 H 2857.89 7.06532 -0.329431 0
M  V30 34229 H 2856.9 6.91023 -1.82047 0
M  V30 34230 H 2858.73 8.90873 -1.62657 0
M  V30 34231 H 2858.81 6.00104 0.892197 0
M  V30 34232 H 2858.7 4.31733 2.69229 0
M  V30 34233 H 2858.32 0.724835 1.8844 0
M  V30 34234 H 2858.51 1.94716 3.16734 0
M  V30 34235 P 2856.86 8.03563 -3.84925 0
M  V30 34236 O 2856.64 8.85821 -5.0569 0
M  V30 34237 O 2856.07 8.41101 -2.65469 0
M  V30 34238 O 2856.61 6.4965 -4.18908 0
M  V30 34239 C 2857.55 5.81037 -5.05421 0
M  V30 34240 C 2856.82 4.78366 -5.89277 0
M  V30 34241 O 2856.61 3.58302 -5.08433 0
M  V30 34242 C 2855.42 5.17448 -6.36119 0
M  V30 34243 O 2855.03 4.45271 -7.53232 0
M  V30 34244 C 2854.54 4.74639 -5.19936 0
M  V30 34245 C 2855.25 3.49432 -4.70418 0
M  V30 34246 N 2855.2 3.31776 -3.22945 0
M  V30 34247 H 2858.04 6.54213 -5.71376 0
M  V30 34248 H 2858.31 5.30492 -4.44033 0
M  V30 34249 H 2857.45 4.55889 -6.76652 0
M  V30 34250 P 2853.48 4.23843 -7.83734 0
M  V30 34251 O 2853.26 4.19407 -9.29784 0
M  V30 34252 O 2852.69 5.24426 -7.09156 0
M  V30 34253 O 2853.23 2.7935 -7.20758 0
M  V30 34254 C 2854.17 1.7299 -7.50419 0
M  V30 34255 C 2853.44 0.406376 -7.57911 0
M  V30 34256 O 2853.23 -0.0897726 -6.21935 0
M  V30 34257 C 2852.04 0.447224 -8.1878 0
M  V30 34258 O 2851.65 -0.825065 -8.71101 0
M  V30 34259 C 2851.16 0.783801 -6.99623 0
M  V30 34260 C 2851.87 0.0619192 -5.85967 0
M  V30 34261 N 2851.82 0.790462 -4.56202 0
M  V30 34262 C 2851.9 2.13895 -4.34171 0
M  V30 34263 N 2851.83 2.46449 -3.08687 0
M  V30 34264 C 2851.68 1.2525 -2.43697 0
M  V30 34265 C 2851.55 0.914535 -1.07318 0
M  V30 34266 N 2851.54 1.80782 -0.0887348 0
M  V30 34267 N 2851.43 -0.386745 -0.768133 0
M  V30 34268 C 2851.44 -1.28096 -1.75159 0
M  V30 34269 N 2851.56 -1.09708 -3.04861 0
M  V30 34270 C 2851.68 0.214857 -3.32306 0
M  V30 34271 H 2854.66 1.93423 -8.4679 0
M  V30 34272 H 2854.93 1.68852 -6.70877 0
M  V30 34273 H 2854.07 -0.289041 -8.15388 0
M  V30 34274 H 2851.41 -0.927006 -5.72848 0
M  V30 34275 H 2851.13 1.86973 -6.82036 0
M  V30 34276 H 2850.14 0.403953 -7.13357 0
M  V30 34277 H 2851.97 1.20599 -8.97534 0
M  V30 34278 H 2852.02 2.86846 -5.14318 0
M  V30 34279 H 2851.63 2.81082 -0.302037 0
M  V30 34280 H 2851.45 1.49688 0.889064 0
M  V30 34281 H 2851.34 -2.31317 -1.43855 0
M  V30 34282 P 2850.1 -1.17771 -8.83182 0
M  V30 34283 O 2849.88 -2.07206 -9.98732 0
M  V30 34284 O 2849.31 0.0743816 -8.81969 0
M  V30 34285 O 2849.85 -1.97652 -7.47304 0
M  V30 34286 C 2850.79 -3.01133 -7.08783 0
M  V30 34287 C 2850.06 -4.12613 -6.37049 0
M  V30 34288 O 2849.85 -3.72827 -4.97879 0
M  V30 34289 C 2848.66 -4.45085 -6.88694 0
M  V30 34290 O 2848.27 -5.7877 -6.5624 0
M  V30 34291 C 2847.78 -3.47817 -6.12078 0
M  V30 34292 C 2848.49 -3.39414 -4.77697 0
M  V30 34293 N 2848.44 -2.04199 -4.15538 0
M  V30 34294 C 2848.52 -0.821545 -4.76977 0
M  V30 34295 N 2848.45 0.1794 -3.94592 0
M  V30 34296 C 2848.3 -0.419121 -2.70776 0
M  V30 34297 C 2848.17 0.109072 -1.40577 0
M  V30 34298 N 2848.16 1.4104 -1.1344 0
M  V30 34299 N 2848.05 -0.764381 -0.39411 0
M  V30 34300 C 2848.06 -2.06587 -0.664135 0
M  V30 34301 N 2848.18 -2.67948 -1.82153 0
M  V30 34302 C 2848.3 -1.77942 -2.8147 0
M  V30 34303 H 2851.28 -3.41248 -7.98759 0
M  V30 34304 H 2851.55 -2.57728 -6.42 0
M  V30 34305 H 2850.69 -5.02657 -6.42673 0
M  V30 34306 H 2848.03 -4.11708 -4.08956 0
M  V30 34307 H 2847.75 -2.49626 -6.61679 0
M  V30 34308 H 2846.76 -3.8662 -6.00862 0
M  V30 34309 H 2848.59 -4.29991 -7.97006 0
M  V30 34310 H 2848.64 -0.702451 -5.84696 0
M  V30 34311 H 2848.25 2.09647 -1.89651 0
M  V30 34312 H 2848.07 1.73358 -0.160575 0
M  V30 34313 H 2847.96 -2.71695 0.195838 0
M  V30 34314 P 2846.72 -6.144 -6.45285 0
M  V30 34315 O 2846.5 -7.54673 -6.86199 0
M  V30 34316 O 2845.93 -5.12391 -7.179 0
M  V30 34317 O 2846.47 -5.99158 -4.88404 0
M  V30 34318 C 2847.41 -6.60234 -3.96415 0
M  V30 34319 C 2846.68 -7.08259 -2.72856 0
M  V30 34320 O 2846.47 -5.9427 -1.83651 0
M  V30 34321 C 2845.28 -7.64886 -2.9555 0
M  V30 34322 O 2844.89 -8.53963 -1.90717 0
M  V30 34323 C 2844.4 -6.4116 -2.90739 0
M  V30 34324 C 2845.11 -5.55375 -1.86963 0
M  V30 34325 N 2845.06 -4.09664 -2.15742 0
M  V30 34326 H 2847.9 -7.45574 -4.45629 0
M  V30 34327 H 2848.17 -5.86232 -3.67314 0
M  V30 34328 H 2847.31 -7.84412 -2.24479 0
M  V30 34329 P 2843.34 -8.7635 -1.60911 0
M  V30 34330 O 2843.12 -10.1388 -1.11561 0
M  V30 34331 O 2842.55 -8.36503 -2.79617 0
M  V30 34332 O 2843.09 -7.71806 -0.42951 0
M  V30 34333 C 2844.03 -7.67148 0.673689 0
M  V30 34334 C 2843.3 -7.33374 1.95559 0
M  V30 34335 O 2843.09 -5.88721 2.00726 0
M  V30 34336 C 2841.9 -7.92526 2.10483 0
M  V30 34337 O 2841.51 -8.02971 3.47653 0
M  V30 34338 C 2841.02 -6.89602 1.41652 0
M  V30 34339 C 2841.73 -5.59201 1.75185 0
M  V30 34340 N 2841.68 -4.58301 0.657969 0
M  V30 34341 C 2841.76 -4.79019 -0.692603 0
M  V30 34342 N 2841.69 -3.69736 -1.38998 0
M  V30 34343 C 2841.54 -2.70474 -0.438135 0
M  V30 34344 C 2841.41 -1.30327 -0.538142 0
M  V30 34345 N 2841.4 -0.64304 -1.69192 0
M  V30 34346 N 2841.29 -0.611027 0.605183 0
M  V30 34347 C 2841.3 -1.27002 1.75953 0
M  V30 34348 N 2841.42 -2.56038 1.98546 0
M  V30 34349 C 2841.54 -3.22681 0.822541 0
M  V30 34350 H 2844.52 -8.65116 0.777161 0
M  V30 34351 H 2844.79 -6.9022 0.46725 0
M  V30 34352 H 2843.93 -7.66548 2.79458 0
M  V30 34353 H 2841.27 -5.16165 2.65183 0
M  V30 34354 H 2840.99 -7.06433 0.329384 0
M  V30 34355 H 2840 -6.90926 1.82021 0
M  V30 34356 H 2841.83 -8.90873 1.62657 0
M  V30 34357 H 2841.88 -5.77785 -1.13874 0
M  V30 34358 H 2841.49 -1.15585 -2.57991 0
M  V30 34359 H 2841.31 0.382989 -1.69835 0
M  V30 34360 H 2841.2 -0.653331 2.64449 0
M  V30 34361 P 2839.96 -8.03563 3.84925 0
M  V30 34362 O 2839.74 -8.85821 5.0569 0
M  V30 34363 O 2839.17 -8.41101 2.65469 0
M  V30 34364 O 2839.71 -6.4965 4.18908 0
M  V30 34365 C 2840.65 -5.80886 5.05289 0
M  V30 34366 C 2839.92 -4.78366 5.89277 0
M  V30 34367 O 2839.71 -3.58302 5.08433 0
M  V30 34368 C 2838.52 -5.16748 6.36559 0
M  V30 34369 O 2838.13 -4.45271 7.53232 0
M  V30 34370 C 2837.64 -4.74572 5.19863 0
M  V30 34371 C 2838.35 -3.49373 4.70338 0
M  V30 34372 N 2838.3 -3.31704 3.22876 0
M  V30 34373 C 2838.15 -2.03326 2.74871 0
M  V30 34374 O 2838.06 -1.06486 3.48076 0
M  V30 34375 N 2838.11 -1.91838 1.37456 0
M  V30 34376 C 2838.2 -2.94295 0.462035 0
M  V30 34377 O 2838.15 -2.71763 -0.752928 0
M  V30 34378 C 2838.35 -4.25064 1.05249 0
M  V30 34379 C 2838.46 -5.39815 0.095697 0
M  V30 34380 C 2838.4 -4.40214 2.39192 0
M  V30 34381 H 2841.14 -6.54063 5.71245 0
M  V30 34382 H 2841.41 -5.30339 4.43905 0
M  V30 34383 H 2840.55 -4.55889 6.76652 0
M  V30 34384 H 2837.89 -2.6167 5.17842 0
M  V30 34385 H 2837.61 -5.52155 4.41878 0
M  V30 34386 H 2836.62 -4.51918 5.53297 0
M  V30 34387 H 2838.45 -6.25055 6.55162 0
M  V30 34388 H 2838.53 -5.39798 2.81523 0
M  V30 34389 H 2837.5 -5.91593 0.0279582 0
M  V30 34390 H 2839.23 -6.10038 0.450573 0
M  V30 34391 H 2838.74 -5.02007 -0.89937 0
M  V30 34392 H 2838.01 -0.995326 1.00435 0
M  V30 34393 P 2836.58 -4.23843 7.83734 0
M  V30 34394 O 2836.36 -4.19407 9.29784 0
M  V30 34395 O 2835.79 -5.24426 7.09156 0
M  V30 34396 O 2836.33 -2.7935 7.20758 0
M  V30 34397 C 2837.27 -1.72945 7.50224 0
M  V30 34398 C 2836.54 -0.406376 7.57911 0
M  V30 34399 O 2836.33 0.0897726 6.21935 0
M  V30 34400 C 2835.14 -0.438983 8.18724 0
M  V30 34401 O 2834.75 0.825065 8.71101 0
M  V30 34402 C 2834.26 -0.783689 6.99524 0
M  V30 34403 C 2834.97 -0.0619086 5.85867 0
M  V30 34404 N 2834.92 -0.78573 4.56183 0
M  V30 34405 C 2834.77 -0.0292889 3.41887 0
M  V30 34406 O 2834.68 1.18445 3.4419 0
M  V30 34407 N 2834.73 -0.744061 2.23964 0
M  V30 34408 C 2834.82 -2.10932 2.10362 0
M  V30 34409 O 2834.77 -2.64117 0.98825 0
M  V30 34410 C 2834.97 -2.8202 3.34994 0
M  V30 34411 C 2835.08 -4.31095 3.25037 0
M  V30 34412 C 2835.02 -2.15547 4.52261 0
M  V30 34413 H 2837.76 -1.93379 8.46595 0
M  V30 34414 H 2838.03 -1.68132 6.70852 0
M  V30 34415 H 2837.17 0.289041 8.15388 0
M  V30 34416 H 2834.51 0.926847 5.72749 0
M  V30 34417 H 2834.23 -1.86973 6.82036 0
M  V30 34418 H 2833.24 -0.403896 7.13257 0
M  V30 34419 H 2835.07 -1.20585 8.97435 0
M  V30 34420 H 2835.15 -2.71231 5.45042 0
M  V30 34421 H 2834.12 -4.76966 3.49992 0
M  V30 34422 H 2835.85 -4.67047 3.95024 0
M  V30 34423 H 2835.36 -4.58996 2.22312 0
M  V30 34424 H 2834.63 -0.214893 1.39758 0
M  V30 34425 P 2833.2 1.17771 8.83182 0
M  V30 34426 O 2832.98 2.07206 9.98732 0
M  V30 34427 O 2832.41 -0.0743816 8.81969 0
M  V30 34428 O 2832.95 1.97652 7.47304 0
M  V30 34429 C 2833.89 3.01133 7.08783 0
M  V30 34430 C 2833.16 4.12613 6.37049 0
M  V30 34431 O 2832.95 3.72827 4.97879 0
M  V30 34432 C 2831.76 4.45085 6.88694 0
M  V30 34433 O 2831.37 5.7877 6.5624 0
M  V30 34434 C 2830.88 3.47817 6.12078 0
M  V30 34435 C 2831.59 3.39414 4.77697 0
M  V30 34436 N 2831.54 2.04615 4.15333 0
M  V30 34437 H 2834.38 3.41248 7.98759 0
M  V30 34438 H 2834.65 2.5837 6.41742 0
M  V30 34439 H 2833.79 5.02657 6.42673 0
M  V30 34440 P 2829.82 6.144 6.45285 0
M  V30 34441 O 2829.6 7.54673 6.86199 0
M  V30 34442 O 2829.03 5.12391 7.179 0
M  V30 34443 O 2829.57 5.99158 4.88404 0
M  V30 34444 C 2830.51 6.60234 3.96415 0
M  V30 34445 C 2829.78 7.08259 2.72856 0
M  V30 34446 O 2829.57 5.9427 1.83651 0
M  V30 34447 C 2828.38 7.64886 2.9555 0
M  V30 34448 O 2827.99 8.53963 1.90717 0
M  V30 34449 C 2827.5 6.4116 2.90739 0
M  V30 34450 C 2828.21 5.55375 1.86963 0
M  V30 34451 N 2828.16 4.09664 2.15742 0
M  V30 34452 H 2831 7.45574 4.45629 0
M  V30 34453 H 2831.27 5.86232 3.67314 0
M  V30 34454 H 2830.41 7.84412 2.24479 0
M  V30 34455 P 2826.44 8.7635 1.60911 0
M  V30 34456 O 2826.22 10.1388 1.11561 0
M  V30 34457 O 2825.65 8.36503 2.79617 0
M  V30 34458 O 2826.19 7.71806 0.42951 0
M  V30 34459 C 2827.13 7.67148 -0.673689 0
M  V30 34460 C 2826.4 7.33374 -1.95559 0
M  V30 34461 O 2826.19 5.88721 -2.00726 0
M  V30 34462 C 2825 7.92526 -2.10483 0
M  V30 34463 O 2824.61 8.02971 -3.47653 0
M  V30 34464 C 2824.12 6.89602 -1.41652 0
M  V30 34465 C 2824.83 5.59201 -1.75185 0
M  V30 34466 N 2824.78 4.58235 -0.662552 0
M  V30 34467 H 2827.62 8.65116 -0.777161 0
M  V30 34468 H 2827.89 6.90173 -0.474152 0
M  V30 34469 H 2827.03 7.66548 -2.79458 0
M  V30 34470 P 2823.06 8.03563 -3.84925 0
M  V30 34471 O 2822.84 8.85821 -5.0569 0
M  V30 34472 O 2822.27 8.41101 -2.65469 0
M  V30 34473 O 2822.81 6.4965 -4.18908 0
M  V30 34474 C 2823.75 5.81037 -5.05421 0
M  V30 34475 C 2823.02 4.78366 -5.89277 0
M  V30 34476 O 2822.81 3.58302 -5.08433 0
M  V30 34477 C 2821.62 5.17448 -6.36119 0
M  V30 34478 O 2821.23 4.45271 -7.53232 0
M  V30 34479 C 2820.74 4.74639 -5.19936 0
M  V30 34480 C 2821.45 3.49432 -4.70418 0
M  V30 34481 N 2821.4 3.31776 -3.22945 0
M  V30 34482 C 2821.48 4.27147 -2.23315 0
M  V30 34483 N 2821.4 3.78447 -1.02186 0
M  V30 34484 C 2821.26 2.41001 -1.21732 0
M  V30 34485 C 2821.13 1.36111 -0.27694 0
M  V30 34486 O 2821.11 1.42065 0.951767 0
M  V30 34487 N 2821.01 0.113683 -0.912949 0
M  V30 34488 C 2821.01 -0.0846396 -2.27943 0
M  V30 34489 N 2820.88 -1.34737 -2.6916 0
M  V30 34490 N 2821.14 0.902521 -3.16379 0
M  V30 34491 C 2821.26 2.11937 -2.56849 0
M  V30 34492 H 2824.24 6.54213 -5.71376 0
M  V30 34493 H 2824.51 5.30492 -4.44033 0
M  V30 34494 H 2823.65 4.55889 -6.76652 0
M  V30 34495 H 2820.99 2.6176 -5.18021 0
M  V30 34496 H 2820.71 5.52233 -4.41941 0
M  V30 34497 H 2819.72 4.52045 -5.53452 0
M  V30 34498 H 2821.55 6.25193 -6.55307 0
M  V30 34499 H 2821.6 5.3351 -2.43857 0
M  V30 34500 H 2820.92 -0.69331 -0.330371 0
M  V30 34501 H 2820.88 -1.56433 -3.6988 0
M  V30 34502 H 2820.78 -2.10701 -2.00133 0
M  V30 34503 P 2819.68 4.23843 -7.83734 0
M  V30 34504 O 2819.46 4.19407 -9.29784 0
M  V30 34505 O 2818.89 5.24426 -7.09156 0
M  V30 34506 O 2819.43 2.7935 -7.20758 0
M  V30 34507 C 2820.37 1.7299 -7.50419 0
M  V30 34508 C 2819.64 0.406376 -7.57911 0
M  V30 34509 O 2819.43 -0.0897726 -6.21935 0
M  V30 34510 C 2818.24 0.447224 -8.1878 0
M  V30 34511 O 2817.85 -0.825065 -8.71101 0
M  V30 34512 C 2817.36 0.783801 -6.99623 0
M  V30 34513 C 2818.07 0.0619192 -5.85967 0
M  V30 34514 N 2818.02 0.7859 -4.56281 0
M  V30 34515 H 2820.86 1.93423 -8.4679 0
M  V30 34516 H 2821.13 1.68181 -6.71046 0
M  V30 34517 H 2820.27 -0.289041 -8.15388 0
M  V30 34518 P 2816.3 -1.17771 -8.83182 0
M  V30 34519 O 2816.08 -2.07206 -9.98732 0
M  V30 34520 O 2815.51 0.0743816 -8.81969 0
M  V30 34521 O 2816.05 -1.97652 -7.47304 0
M  V30 34522 C 2816.99 -3.01133 -7.08783 0
M  V30 34523 C 2816.26 -4.12613 -6.37049 0
M  V30 34524 O 2816.05 -3.72827 -4.97879 0
M  V30 34525 C 2814.86 -4.45085 -6.88694 0
M  V30 34526 O 2814.47 -5.7877 -6.5624 0
M  V30 34527 C 2813.98 -3.47817 -6.12078 0
M  V30 34528 C 2814.69 -3.39414 -4.77697 0
M  V30 34529 N 2814.64 -2.04615 -4.15333 0
M  V30 34530 H 2817.48 -3.41248 -7.98759 0
M  V30 34531 H 2817.75 -2.5837 -6.41742 0
M  V30 34532 H 2816.89 -5.02657 -6.42673 0
M  V30 34533 P 2812.92 -6.144 -6.45285 0
M  V30 34534 O 2812.7 -7.54673 -6.86199 0
M  V30 34535 O 2812.13 -5.12391 -7.179 0
M  V30 34536 O 2812.67 -5.99158 -4.88404 0
M  V30 34537 C 2813.61 -6.60234 -3.96415 0
M  V30 34538 C 2812.88 -7.08259 -2.72856 0
M  V30 34539 O 2812.67 -5.9427 -1.83651 0
M  V30 34540 C 2811.48 -7.64886 -2.9555 0
M  V30 34541 O 2811.09 -8.53963 -1.90717 0
M  V30 34542 C 2810.6 -6.4116 -2.90739 0
M  V30 34543 C 2811.31 -5.55375 -1.86963 0
M  V30 34544 N 2811.26 -4.09664 -2.15742 0
M  V30 34545 H 2814.1 -7.45574 -4.45629 0
M  V30 34546 H 2814.37 -5.86232 -3.67314 0
M  V30 34547 H 2813.51 -7.84412 -2.24479 0
M  V30 34548 P 2809.54 -8.7635 -1.60911 0
M  V30 34549 O 2809.32 -10.1388 -1.11561 0
M  V30 34550 O 2808.75 -8.36503 -2.79617 0
M  V30 34551 O 2809.29 -7.71906 -0.429565 0
M  V30 34552 C 2810.23 -7.67148 0.673689 0
M  V30 34553 C 2809.5 -7.33666 1.94851 0
M  V30 34554 O 2809.29 -5.88816 2.00759 0
M  V30 34555 C 2808.1 -7.92526 2.10483 0
M  V30 34556 O 2807.71 -8.03063 3.47693 0
M  V30 34557 C 2807.22 -6.89602 1.41652 0
M  V30 34558 C 2807.93 -5.59201 1.75185 0
M  V30 34559 N 2807.88 -4.58235 0.662552 0
M  V30 34560 C 2807.73 -3.24451 1.01643 0
M  V30 34561 O 2807.64 -2.94958 2.21722 0
M  V30 34562 N 2807.68 -2.30408 -0.165238 0
M  V30 34563 C 2807.78 -2.66048 -1.25118 0
M  V30 34564 N 2807.73 -1.70787 -2.16813 0
M  V30 34565 C 2807.93 -4.02732 -1.64413 0
M  V30 34566 C 2807.98 -4.9488 -0.63991 0
M  V30 34567 H 2810.72 -8.65017 0.777072 0
M  V30 34568 H 2810.99 -6.90173 0.474152 0
M  V30 34569 H 2810.13 -7.66642 2.79492 0
M  V30 34570 H 2807.47 -5.16254 2.65229 0
M  V30 34571 H 2807.19 -7.06532 0.329431 0
M  V30 34572 H 2806.2 -6.91023 1.82047 0
M  V30 34573 H 2808.03 -8.90873 1.62657 0
M  V30 34574 H 2808.11 -6.00104 -0.892197 0
M  V30 34575 H 2808 -4.31733 -2.69229 0
M  V30 34576 H 2807.62 -0.724835 -1.8844 0
M  V30 34577 H 2807.81 -1.94716 -3.16734 0
M  V30 34578 P 2806.16 -8.03563 3.84925 0
M  V30 34579 O 2805.94 -8.85821 5.0569 0
M  V30 34580 O 2805.37 -8.41101 2.65469 0
M  V30 34581 O 2805.91 -6.4965 4.18908 0
M  V30 34582 C 2806.85 -5.81037 5.05421 0
M  V30 34583 C 2806.12 -4.78366 5.89277 0
M  V30 34584 O 2805.91 -3.58302 5.08433 0
M  V30 34585 C 2804.72 -5.17448 6.36119 0
M  V30 34586 O 2804.33 -4.45271 7.53232 0
M  V30 34587 C 2803.84 -4.74639 5.19936 0
M  V30 34588 C 2804.55 -3.49432 4.70418 0
M  V30 34589 N 2804.5 -3.31776 3.22945 0
M  V30 34590 H 2807.34 -6.54213 5.71376 0
M  V30 34591 H 2807.61 -5.30492 4.44033 0
M  V30 34592 H 2806.75 -4.55889 6.76652 0
M  V30 34593 P 2802.78 -4.23843 7.83734 0
M  V30 34594 O 2802.56 -4.19407 9.29784 0
M  V30 34595 O 2801.99 -5.24426 7.09156 0
M  V30 34596 O 2802.53 -2.7935 7.20758 0
M  V30 34597 C 2803.47 -1.7299 7.50419 0
M  V30 34598 C 2802.74 -0.406376 7.57911 0
M  V30 34599 O 2802.53 0.0897726 6.21935 0
M  V30 34600 C 2801.34 -0.447224 8.1878 0
M  V30 34601 O 2800.95 0.825065 8.71101 0
M  V30 34602 C 2800.46 -0.783801 6.99623 0
M  V30 34603 C 2801.17 -0.0619192 5.85967 0
M  V30 34604 N 2801.12 -0.7859 4.56281 0
M  V30 34605 H 2803.96 -1.93423 8.4679 0
M  V30 34606 H 2804.23 -1.68181 6.71046 0
M  V30 34607 H 2803.37 0.289041 8.15388 0
M  V30 34608 P 2799.4 1.17771 8.83182 0
M  V30 34609 O 2799.18 2.07206 9.98732 0
M  V30 34610 O 2798.61 -0.0743816 8.81969 0
M  V30 34611 O 2799.15 1.97652 7.47304 0
M  V30 34612 C 2800.09 3.01133 7.08783 0
M  V30 34613 C 2799.36 4.12613 6.37049 0
M  V30 34614 O 2799.15 3.72827 4.97879 0
M  V30 34615 C 2797.96 4.45085 6.88694 0
M  V30 34616 O 2797.57 5.7877 6.5624 0
M  V30 34617 C 2797.08 3.47817 6.12078 0
M  V30 34618 C 2797.79 3.39414 4.77697 0
M  V30 34619 N 2797.74 2.04615 4.15333 0
M  V30 34620 H 2800.58 3.41248 7.98759 0
M  V30 34621 H 2800.85 2.5837 6.41742 0
M  V30 34622 H 2799.99 5.02657 6.42673 0
M  V30 34623 P 2796.02 6.144 6.45285 0
M  V30 34624 O 2795.8 7.54673 6.86199 0
M  V30 34625 O 2795.23 5.12391 7.179 0
M  V30 34626 O 2795.77 5.99236 4.88467 0
M  V30 34627 C 2796.71 6.60234 3.96415 0
M  V30 34628 C 2795.98 7.08079 2.736 0
M  V30 34629 O 2795.77 5.94365 1.8368 0
M  V30 34630 C 2794.58 7.64886 2.9555 0
M  V30 34631 O 2794.19 8.5406 1.90739 0
M  V30 34632 C 2793.7 6.4116 2.90739 0
M  V30 34633 C 2794.41 5.55375 1.86963 0
M  V30 34634 N 2794.36 4.09664 2.15742 0
M  V30 34635 C 2794.21 3.22231 1.08477 0
M  V30 34636 O 2794.12 3.68951 -0.0600489 0
M  V30 34637 N 2794.16 1.76692 1.48799 0
M  V30 34638 C 2794.26 1.41695 2.57602 0
M  V30 34639 N 2794.21 0.107296 2.75791 0
M  V30 34640 C 2794.41 2.29178 3.69733 0
M  V30 34641 C 2794.46 3.62753 3.42653 0
M  V30 34642 H 2797.2 7.45488 4.45578 0
M  V30 34643 H 2797.47 5.86232 3.67314 0
M  V30 34644 H 2796.61 7.84508 2.24507 0
M  V30 34645 H 2793.95 5.73556 0.888715 0
M  V30 34646 H 2793.67 5.9096 3.88638 0
M  V30 34647 H 2792.68 6.66053 2.58894 0
M  V30 34648 H 2794.51 8.16339 3.92049 0
M  V30 34649 H 2794.59 4.33052 4.24913 0
M  V30 34650 H 2794.48 1.9103 4.71577 0
M  V30 34651 H 2794.1 -0.521221 1.95056 0
M  V30 34652 H 2794.29 -0.286429 3.70695 0
M  V30 34653 P 2792.64 8.7635 1.60911 0
M  V30 34654 O 2792.42 10.1388 1.11561 0
M  V30 34655 O 2791.85 8.36503 2.79617 0
M  V30 34656 O 2792.39 7.71806 0.42951 0
M  V30 34657 C 2793.33 7.67148 -0.673689 0
M  V30 34658 C 2792.6 7.33374 -1.95559 0
M  V30 34659 O 2792.39 5.88721 -2.00726 0
M  V30 34660 C 2791.2 7.92526 -2.10483 0
M  V30 34661 O 2790.81 8.02971 -3.47653 0
M  V30 34662 C 2790.32 6.89602 -1.41652 0
M  V30 34663 C 2791.03 5.59201 -1.75185 0
M  V30 34664 N 2790.98 4.58301 -0.657969 0
M  V30 34665 C 2791.06 4.79019 0.692603 0
M  V30 34666 N 2790.99 3.69736 1.38998 0
M  V30 34667 C 2790.84 2.70474 0.438135 0
M  V30 34668 C 2790.71 1.30327 0.538142 0
M  V30 34669 N 2790.7 0.64304 1.69192 0
M  V30 34670 N 2790.59 0.611027 -0.605183 0
M  V30 34671 C 2790.6 1.27002 -1.75953 0
M  V30 34672 N 2790.72 2.56038 -1.98546 0
M  V30 34673 C 2790.84 3.22681 -0.822541 0
M  V30 34674 H 2793.82 8.65116 -0.777161 0
M  V30 34675 H 2794.09 6.9022 -0.46725 0
M  V30 34676 H 2793.23 7.66548 -2.79458 0
M  V30 34677 H 2790.57 5.16165 -2.65183 0
M  V30 34678 H 2790.29 7.06433 -0.329384 0
M  V30 34679 H 2789.3 6.90926 -1.82021 0
M  V30 34680 H 2791.13 8.90873 -1.62657 0
M  V30 34681 H 2791.18 5.77785 1.13874 0
M  V30 34682 H 2790.79 1.15585 2.57991 0
M  V30 34683 H 2790.61 -0.382989 1.69835 0
M  V30 34684 H 2790.5 0.653331 -2.64449 0
M  V30 34685 P 2789.26 8.03563 -3.84925 0
M  V30 34686 O 2789.04 8.85821 -5.0569 0
M  V30 34687 O 2788.47 8.41101 -2.65469 0
M  V30 34688 O 2789.01 6.4965 -4.18908 0
M  V30 34689 C 2789.95 5.81037 -5.05421 0
M  V30 34690 C 2789.22 4.78366 -5.89277 0
M  V30 34691 O 2789.01 3.58302 -5.08433 0
M  V30 34692 C 2787.82 5.17448 -6.36119 0
M  V30 34693 O 2787.43 4.45271 -7.53232 0
M  V30 34694 C 2786.94 4.74639 -5.19936 0
M  V30 34695 C 2787.65 3.49432 -4.70418 0
M  V30 34696 N 2787.6 3.31776 -3.22945 0
M  V30 34697 H 2790.44 6.54213 -5.71376 0
M  V30 34698 H 2790.71 5.30492 -4.44033 0
M  V30 34699 H 2789.85 4.55889 -6.76652 0
M  V30 34700 P 2785.88 4.23843 -7.83734 0
M  V30 34701 O 2785.66 4.19407 -9.29784 0
M  V30 34702 O 2785.09 5.24426 -7.09156 0
M  V30 34703 O 2785.63 2.79386 -7.20852 0
M  V30 34704 C 2786.57 1.7299 -7.50419 0
M  V30 34705 C 2785.84 0.41401 -7.5797 0
M  V30 34706 O 2785.63 -0.089787 -6.22035 0
M  V30 34707 C 2784.44 0.447224 -8.1878 0
M  V30 34708 O 2784.05 -0.825159 -8.71201 0
M  V30 34709 C 2783.56 0.783801 -6.99623 0
M  V30 34710 C 2784.27 0.0619192 -5.85967 0
M  V30 34711 N 2784.22 0.7859 -4.56281 0
M  V30 34712 C 2784.07 0.0359258 -3.39981 0
M  V30 34713 O 2783.98 -1.19723 -3.49038 0
M  V30 34714 N 2784.02 0.869151 -2.14025 0
M  V30 34715 C 2784.12 2.01207 -2.14363 0
M  V30 34716 N 2784.07 2.58978 -0.954287 0
M  V30 34717 C 2784.27 2.80817 -3.32215 0
M  V30 34718 C 2784.32 2.13785 -4.50884 0
M  V30 34719 H 2787.06 1.93401 -8.46693 0
M  V30 34720 H 2787.33 1.68181 -6.71046 0
M  V30 34721 H 2786.47 -0.289076 -8.15488 0
M  V30 34722 H 2783.81 -0.927166 -5.72947 0
M  V30 34723 H 2783.53 1.87 -6.82132 0
M  V30 34724 H 2782.54 0.404009 -7.13457 0
M  V30 34725 H 2784.37 1.20599 -8.97534 0
M  V30 34726 H 2784.45 2.70295 -5.43162 0
M  V30 34727 H 2784.34 3.89465 -3.27406 0
M  V30 34728 H 2783.96 2.01616 -0.107046 0
M  V30 34729 H 2784.15 3.61403 -0.873101 0
M  V30 34730 P 2782.5 -1.17771 -8.83182 0
M  V30 34731 O 2782.28 -2.07206 -9.98732 0
M  V30 34732 O 2781.71 0.0743816 -8.81969 0
M  V30 34733 O 2782.25 -1.97652 -7.47304 0
M  V30 34734 C 2783.19 -3.01133 -7.08783 0
M  V30 34735 C 2782.46 -4.12613 -6.37049 0
M  V30 34736 O 2782.25 -3.72827 -4.97879 0
M  V30 34737 C 2781.06 -4.45085 -6.88694 0
M  V30 34738 O 2780.67 -5.7877 -6.5624 0
M  V30 34739 C 2780.18 -3.47817 -6.12078 0
M  V30 34740 C 2780.89 -3.39414 -4.77697 0
M  V30 34741 N 2780.84 -2.04615 -4.15333 0
M  V30 34742 C 2780.92 -0.803897 -4.75249 0
M  V30 34743 N 2780.84 0.197615 -3.91502 0
M  V30 34744 C 2780.7 -0.413002 -2.66823 0
M  V30 34745 C 2780.57 0.157221 -1.38007 0
M  V30 34746 N 2780.45 -0.833136 -0.390236 0
M  V30 34747 C 2780.45 -2.19402 -0.623885 0
M  V30 34748 N 2780.32 -2.97622 0.449677 0
M  V30 34749 N 2780.58 -2.73005 -1.83601 0
M  V30 34750 C 2780.7 -1.78786 -2.80935 0
M  V30 34751 H 2783.68 -3.41248 -7.98759 0
M  V30 34752 H 2783.95 -2.5837 -6.41742 0
M  V30 34753 H 2783.09 -5.02657 -6.42673 0
M  V30 34754 P 2779.12 -6.144 -6.45285 0
M  V30 34755 O 2778.9 -7.54673 -6.86199 0
M  V30 34756 O 2778.33 -5.12391 -7.179 0
M  V30 34757 O 2778.87 -5.99158 -4.88404 0
M  V30 34758 C 2779.81 -6.60234 -3.96415 0
M  V30 34759 C 2779.08 -7.08259 -2.72856 0
M  V30 34760 O 2778.87 -5.9427 -1.83651 0
M  V30 34761 C 2777.68 -7.64886 -2.9555 0
M  V30 34762 O 2777.29 -8.53963 -1.90717 0
M  V30 34763 C 2776.8 -6.4116 -2.90739 0
M  V30 34764 C 2777.51 -5.55375 -1.86963 0
M  V30 34765 N 2777.46 -4.09664 -2.15742 0
M  V30 34766 H 2780.3 -7.45574 -4.45629 0
M  V30 34767 H 2780.57 -5.86232 -3.67314 0
M  V30 34768 H 2779.71 -7.84412 -2.24479 0
M  V30 34769 P 2775.74 -8.7635 -1.60911 0
M  V30 34770 O 2775.52 -10.1388 -1.11561 0
M  V30 34771 O 2774.95 -8.36503 -2.79617 0
M  V30 34772 O 2775.49 -7.71806 -0.42951 0
M  V30 34773 C 2776.43 -7.67148 0.673689 0
M  V30 34774 C 2775.7 -7.33374 1.95559 0
M  V30 34775 O 2775.49 -5.88721 2.00726 0
M  V30 34776 C 2774.3 -7.92526 2.10483 0
M  V30 34777 O 2773.91 -8.02971 3.47653 0
M  V30 34778 C 2773.42 -6.89602 1.41652 0
M  V30 34779 C 2774.13 -5.59201 1.75185 0
M  V30 34780 N 2774.08 -4.58301 0.657969 0
M  V30 34781 H 2776.92 -8.65116 0.777161 0
M  V30 34782 H 2777.19 -6.9022 0.46725 0
M  V30 34783 H 2776.33 -7.66548 2.79458 0
M  V30 34784 H 2773.67 -5.16165 2.65183 0
M  V30 34785 H 2773.39 -7.06433 0.329384 0
M  V30 34786 H 2772.4 -6.90926 1.82021 0
M  V30 34787 H 2774.23 -8.90873 1.62657 0
M  V30 34788 P 2772.36 -8.03563 3.84925 0
M  V30 34789 O 2772.14 -8.85821 5.0569 0
M  V30 34790 O 2771.57 -8.41101 2.65469 0
M  V30 34791 O 2772.11 -6.4965 4.18908 0
M  V30 34792 C 2773.05 -5.81037 5.05421 0
M  V30 34793 C 2772.32 -4.78366 5.89277 0
M  V30 34794 O 2772.11 -3.58302 5.08433 0
M  V30 34795 C 2770.92 -5.17448 6.36119 0
M  V30 34796 O 2770.53 -4.45271 7.53232 0
M  V30 34797 C 2770.04 -4.74639 5.19936 0
M  V30 34798 C 2770.75 -3.49432 4.70418 0
M  V30 34799 N 2770.7 -3.31776 3.22945 0
M  V30 34800 H 2773.54 -6.54213 5.71376 0
M  V30 34801 H 2773.81 -5.30492 4.44033 0
M  V30 34802 H 2772.95 -4.55889 6.76652 0
M  V30 34803 P 2768.98 -4.23843 7.83734 0
M  V30 34804 O 2768.76 -4.19407 9.29784 0
M  V30 34805 O 2768.19 -5.24426 7.09156 0
M  V30 34806 O 2768.73 -2.7935 7.20758 0
M  V30 34807 C 2769.67 -1.7299 7.50419 0
M  V30 34808 C 2768.94 -0.406376 7.57911 0
M  V30 34809 O 2768.73 0.0897726 6.21935 0
M  V30 34810 C 2767.54 -0.447224 8.1878 0
M  V30 34811 O 2767.15 0.825065 8.71101 0
M  V30 34812 C 2766.66 -0.783801 6.99623 0
M  V30 34813 C 2767.37 -0.0619192 5.85967 0
M  V30 34814 N 2767.32 -0.7859 4.56281 0
M  V30 34815 C 2767.4 -2.14308 4.31736 0
M  V30 34816 N 2767.32 -2.46106 3.05116 0
M  V30 34817 C 2767.18 -1.23422 2.4014 0
M  V30 34818 C 2767.05 -0.938381 1.02409 0
M  V30 34819 O 2767.03 -1.70876 0.0650402 0
M  V30 34820 N 2766.93 0.444647 0.805413 0
M  V30 34821 C 2766.93 1.40829 1.79435 0
M  V30 34822 N 2766.8 2.67213 1.38558 0
M  V30 34823 N 2767.06 1.12947 3.09005 0
M  V30 34824 C 2767.18 -0.204887 3.32369 0
M  V30 34825 H 2770.16 -1.93423 8.4679 0
M  V30 34826 H 2770.43 -1.68181 6.71046 0
M  V30 34827 H 2769.57 0.289041 8.15388 0
M  V30 34828 H 2766.91 0.927166 5.72947 0
M  V30 34829 H 2766.63 -1.87 6.82132 0
M  V30 34830 H 2765.64 -0.404009 7.13457 0
M  V30 34831 H 2767.47 -1.20612 8.97633 0
M  V30 34832 H 2767.52 -2.88284 5.10874 0
M  V30 34833 H 2766.84 0.755087 -0.140242 0
M  V30 34834 H 2766.8 3.43967 2.0729 0
M  V30 34835 H 2766.7 2.88096 0.380644 0
M  V30 34836 P 2765.6 1.17771 8.83182 0
M  V30 34837 O 2765.38 2.07206 9.98732 0
M  V30 34838 O 2764.81 -0.0743816 8.81969 0
M  V30 34839 O 2765.35 1.97652 7.47304 0
M  V30 34840 C 2766.29 3.01133 7.08783 0
M  V30 34841 C 2765.56 4.12613 6.37049 0
M  V30 34842 O 2765.35 3.72827 4.97879 0
M  V30 34843 C 2764.16 4.45085 6.88694 0
M  V30 34844 O 2763.77 5.7877 6.5624 0
M  V30 34845 C 2763.28 3.47817 6.12078 0
M  V30 34846 C 2763.99 3.39414 4.77697 0
M  V30 34847 N 2763.94 2.04615 4.15333 0
M  V30 34848 H 2766.78 3.41248 7.98759 0
M  V30 34849 H 2767.05 2.5837 6.41742 0
M  V30 34850 H 2766.19 5.02657 6.42673 0
M  V30 34851 P 2762.22 6.144 6.45285 0
M  V30 34852 O 2762 7.54673 6.86199 0
M  V30 34853 O 2761.43 5.12391 7.179 0
M  V30 34854 O 2761.97 5.99158 4.88404 0
M  V30 34855 C 2762.91 6.60234 3.96415 0
M  V30 34856 C 2762.18 7.08259 2.72856 0
M  V30 34857 O 2761.97 5.9427 1.83651 0
M  V30 34858 C 2760.78 7.64886 2.9555 0
M  V30 34859 O 2760.39 8.53963 1.90717 0
M  V30 34860 C 2759.9 6.4116 2.90739 0
M  V30 34861 C 2760.61 5.55375 1.86963 0
M  V30 34862 N 2760.56 4.09664 2.15742 0
M  V30 34863 H 2763.4 7.45574 4.45629 0
M  V30 34864 H 2763.67 5.86232 3.67314 0
M  V30 34865 H 2762.81 7.84412 2.24479 0
M  V30 34866 P 2758.84 8.7635 1.60911 0
M  V30 34867 O 2758.62 10.1388 1.11561 0
M  V30 34868 O 2758.05 8.36503 2.79617 0
M  V30 34869 O 2758.59 7.71806 0.42951 0
M  V30 34870 C 2759.53 7.67148 -0.673689 0
M  V30 34871 C 2758.8 7.33374 -1.95559 0
M  V30 34872 O 2758.59 5.88721 -2.00726 0
M  V30 34873 C 2757.4 7.92526 -2.10483 0
M  V30 34874 O 2757.01 8.02971 -3.47653 0
M  V30 34875 C 2756.52 6.89602 -1.41652 0
M  V30 34876 C 2757.23 5.59201 -1.75185 0
M  V30 34877 N 2757.18 4.58301 -0.657969 0
M  V30 34878 H 2760.02 8.65116 -0.777161 0
M  V30 34879 H 2760.29 6.9022 -0.46725 0
M  V30 34880 H 2759.43 7.66548 -2.79458 0
M  V30 34881 H 2756.77 5.16165 -2.65183 0
M  V30 34882 H 2756.49 7.06433 -0.329384 0
M  V30 34883 H 2755.5 6.90926 -1.82021 0
M  V30 34884 H 2757.33 8.90873 -1.62657 0
M  V30 34885 P 2755.46 8.03563 -3.84925 0
M  V30 34886 O 2755.24 8.85821 -5.0569 0
M  V30 34887 O 2754.67 8.41101 -2.65469 0
M  V30 34888 O 2755.21 6.4965 -4.18908 0
M  V30 34889 C 2756.15 5.81037 -5.05421 0
M  V30 34890 C 2755.42 4.78366 -5.89277 0
M  V30 34891 O 2755.21 3.58302 -5.08433 0
M  V30 34892 C 2754.02 5.17448 -6.36119 0
M  V30 34893 O 2753.63 4.45271 -7.53232 0
M  V30 34894 C 2753.14 4.74639 -5.19936 0
M  V30 34895 C 2753.85 3.49432 -4.70418 0
M  V30 34896 N 2753.8 3.31776 -3.22945 0
M  V30 34897 H 2756.64 6.54213 -5.71376 0
M  V30 34898 H 2756.91 5.30492 -4.44033 0
M  V30 34899 H 2756.05 4.55889 -6.76652 0
M  V30 34900 P 2752.08 4.23843 -7.83734 0
M  V30 34901 O 2751.86 4.19407 -9.29784 0
M  V30 34902 O 2751.29 5.24426 -7.09156 0
M  V30 34903 O 2751.83 2.7935 -7.20758 0
M  V30 34904 C 2752.77 1.72945 -7.50224 0
M  V30 34905 C 2752.04 0.406376 -7.57911 0
M  V30 34906 O 2751.83 -0.0897726 -6.21935 0
M  V30 34907 C 2750.64 0.438983 -8.18724 0
M  V30 34908 O 2750.25 -0.825065 -8.71101 0
M  V30 34909 C 2749.76 0.783689 -6.99524 0
M  V30 34910 C 2750.47 0.0619086 -5.85867 0
M  V30 34911 N 2750.42 0.78573 -4.56183 0
M  V30 34912 C 2750.27 0.0292889 -3.41887 0
M  V30 34913 O 2750.18 -1.18445 -3.4419 0
M  V30 34914 N 2750.23 0.744061 -2.23964 0
M  V30 34915 C 2750.32 2.10932 -2.10362 0
M  V30 34916 O 2750.27 2.64117 -0.98825 0
M  V30 34917 C 2750.47 2.8202 -3.34994 0
M  V30 34918 C 2750.58 4.31095 -3.25037 0
M  V30 34919 C 2750.52 2.15547 -4.52261 0
M  V30 34920 H 2753.26 1.93379 -8.46595 0
M  V30 34921 H 2753.53 1.68132 -6.70852 0
M  V30 34922 H 2752.67 -0.289041 -8.15388 0
M  V30 34923 H 2750.01 -0.926847 -5.72749 0
M  V30 34924 H 2749.73 1.86973 -6.82036 0
M  V30 34925 H 2748.74 0.403896 -7.13257 0
M  V30 34926 H 2750.57 1.20585 -8.97435 0
M  V30 34927 H 2750.65 2.71231 -5.45042 0
M  V30 34928 H 2749.62 4.76966 -3.49992 0
M  V30 34929 H 2751.35 4.67047 -3.95024 0
M  V30 34930 H 2750.86 4.58996 -2.22312 0
M  V30 34931 H 2750.13 0.214893 -1.39758 0
M  V30 34932 P 2748.7 -1.17771 -8.83182 0
M  V30 34933 O 2748.48 -2.07206 -9.98732 0
M  V30 34934 O 2747.91 0.0743816 -8.81969 0
M  V30 34935 O 2748.45 -1.97652 -7.47304 0
M  V30 34936 C 2749.39 -3.01055 -7.08599 0
M  V30 34937 C 2748.66 -4.12613 -6.37049 0
M  V30 34938 O 2748.45 -3.72827 -4.97879 0
M  V30 34939 C 2747.26 -4.45719 -6.88164 0
M  V30 34940 O 2746.87 -5.7877 -6.5624 0
M  V30 34941 C 2746.38 -3.47768 -6.11991 0
M  V30 34942 C 2747.09 -3.39356 -4.77615 0
M  V30 34943 N 2747.04 -2.04571 -4.15244 0
M  V30 34944 C 2746.89 -1.98587 -2.78314 0
M  V30 34945 O 2746.8 -2.98134 -2.08835 0
M  V30 34946 N 2746.85 -0.714467 -2.24925 0
M  V30 34947 C 2746.94 0.470001 -2.94169 0
M  V30 34948 O 2746.89 1.55587 -2.35195 0
M  V30 34949 C 2747.09 0.312541 -4.36783 0
M  V30 34950 C 2747.2 1.57711 -5.16352 0
M  V30 34951 C 2747.14 -0.914512 -4.92583 0
M  V30 34952 H 2749.88 -3.41169 -7.98575 0
M  V30 34953 H 2750.15 -2.58295 -6.41556 0
M  V30 34954 H 2749.29 -5.02657 -6.42673 0
M  V30 34955 H 2746.63 -4.11637 -4.08885 0
M  V30 34956 H 2746.35 -2.49626 -6.61679 0
M  V30 34957 H 2745.36 -3.86566 -6.00778 0
M  V30 34958 H 2747.19 -4.29943 -7.96918 0
M  V30 34959 H 2747.27 -1.00937 -6.00374 0
M  V30 34960 H 2746.24 1.80153 -5.63503 0
M  V30 34961 H 2747.97 1.4566 -5.94104 0
M  V30 34962 H 2747.48 2.40664 -4.49645 0
M  V30 34963 H 2746.75 -0.647622 -1.25697 0
M  V30 34964 P 2745.32 -6.144 -6.45285 0
M  V30 34965 O 2745.1 -7.54673 -6.86199 0
M  V30 34966 O 2744.53 -5.12391 -7.179 0
M  V30 34967 O 2745.07 -5.99158 -4.88404 0
M  V30 34968 C 2746.01 -6.60234 -3.96415 0
M  V30 34969 C 2745.28 -7.08259 -2.72856 0
M  V30 34970 O 2745.07 -5.9427 -1.83651 0
M  V30 34971 C 2743.88 -7.64886 -2.9555 0
M  V30 34972 O 2743.49 -8.53963 -1.90717 0
M  V30 34973 C 2743 -6.4116 -2.90739 0
M  V30 34974 C 2743.71 -5.55375 -1.86963 0
M  V30 34975 N 2743.66 -4.09664 -2.15742 0
M  V30 34976 H 2746.5 -7.45574 -4.45629 0
M  V30 34977 H 2746.77 -5.86232 -3.67314 0
M  V30 34978 H 2745.91 -7.84412 -2.24479 0
M  V30 34979 P 2741.94 -8.7635 -1.60911 0
M  V30 34980 O 2741.72 -10.1388 -1.11561 0
M  V30 34981 O 2741.15 -8.36503 -2.79617 0
M  V30 34982 O 2741.69 -7.71806 -0.42951 0
M  V30 34983 C 2742.63 -7.67148 0.673689 0
M  V30 34984 C 2741.9 -7.33374 1.95559 0
M  V30 34985 O 2741.69 -5.88721 2.00726 0
M  V30 34986 C 2740.5 -7.92526 2.10483 0
M  V30 34987 O 2740.11 -8.02971 3.47653 0
M  V30 34988 C 2739.62 -6.89602 1.41652 0
M  V30 34989 C 2740.33 -5.59201 1.75185 0
M  V30 34990 N 2740.28 -4.58235 0.662552 0
M  V30 34991 H 2743.12 -8.65116 0.777161 0
M  V30 34992 H 2743.39 -6.90173 0.474152 0
M  V30 34993 H 2742.53 -7.66548 2.79458 0
M  V30 34994 P 2738.56 -8.03563 3.84925 0
M  V30 34995 O 2738.34 -8.85821 5.0569 0
M  V30 34996 O 2737.77 -8.41101 2.65469 0
M  V30 34997 O 2738.31 -6.4965 4.18908 0
M  V30 34998 C 2739.25 -5.81037 5.05421 0
M  V30 34999 C 2738.52 -4.78366 5.89277 0
M  V30 35000 O 2738.31 -3.58302 5.08433 0
M  V30 35001 C 2737.12 -5.17448 6.36119 0
M  V30 35002 O 2736.73 -4.45271 7.53232 0
M  V30 35003 C 2736.24 -4.74639 5.19936 0
M  V30 35004 C 2736.95 -3.49432 4.70418 0
M  V30 35005 N 2736.9 -3.32099 3.22613 0
M  V30 35006 H 2739.74 -6.54213 5.71376 0
M  V30 35007 H 2740.01 -5.30936 4.43503 0
M  V30 35008 H 2739.15 -4.55889 6.76652 0
M  V30 35009 H 2736.49 -2.61715 5.17932 0
M  V30 35010 H 2736.21 -5.52155 4.41878 0
M  V30 35011 H 2735.22 -4.51981 5.53374 0
M  V30 35012 H 2737.05 -6.25124 6.55234 0
M  V30 35013 P 2735.18 -4.23843 7.83734 0
M  V30 35014 O 2734.96 -4.19407 9.29784 0
M  V30 35015 O 2734.39 -5.24426 7.09156 0
M  V30 35016 O 2734.93 -2.7935 7.20758 0
M  V30 35017 C 2735.87 -1.7299 7.50419 0
M  V30 35018 C 2735.14 -0.406376 7.57911 0
M  V30 35019 O 2734.93 0.0897726 6.21935 0
M  V30 35020 C 2733.74 -0.447224 8.1878 0
M  V30 35021 O 2733.35 0.825065 8.71101 0
M  V30 35022 C 2732.86 -0.783801 6.99623 0
M  V30 35023 C 2733.57 -0.0619192 5.85967 0
M  V30 35024 N 2733.52 -0.790462 4.56202 0
M  V30 35025 H 2736.36 -1.93423 8.4679 0
M  V30 35026 H 2736.63 -1.68852 6.70877 0
M  V30 35027 H 2735.77 0.289041 8.15388 0
M  V30 35028 H 2733.11 0.927006 5.72848 0
M  V30 35029 H 2732.83 -1.86973 6.82036 0
M  V30 35030 H 2731.84 -0.403953 7.13357 0
M  V30 35031 H 2733.67 -1.20599 8.97534 0
M  V30 35032 P 2731.8 1.17771 8.83182 0
M  V30 35033 O 2731.58 2.07206 9.98732 0
M  V30 35034 O 2731.01 -0.0743816 8.81969 0
M  V30 35035 O 2731.55 1.97652 7.47304 0
M  V30 35036 C 2732.49 3.01133 7.08783 0
M  V30 35037 C 2731.76 4.12613 6.37049 0
M  V30 35038 O 2731.55 3.72827 4.97879 0
M  V30 35039 C 2730.36 4.45085 6.88694 0
M  V30 35040 O 2729.97 5.7877 6.5624 0
M  V30 35041 C 2729.48 3.47817 6.12078 0
M  V30 35042 C 2730.19 3.39414 4.77697 0
M  V30 35043 N 2730.14 2.04615 4.15333 0
M  V30 35044 H 2732.98 3.41248 7.98759 0
M  V30 35045 H 2733.25 2.5837 6.41742 0
M  V30 35046 H 2732.39 5.02657 6.42673 0
M  V30 35047 P 2728.42 6.144 6.45285 0
M  V30 35048 O 2728.2 7.54673 6.86199 0
M  V30 35049 O 2727.63 5.12391 7.179 0
M  V30 35050 O 2728.17 5.99158 4.88404 0
M  V30 35051 C 2729.11 6.60234 3.96415 0
M  V30 35052 C 2728.38 7.08259 2.72856 0
M  V30 35053 O 2728.17 5.9427 1.83651 0
M  V30 35054 C 2726.98 7.64886 2.9555 0
M  V30 35055 O 2726.59 8.53963 1.90717 0
M  V30 35056 C 2726.1 6.4116 2.90739 0
M  V30 35057 C 2726.81 5.55375 1.86963 0
M  V30 35058 N 2726.76 4.09664 2.15742 0
M  V30 35059 H 2729.6 7.45574 4.45629 0
M  V30 35060 H 2729.87 5.86232 3.67314 0
M  V30 35061 H 2729.01 7.84412 2.24479 0
M  V30 35062 P 2725.04 8.7635 1.60911 0
M  V30 35063 O 2724.82 10.1388 1.11561 0
M  V30 35064 O 2724.25 8.36503 2.79617 0
M  V30 35065 O 2724.79 7.71806 0.42951 0
M  V30 35066 C 2725.73 7.67148 -0.673689 0
M  V30 35067 C 2725 7.33374 -1.95559 0
M  V30 35068 O 2724.79 5.88721 -2.00726 0
M  V30 35069 C 2723.6 7.92526 -2.10483 0
M  V30 35070 O 2723.21 8.02971 -3.47653 0
M  V30 35071 C 2722.72 6.89602 -1.41652 0
M  V30 35072 C 2723.43 5.59201 -1.75185 0
M  V30 35073 N 2723.38 4.58235 -0.662552 0
M  V30 35074 H 2726.22 8.65116 -0.777161 0
M  V30 35075 H 2726.49 6.90173 -0.474152 0
M  V30 35076 H 2725.63 7.66548 -2.79458 0
M  V30 35077 P 2721.66 8.03563 -3.84925 0
M  V30 35078 O 2721.44 8.85821 -5.0569 0
M  V30 35079 O 2720.87 8.41101 -2.65469 0
M  V30 35080 O 2721.41 6.4965 -4.18908 0
M  V30 35081 C 2722.35 5.80886 -5.05289 0
M  V30 35082 C 2721.62 4.78366 -5.89277 0
M  V30 35083 O 2721.41 3.58302 -5.08433 0
M  V30 35084 C 2720.22 5.16748 -6.36559 0
M  V30 35085 O 2719.83 4.45271 -7.53232 0
M  V30 35086 C 2719.34 4.74572 -5.19863 0
M  V30 35087 C 2720.05 3.49373 -4.70338 0
M  V30 35088 N 2720 3.31704 -3.22876 0
M  V30 35089 C 2719.85 2.03326 -2.74871 0
M  V30 35090 O 2719.76 1.06486 -3.48076 0
M  V30 35091 N 2719.81 1.91838 -1.37456 0
M  V30 35092 C 2719.9 2.94295 -0.462035 0
M  V30 35093 O 2719.85 2.71763 0.752928 0
M  V30 35094 C 2720.05 4.25064 -1.05249 0
M  V30 35095 C 2720.16 5.39815 -0.095697 0
M  V30 35096 C 2720.1 4.40214 -2.39192 0
M  V30 35097 H 2722.84 6.54063 -5.71245 0
M  V30 35098 H 2723.11 5.30339 -4.43905 0
M  V30 35099 H 2722.25 4.55889 -6.76652 0
M  V30 35100 H 2719.59 2.6167 -5.17842 0
M  V30 35101 H 2719.31 5.52155 -4.41878 0
M  V30 35102 H 2718.32 4.51918 -5.53297 0
M  V30 35103 H 2720.15 6.25055 -6.55162 0
M  V30 35104 H 2720.23 5.39798 -2.81523 0
M  V30 35105 H 2719.2 5.91593 -0.0279582 0
M  V30 35106 H 2720.93 6.10038 -0.450573 0
M  V30 35107 H 2720.44 5.02007 0.89937 0
M  V30 35108 H 2719.71 0.995326 -1.00435 0
M  V30 35109 P 2718.28 4.23843 -7.83734 0
M  V30 35110 O 2718.06 4.19407 -9.29784 0
M  V30 35111 O 2717.49 5.24426 -7.09156 0
M  V30 35112 O 2718.03 2.7935 -7.20758 0
M  V30 35113 C 2718.97 1.7299 -7.50419 0
M  V30 35114 C 2718.24 0.406376 -7.57911 0
M  V30 35115 O 2718.03 -0.0897726 -6.21935 0
M  V30 35116 C 2716.84 0.447224 -8.1878 0
M  V30 35117 O 2716.45 -0.825065 -8.71101 0
M  V30 35118 C 2715.96 0.783801 -6.99623 0
M  V30 35119 C 2716.67 0.0619192 -5.85967 0
M  V30 35120 N 2716.62 0.7859 -4.56281 0
M  V30 35121 H 2719.46 1.93423 -8.4679 0
M  V30 35122 H 2719.73 1.68181 -6.71046 0
M  V30 35123 H 2718.87 -0.289041 -8.15388 0
M  V30 35124 P 2714.9 -1.17771 -8.83182 0
M  V30 35125 O 2714.68 -2.07206 -9.98732 0
M  V30 35126 O 2714.11 0.0743816 -8.81969 0
M  V30 35127 O 2714.65 -1.97652 -7.47304 0
M  V30 35128 C 2715.59 -3.01133 -7.08783 0
M  V30 35129 C 2714.86 -4.12613 -6.37049 0
M  V30 35130 O 2714.65 -3.72827 -4.97879 0
M  V30 35131 C 2713.46 -4.45085 -6.88694 0
M  V30 35132 O 2713.07 -5.7877 -6.5624 0
M  V30 35133 C 2712.58 -3.47817 -6.12078 0
M  V30 35134 C 2713.29 -3.39414 -4.77697 0
M  V30 35135 N 2713.24 -2.04615 -4.15333 0
M  V30 35136 H 2716.08 -3.41248 -7.98759 0
M  V30 35137 H 2716.35 -2.5837 -6.41742 0
M  V30 35138 H 2715.49 -5.02657 -6.42673 0
M  V30 35139 P 2711.52 -6.144 -6.45285 0
M  V30 35140 O 2711.3 -7.54673 -6.86199 0
M  V30 35141 O 2710.73 -5.12391 -7.179 0
M  V30 35142 O 2711.27 -5.99158 -4.88404 0
M  V30 35143 C 2712.21 -6.60234 -3.96415 0
M  V30 35144 C 2711.48 -7.08259 -2.72856 0
M  V30 35145 O 2711.27 -5.9427 -1.83651 0
M  V30 35146 C 2710.08 -7.64886 -2.9555 0
M  V30 35147 O 2709.69 -8.53963 -1.90717 0
M  V30 35148 C 2709.2 -6.4116 -2.90739 0
M  V30 35149 C 2709.91 -5.55375 -1.86963 0
M  V30 35150 N 2709.86 -4.09664 -2.15742 0
M  V30 35151 H 2712.7 -7.45574 -4.45629 0
M  V30 35152 H 2712.97 -5.86232 -3.67314 0
M  V30 35153 H 2712.11 -7.84412 -2.24479 0
M  V30 35154 P 2708.14 -8.7635 -1.60911 0
M  V30 35155 O 2707.92 -10.1388 -1.11561 0
M  V30 35156 O 2707.35 -8.36503 -2.79617 0
M  V30 35157 O 2707.89 -7.71806 -0.42951 0
M  V30 35158 C 2708.83 -7.67148 0.673689 0
M  V30 35159 C 2708.1 -7.33374 1.95559 0
M  V30 35160 O 2707.89 -5.88721 2.00726 0
M  V30 35161 C 2706.7 -7.92526 2.10483 0
M  V30 35162 O 2706.31 -8.02971 3.47653 0
M  V30 35163 C 2705.82 -6.89602 1.41652 0
M  V30 35164 C 2706.53 -5.59201 1.75185 0
M  V30 35165 N 2706.48 -4.58235 0.662552 0
M  V30 35166 H 2709.32 -8.65116 0.777161 0
M  V30 35167 H 2709.6 -6.90173 0.474152 0
M  V30 35168 H 2708.73 -7.66548 2.79458 0
M  V30 35169 P 2704.76 -8.03563 3.84925 0
M  V30 35170 O 2704.54 -8.85821 5.0569 0
M  V30 35171 O 2703.97 -8.41101 2.65469 0
M  V30 35172 O 2704.51 -6.4965 4.18908 0
M  V30 35173 C 2705.45 -5.81037 5.05421 0
M  V30 35174 C 2704.72 -4.78366 5.89277 0
M  V30 35175 O 2704.51 -3.58302 5.08433 0
M  V30 35176 C 2703.32 -5.17448 6.36119 0
M  V30 35177 O 2702.93 -4.45271 7.53232 0
M  V30 35178 C 2702.44 -4.74639 5.19936 0
M  V30 35179 C 2703.15 -3.49432 4.70418 0
M  V30 35180 N 2703.1 -3.32099 3.22613 0
M  V30 35181 H 2705.94 -6.54213 5.71376 0
M  V30 35182 H 2706.22 -5.30936 4.43503 0
M  V30 35183 H 2705.35 -4.55889 6.76652 0
M  V30 35184 H 2702.69 -2.61715 5.17932 0
M  V30 35185 H 2702.41 -5.52155 4.41878 0
M  V30 35186 H 2701.42 -4.51981 5.53374 0
M  V30 35187 H 2703.26 -6.25124 6.55234 0
M  V30 35188 P 2701.38 -4.23843 7.83734 0
M  V30 35189 O 2701.16 -4.19407 9.29784 0
M  V30 35190 O 2700.59 -5.24426 7.09156 0
M  V30 35191 O 2701.13 -2.7935 7.20758 0
M  V30 35192 C 2702.07 -1.7299 7.50419 0
M  V30 35193 C 2701.34 -0.406376 7.57911 0
M  V30 35194 O 2701.13 0.0897726 6.21935 0
M  V30 35195 C 2699.94 -0.447224 8.1878 0
M  V30 35196 O 2699.55 0.825065 8.71101 0
M  V30 35197 C 2699.06 -0.783801 6.99623 0
M  V30 35198 C 2699.77 -0.0619192 5.85967 0
M  V30 35199 N 2699.72 -0.7859 4.56281 0
M  V30 35200 H 2702.56 -1.93423 8.4679 0
M  V30 35201 H 2702.84 -1.68181 6.71046 0
M  V30 35202 H 2701.97 0.289041 8.15388 0
M  V30 35203 P 2698 1.17771 8.83182 0
M  V30 35204 O 2697.78 2.07206 9.98732 0
M  V30 35205 O 2697.21 -0.0743816 8.81969 0
M  V30 35206 O 2697.75 1.97652 7.47304 0
M  V30 35207 C 2698.69 3.01133 7.08783 0
M  V30 35208 C 2697.96 4.12613 6.37049 0
M  V30 35209 O 2697.75 3.72827 4.97879 0
M  V30 35210 C 2696.56 4.45085 6.88694 0
M  V30 35211 O 2696.17 5.7877 6.5624 0
M  V30 35212 C 2695.68 3.47817 6.12078 0
M  V30 35213 C 2696.39 3.39414 4.77697 0
M  V30 35214 N 2696.34 2.04615 4.15333 0
M  V30 35215 H 2699.18 3.41248 7.98759 0
M  V30 35216 H 2699.46 2.5837 6.41742 0
M  V30 35217 H 2698.59 5.02657 6.42673 0
M  V30 35218 P 2694.62 6.144 6.45285 0
M  V30 35219 O 2694.4 7.54673 6.86199 0
M  V30 35220 O 2693.83 5.12391 7.179 0
M  V30 35221 O 2694.37 5.99158 4.88404 0
M  V30 35222 C 2695.31 6.60234 3.96415 0
M  V30 35223 C 2694.58 7.08259 2.72856 0
M  V30 35224 O 2694.37 5.9427 1.83651 0
M  V30 35225 C 2693.18 7.64886 2.9555 0
M  V30 35226 O 2692.79 8.53963 1.90717 0
M  V30 35227 C 2692.3 6.4116 2.90739 0
M  V30 35228 C 2693.01 5.55375 1.86963 0
M  V30 35229 N 2692.96 4.09664 2.15742 0
M  V30 35230 H 2695.8 7.45574 4.45629 0
M  V30 35231 H 2696.08 5.86232 3.67314 0
M  V30 35232 H 2695.21 7.84412 2.24479 0
M  V30 35233 P 2691.24 8.7635 1.60911 0
M  V30 35234 O 2691.02 10.1388 1.11561 0
M  V30 35235 O 2690.45 8.36503 2.79617 0
M  V30 35236 O 2690.99 7.71806 0.42951 0
M  V30 35237 C 2691.93 7.66948 -0.673514 0
M  V30 35238 C 2691.2 7.33374 -1.95559 0
M  V30 35239 O 2690.99 5.88721 -2.00726 0
M  V30 35240 C 2689.8 7.92218 -2.1125 0
M  V30 35241 O 2689.41 8.02971 -3.47653 0
M  V30 35242 C 2688.92 6.89504 -1.41631 0
M  V30 35243 C 2689.63 5.59106 -1.75155 0
M  V30 35244 N 2689.58 4.58136 -0.662409 0
M  V30 35245 C 2689.43 3.26059 -1.02863 0
M  V30 35246 O 2689.34 2.90743 -2.19009 0
M  V30 35247 N 2689.39 2.35995 0.0155585 0
M  V30 35248 C 2689.48 2.65248 1.35603 0
M  V30 35249 C 2689.63 4.05747 1.64698 0
M  V30 35250 C 2689.68 4.96734 0.652411 0
M  V30 35251 H 2692.43 8.64917 -0.776982 0
M  V30 35252 H 2692.69 6.89974 -0.474015 0
M  V30 35253 H 2691.83 7.66548 -2.79458 0
M  V30 35254 H 2689.17 5.16076 -2.65138 0
M  V30 35255 H 2688.89 7.06433 -0.329384 0
M  V30 35256 H 2687.9 6.90829 -1.81996 0
M  V30 35257 H 2689.74 8.90774 -1.62639 0
M  V30 35258 H 2689.81 6.02181 0.895285 0
M  V30 35259 P 2687.86 8.03563 -3.84925 0
M  V30 35260 O 2687.64 8.85821 -5.0569 0
M  V30 35261 O 2687.07 8.41101 -2.65469 0
M  V30 35262 O 2687.61 6.4965 -4.18908 0
M  V30 35263 C 2688.55 5.81037 -5.05421 0
M  V30 35264 C 2687.82 4.78366 -5.89277 0
M  V30 35265 O 2687.61 3.58302 -5.08433 0
M  V30 35266 C 2686.42 5.17448 -6.36119 0
M  V30 35267 O 2686.03 4.45271 -7.53232 0
M  V30 35268 C 2685.54 4.74639 -5.19936 0
M  V30 35269 C 2686.25 3.49432 -4.70418 0
M  V30 35270 N 2686.2 3.32099 -3.22613 0
M  V30 35271 H 2689.04 6.54213 -5.71376 0
M  V30 35272 H 2689.32 5.30936 -4.43503 0
M  V30 35273 H 2688.45 4.55889 -6.76652 0
M  V30 35274 H 2685.79 2.61715 -5.17932 0
M  V30 35275 H 2685.51 5.52155 -4.41878 0
M  V30 35276 H 2684.52 4.51981 -5.53374 0
M  V30 35277 H 2686.36 6.25124 -6.55234 0
M  V30 35278 P 2684.48 4.23843 -7.83734 0
M  V30 35279 O 2684.26 4.19407 -9.29784 0
M  V30 35280 O 2683.69 5.24426 -7.09156 0
M  V30 35281 O 2684.23 2.7935 -7.20758 0
M  V30 35282 C 2685.17 1.72945 -7.50224 0
M  V30 35283 C 2684.44 0.406376 -7.57911 0
M  V30 35284 O 2684.23 -0.0897726 -6.21935 0
M  V30 35285 C 2683.04 0.438983 -8.18724 0
M  V30 35286 O 2682.65 -0.825065 -8.71101 0
M  V30 35287 C 2682.16 0.783689 -6.99524 0
M  V30 35288 C 2682.87 0.0619086 -5.85867 0
M  V30 35289 N 2682.82 0.78573 -4.56183 0
M  V30 35290 C 2682.67 0.0292889 -3.41887 0
M  V30 35291 O 2682.58 -1.18445 -3.4419 0
M  V30 35292 N 2682.63 0.744061 -2.23964 0
M  V30 35293 C 2682.72 2.10932 -2.10362 0
M  V30 35294 C 2682.87 2.8202 -3.34994 0
M  V30 35295 C 2682.92 2.15547 -4.52261 0
M  V30 35296 H 2685.67 1.93379 -8.46595 0
M  V30 35297 H 2685.93 1.68132 -6.70852 0
M  V30 35298 H 2685.07 -0.289041 -8.15388 0
M  V30 35299 H 2682.41 -0.926847 -5.72749 0
M  V30 35300 H 2682.13 1.86973 -6.82036 0
M  V30 35301 H 2681.14 0.403896 -7.13257 0
M  V30 35302 H 2682.98 1.20585 -8.97435 0
M  V30 35303 H 2683.05 2.71231 -5.45042 0
M  V30 35304 P 2681.1 -1.17771 -8.83182 0
M  V30 35305 O 2680.88 -2.07206 -9.98732 0
M  V30 35306 O 2680.31 0.0743816 -8.81969 0
M  V30 35307 O 2680.85 -1.97652 -7.47304 0
M  V30 35308 C 2681.79 -3.01133 -7.08783 0
M  V30 35309 C 2681.06 -4.12613 -6.37049 0
M  V30 35310 O 2680.85 -3.72827 -4.97879 0
M  V30 35311 C 2679.66 -4.45085 -6.88694 0
M  V30 35312 O 2679.27 -5.7877 -6.5624 0
M  V30 35313 C 2678.78 -3.47817 -6.12078 0
M  V30 35314 C 2679.49 -3.39414 -4.77697 0
M  V30 35315 N 2679.44 -2.04615 -4.15333 0
M  V30 35316 H 2682.28 -3.41248 -7.98759 0
M  V30 35317 H 2682.56 -2.5837 -6.41742 0
M  V30 35318 H 2681.69 -5.02657 -6.42673 0
M  V30 35319 P 2677.72 -6.144 -6.45285 0
M  V30 35320 O 2677.5 -7.54673 -6.86199 0
M  V30 35321 O 2676.93 -5.12391 -7.179 0
M  V30 35322 O 2677.47 -5.99158 -4.88404 0
M  V30 35323 C 2678.41 -6.60234 -3.96415 0
M  V30 35324 C 2677.68 -7.08259 -2.72856 0
M  V30 35325 O 2677.47 -5.9427 -1.83651 0
M  V30 35326 C 2676.28 -7.64886 -2.9555 0
M  V30 35327 O 2675.89 -8.53963 -1.90717 0
M  V30 35328 C 2675.4 -6.4116 -2.90739 0
M  V30 35329 C 2676.11 -5.55375 -1.86963 0
M  V30 35330 N 2676.06 -4.09664 -2.15742 0
M  V30 35331 H 2678.9 -7.45574 -4.45629 0
M  V30 35332 H 2679.18 -5.86232 -3.67314 0
M  V30 35333 H 2678.31 -7.84412 -2.24479 0
M  V30 35334 P 2674.34 -8.7635 -1.60911 0
M  V30 35335 O 2674.12 -10.1388 -1.11561 0
M  V30 35336 O 2673.55 -8.36503 -2.79617 0
M  V30 35337 O 2674.09 -7.71806 -0.42951 0
M  V30 35338 C 2675.03 -7.67148 0.673689 0
M  V30 35339 C 2674.3 -7.33374 1.95559 0
M  V30 35340 O 2674.09 -5.88721 2.00726 0
M  V30 35341 C 2672.9 -7.92526 2.10483 0
M  V30 35342 O 2672.51 -8.02971 3.47653 0
M  V30 35343 C 2672.02 -6.89602 1.41652 0
M  V30 35344 C 2672.73 -5.59201 1.75185 0
M  V30 35345 N 2672.68 -4.58301 0.657969 0
M  V30 35346 H 2675.52 -8.65116 0.777161 0
M  V30 35347 H 2675.8 -6.9022 0.46725 0
M  V30 35348 H 2674.93 -7.66548 2.79458 0
M  V30 35349 H 2672.27 -5.16165 2.65183 0
M  V30 35350 H 2671.99 -7.06433 0.329384 0
M  V30 35351 H 2671 -6.90926 1.82021 0
M  V30 35352 H 2672.84 -8.90873 1.62657 0
M  V30 35353 P 2670.96 -8.03563 3.84925 0
M  V30 35354 O 2670.74 -8.85821 5.0569 0
M  V30 35355 O 2670.17 -8.41101 2.65469 0
M  V30 35356 O 2670.71 -6.4965 4.18908 0
M  V30 35357 C 2671.65 -5.80886 5.05289 0
M  V30 35358 C 2670.92 -4.78366 5.89277 0
M  V30 35359 O 2670.71 -3.58302 5.08433 0
M  V30 35360 C 2669.52 -5.16748 6.36559 0
M  V30 35361 O 2669.13 -4.45271 7.53232 0
M  V30 35362 C 2668.64 -4.74572 5.19863 0
M  V30 35363 C 2669.35 -3.49373 4.70338 0
M  V30 35364 N 2669.3 -3.31704 3.22876 0
M  V30 35365 C 2669.15 -2.03326 2.74871 0
M  V30 35366 O 2669.06 -1.06486 3.48076 0
M  V30 35367 N 2669.11 -1.91838 1.37456 0
M  V30 35368 C 2669.2 -2.94295 0.462035 0
M  V30 35369 C 2669.35 -4.25064 1.05249 0
M  V30 35370 C 2669.4 -4.40214 2.39192 0
M  V30 35371 H 2672.15 -6.54063 5.71245 0
M  V30 35372 H 2672.41 -5.30339 4.43905 0
M  V30 35373 H 2671.55 -4.55889 6.76652 0
M  V30 35374 H 2668.89 -2.6167 5.17842 0
M  V30 35375 H 2668.61 -5.52155 4.41878 0
M  V30 35376 H 2667.62 -4.51918 5.53297 0
M  V30 35377 H 2669.46 -6.25055 6.55162 0
M  V30 35378 H 2669.53 -5.39798 2.81523 0
M  V30 35379 P 2667.58 -4.23843 7.83734 0
M  V30 35380 O 2667.36 -4.19407 9.29784 0
M  V30 35381 O 2666.79 -5.24426 7.09156 0
M  V30 35382 O 2667.33 -2.7935 7.20758 0
M  V30 35383 C 2668.27 -1.7299 7.50419 0
M  V30 35384 C 2667.54 -0.406376 7.57911 0
M  V30 35385 O 2667.33 0.0897726 6.21935 0
M  V30 35386 C 2666.14 -0.447224 8.1878 0
M  V30 35387 O 2665.75 0.825065 8.71101 0
M  V30 35388 C 2665.26 -0.783801 6.99623 0
M  V30 35389 C 2665.97 -0.0619192 5.85967 0
M  V30 35390 N 2665.92 -0.7859 4.56281 0
M  V30 35391 H 2668.76 -1.93423 8.4679 0
M  V30 35392 H 2669.04 -1.68181 6.71046 0
M  V30 35393 H 2668.17 0.289041 8.15388 0
M  V30 35394 P 2664.2 1.17771 8.83182 0
M  V30 35395 O 2663.98 2.07206 9.98732 0
M  V30 35396 O 2663.41 -0.0743816 8.81969 0
M  V30 35397 O 2663.95 1.97652 7.47304 0
M  V30 35398 C 2664.89 3.01055 7.08599 0
M  V30 35399 C 2664.16 4.12613 6.37049 0
M  V30 35400 O 2663.95 3.72827 4.97879 0
M  V30 35401 C 2662.76 4.45719 6.88164 0
M  V30 35402 O 2662.37 5.7877 6.5624 0
M  V30 35403 C 2661.88 3.47768 6.11991 0
M  V30 35404 C 2662.59 3.39356 4.77615 0
M  V30 35405 N 2662.54 2.04571 4.15244 0
M  V30 35406 C 2662.39 1.98587 2.78314 0
M  V30 35407 O 2662.3 2.98134 2.08835 0
M  V30 35408 N 2662.35 0.714467 2.24925 0
M  V30 35409 C 2662.44 -0.470001 2.94169 0
M  V30 35410 O 2662.39 -1.55587 2.35195 0
M  V30 35411 C 2662.59 -0.312541 4.36783 0
M  V30 35412 C 2662.7 -1.57711 5.16352 0
M  V30 35413 C 2662.64 0.914512 4.92583 0
M  V30 35414 H 2665.39 3.41169 7.98575 0
M  V30 35415 H 2665.65 2.58295 6.41556 0
M  V30 35416 H 2664.79 5.02657 6.42673 0
M  V30 35417 H 2662.13 4.11637 4.08885 0
M  V30 35418 H 2661.85 2.49626 6.61679 0
M  V30 35419 H 2660.86 3.86566 6.00778 0
M  V30 35420 H 2662.7 4.29943 7.96918 0
M  V30 35421 H 2662.77 1.00937 6.00374 0
M  V30 35422 H 2661.74 -1.80153 5.63503 0
M  V30 35423 H 2663.47 -1.4566 5.94104 0
M  V30 35424 H 2662.99 -2.40664 4.49645 0
M  V30 35425 H 2662.25 0.647622 1.25697 0
M  V30 35426 P 2660.82 6.144 6.45285 0
M  V30 35427 O 2660.6 7.54673 6.86199 0
M  V30 35428 O 2660.03 5.12391 7.179 0
M  V30 35429 O 2660.57 5.99158 4.88404 0
M  V30 35430 C 2661.51 6.60234 3.96415 0
M  V30 35431 C 2660.78 7.08259 2.72856 0
M  V30 35432 O 2660.57 5.9427 1.83651 0
M  V30 35433 C 2659.38 7.64886 2.9555 0
M  V30 35434 O 2658.99 8.53963 1.90717 0
M  V30 35435 C 2658.5 6.4116 2.90739 0
M  V30 35436 C 2659.21 5.55375 1.86963 0
M  V30 35437 N 2659.16 4.09664 2.15742 0
M  V30 35438 H 2662 7.45574 4.45629 0
M  V30 35439 H 2662.28 5.86232 3.67314 0
M  V30 35440 H 2661.41 7.84412 2.24479 0
M  V30 35441 P 2657.44 8.7635 1.60911 0
M  V30 35442 O 2657.22 10.1388 1.11561 0
M  V30 35443 O 2656.65 8.36503 2.79617 0
M  V30 35444 O 2657.19 7.71806 0.42951 0
M  V30 35445 C 2658.13 7.67148 -0.673689 0
M  V30 35446 C 2657.4 7.33374 -1.95559 0
M  V30 35447 O 2657.19 5.88721 -2.00726 0
M  V30 35448 C 2656 7.92526 -2.10483 0
M  V30 35449 O 2655.61 8.02971 -3.47653 0
M  V30 35450 C 2655.12 6.89602 -1.41652 0
M  V30 35451 C 2655.83 5.59201 -1.75185 0
M  V30 35452 N 2655.78 4.58235 -0.662552 0
M  V30 35453 H 2658.62 8.65116 -0.777161 0
M  V30 35454 H 2658.9 6.90173 -0.474152 0
M  V30 35455 H 2658.03 7.66548 -2.79458 0
M  V30 35456 P 2654.06 8.03563 -3.84925 0
M  V30 35457 O 2653.84 8.85821 -5.0569 0
M  V30 35458 O 2653.27 8.41101 -2.65469 0
M  V30 35459 O 2653.81 6.4965 -4.18908 0
M  V30 35460 C 2654.75 5.81037 -5.05421 0
M  V30 35461 C 2654.02 4.78366 -5.89277 0
M  V30 35462 O 2653.81 3.58302 -5.08433 0
M  V30 35463 C 2652.62 5.17448 -6.36119 0
M  V30 35464 O 2652.23 4.45271 -7.53232 0
M  V30 35465 C 2651.74 4.74639 -5.19936 0
M  V30 35466 C 2652.45 3.49432 -4.70418 0
M  V30 35467 N 2652.4 3.32099 -3.22613 0
M  V30 35468 H 2655.24 6.54213 -5.71376 0
M  V30 35469 H 2655.52 5.30936 -4.43503 0
M  V30 35470 H 2654.65 4.55889 -6.76652 0
M  V30 35471 H 2651.99 2.61715 -5.17932 0
M  V30 35472 H 2651.71 5.52155 -4.41878 0
M  V30 35473 H 2650.72 4.51981 -5.53374 0
M  V30 35474 H 2652.56 6.25124 -6.55234 0
M  V30 35475 P 2650.68 4.23843 -7.83734 0
M  V30 35476 O 2650.46 4.19407 -9.29784 0
M  V30 35477 O 2649.89 5.24426 -7.09156 0
M  V30 35478 O 2650.43 2.7935 -7.20758 0
M  V30 35479 C 2651.37 1.72945 -7.50224 0
M  V30 35480 C 2650.64 0.406376 -7.57911 0
M  V30 35481 O 2650.43 -0.0897726 -6.21935 0
M  V30 35482 C 2649.24 0.438983 -8.18724 0
M  V30 35483 O 2648.85 -0.825065 -8.71101 0
M  V30 35484 C 2648.36 0.783689 -6.99524 0
M  V30 35485 C 2649.07 0.0619086 -5.85867 0
M  V30 35486 N 2649.02 0.78573 -4.56183 0
M  V30 35487 C 2648.87 0.0292889 -3.41887 0
M  V30 35488 O 2648.78 -1.18445 -3.4419 0
M  V30 35489 N 2648.83 0.744061 -2.23964 0
M  V30 35490 C 2648.92 2.10932 -2.10362 0
M  V30 35491 C 2649.07 2.8202 -3.34994 0
M  V30 35492 C 2649.12 2.15547 -4.52261 0
M  V30 35493 H 2651.87 1.93379 -8.46595 0
M  V30 35494 H 2652.13 1.68132 -6.70852 0
M  V30 35495 H 2651.27 -0.289041 -8.15388 0
M  V30 35496 H 2648.61 -0.926847 -5.72749 0
M  V30 35497 H 2648.33 1.86973 -6.82036 0
M  V30 35498 H 2647.34 0.403896 -7.13257 0
M  V30 35499 H 2649.18 1.20585 -8.97435 0
M  V30 35500 H 2649.25 2.71231 -5.45042 0
M  V30 35501 P 2647.3 -1.17771 -8.83182 0
M  V30 35502 O 2647.08 -2.07206 -9.98732 0
M  V30 35503 O 2646.51 0.0743816 -8.81969 0
M  V30 35504 O 2647.05 -1.97652 -7.47304 0
M  V30 35505 C 2647.99 -3.01133 -7.08783 0
M  V30 35506 C 2647.26 -4.12613 -6.37049 0
M  V30 35507 O 2647.05 -3.72827 -4.97879 0
M  V30 35508 C 2645.86 -4.45085 -6.88694 0
M  V30 35509 O 2645.47 -5.7877 -6.5624 0
M  V30 35510 C 2644.98 -3.47817 -6.12078 0
M  V30 35511 C 2645.69 -3.39414 -4.77697 0
M  V30 35512 N 2645.64 -2.04615 -4.15333 0
M  V30 35513 H 2648.48 -3.41248 -7.98759 0
M  V30 35514 H 2648.76 -2.5837 -6.41742 0
M  V30 35515 H 2647.89 -5.02657 -6.42673 0
M  V30 35516 P 2643.92 -6.144 -6.45285 0
M  V30 35517 O 2643.7 -7.54673 -6.86199 0
M  V30 35518 O 2643.13 -5.12391 -7.179 0
M  V30 35519 O 2643.67 -5.99158 -4.88404 0
M  V30 35520 C 2644.61 -6.60234 -3.96415 0
M  V30 35521 C 2643.88 -7.08259 -2.72856 0
M  V30 35522 O 2643.67 -5.9427 -1.83651 0
M  V30 35523 C 2642.48 -7.64886 -2.9555 0
M  V30 35524 O 2642.09 -8.53963 -1.90717 0
M  V30 35525 C 2641.6 -6.4116 -2.90739 0
M  V30 35526 C 2642.31 -5.55375 -1.86963 0
M  V30 35527 N 2642.26 -4.09664 -2.15742 0
M  V30 35528 H 2645.1 -7.45574 -4.45629 0
M  V30 35529 H 2645.38 -5.86232 -3.67314 0
M  V30 35530 H 2644.51 -7.84412 -2.24479 0
M  V30 35531 P 2640.54 -8.7635 -1.60911 0
M  V30 35532 O 2640.32 -10.1388 -1.11561 0
M  V30 35533 O 2639.75 -8.36503 -2.79617 0
M  V30 35534 O 2640.29 -7.71806 -0.42951 0
M  V30 35535 C 2641.23 -7.67148 0.673689 0
M  V30 35536 C 2640.5 -7.33374 1.95559 0
M  V30 35537 O 2640.29 -5.88721 2.00726 0
M  V30 35538 C 2639.1 -7.92526 2.10483 0
M  V30 35539 O 2638.71 -8.02971 3.47653 0
M  V30 35540 C 2638.22 -6.89602 1.41652 0
M  V30 35541 C 2638.93 -5.59201 1.75185 0
M  V30 35542 N 2638.88 -4.58235 0.662552 0
M  V30 35543 H 2641.72 -8.65116 0.777161 0
M  V30 35544 H 2642 -6.90173 0.474152 0
M  V30 35545 H 2641.13 -7.66548 2.79458 0
M  V30 35546 P 2637.16 -8.03563 3.84925 0
M  V30 35547 O 2636.94 -8.85821 5.0569 0
M  V30 35548 O 2636.37 -8.41101 2.65469 0
M  V30 35549 O 2636.91 -6.4965 4.18908 0
M  V30 35550 C 2637.85 -5.81037 5.05421 0
M  V30 35551 C 2637.12 -4.78366 5.89277 0
M  V30 35552 O 2636.91 -3.58302 5.08433 0
M  V30 35553 C 2635.72 -5.17448 6.36119 0
M  V30 35554 O 2635.33 -4.45271 7.53232 0
M  V30 35555 C 2634.84 -4.74639 5.19936 0
M  V30 35556 C 2635.55 -3.49432 4.70418 0
M  V30 35557 N 2635.5 -3.32099 3.22613 0
M  V30 35558 H 2638.34 -6.54213 5.71376 0
M  V30 35559 H 2638.62 -5.30936 4.43503 0
M  V30 35560 H 2637.75 -4.55889 6.76652 0
M  V30 35561 H 2635.09 -2.61715 5.17932 0
M  V30 35562 H 2634.81 -5.52155 4.41878 0
M  V30 35563 H 2633.82 -4.51981 5.53374 0
M  V30 35564 H 2635.66 -6.25124 6.55234 0
M  V30 35565 P 2633.78 -4.23843 7.83734 0
M  V30 35566 O 2633.56 -4.19407 9.29784 0
M  V30 35567 O 2632.99 -5.24426 7.09156 0
M  V30 35568 O 2633.53 -2.7935 7.20758 0
M  V30 35569 C 2634.47 -1.7299 7.50419 0
M  V30 35570 C 2633.74 -0.406376 7.57911 0
M  V30 35571 O 2633.53 0.0897726 6.21935 0
M  V30 35572 C 2632.34 -0.447224 8.1878 0
M  V30 35573 O 2631.95 0.825065 8.71101 0
M  V30 35574 C 2631.46 -0.783801 6.99623 0
M  V30 35575 C 2632.17 -0.0619192 5.85967 0
M  V30 35576 N 2632.12 -0.7859 4.56281 0
M  V30 35577 H 2634.96 -1.93423 8.4679 0
M  V30 35578 H 2635.24 -1.68181 6.71046 0
M  V30 35579 H 2634.37 0.289041 8.15388 0
M  V30 35580 P 2630.4 1.17771 8.83182 0
M  V30 35581 O 2630.18 2.07206 9.98732 0
M  V30 35582 O 2629.61 -0.0743816 8.81969 0
M  V30 35583 O 2630.15 1.97652 7.47304 0
M  V30 35584 C 2631.09 3.01133 7.08783 0
M  V30 35585 C 2630.36 4.12613 6.37049 0
M  V30 35586 O 2630.15 3.72827 4.97879 0
M  V30 35587 C 2628.96 4.45085 6.88694 0
M  V30 35588 O 2628.57 5.7877 6.5624 0
M  V30 35589 C 2628.08 3.47817 6.12078 0
M  V30 35590 C 2628.79 3.39414 4.77697 0
M  V30 35591 N 2628.74 2.04615 4.15333 0
M  V30 35592 H 2631.58 3.41248 7.98759 0
M  V30 35593 H 2631.86 2.5837 6.41742 0
M  V30 35594 H 2630.99 5.02657 6.42673 0
M  V30 35595 P 2627.02 6.144 6.45285 0
M  V30 35596 O 2626.8 7.54673 6.86199 0
M  V30 35597 O 2626.23 5.12391 7.179 0
M  V30 35598 O 2626.77 5.99158 4.88404 0
M  V30 35599 C 2627.71 6.60234 3.96415 0
M  V30 35600 C 2626.98 7.08259 2.72856 0
M  V30 35601 O 2626.77 5.9427 1.83651 0
M  V30 35602 C 2625.58 7.64886 2.9555 0
M  V30 35603 O 2625.19 8.53963 1.90717 0
M  V30 35604 C 2624.7 6.4116 2.90739 0
M  V30 35605 C 2625.41 5.55375 1.86963 0
M  V30 35606 N 2625.36 4.09448 2.16152 0
M  V30 35607 H 2628.2 7.45574 4.45629 0
M  V30 35608 H 2628.48 5.85864 3.679 0
M  V30 35609 H 2627.61 7.84412 2.24479 0
M  V30 35610 H 2624.95 5.73457 0.888562 0
M  V30 35611 H 2624.67 5.90877 3.88583 0
M  V30 35612 H 2623.68 6.6596 2.58858 0
M  V30 35613 H 2625.52 8.16339 3.92049 0
M  V30 35614 P 2623.64 8.7635 1.60911 0
M  V30 35615 O 2623.42 10.1388 1.11561 0
M  V30 35616 O 2622.85 8.36503 2.79617 0
M  V30 35617 O 2623.39 7.71806 0.42951 0
M  V30 35618 C 2624.33 7.67148 -0.673689 0
M  V30 35619 C 2623.6 7.33374 -1.95559 0
M  V30 35620 O 2623.39 5.88721 -2.00726 0
M  V30 35621 C 2622.2 7.92526 -2.10483 0
M  V30 35622 O 2621.81 8.02971 -3.47653 0
M  V30 35623 C 2621.32 6.89602 -1.41652 0
M  V30 35624 C 2622.03 5.59201 -1.75185 0
M  V30 35625 N 2621.98 4.58235 -0.662552 0
M  V30 35626 H 2624.82 8.65116 -0.777161 0
M  V30 35627 H 2625.1 6.90173 -0.474152 0
M  V30 35628 H 2624.23 7.66548 -2.79458 0
M  V30 35629 P 2620.26 8.03563 -3.84925 0
M  V30 35630 O 2620.04 8.85821 -5.0569 0
M  V30 35631 O 2619.47 8.41101 -2.65469 0
M  V30 35632 O 2620.01 6.4965 -4.18908 0
M  V30 35633 C 2620.95 5.80886 -5.05289 0
M  V30 35634 C 2620.22 4.78366 -5.89277 0
M  V30 35635 O 2620.01 3.58302 -5.08433 0
M  V30 35636 C 2618.82 5.16748 -6.36559 0
M  V30 35637 O 2618.43 4.45271 -7.53232 0
M  V30 35638 C 2617.94 4.74572 -5.19863 0
M  V30 35639 C 2618.65 3.49373 -4.70338 0
M  V30 35640 N 2618.6 3.31704 -3.22876 0
M  V30 35641 C 2618.45 2.03326 -2.74871 0
M  V30 35642 O 2618.36 1.06486 -3.48076 0
M  V30 35643 N 2618.41 1.91838 -1.37456 0
M  V30 35644 C 2618.5 2.94295 -0.462035 0
M  V30 35645 C 2618.65 4.25064 -1.05249 0
M  V30 35646 C 2618.7 4.40214 -2.39192 0
M  V30 35647 H 2621.45 6.54063 -5.71245 0
M  V30 35648 H 2621.71 5.30339 -4.43905 0
M  V30 35649 H 2620.85 4.55889 -6.76652 0
M  V30 35650 H 2618.19 2.6167 -5.17842 0
M  V30 35651 H 2617.91 5.52155 -4.41878 0
M  V30 35652 H 2616.92 4.51918 -5.53297 0
M  V30 35653 H 2618.76 6.25055 -6.55162 0
M  V30 35654 H 2618.83 5.39798 -2.81523 0
M  V30 35655 P 2616.88 4.23843 -7.83734 0
M  V30 35656 O 2616.66 4.19407 -9.29784 0
M  V30 35657 O 2616.09 5.24426 -7.09156 0
M  V30 35658 O 2616.63 2.7935 -7.20758 0
M  V30 35659 C 2617.57 1.7299 -7.50419 0
M  V30 35660 C 2616.84 0.406376 -7.57911 0
M  V30 35661 O 2616.63 -0.0897726 -6.21935 0
M  V30 35662 C 2615.44 0.447224 -8.1878 0
M  V30 35663 O 2615.05 -0.825065 -8.71101 0
M  V30 35664 C 2614.56 0.783801 -6.99623 0
M  V30 35665 C 2615.27 0.0619192 -5.85967 0
M  V30 35666 N 2615.22 0.7859 -4.56281 0
M  V30 35667 H 2618.06 1.93423 -8.4679 0
M  V30 35668 H 2618.34 1.68181 -6.71046 0
M  V30 35669 H 2617.47 -0.289041 -8.15388 0
M  V30 35670 P 2613.5 -1.17771 -8.83182 0
M  V30 35671 O 2613.28 -2.07206 -9.98732 0
M  V30 35672 O 2612.71 0.0743816 -8.81969 0
M  V30 35673 O 2613.25 -1.97652 -7.47304 0
M  V30 35674 C 2614.19 -3.01133 -7.08783 0
M  V30 35675 C 2613.46 -4.12613 -6.37049 0
M  V30 35676 O 2613.25 -3.72827 -4.97879 0
M  V30 35677 C 2612.06 -4.45085 -6.88694 0
M  V30 35678 O 2611.67 -5.7877 -6.5624 0
M  V30 35679 C 2611.18 -3.47817 -6.12078 0
M  V30 35680 C 2611.89 -3.39414 -4.77697 0
M  V30 35681 N 2611.84 -2.04615 -4.15333 0
M  V30 35682 H 2614.68 -3.41248 -7.98759 0
M  V30 35683 H 2614.96 -2.5837 -6.41742 0
M  V30 35684 H 2614.09 -5.02657 -6.42673 0
M  V30 35685 P 2610.12 -6.144 -6.45285 0
M  V30 35686 O 2609.9 -7.54673 -6.86199 0
M  V30 35687 O 2609.33 -5.12391 -7.179 0
M  V30 35688 O 2609.87 -5.99158 -4.88404 0
M  V30 35689 C 2610.81 -6.60062 -3.96313 0
M  V30 35690 C 2610.08 -7.08259 -2.72856 0
M  V30 35691 O 2609.87 -5.9427 -1.83651 0
M  V30 35692 C 2608.68 -7.65087 -2.94749 0
M  V30 35693 O 2608.29 -8.53963 -1.90717 0
M  V30 35694 C 2607.8 -6.41069 -2.90698 0
M  V30 35695 C 2608.51 -5.5528 -1.86931 0
M  V30 35696 N 2608.46 -4.09575 -2.15696 0
M  V30 35697 C 2608.31 -3.24249 -1.08435 0
M  V30 35698 O 2608.22 -3.63946 0.0628747 0
M  V30 35699 N 2608.27 -1.90009 -1.39973 0
M  V30 35700 C 2608.36 -1.34884 -2.65614 0
M  V30 35701 O 2608.31 -0.123716 -2.81728 0
M  V30 35702 C 2608.51 -2.3145 -3.71736 0
M  V30 35703 C 2608.62 -1.75913 -5.10438 0
M  V30 35704 C 2608.56 -3.63518 -3.44754 0
M  V30 35705 H 2611.31 -7.45402 -4.45526 0
M  V30 35706 H 2611.57 -5.86062 -3.67208 0
M  V30 35707 H 2610.71 -7.84412 -2.24479 0
M  V30 35708 H 2608.05 -5.73358 -0.888409 0
M  V30 35709 H 2607.77 -5.90877 -3.88583 0
M  V30 35710 H 2606.78 -6.65867 -2.58821 0
M  V30 35711 H 2608.62 -8.16248 -3.92006 0
M  V30 35712 H 2608.69 -4.34551 -4.26383 0
M  V30 35713 H 2607.66 -1.85471 -5.61775 0
M  V30 35714 H 2609.39 -2.31364 -5.66257 0
M  V30 35715 H 2608.91 -0.695936 -5.05229 0
M  V30 35716 H 2608.17 -1.26277 -0.63625 0
M  V30 35717 P 2606.74 -8.7635 -1.60911 0
M  V30 35718 O 2606.52 -10.1388 -1.11561 0
M  V30 35719 O 2605.95 -8.36503 -2.79617 0
M  V30 35720 O 2606.49 -7.71806 -0.42951 0
M  V30 35721 C 2607.43 -7.67148 0.673689 0
M  V30 35722 C 2606.7 -7.33374 1.95559 0
M  V30 35723 O 2606.49 -5.88721 2.00726 0
M  V30 35724 C 2605.3 -7.92526 2.10483 0
M  V30 35725 O 2604.91 -8.02971 3.47653 0
M  V30 35726 C 2604.42 -6.89602 1.41652 0
M  V30 35727 C 2605.13 -5.59201 1.75185 0
M  V30 35728 N 2605.08 -4.58301 0.657969 0
M  V30 35729 H 2607.92 -8.65116 0.777161 0
M  V30 35730 H 2608.2 -6.9022 0.46725 0
M  V30 35731 H 2607.33 -7.66548 2.79458 0
M  V30 35732 H 2604.67 -5.16165 2.65183 0
M  V30 35733 H 2604.39 -7.06433 0.329384 0
M  V30 35734 H 2603.4 -6.90926 1.82021 0
M  V30 35735 H 2605.24 -8.90873 1.62657 0
M  V30 35736 P 2603.36 -8.03563 3.84925 0
M  V30 35737 O 2603.14 -8.85821 5.0569 0
M  V30 35738 O 2602.57 -8.41101 2.65469 0
M  V30 35739 O 2603.11 -6.4965 4.18908 0
M  V30 35740 C 2604.05 -5.81037 5.05421 0
M  V30 35741 C 2603.32 -4.78366 5.89277 0
M  V30 35742 O 2603.11 -3.58302 5.08433 0
M  V30 35743 C 2601.92 -5.17448 6.36119 0
M  V30 35744 O 2601.53 -4.45271 7.53232 0
M  V30 35745 C 2601.04 -4.74639 5.19936 0
M  V30 35746 C 2601.75 -3.49432 4.70418 0
M  V30 35747 N 2601.7 -3.31776 3.22945 0
M  V30 35748 H 2604.54 -6.54213 5.71376 0
M  V30 35749 H 2604.82 -5.30492 4.44033 0
M  V30 35750 H 2603.95 -4.55889 6.76652 0
M  V30 35751 P 2599.98 -4.23843 7.83734 0
M  V30 35752 O 2599.76 -4.19407 9.29784 0
M  V30 35753 O 2599.19 -5.24426 7.09156 0
M  V30 35754 O 2599.73 -2.7935 7.20758 0
M  V30 35755 C 2600.67 -1.7299 7.50419 0
M  V30 35756 C 2599.94 -0.406376 7.57911 0
M  V30 35757 O 2599.73 0.0897726 6.21935 0
M  V30 35758 C 2598.54 -0.447224 8.1878 0
M  V30 35759 O 2598.15 0.825065 8.71101 0
M  V30 35760 C 2597.66 -0.783801 6.99623 0
M  V30 35761 C 2598.37 -0.0619192 5.85967 0
M  V30 35762 N 2598.32 -0.7859 4.56281 0
M  V30 35763 H 2601.16 -1.93423 8.4679 0
M  V30 35764 H 2601.44 -1.68181 6.71046 0
M  V30 35765 H 2600.57 0.289041 8.15388 0
M  V30 35766 P 2596.6 1.17771 8.83182 0
M  V30 35767 O 2596.38 2.07206 9.98732 0
M  V30 35768 O 2595.81 -0.0743816 8.81969 0
M  V30 35769 O 2596.35 1.97652 7.47304 0
M  V30 35770 C 2597.29 3.01133 7.08783 0
M  V30 35771 C 2596.56 4.12613 6.37049 0
M  V30 35772 O 2596.35 3.72827 4.97879 0
M  V30 35773 C 2595.16 4.45085 6.88694 0
M  V30 35774 O 2594.77 5.7877 6.5624 0
M  V30 35775 C 2594.28 3.47817 6.12078 0
M  V30 35776 C 2594.99 3.39414 4.77697 0
M  V30 35777 N 2594.94 2.04615 4.15333 0
M  V30 35778 H 2597.78 3.41248 7.98759 0
M  V30 35779 H 2598.06 2.5837 6.41742 0
M  V30 35780 H 2597.19 5.02657 6.42673 0
M  V30 35781 P 2593.22 6.144 6.45285 0
M  V30 35782 O 2593 7.54673 6.86199 0
M  V30 35783 O 2592.43 5.12391 7.179 0
M  V30 35784 O 2592.97 5.99158 4.88404 0
M  V30 35785 C 2593.91 6.60234 3.96415 0
M  V30 35786 C 2593.18 7.08259 2.72856 0
M  V30 35787 O 2592.97 5.9427 1.83651 0
M  V30 35788 C 2591.78 7.64886 2.9555 0
M  V30 35789 O 2591.39 8.53963 1.90717 0
M  V30 35790 C 2590.9 6.4116 2.90739 0
M  V30 35791 C 2591.61 5.55375 1.86963 0
M  V30 35792 N 2591.56 4.09664 2.15742 0
M  V30 35793 H 2594.4 7.45574 4.45629 0
M  V30 35794 H 2594.68 5.86232 3.67314 0
M  V30 35795 H 2593.81 7.84412 2.24479 0
M  V30 35796 P 2589.84 8.7635 1.60911 0
M  V30 35797 O 2589.62 10.1388 1.11561 0
M  V30 35798 O 2589.05 8.36503 2.79617 0
M  V30 35799 O 2589.59 7.71806 0.42951 0
M  V30 35800 C 2590.53 7.66948 -0.673514 0
M  V30 35801 C 2589.8 7.33374 -1.95559 0
M  V30 35802 O 2589.59 5.88721 -2.00726 0
M  V30 35803 C 2588.4 7.92218 -2.1125 0
M  V30 35804 O 2588.01 8.02971 -3.47653 0
M  V30 35805 C 2587.52 6.89504 -1.41631 0
M  V30 35806 C 2588.23 5.59106 -1.75155 0
M  V30 35807 N 2588.18 4.58136 -0.662409 0
M  V30 35808 C 2588.03 3.26059 -1.02863 0
M  V30 35809 O 2587.94 2.90743 -2.19009 0
M  V30 35810 N 2587.99 2.35995 0.0155585 0
M  V30 35811 C 2588.08 2.65248 1.35603 0
M  V30 35812 C 2588.23 4.05747 1.64698 0
M  V30 35813 C 2588.28 4.96734 0.652411 0
M  V30 35814 H 2591.03 8.64917 -0.776982 0
M  V30 35815 H 2591.29 6.89974 -0.474015 0
M  V30 35816 H 2590.43 7.66548 -2.79458 0
M  V30 35817 H 2587.77 5.16076 -2.65138 0
M  V30 35818 H 2587.49 7.06433 -0.329384 0
M  V30 35819 H 2586.5 6.90829 -1.81996 0
M  V30 35820 H 2588.34 8.90774 -1.62639 0
M  V30 35821 H 2588.41 6.02181 0.895285 0
M  V30 35822 P 2586.46 8.03563 -3.84925 0
M  V30 35823 O 2586.24 8.85821 -5.0569 0
M  V30 35824 O 2585.67 8.41101 -2.65469 0
M  V30 35825 O 2586.21 6.4965 -4.18908 0
M  V30 35826 C 2587.15 5.80886 -5.05289 0
M  V30 35827 C 2586.42 4.78366 -5.89277 0
M  V30 35828 O 2586.21 3.58302 -5.08433 0
M  V30 35829 C 2585.02 5.16748 -6.36559 0
M  V30 35830 O 2584.63 4.45271 -7.53232 0
M  V30 35831 C 2584.14 4.74572 -5.19863 0
M  V30 35832 C 2584.85 3.49373 -4.70338 0
M  V30 35833 N 2584.8 3.31704 -3.22876 0
M  V30 35834 C 2584.65 2.03326 -2.74871 0
M  V30 35835 O 2584.56 1.06486 -3.48076 0
M  V30 35836 N 2584.61 1.91838 -1.37456 0
M  V30 35837 C 2584.7 2.94295 -0.462035 0
M  V30 35838 C 2584.85 4.25064 -1.05249 0
M  V30 35839 C 2584.9 4.40214 -2.39192 0
M  V30 35840 H 2587.65 6.54063 -5.71245 0
M  V30 35841 H 2587.91 5.30339 -4.43905 0
M  V30 35842 H 2587.05 4.55889 -6.76652 0
M  V30 35843 H 2584.39 2.6167 -5.17842 0
M  V30 35844 H 2584.11 5.52155 -4.41878 0
M  V30 35845 H 2583.12 4.51918 -5.53297 0
M  V30 35846 H 2584.96 6.25055 -6.55162 0
M  V30 35847 H 2585.03 5.39798 -2.81523 0
M  V30 35848 P 2583.08 4.23843 -7.83734 0
M  V30 35849 O 2582.86 4.19407 -9.29784 0
M  V30 35850 O 2582.29 5.24426 -7.09156 0
M  V30 35851 O 2582.83 2.79386 -7.20852 0
M  V30 35852 C 2583.77 1.7299 -7.50419 0
M  V30 35853 C 2583.04 0.41401 -7.5797 0
M  V30 35854 O 2582.83 -0.089787 -6.22035 0
M  V30 35855 C 2581.64 0.447224 -8.1878 0
M  V30 35856 O 2581.25 -0.825159 -8.71201 0
M  V30 35857 C 2580.76 0.783801 -6.99623 0
M  V30 35858 C 2581.47 0.0619192 -5.85967 0
M  V30 35859 N 2581.42 0.7859 -4.56281 0
M  V30 35860 C 2581.27 0.0359258 -3.39981 0
M  V30 35861 O 2581.18 -1.19723 -3.49038 0
M  V30 35862 N 2581.22 0.869151 -2.14025 0
M  V30 35863 C 2581.32 2.01207 -2.14363 0
M  V30 35864 N 2581.27 2.58978 -0.954287 0
M  V30 35865 C 2581.47 2.80817 -3.32215 0
M  V30 35866 C 2581.52 2.13785 -4.50884 0
M  V30 35867 H 2584.26 1.93401 -8.46693 0
M  V30 35868 H 2584.53 1.68181 -6.71046 0
M  V30 35869 H 2583.67 -0.289076 -8.15488 0
M  V30 35870 H 2581.01 -0.927166 -5.72947 0
M  V30 35871 H 2580.73 1.87 -6.82132 0
M  V30 35872 H 2579.74 0.404009 -7.13457 0
M  V30 35873 H 2581.58 1.20599 -8.97534 0
M  V30 35874 H 2581.65 2.70295 -5.43162 0
M  V30 35875 H 2581.55 3.89465 -3.27406 0
M  V30 35876 H 2581.16 2.01616 -0.107046 0
M  V30 35877 H 2581.35 3.61403 -0.873101 0
M  V30 35878 P 2579.7 -1.17771 -8.83182 0
M  V30 35879 O 2579.48 -2.07206 -9.98732 0
M  V30 35880 O 2578.91 0.0743816 -8.81969 0
M  V30 35881 O 2579.45 -1.97678 -7.474 0
M  V30 35882 C 2580.39 -3.01133 -7.08783 0
M  V30 35883 C 2579.66 -4.1203 -6.37546 0
M  V30 35884 O 2579.45 -3.72887 -4.9796 0
M  V30 35885 C 2578.26 -4.45085 -6.88694 0
M  V30 35886 O 2577.87 -5.78836 -6.56315 0
M  V30 35887 C 2577.38 -3.47817 -6.12078 0
M  V30 35888 C 2578.09 -3.39414 -4.77697 0
M  V30 35889 N 2578.04 -2.04615 -4.15333 0
M  V30 35890 C 2577.89 -1.96929 -2.77162 0
M  V30 35891 O 2577.8 -3.02017 -2.12006 0
M  V30 35892 N 2577.84 -0.55485 -2.24237 0
M  V30 35893 C 2577.94 0.367808 -2.9169 0
M  V30 35894 N 2577.89 1.53426 -2.29427 0
M  V30 35895 C 2578.09 0.319148 -4.33828 0
M  V30 35896 C 2578.14 -0.920672 -4.90433 0
M  V30 35897 H 2580.88 -3.41209 -7.98667 0
M  V30 35898 H 2581.15 -2.5837 -6.41742 0
M  V30 35899 H 2580.29 -5.02718 -6.42752 0
M  V30 35900 H 2577.63 -4.11779 -4.09026 0
M  V30 35901 H 2577.35 -2.49661 -6.61772 0
M  V30 35902 H 2576.36 -3.86674 -6.00946 0
M  V30 35903 H 2578.2 -4.29991 -7.97006 0
M  V30 35904 H 2578.27 -1.00589 -5.98303 0
M  V30 35905 H 2578.17 1.22639 -4.93799 0
M  V30 35906 H 2577.78 1.56819 -1.27167 0
M  V30 35907 H 2577.97 2.41062 -2.83063 0
M  V30 35908 P 2576.32 -6.144 -6.45285 0
M  V30 35909 O 2576.1 -7.54673 -6.86199 0
M  V30 35910 O 2575.53 -5.12391 -7.179 0
M  V30 35911 O 2576.07 -5.99158 -4.88404 0
M  V30 35912 C 2577.01 -6.60234 -3.96415 0
M  V30 35913 C 2576.28 -7.08259 -2.72856 0
M  V30 35914 O 2576.07 -5.9427 -1.83651 0
M  V30 35915 C 2574.88 -7.64886 -2.9555 0
M  V30 35916 O 2574.49 -8.53963 -1.90717 0
M  V30 35917 C 2574 -6.4116 -2.90739 0
M  V30 35918 C 2574.71 -5.55375 -1.86963 0
M  V30 35919 N 2574.66 -4.09664 -2.15742 0
M  V30 35920 H 2577.5 -7.45574 -4.45629 0
M  V30 35921 H 2577.78 -5.86232 -3.67314 0
M  V30 35922 H 2576.91 -7.84412 -2.24479 0
M  V30 35923 P 2572.94 -8.7635 -1.60911 0
M  V30 35924 O 2572.72 -10.1388 -1.11561 0
M  V30 35925 O 2572.15 -8.36503 -2.79617 0
M  V30 35926 O 2572.69 -7.71806 -0.42951 0
M  V30 35927 C 2573.63 -7.67148 0.673689 0
M  V30 35928 C 2572.9 -7.33374 1.95559 0
M  V30 35929 O 2572.69 -5.88721 2.00726 0
M  V30 35930 C 2571.5 -7.92526 2.10483 0
M  V30 35931 O 2571.11 -8.02971 3.47653 0
M  V30 35932 C 2570.62 -6.89602 1.41652 0
M  V30 35933 C 2571.33 -5.59201 1.75185 0
M  V30 35934 N 2571.28 -4.58235 0.662552 0
M  V30 35935 H 2574.12 -8.65116 0.777161 0
M  V30 35936 H 2574.4 -6.90173 0.474152 0
M  V30 35937 H 2573.53 -7.66548 2.79458 0
M  V30 35938 P 2569.56 -8.03563 3.84925 0
M  V30 35939 O 2569.34 -8.85821 5.0569 0
M  V30 35940 O 2568.77 -8.41101 2.65469 0
M  V30 35941 O 2569.31 -6.4965 4.18908 0
M  V30 35942 C 2570.25 -5.81037 5.05421 0
M  V30 35943 C 2569.52 -4.78366 5.89277 0
M  V30 35944 O 2569.31 -3.58302 5.08433 0
M  V30 35945 C 2568.12 -5.17448 6.36119 0
M  V30 35946 O 2567.73 -4.45271 7.53232 0
M  V30 35947 C 2567.24 -4.74639 5.19936 0
M  V30 35948 C 2567.95 -3.49432 4.70418 0
M  V30 35949 N 2567.9 -3.31776 3.22945 0
M  V30 35950 H 2570.74 -6.54213 5.71376 0
M  V30 35951 H 2571.02 -5.30492 4.44033 0
M  V30 35952 H 2570.15 -4.55889 6.76652 0
M  V30 35953 P 2566.18 -4.23843 7.83734 0
M  V30 35954 O 2565.96 -4.19407 9.29784 0
M  V30 35955 O 2565.39 -5.24426 7.09156 0
M  V30 35956 O 2565.93 -2.7935 7.20758 0
M  V30 35957 C 2566.87 -1.7299 7.50419 0
M  V30 35958 C 2566.14 -0.406376 7.57911 0
M  V30 35959 O 2565.93 0.0897726 6.21935 0
M  V30 35960 C 2564.74 -0.447224 8.1878 0
M  V30 35961 O 2564.35 0.825065 8.71101 0
M  V30 35962 C 2563.86 -0.783801 6.99623 0
M  V30 35963 C 2564.57 -0.0619192 5.85967 0
M  V30 35964 N 2564.52 -0.7859 4.56281 0
M  V30 35965 H 2567.36 -1.93423 8.4679 0
M  V30 35966 H 2567.64 -1.68181 6.71046 0
M  V30 35967 H 2566.77 0.289041 8.15388 0
M  V30 35968 P 2562.8 1.17771 8.83182 0
M  V30 35969 O 2562.58 2.07206 9.98732 0
M  V30 35970 O 2562.01 -0.0743816 8.81969 0
M  V30 35971 O 2562.55 1.97652 7.47304 0
M  V30 35972 C 2563.49 3.01133 7.08783 0
M  V30 35973 C 2562.76 4.12613 6.37049 0
M  V30 35974 O 2562.55 3.72827 4.97879 0
M  V30 35975 C 2561.36 4.45085 6.88694 0
M  V30 35976 O 2560.97 5.7877 6.5624 0
M  V30 35977 C 2560.48 3.47817 6.12078 0
M  V30 35978 C 2561.19 3.39414 4.77697 0
M  V30 35979 N 2561.14 2.04615 4.15333 0
M  V30 35980 H 2563.98 3.41248 7.98759 0
M  V30 35981 H 2564.26 2.5837 6.41742 0
M  V30 35982 H 2563.39 5.02657 6.42673 0
M  V30 35983 P 2559.42 6.144 6.45285 0
M  V30 35984 O 2559.2 7.54673 6.86199 0
M  V30 35985 O 2558.63 5.12391 7.179 0
M  V30 35986 O 2559.17 5.99158 4.88404 0
M  V30 35987 C 2560.11 6.60234 3.96415 0
M  V30 35988 C 2559.38 7.08259 2.72856 0
M  V30 35989 O 2559.17 5.9427 1.83651 0
M  V30 35990 C 2557.98 7.64886 2.9555 0
M  V30 35991 O 2557.59 8.53963 1.90717 0
M  V30 35992 C 2557.1 6.4116 2.90739 0
M  V30 35993 C 2557.81 5.55375 1.86963 0
M  V30 35994 N 2557.76 4.09664 2.15742 0
M  V30 35995 C 2557.84 3.44381 3.37233 0
M  V30 35996 N 2557.76 2.14131 3.28347 0
M  V30 35997 C 2557.62 1.90247 1.91588 0
M  V30 35998 C 2557.49 0.683992 1.20892 0
M  V30 35999 N 2557.37 0.903396 -0.173998 0
M  V30 36000 C 2557.37 2.14171 -0.784879 0
M  V30 36001 N 2557.24 2.1435 -2.11317 0
M  V30 36002 N 2557.5 3.28784 -0.119316 0
M  V30 36003 C 2557.62 3.0977 1.22194 0
M  V30 36004 H 2560.6 7.45574 4.45629 0
M  V30 36005 H 2560.88 5.86232 3.67314 0
M  V30 36006 H 2560.01 7.84412 2.24479 0
M  V30 36007 P 2556.04 8.7635 1.60911 0
M  V30 36008 O 2555.82 10.1388 1.11561 0
M  V30 36009 O 2555.25 8.36503 2.79617 0
M  V30 36010 O 2555.79 7.71806 0.42951 0
M  V30 36011 C 2556.73 7.67148 -0.673689 0
M  V30 36012 C 2556 7.33374 -1.95559 0
M  V30 36013 O 2555.79 5.88721 -2.00726 0
M  V30 36014 C 2554.6 7.92526 -2.10483 0
M  V30 36015 O 2554.21 8.02971 -3.47653 0
M  V30 36016 C 2553.72 6.89602 -1.41652 0
M  V30 36017 C 2554.43 5.59201 -1.75185 0
M  V30 36018 N 2554.38 4.58301 -0.657969 0
M  V30 36019 H 2557.22 8.65116 -0.777161 0
M  V30 36020 H 2557.5 6.9022 -0.46725 0
M  V30 36021 H 2556.63 7.66548 -2.79458 0
M  V30 36022 H 2553.97 5.16165 -2.65183 0
M  V30 36023 H 2553.69 7.06433 -0.329384 0
M  V30 36024 H 2552.7 6.90926 -1.82021 0
M  V30 36025 H 2554.54 8.90873 -1.62657 0
M  V30 36026 P 2552.66 8.03563 -3.84925 0
M  V30 36027 O 2552.44 8.85821 -5.0569 0
M  V30 36028 O 2551.87 8.41101 -2.65469 0
M  V30 36029 O 2552.41 6.4965 -4.18908 0
M  V30 36030 C 2553.35 5.80886 -5.05289 0
M  V30 36031 C 2552.62 4.78366 -5.89277 0
M  V30 36032 O 2552.41 3.58302 -5.08433 0
M  V30 36033 C 2551.22 5.16748 -6.36559 0
M  V30 36034 O 2550.83 4.45271 -7.53232 0
M  V30 36035 C 2550.34 4.74572 -5.19863 0
M  V30 36036 C 2551.05 3.49373 -4.70338 0
M  V30 36037 N 2551 3.31704 -3.22876 0
M  V30 36038 C 2550.85 2.03326 -2.74871 0
M  V30 36039 O 2550.76 1.06486 -3.48076 0
M  V30 36040 N 2550.81 1.91838 -1.37456 0
M  V30 36041 C 2550.9 2.94295 -0.462035 0
M  V30 36042 C 2551.05 4.25064 -1.05249 0
M  V30 36043 C 2551.1 4.40214 -2.39192 0
M  V30 36044 H 2553.85 6.54063 -5.71245 0
M  V30 36045 H 2554.11 5.30339 -4.43905 0
M  V30 36046 H 2553.25 4.55889 -6.76652 0
M  V30 36047 H 2550.59 2.6167 -5.17842 0
M  V30 36048 H 2550.31 5.52155 -4.41878 0
M  V30 36049 H 2549.32 4.51918 -5.53297 0
M  V30 36050 H 2551.16 6.25055 -6.55162 0
M  V30 36051 H 2551.23 5.39798 -2.81523 0
M  V30 36052 P 2549.28 4.23843 -7.83734 0
M  V30 36053 O 2549.06 4.19407 -9.29784 0
M  V30 36054 O 2548.49 5.24426 -7.09156 0
M  V30 36055 O 2549.03 2.7935 -7.20758 0
M  V30 36056 C 2549.97 1.7299 -7.50419 0
M  V30 36057 C 2549.24 0.406376 -7.57911 0
M  V30 36058 O 2549.03 -0.0897726 -6.21935 0
M  V30 36059 C 2547.84 0.447224 -8.1878 0
M  V30 36060 O 2547.45 -0.825065 -8.71101 0
M  V30 36061 C 2546.96 0.783801 -6.99623 0
M  V30 36062 C 2547.67 0.0619192 -5.85967 0
M  V30 36063 N 2547.62 0.790462 -4.56202 0
M  V30 36064 H 2550.46 1.93423 -8.4679 0
M  V30 36065 H 2550.74 1.68852 -6.70877 0
M  V30 36066 H 2549.87 -0.289041 -8.15388 0
M  V30 36067 H 2547.21 -0.927006 -5.72848 0
M  V30 36068 H 2546.93 1.86973 -6.82036 0
M  V30 36069 H 2545.94 0.403953 -7.13357 0
M  V30 36070 H 2547.78 1.20599 -8.97534 0
M  V30 36071 P 2545.9 -1.17771 -8.83182 0
M  V30 36072 O 2545.68 -2.07206 -9.98732 0
M  V30 36073 O 2545.11 0.0743816 -8.81969 0
M  V30 36074 O 2545.65 -1.97652 -7.47304 0
M  V30 36075 C 2546.59 -3.01055 -7.08599 0
M  V30 36076 C 2545.86 -4.12613 -6.37049 0
M  V30 36077 O 2545.65 -3.72827 -4.97879 0
M  V30 36078 C 2544.46 -4.45719 -6.88164 0
M  V30 36079 O 2544.07 -5.7877 -6.5624 0
M  V30 36080 C 2543.58 -3.47768 -6.11991 0
M  V30 36081 C 2544.29 -3.39356 -4.77615 0
M  V30 36082 N 2544.24 -2.04571 -4.15244 0
M  V30 36083 C 2544.09 -1.98587 -2.78314 0
M  V30 36084 O 2544 -2.98134 -2.08835 0
M  V30 36085 N 2544.05 -0.714467 -2.24925 0
M  V30 36086 C 2544.14 0.470001 -2.94169 0
M  V30 36087 O 2544.09 1.55587 -2.35195 0
M  V30 36088 C 2544.29 0.312541 -4.36783 0
M  V30 36089 C 2544.4 1.57711 -5.16352 0
M  V30 36090 C 2544.34 -0.914512 -4.92583 0
M  V30 36091 H 2547.09 -3.41169 -7.98575 0
M  V30 36092 H 2547.35 -2.58295 -6.41556 0
M  V30 36093 H 2546.49 -5.02657 -6.42673 0
M  V30 36094 H 2543.83 -4.11637 -4.08885 0
M  V30 36095 H 2543.55 -2.49626 -6.61679 0
M  V30 36096 H 2542.56 -3.86566 -6.00778 0
M  V30 36097 H 2544.4 -4.29943 -7.96918 0
M  V30 36098 H 2544.47 -1.00937 -6.00374 0
M  V30 36099 H 2543.44 1.80153 -5.63503 0
M  V30 36100 H 2545.17 1.4566 -5.94104 0
M  V30 36101 H 2544.69 2.40664 -4.49645 0
M  V30 36102 H 2543.95 -0.647622 -1.25697 0
M  V30 36103 P 2542.52 -6.144 -6.45285 0
M  V30 36104 O 2542.3 -7.54673 -6.86199 0
M  V30 36105 O 2541.73 -5.12391 -7.179 0
M  V30 36106 O 2542.27 -5.99158 -4.88404 0
M  V30 36107 C 2543.21 -6.60234 -3.96415 0
M  V30 36108 C 2542.48 -7.08259 -2.72856 0
M  V30 36109 O 2542.27 -5.9427 -1.83651 0
M  V30 36110 C 2541.08 -7.64886 -2.9555 0
M  V30 36111 O 2540.69 -8.53963 -1.90717 0
M  V30 36112 C 2540.2 -6.4116 -2.90739 0
M  V30 36113 C 2540.91 -5.55375 -1.86963 0
M  V30 36114 N 2540.86 -4.09664 -2.15742 0
M  V30 36115 H 2543.7 -7.45574 -4.45629 0
M  V30 36116 H 2543.98 -5.86232 -3.67314 0
M  V30 36117 H 2543.11 -7.84412 -2.24479 0
M  V30 36118 P 2539.15 -8.7635 -1.60911 0
M  V30 36119 O 2538.93 -10.1388 -1.11561 0
M  V30 36120 O 2538.36 -8.36503 -2.79617 0
M  V30 36121 O 2538.9 -7.71806 -0.42951 0
M  V30 36122 C 2539.84 -7.67148 0.673689 0
M  V30 36123 C 2539.11 -7.33374 1.95559 0
M  V30 36124 O 2538.9 -5.88721 2.00726 0
M  V30 36125 C 2537.71 -7.92526 2.10483 0
M  V30 36126 O 2537.32 -8.02971 3.47653 0
M  V30 36127 C 2536.83 -6.89602 1.41652 0
M  V30 36128 C 2537.54 -5.59201 1.75185 0
M  V30 36129 N 2537.49 -4.58235 0.662552 0
M  V30 36130 H 2540.32 -8.65116 0.777161 0
M  V30 36131 H 2540.6 -6.90173 0.474152 0
M  V30 36132 H 2539.73 -7.66548 2.79458 0
M  V30 36133 P 2535.77 -8.03563 3.84925 0
M  V30 36134 O 2535.55 -8.85821 5.0569 0
M  V30 36135 O 2534.98 -8.41101 2.65469 0
M  V30 36136 O 2535.52 -6.4965 4.18908 0
M  V30 36137 C 2536.46 -5.81037 5.05421 0
M  V30 36138 C 2535.73 -4.78366 5.89277 0
M  V30 36139 O 2535.52 -3.58302 5.08433 0
M  V30 36140 C 2534.33 -5.17448 6.36119 0
M  V30 36141 O 2533.94 -4.45271 7.53232 0
M  V30 36142 C 2533.45 -4.74639 5.19936 0
M  V30 36143 C 2534.16 -3.49432 4.70418 0
M  V30 36144 N 2534.11 -3.31776 3.22945 0
M  V30 36145 H 2536.94 -6.54213 5.71376 0
M  V30 36146 H 2537.22 -5.30492 4.44033 0
M  V30 36147 H 2536.35 -4.55889 6.76652 0
M  V30 36148 P 2532.39 -4.23843 7.83734 0
M  V30 36149 O 2532.17 -4.19407 9.29784 0
M  V30 36150 O 2531.6 -5.24426 7.09156 0
M  V30 36151 O 2532.14 -2.7935 7.20758 0
M  V30 36152 C 2533.08 -1.72945 7.50224 0
M  V30 36153 C 2532.35 -0.406376 7.57911 0
M  V30 36154 O 2532.14 0.0897726 6.21935 0
M  V30 36155 C 2530.95 -0.438983 8.18724 0
M  V30 36156 O 2530.56 0.825065 8.71101 0
M  V30 36157 C 2530.07 -0.783689 6.99524 0
M  V30 36158 C 2530.78 -0.0619086 5.85867 0
M  V30 36159 N 2530.73 -0.78573 4.56183 0
M  V30 36160 C 2530.58 -0.0292889 3.41887 0
M  V30 36161 O 2530.49 1.18445 3.4419 0
M  V30 36162 N 2530.54 -0.744061 2.23964 0
M  V30 36163 C 2530.63 -2.10932 2.10362 0
M  V30 36164 O 2530.58 -2.64117 0.98825 0
M  V30 36165 C 2530.78 -2.8202 3.34994 0
M  V30 36166 C 2530.89 -4.31095 3.25037 0
M  V30 36167 C 2530.83 -2.15547 4.52261 0
M  V30 36168 H 2533.57 -1.93379 8.46595 0
M  V30 36169 H 2533.84 -1.68132 6.70852 0
M  V30 36170 H 2532.97 0.289041 8.15388 0
M  V30 36171 H 2530.31 0.926847 5.72749 0
M  V30 36172 H 2530.03 -1.86973 6.82036 0
M  V30 36173 H 2529.04 -0.403896 7.13257 0
M  V30 36174 H 2530.88 -1.20585 8.97435 0
M  V30 36175 H 2530.95 -2.71231 5.45042 0
M  V30 36176 H 2529.92 -4.76966 3.49992 0
M  V30 36177 H 2531.65 -4.67047 3.95024 0
M  V30 36178 H 2531.17 -4.58996 2.22312 0
M  V30 36179 H 2530.43 -0.214893 1.39758 0
M  V30 36180 P 2529.01 1.17771 8.83182 0
M  V30 36181 O 2528.79 2.07206 9.98732 0
M  V30 36182 O 2528.22 -0.0743816 8.81969 0
M  V30 36183 O 2528.76 1.97652 7.47304 0
M  V30 36184 C 2529.7 3.01133 7.08783 0
M  V30 36185 C 2528.97 4.12613 6.37049 0
M  V30 36186 O 2528.76 3.72827 4.97879 0
M  V30 36187 C 2527.57 4.45085 6.88694 0
M  V30 36188 O 2527.18 5.7877 6.5624 0
M  V30 36189 C 2526.69 3.47817 6.12078 0
M  V30 36190 C 2527.4 3.39414 4.77697 0
M  V30 36191 N 2527.35 2.04615 4.15333 0
M  V30 36192 H 2530.18 3.41248 7.98759 0
M  V30 36193 H 2530.46 2.5837 6.41742 0
M  V30 36194 H 2529.59 5.02657 6.42673 0
M  V30 36195 P 2525.63 6.144 6.45285 0
M  V30 36196 O 2525.41 7.54673 6.86199 0
M  V30 36197 O 2524.84 5.12391 7.179 0
M  V30 36198 O 2525.38 5.99158 4.88404 0
M  V30 36199 C 2526.32 6.60062 3.96313 0
M  V30 36200 C 2525.59 7.08259 2.72856 0
M  V30 36201 O 2525.38 5.9427 1.83651 0
M  V30 36202 C 2524.19 7.65087 2.94749 0
M  V30 36203 O 2523.8 8.53963 1.90717 0
M  V30 36204 C 2523.31 6.41069 2.90698 0
M  V30 36205 C 2524.02 5.5528 1.86931 0
M  V30 36206 N 2523.97 4.09575 2.15696 0
M  V30 36207 C 2523.82 3.24249 1.08435 0
M  V30 36208 O 2523.73 3.63946 -0.0628747 0
M  V30 36209 N 2523.78 1.90009 1.39973 0
M  V30 36210 C 2523.87 1.34884 2.65614 0
M  V30 36211 O 2523.82 0.123716 2.81728 0
M  V30 36212 C 2524.02 2.3145 3.71736 0
M  V30 36213 C 2524.13 1.75913 5.10438 0
M  V30 36214 C 2524.07 3.63518 3.44754 0
M  V30 36215 H 2526.81 7.45402 4.45526 0
M  V30 36216 H 2527.08 5.86062 3.67208 0
M  V30 36217 H 2526.21 7.84412 2.24479 0
M  V30 36218 H 2523.55 5.73358 0.888409 0
M  V30 36219 H 2523.27 5.90877 3.88583 0
M  V30 36220 H 2522.28 6.65867 2.58821 0
M  V30 36221 H 2524.12 8.16248 3.92006 0
M  V30 36222 H 2524.19 4.34551 4.26383 0
M  V30 36223 H 2523.16 1.85471 5.61775 0
M  V30 36224 H 2524.89 2.31364 5.66257 0
M  V30 36225 H 2524.41 0.695936 5.05229 0
M  V30 36226 H 2523.67 1.26277 0.63625 0
M  V30 36227 P 2522.25 8.7635 1.60911 0
M  V30 36228 O 2522.03 10.1388 1.11561 0
M  V30 36229 O 2521.46 8.36503 2.79617 0
M  V30 36230 O 2522 7.71806 0.42951 0
M  V30 36231 C 2522.94 7.67148 -0.673689 0
M  V30 36232 C 2522.21 7.33374 -1.95559 0
M  V30 36233 O 2522 5.88721 -2.00726 0
M  V30 36234 C 2520.81 7.92526 -2.10483 0
M  V30 36235 O 2520.42 8.02971 -3.47653 0
M  V30 36236 C 2519.93 6.89602 -1.41652 0
M  V30 36237 C 2520.64 5.59201 -1.75185 0
M  V30 36238 N 2520.59 4.58235 -0.662552 0
M  V30 36239 H 2523.42 8.65116 -0.777161 0
M  V30 36240 H 2523.7 6.90173 -0.474152 0
M  V30 36241 H 2522.83 7.66548 -2.79458 0
M  V30 36242 P 2518.87 8.03563 -3.84925 0
M  V30 36243 O 2518.65 8.85821 -5.0569 0
M  V30 36244 O 2518.08 8.41101 -2.65469 0
M  V30 36245 O 2518.62 6.4965 -4.18908 0
M  V30 36246 C 2519.56 5.81037 -5.05421 0
M  V30 36247 C 2518.83 4.78366 -5.89277 0
M  V30 36248 O 2518.62 3.58302 -5.08433 0
M  V30 36249 C 2517.43 5.17448 -6.36119 0
M  V30 36250 O 2517.04 4.45271 -7.53232 0
M  V30 36251 C 2516.55 4.74639 -5.19936 0
M  V30 36252 C 2517.26 3.49432 -4.70418 0
M  V30 36253 N 2517.21 3.31776 -3.22945 0
M  V30 36254 H 2520.04 6.54213 -5.71376 0
M  V30 36255 H 2520.32 5.30492 -4.44033 0
M  V30 36256 H 2519.45 4.55889 -6.76652 0
M  V30 36257 P 2515.49 4.23843 -7.83734 0
M  V30 36258 O 2515.27 4.19407 -9.29784 0
M  V30 36259 O 2514.7 5.24426 -7.09156 0
M  V30 36260 O 2515.24 2.7935 -7.20758 0
M  V30 36261 C 2516.18 1.72945 -7.50224 0
M  V30 36262 C 2515.45 0.406376 -7.57911 0
M  V30 36263 O 2515.24 -0.0897726 -6.21935 0
M  V30 36264 C 2514.05 0.438983 -8.18724 0
M  V30 36265 O 2513.66 -0.825065 -8.71101 0
M  V30 36266 C 2513.17 0.783689 -6.99524 0
M  V30 36267 C 2513.88 0.0619086 -5.85867 0
M  V30 36268 N 2513.83 0.78573 -4.56183 0
M  V30 36269 C 2513.68 0.0292889 -3.41887 0
M  V30 36270 O 2513.59 -1.18445 -3.4419 0
M  V30 36271 N 2513.64 0.744061 -2.23964 0
M  V30 36272 C 2513.73 2.10932 -2.10362 0
M  V30 36273 C 2513.88 2.8202 -3.34994 0
M  V30 36274 C 2513.93 2.15547 -4.52261 0
M  V30 36275 H 2516.67 1.93379 -8.46595 0
M  V30 36276 H 2516.94 1.68132 -6.70852 0
M  V30 36277 H 2516.07 -0.289041 -8.15388 0
M  V30 36278 H 2513.41 -0.926847 -5.72749 0
M  V30 36279 H 2513.13 1.86973 -6.82036 0
M  V30 36280 H 2512.14 0.403896 -7.13257 0
M  V30 36281 H 2513.98 1.20585 -8.97435 0
M  V30 36282 H 2514.05 2.71231 -5.45042 0
M  V30 36283 P 2512.11 -1.17771 -8.83182 0
M  V30 36284 O 2511.89 -2.07206 -9.98732 0
M  V30 36285 O 2511.32 0.0743816 -8.81969 0
M  V30 36286 O 2511.86 -1.97652 -7.47304 0
M  V30 36287 C 2512.8 -3.01133 -7.08783 0
M  V30 36288 C 2512.07 -4.12613 -6.37049 0
M  V30 36289 O 2511.86 -3.72827 -4.97879 0
M  V30 36290 C 2510.67 -4.45085 -6.88694 0
M  V30 36291 O 2510.28 -5.7877 -6.5624 0
M  V30 36292 C 2509.79 -3.47817 -6.12078 0
M  V30 36293 C 2510.5 -3.39414 -4.77697 0
M  V30 36294 N 2510.45 -2.04615 -4.15333 0
M  V30 36295 H 2513.28 -3.41248 -7.98759 0
M  V30 36296 H 2513.56 -2.5837 -6.41742 0
M  V30 36297 H 2512.69 -5.02657 -6.42673 0
M  V30 36298 P 2508.73 -6.144 -6.45285 0
M  V30 36299 O 2508.51 -7.54673 -6.86199 0
M  V30 36300 O 2507.94 -5.12391 -7.179 0
M  V30 36301 O 2508.48 -5.99158 -4.88404 0
M  V30 36302 C 2509.42 -6.60234 -3.96415 0
M  V30 36303 C 2508.69 -7.08259 -2.72856 0
M  V30 36304 O 2508.48 -5.9427 -1.83651 0
M  V30 36305 C 2507.29 -7.64886 -2.9555 0
M  V30 36306 O 2506.9 -8.53963 -1.90717 0
M  V30 36307 C 2506.41 -6.4116 -2.90739 0
M  V30 36308 C 2507.12 -5.55375 -1.86963 0
M  V30 36309 N 2507.07 -4.09448 -2.16152 0
M  V30 36310 H 2509.9 -7.45574 -4.45629 0
M  V30 36311 H 2510.18 -5.85864 -3.679 0
M  V30 36312 H 2509.31 -7.84412 -2.24479 0
M  V30 36313 H 2506.65 -5.73457 -0.888562 0
M  V30 36314 H 2506.37 -5.90877 -3.88583 0
M  V30 36315 H 2505.38 -6.6596 -2.58858 0
M  V30 36316 H 2507.22 -8.16339 -3.92049 0
M  V30 36317 P 2505.35 -8.7635 -1.60911 0
M  V30 36318 O 2505.13 -10.1388 -1.11561 0
M  V30 36319 O 2504.56 -8.36503 -2.79617 0
M  V30 36320 O 2505.1 -7.71806 -0.42951 0
M  V30 36321 C 2506.04 -7.67148 0.673689 0
M  V30 36322 C 2505.31 -7.33374 1.95559 0
M  V30 36323 O 2505.1 -5.88721 2.00726 0
M  V30 36324 C 2503.91 -7.92526 2.10483 0
M  V30 36325 O 2503.52 -8.02971 3.47653 0
M  V30 36326 C 2503.03 -6.89602 1.41652 0
M  V30 36327 C 2503.74 -5.59201 1.75185 0
M  V30 36328 N 2503.69 -4.58235 0.662552 0
M  V30 36329 H 2506.52 -8.65116 0.777161 0
M  V30 36330 H 2506.8 -6.90173 0.474152 0
M  V30 36331 H 2505.93 -7.66548 2.79458 0
M  V30 36332 P 2501.97 -8.03563 3.84925 0
M  V30 36333 O 2501.75 -8.85821 5.0569 0
M  V30 36334 O 2501.18 -8.41101 2.65469 0
M  V30 36335 O 2501.72 -6.4965 4.18908 0
M  V30 36336 C 2502.66 -5.81037 5.05421 0
M  V30 36337 C 2501.93 -4.78366 5.89277 0
M  V30 36338 O 2501.72 -3.58302 5.08433 0
M  V30 36339 C 2500.53 -5.17448 6.36119 0
M  V30 36340 O 2500.14 -4.45271 7.53232 0
M  V30 36341 C 2499.65 -4.74639 5.19936 0
M  V30 36342 C 2500.36 -3.49432 4.70418 0
M  V30 36343 N 2500.31 -3.32099 3.22613 0
M  V30 36344 C 2500.39 -4.28245 2.25527 0
M  V30 36345 N 2500.32 -3.80823 1.04874 0
M  V30 36346 C 2500.17 -2.44571 1.23535 0
M  V30 36347 C 2500.04 -1.37068 0.330675 0
M  V30 36348 N 2500.03 -1.51472 -0.990824 0
M  V30 36349 N 2499.92 -0.138614 0.848756 0
M  V30 36350 C 2499.93 0.00675923 2.16999 0
M  V30 36351 N 2500.05 -0.904372 3.11122 0
M  V30 36352 C 2500.17 -2.12707 2.56212 0
M  V30 36353 H 2503.14 -6.54213 5.71376 0
M  V30 36354 H 2503.42 -5.30936 4.43503 0
M  V30 36355 H 2502.55 -4.55889 6.76652 0
M  V30 36356 H 2499.89 -2.61715 5.17932 0
M  V30 36357 H 2499.61 -5.52155 4.41878 0
M  V30 36358 H 2498.62 -4.51981 5.53374 0
M  V30 36359 H 2500.46 -6.25124 6.55234 0
M  V30 36360 H 2500.5 -5.34372 2.47488 0
M  V30 36361 H 2500.12 -2.45153 -1.4078 0
M  V30 36362 H 2499.93 -0.688422 -1.59911 0
M  V30 36363 H 2499.82 1.02584 2.52346 0
M  V30 36364 P 2498.59 -4.23843 7.83734 0
M  V30 36365 O 2498.37 -4.19407 9.29784 0
M  V30 36366 O 2497.8 -5.24426 7.09156 0
M  V30 36367 O 2498.34 -2.7935 7.20758 0
M  V30 36368 C 2499.28 -1.7299 7.50419 0
M  V30 36369 C 2498.55 -0.406376 7.57911 0
M  V30 36370 O 2498.34 0.0897726 6.21935 0
M  V30 36371 C 2497.15 -0.447224 8.1878 0
M  V30 36372 O 2496.76 0.825065 8.71101 0
M  V30 36373 C 2496.27 -0.783801 6.99623 0
M  V30 36374 C 2496.98 -0.0619192 5.85967 0
M  V30 36375 N 2496.93 -0.790462 4.56202 0
M  V30 36376 H 2499.76 -1.93423 8.4679 0
M  V30 36377 H 2500.04 -1.68852 6.70877 0
M  V30 36378 H 2499.17 0.289041 8.15388 0
M  V30 36379 H 2496.51 0.927006 5.72848 0
M  V30 36380 H 2496.23 -1.86973 6.82036 0
M  V30 36381 H 2495.24 -0.403953 7.13357 0
M  V30 36382 H 2497.08 -1.20599 8.97534 0
M  V30 36383 P 2495.21 1.17771 8.83182 0
M  V30 36384 O 2494.99 2.07206 9.98732 0
M  V30 36385 O 2494.42 -0.0743816 8.81969 0
M  V30 36386 O 2494.96 1.97652 7.47304 0
M  V30 36387 C 2495.9 3.01133 7.08783 0
M  V30 36388 C 2495.17 4.12613 6.37049 0
M  V30 36389 O 2494.96 3.72827 4.97879 0
M  V30 36390 C 2493.77 4.45085 6.88694 0
M  V30 36391 O 2493.38 5.7877 6.5624 0
M  V30 36392 C 2492.89 3.47817 6.12078 0
M  V30 36393 C 2493.6 3.39414 4.77697 0
M  V30 36394 N 2493.55 2.04615 4.15333 0
M  V30 36395 H 2496.38 3.41248 7.98759 0
M  V30 36396 H 2496.66 2.5837 6.41742 0
M  V30 36397 H 2495.79 5.02657 6.42673 0
M  V30 36398 P 2491.83 6.144 6.45285 0
M  V30 36399 O 2491.61 7.54673 6.86199 0
M  V30 36400 O 2491.04 5.12391 7.179 0
M  V30 36401 O 2491.58 5.99158 4.88404 0
M  V30 36402 C 2492.52 6.60234 3.96415 0
M  V30 36403 C 2491.79 7.08259 2.72856 0
M  V30 36404 O 2491.58 5.9427 1.83651 0
M  V30 36405 C 2490.39 7.64886 2.9555 0
M  V30 36406 O 2490 8.53963 1.90717 0
M  V30 36407 C 2489.51 6.4116 2.90739 0
M  V30 36408 C 2490.22 5.55375 1.86963 0
M  V30 36409 N 2490.17 4.09664 2.15742 0
M  V30 36410 C 2490.25 3.44381 3.37233 0
M  V30 36411 N 2490.17 2.14131 3.28347 0
M  V30 36412 C 2490.03 1.90247 1.91588 0
M  V30 36413 C 2489.9 0.683992 1.20892 0
M  V30 36414 O 2489.88 -0.46618 1.64523 0
M  V30 36415 N 2489.78 0.903396 -0.173998 0
M  V30 36416 C 2489.78 2.14171 -0.784879 0
M  V30 36417 N 2489.65 2.1435 -2.11317 0
M  V30 36418 N 2489.91 3.28784 -0.119316 0
M  V30 36419 C 2490.03 3.0977 1.22194 0
M  V30 36420 H 2493 7.45574 4.45629 0
M  V30 36421 H 2493.28 5.86232 3.67314 0
M  V30 36422 H 2492.41 7.84412 2.24479 0
M  V30 36423 H 2489.75 5.73556 0.888715 0
M  V30 36424 H 2489.47 5.9096 3.88638 0
M  V30 36425 H 2488.48 6.66053 2.58894 0
M  V30 36426 H 2490.32 8.16429 3.92093 0
M  V30 36427 H 2490.37 3.96785 4.32043 0
M  V30 36428 H 2489.68 0.0999567 -0.761467 0
M  V30 36429 H 2489.65 3.03436 -2.63076 0
M  V30 36430 H 2489.55 1.25228 -2.62233 0
M  V30 36431 P 2488.45 8.7635 1.60911 0
M  V30 36432 O 2488.23 10.1388 1.11561 0
M  V30 36433 O 2487.66 8.36503 2.79617 0
M  V30 36434 O 2488.2 7.71806 0.42951 0
M  V30 36435 C 2489.14 7.67148 -0.673689 0
M  V30 36436 C 2488.41 7.33374 -1.95559 0
M  V30 36437 O 2488.2 5.88721 -2.00726 0
M  V30 36438 C 2487.01 7.92526 -2.10483 0
M  V30 36439 O 2486.62 8.02971 -3.47653 0
M  V30 36440 C 2486.13 6.89602 -1.41652 0
M  V30 36441 C 2486.84 5.59201 -1.75185 0
M  V30 36442 N 2486.79 4.58235 -0.662552 0
M  V30 36443 H 2489.62 8.65116 -0.777161 0
M  V30 36444 H 2489.9 6.90173 -0.474152 0
M  V30 36445 H 2489.03 7.66548 -2.79458 0
M  V30 36446 P 2485.07 8.03563 -3.84925 0
M  V30 36447 O 2484.85 8.85821 -5.0569 0
M  V30 36448 O 2484.28 8.41101 -2.65469 0
M  V30 36449 O 2484.82 6.4965 -4.18908 0
M  V30 36450 C 2485.76 5.81037 -5.05421 0
M  V30 36451 C 2485.03 4.78366 -5.89277 0
M  V30 36452 O 2484.82 3.58302 -5.08433 0
M  V30 36453 C 2483.63 5.17448 -6.36119 0
M  V30 36454 O 2483.24 4.45271 -7.53232 0
M  V30 36455 C 2482.75 4.74639 -5.19936 0
M  V30 36456 C 2483.46 3.49432 -4.70418 0
M  V30 36457 N 2483.41 3.31776 -3.22945 0
M  V30 36458 H 2486.24 6.54213 -5.71376 0
M  V30 36459 H 2486.52 5.30492 -4.44033 0
M  V30 36460 H 2485.65 4.55889 -6.76652 0
M  V30 36461 P 2481.69 4.23843 -7.83734 0
M  V30 36462 O 2481.47 4.19407 -9.29784 0
M  V30 36463 O 2480.9 5.24426 -7.09156 0
M  V30 36464 O 2481.44 2.7935 -7.20758 0
M  V30 36465 C 2482.38 1.7299 -7.50419 0
M  V30 36466 C 2481.65 0.406376 -7.57911 0
M  V30 36467 O 2481.44 -0.0897726 -6.21935 0
M  V30 36468 C 2480.25 0.447224 -8.1878 0
M  V30 36469 O 2479.86 -0.825065 -8.71101 0
M  V30 36470 C 2479.37 0.783801 -6.99623 0
M  V30 36471 C 2480.08 0.0619192 -5.85967 0
M  V30 36472 N 2480.03 0.7859 -4.56281 0
M  V30 36473 H 2482.86 1.93423 -8.4679 0
M  V30 36474 H 2483.14 1.68181 -6.71046 0
M  V30 36475 H 2482.27 -0.289041 -8.15388 0
M  V30 36476 P 2478.31 -1.17771 -8.83182 0
M  V30 36477 O 2478.09 -2.07206 -9.98732 0
M  V30 36478 O 2477.52 0.0743816 -8.81969 0
M  V30 36479 O 2478.06 -1.97652 -7.47304 0
M  V30 36480 C 2479 -3.01055 -7.08599 0
M  V30 36481 C 2478.27 -4.12613 -6.37049 0
M  V30 36482 O 2478.06 -3.72827 -4.97879 0
M  V30 36483 C 2476.87 -4.45719 -6.88164 0
M  V30 36484 O 2476.48 -5.7877 -6.5624 0
M  V30 36485 C 2475.99 -3.47768 -6.11991 0
M  V30 36486 C 2476.7 -3.39356 -4.77615 0
M  V30 36487 N 2476.65 -2.04571 -4.15244 0
M  V30 36488 C 2476.5 -1.98587 -2.78314 0
M  V30 36489 O 2476.41 -2.98134 -2.08835 0
M  V30 36490 N 2476.46 -0.714467 -2.24925 0
M  V30 36491 C 2476.55 0.470001 -2.94169 0
M  V30 36492 O 2476.5 1.55587 -2.35195 0
M  V30 36493 C 2476.7 0.312541 -4.36783 0
M  V30 36494 C 2476.81 1.57711 -5.16352 0
M  V30 36495 C 2476.75 -0.914512 -4.92583 0
M  V30 36496 H 2479.49 -3.41169 -7.98575 0
M  V30 36497 H 2479.76 -2.58295 -6.41556 0
M  V30 36498 H 2478.89 -5.02657 -6.42673 0
M  V30 36499 H 2476.23 -4.11637 -4.08885 0
M  V30 36500 H 2475.95 -2.49626 -6.61679 0
M  V30 36501 H 2474.96 -3.86566 -6.00778 0
M  V30 36502 H 2476.8 -4.29943 -7.96918 0
M  V30 36503 H 2476.87 -1.00937 -6.00374 0
M  V30 36504 H 2475.84 1.80153 -5.63503 0
M  V30 36505 H 2477.57 1.4566 -5.94104 0
M  V30 36506 H 2477.09 2.40664 -4.49645 0
M  V30 36507 H 2476.35 -0.647622 -1.25697 0
M  V30 36508 P 2474.93 -6.144 -6.45285 0
M  V30 36509 O 2474.71 -7.54673 -6.86199 0
M  V30 36510 O 2474.14 -5.12391 -7.179 0
M  V30 36511 O 2474.68 -5.99158 -4.88404 0
M  V30 36512 C 2475.62 -6.60234 -3.96415 0
M  V30 36513 C 2474.89 -7.08259 -2.72856 0
M  V30 36514 O 2474.68 -5.9427 -1.83651 0
M  V30 36515 C 2473.49 -7.64886 -2.9555 0
M  V30 36516 O 2473.1 -8.53963 -1.90717 0
M  V30 36517 C 2472.61 -6.4116 -2.90739 0
M  V30 36518 C 2473.32 -5.55375 -1.86963 0
M  V30 36519 N 2473.27 -4.09664 -2.15742 0
M  V30 36520 H 2476.1 -7.45574 -4.45629 0
M  V30 36521 H 2476.38 -5.86232 -3.67314 0
M  V30 36522 H 2475.51 -7.84412 -2.24479 0
M  V30 36523 P 2471.55 -8.7635 -1.60911 0
M  V30 36524 O 2471.33 -10.1388 -1.11561 0
M  V30 36525 O 2470.76 -8.36503 -2.79617 0
M  V30 36526 O 2471.3 -7.71806 -0.42951 0
M  V30 36527 C 2472.24 -7.67148 0.673689 0
M  V30 36528 C 2471.51 -7.33374 1.95559 0
M  V30 36529 O 2471.3 -5.88721 2.00726 0
M  V30 36530 C 2470.11 -7.92526 2.10483 0
M  V30 36531 O 2469.72 -8.02971 3.47653 0
M  V30 36532 C 2469.23 -6.89602 1.41652 0
M  V30 36533 C 2469.94 -5.59201 1.75185 0
M  V30 36534 N 2469.89 -4.58235 0.662552 0
M  V30 36535 H 2472.72 -8.65116 0.777161 0
M  V30 36536 H 2473 -6.90173 0.474152 0
M  V30 36537 H 2472.13 -7.66548 2.79458 0
M  V30 36538 P 2468.17 -8.03563 3.84925 0
M  V30 36539 O 2467.95 -8.85821 5.0569 0
M  V30 36540 O 2467.38 -8.41101 2.65469 0
M  V30 36541 O 2467.92 -6.4965 4.18908 0
M  V30 36542 C 2468.86 -5.81037 5.05421 0
M  V30 36543 C 2468.13 -4.78366 5.89277 0
M  V30 36544 O 2467.92 -3.58302 5.08433 0
M  V30 36545 C 2466.73 -5.17448 6.36119 0
M  V30 36546 O 2466.34 -4.45271 7.53232 0
M  V30 36547 C 2465.85 -4.74639 5.19936 0
M  V30 36548 C 2466.56 -3.49432 4.70418 0
M  V30 36549 N 2466.51 -3.31776 3.22945 0
M  V30 36550 H 2469.34 -6.54213 5.71376 0
M  V30 36551 H 2469.62 -5.30492 4.44033 0
M  V30 36552 H 2468.75 -4.55889 6.76652 0
M  V30 36553 P 2464.79 -4.23843 7.83734 0
M  V30 36554 O 2464.57 -4.19407 9.29784 0
M  V30 36555 O 2464 -5.24426 7.09156 0
M  V30 36556 O 2464.54 -2.7935 7.20758 0
M  V30 36557 C 2465.48 -1.7299 7.50419 0
M  V30 36558 C 2464.75 -0.406376 7.57911 0
M  V30 36559 O 2464.54 0.0897726 6.21935 0
M  V30 36560 C 2463.35 -0.447224 8.1878 0
M  V30 36561 O 2462.96 0.825065 8.71101 0
M  V30 36562 C 2462.47 -0.783801 6.99623 0
M  V30 36563 C 2463.18 -0.0619192 5.85967 0
M  V30 36564 N 2463.13 -0.790462 4.56202 0
M  V30 36565 H 2465.96 -1.93423 8.4679 0
M  V30 36566 H 2466.24 -1.68852 6.70877 0
M  V30 36567 H 2465.37 0.289041 8.15388 0
M  V30 36568 H 2462.71 0.927006 5.72848 0
M  V30 36569 H 2462.43 -1.86973 6.82036 0
M  V30 36570 H 2461.44 -0.403953 7.13357 0
M  V30 36571 H 2463.28 -1.20599 8.97534 0
M  V30 36572 P 2461.41 1.17771 8.83182 0
M  V30 36573 O 2461.19 2.07206 9.98732 0
M  V30 36574 O 2460.62 -0.0743816 8.81969 0
M  V30 36575 O 2461.16 1.97652 7.47304 0
M  V30 36576 C 2462.1 3.01133 7.08783 0
M  V30 36577 C 2461.37 4.12613 6.37049 0
M  V30 36578 O 2461.16 3.72827 4.97879 0
M  V30 36579 C 2459.97 4.45085 6.88694 0
M  V30 36580 O 2459.58 5.7877 6.5624 0
M  V30 36581 C 2459.09 3.47817 6.12078 0
M  V30 36582 C 2459.8 3.39414 4.77697 0
M  V30 36583 N 2459.75 2.04615 4.15333 0
M  V30 36584 H 2462.58 3.41248 7.98759 0
M  V30 36585 H 2462.86 2.5837 6.41742 0
M  V30 36586 H 2461.99 5.02657 6.42673 0
M  V30 36587 P 2458.03 6.144 6.45285 0
M  V30 36588 O 2457.81 7.54673 6.86199 0
M  V30 36589 O 2457.24 5.12391 7.179 0
M  V30 36590 O 2457.78 5.99158 4.88404 0
M  V30 36591 C 2458.72 6.60234 3.96415 0
M  V30 36592 C 2457.99 7.08259 2.72856 0
M  V30 36593 O 2457.78 5.9427 1.83651 0
M  V30 36594 C 2456.59 7.64886 2.9555 0
M  V30 36595 O 2456.2 8.53963 1.90717 0
M  V30 36596 C 2455.71 6.4116 2.90739 0
M  V30 36597 C 2456.42 5.55375 1.86963 0
M  V30 36598 N 2456.37 4.09664 2.15742 0
M  V30 36599 C 2456.45 3.44381 3.37233 0
M  V30 36600 N 2456.37 2.14131 3.28347 0
M  V30 36601 C 2456.23 1.90247 1.91588 0
M  V30 36602 C 2456.1 0.683992 1.20892 0
M  V30 36603 N 2455.98 0.903396 -0.173998 0
M  V30 36604 C 2455.98 2.14171 -0.784879 0
M  V30 36605 N 2455.85 2.1435 -2.11317 0
M  V30 36606 N 2456.11 3.28784 -0.119316 0
M  V30 36607 C 2456.23 3.0977 1.22194 0
M  V30 36608 H 2459.2 7.45574 4.45629 0
M  V30 36609 H 2459.48 5.86232 3.67314 0
M  V30 36610 H 2458.61 7.84412 2.24479 0
M  V30 36611 P 2454.65 8.7635 1.60911 0
M  V30 36612 O 2454.43 10.1388 1.11561 0
M  V30 36613 O 2453.86 8.36503 2.79617 0
M  V30 36614 O 2454.4 7.71806 0.42951 0
M  V30 36615 C 2455.34 7.67148 -0.673689 0
M  V30 36616 C 2454.61 7.33374 -1.95559 0
M  V30 36617 O 2454.4 5.88721 -2.00726 0
M  V30 36618 C 2453.21 7.92526 -2.10483 0
M  V30 36619 O 2452.82 8.02971 -3.47653 0
M  V30 36620 C 2452.33 6.89602 -1.41652 0
M  V30 36621 C 2453.04 5.59201 -1.75185 0
M  V30 36622 N 2452.99 4.58235 -0.662552 0
M  V30 36623 H 2455.82 8.65116 -0.777161 0
M  V30 36624 H 2456.1 6.90173 -0.474152 0
M  V30 36625 H 2455.23 7.66548 -2.79458 0
M  V30 36626 P 2451.27 8.03563 -3.84925 0
M  V30 36627 O 2451.05 8.85821 -5.0569 0
M  V30 36628 O 2450.48 8.41101 -2.65469 0
M  V30 36629 O 2451.02 6.4965 -4.18908 0
M  V30 36630 C 2451.96 5.81037 -5.05421 0
M  V30 36631 C 2451.23 4.78366 -5.89277 0
M  V30 36632 O 2451.02 3.58302 -5.08433 0
M  V30 36633 C 2449.83 5.17448 -6.36119 0
M  V30 36634 O 2449.44 4.45271 -7.53232 0
M  V30 36635 C 2448.95 4.74639 -5.19936 0
M  V30 36636 C 2449.66 3.49432 -4.70418 0
M  V30 36637 N 2449.61 3.32099 -3.22613 0
M  V30 36638 H 2452.44 6.54213 -5.71376 0
M  V30 36639 H 2452.72 5.30936 -4.43503 0
M  V30 36640 H 2451.85 4.55889 -6.76652 0
M  V30 36641 H 2449.19 2.61715 -5.17932 0
M  V30 36642 H 2448.91 5.52155 -4.41878 0
M  V30 36643 H 2447.92 4.51981 -5.53374 0
M  V30 36644 H 2449.76 6.25124 -6.55234 0
M  V30 36645 P 2447.89 4.23843 -7.83734 0
M  V30 36646 O 2447.67 4.19407 -9.29784 0
M  V30 36647 O 2447.1 5.24426 -7.09156 0
M  V30 36648 O 2447.64 2.7935 -7.20758 0
M  V30 36649 C 2448.58 1.72945 -7.50224 0
M  V30 36650 C 2447.85 0.406376 -7.57911 0
M  V30 36651 O 2447.64 -0.0897726 -6.21935 0
M  V30 36652 C 2446.45 0.438983 -8.18724 0
M  V30 36653 O 2446.06 -0.825065 -8.71101 0
M  V30 36654 C 2445.57 0.783689 -6.99524 0
M  V30 36655 C 2446.28 0.0619086 -5.85867 0
M  V30 36656 N 2446.23 0.78573 -4.56183 0
M  V30 36657 C 2446.08 0.0292889 -3.41887 0
M  V30 36658 O 2445.99 -1.18445 -3.4419 0
M  V30 36659 N 2446.04 0.744061 -2.23964 0
M  V30 36660 C 2446.13 2.10932 -2.10362 0
M  V30 36661 O 2446.08 2.64117 -0.98825 0
M  V30 36662 C 2446.28 2.8202 -3.34994 0
M  V30 36663 C 2446.39 4.31095 -3.25037 0
M  V30 36664 C 2446.33 2.15547 -4.52261 0
M  V30 36665 H 2449.07 1.93379 -8.46595 0
M  V30 36666 H 2449.34 1.68132 -6.70852 0
M  V30 36667 H 2448.47 -0.289041 -8.15388 0
M  V30 36668 H 2445.81 -0.926847 -5.72749 0
M  V30 36669 H 2445.53 1.86973 -6.82036 0
M  V30 36670 H 2444.54 0.403896 -7.13257 0
M  V30 36671 H 2446.38 1.20585 -8.97435 0
M  V30 36672 H 2446.45 2.71231 -5.45042 0
M  V30 36673 H 2445.42 4.76966 -3.49992 0
M  V30 36674 H 2447.15 4.67047 -3.95024 0
M  V30 36675 H 2446.67 4.58996 -2.22312 0
M  V30 36676 H 2445.93 0.214893 -1.39758 0
M  V30 36677 P 2444.51 -1.17771 -8.83182 0
M  V30 36678 O 2444.29 -2.07206 -9.98732 0
M  V30 36679 O 2443.72 0.0743816 -8.81969 0
M  V30 36680 O 2444.26 -1.97652 -7.47304 0
M  V30 36681 C 2445.2 -3.01133 -7.08783 0
M  V30 36682 C 2444.47 -4.12613 -6.37049 0
M  V30 36683 O 2444.26 -3.72827 -4.97879 0
M  V30 36684 C 2443.07 -4.45085 -6.88694 0
M  V30 36685 O 2442.68 -5.7877 -6.5624 0
M  V30 36686 C 2442.19 -3.47817 -6.12078 0
M  V30 36687 C 2442.9 -3.39414 -4.77697 0
M  V30 36688 N 2442.85 -2.04615 -4.15333 0
M  V30 36689 H 2445.68 -3.41248 -7.98759 0
M  V30 36690 H 2445.96 -2.5837 -6.41742 0
M  V30 36691 H 2445.09 -5.02657 -6.42673 0
M  V30 36692 P 2441.13 -6.144 -6.45285 0
M  V30 36693 O 2440.91 -7.54673 -6.86199 0
M  V30 36694 O 2440.34 -5.12391 -7.179 0
M  V30 36695 O 2440.88 -5.99158 -4.88404 0
M  V30 36696 C 2441.82 -6.60234 -3.96415 0
M  V30 36697 C 2441.09 -7.08259 -2.72856 0
M  V30 36698 O 2440.88 -5.9427 -1.83651 0
M  V30 36699 C 2439.69 -7.64886 -2.9555 0
M  V30 36700 O 2439.3 -8.53963 -1.90717 0
M  V30 36701 C 2438.81 -6.4116 -2.90739 0
M  V30 36702 C 2439.52 -5.55375 -1.86963 0
M  V30 36703 N 2439.47 -4.09448 -2.16152 0
M  V30 36704 H 2442.3 -7.45574 -4.45629 0
M  V30 36705 H 2442.58 -5.85864 -3.679 0
M  V30 36706 H 2441.71 -7.84412 -2.24479 0
M  V30 36707 H 2439.05 -5.73457 -0.888562 0
M  V30 36708 H 2438.77 -5.90877 -3.88583 0
M  V30 36709 H 2437.78 -6.6596 -2.58858 0
M  V30 36710 H 2439.62 -8.16339 -3.92049 0
M  V30 36711 P 2437.75 -8.7635 -1.60911 0
M  V30 36712 O 2437.53 -10.1388 -1.11561 0
M  V30 36713 O 2436.96 -8.36503 -2.79617 0
M  V30 36714 O 2437.5 -7.71806 -0.42951 0
M  V30 36715 C 2438.44 -7.67148 0.673689 0
M  V30 36716 C 2437.71 -7.33374 1.95559 0
M  V30 36717 O 2437.5 -5.88721 2.00726 0
M  V30 36718 C 2436.31 -7.92526 2.10483 0
M  V30 36719 O 2435.92 -8.02971 3.47653 0
M  V30 36720 C 2435.43 -6.89602 1.41652 0
M  V30 36721 C 2436.14 -5.59201 1.75185 0
M  V30 36722 N 2436.09 -4.58235 0.662552 0
M  V30 36723 H 2438.92 -8.65116 0.777161 0
M  V30 36724 H 2439.2 -6.90173 0.474152 0
M  V30 36725 H 2438.33 -7.66548 2.79458 0
M  V30 36726 P 2434.37 -8.03563 3.84925 0
M  V30 36727 O 2434.15 -8.85821 5.0569 0
M  V30 36728 O 2433.58 -8.41101 2.65469 0
M  V30 36729 O 2434.12 -6.4965 4.18908 0
M  V30 36730 C 2435.06 -5.81037 5.05421 0
M  V30 36731 C 2434.33 -4.78366 5.89277 0
M  V30 36732 O 2434.12 -3.58302 5.08433 0
M  V30 36733 C 2432.93 -5.17448 6.36119 0
M  V30 36734 O 2432.54 -4.45271 7.53232 0
M  V30 36735 C 2432.05 -4.74639 5.19936 0
M  V30 36736 C 2432.76 -3.49432 4.70418 0
M  V30 36737 N 2432.71 -3.31776 3.22945 0
M  V30 36738 H 2435.54 -6.54213 5.71376 0
M  V30 36739 H 2435.82 -5.30492 4.44033 0
M  V30 36740 H 2434.95 -4.55889 6.76652 0
M  V30 36741 P 2430.99 -4.23843 7.83734 0
M  V30 36742 O 2430.77 -4.19407 9.29784 0
M  V30 36743 O 2430.2 -5.24426 7.09156 0
M  V30 36744 O 2430.74 -2.7935 7.20758 0
M  V30 36745 C 2431.68 -1.7299 7.50419 0
M  V30 36746 C 2430.95 -0.406376 7.57911 0
M  V30 36747 O 2430.74 0.0897726 6.21935 0
M  V30 36748 C 2429.55 -0.447224 8.1878 0
M  V30 36749 O 2429.16 0.825065 8.71101 0
M  V30 36750 C 2428.67 -0.783801 6.99623 0
M  V30 36751 C 2429.38 -0.0619192 5.85967 0
M  V30 36752 N 2429.33 -0.7859 4.56281 0
M  V30 36753 H 2432.16 -1.93423 8.4679 0
M  V30 36754 H 2432.44 -1.68181 6.71046 0
M  V30 36755 H 2431.57 0.289041 8.15388 0
M  V30 36756 P 2427.61 1.17771 8.83182 0
M  V30 36757 O 2427.39 2.07206 9.98732 0
M  V30 36758 O 2426.82 -0.0743816 8.81969 0
M  V30 36759 O 2427.36 1.97652 7.47304 0
M  V30 36760 C 2428.3 3.01133 7.08783 0
M  V30 36761 C 2427.57 4.12613 6.37049 0
M  V30 36762 O 2427.36 3.72827 4.97879 0
M  V30 36763 C 2426.17 4.45085 6.88694 0
M  V30 36764 O 2425.78 5.7877 6.5624 0
M  V30 36765 C 2425.29 3.47817 6.12078 0
M  V30 36766 C 2426 3.39414 4.77697 0
M  V30 36767 N 2425.95 2.04615 4.15333 0
M  V30 36768 H 2428.78 3.41248 7.98759 0
M  V30 36769 H 2429.06 2.5837 6.41742 0
M  V30 36770 H 2428.19 5.02657 6.42673 0
M  V30 36771 P 2424.23 6.144 6.45285 0
M  V30 36772 O 2424.01 7.54673 6.86199 0
M  V30 36773 O 2423.44 5.12391 7.179 0
M  V30 36774 O 2423.98 5.99158 4.88404 0
M  V30 36775 C 2424.92 6.60234 3.96415 0
M  V30 36776 C 2424.19 7.08259 2.72856 0
M  V30 36777 O 2423.98 5.9427 1.83651 0
M  V30 36778 C 2422.79 7.64886 2.9555 0
M  V30 36779 O 2422.4 8.53963 1.90717 0
M  V30 36780 C 2421.91 6.4116 2.90739 0
M  V30 36781 C 2422.62 5.55375 1.86963 0
M  V30 36782 N 2422.57 4.09664 2.15742 0
M  V30 36783 H 2425.4 7.45574 4.45629 0
M  V30 36784 H 2425.68 5.86232 3.67314 0
M  V30 36785 H 2424.81 7.84412 2.24479 0
M  V30 36786 P 2420.85 8.7635 1.60911 0
M  V30 36787 O 2420.63 10.1388 1.11561 0
M  V30 36788 O 2420.06 8.36503 2.79617 0
M  V30 36789 O 2420.6 7.71806 0.42951 0
M  V30 36790 C 2421.54 7.67148 -0.673689 0
M  V30 36791 C 2420.81 7.33374 -1.95559 0
M  V30 36792 O 2420.6 5.88721 -2.00726 0
M  V30 36793 C 2419.41 7.92526 -2.10483 0
M  V30 36794 O 2419.02 8.02971 -3.47653 0
M  V30 36795 C 2418.53 6.89602 -1.41652 0
M  V30 36796 C 2419.24 5.59201 -1.75185 0
M  V30 36797 N 2419.19 4.58301 -0.657969 0
M  V30 36798 H 2422.02 8.65116 -0.777161 0
M  V30 36799 H 2422.3 6.9022 -0.46725 0
M  V30 36800 H 2421.43 7.66548 -2.79458 0
M  V30 36801 H 2418.77 5.16165 -2.65183 0
M  V30 36802 H 2418.49 7.06433 -0.329384 0
M  V30 36803 H 2417.5 6.90926 -1.82021 0
M  V30 36804 H 2419.34 8.90873 -1.62657 0
M  V30 36805 P 2417.47 8.03563 -3.84925 0
M  V30 36806 O 2417.25 8.85821 -5.0569 0
M  V30 36807 O 2416.68 8.41101 -2.65469 0
M  V30 36808 O 2417.22 6.4965 -4.18908 0
M  V30 36809 C 2418.16 5.81037 -5.05421 0
M  V30 36810 C 2417.43 4.78366 -5.89277 0
M  V30 36811 O 2417.22 3.58302 -5.08433 0
M  V30 36812 C 2416.03 5.17448 -6.36119 0
M  V30 36813 O 2415.64 4.45271 -7.53232 0
M  V30 36814 C 2415.15 4.74639 -5.19936 0
M  V30 36815 C 2415.86 3.49432 -4.70418 0
M  V30 36816 N 2415.81 3.31776 -3.22945 0
M  V30 36817 H 2418.64 6.54213 -5.71376 0
M  V30 36818 H 2418.92 5.30492 -4.44033 0
M  V30 36819 H 2418.05 4.55889 -6.76652 0
M  V30 36820 P 2414.09 4.23843 -7.83734 0
M  V30 36821 O 2413.87 4.19407 -9.29784 0
M  V30 36822 O 2413.3 5.24426 -7.09156 0
M  V30 36823 O 2413.84 2.7935 -7.20758 0
M  V30 36824 C 2414.78 1.7299 -7.50419 0
M  V30 36825 C 2414.05 0.406376 -7.57911 0
M  V30 36826 O 2413.84 -0.0897726 -6.21935 0
M  V30 36827 C 2412.65 0.447224 -8.1878 0
M  V30 36828 O 2412.26 -0.825065 -8.71101 0
M  V30 36829 C 2411.77 0.783801 -6.99623 0
M  V30 36830 C 2412.48 0.0619192 -5.85967 0
M  V30 36831 N 2412.43 0.7859 -4.56281 0
M  V30 36832 H 2415.26 1.93423 -8.4679 0
M  V30 36833 H 2415.54 1.68181 -6.71046 0
M  V30 36834 H 2414.67 -0.289041 -8.15388 0
M  V30 36835 P 2410.71 -1.17771 -8.83182 0
M  V30 36836 O 2410.49 -2.07206 -9.98732 0
M  V30 36837 O 2409.92 0.0743816 -8.81969 0
M  V30 36838 O 2410.46 -1.97652 -7.47304 0
M  V30 36839 C 2411.4 -3.01133 -7.08783 0
M  V30 36840 C 2410.67 -4.12613 -6.37049 0
M  V30 36841 O 2410.46 -3.72827 -4.97879 0
M  V30 36842 C 2409.27 -4.45085 -6.88694 0
M  V30 36843 O 2408.88 -5.7877 -6.5624 0
M  V30 36844 C 2408.39 -3.47817 -6.12078 0
M  V30 36845 C 2409.1 -3.39414 -4.77697 0
M  V30 36846 N 2409.05 -2.04615 -4.15333 0
M  V30 36847 H 2411.88 -3.41248 -7.98759 0
M  V30 36848 H 2412.16 -2.5837 -6.41742 0
M  V30 36849 H 2411.29 -5.02657 -6.42673 0
M  V30 36850 P 2407.33 -6.144 -6.45285 0
M  V30 36851 O 2407.11 -7.54673 -6.86199 0
M  V30 36852 O 2406.54 -5.12391 -7.179 0
M  V30 36853 O 2407.08 -5.99236 -4.88467 0
M  V30 36854 C 2408.02 -6.60234 -3.96415 0
M  V30 36855 C 2407.29 -7.08079 -2.736 0
M  V30 36856 O 2407.08 -5.94365 -1.8368 0
M  V30 36857 C 2405.89 -7.64886 -2.9555 0
M  V30 36858 O 2405.5 -8.5406 -1.90739 0
M  V30 36859 C 2405.01 -6.4116 -2.90739 0
M  V30 36860 C 2405.72 -5.55375 -1.86963 0
M  V30 36861 N 2405.67 -4.09664 -2.15742 0
M  V30 36862 C 2405.52 -3.22231 -1.08477 0
M  V30 36863 O 2405.43 -3.68951 0.0600489 0
M  V30 36864 N 2405.47 -1.76692 -1.48799 0
M  V30 36865 C 2405.57 -1.41695 -2.57602 0
M  V30 36866 N 2405.52 -0.107296 -2.75791 0
M  V30 36867 C 2405.72 -2.29178 -3.69733 0
M  V30 36868 C 2405.77 -3.62753 -3.42653 0
M  V30 36869 H 2408.51 -7.45488 -4.45578 0
M  V30 36870 H 2408.78 -5.86232 -3.67314 0
M  V30 36871 H 2407.91 -7.84508 -2.24507 0
M  V30 36872 H 2405.25 -5.73556 -0.888715 0
M  V30 36873 H 2404.97 -5.9096 -3.88638 0
M  V30 36874 H 2403.98 -6.66053 -2.58894 0
M  V30 36875 H 2405.82 -8.16339 -3.92049 0
M  V30 36876 H 2405.89 -4.33052 -4.24913 0
M  V30 36877 H 2405.79 -1.9103 -4.71577 0
M  V30 36878 H 2405.4 0.521221 -1.95056 0
M  V30 36879 H 2405.59 0.286429 -3.70695 0
M  V30 36880 P 2403.95 -8.7635 -1.60911 0
M  V30 36881 O 2403.73 -10.1388 -1.11561 0
M  V30 36882 O 2403.16 -8.36503 -2.79617 0
M  V30 36883 O 2403.7 -7.71806 -0.42951 0
M  V30 36884 C 2404.64 -7.67148 0.673689 0
M  V30 36885 C 2403.91 -7.33374 1.95559 0
M  V30 36886 O 2403.7 -5.88721 2.00726 0
M  V30 36887 C 2402.51 -7.92526 2.10483 0
M  V30 36888 O 2402.12 -8.02971 3.47653 0
M  V30 36889 C 2401.63 -6.89602 1.41652 0
M  V30 36890 C 2402.34 -5.59201 1.75185 0
M  V30 36891 N 2402.29 -4.58301 0.657969 0
M  V30 36892 H 2405.12 -8.65116 0.777161 0
M  V30 36893 H 2405.4 -6.9022 0.46725 0
M  V30 36894 H 2404.53 -7.66548 2.79458 0
M  V30 36895 H 2401.87 -5.16165 2.65183 0
M  V30 36896 H 2401.59 -7.06433 0.329384 0
M  V30 36897 H 2400.6 -6.90926 1.82021 0
M  V30 36898 H 2402.44 -8.90873 1.62657 0
M  V30 36899 P 2400.57 -8.03563 3.84925 0
M  V30 36900 O 2400.35 -8.85821 5.0569 0
M  V30 36901 O 2399.78 -8.41101 2.65469 0
M  V30 36902 O 2400.32 -6.4965 4.18908 0
M  V30 36903 C 2401.26 -5.81037 5.05421 0
M  V30 36904 C 2400.53 -4.78366 5.89277 0
M  V30 36905 O 2400.32 -3.58302 5.08433 0
M  V30 36906 C 2399.13 -5.17448 6.36119 0
M  V30 36907 O 2398.74 -4.45271 7.53232 0
M  V30 36908 C 2398.25 -4.74639 5.19936 0
M  V30 36909 C 2398.96 -3.49432 4.70418 0
M  V30 36910 N 2398.91 -3.32099 3.22613 0
M  V30 36911 C 2398.99 -4.28245 2.25527 0
M  V30 36912 N 2398.92 -3.80823 1.04874 0
M  V30 36913 C 2398.77 -2.44571 1.23535 0
M  V30 36914 C 2398.64 -1.37068 0.330675 0
M  V30 36915 N 2398.63 -1.51472 -0.990824 0
M  V30 36916 N 2398.52 -0.138614 0.848756 0
M  V30 36917 C 2398.53 0.00675923 2.16999 0
M  V30 36918 N 2398.65 -0.904372 3.11122 0
M  V30 36919 C 2398.77 -2.12707 2.56212 0
M  V30 36920 H 2401.74 -6.54213 5.71376 0
M  V30 36921 H 2402.02 -5.30936 4.43503 0
M  V30 36922 H 2401.15 -4.55889 6.76652 0
M  V30 36923 H 2398.49 -2.61715 5.17932 0
M  V30 36924 H 2398.21 -5.52155 4.41878 0
M  V30 36925 H 2397.22 -4.51981 5.53374 0
M  V30 36926 H 2399.06 -6.25124 6.55234 0
M  V30 36927 H 2399.1 -5.34372 2.47488 0
M  V30 36928 H 2398.72 -2.45153 -1.4078 0
M  V30 36929 H 2398.53 -0.688422 -1.59911 0
M  V30 36930 H 2398.42 1.02584 2.52346 0
M  V30 36931 P 2397.19 -4.23843 7.83734 0
M  V30 36932 O 2396.97 -4.19407 9.29784 0
M  V30 36933 O 2396.4 -5.24426 7.09156 0
M  V30 36934 O 2396.94 -2.7935 7.20758 0
M  V30 36935 C 2397.88 -1.7299 7.50419 0
M  V30 36936 C 2397.15 -0.406376 7.57911 0
M  V30 36937 O 2396.94 0.0897726 6.21935 0
M  V30 36938 C 2395.75 -0.447224 8.1878 0
M  V30 36939 O 2395.36 0.825065 8.71101 0
M  V30 36940 C 2394.87 -0.783801 6.99623 0
M  V30 36941 C 2395.58 -0.0619192 5.85967 0
M  V30 36942 N 2395.53 -0.7859 4.56281 0
M  V30 36943 H 2398.36 -1.93423 8.4679 0
M  V30 36944 H 2398.64 -1.68181 6.71046 0
M  V30 36945 H 2397.77 0.289041 8.15388 0
M  V30 36946 P 2393.81 1.17771 8.83182 0
M  V30 36947 O 2393.59 2.07206 9.98732 0
M  V30 36948 O 2393.02 -0.0743816 8.81969 0
M  V30 36949 O 2393.56 1.97652 7.47304 0
M  V30 36950 C 2394.5 3.01133 7.08783 0
M  V30 36951 C 2393.77 4.12613 6.37049 0
M  V30 36952 O 2393.56 3.72827 4.97879 0
M  V30 36953 C 2392.37 4.45085 6.88694 0
M  V30 36954 O 2391.98 5.7877 6.5624 0
M  V30 36955 C 2391.49 3.47817 6.12078 0
M  V30 36956 C 2392.2 3.39414 4.77697 0
M  V30 36957 N 2392.15 2.04199 4.15538 0
M  V30 36958 H 2394.98 3.41248 7.98759 0
M  V30 36959 H 2395.26 2.57728 6.42 0
M  V30 36960 H 2394.39 5.02657 6.42673 0
M  V30 36961 H 2391.73 4.11708 4.08956 0
M  V30 36962 H 2391.45 2.49626 6.61679 0
M  V30 36963 H 2390.46 3.8662 6.00862 0
M  V30 36964 H 2392.3 4.29991 7.97006 0
M  V30 36965 P 2390.43 6.144 6.45285 0
M  V30 36966 O 2390.21 7.54673 6.86199 0
M  V30 36967 O 2389.64 5.12391 7.179 0
M  V30 36968 O 2390.18 5.99158 4.88404 0
M  V30 36969 C 2391.12 6.60234 3.96415 0
M  V30 36970 C 2390.39 7.08259 2.72856 0
M  V30 36971 O 2390.18 5.9427 1.83651 0
M  V30 36972 C 2388.99 7.64886 2.9555 0
M  V30 36973 O 2388.6 8.53963 1.90717 0
M  V30 36974 C 2388.11 6.4116 2.90739 0
M  V30 36975 C 2388.82 5.55375 1.86963 0
M  V30 36976 N 2388.77 4.09664 2.15742 0
M  V30 36977 H 2391.6 7.45574 4.45629 0
M  V30 36978 H 2391.88 5.86232 3.67314 0
M  V30 36979 H 2391.01 7.84412 2.24479 0
M  V30 36980 P 2387.05 8.7635 1.60911 0
M  V30 36981 O 2386.83 10.1388 1.11561 0
M  V30 36982 O 2386.26 8.36503 2.79617 0
M  V30 36983 O 2386.8 7.71806 0.42951 0
M  V30 36984 C 2387.74 7.67148 -0.673689 0
M  V30 36985 C 2387.01 7.33374 -1.95559 0
M  V30 36986 O 2386.8 5.88721 -2.00726 0
M  V30 36987 C 2385.61 7.92526 -2.10483 0
M  V30 36988 O 2385.22 8.02971 -3.47653 0
M  V30 36989 C 2384.73 6.89602 -1.41652 0
M  V30 36990 C 2385.44 5.59201 -1.75185 0
M  V30 36991 N 2385.39 4.58235 -0.662552 0
M  V30 36992 H 2388.22 8.65116 -0.777161 0
M  V30 36993 H 2388.5 6.90173 -0.474152 0
M  V30 36994 H 2387.63 7.66548 -2.79458 0
M  V30 36995 P 2383.67 8.03563 -3.84925 0
M  V30 36996 O 2383.45 8.85821 -5.0569 0
M  V30 36997 O 2382.88 8.41101 -2.65469 0
M  V30 36998 O 2383.42 6.4965 -4.18908 0
M  V30 36999 C 2384.36 5.80886 -5.05289 0
M  V30 37000 C 2383.63 4.78366 -5.89277 0
M  V30 37001 O 2383.42 3.58302 -5.08433 0
M  V30 37002 C 2382.23 5.16748 -6.36559 0
M  V30 37003 O 2381.84 4.45271 -7.53232 0
M  V30 37004 C 2381.35 4.74572 -5.19863 0
M  V30 37005 C 2382.06 3.49373 -4.70338 0
M  V30 37006 N 2382.01 3.31704 -3.22876 0
M  V30 37007 C 2381.86 2.03326 -2.74871 0
M  V30 37008 O 2381.77 1.06486 -3.48076 0
M  V30 37009 N 2381.82 1.91838 -1.37456 0
M  V30 37010 C 2381.91 2.94295 -0.462035 0
M  V30 37011 C 2382.06 4.25064 -1.05249 0
M  V30 37012 C 2382.11 4.40214 -2.39192 0
M  V30 37013 H 2384.85 6.54063 -5.71245 0
M  V30 37014 H 2385.12 5.30339 -4.43905 0
M  V30 37015 H 2384.25 4.55889 -6.76652 0
M  V30 37016 H 2381.59 2.6167 -5.17842 0
M  V30 37017 H 2381.31 5.52155 -4.41878 0
M  V30 37018 H 2380.32 4.51918 -5.53297 0
M  V30 37019 H 2382.16 6.25055 -6.55162 0
M  V30 37020 H 2382.23 5.39798 -2.81523 0
M  V30 37021 P 2380.29 4.23843 -7.83734 0
M  V30 37022 O 2380.07 4.19407 -9.29784 0
M  V30 37023 O 2379.5 5.24426 -7.09156 0
M  V30 37024 O 2380.04 2.7935 -7.20758 0
M  V30 37025 C 2380.98 1.72945 -7.50224 0
M  V30 37026 C 2380.25 0.406376 -7.57911 0
M  V30 37027 O 2380.04 -0.0897726 -6.21935 0
M  V30 37028 C 2378.85 0.438983 -8.18724 0
M  V30 37029 O 2378.46 -0.825065 -8.71101 0
M  V30 37030 C 2377.97 0.783689 -6.99524 0
M  V30 37031 C 2378.68 0.0619086 -5.85867 0
M  V30 37032 N 2378.63 0.78573 -4.56183 0
M  V30 37033 C 2378.48 0.0292889 -3.41887 0
M  V30 37034 O 2378.39 -1.18445 -3.4419 0
M  V30 37035 N 2378.44 0.744061 -2.23964 0
M  V30 37036 C 2378.53 2.10932 -2.10362 0
M  V30 37037 O 2378.48 2.64117 -0.98825 0
M  V30 37038 C 2378.68 2.8202 -3.34994 0
M  V30 37039 C 2378.79 4.31095 -3.25037 0
M  V30 37040 C 2378.73 2.15547 -4.52261 0
M  V30 37041 H 2381.47 1.93379 -8.46595 0
M  V30 37042 H 2381.74 1.68132 -6.70852 0
M  V30 37043 H 2380.87 -0.289041 -8.15388 0
M  V30 37044 H 2378.21 -0.926847 -5.72749 0
M  V30 37045 H 2377.93 1.86973 -6.82036 0
M  V30 37046 H 2376.94 0.403896 -7.13257 0
M  V30 37047 H 2378.78 1.20585 -8.97435 0
M  V30 37048 H 2378.85 2.71231 -5.45042 0
M  V30 37049 H 2377.82 4.76966 -3.49992 0
M  V30 37050 H 2379.55 4.67047 -3.95024 0
M  V30 37051 H 2379.07 4.58996 -2.22312 0
M  V30 37052 H 2378.33 0.214893 -1.39758 0
M  V30 37053 P 2376.91 -1.17771 -8.83182 0
M  V30 37054 O 2376.69 -2.07206 -9.98732 0
M  V30 37055 O 2376.12 0.0743816 -8.81969 0
M  V30 37056 O 2376.66 -1.97678 -7.474 0
M  V30 37057 C 2377.6 -3.01133 -7.08783 0
M  V30 37058 C 2376.87 -4.1203 -6.37546 0
M  V30 37059 O 2376.66 -3.72887 -4.9796 0
M  V30 37060 C 2375.47 -4.45085 -6.88694 0
M  V30 37061 O 2375.08 -5.78836 -6.56315 0
M  V30 37062 C 2374.59 -3.47817 -6.12078 0
M  V30 37063 C 2375.3 -3.39414 -4.77697 0
M  V30 37064 N 2375.25 -2.04615 -4.15333 0
M  V30 37065 C 2375.1 -1.96929 -2.77162 0
M  V30 37066 O 2375.01 -3.02017 -2.12006 0
M  V30 37067 N 2375.05 -0.55485 -2.24237 0
M  V30 37068 C 2375.15 0.367808 -2.9169 0
M  V30 37069 N 2375.1 1.53426 -2.29427 0
M  V30 37070 C 2375.3 0.319148 -4.33828 0
M  V30 37071 C 2375.35 -0.920672 -4.90433 0
M  V30 37072 H 2378.09 -3.41209 -7.98667 0
M  V30 37073 H 2378.36 -2.5837 -6.41742 0
M  V30 37074 H 2377.49 -5.02718 -6.42752 0
M  V30 37075 H 2374.83 -4.11779 -4.09026 0
M  V30 37076 H 2374.55 -2.49661 -6.61772 0
M  V30 37077 H 2373.56 -3.86674 -6.00946 0
M  V30 37078 H 2375.4 -4.29991 -7.97006 0
M  V30 37079 H 2375.47 -1.00589 -5.98303 0
M  V30 37080 H 2375.37 1.22639 -4.93799 0
M  V30 37081 H 2374.98 1.56819 -1.27167 0
M  V30 37082 H 2375.17 2.41062 -2.83063 0
M  V30 37083 P 2373.53 -6.144 -6.45285 0
M  V30 37084 O 2373.31 -7.54673 -6.86199 0
M  V30 37085 O 2372.74 -5.12391 -7.179 0
M  V30 37086 O 2373.28 -5.99158 -4.88404 0
M  V30 37087 C 2374.22 -6.60234 -3.96415 0
M  V30 37088 C 2373.49 -7.08259 -2.72856 0
M  V30 37089 O 2373.28 -5.9427 -1.83651 0
M  V30 37090 C 2372.09 -7.64886 -2.9555 0
M  V30 37091 O 2371.7 -8.53963 -1.90717 0
M  V30 37092 C 2371.21 -6.4116 -2.90739 0
M  V30 37093 C 2371.92 -5.55375 -1.86963 0
M  V30 37094 N 2371.87 -4.09664 -2.15742 0
M  V30 37095 H 2374.7 -7.45574 -4.45629 0
M  V30 37096 H 2374.98 -5.86232 -3.67314 0
M  V30 37097 H 2374.11 -7.84412 -2.24479 0
M  V30 37098 P 2370.15 -8.7635 -1.60911 0
M  V30 37099 O 2369.93 -10.1388 -1.11561 0
M  V30 37100 O 2369.36 -8.36503 -2.79617 0
M  V30 37101 O 2369.9 -7.71806 -0.42951 0
M  V30 37102 C 2370.84 -7.67148 0.673689 0
M  V30 37103 C 2370.11 -7.33374 1.95559 0
M  V30 37104 O 2369.9 -5.88721 2.00726 0
M  V30 37105 C 2368.71 -7.92526 2.10483 0
M  V30 37106 O 2368.32 -8.02971 3.47653 0
M  V30 37107 C 2367.83 -6.89602 1.41652 0
M  V30 37108 C 2368.54 -5.59201 1.75185 0
M  V30 37109 N 2368.49 -4.58235 0.662552 0
M  V30 37110 C 2368.57 -4.7683 -0.704049 0
M  V30 37111 N 2368.49 -3.66233 -1.39775 0
M  V30 37112 C 2368.35 -2.66526 -0.431739 0
M  V30 37113 C 2368.22 -1.26394 -0.575992 0
M  V30 37114 N 2368.1 -0.62859 0.67177 0
M  V30 37115 C 2368.1 -1.27134 1.89385 0
M  V30 37116 N 2367.97 -0.492035 2.96951 0
M  V30 37117 N 2368.23 -2.58978 2.02907 0
M  V30 37118 C 2368.35 -3.22433 0.832218 0
M  V30 37119 H 2371.32 -8.65116 0.777161 0
M  V30 37120 H 2371.6 -6.90173 0.474152 0
M  V30 37121 H 2370.73 -7.66548 2.79458 0
M  V30 37122 P 2366.77 -8.03563 3.84925 0
M  V30 37123 O 2366.55 -8.85821 5.0569 0
M  V30 37124 O 2365.98 -8.41101 2.65469 0
M  V30 37125 O 2366.52 -6.49734 4.18962 0
M  V30 37126 C 2367.46 -5.81037 5.05421 0
M  V30 37127 C 2366.73 -4.79018 5.88876 0
M  V30 37128 O 2366.52 -3.58359 5.08515 0
M  V30 37129 C 2365.33 -5.17448 6.36119 0
M  V30 37130 O 2364.94 -4.45322 7.53318 0
M  V30 37131 C 2364.45 -4.74639 5.19936 0
M  V30 37132 C 2365.16 -3.49432 4.70418 0
M  V30 37133 N 2365.11 -3.31776 3.22945 0
M  V30 37134 C 2364.96 -2.02742 2.72939 0
M  V30 37135 O 2364.87 -1.08301 3.52749 0
M  V30 37136 N 2364.91 -1.96117 1.22063 0
M  V30 37137 C 2365.01 -2.8878 0.551566 0
M  V30 37138 N 2364.96 -2.65609 -0.750198 0
M  V30 37139 C 2365.16 -4.22457 1.03707 0
M  V30 37140 C 2365.21 -4.37979 2.39113 0
M  V30 37141 H 2367.95 -6.54138 5.7131 0
M  V30 37142 H 2368.22 -5.30492 4.44033 0
M  V30 37143 H 2367.35 -4.55945 6.76735 0
M  V30 37144 H 2364.69 -2.6176 5.18021 0
M  V30 37145 H 2364.41 -5.52233 4.41941 0
M  V30 37146 H 2363.42 -4.52045 5.53452 0
M  V30 37147 H 2365.26 -6.25124 6.55234 0
M  V30 37148 H 2365.33 -5.37936 2.80552 0
M  V30 37149 H 2365.23 -5.07528 0.359553 0
M  V30 37150 H 2364.84 -1.69403 -1.09847 0
M  V30 37151 H 2365.04 -3.43701 -1.41792 0
M  V30 37152 P 2363.39 -4.23843 7.83734 0
M  V30 37153 O 2363.17 -4.19407 9.29784 0
M  V30 37154 O 2362.6 -5.24426 7.09156 0
M  V30 37155 O 2363.14 -2.7935 7.20758 0
M  V30 37156 C 2364.08 -1.7299 7.50419 0
M  V30 37157 C 2363.35 -0.406376 7.57911 0
M  V30 37158 O 2363.14 0.0897726 6.21935 0
M  V30 37159 C 2361.95 -0.447224 8.1878 0
M  V30 37160 O 2361.56 0.825065 8.71101 0
M  V30 37161 C 2361.07 -0.783801 6.99623 0
M  V30 37162 C 2361.78 -0.0619192 5.85967 0
M  V30 37163 N 2361.73 -0.7859 4.56281 0
M  V30 37164 H 2364.57 -1.93423 8.4679 0
M  V30 37165 H 2364.84 -1.68181 6.71046 0
M  V30 37166 H 2363.97 0.289041 8.15388 0
M  V30 37167 P 2360.01 1.17771 8.83182 0
M  V30 37168 O 2359.79 2.07206 9.98732 0
M  V30 37169 O 2359.22 -0.0743816 8.81969 0
M  V30 37170 O 2359.76 1.97652 7.47304 0
M  V30 37171 C 2360.7 3.01133 7.08783 0
M  V30 37172 C 2359.97 4.12613 6.37049 0
M  V30 37173 O 2359.76 3.72827 4.97879 0
M  V30 37174 C 2358.57 4.45085 6.88694 0
M  V30 37175 O 2358.18 5.7877 6.5624 0
M  V30 37176 C 2357.69 3.47817 6.12078 0
M  V30 37177 C 2358.4 3.39414 4.77697 0
M  V30 37178 N 2358.35 2.04615 4.15333 0
M  V30 37179 H 2361.19 3.41248 7.98759 0
M  V30 37180 H 2361.46 2.5837 6.41742 0
M  V30 37181 H 2360.59 5.02657 6.42673 0
M  V30 37182 P 2356.63 6.144 6.45285 0
M  V30 37183 O 2356.41 7.54673 6.86199 0
M  V30 37184 O 2355.84 5.12391 7.179 0
M  V30 37185 O 2356.38 5.99158 4.88404 0
M  V30 37186 C 2357.32 6.60062 3.96313 0
M  V30 37187 C 2356.59 7.08259 2.72856 0
M  V30 37188 O 2356.38 5.9427 1.83651 0
M  V30 37189 C 2355.19 7.65087 2.94749 0
M  V30 37190 O 2354.8 8.53963 1.90717 0
M  V30 37191 C 2354.31 6.41069 2.90698 0
M  V30 37192 C 2355.02 5.5528 1.86931 0
M  V30 37193 N 2354.97 4.09575 2.15696 0
M  V30 37194 C 2354.82 3.24249 1.08435 0
M  V30 37195 O 2354.73 3.63946 -0.0628747 0
M  V30 37196 N 2354.78 1.90009 1.39973 0
M  V30 37197 C 2354.87 1.34884 2.65614 0
M  V30 37198 C 2355.02 2.3145 3.71736 0
M  V30 37199 C 2355.07 3.63518 3.44754 0
M  V30 37200 H 2357.81 7.45402 4.45526 0
M  V30 37201 H 2358.08 5.86062 3.67208 0
M  V30 37202 H 2357.21 7.84412 2.24479 0
M  V30 37203 H 2354.55 5.73358 0.888409 0
M  V30 37204 H 2354.28 5.90877 3.88583 0
M  V30 37205 H 2353.28 6.65867 2.58821 0
M  V30 37206 H 2355.12 8.16248 3.92006 0
M  V30 37207 H 2355.19 4.34551 4.26383 0
M  V30 37208 P 2353.25 8.7635 1.60911 0
M  V30 37209 O 2353.03 10.1388 1.11561 0
M  V30 37210 O 2352.46 8.36503 2.79617 0
M  V30 37211 O 2353 7.71906 0.429565 0
M  V30 37212 C 2353.94 7.67148 -0.673689 0
M  V30 37213 C 2353.21 7.33666 -1.94851 0
M  V30 37214 O 2353 5.88816 -2.00759 0
M  V30 37215 C 2351.81 7.92526 -2.10483 0
M  V30 37216 O 2351.42 8.03063 -3.47693 0
M  V30 37217 C 2350.93 6.89602 -1.41652 0
M  V30 37218 C 2351.64 5.59201 -1.75185 0
M  V30 37219 N 2351.59 4.58235 -0.662552 0
M  V30 37220 C 2351.44 3.24451 -1.01643 0
M  V30 37221 O 2351.35 2.94958 -2.21722 0
M  V30 37222 N 2351.39 2.30408 0.165238 0
M  V30 37223 C 2351.49 2.66048 1.25118 0
M  V30 37224 N 2351.44 1.70787 2.16813 0
M  V30 37225 C 2351.64 4.02732 1.64413 0
M  V30 37226 C 2351.69 4.9488 0.63991 0
M  V30 37227 H 2354.43 8.65017 -0.777072 0
M  V30 37228 H 2354.7 6.90173 -0.474152 0
M  V30 37229 H 2353.83 7.66642 -2.79492 0
M  V30 37230 H 2351.17 5.16254 -2.65229 0
M  V30 37231 H 2350.89 7.06532 -0.329431 0
M  V30 37232 H 2349.9 6.91023 -1.82047 0
M  V30 37233 H 2351.74 8.90873 -1.62657 0
M  V30 37234 H 2351.81 6.00104 0.892197 0
M  V30 37235 H 2351.71 4.31733 2.69229 0
M  V30 37236 H 2351.32 0.724835 1.8844 0
M  V30 37237 H 2351.52 1.94716 3.16734 0
M  V30 37238 P 2349.87 8.03563 -3.84925 0
M  V30 37239 O 2349.65 8.85821 -5.0569 0
M  V30 37240 O 2349.08 8.41101 -2.65469 0
M  V30 37241 O 2349.62 6.49734 -4.18962 0
M  V30 37242 C 2350.56 5.81037 -5.05421 0
M  V30 37243 C 2349.83 4.79018 -5.88876 0
M  V30 37244 O 2349.62 3.58359 -5.08515 0
M  V30 37245 C 2348.43 5.17448 -6.36119 0
M  V30 37246 O 2348.04 4.45322 -7.53318 0
M  V30 37247 C 2347.55 4.74639 -5.19936 0
M  V30 37248 C 2348.26 3.49432 -4.70418 0
M  V30 37249 N 2348.21 3.31776 -3.22945 0
M  V30 37250 C 2348.06 2.02742 -2.72939 0
M  V30 37251 O 2347.97 1.08301 -3.52749 0
M  V30 37252 N 2348.01 1.96117 -1.22063 0
M  V30 37253 C 2348.11 2.8878 -0.551566 0
M  V30 37254 N 2348.06 2.65609 0.750198 0
M  V30 37255 C 2348.26 4.22457 -1.03707 0
M  V30 37256 C 2348.31 4.37979 -2.39113 0
M  V30 37257 H 2351.05 6.54138 -5.7131 0
M  V30 37258 H 2351.32 5.30492 -4.44033 0
M  V30 37259 H 2350.45 4.55945 -6.76735 0
M  V30 37260 H 2347.79 2.6176 -5.18021 0
M  V30 37261 H 2347.51 5.52233 -4.41941 0
M  V30 37262 H 2346.52 4.52045 -5.53452 0
M  V30 37263 H 2348.36 6.25124 -6.55234 0
M  V30 37264 H 2348.43 5.37936 -2.80552 0
M  V30 37265 H 2348.33 5.07528 -0.359553 0
M  V30 37266 H 2347.94 1.69403 1.09847 0
M  V30 37267 H 2348.14 3.43701 1.41792 0
M  V30 37268 P 2346.49 4.23843 -7.83734 0
M  V30 37269 O 2346.27 4.19407 -9.29784 0
M  V30 37270 O 2345.7 5.24426 -7.09156 0
M  V30 37271 O 2346.24 2.7935 -7.20758 0
M  V30 37272 C 2347.18 1.7299 -7.50419 0
M  V30 37273 C 2346.45 0.406376 -7.57911 0
M  V30 37274 O 2346.24 -0.0897726 -6.21935 0
M  V30 37275 C 2345.05 0.447224 -8.1878 0
M  V30 37276 O 2344.66 -0.825065 -8.71101 0
M  V30 37277 C 2344.17 0.783801 -6.99623 0
M  V30 37278 C 2344.88 0.0619192 -5.85967 0
M  V30 37279 N 2344.83 0.790462 -4.56202 0
M  V30 37280 C 2344.91 2.13895 -4.34171 0
M  V30 37281 N 2344.84 2.46449 -3.08687 0
M  V30 37282 C 2344.69 1.2525 -2.43697 0
M  V30 37283 C 2344.56 0.914535 -1.07318 0
M  V30 37284 N 2344.55 1.80782 -0.0887348 0
M  V30 37285 N 2344.44 -0.386745 -0.768133 0
M  V30 37286 C 2344.45 -1.28096 -1.75159 0
M  V30 37287 N 2344.57 -1.09708 -3.04861 0
M  V30 37288 C 2344.69 0.214857 -3.32306 0
M  V30 37289 H 2347.67 1.93423 -8.4679 0
M  V30 37290 H 2347.94 1.68852 -6.70877 0
M  V30 37291 H 2347.07 -0.289041 -8.15388 0
M  V30 37292 H 2344.41 -0.927006 -5.72848 0
M  V30 37293 H 2344.13 1.86973 -6.82036 0
M  V30 37294 H 2343.14 0.403953 -7.13357 0
M  V30 37295 H 2344.98 1.20599 -8.97534 0
M  V30 37296 H 2345.02 2.86846 -5.14318 0
M  V30 37297 H 2344.64 2.81082 -0.302037 0
M  V30 37298 H 2344.45 1.49688 0.889064 0
M  V30 37299 H 2344.34 -2.31317 -1.43855 0
M  V30 37300 P 2343.11 -1.17771 -8.83182 0
M  V30 37301 O 2342.89 -2.07206 -9.98732 0
M  V30 37302 O 2342.32 0.0743816 -8.81969 0
M  V30 37303 O 2342.86 -1.97652 -7.47304 0
M  V30 37304 C 2343.8 -3.01133 -7.08783 0
M  V30 37305 C 2343.07 -4.12613 -6.37049 0
M  V30 37306 O 2342.86 -3.72827 -4.97879 0
M  V30 37307 C 2341.67 -4.45085 -6.88694 0
M  V30 37308 O 2341.28 -5.7877 -6.5624 0
M  V30 37309 C 2340.79 -3.47817 -6.12078 0
M  V30 37310 C 2341.5 -3.39414 -4.77697 0
M  V30 37311 N 2341.45 -2.04615 -4.15333 0
M  V30 37312 H 2344.29 -3.41248 -7.98759 0
M  V30 37313 H 2344.56 -2.5837 -6.41742 0
M  V30 37314 H 2343.69 -5.02657 -6.42673 0
M  V30 37315 P 2339.73 -6.144 -6.45285 0
M  V30 37316 O 2339.51 -7.54673 -6.86199 0
M  V30 37317 O 2338.94 -5.12391 -7.179 0
M  V30 37318 O 2339.48 -5.99158 -4.88404 0
M  V30 37319 C 2340.42 -6.60062 -3.96313 0
M  V30 37320 C 2339.69 -7.08259 -2.72856 0
M  V30 37321 O 2339.48 -5.9427 -1.83651 0
M  V30 37322 C 2338.29 -7.65087 -2.94749 0
M  V30 37323 O 2337.9 -8.53963 -1.90717 0
M  V30 37324 C 2337.41 -6.41069 -2.90698 0
M  V30 37325 C 2338.12 -5.5528 -1.86931 0
M  V30 37326 N 2338.07 -4.09575 -2.15696 0
M  V30 37327 C 2337.92 -3.24249 -1.08435 0
M  V30 37328 O 2337.83 -3.63946 0.0628747 0
M  V30 37329 N 2337.88 -1.90009 -1.39973 0
M  V30 37330 C 2337.97 -1.34884 -2.65614 0
M  V30 37331 C 2338.12 -2.3145 -3.71736 0
M  V30 37332 C 2338.17 -3.63518 -3.44754 0
M  V30 37333 H 2340.91 -7.45402 -4.45526 0
M  V30 37334 H 2341.18 -5.86062 -3.67208 0
M  V30 37335 H 2340.31 -7.84412 -2.24479 0
M  V30 37336 H 2337.65 -5.73358 -0.888409 0
M  V30 37337 H 2337.38 -5.90877 -3.88583 0
M  V30 37338 H 2336.38 -6.65867 -2.58821 0
M  V30 37339 H 2338.22 -8.16248 -3.92006 0
M  V30 37340 H 2338.29 -4.34551 -4.26383 0
M  V30 37341 P 2336.35 -8.7635 -1.60911 0
M  V30 37342 O 2336.13 -10.1388 -1.11561 0
M  V30 37343 O 2335.56 -8.36503 -2.79617 0
M  V30 37344 O 2336.1 -7.71806 -0.42951 0
M  V30 37345 C 2337.04 -7.66948 0.673514 0
M  V30 37346 C 2336.31 -7.33374 1.95559 0
M  V30 37347 O 2336.1 -5.88721 2.00726 0
M  V30 37348 C 2334.91 -7.92218 2.1125 0
M  V30 37349 O 2334.52 -8.02971 3.47653 0
M  V30 37350 C 2334.03 -6.89504 1.41631 0
M  V30 37351 C 2334.74 -5.59106 1.75155 0
M  V30 37352 N 2334.69 -4.58136 0.662409 0
M  V30 37353 C 2334.54 -3.26059 1.02863 0
M  V30 37354 O 2334.45 -2.90743 2.19009 0
M  V30 37355 N 2334.5 -2.35995 -0.0155585 0
M  V30 37356 C 2334.59 -2.65248 -1.35603 0
M  V30 37357 O 2334.54 -1.75605 -2.20651 0
M  V30 37358 C 2334.74 -4.05747 -1.64698 0
M  V30 37359 C 2334.85 -4.42345 -3.09553 0
M  V30 37360 C 2334.79 -4.96734 -0.652411 0
M  V30 37361 H 2337.53 -8.64917 0.776982 0
M  V30 37362 H 2337.8 -6.89974 0.474015 0
M  V30 37363 H 2336.93 -7.66548 2.79458 0
M  V30 37364 H 2334.27 -5.16076 2.65138 0
M  V30 37365 H 2334 -7.06433 0.329384 0
M  V30 37366 H 2333 -6.90829 1.81996 0
M  V30 37367 H 2334.84 -8.90774 1.62639 0
M  V30 37368 H 2334.91 -6.02181 -0.895285 0
M  V30 37369 H 2333.88 -4.80252 -3.45468 0
M  V30 37370 H 2335.62 -5.20015 -3.22119 0
M  V30 37371 H 2335.13 -3.53269 -3.67833 0
M  V30 37372 H 2334.39 -1.39558 0.227499 0
M  V30 37373 P 2332.97 -8.03563 3.84925 0
M  V30 37374 O 2332.75 -8.85821 5.0569 0
M  V30 37375 O 2332.18 -8.41101 2.65469 0
M  V30 37376 O 2332.72 -6.4965 4.18908 0
M  V30 37377 C 2333.66 -5.81037 5.05421 0
M  V30 37378 C 2332.93 -4.78366 5.89277 0
M  V30 37379 O 2332.72 -3.58302 5.08433 0
M  V30 37380 C 2331.53 -5.17448 6.36119 0
M  V30 37381 O 2331.14 -4.45271 7.53232 0
M  V30 37382 C 2330.65 -4.74639 5.19936 0
M  V30 37383 C 2331.36 -3.49432 4.70418 0
M  V30 37384 N 2331.31 -3.31776 3.22945 0
M  V30 37385 H 2334.15 -6.54213 5.71376 0
M  V30 37386 H 2334.42 -5.30492 4.44033 0
M  V30 37387 H 2333.55 -4.55889 6.76652 0
M  V30 37388 P 2329.59 -4.23843 7.83734 0
M  V30 37389 O 2329.37 -4.19407 9.29784 0
M  V30 37390 O 2328.8 -5.24426 7.09156 0
M  V30 37391 O 2329.34 -2.7935 7.20758 0
M  V30 37392 C 2330.28 -1.7299 7.50419 0
M  V30 37393 C 2329.55 -0.406376 7.57911 0
M  V30 37394 O 2329.34 0.0897726 6.21935 0
M  V30 37395 C 2328.15 -0.447224 8.1878 0
M  V30 37396 O 2327.76 0.825065 8.71101 0
M  V30 37397 C 2327.27 -0.783801 6.99623 0
M  V30 37398 C 2327.98 -0.0619192 5.85967 0
M  V30 37399 N 2327.93 -0.7859 4.56281 0
M  V30 37400 H 2330.77 -1.93423 8.4679 0
M  V30 37401 H 2331.04 -1.68181 6.71046 0
M  V30 37402 H 2330.17 0.289041 8.15388 0
M  V30 37403 P 2326.21 1.17771 8.83182 0
M  V30 37404 O 2325.99 2.07206 9.98732 0
M  V30 37405 O 2325.42 -0.0743816 8.81969 0
M  V30 37406 O 2325.96 1.97652 7.47304 0
M  V30 37407 C 2326.9 3.01133 7.08783 0
M  V30 37408 C 2326.17 4.12613 6.37049 0
M  V30 37409 O 2325.96 3.72827 4.97879 0
M  V30 37410 C 2324.77 4.45085 6.88694 0
M  V30 37411 O 2324.38 5.7877 6.5624 0
M  V30 37412 C 2323.89 3.47817 6.12078 0
M  V30 37413 C 2324.6 3.39414 4.77697 0
M  V30 37414 N 2324.55 2.04615 4.15333 0
M  V30 37415 H 2327.39 3.41248 7.98759 0
M  V30 37416 H 2327.66 2.5837 6.41742 0
M  V30 37417 H 2326.79 5.02657 6.42673 0
M  V30 37418 P 2322.83 6.144 6.45285 0
M  V30 37419 O 2322.61 7.54673 6.86199 0
M  V30 37420 O 2322.04 5.12391 7.179 0
M  V30 37421 O 2322.58 5.99158 4.88404 0
M  V30 37422 C 2323.52 6.60062 3.96313 0
M  V30 37423 C 2322.79 7.08259 2.72856 0
M  V30 37424 O 2322.58 5.9427 1.83651 0
M  V30 37425 C 2321.39 7.65087 2.94749 0
M  V30 37426 O 2321 8.53963 1.90717 0
M  V30 37427 C 2320.51 6.41069 2.90698 0
M  V30 37428 C 2321.22 5.5528 1.86931 0
M  V30 37429 N 2321.17 4.09575 2.15696 0
M  V30 37430 C 2321.02 3.24249 1.08435 0
M  V30 37431 O 2320.93 3.63946 -0.0628747 0
M  V30 37432 N 2320.98 1.90009 1.39973 0
M  V30 37433 C 2321.07 1.34884 2.65614 0
M  V30 37434 C 2321.22 2.3145 3.71736 0
M  V30 37435 C 2321.27 3.63518 3.44754 0
M  V30 37436 H 2324.01 7.45402 4.45526 0
M  V30 37437 H 2324.28 5.86062 3.67208 0
M  V30 37438 H 2323.41 7.84412 2.24479 0
M  V30 37439 H 2320.75 5.73358 0.888409 0
M  V30 37440 H 2320.48 5.90877 3.88583 0
M  V30 37441 H 2319.48 6.65867 2.58821 0
M  V30 37442 H 2321.32 8.16248 3.92006 0
M  V30 37443 H 2321.39 4.34551 4.26383 0
M  V30 37444 P 2319.45 8.7635 1.60911 0
M  V30 37445 O 2319.23 10.1388 1.11561 0
M  V30 37446 O 2318.66 8.36503 2.79617 0
M  V30 37447 O 2319.2 7.71806 0.42951 0
M  V30 37448 C 2320.14 7.67148 -0.673689 0
M  V30 37449 C 2319.41 7.33374 -1.95559 0
M  V30 37450 O 2319.2 5.88721 -2.00726 0
M  V30 37451 C 2318.01 7.92526 -2.10483 0
M  V30 37452 O 2317.62 8.02971 -3.47653 0
M  V30 37453 C 2317.13 6.89602 -1.41652 0
M  V30 37454 C 2317.84 5.59201 -1.75185 0
M  V30 37455 N 2317.79 4.58235 -0.662552 0
M  V30 37456 H 2320.63 8.65116 -0.777161 0
M  V30 37457 H 2320.9 6.90173 -0.474152 0
M  V30 37458 H 2320.03 7.66548 -2.79458 0
M  V30 37459 P 2316.07 8.03563 -3.84925 0
M  V30 37460 O 2315.85 8.85821 -5.0569 0
M  V30 37461 O 2315.28 8.41101 -2.65469 0
M  V30 37462 O 2315.82 6.4965 -4.18908 0
M  V30 37463 C 2316.76 5.81037 -5.05421 0
M  V30 37464 C 2316.03 4.78366 -5.89277 0
M  V30 37465 O 2315.82 3.58302 -5.08433 0
M  V30 37466 C 2314.63 5.17448 -6.36119 0
M  V30 37467 O 2314.24 4.45271 -7.53232 0
M  V30 37468 C 2313.75 4.74639 -5.19936 0
M  V30 37469 C 2314.46 3.49432 -4.70418 0
M  V30 37470 N 2314.41 3.32099 -3.22613 0
M  V30 37471 H 2317.25 6.54213 -5.71376 0
M  V30 37472 H 2317.52 5.30936 -4.43503 0
M  V30 37473 H 2316.65 4.55889 -6.76652 0
M  V30 37474 H 2313.99 2.61715 -5.17932 0
M  V30 37475 H 2313.71 5.52155 -4.41878 0
M  V30 37476 H 2312.72 4.51981 -5.53374 0
M  V30 37477 H 2314.56 6.25124 -6.55234 0
M  V30 37478 P 2312.69 4.23843 -7.83734 0
M  V30 37479 O 2312.47 4.19407 -9.29784 0
M  V30 37480 O 2311.9 5.24426 -7.09156 0
M  V30 37481 O 2312.44 2.79386 -7.20852 0
M  V30 37482 C 2313.38 1.7299 -7.50419 0
M  V30 37483 C 2312.65 0.41401 -7.5797 0
M  V30 37484 O 2312.44 -0.089787 -6.22035 0
M  V30 37485 C 2311.25 0.447224 -8.1878 0
M  V30 37486 O 2310.86 -0.825159 -8.71201 0
M  V30 37487 C 2310.37 0.783801 -6.99623 0
M  V30 37488 C 2311.08 0.0619192 -5.85967 0
M  V30 37489 N 2311.03 0.7859 -4.56281 0
M  V30 37490 C 2310.88 0.0359258 -3.39981 0
M  V30 37491 O 2310.79 -1.19723 -3.49038 0
M  V30 37492 N 2310.83 0.869151 -2.14025 0
M  V30 37493 C 2310.93 2.01207 -2.14363 0
M  V30 37494 N 2310.88 2.58978 -0.954287 0
M  V30 37495 C 2311.08 2.80817 -3.32215 0
M  V30 37496 C 2311.13 2.13785 -4.50884 0
M  V30 37497 H 2313.87 1.93401 -8.46693 0
M  V30 37498 H 2314.14 1.68181 -6.71046 0
M  V30 37499 H 2313.27 -0.289076 -8.15488 0
M  V30 37500 H 2310.61 -0.927166 -5.72947 0
M  V30 37501 H 2310.33 1.87 -6.82132 0
M  V30 37502 H 2309.34 0.404009 -7.13457 0
M  V30 37503 H 2311.18 1.20599 -8.97534 0
M  V30 37504 H 2311.25 2.70295 -5.43162 0
M  V30 37505 H 2311.15 3.89465 -3.27406 0
M  V30 37506 H 2310.76 2.01616 -0.107046 0
M  V30 37507 H 2310.96 3.61403 -0.873101 0
M  V30 37508 P 2309.31 -1.17771 -8.83182 0
M  V30 37509 O 2309.09 -2.07206 -9.98732 0
M  V30 37510 O 2308.52 0.0743816 -8.81969 0
M  V30 37511 O 2309.06 -1.97652 -7.47304 0
M  V30 37512 C 2310 -3.01133 -7.08783 0
M  V30 37513 C 2309.27 -4.12613 -6.37049 0
M  V30 37514 O 2309.06 -3.72827 -4.97879 0
M  V30 37515 C 2307.87 -4.45085 -6.88694 0
M  V30 37516 O 2307.48 -5.7877 -6.5624 0
M  V30 37517 C 2306.99 -3.47817 -6.12078 0
M  V30 37518 C 2307.7 -3.39414 -4.77697 0
M  V30 37519 N 2307.65 -2.04199 -4.15538 0
M  V30 37520 H 2310.49 -3.41248 -7.98759 0
M  V30 37521 H 2310.76 -2.57728 -6.42 0
M  V30 37522 H 2309.89 -5.02657 -6.42673 0
M  V30 37523 H 2307.23 -4.11708 -4.08956 0
M  V30 37524 H 2306.95 -2.49626 -6.61679 0
M  V30 37525 H 2305.96 -3.8662 -6.00862 0
M  V30 37526 H 2307.8 -4.29991 -7.97006 0
M  V30 37527 P 2305.93 -6.144 -6.45285 0
M  V30 37528 O 2305.71 -7.54673 -6.86199 0
M  V30 37529 O 2305.14 -5.12391 -7.179 0
M  V30 37530 O 2305.68 -5.99158 -4.88404 0
M  V30 37531 C 2306.62 -6.60234 -3.96415 0
M  V30 37532 C 2305.89 -7.08259 -2.72856 0
M  V30 37533 O 2305.68 -5.9427 -1.83651 0
M  V30 37534 C 2304.49 -7.64886 -2.9555 0
M  V30 37535 O 2304.1 -8.53963 -1.90717 0
M  V30 37536 C 2303.61 -6.4116 -2.90739 0
M  V30 37537 C 2304.32 -5.55375 -1.86963 0
M  V30 37538 N 2304.27 -4.09664 -2.15742 0
M  V30 37539 H 2307.11 -7.45574 -4.45629 0
M  V30 37540 H 2307.38 -5.86232 -3.67314 0
M  V30 37541 H 2306.51 -7.84412 -2.24479 0
M  V30 37542 P 2302.55 -8.7635 -1.60911 0
M  V30 37543 O 2302.33 -10.1388 -1.11561 0
M  V30 37544 O 2301.76 -8.36503 -2.79617 0
M  V30 37545 O 2302.3 -7.71806 -0.42951 0
M  V30 37546 C 2303.24 -7.67148 0.673689 0
M  V30 37547 C 2302.51 -7.33374 1.95559 0
M  V30 37548 O 2302.3 -5.88721 2.00726 0
M  V30 37549 C 2301.11 -7.92526 2.10483 0
M  V30 37550 O 2300.72 -8.02971 3.47653 0
M  V30 37551 C 2300.23 -6.89602 1.41652 0
M  V30 37552 C 2300.94 -5.59201 1.75185 0
M  V30 37553 N 2300.89 -4.58301 0.657969 0
M  V30 37554 H 2303.73 -8.65116 0.777161 0
M  V30 37555 H 2304 -6.9022 0.46725 0
M  V30 37556 H 2303.13 -7.66548 2.79458 0
M  V30 37557 H 2300.47 -5.16165 2.65183 0
M  V30 37558 H 2300.19 -7.06433 0.329384 0
M  V30 37559 H 2299.2 -6.90926 1.82021 0
M  V30 37560 H 2301.04 -8.90873 1.62657 0
M  V30 37561 P 2299.17 -8.03563 3.84925 0
M  V30 37562 O 2298.95 -8.85821 5.0569 0
M  V30 37563 O 2298.38 -8.41101 2.65469 0
M  V30 37564 O 2298.92 -6.49734 4.18962 0
M  V30 37565 C 2299.86 -5.81037 5.05421 0
M  V30 37566 C 2299.13 -4.79018 5.88876 0
M  V30 37567 O 2298.92 -3.58359 5.08515 0
M  V30 37568 C 2297.73 -5.17448 6.36119 0
M  V30 37569 O 2297.34 -4.45322 7.53318 0
M  V30 37570 C 2296.85 -4.74639 5.19936 0
M  V30 37571 C 2297.56 -3.49432 4.70418 0
M  V30 37572 N 2297.51 -3.31776 3.22945 0
M  V30 37573 C 2297.36 -2.02742 2.72939 0
M  V30 37574 O 2297.27 -1.08301 3.52749 0
M  V30 37575 N 2297.31 -1.96117 1.22063 0
M  V30 37576 C 2297.41 -2.8878 0.551566 0
M  V30 37577 N 2297.36 -2.65609 -0.750198 0
M  V30 37578 C 2297.56 -4.22457 1.03707 0
M  V30 37579 C 2297.61 -4.37979 2.39113 0
M  V30 37580 H 2300.35 -6.54138 5.7131 0
M  V30 37581 H 2300.62 -5.30492 4.44033 0
M  V30 37582 H 2299.75 -4.55945 6.76735 0
M  V30 37583 H 2297.09 -2.6176 5.18021 0
M  V30 37584 H 2296.81 -5.52233 4.41941 0
M  V30 37585 H 2295.82 -4.52045 5.53452 0
M  V30 37586 H 2297.66 -6.25124 6.55234 0
M  V30 37587 H 2297.73 -5.37936 2.80552 0
M  V30 37588 H 2297.63 -5.07528 0.359553 0
M  V30 37589 H 2297.24 -1.69403 -1.09847 0
M  V30 37590 H 2297.44 -3.43701 -1.41792 0
M  V30 37591 P 2295.79 -4.23843 7.83734 0
M  V30 37592 O 2295.57 -4.19407 9.29784 0
M  V30 37593 O 2295 -5.24426 7.09156 0
M  V30 37594 O 2295.54 -2.7935 7.20758 0
M  V30 37595 C 2296.48 -1.7299 7.50419 0
M  V30 37596 C 2295.75 -0.406376 7.57911 0
M  V30 37597 O 2295.54 0.0897726 6.21935 0
M  V30 37598 C 2294.35 -0.447224 8.1878 0
M  V30 37599 O 2293.96 0.825065 8.71101 0
M  V30 37600 C 2293.47 -0.783801 6.99623 0
M  V30 37601 C 2294.18 -0.0619192 5.85967 0
M  V30 37602 N 2294.13 -0.790462 4.56202 0
M  V30 37603 H 2296.97 -1.93423 8.4679 0
M  V30 37604 H 2297.24 -1.68852 6.70877 0
M  V30 37605 H 2296.37 0.289041 8.15388 0
M  V30 37606 H 2293.71 0.927006 5.72848 0
M  V30 37607 H 2293.43 -1.86973 6.82036 0
M  V30 37608 H 2292.44 -0.403953 7.13357 0
M  V30 37609 H 2294.28 -1.20599 8.97534 0
M  V30 37610 P 2292.41 1.17771 8.83182 0
M  V30 37611 O 2292.19 2.07206 9.98732 0
M  V30 37612 O 2291.62 -0.0743816 8.81969 0
M  V30 37613 O 2292.16 1.97652 7.47304 0
M  V30 37614 C 2293.1 3.01133 7.08783 0
M  V30 37615 C 2292.37 4.12613 6.37049 0
M  V30 37616 O 2292.16 3.72827 4.97879 0
M  V30 37617 C 2290.97 4.45085 6.88694 0
M  V30 37618 O 2290.58 5.7877 6.5624 0
M  V30 37619 C 2290.09 3.47817 6.12078 0
M  V30 37620 C 2290.8 3.39414 4.77697 0
M  V30 37621 N 2290.75 2.04615 4.15333 0
M  V30 37622 H 2293.59 3.41248 7.98759 0
M  V30 37623 H 2293.86 2.5837 6.41742 0
M  V30 37624 H 2292.99 5.02657 6.42673 0
M  V30 37625 P 2289.03 6.144 6.45285 0
M  V30 37626 O 2288.81 7.54673 6.86199 0
M  V30 37627 O 2288.24 5.12391 7.179 0
M  V30 37628 O 2288.78 5.99158 4.88404 0
M  V30 37629 C 2289.72 6.60234 3.96415 0
M  V30 37630 C 2288.99 7.08259 2.72856 0
M  V30 37631 O 2288.78 5.9427 1.83651 0
M  V30 37632 C 2287.59 7.64886 2.9555 0
M  V30 37633 O 2287.2 8.53963 1.90717 0
M  V30 37634 C 2286.71 6.4116 2.90739 0
M  V30 37635 C 2287.42 5.55375 1.86963 0
M  V30 37636 N 2287.37 4.09448 2.16152 0
M  V30 37637 H 2290.21 7.45574 4.45629 0
M  V30 37638 H 2290.48 5.85864 3.679 0
M  V30 37639 H 2289.61 7.84412 2.24479 0
M  V30 37640 H 2286.95 5.73457 0.888562 0
M  V30 37641 H 2286.67 5.90877 3.88583 0
M  V30 37642 H 2285.68 6.6596 2.58858 0
M  V30 37643 H 2287.52 8.16339 3.92049 0
M  V30 37644 P 2285.65 8.7635 1.60911 0
M  V30 37645 O 2285.43 10.1388 1.11561 0
M  V30 37646 O 2284.86 8.36503 2.79617 0
M  V30 37647 O 2285.4 7.71806 0.42951 0
M  V30 37648 C 2286.34 7.67148 -0.673689 0
M  V30 37649 C 2285.61 7.33374 -1.95559 0
M  V30 37650 O 2285.4 5.88721 -2.00726 0
M  V30 37651 C 2284.21 7.92526 -2.10483 0
M  V30 37652 O 2283.82 8.02971 -3.47653 0
M  V30 37653 C 2283.33 6.89602 -1.41652 0
M  V30 37654 C 2284.04 5.59201 -1.75185 0
M  V30 37655 N 2283.99 4.58301 -0.657969 0
M  V30 37656 H 2286.83 8.65116 -0.777161 0
M  V30 37657 H 2287.1 6.9022 -0.46725 0
M  V30 37658 H 2286.23 7.66548 -2.79458 0
M  V30 37659 H 2283.57 5.16165 -2.65183 0
M  V30 37660 H 2283.29 7.06433 -0.329384 0
M  V30 37661 H 2282.3 6.90926 -1.82021 0
M  V30 37662 H 2284.14 8.90873 -1.62657 0
M  V30 37663 P 2282.27 8.03563 -3.84925 0
M  V30 37664 O 2282.05 8.85821 -5.0569 0
M  V30 37665 O 2281.48 8.41101 -2.65469 0
M  V30 37666 O 2282.02 6.4965 -4.18908 0
M  V30 37667 C 2282.96 5.81037 -5.05421 0
M  V30 37668 C 2282.23 4.78366 -5.89277 0
M  V30 37669 O 2282.02 3.58302 -5.08433 0
M  V30 37670 C 2280.83 5.17448 -6.36119 0
M  V30 37671 O 2280.44 4.45271 -7.53232 0
M  V30 37672 C 2279.95 4.74639 -5.19936 0
M  V30 37673 C 2280.66 3.49432 -4.70418 0
M  V30 37674 N 2280.61 3.32099 -3.22613 0
M  V30 37675 H 2283.45 6.54213 -5.71376 0
M  V30 37676 H 2283.72 5.30936 -4.43503 0
M  V30 37677 H 2282.85 4.55889 -6.76652 0
M  V30 37678 H 2280.19 2.61715 -5.17932 0
M  V30 37679 H 2279.91 5.52155 -4.41878 0
M  V30 37680 H 2278.92 4.51981 -5.53374 0
M  V30 37681 H 2280.76 6.25124 -6.55234 0
M  V30 37682 P 2278.89 4.23843 -7.83734 0
M  V30 37683 O 2278.67 4.19407 -9.29784 0
M  V30 37684 O 2278.1 5.24426 -7.09156 0
M  V30 37685 O 2278.64 2.7935 -7.20758 0
M  V30 37686 C 2279.58 1.7299 -7.50419 0
M  V30 37687 C 2278.85 0.406376 -7.57911 0
M  V30 37688 O 2278.64 -0.0897726 -6.21935 0
M  V30 37689 C 2277.45 0.447224 -8.1878 0
M  V30 37690 O 2277.06 -0.825065 -8.71101 0
M  V30 37691 C 2276.57 0.783801 -6.99623 0
M  V30 37692 C 2277.28 0.0619192 -5.85967 0
M  V30 37693 N 2277.23 0.790462 -4.56202 0
M  V30 37694 H 2280.07 1.93423 -8.4679 0
M  V30 37695 H 2280.34 1.68852 -6.70877 0
M  V30 37696 H 2279.47 -0.289041 -8.15388 0
M  V30 37697 H 2276.81 -0.927006 -5.72848 0
M  V30 37698 H 2276.53 1.86973 -6.82036 0
M  V30 37699 H 2275.54 0.403953 -7.13357 0
M  V30 37700 H 2277.38 1.20599 -8.97534 0
M  V30 37701 P 2275.51 -1.17771 -8.83182 0
M  V30 37702 O 2275.29 -2.07206 -9.98732 0
M  V30 37703 O 2274.72 0.0743816 -8.81969 0
M  V30 37704 O 2275.26 -1.97652 -7.47304 0
M  V30 37705 C 2276.2 -3.01133 -7.08783 0
M  V30 37706 C 2275.47 -4.12613 -6.37049 0
M  V30 37707 O 2275.26 -3.72827 -4.97879 0
M  V30 37708 C 2274.07 -4.45085 -6.88694 0
M  V30 37709 O 2273.68 -5.7877 -6.5624 0
M  V30 37710 C 2273.19 -3.47817 -6.12078 0
M  V30 37711 C 2273.9 -3.39414 -4.77697 0
M  V30 37712 N 2273.85 -2.04199 -4.15538 0
M  V30 37713 H 2276.69 -3.41248 -7.98759 0
M  V30 37714 H 2276.96 -2.57728 -6.42 0
M  V30 37715 H 2276.09 -5.02657 -6.42673 0
M  V30 37716 H 2273.43 -4.11708 -4.08956 0
M  V30 37717 H 2273.15 -2.49626 -6.61679 0
M  V30 37718 H 2272.16 -3.8662 -6.00862 0
M  V30 37719 H 2274 -4.29991 -7.97006 0
M  V30 37720 P 2272.13 -6.144 -6.45285 0
M  V30 37721 O 2271.91 -7.54673 -6.86199 0
M  V30 37722 O 2271.34 -5.12391 -7.179 0
M  V30 37723 O 2271.88 -5.99158 -4.88404 0
M  V30 37724 C 2272.82 -6.60234 -3.96415 0
M  V30 37725 C 2272.09 -7.08259 -2.72856 0
M  V30 37726 O 2271.88 -5.9427 -1.83651 0
M  V30 37727 C 2270.69 -7.64886 -2.9555 0
M  V30 37728 O 2270.3 -8.53963 -1.90717 0
M  V30 37729 C 2269.81 -6.4116 -2.90739 0
M  V30 37730 C 2270.52 -5.55375 -1.86963 0
M  V30 37731 N 2270.47 -4.09664 -2.15742 0
M  V30 37732 H 2273.31 -7.45574 -4.45629 0
M  V30 37733 H 2273.58 -5.86232 -3.67314 0
M  V30 37734 H 2272.71 -7.84412 -2.24479 0
M  V30 37735 P 2268.75 -8.7635 -1.60911 0
M  V30 37736 O 2268.53 -10.1388 -1.11561 0
M  V30 37737 O 2267.96 -8.36503 -2.79617 0
M  V30 37738 O 2268.5 -7.71806 -0.42951 0
M  V30 37739 C 2269.44 -7.67148 0.673689 0
M  V30 37740 C 2268.71 -7.33374 1.95559 0
M  V30 37741 O 2268.5 -5.88721 2.00726 0
M  V30 37742 C 2267.31 -7.92526 2.10483 0
M  V30 37743 O 2266.92 -8.02971 3.47653 0
M  V30 37744 C 2266.43 -6.89602 1.41652 0
M  V30 37745 C 2267.14 -5.59201 1.75185 0
M  V30 37746 N 2267.09 -4.58301 0.657969 0
M  V30 37747 H 2269.93 -8.65116 0.777161 0
M  V30 37748 H 2270.2 -6.9022 0.46725 0
M  V30 37749 H 2269.33 -7.66548 2.79458 0
M  V30 37750 H 2266.67 -5.16165 2.65183 0
M  V30 37751 H 2266.39 -7.06433 0.329384 0
M  V30 37752 H 2265.4 -6.90926 1.82021 0
M  V30 37753 H 2267.24 -8.90873 1.62657 0
M  V30 37754 P 2265.37 -8.03563 3.84925 0
M  V30 37755 O 2265.15 -8.85821 5.0569 0
M  V30 37756 O 2264.58 -8.41101 2.65469 0
M  V30 37757 O 2265.12 -6.49734 4.18962 0
M  V30 37758 C 2266.06 -5.81037 5.05421 0
M  V30 37759 C 2265.33 -4.79018 5.88876 0
M  V30 37760 O 2265.12 -3.58359 5.08515 0
M  V30 37761 C 2263.93 -5.17448 6.36119 0
M  V30 37762 O 2263.54 -4.45322 7.53318 0
M  V30 37763 C 2263.05 -4.74639 5.19936 0
M  V30 37764 C 2263.76 -3.49432 4.70418 0
M  V30 37765 N 2263.71 -3.31776 3.22945 0
M  V30 37766 C 2263.56 -2.02742 2.72939 0
M  V30 37767 O 2263.47 -1.08301 3.52749 0
M  V30 37768 N 2263.51 -1.96117 1.22063 0
M  V30 37769 C 2263.61 -2.8878 0.551566 0
M  V30 37770 N 2263.56 -2.65609 -0.750198 0
M  V30 37771 C 2263.76 -4.22457 1.03707 0
M  V30 37772 C 2263.81 -4.37979 2.39113 0
M  V30 37773 H 2266.55 -6.54138 5.7131 0
M  V30 37774 H 2266.82 -5.30492 4.44033 0
M  V30 37775 H 2265.95 -4.55945 6.76735 0
M  V30 37776 H 2263.29 -2.6176 5.18021 0
M  V30 37777 H 2263.01 -5.52233 4.41941 0
M  V30 37778 H 2262.02 -4.52045 5.53452 0
M  V30 37779 H 2263.86 -6.25124 6.55234 0
M  V30 37780 H 2263.93 -5.37936 2.80552 0
M  V30 37781 H 2263.83 -5.07528 0.359553 0
M  V30 37782 H 2263.44 -1.69403 -1.09847 0
M  V30 37783 H 2263.64 -3.43701 -1.41792 0
M  V30 37784 P 2261.99 -4.23843 7.83734 0
M  V30 37785 O 2261.77 -4.19407 9.29784 0
M  V30 37786 O 2261.2 -5.24426 7.09156 0
M  V30 37787 O 2261.74 -2.7935 7.20758 0
M  V30 37788 C 2262.68 -1.7299 7.50419 0
M  V30 37789 C 2261.95 -0.406376 7.57911 0
M  V30 37790 O 2261.74 0.0897726 6.21935 0
M  V30 37791 C 2260.55 -0.447224 8.1878 0
M  V30 37792 O 2260.16 0.825065 8.71101 0
M  V30 37793 C 2259.67 -0.783801 6.99623 0
M  V30 37794 C 2260.38 -0.0619192 5.85967 0
M  V30 37795 N 2260.33 -0.7859 4.56281 0
M  V30 37796 H 2263.17 -1.93423 8.4679 0
M  V30 37797 H 2263.44 -1.68181 6.71046 0
M  V30 37798 H 2262.57 0.289041 8.15388 0
M  V30 37799 P 2258.61 1.17771 8.83182 0
M  V30 37800 O 2258.39 2.07206 9.98732 0
M  V30 37801 O 2257.82 -0.0743816 8.81969 0
M  V30 37802 O 2258.36 1.97678 7.474 0
M  V30 37803 C 2259.3 3.01133 7.08783 0
M  V30 37804 C 2258.57 4.1203 6.37546 0
M  V30 37805 O 2258.36 3.72887 4.9796 0
M  V30 37806 C 2257.17 4.45085 6.88694 0
M  V30 37807 O 2256.78 5.78836 6.56315 0
M  V30 37808 C 2256.29 3.47817 6.12078 0
M  V30 37809 C 2257 3.39414 4.77697 0
M  V30 37810 N 2256.95 2.04615 4.15333 0
M  V30 37811 C 2256.8 1.96929 2.77162 0
M  V30 37812 O 2256.71 3.02017 2.12006 0
M  V30 37813 N 2256.75 0.55485 2.24237 0
M  V30 37814 C 2256.85 -0.367808 2.9169 0
M  V30 37815 N 2256.8 -1.53426 2.29427 0
M  V30 37816 C 2257 -0.319148 4.33828 0
M  V30 37817 C 2257.05 0.920672 4.90433 0
M  V30 37818 H 2259.79 3.41209 7.98667 0
M  V30 37819 H 2260.06 2.5837 6.41742 0
M  V30 37820 H 2259.19 5.02718 6.42752 0
M  V30 37821 H 2256.53 4.11779 4.09026 0
M  V30 37822 H 2256.25 2.49661 6.61772 0
M  V30 37823 H 2255.26 3.86674 6.00946 0
M  V30 37824 H 2257.1 4.29991 7.97006 0
M  V30 37825 H 2257.17 1.00589 5.98303 0
M  V30 37826 H 2257.07 -1.22639 4.93799 0
M  V30 37827 H 2256.68 -1.56819 1.27167 0
M  V30 37828 H 2256.88 -2.41062 2.83063 0
M  V30 37829 P 2255.23 6.144 6.45285 0
M  V30 37830 O 2255.01 7.54673 6.86199 0
M  V30 37831 O 2254.44 5.12391 7.179 0
M  V30 37832 O 2254.98 5.99158 4.88404 0
M  V30 37833 C 2255.92 6.60234 3.96415 0
M  V30 37834 C 2255.19 7.08259 2.72856 0
M  V30 37835 O 2254.98 5.9427 1.83651 0
M  V30 37836 C 2253.79 7.64886 2.9555 0
M  V30 37837 O 2253.4 8.53963 1.90717 0
M  V30 37838 C 2252.91 6.4116 2.90739 0
M  V30 37839 C 2253.62 5.55375 1.86963 0
M  V30 37840 N 2253.57 4.09448 2.16152 0
M  V30 37841 H 2256.41 7.45574 4.45629 0
M  V30 37842 H 2256.68 5.85864 3.679 0
M  V30 37843 H 2255.81 7.84412 2.24479 0
M  V30 37844 H 2253.15 5.73457 0.888562 0
M  V30 37845 H 2252.87 5.90877 3.88583 0
M  V30 37846 H 2251.88 6.6596 2.58858 0
M  V30 37847 H 2253.72 8.16339 3.92049 0
M  V30 37848 P 2251.85 8.7635 1.60911 0
M  V30 37849 O 2251.63 10.1388 1.11561 0
M  V30 37850 O 2251.06 8.36503 2.79617 0
M  V30 37851 O 2251.6 7.71906 0.429565 0
M  V30 37852 C 2252.54 7.67148 -0.673689 0
M  V30 37853 C 2251.81 7.33666 -1.94851 0
M  V30 37854 O 2251.6 5.88816 -2.00759 0
M  V30 37855 C 2250.41 7.92526 -2.10483 0
M  V30 37856 O 2250.02 8.03063 -3.47693 0
M  V30 37857 C 2249.53 6.89602 -1.41652 0
M  V30 37858 C 2250.24 5.59201 -1.75185 0
M  V30 37859 N 2250.19 4.58235 -0.662552 0
M  V30 37860 C 2250.04 3.24451 -1.01643 0
M  V30 37861 O 2249.95 2.94958 -2.21722 0
M  V30 37862 N 2249.99 2.30408 0.165238 0
M  V30 37863 C 2250.09 2.66048 1.25118 0
M  V30 37864 N 2250.04 1.70787 2.16813 0
M  V30 37865 C 2250.24 4.02732 1.64413 0
M  V30 37866 C 2250.29 4.9488 0.63991 0
M  V30 37867 H 2253.03 8.65017 -0.777072 0
M  V30 37868 H 2253.3 6.90173 -0.474152 0
M  V30 37869 H 2252.43 7.66642 -2.79492 0
M  V30 37870 H 2249.77 5.16254 -2.65229 0
M  V30 37871 H 2249.49 7.06532 -0.329431 0
M  V30 37872 H 2248.5 6.91023 -1.82047 0
M  V30 37873 H 2250.34 8.90873 -1.62657 0
M  V30 37874 H 2250.41 6.00104 0.892197 0
M  V30 37875 H 2250.31 4.31733 2.69229 0
M  V30 37876 H 2249.92 0.724835 1.8844 0
M  V30 37877 H 2250.12 1.94716 3.16734 0
M  V30 37878 P 2248.47 8.03563 -3.84925 0
M  V30 37879 O 2248.25 8.85821 -5.0569 0
M  V30 37880 O 2247.68 8.41101 -2.65469 0
M  V30 37881 O 2248.22 6.4965 -4.18908 0
M  V30 37882 C 2249.16 5.81037 -5.05421 0
M  V30 37883 C 2248.43 4.78366 -5.89277 0
M  V30 37884 O 2248.22 3.58302 -5.08433 0
M  V30 37885 C 2247.03 5.17448 -6.36119 0
M  V30 37886 O 2246.64 4.45271 -7.53232 0
M  V30 37887 C 2246.15 4.74639 -5.19936 0
M  V30 37888 C 2246.86 3.49432 -4.70418 0
M  V30 37889 N 2246.81 3.31776 -3.22945 0
M  V30 37890 H 2249.65 6.54213 -5.71376 0
M  V30 37891 H 2249.92 5.30492 -4.44033 0
M  V30 37892 H 2249.05 4.55889 -6.76652 0
M  V30 37893 P 2245.09 4.23843 -7.83734 0
M  V30 37894 O 2244.87 4.19407 -9.29784 0
M  V30 37895 O 2244.3 5.24426 -7.09156 0
M  V30 37896 O 2244.84 2.7935 -7.20758 0
M  V30 37897 C 2245.78 1.72945 -7.50224 0
M  V30 37898 C 2245.05 0.406376 -7.57911 0
M  V30 37899 O 2244.84 -0.0897726 -6.21935 0
M  V30 37900 C 2243.65 0.438983 -8.18724 0
M  V30 37901 O 2243.26 -0.825065 -8.71101 0
M  V30 37902 C 2242.77 0.783689 -6.99524 0
M  V30 37903 C 2243.48 0.0619086 -5.85867 0
M  V30 37904 N 2243.43 0.78573 -4.56183 0
M  V30 37905 C 2243.28 0.0292889 -3.41887 0
M  V30 37906 O 2243.19 -1.18445 -3.4419 0
M  V30 37907 N 2243.24 0.744061 -2.23964 0
M  V30 37908 C 2243.33 2.10932 -2.10362 0
M  V30 37909 C 2243.48 2.8202 -3.34994 0
M  V30 37910 C 2243.53 2.15547 -4.52261 0
M  V30 37911 H 2246.27 1.93379 -8.46595 0
M  V30 37912 H 2246.54 1.68132 -6.70852 0
M  V30 37913 H 2245.67 -0.289041 -8.15388 0
M  V30 37914 H 2243.01 -0.926847 -5.72749 0
M  V30 37915 H 2242.74 1.86973 -6.82036 0
M  V30 37916 H 2241.74 0.403896 -7.13257 0
M  V30 37917 H 2243.58 1.20585 -8.97435 0
M  V30 37918 H 2243.65 2.71231 -5.45042 0
M  V30 37919 P 2241.71 -1.17771 -8.83182 0
M  V30 37920 O 2241.49 -2.07206 -9.98732 0
M  V30 37921 O 2240.92 0.0743816 -8.81969 0
M  V30 37922 O 2241.46 -1.97652 -7.47304 0
M  V30 37923 C 2242.4 -3.01133 -7.08783 0
M  V30 37924 C 2241.67 -4.12613 -6.37049 0
M  V30 37925 O 2241.46 -3.72827 -4.97879 0
M  V30 37926 C 2240.27 -4.45085 -6.88694 0
M  V30 37927 O 2239.88 -5.7877 -6.5624 0
M  V30 37928 C 2239.39 -3.47817 -6.12078 0
M  V30 37929 C 2240.1 -3.39414 -4.77697 0
M  V30 37930 N 2240.05 -2.04615 -4.15333 0
M  V30 37931 H 2242.89 -3.41248 -7.98759 0
M  V30 37932 H 2243.16 -2.5837 -6.41742 0
M  V30 37933 H 2242.29 -5.02657 -6.42673 0
M  V30 37934 P 2238.33 -6.144 -6.45285 0
M  V30 37935 O 2238.11 -7.54673 -6.86199 0
M  V30 37936 O 2237.54 -5.12391 -7.179 0
M  V30 37937 O 2238.08 -5.99236 -4.88467 0
M  V30 37938 C 2239.02 -6.60234 -3.96415 0
M  V30 37939 C 2238.29 -7.08079 -2.736 0
M  V30 37940 O 2238.08 -5.94365 -1.8368 0
M  V30 37941 C 2236.89 -7.64886 -2.9555 0
M  V30 37942 O 2236.5 -8.5406 -1.90739 0
M  V30 37943 C 2236.01 -6.4116 -2.90739 0
M  V30 37944 C 2236.72 -5.55375 -1.86963 0
M  V30 37945 N 2236.67 -4.09664 -2.15742 0
M  V30 37946 C 2236.52 -3.22231 -1.08477 0
M  V30 37947 O 2236.43 -3.68951 0.0600489 0
M  V30 37948 N 2236.47 -1.76692 -1.48799 0
M  V30 37949 C 2236.57 -1.41695 -2.57602 0
M  V30 37950 N 2236.52 -0.107296 -2.75791 0
M  V30 37951 C 2236.72 -2.29178 -3.69733 0
M  V30 37952 C 2236.77 -3.62753 -3.42653 0
M  V30 37953 H 2239.51 -7.45488 -4.45578 0
M  V30 37954 H 2239.78 -5.86232 -3.67314 0
M  V30 37955 H 2238.91 -7.84508 -2.24507 0
M  V30 37956 H 2236.25 -5.73556 -0.888715 0
M  V30 37957 H 2235.97 -5.9096 -3.88638 0
M  V30 37958 H 2234.98 -6.66053 -2.58894 0
M  V30 37959 H 2236.82 -8.16339 -3.92049 0
M  V30 37960 H 2236.89 -4.33052 -4.24913 0
M  V30 37961 H 2236.79 -1.9103 -4.71577 0
M  V30 37962 H 2236.4 0.521221 -1.95056 0
M  V30 37963 H 2236.6 0.286429 -3.70695 0
M  V30 37964 P 2234.95 -8.7635 -1.60911 0
M  V30 37965 O 2234.73 -10.1388 -1.11561 0
M  V30 37966 O 2234.16 -8.36503 -2.79617 0
M  V30 37967 O 2234.7 -7.71806 -0.42951 0
M  V30 37968 C 2235.64 -7.67148 0.673689 0
M  V30 37969 C 2234.91 -7.33374 1.95559 0
M  V30 37970 O 2234.7 -5.88721 2.00726 0
M  V30 37971 C 2233.51 -7.92526 2.10483 0
M  V30 37972 O 2233.12 -8.02971 3.47653 0
M  V30 37973 C 2232.63 -6.89602 1.41652 0
M  V30 37974 C 2233.34 -5.59201 1.75185 0
M  V30 37975 N 2233.29 -4.58235 0.662552 0
M  V30 37976 H 2236.13 -8.65116 0.777161 0
M  V30 37977 H 2236.4 -6.90173 0.474152 0
M  V30 37978 H 2235.53 -7.66548 2.79458 0
M  V30 37979 P 2231.57 -8.03563 3.84925 0
M  V30 37980 O 2231.35 -8.85821 5.0569 0
M  V30 37981 O 2230.78 -8.41101 2.65469 0
M  V30 37982 O 2231.32 -6.49734 4.18962 0
M  V30 37983 C 2232.26 -5.81037 5.05421 0
M  V30 37984 C 2231.53 -4.79018 5.88876 0
M  V30 37985 O 2231.32 -3.58359 5.08515 0
M  V30 37986 C 2230.13 -5.17448 6.36119 0
M  V30 37987 O 2229.74 -4.45322 7.53318 0
M  V30 37988 C 2229.25 -4.74639 5.19936 0
M  V30 37989 C 2229.96 -3.49432 4.70418 0
M  V30 37990 N 2229.91 -3.31776 3.22945 0
M  V30 37991 C 2229.76 -2.02742 2.72939 0
M  V30 37992 O 2229.67 -1.08301 3.52749 0
M  V30 37993 N 2229.71 -1.96117 1.22063 0
M  V30 37994 C 2229.81 -2.8878 0.551566 0
M  V30 37995 N 2229.76 -2.65609 -0.750198 0
M  V30 37996 C 2229.96 -4.22457 1.03707 0
M  V30 37997 C 2230.01 -4.37979 2.39113 0
M  V30 37998 H 2232.75 -6.54138 5.7131 0
M  V30 37999 H 2233.02 -5.30492 4.44033 0
M  V30 38000 H 2232.15 -4.55945 6.76735 0
M  V30 38001 H 2229.49 -2.6176 5.18021 0
M  V30 38002 H 2229.21 -5.52233 4.41941 0
M  V30 38003 H 2228.22 -4.52045 5.53452 0
M  V30 38004 H 2230.06 -6.25124 6.55234 0
M  V30 38005 H 2230.13 -5.37936 2.80552 0
M  V30 38006 H 2230.03 -5.07528 0.359553 0
M  V30 38007 H 2229.64 -1.69403 -1.09847 0
M  V30 38008 H 2229.84 -3.43701 -1.41792 0
M  V30 38009 P 2228.19 -4.23843 7.83734 0
M  V30 38010 O 2227.97 -4.19407 9.29784 0
M  V30 38011 O 2227.4 -5.24426 7.09156 0
M  V30 38012 O 2227.94 -2.7935 7.20758 0
M  V30 38013 C 2228.88 -1.72945 7.50224 0
M  V30 38014 C 2228.15 -0.406376 7.57911 0
M  V30 38015 O 2227.94 0.0897726 6.21935 0
M  V30 38016 C 2226.75 -0.438983 8.18724 0
M  V30 38017 O 2226.36 0.825065 8.71101 0
M  V30 38018 C 2225.87 -0.783689 6.99524 0
M  V30 38019 C 2226.58 -0.0619086 5.85867 0
M  V30 38020 N 2226.53 -0.78573 4.56183 0
M  V30 38021 C 2226.38 -0.0292889 3.41887 0
M  V30 38022 O 2226.29 1.18445 3.4419 0
M  V30 38023 N 2226.34 -0.744061 2.23964 0
M  V30 38024 C 2226.43 -2.10932 2.10362 0
M  V30 38025 C 2226.58 -2.8202 3.34994 0
M  V30 38026 C 2226.63 -2.15547 4.52261 0
M  V30 38027 H 2229.37 -1.93379 8.46595 0
M  V30 38028 H 2229.64 -1.68132 6.70852 0
M  V30 38029 H 2228.77 0.289041 8.15388 0
M  V30 38030 H 2226.11 0.926847 5.72749 0
M  V30 38031 H 2225.84 -1.86973 6.82036 0
M  V30 38032 H 2224.84 -0.403896 7.13257 0
M  V30 38033 H 2226.68 -1.20585 8.97435 0
M  V30 38034 H 2226.75 -2.71231 5.45042 0
M  V30 38035 P 2224.81 1.17771 8.83182 0
M  V30 38036 O 2224.59 2.07206 9.98732 0
M  V30 38037 O 2224.02 -0.0743816 8.81969 0
M  V30 38038 O 2224.56 1.97652 7.47304 0
M  V30 38039 C 2225.5 3.01133 7.08783 0
M  V30 38040 C 2224.77 4.12613 6.37049 0
M  V30 38041 O 2224.56 3.72827 4.97879 0
M  V30 38042 C 2223.37 4.45085 6.88694 0
M  V30 38043 O 2222.98 5.7877 6.5624 0
M  V30 38044 C 2222.49 3.47817 6.12078 0
M  V30 38045 C 2223.2 3.39414 4.77697 0
M  V30 38046 N 2223.15 2.04615 4.15333 0
M  V30 38047 H 2225.99 3.41248 7.98759 0
M  V30 38048 H 2226.26 2.5837 6.41742 0
M  V30 38049 H 2225.39 5.02657 6.42673 0
M  V30 38050 P 2221.43 6.144 6.45285 0
M  V30 38051 O 2221.21 7.54673 6.86199 0
M  V30 38052 O 2220.64 5.12391 7.179 0
M  V30 38053 O 2221.18 5.99158 4.88404 0
M  V30 38054 C 2222.12 6.60234 3.96415 0
M  V30 38055 C 2221.39 7.08259 2.72856 0
M  V30 38056 O 2221.18 5.9427 1.83651 0
M  V30 38057 C 2219.99 7.64886 2.9555 0
M  V30 38058 O 2219.6 8.53963 1.90717 0
M  V30 38059 C 2219.11 6.4116 2.90739 0
M  V30 38060 C 2219.82 5.55375 1.86963 0
M  V30 38061 N 2219.77 4.09664 2.15742 0
M  V30 38062 H 2222.61 7.45574 4.45629 0
M  V30 38063 H 2222.88 5.86232 3.67314 0
M  V30 38064 H 2222.01 7.84412 2.24479 0
M  V30 38065 P 2218.05 8.7635 1.60911 0
M  V30 38066 O 2217.83 10.1388 1.11561 0
M  V30 38067 O 2217.26 8.36503 2.79617 0
M  V30 38068 O 2217.8 7.71806 0.42951 0
M  V30 38069 C 2218.74 7.66948 -0.673514 0
M  V30 38070 C 2218.01 7.33374 -1.95559 0
M  V30 38071 O 2217.8 5.88721 -2.00726 0
M  V30 38072 C 2216.61 7.92218 -2.1125 0
M  V30 38073 O 2216.22 8.02971 -3.47653 0
M  V30 38074 C 2215.73 6.89504 -1.41631 0
M  V30 38075 C 2216.44 5.59106 -1.75155 0
M  V30 38076 N 2216.39 4.58136 -0.662409 0
M  V30 38077 C 2216.24 3.26059 -1.02863 0
M  V30 38078 O 2216.15 2.90743 -2.19009 0
M  V30 38079 N 2216.2 2.35995 0.0155585 0
M  V30 38080 C 2216.29 2.65248 1.35603 0
M  V30 38081 O 2216.24 1.75605 2.20651 0
M  V30 38082 C 2216.44 4.05747 1.64698 0
M  V30 38083 C 2216.55 4.42345 3.09553 0
M  V30 38084 C 2216.49 4.96734 0.652411 0
M  V30 38085 H 2219.23 8.64917 -0.776982 0
M  V30 38086 H 2219.5 6.89974 -0.474015 0
M  V30 38087 H 2218.63 7.66548 -2.79458 0
M  V30 38088 H 2215.97 5.16076 -2.65138 0
M  V30 38089 H 2215.7 7.06433 -0.329384 0
M  V30 38090 H 2214.7 6.90829 -1.81996 0
M  V30 38091 H 2216.54 8.90774 -1.62639 0
M  V30 38092 H 2216.61 6.02181 0.895285 0
M  V30 38093 H 2215.58 4.80252 3.45468 0
M  V30 38094 H 2217.32 5.20015 3.22119 0
M  V30 38095 H 2216.83 3.53269 3.67833 0
M  V30 38096 H 2216.09 1.39558 -0.227499 0
M  V30 38097 P 2214.67 8.03563 -3.84925 0
M  V30 38098 O 2214.45 8.85821 -5.0569 0
M  V30 38099 O 2213.88 8.41101 -2.65469 0
M  V30 38100 O 2214.42 6.4965 -4.18908 0
M  V30 38101 C 2215.36 5.81037 -5.05421 0
M  V30 38102 C 2214.63 4.78366 -5.89277 0
M  V30 38103 O 2214.42 3.58302 -5.08433 0
M  V30 38104 C 2213.23 5.17448 -6.36119 0
M  V30 38105 O 2212.84 4.45271 -7.53232 0
M  V30 38106 C 2212.35 4.74639 -5.19936 0
M  V30 38107 C 2213.06 3.49432 -4.70418 0
M  V30 38108 N 2213.01 3.31776 -3.22945 0
M  V30 38109 H 2215.85 6.54213 -5.71376 0
M  V30 38110 H 2216.12 5.30492 -4.44033 0
M  V30 38111 H 2215.25 4.55889 -6.76652 0
M  V30 38112 P 2211.29 4.23843 -7.83734 0
M  V30 38113 O 2211.07 4.19407 -9.29784 0
M  V30 38114 O 2210.5 5.24426 -7.09156 0
M  V30 38115 O 2211.04 2.7935 -7.20758 0
M  V30 38116 C 2211.98 1.72945 -7.50224 0
M  V30 38117 C 2211.25 0.406376 -7.57911 0
M  V30 38118 O 2211.04 -0.0897726 -6.21935 0
M  V30 38119 C 2209.85 0.438983 -8.18724 0
M  V30 38120 O 2209.46 -0.825065 -8.71101 0
M  V30 38121 C 2208.97 0.783689 -6.99524 0
M  V30 38122 C 2209.68 0.0619086 -5.85867 0
M  V30 38123 N 2209.63 0.78573 -4.56183 0
M  V30 38124 C 2209.48 0.0292889 -3.41887 0
M  V30 38125 O 2209.39 -1.18445 -3.4419 0
M  V30 38126 N 2209.44 0.744061 -2.23964 0
M  V30 38127 C 2209.53 2.10932 -2.10362 0
M  V30 38128 C 2209.68 2.8202 -3.34994 0
M  V30 38129 C 2209.73 2.15547 -4.52261 0
M  V30 38130 H 2212.47 1.93379 -8.46595 0
M  V30 38131 H 2212.74 1.68132 -6.70852 0
M  V30 38132 H 2211.87 -0.289041 -8.15388 0
M  V30 38133 H 2209.21 -0.926847 -5.72749 0
M  V30 38134 H 2208.94 1.86973 -6.82036 0
M  V30 38135 H 2207.94 0.403896 -7.13257 0
M  V30 38136 H 2209.78 1.20585 -8.97435 0
M  V30 38137 H 2209.85 2.71231 -5.45042 0
M  V30 38138 P 2207.91 -1.17771 -8.83182 0
M  V30 38139 O 2207.69 -2.07206 -9.98732 0
M  V30 38140 O 2207.12 0.0743816 -8.81969 0
M  V30 38141 O 2207.66 -1.97652 -7.47304 0
M  V30 38142 C 2208.6 -3.01133 -7.08783 0
M  V30 38143 C 2207.87 -4.12613 -6.37049 0
M  V30 38144 O 2207.66 -3.72827 -4.97879 0
M  V30 38145 C 2206.47 -4.45085 -6.88694 0
M  V30 38146 O 2206.08 -5.7877 -6.5624 0
M  V30 38147 C 2205.59 -3.47817 -6.12078 0
M  V30 38148 C 2206.3 -3.39414 -4.77697 0
M  V30 38149 N 2206.25 -2.04199 -4.15538 0
M  V30 38150 H 2209.09 -3.41248 -7.98759 0
M  V30 38151 H 2209.36 -2.57728 -6.42 0
M  V30 38152 H 2208.49 -5.02657 -6.42673 0
M  V30 38153 H 2205.83 -4.11708 -4.08956 0
M  V30 38154 H 2205.55 -2.49626 -6.61679 0
M  V30 38155 H 2204.56 -3.8662 -6.00862 0
M  V30 38156 H 2206.4 -4.29991 -7.97006 0
M  V30 38157 P 2204.53 -6.144 -6.45285 0
M  V30 38158 O 2204.31 -7.54673 -6.86199 0
M  V30 38159 O 2203.74 -5.12391 -7.179 0
M  V30 38160 O 2204.28 -5.99158 -4.88404 0
M  V30 38161 C 2205.22 -6.60234 -3.96415 0
M  V30 38162 C 2204.49 -7.08259 -2.72856 0
M  V30 38163 O 2204.28 -5.9427 -1.83651 0
M  V30 38164 C 2203.09 -7.64886 -2.9555 0
M  V30 38165 O 2202.7 -8.53963 -1.90717 0
M  V30 38166 C 2202.21 -6.4116 -2.90739 0
M  V30 38167 C 2202.92 -5.55375 -1.86963 0
M  V30 38168 N 2202.87 -4.09664 -2.15742 0
M  V30 38169 H 2205.71 -7.45574 -4.45629 0
M  V30 38170 H 2205.98 -5.86232 -3.67314 0
M  V30 38171 H 2205.11 -7.84412 -2.24479 0
M  V30 38172 P 2201.15 -8.7635 -1.60911 0
M  V30 38173 O 2200.93 -10.1388 -1.11561 0
M  V30 38174 O 2200.36 -8.36503 -2.79617 0
M  V30 38175 O 2200.9 -7.71806 -0.42951 0
M  V30 38176 C 2201.84 -7.66948 0.673514 0
M  V30 38177 C 2201.11 -7.33374 1.95559 0
M  V30 38178 O 2200.9 -5.88721 2.00726 0
M  V30 38179 C 2199.71 -7.92218 2.1125 0
M  V30 38180 O 2199.32 -8.02971 3.47653 0
M  V30 38181 C 2198.83 -6.89504 1.41631 0
M  V30 38182 C 2199.54 -5.59106 1.75155 0
M  V30 38183 N 2199.49 -4.58136 0.662409 0
M  V30 38184 C 2199.34 -3.26059 1.02863 0
M  V30 38185 O 2199.25 -2.90743 2.19009 0
M  V30 38186 N 2199.3 -2.35995 -0.0155585 0
M  V30 38187 C 2199.39 -2.65248 -1.35603 0
M  V30 38188 O 2199.34 -1.75605 -2.20651 0
M  V30 38189 C 2199.54 -4.05747 -1.64698 0
M  V30 38190 C 2199.65 -4.42345 -3.09553 0
M  V30 38191 C 2199.59 -4.96734 -0.652411 0
M  V30 38192 H 2202.33 -8.64917 0.776982 0
M  V30 38193 H 2202.6 -6.89974 0.474015 0
M  V30 38194 H 2201.73 -7.66548 2.79458 0
M  V30 38195 H 2199.07 -5.16076 2.65138 0
M  V30 38196 H 2198.8 -7.06433 0.329384 0
M  V30 38197 H 2197.8 -6.90829 1.81996 0
M  V30 38198 H 2199.64 -8.90774 1.62639 0
M  V30 38199 H 2199.71 -6.02181 -0.895285 0
M  V30 38200 H 2198.68 -4.80252 -3.45468 0
M  V30 38201 H 2200.42 -5.20015 -3.22119 0
M  V30 38202 H 2199.93 -3.53269 -3.67833 0
M  V30 38203 H 2199.19 -1.39558 0.227499 0
M  V30 38204 P 2197.77 -8.03563 3.84925 0
M  V30 38205 O 2197.55 -8.85821 5.0569 0
M  V30 38206 O 2196.98 -8.41101 2.65469 0
M  V30 38207 O 2197.52 -6.4965 4.18908 0
M  V30 38208 C 2198.46 -5.81037 5.05421 0
M  V30 38209 C 2197.73 -4.78366 5.89277 0
M  V30 38210 O 2197.52 -3.58302 5.08433 0
M  V30 38211 C 2196.33 -5.17448 6.36119 0
M  V30 38212 O 2195.94 -4.45271 7.53232 0
M  V30 38213 C 2195.45 -4.74639 5.19936 0
M  V30 38214 C 2196.16 -3.49432 4.70418 0
M  V30 38215 N 2196.11 -3.31776 3.22945 0
M  V30 38216 H 2198.95 -6.54213 5.71376 0
M  V30 38217 H 2199.22 -5.30492 4.44033 0
M  V30 38218 H 2198.35 -4.55889 6.76652 0
M  V30 38219 P 2194.39 -4.23843 7.83734 0
M  V30 38220 O 2194.17 -4.19407 9.29784 0
M  V30 38221 O 2193.6 -5.24426 7.09156 0
M  V30 38222 O 2194.14 -2.7935 7.20758 0
M  V30 38223 C 2195.08 -1.7299 7.50419 0
M  V30 38224 C 2194.35 -0.406376 7.57911 0
M  V30 38225 O 2194.14 0.0897726 6.21935 0
M  V30 38226 C 2192.95 -0.447224 8.1878 0
M  V30 38227 O 2192.56 0.825065 8.71101 0
M  V30 38228 C 2192.07 -0.783801 6.99623 0
M  V30 38229 C 2192.78 -0.0619192 5.85967 0
M  V30 38230 N 2192.73 -0.790462 4.56202 0
M  V30 38231 H 2195.57 -1.93423 8.4679 0
M  V30 38232 H 2195.84 -1.68852 6.70877 0
M  V30 38233 H 2194.97 0.289041 8.15388 0
M  V30 38234 H 2192.32 0.927006 5.72848 0
M  V30 38235 H 2192.04 -1.86973 6.82036 0
M  V30 38236 H 2191.04 -0.403953 7.13357 0
M  V30 38237 H 2192.88 -1.20599 8.97534 0
M  V30 38238 P 2191.01 1.17771 8.83182 0
M  V30 38239 O 2190.79 2.07206 9.98732 0
M  V30 38240 O 2190.22 -0.0743816 8.81969 0
M  V30 38241 O 2190.76 1.97652 7.47304 0
M  V30 38242 C 2191.7 3.01133 7.08783 0
M  V30 38243 C 2190.97 4.12613 6.37049 0
M  V30 38244 O 2190.76 3.72827 4.97879 0
M  V30 38245 C 2189.57 4.45085 6.88694 0
M  V30 38246 O 2189.18 5.7877 6.5624 0
M  V30 38247 C 2188.69 3.47817 6.12078 0
M  V30 38248 C 2189.4 3.39414 4.77697 0
M  V30 38249 N 2189.35 2.04199 4.15538 0
M  V30 38250 H 2192.19 3.41248 7.98759 0
M  V30 38251 H 2192.46 2.57728 6.42 0
M  V30 38252 H 2191.59 5.02657 6.42673 0
M  V30 38253 H 2188.94 4.11708 4.08956 0
M  V30 38254 H 2188.66 2.49626 6.61679 0
M  V30 38255 H 2187.66 3.8662 6.00862 0
M  V30 38256 H 2189.5 4.29991 7.97006 0
M  V30 38257 P 2187.63 6.144 6.45285 0
M  V30 38258 O 2187.41 7.54673 6.86199 0
M  V30 38259 O 2186.84 5.12391 7.179 0
M  V30 38260 O 2187.38 5.99158 4.88404 0
M  V30 38261 C 2188.32 6.60234 3.96415 0
M  V30 38262 C 2187.59 7.08259 2.72856 0
M  V30 38263 O 2187.38 5.9427 1.83651 0
M  V30 38264 C 2186.19 7.64886 2.9555 0
M  V30 38265 O 2185.8 8.53963 1.90717 0
M  V30 38266 C 2185.31 6.4116 2.90739 0
M  V30 38267 C 2186.02 5.55375 1.86963 0
M  V30 38268 N 2185.97 4.09664 2.15742 0
M  V30 38269 H 2188.81 7.45574 4.45629 0
M  V30 38270 H 2189.08 5.86232 3.67314 0
M  V30 38271 H 2188.21 7.84412 2.24479 0
M  V30 38272 P 2184.25 8.7635 1.60911 0
M  V30 38273 O 2184.03 10.1388 1.11561 0
M  V30 38274 O 2183.46 8.36503 2.79617 0
M  V30 38275 O 2184 7.71906 0.429565 0
M  V30 38276 C 2184.94 7.67148 -0.673689 0
M  V30 38277 C 2184.21 7.33666 -1.94851 0
M  V30 38278 O 2184 5.88816 -2.00759 0
M  V30 38279 C 2182.81 7.92526 -2.10483 0
M  V30 38280 O 2182.42 8.03063 -3.47693 0
M  V30 38281 C 2181.93 6.89602 -1.41652 0
M  V30 38282 C 2182.64 5.59201 -1.75185 0
M  V30 38283 N 2182.59 4.58235 -0.662552 0
M  V30 38284 C 2182.44 3.24451 -1.01643 0
M  V30 38285 O 2182.35 2.94958 -2.21722 0
M  V30 38286 N 2182.39 2.30408 0.165238 0
M  V30 38287 C 2182.49 2.66048 1.25118 0
M  V30 38288 N 2182.44 1.70787 2.16813 0
M  V30 38289 C 2182.64 4.02732 1.64413 0
M  V30 38290 C 2182.69 4.9488 0.63991 0
M  V30 38291 H 2185.43 8.65017 -0.777072 0
M  V30 38292 H 2185.7 6.90173 -0.474152 0
M  V30 38293 H 2184.83 7.66642 -2.79492 0
M  V30 38294 H 2182.18 5.16254 -2.65229 0
M  V30 38295 H 2181.9 7.06532 -0.329431 0
M  V30 38296 H 2180.9 6.91023 -1.82047 0
M  V30 38297 H 2182.74 8.90873 -1.62657 0
M  V30 38298 H 2182.81 6.00104 0.892197 0
M  V30 38299 H 2182.71 4.31733 2.69229 0
M  V30 38300 H 2182.32 0.724835 1.8844 0
M  V30 38301 H 2182.52 1.94716 3.16734 0
M  V30 38302 P 2180.87 8.03563 -3.84925 0
M  V30 38303 O 2180.65 8.85821 -5.0569 0
M  V30 38304 O 2180.08 8.41101 -2.65469 0
M  V30 38305 O 2180.62 6.4965 -4.18908 0
M  V30 38306 C 2181.56 5.80886 -5.05289 0
M  V30 38307 C 2180.83 4.78366 -5.89277 0
M  V30 38308 O 2180.62 3.58302 -5.08433 0
M  V30 38309 C 2179.43 5.16748 -6.36559 0
M  V30 38310 O 2179.04 4.45271 -7.53232 0
M  V30 38311 C 2178.55 4.74572 -5.19863 0
M  V30 38312 C 2179.26 3.49373 -4.70338 0
M  V30 38313 N 2179.21 3.31704 -3.22876 0
M  V30 38314 C 2179.06 2.03326 -2.74871 0
M  V30 38315 O 2178.97 1.06486 -3.48076 0
M  V30 38316 N 2179.02 1.91838 -1.37456 0
M  V30 38317 C 2179.11 2.94295 -0.462035 0
M  V30 38318 C 2179.26 4.25064 -1.05249 0
M  V30 38319 C 2179.31 4.40214 -2.39192 0
M  V30 38320 H 2182.05 6.54063 -5.71245 0
M  V30 38321 H 2182.32 5.30339 -4.43905 0
M  V30 38322 H 2181.45 4.55889 -6.76652 0
M  V30 38323 H 2178.8 2.6167 -5.17842 0
M  V30 38324 H 2178.52 5.52155 -4.41878 0
M  V30 38325 H 2177.52 4.51918 -5.53297 0
M  V30 38326 H 2179.36 6.25055 -6.55162 0
M  V30 38327 H 2179.43 5.39798 -2.81523 0
M  V30 38328 P 2177.49 4.23843 -7.83734 0
M  V30 38329 O 2177.27 4.19407 -9.29784 0
M  V30 38330 O 2176.7 5.24426 -7.09156 0
M  V30 38331 O 2177.24 2.7935 -7.20758 0
M  V30 38332 C 2178.18 1.7299 -7.50419 0
M  V30 38333 C 2177.45 0.406376 -7.57911 0
M  V30 38334 O 2177.24 -0.0897726 -6.21935 0
M  V30 38335 C 2176.05 0.447224 -8.1878 0
M  V30 38336 O 2175.66 -0.825065 -8.71101 0
M  V30 38337 C 2175.17 0.783801 -6.99623 0
M  V30 38338 C 2175.88 0.0619192 -5.85967 0
M  V30 38339 N 2175.83 0.7859 -4.56281 0
M  V30 38340 H 2178.67 1.93423 -8.4679 0
M  V30 38341 H 2178.94 1.68181 -6.71046 0
M  V30 38342 H 2178.07 -0.289041 -8.15388 0
M  V30 38343 P 2174.11 -1.17771 -8.83182 0
M  V30 38344 O 2173.89 -2.07206 -9.98732 0
M  V30 38345 O 2173.32 0.0743816 -8.81969 0
M  V30 38346 O 2173.86 -1.97652 -7.47304 0
M  V30 38347 C 2174.8 -3.01055 -7.08599 0
M  V30 38348 C 2174.07 -4.12613 -6.37049 0
M  V30 38349 O 2173.86 -3.72827 -4.97879 0
M  V30 38350 C 2172.67 -4.45719 -6.88164 0
M  V30 38351 O 2172.28 -5.7877 -6.5624 0
M  V30 38352 C 2171.79 -3.47768 -6.11991 0
M  V30 38353 C 2172.5 -3.39356 -4.77615 0
M  V30 38354 N 2172.45 -2.04571 -4.15244 0
M  V30 38355 C 2172.3 -1.98587 -2.78314 0
M  V30 38356 O 2172.21 -2.98134 -2.08835 0
M  V30 38357 N 2172.26 -0.714467 -2.24925 0
M  V30 38358 C 2172.35 0.470001 -2.94169 0
M  V30 38359 C 2172.5 0.312541 -4.36783 0
M  V30 38360 C 2172.55 -0.914512 -4.92583 0
M  V30 38361 H 2175.29 -3.41169 -7.98575 0
M  V30 38362 H 2175.56 -2.58295 -6.41556 0
M  V30 38363 H 2174.69 -5.02657 -6.42673 0
M  V30 38364 H 2172.04 -4.11637 -4.08885 0
M  V30 38365 H 2171.76 -2.49626 -6.61679 0
M  V30 38366 H 2170.76 -3.86566 -6.00778 0
M  V30 38367 H 2172.6 -4.29943 -7.96918 0
M  V30 38368 H 2172.67 -1.00937 -6.00374 0
M  V30 38369 P 2170.73 -6.144 -6.45285 0
M  V30 38370 O 2170.51 -7.54673 -6.86199 0
M  V30 38371 O 2169.94 -5.12391 -7.179 0
M  V30 38372 O 2170.48 -5.99236 -4.88467 0
M  V30 38373 C 2171.42 -6.60234 -3.96415 0
M  V30 38374 C 2170.69 -7.08079 -2.736 0
M  V30 38375 O 2170.48 -5.94365 -1.8368 0
M  V30 38376 C 2169.29 -7.64886 -2.9555 0
M  V30 38377 O 2168.9 -8.5406 -1.90739 0
M  V30 38378 C 2168.41 -6.4116 -2.90739 0
M  V30 38379 C 2169.12 -5.55375 -1.86963 0
M  V30 38380 N 2169.07 -4.09664 -2.15742 0
M  V30 38381 C 2168.92 -3.22231 -1.08477 0
M  V30 38382 O 2168.83 -3.68951 0.0600489 0
M  V30 38383 N 2168.87 -1.76692 -1.48799 0
M  V30 38384 C 2168.97 -1.41695 -2.57602 0
M  V30 38385 N 2168.92 -0.107296 -2.75791 0
M  V30 38386 C 2169.12 -2.29178 -3.69733 0
M  V30 38387 C 2169.17 -3.62753 -3.42653 0
M  V30 38388 H 2171.91 -7.45488 -4.45578 0
M  V30 38389 H 2172.18 -5.86232 -3.67314 0
M  V30 38390 H 2171.31 -7.84508 -2.24507 0
M  V30 38391 H 2168.66 -5.73556 -0.888715 0
M  V30 38392 H 2168.38 -5.9096 -3.88638 0
M  V30 38393 H 2167.38 -6.66053 -2.58894 0
M  V30 38394 H 2169.22 -8.16339 -3.92049 0
M  V30 38395 H 2169.29 -4.33052 -4.24913 0
M  V30 38396 H 2169.19 -1.9103 -4.71577 0
M  V30 38397 H 2168.8 0.521221 -1.95056 0
M  V30 38398 H 2169 0.286429 -3.70695 0
M  V30 38399 P 2167.35 -8.7635 -1.60911 0
M  V30 38400 O 2167.13 -10.1388 -1.11561 0
M  V30 38401 O 2166.56 -8.36503 -2.79617 0
M  V30 38402 O 2167.1 -7.71806 -0.42951 0
M  V30 38403 C 2168.04 -7.67148 0.673689 0
M  V30 38404 C 2167.31 -7.33374 1.95559 0
M  V30 38405 O 2167.1 -5.88721 2.00726 0
M  V30 38406 C 2165.91 -7.92526 2.10483 0
M  V30 38407 O 2165.52 -8.02971 3.47653 0
M  V30 38408 C 2165.03 -6.89602 1.41652 0
M  V30 38409 C 2165.74 -5.59201 1.75185 0
M  V30 38410 N 2165.69 -4.58235 0.662552 0
M  V30 38411 H 2168.53 -8.65116 0.777161 0
M  V30 38412 H 2168.8 -6.90173 0.474152 0
M  V30 38413 H 2167.93 -7.66548 2.79458 0
M  V30 38414 P 2163.97 -8.03563 3.84925 0
M  V30 38415 O 2163.75 -8.85821 5.0569 0
M  V30 38416 O 2163.18 -8.41101 2.65469 0
M  V30 38417 O 2163.72 -6.4965 4.18908 0
M  V30 38418 C 2164.66 -5.81037 5.05421 0
M  V30 38419 C 2163.93 -4.78366 5.89277 0
M  V30 38420 O 2163.72 -3.58302 5.08433 0
M  V30 38421 C 2162.53 -5.17448 6.36119 0
M  V30 38422 O 2162.14 -4.45271 7.53232 0
M  V30 38423 C 2161.65 -4.74639 5.19936 0
M  V30 38424 C 2162.36 -3.49432 4.70418 0
M  V30 38425 N 2162.31 -3.32099 3.22613 0
M  V30 38426 C 2162.39 -4.28245 2.25527 0
M  V30 38427 N 2162.32 -3.80823 1.04874 0
M  V30 38428 C 2162.17 -2.44571 1.23535 0
M  V30 38429 C 2162.04 -1.37068 0.330675 0
M  V30 38430 N 2162.03 -1.51472 -0.990824 0
M  V30 38431 N 2161.92 -0.138614 0.848756 0
M  V30 38432 C 2161.93 0.00675923 2.16999 0
M  V30 38433 N 2162.05 -0.904372 3.11122 0
M  V30 38434 C 2162.17 -2.12707 2.56212 0
M  V30 38435 H 2165.15 -6.54213 5.71376 0
M  V30 38436 H 2165.42 -5.30936 4.43503 0
M  V30 38437 H 2164.55 -4.55889 6.76652 0
M  V30 38438 H 2161.9 -2.61715 5.17932 0
M  V30 38439 H 2161.62 -5.52155 4.41878 0
M  V30 38440 H 2160.62 -4.51981 5.53374 0
M  V30 38441 H 2162.46 -6.25124 6.55234 0
M  V30 38442 H 2162.5 -5.34372 2.47488 0
M  V30 38443 H 2162.12 -2.45153 -1.4078 0
M  V30 38444 H 2161.93 -0.688422 -1.59911 0
M  V30 38445 H 2161.82 1.02584 2.52346 0
M  V30 38446 P 2160.59 -4.23843 7.83734 0
M  V30 38447 O 2160.37 -4.19407 9.29784 0
M  V30 38448 O 2159.8 -5.24426 7.09156 0
M  V30 38449 O 2160.34 -2.7935 7.20758 0
M  V30 38450 C 2161.28 -1.7299 7.50419 0
M  V30 38451 C 2160.55 -0.406376 7.57911 0
M  V30 38452 O 2160.34 0.0897726 6.21935 0
M  V30 38453 C 2159.15 -0.447224 8.1878 0
M  V30 38454 O 2158.76 0.825065 8.71101 0
M  V30 38455 C 2158.27 -0.783801 6.99623 0
M  V30 38456 C 2158.98 -0.0619192 5.85967 0
M  V30 38457 N 2158.93 -0.790462 4.56202 0
M  V30 38458 H 2161.77 -1.93423 8.4679 0
M  V30 38459 H 2162.04 -1.68852 6.70877 0
M  V30 38460 H 2161.17 0.289041 8.15388 0
M  V30 38461 H 2158.52 0.927006 5.72848 0
M  V30 38462 H 2158.24 -1.86973 6.82036 0
M  V30 38463 H 2157.24 -0.403953 7.13357 0
M  V30 38464 H 2159.08 -1.20599 8.97534 0
M  V30 38465 P 2157.21 1.17771 8.83182 0
M  V30 38466 O 2156.99 2.07206 9.98732 0
M  V30 38467 O 2156.42 -0.0743816 8.81969 0
M  V30 38468 O 2156.96 1.97652 7.47304 0
M  V30 38469 C 2157.9 3.01133 7.08783 0
M  V30 38470 C 2157.17 4.12613 6.37049 0
M  V30 38471 O 2156.96 3.72827 4.97879 0
M  V30 38472 C 2155.77 4.45085 6.88694 0
M  V30 38473 O 2155.38 5.7877 6.5624 0
M  V30 38474 C 2154.89 3.47817 6.12078 0
M  V30 38475 C 2155.6 3.39414 4.77697 0
M  V30 38476 N 2155.55 2.04615 4.15333 0
M  V30 38477 H 2158.39 3.41248 7.98759 0
M  V30 38478 H 2158.66 2.5837 6.41742 0
M  V30 38479 H 2157.79 5.02657 6.42673 0
M  V30 38480 P 2153.83 6.144 6.45285 0
M  V30 38481 O 2153.61 7.54673 6.86199 0
M  V30 38482 O 2153.04 5.12391 7.179 0
M  V30 38483 O 2153.58 5.99158 4.88404 0
M  V30 38484 C 2154.52 6.60234 3.96415 0
M  V30 38485 C 2153.79 7.08259 2.72856 0
M  V30 38486 O 2153.58 5.9427 1.83651 0
M  V30 38487 C 2152.39 7.64886 2.9555 0
M  V30 38488 O 2152 8.53963 1.90717 0
M  V30 38489 C 2151.51 6.4116 2.90739 0
M  V30 38490 C 2152.22 5.55375 1.86963 0
M  V30 38491 N 2152.17 4.09664 2.15742 0
M  V30 38492 H 2155.01 7.45574 4.45629 0
M  V30 38493 H 2155.28 5.86232 3.67314 0
M  V30 38494 H 2154.41 7.84412 2.24479 0
M  V30 38495 P 2150.45 8.7635 1.60911 0
M  V30 38496 O 2150.23 10.1388 1.11561 0
M  V30 38497 O 2149.66 8.36503 2.79617 0
M  V30 38498 O 2150.2 7.71806 0.42951 0
M  V30 38499 C 2151.14 7.67148 -0.673689 0
M  V30 38500 C 2150.41 7.33374 -1.95559 0
M  V30 38501 O 2150.2 5.88721 -2.00726 0
M  V30 38502 C 2149.01 7.92526 -2.10483 0
M  V30 38503 O 2148.62 8.02971 -3.47653 0
M  V30 38504 C 2148.13 6.89602 -1.41652 0
M  V30 38505 C 2148.84 5.59201 -1.75185 0
M  V30 38506 N 2148.79 4.58235 -0.662552 0
M  V30 38507 H 2151.63 8.65116 -0.777161 0
M  V30 38508 H 2151.9 6.90173 -0.474152 0
M  V30 38509 H 2151.03 7.66548 -2.79458 0
M  V30 38510 P 2147.07 8.03563 -3.84925 0
M  V30 38511 O 2146.85 8.85821 -5.0569 0
M  V30 38512 O 2146.28 8.41101 -2.65469 0
M  V30 38513 O 2146.82 6.4965 -4.18908 0
M  V30 38514 C 2147.76 5.81037 -5.05421 0
M  V30 38515 C 2147.03 4.78366 -5.89277 0
M  V30 38516 O 2146.82 3.58302 -5.08433 0
M  V30 38517 C 2145.63 5.17448 -6.36119 0
M  V30 38518 O 2145.24 4.45271 -7.53232 0
M  V30 38519 C 2144.75 4.74639 -5.19936 0
M  V30 38520 C 2145.46 3.49432 -4.70418 0
M  V30 38521 N 2145.41 3.31776 -3.22945 0
M  V30 38522 H 2148.25 6.54213 -5.71376 0
M  V30 38523 H 2148.52 5.30492 -4.44033 0
M  V30 38524 H 2147.65 4.55889 -6.76652 0
M  V30 38525 P 2143.69 4.23843 -7.83734 0
M  V30 38526 O 2143.47 4.19407 -9.29784 0
M  V30 38527 O 2142.9 5.24426 -7.09156 0
M  V30 38528 O 2143.44 2.79386 -7.20852 0
M  V30 38529 C 2144.38 1.7299 -7.50419 0
M  V30 38530 C 2143.65 0.41401 -7.5797 0
M  V30 38531 O 2143.44 -0.089787 -6.22035 0
M  V30 38532 C 2142.25 0.447224 -8.1878 0
M  V30 38533 O 2141.86 -0.825159 -8.71201 0
M  V30 38534 C 2141.37 0.783801 -6.99623 0
M  V30 38535 C 2142.08 0.0619192 -5.85967 0
M  V30 38536 N 2142.03 0.7859 -4.56281 0
M  V30 38537 C 2141.88 0.0359258 -3.39981 0
M  V30 38538 O 2141.79 -1.19723 -3.49038 0
M  V30 38539 N 2141.83 0.869151 -2.14025 0
M  V30 38540 C 2141.93 2.01207 -2.14363 0
M  V30 38541 N 2141.88 2.58978 -0.954287 0
M  V30 38542 C 2142.08 2.80817 -3.32215 0
M  V30 38543 C 2142.13 2.13785 -4.50884 0
M  V30 38544 H 2144.87 1.93401 -8.46693 0
M  V30 38545 H 2145.14 1.68181 -6.71046 0
M  V30 38546 H 2144.27 -0.289076 -8.15488 0
M  V30 38547 H 2141.62 -0.927166 -5.72947 0
M  V30 38548 H 2141.34 1.87 -6.82132 0
M  V30 38549 H 2140.34 0.404009 -7.13457 0
M  V30 38550 H 2142.18 1.20599 -8.97534 0
M  V30 38551 H 2142.25 2.70295 -5.43162 0
M  V30 38552 H 2142.15 3.89465 -3.27406 0
M  V30 38553 H 2141.76 2.01616 -0.107046 0
M  V30 38554 H 2141.96 3.61403 -0.873101 0
M  V30 38555 P 2140.31 -1.17771 -8.83182 0
M  V30 38556 O 2140.09 -2.07206 -9.98732 0
M  V30 38557 O 2139.52 0.0743816 -8.81969 0
M  V30 38558 O 2140.06 -1.97652 -7.47304 0
M  V30 38559 C 2141 -3.01133 -7.08783 0
M  V30 38560 C 2140.27 -4.12613 -6.37049 0
M  V30 38561 O 2140.06 -3.72827 -4.97879 0
M  V30 38562 C 2138.87 -4.45085 -6.88694 0
M  V30 38563 O 2138.48 -5.7877 -6.5624 0
M  V30 38564 C 2137.99 -3.47817 -6.12078 0
M  V30 38565 C 2138.7 -3.39414 -4.77697 0
M  V30 38566 N 2138.65 -2.04199 -4.15538 0
M  V30 38567 H 2141.49 -3.41248 -7.98759 0
M  V30 38568 H 2141.76 -2.57728 -6.42 0
M  V30 38569 H 2140.89 -5.02657 -6.42673 0
M  V30 38570 H 2138.24 -4.11708 -4.08956 0
M  V30 38571 H 2137.96 -2.49626 -6.61679 0
M  V30 38572 H 2136.96 -3.8662 -6.00862 0
M  V30 38573 H 2138.8 -4.29991 -7.97006 0
M  V30 38574 P 2136.93 -6.144 -6.45285 0
M  V30 38575 O 2136.71 -7.54673 -6.86199 0
M  V30 38576 O 2136.14 -5.12391 -7.179 0
M  V30 38577 O 2136.68 -5.99158 -4.88404 0
M  V30 38578 C 2137.62 -6.60234 -3.96415 0
M  V30 38579 C 2136.89 -7.08259 -2.72856 0
M  V30 38580 O 2136.68 -5.9427 -1.83651 0
M  V30 38581 C 2135.49 -7.64886 -2.9555 0
M  V30 38582 O 2135.1 -8.53963 -1.90717 0
M  V30 38583 C 2134.61 -6.4116 -2.90739 0
M  V30 38584 C 2135.32 -5.55375 -1.86963 0
M  V30 38585 N 2135.27 -4.09664 -2.15742 0
M  V30 38586 H 2138.11 -7.45574 -4.45629 0
M  V30 38587 H 2138.38 -5.86232 -3.67314 0
M  V30 38588 H 2137.51 -7.84412 -2.24479 0
M  V30 38589 P 2133.55 -8.7635 -1.60911 0
M  V30 38590 O 2133.33 -10.1388 -1.11561 0
M  V30 38591 O 2132.76 -8.36503 -2.79617 0
M  V30 38592 O 2133.3 -7.71906 -0.429565 0
M  V30 38593 C 2134.24 -7.67148 0.673689 0
M  V30 38594 C 2133.51 -7.33666 1.94851 0
M  V30 38595 O 2133.3 -5.88816 2.00759 0
M  V30 38596 C 2132.11 -7.92526 2.10483 0
M  V30 38597 O 2131.72 -8.03063 3.47693 0
M  V30 38598 C 2131.23 -6.89602 1.41652 0
M  V30 38599 C 2131.94 -5.59201 1.75185 0
M  V30 38600 N 2131.89 -4.58235 0.662552 0
M  V30 38601 C 2131.74 -3.24451 1.01643 0
M  V30 38602 O 2131.65 -2.94958 2.21722 0
M  V30 38603 N 2131.69 -2.30408 -0.165238 0
M  V30 38604 C 2131.79 -2.66048 -1.25118 0
M  V30 38605 N 2131.74 -1.70787 -2.16813 0
M  V30 38606 C 2131.94 -4.02732 -1.64413 0
M  V30 38607 C 2131.99 -4.9488 -0.63991 0
M  V30 38608 H 2134.73 -8.65017 0.777072 0
M  V30 38609 H 2135 -6.90173 0.474152 0
M  V30 38610 H 2134.13 -7.66642 2.79492 0
M  V30 38611 H 2131.48 -5.16254 2.65229 0
M  V30 38612 H 2131.2 -7.06532 0.329431 0
M  V30 38613 H 2130.2 -6.91023 1.82047 0
M  V30 38614 H 2132.04 -8.90873 1.62657 0
M  V30 38615 H 2132.11 -6.00104 -0.892197 0
M  V30 38616 H 2132.01 -4.31733 -2.69229 0
M  V30 38617 H 2131.62 -0.724835 -1.8844 0
M  V30 38618 H 2131.82 -1.94716 -3.16734 0
M  V30 38619 P 2130.17 -8.03563 3.84925 0
M  V30 38620 O 2129.95 -8.85821 5.0569 0
M  V30 38621 O 2129.38 -8.41101 2.65469 0
M  V30 38622 O 2129.92 -6.4965 4.18908 0
M  V30 38623 C 2130.86 -5.80886 5.05289 0
M  V30 38624 C 2130.13 -4.78366 5.89277 0
M  V30 38625 O 2129.92 -3.58302 5.08433 0
M  V30 38626 C 2128.73 -5.16748 6.36559 0
M  V30 38627 O 2128.34 -4.45271 7.53232 0
M  V30 38628 C 2127.85 -4.74572 5.19863 0
M  V30 38629 C 2128.56 -3.49373 4.70338 0
M  V30 38630 N 2128.51 -3.31704 3.22876 0
M  V30 38631 C 2128.36 -2.03326 2.74871 0
M  V30 38632 O 2128.27 -1.06486 3.48076 0
M  V30 38633 N 2128.32 -1.91838 1.37456 0
M  V30 38634 C 2128.41 -2.94295 0.462035 0
M  V30 38635 O 2128.36 -2.71763 -0.752928 0
M  V30 38636 C 2128.56 -4.25064 1.05249 0
M  V30 38637 C 2128.67 -5.39815 0.095697 0
M  V30 38638 C 2128.61 -4.40214 2.39192 0
M  V30 38639 H 2131.35 -6.54063 5.71245 0
M  V30 38640 H 2131.62 -5.30339 4.43905 0
M  V30 38641 H 2130.75 -4.55889 6.76652 0
M  V30 38642 H 2128.1 -2.6167 5.17842 0
M  V30 38643 H 2127.82 -5.52155 4.41878 0
M  V30 38644 H 2126.82 -4.51918 5.53297 0
M  V30 38645 H 2128.66 -6.25055 6.55162 0
M  V30 38646 H 2128.73 -5.39798 2.81523 0
M  V30 38647 H 2127.7 -5.91593 0.0279582 0
M  V30 38648 H 2129.44 -6.10038 0.450573 0
M  V30 38649 H 2128.95 -5.02007 -0.89937 0
M  V30 38650 H 2128.21 -0.995326 1.00435 0
M  V30 38651 P 2126.79 -4.23843 7.83734 0
M  V30 38652 O 2126.57 -4.19407 9.29784 0
M  V30 38653 O 2126 -5.24426 7.09156 0
M  V30 38654 O 2126.54 -2.7935 7.20758 0
M  V30 38655 C 2127.48 -1.7299 7.50419 0
M  V30 38656 C 2126.75 -0.406376 7.57911 0
M  V30 38657 O 2126.54 0.0897726 6.21935 0
M  V30 38658 C 2125.35 -0.447224 8.1878 0
M  V30 38659 O 2124.96 0.825065 8.71101 0
M  V30 38660 C 2124.47 -0.783801 6.99623 0
M  V30 38661 C 2125.18 -0.0619192 5.85967 0
M  V30 38662 N 2125.13 -0.7859 4.56281 0
M  V30 38663 H 2127.97 -1.93423 8.4679 0
M  V30 38664 H 2128.24 -1.68181 6.71046 0
M  V30 38665 H 2127.37 0.289041 8.15388 0
M  V30 38666 P 2123.41 1.17771 8.83182 0
M  V30 38667 O 2123.19 2.07206 9.98732 0
M  V30 38668 O 2122.62 -0.0743816 8.81969 0
M  V30 38669 O 2123.16 1.97652 7.47304 0
M  V30 38670 C 2124.1 3.01055 7.08599 0
M  V30 38671 C 2123.37 4.12613 6.37049 0
M  V30 38672 O 2123.16 3.72827 4.97879 0
M  V30 38673 C 2121.97 4.45719 6.88164 0
M  V30 38674 O 2121.58 5.7877 6.5624 0
M  V30 38675 C 2121.09 3.47768 6.11991 0
M  V30 38676 C 2121.8 3.39356 4.77615 0
M  V30 38677 N 2121.75 2.04571 4.15244 0
M  V30 38678 C 2121.6 1.98587 2.78314 0
M  V30 38679 O 2121.51 2.98134 2.08835 0
M  V30 38680 N 2121.56 0.714467 2.24925 0
M  V30 38681 C 2121.65 -0.470001 2.94169 0
M  V30 38682 C 2121.8 -0.312541 4.36783 0
M  V30 38683 C 2121.85 0.914512 4.92583 0
M  V30 38684 H 2124.59 3.41169 7.98575 0
M  V30 38685 H 2124.86 2.58295 6.41556 0
M  V30 38686 H 2123.99 5.02657 6.42673 0
M  V30 38687 H 2121.34 4.11637 4.08885 0
M  V30 38688 H 2121.06 2.49626 6.61679 0
M  V30 38689 H 2120.06 3.86566 6.00778 0
M  V30 38690 H 2121.9 4.29943 7.96918 0
M  V30 38691 H 2121.97 1.00937 6.00374 0
M  V30 38692 P 2120.03 6.144 6.45285 0
M  V30 38693 O 2119.81 7.54673 6.86199 0
M  V30 38694 O 2119.24 5.12391 7.179 0
M  V30 38695 O 2119.78 5.99158 4.88404 0
M  V30 38696 C 2120.72 6.60234 3.96415 0
M  V30 38697 C 2119.99 7.08259 2.72856 0
M  V30 38698 O 2119.78 5.9427 1.83651 0
M  V30 38699 C 2118.59 7.64886 2.9555 0
M  V30 38700 O 2118.2 8.53963 1.90717 0
M  V30 38701 C 2117.71 6.4116 2.90739 0
M  V30 38702 C 2118.42 5.55375 1.86963 0
M  V30 38703 N 2118.37 4.09664 2.15742 0
M  V30 38704 H 2121.21 7.45574 4.45629 0
M  V30 38705 H 2121.48 5.86232 3.67314 0
M  V30 38706 H 2120.61 7.84412 2.24479 0
M  V30 38707 P 2116.65 8.7635 1.60911 0
M  V30 38708 O 2116.43 10.1388 1.11561 0
M  V30 38709 O 2115.86 8.36503 2.79617 0
M  V30 38710 O 2116.4 7.71806 0.42951 0
M  V30 38711 C 2117.34 7.67148 -0.673689 0
M  V30 38712 C 2116.61 7.33374 -1.95559 0
M  V30 38713 O 2116.4 5.88721 -2.00726 0
M  V30 38714 C 2115.21 7.92526 -2.10483 0
M  V30 38715 O 2114.82 8.02971 -3.47653 0
M  V30 38716 C 2114.33 6.89602 -1.41652 0
M  V30 38717 C 2115.04 5.59201 -1.75185 0
M  V30 38718 N 2114.99 4.58235 -0.662552 0
M  V30 38719 H 2117.83 8.65116 -0.777161 0
M  V30 38720 H 2118.1 6.90173 -0.474152 0
M  V30 38721 H 2117.23 7.66548 -2.79458 0
M  V30 38722 P 2113.27 8.03563 -3.84925 0
M  V30 38723 O 2113.05 8.85821 -5.0569 0
M  V30 38724 O 2112.48 8.41101 -2.65469 0
M  V30 38725 O 2113.02 6.4965 -4.18908 0
M  V30 38726 C 2113.96 5.81037 -5.05421 0
M  V30 38727 C 2113.23 4.78366 -5.89277 0
M  V30 38728 O 2113.02 3.58302 -5.08433 0
M  V30 38729 C 2111.83 5.17448 -6.36119 0
M  V30 38730 O 2111.44 4.45271 -7.53232 0
M  V30 38731 C 2110.95 4.74639 -5.19936 0
M  V30 38732 C 2111.66 3.49432 -4.70418 0
M  V30 38733 N 2111.61 3.31776 -3.22945 0
M  V30 38734 C 2111.69 4.27147 -2.23315 0
M  V30 38735 N 2111.61 3.78447 -1.02186 0
M  V30 38736 C 2111.47 2.41001 -1.21732 0
M  V30 38737 C 2111.34 1.36111 -0.27694 0
M  V30 38738 O 2111.32 1.42065 0.951767 0
M  V30 38739 N 2111.22 0.113683 -0.912949 0
M  V30 38740 C 2111.22 -0.0846396 -2.27943 0
M  V30 38741 N 2111.09 -1.34737 -2.6916 0
M  V30 38742 N 2111.35 0.902521 -3.16379 0
M  V30 38743 C 2111.47 2.11937 -2.56849 0
M  V30 38744 H 2114.45 6.54213 -5.71376 0
M  V30 38745 H 2114.72 5.30492 -4.44033 0
M  V30 38746 H 2113.85 4.55889 -6.76652 0
M  V30 38747 H 2111.2 2.6176 -5.18021 0
M  V30 38748 H 2110.92 5.52233 -4.41941 0
M  V30 38749 H 2109.92 4.52045 -5.53452 0
M  V30 38750 H 2111.76 6.25193 -6.55307 0
M  V30 38751 H 2111.81 5.3351 -2.43857 0
M  V30 38752 H 2111.13 -0.69331 -0.330371 0
M  V30 38753 H 2111.09 -1.56433 -3.6988 0
M  V30 38754 H 2110.99 -2.10701 -2.00133 0
M  V30 38755 P 2109.89 4.23843 -7.83734 0
M  V30 38756 O 2109.67 4.19407 -9.29784 0
M  V30 38757 O 2109.1 5.24426 -7.09156 0
M  V30 38758 O 2109.64 2.7935 -7.20758 0
M  V30 38759 C 2110.58 1.7299 -7.50419 0
M  V30 38760 C 2109.85 0.406376 -7.57911 0
M  V30 38761 O 2109.64 -0.0897726 -6.21935 0
M  V30 38762 C 2108.45 0.447224 -8.1878 0
M  V30 38763 O 2108.06 -0.825065 -8.71101 0
M  V30 38764 C 2107.57 0.783801 -6.99623 0
M  V30 38765 C 2108.28 0.0619192 -5.85967 0
M  V30 38766 N 2108.23 0.790462 -4.56202 0
M  V30 38767 C 2108.31 2.13895 -4.34171 0
M  V30 38768 N 2108.24 2.46449 -3.08687 0
M  V30 38769 C 2108.09 1.2525 -2.43697 0
M  V30 38770 C 2107.96 0.914535 -1.07318 0
M  V30 38771 N 2107.95 1.80782 -0.0887348 0
M  V30 38772 N 2107.84 -0.386745 -0.768133 0
M  V30 38773 C 2107.85 -1.28096 -1.75159 0
M  V30 38774 N 2107.97 -1.09708 -3.04861 0
M  V30 38775 C 2108.09 0.214857 -3.32306 0
M  V30 38776 H 2111.07 1.93423 -8.4679 0
M  V30 38777 H 2111.34 1.68852 -6.70877 0
M  V30 38778 H 2110.47 -0.289041 -8.15388 0
M  V30 38779 H 2107.82 -0.927006 -5.72848 0
M  V30 38780 H 2107.54 1.86973 -6.82036 0
M  V30 38781 H 2106.54 0.403953 -7.13357 0
M  V30 38782 H 2108.38 1.20599 -8.97534 0
M  V30 38783 H 2108.42 2.86846 -5.14318 0
M  V30 38784 H 2108.04 2.81082 -0.302037 0
M  V30 38785 H 2107.85 1.49688 0.889064 0
M  V30 38786 H 2107.74 -2.31317 -1.43855 0
M  V30 38787 P 2106.51 -1.17771 -8.83182 0
M  V30 38788 O 2106.29 -2.07206 -9.98732 0
M  V30 38789 O 2105.72 0.0743816 -8.81969 0
M  V30 38790 O 2106.26 -1.97652 -7.47304 0
M  V30 38791 C 2107.2 -3.01133 -7.08783 0
M  V30 38792 C 2106.47 -4.12613 -6.37049 0
M  V30 38793 O 2106.26 -3.72827 -4.97879 0
M  V30 38794 C 2105.07 -4.45085 -6.88694 0
M  V30 38795 O 2104.68 -5.7877 -6.5624 0
M  V30 38796 C 2104.19 -3.47817 -6.12078 0
M  V30 38797 C 2104.9 -3.39414 -4.77697 0
M  V30 38798 N 2104.85 -2.04615 -4.15333 0
M  V30 38799 H 2107.69 -3.41248 -7.98759 0
M  V30 38800 H 2107.96 -2.5837 -6.41742 0
M  V30 38801 H 2107.09 -5.02657 -6.42673 0
M  V30 38802 P 2103.13 -6.144 -6.45285 0
M  V30 38803 O 2102.91 -7.54673 -6.86199 0
M  V30 38804 O 2102.34 -5.12391 -7.179 0
M  V30 38805 O 2102.88 -5.99158 -4.88404 0
M  V30 38806 C 2103.82 -6.60234 -3.96415 0
M  V30 38807 C 2103.09 -7.08259 -2.72856 0
M  V30 38808 O 2102.88 -5.9427 -1.83651 0
M  V30 38809 C 2101.69 -7.64886 -2.9555 0
M  V30 38810 O 2101.3 -8.53963 -1.90717 0
M  V30 38811 C 2100.81 -6.4116 -2.90739 0
M  V30 38812 C 2101.52 -5.55375 -1.86963 0
M  V30 38813 N 2101.47 -4.09664 -2.15742 0
M  V30 38814 H 2104.31 -7.45574 -4.45629 0
M  V30 38815 H 2104.58 -5.86232 -3.67314 0
M  V30 38816 H 2103.71 -7.84412 -2.24479 0
M  V30 38817 P 2099.75 -8.7635 -1.60911 0
M  V30 38818 O 2099.53 -10.1388 -1.11561 0
M  V30 38819 O 2098.96 -8.36503 -2.79617 0
M  V30 38820 O 2099.5 -7.71806 -0.42951 0
M  V30 38821 C 2100.44 -7.66948 0.673514 0
M  V30 38822 C 2099.71 -7.33374 1.95559 0
M  V30 38823 O 2099.5 -5.88721 2.00726 0
M  V30 38824 C 2098.31 -7.92218 2.1125 0
M  V30 38825 O 2097.92 -8.02971 3.47653 0
M  V30 38826 C 2097.43 -6.89504 1.41631 0
M  V30 38827 C 2098.14 -5.59106 1.75155 0
M  V30 38828 N 2098.09 -4.58136 0.662409 0
M  V30 38829 C 2097.94 -3.26059 1.02863 0
M  V30 38830 O 2097.85 -2.90743 2.19009 0
M  V30 38831 N 2097.9 -2.35995 -0.0155585 0
M  V30 38832 C 2097.99 -2.65248 -1.35603 0
M  V30 38833 C 2098.14 -4.05747 -1.64698 0
M  V30 38834 C 2098.19 -4.96734 -0.652411 0
M  V30 38835 H 2100.93 -8.64917 0.776982 0
M  V30 38836 H 2101.2 -6.89974 0.474015 0
M  V30 38837 H 2100.33 -7.66548 2.79458 0
M  V30 38838 H 2097.68 -5.16076 2.65138 0
M  V30 38839 H 2097.4 -7.06433 0.329384 0
M  V30 38840 H 2096.4 -6.90829 1.81996 0
M  V30 38841 H 2098.24 -8.90774 1.62639 0
M  V30 38842 H 2098.31 -6.02181 -0.895285 0
M  V30 38843 P 2096.37 -8.03563 3.84925 0
M  V30 38844 O 2096.15 -8.85821 5.0569 0
M  V30 38845 O 2095.58 -8.41101 2.65469 0
M  V30 38846 O 2096.12 -6.4965 4.18908 0
M  V30 38847 C 2097.06 -5.81037 5.05421 0
M  V30 38848 C 2096.33 -4.78366 5.89277 0
M  V30 38849 O 2096.12 -3.58302 5.08433 0
M  V30 38850 C 2094.93 -5.17448 6.36119 0
M  V30 38851 O 2094.54 -4.45271 7.53232 0
M  V30 38852 C 2094.05 -4.74639 5.19936 0
M  V30 38853 C 2094.76 -3.49432 4.70418 0
M  V30 38854 N 2094.71 -3.31776 3.22945 0
M  V30 38855 H 2097.55 -6.54213 5.71376 0
M  V30 38856 H 2097.82 -5.30492 4.44033 0
M  V30 38857 H 2096.95 -4.55889 6.76652 0
M  V30 38858 P 2092.99 -4.23843 7.83734 0
M  V30 38859 O 2092.77 -4.19407 9.29784 0
M  V30 38860 O 2092.2 -5.24426 7.09156 0
M  V30 38861 O 2092.74 -2.7935 7.20758 0
M  V30 38862 C 2093.68 -1.7299 7.50419 0
M  V30 38863 C 2092.95 -0.406376 7.57911 0
M  V30 38864 O 2092.74 0.0897726 6.21935 0
M  V30 38865 C 2091.55 -0.447224 8.1878 0
M  V30 38866 O 2091.16 0.825065 8.71101 0
M  V30 38867 C 2090.67 -0.783801 6.99623 0
M  V30 38868 C 2091.38 -0.0619192 5.85967 0
M  V30 38869 N 2091.33 -0.7859 4.56281 0
M  V30 38870 H 2094.17 -1.93423 8.4679 0
M  V30 38871 H 2094.44 -1.68181 6.71046 0
M  V30 38872 H 2093.57 0.289041 8.15388 0
M  V30 38873 P 2089.61 1.17771 8.83182 0
M  V30 38874 O 2089.39 2.07206 9.98732 0
M  V30 38875 O 2088.82 -0.0743816 8.81969 0
M  V30 38876 O 2089.36 1.97652 7.47304 0
M  V30 38877 C 2090.3 3.01133 7.08783 0
M  V30 38878 C 2089.57 4.12613 6.37049 0
M  V30 38879 O 2089.36 3.72827 4.97879 0
M  V30 38880 C 2088.17 4.45085 6.88694 0
M  V30 38881 O 2087.78 5.7877 6.5624 0
M  V30 38882 C 2087.29 3.47817 6.12078 0
M  V30 38883 C 2088 3.39414 4.77697 0
M  V30 38884 N 2087.95 2.04615 4.15333 0
M  V30 38885 H 2090.79 3.41248 7.98759 0
M  V30 38886 H 2091.06 2.5837 6.41742 0
M  V30 38887 H 2090.19 5.02657 6.42673 0
M  V30 38888 P 2086.23 6.144 6.45285 0
M  V30 38889 O 2086.01 7.54673 6.86199 0
M  V30 38890 O 2085.44 5.12391 7.179 0
M  V30 38891 O 2085.98 5.99236 4.88467 0
M  V30 38892 C 2086.92 6.60234 3.96415 0
M  V30 38893 C 2086.19 7.08079 2.736 0
M  V30 38894 O 2085.98 5.94365 1.8368 0
M  V30 38895 C 2084.79 7.64886 2.9555 0
M  V30 38896 O 2084.4 8.5406 1.90739 0
M  V30 38897 C 2083.91 6.4116 2.90739 0
M  V30 38898 C 2084.62 5.55375 1.86963 0
M  V30 38899 N 2084.57 4.09664 2.15742 0
M  V30 38900 C 2084.42 3.22231 1.08477 0
M  V30 38901 O 2084.33 3.68951 -0.0600489 0
M  V30 38902 N 2084.37 1.76692 1.48799 0
M  V30 38903 C 2084.47 1.41695 2.57602 0
M  V30 38904 N 2084.42 0.107296 2.75791 0
M  V30 38905 C 2084.62 2.29178 3.69733 0
M  V30 38906 C 2084.67 3.62753 3.42653 0
M  V30 38907 H 2087.41 7.45488 4.45578 0
M  V30 38908 H 2087.68 5.86232 3.67314 0
M  V30 38909 H 2086.81 7.84508 2.24507 0
M  V30 38910 H 2084.16 5.73556 0.888715 0
M  V30 38911 H 2083.88 5.9096 3.88638 0
M  V30 38912 H 2082.88 6.66053 2.58894 0
M  V30 38913 H 2084.72 8.16339 3.92049 0
M  V30 38914 H 2084.79 4.33052 4.24913 0
M  V30 38915 H 2084.69 1.9103 4.71577 0
M  V30 38916 H 2084.3 -0.521221 1.95056 0
M  V30 38917 H 2084.5 -0.286429 3.70695 0
M  V30 38918 P 2082.85 8.7635 1.60911 0
M  V30 38919 O 2082.63 10.1388 1.11561 0
M  V30 38920 O 2082.06 8.36503 2.79617 0
M  V30 38921 O 2082.6 7.71806 0.42951 0
M  V30 38922 C 2083.54 7.67148 -0.673689 0
M  V30 38923 C 2082.81 7.33374 -1.95559 0
M  V30 38924 O 2082.6 5.88721 -2.00726 0
M  V30 38925 C 2081.41 7.92526 -2.10483 0
M  V30 38926 O 2081.02 8.02971 -3.47653 0
M  V30 38927 C 2080.53 6.89602 -1.41652 0
M  V30 38928 C 2081.24 5.59201 -1.75185 0
M  V30 38929 N 2081.19 4.58301 -0.657969 0
M  V30 38930 H 2084.03 8.65116 -0.777161 0
M  V30 38931 H 2084.3 6.9022 -0.46725 0
M  V30 38932 H 2083.43 7.66548 -2.79458 0
M  V30 38933 H 2080.78 5.16165 -2.65183 0
M  V30 38934 H 2080.5 7.06433 -0.329384 0
M  V30 38935 H 2079.5 6.90926 -1.82021 0
M  V30 38936 H 2081.34 8.90873 -1.62657 0
M  V30 38937 P 2079.47 8.03563 -3.84925 0
M  V30 38938 O 2079.25 8.85821 -5.0569 0
M  V30 38939 O 2078.68 8.41101 -2.65469 0
M  V30 38940 O 2079.22 6.4965 -4.18908 0
M  V30 38941 C 2080.16 5.81037 -5.05421 0
M  V30 38942 C 2079.43 4.78366 -5.89277 0
M  V30 38943 O 2079.22 3.58302 -5.08433 0
M  V30 38944 C 2078.03 5.17448 -6.36119 0
M  V30 38945 O 2077.64 4.45271 -7.53232 0
M  V30 38946 C 2077.15 4.74639 -5.19936 0
M  V30 38947 C 2077.86 3.49432 -4.70418 0
M  V30 38948 N 2077.81 3.31776 -3.22945 0
M  V30 38949 C 2077.89 4.27147 -2.23315 0
M  V30 38950 N 2077.81 3.78447 -1.02186 0
M  V30 38951 C 2077.67 2.41001 -1.21732 0
M  V30 38952 C 2077.54 1.36111 -0.27694 0
M  V30 38953 N 2077.42 0.113683 -0.912949 0
M  V30 38954 C 2077.42 -0.0846396 -2.27943 0
M  V30 38955 N 2077.29 -1.34737 -2.6916 0
M  V30 38956 N 2077.55 0.902521 -3.16379 0
M  V30 38957 C 2077.67 2.11937 -2.56849 0
M  V30 38958 H 2080.65 6.54213 -5.71376 0
M  V30 38959 H 2080.92 5.30492 -4.44033 0
M  V30 38960 H 2080.05 4.55889 -6.76652 0
M  V30 38961 P 2076.09 4.23843 -7.83734 0
M  V30 38962 O 2075.87 4.19407 -9.29784 0
M  V30 38963 O 2075.3 5.24426 -7.09156 0
M  V30 38964 O 2075.84 2.7935 -7.20758 0
M  V30 38965 C 2076.78 1.7299 -7.50419 0
M  V30 38966 C 2076.05 0.406376 -7.57911 0
M  V30 38967 O 2075.84 -0.0897726 -6.21935 0
M  V30 38968 C 2074.65 0.447224 -8.1878 0
M  V30 38969 O 2074.26 -0.825065 -8.71101 0
M  V30 38970 C 2073.77 0.783801 -6.99623 0
M  V30 38971 C 2074.48 0.0619192 -5.85967 0
M  V30 38972 N 2074.43 0.7859 -4.56281 0
M  V30 38973 H 2077.27 1.93423 -8.4679 0
M  V30 38974 H 2077.54 1.68181 -6.71046 0
M  V30 38975 H 2076.67 -0.289041 -8.15388 0
M  V30 38976 P 2072.71 -1.17771 -8.83182 0
M  V30 38977 O 2072.49 -2.07206 -9.98732 0
M  V30 38978 O 2071.92 0.0743816 -8.81969 0
M  V30 38979 O 2072.46 -1.97652 -7.47304 0
M  V30 38980 C 2073.4 -3.01133 -7.08783 0
M  V30 38981 C 2072.67 -4.12613 -6.37049 0
M  V30 38982 O 2072.46 -3.72827 -4.97879 0
M  V30 38983 C 2071.27 -4.45085 -6.88694 0
M  V30 38984 O 2070.88 -5.7877 -6.5624 0
M  V30 38985 C 2070.39 -3.47817 -6.12078 0
M  V30 38986 C 2071.1 -3.39414 -4.77697 0
M  V30 38987 N 2071.05 -2.04199 -4.15538 0
M  V30 38988 C 2071.13 -0.821545 -4.76977 0
M  V30 38989 N 2071.06 0.1794 -3.94592 0
M  V30 38990 C 2070.91 -0.419121 -2.70776 0
M  V30 38991 C 2070.78 0.109072 -1.40577 0
M  V30 38992 N 2070.77 1.4104 -1.1344 0
M  V30 38993 N 2070.66 -0.764381 -0.39411 0
M  V30 38994 C 2070.67 -2.06587 -0.664135 0
M  V30 38995 N 2070.79 -2.67948 -1.82153 0
M  V30 38996 C 2070.91 -1.77942 -2.8147 0
M  V30 38997 H 2073.89 -3.41248 -7.98759 0
M  V30 38998 H 2074.16 -2.57728 -6.42 0
M  V30 38999 H 2073.29 -5.02657 -6.42673 0
M  V30 39000 H 2070.64 -4.11708 -4.08956 0
M  V30 39001 H 2070.36 -2.49626 -6.61679 0
M  V30 39002 H 2069.36 -3.8662 -6.00862 0
M  V30 39003 H 2071.2 -4.29991 -7.97006 0
M  V30 39004 H 2071.24 -0.702451 -5.84696 0
M  V30 39005 H 2070.86 2.09647 -1.89651 0
M  V30 39006 H 2070.67 1.73358 -0.160575 0
M  V30 39007 H 2070.56 -2.71695 0.195838 0
M  V30 39008 P 2069.33 -6.144 -6.45285 0
M  V30 39009 O 2069.11 -7.54673 -6.86199 0
M  V30 39010 O 2068.54 -5.12391 -7.179 0
M  V30 39011 O 2069.08 -5.99158 -4.88404 0
M  V30 39012 C 2070.02 -6.60062 -3.96313 0
M  V30 39013 C 2069.29 -7.08259 -2.72856 0
M  V30 39014 O 2069.08 -5.9427 -1.83651 0
M  V30 39015 C 2067.89 -7.65087 -2.94749 0
M  V30 39016 O 2067.5 -8.53963 -1.90717 0
M  V30 39017 C 2067.01 -6.41069 -2.90698 0
M  V30 39018 C 2067.72 -5.5528 -1.86931 0
M  V30 39019 N 2067.67 -4.09575 -2.15696 0
M  V30 39020 C 2067.52 -3.24249 -1.08435 0
M  V30 39021 O 2067.43 -3.63946 0.0628747 0
M  V30 39022 N 2067.48 -1.90009 -1.39973 0
M  V30 39023 C 2067.57 -1.34884 -2.65614 0
M  V30 39024 C 2067.72 -2.3145 -3.71736 0
M  V30 39025 C 2067.77 -3.63518 -3.44754 0
M  V30 39026 H 2070.51 -7.45402 -4.45526 0
M  V30 39027 H 2070.78 -5.86062 -3.67208 0
M  V30 39028 H 2069.91 -7.84412 -2.24479 0
M  V30 39029 H 2067.26 -5.73358 -0.888409 0
M  V30 39030 H 2066.98 -5.90877 -3.88583 0
M  V30 39031 H 2065.98 -6.65867 -2.58821 0
M  V30 39032 H 2067.82 -8.16248 -3.92006 0
M  V30 39033 H 2067.89 -4.34551 -4.26383 0
M  V30 39034 P 2065.95 -8.7635 -1.60911 0
M  V30 39035 O 2065.73 -10.1388 -1.11561 0
M  V30 39036 O 2065.16 -8.36503 -2.79617 0
M  V30 39037 O 2065.7 -7.71806 -0.42951 0
M  V30 39038 C 2066.64 -7.67148 0.673689 0
M  V30 39039 C 2065.91 -7.33374 1.95559 0
M  V30 39040 O 2065.7 -5.88721 2.00726 0
M  V30 39041 C 2064.51 -7.92526 2.10483 0
M  V30 39042 O 2064.12 -8.02971 3.47653 0
M  V30 39043 C 2063.63 -6.89602 1.41652 0
M  V30 39044 C 2064.34 -5.59201 1.75185 0
M  V30 39045 N 2064.29 -4.58301 0.657969 0
M  V30 39046 C 2064.37 -4.79019 -0.692603 0
M  V30 39047 N 2064.3 -3.69736 -1.38998 0
M  V30 39048 C 2064.15 -2.70474 -0.438135 0
M  V30 39049 C 2064.02 -1.30327 -0.538142 0
M  V30 39050 N 2064.01 -0.64304 -1.69192 0
M  V30 39051 N 2063.9 -0.611027 0.605183 0
M  V30 39052 C 2063.91 -1.27002 1.75953 0
M  V30 39053 N 2064.03 -2.56038 1.98546 0
M  V30 39054 C 2064.15 -3.22681 0.822541 0
M  V30 39055 H 2067.13 -8.65116 0.777161 0
M  V30 39056 H 2067.4 -6.9022 0.46725 0
M  V30 39057 H 2066.53 -7.66548 2.79458 0
M  V30 39058 H 2063.88 -5.16165 2.65183 0
M  V30 39059 H 2063.6 -7.06433 0.329384 0
M  V30 39060 H 2062.6 -6.90926 1.82021 0
M  V30 39061 H 2064.44 -8.90873 1.62657 0
M  V30 39062 H 2064.48 -5.77785 -1.13874 0
M  V30 39063 H 2064.1 -1.15585 -2.57991 0
M  V30 39064 H 2063.91 0.382989 -1.69835 0
M  V30 39065 H 2063.8 -0.653331 2.64449 0
M  V30 39066 P 2062.57 -8.03563 3.84925 0
M  V30 39067 O 2062.35 -8.85821 5.0569 0
M  V30 39068 O 2061.78 -8.41101 2.65469 0
M  V30 39069 O 2062.32 -6.4965 4.18908 0
M  V30 39070 C 2063.26 -5.81037 5.05421 0
M  V30 39071 C 2062.53 -4.78366 5.89277 0
M  V30 39072 O 2062.32 -3.58302 5.08433 0
M  V30 39073 C 2061.13 -5.17448 6.36119 0
M  V30 39074 O 2060.74 -4.45271 7.53232 0
M  V30 39075 C 2060.25 -4.74639 5.19936 0
M  V30 39076 C 2060.96 -3.49432 4.70418 0
M  V30 39077 N 2060.91 -3.31776 3.22945 0
M  V30 39078 H 2063.75 -6.54213 5.71376 0
M  V30 39079 H 2064.02 -5.30492 4.44033 0
M  V30 39080 H 2063.15 -4.55889 6.76652 0
M  V30 39081 P 2059.19 -4.23843 7.83734 0
M  V30 39082 O 2058.97 -4.19407 9.29784 0
M  V30 39083 O 2058.4 -5.24426 7.09156 0
M  V30 39084 O 2058.94 -2.7935 7.20758 0
M  V30 39085 C 2059.88 -1.7299 7.50419 0
M  V30 39086 C 2059.15 -0.406376 7.57911 0
M  V30 39087 O 2058.94 0.0897726 6.21935 0
M  V30 39088 C 2057.75 -0.447224 8.1878 0
M  V30 39089 O 2057.36 0.825065 8.71101 0
M  V30 39090 C 2056.87 -0.783801 6.99623 0
M  V30 39091 C 2057.58 -0.0619192 5.85967 0
M  V30 39092 N 2057.53 -0.7859 4.56281 0
M  V30 39093 H 2060.37 -1.93423 8.4679 0
M  V30 39094 H 2060.64 -1.68181 6.71046 0
M  V30 39095 H 2059.77 0.289041 8.15388 0
M  V30 39096 P 2055.81 1.17771 8.83182 0
M  V30 39097 O 2055.59 2.07206 9.98732 0
M  V30 39098 O 2055.02 -0.0743816 8.81969 0
M  V30 39099 O 2055.56 1.97652 7.47304 0
M  V30 39100 C 2056.5 3.01133 7.08783 0
M  V30 39101 C 2055.77 4.12613 6.37049 0
M  V30 39102 O 2055.56 3.72827 4.97879 0
M  V30 39103 C 2054.37 4.45085 6.88694 0
M  V30 39104 O 2053.98 5.7877 6.5624 0
M  V30 39105 C 2053.49 3.47817 6.12078 0
M  V30 39106 C 2054.2 3.39414 4.77697 0
M  V30 39107 N 2054.15 2.04615 4.15333 0
M  V30 39108 H 2056.99 3.41248 7.98759 0
M  V30 39109 H 2057.26 2.5837 6.41742 0
M  V30 39110 H 2056.39 5.02657 6.42673 0
M  V30 39111 P 2052.43 6.144 6.45285 0
M  V30 39112 O 2052.21 7.54673 6.86199 0
M  V30 39113 O 2051.64 5.12391 7.179 0
M  V30 39114 O 2052.18 5.99236 4.88467 0
M  V30 39115 C 2053.12 6.60234 3.96415 0
M  V30 39116 C 2052.39 7.08079 2.736 0
M  V30 39117 O 2052.18 5.94365 1.8368 0
M  V30 39118 C 2050.99 7.64886 2.9555 0
M  V30 39119 O 2050.6 8.5406 1.90739 0
M  V30 39120 C 2050.11 6.4116 2.90739 0
M  V30 39121 C 2050.82 5.55375 1.86963 0
M  V30 39122 N 2050.77 4.09664 2.15742 0
M  V30 39123 C 2050.62 3.22231 1.08477 0
M  V30 39124 O 2050.53 3.68951 -0.0600489 0
M  V30 39125 N 2050.57 1.76692 1.48799 0
M  V30 39126 C 2050.67 1.41695 2.57602 0
M  V30 39127 N 2050.62 0.107296 2.75791 0
M  V30 39128 C 2050.82 2.29178 3.69733 0
M  V30 39129 C 2050.87 3.62753 3.42653 0
M  V30 39130 H 2053.61 7.45488 4.45578 0
M  V30 39131 H 2053.88 5.86232 3.67314 0
M  V30 39132 H 2053.01 7.84508 2.24507 0
M  V30 39133 H 2050.36 5.73556 0.888715 0
M  V30 39134 H 2050.08 5.9096 3.88638 0
M  V30 39135 H 2049.08 6.66053 2.58894 0
M  V30 39136 H 2050.92 8.16339 3.92049 0
M  V30 39137 H 2050.99 4.33052 4.24913 0
M  V30 39138 H 2050.89 1.9103 4.71577 0
M  V30 39139 H 2050.5 -0.521221 1.95056 0
M  V30 39140 H 2050.7 -0.286429 3.70695 0
M  V30 39141 P 2049.05 8.7635 1.60911 0
M  V30 39142 O 2048.83 10.1388 1.11561 0
M  V30 39143 O 2048.26 8.36503 2.79617 0
M  V30 39144 O 2048.8 7.71806 0.42951 0
M  V30 39145 C 2049.74 7.66948 -0.673514 0
M  V30 39146 C 2049.01 7.33374 -1.95559 0
M  V30 39147 O 2048.8 5.88721 -2.00726 0
M  V30 39148 C 2047.61 7.92218 -2.1125 0
M  V30 39149 O 2047.22 8.02971 -3.47653 0
M  V30 39150 C 2046.73 6.89504 -1.41631 0
M  V30 39151 C 2047.44 5.59106 -1.75155 0
M  V30 39152 N 2047.39 4.58136 -0.662409 0
M  V30 39153 C 2047.24 3.26059 -1.02863 0
M  V30 39154 O 2047.15 2.90743 -2.19009 0
M  V30 39155 N 2047.2 2.35995 0.0155585 0
M  V30 39156 C 2047.29 2.65248 1.35603 0
M  V30 39157 O 2047.24 1.75605 2.20651 0
M  V30 39158 C 2047.44 4.05747 1.64698 0
M  V30 39159 C 2047.55 4.42345 3.09553 0
M  V30 39160 C 2047.49 4.96734 0.652411 0
M  V30 39161 H 2050.23 8.64917 -0.776982 0
M  V30 39162 H 2050.5 6.89974 -0.474015 0
M  V30 39163 H 2049.63 7.66548 -2.79458 0
M  V30 39164 H 2046.98 5.16076 -2.65138 0
M  V30 39165 H 2046.7 7.06433 -0.329384 0
M  V30 39166 H 2045.7 6.90829 -1.81996 0
M  V30 39167 H 2047.54 8.90774 -1.62639 0
M  V30 39168 H 2047.61 6.02181 0.895285 0
M  V30 39169 H 2046.58 4.80252 3.45468 0
M  V30 39170 H 2048.32 5.20015 3.22119 0
M  V30 39171 H 2047.83 3.53269 3.67833 0
M  V30 39172 H 2047.09 1.39558 -0.227499 0
M  V30 39173 P 2045.67 8.03563 -3.84925 0
M  V30 39174 O 2045.45 8.85821 -5.0569 0
M  V30 39175 O 2044.88 8.41101 -2.65469 0
M  V30 39176 O 2045.42 6.4965 -4.18908 0
M  V30 39177 C 2046.36 5.81037 -5.05421 0
M  V30 39178 C 2045.63 4.78366 -5.89277 0
M  V30 39179 O 2045.42 3.58302 -5.08433 0
M  V30 39180 C 2044.23 5.17448 -6.36119 0
M  V30 39181 O 2043.84 4.45271 -7.53232 0
M  V30 39182 C 2043.35 4.74639 -5.19936 0
M  V30 39183 C 2044.06 3.49432 -4.70418 0
M  V30 39184 N 2044.01 3.31776 -3.22945 0
M  V30 39185 H 2046.85 6.54213 -5.71376 0
M  V30 39186 H 2047.12 5.30492 -4.44033 0
M  V30 39187 H 2046.25 4.55889 -6.76652 0
M  V30 39188 P 2042.29 4.23843 -7.83734 0
M  V30 39189 O 2042.07 4.19407 -9.29784 0
M  V30 39190 O 2041.5 5.24426 -7.09156 0
M  V30 39191 O 2042.04 2.7935 -7.20758 0
M  V30 39192 C 2042.98 1.72945 -7.50224 0
M  V30 39193 C 2042.25 0.406376 -7.57911 0
M  V30 39194 O 2042.04 -0.0897726 -6.21935 0
M  V30 39195 C 2040.85 0.438983 -8.18724 0
M  V30 39196 O 2040.46 -0.825065 -8.71101 0
M  V30 39197 C 2039.97 0.783689 -6.99524 0
M  V30 39198 C 2040.68 0.0619086 -5.85867 0
M  V30 39199 N 2040.63 0.78573 -4.56183 0
M  V30 39200 C 2040.48 0.0292889 -3.41887 0
M  V30 39201 O 2040.39 -1.18445 -3.4419 0
M  V30 39202 N 2040.44 0.744061 -2.23964 0
M  V30 39203 C 2040.53 2.10932 -2.10362 0
M  V30 39204 C 2040.68 2.8202 -3.34994 0
M  V30 39205 C 2040.73 2.15547 -4.52261 0
M  V30 39206 H 2043.47 1.93379 -8.46595 0
M  V30 39207 H 2043.74 1.68132 -6.70852 0
M  V30 39208 H 2042.87 -0.289041 -8.15388 0
M  V30 39209 H 2040.22 -0.926847 -5.72749 0
M  V30 39210 H 2039.94 1.86973 -6.82036 0
M  V30 39211 H 2038.94 0.403896 -7.13257 0
M  V30 39212 H 2040.78 1.20585 -8.97435 0
M  V30 39213 H 2040.85 2.71231 -5.45042 0
M  V30 39214 P 2038.91 -1.17771 -8.83182 0
M  V30 39215 O 2038.69 -2.07206 -9.98732 0
M  V30 39216 O 2038.12 0.0743816 -8.81969 0
M  V30 39217 O 2038.66 -1.97652 -7.47304 0
M  V30 39218 C 2039.6 -3.01055 -7.08599 0
M  V30 39219 C 2038.87 -4.12613 -6.37049 0
M  V30 39220 O 2038.66 -3.72827 -4.97879 0
M  V30 39221 C 2037.47 -4.45719 -6.88164 0
M  V30 39222 O 2037.08 -5.7877 -6.5624 0
M  V30 39223 C 2036.59 -3.47768 -6.11991 0
M  V30 39224 C 2037.3 -3.39356 -4.77615 0
M  V30 39225 N 2037.25 -2.04571 -4.15244 0
M  V30 39226 C 2037.1 -1.98587 -2.78314 0
M  V30 39227 O 2037.01 -2.98134 -2.08835 0
M  V30 39228 N 2037.06 -0.714467 -2.24925 0
M  V30 39229 C 2037.15 0.470001 -2.94169 0
M  V30 39230 O 2037.1 1.55587 -2.35195 0
M  V30 39231 C 2037.3 0.312541 -4.36783 0
M  V30 39232 C 2037.41 1.57711 -5.16352 0
M  V30 39233 C 2037.35 -0.914512 -4.92583 0
M  V30 39234 H 2040.09 -3.41169 -7.98575 0
M  V30 39235 H 2040.36 -2.58295 -6.41556 0
M  V30 39236 H 2039.49 -5.02657 -6.42673 0
M  V30 39237 H 2036.84 -4.11637 -4.08885 0
M  V30 39238 H 2036.56 -2.49626 -6.61679 0
M  V30 39239 H 2035.56 -3.86566 -6.00778 0
M  V30 39240 H 2037.4 -4.29943 -7.96918 0
M  V30 39241 H 2037.47 -1.00937 -6.00374 0
M  V30 39242 H 2036.44 1.80153 -5.63503 0
M  V30 39243 H 2038.18 1.4566 -5.94104 0
M  V30 39244 H 2037.69 2.40664 -4.49645 0
M  V30 39245 H 2036.95 -0.647622 -1.25697 0
M  V30 39246 P 2035.53 -6.144 -6.45285 0
M  V30 39247 O 2035.31 -7.54673 -6.86199 0
M  V30 39248 O 2034.74 -5.12391 -7.179 0
M  V30 39249 O 2035.28 -5.99158 -4.88404 0
M  V30 39250 C 2036.22 -6.60234 -3.96415 0
M  V30 39251 C 2035.49 -7.08259 -2.72856 0
M  V30 39252 O 2035.28 -5.9427 -1.83651 0
M  V30 39253 C 2034.09 -7.64886 -2.9555 0
M  V30 39254 O 2033.7 -8.53963 -1.90717 0
M  V30 39255 C 2033.21 -6.4116 -2.90739 0
M  V30 39256 C 2033.92 -5.55375 -1.86963 0
M  V30 39257 N 2033.87 -4.09664 -2.15742 0
M  V30 39258 H 2036.71 -7.45574 -4.45629 0
M  V30 39259 H 2036.98 -5.86232 -3.67314 0
M  V30 39260 H 2036.11 -7.84412 -2.24479 0
M  V30 39261 P 2032.15 -8.7635 -1.60911 0
M  V30 39262 O 2031.93 -10.1388 -1.11561 0
M  V30 39263 O 2031.36 -8.36503 -2.79617 0
M  V30 39264 O 2031.9 -7.71806 -0.42951 0
M  V30 39265 C 2032.84 -7.66948 0.673514 0
M  V30 39266 C 2032.11 -7.33374 1.95559 0
M  V30 39267 O 2031.9 -5.88721 2.00726 0
M  V30 39268 C 2030.71 -7.92218 2.1125 0
M  V30 39269 O 2030.32 -8.02971 3.47653 0
M  V30 39270 C 2029.83 -6.89504 1.41631 0
M  V30 39271 C 2030.54 -5.59106 1.75155 0
M  V30 39272 N 2030.49 -4.58136 0.662409 0
M  V30 39273 C 2030.34 -3.26059 1.02863 0
M  V30 39274 O 2030.25 -2.90743 2.19009 0
M  V30 39275 N 2030.3 -2.35995 -0.0155585 0
M  V30 39276 C 2030.39 -2.65248 -1.35603 0
M  V30 39277 O 2030.34 -1.75605 -2.20651 0
M  V30 39278 C 2030.54 -4.05747 -1.64698 0
M  V30 39279 C 2030.65 -4.42345 -3.09553 0
M  V30 39280 C 2030.59 -4.96734 -0.652411 0
M  V30 39281 H 2033.33 -8.64917 0.776982 0
M  V30 39282 H 2033.6 -6.89974 0.474015 0
M  V30 39283 H 2032.73 -7.66548 2.79458 0
M  V30 39284 H 2030.08 -5.16076 2.65138 0
M  V30 39285 H 2029.8 -7.06433 0.329384 0
M  V30 39286 H 2028.8 -6.90829 1.81996 0
M  V30 39287 H 2030.64 -8.90774 1.62639 0
M  V30 39288 H 2030.71 -6.02181 -0.895285 0
M  V30 39289 H 2029.68 -4.80252 -3.45468 0
M  V30 39290 H 2031.42 -5.20015 -3.22119 0
M  V30 39291 H 2030.93 -3.53269 -3.67833 0
M  V30 39292 H 2030.19 -1.39558 0.227499 0
M  V30 39293 P 2028.77 -8.03563 3.84925 0
M  V30 39294 O 2028.55 -8.85821 5.0569 0
M  V30 39295 O 2027.98 -8.41101 2.65469 0
M  V30 39296 O 2028.52 -6.4965 4.18908 0
M  V30 39297 C 2029.46 -5.81037 5.05421 0
M  V30 39298 C 2028.73 -4.78366 5.89277 0
M  V30 39299 O 2028.52 -3.58302 5.08433 0
M  V30 39300 C 2027.33 -5.17448 6.36119 0
M  V30 39301 O 2026.94 -4.45271 7.53232 0
M  V30 39302 C 2026.45 -4.74639 5.19936 0
M  V30 39303 C 2027.16 -3.49432 4.70418 0
M  V30 39304 N 2027.11 -3.32099 3.22613 0
M  V30 39305 H 2029.95 -6.54213 5.71376 0
M  V30 39306 H 2030.22 -5.30936 4.43503 0
M  V30 39307 H 2029.35 -4.55889 6.76652 0
M  V30 39308 H 2026.7 -2.61715 5.17932 0
M  V30 39309 H 2026.42 -5.52155 4.41878 0
M  V30 39310 H 2025.43 -4.51981 5.53374 0
M  V30 39311 H 2027.26 -6.25124 6.55234 0
M  V30 39312 P 2025.39 -4.23843 7.83734 0
M  V30 39313 O 2025.17 -4.19407 9.29784 0
M  V30 39314 O 2024.6 -5.24426 7.09156 0
M  V30 39315 O 2025.14 -2.7935 7.20758 0
M  V30 39316 C 2026.08 -1.7299 7.50419 0
M  V30 39317 C 2025.35 -0.406376 7.57911 0
M  V30 39318 O 2025.14 0.0897726 6.21935 0
M  V30 39319 C 2023.95 -0.447224 8.1878 0
M  V30 39320 O 2023.56 0.825065 8.71101 0
M  V30 39321 C 2023.07 -0.783801 6.99623 0
M  V30 39322 C 2023.78 -0.0619192 5.85967 0
M  V30 39323 N 2023.73 -0.7859 4.56281 0
M  V30 39324 H 2026.57 -1.93423 8.4679 0
M  V30 39325 H 2026.84 -1.68181 6.71046 0
M  V30 39326 H 2025.97 0.289041 8.15388 0
M  V30 39327 P 2022.01 1.17771 8.83182 0
M  V30 39328 O 2021.79 2.07206 9.98732 0
M  V30 39329 O 2021.22 -0.0743816 8.81969 0
M  V30 39330 O 2021.76 1.97652 7.47304 0
M  V30 39331 C 2022.7 3.01133 7.08783 0
M  V30 39332 C 2021.97 4.12613 6.37049 0
M  V30 39333 O 2021.76 3.72827 4.97879 0
M  V30 39334 C 2020.57 4.45085 6.88694 0
M  V30 39335 O 2020.18 5.7877 6.5624 0
M  V30 39336 C 2019.69 3.47817 6.12078 0
M  V30 39337 C 2020.4 3.39414 4.77697 0
M  V30 39338 N 2020.35 2.04615 4.15333 0
M  V30 39339 H 2023.19 3.41248 7.98759 0
M  V30 39340 H 2023.46 2.5837 6.41742 0
M  V30 39341 H 2022.59 5.02657 6.42673 0
M  V30 39342 P 2018.63 6.144 6.45285 0
M  V30 39343 O 2018.41 7.54673 6.86199 0
M  V30 39344 O 2017.84 5.12391 7.179 0
M  V30 39345 O 2018.38 5.99158 4.88404 0
M  V30 39346 C 2019.32 6.60234 3.96415 0
M  V30 39347 C 2018.59 7.08259 2.72856 0
M  V30 39348 O 2018.38 5.9427 1.83651 0
M  V30 39349 C 2017.19 7.64886 2.9555 0
M  V30 39350 O 2016.8 8.53963 1.90717 0
M  V30 39351 C 2016.31 6.4116 2.90739 0
M  V30 39352 C 2017.02 5.55375 1.86963 0
M  V30 39353 N 2016.97 4.09664 2.15742 0
M  V30 39354 H 2019.81 7.45574 4.45629 0
M  V30 39355 H 2020.08 5.86232 3.67314 0
M  V30 39356 H 2019.21 7.84412 2.24479 0
M  V30 39357 P 2015.25 8.7635 1.60911 0
M  V30 39358 O 2015.03 10.1388 1.11561 0
M  V30 39359 O 2014.46 8.36503 2.79617 0
M  V30 39360 O 2015 7.71806 0.42951 0
M  V30 39361 C 2015.94 7.67148 -0.673689 0
M  V30 39362 C 2015.21 7.33374 -1.95559 0
M  V30 39363 O 2015 5.88721 -2.00726 0
M  V30 39364 C 2013.81 7.92526 -2.10483 0
M  V30 39365 O 2013.42 8.02971 -3.47653 0
M  V30 39366 C 2012.93 6.89602 -1.41652 0
M  V30 39367 C 2013.64 5.59201 -1.75185 0
M  V30 39368 N 2013.59 4.58235 -0.662552 0
M  V30 39369 H 2016.43 8.65116 -0.777161 0
M  V30 39370 H 2016.7 6.90173 -0.474152 0
M  V30 39371 H 2015.83 7.66548 -2.79458 0
M  V30 39372 P 2011.87 8.03563 -3.84925 0
M  V30 39373 O 2011.65 8.85821 -5.0569 0
M  V30 39374 O 2011.08 8.41101 -2.65469 0
M  V30 39375 O 2011.62 6.4965 -4.18908 0
M  V30 39376 C 2012.56 5.81037 -5.05421 0
M  V30 39377 C 2011.83 4.78366 -5.89277 0
M  V30 39378 O 2011.62 3.58302 -5.08433 0
M  V30 39379 C 2010.43 5.17448 -6.36119 0
M  V30 39380 O 2010.04 4.45271 -7.53232 0
M  V30 39381 C 2009.55 4.74639 -5.19936 0
M  V30 39382 C 2010.26 3.49432 -4.70418 0
M  V30 39383 N 2010.21 3.31776 -3.22945 0
M  V30 39384 H 2013.05 6.54213 -5.71376 0
M  V30 39385 H 2013.32 5.30492 -4.44033 0
M  V30 39386 H 2012.45 4.55889 -6.76652 0
M  V30 39387 P 2008.49 4.23843 -7.83734 0
M  V30 39388 O 2008.27 4.19407 -9.29784 0
M  V30 39389 O 2007.7 5.24426 -7.09156 0
M  V30 39390 O 2008.24 2.7935 -7.20758 0
M  V30 39391 C 2009.18 1.7299 -7.50419 0
M  V30 39392 C 2008.45 0.406376 -7.57911 0
M  V30 39393 O 2008.24 -0.0897726 -6.21935 0
M  V30 39394 C 2007.05 0.447224 -8.1878 0
M  V30 39395 O 2006.66 -0.825065 -8.71101 0
M  V30 39396 C 2006.17 0.783801 -6.99623 0
M  V30 39397 C 2006.88 0.0619192 -5.85967 0
M  V30 39398 N 2006.83 0.7859 -4.56281 0
M  V30 39399 H 2009.67 1.93423 -8.4679 0
M  V30 39400 H 2009.94 1.68181 -6.71046 0
M  V30 39401 H 2009.07 -0.289041 -8.15388 0
M  V30 39402 P 2005.11 -1.17771 -8.83182 0
M  V30 39403 O 2004.89 -2.07206 -9.98732 0
M  V30 39404 O 2004.32 0.0743816 -8.81969 0
M  V30 39405 O 2004.86 -1.97652 -7.47304 0
M  V30 39406 C 2005.8 -3.01133 -7.08783 0
M  V30 39407 C 2005.07 -4.12613 -6.37049 0
M  V30 39408 O 2004.86 -3.72827 -4.97879 0
M  V30 39409 C 2003.67 -4.45085 -6.88694 0
M  V30 39410 O 2003.28 -5.7877 -6.5624 0
M  V30 39411 C 2002.79 -3.47817 -6.12078 0
M  V30 39412 C 2003.5 -3.39414 -4.77697 0
M  V30 39413 N 2003.45 -2.04615 -4.15333 0
M  V30 39414 H 2006.29 -3.41248 -7.98759 0
M  V30 39415 H 2006.56 -2.5837 -6.41742 0
M  V30 39416 H 2005.69 -5.02657 -6.42673 0
M  V30 39417 P 2001.73 -6.144 -6.45285 0
M  V30 39418 O 2001.51 -7.54673 -6.86199 0
M  V30 39419 O 2000.94 -5.12391 -7.179 0
M  V30 39420 O 2001.48 -5.99158 -4.88404 0
M  V30 39421 C 2002.42 -6.60234 -3.96415 0
M  V30 39422 C 2001.69 -7.08259 -2.72856 0
M  V30 39423 O 2001.48 -5.9427 -1.83651 0
M  V30 39424 C 2000.29 -7.64886 -2.9555 0
M  V30 39425 O 1999.9 -8.53963 -1.90717 0
M  V30 39426 C 1999.41 -6.4116 -2.90739 0
M  V30 39427 C 2000.12 -5.55375 -1.86963 0
M  V30 39428 N 2000.07 -4.09448 -2.16152 0
M  V30 39429 H 2002.91 -7.45574 -4.45629 0
M  V30 39430 H 2003.18 -5.85864 -3.679 0
M  V30 39431 H 2002.31 -7.84412 -2.24479 0
M  V30 39432 H 1999.66 -5.73457 -0.888562 0
M  V30 39433 H 1999.38 -5.90877 -3.88583 0
M  V30 39434 H 1998.39 -6.6596 -2.58858 0
M  V30 39435 H 2000.22 -8.16339 -3.92049 0
M  V30 39436 P 1998.35 -8.7635 -1.60911 0
M  V30 39437 O 1998.13 -10.1388 -1.11561 0
M  V30 39438 O 1997.56 -8.36503 -2.79617 0
M  V30 39439 O 1998.1 -7.71806 -0.42951 0
M  V30 39440 C 1999.04 -7.67148 0.673689 0
M  V30 39441 C 1998.31 -7.33374 1.95559 0
M  V30 39442 O 1998.1 -5.88721 2.00726 0
M  V30 39443 C 1996.91 -7.92526 2.10483 0
M  V30 39444 O 1996.52 -8.02971 3.47653 0
M  V30 39445 C 1996.03 -6.89602 1.41652 0
M  V30 39446 C 1996.74 -5.59201 1.75185 0
M  V30 39447 N 1996.69 -4.58235 0.662552 0
M  V30 39448 H 1999.53 -8.65116 0.777161 0
M  V30 39449 H 1999.8 -6.90173 0.474152 0
M  V30 39450 H 1998.93 -7.66548 2.79458 0
M  V30 39451 P 1994.97 -8.03563 3.84925 0
M  V30 39452 O 1994.75 -8.85821 5.0569 0
M  V30 39453 O 1994.18 -8.41101 2.65469 0
M  V30 39454 O 1994.72 -6.4965 4.18908 0
M  V30 39455 C 1995.66 -5.81037 5.05421 0
M  V30 39456 C 1994.93 -4.78366 5.89277 0
M  V30 39457 O 1994.72 -3.58302 5.08433 0
M  V30 39458 C 1993.53 -5.17448 6.36119 0
M  V30 39459 O 1993.14 -4.45271 7.53232 0
M  V30 39460 C 1992.65 -4.74639 5.19936 0
M  V30 39461 C 1993.36 -3.49432 4.70418 0
M  V30 39462 N 1993.31 -3.31776 3.22945 0
M  V30 39463 H 1996.15 -6.54213 5.71376 0
M  V30 39464 H 1996.42 -5.30492 4.44033 0
M  V30 39465 H 1995.55 -4.55889 6.76652 0
M  V30 39466 P 1991.59 -4.23843 7.83734 0
M  V30 39467 O 1991.37 -4.19407 9.29784 0
M  V30 39468 O 1990.8 -5.24426 7.09156 0
M  V30 39469 O 1991.34 -2.7935 7.20758 0
M  V30 39470 C 1992.28 -1.7299 7.50419 0
M  V30 39471 C 1991.55 -0.406376 7.57911 0
M  V30 39472 O 1991.34 0.0897726 6.21935 0
M  V30 39473 C 1990.15 -0.447224 8.1878 0
M  V30 39474 O 1989.76 0.825065 8.71101 0
M  V30 39475 C 1989.27 -0.783801 6.99623 0
M  V30 39476 C 1989.98 -0.0619192 5.85967 0
M  V30 39477 N 1989.93 -0.7859 4.56281 0
M  V30 39478 H 1992.77 -1.93423 8.4679 0
M  V30 39479 H 1993.04 -1.68181 6.71046 0
M  V30 39480 H 1992.17 0.289041 8.15388 0
M  V30 39481 P 1988.21 1.17771 8.83182 0
M  V30 39482 O 1987.99 2.07206 9.98732 0
M  V30 39483 O 1987.42 -0.0743816 8.81969 0
M  V30 39484 O 1987.96 1.97652 7.47304 0
M  V30 39485 C 1988.9 3.01133 7.08783 0
M  V30 39486 C 1988.17 4.12613 6.37049 0
M  V30 39487 O 1987.96 3.72827 4.97879 0
M  V30 39488 C 1986.77 4.45085 6.88694 0
M  V30 39489 O 1986.38 5.7877 6.5624 0
M  V30 39490 C 1985.89 3.47817 6.12078 0
M  V30 39491 C 1986.6 3.39414 4.77697 0
M  V30 39492 N 1986.55 2.04615 4.15333 0
M  V30 39493 H 1989.39 3.41248 7.98759 0
M  V30 39494 H 1989.66 2.5837 6.41742 0
M  V30 39495 H 1988.79 5.02657 6.42673 0
M  V30 39496 P 1984.83 6.144 6.45285 0
M  V30 39497 O 1984.61 7.54673 6.86199 0
M  V30 39498 O 1984.04 5.12391 7.179 0
M  V30 39499 O 1984.58 5.99236 4.88467 0
M  V30 39500 C 1985.52 6.60234 3.96415 0
M  V30 39501 C 1984.79 7.08079 2.736 0
M  V30 39502 O 1984.58 5.94365 1.8368 0
M  V30 39503 C 1983.39 7.64886 2.9555 0
M  V30 39504 O 1983 8.5406 1.90739 0
M  V30 39505 C 1982.51 6.4116 2.90739 0
M  V30 39506 C 1983.22 5.55375 1.86963 0
M  V30 39507 N 1983.17 4.09664 2.15742 0
M  V30 39508 C 1983.02 3.22231 1.08477 0
M  V30 39509 O 1982.93 3.68951 -0.0600489 0
M  V30 39510 N 1982.97 1.76692 1.48799 0
M  V30 39511 C 1983.07 1.41695 2.57602 0
M  V30 39512 N 1983.02 0.107296 2.75791 0
M  V30 39513 C 1983.22 2.29178 3.69733 0
M  V30 39514 C 1983.27 3.62753 3.42653 0
M  V30 39515 H 1986.01 7.45488 4.45578 0
M  V30 39516 H 1986.28 5.86232 3.67314 0
M  V30 39517 H 1985.41 7.84508 2.24507 0
M  V30 39518 H 1982.76 5.73556 0.888715 0
M  V30 39519 H 1982.48 5.9096 3.88638 0
M  V30 39520 H 1981.49 6.66053 2.58894 0
M  V30 39521 H 1983.32 8.16339 3.92049 0
M  V30 39522 H 1983.39 4.33052 4.24913 0
M  V30 39523 H 1983.29 1.9103 4.71577 0
M  V30 39524 H 1982.9 -0.521221 1.95056 0
M  V30 39525 H 1983.1 -0.286429 3.70695 0
M  V30 39526 P 1981.45 8.7635 1.60911 0
M  V30 39527 O 1981.23 10.1388 1.11561 0
M  V30 39528 O 1980.66 8.36503 2.79617 0
M  V30 39529 O 1981.2 7.71806 0.42951 0
M  V30 39530 C 1982.14 7.67148 -0.673689 0
M  V30 39531 C 1981.41 7.33374 -1.95559 0
M  V30 39532 O 1981.2 5.88721 -2.00726 0
M  V30 39533 C 1980.01 7.92526 -2.10483 0
M  V30 39534 O 1979.62 8.02971 -3.47653 0
M  V30 39535 C 1979.13 6.89602 -1.41652 0
M  V30 39536 C 1979.84 5.59201 -1.75185 0
M  V30 39537 N 1979.79 4.58235 -0.662552 0
M  V30 39538 H 1982.63 8.65116 -0.777161 0
M  V30 39539 H 1982.9 6.90173 -0.474152 0
M  V30 39540 H 1982.03 7.66548 -2.79458 0
M  V30 39541 P 1978.07 8.03563 -3.84925 0
M  V30 39542 O 1977.85 8.85821 -5.0569 0
M  V30 39543 O 1977.28 8.41101 -2.65469 0
M  V30 39544 O 1977.82 6.4965 -4.18908 0
M  V30 39545 C 1978.76 5.81037 -5.05421 0
M  V30 39546 C 1978.03 4.78366 -5.89277 0
M  V30 39547 O 1977.82 3.58302 -5.08433 0
M  V30 39548 C 1976.63 5.17448 -6.36119 0
M  V30 39549 O 1976.24 4.45271 -7.53232 0
M  V30 39550 C 1975.75 4.74639 -5.19936 0
M  V30 39551 C 1976.46 3.49432 -4.70418 0
M  V30 39552 N 1976.41 3.31776 -3.22945 0
M  V30 39553 H 1979.25 6.54213 -5.71376 0
M  V30 39554 H 1979.52 5.30492 -4.44033 0
M  V30 39555 H 1978.65 4.55889 -6.76652 0
M  V30 39556 P 1974.69 4.23843 -7.83734 0
M  V30 39557 O 1974.47 4.19407 -9.29784 0
M  V30 39558 O 1973.9 5.24426 -7.09156 0
M  V30 39559 O 1974.44 2.7935 -7.20758 0
M  V30 39560 C 1975.38 1.7299 -7.50419 0
M  V30 39561 C 1974.65 0.406376 -7.57911 0
M  V30 39562 O 1974.44 -0.0897726 -6.21935 0
M  V30 39563 C 1973.25 0.447224 -8.1878 0
M  V30 39564 O 1972.86 -0.825065 -8.71101 0
M  V30 39565 C 1972.37 0.783801 -6.99623 0
M  V30 39566 C 1973.08 0.0619192 -5.85967 0
M  V30 39567 N 1973.03 0.7859 -4.56281 0
M  V30 39568 H 1975.87 1.93423 -8.4679 0
M  V30 39569 H 1976.14 1.68181 -6.71046 0
M  V30 39570 H 1975.27 -0.289041 -8.15388 0
M  V30 39571 P 1971.31 -1.17771 -8.83182 0
M  V30 39572 O 1971.09 -2.07206 -9.98732 0
M  V30 39573 O 1970.52 0.0743816 -8.81969 0
M  V30 39574 O 1971.06 -1.97652 -7.47304 0
M  V30 39575 C 1972 -3.01133 -7.08783 0
M  V30 39576 C 1971.27 -4.12613 -6.37049 0
M  V30 39577 O 1971.06 -3.72827 -4.97879 0
M  V30 39578 C 1969.87 -4.45085 -6.88694 0
M  V30 39579 O 1969.48 -5.7877 -6.5624 0
M  V30 39580 C 1968.99 -3.47817 -6.12078 0
M  V30 39581 C 1969.7 -3.39414 -4.77697 0
M  V30 39582 N 1969.65 -2.04199 -4.15538 0
M  V30 39583 H 1972.49 -3.41248 -7.98759 0
M  V30 39584 H 1972.76 -2.57728 -6.42 0
M  V30 39585 H 1971.89 -5.02657 -6.42673 0
M  V30 39586 H 1969.24 -4.11708 -4.08956 0
M  V30 39587 H 1968.96 -2.49626 -6.61679 0
M  V30 39588 H 1967.97 -3.8662 -6.00862 0
M  V30 39589 H 1969.8 -4.29991 -7.97006 0
M  V30 39590 P 1967.93 -6.144 -6.45285 0
M  V30 39591 O 1967.71 -7.54673 -6.86199 0
M  V30 39592 O 1967.14 -5.12391 -7.179 0
M  V30 39593 O 1967.68 -5.99158 -4.88404 0
M  V30 39594 C 1968.62 -6.60234 -3.96415 0
M  V30 39595 C 1967.89 -7.08259 -2.72856 0
M  V30 39596 O 1967.68 -5.9427 -1.83651 0
M  V30 39597 C 1966.49 -7.64886 -2.9555 0
M  V30 39598 O 1966.1 -8.53963 -1.90717 0
M  V30 39599 C 1965.61 -6.4116 -2.90739 0
M  V30 39600 C 1966.32 -5.55375 -1.86963 0
M  V30 39601 N 1966.27 -4.09448 -2.16152 0
M  V30 39602 H 1969.11 -7.45574 -4.45629 0
M  V30 39603 H 1969.38 -5.85864 -3.679 0
M  V30 39604 H 1968.51 -7.84412 -2.24479 0
M  V30 39605 H 1965.86 -5.73457 -0.888562 0
M  V30 39606 H 1965.58 -5.90877 -3.88583 0
M  V30 39607 H 1964.59 -6.6596 -2.58858 0
M  V30 39608 H 1966.42 -8.16339 -3.92049 0
M  V30 39609 P 1964.55 -8.7635 -1.60911 0
M  V30 39610 O 1964.33 -10.1388 -1.11561 0
M  V30 39611 O 1963.76 -8.36503 -2.79617 0
M  V30 39612 O 1964.3 -7.71806 -0.42951 0
M  V30 39613 C 1965.24 -7.67148 0.673689 0
M  V30 39614 C 1964.51 -7.33374 1.95559 0
M  V30 39615 O 1964.3 -5.88721 2.00726 0
M  V30 39616 C 1963.11 -7.92526 2.10483 0
M  V30 39617 O 1962.72 -8.02971 3.47653 0
M  V30 39618 C 1962.23 -6.89602 1.41652 0
M  V30 39619 C 1962.94 -5.59201 1.75185 0
M  V30 39620 N 1962.89 -4.58235 0.662552 0
M  V30 39621 H 1965.73 -8.65116 0.777161 0
M  V30 39622 H 1966 -6.90173 0.474152 0
M  V30 39623 H 1965.13 -7.66548 2.79458 0
M  V30 39624 P 1961.17 -8.03563 3.84925 0
M  V30 39625 O 1960.95 -8.85821 5.0569 0
M  V30 39626 O 1960.38 -8.41101 2.65469 0
M  V30 39627 O 1960.92 -6.4965 4.18908 0
M  V30 39628 C 1961.86 -5.81037 5.05421 0
M  V30 39629 C 1961.13 -4.78366 5.89277 0
M  V30 39630 O 1960.92 -3.58302 5.08433 0
M  V30 39631 C 1959.73 -5.17448 6.36119 0
M  V30 39632 O 1959.34 -4.45271 7.53232 0
M  V30 39633 C 1958.85 -4.74639 5.19936 0
M  V30 39634 C 1959.56 -3.49432 4.70418 0
M  V30 39635 N 1959.51 -3.31776 3.22945 0
M  V30 39636 H 1962.35 -6.54213 5.71376 0
M  V30 39637 H 1962.62 -5.30492 4.44033 0
M  V30 39638 H 1961.75 -4.55889 6.76652 0
M  V30 39639 P 1957.79 -4.23843 7.83734 0
M  V30 39640 O 1957.57 -4.19407 9.29784 0
M  V30 39641 O 1957 -5.24426 7.09156 0
M  V30 39642 O 1957.54 -2.7935 7.20758 0
M  V30 39643 C 1958.48 -1.7299 7.50419 0
M  V30 39644 C 1957.75 -0.406376 7.57911 0
M  V30 39645 O 1957.54 0.0897726 6.21935 0
M  V30 39646 C 1956.35 -0.447224 8.1878 0
M  V30 39647 O 1955.96 0.825065 8.71101 0
M  V30 39648 C 1955.47 -0.783801 6.99623 0
M  V30 39649 C 1956.18 -0.0619192 5.85967 0
M  V30 39650 N 1956.13 -0.7859 4.56281 0
M  V30 39651 C 1956.21 -2.14308 4.31736 0
M  V30 39652 N 1956.13 -2.46106 3.05116 0
M  V30 39653 C 1955.99 -1.23422 2.4014 0
M  V30 39654 C 1955.86 -0.938381 1.02409 0
M  V30 39655 O 1955.84 -1.70876 0.0650402 0
M  V30 39656 N 1955.74 0.444647 0.805413 0
M  V30 39657 C 1955.74 1.40829 1.79435 0
M  V30 39658 N 1955.61 2.67213 1.38558 0
M  V30 39659 N 1955.87 1.12947 3.09005 0
M  V30 39660 C 1955.99 -0.204887 3.32369 0
M  V30 39661 H 1958.97 -1.93423 8.4679 0
M  V30 39662 H 1959.24 -1.68181 6.71046 0
M  V30 39663 H 1958.37 0.289041 8.15388 0
M  V30 39664 H 1955.72 0.927166 5.72947 0
M  V30 39665 H 1955.44 -1.87 6.82132 0
M  V30 39666 H 1954.45 -0.404009 7.13457 0
M  V30 39667 H 1956.28 -1.20612 8.97633 0
M  V30 39668 H 1956.33 -2.88284 5.10874 0
M  V30 39669 H 1955.65 0.755087 -0.140242 0
M  V30 39670 H 1955.61 3.43967 2.0729 0
M  V30 39671 H 1955.51 2.88096 0.380644 0
M  V30 39672 P 1954.41 1.17771 8.83182 0
M  V30 39673 O 1954.19 2.07206 9.98732 0
M  V30 39674 O 1953.62 -0.0743816 8.81969 0
M  V30 39675 O 1954.16 1.97652 7.47304 0
M  V30 39676 C 1955.1 3.01133 7.08783 0
M  V30 39677 C 1954.37 4.12613 6.37049 0
M  V30 39678 O 1954.16 3.72827 4.97879 0
M  V30 39679 C 1952.97 4.45085 6.88694 0
M  V30 39680 O 1952.58 5.7877 6.5624 0
M  V30 39681 C 1952.09 3.47817 6.12078 0
M  V30 39682 C 1952.8 3.39414 4.77697 0
M  V30 39683 N 1952.75 2.04615 4.15333 0
M  V30 39684 C 1952.83 0.803897 4.75249 0
M  V30 39685 N 1952.75 -0.197615 3.91502 0
M  V30 39686 C 1952.61 0.413002 2.66823 0
M  V30 39687 C 1952.48 -0.157221 1.38007 0
M  V30 39688 N 1952.36 0.833136 0.390236 0
M  V30 39689 C 1952.36 2.19402 0.623885 0
M  V30 39690 N 1952.23 2.97622 -0.449677 0
M  V30 39691 N 1952.49 2.73005 1.83601 0
M  V30 39692 C 1952.61 1.78786 2.80935 0
M  V30 39693 H 1955.59 3.41248 7.98759 0
M  V30 39694 H 1955.86 2.5837 6.41742 0
M  V30 39695 H 1954.99 5.02657 6.42673 0
M  V30 39696 P 1951.03 6.144 6.45285 0
M  V30 39697 O 1950.81 7.54673 6.86199 0
M  V30 39698 O 1950.24 5.12391 7.179 0
M  V30 39699 O 1950.78 5.99158 4.88404 0
M  V30 39700 C 1951.72 6.60234 3.96415 0
M  V30 39701 C 1950.99 7.08259 2.72856 0
M  V30 39702 O 1950.78 5.9427 1.83651 0
M  V30 39703 C 1949.59 7.64886 2.9555 0
M  V30 39704 O 1949.2 8.53963 1.90717 0
M  V30 39705 C 1948.71 6.4116 2.90739 0
M  V30 39706 C 1949.42 5.55375 1.86963 0
M  V30 39707 N 1949.37 4.09664 2.15742 0
M  V30 39708 H 1952.21 7.45574 4.45629 0
M  V30 39709 H 1952.48 5.86232 3.67314 0
M  V30 39710 H 1951.61 7.84412 2.24479 0
M  V30 39711 P 1947.65 8.7635 1.60911 0
M  V30 39712 O 1947.43 10.1388 1.11561 0
M  V30 39713 O 1946.86 8.36503 2.79617 0
M  V30 39714 O 1947.4 7.71906 0.429565 0
M  V30 39715 C 1948.34 7.67148 -0.673689 0
M  V30 39716 C 1947.61 7.33666 -1.94851 0
M  V30 39717 O 1947.4 5.88816 -2.00759 0
M  V30 39718 C 1946.21 7.92526 -2.10483 0
M  V30 39719 O 1945.82 8.03063 -3.47693 0
M  V30 39720 C 1945.33 6.89602 -1.41652 0
M  V30 39721 C 1946.04 5.59201 -1.75185 0
M  V30 39722 N 1945.99 4.58235 -0.662552 0
M  V30 39723 C 1945.84 3.24451 -1.01643 0
M  V30 39724 O 1945.75 2.94958 -2.21722 0
M  V30 39725 N 1945.79 2.30408 0.165238 0
M  V30 39726 C 1945.89 2.66048 1.25118 0
M  V30 39727 N 1945.84 1.70787 2.16813 0
M  V30 39728 C 1946.04 4.02732 1.64413 0
M  V30 39729 C 1946.09 4.9488 0.63991 0
M  V30 39730 H 1948.83 8.65017 -0.777072 0
M  V30 39731 H 1949.1 6.90173 -0.474152 0
M  V30 39732 H 1948.23 7.66642 -2.79492 0
M  V30 39733 H 1945.58 5.16254 -2.65229 0
M  V30 39734 H 1945.3 7.06532 -0.329431 0
M  V30 39735 H 1944.31 6.91023 -1.82047 0
M  V30 39736 H 1946.14 8.90873 -1.62657 0
M  V30 39737 H 1946.21 6.00104 0.892197 0
M  V30 39738 H 1946.11 4.31733 2.69229 0
M  V30 39739 H 1945.72 0.724835 1.8844 0
M  V30 39740 H 1945.92 1.94716 3.16734 0
M  V30 39741 P 1944.27 8.03563 -3.84925 0
M  V30 39742 O 1944.05 8.85821 -5.0569 0
M  V30 39743 O 1943.48 8.41101 -2.65469 0
M  V30 39744 O 1944.02 6.4965 -4.18908 0
M  V30 39745 C 1944.96 5.81037 -5.05421 0
M  V30 39746 C 1944.23 4.78366 -5.89277 0
M  V30 39747 O 1944.02 3.58302 -5.08433 0
M  V30 39748 C 1942.83 5.17448 -6.36119 0
M  V30 39749 O 1942.44 4.45271 -7.53232 0
M  V30 39750 C 1941.95 4.74639 -5.19936 0
M  V30 39751 C 1942.66 3.49432 -4.70418 0
M  V30 39752 N 1942.61 3.31776 -3.22945 0
M  V30 39753 H 1945.45 6.54213 -5.71376 0
M  V30 39754 H 1945.72 5.30492 -4.44033 0
M  V30 39755 H 1944.85 4.55889 -6.76652 0
M  V30 39756 P 1940.89 4.23843 -7.83734 0
M  V30 39757 O 1940.67 4.19407 -9.29784 0
M  V30 39758 O 1940.1 5.24426 -7.09156 0
M  V30 39759 O 1940.64 2.7935 -7.20758 0
M  V30 39760 C 1941.58 1.7299 -7.50419 0
M  V30 39761 C 1940.85 0.406376 -7.57911 0
M  V30 39762 O 1940.64 -0.0897726 -6.21935 0
M  V30 39763 C 1939.45 0.447224 -8.1878 0
M  V30 39764 O 1939.06 -0.825065 -8.71101 0
M  V30 39765 C 1938.57 0.783801 -6.99623 0
M  V30 39766 C 1939.28 0.0619192 -5.85967 0
M  V30 39767 N 1939.23 0.7859 -4.56281 0
M  V30 39768 H 1942.07 1.93423 -8.4679 0
M  V30 39769 H 1942.34 1.68181 -6.71046 0
M  V30 39770 H 1941.47 -0.289041 -8.15388 0
M  V30 39771 P 1937.51 -1.17771 -8.83182 0
M  V30 39772 O 1937.29 -2.07206 -9.98732 0
M  V30 39773 O 1936.72 0.0743816 -8.81969 0
M  V30 39774 O 1937.26 -1.97678 -7.474 0
M  V30 39775 C 1938.2 -3.01133 -7.08783 0
M  V30 39776 C 1937.47 -4.1203 -6.37546 0
M  V30 39777 O 1937.26 -3.72887 -4.9796 0
M  V30 39778 C 1936.07 -4.45085 -6.88694 0
M  V30 39779 O 1935.68 -5.78836 -6.56315 0
M  V30 39780 C 1935.19 -3.47817 -6.12078 0
M  V30 39781 C 1935.9 -3.39414 -4.77697 0
M  V30 39782 N 1935.85 -2.04615 -4.15333 0
M  V30 39783 C 1935.7 -1.96929 -2.77162 0
M  V30 39784 O 1935.61 -3.02017 -2.12006 0
M  V30 39785 N 1935.65 -0.55485 -2.24237 0
M  V30 39786 C 1935.75 0.367808 -2.9169 0
M  V30 39787 N 1935.7 1.53426 -2.29427 0
M  V30 39788 C 1935.9 0.319148 -4.33828 0
M  V30 39789 C 1935.95 -0.920672 -4.90433 0
M  V30 39790 H 1938.69 -3.41209 -7.98667 0
M  V30 39791 H 1938.96 -2.5837 -6.41742 0
M  V30 39792 H 1938.09 -5.02718 -6.42752 0
M  V30 39793 H 1935.44 -4.11779 -4.09026 0
M  V30 39794 H 1935.16 -2.49661 -6.61772 0
M  V30 39795 H 1934.17 -3.86674 -6.00946 0
M  V30 39796 H 1936 -4.29991 -7.97006 0
M  V30 39797 H 1936.07 -1.00589 -5.98303 0
M  V30 39798 H 1935.97 1.22639 -4.93799 0
M  V30 39799 H 1935.58 1.56819 -1.27167 0
M  V30 39800 H 1935.78 2.41062 -2.83063 0
M  V30 39801 P 1934.13 -6.144 -6.45285 0
M  V30 39802 O 1933.91 -7.54673 -6.86199 0
M  V30 39803 O 1933.34 -5.12391 -7.179 0
M  V30 39804 O 1933.88 -5.99158 -4.88404 0
M  V30 39805 C 1934.82 -6.60062 -3.96313 0
M  V30 39806 C 1934.09 -7.08259 -2.72856 0
M  V30 39807 O 1933.88 -5.9427 -1.83651 0
M  V30 39808 C 1932.69 -7.65087 -2.94749 0
M  V30 39809 O 1932.3 -8.53963 -1.90717 0
M  V30 39810 C 1931.81 -6.41069 -2.90698 0
M  V30 39811 C 1932.52 -5.5528 -1.86931 0
M  V30 39812 N 1932.47 -4.09575 -2.15696 0
M  V30 39813 C 1932.32 -3.24249 -1.08435 0
M  V30 39814 O 1932.23 -3.63946 0.0628747 0
M  V30 39815 N 1932.28 -1.90009 -1.39973 0
M  V30 39816 C 1932.37 -1.34884 -2.65614 0
M  V30 39817 C 1932.52 -2.3145 -3.71736 0
M  V30 39818 C 1932.57 -3.63518 -3.44754 0
M  V30 39819 H 1935.31 -7.45402 -4.45526 0
M  V30 39820 H 1935.58 -5.86062 -3.67208 0
M  V30 39821 H 1934.71 -7.84412 -2.24479 0
M  V30 39822 H 1932.06 -5.73358 -0.888409 0
M  V30 39823 H 1931.78 -5.90877 -3.88583 0
M  V30 39824 H 1930.79 -6.65867 -2.58821 0
M  V30 39825 H 1932.62 -8.16248 -3.92006 0
M  V30 39826 H 1932.69 -4.34551 -4.26383 0
M  V30 39827 P 1930.75 -8.7635 -1.60911 0
M  V30 39828 O 1930.53 -10.1388 -1.11561 0
M  V30 39829 O 1929.96 -8.36503 -2.79617 0
M  V30 39830 O 1930.5 -7.71806 -0.42951 0
M  V30 39831 C 1931.44 -7.67148 0.673689 0
M  V30 39832 C 1930.71 -7.33374 1.95559 0
M  V30 39833 O 1930.5 -5.88721 2.00726 0
M  V30 39834 C 1929.31 -7.92526 2.10483 0
M  V30 39835 O 1928.92 -8.02971 3.47653 0
M  V30 39836 C 1928.43 -6.89602 1.41652 0
M  V30 39837 C 1929.14 -5.59201 1.75185 0
M  V30 39838 N 1929.09 -4.58235 0.662552 0
M  V30 39839 H 1931.93 -8.65116 0.777161 0
M  V30 39840 H 1932.2 -6.90173 0.474152 0
M  V30 39841 H 1931.33 -7.66548 2.79458 0
M  V30 39842 P 1927.37 -8.03563 3.84925 0
M  V30 39843 O 1927.15 -8.85821 5.0569 0
M  V30 39844 O 1926.58 -8.41101 2.65469 0
M  V30 39845 O 1927.12 -6.4965 4.18908 0
M  V30 39846 C 1928.06 -5.80886 5.05289 0
M  V30 39847 C 1927.33 -4.78366 5.89277 0
M  V30 39848 O 1927.12 -3.58302 5.08433 0
M  V30 39849 C 1925.93 -5.16748 6.36559 0
M  V30 39850 O 1925.54 -4.45271 7.53232 0
M  V30 39851 C 1925.05 -4.74572 5.19863 0
M  V30 39852 C 1925.76 -3.49373 4.70338 0
M  V30 39853 N 1925.71 -3.31704 3.22876 0
M  V30 39854 C 1925.56 -2.03326 2.74871 0
M  V30 39855 O 1925.47 -1.06486 3.48076 0
M  V30 39856 N 1925.52 -1.91838 1.37456 0
M  V30 39857 C 1925.61 -2.94295 0.462035 0
M  V30 39858 O 1925.56 -2.71763 -0.752928 0
M  V30 39859 C 1925.76 -4.25064 1.05249 0
M  V30 39860 C 1925.87 -5.39815 0.095697 0
M  V30 39861 C 1925.81 -4.40214 2.39192 0
M  V30 39862 H 1928.55 -6.54063 5.71245 0
M  V30 39863 H 1928.82 -5.30339 4.43905 0
M  V30 39864 H 1927.95 -4.55889 6.76652 0
M  V30 39865 H 1925.3 -2.6167 5.17842 0
M  V30 39866 H 1925.02 -5.52155 4.41878 0
M  V30 39867 H 1924.03 -4.51918 5.53297 0
M  V30 39868 H 1925.86 -6.25055 6.55162 0
M  V30 39869 H 1925.93 -5.39798 2.81523 0
M  V30 39870 H 1924.9 -5.91593 0.0279582 0
M  V30 39871 H 1926.64 -6.10038 0.450573 0
M  V30 39872 H 1926.15 -5.02007 -0.89937 0
M  V30 39873 H 1925.41 -0.995326 1.00435 0
M  V30 39874 P 1923.99 -4.23843 7.83734 0
M  V30 39875 O 1923.77 -4.19407 9.29784 0
M  V30 39876 O 1923.2 -5.24426 7.09156 0
M  V30 39877 O 1923.74 -2.7935 7.20758 0
M  V30 39878 C 1924.68 -1.7299 7.50419 0
M  V30 39879 C 1923.95 -0.406376 7.57911 0
M  V30 39880 O 1923.74 0.0897726 6.21935 0
M  V30 39881 C 1922.55 -0.447224 8.1878 0
M  V30 39882 O 1922.16 0.825065 8.71101 0
M  V30 39883 C 1921.67 -0.783801 6.99623 0
M  V30 39884 C 1922.38 -0.0619192 5.85967 0
M  V30 39885 N 1922.33 -0.7859 4.56281 0
M  V30 39886 H 1925.17 -1.93423 8.4679 0
M  V30 39887 H 1925.44 -1.68181 6.71046 0
M  V30 39888 H 1924.57 0.289041 8.15388 0
M  V30 39889 P 1920.61 1.17771 8.83182 0
M  V30 39890 O 1920.39 2.07206 9.98732 0
M  V30 39891 O 1919.82 -0.0743816 8.81969 0
M  V30 39892 O 1920.36 1.97678 7.474 0
M  V30 39893 C 1921.3 3.01133 7.08783 0
M  V30 39894 C 1920.57 4.1203 6.37546 0
M  V30 39895 O 1920.36 3.72887 4.9796 0
M  V30 39896 C 1919.17 4.45085 6.88694 0
M  V30 39897 O 1918.78 5.78836 6.56315 0
M  V30 39898 C 1918.29 3.47817 6.12078 0
M  V30 39899 C 1919 3.39414 4.77697 0
M  V30 39900 N 1918.95 2.04615 4.15333 0
M  V30 39901 C 1918.8 1.96929 2.77162 0
M  V30 39902 O 1918.71 3.02017 2.12006 0
M  V30 39903 N 1918.75 0.55485 2.24237 0
M  V30 39904 C 1918.85 -0.367808 2.9169 0
M  V30 39905 N 1918.8 -1.53426 2.29427 0
M  V30 39906 C 1919 -0.319148 4.33828 0
M  V30 39907 C 1919.05 0.920672 4.90433 0
M  V30 39908 H 1921.79 3.41209 7.98667 0
M  V30 39909 H 1922.06 2.5837 6.41742 0
M  V30 39910 H 1921.19 5.02718 6.42752 0
M  V30 39911 H 1918.54 4.11779 4.09026 0
M  V30 39912 H 1918.26 2.49661 6.61772 0
M  V30 39913 H 1917.27 3.86674 6.00946 0
M  V30 39914 H 1919.1 4.29991 7.97006 0
M  V30 39915 H 1919.17 1.00589 5.98303 0
M  V30 39916 H 1919.07 -1.22639 4.93799 0
M  V30 39917 H 1918.68 -1.56819 1.27167 0
M  V30 39918 H 1918.88 -2.41062 2.83063 0
M  V30 39919 P 1917.23 6.144 6.45285 0
M  V30 39920 O 1917.01 7.54673 6.86199 0
M  V30 39921 O 1916.44 5.12391 7.179 0
M  V30 39922 O 1916.98 5.99158 4.88404 0
M  V30 39923 C 1917.92 6.60234 3.96415 0
M  V30 39924 C 1917.19 7.08259 2.72856 0
M  V30 39925 O 1916.98 5.9427 1.83651 0
M  V30 39926 C 1915.79 7.64886 2.9555 0
M  V30 39927 O 1915.4 8.53963 1.90717 0
M  V30 39928 C 1914.91 6.4116 2.90739 0
M  V30 39929 C 1915.62 5.55375 1.86963 0
M  V30 39930 N 1915.57 4.09448 2.16152 0
M  V30 39931 H 1918.41 7.45574 4.45629 0
M  V30 39932 H 1918.68 5.85864 3.679 0
M  V30 39933 H 1917.81 7.84412 2.24479 0
M  V30 39934 H 1915.16 5.73457 0.888562 0
M  V30 39935 H 1914.88 5.90877 3.88583 0
M  V30 39936 H 1913.89 6.6596 2.58858 0
M  V30 39937 H 1915.72 8.16339 3.92049 0
M  V30 39938 P 1913.85 8.7635 1.60911 0
M  V30 39939 O 1913.63 10.1388 1.11561 0
M  V30 39940 O 1913.06 8.36503 2.79617 0
M  V30 39941 O 1913.6 7.71806 0.42951 0
M  V30 39942 C 1914.54 7.66948 -0.673514 0
M  V30 39943 C 1913.81 7.33374 -1.95559 0
M  V30 39944 O 1913.6 5.88721 -2.00726 0
M  V30 39945 C 1912.41 7.92218 -2.1125 0
M  V30 39946 O 1912.02 8.02971 -3.47653 0
M  V30 39947 C 1911.53 6.89504 -1.41631 0
M  V30 39948 C 1912.24 5.59106 -1.75155 0
M  V30 39949 N 1912.19 4.58136 -0.662409 0
M  V30 39950 C 1912.04 3.26059 -1.02863 0
M  V30 39951 O 1911.95 2.90743 -2.19009 0
M  V30 39952 N 1912 2.35995 0.0155585 0
M  V30 39953 C 1912.09 2.65248 1.35603 0
M  V30 39954 O 1912.04 1.75605 2.20651 0
M  V30 39955 C 1912.24 4.05747 1.64698 0
M  V30 39956 C 1912.35 4.42345 3.09553 0
M  V30 39957 C 1912.29 4.96734 0.652411 0
M  V30 39958 H 1915.03 8.64917 -0.776982 0
M  V30 39959 H 1915.3 6.89974 -0.474015 0
M  V30 39960 H 1914.43 7.66548 -2.79458 0
M  V30 39961 H 1911.78 5.16076 -2.65138 0
M  V30 39962 H 1911.5 7.06433 -0.329384 0
M  V30 39963 H 1910.51 6.90829 -1.81996 0
M  V30 39964 H 1912.34 8.90774 -1.62639 0
M  V30 39965 H 1912.41 6.02181 0.895285 0
M  V30 39966 H 1911.38 4.80252 3.45468 0
M  V30 39967 H 1913.12 5.20015 3.22119 0
M  V30 39968 H 1912.63 3.53269 3.67833 0
M  V30 39969 H 1911.89 1.39558 -0.227499 0
M  V30 39970 P 1910.47 8.03563 -3.84925 0
M  V30 39971 O 1910.25 8.85821 -5.0569 0
M  V30 39972 O 1909.68 8.41101 -2.65469 0
M  V30 39973 O 1910.22 6.4965 -4.18908 0
M  V30 39974 C 1911.16 5.81037 -5.05421 0
M  V30 39975 C 1910.43 4.78366 -5.89277 0
M  V30 39976 O 1910.22 3.58302 -5.08433 0
M  V30 39977 C 1909.03 5.17448 -6.36119 0
M  V30 39978 O 1908.64 4.45271 -7.53232 0
M  V30 39979 C 1908.15 4.74639 -5.19936 0
M  V30 39980 C 1908.86 3.49432 -4.70418 0
M  V30 39981 N 1908.81 3.31776 -3.22945 0
M  V30 39982 C 1908.89 4.27147 -2.23315 0
M  V30 39983 N 1908.81 3.78447 -1.02186 0
M  V30 39984 C 1908.67 2.41001 -1.21732 0
M  V30 39985 C 1908.54 1.36111 -0.27694 0
M  V30 39986 N 1908.42 0.113683 -0.912949 0
M  V30 39987 C 1908.42 -0.0846396 -2.27943 0
M  V30 39988 N 1908.29 -1.34737 -2.6916 0
M  V30 39989 N 1908.55 0.902521 -3.16379 0
M  V30 39990 C 1908.67 2.11937 -2.56849 0
M  V30 39991 H 1911.65 6.54213 -5.71376 0
M  V30 39992 H 1911.92 5.30492 -4.44033 0
M  V30 39993 H 1911.05 4.55889 -6.76652 0
M  V30 39994 P 1907.09 4.23843 -7.83734 0
M  V30 39995 O 1906.87 4.19407 -9.29784 0
M  V30 39996 O 1906.3 5.24426 -7.09156 0
M  V30 39997 O 1906.84 2.7935 -7.20758 0
M  V30 39998 C 1907.78 1.7299 -7.50419 0
M  V30 39999 C 1907.05 0.406376 -7.57911 0
M  V30 40000 O 1906.84 -0.0897726 -6.21935 0
M  V30 40001 C 1905.65 0.447224 -8.1878 0
M  V30 40002 O 1905.26 -0.825065 -8.71101 0
M  V30 40003 C 1904.77 0.783801 -6.99623 0
M  V30 40004 C 1905.48 0.0619192 -5.85967 0
M  V30 40005 N 1905.43 0.7859 -4.56281 0
M  V30 40006 C 1905.51 2.14308 -4.31736 0
M  V30 40007 N 1905.43 2.46106 -3.05116 0
M  V30 40008 C 1905.29 1.23422 -2.4014 0
M  V30 40009 C 1905.16 0.938381 -1.02409 0
M  V30 40010 N 1905.04 -0.444647 -0.805413 0
M  V30 40011 C 1905.04 -1.40829 -1.79435 0
M  V30 40012 N 1904.91 -2.67213 -1.38558 0
M  V30 40013 N 1905.17 -1.12947 -3.09005 0
M  V30 40014 C 1905.29 0.204887 -3.32369 0
M  V30 40015 H 1908.27 1.93423 -8.4679 0
M  V30 40016 H 1908.54 1.68181 -6.71046 0
M  V30 40017 H 1907.67 -0.289041 -8.15388 0
M  V30 40018 P 1903.71 -1.17771 -8.83182 0
M  V30 40019 O 1903.49 -2.07206 -9.98732 0
M  V30 40020 O 1902.92 0.0743816 -8.81969 0
M  V30 40021 O 1903.46 -1.97652 -7.47304 0
M  V30 40022 C 1904.4 -3.01055 -7.08599 0
M  V30 40023 C 1903.67 -4.12613 -6.37049 0
M  V30 40024 O 1903.46 -3.72827 -4.97879 0
M  V30 40025 C 1902.27 -4.45719 -6.88164 0
M  V30 40026 O 1901.88 -5.7877 -6.5624 0
M  V30 40027 C 1901.39 -3.47768 -6.11991 0
M  V30 40028 C 1902.1 -3.39356 -4.77615 0
M  V30 40029 N 1902.05 -2.04571 -4.15244 0
M  V30 40030 C 1901.9 -1.98587 -2.78314 0
M  V30 40031 O 1901.81 -2.98134 -2.08835 0
M  V30 40032 N 1901.86 -0.714467 -2.24925 0
M  V30 40033 C 1901.95 0.470001 -2.94169 0
M  V30 40034 O 1901.9 1.55587 -2.35195 0
M  V30 40035 C 1902.1 0.312541 -4.36783 0
M  V30 40036 C 1902.21 1.57711 -5.16352 0
M  V30 40037 C 1902.15 -0.914512 -4.92583 0
M  V30 40038 H 1904.89 -3.41169 -7.98575 0
M  V30 40039 H 1905.16 -2.58295 -6.41556 0
M  V30 40040 H 1904.29 -5.02657 -6.42673 0
M  V30 40041 H 1901.64 -4.11637 -4.08885 0
M  V30 40042 H 1901.36 -2.49626 -6.61679 0
M  V30 40043 H 1900.37 -3.86566 -6.00778 0
M  V30 40044 H 1902.2 -4.29943 -7.96918 0
M  V30 40045 H 1902.27 -1.00937 -6.00374 0
M  V30 40046 H 1901.24 1.80153 -5.63503 0
M  V30 40047 H 1902.98 1.4566 -5.94104 0
M  V30 40048 H 1902.49 2.40664 -4.49645 0
M  V30 40049 H 1901.75 -0.647622 -1.25697 0
M  V30 40050 P 1900.33 -6.144 -6.45285 0
M  V30 40051 O 1900.11 -7.54673 -6.86199 0
M  V30 40052 O 1899.54 -5.12391 -7.179 0
M  V30 40053 O 1900.08 -5.99158 -4.88404 0
M  V30 40054 C 1901.02 -6.60234 -3.96415 0
M  V30 40055 C 1900.29 -7.08259 -2.72856 0
M  V30 40056 O 1900.08 -5.9427 -1.83651 0
M  V30 40057 C 1898.89 -7.64886 -2.9555 0
M  V30 40058 O 1898.5 -8.53963 -1.90717 0
M  V30 40059 C 1898.01 -6.4116 -2.90739 0
M  V30 40060 C 1898.72 -5.55375 -1.86963 0
M  V30 40061 N 1898.67 -4.09664 -2.15742 0
M  V30 40062 H 1901.51 -7.45574 -4.45629 0
M  V30 40063 H 1901.78 -5.86232 -3.67314 0
M  V30 40064 H 1900.91 -7.84412 -2.24479 0
M  V30 40065 P 1896.95 -8.7635 -1.60911 0
M  V30 40066 O 1896.73 -10.1388 -1.11561 0
M  V30 40067 O 1896.16 -8.36503 -2.79617 0
M  V30 40068 O 1896.7 -7.71806 -0.42951 0
M  V30 40069 C 1897.64 -7.67148 0.673689 0
M  V30 40070 C 1896.91 -7.33374 1.95559 0
M  V30 40071 O 1896.7 -5.88721 2.00726 0
M  V30 40072 C 1895.51 -7.92526 2.10483 0
M  V30 40073 O 1895.12 -8.02971 3.47653 0
M  V30 40074 C 1894.63 -6.89602 1.41652 0
M  V30 40075 C 1895.34 -5.59201 1.75185 0
M  V30 40076 N 1895.29 -4.58235 0.662552 0
M  V30 40077 H 1898.13 -8.65116 0.777161 0
M  V30 40078 H 1898.4 -6.90173 0.474152 0
M  V30 40079 H 1897.53 -7.66548 2.79458 0
M  V30 40080 P 1893.57 -8.03563 3.84925 0
M  V30 40081 O 1893.35 -8.85821 5.0569 0
M  V30 40082 O 1892.78 -8.41101 2.65469 0
M  V30 40083 O 1893.32 -6.4965 4.18908 0
M  V30 40084 C 1894.26 -5.81037 5.05421 0
M  V30 40085 C 1893.53 -4.78366 5.89277 0
M  V30 40086 O 1893.32 -3.58302 5.08433 0
M  V30 40087 C 1892.13 -5.17448 6.36119 0
M  V30 40088 O 1891.74 -4.45271 7.53232 0
M  V30 40089 C 1891.25 -4.74639 5.19936 0
M  V30 40090 C 1891.96 -3.49432 4.70418 0
M  V30 40091 N 1891.91 -3.32099 3.22613 0
M  V30 40092 H 1894.75 -6.54213 5.71376 0
M  V30 40093 H 1895.02 -5.30936 4.43503 0
M  V30 40094 H 1894.15 -4.55889 6.76652 0
M  V30 40095 H 1891.5 -2.61715 5.17932 0
M  V30 40096 H 1891.22 -5.52155 4.41878 0
M  V30 40097 H 1890.23 -4.51981 5.53374 0
M  V30 40098 H 1892.06 -6.25124 6.55234 0
M  V30 40099 P 1890.19 -4.23843 7.83734 0
M  V30 40100 O 1889.97 -4.19407 9.29784 0
M  V30 40101 O 1889.4 -5.24426 7.09156 0
M  V30 40102 O 1889.94 -2.7935 7.20758 0
M  V30 40103 C 1890.88 -1.72945 7.50224 0
M  V30 40104 C 1890.15 -0.406376 7.57911 0
M  V30 40105 O 1889.94 0.0897726 6.21935 0
M  V30 40106 C 1888.75 -0.438983 8.18724 0
M  V30 40107 O 1888.36 0.825065 8.71101 0
M  V30 40108 C 1887.87 -0.783689 6.99524 0
M  V30 40109 C 1888.58 -0.0619086 5.85867 0
M  V30 40110 N 1888.53 -0.78573 4.56183 0
M  V30 40111 C 1888.38 -0.0292889 3.41887 0
M  V30 40112 O 1888.29 1.18445 3.4419 0
M  V30 40113 N 1888.34 -0.744061 2.23964 0
M  V30 40114 C 1888.43 -2.10932 2.10362 0
M  V30 40115 C 1888.58 -2.8202 3.34994 0
M  V30 40116 C 1888.63 -2.15547 4.52261 0
M  V30 40117 H 1891.37 -1.93379 8.46595 0
M  V30 40118 H 1891.64 -1.68132 6.70852 0
M  V30 40119 H 1890.77 0.289041 8.15388 0
M  V30 40120 H 1888.12 0.926847 5.72749 0
M  V30 40121 H 1887.84 -1.86973 6.82036 0
M  V30 40122 H 1886.85 -0.403896 7.13257 0
M  V30 40123 H 1888.68 -1.20585 8.97435 0
M  V30 40124 H 1888.75 -2.71231 5.45042 0
M  V30 40125 P 1886.81 1.17771 8.83182 0
M  V30 40126 O 1886.59 2.07206 9.98732 0
M  V30 40127 O 1886.02 -0.0743816 8.81969 0
M  V30 40128 O 1886.56 1.97652 7.47304 0
M  V30 40129 C 1887.5 3.01133 7.08783 0
M  V30 40130 C 1886.77 4.12613 6.37049 0
M  V30 40131 O 1886.56 3.72827 4.97879 0
M  V30 40132 C 1885.37 4.45085 6.88694 0
M  V30 40133 O 1884.98 5.7877 6.5624 0
M  V30 40134 C 1884.49 3.47817 6.12078 0
M  V30 40135 C 1885.2 3.39414 4.77697 0
M  V30 40136 N 1885.15 2.04615 4.15333 0
M  V30 40137 C 1885.23 0.803897 4.75249 0
M  V30 40138 N 1885.15 -0.197615 3.91502 0
M  V30 40139 C 1885.01 0.413002 2.66823 0
M  V30 40140 C 1884.88 -0.157221 1.38007 0
M  V30 40141 N 1884.76 0.833136 0.390236 0
M  V30 40142 C 1884.76 2.19402 0.623885 0
M  V30 40143 N 1884.63 2.97622 -0.449677 0
M  V30 40144 N 1884.89 2.73005 1.83601 0
M  V30 40145 C 1885.01 1.78786 2.80935 0
M  V30 40146 H 1887.99 3.41248 7.98759 0
M  V30 40147 H 1888.26 2.5837 6.41742 0
M  V30 40148 H 1887.39 5.02657 6.42673 0
M  V30 40149 P 1883.43 6.144 6.45285 0
M  V30 40150 O 1883.21 7.54673 6.86199 0
M  V30 40151 O 1882.64 5.12391 7.179 0
M  V30 40152 O 1883.18 5.99158 4.88404 0
M  V30 40153 C 1884.12 6.60234 3.96415 0
M  V30 40154 C 1883.39 7.08259 2.72856 0
M  V30 40155 O 1883.18 5.9427 1.83651 0
M  V30 40156 C 1881.99 7.64886 2.9555 0
M  V30 40157 O 1881.6 8.53963 1.90717 0
M  V30 40158 C 1881.11 6.4116 2.90739 0
M  V30 40159 C 1881.82 5.55375 1.86963 0
M  V30 40160 N 1881.77 4.09448 2.16152 0
M  V30 40161 H 1884.61 7.45574 4.45629 0
M  V30 40162 H 1884.88 5.85864 3.679 0
M  V30 40163 H 1884.01 7.84412 2.24479 0
M  V30 40164 H 1881.36 5.73457 0.888562 0
M  V30 40165 H 1881.08 5.90877 3.88583 0
M  V30 40166 H 1880.09 6.6596 2.58858 0
M  V30 40167 H 1881.92 8.16339 3.92049 0
M  V30 40168 P 1880.05 8.7635 1.60911 0
M  V30 40169 O 1879.83 10.1388 1.11561 0
M  V30 40170 O 1879.26 8.36503 2.79617 0
M  V30 40171 O 1879.8 7.71806 0.42951 0
M  V30 40172 C 1880.74 7.67148 -0.673689 0
M  V30 40173 C 1880.01 7.33374 -1.95559 0
M  V30 40174 O 1879.8 5.88721 -2.00726 0
M  V30 40175 C 1878.61 7.92526 -2.10483 0
M  V30 40176 O 1878.22 8.02971 -3.47653 0
M  V30 40177 C 1877.73 6.89602 -1.41652 0
M  V30 40178 C 1878.44 5.59201 -1.75185 0
M  V30 40179 N 1878.39 4.58235 -0.662552 0
M  V30 40180 H 1881.23 8.65116 -0.777161 0
M  V30 40181 H 1881.5 6.90173 -0.474152 0
M  V30 40182 H 1880.63 7.66548 -2.79458 0
M  V30 40183 P 1876.67 8.03563 -3.84925 0
M  V30 40184 O 1876.45 8.85821 -5.0569 0
M  V30 40185 O 1875.88 8.41101 -2.65469 0
M  V30 40186 O 1876.42 6.4965 -4.18908 0
M  V30 40187 C 1877.36 5.81037 -5.05421 0
M  V30 40188 C 1876.63 4.78366 -5.89277 0
M  V30 40189 O 1876.42 3.58302 -5.08433 0
M  V30 40190 C 1875.23 5.17448 -6.36119 0
M  V30 40191 O 1874.84 4.45271 -7.53232 0
M  V30 40192 C 1874.35 4.74639 -5.19936 0
M  V30 40193 C 1875.06 3.49432 -4.70418 0
M  V30 40194 N 1875.01 3.32099 -3.22613 0
M  V30 40195 H 1877.85 6.54213 -5.71376 0
M  V30 40196 H 1878.12 5.30936 -4.43503 0
M  V30 40197 H 1877.25 4.55889 -6.76652 0
M  V30 40198 H 1874.6 2.61715 -5.17932 0
M  V30 40199 H 1874.32 5.52155 -4.41878 0
M  V30 40200 H 1873.33 4.51981 -5.53374 0
M  V30 40201 H 1875.16 6.25124 -6.55234 0
M  V30 40202 P 1873.29 4.23843 -7.83734 0
M  V30 40203 O 1873.07 4.19407 -9.29784 0
M  V30 40204 O 1872.5 5.24426 -7.09156 0
M  V30 40205 O 1873.04 2.7935 -7.20758 0
M  V30 40206 C 1873.98 1.7299 -7.50419 0
M  V30 40207 C 1873.25 0.406376 -7.57911 0
M  V30 40208 O 1873.04 -0.0897726 -6.21935 0
M  V30 40209 C 1871.85 0.447224 -8.1878 0
M  V30 40210 O 1871.46 -0.825065 -8.71101 0
M  V30 40211 C 1870.97 0.783801 -6.99623 0
M  V30 40212 C 1871.68 0.0619192 -5.85967 0
M  V30 40213 N 1871.63 0.790462 -4.56202 0
M  V30 40214 H 1874.47 1.93423 -8.4679 0
M  V30 40215 H 1874.74 1.68852 -6.70877 0
M  V30 40216 H 1873.87 -0.289041 -8.15388 0
M  V30 40217 H 1871.22 -0.927006 -5.72848 0
M  V30 40218 H 1870.94 1.86973 -6.82036 0
M  V30 40219 H 1869.95 0.403953 -7.13357 0
M  V30 40220 H 1871.78 1.20599 -8.97534 0
M  V30 40221 P 1869.91 -1.17771 -8.83182 0
M  V30 40222 O 1869.69 -2.07206 -9.98732 0
M  V30 40223 O 1869.12 0.0743816 -8.81969 0
M  V30 40224 O 1869.66 -1.97652 -7.47304 0
M  V30 40225 C 1870.6 -3.01133 -7.08783 0
M  V30 40226 C 1869.87 -4.12613 -6.37049 0
M  V30 40227 O 1869.66 -3.72827 -4.97879 0
M  V30 40228 C 1868.47 -4.45085 -6.88694 0
M  V30 40229 O 1868.08 -5.7877 -6.5624 0
M  V30 40230 C 1867.59 -3.47817 -6.12078 0
M  V30 40231 C 1868.3 -3.39414 -4.77697 0
M  V30 40232 N 1868.25 -2.04199 -4.15538 0
M  V30 40233 H 1871.09 -3.41248 -7.98759 0
M  V30 40234 H 1871.36 -2.57728 -6.42 0
M  V30 40235 H 1870.49 -5.02657 -6.42673 0
M  V30 40236 H 1867.84 -4.11708 -4.08956 0
M  V30 40237 H 1867.56 -2.49626 -6.61679 0
M  V30 40238 H 1866.57 -3.8662 -6.00862 0
M  V30 40239 H 1868.4 -4.29991 -7.97006 0
M  V30 40240 P 1866.53 -6.144 -6.45285 0
M  V30 40241 O 1866.31 -7.54673 -6.86199 0
M  V30 40242 O 1865.74 -5.12391 -7.179 0
M  V30 40243 O 1866.28 -5.99158 -4.88404 0
M  V30 40244 C 1867.22 -6.60234 -3.96415 0
M  V30 40245 C 1866.49 -7.08259 -2.72856 0
M  V30 40246 O 1866.28 -5.9427 -1.83651 0
M  V30 40247 C 1865.09 -7.64886 -2.9555 0
M  V30 40248 O 1864.7 -8.53963 -1.90717 0
M  V30 40249 C 1864.21 -6.4116 -2.90739 0
M  V30 40250 C 1864.92 -5.55375 -1.86963 0
M  V30 40251 N 1864.87 -4.09448 -2.16152 0
M  V30 40252 H 1867.71 -7.45574 -4.45629 0
M  V30 40253 H 1867.98 -5.85864 -3.679 0
M  V30 40254 H 1867.11 -7.84412 -2.24479 0
M  V30 40255 H 1864.46 -5.73457 -0.888562 0
M  V30 40256 H 1864.18 -5.90877 -3.88583 0
M  V30 40257 H 1863.19 -6.6596 -2.58858 0
M  V30 40258 H 1865.02 -8.16339 -3.92049 0
M  V30 40259 P 1863.15 -8.7635 -1.60911 0
M  V30 40260 O 1862.93 -10.1388 -1.11561 0
M  V30 40261 O 1862.36 -8.36503 -2.79617 0
M  V30 40262 O 1862.9 -7.71806 -0.42951 0
M  V30 40263 C 1863.84 -7.67148 0.673689 0
M  V30 40264 C 1863.11 -7.33374 1.95559 0
M  V30 40265 O 1862.9 -5.88721 2.00726 0
M  V30 40266 C 1861.71 -7.92526 2.10483 0
M  V30 40267 O 1861.32 -8.02971 3.47653 0
M  V30 40268 C 1860.83 -6.89602 1.41652 0
M  V30 40269 C 1861.54 -5.59201 1.75185 0
M  V30 40270 N 1861.49 -4.58301 0.657969 0
M  V30 40271 H 1864.33 -8.65116 0.777161 0
M  V30 40272 H 1864.6 -6.9022 0.46725 0
M  V30 40273 H 1863.73 -7.66548 2.79458 0
M  V30 40274 H 1861.08 -5.16165 2.65183 0
M  V30 40275 H 1860.8 -7.06433 0.329384 0
M  V30 40276 H 1859.81 -6.90926 1.82021 0
M  V30 40277 H 1861.64 -8.90873 1.62657 0
M  V30 40278 P 1859.77 -8.03563 3.84925 0
M  V30 40279 O 1859.55 -8.85821 5.0569 0
M  V30 40280 O 1858.98 -8.41101 2.65469 0
M  V30 40281 O 1859.52 -6.4965 4.18908 0
M  V30 40282 C 1860.46 -5.81037 5.05421 0
M  V30 40283 C 1859.73 -4.78366 5.89277 0
M  V30 40284 O 1859.52 -3.58302 5.08433 0
M  V30 40285 C 1858.33 -5.17448 6.36119 0
M  V30 40286 O 1857.94 -4.45271 7.53232 0
M  V30 40287 C 1857.45 -4.74639 5.19936 0
M  V30 40288 C 1858.16 -3.49432 4.70418 0
M  V30 40289 N 1858.11 -3.32099 3.22613 0
M  V30 40290 H 1860.95 -6.54213 5.71376 0
M  V30 40291 H 1861.22 -5.30936 4.43503 0
M  V30 40292 H 1860.35 -4.55889 6.76652 0
M  V30 40293 H 1857.7 -2.61715 5.17932 0
M  V30 40294 H 1857.42 -5.52155 4.41878 0
M  V30 40295 H 1856.43 -4.51981 5.53374 0
M  V30 40296 H 1858.26 -6.25124 6.55234 0
M  V30 40297 P 1856.39 -4.23843 7.83734 0
M  V30 40298 O 1856.17 -4.19407 9.29784 0
M  V30 40299 O 1855.6 -5.24426 7.09156 0
M  V30 40300 O 1856.14 -2.7935 7.20758 0
M  V30 40301 C 1857.08 -1.7299 7.50419 0
M  V30 40302 C 1856.35 -0.406376 7.57911 0
M  V30 40303 O 1856.14 0.0897726 6.21935 0
M  V30 40304 C 1854.95 -0.447224 8.1878 0
M  V30 40305 O 1854.56 0.825065 8.71101 0
M  V30 40306 C 1854.07 -0.783801 6.99623 0
M  V30 40307 C 1854.78 -0.0619192 5.85967 0
M  V30 40308 N 1854.73 -0.7859 4.56281 0
M  V30 40309 H 1857.57 -1.93423 8.4679 0
M  V30 40310 H 1857.84 -1.68181 6.71046 0
M  V30 40311 H 1856.97 0.289041 8.15388 0
M  V30 40312 P 1853.01 1.17771 8.83182 0
M  V30 40313 O 1852.79 2.07206 9.98732 0
M  V30 40314 O 1852.22 -0.0743816 8.81969 0
M  V30 40315 O 1852.76 1.97652 7.47304 0
M  V30 40316 C 1853.7 3.01133 7.08783 0
M  V30 40317 C 1852.97 4.12613 6.37049 0
M  V30 40318 O 1852.76 3.72827 4.97879 0
M  V30 40319 C 1851.57 4.45085 6.88694 0
M  V30 40320 O 1851.18 5.7877 6.5624 0
M  V30 40321 C 1850.69 3.47817 6.12078 0
M  V30 40322 C 1851.4 3.39414 4.77697 0
M  V30 40323 N 1851.35 2.04615 4.15333 0
M  V30 40324 H 1854.19 3.41248 7.98759 0
M  V30 40325 H 1854.46 2.5837 6.41742 0
M  V30 40326 H 1853.59 5.02657 6.42673 0
M  V30 40327 P 1849.63 6.144 6.45285 0
M  V30 40328 O 1849.41 7.54673 6.86199 0
M  V30 40329 O 1848.84 5.12391 7.179 0
M  V30 40330 O 1849.38 5.99158 4.88404 0
M  V30 40331 C 1850.32 6.60062 3.96313 0
M  V30 40332 C 1849.59 7.08259 2.72856 0
M  V30 40333 O 1849.38 5.9427 1.83651 0
M  V30 40334 C 1848.19 7.65087 2.94749 0
M  V30 40335 O 1847.8 8.53963 1.90717 0
M  V30 40336 C 1847.31 6.41069 2.90698 0
M  V30 40337 C 1848.02 5.5528 1.86931 0
M  V30 40338 N 1847.97 4.09575 2.15696 0
M  V30 40339 C 1847.82 3.24249 1.08435 0
M  V30 40340 O 1847.73 3.63946 -0.0628747 0
M  V30 40341 N 1847.78 1.90009 1.39973 0
M  V30 40342 C 1847.87 1.34884 2.65614 0
M  V30 40343 O 1847.82 0.123716 2.81728 0
M  V30 40344 C 1848.02 2.3145 3.71736 0
M  V30 40345 C 1848.13 1.75913 5.10438 0
M  V30 40346 C 1848.07 3.63518 3.44754 0
M  V30 40347 H 1850.81 7.45402 4.45526 0
M  V30 40348 H 1851.08 5.86062 3.67208 0
M  V30 40349 H 1850.21 7.84412 2.24479 0
M  V30 40350 H 1847.56 5.73358 0.888409 0
M  V30 40351 H 1847.28 5.90877 3.88583 0
M  V30 40352 H 1846.29 6.65867 2.58821 0
M  V30 40353 H 1848.12 8.16248 3.92006 0
M  V30 40354 H 1848.19 4.34551 4.26383 0
M  V30 40355 H 1847.16 1.85471 5.61775 0
M  V30 40356 H 1848.9 2.31364 5.66257 0
M  V30 40357 H 1848.41 0.695936 5.05229 0
M  V30 40358 H 1847.67 1.26277 0.63625 0
M  V30 40359 P 1846.25 8.7635 1.60911 0
M  V30 40360 O 1846.03 10.1388 1.11561 0
M  V30 40361 O 1845.46 8.36503 2.79617 0
M  V30 40362 O 1846 7.71806 0.42951 0
M  V30 40363 C 1846.94 7.67148 -0.673689 0
M  V30 40364 C 1846.21 7.33374 -1.95559 0
M  V30 40365 O 1846 5.88721 -2.00726 0
M  V30 40366 C 1844.81 7.92526 -2.10483 0
M  V30 40367 O 1844.42 8.02971 -3.47653 0
M  V30 40368 C 1843.93 6.89602 -1.41652 0
M  V30 40369 C 1844.64 5.59201 -1.75185 0
M  V30 40370 N 1844.59 4.58235 -0.662552 0
M  V30 40371 H 1847.43 8.65116 -0.777161 0
M  V30 40372 H 1847.7 6.90173 -0.474152 0
M  V30 40373 H 1846.83 7.66548 -2.79458 0
M  V30 40374 P 1842.87 8.03563 -3.84925 0
M  V30 40375 O 1842.65 8.85821 -5.0569 0
M  V30 40376 O 1842.08 8.41101 -2.65469 0
M  V30 40377 O 1842.62 6.4965 -4.18908 0
M  V30 40378 C 1843.56 5.80886 -5.05289 0
M  V30 40379 C 1842.83 4.78366 -5.89277 0
M  V30 40380 O 1842.62 3.58302 -5.08433 0
M  V30 40381 C 1841.43 5.16748 -6.36559 0
M  V30 40382 O 1841.04 4.45271 -7.53232 0
M  V30 40383 C 1840.55 4.74572 -5.19863 0
M  V30 40384 C 1841.26 3.49373 -4.70338 0
M  V30 40385 N 1841.21 3.31704 -3.22876 0
M  V30 40386 C 1841.06 2.03326 -2.74871 0
M  V30 40387 O 1840.97 1.06486 -3.48076 0
M  V30 40388 N 1841.02 1.91838 -1.37456 0
M  V30 40389 C 1841.11 2.94295 -0.462035 0
M  V30 40390 O 1841.06 2.71763 0.752928 0
M  V30 40391 C 1841.26 4.25064 -1.05249 0
M  V30 40392 C 1841.37 5.39815 -0.095697 0
M  V30 40393 C 1841.31 4.40214 -2.39192 0
M  V30 40394 H 1844.05 6.54063 -5.71245 0
M  V30 40395 H 1844.32 5.30339 -4.43905 0
M  V30 40396 H 1843.45 4.55889 -6.76652 0
M  V30 40397 H 1840.8 2.6167 -5.17842 0
M  V30 40398 H 1840.52 5.52155 -4.41878 0
M  V30 40399 H 1839.53 4.51918 -5.53297 0
M  V30 40400 H 1841.36 6.25055 -6.55162 0
M  V30 40401 H 1841.43 5.39798 -2.81523 0
M  V30 40402 H 1840.4 5.91593 -0.0279582 0
M  V30 40403 H 1842.14 6.10038 -0.450573 0
M  V30 40404 H 1841.65 5.02007 0.89937 0
M  V30 40405 H 1840.91 0.995326 -1.00435 0
M  V30 40406 P 1839.49 4.23843 -7.83734 0
M  V30 40407 O 1839.27 4.19407 -9.29784 0
M  V30 40408 O 1838.7 5.24426 -7.09156 0
M  V30 40409 O 1839.24 2.7935 -7.20758 0
M  V30 40410 C 1840.18 1.7299 -7.50419 0
M  V30 40411 C 1839.45 0.406376 -7.57911 0
M  V30 40412 O 1839.24 -0.0897726 -6.21935 0
M  V30 40413 C 1838.05 0.447224 -8.1878 0
M  V30 40414 O 1837.66 -0.825065 -8.71101 0
M  V30 40415 C 1837.17 0.783801 -6.99623 0
M  V30 40416 C 1837.88 0.0619192 -5.85967 0
M  V30 40417 N 1837.83 0.7859 -4.56281 0
M  V30 40418 H 1840.67 1.93423 -8.4679 0
M  V30 40419 H 1840.94 1.68181 -6.71046 0
M  V30 40420 H 1840.07 -0.289041 -8.15388 0
M  V30 40421 P 1836.11 -1.17771 -8.83182 0
M  V30 40422 O 1835.89 -2.07206 -9.98732 0
M  V30 40423 O 1835.32 0.0743816 -8.81969 0
M  V30 40424 O 1835.86 -1.97652 -7.47304 0
M  V30 40425 C 1836.8 -3.01055 -7.08599 0
M  V30 40426 C 1836.07 -4.12613 -6.37049 0
M  V30 40427 O 1835.86 -3.72827 -4.97879 0
M  V30 40428 C 1834.67 -4.45719 -6.88164 0
M  V30 40429 O 1834.28 -5.7877 -6.5624 0
M  V30 40430 C 1833.79 -3.47768 -6.11991 0
M  V30 40431 C 1834.5 -3.39356 -4.77615 0
M  V30 40432 N 1834.45 -2.04571 -4.15244 0
M  V30 40433 C 1834.3 -1.98587 -2.78314 0
M  V30 40434 O 1834.21 -2.98134 -2.08835 0
M  V30 40435 N 1834.26 -0.714467 -2.24925 0
M  V30 40436 C 1834.35 0.470001 -2.94169 0
M  V30 40437 O 1834.3 1.55587 -2.35195 0
M  V30 40438 C 1834.5 0.312541 -4.36783 0
M  V30 40439 C 1834.61 1.57711 -5.16352 0
M  V30 40440 C 1834.55 -0.914512 -4.92583 0
M  V30 40441 H 1837.29 -3.41169 -7.98575 0
M  V30 40442 H 1837.56 -2.58295 -6.41556 0
M  V30 40443 H 1836.69 -5.02657 -6.42673 0
M  V30 40444 H 1834.04 -4.11637 -4.08885 0
M  V30 40445 H 1833.76 -2.49626 -6.61679 0
M  V30 40446 H 1832.77 -3.86566 -6.00778 0
M  V30 40447 H 1834.6 -4.29943 -7.96918 0
M  V30 40448 H 1834.67 -1.00937 -6.00374 0
M  V30 40449 H 1833.64 1.80153 -5.63503 0
M  V30 40450 H 1835.38 1.4566 -5.94104 0
M  V30 40451 H 1834.89 2.40664 -4.49645 0
M  V30 40452 H 1834.15 -0.647622 -1.25697 0
M  V30 40453 P 1832.73 -6.144 -6.45285 0
M  V30 40454 O 1832.51 -7.54673 -6.86199 0
M  V30 40455 O 1831.94 -5.12391 -7.179 0
M  V30 40456 O 1832.48 -5.99158 -4.88404 0
M  V30 40457 C 1833.42 -6.60234 -3.96415 0
M  V30 40458 C 1832.69 -7.08259 -2.72856 0
M  V30 40459 O 1832.48 -5.9427 -1.83651 0
M  V30 40460 C 1831.29 -7.64886 -2.9555 0
M  V30 40461 O 1830.9 -8.53963 -1.90717 0
M  V30 40462 C 1830.41 -6.4116 -2.90739 0
M  V30 40463 C 1831.12 -5.55375 -1.86963 0
M  V30 40464 N 1831.07 -4.09664 -2.15742 0
M  V30 40465 H 1833.91 -7.45574 -4.45629 0
M  V30 40466 H 1834.18 -5.86232 -3.67314 0
M  V30 40467 H 1833.31 -7.84412 -2.24479 0
M  V30 40468 P 1829.35 -8.7635 -1.60911 0
M  V30 40469 O 1829.13 -10.1388 -1.11561 0
M  V30 40470 O 1828.56 -8.36503 -2.79617 0
M  V30 40471 O 1829.1 -7.71806 -0.42951 0
M  V30 40472 C 1830.04 -7.67148 0.673689 0
M  V30 40473 C 1829.31 -7.33374 1.95559 0
M  V30 40474 O 1829.1 -5.88721 2.00726 0
M  V30 40475 C 1827.91 -7.92526 2.10483 0
M  V30 40476 O 1827.52 -8.02971 3.47653 0
M  V30 40477 C 1827.03 -6.89602 1.41652 0
M  V30 40478 C 1827.74 -5.59201 1.75185 0
M  V30 40479 N 1827.69 -4.58235 0.662552 0
M  V30 40480 H 1830.53 -8.65116 0.777161 0
M  V30 40481 H 1830.8 -6.90173 0.474152 0
M  V30 40482 H 1829.93 -7.66548 2.79458 0
M  V30 40483 P 1825.97 -8.03563 3.84925 0
M  V30 40484 O 1825.75 -8.85821 5.0569 0
M  V30 40485 O 1825.18 -8.41101 2.65469 0
M  V30 40486 O 1825.72 -6.4965 4.18908 0
M  V30 40487 C 1826.66 -5.81037 5.05421 0
M  V30 40488 C 1825.93 -4.78366 5.89277 0
M  V30 40489 O 1825.72 -3.58302 5.08433 0
M  V30 40490 C 1824.53 -5.17448 6.36119 0
M  V30 40491 O 1824.14 -4.45271 7.53232 0
M  V30 40492 C 1823.65 -4.74639 5.19936 0
M  V30 40493 C 1824.36 -3.49432 4.70418 0
M  V30 40494 N 1824.31 -3.32099 3.22613 0
M  V30 40495 H 1827.15 -6.54213 5.71376 0
M  V30 40496 H 1827.42 -5.30936 4.43503 0
M  V30 40497 H 1826.55 -4.55889 6.76652 0
M  V30 40498 H 1823.9 -2.61715 5.17932 0
M  V30 40499 H 1823.62 -5.52155 4.41878 0
M  V30 40500 H 1822.63 -4.51981 5.53374 0
M  V30 40501 H 1824.46 -6.25124 6.55234 0
M  V30 40502 P 1822.59 -4.23843 7.83734 0
M  V30 40503 O 1822.37 -4.19407 9.29784 0
M  V30 40504 O 1821.8 -5.24426 7.09156 0
M  V30 40505 O 1822.34 -2.7935 7.20758 0
M  V30 40506 C 1823.28 -1.7299 7.50419 0
M  V30 40507 C 1822.55 -0.406376 7.57911 0
M  V30 40508 O 1822.34 0.0897726 6.21935 0
M  V30 40509 C 1821.15 -0.447224 8.1878 0
M  V30 40510 O 1820.76 0.825065 8.71101 0
M  V30 40511 C 1820.27 -0.783801 6.99623 0
M  V30 40512 C 1820.98 -0.0619192 5.85967 0
M  V30 40513 N 1820.93 -0.7859 4.56281 0
M  V30 40514 C 1821.01 -2.14308 4.31736 0
M  V30 40515 N 1820.93 -2.46106 3.05116 0
M  V30 40516 C 1820.79 -1.23422 2.4014 0
M  V30 40517 C 1820.66 -0.938381 1.02409 0
M  V30 40518 N 1820.54 0.444647 0.805413 0
M  V30 40519 C 1820.54 1.40829 1.79435 0
M  V30 40520 N 1820.41 2.67213 1.38558 0
M  V30 40521 N 1820.67 1.12947 3.09005 0
M  V30 40522 C 1820.79 -0.204887 3.32369 0
M  V30 40523 H 1823.77 -1.93423 8.4679 0
M  V30 40524 H 1824.04 -1.68181 6.71046 0
M  V30 40525 H 1823.17 0.289041 8.15388 0
M  V30 40526 P 1819.21 1.17771 8.83182 0
M  V30 40527 O 1818.99 2.07206 9.98732 0
M  V30 40528 O 1818.42 -0.0743816 8.81969 0
M  V30 40529 O 1818.96 1.97652 7.47304 0
M  V30 40530 C 1819.9 3.01133 7.08783 0
M  V30 40531 C 1819.17 4.12613 6.37049 0
M  V30 40532 O 1818.96 3.72827 4.97879 0
M  V30 40533 C 1817.77 4.45085 6.88694 0
M  V30 40534 O 1817.38 5.7877 6.5624 0
M  V30 40535 C 1816.89 3.47817 6.12078 0
M  V30 40536 C 1817.6 3.39414 4.77697 0
M  V30 40537 N 1817.55 2.04199 4.15538 0
M  V30 40538 H 1820.39 3.41248 7.98759 0
M  V30 40539 H 1820.66 2.57728 6.42 0
M  V30 40540 H 1819.79 5.02657 6.42673 0
M  V30 40541 H 1817.14 4.11708 4.08956 0
M  V30 40542 H 1816.86 2.49626 6.61679 0
M  V30 40543 H 1815.87 3.8662 6.00862 0
M  V30 40544 H 1817.7 4.29991 7.97006 0
M  V30 40545 P 1815.83 6.144 6.45285 0
M  V30 40546 O 1815.61 7.54673 6.86199 0
M  V30 40547 O 1815.04 5.12391 7.179 0
M  V30 40548 O 1815.58 5.99158 4.88404 0
M  V30 40549 C 1816.52 6.60234 3.96415 0
M  V30 40550 C 1815.79 7.08259 2.72856 0
M  V30 40551 O 1815.58 5.9427 1.83651 0
M  V30 40552 C 1814.39 7.64886 2.9555 0
M  V30 40553 O 1814 8.53963 1.90717 0
M  V30 40554 C 1813.51 6.4116 2.90739 0
M  V30 40555 C 1814.22 5.55375 1.86963 0
M  V30 40556 N 1814.17 4.09448 2.16152 0
M  V30 40557 H 1817.01 7.45574 4.45629 0
M  V30 40558 H 1817.28 5.85864 3.679 0
M  V30 40559 H 1816.41 7.84412 2.24479 0
M  V30 40560 H 1813.76 5.73457 0.888562 0
M  V30 40561 H 1813.48 5.90877 3.88583 0
M  V30 40562 H 1812.49 6.6596 2.58858 0
M  V30 40563 H 1814.32 8.16339 3.92049 0
M  V30 40564 P 1812.45 8.7635 1.60911 0
M  V30 40565 O 1812.23 10.1388 1.11561 0
M  V30 40566 O 1811.66 8.36503 2.79617 0
M  V30 40567 O 1812.2 7.71806 0.42951 0
M  V30 40568 C 1813.14 7.67148 -0.673689 0
M  V30 40569 C 1812.41 7.33374 -1.95559 0
M  V30 40570 O 1812.2 5.88721 -2.00726 0
M  V30 40571 C 1811.01 7.92526 -2.10483 0
M  V30 40572 O 1810.62 8.02971 -3.47653 0
M  V30 40573 C 1810.13 6.89602 -1.41652 0
M  V30 40574 C 1810.84 5.59201 -1.75185 0
M  V30 40575 N 1810.79 4.58235 -0.662552 0
M  V30 40576 H 1813.63 8.65116 -0.777161 0
M  V30 40577 H 1813.9 6.90173 -0.474152 0
M  V30 40578 H 1813.03 7.66548 -2.79458 0
M  V30 40579 P 1809.07 8.03563 -3.84925 0
M  V30 40580 O 1808.85 8.85821 -5.0569 0
M  V30 40581 O 1808.28 8.41101 -2.65469 0
M  V30 40582 O 1808.82 6.4965 -4.18908 0
M  V30 40583 C 1809.76 5.81037 -5.05421 0
M  V30 40584 C 1809.03 4.78366 -5.89277 0
M  V30 40585 O 1808.82 3.58302 -5.08433 0
M  V30 40586 C 1807.63 5.17448 -6.36119 0
M  V30 40587 O 1807.24 4.45271 -7.53232 0
M  V30 40588 C 1806.75 4.74639 -5.19936 0
M  V30 40589 C 1807.46 3.49432 -4.70418 0
M  V30 40590 N 1807.41 3.32099 -3.22613 0
M  V30 40591 H 1810.25 6.54213 -5.71376 0
M  V30 40592 H 1810.52 5.30936 -4.43503 0
M  V30 40593 H 1809.65 4.55889 -6.76652 0
M  V30 40594 H 1807 2.61715 -5.17932 0
M  V30 40595 H 1806.72 5.52155 -4.41878 0
M  V30 40596 H 1805.73 4.51981 -5.53374 0
M  V30 40597 H 1807.56 6.25124 -6.55234 0
M  V30 40598 P 1805.69 4.23843 -7.83734 0
M  V30 40599 O 1805.47 4.19407 -9.29784 0
M  V30 40600 O 1804.9 5.24426 -7.09156 0
M  V30 40601 O 1805.44 2.7935 -7.20758 0
M  V30 40602 C 1806.38 1.7299 -7.50419 0
M  V30 40603 C 1805.65 0.406376 -7.57911 0
M  V30 40604 O 1805.44 -0.0897726 -6.21935 0
M  V30 40605 C 1804.25 0.447224 -8.1878 0
M  V30 40606 O 1803.86 -0.825065 -8.71101 0
M  V30 40607 C 1803.37 0.783801 -6.99623 0
M  V30 40608 C 1804.08 0.0619192 -5.85967 0
M  V30 40609 N 1804.03 0.7859 -4.56281 0
M  V30 40610 H 1806.87 1.93423 -8.4679 0
M  V30 40611 H 1807.14 1.68181 -6.71046 0
M  V30 40612 H 1806.27 -0.289041 -8.15388 0
M  V30 40613 P 1802.31 -1.17771 -8.83182 0
M  V30 40614 O 1802.09 -2.07206 -9.98732 0
M  V30 40615 O 1801.52 0.0743816 -8.81969 0
M  V30 40616 O 1802.06 -1.97652 -7.47304 0
M  V30 40617 C 1803 -3.01133 -7.08783 0
M  V30 40618 C 1802.27 -4.12613 -6.37049 0
M  V30 40619 O 1802.06 -3.72827 -4.97879 0
M  V30 40620 C 1800.87 -4.45085 -6.88694 0
M  V30 40621 O 1800.48 -5.7877 -6.5624 0
M  V30 40622 C 1799.99 -3.47817 -6.12078 0
M  V30 40623 C 1800.7 -3.39414 -4.77697 0
M  V30 40624 N 1800.65 -2.04199 -4.15538 0
M  V30 40625 H 1803.49 -3.41248 -7.98759 0
M  V30 40626 H 1803.76 -2.57728 -6.42 0
M  V30 40627 H 1802.89 -5.02657 -6.42673 0
M  V30 40628 H 1800.24 -4.11708 -4.08956 0
M  V30 40629 H 1799.96 -2.49626 -6.61679 0
M  V30 40630 H 1798.97 -3.8662 -6.00862 0
M  V30 40631 H 1800.8 -4.29991 -7.97006 0
M  V30 40632 P 1798.93 -6.144 -6.45285 0
M  V30 40633 O 1798.71 -7.54673 -6.86199 0
M  V30 40634 O 1798.14 -5.12391 -7.179 0
M  V30 40635 O 1798.68 -5.99158 -4.88404 0
M  V30 40636 C 1799.62 -6.60234 -3.96415 0
M  V30 40637 C 1798.89 -7.08259 -2.72856 0
M  V30 40638 O 1798.68 -5.9427 -1.83651 0
M  V30 40639 C 1797.49 -7.64886 -2.9555 0
M  V30 40640 O 1797.1 -8.53963 -1.90717 0
M  V30 40641 C 1796.61 -6.4116 -2.90739 0
M  V30 40642 C 1797.32 -5.55375 -1.86963 0
M  V30 40643 N 1797.27 -4.09448 -2.16152 0
M  V30 40644 H 1800.11 -7.45574 -4.45629 0
M  V30 40645 H 1800.38 -5.85864 -3.679 0
M  V30 40646 H 1799.51 -7.84412 -2.24479 0
M  V30 40647 H 1796.86 -5.73457 -0.888562 0
M  V30 40648 H 1796.58 -5.90877 -3.88583 0
M  V30 40649 H 1795.59 -6.6596 -2.58858 0
M  V30 40650 H 1797.42 -8.16339 -3.92049 0
M  V30 40651 P 1795.55 -8.7635 -1.60911 0
M  V30 40652 O 1795.33 -10.1388 -1.11561 0
M  V30 40653 O 1794.76 -8.36503 -2.79617 0
M  V30 40654 O 1795.3 -7.71806 -0.42951 0
M  V30 40655 C 1796.24 -7.67148 0.673689 0
M  V30 40656 C 1795.51 -7.33374 1.95559 0
M  V30 40657 O 1795.3 -5.88721 2.00726 0
M  V30 40658 C 1794.11 -7.92526 2.10483 0
M  V30 40659 O 1793.72 -8.02971 3.47653 0
M  V30 40660 C 1793.23 -6.89602 1.41652 0
M  V30 40661 C 1793.94 -5.59201 1.75185 0
M  V30 40662 N 1793.89 -4.58301 0.657969 0
M  V30 40663 C 1793.97 -4.79019 -0.692603 0
M  V30 40664 N 1793.9 -3.69736 -1.38998 0
M  V30 40665 C 1793.75 -2.70474 -0.438135 0
M  V30 40666 C 1793.62 -1.30327 -0.538142 0
M  V30 40667 N 1793.61 -0.64304 -1.69192 0
M  V30 40668 N 1793.5 -0.611027 0.605183 0
M  V30 40669 C 1793.51 -1.27002 1.75953 0
M  V30 40670 N 1793.63 -2.56038 1.98546 0
M  V30 40671 C 1793.75 -3.22681 0.822541 0
M  V30 40672 H 1796.73 -8.65116 0.777161 0
M  V30 40673 H 1797 -6.9022 0.46725 0
M  V30 40674 H 1796.13 -7.66548 2.79458 0
M  V30 40675 H 1793.48 -5.16165 2.65183 0
M  V30 40676 H 1793.2 -7.06433 0.329384 0
M  V30 40677 H 1792.21 -6.90926 1.82021 0
M  V30 40678 H 1794.04 -8.90873 1.62657 0
M  V30 40679 H 1794.08 -5.77785 -1.13874 0
M  V30 40680 H 1793.7 -1.15585 -2.57991 0
M  V30 40681 H 1793.51 0.382989 -1.69835 0
M  V30 40682 H 1793.4 -0.653331 2.64449 0
M  V30 40683 P 1792.17 -8.03563 3.84925 0
M  V30 40684 O 1791.95 -8.85821 5.0569 0
M  V30 40685 O 1791.38 -8.41101 2.65469 0
M  V30 40686 O 1791.92 -6.4965 4.18908 0
M  V30 40687 C 1792.86 -5.81037 5.05421 0
M  V30 40688 C 1792.13 -4.78366 5.89277 0
M  V30 40689 O 1791.92 -3.58302 5.08433 0
M  V30 40690 C 1790.73 -5.17448 6.36119 0
M  V30 40691 O 1790.34 -4.45271 7.53232 0
M  V30 40692 C 1789.85 -4.74639 5.19936 0
M  V30 40693 C 1790.56 -3.49432 4.70418 0
M  V30 40694 N 1790.51 -3.31776 3.22945 0
M  V30 40695 H 1793.35 -6.54213 5.71376 0
M  V30 40696 H 1793.62 -5.30492 4.44033 0
M  V30 40697 H 1792.75 -4.55889 6.76652 0
M  V30 40698 P 1788.79 -4.23843 7.83734 0
M  V30 40699 O 1788.57 -4.19407 9.29784 0
M  V30 40700 O 1788 -5.24426 7.09156 0
M  V30 40701 O 1788.54 -2.7935 7.20758 0
M  V30 40702 C 1789.48 -1.7299 7.50419 0
M  V30 40703 C 1788.75 -0.406376 7.57911 0
M  V30 40704 O 1788.54 0.0897726 6.21935 0
M  V30 40705 C 1787.35 -0.447224 8.1878 0
M  V30 40706 O 1786.96 0.825065 8.71101 0
M  V30 40707 C 1786.47 -0.783801 6.99623 0
M  V30 40708 C 1787.18 -0.0619192 5.85967 0
M  V30 40709 N 1787.13 -0.7859 4.56281 0
M  V30 40710 H 1789.97 -1.93423 8.4679 0
M  V30 40711 H 1790.24 -1.68181 6.71046 0
M  V30 40712 H 1789.37 0.289041 8.15388 0
M  V30 40713 P 1785.41 1.17771 8.83182 0
M  V30 40714 O 1785.19 2.07206 9.98732 0
M  V30 40715 O 1784.62 -0.0743816 8.81969 0
M  V30 40716 O 1785.16 1.97678 7.474 0
M  V30 40717 C 1786.1 3.01133 7.08783 0
M  V30 40718 C 1785.37 4.1203 6.37546 0
M  V30 40719 O 1785.16 3.72887 4.9796 0
M  V30 40720 C 1783.97 4.45085 6.88694 0
M  V30 40721 O 1783.58 5.78836 6.56315 0
M  V30 40722 C 1783.09 3.47817 6.12078 0
M  V30 40723 C 1783.8 3.39414 4.77697 0
M  V30 40724 N 1783.75 2.04615 4.15333 0
M  V30 40725 C 1783.6 1.96929 2.77162 0
M  V30 40726 O 1783.51 3.02017 2.12006 0
M  V30 40727 N 1783.55 0.55485 2.24237 0
M  V30 40728 C 1783.65 -0.367808 2.9169 0
M  V30 40729 N 1783.6 -1.53426 2.29427 0
M  V30 40730 C 1783.8 -0.319148 4.33828 0
M  V30 40731 C 1783.85 0.920672 4.90433 0
M  V30 40732 H 1786.59 3.41209 7.98667 0
M  V30 40733 H 1786.86 2.5837 6.41742 0
M  V30 40734 H 1785.99 5.02718 6.42752 0
M  V30 40735 H 1783.34 4.11779 4.09026 0
M  V30 40736 H 1783.06 2.49661 6.61772 0
M  V30 40737 H 1782.07 3.86674 6.00946 0
M  V30 40738 H 1783.9 4.29991 7.97006 0
M  V30 40739 H 1783.97 1.00589 5.98303 0
M  V30 40740 H 1783.87 -1.22639 4.93799 0
M  V30 40741 H 1783.48 -1.56819 1.27167 0
M  V30 40742 H 1783.68 -2.41062 2.83063 0
M  V30 40743 P 1782.03 6.144 6.45285 0
M  V30 40744 O 1781.81 7.54673 6.86199 0
M  V30 40745 O 1781.24 5.12391 7.179 0
M  V30 40746 O 1781.78 5.99158 4.88404 0
M  V30 40747 C 1782.72 6.60234 3.96415 0
M  V30 40748 C 1781.99 7.08259 2.72856 0
M  V30 40749 O 1781.78 5.9427 1.83651 0
M  V30 40750 C 1780.59 7.64886 2.9555 0
M  V30 40751 O 1780.2 8.53963 1.90717 0
M  V30 40752 C 1779.71 6.4116 2.90739 0
M  V30 40753 C 1780.42 5.55375 1.86963 0
M  V30 40754 N 1780.37 4.09664 2.15742 0
M  V30 40755 C 1780.45 3.44381 3.37233 0
M  V30 40756 N 1780.37 2.14131 3.28347 0
M  V30 40757 C 1780.23 1.90247 1.91588 0
M  V30 40758 C 1780.1 0.683992 1.20892 0
M  V30 40759 N 1779.98 0.903396 -0.173998 0
M  V30 40760 C 1779.98 2.14171 -0.784879 0
M  V30 40761 N 1779.85 2.1435 -2.11317 0
M  V30 40762 N 1780.11 3.28784 -0.119316 0
M  V30 40763 C 1780.23 3.0977 1.22194 0
M  V30 40764 H 1783.21 7.45574 4.45629 0
M  V30 40765 H 1783.48 5.86232 3.67314 0
M  V30 40766 H 1782.61 7.84412 2.24479 0
M  V30 40767 P 1778.65 8.7635 1.60911 0
M  V30 40768 O 1778.43 10.1388 1.11561 0
M  V30 40769 O 1777.86 8.36503 2.79617 0
M  V30 40770 O 1778.4 7.71806 0.42951 0
M  V30 40771 C 1779.34 7.67148 -0.673689 0
M  V30 40772 C 1778.61 7.33374 -1.95559 0
M  V30 40773 O 1778.4 5.88721 -2.00726 0
M  V30 40774 C 1777.21 7.92526 -2.10483 0
M  V30 40775 O 1776.82 8.02971 -3.47653 0
M  V30 40776 C 1776.33 6.89602 -1.41652 0
M  V30 40777 C 1777.04 5.59201 -1.75185 0
M  V30 40778 N 1776.99 4.58235 -0.662552 0
M  V30 40779 H 1779.83 8.65116 -0.777161 0
M  V30 40780 H 1780.1 6.90173 -0.474152 0
M  V30 40781 H 1779.23 7.66548 -2.79458 0
M  V30 40782 P 1775.27 8.03563 -3.84925 0
M  V30 40783 O 1775.05 8.85821 -5.0569 0
M  V30 40784 O 1774.48 8.41101 -2.65469 0
M  V30 40785 O 1775.02 6.4965 -4.18908 0
M  V30 40786 C 1775.96 5.81037 -5.05421 0
M  V30 40787 C 1775.23 4.78366 -5.89277 0
M  V30 40788 O 1775.02 3.58302 -5.08433 0
M  V30 40789 C 1773.83 5.17448 -6.36119 0
M  V30 40790 O 1773.44 4.45271 -7.53232 0
M  V30 40791 C 1772.95 4.74639 -5.19936 0
M  V30 40792 C 1773.66 3.49432 -4.70418 0
M  V30 40793 N 1773.61 3.32099 -3.22613 0
M  V30 40794 H 1776.45 6.54213 -5.71376 0
M  V30 40795 H 1776.72 5.30936 -4.43503 0
M  V30 40796 H 1775.85 4.55889 -6.76652 0
M  V30 40797 H 1773.2 2.61715 -5.17932 0
M  V30 40798 H 1772.92 5.52155 -4.41878 0
M  V30 40799 H 1771.93 4.51981 -5.53374 0
M  V30 40800 H 1773.76 6.25124 -6.55234 0
M  V30 40801 P 1771.89 4.23843 -7.83734 0
M  V30 40802 O 1771.67 4.19407 -9.29784 0
M  V30 40803 O 1771.1 5.24426 -7.09156 0
M  V30 40804 O 1771.64 2.7935 -7.20758 0
M  V30 40805 C 1772.58 1.7299 -7.50419 0
M  V30 40806 C 1771.85 0.406376 -7.57911 0
M  V30 40807 O 1771.64 -0.0897726 -6.21935 0
M  V30 40808 C 1770.45 0.447224 -8.1878 0
M  V30 40809 O 1770.06 -0.825065 -8.71101 0
M  V30 40810 C 1769.57 0.783801 -6.99623 0
M  V30 40811 C 1770.28 0.0619192 -5.85967 0
M  V30 40812 N 1770.23 0.7859 -4.56281 0
M  V30 40813 H 1773.07 1.93423 -8.4679 0
M  V30 40814 H 1773.34 1.68181 -6.71046 0
M  V30 40815 H 1772.47 -0.289041 -8.15388 0
M  V30 40816 P 1768.51 -1.17771 -8.83182 0
M  V30 40817 O 1768.29 -2.07206 -9.98732 0
M  V30 40818 O 1767.72 0.0743816 -8.81969 0
M  V30 40819 O 1768.26 -1.97652 -7.47304 0
M  V30 40820 C 1769.2 -3.01133 -7.08783 0
M  V30 40821 C 1768.47 -4.12613 -6.37049 0
M  V30 40822 O 1768.26 -3.72827 -4.97879 0
M  V30 40823 C 1767.07 -4.45085 -6.88694 0
M  V30 40824 O 1766.68 -5.7877 -6.5624 0
M  V30 40825 C 1766.19 -3.47817 -6.12078 0
M  V30 40826 C 1766.9 -3.39414 -4.77697 0
M  V30 40827 N 1766.85 -2.04615 -4.15333 0
M  V30 40828 H 1769.69 -3.41248 -7.98759 0
M  V30 40829 H 1769.96 -2.5837 -6.41742 0
M  V30 40830 H 1769.09 -5.02657 -6.42673 0
M  V30 40831 P 1765.13 -6.144 -6.45285 0
M  V30 40832 O 1764.91 -7.54673 -6.86199 0
M  V30 40833 O 1764.34 -5.12391 -7.179 0
M  V30 40834 O 1764.88 -5.99158 -4.88404 0
M  V30 40835 C 1765.82 -6.60234 -3.96415 0
M  V30 40836 C 1765.09 -7.08259 -2.72856 0
M  V30 40837 O 1764.88 -5.9427 -1.83651 0
M  V30 40838 C 1763.69 -7.64886 -2.9555 0
M  V30 40839 O 1763.3 -8.53963 -1.90717 0
M  V30 40840 C 1762.81 -6.4116 -2.90739 0
M  V30 40841 C 1763.52 -5.55375 -1.86963 0
M  V30 40842 N 1763.47 -4.09664 -2.15742 0
M  V30 40843 H 1766.31 -7.45574 -4.45629 0
M  V30 40844 H 1766.58 -5.86232 -3.67314 0
M  V30 40845 H 1765.71 -7.84412 -2.24479 0
M  V30 40846 P 1761.75 -8.7635 -1.60911 0
M  V30 40847 O 1761.53 -10.1388 -1.11561 0
M  V30 40848 O 1760.96 -8.36503 -2.79617 0
M  V30 40849 O 1761.5 -7.71806 -0.42951 0
M  V30 40850 C 1762.44 -7.67148 0.673689 0
M  V30 40851 C 1761.71 -7.33374 1.95559 0
M  V30 40852 O 1761.5 -5.88721 2.00726 0
M  V30 40853 C 1760.31 -7.92526 2.10483 0
M  V30 40854 O 1759.92 -8.02971 3.47653 0
M  V30 40855 C 1759.43 -6.89602 1.41652 0
M  V30 40856 C 1760.14 -5.59201 1.75185 0
M  V30 40857 N 1760.09 -4.58235 0.662552 0
M  V30 40858 H 1762.93 -8.65116 0.777161 0
M  V30 40859 H 1763.2 -6.90173 0.474152 0
M  V30 40860 H 1762.33 -7.66548 2.79458 0
M  V30 40861 P 1758.37 -8.03563 3.84925 0
M  V30 40862 O 1758.15 -8.85821 5.0569 0
M  V30 40863 O 1757.58 -8.41101 2.65469 0
M  V30 40864 O 1758.12 -6.49734 4.18962 0
M  V30 40865 C 1759.06 -5.81037 5.05421 0
M  V30 40866 C 1758.33 -4.79018 5.88876 0
M  V30 40867 O 1758.12 -3.58359 5.08515 0
M  V30 40868 C 1756.93 -5.17448 6.36119 0
M  V30 40869 O 1756.54 -4.45322 7.53318 0
M  V30 40870 C 1756.05 -4.74639 5.19936 0
M  V30 40871 C 1756.76 -3.49432 4.70418 0
M  V30 40872 N 1756.71 -3.31776 3.22945 0
M  V30 40873 C 1756.56 -2.02742 2.72939 0
M  V30 40874 O 1756.47 -1.08301 3.52749 0
M  V30 40875 N 1756.51 -1.96117 1.22063 0
M  V30 40876 C 1756.61 -2.8878 0.551566 0
M  V30 40877 N 1756.56 -2.65609 -0.750198 0
M  V30 40878 C 1756.76 -4.22457 1.03707 0
M  V30 40879 C 1756.81 -4.37979 2.39113 0
M  V30 40880 H 1759.55 -6.54138 5.7131 0
M  V30 40881 H 1759.82 -5.30492 4.44033 0
M  V30 40882 H 1758.95 -4.55945 6.76735 0
M  V30 40883 H 1756.3 -2.6176 5.18021 0
M  V30 40884 H 1756.02 -5.52233 4.41941 0
M  V30 40885 H 1755.03 -4.52045 5.53452 0
M  V30 40886 H 1756.86 -6.25124 6.55234 0
M  V30 40887 H 1756.93 -5.37936 2.80552 0
M  V30 40888 H 1756.83 -5.07528 0.359553 0
M  V30 40889 H 1756.44 -1.69403 -1.09847 0
M  V30 40890 H 1756.64 -3.43701 -1.41792 0
M  V30 40891 P 1754.99 -4.23843 7.83734 0
M  V30 40892 O 1754.77 -4.19407 9.29784 0
M  V30 40893 O 1754.2 -5.24426 7.09156 0
M  V30 40894 O 1754.74 -2.7935 7.20758 0
M  V30 40895 C 1755.68 -1.7299 7.50419 0
M  V30 40896 C 1754.95 -0.406376 7.57911 0
M  V30 40897 O 1754.74 0.0897726 6.21935 0
M  V30 40898 C 1753.55 -0.447224 8.1878 0
M  V30 40899 O 1753.16 0.825065 8.71101 0
M  V30 40900 C 1752.67 -0.783801 6.99623 0
M  V30 40901 C 1753.38 -0.0619192 5.85967 0
M  V30 40902 N 1753.33 -0.7859 4.56281 0
M  V30 40903 H 1756.17 -1.93423 8.4679 0
M  V30 40904 H 1756.44 -1.68181 6.71046 0
M  V30 40905 H 1755.57 0.289041 8.15388 0
M  V30 40906 P 1751.61 1.17771 8.83182 0
M  V30 40907 O 1751.39 2.07206 9.98732 0
M  V30 40908 O 1750.82 -0.0743816 8.81969 0
M  V30 40909 O 1751.36 1.97652 7.47304 0
M  V30 40910 C 1752.3 3.01133 7.08783 0
M  V30 40911 C 1751.57 4.12613 6.37049 0
M  V30 40912 O 1751.36 3.72827 4.97879 0
M  V30 40913 C 1750.17 4.45085 6.88694 0
M  V30 40914 O 1749.78 5.7877 6.5624 0
M  V30 40915 C 1749.29 3.47817 6.12078 0
M  V30 40916 C 1750 3.39414 4.77697 0
M  V30 40917 N 1749.95 2.04615 4.15333 0
M  V30 40918 H 1752.79 3.41248 7.98759 0
M  V30 40919 H 1753.06 2.5837 6.41742 0
M  V30 40920 H 1752.19 5.02657 6.42673 0
M  V30 40921 P 1748.23 6.144 6.45285 0
M  V30 40922 O 1748.01 7.54673 6.86199 0
M  V30 40923 O 1747.44 5.12391 7.179 0
M  V30 40924 O 1747.98 5.99158 4.88404 0
M  V30 40925 C 1748.92 6.60234 3.96415 0
M  V30 40926 C 1748.19 7.08259 2.72856 0
M  V30 40927 O 1747.98 5.9427 1.83651 0
M  V30 40928 C 1746.79 7.64886 2.9555 0
M  V30 40929 O 1746.4 8.53963 1.90717 0
M  V30 40930 C 1745.91 6.4116 2.90739 0
M  V30 40931 C 1746.62 5.55375 1.86963 0
M  V30 40932 N 1746.57 4.09448 2.16152 0
M  V30 40933 H 1749.41 7.45574 4.45629 0
M  V30 40934 H 1749.68 5.85864 3.679 0
M  V30 40935 H 1748.81 7.84412 2.24479 0
M  V30 40936 H 1746.16 5.73457 0.888562 0
M  V30 40937 H 1745.88 5.90877 3.88583 0
M  V30 40938 H 1744.89 6.6596 2.58858 0
M  V30 40939 H 1746.72 8.16339 3.92049 0
M  V30 40940 P 1744.85 8.7635 1.60911 0
M  V30 40941 O 1744.63 10.1388 1.11561 0
M  V30 40942 O 1744.06 8.36503 2.79617 0
M  V30 40943 O 1744.6 7.71806 0.42951 0
M  V30 40944 C 1745.54 7.67148 -0.673689 0
M  V30 40945 C 1744.81 7.33374 -1.95559 0
M  V30 40946 O 1744.6 5.88721 -2.00726 0
M  V30 40947 C 1743.41 7.92526 -2.10483 0
M  V30 40948 O 1743.02 8.02971 -3.47653 0
M  V30 40949 C 1742.53 6.89602 -1.41652 0
M  V30 40950 C 1743.24 5.59201 -1.75185 0
M  V30 40951 N 1743.19 4.58235 -0.662552 0
M  V30 40952 H 1746.03 8.65116 -0.777161 0
M  V30 40953 H 1746.3 6.90173 -0.474152 0
M  V30 40954 H 1745.43 7.66548 -2.79458 0
M  V30 40955 P 1741.47 8.03563 -3.84925 0
M  V30 40956 O 1741.25 8.85821 -5.0569 0
M  V30 40957 O 1740.68 8.41101 -2.65469 0
M  V30 40958 O 1741.22 6.4965 -4.18908 0
M  V30 40959 C 1742.16 5.81037 -5.05421 0
M  V30 40960 C 1741.43 4.78366 -5.89277 0
M  V30 40961 O 1741.22 3.58302 -5.08433 0
M  V30 40962 C 1740.03 5.17448 -6.36119 0
M  V30 40963 O 1739.64 4.45271 -7.53232 0
M  V30 40964 C 1739.15 4.74639 -5.19936 0
M  V30 40965 C 1739.86 3.49432 -4.70418 0
M  V30 40966 N 1739.81 3.32099 -3.22613 0
M  V30 40967 H 1742.65 6.54213 -5.71376 0
M  V30 40968 H 1742.92 5.30936 -4.43503 0
M  V30 40969 H 1742.05 4.55889 -6.76652 0
M  V30 40970 H 1739.4 2.61715 -5.17932 0
M  V30 40971 H 1739.12 5.52155 -4.41878 0
M  V30 40972 H 1738.13 4.51981 -5.53374 0
M  V30 40973 H 1739.96 6.25124 -6.55234 0
M  V30 40974 P 1738.09 4.23843 -7.83734 0
M  V30 40975 O 1737.87 4.19407 -9.29784 0
M  V30 40976 O 1737.3 5.24426 -7.09156 0
M  V30 40977 O 1737.84 2.7935 -7.20758 0
M  V30 40978 C 1738.78 1.7299 -7.50419 0
M  V30 40979 C 1738.05 0.406376 -7.57911 0
M  V30 40980 O 1737.84 -0.0897726 -6.21935 0
M  V30 40981 C 1736.65 0.447224 -8.1878 0
M  V30 40982 O 1736.26 -0.825065 -8.71101 0
M  V30 40983 C 1735.77 0.783801 -6.99623 0
M  V30 40984 C 1736.48 0.0619192 -5.85967 0
M  V30 40985 N 1736.43 0.790462 -4.56202 0
M  V30 40986 H 1739.27 1.93423 -8.4679 0
M  V30 40987 H 1739.54 1.68852 -6.70877 0
M  V30 40988 H 1738.67 -0.289041 -8.15388 0
M  V30 40989 H 1736.02 -0.927006 -5.72848 0
M  V30 40990 H 1735.74 1.86973 -6.82036 0
M  V30 40991 H 1734.75 0.403953 -7.13357 0
M  V30 40992 H 1736.58 1.20599 -8.97534 0
M  V30 40993 P 1734.71 -1.17771 -8.83182 0
M  V30 40994 O 1734.49 -2.07206 -9.98732 0
M  V30 40995 O 1733.92 0.0743816 -8.81969 0
M  V30 40996 O 1734.46 -1.97652 -7.47304 0
M  V30 40997 C 1735.4 -3.01055 -7.08599 0
M  V30 40998 C 1734.67 -4.12613 -6.37049 0
M  V30 40999 O 1734.46 -3.72827 -4.97879 0
M  V30 41000 C 1733.27 -4.45719 -6.88164 0
M  V30 41001 O 1732.88 -5.7877 -6.5624 0
M  V30 41002 C 1732.39 -3.47768 -6.11991 0
M  V30 41003 C 1733.1 -3.39356 -4.77615 0
M  V30 41004 N 1733.05 -2.04571 -4.15244 0
M  V30 41005 C 1732.9 -1.98587 -2.78314 0
M  V30 41006 O 1732.81 -2.98134 -2.08835 0
M  V30 41007 N 1732.86 -0.714467 -2.24925 0
M  V30 41008 C 1732.95 0.470001 -2.94169 0
M  V30 41009 C 1733.1 0.312541 -4.36783 0
M  V30 41010 C 1733.15 -0.914512 -4.92583 0
M  V30 41011 H 1735.89 -3.41169 -7.98575 0
M  V30 41012 H 1736.16 -2.58295 -6.41556 0
M  V30 41013 H 1735.29 -5.02657 -6.42673 0
M  V30 41014 H 1732.64 -4.11637 -4.08885 0
M  V30 41015 H 1732.36 -2.49626 -6.61679 0
M  V30 41016 H 1731.37 -3.86566 -6.00778 0
M  V30 41017 H 1733.2 -4.29943 -7.96918 0
M  V30 41018 H 1733.27 -1.00937 -6.00374 0
M  V30 41019 P 1731.33 -6.144 -6.45285 0
M  V30 41020 O 1731.11 -7.54673 -6.86199 0
M  V30 41021 O 1730.54 -5.12391 -7.179 0
M  V30 41022 O 1731.08 -5.99158 -4.88404 0
M  V30 41023 C 1732.02 -6.60234 -3.96415 0
M  V30 41024 C 1731.29 -7.08259 -2.72856 0
M  V30 41025 O 1731.08 -5.9427 -1.83651 0
M  V30 41026 C 1729.89 -7.64886 -2.9555 0
M  V30 41027 O 1729.5 -8.53963 -1.90717 0
M  V30 41028 C 1729.01 -6.4116 -2.90739 0
M  V30 41029 C 1729.72 -5.55375 -1.86963 0
M  V30 41030 N 1729.67 -4.09448 -2.16152 0
M  V30 41031 H 1732.51 -7.45574 -4.45629 0
M  V30 41032 H 1732.78 -5.85864 -3.679 0
M  V30 41033 H 1731.91 -7.84412 -2.24479 0
M  V30 41034 H 1729.26 -5.73457 -0.888562 0
M  V30 41035 H 1728.98 -5.90877 -3.88583 0
M  V30 41036 H 1727.99 -6.6596 -2.58858 0
M  V30 41037 H 1729.82 -8.16339 -3.92049 0
M  V30 41038 P 1727.95 -8.7635 -1.60911 0
M  V30 41039 O 1727.73 -10.1388 -1.11561 0
M  V30 41040 O 1727.16 -8.36503 -2.79617 0
M  V30 41041 O 1727.7 -7.71806 -0.42951 0
M  V30 41042 C 1728.64 -7.67148 0.673689 0
M  V30 41043 C 1727.91 -7.33374 1.95559 0
M  V30 41044 O 1727.7 -5.88721 2.00726 0
M  V30 41045 C 1726.51 -7.92526 2.10483 0
M  V30 41046 O 1726.12 -8.02971 3.47653 0
M  V30 41047 C 1725.63 -6.89602 1.41652 0
M  V30 41048 C 1726.34 -5.59201 1.75185 0
M  V30 41049 N 1726.29 -4.58235 0.662552 0
M  V30 41050 H 1729.13 -8.65116 0.777161 0
M  V30 41051 H 1729.4 -6.90173 0.474152 0
M  V30 41052 H 1728.53 -7.66548 2.79458 0
M  V30 41053 P 1724.57 -8.03563 3.84925 0
M  V30 41054 O 1724.35 -8.85821 5.0569 0
M  V30 41055 O 1723.78 -8.41101 2.65469 0
M  V30 41056 O 1724.32 -6.4965 4.18908 0
M  V30 41057 C 1725.26 -5.81037 5.05421 0
M  V30 41058 C 1724.53 -4.78366 5.89277 0
M  V30 41059 O 1724.32 -3.58302 5.08433 0
M  V30 41060 C 1723.13 -5.17448 6.36119 0
M  V30 41061 O 1722.74 -4.45271 7.53232 0
M  V30 41062 C 1722.25 -4.74639 5.19936 0
M  V30 41063 C 1722.96 -3.49432 4.70418 0
M  V30 41064 N 1722.91 -3.31776 3.22945 0
M  V30 41065 H 1725.75 -6.54213 5.71376 0
M  V30 41066 H 1726.02 -5.30492 4.44033 0
M  V30 41067 H 1725.15 -4.55889 6.76652 0
M  V30 41068 P 1721.19 -4.23843 7.83734 0
M  V30 41069 O 1720.97 -4.19407 9.29784 0
M  V30 41070 O 1720.4 -5.24426 7.09156 0
M  V30 41071 O 1720.94 -2.7935 7.20758 0
M  V30 41072 C 1721.88 -1.7299 7.50419 0
M  V30 41073 C 1721.15 -0.406376 7.57911 0
M  V30 41074 O 1720.94 0.0897726 6.21935 0
M  V30 41075 C 1719.75 -0.447224 8.1878 0
M  V30 41076 O 1719.36 0.825065 8.71101 0
M  V30 41077 C 1718.87 -0.783801 6.99623 0
M  V30 41078 C 1719.58 -0.0619192 5.85967 0
M  V30 41079 N 1719.53 -0.7859 4.56281 0
M  V30 41080 H 1722.37 -1.93423 8.4679 0
M  V30 41081 H 1722.64 -1.68181 6.71046 0
M  V30 41082 H 1721.77 0.289041 8.15388 0
M  V30 41083 P 1717.81 1.17771 8.83182 0
M  V30 41084 O 1717.59 2.07206 9.98732 0
M  V30 41085 O 1717.02 -0.0743816 8.81969 0
M  V30 41086 O 1717.56 1.97652 7.47304 0
M  V30 41087 C 1718.5 3.01133 7.08783 0
M  V30 41088 C 1717.77 4.12613 6.37049 0
M  V30 41089 O 1717.56 3.72827 4.97879 0
M  V30 41090 C 1716.37 4.45085 6.88694 0
M  V30 41091 O 1715.98 5.7877 6.5624 0
M  V30 41092 C 1715.49 3.47817 6.12078 0
M  V30 41093 C 1716.2 3.39414 4.77697 0
M  V30 41094 N 1716.15 2.04199 4.15538 0
M  V30 41095 H 1718.99 3.41248 7.98759 0
M  V30 41096 H 1719.26 2.57728 6.42 0
M  V30 41097 H 1718.39 5.02657 6.42673 0
M  V30 41098 H 1715.74 4.11708 4.08956 0
M  V30 41099 H 1715.46 2.49626 6.61679 0
M  V30 41100 H 1714.47 3.8662 6.00862 0
M  V30 41101 H 1716.3 4.29991 7.97006 0
M  V30 41102 P 1714.43 6.144 6.45285 0
M  V30 41103 O 1714.21 7.54673 6.86199 0
M  V30 41104 O 1713.64 5.12391 7.179 0
M  V30 41105 O 1714.18 5.99158 4.88404 0
M  V30 41106 C 1715.12 6.60234 3.96415 0
M  V30 41107 C 1714.39 7.08259 2.72856 0
M  V30 41108 O 1714.18 5.9427 1.83651 0
M  V30 41109 C 1712.99 7.64886 2.9555 0
M  V30 41110 O 1712.6 8.53963 1.90717 0
M  V30 41111 C 1712.11 6.4116 2.90739 0
M  V30 41112 C 1712.82 5.55375 1.86963 0
M  V30 41113 N 1712.77 4.09664 2.15742 0
M  V30 41114 H 1715.61 7.45574 4.45629 0
M  V30 41115 H 1715.88 5.86232 3.67314 0
M  V30 41116 H 1715.01 7.84412 2.24479 0
M  V30 41117 P 1711.05 8.7635 1.60911 0
M  V30 41118 O 1710.83 10.1388 1.11561 0
M  V30 41119 O 1710.26 8.36503 2.79617 0
M  V30 41120 O 1710.8 7.71906 0.429565 0
M  V30 41121 C 1711.74 7.67148 -0.673689 0
M  V30 41122 C 1711.01 7.33666 -1.94851 0
M  V30 41123 O 1710.8 5.88816 -2.00759 0
M  V30 41124 C 1709.61 7.92526 -2.10483 0
M  V30 41125 O 1709.22 8.03063 -3.47693 0
M  V30 41126 C 1708.73 6.89602 -1.41652 0
M  V30 41127 C 1709.44 5.59201 -1.75185 0
M  V30 41128 N 1709.39 4.58235 -0.662552 0
M  V30 41129 C 1709.24 3.24451 -1.01643 0
M  V30 41130 O 1709.15 2.94958 -2.21722 0
M  V30 41131 N 1709.19 2.30408 0.165238 0
M  V30 41132 C 1709.29 2.66048 1.25118 0
M  V30 41133 N 1709.24 1.70787 2.16813 0
M  V30 41134 C 1709.44 4.02732 1.64413 0
M  V30 41135 C 1709.49 4.9488 0.63991 0
M  V30 41136 H 1712.23 8.65017 -0.777072 0
M  V30 41137 H 1712.5 6.90173 -0.474152 0
M  V30 41138 H 1711.63 7.66642 -2.79492 0
M  V30 41139 H 1708.98 5.16254 -2.65229 0
M  V30 41140 H 1708.7 7.06532 -0.329431 0
M  V30 41141 H 1707.71 6.91023 -1.82047 0
M  V30 41142 H 1709.54 8.90873 -1.62657 0
M  V30 41143 H 1709.61 6.00104 0.892197 0
M  V30 41144 H 1709.51 4.31733 2.69229 0
M  V30 41145 H 1709.12 0.724835 1.8844 0
M  V30 41146 H 1709.32 1.94716 3.16734 0
M  V30 41147 P 1707.67 8.03563 -3.84925 0
M  V30 41148 O 1707.45 8.85821 -5.0569 0
M  V30 41149 O 1706.88 8.41101 -2.65469 0
M  V30 41150 O 1707.42 6.4965 -4.18908 0
M  V30 41151 C 1708.36 5.81037 -5.05421 0
M  V30 41152 C 1707.63 4.78366 -5.89277 0
M  V30 41153 O 1707.42 3.58302 -5.08433 0
M  V30 41154 C 1706.23 5.17448 -6.36119 0
M  V30 41155 O 1705.84 4.45271 -7.53232 0
M  V30 41156 C 1705.35 4.74639 -5.19936 0
M  V30 41157 C 1706.06 3.49432 -4.70418 0
M  V30 41158 N 1706.01 3.31776 -3.22945 0
M  V30 41159 H 1708.85 6.54213 -5.71376 0
M  V30 41160 H 1709.12 5.30492 -4.44033 0
M  V30 41161 H 1708.25 4.55889 -6.76652 0
M  V30 41162 P 1704.29 4.23843 -7.83734 0
M  V30 41163 O 1704.07 4.19407 -9.29784 0
M  V30 41164 O 1703.5 5.24426 -7.09156 0
M  V30 41165 O 1704.04 2.7935 -7.20758 0
M  V30 41166 C 1704.98 1.7299 -7.50419 0
M  V30 41167 C 1704.25 0.406376 -7.57911 0
M  V30 41168 O 1704.04 -0.0897726 -6.21935 0
M  V30 41169 C 1702.85 0.447224 -8.1878 0
M  V30 41170 O 1702.46 -0.825065 -8.71101 0
M  V30 41171 C 1701.97 0.783801 -6.99623 0
M  V30 41172 C 1702.68 0.0619192 -5.85967 0
M  V30 41173 N 1702.63 0.790462 -4.56202 0
M  V30 41174 H 1705.47 1.93423 -8.4679 0
M  V30 41175 H 1705.74 1.68852 -6.70877 0
M  V30 41176 H 1704.87 -0.289041 -8.15388 0
M  V30 41177 H 1702.22 -0.927006 -5.72848 0
M  V30 41178 H 1701.94 1.86973 -6.82036 0
M  V30 41179 H 1700.95 0.403953 -7.13357 0
M  V30 41180 H 1702.78 1.20599 -8.97534 0
M  V30 41181 P 1700.91 -1.17771 -8.83182 0
M  V30 41182 O 1700.69 -2.07206 -9.98732 0
M  V30 41183 O 1700.12 0.0743816 -8.81969 0
M  V30 41184 O 1700.66 -1.97652 -7.47304 0
M  V30 41185 C 1701.6 -3.01133 -7.08783 0
M  V30 41186 C 1700.87 -4.12613 -6.37049 0
M  V30 41187 O 1700.66 -3.72827 -4.97879 0
M  V30 41188 C 1699.47 -4.45085 -6.88694 0
M  V30 41189 O 1699.08 -5.7877 -6.5624 0
M  V30 41190 C 1698.59 -3.47817 -6.12078 0
M  V30 41191 C 1699.3 -3.39414 -4.77697 0
M  V30 41192 N 1699.25 -2.04615 -4.15333 0
M  V30 41193 H 1702.09 -3.41248 -7.98759 0
M  V30 41194 H 1702.36 -2.5837 -6.41742 0
M  V30 41195 H 1701.49 -5.02657 -6.42673 0
M  V30 41196 P 1697.53 -6.144 -6.45285 0
M  V30 41197 O 1697.31 -7.54673 -6.86199 0
M  V30 41198 O 1696.74 -5.12391 -7.179 0
M  V30 41199 O 1697.28 -5.99158 -4.88404 0
M  V30 41200 C 1698.22 -6.60234 -3.96415 0
M  V30 41201 C 1697.49 -7.08259 -2.72856 0
M  V30 41202 O 1697.28 -5.9427 -1.83651 0
M  V30 41203 C 1696.09 -7.64886 -2.9555 0
M  V30 41204 O 1695.7 -8.53963 -1.90717 0
M  V30 41205 C 1695.21 -6.4116 -2.90739 0
M  V30 41206 C 1695.92 -5.55375 -1.86963 0
M  V30 41207 N 1695.87 -4.09664 -2.15742 0
M  V30 41208 H 1698.71 -7.45574 -4.45629 0
M  V30 41209 H 1698.98 -5.86232 -3.67314 0
M  V30 41210 H 1698.11 -7.84412 -2.24479 0
M  V30 41211 P 1694.15 -8.7635 -1.60911 0
M  V30 41212 O 1693.93 -10.1388 -1.11561 0
M  V30 41213 O 1693.36 -8.36503 -2.79617 0
M  V30 41214 O 1693.9 -7.71806 -0.42951 0
M  V30 41215 C 1694.84 -7.66948 0.673514 0
M  V30 41216 C 1694.11 -7.33374 1.95559 0
M  V30 41217 O 1693.9 -5.88721 2.00726 0
M  V30 41218 C 1692.71 -7.92218 2.1125 0
M  V30 41219 O 1692.32 -8.02971 3.47653 0
M  V30 41220 C 1691.83 -6.89504 1.41631 0
M  V30 41221 C 1692.54 -5.59106 1.75155 0
M  V30 41222 N 1692.49 -4.58136 0.662409 0
M  V30 41223 C 1692.34 -3.26059 1.02863 0
M  V30 41224 O 1692.25 -2.90743 2.19009 0
M  V30 41225 N 1692.3 -2.35995 -0.0155585 0
M  V30 41226 C 1692.39 -2.65248 -1.35603 0
M  V30 41227 C 1692.54 -4.05747 -1.64698 0
M  V30 41228 C 1692.59 -4.96734 -0.652411 0
M  V30 41229 H 1695.33 -8.64917 0.776982 0
M  V30 41230 H 1695.6 -6.89974 0.474015 0
M  V30 41231 H 1694.73 -7.66548 2.79458 0
M  V30 41232 H 1692.08 -5.16076 2.65138 0
M  V30 41233 H 1691.8 -7.06433 0.329384 0
M  V30 41234 H 1690.81 -6.90829 1.81996 0
M  V30 41235 H 1692.64 -8.90774 1.62639 0
M  V30 41236 H 1692.71 -6.02181 -0.895285 0
M  V30 41237 P 1690.77 -8.03563 3.84925 0
M  V30 41238 O 1690.55 -8.85821 5.0569 0
M  V30 41239 O 1689.98 -8.41101 2.65469 0
M  V30 41240 O 1690.52 -6.4965 4.18908 0
M  V30 41241 C 1691.46 -5.81037 5.05421 0
M  V30 41242 C 1690.73 -4.78366 5.89277 0
M  V30 41243 O 1690.52 -3.58302 5.08433 0
M  V30 41244 C 1689.33 -5.17448 6.36119 0
M  V30 41245 O 1688.94 -4.45271 7.53232 0
M  V30 41246 C 1688.45 -4.74639 5.19936 0
M  V30 41247 C 1689.16 -3.49432 4.70418 0
M  V30 41248 N 1689.11 -3.31776 3.22945 0
M  V30 41249 H 1691.95 -6.54213 5.71376 0
M  V30 41250 H 1692.22 -5.30492 4.44033 0
M  V30 41251 H 1691.35 -4.55889 6.76652 0
M  V30 41252 P 1687.39 -4.23843 7.83734 0
M  V30 41253 O 1687.17 -4.19407 9.29784 0
M  V30 41254 O 1686.6 -5.24426 7.09156 0
M  V30 41255 O 1687.14 -2.7935 7.20758 0
M  V30 41256 C 1688.08 -1.7299 7.50419 0
M  V30 41257 C 1687.35 -0.406376 7.57911 0
M  V30 41258 O 1687.14 0.0897726 6.21935 0
M  V30 41259 C 1685.95 -0.447224 8.1878 0
M  V30 41260 O 1685.56 0.825065 8.71101 0
M  V30 41261 C 1685.07 -0.783801 6.99623 0
M  V30 41262 C 1685.78 -0.0619192 5.85967 0
M  V30 41263 N 1685.73 -0.7859 4.56281 0
M  V30 41264 H 1688.57 -1.93423 8.4679 0
M  V30 41265 H 1688.84 -1.68181 6.71046 0
M  V30 41266 H 1687.97 0.289041 8.15388 0
M  V30 41267 P 1684.01 1.17771 8.83182 0
M  V30 41268 O 1683.79 2.07206 9.98732 0
M  V30 41269 O 1683.22 -0.0743816 8.81969 0
M  V30 41270 O 1683.76 1.97678 7.474 0
M  V30 41271 C 1684.7 3.01133 7.08783 0
M  V30 41272 C 1683.97 4.1203 6.37546 0
M  V30 41273 O 1683.76 3.72887 4.9796 0
M  V30 41274 C 1682.57 4.45085 6.88694 0
M  V30 41275 O 1682.18 5.78836 6.56315 0
M  V30 41276 C 1681.69 3.47817 6.12078 0
M  V30 41277 C 1682.4 3.39414 4.77697 0
M  V30 41278 N 1682.35 2.04615 4.15333 0
M  V30 41279 C 1682.2 1.96929 2.77162 0
M  V30 41280 O 1682.11 3.02017 2.12006 0
M  V30 41281 N 1682.15 0.55485 2.24237 0
M  V30 41282 C 1682.25 -0.367808 2.9169 0
M  V30 41283 N 1682.2 -1.53426 2.29427 0
M  V30 41284 C 1682.4 -0.319148 4.33828 0
M  V30 41285 C 1682.45 0.920672 4.90433 0
M  V30 41286 H 1685.19 3.41209 7.98667 0
M  V30 41287 H 1685.46 2.5837 6.41742 0
M  V30 41288 H 1684.59 5.02718 6.42752 0
M  V30 41289 H 1681.94 4.11779 4.09026 0
M  V30 41290 H 1681.66 2.49661 6.61772 0
M  V30 41291 H 1680.67 3.86674 6.00946 0
M  V30 41292 H 1682.5 4.29991 7.97006 0
M  V30 41293 H 1682.57 1.00589 5.98303 0
M  V30 41294 H 1682.47 -1.22639 4.93799 0
M  V30 41295 H 1682.08 -1.56819 1.27167 0
M  V30 41296 H 1682.28 -2.41062 2.83063 0
M  V30 41297 P 1680.63 6.144 6.45285 0
M  V30 41298 O 1680.41 7.54673 6.86199 0
M  V30 41299 O 1679.84 5.12391 7.179 0
M  V30 41300 O 1680.38 5.99158 4.88404 0
M  V30 41301 C 1681.32 6.60062 3.96313 0
M  V30 41302 C 1680.59 7.08259 2.72856 0
M  V30 41303 O 1680.38 5.9427 1.83651 0
M  V30 41304 C 1679.19 7.65087 2.94749 0
M  V30 41305 O 1678.8 8.53963 1.90717 0
M  V30 41306 C 1678.31 6.41069 2.90698 0
M  V30 41307 C 1679.02 5.5528 1.86931 0
M  V30 41308 N 1678.97 4.09575 2.15696 0
M  V30 41309 C 1678.82 3.24249 1.08435 0
M  V30 41310 O 1678.73 3.63946 -0.0628747 0
M  V30 41311 N 1678.78 1.90009 1.39973 0
M  V30 41312 C 1678.87 1.34884 2.65614 0
M  V30 41313 C 1679.02 2.3145 3.71736 0
M  V30 41314 C 1679.07 3.63518 3.44754 0
M  V30 41315 H 1681.81 7.45402 4.45526 0
M  V30 41316 H 1682.08 5.86062 3.67208 0
M  V30 41317 H 1681.21 7.84412 2.24479 0
M  V30 41318 H 1678.56 5.73358 0.888409 0
M  V30 41319 H 1678.28 5.90877 3.88583 0
M  V30 41320 H 1677.29 6.65867 2.58821 0
M  V30 41321 H 1679.12 8.16248 3.92006 0
M  V30 41322 H 1679.19 4.34551 4.26383 0
M  V30 41323 P 1677.25 8.7635 1.60911 0
M  V30 41324 O 1677.03 10.1388 1.11561 0
M  V30 41325 O 1676.46 8.36503 2.79617 0
M  V30 41326 O 1677 7.71906 0.429565 0
M  V30 41327 C 1677.94 7.67148 -0.673689 0
M  V30 41328 C 1677.21 7.33666 -1.94851 0
M  V30 41329 O 1677 5.88816 -2.00759 0
M  V30 41330 C 1675.81 7.92526 -2.10483 0
M  V30 41331 O 1675.42 8.03063 -3.47693 0
M  V30 41332 C 1674.93 6.89602 -1.41652 0
M  V30 41333 C 1675.64 5.59201 -1.75185 0
M  V30 41334 N 1675.59 4.58235 -0.662552 0
M  V30 41335 C 1675.44 3.24451 -1.01643 0
M  V30 41336 O 1675.35 2.94958 -2.21722 0
M  V30 41337 N 1675.39 2.30408 0.165238 0
M  V30 41338 C 1675.49 2.66048 1.25118 0
M  V30 41339 N 1675.44 1.70787 2.16813 0
M  V30 41340 C 1675.64 4.02732 1.64413 0
M  V30 41341 C 1675.69 4.9488 0.63991 0
M  V30 41342 H 1678.43 8.65017 -0.777072 0
M  V30 41343 H 1678.7 6.90173 -0.474152 0
M  V30 41344 H 1677.83 7.66642 -2.79492 0
M  V30 41345 H 1675.18 5.16254 -2.65229 0
M  V30 41346 H 1674.9 7.06532 -0.329431 0
M  V30 41347 H 1673.91 6.91023 -1.82047 0
M  V30 41348 H 1675.74 8.90873 -1.62657 0
M  V30 41349 H 1675.81 6.00104 0.892197 0
M  V30 41350 H 1675.71 4.31733 2.69229 0
M  V30 41351 H 1675.32 0.724835 1.8844 0
M  V30 41352 H 1675.52 1.94716 3.16734 0
M  V30 41353 P 1673.87 8.03563 -3.84925 0
M  V30 41354 O 1673.65 8.85821 -5.0569 0
M  V30 41355 O 1673.08 8.41101 -2.65469 0
M  V30 41356 O 1673.62 6.4965 -4.18908 0
M  V30 41357 C 1674.56 5.81037 -5.05421 0
M  V30 41358 C 1673.83 4.78366 -5.89277 0
M  V30 41359 O 1673.62 3.58302 -5.08433 0
M  V30 41360 C 1672.43 5.17448 -6.36119 0
M  V30 41361 O 1672.04 4.45271 -7.53232 0
M  V30 41362 C 1671.55 4.74639 -5.19936 0
M  V30 41363 C 1672.26 3.49432 -4.70418 0
M  V30 41364 N 1672.21 3.31776 -3.22945 0
M  V30 41365 H 1675.05 6.54213 -5.71376 0
M  V30 41366 H 1675.32 5.30492 -4.44033 0
M  V30 41367 H 1674.45 4.55889 -6.76652 0
M  V30 41368 P 1670.49 4.23843 -7.83734 0
M  V30 41369 O 1670.27 4.19407 -9.29784 0
M  V30 41370 O 1669.7 5.24426 -7.09156 0
M  V30 41371 O 1670.24 2.7935 -7.20758 0
M  V30 41372 C 1671.18 1.7299 -7.50419 0
M  V30 41373 C 1670.45 0.406376 -7.57911 0
M  V30 41374 O 1670.24 -0.0897726 -6.21935 0
M  V30 41375 C 1669.05 0.447224 -8.1878 0
M  V30 41376 O 1668.66 -0.825065 -8.71101 0
M  V30 41377 C 1668.17 0.783801 -6.99623 0
M  V30 41378 C 1668.88 0.0619192 -5.85967 0
M  V30 41379 N 1668.83 0.7859 -4.56281 0
M  V30 41380 H 1671.67 1.93423 -8.4679 0
M  V30 41381 H 1671.94 1.68181 -6.71046 0
M  V30 41382 H 1671.07 -0.289041 -8.15388 0
M  V30 41383 P 1667.11 -1.17771 -8.83182 0
M  V30 41384 O 1666.89 -2.07206 -9.98732 0
M  V30 41385 O 1666.32 0.0743816 -8.81969 0
M  V30 41386 O 1666.86 -1.97652 -7.47304 0
M  V30 41387 C 1667.8 -3.01055 -7.08599 0
M  V30 41388 C 1667.07 -4.12613 -6.37049 0
M  V30 41389 O 1666.86 -3.72827 -4.97879 0
M  V30 41390 C 1665.67 -4.45719 -6.88164 0
M  V30 41391 O 1665.28 -5.7877 -6.5624 0
M  V30 41392 C 1664.79 -3.47768 -6.11991 0
M  V30 41393 C 1665.5 -3.39356 -4.77615 0
M  V30 41394 N 1665.45 -2.04571 -4.15244 0
M  V30 41395 C 1665.3 -1.98587 -2.78314 0
M  V30 41396 O 1665.21 -2.98134 -2.08835 0
M  V30 41397 N 1665.26 -0.714467 -2.24925 0
M  V30 41398 C 1665.35 0.470001 -2.94169 0
M  V30 41399 C 1665.5 0.312541 -4.36783 0
M  V30 41400 C 1665.55 -0.914512 -4.92583 0
M  V30 41401 H 1668.29 -3.41169 -7.98575 0
M  V30 41402 H 1668.56 -2.58295 -6.41556 0
M  V30 41403 H 1667.69 -5.02657 -6.42673 0
M  V30 41404 H 1665.04 -4.11637 -4.08885 0
M  V30 41405 H 1664.76 -2.49626 -6.61679 0
M  V30 41406 H 1663.77 -3.86566 -6.00778 0
M  V30 41407 H 1665.6 -4.29943 -7.96918 0
M  V30 41408 H 1665.67 -1.00937 -6.00374 0
M  V30 41409 P 1663.73 -6.144 -6.45285 0
M  V30 41410 O 1663.51 -7.54673 -6.86199 0
M  V30 41411 O 1662.94 -5.12391 -7.179 0
M  V30 41412 O 1663.48 -5.99236 -4.88467 0
M  V30 41413 C 1664.42 -6.60234 -3.96415 0
M  V30 41414 C 1663.69 -7.08079 -2.736 0
M  V30 41415 O 1663.48 -5.94365 -1.8368 0
M  V30 41416 C 1662.29 -7.64886 -2.9555 0
M  V30 41417 O 1661.9 -8.5406 -1.90739 0
M  V30 41418 C 1661.41 -6.4116 -2.90739 0
M  V30 41419 C 1662.12 -5.55375 -1.86963 0
M  V30 41420 N 1662.07 -4.09664 -2.15742 0
M  V30 41421 C 1661.92 -3.22231 -1.08477 0
M  V30 41422 O 1661.83 -3.68951 0.0600489 0
M  V30 41423 N 1661.87 -1.76692 -1.48799 0
M  V30 41424 C 1661.97 -1.41695 -2.57602 0
M  V30 41425 N 1661.92 -0.107296 -2.75791 0
M  V30 41426 C 1662.12 -2.29178 -3.69733 0
M  V30 41427 C 1662.17 -3.62753 -3.42653 0
M  V30 41428 H 1664.91 -7.45488 -4.45578 0
M  V30 41429 H 1665.18 -5.86232 -3.67314 0
M  V30 41430 H 1664.31 -7.84508 -2.24507 0
M  V30 41431 H 1661.66 -5.73556 -0.888715 0
M  V30 41432 H 1661.38 -5.9096 -3.88638 0
M  V30 41433 H 1660.39 -6.66053 -2.58894 0
M  V30 41434 H 1662.22 -8.16339 -3.92049 0
M  V30 41435 H 1662.29 -4.33052 -4.24913 0
M  V30 41436 H 1662.19 -1.9103 -4.71577 0
M  V30 41437 H 1661.8 0.521221 -1.95056 0
M  V30 41438 H 1662 0.286429 -3.70695 0
M  V30 41439 P 1660.35 -8.7635 -1.60911 0
M  V30 41440 O 1660.13 -10.1388 -1.11561 0
M  V30 41441 O 1659.56 -8.36503 -2.79617 0
M  V30 41442 O 1660.1 -7.71806 -0.42951 0
M  V30 41443 C 1661.04 -7.67148 0.673689 0
M  V30 41444 C 1660.31 -7.33374 1.95559 0
M  V30 41445 O 1660.1 -5.88721 2.00726 0
M  V30 41446 C 1658.91 -7.92526 2.10483 0
M  V30 41447 O 1658.52 -8.02971 3.47653 0
M  V30 41448 C 1658.03 -6.89602 1.41652 0
M  V30 41449 C 1658.74 -5.59201 1.75185 0
M  V30 41450 N 1658.69 -4.58235 0.662552 0
M  V30 41451 C 1658.77 -4.7683 -0.704049 0
M  V30 41452 N 1658.69 -3.66233 -1.39775 0
M  V30 41453 C 1658.55 -2.66526 -0.431739 0
M  V30 41454 C 1658.42 -1.26394 -0.575992 0
M  V30 41455 N 1658.3 -0.62859 0.67177 0
M  V30 41456 C 1658.3 -1.27134 1.89385 0
M  V30 41457 N 1658.17 -0.492035 2.96951 0
M  V30 41458 N 1658.43 -2.58978 2.02907 0
M  V30 41459 C 1658.55 -3.22433 0.832218 0
M  V30 41460 H 1661.53 -8.65116 0.777161 0
M  V30 41461 H 1661.8 -6.90173 0.474152 0
M  V30 41462 H 1660.93 -7.66548 2.79458 0
M  V30 41463 P 1656.97 -8.03563 3.84925 0
M  V30 41464 O 1656.75 -8.85821 5.0569 0
M  V30 41465 O 1656.18 -8.41101 2.65469 0
M  V30 41466 O 1656.72 -6.49734 4.18962 0
M  V30 41467 C 1657.66 -5.81037 5.05421 0
M  V30 41468 C 1656.93 -4.79018 5.88876 0
M  V30 41469 O 1656.72 -3.58359 5.08515 0
M  V30 41470 C 1655.53 -5.17448 6.36119 0
M  V30 41471 O 1655.14 -4.45322 7.53318 0
M  V30 41472 C 1654.65 -4.74639 5.19936 0
M  V30 41473 C 1655.36 -3.49432 4.70418 0
M  V30 41474 N 1655.31 -3.31776 3.22945 0
M  V30 41475 C 1655.16 -2.02742 2.72939 0
M  V30 41476 O 1655.07 -1.08301 3.52749 0
M  V30 41477 N 1655.11 -1.96117 1.22063 0
M  V30 41478 C 1655.21 -2.8878 0.551566 0
M  V30 41479 N 1655.16 -2.65609 -0.750198 0
M  V30 41480 C 1655.36 -4.22457 1.03707 0
M  V30 41481 C 1655.41 -4.37979 2.39113 0
M  V30 41482 H 1658.15 -6.54138 5.7131 0
M  V30 41483 H 1658.42 -5.30492 4.44033 0
M  V30 41484 H 1657.55 -4.55945 6.76735 0
M  V30 41485 H 1654.9 -2.6176 5.18021 0
M  V30 41486 H 1654.62 -5.52233 4.41941 0
M  V30 41487 H 1653.63 -4.52045 5.53452 0
M  V30 41488 H 1655.46 -6.25124 6.55234 0
M  V30 41489 H 1655.53 -5.37936 2.80552 0
M  V30 41490 H 1655.43 -5.07528 0.359553 0
M  V30 41491 H 1655.04 -1.69403 -1.09847 0
M  V30 41492 H 1655.24 -3.43701 -1.41792 0
M  V30 41493 P 1653.59 -4.23843 7.83734 0
M  V30 41494 O 1653.37 -4.19407 9.29784 0
M  V30 41495 O 1652.8 -5.24426 7.09156 0
M  V30 41496 O 1653.34 -2.7935 7.20758 0
M  V30 41497 C 1654.28 -1.7299 7.50419 0
M  V30 41498 C 1653.55 -0.406376 7.57911 0
M  V30 41499 O 1653.34 0.0897726 6.21935 0
M  V30 41500 C 1652.15 -0.447224 8.1878 0
M  V30 41501 O 1651.76 0.825065 8.71101 0
M  V30 41502 C 1651.27 -0.783801 6.99623 0
M  V30 41503 C 1651.98 -0.0619192 5.85967 0
M  V30 41504 N 1651.93 -0.790462 4.56202 0
M  V30 41505 H 1654.77 -1.93423 8.4679 0
M  V30 41506 H 1655.04 -1.68852 6.70877 0
M  V30 41507 H 1654.17 0.289041 8.15388 0
M  V30 41508 H 1651.52 0.927006 5.72848 0
M  V30 41509 H 1651.24 -1.86973 6.82036 0
M  V30 41510 H 1650.25 -0.403953 7.13357 0
M  V30 41511 H 1652.08 -1.20599 8.97534 0
M  V30 41512 P 1650.21 1.17771 8.83182 0
M  V30 41513 O 1649.99 2.07206 9.98732 0
M  V30 41514 O 1649.42 -0.0743816 8.81969 0
M  V30 41515 O 1649.96 1.97652 7.47304 0
M  V30 41516 C 1650.9 3.01133 7.08783 0
M  V30 41517 C 1650.17 4.12613 6.37049 0
M  V30 41518 O 1649.96 3.72827 4.97879 0
M  V30 41519 C 1648.77 4.45085 6.88694 0
M  V30 41520 O 1648.38 5.7877 6.5624 0
M  V30 41521 C 1647.89 3.47817 6.12078 0
M  V30 41522 C 1648.6 3.39414 4.77697 0
M  V30 41523 N 1648.55 2.04615 4.15333 0
M  V30 41524 H 1651.39 3.41248 7.98759 0
M  V30 41525 H 1651.66 2.5837 6.41742 0
M  V30 41526 H 1650.79 5.02657 6.42673 0
M  V30 41527 P 1646.83 6.144 6.45285 0
M  V30 41528 O 1646.61 7.54673 6.86199 0
M  V30 41529 O 1646.04 5.12391 7.179 0
M  V30 41530 O 1646.58 5.99158 4.88404 0
M  V30 41531 C 1647.52 6.60234 3.96415 0
M  V30 41532 C 1646.79 7.08259 2.72856 0
M  V30 41533 O 1646.58 5.9427 1.83651 0
M  V30 41534 C 1645.39 7.64886 2.9555 0
M  V30 41535 O 1645 8.53963 1.90717 0
M  V30 41536 C 1644.51 6.4116 2.90739 0
M  V30 41537 C 1645.22 5.55375 1.86963 0
M  V30 41538 N 1645.17 4.09664 2.15742 0
M  V30 41539 H 1648.01 7.45574 4.45629 0
M  V30 41540 H 1648.28 5.86232 3.67314 0
M  V30 41541 H 1647.41 7.84412 2.24479 0
M  V30 41542 P 1643.45 8.7635 1.60911 0
M  V30 41543 O 1643.23 10.1388 1.11561 0
M  V30 41544 O 1642.66 8.36503 2.79617 0
M  V30 41545 O 1643.2 7.71806 0.42951 0
M  V30 41546 C 1644.14 7.67148 -0.673689 0
M  V30 41547 C 1643.41 7.33374 -1.95559 0
M  V30 41548 O 1643.2 5.88721 -2.00726 0
M  V30 41549 C 1642.01 7.92526 -2.10483 0
M  V30 41550 O 1641.62 8.02971 -3.47653 0
M  V30 41551 C 1641.13 6.89602 -1.41652 0
M  V30 41552 C 1641.84 5.59201 -1.75185 0
M  V30 41553 N 1641.79 4.58235 -0.662552 0
M  V30 41554 H 1644.63 8.65116 -0.777161 0
M  V30 41555 H 1644.9 6.90173 -0.474152 0
M  V30 41556 H 1644.03 7.66548 -2.79458 0
M  V30 41557 P 1640.07 8.03563 -3.84925 0
M  V30 41558 O 1639.85 8.85821 -5.0569 0
M  V30 41559 O 1639.28 8.41101 -2.65469 0
M  V30 41560 O 1639.82 6.4965 -4.18908 0
M  V30 41561 C 1640.76 5.81037 -5.05421 0
M  V30 41562 C 1640.03 4.78366 -5.89277 0
M  V30 41563 O 1639.82 3.58302 -5.08433 0
M  V30 41564 C 1638.63 5.17448 -6.36119 0
M  V30 41565 O 1638.24 4.45271 -7.53232 0
M  V30 41566 C 1637.75 4.74639 -5.19936 0
M  V30 41567 C 1638.46 3.49432 -4.70418 0
M  V30 41568 N 1638.41 3.32099 -3.22613 0
M  V30 41569 H 1641.25 6.54213 -5.71376 0
M  V30 41570 H 1641.52 5.30936 -4.43503 0
M  V30 41571 H 1640.65 4.55889 -6.76652 0
M  V30 41572 H 1638 2.61715 -5.17932 0
M  V30 41573 H 1637.72 5.52155 -4.41878 0
M  V30 41574 H 1636.73 4.51981 -5.53374 0
M  V30 41575 H 1638.56 6.25124 -6.55234 0
M  V30 41576 P 1636.69 4.23843 -7.83734 0
M  V30 41577 O 1636.47 4.19407 -9.29784 0
M  V30 41578 O 1635.9 5.24426 -7.09156 0
M  V30 41579 O 1636.44 2.7935 -7.20758 0
M  V30 41580 C 1637.38 1.7299 -7.50419 0
M  V30 41581 C 1636.65 0.406376 -7.57911 0
M  V30 41582 O 1636.44 -0.0897726 -6.21935 0
M  V30 41583 C 1635.25 0.447224 -8.1878 0
M  V30 41584 O 1634.86 -0.825065 -8.71101 0
M  V30 41585 C 1634.37 0.783801 -6.99623 0
M  V30 41586 C 1635.08 0.0619192 -5.85967 0
M  V30 41587 N 1635.03 0.7859 -4.56281 0
M  V30 41588 C 1635.11 2.14308 -4.31736 0
M  V30 41589 N 1635.03 2.46106 -3.05116 0
M  V30 41590 C 1634.89 1.23422 -2.4014 0
M  V30 41591 C 1634.76 0.938381 -1.02409 0
M  V30 41592 N 1634.64 -0.444647 -0.805413 0
M  V30 41593 C 1634.64 -1.40829 -1.79435 0
M  V30 41594 N 1634.51 -2.67213 -1.38558 0
M  V30 41595 N 1634.77 -1.12947 -3.09005 0
M  V30 41596 C 1634.89 0.204887 -3.32369 0
M  V30 41597 H 1637.87 1.93423 -8.4679 0
M  V30 41598 H 1638.14 1.68181 -6.71046 0
M  V30 41599 H 1637.27 -0.289041 -8.15388 0
M  V30 41600 P 1633.31 -1.17771 -8.83182 0
M  V30 41601 O 1633.09 -2.07206 -9.98732 0
M  V30 41602 O 1632.52 0.0743816 -8.81969 0
M  V30 41603 O 1633.06 -1.97652 -7.47304 0
M  V30 41604 C 1634 -3.01133 -7.08783 0
M  V30 41605 C 1633.27 -4.12613 -6.37049 0
M  V30 41606 O 1633.06 -3.72827 -4.97879 0
M  V30 41607 C 1631.87 -4.45085 -6.88694 0
M  V30 41608 O 1631.48 -5.7877 -6.5624 0
M  V30 41609 C 1630.99 -3.47817 -6.12078 0
M  V30 41610 C 1631.7 -3.39414 -4.77697 0
M  V30 41611 N 1631.65 -2.04615 -4.15333 0
M  V30 41612 H 1634.49 -3.41248 -7.98759 0
M  V30 41613 H 1634.76 -2.5837 -6.41742 0
M  V30 41614 H 1633.89 -5.02657 -6.42673 0
M  V30 41615 P 1629.93 -6.144 -6.45285 0
M  V30 41616 O 1629.71 -7.54673 -6.86199 0
M  V30 41617 O 1629.14 -5.12391 -7.179 0
M  V30 41618 O 1629.68 -5.99158 -4.88404 0
M  V30 41619 C 1630.62 -6.60234 -3.96415 0
M  V30 41620 C 1629.89 -7.08259 -2.72856 0
M  V30 41621 O 1629.68 -5.9427 -1.83651 0
M  V30 41622 C 1628.49 -7.64886 -2.9555 0
M  V30 41623 O 1628.1 -8.53963 -1.90717 0
M  V30 41624 C 1627.61 -6.4116 -2.90739 0
M  V30 41625 C 1628.32 -5.55375 -1.86963 0
M  V30 41626 N 1628.27 -4.09664 -2.15742 0
M  V30 41627 H 1631.11 -7.45574 -4.45629 0
M  V30 41628 H 1631.38 -5.86232 -3.67314 0
M  V30 41629 H 1630.51 -7.84412 -2.24479 0
M  V30 41630 P 1626.55 -8.7635 -1.60911 0
M  V30 41631 O 1626.33 -10.1388 -1.11561 0
M  V30 41632 O 1625.76 -8.36503 -2.79617 0
M  V30 41633 O 1626.3 -7.71806 -0.42951 0
M  V30 41634 C 1627.24 -7.67148 0.673689 0
M  V30 41635 C 1626.51 -7.33374 1.95559 0
M  V30 41636 O 1626.3 -5.88721 2.00726 0
M  V30 41637 C 1625.11 -7.92526 2.10483 0
M  V30 41638 O 1624.72 -8.02971 3.47653 0
M  V30 41639 C 1624.23 -6.89602 1.41652 0
M  V30 41640 C 1624.94 -5.59201 1.75185 0
M  V30 41641 N 1624.89 -4.58301 0.657969 0
M  V30 41642 C 1624.97 -4.79019 -0.692603 0
M  V30 41643 N 1624.9 -3.69736 -1.38998 0
M  V30 41644 C 1624.75 -2.70474 -0.438135 0
M  V30 41645 C 1624.62 -1.30327 -0.538142 0
M  V30 41646 N 1624.61 -0.64304 -1.69192 0
M  V30 41647 N 1624.5 -0.611027 0.605183 0
M  V30 41648 C 1624.51 -1.27002 1.75953 0
M  V30 41649 N 1624.63 -2.56038 1.98546 0
M  V30 41650 C 1624.75 -3.22681 0.822541 0
M  V30 41651 H 1627.73 -8.65116 0.777161 0
M  V30 41652 H 1628 -6.9022 0.46725 0
M  V30 41653 H 1627.13 -7.66548 2.79458 0
M  V30 41654 H 1624.48 -5.16165 2.65183 0
M  V30 41655 H 1624.2 -7.06433 0.329384 0
M  V30 41656 H 1623.21 -6.90926 1.82021 0
M  V30 41657 H 1625.04 -8.90873 1.62657 0
M  V30 41658 H 1625.08 -5.77785 -1.13874 0
M  V30 41659 H 1624.7 -1.15585 -2.57991 0
M  V30 41660 H 1624.51 0.382989 -1.69835 0
M  V30 41661 H 1624.4 -0.653331 2.64449 0
M  V30 41662 P 1623.17 -8.03563 3.84925 0
M  V30 41663 O 1622.95 -8.85821 5.0569 0
M  V30 41664 O 1622.38 -8.41101 2.65469 0
M  V30 41665 O 1622.92 -6.4965 4.18908 0
M  V30 41666 C 1623.86 -5.81037 5.05421 0
M  V30 41667 C 1623.13 -4.78366 5.89277 0
M  V30 41668 O 1622.92 -3.58302 5.08433 0
M  V30 41669 C 1621.73 -5.17448 6.36119 0
M  V30 41670 O 1621.34 -4.45271 7.53232 0
M  V30 41671 C 1620.85 -4.74639 5.19936 0
M  V30 41672 C 1621.56 -3.49432 4.70418 0
M  V30 41673 N 1621.51 -3.31776 3.22945 0
M  V30 41674 H 1624.35 -6.54213 5.71376 0
M  V30 41675 H 1624.62 -5.30492 4.44033 0
M  V30 41676 H 1623.75 -4.55889 6.76652 0
M  V30 41677 P 1619.79 -4.23843 7.83734 0
M  V30 41678 O 1619.57 -4.19407 9.29784 0
M  V30 41679 O 1619 -5.24426 7.09156 0
M  V30 41680 O 1619.54 -2.7935 7.20758 0
M  V30 41681 C 1620.48 -1.7299 7.50419 0
M  V30 41682 C 1619.75 -0.406376 7.57911 0
M  V30 41683 O 1619.54 0.0897726 6.21935 0
M  V30 41684 C 1618.35 -0.447224 8.1878 0
M  V30 41685 O 1617.96 0.825065 8.71101 0
M  V30 41686 C 1617.47 -0.783801 6.99623 0
M  V30 41687 C 1618.18 -0.0619192 5.85967 0
M  V30 41688 N 1618.13 -0.790462 4.56202 0
M  V30 41689 H 1620.97 -1.93423 8.4679 0
M  V30 41690 H 1621.24 -1.68852 6.70877 0
M  V30 41691 H 1620.37 0.289041 8.15388 0
M  V30 41692 H 1617.72 0.927006 5.72848 0
M  V30 41693 H 1617.44 -1.86973 6.82036 0
M  V30 41694 H 1616.45 -0.403953 7.13357 0
M  V30 41695 H 1618.28 -1.20599 8.97534 0
M  V30 41696 P 1616.41 1.17771 8.83182 0
M  V30 41697 O 1616.19 2.07206 9.98732 0
M  V30 41698 O 1615.62 -0.0743816 8.81969 0
M  V30 41699 O 1616.16 1.97652 7.47304 0
M  V30 41700 C 1617.1 3.01133 7.08783 0
M  V30 41701 C 1616.37 4.12613 6.37049 0
M  V30 41702 O 1616.16 3.72827 4.97879 0
M  V30 41703 C 1614.97 4.45085 6.88694 0
M  V30 41704 O 1614.58 5.7877 6.5624 0
M  V30 41705 C 1614.09 3.47817 6.12078 0
M  V30 41706 C 1614.8 3.39414 4.77697 0
M  V30 41707 N 1614.75 2.04199 4.15538 0
M  V30 41708 C 1614.83 0.821545 4.76977 0
M  V30 41709 N 1614.76 -0.1794 3.94592 0
M  V30 41710 C 1614.61 0.419121 2.70776 0
M  V30 41711 C 1614.48 -0.109072 1.40577 0
M  V30 41712 N 1614.47 -1.4104 1.1344 0
M  V30 41713 N 1614.36 0.764381 0.39411 0
M  V30 41714 C 1614.37 2.06587 0.664135 0
M  V30 41715 N 1614.49 2.67948 1.82153 0
M  V30 41716 C 1614.61 1.77942 2.8147 0
M  V30 41717 H 1617.59 3.41248 7.98759 0
M  V30 41718 H 1617.86 2.57728 6.42 0
M  V30 41719 H 1616.99 5.02657 6.42673 0
M  V30 41720 H 1614.34 4.11708 4.08956 0
M  V30 41721 H 1614.06 2.49626 6.61679 0
M  V30 41722 H 1613.07 3.8662 6.00862 0
M  V30 41723 H 1614.9 4.29991 7.97006 0
M  V30 41724 H 1614.94 0.702451 5.84696 0
M  V30 41725 H 1614.56 -2.09647 1.89651 0
M  V30 41726 H 1614.37 -1.73358 0.160575 0
M  V30 41727 H 1614.26 2.71695 -0.195838 0
M  V30 41728 P 1613.03 6.144 6.45285 0
M  V30 41729 O 1612.81 7.54673 6.86199 0
M  V30 41730 O 1612.24 5.12391 7.179 0
M  V30 41731 O 1612.78 5.99158 4.88404 0
M  V30 41732 C 1613.72 6.60234 3.96415 0
M  V30 41733 C 1612.99 7.08259 2.72856 0
M  V30 41734 O 1612.78 5.9427 1.83651 0
M  V30 41735 C 1611.59 7.64886 2.9555 0
M  V30 41736 O 1611.2 8.53963 1.90717 0
M  V30 41737 C 1610.71 6.4116 2.90739 0
M  V30 41738 C 1611.42 5.55375 1.86963 0
M  V30 41739 N 1611.37 4.09664 2.15742 0
M  V30 41740 H 1614.21 7.45574 4.45629 0
M  V30 41741 H 1614.48 5.86232 3.67314 0
M  V30 41742 H 1613.61 7.84412 2.24479 0
M  V30 41743 P 1609.65 8.7635 1.60911 0
M  V30 41744 O 1609.43 10.1388 1.11561 0
M  V30 41745 O 1608.86 8.36503 2.79617 0
M  V30 41746 O 1609.4 7.71806 0.42951 0
M  V30 41747 C 1610.34 7.67148 -0.673689 0
M  V30 41748 C 1609.61 7.33374 -1.95559 0
M  V30 41749 O 1609.4 5.88721 -2.00726 0
M  V30 41750 C 1608.21 7.92526 -2.10483 0
M  V30 41751 O 1607.82 8.02971 -3.47653 0
M  V30 41752 C 1607.33 6.89602 -1.41652 0
M  V30 41753 C 1608.04 5.59201 -1.75185 0
M  V30 41754 N 1607.99 4.58235 -0.662552 0
M  V30 41755 H 1610.83 8.65116 -0.777161 0
M  V30 41756 H 1611.1 6.90173 -0.474152 0
M  V30 41757 H 1610.23 7.66548 -2.79458 0
M  V30 41758 P 1606.27 8.03563 -3.84925 0
M  V30 41759 O 1606.05 8.85821 -5.0569 0
M  V30 41760 O 1605.48 8.41101 -2.65469 0
M  V30 41761 O 1606.02 6.4965 -4.18908 0
M  V30 41762 C 1606.96 5.81037 -5.05421 0
M  V30 41763 C 1606.23 4.78366 -5.89277 0
M  V30 41764 O 1606.02 3.58302 -5.08433 0
M  V30 41765 C 1604.83 5.17448 -6.36119 0
M  V30 41766 O 1604.44 4.45271 -7.53232 0
M  V30 41767 C 1603.95 4.74639 -5.19936 0
M  V30 41768 C 1604.66 3.49432 -4.70418 0
M  V30 41769 N 1604.61 3.31776 -3.22945 0
M  V30 41770 H 1607.45 6.54213 -5.71376 0
M  V30 41771 H 1607.72 5.30492 -4.44033 0
M  V30 41772 H 1606.85 4.55889 -6.76652 0
M  V30 41773 P 1602.89 4.23843 -7.83734 0
M  V30 41774 O 1602.67 4.19407 -9.29784 0
M  V30 41775 O 1602.1 5.24426 -7.09156 0
M  V30 41776 O 1602.64 2.7935 -7.20758 0
M  V30 41777 C 1603.58 1.7299 -7.50419 0
M  V30 41778 C 1602.85 0.406376 -7.57911 0
M  V30 41779 O 1602.64 -0.0897726 -6.21935 0
M  V30 41780 C 1601.45 0.447224 -8.1878 0
M  V30 41781 O 1601.06 -0.825065 -8.71101 0
M  V30 41782 C 1600.57 0.783801 -6.99623 0
M  V30 41783 C 1601.28 0.0619192 -5.85967 0
M  V30 41784 N 1601.23 0.7859 -4.56281 0
M  V30 41785 H 1604.07 1.93423 -8.4679 0
M  V30 41786 H 1604.34 1.68181 -6.71046 0
M  V30 41787 H 1603.47 -0.289041 -8.15388 0
M  V30 41788 P 1599.51 -1.17771 -8.83182 0
M  V30 41789 O 1599.29 -2.07206 -9.98732 0
M  V30 41790 O 1598.72 0.0743816 -8.81969 0
M  V30 41791 O 1599.26 -1.97652 -7.47304 0
M  V30 41792 C 1600.2 -3.01133 -7.08783 0
M  V30 41793 C 1599.47 -4.12613 -6.37049 0
M  V30 41794 O 1599.26 -3.72827 -4.97879 0
M  V30 41795 C 1598.07 -4.45085 -6.88694 0
M  V30 41796 O 1597.68 -5.7877 -6.5624 0
M  V30 41797 C 1597.19 -3.47817 -6.12078 0
M  V30 41798 C 1597.9 -3.39414 -4.77697 0
M  V30 41799 N 1597.85 -2.04615 -4.15333 0
M  V30 41800 H 1600.69 -3.41248 -7.98759 0
M  V30 41801 H 1600.96 -2.5837 -6.41742 0
M  V30 41802 H 1600.09 -5.02657 -6.42673 0
M  V30 41803 P 1596.13 -6.144 -6.45285 0
M  V30 41804 O 1595.91 -7.54673 -6.86199 0
M  V30 41805 O 1595.34 -5.12391 -7.179 0
M  V30 41806 O 1595.88 -5.99158 -4.88404 0
M  V30 41807 C 1596.82 -6.60234 -3.96415 0
M  V30 41808 C 1596.09 -7.08259 -2.72856 0
M  V30 41809 O 1595.88 -5.9427 -1.83651 0
M  V30 41810 C 1594.69 -7.64886 -2.9555 0
M  V30 41811 O 1594.3 -8.53963 -1.90717 0
M  V30 41812 C 1593.81 -6.4116 -2.90739 0
M  V30 41813 C 1594.52 -5.55375 -1.86963 0
M  V30 41814 N 1594.47 -4.09448 -2.16152 0
M  V30 41815 H 1597.31 -7.45574 -4.45629 0
M  V30 41816 H 1597.58 -5.85864 -3.679 0
M  V30 41817 H 1596.71 -7.84412 -2.24479 0
M  V30 41818 H 1594.06 -5.73457 -0.888562 0
M  V30 41819 H 1593.78 -5.90877 -3.88583 0
M  V30 41820 H 1592.79 -6.6596 -2.58858 0
M  V30 41821 H 1594.62 -8.16339 -3.92049 0
M  V30 41822 P 1592.75 -8.7635 -1.60911 0
M  V30 41823 O 1592.53 -10.1388 -1.11561 0
M  V30 41824 O 1591.96 -8.36503 -2.79617 0
M  V30 41825 O 1592.5 -7.71806 -0.42951 0
M  V30 41826 C 1593.44 -7.67148 0.673689 0
M  V30 41827 C 1592.71 -7.33374 1.95559 0
M  V30 41828 O 1592.5 -5.88721 2.00726 0
M  V30 41829 C 1591.31 -7.92526 2.10483 0
M  V30 41830 O 1590.92 -8.02971 3.47653 0
M  V30 41831 C 1590.43 -6.89602 1.41652 0
M  V30 41832 C 1591.14 -5.59201 1.75185 0
M  V30 41833 N 1591.09 -4.58235 0.662552 0
M  V30 41834 H 1593.93 -8.65116 0.777161 0
M  V30 41835 H 1594.2 -6.90173 0.474152 0
M  V30 41836 H 1593.33 -7.66548 2.79458 0
M  V30 41837 P 1589.37 -8.03563 3.84925 0
M  V30 41838 O 1589.15 -8.85821 5.0569 0
M  V30 41839 O 1588.58 -8.41101 2.65469 0
M  V30 41840 O 1589.12 -6.4965 4.18908 0
M  V30 41841 C 1590.06 -5.81037 5.05421 0
M  V30 41842 C 1589.33 -4.78366 5.89277 0
M  V30 41843 O 1589.12 -3.58302 5.08433 0
M  V30 41844 C 1587.93 -5.17448 6.36119 0
M  V30 41845 O 1587.54 -4.45271 7.53232 0
M  V30 41846 C 1587.05 -4.74639 5.19936 0
M  V30 41847 C 1587.76 -3.49432 4.70418 0
M  V30 41848 N 1587.71 -3.31776 3.22945 0
M  V30 41849 H 1590.55 -6.54213 5.71376 0
M  V30 41850 H 1590.82 -5.30492 4.44033 0
M  V30 41851 H 1589.95 -4.55889 6.76652 0
M  V30 41852 P 1585.99 -4.23843 7.83734 0
M  V30 41853 O 1585.77 -4.19407 9.29784 0
M  V30 41854 O 1585.2 -5.24426 7.09156 0
M  V30 41855 O 1585.74 -2.7935 7.20758 0
M  V30 41856 C 1586.68 -1.7299 7.50419 0
M  V30 41857 C 1585.95 -0.406376 7.57911 0
M  V30 41858 O 1585.74 0.0897726 6.21935 0
M  V30 41859 C 1584.55 -0.447224 8.1878 0
M  V30 41860 O 1584.16 0.825065 8.71101 0
M  V30 41861 C 1583.67 -0.783801 6.99623 0
M  V30 41862 C 1584.38 -0.0619192 5.85967 0
M  V30 41863 N 1584.33 -0.7859 4.56281 0
M  V30 41864 H 1587.17 -1.93423 8.4679 0
M  V30 41865 H 1587.44 -1.68181 6.71046 0
M  V30 41866 H 1586.57 0.289041 8.15388 0
M  V30 41867 P 1582.61 1.17771 8.83182 0
M  V30 41868 O 1582.39 2.07206 9.98732 0
M  V30 41869 O 1581.82 -0.0743816 8.81969 0
M  V30 41870 O 1582.36 1.97652 7.47304 0
M  V30 41871 C 1583.3 3.01133 7.08783 0
M  V30 41872 C 1582.57 4.12613 6.37049 0
M  V30 41873 O 1582.36 3.72827 4.97879 0
M  V30 41874 C 1581.17 4.45085 6.88694 0
M  V30 41875 O 1580.78 5.7877 6.5624 0
M  V30 41876 C 1580.29 3.47817 6.12078 0
M  V30 41877 C 1581 3.39414 4.77697 0
M  V30 41878 N 1580.95 2.04615 4.15333 0
M  V30 41879 H 1583.79 3.41248 7.98759 0
M  V30 41880 H 1584.06 2.5837 6.41742 0
M  V30 41881 H 1583.19 5.02657 6.42673 0
M  V30 41882 P 1579.23 6.144 6.45285 0
M  V30 41883 O 1579.01 7.54673 6.86199 0
M  V30 41884 O 1578.44 5.12391 7.179 0
M  V30 41885 O 1578.98 5.99158 4.88404 0
M  V30 41886 C 1579.92 6.60234 3.96415 0
M  V30 41887 C 1579.19 7.08259 2.72856 0
M  V30 41888 O 1578.98 5.9427 1.83651 0
M  V30 41889 C 1577.79 7.64886 2.9555 0
M  V30 41890 O 1577.4 8.53963 1.90717 0
M  V30 41891 C 1576.91 6.4116 2.90739 0
M  V30 41892 C 1577.62 5.55375 1.86963 0
M  V30 41893 N 1577.57 4.09664 2.15742 0
M  V30 41894 H 1580.41 7.45574 4.45629 0
M  V30 41895 H 1580.68 5.86232 3.67314 0
M  V30 41896 H 1579.81 7.84412 2.24479 0
M  V30 41897 P 1575.85 8.7635 1.60911 0
M  V30 41898 O 1575.63 10.1388 1.11561 0
M  V30 41899 O 1575.06 8.36503 2.79617 0
M  V30 41900 O 1575.6 7.71806 0.42951 0
M  V30 41901 C 1576.54 7.67148 -0.673689 0
M  V30 41902 C 1575.81 7.33374 -1.95559 0
M  V30 41903 O 1575.6 5.88721 -2.00726 0
M  V30 41904 C 1574.41 7.92526 -2.10483 0
M  V30 41905 O 1574.02 8.02971 -3.47653 0
M  V30 41906 C 1573.53 6.89602 -1.41652 0
M  V30 41907 C 1574.24 5.59201 -1.75185 0
M  V30 41908 N 1574.19 4.58235 -0.662552 0
M  V30 41909 C 1574.27 4.7683 0.704049 0
M  V30 41910 N 1574.19 3.66233 1.39775 0
M  V30 41911 C 1574.05 2.66526 0.431739 0
M  V30 41912 C 1573.92 1.26394 0.575992 0
M  V30 41913 N 1573.8 0.62859 -0.67177 0
M  V30 41914 C 1573.8 1.27134 -1.89385 0
M  V30 41915 N 1573.67 0.492035 -2.96951 0
M  V30 41916 N 1573.93 2.58978 -2.02907 0
M  V30 41917 C 1574.05 3.22433 -0.832218 0
M  V30 41918 H 1577.03 8.65116 -0.777161 0
M  V30 41919 H 1577.3 6.90173 -0.474152 0
M  V30 41920 H 1576.43 7.66548 -2.79458 0
M  V30 41921 P 1572.47 8.03563 -3.84925 0
M  V30 41922 O 1572.25 8.85821 -5.0569 0
M  V30 41923 O 1571.68 8.41101 -2.65469 0
M  V30 41924 O 1572.22 6.49734 -4.18962 0
M  V30 41925 C 1573.16 5.81037 -5.05421 0
M  V30 41926 C 1572.43 4.79018 -5.88876 0
M  V30 41927 O 1572.22 3.58359 -5.08515 0
M  V30 41928 C 1571.03 5.17448 -6.36119 0
M  V30 41929 O 1570.64 4.45322 -7.53318 0
M  V30 41930 C 1570.15 4.74639 -5.19936 0
M  V30 41931 C 1570.86 3.49432 -4.70418 0
M  V30 41932 N 1570.81 3.31776 -3.22945 0
M  V30 41933 C 1570.66 2.02742 -2.72939 0
M  V30 41934 O 1570.57 1.08301 -3.52749 0
M  V30 41935 N 1570.61 1.96117 -1.22063 0
M  V30 41936 C 1570.71 2.8878 -0.551566 0
M  V30 41937 N 1570.66 2.65609 0.750198 0
M  V30 41938 C 1570.86 4.22457 -1.03707 0
M  V30 41939 C 1570.91 4.37979 -2.39113 0
M  V30 41940 H 1573.65 6.54138 -5.7131 0
M  V30 41941 H 1573.92 5.30492 -4.44033 0
M  V30 41942 H 1573.05 4.55945 -6.76735 0
M  V30 41943 H 1570.4 2.6176 -5.18021 0
M  V30 41944 H 1570.12 5.52233 -4.41941 0
M  V30 41945 H 1569.13 4.52045 -5.53452 0
M  V30 41946 H 1570.96 6.25124 -6.55234 0
M  V30 41947 H 1571.03 5.37936 -2.80552 0
M  V30 41948 H 1570.93 5.07528 -0.359553 0
M  V30 41949 H 1570.54 1.69403 1.09847 0
M  V30 41950 H 1570.74 3.43701 1.41792 0
M  V30 41951 P 1569.09 4.23843 -7.83734 0
M  V30 41952 O 1568.87 4.19407 -9.29784 0
M  V30 41953 O 1568.3 5.24426 -7.09156 0
M  V30 41954 O 1568.84 2.7935 -7.20758 0
M  V30 41955 C 1569.78 1.7299 -7.50419 0
M  V30 41956 C 1569.05 0.406376 -7.57911 0
M  V30 41957 O 1568.84 -0.0897726 -6.21935 0
M  V30 41958 C 1567.65 0.447224 -8.1878 0
M  V30 41959 O 1567.26 -0.825065 -8.71101 0
M  V30 41960 C 1566.77 0.783801 -6.99623 0
M  V30 41961 C 1567.48 0.0619192 -5.85967 0
M  V30 41962 N 1567.43 0.790462 -4.56202 0
M  V30 41963 C 1567.51 2.13895 -4.34171 0
M  V30 41964 N 1567.44 2.46449 -3.08687 0
M  V30 41965 C 1567.29 1.2525 -2.43697 0
M  V30 41966 C 1567.16 0.914535 -1.07318 0
M  V30 41967 N 1567.15 1.80782 -0.0887348 0
M  V30 41968 N 1567.04 -0.386745 -0.768133 0
M  V30 41969 C 1567.05 -1.28096 -1.75159 0
M  V30 41970 N 1567.17 -1.09708 -3.04861 0
M  V30 41971 C 1567.29 0.214857 -3.32306 0
M  V30 41972 H 1570.27 1.93423 -8.4679 0
M  V30 41973 H 1570.54 1.68852 -6.70877 0
M  V30 41974 H 1569.67 -0.289041 -8.15388 0
M  V30 41975 H 1567.02 -0.927006 -5.72848 0
M  V30 41976 H 1566.74 1.86973 -6.82036 0
M  V30 41977 H 1565.75 0.403953 -7.13357 0
M  V30 41978 H 1567.58 1.20599 -8.97534 0
M  V30 41979 H 1567.62 2.86846 -5.14318 0
M  V30 41980 H 1567.24 2.81082 -0.302037 0
M  V30 41981 H 1567.05 1.49688 0.889064 0
M  V30 41982 H 1566.94 -2.31317 -1.43855 0
M  V30 41983 P 1565.71 -1.17771 -8.83182 0
M  V30 41984 O 1565.49 -2.07206 -9.98732 0
M  V30 41985 O 1564.92 0.0743816 -8.81969 0
M  V30 41986 O 1565.46 -1.97652 -7.47304 0
M  V30 41987 C 1566.4 -3.01133 -7.08783 0
M  V30 41988 C 1565.67 -4.12613 -6.37049 0
M  V30 41989 O 1565.46 -3.72827 -4.97879 0
M  V30 41990 C 1564.27 -4.45085 -6.88694 0
M  V30 41991 O 1563.88 -5.7877 -6.5624 0
M  V30 41992 C 1563.39 -3.47817 -6.12078 0
M  V30 41993 C 1564.1 -3.39414 -4.77697 0
M  V30 41994 N 1564.05 -2.04615 -4.15333 0
M  V30 41995 H 1566.89 -3.41248 -7.98759 0
M  V30 41996 H 1567.16 -2.5837 -6.41742 0
M  V30 41997 H 1566.29 -5.02657 -6.42673 0
M  V30 41998 P 1562.33 -6.144 -6.45285 0
M  V30 41999 O 1562.11 -7.54673 -6.86199 0
M  V30 42000 O 1561.54 -5.12391 -7.179 0
M  V30 42001 O 1562.08 -5.99158 -4.88404 0
M  V30 42002 C 1563.02 -6.60234 -3.96415 0
M  V30 42003 C 1562.29 -7.08259 -2.72856 0
M  V30 42004 O 1562.08 -5.9427 -1.83651 0
M  V30 42005 C 1560.89 -7.64886 -2.9555 0
M  V30 42006 O 1560.5 -8.53963 -1.90717 0
M  V30 42007 C 1560.01 -6.4116 -2.90739 0
M  V30 42008 C 1560.72 -5.55375 -1.86963 0
M  V30 42009 N 1560.67 -4.09664 -2.15742 0
M  V30 42010 H 1563.51 -7.45574 -4.45629 0
M  V30 42011 H 1563.78 -5.86232 -3.67314 0
M  V30 42012 H 1562.91 -7.84412 -2.24479 0
M  V30 42013 P 1558.95 -8.7635 -1.60911 0
M  V30 42014 O 1558.73 -10.1388 -1.11561 0
M  V30 42015 O 1558.16 -8.36503 -2.79617 0
M  V30 42016 O 1558.7 -7.71806 -0.42951 0
M  V30 42017 C 1559.64 -7.67148 0.673689 0
M  V30 42018 C 1558.91 -7.33374 1.95559 0
M  V30 42019 O 1558.7 -5.88721 2.00726 0
M  V30 42020 C 1557.51 -7.92526 2.10483 0
M  V30 42021 O 1557.12 -8.02971 3.47653 0
M  V30 42022 C 1556.63 -6.89602 1.41652 0
M  V30 42023 C 1557.34 -5.59201 1.75185 0
M  V30 42024 N 1557.29 -4.58235 0.662552 0
M  V30 42025 H 1560.13 -8.65116 0.777161 0
M  V30 42026 H 1560.4 -6.90173 0.474152 0
M  V30 42027 H 1559.53 -7.66548 2.79458 0
M  V30 42028 P 1555.57 -8.03563 3.84925 0
M  V30 42029 O 1555.35 -8.85821 5.0569 0
M  V30 42030 O 1554.78 -8.41101 2.65469 0
M  V30 42031 O 1555.32 -6.4965 4.18908 0
M  V30 42032 C 1556.26 -5.81037 5.05421 0
M  V30 42033 C 1555.53 -4.78366 5.89277 0
M  V30 42034 O 1555.32 -3.58302 5.08433 0
M  V30 42035 C 1554.13 -5.17448 6.36119 0
M  V30 42036 O 1553.74 -4.45271 7.53232 0
M  V30 42037 C 1553.25 -4.74639 5.19936 0
M  V30 42038 C 1553.96 -3.49432 4.70418 0
M  V30 42039 N 1553.91 -3.31776 3.22945 0
M  V30 42040 H 1556.75 -6.54213 5.71376 0
M  V30 42041 H 1557.02 -5.30492 4.44033 0
M  V30 42042 H 1556.15 -4.55889 6.76652 0
M  V30 42043 P 1552.19 -4.23843 7.83734 0
M  V30 42044 O 1551.97 -4.19407 9.29784 0
M  V30 42045 O 1551.4 -5.24426 7.09156 0
M  V30 42046 O 1551.94 -2.79386 7.20852 0
M  V30 42047 C 1552.88 -1.7299 7.50419 0
M  V30 42048 C 1552.15 -0.41401 7.5797 0
M  V30 42049 O 1551.94 0.089787 6.22035 0
M  V30 42050 C 1550.75 -0.447224 8.1878 0
M  V30 42051 O 1550.36 0.825159 8.71201 0
M  V30 42052 C 1549.87 -0.783801 6.99623 0
M  V30 42053 C 1550.58 -0.0619192 5.85967 0
M  V30 42054 N 1550.53 -0.7859 4.56281 0
M  V30 42055 C 1550.38 -0.0359258 3.39981 0
M  V30 42056 O 1550.29 1.19723 3.49038 0
M  V30 42057 N 1550.33 -0.869151 2.14025 0
M  V30 42058 C 1550.43 -2.01207 2.14363 0
M  V30 42059 N 1550.38 -2.58978 0.954287 0
M  V30 42060 C 1550.58 -2.80817 3.32215 0
M  V30 42061 C 1550.63 -2.13785 4.50884 0
M  V30 42062 H 1553.37 -1.93401 8.46693 0
M  V30 42063 H 1553.64 -1.68181 6.71046 0
M  V30 42064 H 1552.77 0.289076 8.15488 0
M  V30 42065 H 1550.12 0.927166 5.72947 0
M  V30 42066 H 1549.84 -1.87 6.82132 0
M  V30 42067 H 1548.85 -0.404009 7.13457 0
M  V30 42068 H 1550.68 -1.20599 8.97534 0
M  V30 42069 H 1550.75 -2.70295 5.43162 0
M  V30 42070 H 1550.65 -3.89465 3.27406 0
M  V30 42071 H 1550.26 -2.01616 0.107046 0
M  V30 42072 H 1550.46 -3.61403 0.873101 0
M  V30 42073 P 1548.81 1.17771 8.83182 0
M  V30 42074 O 1548.59 2.07206 9.98732 0
M  V30 42075 O 1548.02 -0.0743816 8.81969 0
M  V30 42076 O 1548.56 1.97652 7.47304 0
M  V30 42077 C 1549.5 3.01133 7.08783 0
M  V30 42078 C 1548.77 4.12613 6.37049 0
M  V30 42079 O 1548.56 3.72827 4.97879 0
M  V30 42080 C 1547.37 4.45085 6.88694 0
M  V30 42081 O 1546.98 5.7877 6.5624 0
M  V30 42082 C 1546.49 3.47817 6.12078 0
M  V30 42083 C 1547.2 3.39414 4.77697 0
M  V30 42084 N 1547.15 2.04615 4.15333 0
M  V30 42085 C 1547.23 0.803897 4.75249 0
M  V30 42086 N 1547.15 -0.197615 3.91502 0
M  V30 42087 C 1547.01 0.413002 2.66823 0
M  V30 42088 C 1546.88 -0.157221 1.38007 0
M  V30 42089 N 1546.76 0.833136 0.390236 0
M  V30 42090 C 1546.76 2.19402 0.623885 0
M  V30 42091 N 1546.63 2.97622 -0.449677 0
M  V30 42092 N 1546.89 2.73005 1.83601 0
M  V30 42093 C 1547.01 1.78786 2.80935 0
M  V30 42094 H 1549.99 3.41248 7.98759 0
M  V30 42095 H 1550.26 2.5837 6.41742 0
M  V30 42096 H 1549.39 5.02657 6.42673 0
M  V30 42097 P 1545.43 6.144 6.45285 0
M  V30 42098 O 1545.21 7.54673 6.86199 0
M  V30 42099 O 1544.64 5.12391 7.179 0
M  V30 42100 O 1545.18 5.99158 4.88404 0
M  V30 42101 C 1546.12 6.60234 3.96415 0
M  V30 42102 C 1545.39 7.08259 2.72856 0
M  V30 42103 O 1545.18 5.9427 1.83651 0
M  V30 42104 C 1543.99 7.64886 2.9555 0
M  V30 42105 O 1543.6 8.53963 1.90717 0
M  V30 42106 C 1543.11 6.4116 2.90739 0
M  V30 42107 C 1543.82 5.55375 1.86963 0
M  V30 42108 N 1543.77 4.09664 2.15742 0
M  V30 42109 H 1546.61 7.45574 4.45629 0
M  V30 42110 H 1546.88 5.86232 3.67314 0
M  V30 42111 H 1546.01 7.84412 2.24479 0
M  V30 42112 P 1542.05 8.7635 1.60911 0
M  V30 42113 O 1541.83 10.1388 1.11561 0
M  V30 42114 O 1541.26 8.36503 2.79617 0
M  V30 42115 O 1541.8 7.71806 0.42951 0
M  V30 42116 C 1542.74 7.67148 -0.673689 0
M  V30 42117 C 1542.01 7.33374 -1.95559 0
M  V30 42118 O 1541.8 5.88721 -2.00726 0
M  V30 42119 C 1540.61 7.92526 -2.10483 0
M  V30 42120 O 1540.22 8.02971 -3.47653 0
M  V30 42121 C 1539.73 6.89602 -1.41652 0
M  V30 42122 C 1540.44 5.59201 -1.75185 0
M  V30 42123 N 1540.39 4.58301 -0.657969 0
M  V30 42124 H 1543.23 8.65116 -0.777161 0
M  V30 42125 H 1543.5 6.9022 -0.46725 0
M  V30 42126 H 1542.63 7.66548 -2.79458 0
M  V30 42127 H 1539.98 5.16165 -2.65183 0
M  V30 42128 H 1539.7 7.06433 -0.329384 0
M  V30 42129 H 1538.71 6.90926 -1.82021 0
M  V30 42130 H 1540.54 8.90873 -1.62657 0
M  V30 42131 P 1538.67 8.03563 -3.84925 0
M  V30 42132 O 1538.45 8.85821 -5.0569 0
M  V30 42133 O 1537.88 8.41101 -2.65469 0
M  V30 42134 O 1538.42 6.4965 -4.18908 0
M  V30 42135 C 1539.36 5.81037 -5.05421 0
M  V30 42136 C 1538.63 4.78366 -5.89277 0
M  V30 42137 O 1538.42 3.58302 -5.08433 0
M  V30 42138 C 1537.23 5.17448 -6.36119 0
M  V30 42139 O 1536.84 4.45271 -7.53232 0
M  V30 42140 C 1536.35 4.74639 -5.19936 0
M  V30 42141 C 1537.06 3.49432 -4.70418 0
M  V30 42142 N 1537.01 3.31776 -3.22945 0
M  V30 42143 H 1539.85 6.54213 -5.71376 0
M  V30 42144 H 1540.12 5.30492 -4.44033 0
M  V30 42145 H 1539.25 4.55889 -6.76652 0
M  V30 42146 P 1535.29 4.23843 -7.83734 0
M  V30 42147 O 1535.07 4.19407 -9.29784 0
M  V30 42148 O 1534.5 5.24426 -7.09156 0
M  V30 42149 O 1535.04 2.7935 -7.20758 0
M  V30 42150 C 1535.98 1.7299 -7.50419 0
M  V30 42151 C 1535.25 0.406376 -7.57911 0
M  V30 42152 O 1535.04 -0.0897726 -6.21935 0
M  V30 42153 C 1533.85 0.447224 -8.1878 0
M  V30 42154 O 1533.46 -0.825065 -8.71101 0
M  V30 42155 C 1532.97 0.783801 -6.99623 0
M  V30 42156 C 1533.68 0.0619192 -5.85967 0
M  V30 42157 N 1533.63 0.7859 -4.56281 0
M  V30 42158 H 1536.47 1.93423 -8.4679 0
M  V30 42159 H 1536.74 1.68181 -6.71046 0
M  V30 42160 H 1535.87 -0.289041 -8.15388 0
M  V30 42161 P 1531.91 -1.17771 -8.83182 0
M  V30 42162 O 1531.69 -2.07206 -9.98732 0
M  V30 42163 O 1531.12 0.0743816 -8.81969 0
M  V30 42164 O 1531.66 -1.97652 -7.47304 0
M  V30 42165 C 1532.6 -3.01133 -7.08783 0
M  V30 42166 C 1531.87 -4.12613 -6.37049 0
M  V30 42167 O 1531.66 -3.72827 -4.97879 0
M  V30 42168 C 1530.47 -4.45085 -6.88694 0
M  V30 42169 O 1530.08 -5.7877 -6.5624 0
M  V30 42170 C 1529.59 -3.47817 -6.12078 0
M  V30 42171 C 1530.3 -3.39414 -4.77697 0
M  V30 42172 N 1530.25 -2.04199 -4.15538 0
M  V30 42173 C 1530.33 -0.821545 -4.76977 0
M  V30 42174 N 1530.26 0.1794 -3.94592 0
M  V30 42175 C 1530.11 -0.419121 -2.70776 0
M  V30 42176 C 1529.98 0.109072 -1.40577 0
M  V30 42177 N 1529.97 1.4104 -1.1344 0
M  V30 42178 N 1529.86 -0.764381 -0.39411 0
M  V30 42179 C 1529.87 -2.06587 -0.664135 0
M  V30 42180 N 1529.99 -2.67948 -1.82153 0
M  V30 42181 C 1530.11 -1.77942 -2.8147 0
M  V30 42182 H 1533.09 -3.41248 -7.98759 0
M  V30 42183 H 1533.36 -2.57728 -6.42 0
M  V30 42184 H 1532.49 -5.02657 -6.42673 0
M  V30 42185 H 1529.84 -4.11708 -4.08956 0
M  V30 42186 H 1529.56 -2.49626 -6.61679 0
M  V30 42187 H 1528.57 -3.8662 -6.00862 0
M  V30 42188 H 1530.4 -4.29991 -7.97006 0
M  V30 42189 H 1530.44 -0.702451 -5.84696 0
M  V30 42190 H 1530.06 2.09647 -1.89651 0
M  V30 42191 H 1529.87 1.73358 -0.160575 0
M  V30 42192 H 1529.76 -2.71695 0.195838 0
M  V30 42193 P 1528.53 -6.144 -6.45285 0
M  V30 42194 O 1528.31 -7.54673 -6.86199 0
M  V30 42195 O 1527.74 -5.12391 -7.179 0
M  V30 42196 O 1528.28 -5.99158 -4.88404 0
M  V30 42197 C 1529.22 -6.60234 -3.96415 0
M  V30 42198 C 1528.49 -7.08259 -2.72856 0
M  V30 42199 O 1528.28 -5.9427 -1.83651 0
M  V30 42200 C 1527.09 -7.64886 -2.9555 0
M  V30 42201 O 1526.7 -8.53963 -1.90717 0
M  V30 42202 C 1526.21 -6.4116 -2.90739 0
M  V30 42203 C 1526.92 -5.55375 -1.86963 0
M  V30 42204 N 1526.87 -4.09664 -2.15742 0
M  V30 42205 H 1529.71 -7.45574 -4.45629 0
M  V30 42206 H 1529.98 -5.86232 -3.67314 0
M  V30 42207 H 1529.11 -7.84412 -2.24479 0
M  V30 42208 P 1525.15 -8.7635 -1.60911 0
M  V30 42209 O 1524.93 -10.1388 -1.11561 0
M  V30 42210 O 1524.36 -8.36503 -2.79617 0
M  V30 42211 O 1524.9 -7.71806 -0.42951 0
M  V30 42212 C 1525.84 -7.67148 0.673689 0
M  V30 42213 C 1525.11 -7.33374 1.95559 0
M  V30 42214 O 1524.9 -5.88721 2.00726 0
M  V30 42215 C 1523.71 -7.92526 2.10483 0
M  V30 42216 O 1523.32 -8.02971 3.47653 0
M  V30 42217 C 1522.83 -6.89602 1.41652 0
M  V30 42218 C 1523.54 -5.59201 1.75185 0
M  V30 42219 N 1523.49 -4.58235 0.662552 0
M  V30 42220 H 1526.33 -8.65116 0.777161 0
M  V30 42221 H 1526.6 -6.90173 0.474152 0
M  V30 42222 H 1525.73 -7.66548 2.79458 0
M  V30 42223 P 1521.77 -8.03563 3.84925 0
M  V30 42224 O 1521.55 -8.85821 5.0569 0
M  V30 42225 O 1520.98 -8.41101 2.65469 0
M  V30 42226 O 1521.52 -6.4965 4.18908 0
M  V30 42227 C 1522.46 -5.80886 5.05289 0
M  V30 42228 C 1521.73 -4.78366 5.89277 0
M  V30 42229 O 1521.52 -3.58302 5.08433 0
M  V30 42230 C 1520.33 -5.16748 6.36559 0
M  V30 42231 O 1519.94 -4.45271 7.53232 0
M  V30 42232 C 1519.45 -4.74572 5.19863 0
M  V30 42233 C 1520.16 -3.49373 4.70338 0
M  V30 42234 N 1520.11 -3.31704 3.22876 0
M  V30 42235 C 1519.96 -2.03326 2.74871 0
M  V30 42236 O 1519.87 -1.06486 3.48076 0
M  V30 42237 N 1519.92 -1.91838 1.37456 0
M  V30 42238 C 1520.01 -2.94295 0.462035 0
M  V30 42239 O 1519.96 -2.71763 -0.752928 0
M  V30 42240 C 1520.16 -4.25064 1.05249 0
M  V30 42241 C 1520.27 -5.39815 0.095697 0
M  V30 42242 C 1520.21 -4.40214 2.39192 0
M  V30 42243 H 1522.95 -6.54063 5.71245 0
M  V30 42244 H 1523.22 -5.30339 4.43905 0
M  V30 42245 H 1522.35 -4.55889 6.76652 0
M  V30 42246 H 1519.7 -2.6167 5.17842 0
M  V30 42247 H 1519.42 -5.52155 4.41878 0
M  V30 42248 H 1518.43 -4.51918 5.53297 0
M  V30 42249 H 1520.26 -6.25055 6.55162 0
M  V30 42250 H 1520.33 -5.39798 2.81523 0
M  V30 42251 H 1519.3 -5.91593 0.0279582 0
M  V30 42252 H 1521.04 -6.10038 0.450573 0
M  V30 42253 H 1520.55 -5.02007 -0.89937 0
M  V30 42254 H 1519.82 -0.995326 1.00435 0
M  V30 42255 P 1518.39 -4.23843 7.83734 0
M  V30 42256 O 1518.17 -4.19407 9.29784 0
M  V30 42257 O 1517.6 -5.24426 7.09156 0
M  V30 42258 O 1518.14 -2.7935 7.20758 0
M  V30 42259 C 1519.08 -1.7299 7.50419 0
M  V30 42260 C 1518.35 -0.406376 7.57911 0
M  V30 42261 O 1518.14 0.0897726 6.21935 0
M  V30 42262 C 1516.95 -0.447224 8.1878 0
M  V30 42263 O 1516.56 0.825065 8.71101 0
M  V30 42264 C 1516.07 -0.783801 6.99623 0
M  V30 42265 C 1516.78 -0.0619192 5.85967 0
M  V30 42266 N 1516.73 -0.7859 4.56281 0
M  V30 42267 H 1519.57 -1.93423 8.4679 0
M  V30 42268 H 1519.84 -1.68181 6.71046 0
M  V30 42269 H 1518.97 0.289041 8.15388 0
M  V30 42270 P 1515.01 1.17771 8.83182 0
M  V30 42271 O 1514.79 2.07206 9.98732 0
M  V30 42272 O 1514.22 -0.0743816 8.81969 0
M  V30 42273 O 1514.76 1.97652 7.47304 0
M  V30 42274 C 1515.7 3.01133 7.08783 0
M  V30 42275 C 1514.97 4.12613 6.37049 0
M  V30 42276 O 1514.76 3.72827 4.97879 0
M  V30 42277 C 1513.57 4.45085 6.88694 0
M  V30 42278 O 1513.18 5.7877 6.5624 0
M  V30 42279 C 1512.69 3.47817 6.12078 0
M  V30 42280 C 1513.4 3.39414 4.77697 0
M  V30 42281 N 1513.35 2.04615 4.15333 0
M  V30 42282 H 1516.19 3.41248 7.98759 0
M  V30 42283 H 1516.46 2.5837 6.41742 0
M  V30 42284 H 1515.59 5.02657 6.42673 0
M  V30 42285 P 1511.63 6.144 6.45285 0
M  V30 42286 O 1511.41 7.54673 6.86199 0
M  V30 42287 O 1510.84 5.12391 7.179 0
M  V30 42288 O 1511.38 5.99158 4.88404 0
M  V30 42289 C 1512.32 6.60234 3.96415 0
M  V30 42290 C 1511.59 7.08259 2.72856 0
M  V30 42291 O 1511.38 5.9427 1.83651 0
M  V30 42292 C 1510.19 7.64886 2.9555 0
M  V30 42293 O 1509.8 8.53963 1.90717 0
M  V30 42294 C 1509.31 6.4116 2.90739 0
M  V30 42295 C 1510.02 5.55375 1.86963 0
M  V30 42296 N 1509.97 4.09664 2.15742 0
M  V30 42297 H 1512.81 7.45574 4.45629 0
M  V30 42298 H 1513.08 5.86232 3.67314 0
M  V30 42299 H 1512.21 7.84412 2.24479 0
M  V30 42300 P 1508.25 8.7635 1.60911 0
M  V30 42301 O 1508.03 10.1388 1.11561 0
M  V30 42302 O 1507.46 8.36503 2.79617 0
M  V30 42303 O 1508 7.71806 0.42951 0
M  V30 42304 C 1508.94 7.67148 -0.673689 0
M  V30 42305 C 1508.21 7.33374 -1.95559 0
M  V30 42306 O 1508 5.88721 -2.00726 0
M  V30 42307 C 1506.81 7.92526 -2.10483 0
M  V30 42308 O 1506.42 8.02971 -3.47653 0
M  V30 42309 C 1505.93 6.89602 -1.41652 0
M  V30 42310 C 1506.64 5.59201 -1.75185 0
M  V30 42311 N 1506.59 4.58235 -0.662552 0
M  V30 42312 H 1509.43 8.65116 -0.777161 0
M  V30 42313 H 1509.7 6.90173 -0.474152 0
M  V30 42314 H 1508.83 7.66548 -2.79458 0
M  V30 42315 P 1504.87 8.03563 -3.84925 0
M  V30 42316 O 1504.65 8.85821 -5.0569 0
M  V30 42317 O 1504.08 8.41101 -2.65469 0
M  V30 42318 O 1504.62 6.4965 -4.18908 0
M  V30 42319 C 1505.56 5.81037 -5.05421 0
M  V30 42320 C 1504.83 4.78366 -5.89277 0
M  V30 42321 O 1504.62 3.58302 -5.08433 0
M  V30 42322 C 1503.43 5.17448 -6.36119 0
M  V30 42323 O 1503.04 4.45271 -7.53232 0
M  V30 42324 C 1502.55 4.74639 -5.19936 0
M  V30 42325 C 1503.26 3.49432 -4.70418 0
M  V30 42326 N 1503.21 3.31776 -3.22945 0
M  V30 42327 H 1506.05 6.54213 -5.71376 0
M  V30 42328 H 1506.32 5.30492 -4.44033 0
M  V30 42329 H 1505.45 4.55889 -6.76652 0
M  V30 42330 P 1501.49 4.23843 -7.83734 0
M  V30 42331 O 1501.27 4.19407 -9.29784 0
M  V30 42332 O 1500.7 5.24426 -7.09156 0
M  V30 42333 O 1501.24 2.7935 -7.20758 0
M  V30 42334 C 1502.18 1.7299 -7.50419 0
M  V30 42335 C 1501.45 0.406376 -7.57911 0
M  V30 42336 O 1501.24 -0.0897726 -6.21935 0
M  V30 42337 C 1500.05 0.447224 -8.1878 0
M  V30 42338 O 1499.66 -0.825065 -8.71101 0
M  V30 42339 C 1499.17 0.783801 -6.99623 0
M  V30 42340 C 1499.88 0.0619192 -5.85967 0
M  V30 42341 N 1499.83 0.7859 -4.56281 0
M  V30 42342 H 1502.67 1.93423 -8.4679 0
M  V30 42343 H 1502.94 1.68181 -6.71046 0
M  V30 42344 H 1502.07 -0.289041 -8.15388 0
M  V30 42345 P 1498.11 -1.17771 -8.83182 0
M  V30 42346 O 1497.89 -2.07206 -9.98732 0
M  V30 42347 O 1497.32 0.0743816 -8.81969 0
M  V30 42348 O 1497.86 -1.97652 -7.47304 0
M  V30 42349 C 1498.8 -3.01133 -7.08783 0
M  V30 42350 C 1498.07 -4.12613 -6.37049 0
M  V30 42351 O 1497.86 -3.72827 -4.97879 0
M  V30 42352 C 1496.67 -4.45085 -6.88694 0
M  V30 42353 O 1496.28 -5.7877 -6.5624 0
M  V30 42354 C 1495.79 -3.47817 -6.12078 0
M  V30 42355 C 1496.5 -3.39414 -4.77697 0
M  V30 42356 N 1496.45 -2.04199 -4.15538 0
M  V30 42357 H 1499.29 -3.41248 -7.98759 0
M  V30 42358 H 1499.56 -2.57728 -6.42 0
M  V30 42359 H 1498.69 -5.02657 -6.42673 0
M  V30 42360 H 1496.04 -4.11708 -4.08956 0
M  V30 42361 H 1495.76 -2.49626 -6.61679 0
M  V30 42362 H 1494.77 -3.8662 -6.00862 0
M  V30 42363 H 1496.6 -4.29991 -7.97006 0
M  V30 42364 P 1494.73 -6.144 -6.45285 0
M  V30 42365 O 1494.51 -7.54673 -6.86199 0
M  V30 42366 O 1493.94 -5.12391 -7.179 0
M  V30 42367 O 1494.48 -5.99158 -4.88404 0
M  V30 42368 C 1495.42 -6.60234 -3.96415 0
M  V30 42369 C 1494.69 -7.08259 -2.72856 0
M  V30 42370 O 1494.48 -5.9427 -1.83651 0
M  V30 42371 C 1493.29 -7.64886 -2.9555 0
M  V30 42372 O 1492.9 -8.53963 -1.90717 0
M  V30 42373 C 1492.41 -6.4116 -2.90739 0
M  V30 42374 C 1493.12 -5.55375 -1.86963 0
M  V30 42375 N 1493.07 -4.09448 -2.16152 0
M  V30 42376 H 1495.91 -7.45574 -4.45629 0
M  V30 42377 H 1496.18 -5.85864 -3.679 0
M  V30 42378 H 1495.31 -7.84412 -2.24479 0
M  V30 42379 H 1492.66 -5.73457 -0.888562 0
M  V30 42380 H 1492.38 -5.90877 -3.88583 0
M  V30 42381 H 1491.39 -6.6596 -2.58858 0
M  V30 42382 H 1493.22 -8.16339 -3.92049 0
M  V30 42383 P 1491.35 -8.7635 -1.60911 0
M  V30 42384 O 1491.13 -10.1388 -1.11561 0
M  V30 42385 O 1490.56 -8.36503 -2.79617 0
M  V30 42386 O 1491.1 -7.71806 -0.42951 0
M  V30 42387 C 1492.04 -7.67148 0.673689 0
M  V30 42388 C 1491.31 -7.33374 1.95559 0
M  V30 42389 O 1491.1 -5.88721 2.00726 0
M  V30 42390 C 1489.91 -7.92526 2.10483 0
M  V30 42391 O 1489.52 -8.02971 3.47653 0
M  V30 42392 C 1489.03 -6.89602 1.41652 0
M  V30 42393 C 1489.74 -5.59201 1.75185 0
M  V30 42394 N 1489.69 -4.58235 0.662552 0
M  V30 42395 H 1492.53 -8.65116 0.777161 0
M  V30 42396 H 1492.8 -6.90173 0.474152 0
M  V30 42397 H 1491.93 -7.66548 2.79458 0
M  V30 42398 P 1487.97 -8.03563 3.84925 0
M  V30 42399 O 1487.75 -8.85821 5.0569 0
M  V30 42400 O 1487.18 -8.41101 2.65469 0
M  V30 42401 O 1487.72 -6.4965 4.18908 0
M  V30 42402 C 1488.66 -5.81037 5.05421 0
M  V30 42403 C 1487.93 -4.78366 5.89277 0
M  V30 42404 O 1487.72 -3.58302 5.08433 0
M  V30 42405 C 1486.53 -5.17448 6.36119 0
M  V30 42406 O 1486.14 -4.45271 7.53232 0
M  V30 42407 C 1485.65 -4.74639 5.19936 0
M  V30 42408 C 1486.36 -3.49432 4.70418 0
M  V30 42409 N 1486.31 -3.31776 3.22945 0
M  V30 42410 H 1489.15 -6.54213 5.71376 0
M  V30 42411 H 1489.42 -5.30492 4.44033 0
M  V30 42412 H 1488.55 -4.55889 6.76652 0
M  V30 42413 P 1484.59 -4.23843 7.83734 0
M  V30 42414 O 1484.37 -4.19407 9.29784 0
M  V30 42415 O 1483.8 -5.24426 7.09156 0
M  V30 42416 O 1484.34 -2.7935 7.20758 0
M  V30 42417 C 1485.28 -1.7299 7.50419 0
M  V30 42418 C 1484.55 -0.406376 7.57911 0
M  V30 42419 O 1484.34 0.0897726 6.21935 0
M  V30 42420 C 1483.15 -0.447224 8.1878 0
M  V30 42421 O 1482.76 0.825065 8.71101 0
M  V30 42422 C 1482.27 -0.783801 6.99623 0
M  V30 42423 C 1482.98 -0.0619192 5.85967 0
M  V30 42424 N 1482.93 -0.7859 4.56281 0
M  V30 42425 H 1485.77 -1.93423 8.4679 0
M  V30 42426 H 1486.04 -1.68181 6.71046 0
M  V30 42427 H 1485.17 0.289041 8.15388 0
M  V30 42428 P 1481.21 1.17771 8.83182 0
M  V30 42429 O 1480.99 2.07206 9.98732 0
M  V30 42430 O 1480.42 -0.0743816 8.81969 0
M  V30 42431 O 1480.96 1.97652 7.47304 0
M  V30 42432 C 1481.9 3.01133 7.08783 0
M  V30 42433 C 1481.17 4.12613 6.37049 0
M  V30 42434 O 1480.96 3.72827 4.97879 0
M  V30 42435 C 1479.77 4.45085 6.88694 0
M  V30 42436 O 1479.38 5.7877 6.5624 0
M  V30 42437 C 1478.89 3.47817 6.12078 0
M  V30 42438 C 1479.6 3.39414 4.77697 0
M  V30 42439 N 1479.55 2.04615 4.15333 0
M  V30 42440 H 1482.39 3.41248 7.98759 0
M  V30 42441 H 1482.66 2.5837 6.41742 0
M  V30 42442 H 1481.79 5.02657 6.42673 0
M  V30 42443 P 1477.83 6.144 6.45285 0
M  V30 42444 O 1477.61 7.54673 6.86199 0
M  V30 42445 O 1477.04 5.12391 7.179 0
M  V30 42446 O 1477.58 5.99158 4.88404 0
M  V30 42447 C 1478.52 6.60234 3.96415 0
M  V30 42448 C 1477.79 7.08259 2.72856 0
M  V30 42449 O 1477.58 5.9427 1.83651 0
M  V30 42450 C 1476.39 7.64886 2.9555 0
M  V30 42451 O 1476 8.53963 1.90717 0
M  V30 42452 C 1475.51 6.4116 2.90739 0
M  V30 42453 C 1476.22 5.55375 1.86963 0
M  V30 42454 N 1476.17 4.09664 2.15742 0
M  V30 42455 H 1479.01 7.45574 4.45629 0
M  V30 42456 H 1479.28 5.86232 3.67314 0
M  V30 42457 H 1478.41 7.84412 2.24479 0
M  V30 42458 P 1474.45 8.7635 1.60911 0
M  V30 42459 O 1474.23 10.1388 1.11561 0
M  V30 42460 O 1473.66 8.36503 2.79617 0
M  V30 42461 O 1474.2 7.71806 0.42951 0
M  V30 42462 C 1475.14 7.67148 -0.673689 0
M  V30 42463 C 1474.41 7.33374 -1.95559 0
M  V30 42464 O 1474.2 5.88721 -2.00726 0
M  V30 42465 C 1473.01 7.92526 -2.10483 0
M  V30 42466 O 1472.62 8.02971 -3.47653 0
M  V30 42467 C 1472.13 6.89602 -1.41652 0
M  V30 42468 C 1472.84 5.59201 -1.75185 0
M  V30 42469 N 1472.79 4.58235 -0.662552 0
M  V30 42470 H 1475.63 8.65116 -0.777161 0
M  V30 42471 H 1475.9 6.90173 -0.474152 0
M  V30 42472 H 1475.03 7.66548 -2.79458 0
M  V30 42473 P 1471.07 8.03563 -3.84925 0
M  V30 42474 O 1470.85 8.85821 -5.0569 0
M  V30 42475 O 1470.28 8.41101 -2.65469 0
M  V30 42476 O 1470.82 6.4965 -4.18908 0
M  V30 42477 C 1471.76 5.80886 -5.05289 0
M  V30 42478 C 1471.03 4.78366 -5.89277 0
M  V30 42479 O 1470.82 3.58302 -5.08433 0
M  V30 42480 C 1469.63 5.16748 -6.36559 0
M  V30 42481 O 1469.24 4.45271 -7.53232 0
M  V30 42482 C 1468.75 4.74572 -5.19863 0
M  V30 42483 C 1469.46 3.49373 -4.70338 0
M  V30 42484 N 1469.41 3.31704 -3.22876 0
M  V30 42485 C 1469.26 2.03326 -2.74871 0
M  V30 42486 O 1469.17 1.06486 -3.48076 0
M  V30 42487 N 1469.22 1.91838 -1.37456 0
M  V30 42488 C 1469.31 2.94295 -0.462035 0
M  V30 42489 O 1469.26 2.71763 0.752928 0
M  V30 42490 C 1469.46 4.25064 -1.05249 0
M  V30 42491 C 1469.57 5.39815 -0.095697 0
M  V30 42492 C 1469.51 4.40214 -2.39192 0
M  V30 42493 H 1472.25 6.54063 -5.71245 0
M  V30 42494 H 1472.52 5.30339 -4.43905 0
M  V30 42495 H 1471.65 4.55889 -6.76652 0
M  V30 42496 H 1469 2.6167 -5.17842 0
M  V30 42497 H 1468.72 5.52155 -4.41878 0
M  V30 42498 H 1467.73 4.51918 -5.53297 0
M  V30 42499 H 1469.56 6.25055 -6.55162 0
M  V30 42500 H 1469.63 5.39798 -2.81523 0
M  V30 42501 H 1468.6 5.91593 -0.0279582 0
M  V30 42502 H 1470.34 6.10038 -0.450573 0
M  V30 42503 H 1469.85 5.02007 0.89937 0
M  V30 42504 H 1469.12 0.995326 -1.00435 0
M  V30 42505 P 1467.69 4.23843 -7.83734 0
M  V30 42506 O 1467.47 4.19407 -9.29784 0
M  V30 42507 O 1466.9 5.24426 -7.09156 0
M  V30 42508 O 1467.44 2.7935 -7.20758 0
M  V30 42509 C 1468.38 1.7299 -7.50419 0
M  V30 42510 C 1467.65 0.406376 -7.57911 0
M  V30 42511 O 1467.44 -0.0897726 -6.21935 0
M  V30 42512 C 1466.25 0.447224 -8.1878 0
M  V30 42513 O 1465.86 -0.825065 -8.71101 0
M  V30 42514 C 1465.37 0.783801 -6.99623 0
M  V30 42515 C 1466.08 0.0619192 -5.85967 0
M  V30 42516 N 1466.03 0.7859 -4.56281 0
M  V30 42517 H 1468.87 1.93423 -8.4679 0
M  V30 42518 H 1469.14 1.68181 -6.71046 0
M  V30 42519 H 1468.27 -0.289041 -8.15388 0
M  V30 42520 P 1464.31 -1.17771 -8.83182 0
M  V30 42521 O 1464.09 -2.07206 -9.98732 0
M  V30 42522 O 1463.52 0.0743816 -8.81969 0
M  V30 42523 O 1464.06 -1.97652 -7.47304 0
M  V30 42524 C 1465 -3.01133 -7.08783 0
M  V30 42525 C 1464.27 -4.12613 -6.37049 0
M  V30 42526 O 1464.06 -3.72827 -4.97879 0
M  V30 42527 C 1462.87 -4.45085 -6.88694 0
M  V30 42528 O 1462.48 -5.7877 -6.5624 0
M  V30 42529 C 1461.99 -3.47817 -6.12078 0
M  V30 42530 C 1462.7 -3.39414 -4.77697 0
M  V30 42531 N 1462.65 -2.04615 -4.15333 0
M  V30 42532 H 1465.49 -3.41248 -7.98759 0
M  V30 42533 H 1465.76 -2.5837 -6.41742 0
M  V30 42534 H 1464.89 -5.02657 -6.42673 0
M  V30 42535 P 1460.93 -6.144 -6.45285 0
M  V30 42536 O 1460.71 -7.54673 -6.86199 0
M  V30 42537 O 1460.14 -5.12391 -7.179 0
M  V30 42538 O 1460.68 -5.99236 -4.88467 0
M  V30 42539 C 1461.62 -6.60234 -3.96415 0
M  V30 42540 C 1460.89 -7.08079 -2.736 0
M  V30 42541 O 1460.68 -5.94365 -1.8368 0
M  V30 42542 C 1459.49 -7.64886 -2.9555 0
M  V30 42543 O 1459.1 -8.5406 -1.90739 0
M  V30 42544 C 1458.61 -6.4116 -2.90739 0
M  V30 42545 C 1459.32 -5.55375 -1.86963 0
M  V30 42546 N 1459.27 -4.09664 -2.15742 0
M  V30 42547 C 1459.12 -3.22231 -1.08477 0
M  V30 42548 O 1459.03 -3.68951 0.0600489 0
M  V30 42549 N 1459.07 -1.76692 -1.48799 0
M  V30 42550 C 1459.17 -1.41695 -2.57602 0
M  V30 42551 N 1459.12 -0.107296 -2.75791 0
M  V30 42552 C 1459.32 -2.29178 -3.69733 0
M  V30 42553 C 1459.37 -3.62753 -3.42653 0
M  V30 42554 H 1462.11 -7.45488 -4.45578 0
M  V30 42555 H 1462.38 -5.86232 -3.67314 0
M  V30 42556 H 1461.51 -7.84508 -2.24507 0
M  V30 42557 H 1458.86 -5.73556 -0.888715 0
M  V30 42558 H 1458.58 -5.9096 -3.88638 0
M  V30 42559 H 1457.59 -6.66053 -2.58894 0
M  V30 42560 H 1459.42 -8.16339 -3.92049 0
M  V30 42561 H 1459.49 -4.33052 -4.24913 0
M  V30 42562 H 1459.39 -1.9103 -4.71577 0
M  V30 42563 H 1459 0.521221 -1.95056 0
M  V30 42564 H 1459.2 0.286429 -3.70695 0
M  V30 42565 P 1457.55 -8.7635 -1.60911 0
M  V30 42566 O 1457.33 -10.1388 -1.11561 0
M  V30 42567 O 1456.76 -8.36503 -2.79617 0
M  V30 42568 O 1457.3 -7.71806 -0.42951 0
M  V30 42569 C 1458.24 -7.66948 0.673514 0
M  V30 42570 C 1457.51 -7.33374 1.95559 0
M  V30 42571 O 1457.3 -5.88721 2.00726 0
M  V30 42572 C 1456.11 -7.92218 2.1125 0
M  V30 42573 O 1455.72 -8.02971 3.47653 0
M  V30 42574 C 1455.23 -6.89504 1.41631 0
M  V30 42575 C 1455.94 -5.59106 1.75155 0
M  V30 42576 N 1455.89 -4.58136 0.662409 0
M  V30 42577 C 1455.74 -3.26059 1.02863 0
M  V30 42578 O 1455.65 -2.90743 2.19009 0
M  V30 42579 N 1455.7 -2.35995 -0.0155585 0
M  V30 42580 C 1455.79 -2.65248 -1.35603 0
M  V30 42581 C 1455.94 -4.05747 -1.64698 0
M  V30 42582 C 1455.99 -4.96734 -0.652411 0
M  V30 42583 H 1458.73 -8.64917 0.776982 0
M  V30 42584 H 1459 -6.89974 0.474015 0
M  V30 42585 H 1458.13 -7.66548 2.79458 0
M  V30 42586 H 1455.48 -5.16076 2.65138 0
M  V30 42587 H 1455.2 -7.06433 0.329384 0
M  V30 42588 H 1454.21 -6.90829 1.81996 0
M  V30 42589 H 1456.04 -8.90774 1.62639 0
M  V30 42590 H 1456.11 -6.02181 -0.895285 0
M  V30 42591 P 1454.17 -8.03563 3.84925 0
M  V30 42592 O 1453.95 -8.85821 5.0569 0
M  V30 42593 O 1453.38 -8.41101 2.65469 0
M  V30 42594 O 1453.92 -6.4965 4.18908 0
M  V30 42595 C 1454.86 -5.81037 5.05421 0
M  V30 42596 C 1454.13 -4.78366 5.89277 0
M  V30 42597 O 1453.92 -3.58302 5.08433 0
M  V30 42598 C 1452.73 -5.17448 6.36119 0
M  V30 42599 O 1452.34 -4.45271 7.53232 0
M  V30 42600 C 1451.85 -4.74639 5.19936 0
M  V30 42601 C 1452.56 -3.49432 4.70418 0
M  V30 42602 N 1452.51 -3.32099 3.22613 0
M  V30 42603 H 1455.35 -6.54213 5.71376 0
M  V30 42604 H 1455.62 -5.30936 4.43503 0
M  V30 42605 H 1454.75 -4.55889 6.76652 0
M  V30 42606 H 1452.1 -2.61715 5.17932 0
M  V30 42607 H 1451.82 -5.52155 4.41878 0
M  V30 42608 H 1450.83 -4.51981 5.53374 0
M  V30 42609 H 1452.66 -6.25124 6.55234 0
M  V30 42610 P 1450.79 -4.23843 7.83734 0
M  V30 42611 O 1450.57 -4.19407 9.29784 0
M  V30 42612 O 1450 -5.24426 7.09156 0
M  V30 42613 O 1450.54 -2.7935 7.20758 0
M  V30 42614 C 1451.48 -1.72945 7.50224 0
M  V30 42615 C 1450.75 -0.406376 7.57911 0
M  V30 42616 O 1450.54 0.0897726 6.21935 0
M  V30 42617 C 1449.35 -0.438983 8.18724 0
M  V30 42618 O 1448.96 0.825065 8.71101 0
M  V30 42619 C 1448.47 -0.783689 6.99524 0
M  V30 42620 C 1449.18 -0.0619086 5.85867 0
M  V30 42621 N 1449.13 -0.78573 4.56183 0
M  V30 42622 C 1448.98 -0.0292889 3.41887 0
M  V30 42623 O 1448.89 1.18445 3.4419 0
M  V30 42624 N 1448.94 -0.744061 2.23964 0
M  V30 42625 C 1449.03 -2.10932 2.10362 0
M  V30 42626 O 1448.98 -2.64117 0.98825 0
M  V30 42627 C 1449.18 -2.8202 3.34994 0
M  V30 42628 C 1449.29 -4.31095 3.25037 0
M  V30 42629 C 1449.23 -2.15547 4.52261 0
M  V30 42630 H 1451.97 -1.93379 8.46595 0
M  V30 42631 H 1452.24 -1.68132 6.70852 0
M  V30 42632 H 1451.37 0.289041 8.15388 0
M  V30 42633 H 1448.72 0.926847 5.72749 0
M  V30 42634 H 1448.44 -1.86973 6.82036 0
M  V30 42635 H 1447.45 -0.403896 7.13257 0
M  V30 42636 H 1449.28 -1.20585 8.97435 0
M  V30 42637 H 1449.35 -2.71231 5.45042 0
M  V30 42638 H 1448.32 -4.76966 3.49992 0
M  V30 42639 H 1450.06 -4.67047 3.95024 0
M  V30 42640 H 1449.57 -4.58996 2.22312 0
M  V30 42641 H 1448.84 -0.214893 1.39758 0
M  V30 42642 P 1447.41 1.17771 8.83182 0
M  V30 42643 O 1447.19 2.07206 9.98732 0
M  V30 42644 O 1446.62 -0.0743816 8.81969 0
M  V30 42645 O 1447.16 1.97652 7.47304 0
M  V30 42646 C 1448.1 3.01133 7.08783 0
M  V30 42647 C 1447.37 4.12613 6.37049 0
M  V30 42648 O 1447.16 3.72827 4.97879 0
M  V30 42649 C 1445.97 4.45085 6.88694 0
M  V30 42650 O 1445.58 5.7877 6.5624 0
M  V30 42651 C 1445.09 3.47817 6.12078 0
M  V30 42652 C 1445.8 3.39414 4.77697 0
M  V30 42653 N 1445.75 2.04615 4.15333 0
M  V30 42654 H 1448.59 3.41248 7.98759 0
M  V30 42655 H 1448.86 2.5837 6.41742 0
M  V30 42656 H 1447.99 5.02657 6.42673 0
M  V30 42657 P 1444.03 6.144 6.45285 0
M  V30 42658 O 1443.81 7.54673 6.86199 0
M  V30 42659 O 1443.24 5.12391 7.179 0
M  V30 42660 O 1443.78 5.99158 4.88404 0
M  V30 42661 C 1444.72 6.60234 3.96415 0
M  V30 42662 C 1443.99 7.08259 2.72856 0
M  V30 42663 O 1443.78 5.9427 1.83651 0
M  V30 42664 C 1442.59 7.64886 2.9555 0
M  V30 42665 O 1442.2 8.53963 1.90717 0
M  V30 42666 C 1441.71 6.4116 2.90739 0
M  V30 42667 C 1442.42 5.55375 1.86963 0
M  V30 42668 N 1442.37 4.09448 2.16152 0
M  V30 42669 H 1445.21 7.45574 4.45629 0
M  V30 42670 H 1445.48 5.85864 3.679 0
M  V30 42671 H 1444.61 7.84412 2.24479 0
M  V30 42672 H 1441.96 5.73457 0.888562 0
M  V30 42673 H 1441.68 5.90877 3.88583 0
M  V30 42674 H 1440.69 6.6596 2.58858 0
M  V30 42675 H 1442.52 8.16339 3.92049 0
M  V30 42676 P 1440.65 8.7635 1.60911 0
M  V30 42677 O 1440.43 10.1388 1.11561 0
M  V30 42678 O 1439.86 8.36503 2.79617 0
M  V30 42679 O 1440.4 7.71806 0.42951 0
M  V30 42680 C 1441.34 7.67148 -0.673689 0
M  V30 42681 C 1440.61 7.33374 -1.95559 0
M  V30 42682 O 1440.4 5.88721 -2.00726 0
M  V30 42683 C 1439.21 7.92526 -2.10483 0
M  V30 42684 O 1438.82 8.02971 -3.47653 0
M  V30 42685 C 1438.33 6.89602 -1.41652 0
M  V30 42686 C 1439.04 5.59201 -1.75185 0
M  V30 42687 N 1438.99 4.58301 -0.657969 0
M  V30 42688 H 1441.83 8.65116 -0.777161 0
M  V30 42689 H 1442.1 6.9022 -0.46725 0
M  V30 42690 H 1441.23 7.66548 -2.79458 0
M  V30 42691 H 1438.58 5.16165 -2.65183 0
M  V30 42692 H 1438.3 7.06433 -0.329384 0
M  V30 42693 H 1437.31 6.90926 -1.82021 0
M  V30 42694 H 1439.14 8.90873 -1.62657 0
M  V30 42695 P 1437.27 8.03563 -3.84925 0
M  V30 42696 O 1437.05 8.85821 -5.0569 0
M  V30 42697 O 1436.48 8.41101 -2.65469 0
M  V30 42698 O 1437.02 6.4965 -4.18908 0
M  V30 42699 C 1437.96 5.81037 -5.05421 0
M  V30 42700 C 1437.23 4.78366 -5.89277 0
M  V30 42701 O 1437.02 3.58302 -5.08433 0
M  V30 42702 C 1435.83 5.17448 -6.36119 0
M  V30 42703 O 1435.44 4.45271 -7.53232 0
M  V30 42704 C 1434.95 4.74639 -5.19936 0
M  V30 42705 C 1435.66 3.49432 -4.70418 0
M  V30 42706 N 1435.61 3.31776 -3.22945 0
M  V30 42707 H 1438.45 6.54213 -5.71376 0
M  V30 42708 H 1438.72 5.30492 -4.44033 0
M  V30 42709 H 1437.85 4.55889 -6.76652 0
M  V30 42710 P 1433.89 4.23843 -7.83734 0
M  V30 42711 O 1433.67 4.19407 -9.29784 0
M  V30 42712 O 1433.1 5.24426 -7.09156 0
M  V30 42713 O 1433.64 2.7935 -7.20758 0
M  V30 42714 C 1434.58 1.7299 -7.50419 0
M  V30 42715 C 1433.85 0.406376 -7.57911 0
M  V30 42716 O 1433.64 -0.0897726 -6.21935 0
M  V30 42717 C 1432.45 0.447224 -8.1878 0
M  V30 42718 O 1432.06 -0.825065 -8.71101 0
M  V30 42719 C 1431.57 0.783801 -6.99623 0
M  V30 42720 C 1432.28 0.0619192 -5.85967 0
M  V30 42721 N 1432.23 0.7859 -4.56281 0
M  V30 42722 H 1435.07 1.93423 -8.4679 0
M  V30 42723 H 1435.34 1.68181 -6.71046 0
M  V30 42724 H 1434.47 -0.289041 -8.15388 0
M  V30 42725 P 1430.51 -1.17771 -8.83182 0
M  V30 42726 O 1430.29 -2.07206 -9.98732 0
M  V30 42727 O 1429.72 0.0743816 -8.81969 0
M  V30 42728 O 1430.26 -1.97652 -7.47304 0
M  V30 42729 C 1431.2 -3.01133 -7.08783 0
M  V30 42730 C 1430.47 -4.12613 -6.37049 0
M  V30 42731 O 1430.26 -3.72827 -4.97879 0
M  V30 42732 C 1429.07 -4.45085 -6.88694 0
M  V30 42733 O 1428.68 -5.7877 -6.5624 0
M  V30 42734 C 1428.19 -3.47817 -6.12078 0
M  V30 42735 C 1428.9 -3.39414 -4.77697 0
M  V30 42736 N 1428.85 -2.04199 -4.15538 0
M  V30 42737 H 1431.69 -3.41248 -7.98759 0
M  V30 42738 H 1431.96 -2.57728 -6.42 0
M  V30 42739 H 1431.09 -5.02657 -6.42673 0
M  V30 42740 H 1428.44 -4.11708 -4.08956 0
M  V30 42741 H 1428.16 -2.49626 -6.61679 0
M  V30 42742 H 1427.17 -3.8662 -6.00862 0
M  V30 42743 H 1429 -4.29991 -7.97006 0
M  V30 42744 P 1427.13 -6.144 -6.45285 0
M  V30 42745 O 1426.91 -7.54673 -6.86199 0
M  V30 42746 O 1426.34 -5.12391 -7.179 0
M  V30 42747 O 1426.88 -5.99158 -4.88404 0
M  V30 42748 C 1427.82 -6.60234 -3.96415 0
M  V30 42749 C 1427.09 -7.08259 -2.72856 0
M  V30 42750 O 1426.88 -5.9427 -1.83651 0
M  V30 42751 C 1425.69 -7.64886 -2.9555 0
M  V30 42752 O 1425.3 -8.53963 -1.90717 0
M  V30 42753 C 1424.81 -6.4116 -2.90739 0
M  V30 42754 C 1425.52 -5.55375 -1.86963 0
M  V30 42755 N 1425.47 -4.09664 -2.15742 0
M  V30 42756 H 1428.31 -7.45574 -4.45629 0
M  V30 42757 H 1428.58 -5.86232 -3.67314 0
M  V30 42758 H 1427.71 -7.84412 -2.24479 0
M  V30 42759 P 1423.75 -8.7635 -1.60911 0
M  V30 42760 O 1423.53 -10.1388 -1.11561 0
M  V30 42761 O 1422.96 -8.36503 -2.79617 0
M  V30 42762 O 1423.5 -7.71806 -0.42951 0
M  V30 42763 C 1424.44 -7.67148 0.673689 0
M  V30 42764 C 1423.71 -7.33374 1.95559 0
M  V30 42765 O 1423.5 -5.88721 2.00726 0
M  V30 42766 C 1422.31 -7.92526 2.10483 0
M  V30 42767 O 1421.92 -8.02971 3.47653 0
M  V30 42768 C 1421.43 -6.89602 1.41652 0
M  V30 42769 C 1422.14 -5.59201 1.75185 0
M  V30 42770 N 1422.09 -4.58235 0.662552 0
M  V30 42771 H 1424.93 -8.65116 0.777161 0
M  V30 42772 H 1425.2 -6.90173 0.474152 0
M  V30 42773 H 1424.33 -7.66548 2.79458 0
M  V30 42774 P 1420.37 -8.03563 3.84925 0
M  V30 42775 O 1420.15 -8.85821 5.0569 0
M  V30 42776 O 1419.58 -8.41101 2.65469 0
M  V30 42777 O 1420.12 -6.4965 4.18908 0
M  V30 42778 C 1421.06 -5.81037 5.05421 0
M  V30 42779 C 1420.33 -4.78366 5.89277 0
M  V30 42780 O 1420.12 -3.58302 5.08433 0
M  V30 42781 C 1418.93 -5.17448 6.36119 0
M  V30 42782 O 1418.54 -4.45271 7.53232 0
M  V30 42783 C 1418.05 -4.74639 5.19936 0
M  V30 42784 C 1418.76 -3.49432 4.70418 0
M  V30 42785 N 1418.71 -3.31776 3.22945 0
M  V30 42786 H 1421.55 -6.54213 5.71376 0
M  V30 42787 H 1421.82 -5.30492 4.44033 0
M  V30 42788 H 1420.95 -4.55889 6.76652 0
M  V30 42789 P 1416.99 -4.23843 7.83734 0
M  V30 42790 O 1416.77 -4.19407 9.29784 0
M  V30 42791 O 1416.2 -5.24426 7.09156 0
M  V30 42792 O 1416.74 -2.7935 7.20758 0
M  V30 42793 C 1417.68 -1.7299 7.50419 0
M  V30 42794 C 1416.95 -0.406376 7.57911 0
M  V30 42795 O 1416.74 0.0897726 6.21935 0
M  V30 42796 C 1415.55 -0.447224 8.1878 0
M  V30 42797 O 1415.16 0.825065 8.71101 0
M  V30 42798 C 1414.67 -0.783801 6.99623 0
M  V30 42799 C 1415.38 -0.0619192 5.85967 0
M  V30 42800 N 1415.33 -0.790462 4.56202 0
M  V30 42801 H 1418.17 -1.93423 8.4679 0
M  V30 42802 H 1418.44 -1.68852 6.70877 0
M  V30 42803 H 1417.57 0.289041 8.15388 0
M  V30 42804 H 1414.92 0.927006 5.72848 0
M  V30 42805 H 1414.64 -1.86973 6.82036 0
M  V30 42806 H 1413.65 -0.403953 7.13357 0
M  V30 42807 H 1415.48 -1.20599 8.97534 0
M  V30 42808 P 1413.61 1.17771 8.83182 0
M  V30 42809 O 1413.39 2.07206 9.98732 0
M  V30 42810 O 1412.82 -0.0743816 8.81969 0
M  V30 42811 O 1413.36 1.97652 7.47304 0
M  V30 42812 C 1414.3 3.01133 7.08783 0
M  V30 42813 C 1413.57 4.12613 6.37049 0
M  V30 42814 O 1413.36 3.72827 4.97879 0
M  V30 42815 C 1412.17 4.45085 6.88694 0
M  V30 42816 O 1411.78 5.7877 6.5624 0
M  V30 42817 C 1411.29 3.47817 6.12078 0
M  V30 42818 C 1412 3.39414 4.77697 0
M  V30 42819 N 1411.95 2.04615 4.15333 0
M  V30 42820 C 1412.03 0.803897 4.75249 0
M  V30 42821 N 1411.95 -0.197615 3.91502 0
M  V30 42822 C 1411.81 0.413002 2.66823 0
M  V30 42823 C 1411.68 -0.157221 1.38007 0
M  V30 42824 O 1411.66 -1.34419 1.057 0
M  V30 42825 N 1411.56 0.833136 0.390236 0
M  V30 42826 C 1411.56 2.19402 0.623885 0
M  V30 42827 N 1411.43 2.97622 -0.449677 0
M  V30 42828 N 1411.69 2.73005 1.83601 0
M  V30 42829 C 1411.81 1.78786 2.80935 0
M  V30 42830 H 1414.79 3.41248 7.98759 0
M  V30 42831 H 1415.06 2.5837 6.41742 0
M  V30 42832 H 1414.19 5.02657 6.42673 0
M  V30 42833 H 1411.54 4.11779 4.09026 0
M  V30 42834 H 1411.26 2.49661 6.61772 0
M  V30 42835 H 1410.27 3.86674 6.00946 0
M  V30 42836 H 1412.1 4.30038 7.97094 0
M  V30 42837 H 1412.15 0.670579 5.82754 0
M  V30 42838 H 1411.47 0.528446 -0.557287 0
M  V30 42839 H 1411.43 4.00117 -0.344773 0
M  V30 42840 H 1411.33 2.55448 -1.38544 0
M  V30 42841 P 1410.23 6.144 6.45285 0
M  V30 42842 O 1410.01 7.54673 6.86199 0
M  V30 42843 O 1409.44 5.12391 7.179 0
M  V30 42844 O 1409.98 5.99158 4.88404 0
M  V30 42845 C 1410.92 6.60234 3.96415 0
M  V30 42846 C 1410.19 7.08259 2.72856 0
M  V30 42847 O 1409.98 5.9427 1.83651 0
M  V30 42848 C 1408.79 7.64886 2.9555 0
M  V30 42849 O 1408.4 8.53963 1.90717 0
M  V30 42850 C 1407.91 6.4116 2.90739 0
M  V30 42851 C 1408.62 5.55375 1.86963 0
M  V30 42852 N 1408.57 4.09448 2.16152 0
M  V30 42853 H 1411.41 7.45574 4.45629 0
M  V30 42854 H 1411.68 5.85864 3.679 0
M  V30 42855 H 1410.81 7.84412 2.24479 0
M  V30 42856 H 1408.16 5.73457 0.888562 0
M  V30 42857 H 1407.88 5.90877 3.88583 0
M  V30 42858 H 1406.89 6.6596 2.58858 0
M  V30 42859 H 1408.72 8.16339 3.92049 0
M  V30 42860 P 1406.85 8.7635 1.60911 0
M  V30 42861 O 1406.63 10.1388 1.11561 0
M  V30 42862 O 1406.06 8.36503 2.79617 0
M  V30 42863 O 1406.6 7.71906 0.429565 0
M  V30 42864 C 1407.54 7.67148 -0.673689 0
M  V30 42865 C 1406.81 7.33666 -1.94851 0
M  V30 42866 O 1406.6 5.88816 -2.00759 0
M  V30 42867 C 1405.41 7.92526 -2.10483 0
M  V30 42868 O 1405.02 8.03063 -3.47693 0
M  V30 42869 C 1404.53 6.89602 -1.41652 0
M  V30 42870 C 1405.24 5.59201 -1.75185 0
M  V30 42871 N 1405.19 4.58235 -0.662552 0
M  V30 42872 C 1405.04 3.24451 -1.01643 0
M  V30 42873 O 1404.95 2.94958 -2.21722 0
M  V30 42874 N 1404.99 2.30408 0.165238 0
M  V30 42875 C 1405.09 2.66048 1.25118 0
M  V30 42876 N 1405.04 1.70787 2.16813 0
M  V30 42877 C 1405.24 4.02732 1.64413 0
M  V30 42878 C 1405.29 4.9488 0.63991 0
M  V30 42879 H 1408.03 8.65017 -0.777072 0
M  V30 42880 H 1408.3 6.90173 -0.474152 0
M  V30 42881 H 1407.43 7.66642 -2.79492 0
M  V30 42882 H 1404.78 5.16254 -2.65229 0
M  V30 42883 H 1404.5 7.06532 -0.329431 0
M  V30 42884 H 1403.51 6.91023 -1.82047 0
M  V30 42885 H 1405.34 8.90873 -1.62657 0
M  V30 42886 H 1405.41 6.00104 0.892197 0
M  V30 42887 H 1405.31 4.31733 2.69229 0
M  V30 42888 H 1404.92 0.724835 1.8844 0
M  V30 42889 H 1405.12 1.94716 3.16734 0
M  V30 42890 P 1403.47 8.03563 -3.84925 0
M  V30 42891 O 1403.25 8.85821 -5.0569 0
M  V30 42892 O 1402.68 8.41101 -2.65469 0
M  V30 42893 O 1403.22 6.4965 -4.18908 0
M  V30 42894 C 1404.16 5.81037 -5.05421 0
M  V30 42895 C 1403.43 4.78366 -5.89277 0
M  V30 42896 O 1403.22 3.58302 -5.08433 0
M  V30 42897 C 1402.03 5.17448 -6.36119 0
M  V30 42898 O 1401.64 4.45271 -7.53232 0
M  V30 42899 C 1401.15 4.74639 -5.19936 0
M  V30 42900 C 1401.86 3.49432 -4.70418 0
M  V30 42901 N 1401.81 3.31776 -3.22945 0
M  V30 42902 H 1404.65 6.54213 -5.71376 0
M  V30 42903 H 1404.92 5.30492 -4.44033 0
M  V30 42904 H 1404.05 4.55889 -6.76652 0
M  V30 42905 P 1400.09 4.23843 -7.83734 0
M  V30 42906 O 1399.87 4.19407 -9.29784 0
M  V30 42907 O 1399.3 5.24426 -7.09156 0
M  V30 42908 O 1399.84 2.7935 -7.20758 0
M  V30 42909 C 1400.78 1.7299 -7.50419 0
M  V30 42910 C 1400.05 0.406376 -7.57911 0
M  V30 42911 O 1399.84 -0.0897726 -6.21935 0
M  V30 42912 C 1398.65 0.447224 -8.1878 0
M  V30 42913 O 1398.26 -0.825065 -8.71101 0
M  V30 42914 C 1397.77 0.783801 -6.99623 0
M  V30 42915 C 1398.48 0.0619192 -5.85967 0
M  V30 42916 N 1398.43 0.790462 -4.56202 0
M  V30 42917 H 1401.27 1.93423 -8.4679 0
M  V30 42918 H 1401.54 1.68852 -6.70877 0
M  V30 42919 H 1400.67 -0.289041 -8.15388 0
M  V30 42920 H 1398.02 -0.927006 -5.72848 0
M  V30 42921 H 1397.74 1.86973 -6.82036 0
M  V30 42922 H 1396.75 0.403953 -7.13357 0
M  V30 42923 H 1398.58 1.20599 -8.97534 0
M  V30 42924 P 1396.71 -1.17771 -8.83182 0
M  V30 42925 O 1396.49 -2.07206 -9.98732 0
M  V30 42926 O 1395.92 0.0743816 -8.81969 0
M  V30 42927 O 1396.46 -1.97652 -7.47304 0
M  V30 42928 C 1397.4 -3.01133 -7.08783 0
M  V30 42929 C 1396.67 -4.12613 -6.37049 0
M  V30 42930 O 1396.46 -3.72827 -4.97879 0
M  V30 42931 C 1395.27 -4.45085 -6.88694 0
M  V30 42932 O 1394.88 -5.7877 -6.5624 0
M  V30 42933 C 1394.39 -3.47817 -6.12078 0
M  V30 42934 C 1395.1 -3.39414 -4.77697 0
M  V30 42935 N 1395.05 -2.04615 -4.15333 0
M  V30 42936 H 1397.89 -3.41248 -7.98759 0
M  V30 42937 H 1398.16 -2.5837 -6.41742 0
M  V30 42938 H 1397.29 -5.02657 -6.42673 0
M  V30 42939 P 1393.33 -6.144 -6.45285 0
M  V30 42940 O 1393.11 -7.54673 -6.86199 0
M  V30 42941 O 1392.54 -5.12391 -7.179 0
M  V30 42942 O 1393.08 -5.99158 -4.88404 0
M  V30 42943 C 1394.02 -6.60234 -3.96415 0
M  V30 42944 C 1393.29 -7.08259 -2.72856 0
M  V30 42945 O 1393.08 -5.9427 -1.83651 0
M  V30 42946 C 1391.89 -7.64886 -2.9555 0
M  V30 42947 O 1391.5 -8.53963 -1.90717 0
M  V30 42948 C 1391.01 -6.4116 -2.90739 0
M  V30 42949 C 1391.72 -5.55375 -1.86963 0
M  V30 42950 N 1391.67 -4.09664 -2.15742 0
M  V30 42951 H 1394.51 -7.45574 -4.45629 0
M  V30 42952 H 1394.78 -5.86232 -3.67314 0
M  V30 42953 H 1393.91 -7.84412 -2.24479 0
M  V30 42954 P 1389.95 -8.7635 -1.60911 0
M  V30 42955 O 1389.73 -10.1388 -1.11561 0
M  V30 42956 O 1389.16 -8.36503 -2.79617 0
M  V30 42957 O 1389.7 -7.71806 -0.42951 0
M  V30 42958 C 1390.64 -7.67148 0.673689 0
M  V30 42959 C 1389.91 -7.33374 1.95559 0
M  V30 42960 O 1389.7 -5.88721 2.00726 0
M  V30 42961 C 1388.51 -7.92526 2.10483 0
M  V30 42962 O 1388.12 -8.02971 3.47653 0
M  V30 42963 C 1387.63 -6.89602 1.41652 0
M  V30 42964 C 1388.34 -5.59201 1.75185 0
M  V30 42965 N 1388.29 -4.58235 0.662552 0
M  V30 42966 H 1391.13 -8.65116 0.777161 0
M  V30 42967 H 1391.4 -6.90173 0.474152 0
M  V30 42968 H 1390.53 -7.66548 2.79458 0
M  V30 42969 P 1386.57 -8.03563 3.84925 0
M  V30 42970 O 1386.35 -8.85821 5.0569 0
M  V30 42971 O 1385.78 -8.41101 2.65469 0
M  V30 42972 O 1386.32 -6.4965 4.18908 0
M  V30 42973 C 1387.26 -5.81037 5.05421 0
M  V30 42974 C 1386.53 -4.78366 5.89277 0
M  V30 42975 O 1386.32 -3.58302 5.08433 0
M  V30 42976 C 1385.13 -5.17448 6.36119 0
M  V30 42977 O 1384.74 -4.45271 7.53232 0
M  V30 42978 C 1384.25 -4.74639 5.19936 0
M  V30 42979 C 1384.96 -3.49432 4.70418 0
M  V30 42980 N 1384.91 -3.31776 3.22945 0
M  V30 42981 H 1387.75 -6.54213 5.71376 0
M  V30 42982 H 1388.02 -5.30492 4.44033 0
M  V30 42983 H 1387.15 -4.55889 6.76652 0
M  V30 42984 P 1383.19 -4.23843 7.83734 0
M  V30 42985 O 1382.97 -4.19407 9.29784 0
M  V30 42986 O 1382.4 -5.24426 7.09156 0
M  V30 42987 O 1382.94 -2.7935 7.20758 0
M  V30 42988 C 1383.88 -1.7299 7.50419 0
M  V30 42989 C 1383.15 -0.406376 7.57911 0
M  V30 42990 O 1382.94 0.0897726 6.21935 0
M  V30 42991 C 1381.75 -0.447224 8.1878 0
M  V30 42992 O 1381.36 0.825065 8.71101 0
M  V30 42993 C 1380.87 -0.783801 6.99623 0
M  V30 42994 C 1381.58 -0.0619192 5.85967 0
M  V30 42995 N 1381.53 -0.7859 4.56281 0
M  V30 42996 H 1384.37 -1.93423 8.4679 0
M  V30 42997 H 1384.64 -1.68181 6.71046 0
M  V30 42998 H 1383.77 0.289041 8.15388 0
M  V30 42999 P 1379.81 1.17771 8.83182 0
M  V30 43000 O 1379.59 2.07206 9.98732 0
M  V30 43001 O 1379.02 -0.0743816 8.81969 0
M  V30 43002 O 1379.56 1.97652 7.47304 0
M  V30 43003 C 1380.5 3.01133 7.08783 0
M  V30 43004 C 1379.77 4.12613 6.37049 0
M  V30 43005 O 1379.56 3.72827 4.97879 0
M  V30 43006 C 1378.37 4.45085 6.88694 0
M  V30 43007 O 1377.98 5.7877 6.5624 0
M  V30 43008 C 1377.49 3.47817 6.12078 0
M  V30 43009 C 1378.2 3.39414 4.77697 0
M  V30 43010 N 1378.15 2.04615 4.15333 0
M  V30 43011 H 1380.99 3.41248 7.98759 0
M  V30 43012 H 1381.26 2.5837 6.41742 0
M  V30 43013 H 1380.39 5.02657 6.42673 0
M  V30 43014 P 1376.43 6.144 6.45285 0
M  V30 43015 O 1376.21 7.54673 6.86199 0
M  V30 43016 O 1375.64 5.12391 7.179 0
M  V30 43017 O 1376.18 5.99158 4.88404 0
M  V30 43018 C 1377.12 6.60234 3.96415 0
M  V30 43019 C 1376.39 7.08259 2.72856 0
M  V30 43020 O 1376.18 5.9427 1.83651 0
M  V30 43021 C 1374.99 7.64886 2.9555 0
M  V30 43022 O 1374.6 8.53963 1.90717 0
M  V30 43023 C 1374.11 6.4116 2.90739 0
M  V30 43024 C 1374.82 5.55375 1.86963 0
M  V30 43025 N 1374.77 4.09664 2.15742 0
M  V30 43026 H 1377.61 7.45574 4.45629 0
M  V30 43027 H 1377.88 5.86232 3.67314 0
M  V30 43028 H 1377.01 7.84412 2.24479 0
M  V30 43029 P 1373.05 8.7635 1.60911 0
M  V30 43030 O 1372.83 10.1388 1.11561 0
M  V30 43031 O 1372.26 8.36503 2.79617 0
M  V30 43032 O 1372.8 7.71806 0.42951 0
M  V30 43033 C 1373.74 7.66948 -0.673514 0
M  V30 43034 C 1373.01 7.33374 -1.95559 0
M  V30 43035 O 1372.8 5.88721 -2.00726 0
M  V30 43036 C 1371.61 7.92218 -2.1125 0
M  V30 43037 O 1371.22 8.02971 -3.47653 0
M  V30 43038 C 1370.73 6.89504 -1.41631 0
M  V30 43039 C 1371.44 5.59106 -1.75155 0
M  V30 43040 N 1371.39 4.58136 -0.662409 0
M  V30 43041 C 1371.24 3.26059 -1.02863 0
M  V30 43042 O 1371.15 2.90743 -2.19009 0
M  V30 43043 N 1371.2 2.35995 0.0155585 0
M  V30 43044 C 1371.29 2.65248 1.35603 0
M  V30 43045 O 1371.24 1.75605 2.20651 0
M  V30 43046 C 1371.44 4.05747 1.64698 0
M  V30 43047 C 1371.55 4.42345 3.09553 0
M  V30 43048 C 1371.49 4.96734 0.652411 0
M  V30 43049 H 1374.23 8.64917 -0.776982 0
M  V30 43050 H 1374.5 6.89974 -0.474015 0
M  V30 43051 H 1373.63 7.66548 -2.79458 0
M  V30 43052 H 1370.98 5.16076 -2.65138 0
M  V30 43053 H 1370.7 7.06433 -0.329384 0
M  V30 43054 H 1369.71 6.90829 -1.81996 0
M  V30 43055 H 1371.54 8.90774 -1.62639 0
M  V30 43056 H 1371.61 6.02181 0.895285 0
M  V30 43057 H 1370.58 4.80252 3.45468 0
M  V30 43058 H 1372.32 5.20015 3.22119 0
M  V30 43059 H 1371.83 3.53269 3.67833 0
M  V30 43060 H 1371.1 1.39558 -0.227499 0
M  V30 43061 P 1369.67 8.03563 -3.84925 0
M  V30 43062 O 1369.45 8.85821 -5.0569 0
M  V30 43063 O 1368.88 8.41101 -2.65469 0
M  V30 43064 O 1369.42 6.4965 -4.18908 0
M  V30 43065 C 1370.36 5.81037 -5.05421 0
M  V30 43066 C 1369.63 4.78366 -5.89277 0
M  V30 43067 O 1369.42 3.58302 -5.08433 0
M  V30 43068 C 1368.23 5.17448 -6.36119 0
M  V30 43069 O 1367.84 4.45271 -7.53232 0
M  V30 43070 C 1367.35 4.74639 -5.19936 0
M  V30 43071 C 1368.06 3.49432 -4.70418 0
M  V30 43072 N 1368.01 3.32099 -3.22613 0
M  V30 43073 C 1368.09 4.28245 -2.25527 0
M  V30 43074 N 1368.02 3.80823 -1.04874 0
M  V30 43075 C 1367.87 2.44571 -1.23535 0
M  V30 43076 C 1367.74 1.37068 -0.330675 0
M  V30 43077 N 1367.73 1.51472 0.990824 0
M  V30 43078 N 1367.62 0.138614 -0.848756 0
M  V30 43079 C 1367.63 -0.00675923 -2.16999 0
M  V30 43080 N 1367.75 0.904372 -3.11122 0
M  V30 43081 C 1367.87 2.12707 -2.56212 0
M  V30 43082 H 1370.85 6.54213 -5.71376 0
M  V30 43083 H 1371.12 5.30936 -4.43503 0
M  V30 43084 H 1370.25 4.55889 -6.76652 0
M  V30 43085 H 1367.6 2.61715 -5.17932 0
M  V30 43086 H 1367.32 5.52155 -4.41878 0
M  V30 43087 H 1366.33 4.51981 -5.53374 0
M  V30 43088 H 1368.16 6.25124 -6.55234 0
M  V30 43089 H 1368.2 5.34372 -2.47488 0
M  V30 43090 H 1367.82 2.45153 1.4078 0
M  V30 43091 H 1367.63 0.688422 1.59911 0
M  V30 43092 H 1367.53 -1.02584 -2.52346 0
M  V30 43093 P 1366.29 4.23843 -7.83734 0
M  V30 43094 O 1366.07 4.19407 -9.29784 0
M  V30 43095 O 1365.5 5.24426 -7.09156 0
M  V30 43096 O 1366.04 2.7935 -7.20758 0
M  V30 43097 C 1366.98 1.7299 -7.50419 0
M  V30 43098 C 1366.25 0.406376 -7.57911 0
M  V30 43099 O 1366.04 -0.0897726 -6.21935 0
M  V30 43100 C 1364.85 0.447224 -8.1878 0
M  V30 43101 O 1364.46 -0.825065 -8.71101 0
M  V30 43102 C 1363.97 0.783801 -6.99623 0
M  V30 43103 C 1364.68 0.0619192 -5.85967 0
M  V30 43104 N 1364.63 0.790462 -4.56202 0
M  V30 43105 C 1364.71 2.13895 -4.34171 0
M  V30 43106 N 1364.64 2.46449 -3.08687 0
M  V30 43107 C 1364.49 1.2525 -2.43697 0
M  V30 43108 C 1364.36 0.914535 -1.07318 0
M  V30 43109 N 1364.35 1.80782 -0.0887348 0
M  V30 43110 N 1364.24 -0.386745 -0.768133 0
M  V30 43111 C 1364.25 -1.28096 -1.75159 0
M  V30 43112 N 1364.37 -1.09708 -3.04861 0
M  V30 43113 C 1364.49 0.214857 -3.32306 0
M  V30 43114 H 1367.47 1.93423 -8.4679 0
M  V30 43115 H 1367.74 1.68852 -6.70877 0
M  V30 43116 H 1366.87 -0.289041 -8.15388 0
M  V30 43117 H 1364.22 -0.927006 -5.72848 0
M  V30 43118 H 1363.94 1.86973 -6.82036 0
M  V30 43119 H 1362.95 0.403953 -7.13357 0
M  V30 43120 H 1364.78 1.20599 -8.97534 0
M  V30 43121 H 1364.82 2.86846 -5.14318 0
M  V30 43122 H 1364.44 2.81082 -0.302037 0
M  V30 43123 H 1364.25 1.49688 0.889064 0
M  V30 43124 H 1364.15 -2.31317 -1.43855 0
M  V30 43125 P 1362.91 -1.17771 -8.83182 0
M  V30 43126 O 1362.69 -2.07206 -9.98732 0
M  V30 43127 O 1362.12 0.0743816 -8.81969 0
M  V30 43128 O 1362.66 -1.97652 -7.47304 0
M  V30 43129 C 1363.6 -3.01133 -7.08783 0
M  V30 43130 C 1362.87 -4.12613 -6.37049 0
M  V30 43131 O 1362.66 -3.72827 -4.97879 0
M  V30 43132 C 1361.47 -4.45085 -6.88694 0
M  V30 43133 O 1361.08 -5.7877 -6.5624 0
M  V30 43134 C 1360.59 -3.47817 -6.12078 0
M  V30 43135 C 1361.3 -3.39414 -4.77697 0
M  V30 43136 N 1361.25 -2.04199 -4.15538 0
M  V30 43137 H 1364.09 -3.41248 -7.98759 0
M  V30 43138 H 1364.36 -2.57728 -6.42 0
M  V30 43139 H 1363.49 -5.02657 -6.42673 0
M  V30 43140 H 1360.84 -4.11708 -4.08956 0
M  V30 43141 H 1360.56 -2.49626 -6.61679 0
M  V30 43142 H 1359.57 -3.8662 -6.00862 0
M  V30 43143 H 1361.4 -4.29991 -7.97006 0
M  V30 43144 P 1359.53 -6.144 -6.45285 0
M  V30 43145 O 1359.31 -7.54673 -6.86199 0
M  V30 43146 O 1358.74 -5.12391 -7.179 0
M  V30 43147 O 1359.28 -5.99158 -4.88404 0
M  V30 43148 C 1360.22 -6.60234 -3.96415 0
M  V30 43149 C 1359.49 -7.08259 -2.72856 0
M  V30 43150 O 1359.28 -5.9427 -1.83651 0
M  V30 43151 C 1358.09 -7.64886 -2.9555 0
M  V30 43152 O 1357.7 -8.53963 -1.90717 0
M  V30 43153 C 1357.21 -6.4116 -2.90739 0
M  V30 43154 C 1357.92 -5.55375 -1.86963 0
M  V30 43155 N 1357.87 -4.09664 -2.15742 0
M  V30 43156 H 1360.71 -7.45574 -4.45629 0
M  V30 43157 H 1360.98 -5.86232 -3.67314 0
M  V30 43158 H 1360.11 -7.84412 -2.24479 0
M  V30 43159 P 1356.15 -8.7635 -1.60911 0
M  V30 43160 O 1355.93 -10.1388 -1.11561 0
M  V30 43161 O 1355.36 -8.36503 -2.79617 0
M  V30 43162 O 1355.9 -7.71806 -0.42951 0
M  V30 43163 C 1356.84 -7.67148 0.673689 0
M  V30 43164 C 1356.11 -7.33374 1.95559 0
M  V30 43165 O 1355.9 -5.88721 2.00726 0
M  V30 43166 C 1354.71 -7.92526 2.10483 0
M  V30 43167 O 1354.32 -8.02971 3.47653 0
M  V30 43168 C 1353.83 -6.89602 1.41652 0
M  V30 43169 C 1354.54 -5.59201 1.75185 0
M  V30 43170 N 1354.49 -4.58301 0.657969 0
M  V30 43171 H 1357.33 -8.65116 0.777161 0
M  V30 43172 H 1357.6 -6.9022 0.46725 0
M  V30 43173 H 1356.73 -7.66548 2.79458 0
M  V30 43174 H 1354.08 -5.16165 2.65183 0
M  V30 43175 H 1353.8 -7.06433 0.329384 0
M  V30 43176 H 1352.81 -6.90926 1.82021 0
M  V30 43177 H 1354.64 -8.90873 1.62657 0
M  V30 43178 P 1352.77 -8.03563 3.84925 0
M  V30 43179 O 1352.55 -8.85821 5.0569 0
M  V30 43180 O 1351.98 -8.41101 2.65469 0
M  V30 43181 O 1352.52 -6.4965 4.18908 0
M  V30 43182 C 1353.46 -5.81037 5.05421 0
M  V30 43183 C 1352.73 -4.78366 5.89277 0
M  V30 43184 O 1352.52 -3.58302 5.08433 0
M  V30 43185 C 1351.33 -5.17448 6.36119 0
M  V30 43186 O 1350.94 -4.45271 7.53232 0
M  V30 43187 C 1350.45 -4.74639 5.19936 0
M  V30 43188 C 1351.16 -3.49432 4.70418 0
M  V30 43189 N 1351.11 -3.31776 3.22945 0
M  V30 43190 C 1351.19 -4.27147 2.23315 0
M  V30 43191 N 1351.11 -3.78447 1.02186 0
M  V30 43192 C 1350.97 -2.41001 1.21732 0
M  V30 43193 C 1350.84 -1.36111 0.27694 0
M  V30 43194 N 1350.72 -0.113683 0.912949 0
M  V30 43195 C 1350.72 0.0846396 2.27943 0
M  V30 43196 N 1350.59 1.34737 2.6916 0
M  V30 43197 N 1350.85 -0.902521 3.16379 0
M  V30 43198 C 1350.97 -2.11937 2.56849 0
M  V30 43199 H 1353.95 -6.54213 5.71376 0
M  V30 43200 H 1354.22 -5.30492 4.44033 0
M  V30 43201 H 1353.36 -4.55889 6.76652 0
M  V30 43202 P 1349.39 -4.23843 7.83734 0
M  V30 43203 O 1349.17 -4.19407 9.29784 0
M  V30 43204 O 1348.6 -5.24426 7.09156 0
M  V30 43205 O 1349.14 -2.7935 7.20758 0
M  V30 43206 C 1350.08 -1.7299 7.50419 0
M  V30 43207 C 1349.35 -0.406376 7.57911 0
M  V30 43208 O 1349.14 0.0897726 6.21935 0
M  V30 43209 C 1347.95 -0.447224 8.1878 0
M  V30 43210 O 1347.56 0.825065 8.71101 0
M  V30 43211 C 1347.07 -0.783801 6.99623 0
M  V30 43212 C 1347.78 -0.0619192 5.85967 0
M  V30 43213 N 1347.73 -0.7859 4.56281 0
M  V30 43214 H 1350.57 -1.93423 8.4679 0
M  V30 43215 H 1350.84 -1.68181 6.71046 0
M  V30 43216 H 1349.98 0.289041 8.15388 0
M  V30 43217 P 1346.01 1.17771 8.83182 0
M  V30 43218 O 1345.79 2.07206 9.98732 0
M  V30 43219 O 1345.22 -0.0743816 8.81969 0
M  V30 43220 O 1345.76 1.97652 7.47304 0
M  V30 43221 C 1346.7 3.01133 7.08783 0
M  V30 43222 C 1345.97 4.12613 6.37049 0
M  V30 43223 O 1345.76 3.72827 4.97879 0
M  V30 43224 C 1344.57 4.45085 6.88694 0
M  V30 43225 O 1344.18 5.7877 6.5624 0
M  V30 43226 C 1343.69 3.47817 6.12078 0
M  V30 43227 C 1344.4 3.39414 4.77697 0
M  V30 43228 N 1344.35 2.04615 4.15333 0
M  V30 43229 H 1347.19 3.41248 7.98759 0
M  V30 43230 H 1347.46 2.5837 6.41742 0
M  V30 43231 H 1346.6 5.02657 6.42673 0
M  V30 43232 P 1342.63 6.144 6.45285 0
M  V30 43233 O 1342.41 7.54673 6.86199 0
M  V30 43234 O 1341.84 5.12391 7.179 0
M  V30 43235 O 1342.38 5.99158 4.88404 0
M  V30 43236 C 1343.32 6.60234 3.96415 0
M  V30 43237 C 1342.59 7.08259 2.72856 0
M  V30 43238 O 1342.38 5.9427 1.83651 0
M  V30 43239 C 1341.19 7.64886 2.9555 0
M  V30 43240 O 1340.8 8.53963 1.90717 0
M  V30 43241 C 1340.31 6.4116 2.90739 0
M  V30 43242 C 1341.02 5.55375 1.86963 0
M  V30 43243 N 1340.97 4.09664 2.15742 0
M  V30 43244 C 1341.05 3.44381 3.37233 0
M  V30 43245 N 1340.97 2.14131 3.28347 0
M  V30 43246 C 1340.83 1.90247 1.91588 0
M  V30 43247 C 1340.7 0.683992 1.20892 0
M  V30 43248 O 1340.68 -0.46618 1.64523 0
M  V30 43249 N 1340.58 0.903396 -0.173998 0
M  V30 43250 C 1340.58 2.14171 -0.784879 0
M  V30 43251 N 1340.45 2.1435 -2.11317 0
M  V30 43252 N 1340.71 3.28784 -0.119316 0
M  V30 43253 C 1340.83 3.0977 1.22194 0
M  V30 43254 H 1343.81 7.45574 4.45629 0
M  V30 43255 H 1344.08 5.86232 3.67314 0
M  V30 43256 H 1343.22 7.84412 2.24479 0
M  V30 43257 H 1340.56 5.73556 0.888715 0
M  V30 43258 H 1340.28 5.9096 3.88638 0
M  V30 43259 H 1339.29 6.66053 2.58894 0
M  V30 43260 H 1341.12 8.16429 3.92093 0
M  V30 43261 H 1341.17 3.96785 4.32043 0
M  V30 43262 H 1340.49 0.0999567 -0.761467 0
M  V30 43263 H 1340.45 3.03436 -2.63076 0
M  V30 43264 H 1340.35 1.25228 -2.62233 0
M  V30 43265 P 1339.25 8.7635 1.60911 0
M  V30 43266 O 1339.03 10.1388 1.11561 0
M  V30 43267 O 1338.46 8.36503 2.79617 0
M  V30 43268 O 1339 7.71806 0.42951 0
M  V30 43269 C 1339.94 7.67148 -0.673689 0
M  V30 43270 C 1339.21 7.33374 -1.95559 0
M  V30 43271 O 1339 5.88721 -2.00726 0
M  V30 43272 C 1337.81 7.92526 -2.10483 0
M  V30 43273 O 1337.42 8.02971 -3.47653 0
M  V30 43274 C 1336.93 6.89602 -1.41652 0
M  V30 43275 C 1337.64 5.59201 -1.75185 0
M  V30 43276 N 1337.59 4.58301 -0.657969 0
M  V30 43277 H 1340.43 8.65116 -0.777161 0
M  V30 43278 H 1340.7 6.9022 -0.46725 0
M  V30 43279 H 1339.84 7.66548 -2.79458 0
M  V30 43280 H 1337.18 5.16165 -2.65183 0
M  V30 43281 H 1336.9 7.06433 -0.329384 0
M  V30 43282 H 1335.91 6.90926 -1.82021 0
M  V30 43283 H 1337.74 8.90873 -1.62657 0
M  V30 43284 P 1335.87 8.03563 -3.84925 0
M  V30 43285 O 1335.65 8.85821 -5.0569 0
M  V30 43286 O 1335.08 8.41101 -2.65469 0
M  V30 43287 O 1335.62 6.4965 -4.18908 0
M  V30 43288 C 1336.56 5.81037 -5.05421 0
M  V30 43289 C 1335.83 4.78366 -5.89277 0
M  V30 43290 O 1335.62 3.58302 -5.08433 0
M  V30 43291 C 1334.43 5.17448 -6.36119 0
M  V30 43292 O 1334.04 4.45271 -7.53232 0
M  V30 43293 C 1333.55 4.74639 -5.19936 0
M  V30 43294 C 1334.26 3.49432 -4.70418 0
M  V30 43295 N 1334.21 3.31776 -3.22945 0
M  V30 43296 H 1337.05 6.54213 -5.71376 0
M  V30 43297 H 1337.32 5.30492 -4.44033 0
M  V30 43298 H 1336.46 4.55889 -6.76652 0
M  V30 43299 P 1332.49 4.23843 -7.83734 0
M  V30 43300 O 1332.27 4.19407 -9.29784 0
M  V30 43301 O 1331.7 5.24426 -7.09156 0
M  V30 43302 O 1332.24 2.7935 -7.20758 0
M  V30 43303 C 1333.18 1.7299 -7.50419 0
M  V30 43304 C 1332.45 0.406376 -7.57911 0
M  V30 43305 O 1332.24 -0.0897726 -6.21935 0
M  V30 43306 C 1331.05 0.447224 -8.1878 0
M  V30 43307 O 1330.66 -0.825065 -8.71101 0
M  V30 43308 C 1330.17 0.783801 -6.99623 0
M  V30 43309 C 1330.88 0.0619192 -5.85967 0
M  V30 43310 N 1330.83 0.7859 -4.56281 0
M  V30 43311 H 1333.67 1.93423 -8.4679 0
M  V30 43312 H 1333.94 1.68181 -6.71046 0
M  V30 43313 H 1333.08 -0.289041 -8.15388 0
M  V30 43314 P 1329.11 -1.17771 -8.83182 0
M  V30 43315 O 1328.89 -2.07206 -9.98732 0
M  V30 43316 O 1328.32 0.0743816 -8.81969 0
M  V30 43317 O 1328.86 -1.97652 -7.47304 0
M  V30 43318 C 1329.8 -3.01133 -7.08783 0
M  V30 43319 C 1329.07 -4.12613 -6.37049 0
M  V30 43320 O 1328.86 -3.72827 -4.97879 0
M  V30 43321 C 1327.67 -4.45085 -6.88694 0
M  V30 43322 O 1327.28 -5.7877 -6.5624 0
M  V30 43323 C 1326.79 -3.47817 -6.12078 0
M  V30 43324 C 1327.5 -3.39414 -4.77697 0
M  V30 43325 N 1327.45 -2.04615 -4.15333 0
M  V30 43326 H 1330.29 -3.41248 -7.98759 0
M  V30 43327 H 1330.56 -2.5837 -6.41742 0
M  V30 43328 H 1329.7 -5.02657 -6.42673 0
M  V30 43329 P 1325.73 -6.144 -6.45285 0
M  V30 43330 O 1325.51 -7.54673 -6.86199 0
M  V30 43331 O 1324.94 -5.12391 -7.179 0
M  V30 43332 O 1325.48 -5.99158 -4.88404 0
M  V30 43333 C 1326.42 -6.60234 -3.96415 0
M  V30 43334 C 1325.69 -7.08259 -2.72856 0
M  V30 43335 O 1325.48 -5.9427 -1.83651 0
M  V30 43336 C 1324.29 -7.64886 -2.9555 0
M  V30 43337 O 1323.9 -8.53963 -1.90717 0
M  V30 43338 C 1323.41 -6.4116 -2.90739 0
M  V30 43339 C 1324.12 -5.55375 -1.86963 0
M  V30 43340 N 1324.07 -4.09664 -2.15742 0
M  V30 43341 H 1326.91 -7.45574 -4.45629 0
M  V30 43342 H 1327.18 -5.86232 -3.67314 0
M  V30 43343 H 1326.32 -7.84412 -2.24479 0
M  V30 43344 P 1322.35 -8.7635 -1.60911 0
M  V30 43345 O 1322.13 -10.1388 -1.11561 0
M  V30 43346 O 1321.56 -8.36503 -2.79617 0
M  V30 43347 O 1322.1 -7.71806 -0.42951 0
M  V30 43348 C 1323.04 -7.67148 0.673689 0
M  V30 43349 C 1322.31 -7.33374 1.95559 0
M  V30 43350 O 1322.1 -5.88721 2.00726 0
M  V30 43351 C 1320.91 -7.92526 2.10483 0
M  V30 43352 O 1320.52 -8.02971 3.47653 0
M  V30 43353 C 1320.03 -6.89602 1.41652 0
M  V30 43354 C 1320.74 -5.59201 1.75185 0
M  V30 43355 N 1320.69 -4.58235 0.662552 0
M  V30 43356 H 1323.53 -8.65116 0.777161 0
M  V30 43357 H 1323.8 -6.90173 0.474152 0
M  V30 43358 H 1322.94 -7.66548 2.79458 0
M  V30 43359 P 1318.97 -8.03563 3.84925 0
M  V30 43360 O 1318.75 -8.85821 5.0569 0
M  V30 43361 O 1318.18 -8.41101 2.65469 0
M  V30 43362 O 1318.72 -6.4965 4.18908 0
M  V30 43363 C 1319.66 -5.81037 5.05421 0
M  V30 43364 C 1318.93 -4.78366 5.89277 0
M  V30 43365 O 1318.72 -3.58302 5.08433 0
M  V30 43366 C 1317.53 -5.17448 6.36119 0
M  V30 43367 O 1317.14 -4.45271 7.53232 0
M  V30 43368 C 1316.65 -4.74639 5.19936 0
M  V30 43369 C 1317.36 -3.49432 4.70418 0
M  V30 43370 N 1317.31 -3.32099 3.22613 0
M  V30 43371 H 1320.15 -6.54213 5.71376 0
M  V30 43372 H 1320.42 -5.30936 4.43503 0
M  V30 43373 H 1319.56 -4.55889 6.76652 0
M  V30 43374 H 1316.9 -2.61715 5.17932 0
M  V30 43375 H 1316.62 -5.52155 4.41878 0
M  V30 43376 H 1315.63 -4.51981 5.53374 0
M  V30 43377 H 1317.46 -6.25124 6.55234 0
M  V30 43378 P 1315.59 -4.23843 7.83734 0
M  V30 43379 O 1315.37 -4.19407 9.29784 0
M  V30 43380 O 1314.8 -5.24426 7.09156 0
M  V30 43381 O 1315.34 -2.7935 7.20758 0
M  V30 43382 C 1316.28 -1.7299 7.50419 0
M  V30 43383 C 1315.55 -0.406376 7.57911 0
M  V30 43384 O 1315.34 0.0897726 6.21935 0
M  V30 43385 C 1314.15 -0.447224 8.1878 0
M  V30 43386 O 1313.76 0.825065 8.71101 0
M  V30 43387 C 1313.27 -0.783801 6.99623 0
M  V30 43388 C 1313.98 -0.0619192 5.85967 0
M  V30 43389 N 1313.93 -0.7859 4.56281 0
M  V30 43390 H 1316.77 -1.93423 8.4679 0
M  V30 43391 H 1317.04 -1.68181 6.71046 0
M  V30 43392 H 1316.18 0.289041 8.15388 0
M  V30 43393 P 1312.21 1.17771 8.83182 0
M  V30 43394 O 1311.99 2.07206 9.98732 0
M  V30 43395 O 1311.42 -0.0743816 8.81969 0
M  V30 43396 O 1311.96 1.97652 7.47304 0
M  V30 43397 C 1312.9 3.01133 7.08783 0
M  V30 43398 C 1312.17 4.12613 6.37049 0
M  V30 43399 O 1311.96 3.72827 4.97879 0
M  V30 43400 C 1310.77 4.45085 6.88694 0
M  V30 43401 O 1310.38 5.7877 6.5624 0
M  V30 43402 C 1309.89 3.47817 6.12078 0
M  V30 43403 C 1310.6 3.39414 4.77697 0
M  V30 43404 N 1310.55 2.04615 4.15333 0
M  V30 43405 H 1313.39 3.41248 7.98759 0
M  V30 43406 H 1313.66 2.5837 6.41742 0
M  V30 43407 H 1312.8 5.02657 6.42673 0
M  V30 43408 P 1308.83 6.144 6.45285 0
M  V30 43409 O 1308.61 7.54673 6.86199 0
M  V30 43410 O 1308.04 5.12391 7.179 0
M  V30 43411 O 1308.58 5.99158 4.88404 0
M  V30 43412 C 1309.52 6.60062 3.96313 0
M  V30 43413 C 1308.79 7.08259 2.72856 0
M  V30 43414 O 1308.58 5.9427 1.83651 0
M  V30 43415 C 1307.39 7.65087 2.94749 0
M  V30 43416 O 1307 8.53963 1.90717 0
M  V30 43417 C 1306.51 6.41069 2.90698 0
M  V30 43418 C 1307.22 5.5528 1.86931 0
M  V30 43419 N 1307.17 4.09575 2.15696 0
M  V30 43420 C 1307.02 3.24249 1.08435 0
M  V30 43421 O 1306.93 3.63946 -0.0628747 0
M  V30 43422 N 1306.98 1.90009 1.39973 0
M  V30 43423 C 1307.07 1.34884 2.65614 0
M  V30 43424 C 1307.22 2.3145 3.71736 0
M  V30 43425 C 1307.27 3.63518 3.44754 0
M  V30 43426 H 1310.01 7.45402 4.45526 0
M  V30 43427 H 1310.28 5.86062 3.67208 0
M  V30 43428 H 1309.42 7.84412 2.24479 0
M  V30 43429 H 1306.76 5.73358 0.888409 0
M  V30 43430 H 1306.48 5.90877 3.88583 0
M  V30 43431 H 1305.49 6.65867 2.58821 0
M  V30 43432 H 1307.32 8.16248 3.92006 0
M  V30 43433 H 1307.39 4.34551 4.26383 0
M  V30 43434 P 1305.45 8.7635 1.60911 0
M  V30 43435 O 1305.23 10.1388 1.11561 0
M  V30 43436 O 1304.66 8.36503 2.79617 0
M  V30 43437 O 1305.2 7.71806 0.42951 0
M  V30 43438 C 1306.14 7.67148 -0.673689 0
M  V30 43439 C 1305.41 7.33374 -1.95559 0
M  V30 43440 O 1305.2 5.88721 -2.00726 0
M  V30 43441 C 1304.01 7.92526 -2.10483 0
M  V30 43442 O 1303.62 8.02971 -3.47653 0
M  V30 43443 C 1303.13 6.89602 -1.41652 0
M  V30 43444 C 1303.84 5.59201 -1.75185 0
M  V30 43445 N 1303.79 4.58235 -0.662552 0
M  V30 43446 H 1306.63 8.65116 -0.777161 0
M  V30 43447 H 1306.9 6.90173 -0.474152 0
M  V30 43448 H 1306.04 7.66548 -2.79458 0
M  V30 43449 P 1302.07 8.03563 -3.84925 0
M  V30 43450 O 1301.85 8.85821 -5.0569 0
M  V30 43451 O 1301.28 8.41101 -2.65469 0
M  V30 43452 O 1301.82 6.4965 -4.18908 0
M  V30 43453 C 1302.76 5.80886 -5.05289 0
M  V30 43454 C 1302.03 4.78366 -5.89277 0
M  V30 43455 O 1301.82 3.58302 -5.08433 0
M  V30 43456 C 1300.63 5.16748 -6.36559 0
M  V30 43457 O 1300.24 4.45271 -7.53232 0
M  V30 43458 C 1299.75 4.74572 -5.19863 0
M  V30 43459 C 1300.46 3.49373 -4.70338 0
M  V30 43460 N 1300.41 3.31704 -3.22876 0
M  V30 43461 C 1300.26 2.03326 -2.74871 0
M  V30 43462 O 1300.17 1.06486 -3.48076 0
M  V30 43463 N 1300.22 1.91838 -1.37456 0
M  V30 43464 C 1300.31 2.94295 -0.462035 0
M  V30 43465 O 1300.26 2.71763 0.752928 0
M  V30 43466 C 1300.46 4.25064 -1.05249 0
M  V30 43467 C 1300.57 5.39815 -0.095697 0
M  V30 43468 C 1300.51 4.40214 -2.39192 0
M  V30 43469 H 1303.25 6.54063 -5.71245 0
M  V30 43470 H 1303.52 5.30339 -4.43905 0
M  V30 43471 H 1302.66 4.55889 -6.76652 0
M  V30 43472 H 1300 2.6167 -5.17842 0
M  V30 43473 H 1299.72 5.52155 -4.41878 0
M  V30 43474 H 1298.73 4.51918 -5.53297 0
M  V30 43475 H 1300.56 6.25055 -6.55162 0
M  V30 43476 H 1300.63 5.39798 -2.81523 0
M  V30 43477 H 1299.6 5.91593 -0.0279582 0
M  V30 43478 H 1301.34 6.10038 -0.450573 0
M  V30 43479 H 1300.85 5.02007 0.89937 0
M  V30 43480 H 1300.12 0.995326 -1.00435 0
M  V30 43481 P 1298.69 4.23843 -7.83734 0
M  V30 43482 O 1298.47 4.19407 -9.29784 0
M  V30 43483 O 1297.9 5.24426 -7.09156 0
M  V30 43484 O 1298.44 2.7935 -7.20758 0
M  V30 43485 C 1299.38 1.7299 -7.50419 0
M  V30 43486 C 1298.65 0.406376 -7.57911 0
M  V30 43487 O 1298.44 -0.0897726 -6.21935 0
M  V30 43488 C 1297.25 0.447224 -8.1878 0
M  V30 43489 O 1296.86 -0.825065 -8.71101 0
M  V30 43490 C 1296.37 0.783801 -6.99623 0
M  V30 43491 C 1297.08 0.0619192 -5.85967 0
M  V30 43492 N 1297.03 0.7859 -4.56281 0
M  V30 43493 H 1299.87 1.93423 -8.4679 0
M  V30 43494 H 1300.14 1.68181 -6.71046 0
M  V30 43495 H 1299.28 -0.289041 -8.15388 0
M  V30 43496 P 1295.31 -1.17771 -8.83182 0
M  V30 43497 O 1295.09 -2.07206 -9.98732 0
M  V30 43498 O 1294.52 0.0743816 -8.81969 0
M  V30 43499 O 1295.06 -1.97652 -7.47304 0
M  V30 43500 C 1296 -3.01133 -7.08783 0
M  V30 43501 C 1295.27 -4.12613 -6.37049 0
M  V30 43502 O 1295.06 -3.72827 -4.97879 0
M  V30 43503 C 1293.87 -4.45085 -6.88694 0
M  V30 43504 O 1293.48 -5.7877 -6.5624 0
M  V30 43505 C 1292.99 -3.47817 -6.12078 0
M  V30 43506 C 1293.7 -3.39414 -4.77697 0
M  V30 43507 N 1293.65 -2.04615 -4.15333 0
M  V30 43508 H 1296.49 -3.41248 -7.98759 0
M  V30 43509 H 1296.76 -2.5837 -6.41742 0
M  V30 43510 H 1295.9 -5.02657 -6.42673 0
M  V30 43511 P 1291.93 -6.144 -6.45285 0
M  V30 43512 O 1291.71 -7.54673 -6.86199 0
M  V30 43513 O 1291.14 -5.12391 -7.179 0
M  V30 43514 O 1291.68 -5.99158 -4.88404 0
M  V30 43515 C 1292.62 -6.60234 -3.96415 0
M  V30 43516 C 1291.89 -7.08259 -2.72856 0
M  V30 43517 O 1291.68 -5.9427 -1.83651 0
M  V30 43518 C 1290.49 -7.64886 -2.9555 0
M  V30 43519 O 1290.1 -8.53963 -1.90717 0
M  V30 43520 C 1289.61 -6.4116 -2.90739 0
M  V30 43521 C 1290.32 -5.55375 -1.86963 0
M  V30 43522 N 1290.27 -4.09664 -2.15742 0
M  V30 43523 H 1293.11 -7.45574 -4.45629 0
M  V30 43524 H 1293.38 -5.86232 -3.67314 0
M  V30 43525 H 1292.52 -7.84412 -2.24479 0
M  V30 43526 P 1288.55 -8.7635 -1.60911 0
M  V30 43527 O 1288.33 -10.1388 -1.11561 0
M  V30 43528 O 1287.76 -8.36503 -2.79617 0
M  V30 43529 O 1288.3 -7.71806 -0.42951 0
M  V30 43530 C 1289.24 -7.66948 0.673514 0
M  V30 43531 C 1288.51 -7.33374 1.95559 0
M  V30 43532 O 1288.3 -5.88721 2.00726 0
M  V30 43533 C 1287.11 -7.92218 2.1125 0
M  V30 43534 O 1286.72 -8.02971 3.47653 0
M  V30 43535 C 1286.23 -6.89504 1.41631 0
M  V30 43536 C 1286.94 -5.59106 1.75155 0
M  V30 43537 N 1286.89 -4.58136 0.662409 0
M  V30 43538 C 1286.74 -3.26059 1.02863 0
M  V30 43539 O 1286.65 -2.90743 2.19009 0
M  V30 43540 N 1286.7 -2.35995 -0.0155585 0
M  V30 43541 C 1286.79 -2.65248 -1.35603 0
M  V30 43542 O 1286.74 -1.75605 -2.20651 0
M  V30 43543 C 1286.94 -4.05747 -1.64698 0
M  V30 43544 C 1287.05 -4.42345 -3.09553 0
M  V30 43545 C 1286.99 -4.96734 -0.652411 0
M  V30 43546 H 1289.73 -8.64917 0.776982 0
M  V30 43547 H 1290 -6.89974 0.474015 0
M  V30 43548 H 1289.14 -7.66548 2.79458 0
M  V30 43549 H 1286.48 -5.16076 2.65138 0
M  V30 43550 H 1286.2 -7.06433 0.329384 0
M  V30 43551 H 1285.21 -6.90829 1.81996 0
M  V30 43552 H 1287.04 -8.90774 1.62639 0
M  V30 43553 H 1287.11 -6.02181 -0.895285 0
M  V30 43554 H 1286.08 -4.80252 -3.45468 0
M  V30 43555 H 1287.82 -5.20015 -3.22119 0
M  V30 43556 H 1287.33 -3.53269 -3.67833 0
M  V30 43557 H 1286.6 -1.39558 0.227499 0
M  V30 43558 P 1285.17 -8.03563 3.84925 0
M  V30 43559 O 1284.95 -8.85821 5.0569 0
M  V30 43560 O 1284.38 -8.41101 2.65469 0
M  V30 43561 O 1284.92 -6.4965 4.18908 0
M  V30 43562 C 1285.86 -5.81037 5.05421 0
M  V30 43563 C 1285.13 -4.78366 5.89277 0
M  V30 43564 O 1284.92 -3.58302 5.08433 0
M  V30 43565 C 1283.73 -5.17448 6.36119 0
M  V30 43566 O 1283.34 -4.45271 7.53232 0
M  V30 43567 C 1282.85 -4.74639 5.19936 0
M  V30 43568 C 1283.56 -3.49432 4.70418 0
M  V30 43569 N 1283.51 -3.31776 3.22945 0
M  V30 43570 H 1286.35 -6.54213 5.71376 0
M  V30 43571 H 1286.62 -5.30492 4.44033 0
M  V30 43572 H 1285.76 -4.55889 6.76652 0
M  V30 43573 P 1281.79 -4.23843 7.83734 0
M  V30 43574 O 1281.57 -4.19407 9.29784 0
M  V30 43575 O 1281 -5.24426 7.09156 0
M  V30 43576 O 1281.54 -2.7935 7.20758 0
M  V30 43577 C 1282.48 -1.7299 7.50419 0
M  V30 43578 C 1281.75 -0.406376 7.57911 0
M  V30 43579 O 1281.54 0.0897726 6.21935 0
M  V30 43580 C 1280.35 -0.447224 8.1878 0
M  V30 43581 O 1279.96 0.825065 8.71101 0
M  V30 43582 C 1279.47 -0.783801 6.99623 0
M  V30 43583 C 1280.18 -0.0619192 5.85967 0
M  V30 43584 N 1280.13 -0.7859 4.56281 0
M  V30 43585 H 1282.97 -1.93423 8.4679 0
M  V30 43586 H 1283.24 -1.68181 6.71046 0
M  V30 43587 H 1282.38 0.289041 8.15388 0
M  V30 43588 P 1278.41 1.17771 8.83182 0
M  V30 43589 O 1278.19 2.07206 9.98732 0
M  V30 43590 O 1277.62 -0.0743816 8.81969 0
M  V30 43591 O 1278.16 1.97652 7.47304 0
M  V30 43592 C 1279.1 3.01133 7.08783 0
M  V30 43593 C 1278.37 4.12613 6.37049 0
M  V30 43594 O 1278.16 3.72827 4.97879 0
M  V30 43595 C 1276.97 4.45085 6.88694 0
M  V30 43596 O 1276.58 5.7877 6.5624 0
M  V30 43597 C 1276.09 3.47817 6.12078 0
M  V30 43598 C 1276.8 3.39414 4.77697 0
M  V30 43599 N 1276.75 2.04199 4.15538 0
M  V30 43600 H 1279.59 3.41248 7.98759 0
M  V30 43601 H 1279.86 2.57728 6.42 0
M  V30 43602 H 1279 5.02657 6.42673 0
M  V30 43603 H 1276.34 4.11708 4.08956 0
M  V30 43604 H 1276.06 2.49626 6.61679 0
M  V30 43605 H 1275.07 3.8662 6.00862 0
M  V30 43606 H 1276.9 4.29991 7.97006 0
M  V30 43607 P 1275.03 6.144 6.45285 0
M  V30 43608 O 1274.81 7.54673 6.86199 0
M  V30 43609 O 1274.24 5.12391 7.179 0
M  V30 43610 O 1274.78 5.99158 4.88404 0
M  V30 43611 C 1275.72 6.60234 3.96415 0
M  V30 43612 C 1274.99 7.08259 2.72856 0
M  V30 43613 O 1274.78 5.9427 1.83651 0
M  V30 43614 C 1273.59 7.64886 2.9555 0
M  V30 43615 O 1273.2 8.53963 1.90717 0
M  V30 43616 C 1272.71 6.4116 2.90739 0
M  V30 43617 C 1273.42 5.55375 1.86963 0
M  V30 43618 N 1273.37 4.09664 2.15742 0
M  V30 43619 H 1276.21 7.45574 4.45629 0
M  V30 43620 H 1276.48 5.86232 3.67314 0
M  V30 43621 H 1275.62 7.84412 2.24479 0
M  V30 43622 P 1271.65 8.7635 1.60911 0
M  V30 43623 O 1271.43 10.1388 1.11561 0
M  V30 43624 O 1270.86 8.36503 2.79617 0
M  V30 43625 O 1271.4 7.71906 0.429565 0
M  V30 43626 C 1272.34 7.67148 -0.673689 0
M  V30 43627 C 1271.61 7.33666 -1.94851 0
M  V30 43628 O 1271.4 5.88816 -2.00759 0
M  V30 43629 C 1270.21 7.92526 -2.10483 0
M  V30 43630 O 1269.82 8.03063 -3.47693 0
M  V30 43631 C 1269.33 6.89602 -1.41652 0
M  V30 43632 C 1270.04 5.59201 -1.75185 0
M  V30 43633 N 1269.99 4.58235 -0.662552 0
M  V30 43634 C 1269.84 3.24451 -1.01643 0
M  V30 43635 O 1269.75 2.94958 -2.21722 0
M  V30 43636 N 1269.79 2.30408 0.165238 0
M  V30 43637 C 1269.89 2.66048 1.25118 0
M  V30 43638 N 1269.84 1.70787 2.16813 0
M  V30 43639 C 1270.04 4.02732 1.64413 0
M  V30 43640 C 1270.09 4.9488 0.63991 0
M  V30 43641 H 1272.83 8.65017 -0.777072 0
M  V30 43642 H 1273.1 6.90173 -0.474152 0
M  V30 43643 H 1272.24 7.66642 -2.79492 0
M  V30 43644 H 1269.58 5.16254 -2.65229 0
M  V30 43645 H 1269.3 7.06532 -0.329431 0
M  V30 43646 H 1268.31 6.91023 -1.82047 0
M  V30 43647 H 1270.14 8.90873 -1.62657 0
M  V30 43648 H 1270.22 6.00104 0.892197 0
M  V30 43649 H 1270.11 4.31733 2.69229 0
M  V30 43650 H 1269.73 0.724835 1.8844 0
M  V30 43651 H 1269.92 1.94716 3.16734 0
M  V30 43652 P 1268.27 8.03563 -3.84925 0
M  V30 43653 O 1268.05 8.85821 -5.0569 0
M  V30 43654 O 1267.48 8.41101 -2.65469 0
M  V30 43655 O 1268.02 6.49734 -4.18962 0
M  V30 43656 C 1268.96 5.81037 -5.05421 0
M  V30 43657 C 1268.23 4.79018 -5.88876 0
M  V30 43658 O 1268.02 3.58359 -5.08515 0
M  V30 43659 C 1266.83 5.17448 -6.36119 0
M  V30 43660 O 1266.44 4.45322 -7.53318 0
M  V30 43661 C 1265.95 4.74639 -5.19936 0
M  V30 43662 C 1266.66 3.49432 -4.70418 0
M  V30 43663 N 1266.61 3.31776 -3.22945 0
M  V30 43664 C 1266.46 2.02742 -2.72939 0
M  V30 43665 O 1266.37 1.08301 -3.52749 0
M  V30 43666 N 1266.41 1.96117 -1.22063 0
M  V30 43667 C 1266.51 2.8878 -0.551566 0
M  V30 43668 N 1266.46 2.65609 0.750198 0
M  V30 43669 C 1266.66 4.22457 -1.03707 0
M  V30 43670 C 1266.71 4.37979 -2.39113 0
M  V30 43671 H 1269.45 6.54138 -5.7131 0
M  V30 43672 H 1269.72 5.30492 -4.44033 0
M  V30 43673 H 1268.86 4.55945 -6.76735 0
M  V30 43674 H 1266.2 2.6176 -5.18021 0
M  V30 43675 H 1265.92 5.52233 -4.41941 0
M  V30 43676 H 1264.93 4.52045 -5.53452 0
M  V30 43677 H 1266.76 6.25124 -6.55234 0
M  V30 43678 H 1266.84 5.37936 -2.80552 0
M  V30 43679 H 1266.73 5.07528 -0.359553 0
M  V30 43680 H 1266.35 1.69403 1.09847 0
M  V30 43681 H 1266.54 3.43701 1.41792 0
M  V30 43682 P 1264.89 4.23843 -7.83734 0
M  V30 43683 O 1264.67 4.19407 -9.29784 0
M  V30 43684 O 1264.1 5.24426 -7.09156 0
M  V30 43685 O 1264.64 2.7935 -7.20758 0
M  V30 43686 C 1265.58 1.72945 -7.50224 0
M  V30 43687 C 1264.85 0.406376 -7.57911 0
M  V30 43688 O 1264.64 -0.0897726 -6.21935 0
M  V30 43689 C 1263.45 0.438983 -8.18724 0
M  V30 43690 O 1263.06 -0.825065 -8.71101 0
M  V30 43691 C 1262.57 0.783689 -6.99524 0
M  V30 43692 C 1263.28 0.0619086 -5.85867 0
M  V30 43693 N 1263.23 0.78573 -4.56183 0
M  V30 43694 C 1263.08 0.0292889 -3.41887 0
M  V30 43695 O 1262.99 -1.18445 -3.4419 0
M  V30 43696 N 1263.04 0.744061 -2.23964 0
M  V30 43697 C 1263.13 2.10932 -2.10362 0
M  V30 43698 O 1263.08 2.64117 -0.98825 0
M  V30 43699 C 1263.28 2.8202 -3.34994 0
M  V30 43700 C 1263.39 4.31095 -3.25037 0
M  V30 43701 C 1263.33 2.15547 -4.52261 0
M  V30 43702 H 1266.07 1.93379 -8.46595 0
M  V30 43703 H 1266.34 1.68132 -6.70852 0
M  V30 43704 H 1265.48 -0.289041 -8.15388 0
M  V30 43705 H 1262.82 -0.926847 -5.72749 0
M  V30 43706 H 1262.54 1.86973 -6.82036 0
M  V30 43707 H 1261.55 0.403896 -7.13257 0
M  V30 43708 H 1263.38 1.20585 -8.97435 0
M  V30 43709 H 1263.45 2.71231 -5.45042 0
M  V30 43710 H 1262.42 4.76966 -3.49992 0
M  V30 43711 H 1264.16 4.67047 -3.95024 0
M  V30 43712 H 1263.67 4.58996 -2.22312 0
M  V30 43713 H 1262.94 0.214893 -1.39758 0
M  V30 43714 P 1261.51 -1.17771 -8.83182 0
M  V30 43715 O 1261.29 -2.07206 -9.98732 0
M  V30 43716 O 1260.72 0.0743816 -8.81969 0
M  V30 43717 O 1261.26 -1.97652 -7.47304 0
M  V30 43718 C 1262.2 -3.01133 -7.08783 0
M  V30 43719 C 1261.47 -4.12613 -6.37049 0
M  V30 43720 O 1261.26 -3.72827 -4.97879 0
M  V30 43721 C 1260.07 -4.45085 -6.88694 0
M  V30 43722 O 1259.68 -5.7877 -6.5624 0
M  V30 43723 C 1259.19 -3.47817 -6.12078 0
M  V30 43724 C 1259.9 -3.39414 -4.77697 0
M  V30 43725 N 1259.85 -2.04199 -4.15538 0
M  V30 43726 H 1262.69 -3.41248 -7.98759 0
M  V30 43727 H 1262.96 -2.57728 -6.42 0
M  V30 43728 H 1262.1 -5.02657 -6.42673 0
M  V30 43729 H 1259.44 -4.11708 -4.08956 0
M  V30 43730 H 1259.16 -2.49626 -6.61679 0
M  V30 43731 H 1258.17 -3.8662 -6.00862 0
M  V30 43732 H 1260 -4.29991 -7.97006 0
M  V30 43733 P 1258.13 -6.144 -6.45285 0
M  V30 43734 O 1257.91 -7.54673 -6.86199 0
M  V30 43735 O 1257.34 -5.12391 -7.179 0
M  V30 43736 O 1257.88 -5.99158 -4.88404 0
M  V30 43737 C 1258.82 -6.60234 -3.96415 0
M  V30 43738 C 1258.09 -7.08259 -2.72856 0
M  V30 43739 O 1257.88 -5.9427 -1.83651 0
M  V30 43740 C 1256.69 -7.64886 -2.9555 0
M  V30 43741 O 1256.3 -8.53963 -1.90717 0
M  V30 43742 C 1255.81 -6.4116 -2.90739 0
M  V30 43743 C 1256.52 -5.55375 -1.86963 0
M  V30 43744 N 1256.47 -4.09664 -2.15742 0
M  V30 43745 C 1256.55 -3.44381 -3.37233 0
M  V30 43746 N 1256.47 -2.14131 -3.28347 0
M  V30 43747 C 1256.33 -1.90247 -1.91588 0
M  V30 43748 C 1256.2 -0.683992 -1.20892 0
M  V30 43749 O 1256.18 0.46618 -1.64523 0
M  V30 43750 N 1256.08 -0.903396 0.173998 0
M  V30 43751 C 1256.08 -2.14171 0.784879 0
M  V30 43752 N 1255.95 -2.1435 2.11317 0
M  V30 43753 N 1256.21 -3.28784 0.119316 0
M  V30 43754 C 1256.33 -3.0977 -1.22194 0
M  V30 43755 H 1259.31 -7.45574 -4.45629 0
M  V30 43756 H 1259.58 -5.86232 -3.67314 0
M  V30 43757 H 1258.72 -7.84412 -2.24479 0
M  V30 43758 H 1256.06 -5.73556 -0.888715 0
M  V30 43759 H 1255.78 -5.9096 -3.88638 0
M  V30 43760 H 1254.79 -6.66053 -2.58894 0
M  V30 43761 H 1256.62 -8.16429 -3.92093 0
M  V30 43762 H 1256.67 -3.96785 -4.32043 0
M  V30 43763 H 1255.99 -0.0999567 0.761467 0
M  V30 43764 H 1255.95 -3.03436 2.63076 0
M  V30 43765 H 1255.85 -1.25228 2.62233 0
M  V30 43766 P 1254.75 -8.7635 -1.60911 0
M  V30 43767 O 1254.53 -10.1388 -1.11561 0
M  V30 43768 O 1253.96 -8.36503 -2.79617 0
M  V30 43769 O 1254.5 -7.71806 -0.42951 0
M  V30 43770 C 1255.44 -7.67148 0.673689 0
M  V30 43771 C 1254.71 -7.33374 1.95559 0
M  V30 43772 O 1254.5 -5.88721 2.00726 0
M  V30 43773 C 1253.31 -7.92526 2.10483 0
M  V30 43774 O 1252.92 -8.02971 3.47653 0
M  V30 43775 C 1252.43 -6.89602 1.41652 0
M  V30 43776 C 1253.14 -5.59201 1.75185 0
M  V30 43777 N 1253.09 -4.58235 0.662552 0
M  V30 43778 H 1255.93 -8.65116 0.777161 0
M  V30 43779 H 1256.2 -6.90173 0.474152 0
M  V30 43780 H 1255.34 -7.66548 2.79458 0
M  V30 43781 P 1251.37 -8.03563 3.84925 0
M  V30 43782 O 1251.15 -8.85821 5.0569 0
M  V30 43783 O 1250.58 -8.41101 2.65469 0
M  V30 43784 O 1251.12 -6.4965 4.18908 0
M  V30 43785 C 1252.06 -5.81037 5.05421 0
M  V30 43786 C 1251.33 -4.78366 5.89277 0
M  V30 43787 O 1251.12 -3.58302 5.08433 0
M  V30 43788 C 1249.93 -5.17448 6.36119 0
M  V30 43789 O 1249.54 -4.45271 7.53232 0
M  V30 43790 C 1249.05 -4.74639 5.19936 0
M  V30 43791 C 1249.76 -3.49432 4.70418 0
M  V30 43792 N 1249.71 -3.31776 3.22945 0
M  V30 43793 H 1252.55 -6.54213 5.71376 0
M  V30 43794 H 1252.82 -5.30492 4.44033 0
M  V30 43795 H 1251.96 -4.55889 6.76652 0
M  V30 43796 P 1247.99 -4.23843 7.83734 0
M  V30 43797 O 1247.77 -4.19407 9.29784 0
M  V30 43798 O 1247.2 -5.24426 7.09156 0
M  V30 43799 O 1247.74 -2.7935 7.20758 0
M  V30 43800 C 1248.68 -1.7299 7.50419 0
M  V30 43801 C 1247.95 -0.406376 7.57911 0
M  V30 43802 O 1247.74 0.0897726 6.21935 0
M  V30 43803 C 1246.55 -0.447224 8.1878 0
M  V30 43804 O 1246.16 0.825065 8.71101 0
M  V30 43805 C 1245.67 -0.783801 6.99623 0
M  V30 43806 C 1246.38 -0.0619192 5.85967 0
M  V30 43807 N 1246.33 -0.790462 4.56202 0
M  V30 43808 H 1249.17 -1.93423 8.4679 0
M  V30 43809 H 1249.44 -1.68852 6.70877 0
M  V30 43810 H 1248.58 0.289041 8.15388 0
M  V30 43811 H 1245.92 0.927006 5.72848 0
M  V30 43812 H 1245.64 -1.86973 6.82036 0
M  V30 43813 H 1244.65 -0.403953 7.13357 0
M  V30 43814 H 1246.48 -1.20599 8.97534 0
M  V30 43815 P 1244.61 1.17771 8.83182 0
M  V30 43816 O 1244.39 2.07206 9.98732 0
M  V30 43817 O 1243.82 -0.0743816 8.81969 0
M  V30 43818 O 1244.36 1.97652 7.47304 0
M  V30 43819 C 1245.3 3.01133 7.08783 0
M  V30 43820 C 1244.57 4.12613 6.37049 0
M  V30 43821 O 1244.36 3.72827 4.97879 0
M  V30 43822 C 1243.17 4.45085 6.88694 0
M  V30 43823 O 1242.78 5.7877 6.5624 0
M  V30 43824 C 1242.29 3.47817 6.12078 0
M  V30 43825 C 1243 3.39414 4.77697 0
M  V30 43826 N 1242.95 2.04615 4.15333 0
M  V30 43827 H 1245.79 3.41248 7.98759 0
M  V30 43828 H 1246.06 2.5837 6.41742 0
M  V30 43829 H 1245.2 5.02657 6.42673 0
M  V30 43830 P 1241.23 6.144 6.45285 0
M  V30 43831 O 1241.01 7.54673 6.86199 0
M  V30 43832 O 1240.44 5.12391 7.179 0
M  V30 43833 O 1240.98 5.99158 4.88404 0
M  V30 43834 C 1241.92 6.60234 3.96415 0
M  V30 43835 C 1241.19 7.08259 2.72856 0
M  V30 43836 O 1240.98 5.9427 1.83651 0
M  V30 43837 C 1239.79 7.64886 2.9555 0
M  V30 43838 O 1239.4 8.53963 1.90717 0
M  V30 43839 C 1238.91 6.4116 2.90739 0
M  V30 43840 C 1239.62 5.55375 1.86963 0
M  V30 43841 N 1239.57 4.09664 2.15742 0
M  V30 43842 C 1239.65 3.44381 3.37233 0
M  V30 43843 N 1239.57 2.14131 3.28347 0
M  V30 43844 C 1239.43 1.90247 1.91588 0
M  V30 43845 C 1239.3 0.683992 1.20892 0
M  V30 43846 O 1239.28 -0.46618 1.64523 0
M  V30 43847 N 1239.18 0.903396 -0.173998 0
M  V30 43848 C 1239.18 2.14171 -0.784879 0
M  V30 43849 N 1239.05 2.1435 -2.11317 0
M  V30 43850 N 1239.31 3.28784 -0.119316 0
M  V30 43851 C 1239.43 3.0977 1.22194 0
M  V30 43852 H 1242.41 7.45574 4.45629 0
M  V30 43853 H 1242.68 5.86232 3.67314 0
M  V30 43854 H 1241.82 7.84412 2.24479 0
M  V30 43855 H 1239.16 5.73556 0.888715 0
M  V30 43856 H 1238.88 5.9096 3.88638 0
M  V30 43857 H 1237.89 6.66053 2.58894 0
M  V30 43858 H 1239.72 8.16429 3.92093 0
M  V30 43859 H 1239.77 3.96785 4.32043 0
M  V30 43860 H 1239.09 0.0999567 -0.761467 0
M  V30 43861 H 1239.05 3.03436 -2.63076 0
M  V30 43862 H 1238.95 1.25228 -2.62233 0
M  V30 43863 P 1237.85 8.7635 1.60911 0
M  V30 43864 O 1237.63 10.1388 1.11561 0
M  V30 43865 O 1237.06 8.36503 2.79617 0
M  V30 43866 O 1237.6 7.71806 0.42951 0
M  V30 43867 C 1238.54 7.67148 -0.673689 0
M  V30 43868 C 1237.81 7.33374 -1.95559 0
M  V30 43869 O 1237.6 5.88721 -2.00726 0
M  V30 43870 C 1236.41 7.92526 -2.10483 0
M  V30 43871 O 1236.02 8.02971 -3.47653 0
M  V30 43872 C 1235.53 6.89602 -1.41652 0
M  V30 43873 C 1236.24 5.59201 -1.75185 0
M  V30 43874 N 1236.19 4.58235 -0.662552 0
M  V30 43875 H 1239.03 8.65116 -0.777161 0
M  V30 43876 H 1239.3 6.90173 -0.474152 0
M  V30 43877 H 1238.44 7.66548 -2.79458 0
M  V30 43878 P 1234.47 8.03563 -3.84925 0
M  V30 43879 O 1234.25 8.85821 -5.0569 0
M  V30 43880 O 1233.68 8.41101 -2.65469 0
M  V30 43881 O 1234.22 6.4965 -4.18908 0
M  V30 43882 C 1235.16 5.81037 -5.05421 0
M  V30 43883 C 1234.43 4.78366 -5.89277 0
M  V30 43884 O 1234.22 3.58302 -5.08433 0
M  V30 43885 C 1233.03 5.17448 -6.36119 0
M  V30 43886 O 1232.64 4.45271 -7.53232 0
M  V30 43887 C 1232.15 4.74639 -5.19936 0
M  V30 43888 C 1232.86 3.49432 -4.70418 0
M  V30 43889 N 1232.81 3.31776 -3.22945 0
M  V30 43890 H 1235.65 6.54213 -5.71376 0
M  V30 43891 H 1235.92 5.30492 -4.44033 0
M  V30 43892 H 1235.06 4.55889 -6.76652 0
M  V30 43893 P 1231.09 4.23843 -7.83734 0
M  V30 43894 O 1230.87 4.19407 -9.29784 0
M  V30 43895 O 1230.3 5.24426 -7.09156 0
M  V30 43896 O 1230.84 2.7935 -7.20758 0
M  V30 43897 C 1231.78 1.7299 -7.50419 0
M  V30 43898 C 1231.05 0.406376 -7.57911 0
M  V30 43899 O 1230.84 -0.0897726 -6.21935 0
M  V30 43900 C 1229.65 0.447224 -8.1878 0
M  V30 43901 O 1229.26 -0.825065 -8.71101 0
M  V30 43902 C 1228.77 0.783801 -6.99623 0
M  V30 43903 C 1229.48 0.0619192 -5.85967 0
M  V30 43904 N 1229.43 0.790462 -4.56202 0
M  V30 43905 H 1232.27 1.93423 -8.4679 0
M  V30 43906 H 1232.54 1.68852 -6.70877 0
M  V30 43907 H 1231.68 -0.289041 -8.15388 0
M  V30 43908 H 1229.02 -0.927006 -5.72848 0
M  V30 43909 H 1228.74 1.86973 -6.82036 0
M  V30 43910 H 1227.75 0.403953 -7.13357 0
M  V30 43911 H 1229.58 1.20599 -8.97534 0
M  V30 43912 P 1227.71 -1.17771 -8.83182 0
M  V30 43913 O 1227.49 -2.07206 -9.98732 0
M  V30 43914 O 1226.92 0.0743816 -8.81969 0
M  V30 43915 O 1227.46 -1.97652 -7.47304 0
M  V30 43916 C 1228.4 -3.01133 -7.08783 0
M  V30 43917 C 1227.67 -4.12613 -6.37049 0
M  V30 43918 O 1227.46 -3.72827 -4.97879 0
M  V30 43919 C 1226.27 -4.45085 -6.88694 0
M  V30 43920 O 1225.88 -5.7877 -6.5624 0
M  V30 43921 C 1225.39 -3.47817 -6.12078 0
M  V30 43922 C 1226.1 -3.39414 -4.77697 0
M  V30 43923 N 1226.05 -2.04615 -4.15333 0
M  V30 43924 C 1226.13 -0.803897 -4.75249 0
M  V30 43925 N 1226.05 0.197615 -3.91502 0
M  V30 43926 C 1225.91 -0.413002 -2.66823 0
M  V30 43927 C 1225.78 0.157221 -1.38007 0
M  V30 43928 N 1225.66 -0.833136 -0.390236 0
M  V30 43929 C 1225.66 -2.19402 -0.623885 0
M  V30 43930 N 1225.53 -2.97622 0.449677 0
M  V30 43931 N 1225.79 -2.73005 -1.83601 0
M  V30 43932 C 1225.91 -1.78786 -2.80935 0
M  V30 43933 H 1228.89 -3.41248 -7.98759 0
M  V30 43934 H 1229.16 -2.5837 -6.41742 0
M  V30 43935 H 1228.3 -5.02657 -6.42673 0
M  V30 43936 P 1224.33 -6.144 -6.45285 0
M  V30 43937 O 1224.11 -7.54673 -6.86199 0
M  V30 43938 O 1223.54 -5.12391 -7.179 0
M  V30 43939 O 1224.08 -5.99158 -4.88404 0
M  V30 43940 C 1225.02 -6.60062 -3.96313 0
M  V30 43941 C 1224.29 -7.08259 -2.72856 0
M  V30 43942 O 1224.08 -5.9427 -1.83651 0
M  V30 43943 C 1222.89 -7.65087 -2.94749 0
M  V30 43944 O 1222.5 -8.53963 -1.90717 0
M  V30 43945 C 1222.01 -6.41069 -2.90698 0
M  V30 43946 C 1222.72 -5.5528 -1.86931 0
M  V30 43947 N 1222.67 -4.09575 -2.15696 0
M  V30 43948 C 1222.52 -3.24249 -1.08435 0
M  V30 43949 O 1222.43 -3.63946 0.0628747 0
M  V30 43950 N 1222.48 -1.90009 -1.39973 0
M  V30 43951 C 1222.57 -1.34884 -2.65614 0
M  V30 43952 O 1222.52 -0.123716 -2.81728 0
M  V30 43953 C 1222.72 -2.3145 -3.71736 0
M  V30 43954 C 1222.83 -1.75913 -5.10438 0
M  V30 43955 C 1222.77 -3.63518 -3.44754 0
M  V30 43956 H 1225.51 -7.45402 -4.45526 0
M  V30 43957 H 1225.78 -5.86062 -3.67208 0
M  V30 43958 H 1224.92 -7.84412 -2.24479 0
M  V30 43959 H 1222.26 -5.73358 -0.888409 0
M  V30 43960 H 1221.98 -5.90877 -3.88583 0
M  V30 43961 H 1220.99 -6.65867 -2.58821 0
M  V30 43962 H 1222.82 -8.16248 -3.92006 0
M  V30 43963 H 1222.89 -4.34551 -4.26383 0
M  V30 43964 H 1221.86 -1.85471 -5.61775 0
M  V30 43965 H 1223.6 -2.31364 -5.66257 0
M  V30 43966 H 1223.11 -0.695936 -5.05229 0
M  V30 43967 H 1222.38 -1.26277 -0.63625 0
M  V30 43968 P 1220.95 -8.7635 -1.60911 0
M  V30 43969 O 1220.73 -10.1388 -1.11561 0
M  V30 43970 O 1220.16 -8.36503 -2.79617 0
M  V30 43971 O 1220.7 -7.71806 -0.42951 0
M  V30 43972 C 1221.64 -7.67148 0.673689 0
M  V30 43973 C 1220.91 -7.33374 1.95559 0
M  V30 43974 O 1220.7 -5.88721 2.00726 0
M  V30 43975 C 1219.51 -7.92526 2.10483 0
M  V30 43976 O 1219.12 -8.02971 3.47653 0
M  V30 43977 C 1218.63 -6.89602 1.41652 0
M  V30 43978 C 1219.34 -5.59201 1.75185 0
M  V30 43979 N 1219.29 -4.58235 0.662552 0
M  V30 43980 H 1222.13 -8.65116 0.777161 0
M  V30 43981 H 1222.4 -6.90173 0.474152 0
M  V30 43982 H 1221.54 -7.66548 2.79458 0
M  V30 43983 P 1217.57 -8.03563 3.84925 0
M  V30 43984 O 1217.35 -8.85821 5.0569 0
M  V30 43985 O 1216.78 -8.41101 2.65469 0
M  V30 43986 O 1217.32 -6.4965 4.18908 0
M  V30 43987 C 1218.26 -5.81037 5.05421 0
M  V30 43988 C 1217.53 -4.78366 5.89277 0
M  V30 43989 O 1217.32 -3.58302 5.08433 0
M  V30 43990 C 1216.13 -5.17448 6.36119 0
M  V30 43991 O 1215.74 -4.45271 7.53232 0
M  V30 43992 C 1215.25 -4.74639 5.19936 0
M  V30 43993 C 1215.96 -3.49432 4.70418 0
M  V30 43994 N 1215.91 -3.31776 3.22945 0
M  V30 43995 H 1218.75 -6.54213 5.71376 0
M  V30 43996 H 1219.02 -5.30492 4.44033 0
M  V30 43997 H 1218.16 -4.55889 6.76652 0
M  V30 43998 P 1214.19 -4.23843 7.83734 0
M  V30 43999 O 1213.97 -4.19407 9.29784 0
M  V30 44000 O 1213.4 -5.24426 7.09156 0
M  V30 44001 O 1213.94 -2.7935 7.20758 0
M  V30 44002 C 1214.88 -1.7299 7.50419 0
M  V30 44003 C 1214.15 -0.406376 7.57911 0
M  V30 44004 O 1213.94 0.0897726 6.21935 0
M  V30 44005 C 1212.75 -0.447224 8.1878 0
M  V30 44006 O 1212.36 0.825065 8.71101 0
M  V30 44007 C 1211.87 -0.783801 6.99623 0
M  V30 44008 C 1212.58 -0.0619192 5.85967 0
M  V30 44009 N 1212.53 -0.790462 4.56202 0
M  V30 44010 H 1215.37 -1.93423 8.4679 0
M  V30 44011 H 1215.64 -1.68852 6.70877 0
M  V30 44012 H 1214.78 0.289041 8.15388 0
M  V30 44013 H 1212.12 0.927006 5.72848 0
M  V30 44014 H 1211.84 -1.86973 6.82036 0
M  V30 44015 H 1210.85 -0.403953 7.13357 0
M  V30 44016 H 1212.68 -1.20599 8.97534 0
M  V30 44017 P 1210.81 1.17771 8.83182 0
M  V30 44018 O 1210.59 2.07206 9.98732 0
M  V30 44019 O 1210.02 -0.0743816 8.81969 0
M  V30 44020 O 1210.56 1.97652 7.47304 0
M  V30 44021 C 1211.5 3.01133 7.08783 0
M  V30 44022 C 1210.77 4.12613 6.37049 0
M  V30 44023 O 1210.56 3.72827 4.97879 0
M  V30 44024 C 1209.37 4.45085 6.88694 0
M  V30 44025 O 1208.98 5.7877 6.5624 0
M  V30 44026 C 1208.49 3.47817 6.12078 0
M  V30 44027 C 1209.2 3.39414 4.77697 0
M  V30 44028 N 1209.15 2.04615 4.15333 0
M  V30 44029 C 1209.23 0.803897 4.75249 0
M  V30 44030 N 1209.15 -0.197615 3.91502 0
M  V30 44031 C 1209.01 0.413002 2.66823 0
M  V30 44032 C 1208.88 -0.157221 1.38007 0
M  V30 44033 O 1208.86 -1.34419 1.057 0
M  V30 44034 N 1208.76 0.833136 0.390236 0
M  V30 44035 C 1208.76 2.19402 0.623885 0
M  V30 44036 N 1208.63 2.97622 -0.449677 0
M  V30 44037 N 1208.89 2.73005 1.83601 0
M  V30 44038 C 1209.01 1.78786 2.80935 0
M  V30 44039 H 1211.99 3.41248 7.98759 0
M  V30 44040 H 1212.26 2.5837 6.41742 0
M  V30 44041 H 1211.4 5.02657 6.42673 0
M  V30 44042 H 1208.74 4.11779 4.09026 0
M  V30 44043 H 1208.46 2.49661 6.61772 0
M  V30 44044 H 1207.47 3.86674 6.00946 0
M  V30 44045 H 1209.3 4.30038 7.97094 0
M  V30 44046 H 1209.35 0.670579 5.82754 0
M  V30 44047 H 1208.67 0.528446 -0.557287 0
M  V30 44048 H 1208.63 4.00117 -0.344773 0
M  V30 44049 H 1208.53 2.55448 -1.38544 0
M  V30 44050 P 1207.43 6.144 6.45285 0
M  V30 44051 O 1207.21 7.54673 6.86199 0
M  V30 44052 O 1206.64 5.12391 7.179 0
M  V30 44053 O 1207.18 5.99158 4.88404 0
M  V30 44054 C 1208.12 6.60234 3.96415 0
M  V30 44055 C 1207.39 7.08259 2.72856 0
M  V30 44056 O 1207.18 5.9427 1.83651 0
M  V30 44057 C 1205.99 7.64886 2.9555 0
M  V30 44058 O 1205.6 8.53963 1.90717 0
M  V30 44059 C 1205.11 6.4116 2.90739 0
M  V30 44060 C 1205.82 5.55375 1.86963 0
M  V30 44061 N 1205.77 4.09664 2.15742 0
M  V30 44062 H 1208.61 7.45574 4.45629 0
M  V30 44063 H 1208.88 5.86232 3.67314 0
M  V30 44064 H 1208.02 7.84412 2.24479 0
M  V30 44065 P 1204.05 8.7635 1.60911 0
M  V30 44066 O 1203.83 10.1388 1.11561 0
M  V30 44067 O 1203.26 8.36503 2.79617 0
M  V30 44068 O 1203.8 7.71806 0.42951 0
M  V30 44069 C 1204.74 7.66948 -0.673514 0
M  V30 44070 C 1204.01 7.33374 -1.95559 0
M  V30 44071 O 1203.8 5.88721 -2.00726 0
M  V30 44072 C 1202.61 7.92218 -2.1125 0
M  V30 44073 O 1202.22 8.02971 -3.47653 0
M  V30 44074 C 1201.73 6.89504 -1.41631 0
M  V30 44075 C 1202.44 5.59106 -1.75155 0
M  V30 44076 N 1202.39 4.58136 -0.662409 0
M  V30 44077 C 1202.24 3.26059 -1.02863 0
M  V30 44078 O 1202.15 2.90743 -2.19009 0
M  V30 44079 N 1202.2 2.35995 0.0155585 0
M  V30 44080 C 1202.29 2.65248 1.35603 0
M  V30 44081 O 1202.24 1.75605 2.20651 0
M  V30 44082 C 1202.44 4.05747 1.64698 0
M  V30 44083 C 1202.55 4.42345 3.09553 0
M  V30 44084 C 1202.49 4.96734 0.652411 0
M  V30 44085 H 1205.23 8.64917 -0.776982 0
M  V30 44086 H 1205.5 6.89974 -0.474015 0
M  V30 44087 H 1204.64 7.66548 -2.79458 0
M  V30 44088 H 1201.98 5.16076 -2.65138 0
M  V30 44089 H 1201.7 7.06433 -0.329384 0
M  V30 44090 H 1200.71 6.90829 -1.81996 0
M  V30 44091 H 1202.54 8.90774 -1.62639 0
M  V30 44092 H 1202.61 6.02181 0.895285 0
M  V30 44093 H 1201.58 4.80252 3.45468 0
M  V30 44094 H 1203.32 5.20015 3.22119 0
M  V30 44095 H 1202.83 3.53269 3.67833 0
M  V30 44096 H 1202.1 1.39558 -0.227499 0
M  V30 44097 P 1200.67 8.03563 -3.84925 0
M  V30 44098 O 1200.45 8.85821 -5.0569 0
M  V30 44099 O 1199.88 8.41101 -2.65469 0
M  V30 44100 O 1200.42 6.49734 -4.18962 0
M  V30 44101 C 1201.36 5.81037 -5.05421 0
M  V30 44102 C 1200.63 4.79018 -5.88876 0
M  V30 44103 O 1200.42 3.58359 -5.08515 0
M  V30 44104 C 1199.23 5.17448 -6.36119 0
M  V30 44105 O 1198.84 4.45322 -7.53318 0
M  V30 44106 C 1198.35 4.74639 -5.19936 0
M  V30 44107 C 1199.06 3.49432 -4.70418 0
M  V30 44108 N 1199.01 3.31776 -3.22945 0
M  V30 44109 C 1198.86 2.02742 -2.72939 0
M  V30 44110 O 1198.77 1.08301 -3.52749 0
M  V30 44111 N 1198.81 1.96117 -1.22063 0
M  V30 44112 C 1198.91 2.8878 -0.551566 0
M  V30 44113 N 1198.86 2.65609 0.750198 0
M  V30 44114 C 1199.06 4.22457 -1.03707 0
M  V30 44115 C 1199.11 4.37979 -2.39113 0
M  V30 44116 H 1201.85 6.54138 -5.7131 0
M  V30 44117 H 1202.12 5.30492 -4.44033 0
M  V30 44118 H 1201.26 4.55945 -6.76735 0
M  V30 44119 H 1198.6 2.6176 -5.18021 0
M  V30 44120 H 1198.32 5.52233 -4.41941 0
M  V30 44121 H 1197.33 4.52045 -5.53452 0
M  V30 44122 H 1199.16 6.25124 -6.55234 0
M  V30 44123 H 1199.24 5.37936 -2.80552 0
M  V30 44124 H 1199.13 5.07528 -0.359553 0
M  V30 44125 H 1198.75 1.69403 1.09847 0
M  V30 44126 H 1198.94 3.43701 1.41792 0
M  V30 44127 P 1197.29 4.23843 -7.83734 0
M  V30 44128 O 1197.07 4.19407 -9.29784 0
M  V30 44129 O 1196.5 5.24426 -7.09156 0
M  V30 44130 O 1197.04 2.7935 -7.20758 0
M  V30 44131 C 1197.98 1.7299 -7.50419 0
M  V30 44132 C 1197.25 0.406376 -7.57911 0
M  V30 44133 O 1197.04 -0.0897726 -6.21935 0
M  V30 44134 C 1195.85 0.447224 -8.1878 0
M  V30 44135 O 1195.46 -0.825065 -8.71101 0
M  V30 44136 C 1194.97 0.783801 -6.99623 0
M  V30 44137 C 1195.68 0.0619192 -5.85967 0
M  V30 44138 N 1195.63 0.7859 -4.56281 0
M  V30 44139 H 1198.47 1.93423 -8.4679 0
M  V30 44140 H 1198.74 1.68181 -6.71046 0
M  V30 44141 H 1197.88 -0.289041 -8.15388 0
M  V30 44142 P 1193.91 -1.17771 -8.83182 0
M  V30 44143 O 1193.69 -2.07206 -9.98732 0
M  V30 44144 O 1193.12 0.0743816 -8.81969 0
M  V30 44145 O 1193.66 -1.97652 -7.47304 0
M  V30 44146 C 1194.6 -3.01133 -7.08783 0
M  V30 44147 C 1193.87 -4.12613 -6.37049 0
M  V30 44148 O 1193.66 -3.72827 -4.97879 0
M  V30 44149 C 1192.47 -4.45085 -6.88694 0
M  V30 44150 O 1192.08 -5.7877 -6.5624 0
M  V30 44151 C 1191.59 -3.47817 -6.12078 0
M  V30 44152 C 1192.3 -3.39414 -4.77697 0
M  V30 44153 N 1192.25 -2.04615 -4.15333 0
M  V30 44154 H 1195.09 -3.41248 -7.98759 0
M  V30 44155 H 1195.36 -2.5837 -6.41742 0
M  V30 44156 H 1194.5 -5.02657 -6.42673 0
M  V30 44157 P 1190.53 -6.144 -6.45285 0
M  V30 44158 O 1190.31 -7.54673 -6.86199 0
M  V30 44159 O 1189.74 -5.12391 -7.179 0
M  V30 44160 O 1190.28 -5.99158 -4.88404 0
M  V30 44161 C 1191.22 -6.60062 -3.96313 0
M  V30 44162 C 1190.49 -7.08259 -2.72856 0
M  V30 44163 O 1190.28 -5.9427 -1.83651 0
M  V30 44164 C 1189.09 -7.65087 -2.94749 0
M  V30 44165 O 1188.7 -8.53963 -1.90717 0
M  V30 44166 C 1188.21 -6.41069 -2.90698 0
M  V30 44167 C 1188.92 -5.5528 -1.86931 0
M  V30 44168 N 1188.87 -4.09575 -2.15696 0
M  V30 44169 C 1188.72 -3.24249 -1.08435 0
M  V30 44170 O 1188.63 -3.63946 0.0628747 0
M  V30 44171 N 1188.68 -1.90009 -1.39973 0
M  V30 44172 C 1188.77 -1.34884 -2.65614 0
M  V30 44173 O 1188.72 -0.123716 -2.81728 0
M  V30 44174 C 1188.92 -2.3145 -3.71736 0
M  V30 44175 C 1189.03 -1.75913 -5.10438 0
M  V30 44176 C 1188.97 -3.63518 -3.44754 0
M  V30 44177 H 1191.71 -7.45402 -4.45526 0
M  V30 44178 H 1191.98 -5.86062 -3.67208 0
M  V30 44179 H 1191.12 -7.84412 -2.24479 0
M  V30 44180 H 1188.46 -5.73358 -0.888409 0
M  V30 44181 H 1188.18 -5.90877 -3.88583 0
M  V30 44182 H 1187.19 -6.65867 -2.58821 0
M  V30 44183 H 1189.02 -8.16248 -3.92006 0
M  V30 44184 H 1189.09 -4.34551 -4.26383 0
M  V30 44185 H 1188.06 -1.85471 -5.61775 0
M  V30 44186 H 1189.8 -2.31364 -5.66257 0
M  V30 44187 H 1189.31 -0.695936 -5.05229 0
M  V30 44188 H 1188.58 -1.26277 -0.63625 0
M  V30 44189 P 1187.15 -8.7635 -1.60911 0
M  V30 44190 O 1186.93 -10.1388 -1.11561 0
M  V30 44191 O 1186.36 -8.36503 -2.79617 0
M  V30 44192 O 1186.9 -7.71806 -0.42951 0
M  V30 44193 C 1187.84 -7.67148 0.673689 0
M  V30 44194 C 1187.11 -7.33374 1.95559 0
M  V30 44195 O 1186.9 -5.88721 2.00726 0
M  V30 44196 C 1185.71 -7.92526 2.10483 0
M  V30 44197 O 1185.32 -8.02971 3.47653 0
M  V30 44198 C 1184.83 -6.89602 1.41652 0
M  V30 44199 C 1185.54 -5.59201 1.75185 0
M  V30 44200 N 1185.49 -4.58235 0.662552 0
M  V30 44201 H 1188.33 -8.65116 0.777161 0
M  V30 44202 H 1188.6 -6.90173 0.474152 0
M  V30 44203 H 1187.74 -7.66548 2.79458 0
M  V30 44204 P 1183.77 -8.03563 3.84925 0
M  V30 44205 O 1183.55 -8.85821 5.0569 0
M  V30 44206 O 1182.98 -8.41101 2.65469 0
M  V30 44207 O 1183.52 -6.4965 4.18908 0
M  V30 44208 C 1184.46 -5.81037 5.05421 0
M  V30 44209 C 1183.73 -4.78366 5.89277 0
M  V30 44210 O 1183.52 -3.58302 5.08433 0
M  V30 44211 C 1182.33 -5.17448 6.36119 0
M  V30 44212 O 1181.94 -4.45271 7.53232 0
M  V30 44213 C 1181.45 -4.74639 5.19936 0
M  V30 44214 C 1182.16 -3.49432 4.70418 0
M  V30 44215 N 1182.11 -3.31776 3.22945 0
M  V30 44216 H 1184.95 -6.54213 5.71376 0
M  V30 44217 H 1185.22 -5.30492 4.44033 0
M  V30 44218 H 1184.36 -4.55889 6.76652 0
M  V30 44219 P 1180.39 -4.23843 7.83734 0
M  V30 44220 O 1180.17 -4.19407 9.29784 0
M  V30 44221 O 1179.6 -5.24426 7.09156 0
M  V30 44222 O 1180.14 -2.7935 7.20758 0
M  V30 44223 C 1181.08 -1.7299 7.50419 0
M  V30 44224 C 1180.35 -0.406376 7.57911 0
M  V30 44225 O 1180.14 0.0897726 6.21935 0
M  V30 44226 C 1178.95 -0.447224 8.1878 0
M  V30 44227 O 1178.56 0.825065 8.71101 0
M  V30 44228 C 1178.07 -0.783801 6.99623 0
M  V30 44229 C 1178.78 -0.0619192 5.85967 0
M  V30 44230 N 1178.73 -0.790462 4.56202 0
M  V30 44231 H 1181.57 -1.93423 8.4679 0
M  V30 44232 H 1181.84 -1.68852 6.70877 0
M  V30 44233 H 1180.98 0.289041 8.15388 0
M  V30 44234 H 1178.32 0.927006 5.72848 0
M  V30 44235 H 1178.04 -1.86973 6.82036 0
M  V30 44236 H 1177.05 -0.403953 7.13357 0
M  V30 44237 H 1178.88 -1.20599 8.97534 0
M  V30 44238 P 1177.01 1.17771 8.83182 0
M  V30 44239 O 1176.79 2.07206 9.98732 0
M  V30 44240 O 1176.22 -0.0743816 8.81969 0
M  V30 44241 O 1176.76 1.97652 7.47304 0
M  V30 44242 C 1177.7 3.01055 7.08599 0
M  V30 44243 C 1176.97 4.12613 6.37049 0
M  V30 44244 O 1176.76 3.72827 4.97879 0
M  V30 44245 C 1175.57 4.45719 6.88164 0
M  V30 44246 O 1175.18 5.7877 6.5624 0
M  V30 44247 C 1174.69 3.47768 6.11991 0
M  V30 44248 C 1175.4 3.39356 4.77615 0
M  V30 44249 N 1175.35 2.04571 4.15244 0
M  V30 44250 C 1175.2 1.98587 2.78314 0
M  V30 44251 O 1175.11 2.98134 2.08835 0
M  V30 44252 N 1175.16 0.714467 2.24925 0
M  V30 44253 C 1175.25 -0.470001 2.94169 0
M  V30 44254 O 1175.2 -1.55587 2.35195 0
M  V30 44255 C 1175.4 -0.312541 4.36783 0
M  V30 44256 C 1175.51 -1.57711 5.16352 0
M  V30 44257 C 1175.45 0.914512 4.92583 0
M  V30 44258 H 1178.19 3.41169 7.98575 0
M  V30 44259 H 1178.46 2.58295 6.41556 0
M  V30 44260 H 1177.6 5.02657 6.42673 0
M  V30 44261 H 1174.94 4.11637 4.08885 0
M  V30 44262 H 1174.66 2.49626 6.61679 0
M  V30 44263 H 1173.67 3.86566 6.00778 0
M  V30 44264 H 1175.5 4.29943 7.96918 0
M  V30 44265 H 1175.58 1.00937 6.00374 0
M  V30 44266 H 1174.55 -1.80153 5.63503 0
M  V30 44267 H 1176.28 -1.4566 5.94104 0
M  V30 44268 H 1175.79 -2.40664 4.49645 0
M  V30 44269 H 1175.06 0.647622 1.25697 0
M  V30 44270 P 1173.63 6.144 6.45285 0
M  V30 44271 O 1173.41 7.54673 6.86199 0
M  V30 44272 O 1172.84 5.12391 7.179 0
M  V30 44273 O 1173.38 5.99158 4.88404 0
M  V30 44274 C 1174.32 6.60234 3.96415 0
M  V30 44275 C 1173.59 7.08259 2.72856 0
M  V30 44276 O 1173.38 5.9427 1.83651 0
M  V30 44277 C 1172.19 7.64886 2.9555 0
M  V30 44278 O 1171.8 8.53963 1.90717 0
M  V30 44279 C 1171.31 6.4116 2.90739 0
M  V30 44280 C 1172.02 5.55375 1.86963 0
M  V30 44281 N 1171.97 4.09448 2.16152 0
M  V30 44282 C 1172.05 3.46824 3.37593 0
M  V30 44283 N 1171.98 2.17422 3.29777 0
M  V30 44284 C 1171.83 1.93065 1.94427 0
M  V30 44285 C 1171.7 0.738053 1.20141 0
M  V30 44286 N 1171.69 -0.474256 1.74676 0
M  V30 44287 N 1171.58 0.850049 -0.13045 0
M  V30 44288 C 1171.59 2.06169 -0.676992 0
M  V30 44289 N 1171.71 3.23842 -0.101312 0
M  V30 44290 C 1171.83 3.09402 1.23122 0
M  V30 44291 H 1174.81 7.45574 4.45629 0
M  V30 44292 H 1175.08 5.85864 3.679 0
M  V30 44293 H 1174.22 7.84412 2.24479 0
M  V30 44294 H 1171.56 5.73457 0.888562 0
M  V30 44295 H 1171.28 5.90877 3.88583 0
M  V30 44296 H 1170.29 6.6596 2.58858 0
M  V30 44297 H 1172.12 8.16339 3.92049 0
M  V30 44298 H 1172.17 4.00505 4.3174 0
M  V30 44299 H 1171.78 -0.581337 2.76658 0
M  V30 44300 H 1171.6 -1.30811 1.14888 0
M  V30 44301 H 1171.49 2.08295 -1.75542 0
M  V30 44302 P 1170.25 8.7635 1.60911 0
M  V30 44303 O 1170.03 10.1388 1.11561 0
M  V30 44304 O 1169.46 8.36503 2.79617 0
M  V30 44305 O 1170 7.71806 0.42951 0
M  V30 44306 C 1170.94 7.67148 -0.673689 0
M  V30 44307 C 1170.21 7.33374 -1.95559 0
M  V30 44308 O 1170 5.88721 -2.00726 0
M  V30 44309 C 1168.81 7.92526 -2.10483 0
M  V30 44310 O 1168.42 8.02971 -3.47653 0
M  V30 44311 C 1167.93 6.89602 -1.41652 0
M  V30 44312 C 1168.64 5.59201 -1.75185 0
M  V30 44313 N 1168.59 4.58235 -0.662552 0
M  V30 44314 C 1168.67 4.7683 0.704049 0
M  V30 44315 N 1168.59 3.66233 1.39775 0
M  V30 44316 C 1168.45 2.66526 0.431739 0
M  V30 44317 C 1168.32 1.26394 0.575992 0
M  V30 44318 O 1168.3 0.589894 1.60503 0
M  V30 44319 N 1168.2 0.62859 -0.67177 0
M  V30 44320 C 1168.2 1.27134 -1.89385 0
M  V30 44321 N 1168.07 0.492035 -2.96951 0
M  V30 44322 N 1168.33 2.58978 -2.02907 0
M  V30 44323 C 1168.45 3.22433 -0.832218 0
M  V30 44324 H 1171.43 8.65116 -0.777161 0
M  V30 44325 H 1171.7 6.90173 -0.474152 0
M  V30 44326 H 1170.84 7.66548 -2.79458 0
M  V30 44327 H 1168.18 5.16254 -2.65229 0
M  V30 44328 H 1167.9 7.06532 -0.329431 0
M  V30 44329 H 1166.91 6.91023 -1.82047 0
M  V30 44330 H 1168.74 8.90971 -1.62675 0
M  V30 44331 H 1168.79 5.74954 1.16305 0
M  V30 44332 H 1168.11 -0.366713 -0.674793 0
M  V30 44333 H 1168.07 0.908532 -3.91188 0
M  V30 44334 H 1167.97 -0.528253 -2.85758 0
M  V30 44335 P 1166.87 8.03563 -3.84925 0
M  V30 44336 O 1166.65 8.85821 -5.0569 0
M  V30 44337 O 1166.08 8.41101 -2.65469 0
M  V30 44338 O 1166.62 6.4965 -4.18908 0
M  V30 44339 C 1167.56 5.81037 -5.05421 0
M  V30 44340 C 1166.83 4.78366 -5.89277 0
M  V30 44341 O 1166.62 3.58302 -5.08433 0
M  V30 44342 C 1165.43 5.17448 -6.36119 0
M  V30 44343 O 1165.04 4.45271 -7.53232 0
M  V30 44344 C 1164.55 4.74639 -5.19936 0
M  V30 44345 C 1165.26 3.49432 -4.70418 0
M  V30 44346 N 1165.21 3.31776 -3.22945 0
M  V30 44347 H 1168.05 6.54213 -5.71376 0
M  V30 44348 H 1168.32 5.30492 -4.44033 0
M  V30 44349 H 1167.46 4.55889 -6.76652 0
M  V30 44350 P 1163.49 4.23843 -7.83734 0
M  V30 44351 O 1163.27 4.19407 -9.29784 0
M  V30 44352 O 1162.7 5.24426 -7.09156 0
M  V30 44353 O 1163.24 2.7935 -7.20758 0
M  V30 44354 C 1164.18 1.7299 -7.50419 0
M  V30 44355 C 1163.45 0.406376 -7.57911 0
M  V30 44356 O 1163.24 -0.0897726 -6.21935 0
M  V30 44357 C 1162.05 0.447224 -8.1878 0
M  V30 44358 O 1161.66 -0.825065 -8.71101 0
M  V30 44359 C 1161.17 0.783801 -6.99623 0
M  V30 44360 C 1161.88 0.0619192 -5.85967 0
M  V30 44361 N 1161.83 0.7859 -4.56281 0
M  V30 44362 H 1164.67 1.93423 -8.4679 0
M  V30 44363 H 1164.94 1.68181 -6.71046 0
M  V30 44364 H 1164.08 -0.289041 -8.15388 0
M  V30 44365 P 1160.11 -1.17771 -8.83182 0
M  V30 44366 O 1159.89 -2.07206 -9.98732 0
M  V30 44367 O 1159.32 0.0743816 -8.81969 0
M  V30 44368 O 1159.86 -1.97652 -7.47304 0
M  V30 44369 C 1160.8 -3.01133 -7.08783 0
M  V30 44370 C 1160.07 -4.12613 -6.37049 0
M  V30 44371 O 1159.86 -3.72827 -4.97879 0
M  V30 44372 C 1158.67 -4.45085 -6.88694 0
M  V30 44373 O 1158.28 -5.7877 -6.5624 0
M  V30 44374 C 1157.79 -3.47817 -6.12078 0
M  V30 44375 C 1158.5 -3.39414 -4.77697 0
M  V30 44376 N 1158.45 -2.04615 -4.15333 0
M  V30 44377 H 1161.29 -3.41248 -7.98759 0
M  V30 44378 H 1161.56 -2.5837 -6.41742 0
M  V30 44379 H 1160.7 -5.02657 -6.42673 0
M  V30 44380 P 1156.73 -6.144 -6.45285 0
M  V30 44381 O 1156.51 -7.54673 -6.86199 0
M  V30 44382 O 1155.94 -5.12391 -7.179 0
M  V30 44383 O 1156.48 -5.99158 -4.88404 0
M  V30 44384 C 1157.42 -6.60234 -3.96415 0
M  V30 44385 C 1156.69 -7.08259 -2.72856 0
M  V30 44386 O 1156.48 -5.9427 -1.83651 0
M  V30 44387 C 1155.29 -7.64886 -2.9555 0
M  V30 44388 O 1154.9 -8.53963 -1.90717 0
M  V30 44389 C 1154.41 -6.4116 -2.90739 0
M  V30 44390 C 1155.12 -5.55375 -1.86963 0
M  V30 44391 N 1155.07 -4.09664 -2.15742 0
M  V30 44392 H 1157.91 -7.45574 -4.45629 0
M  V30 44393 H 1158.18 -5.86232 -3.67314 0
M  V30 44394 H 1157.32 -7.84412 -2.24479 0
M  V30 44395 P 1153.35 -8.7635 -1.60911 0
M  V30 44396 O 1153.13 -10.1388 -1.11561 0
M  V30 44397 O 1152.56 -8.36503 -2.79617 0
M  V30 44398 O 1153.1 -7.71806 -0.42951 0
M  V30 44399 C 1154.04 -7.67148 0.673689 0
M  V30 44400 C 1153.31 -7.33374 1.95559 0
M  V30 44401 O 1153.1 -5.88721 2.00726 0
M  V30 44402 C 1151.91 -7.92526 2.10483 0
M  V30 44403 O 1151.52 -8.02971 3.47653 0
M  V30 44404 C 1151.03 -6.89602 1.41652 0
M  V30 44405 C 1151.74 -5.59201 1.75185 0
M  V30 44406 N 1151.69 -4.58301 0.657969 0
M  V30 44407 H 1154.53 -8.65116 0.777161 0
M  V30 44408 H 1154.8 -6.9022 0.46725 0
M  V30 44409 H 1153.94 -7.66548 2.79458 0
M  V30 44410 H 1151.28 -5.16165 2.65183 0
M  V30 44411 H 1151 -7.06433 0.329384 0
M  V30 44412 H 1150.01 -6.90926 1.82021 0
M  V30 44413 H 1151.84 -8.90873 1.62657 0
M  V30 44414 P 1149.97 -8.03563 3.84925 0
M  V30 44415 O 1149.75 -8.85821 5.0569 0
M  V30 44416 O 1149.18 -8.41101 2.65469 0
M  V30 44417 O 1149.72 -6.4965 4.18908 0
M  V30 44418 C 1150.66 -5.81037 5.05421 0
M  V30 44419 C 1149.93 -4.78366 5.89277 0
M  V30 44420 O 1149.72 -3.58302 5.08433 0
M  V30 44421 C 1148.53 -5.17448 6.36119 0
M  V30 44422 O 1148.14 -4.45271 7.53232 0
M  V30 44423 C 1147.65 -4.74639 5.19936 0
M  V30 44424 C 1148.36 -3.49432 4.70418 0
M  V30 44425 N 1148.31 -3.32099 3.22613 0
M  V30 44426 H 1151.15 -6.54213 5.71376 0
M  V30 44427 H 1151.42 -5.30936 4.43503 0
M  V30 44428 H 1150.56 -4.55889 6.76652 0
M  V30 44429 H 1147.9 -2.61715 5.17932 0
M  V30 44430 H 1147.62 -5.52155 4.41878 0
M  V30 44431 H 1146.63 -4.51981 5.53374 0
M  V30 44432 H 1148.46 -6.25124 6.55234 0
M  V30 44433 P 1146.59 -4.23843 7.83734 0
M  V30 44434 O 1146.37 -4.19407 9.29784 0
M  V30 44435 O 1145.8 -5.24426 7.09156 0
M  V30 44436 O 1146.34 -2.7935 7.20758 0
M  V30 44437 C 1147.28 -1.7299 7.50419 0
M  V30 44438 C 1146.55 -0.406376 7.57911 0
M  V30 44439 O 1146.34 0.0897726 6.21935 0
M  V30 44440 C 1145.15 -0.447224 8.1878 0
M  V30 44441 O 1144.76 0.825065 8.71101 0
M  V30 44442 C 1144.27 -0.783801 6.99623 0
M  V30 44443 C 1144.98 -0.0619192 5.85967 0
M  V30 44444 N 1144.93 -0.790462 4.56202 0
M  V30 44445 H 1147.77 -1.93423 8.4679 0
M  V30 44446 H 1148.04 -1.68852 6.70877 0
M  V30 44447 H 1147.18 0.289041 8.15388 0
M  V30 44448 H 1144.52 0.927006 5.72848 0
M  V30 44449 H 1144.24 -1.86973 6.82036 0
M  V30 44450 H 1143.25 -0.403953 7.13357 0
M  V30 44451 H 1145.08 -1.20599 8.97534 0
M  V30 44452 P 1143.21 1.17771 8.83182 0
M  V30 44453 O 1142.99 2.07206 9.98732 0
M  V30 44454 O 1142.42 -0.0743816 8.81969 0
M  V30 44455 O 1142.96 1.97652 7.47304 0
M  V30 44456 C 1143.9 3.01133 7.08783 0
M  V30 44457 C 1143.17 4.12613 6.37049 0
M  V30 44458 O 1142.96 3.72827 4.97879 0
M  V30 44459 C 1141.77 4.45085 6.88694 0
M  V30 44460 O 1141.38 5.7877 6.5624 0
M  V30 44461 C 1140.89 3.47817 6.12078 0
M  V30 44462 C 1141.6 3.39414 4.77697 0
M  V30 44463 N 1141.55 2.04199 4.15538 0
M  V30 44464 C 1141.63 0.821545 4.76977 0
M  V30 44465 N 1141.56 -0.1794 3.94592 0
M  V30 44466 C 1141.41 0.419121 2.70776 0
M  V30 44467 C 1141.28 -0.109072 1.40577 0
M  V30 44468 N 1141.27 -1.4104 1.1344 0
M  V30 44469 N 1141.16 0.764381 0.39411 0
M  V30 44470 C 1141.17 2.06587 0.664135 0
M  V30 44471 N 1141.29 2.67948 1.82153 0
M  V30 44472 C 1141.41 1.77942 2.8147 0
M  V30 44473 H 1144.39 3.41248 7.98759 0
M  V30 44474 H 1144.66 2.57728 6.42 0
M  V30 44475 H 1143.8 5.02657 6.42673 0
M  V30 44476 H 1141.14 4.11708 4.08956 0
M  V30 44477 H 1140.86 2.49626 6.61679 0
M  V30 44478 H 1139.87 3.8662 6.00862 0
M  V30 44479 H 1141.7 4.29991 7.97006 0
M  V30 44480 H 1141.75 0.702451 5.84696 0
M  V30 44481 H 1141.36 -2.09647 1.89651 0
M  V30 44482 H 1141.18 -1.73358 0.160575 0
M  V30 44483 H 1141.07 2.71695 -0.195838 0
M  V30 44484 P 1139.83 6.144 6.45285 0
M  V30 44485 O 1139.61 7.54673 6.86199 0
M  V30 44486 O 1139.04 5.12391 7.179 0
M  V30 44487 O 1139.58 5.99236 4.88467 0
M  V30 44488 C 1140.52 6.60234 3.96415 0
M  V30 44489 C 1139.79 7.08079 2.736 0
M  V30 44490 O 1139.58 5.94365 1.8368 0
M  V30 44491 C 1138.39 7.64886 2.9555 0
M  V30 44492 O 1138 8.5406 1.90739 0
M  V30 44493 C 1137.51 6.4116 2.90739 0
M  V30 44494 C 1138.22 5.55375 1.86963 0
M  V30 44495 N 1138.17 4.09664 2.15742 0
M  V30 44496 C 1138.02 3.22231 1.08477 0
M  V30 44497 O 1137.93 3.68951 -0.0600489 0
M  V30 44498 N 1137.97 1.76692 1.48799 0
M  V30 44499 C 1138.07 1.41695 2.57602 0
M  V30 44500 N 1138.02 0.107296 2.75791 0
M  V30 44501 C 1138.22 2.29178 3.69733 0
M  V30 44502 C 1138.27 3.62753 3.42653 0
M  V30 44503 H 1141.01 7.45488 4.45578 0
M  V30 44504 H 1141.28 5.86232 3.67314 0
M  V30 44505 H 1140.42 7.84508 2.24507 0
M  V30 44506 H 1137.76 5.73556 0.888715 0
M  V30 44507 H 1137.48 5.9096 3.88638 0
M  V30 44508 H 1136.49 6.66053 2.58894 0
M  V30 44509 H 1138.32 8.16339 3.92049 0
M  V30 44510 H 1138.4 4.33052 4.24913 0
M  V30 44511 H 1138.29 1.9103 4.71577 0
M  V30 44512 H 1137.91 -0.521221 1.95056 0
M  V30 44513 H 1138.1 -0.286429 3.70695 0
M  V30 44514 P 1136.45 8.7635 1.60911 0
M  V30 44515 O 1136.23 10.1388 1.11561 0
M  V30 44516 O 1135.66 8.36503 2.79617 0
M  V30 44517 O 1136.2 7.71806 0.42951 0
M  V30 44518 C 1137.14 7.67148 -0.673689 0
M  V30 44519 C 1136.41 7.33374 -1.95559 0
M  V30 44520 O 1136.2 5.88721 -2.00726 0
M  V30 44521 C 1135.01 7.92526 -2.10483 0
M  V30 44522 O 1134.62 8.02971 -3.47653 0
M  V30 44523 C 1134.13 6.89602 -1.41652 0
M  V30 44524 C 1134.84 5.59201 -1.75185 0
M  V30 44525 N 1134.79 4.58235 -0.662552 0
M  V30 44526 H 1137.63 8.65116 -0.777161 0
M  V30 44527 H 1137.9 6.90173 -0.474152 0
M  V30 44528 H 1137.04 7.66548 -2.79458 0
M  V30 44529 P 1133.07 8.03563 -3.84925 0
M  V30 44530 O 1132.85 8.85821 -5.0569 0
M  V30 44531 O 1132.28 8.41101 -2.65469 0
M  V30 44532 O 1132.82 6.4965 -4.18908 0
M  V30 44533 C 1133.76 5.80886 -5.05289 0
M  V30 44534 C 1133.03 4.78366 -5.89277 0
M  V30 44535 O 1132.82 3.58302 -5.08433 0
M  V30 44536 C 1131.63 5.16748 -6.36559 0
M  V30 44537 O 1131.24 4.45271 -7.53232 0
M  V30 44538 C 1130.75 4.74572 -5.19863 0
M  V30 44539 C 1131.46 3.49373 -4.70338 0
M  V30 44540 N 1131.41 3.31704 -3.22876 0
M  V30 44541 C 1131.26 2.03326 -2.74871 0
M  V30 44542 O 1131.17 1.06486 -3.48076 0
M  V30 44543 N 1131.22 1.91838 -1.37456 0
M  V30 44544 C 1131.31 2.94295 -0.462035 0
M  V30 44545 O 1131.26 2.71763 0.752928 0
M  V30 44546 C 1131.46 4.25064 -1.05249 0
M  V30 44547 C 1131.57 5.39815 -0.095697 0
M  V30 44548 C 1131.51 4.40214 -2.39192 0
M  V30 44549 H 1134.25 6.54063 -5.71245 0
M  V30 44550 H 1134.52 5.30339 -4.43905 0
M  V30 44551 H 1133.66 4.55889 -6.76652 0
M  V30 44552 H 1131 2.6167 -5.17842 0
M  V30 44553 H 1130.72 5.52155 -4.41878 0
M  V30 44554 H 1129.73 4.51918 -5.53297 0
M  V30 44555 H 1131.56 6.25055 -6.55162 0
M  V30 44556 H 1131.64 5.39798 -2.81523 0
M  V30 44557 H 1130.61 5.91593 -0.0279582 0
M  V30 44558 H 1132.34 6.10038 -0.450573 0
M  V30 44559 H 1131.85 5.02007 0.89937 0
M  V30 44560 H 1131.12 0.995326 -1.00435 0
M  V30 44561 P 1129.69 4.23843 -7.83734 0
M  V30 44562 O 1129.47 4.19407 -9.29784 0
M  V30 44563 O 1128.9 5.24426 -7.09156 0
M  V30 44564 O 1129.44 2.7935 -7.20758 0
M  V30 44565 C 1130.38 1.7299 -7.50419 0
M  V30 44566 C 1129.65 0.406376 -7.57911 0
M  V30 44567 O 1129.44 -0.0897726 -6.21935 0
M  V30 44568 C 1128.25 0.447224 -8.1878 0
M  V30 44569 O 1127.86 -0.825065 -8.71101 0
M  V30 44570 C 1127.37 0.783801 -6.99623 0
M  V30 44571 C 1128.08 0.0619192 -5.85967 0
M  V30 44572 N 1128.03 0.790462 -4.56202 0
M  V30 44573 C 1128.11 2.13895 -4.34171 0
M  V30 44574 N 1128.04 2.46449 -3.08687 0
M  V30 44575 C 1127.89 1.2525 -2.43697 0
M  V30 44576 C 1127.76 0.914535 -1.07318 0
M  V30 44577 N 1127.75 1.80782 -0.0887348 0
M  V30 44578 N 1127.64 -0.386745 -0.768133 0
M  V30 44579 C 1127.65 -1.28096 -1.75159 0
M  V30 44580 N 1127.77 -1.09708 -3.04861 0
M  V30 44581 C 1127.89 0.214857 -3.32306 0
M  V30 44582 H 1130.87 1.93423 -8.4679 0
M  V30 44583 H 1131.14 1.68852 -6.70877 0
M  V30 44584 H 1130.28 -0.289041 -8.15388 0
M  V30 44585 H 1127.62 -0.927006 -5.72848 0
M  V30 44586 H 1127.34 1.86973 -6.82036 0
M  V30 44587 H 1126.35 0.403953 -7.13357 0
M  V30 44588 H 1128.18 1.20599 -8.97534 0
M  V30 44589 H 1128.23 2.86846 -5.14318 0
M  V30 44590 H 1127.84 2.81082 -0.302037 0
M  V30 44591 H 1127.66 1.49688 0.889064 0
M  V30 44592 H 1127.55 -2.31317 -1.43855 0
M  V30 44593 P 1126.31 -1.17771 -8.83182 0
M  V30 44594 O 1126.09 -2.07206 -9.98732 0
M  V30 44595 O 1125.52 0.0743816 -8.81969 0
M  V30 44596 O 1126.06 -1.97652 -7.47304 0
M  V30 44597 C 1127 -3.01133 -7.08783 0
M  V30 44598 C 1126.27 -4.12613 -6.37049 0
M  V30 44599 O 1126.06 -3.72827 -4.97879 0
M  V30 44600 C 1124.87 -4.45085 -6.88694 0
M  V30 44601 O 1124.48 -5.7877 -6.5624 0
M  V30 44602 C 1123.99 -3.47817 -6.12078 0
M  V30 44603 C 1124.7 -3.39414 -4.77697 0
M  V30 44604 N 1124.65 -2.04615 -4.15333 0
M  V30 44605 H 1127.49 -3.41248 -7.98759 0
M  V30 44606 H 1127.76 -2.5837 -6.41742 0
M  V30 44607 H 1126.9 -5.02657 -6.42673 0
M  V30 44608 P 1122.93 -6.144 -6.45285 0
M  V30 44609 O 1122.71 -7.54673 -6.86199 0
M  V30 44610 O 1122.14 -5.12391 -7.179 0
M  V30 44611 O 1122.68 -5.99158 -4.88404 0
M  V30 44612 C 1123.62 -6.60234 -3.96415 0
M  V30 44613 C 1122.89 -7.08259 -2.72856 0
M  V30 44614 O 1122.68 -5.9427 -1.83651 0
M  V30 44615 C 1121.49 -7.64886 -2.9555 0
M  V30 44616 O 1121.1 -8.53963 -1.90717 0
M  V30 44617 C 1120.61 -6.4116 -2.90739 0
M  V30 44618 C 1121.32 -5.55375 -1.86963 0
M  V30 44619 N 1121.27 -4.09664 -2.15742 0
M  V30 44620 H 1124.11 -7.45574 -4.45629 0
M  V30 44621 H 1124.38 -5.86232 -3.67314 0
M  V30 44622 H 1123.52 -7.84412 -2.24479 0
M  V30 44623 P 1119.55 -8.7635 -1.60911 0
M  V30 44624 O 1119.33 -10.1388 -1.11561 0
M  V30 44625 O 1118.76 -8.36503 -2.79617 0
M  V30 44626 O 1119.3 -7.71806 -0.42951 0
M  V30 44627 C 1120.24 -7.66948 0.673514 0
M  V30 44628 C 1119.51 -7.33374 1.95559 0
M  V30 44629 O 1119.3 -5.88721 2.00726 0
M  V30 44630 C 1118.11 -7.92218 2.1125 0
M  V30 44631 O 1117.72 -8.02971 3.47653 0
M  V30 44632 C 1117.23 -6.89504 1.41631 0
M  V30 44633 C 1117.94 -5.59106 1.75155 0
M  V30 44634 N 1117.89 -4.58136 0.662409 0
M  V30 44635 C 1117.74 -3.26059 1.02863 0
M  V30 44636 O 1117.65 -2.90743 2.19009 0
M  V30 44637 N 1117.7 -2.35995 -0.0155585 0
M  V30 44638 C 1117.79 -2.65248 -1.35603 0
M  V30 44639 C 1117.94 -4.05747 -1.64698 0
M  V30 44640 C 1117.99 -4.96734 -0.652411 0
M  V30 44641 H 1120.73 -8.64917 0.776982 0
M  V30 44642 H 1121 -6.89974 0.474015 0
M  V30 44643 H 1120.14 -7.66548 2.79458 0
M  V30 44644 H 1117.48 -5.16076 2.65138 0
M  V30 44645 H 1117.2 -7.06433 0.329384 0
M  V30 44646 H 1116.21 -6.90829 1.81996 0
M  V30 44647 H 1118.04 -8.90774 1.62639 0
M  V30 44648 H 1118.12 -6.02181 -0.895285 0
M  V30 44649 P 1116.17 -8.03563 3.84925 0
M  V30 44650 O 1115.95 -8.85821 5.0569 0
M  V30 44651 O 1115.38 -8.41101 2.65469 0
M  V30 44652 O 1115.92 -6.4965 4.18908 0
M  V30 44653 C 1116.86 -5.81037 5.05421 0
M  V30 44654 C 1116.13 -4.78366 5.89277 0
M  V30 44655 O 1115.92 -3.58302 5.08433 0
M  V30 44656 C 1114.73 -5.17448 6.36119 0
M  V30 44657 O 1114.34 -4.45271 7.53232 0
M  V30 44658 C 1113.85 -4.74639 5.19936 0
M  V30 44659 C 1114.56 -3.49432 4.70418 0
M  V30 44660 N 1114.51 -3.31776 3.22945 0
M  V30 44661 H 1117.35 -6.54213 5.71376 0
M  V30 44662 H 1117.62 -5.30492 4.44033 0
M  V30 44663 H 1116.76 -4.55889 6.76652 0
M  V30 44664 P 1112.79 -4.23843 7.83734 0
M  V30 44665 O 1112.57 -4.19407 9.29784 0
M  V30 44666 O 1112 -5.24426 7.09156 0
M  V30 44667 O 1112.54 -2.7935 7.20758 0
M  V30 44668 C 1113.48 -1.7299 7.50419 0
M  V30 44669 C 1112.75 -0.406376 7.57911 0
M  V30 44670 O 1112.54 0.0897726 6.21935 0
M  V30 44671 C 1111.35 -0.447224 8.1878 0
M  V30 44672 O 1110.96 0.825065 8.71101 0
M  V30 44673 C 1110.47 -0.783801 6.99623 0
M  V30 44674 C 1111.18 -0.0619192 5.85967 0
M  V30 44675 N 1111.13 -0.7859 4.56281 0
M  V30 44676 H 1113.97 -1.93423 8.4679 0
M  V30 44677 H 1114.24 -1.68181 6.71046 0
M  V30 44678 H 1113.38 0.289041 8.15388 0
M  V30 44679 P 1109.41 1.17771 8.83182 0
M  V30 44680 O 1109.19 2.07206 9.98732 0
M  V30 44681 O 1108.62 -0.0743816 8.81969 0
M  V30 44682 O 1109.16 1.97652 7.47304 0
M  V30 44683 C 1110.1 3.01055 7.08599 0
M  V30 44684 C 1109.37 4.12613 6.37049 0
M  V30 44685 O 1109.16 3.72827 4.97879 0
M  V30 44686 C 1107.97 4.45719 6.88164 0
M  V30 44687 O 1107.58 5.7877 6.5624 0
M  V30 44688 C 1107.09 3.47768 6.11991 0
M  V30 44689 C 1107.8 3.39356 4.77615 0
M  V30 44690 N 1107.75 2.04571 4.15244 0
M  V30 44691 C 1107.6 1.98587 2.78314 0
M  V30 44692 O 1107.51 2.98134 2.08835 0
M  V30 44693 N 1107.56 0.714467 2.24925 0
M  V30 44694 C 1107.65 -0.470001 2.94169 0
M  V30 44695 O 1107.6 -1.55587 2.35195 0
M  V30 44696 C 1107.8 -0.312541 4.36783 0
M  V30 44697 C 1107.91 -1.57711 5.16352 0
M  V30 44698 C 1107.85 0.914512 4.92583 0
M  V30 44699 H 1110.59 3.41169 7.98575 0
M  V30 44700 H 1110.86 2.58295 6.41556 0
M  V30 44701 H 1110 5.02657 6.42673 0
M  V30 44702 H 1107.34 4.11637 4.08885 0
M  V30 44703 H 1107.06 2.49626 6.61679 0
M  V30 44704 H 1106.07 3.86566 6.00778 0
M  V30 44705 H 1107.9 4.29943 7.96918 0
M  V30 44706 H 1107.98 1.00937 6.00374 0
M  V30 44707 H 1106.95 -1.80153 5.63503 0
M  V30 44708 H 1108.68 -1.4566 5.94104 0
M  V30 44709 H 1108.19 -2.40664 4.49645 0
M  V30 44710 H 1107.46 0.647622 1.25697 0
M  V30 44711 P 1106.03 6.144 6.45285 0
M  V30 44712 O 1105.81 7.54673 6.86199 0
M  V30 44713 O 1105.24 5.12391 7.179 0
M  V30 44714 O 1105.78 5.99158 4.88404 0
M  V30 44715 C 1106.72 6.60234 3.96415 0
M  V30 44716 C 1105.99 7.08259 2.72856 0
M  V30 44717 O 1105.78 5.9427 1.83651 0
M  V30 44718 C 1104.59 7.64886 2.9555 0
M  V30 44719 O 1104.2 8.53963 1.90717 0
M  V30 44720 C 1103.71 6.4116 2.90739 0
M  V30 44721 C 1104.42 5.55375 1.86963 0
M  V30 44722 N 1104.37 4.09664 2.15742 0
M  V30 44723 H 1107.21 7.45574 4.45629 0
M  V30 44724 H 1107.48 5.86232 3.67314 0
M  V30 44725 H 1106.62 7.84412 2.24479 0
M  V30 44726 P 1102.65 8.7635 1.60911 0
M  V30 44727 O 1102.43 10.1388 1.11561 0
M  V30 44728 O 1101.86 8.36503 2.79617 0
M  V30 44729 O 1102.4 7.71806 0.42951 0
M  V30 44730 C 1103.34 7.66948 -0.673514 0
M  V30 44731 C 1102.61 7.33374 -1.95559 0
M  V30 44732 O 1102.4 5.88721 -2.00726 0
M  V30 44733 C 1101.21 7.92218 -2.1125 0
M  V30 44734 O 1100.82 8.02971 -3.47653 0
M  V30 44735 C 1100.33 6.89504 -1.41631 0
M  V30 44736 C 1101.04 5.59106 -1.75155 0
M  V30 44737 N 1100.99 4.58136 -0.662409 0
M  V30 44738 C 1100.84 3.26059 -1.02863 0
M  V30 44739 O 1100.75 2.90743 -2.19009 0
M  V30 44740 N 1100.8 2.35995 0.0155585 0
M  V30 44741 C 1100.89 2.65248 1.35603 0
M  V30 44742 O 1100.84 1.75605 2.20651 0
M  V30 44743 C 1101.04 4.05747 1.64698 0
M  V30 44744 C 1101.15 4.42345 3.09553 0
M  V30 44745 C 1101.09 4.96734 0.652411 0
M  V30 44746 H 1103.83 8.64917 -0.776982 0
M  V30 44747 H 1104.1 6.89974 -0.474015 0
M  V30 44748 H 1103.24 7.66548 -2.79458 0
M  V30 44749 H 1100.58 5.16076 -2.65138 0
M  V30 44750 H 1100.3 7.06433 -0.329384 0
M  V30 44751 H 1099.31 6.90829 -1.81996 0
M  V30 44752 H 1101.14 8.90774 -1.62639 0
M  V30 44753 H 1101.22 6.02181 0.895285 0
M  V30 44754 H 1100.19 4.80252 3.45468 0
M  V30 44755 H 1101.92 5.20015 3.22119 0
M  V30 44756 H 1101.43 3.53269 3.67833 0
M  V30 44757 H 1100.7 1.39558 -0.227499 0
M  V30 44758 P 1099.27 8.03563 -3.84925 0
M  V30 44759 O 1099.05 8.85821 -5.0569 0
M  V30 44760 O 1098.48 8.41101 -2.65469 0
M  V30 44761 O 1099.02 6.4965 -4.18908 0
M  V30 44762 C 1099.96 5.81037 -5.05421 0
M  V30 44763 C 1099.23 4.78366 -5.89277 0
M  V30 44764 O 1099.02 3.58302 -5.08433 0
M  V30 44765 C 1097.83 5.17448 -6.36119 0
M  V30 44766 O 1097.44 4.45271 -7.53232 0
M  V30 44767 C 1096.95 4.74639 -5.19936 0
M  V30 44768 C 1097.66 3.49432 -4.70418 0
M  V30 44769 N 1097.61 3.31776 -3.22945 0
M  V30 44770 H 1100.45 6.54213 -5.71376 0
M  V30 44771 H 1100.72 5.30492 -4.44033 0
M  V30 44772 H 1099.86 4.55889 -6.76652 0
M  V30 44773 P 1095.89 4.23843 -7.83734 0
M  V30 44774 O 1095.67 4.19407 -9.29784 0
M  V30 44775 O 1095.1 5.24426 -7.09156 0
M  V30 44776 O 1095.64 2.79386 -7.20852 0
M  V30 44777 C 1096.58 1.7299 -7.50419 0
M  V30 44778 C 1095.85 0.41401 -7.5797 0
M  V30 44779 O 1095.64 -0.089787 -6.22035 0
M  V30 44780 C 1094.45 0.447224 -8.1878 0
M  V30 44781 O 1094.06 -0.825159 -8.71201 0
M  V30 44782 C 1093.57 0.783801 -6.99623 0
M  V30 44783 C 1094.28 0.0619192 -5.85967 0
M  V30 44784 N 1094.23 0.7859 -4.56281 0
M  V30 44785 C 1094.08 0.0359258 -3.39981 0
M  V30 44786 O 1093.99 -1.19723 -3.49038 0
M  V30 44787 N 1094.03 0.869151 -2.14025 0
M  V30 44788 C 1094.13 2.01207 -2.14363 0
M  V30 44789 N 1094.08 2.58978 -0.954287 0
M  V30 44790 C 1094.28 2.80817 -3.32215 0
M  V30 44791 C 1094.33 2.13785 -4.50884 0
M  V30 44792 H 1097.07 1.93401 -8.46693 0
M  V30 44793 H 1097.34 1.68181 -6.71046 0
M  V30 44794 H 1096.48 -0.289076 -8.15488 0
M  V30 44795 H 1093.82 -0.927166 -5.72947 0
M  V30 44796 H 1093.54 1.87 -6.82132 0
M  V30 44797 H 1092.55 0.404009 -7.13457 0
M  V30 44798 H 1094.38 1.20599 -8.97534 0
M  V30 44799 H 1094.46 2.70295 -5.43162 0
M  V30 44800 H 1094.35 3.89465 -3.27406 0
M  V30 44801 H 1093.97 2.01616 -0.107046 0
M  V30 44802 H 1094.16 3.61403 -0.873101 0
M  V30 44803 P 1092.51 -1.17771 -8.83182 0
M  V30 44804 O 1092.29 -2.07206 -9.98732 0
M  V30 44805 O 1091.72 0.0743816 -8.81969 0
M  V30 44806 O 1092.26 -1.97652 -7.47304 0
M  V30 44807 C 1093.2 -3.01055 -7.08599 0
M  V30 44808 C 1092.47 -4.12613 -6.37049 0
M  V30 44809 O 1092.26 -3.72827 -4.97879 0
M  V30 44810 C 1091.07 -4.45719 -6.88164 0
M  V30 44811 O 1090.68 -5.7877 -6.5624 0
M  V30 44812 C 1090.19 -3.47768 -6.11991 0
M  V30 44813 C 1090.9 -3.39356 -4.77615 0
M  V30 44814 N 1090.85 -2.04571 -4.15244 0
M  V30 44815 C 1090.7 -1.98587 -2.78314 0
M  V30 44816 O 1090.61 -2.98134 -2.08835 0
M  V30 44817 N 1090.66 -0.714467 -2.24925 0
M  V30 44818 C 1090.75 0.470001 -2.94169 0
M  V30 44819 C 1090.9 0.312541 -4.36783 0
M  V30 44820 C 1090.95 -0.914512 -4.92583 0
M  V30 44821 H 1093.69 -3.41169 -7.98575 0
M  V30 44822 H 1093.96 -2.58295 -6.41556 0
M  V30 44823 H 1093.1 -5.02657 -6.42673 0
M  V30 44824 H 1090.44 -4.11637 -4.08885 0
M  V30 44825 H 1090.16 -2.49626 -6.61679 0
M  V30 44826 H 1089.17 -3.86566 -6.00778 0
M  V30 44827 H 1091 -4.29943 -7.96918 0
M  V30 44828 H 1091.08 -1.00937 -6.00374 0
M  V30 44829 P 1089.13 -6.144 -6.45285 0
M  V30 44830 O 1088.91 -7.54673 -6.86199 0
M  V30 44831 O 1088.34 -5.12391 -7.179 0
M  V30 44832 O 1088.88 -5.99236 -4.88467 0
M  V30 44833 C 1089.82 -6.60234 -3.96415 0
M  V30 44834 C 1089.09 -7.08079 -2.736 0
M  V30 44835 O 1088.88 -5.94365 -1.8368 0
M  V30 44836 C 1087.69 -7.64886 -2.9555 0
M  V30 44837 O 1087.3 -8.5406 -1.90739 0
M  V30 44838 C 1086.81 -6.4116 -2.90739 0
M  V30 44839 C 1087.52 -5.55375 -1.86963 0
M  V30 44840 N 1087.47 -4.09664 -2.15742 0
M  V30 44841 C 1087.32 -3.22231 -1.08477 0
M  V30 44842 O 1087.23 -3.68951 0.0600489 0
M  V30 44843 N 1087.27 -1.76692 -1.48799 0
M  V30 44844 C 1087.37 -1.41695 -2.57602 0
M  V30 44845 N 1087.32 -0.107296 -2.75791 0
M  V30 44846 C 1087.52 -2.29178 -3.69733 0
M  V30 44847 C 1087.57 -3.62753 -3.42653 0
M  V30 44848 H 1090.31 -7.45488 -4.45578 0
M  V30 44849 H 1090.58 -5.86232 -3.67314 0
M  V30 44850 H 1089.72 -7.84508 -2.24507 0
M  V30 44851 H 1087.06 -5.73556 -0.888715 0
M  V30 44852 H 1086.78 -5.9096 -3.88638 0
M  V30 44853 H 1085.79 -6.66053 -2.58894 0
M  V30 44854 H 1087.62 -8.16339 -3.92049 0
M  V30 44855 H 1087.7 -4.33052 -4.24913 0
M  V30 44856 H 1087.59 -1.9103 -4.71577 0
M  V30 44857 H 1087.21 0.521221 -1.95056 0
M  V30 44858 H 1087.4 0.286429 -3.70695 0
M  V30 44859 P 1085.75 -8.7635 -1.60911 0
M  V30 44860 O 1085.53 -10.1388 -1.11561 0
M  V30 44861 O 1084.96 -8.36503 -2.79617 0
M  V30 44862 O 1085.5 -7.71806 -0.42951 0
M  V30 44863 C 1086.44 -7.67148 0.673689 0
M  V30 44864 C 1085.71 -7.33374 1.95559 0
M  V30 44865 O 1085.5 -5.88721 2.00726 0
M  V30 44866 C 1084.31 -7.92526 2.10483 0
M  V30 44867 O 1083.92 -8.02971 3.47653 0
M  V30 44868 C 1083.43 -6.89602 1.41652 0
M  V30 44869 C 1084.14 -5.59201 1.75185 0
M  V30 44870 N 1084.09 -4.58235 0.662552 0
M  V30 44871 H 1086.93 -8.65116 0.777161 0
M  V30 44872 H 1087.2 -6.90173 0.474152 0
M  V30 44873 H 1086.34 -7.66548 2.79458 0
M  V30 44874 P 1082.37 -8.03563 3.84925 0
M  V30 44875 O 1082.15 -8.85821 5.0569 0
M  V30 44876 O 1081.58 -8.41101 2.65469 0
M  V30 44877 O 1082.12 -6.4965 4.18908 0
M  V30 44878 C 1083.06 -5.81037 5.05421 0
M  V30 44879 C 1082.33 -4.78366 5.89277 0
M  V30 44880 O 1082.12 -3.58302 5.08433 0
M  V30 44881 C 1080.93 -5.17448 6.36119 0
M  V30 44882 O 1080.54 -4.45271 7.53232 0
M  V30 44883 C 1080.05 -4.74639 5.19936 0
M  V30 44884 C 1080.76 -3.49432 4.70418 0
M  V30 44885 N 1080.71 -3.32099 3.22613 0
M  V30 44886 H 1083.55 -6.54213 5.71376 0
M  V30 44887 H 1083.82 -5.30936 4.43503 0
M  V30 44888 H 1082.96 -4.55889 6.76652 0
M  V30 44889 H 1080.3 -2.61715 5.17932 0
M  V30 44890 H 1080.02 -5.52155 4.41878 0
M  V30 44891 H 1079.03 -4.51981 5.53374 0
M  V30 44892 H 1080.86 -6.25124 6.55234 0
M  V30 44893 P 1078.99 -4.23843 7.83734 0
M  V30 44894 O 1078.77 -4.19407 9.29784 0
M  V30 44895 O 1078.2 -5.24426 7.09156 0
M  V30 44896 O 1078.74 -2.7935 7.20758 0
M  V30 44897 C 1079.68 -1.7299 7.50419 0
M  V30 44898 C 1078.95 -0.406376 7.57911 0
M  V30 44899 O 1078.74 0.0897726 6.21935 0
M  V30 44900 C 1077.55 -0.447224 8.1878 0
M  V30 44901 O 1077.16 0.825065 8.71101 0
M  V30 44902 C 1076.67 -0.783801 6.99623 0
M  V30 44903 C 1077.38 -0.0619192 5.85967 0
M  V30 44904 N 1077.33 -0.7859 4.56281 0
M  V30 44905 H 1080.17 -1.93423 8.4679 0
M  V30 44906 H 1080.44 -1.68181 6.71046 0
M  V30 44907 H 1079.58 0.289041 8.15388 0
M  V30 44908 P 1075.61 1.17771 8.83182 0
M  V30 44909 O 1075.39 2.07206 9.98732 0
M  V30 44910 O 1074.82 -0.0743816 8.81969 0
M  V30 44911 O 1075.36 1.97652 7.47304 0
M  V30 44912 C 1076.3 3.01055 7.08599 0
M  V30 44913 C 1075.57 4.12613 6.37049 0
M  V30 44914 O 1075.36 3.72827 4.97879 0
M  V30 44915 C 1074.17 4.45719 6.88164 0
M  V30 44916 O 1073.78 5.7877 6.5624 0
M  V30 44917 C 1073.29 3.47768 6.11991 0
M  V30 44918 C 1074 3.39356 4.77615 0
M  V30 44919 N 1073.95 2.04571 4.15244 0
M  V30 44920 C 1073.8 1.98587 2.78314 0
M  V30 44921 O 1073.71 2.98134 2.08835 0
M  V30 44922 N 1073.76 0.714467 2.24925 0
M  V30 44923 C 1073.85 -0.470001 2.94169 0
M  V30 44924 C 1074 -0.312541 4.36783 0
M  V30 44925 C 1074.05 0.914512 4.92583 0
M  V30 44926 H 1076.79 3.41169 7.98575 0
M  V30 44927 H 1077.06 2.58295 6.41556 0
M  V30 44928 H 1076.2 5.02657 6.42673 0
M  V30 44929 H 1073.54 4.11637 4.08885 0
M  V30 44930 H 1073.26 2.49626 6.61679 0
M  V30 44931 H 1072.27 3.86566 6.00778 0
M  V30 44932 H 1074.1 4.29943 7.96918 0
M  V30 44933 H 1074.18 1.00937 6.00374 0
M  V30 44934 P 1072.23 6.144 6.45285 0
M  V30 44935 O 1072.01 7.54673 6.86199 0
M  V30 44936 O 1071.44 5.12391 7.179 0
M  V30 44937 O 1071.98 5.99158 4.88404 0
M  V30 44938 C 1072.92 6.60234 3.96415 0
M  V30 44939 C 1072.19 7.08259 2.72856 0
M  V30 44940 O 1071.98 5.9427 1.83651 0
M  V30 44941 C 1070.79 7.64886 2.9555 0
M  V30 44942 O 1070.4 8.53963 1.90717 0
M  V30 44943 C 1069.91 6.4116 2.90739 0
M  V30 44944 C 1070.62 5.55375 1.86963 0
M  V30 44945 N 1070.57 4.09664 2.15742 0
M  V30 44946 C 1070.65 3.44381 3.37233 0
M  V30 44947 N 1070.57 2.14131 3.28347 0
M  V30 44948 C 1070.43 1.90247 1.91588 0
M  V30 44949 C 1070.3 0.683992 1.20892 0
M  V30 44950 N 1070.18 0.903396 -0.173998 0
M  V30 44951 C 1070.18 2.14171 -0.784879 0
M  V30 44952 N 1070.05 2.1435 -2.11317 0
M  V30 44953 N 1070.31 3.28784 -0.119316 0
M  V30 44954 C 1070.43 3.0977 1.22194 0
M  V30 44955 H 1073.41 7.45574 4.45629 0
M  V30 44956 H 1073.68 5.86232 3.67314 0
M  V30 44957 H 1072.82 7.84412 2.24479 0
M  V30 44958 P 1068.85 8.7635 1.60911 0
M  V30 44959 O 1068.63 10.1388 1.11561 0
M  V30 44960 O 1068.06 8.36503 2.79617 0
M  V30 44961 O 1068.6 7.71806 0.42951 0
M  V30 44962 C 1069.54 7.67148 -0.673689 0
M  V30 44963 C 1068.81 7.33374 -1.95559 0
M  V30 44964 O 1068.6 5.88721 -2.00726 0
M  V30 44965 C 1067.41 7.92526 -2.10483 0
M  V30 44966 O 1067.02 8.02971 -3.47653 0
M  V30 44967 C 1066.53 6.89602 -1.41652 0
M  V30 44968 C 1067.24 5.59201 -1.75185 0
M  V30 44969 N 1067.19 4.58235 -0.662552 0
M  V30 44970 H 1070.03 8.65116 -0.777161 0
M  V30 44971 H 1070.3 6.90173 -0.474152 0
M  V30 44972 H 1069.44 7.66548 -2.79458 0
M  V30 44973 P 1065.47 8.03563 -3.84925 0
M  V30 44974 O 1065.25 8.85821 -5.0569 0
M  V30 44975 O 1064.68 8.41101 -2.65469 0
M  V30 44976 O 1065.22 6.49734 -4.18962 0
M  V30 44977 C 1066.16 5.81037 -5.05421 0
M  V30 44978 C 1065.43 4.79018 -5.88876 0
M  V30 44979 O 1065.22 3.58359 -5.08515 0
M  V30 44980 C 1064.03 5.17448 -6.36119 0
M  V30 44981 O 1063.64 4.45322 -7.53318 0
M  V30 44982 C 1063.15 4.74639 -5.19936 0
M  V30 44983 C 1063.86 3.49432 -4.70418 0
M  V30 44984 N 1063.81 3.31776 -3.22945 0
M  V30 44985 C 1063.66 2.02742 -2.72939 0
M  V30 44986 O 1063.57 1.08301 -3.52749 0
M  V30 44987 N 1063.61 1.96117 -1.22063 0
M  V30 44988 C 1063.71 2.8878 -0.551566 0
M  V30 44989 N 1063.66 2.65609 0.750198 0
M  V30 44990 C 1063.86 4.22457 -1.03707 0
M  V30 44991 C 1063.91 4.37979 -2.39113 0
M  V30 44992 H 1066.65 6.54138 -5.7131 0
M  V30 44993 H 1066.92 5.30492 -4.44033 0
M  V30 44994 H 1066.06 4.55945 -6.76735 0
M  V30 44995 H 1063.4 2.6176 -5.18021 0
M  V30 44996 H 1063.12 5.52233 -4.41941 0
M  V30 44997 H 1062.13 4.52045 -5.53452 0
M  V30 44998 H 1063.96 6.25124 -6.55234 0
M  V30 44999 H 1064.04 5.37936 -2.80552 0
M  V30 45000 H 1063.93 5.07528 -0.359553 0
M  V30 45001 H 1063.55 1.69403 1.09847 0
M  V30 45002 H 1063.74 3.43701 1.41792 0
M  V30 45003 P 1062.09 4.23843 -7.83734 0
M  V30 45004 O 1061.87 4.19407 -9.29784 0
M  V30 45005 O 1061.3 5.24426 -7.09156 0
M  V30 45006 O 1061.84 2.7935 -7.20758 0
M  V30 45007 C 1062.78 1.7299 -7.50419 0
M  V30 45008 C 1062.05 0.406376 -7.57911 0
M  V30 45009 O 1061.84 -0.0897726 -6.21935 0
M  V30 45010 C 1060.65 0.447224 -8.1878 0
M  V30 45011 O 1060.26 -0.825065 -8.71101 0
M  V30 45012 C 1059.77 0.783801 -6.99623 0
M  V30 45013 C 1060.48 0.0619192 -5.85967 0
M  V30 45014 N 1060.43 0.7859 -4.56281 0
M  V30 45015 H 1063.27 1.93423 -8.4679 0
M  V30 45016 H 1063.54 1.68181 -6.71046 0
M  V30 45017 H 1062.68 -0.289041 -8.15388 0
M  V30 45018 P 1058.71 -1.17771 -8.83182 0
M  V30 45019 O 1058.49 -2.07206 -9.98732 0
M  V30 45020 O 1057.92 0.0743816 -8.81969 0
M  V30 45021 O 1058.46 -1.97652 -7.47304 0
M  V30 45022 C 1059.4 -3.01133 -7.08783 0
M  V30 45023 C 1058.67 -4.12613 -6.37049 0
M  V30 45024 O 1058.46 -3.72827 -4.97879 0
M  V30 45025 C 1057.27 -4.45085 -6.88694 0
M  V30 45026 O 1056.88 -5.7877 -6.5624 0
M  V30 45027 C 1056.39 -3.47817 -6.12078 0
M  V30 45028 C 1057.1 -3.39414 -4.77697 0
M  V30 45029 N 1057.05 -2.04199 -4.15538 0
M  V30 45030 C 1057.13 -0.821545 -4.76977 0
M  V30 45031 N 1057.06 0.1794 -3.94592 0
M  V30 45032 C 1056.91 -0.419121 -2.70776 0
M  V30 45033 C 1056.78 0.109072 -1.40577 0
M  V30 45034 N 1056.77 1.4104 -1.1344 0
M  V30 45035 N 1056.66 -0.764381 -0.39411 0
M  V30 45036 C 1056.67 -2.06587 -0.664135 0
M  V30 45037 N 1056.79 -2.67948 -1.82153 0
M  V30 45038 C 1056.91 -1.77942 -2.8147 0
M  V30 45039 H 1059.89 -3.41248 -7.98759 0
M  V30 45040 H 1060.16 -2.57728 -6.42 0
M  V30 45041 H 1059.3 -5.02657 -6.42673 0
M  V30 45042 H 1056.64 -4.11708 -4.08956 0
M  V30 45043 H 1056.36 -2.49626 -6.61679 0
M  V30 45044 H 1055.37 -3.8662 -6.00862 0
M  V30 45045 H 1057.2 -4.29991 -7.97006 0
M  V30 45046 H 1057.25 -0.702451 -5.84696 0
M  V30 45047 H 1056.86 2.09647 -1.89651 0
M  V30 45048 H 1056.68 1.73358 -0.160575 0
M  V30 45049 H 1056.57 -2.71695 0.195838 0
M  V30 45050 P 1055.33 -6.144 -6.45285 0
M  V30 45051 O 1055.11 -7.54673 -6.86199 0
M  V30 45052 O 1054.54 -5.12391 -7.179 0
M  V30 45053 O 1055.08 -5.99158 -4.88404 0
M  V30 45054 C 1056.02 -6.60234 -3.96415 0
M  V30 45055 C 1055.29 -7.08259 -2.72856 0
M  V30 45056 O 1055.08 -5.9427 -1.83651 0
M  V30 45057 C 1053.89 -7.64886 -2.9555 0
M  V30 45058 O 1053.5 -8.53963 -1.90717 0
M  V30 45059 C 1053.01 -6.4116 -2.90739 0
M  V30 45060 C 1053.72 -5.55375 -1.86963 0
M  V30 45061 N 1053.67 -4.09664 -2.15742 0
M  V30 45062 H 1056.51 -7.45574 -4.45629 0
M  V30 45063 H 1056.78 -5.86232 -3.67314 0
M  V30 45064 H 1055.92 -7.84412 -2.24479 0
M  V30 45065 P 1051.95 -8.7635 -1.60911 0
M  V30 45066 O 1051.73 -10.1388 -1.11561 0
M  V30 45067 O 1051.16 -8.36503 -2.79617 0
M  V30 45068 O 1051.7 -7.71806 -0.42951 0
M  V30 45069 C 1052.64 -7.67148 0.673689 0
M  V30 45070 C 1051.91 -7.33374 1.95559 0
M  V30 45071 O 1051.7 -5.88721 2.00726 0
M  V30 45072 C 1050.51 -7.92526 2.10483 0
M  V30 45073 O 1050.12 -8.02971 3.47653 0
M  V30 45074 C 1049.63 -6.89602 1.41652 0
M  V30 45075 C 1050.34 -5.59201 1.75185 0
M  V30 45076 N 1050.29 -4.58235 0.662552 0
M  V30 45077 H 1053.13 -8.65116 0.777161 0
M  V30 45078 H 1053.4 -6.90173 0.474152 0
M  V30 45079 H 1052.54 -7.66548 2.79458 0
M  V30 45080 P 1048.57 -8.03563 3.84925 0
M  V30 45081 O 1048.35 -8.85821 5.0569 0
M  V30 45082 O 1047.78 -8.41101 2.65469 0
M  V30 45083 O 1048.32 -6.49734 4.18962 0
M  V30 45084 C 1049.26 -5.81037 5.05421 0
M  V30 45085 C 1048.53 -4.79018 5.88876 0
M  V30 45086 O 1048.32 -3.58359 5.08515 0
M  V30 45087 C 1047.13 -5.17448 6.36119 0
M  V30 45088 O 1046.74 -4.45322 7.53318 0
M  V30 45089 C 1046.25 -4.74639 5.19936 0
M  V30 45090 C 1046.96 -3.49432 4.70418 0
M  V30 45091 N 1046.91 -3.31776 3.22945 0
M  V30 45092 C 1046.76 -2.02742 2.72939 0
M  V30 45093 O 1046.67 -1.08301 3.52749 0
M  V30 45094 N 1046.71 -1.96117 1.22063 0
M  V30 45095 C 1046.81 -2.8878 0.551566 0
M  V30 45096 N 1046.76 -2.65609 -0.750198 0
M  V30 45097 C 1046.96 -4.22457 1.03707 0
M  V30 45098 C 1047.01 -4.37979 2.39113 0
M  V30 45099 H 1049.75 -6.54138 5.7131 0
M  V30 45100 H 1050.02 -5.30492 4.44033 0
M  V30 45101 H 1049.16 -4.55945 6.76735 0
M  V30 45102 H 1046.5 -2.6176 5.18021 0
M  V30 45103 H 1046.22 -5.52233 4.41941 0
M  V30 45104 H 1045.23 -4.52045 5.53452 0
M  V30 45105 H 1047.06 -6.25124 6.55234 0
M  V30 45106 H 1047.14 -5.37936 2.80552 0
M  V30 45107 H 1047.03 -5.07528 0.359553 0
M  V30 45108 H 1046.65 -1.69403 -1.09847 0
M  V30 45109 H 1046.84 -3.43701 -1.41792 0
M  V30 45110 P 1045.19 -4.23843 7.83734 0
M  V30 45111 O 1044.97 -4.19407 9.29784 0
M  V30 45112 O 1044.4 -5.24426 7.09156 0
M  V30 45113 O 1044.94 -2.7935 7.20758 0
M  V30 45114 C 1045.88 -1.7299 7.50419 0
M  V30 45115 C 1045.15 -0.406376 7.57911 0
M  V30 45116 O 1044.94 0.0897726 6.21935 0
M  V30 45117 C 1043.75 -0.447224 8.1878 0
M  V30 45118 O 1043.36 0.825065 8.71101 0
M  V30 45119 C 1042.87 -0.783801 6.99623 0
M  V30 45120 C 1043.58 -0.0619192 5.85967 0
M  V30 45121 N 1043.53 -0.7859 4.56281 0
M  V30 45122 H 1046.37 -1.93423 8.4679 0
M  V30 45123 H 1046.64 -1.68181 6.71046 0
M  V30 45124 H 1045.78 0.289041 8.15388 0
M  V30 45125 P 1041.81 1.17771 8.83182 0
M  V30 45126 O 1041.59 2.07206 9.98732 0
M  V30 45127 O 1041.02 -0.0743816 8.81969 0
M  V30 45128 O 1041.56 1.97652 7.47304 0
M  V30 45129 C 1042.5 3.01133 7.08783 0
M  V30 45130 C 1041.77 4.12613 6.37049 0
M  V30 45131 O 1041.56 3.72827 4.97879 0
M  V30 45132 C 1040.37 4.45085 6.88694 0
M  V30 45133 O 1039.98 5.7877 6.5624 0
M  V30 45134 C 1039.49 3.47817 6.12078 0
M  V30 45135 C 1040.2 3.39414 4.77697 0
M  V30 45136 N 1040.15 2.04615 4.15333 0
M  V30 45137 H 1042.99 3.41248 7.98759 0
M  V30 45138 H 1043.26 2.5837 6.41742 0
M  V30 45139 H 1042.4 5.02657 6.42673 0
M  V30 45140 P 1038.43 6.144 6.45285 0
M  V30 45141 O 1038.21 7.54673 6.86199 0
M  V30 45142 O 1037.64 5.12391 7.179 0
M  V30 45143 O 1038.18 5.99158 4.88404 0
M  V30 45144 C 1039.12 6.60234 3.96415 0
M  V30 45145 C 1038.39 7.08259 2.72856 0
M  V30 45146 O 1038.18 5.9427 1.83651 0
M  V30 45147 C 1036.99 7.64886 2.9555 0
M  V30 45148 O 1036.6 8.53963 1.90717 0
M  V30 45149 C 1036.11 6.4116 2.90739 0
M  V30 45150 C 1036.82 5.55375 1.86963 0
M  V30 45151 N 1036.77 4.09448 2.16152 0
M  V30 45152 H 1039.61 7.45574 4.45629 0
M  V30 45153 H 1039.88 5.85864 3.679 0
M  V30 45154 H 1039.02 7.84412 2.24479 0
M  V30 45155 H 1036.36 5.73457 0.888562 0
M  V30 45156 H 1036.08 5.90877 3.88583 0
M  V30 45157 H 1035.09 6.6596 2.58858 0
M  V30 45158 H 1036.92 8.16339 3.92049 0
M  V30 45159 P 1035.05 8.7635 1.60911 0
M  V30 45160 O 1034.83 10.1388 1.11561 0
M  V30 45161 O 1034.26 8.36503 2.79617 0
M  V30 45162 O 1034.8 7.71806 0.42951 0
M  V30 45163 C 1035.74 7.67148 -0.673689 0
M  V30 45164 C 1035.01 7.33374 -1.95559 0
M  V30 45165 O 1034.8 5.88721 -2.00726 0
M  V30 45166 C 1033.61 7.92526 -2.10483 0
M  V30 45167 O 1033.22 8.02971 -3.47653 0
M  V30 45168 C 1032.73 6.89602 -1.41652 0
M  V30 45169 C 1033.44 5.59201 -1.75185 0
M  V30 45170 N 1033.39 4.58235 -0.662552 0
M  V30 45171 H 1036.23 8.65116 -0.777161 0
M  V30 45172 H 1036.5 6.90173 -0.474152 0
M  V30 45173 H 1035.64 7.66548 -2.79458 0
M  V30 45174 P 1031.67 8.03563 -3.84925 0
M  V30 45175 O 1031.45 8.85821 -5.0569 0
M  V30 45176 O 1030.88 8.41101 -2.65469 0
M  V30 45177 O 1031.42 6.4965 -4.18908 0
M  V30 45178 C 1032.36 5.81037 -5.05421 0
M  V30 45179 C 1031.63 4.78366 -5.89277 0
M  V30 45180 O 1031.42 3.58302 -5.08433 0
M  V30 45181 C 1030.23 5.17448 -6.36119 0
M  V30 45182 O 1029.84 4.45271 -7.53232 0
M  V30 45183 C 1029.35 4.74639 -5.19936 0
M  V30 45184 C 1030.06 3.49432 -4.70418 0
M  V30 45185 N 1030.01 3.31776 -3.22945 0
M  V30 45186 H 1032.85 6.54213 -5.71376 0
M  V30 45187 H 1033.12 5.30492 -4.44033 0
M  V30 45188 H 1032.26 4.55889 -6.76652 0
M  V30 45189 P 1028.29 4.23843 -7.83734 0
M  V30 45190 O 1028.07 4.19407 -9.29784 0
M  V30 45191 O 1027.5 5.24426 -7.09156 0
M  V30 45192 O 1028.04 2.7935 -7.20758 0
M  V30 45193 C 1028.98 1.7299 -7.50419 0
M  V30 45194 C 1028.25 0.406376 -7.57911 0
M  V30 45195 O 1028.04 -0.0897726 -6.21935 0
M  V30 45196 C 1026.85 0.447224 -8.1878 0
M  V30 45197 O 1026.46 -0.825065 -8.71101 0
M  V30 45198 C 1025.97 0.783801 -6.99623 0
M  V30 45199 C 1026.68 0.0619192 -5.85967 0
M  V30 45200 N 1026.63 0.7859 -4.56281 0
M  V30 45201 H 1029.47 1.93423 -8.4679 0
M  V30 45202 H 1029.74 1.68181 -6.71046 0
M  V30 45203 H 1028.88 -0.289041 -8.15388 0
M  V30 45204 P 1024.91 -1.17771 -8.83182 0
M  V30 45205 O 1024.69 -2.07206 -9.98732 0
M  V30 45206 O 1024.12 0.0743816 -8.81969 0
M  V30 45207 O 1024.66 -1.97652 -7.47304 0
M  V30 45208 C 1025.6 -3.01055 -7.08599 0
M  V30 45209 C 1024.87 -4.12613 -6.37049 0
M  V30 45210 O 1024.66 -3.72827 -4.97879 0
M  V30 45211 C 1023.47 -4.45719 -6.88164 0
M  V30 45212 O 1023.08 -5.7877 -6.5624 0
M  V30 45213 C 1022.59 -3.47768 -6.11991 0
M  V30 45214 C 1023.3 -3.39356 -4.77615 0
M  V30 45215 N 1023.25 -2.04571 -4.15244 0
M  V30 45216 C 1023.1 -1.98587 -2.78314 0
M  V30 45217 O 1023.01 -2.98134 -2.08835 0
M  V30 45218 N 1023.06 -0.714467 -2.24925 0
M  V30 45219 C 1023.15 0.470001 -2.94169 0
M  V30 45220 C 1023.3 0.312541 -4.36783 0
M  V30 45221 C 1023.35 -0.914512 -4.92583 0
M  V30 45222 H 1026.09 -3.41169 -7.98575 0
M  V30 45223 H 1026.36 -2.58295 -6.41556 0
M  V30 45224 H 1025.5 -5.02657 -6.42673 0
M  V30 45225 H 1022.84 -4.11637 -4.08885 0
M  V30 45226 H 1022.56 -2.49626 -6.61679 0
M  V30 45227 H 1021.57 -3.86566 -6.00778 0
M  V30 45228 H 1023.4 -4.29943 -7.96918 0
M  V30 45229 H 1023.48 -1.00937 -6.00374 0
M  V30 45230 P 1021.53 -6.144 -6.45285 0
M  V30 45231 O 1021.31 -7.54673 -6.86199 0
M  V30 45232 O 1020.74 -5.12391 -7.179 0
M  V30 45233 O 1021.28 -5.99158 -4.88404 0
M  V30 45234 C 1022.22 -6.60234 -3.96415 0
M  V30 45235 C 1021.49 -7.08259 -2.72856 0
M  V30 45236 O 1021.28 -5.9427 -1.83651 0
M  V30 45237 C 1020.09 -7.64886 -2.9555 0
M  V30 45238 O 1019.7 -8.53963 -1.90717 0
M  V30 45239 C 1019.21 -6.4116 -2.90739 0
M  V30 45240 C 1019.92 -5.55375 -1.86963 0
M  V30 45241 N 1019.87 -4.09448 -2.16152 0
M  V30 45242 C 1019.95 -3.46824 -3.37593 0
M  V30 45243 N 1019.88 -2.17422 -3.29777 0
M  V30 45244 C 1019.73 -1.93065 -1.94427 0
M  V30 45245 C 1019.6 -0.738053 -1.20141 0
M  V30 45246 N 1019.59 0.474256 -1.74676 0
M  V30 45247 N 1019.48 -0.850049 0.13045 0
M  V30 45248 C 1019.49 -2.06169 0.676992 0
M  V30 45249 N 1019.61 -3.23842 0.101312 0
M  V30 45250 C 1019.73 -3.09402 -1.23122 0
M  V30 45251 H 1022.71 -7.45574 -4.45629 0
M  V30 45252 H 1022.98 -5.85864 -3.679 0
M  V30 45253 H 1022.12 -7.84412 -2.24479 0
M  V30 45254 H 1019.46 -5.73457 -0.888562 0
M  V30 45255 H 1019.18 -5.90877 -3.88583 0
M  V30 45256 H 1018.19 -6.6596 -2.58858 0
M  V30 45257 H 1020.02 -8.16339 -3.92049 0
M  V30 45258 H 1020.07 -4.00505 -4.3174 0
M  V30 45259 H 1019.68 0.581337 -2.76658 0
M  V30 45260 H 1019.5 1.30811 -1.14888 0
M  V30 45261 H 1019.39 -2.08295 1.75542 0
M  V30 45262 P 1018.15 -8.7635 -1.60911 0
M  V30 45263 O 1017.93 -10.1388 -1.11561 0
M  V30 45264 O 1017.36 -8.36503 -2.79617 0
M  V30 45265 O 1017.9 -7.71806 -0.42951 0
M  V30 45266 C 1018.84 -7.67148 0.673689 0
M  V30 45267 C 1018.11 -7.33374 1.95559 0
M  V30 45268 O 1017.9 -5.88721 2.00726 0
M  V30 45269 C 1016.71 -7.92526 2.10483 0
M  V30 45270 O 1016.32 -8.02971 3.47653 0
M  V30 45271 C 1015.83 -6.89602 1.41652 0
M  V30 45272 C 1016.54 -5.59201 1.75185 0
M  V30 45273 N 1016.49 -4.58301 0.657969 0
M  V30 45274 C 1016.57 -4.79019 -0.692603 0
M  V30 45275 N 1016.5 -3.69736 -1.38998 0
M  V30 45276 C 1016.35 -2.70474 -0.438135 0
M  V30 45277 C 1016.22 -1.30327 -0.538142 0
M  V30 45278 N 1016.21 -0.64304 -1.69192 0
M  V30 45279 N 1016.1 -0.611027 0.605183 0
M  V30 45280 C 1016.11 -1.27002 1.75953 0
M  V30 45281 N 1016.23 -2.56038 1.98546 0
M  V30 45282 C 1016.35 -3.22681 0.822541 0
M  V30 45283 H 1019.33 -8.65116 0.777161 0
M  V30 45284 H 1019.61 -6.9022 0.46725 0
M  V30 45285 H 1018.74 -7.66548 2.79458 0
M  V30 45286 H 1016.08 -5.16165 2.65183 0
M  V30 45287 H 1015.8 -7.06433 0.329384 0
M  V30 45288 H 1014.81 -6.90926 1.82021 0
M  V30 45289 H 1016.65 -8.90873 1.62657 0
M  V30 45290 H 1016.69 -5.77785 -1.13874 0
M  V30 45291 H 1016.31 -1.15585 -2.57991 0
M  V30 45292 H 1016.12 0.382989 -1.69835 0
M  V30 45293 H 1016.01 -0.653331 2.64449 0
M  V30 45294 P 1014.77 -8.03563 3.84925 0
M  V30 45295 O 1014.55 -8.85821 5.0569 0
M  V30 45296 O 1013.98 -8.41101 2.65469 0
M  V30 45297 O 1014.52 -6.4965 4.18908 0
M  V30 45298 C 1015.46 -5.80886 5.05289 0
M  V30 45299 C 1014.73 -4.78366 5.89277 0
M  V30 45300 O 1014.52 -3.58302 5.08433 0
M  V30 45301 C 1013.33 -5.16748 6.36559 0
M  V30 45302 O 1012.94 -4.45271 7.53232 0
M  V30 45303 C 1012.45 -4.74572 5.19863 0
M  V30 45304 C 1013.16 -3.49373 4.70338 0
M  V30 45305 N 1013.11 -3.31704 3.22876 0
M  V30 45306 C 1012.96 -2.03326 2.74871 0
M  V30 45307 O 1012.87 -1.06486 3.48076 0
M  V30 45308 N 1012.92 -1.91838 1.37456 0
M  V30 45309 C 1013.01 -2.94295 0.462035 0
M  V30 45310 O 1012.96 -2.71763 -0.752928 0
M  V30 45311 C 1013.16 -4.25064 1.05249 0
M  V30 45312 C 1013.27 -5.39815 0.095697 0
M  V30 45313 C 1013.21 -4.40214 2.39192 0
M  V30 45314 H 1015.96 -6.54063 5.71245 0
M  V30 45315 H 1016.22 -5.30339 4.43905 0
M  V30 45316 H 1015.36 -4.55889 6.76652 0
M  V30 45317 H 1012.7 -2.6167 5.17842 0
M  V30 45318 H 1012.42 -5.52155 4.41878 0
M  V30 45319 H 1011.43 -4.51918 5.53297 0
M  V30 45320 H 1013.27 -6.25055 6.55162 0
M  V30 45321 H 1013.34 -5.39798 2.81523 0
M  V30 45322 H 1012.31 -5.91593 0.0279582 0
M  V30 45323 H 1014.04 -6.10038 0.450573 0
M  V30 45324 H 1013.56 -5.02007 -0.89937 0
M  V30 45325 H 1012.82 -0.995326 1.00435 0
M  V30 45326 P 1011.39 -4.23843 7.83734 0
M  V30 45327 O 1011.17 -4.19407 9.29784 0
M  V30 45328 O 1010.6 -5.24426 7.09156 0
M  V30 45329 O 1011.14 -2.7935 7.20758 0
M  V30 45330 C 1012.08 -1.7299 7.50419 0
M  V30 45331 C 1011.35 -0.406376 7.57911 0
M  V30 45332 O 1011.14 0.0897726 6.21935 0
M  V30 45333 C 1009.95 -0.447224 8.1878 0
M  V30 45334 O 1009.56 0.825065 8.71101 0
M  V30 45335 C 1009.07 -0.783801 6.99623 0
M  V30 45336 C 1009.78 -0.0619192 5.85967 0
M  V30 45337 N 1009.73 -0.790462 4.56202 0
M  V30 45338 H 1012.57 -1.93423 8.4679 0
M  V30 45339 H 1012.85 -1.68852 6.70877 0
M  V30 45340 H 1011.98 0.289041 8.15388 0
M  V30 45341 H 1009.32 0.927006 5.72848 0
M  V30 45342 H 1009.04 -1.86973 6.82036 0
M  V30 45343 H 1008.05 -0.403953 7.13357 0
M  V30 45344 H 1009.89 -1.20599 8.97534 0
M  V30 45345 P 1008.01 1.17771 8.83182 0
M  V30 45346 O 1007.79 2.07206 9.98732 0
M  V30 45347 O 1007.22 -0.0743816 8.81969 0
M  V30 45348 O 1007.76 1.97652 7.47304 0
M  V30 45349 C 1008.7 3.01133 7.08783 0
M  V30 45350 C 1007.97 4.12613 6.37049 0
M  V30 45351 O 1007.76 3.72827 4.97879 0
M  V30 45352 C 1006.57 4.45085 6.88694 0
M  V30 45353 O 1006.18 5.7877 6.5624 0
M  V30 45354 C 1005.69 3.47817 6.12078 0
M  V30 45355 C 1006.4 3.39414 4.77697 0
M  V30 45356 N 1006.35 2.04615 4.15333 0
M  V30 45357 H 1009.19 3.41248 7.98759 0
M  V30 45358 H 1009.47 2.5837 6.41742 0
M  V30 45359 H 1008.6 5.02657 6.42673 0
M  V30 45360 P 1004.63 6.144 6.45285 0
M  V30 45361 O 1004.41 7.54673 6.86199 0
M  V30 45362 O 1003.84 5.12391 7.179 0
M  V30 45363 O 1004.38 5.99236 4.88467 0
M  V30 45364 C 1005.32 6.60234 3.96415 0
M  V30 45365 C 1004.59 7.08079 2.736 0
M  V30 45366 O 1004.38 5.94365 1.8368 0
M  V30 45367 C 1003.19 7.64886 2.9555 0
M  V30 45368 O 1002.8 8.5406 1.90739 0
M  V30 45369 C 1002.31 6.4116 2.90739 0
M  V30 45370 C 1003.02 5.55375 1.86963 0
M  V30 45371 N 1002.97 4.09664 2.15742 0
M  V30 45372 C 1002.82 3.22231 1.08477 0
M  V30 45373 O 1002.73 3.68951 -0.0600489 0
M  V30 45374 N 1002.77 1.76692 1.48799 0
M  V30 45375 C 1002.87 1.41695 2.57602 0
M  V30 45376 N 1002.82 0.107296 2.75791 0
M  V30 45377 C 1003.02 2.29178 3.69733 0
M  V30 45378 C 1003.07 3.62753 3.42653 0
M  V30 45379 H 1005.81 7.45488 4.45578 0
M  V30 45380 H 1006.08 5.86232 3.67314 0
M  V30 45381 H 1005.22 7.84508 2.24507 0
M  V30 45382 H 1002.56 5.73556 0.888715 0
M  V30 45383 H 1002.28 5.9096 3.88638 0
M  V30 45384 H 1001.29 6.66053 2.58894 0
M  V30 45385 H 1003.13 8.16339 3.92049 0
M  V30 45386 H 1003.2 4.33052 4.24913 0
M  V30 45387 H 1003.1 1.9103 4.71577 0
M  V30 45388 H 1002.71 -0.521221 1.95056 0
M  V30 45389 H 1002.9 -0.286429 3.70695 0
M  V30 45390 P 1001.25 8.7635 1.60911 0
M  V30 45391 O 1001.03 10.1388 1.11561 0
M  V30 45392 O 1000.46 8.36503 2.79617 0
M  V30 45393 O 1001 7.71906 0.429565 0
M  V30 45394 C 1001.94 7.67148 -0.673689 0
M  V30 45395 C 1001.21 7.33666 -1.94851 0
M  V30 45396 O 1001 5.88816 -2.00759 0
M  V30 45397 C 999.814 7.92526 -2.10483 0
M  V30 45398 O 999.424 8.03063 -3.47693 0
M  V30 45399 C 998.934 6.89602 -1.41652 0
M  V30 45400 C 999.644 5.59201 -1.75185 0
M  V30 45401 N 999.594 4.58235 -0.662552 0
M  V30 45402 C 999.444 3.24451 -1.01643 0
M  V30 45403 O 999.354 2.94958 -2.21722 0
M  V30 45404 N 999.394 2.30408 0.165238 0
M  V30 45405 C 999.494 2.66048 1.25118 0
M  V30 45406 N 999.444 1.70787 2.16813 0
M  V30 45407 C 999.644 4.02732 1.64413 0
M  V30 45408 C 999.694 4.9488 0.63991 0
M  V30 45409 H 1002.43 8.65017 -0.777072 0
M  V30 45410 H 1002.7 6.90173 -0.474152 0
M  V30 45411 H 1001.84 7.66642 -2.79492 0
M  V30 45412 H 999.182 5.16254 -2.65229 0
M  V30 45413 H 998.902 7.06532 -0.329431 0
M  V30 45414 H 997.911 6.91023 -1.82047 0
M  V30 45415 H 999.745 8.90873 -1.62657 0
M  V30 45416 H 999.817 6.00104 0.892197 0
M  V30 45417 H 999.715 4.31733 2.69229 0
M  V30 45418 H 999.327 0.724835 1.8844 0
M  V30 45419 H 999.523 1.94716 3.16734 0
M  V30 45420 P 997.874 8.03563 -3.84925 0
M  V30 45421 O 997.654 8.85821 -5.0569 0
M  V30 45422 O 997.084 8.41101 -2.65469 0
M  V30 45423 O 997.624 6.4965 -4.18908 0
M  V30 45424 C 998.564 5.81037 -5.05421 0
M  V30 45425 C 997.834 4.78366 -5.89277 0
M  V30 45426 O 997.624 3.58302 -5.08433 0
M  V30 45427 C 996.434 5.17448 -6.36119 0
M  V30 45428 O 996.044 4.45271 -7.53232 0
M  V30 45429 C 995.554 4.74639 -5.19936 0
M  V30 45430 C 996.264 3.49432 -4.70418 0
M  V30 45431 N 996.214 3.31776 -3.22945 0
M  V30 45432 H 999.053 6.54213 -5.71376 0
M  V30 45433 H 999.325 5.30492 -4.44033 0
M  V30 45434 H 998.457 4.55889 -6.76652 0
M  V30 45435 P 994.494 4.23843 -7.83734 0
M  V30 45436 O 994.274 4.19407 -9.29784 0
M  V30 45437 O 993.704 5.24426 -7.09156 0
M  V30 45438 O 994.244 2.7935 -7.20758 0
M  V30 45439 C 995.184 1.7299 -7.50419 0
M  V30 45440 C 994.454 0.406376 -7.57911 0
M  V30 45441 O 994.244 -0.0897726 -6.21935 0
M  V30 45442 C 993.054 0.447224 -8.1878 0
M  V30 45443 O 992.664 -0.825065 -8.71101 0
M  V30 45444 C 992.174 0.783801 -6.99623 0
M  V30 45445 C 992.884 0.0619192 -5.85967 0
M  V30 45446 N 992.834 0.7859 -4.56281 0
M  V30 45447 C 992.914 2.14308 -4.31736 0
M  V30 45448 N 992.834 2.46106 -3.05116 0
M  V30 45449 C 992.694 1.23422 -2.4014 0
M  V30 45450 C 992.564 0.938381 -1.02409 0
M  V30 45451 N 992.444 -0.444647 -0.805413 0
M  V30 45452 C 992.444 -1.40829 -1.79435 0
M  V30 45453 N 992.314 -2.67213 -1.38558 0
M  V30 45454 N 992.574 -1.12947 -3.09005 0
M  V30 45455 C 992.694 0.204887 -3.32369 0
M  V30 45456 H 995.673 1.93423 -8.4679 0
M  V30 45457 H 995.945 1.68181 -6.71046 0
M  V30 45458 H 995.077 -0.289041 -8.15388 0
M  V30 45459 P 991.114 -1.17771 -8.83182 0
M  V30 45460 O 990.894 -2.07206 -9.98732 0
M  V30 45461 O 990.324 0.0743816 -8.81969 0
M  V30 45462 O 990.864 -1.97652 -7.47304 0
M  V30 45463 C 991.804 -3.01133 -7.08783 0
M  V30 45464 C 991.074 -4.12613 -6.37049 0
M  V30 45465 O 990.864 -3.72827 -4.97879 0
M  V30 45466 C 989.674 -4.45085 -6.88694 0
M  V30 45467 O 989.284 -5.7877 -6.5624 0
M  V30 45468 C 988.794 -3.47817 -6.12078 0
M  V30 45469 C 989.504 -3.39414 -4.77697 0
M  V30 45470 N 989.454 -2.04199 -4.15538 0
M  V30 45471 H 992.293 -3.41248 -7.98759 0
M  V30 45472 H 992.565 -2.57728 -6.42 0
M  V30 45473 H 991.697 -5.02657 -6.42673 0
M  V30 45474 H 989.042 -4.11708 -4.08956 0
M  V30 45475 H 988.762 -2.49626 -6.61679 0
M  V30 45476 H 987.771 -3.8662 -6.00862 0
M  V30 45477 H 989.605 -4.29991 -7.97006 0
M  V30 45478 P 987.734 -6.144 -6.45285 0
M  V30 45479 O 987.514 -7.54673 -6.86199 0
M  V30 45480 O 986.944 -5.12391 -7.179 0
M  V30 45481 O 987.484 -5.99158 -4.88404 0
M  V30 45482 C 988.424 -6.60062 -3.96313 0
M  V30 45483 C 987.694 -7.08259 -2.72856 0
M  V30 45484 O 987.484 -5.9427 -1.83651 0
M  V30 45485 C 986.294 -7.65087 -2.94749 0
M  V30 45486 O 985.904 -8.53963 -1.90717 0
M  V30 45487 C 985.414 -6.41069 -2.90698 0
M  V30 45488 C 986.124 -5.5528 -1.86931 0
M  V30 45489 N 986.074 -4.09575 -2.15696 0
M  V30 45490 C 985.924 -3.24249 -1.08435 0
M  V30 45491 O 985.834 -3.63946 0.0628747 0
M  V30 45492 N 985.884 -1.90009 -1.39973 0
M  V30 45493 C 985.974 -1.34884 -2.65614 0
M  V30 45494 C 986.124 -2.3145 -3.71736 0
M  V30 45495 C 986.174 -3.63518 -3.44754 0
M  V30 45496 H 988.915 -7.45402 -4.45526 0
M  V30 45497 H 989.184 -5.86062 -3.67208 0
M  V30 45498 H 988.317 -7.84412 -2.24479 0
M  V30 45499 H 985.662 -5.73358 -0.888409 0
M  V30 45500 H 985.383 -5.90877 -3.88583 0
M  V30 45501 H 984.391 -6.65867 -2.58821 0
M  V30 45502 H 986.225 -8.16248 -3.92006 0
M  V30 45503 H 986.296 -4.34551 -4.26383 0
M  V30 45504 P 984.354 -8.7635 -1.60911 0
M  V30 45505 O 984.134 -10.1388 -1.11561 0
M  V30 45506 O 983.564 -8.36503 -2.79617 0
M  V30 45507 O 984.104 -7.71806 -0.42951 0
M  V30 45508 C 985.044 -7.67148 0.673689 0
M  V30 45509 C 984.314 -7.33374 1.95559 0
M  V30 45510 O 984.104 -5.88721 2.00726 0
M  V30 45511 C 982.914 -7.92526 2.10483 0
M  V30 45512 O 982.524 -8.02971 3.47653 0
M  V30 45513 C 982.034 -6.89602 1.41652 0
M  V30 45514 C 982.744 -5.59201 1.75185 0
M  V30 45515 N 982.694 -4.58235 0.662552 0
M  V30 45516 H 985.533 -8.65116 0.777161 0
M  V30 45517 H 985.805 -6.90173 0.474152 0
M  V30 45518 H 984.937 -7.66548 2.79458 0
M  V30 45519 P 980.974 -8.03563 3.84925 0
M  V30 45520 O 980.754 -8.85821 5.0569 0
M  V30 45521 O 980.184 -8.41101 2.65469 0
M  V30 45522 O 980.724 -6.4965 4.18908 0
M  V30 45523 C 981.664 -5.80886 5.05289 0
M  V30 45524 C 980.934 -4.78366 5.89277 0
M  V30 45525 O 980.724 -3.58302 5.08433 0
M  V30 45526 C 979.534 -5.16748 6.36559 0
M  V30 45527 O 979.144 -4.45271 7.53232 0
M  V30 45528 C 978.654 -4.74572 5.19863 0
M  V30 45529 C 979.364 -3.49373 4.70338 0
M  V30 45530 N 979.314 -3.31704 3.22876 0
M  V30 45531 C 979.164 -2.03326 2.74871 0
M  V30 45532 O 979.074 -1.06486 3.48076 0
M  V30 45533 N 979.124 -1.91838 1.37456 0
M  V30 45534 C 979.214 -2.94295 0.462035 0
M  V30 45535 O 979.164 -2.71763 -0.752928 0
M  V30 45536 C 979.364 -4.25064 1.05249 0
M  V30 45537 C 979.474 -5.39815 0.095697 0
M  V30 45538 C 979.414 -4.40214 2.39192 0
M  V30 45539 H 982.155 -6.54063 5.71245 0
M  V30 45540 H 982.424 -5.30339 4.43905 0
M  V30 45541 H 981.557 -4.55889 6.76652 0
M  V30 45542 H 978.902 -2.6167 5.17842 0
M  V30 45543 H 978.623 -5.52155 4.41878 0
M  V30 45544 H 977.631 -4.51918 5.53297 0
M  V30 45545 H 979.465 -6.25055 6.55162 0
M  V30 45546 H 979.536 -5.39798 2.81523 0
M  V30 45547 H 978.506 -5.91593 0.0279582 0
M  V30 45548 H 980.243 -6.10038 0.450573 0
M  V30 45549 H 979.755 -5.02007 -0.89937 0
M  V30 45550 H 979.019 -0.995326 1.00435 0
M  V30 45551 P 977.594 -4.23843 7.83734 0
M  V30 45552 O 977.374 -4.19407 9.29784 0
M  V30 45553 O 976.804 -5.24426 7.09156 0
M  V30 45554 O 977.344 -2.7935 7.20758 0
M  V30 45555 C 978.284 -1.7299 7.50419 0
M  V30 45556 C 977.554 -0.406376 7.57911 0
M  V30 45557 O 977.344 0.0897726 6.21935 0
M  V30 45558 C 976.154 -0.447224 8.1878 0
M  V30 45559 O 975.764 0.825065 8.71101 0
M  V30 45560 C 975.274 -0.783801 6.99623 0
M  V30 45561 C 975.984 -0.0619192 5.85967 0
M  V30 45562 N 975.934 -0.7859 4.56281 0
M  V30 45563 H 978.773 -1.93423 8.4679 0
M  V30 45564 H 979.045 -1.68181 6.71046 0
M  V30 45565 H 978.177 0.289041 8.15388 0
M  V30 45566 P 974.214 1.17771 8.83182 0
M  V30 45567 O 973.994 2.07206 9.98732 0
M  V30 45568 O 973.424 -0.0743816 8.81969 0
M  V30 45569 O 973.964 1.97652 7.47304 0
M  V30 45570 C 974.904 3.01133 7.08783 0
M  V30 45571 C 974.174 4.12613 6.37049 0
M  V30 45572 O 973.964 3.72827 4.97879 0
M  V30 45573 C 972.774 4.45085 6.88694 0
M  V30 45574 O 972.384 5.7877 6.5624 0
M  V30 45575 C 971.894 3.47817 6.12078 0
M  V30 45576 C 972.604 3.39414 4.77697 0
M  V30 45577 N 972.554 2.04615 4.15333 0
M  V30 45578 C 972.634 0.803897 4.75249 0
M  V30 45579 N 972.554 -0.197615 3.91502 0
M  V30 45580 C 972.414 0.413002 2.66823 0
M  V30 45581 C 972.284 -0.157221 1.38007 0
M  V30 45582 O 972.264 -1.34419 1.057 0
M  V30 45583 N 972.164 0.833136 0.390236 0
M  V30 45584 C 972.164 2.19402 0.623885 0
M  V30 45585 N 972.034 2.97622 -0.449677 0
M  V30 45586 N 972.294 2.73005 1.83601 0
M  V30 45587 C 972.414 1.78786 2.80935 0
M  V30 45588 H 975.393 3.41248 7.98759 0
M  V30 45589 H 975.665 2.5837 6.41742 0
M  V30 45590 H 974.797 5.02657 6.42673 0
M  V30 45591 H 972.142 4.11779 4.09026 0
M  V30 45592 H 971.862 2.49661 6.61772 0
M  V30 45593 H 970.871 3.86674 6.00946 0
M  V30 45594 H 972.705 4.30038 7.97094 0
M  V30 45595 H 972.754 0.670579 5.82754 0
M  V30 45596 H 972.072 0.528446 -0.557287 0
M  V30 45597 H 972.035 4.00117 -0.344773 0
M  V30 45598 H 971.934 2.55448 -1.38544 0
M  V30 45599 P 970.834 6.144 6.45285 0
M  V30 45600 O 970.614 7.54673 6.86199 0
M  V30 45601 O 970.044 5.12391 7.179 0
M  V30 45602 O 970.584 5.99158 4.88404 0
M  V30 45603 C 971.524 6.60234 3.96415 0
M  V30 45604 C 970.794 7.08259 2.72856 0
M  V30 45605 O 970.584 5.9427 1.83651 0
M  V30 45606 C 969.394 7.64886 2.9555 0
M  V30 45607 O 969.004 8.53963 1.90717 0
M  V30 45608 C 968.514 6.4116 2.90739 0
M  V30 45609 C 969.224 5.55375 1.86963 0
M  V30 45610 N 969.174 4.09664 2.15742 0
M  V30 45611 H 972.013 7.45574 4.45629 0
M  V30 45612 H 972.285 5.86232 3.67314 0
M  V30 45613 H 971.417 7.84412 2.24479 0
M  V30 45614 P 967.454 8.7635 1.60911 0
M  V30 45615 O 967.234 10.1388 1.11561 0
M  V30 45616 O 966.664 8.36503 2.79617 0
M  V30 45617 O 967.204 7.71806 0.42951 0
M  V30 45618 C 968.144 7.67148 -0.673689 0
M  V30 45619 C 967.414 7.33374 -1.95559 0
M  V30 45620 O 967.204 5.88721 -2.00726 0
M  V30 45621 C 966.014 7.92526 -2.10483 0
M  V30 45622 O 965.624 8.02971 -3.47653 0
M  V30 45623 C 965.134 6.89602 -1.41652 0
M  V30 45624 C 965.844 5.59201 -1.75185 0
M  V30 45625 N 965.794 4.58235 -0.662552 0
M  V30 45626 H 968.633 8.65116 -0.777161 0
M  V30 45627 H 968.905 6.90173 -0.474152 0
M  V30 45628 H 968.037 7.66548 -2.79458 0
M  V30 45629 P 964.074 8.03563 -3.84925 0
M  V30 45630 O 963.854 8.85821 -5.0569 0
M  V30 45631 O 963.284 8.41101 -2.65469 0
M  V30 45632 O 963.824 6.4965 -4.18908 0
M  V30 45633 C 964.764 5.81037 -5.05421 0
M  V30 45634 C 964.034 4.78366 -5.89277 0
M  V30 45635 O 963.824 3.58302 -5.08433 0
M  V30 45636 C 962.634 5.17448 -6.36119 0
M  V30 45637 O 962.244 4.45271 -7.53232 0
M  V30 45638 C 961.754 4.74639 -5.19936 0
M  V30 45639 C 962.464 3.49432 -4.70418 0
M  V30 45640 N 962.414 3.32099 -3.22613 0
M  V30 45641 H 965.253 6.54213 -5.71376 0
M  V30 45642 H 965.525 5.30936 -4.43503 0
M  V30 45643 H 964.657 4.55889 -6.76652 0
M  V30 45644 H 962.002 2.61715 -5.17932 0
M  V30 45645 H 961.722 5.52155 -4.41878 0
M  V30 45646 H 960.731 4.51981 -5.53374 0
M  V30 45647 H 962.565 6.25124 -6.55234 0
M  V30 45648 P 960.694 4.23843 -7.83734 0
M  V30 45649 O 960.474 4.19407 -9.29784 0
M  V30 45650 O 959.904 5.24426 -7.09156 0
M  V30 45651 O 960.444 2.7935 -7.20758 0
M  V30 45652 C 961.384 1.7299 -7.50419 0
M  V30 45653 C 960.654 0.406376 -7.57911 0
M  V30 45654 O 960.444 -0.0897726 -6.21935 0
M  V30 45655 C 959.254 0.447224 -8.1878 0
M  V30 45656 O 958.864 -0.825065 -8.71101 0
M  V30 45657 C 958.374 0.783801 -6.99623 0
M  V30 45658 C 959.084 0.0619192 -5.85967 0
M  V30 45659 N 959.034 0.7859 -4.56281 0
M  V30 45660 C 959.114 2.14308 -4.31736 0
M  V30 45661 N 959.034 2.46106 -3.05116 0
M  V30 45662 C 958.894 1.23422 -2.4014 0
M  V30 45663 C 958.764 0.938381 -1.02409 0
M  V30 45664 O 958.744 1.70876 -0.0650402 0
M  V30 45665 N 958.644 -0.444647 -0.805413 0
M  V30 45666 C 958.644 -1.40829 -1.79435 0
M  V30 45667 N 958.514 -2.67213 -1.38558 0
M  V30 45668 N 958.774 -1.12947 -3.09005 0
M  V30 45669 C 958.894 0.204887 -3.32369 0
M  V30 45670 H 961.873 1.93423 -8.4679 0
M  V30 45671 H 962.145 1.68181 -6.71046 0
M  V30 45672 H 961.277 -0.289041 -8.15388 0
M  V30 45673 H 958.622 -0.927166 -5.72947 0
M  V30 45674 H 958.342 1.87 -6.82132 0
M  V30 45675 H 957.351 0.404009 -7.13457 0
M  V30 45676 H 959.185 1.20612 -8.97633 0
M  V30 45677 H 959.234 2.88284 -5.10874 0
M  V30 45678 H 958.552 -0.755087 0.140242 0
M  V30 45679 H 958.515 -3.43967 -2.0729 0
M  V30 45680 H 958.414 -2.88096 -0.380644 0
M  V30 45681 P 957.314 -1.17771 -8.83182 0
M  V30 45682 O 957.094 -2.07206 -9.98732 0
M  V30 45683 O 956.524 0.0743816 -8.81969 0
M  V30 45684 O 957.064 -1.97652 -7.47304 0
M  V30 45685 C 958.004 -3.01133 -7.08783 0
M  V30 45686 C 957.274 -4.12613 -6.37049 0
M  V30 45687 O 957.064 -3.72827 -4.97879 0
M  V30 45688 C 955.874 -4.45085 -6.88694 0
M  V30 45689 O 955.484 -5.7877 -6.5624 0
M  V30 45690 C 954.994 -3.47817 -6.12078 0
M  V30 45691 C 955.704 -3.39414 -4.77697 0
M  V30 45692 N 955.654 -2.04615 -4.15333 0
M  V30 45693 H 958.493 -3.41248 -7.98759 0
M  V30 45694 H 958.765 -2.5837 -6.41742 0
M  V30 45695 H 957.897 -5.02657 -6.42673 0
M  V30 45696 P 953.934 -6.144 -6.45285 0
M  V30 45697 O 953.714 -7.54673 -6.86199 0
M  V30 45698 O 953.144 -5.12391 -7.179 0
M  V30 45699 O 953.684 -5.99158 -4.88404 0
M  V30 45700 C 954.624 -6.60234 -3.96415 0
M  V30 45701 C 953.894 -7.08259 -2.72856 0
M  V30 45702 O 953.684 -5.9427 -1.83651 0
M  V30 45703 C 952.494 -7.64886 -2.9555 0
M  V30 45704 O 952.104 -8.53963 -1.90717 0
M  V30 45705 C 951.614 -6.4116 -2.90739 0
M  V30 45706 C 952.324 -5.55375 -1.86963 0
M  V30 45707 N 952.274 -4.09664 -2.15742 0
M  V30 45708 C 952.354 -3.44381 -3.37233 0
M  V30 45709 N 952.274 -2.14131 -3.28347 0
M  V30 45710 C 952.134 -1.90247 -1.91588 0
M  V30 45711 C 952.004 -0.683992 -1.20892 0
M  V30 45712 N 951.884 -0.903396 0.173998 0
M  V30 45713 C 951.884 -2.14171 0.784879 0
M  V30 45714 N 951.754 -2.1435 2.11317 0
M  V30 45715 N 952.014 -3.28784 0.119316 0
M  V30 45716 C 952.134 -3.0977 -1.22194 0
M  V30 45717 H 955.113 -7.45574 -4.45629 0
M  V30 45718 H 955.385 -5.86232 -3.67314 0
M  V30 45719 H 954.517 -7.84412 -2.24479 0
M  V30 45720 P 950.554 -8.7635 -1.60911 0
M  V30 45721 O 950.334 -10.1388 -1.11561 0
M  V30 45722 O 949.764 -8.36503 -2.79617 0
M  V30 45723 O 950.304 -7.71806 -0.42951 0
M  V30 45724 C 951.244 -7.66948 0.673514 0
M  V30 45725 C 950.514 -7.33374 1.95559 0
M  V30 45726 O 950.304 -5.88721 2.00726 0
M  V30 45727 C 949.114 -7.92218 2.1125 0
M  V30 45728 O 948.724 -8.02971 3.47653 0
M  V30 45729 C 948.234 -6.89504 1.41631 0
M  V30 45730 C 948.944 -5.59106 1.75155 0
M  V30 45731 N 948.894 -4.58136 0.662409 0
M  V30 45732 C 948.744 -3.26059 1.02863 0
M  V30 45733 O 948.654 -2.90743 2.19009 0
M  V30 45734 N 948.704 -2.35995 -0.0155585 0
M  V30 45735 C 948.794 -2.65248 -1.35603 0
M  V30 45736 O 948.744 -1.75605 -2.20651 0
M  V30 45737 C 948.944 -4.05747 -1.64698 0
M  V30 45738 C 949.054 -4.42345 -3.09553 0
M  V30 45739 C 948.994 -4.96734 -0.652411 0
M  V30 45740 H 951.735 -8.64917 0.776982 0
M  V30 45741 H 952.004 -6.89974 0.474015 0
M  V30 45742 H 951.137 -7.66548 2.79458 0
M  V30 45743 H 948.482 -5.16076 2.65138 0
M  V30 45744 H 948.203 -7.06433 0.329384 0
M  V30 45745 H 947.211 -6.90829 1.81996 0
M  V30 45746 H 949.045 -8.90774 1.62639 0
M  V30 45747 H 949.116 -6.02181 -0.895285 0
M  V30 45748 H 948.086 -4.80252 -3.45468 0
M  V30 45749 H 949.823 -5.20015 -3.22119 0
M  V30 45750 H 949.335 -3.53269 -3.67833 0
M  V30 45751 H 948.599 -1.39558 0.227499 0
M  V30 45752 P 947.174 -8.03563 3.84925 0
M  V30 45753 O 946.954 -8.85821 5.0569 0
M  V30 45754 O 946.384 -8.41101 2.65469 0
M  V30 45755 O 946.924 -6.4965 4.18908 0
M  V30 45756 C 947.864 -5.81037 5.05421 0
M  V30 45757 C 947.134 -4.78366 5.89277 0
M  V30 45758 O 946.924 -3.58302 5.08433 0
M  V30 45759 C 945.734 -5.17448 6.36119 0
M  V30 45760 O 945.344 -4.45271 7.53232 0
M  V30 45761 C 944.854 -4.74639 5.19936 0
M  V30 45762 C 945.564 -3.49432 4.70418 0
M  V30 45763 N 945.514 -3.31776 3.22945 0
M  V30 45764 H 948.353 -6.54213 5.71376 0
M  V30 45765 H 948.625 -5.30492 4.44033 0
M  V30 45766 H 947.757 -4.55889 6.76652 0
M  V30 45767 P 943.794 -4.23843 7.83734 0
M  V30 45768 O 943.574 -4.19407 9.29784 0
M  V30 45769 O 943.004 -5.24426 7.09156 0
M  V30 45770 O 943.544 -2.7935 7.20758 0
M  V30 45771 C 944.484 -1.72945 7.50224 0
M  V30 45772 C 943.754 -0.406376 7.57911 0
M  V30 45773 O 943.544 0.0897726 6.21935 0
M  V30 45774 C 942.354 -0.438983 8.18724 0
M  V30 45775 O 941.964 0.825065 8.71101 0
M  V30 45776 C 941.474 -0.783689 6.99524 0
M  V30 45777 C 942.184 -0.0619086 5.85867 0
M  V30 45778 N 942.134 -0.78573 4.56183 0
M  V30 45779 C 941.984 -0.0292889 3.41887 0
M  V30 45780 O 941.894 1.18445 3.4419 0
M  V30 45781 N 941.944 -0.744061 2.23964 0
M  V30 45782 C 942.034 -2.10932 2.10362 0
M  V30 45783 O 941.984 -2.64117 0.98825 0
M  V30 45784 C 942.184 -2.8202 3.34994 0
M  V30 45785 C 942.294 -4.31095 3.25037 0
M  V30 45786 C 942.234 -2.15547 4.52261 0
M  V30 45787 H 944.975 -1.93379 8.46595 0
M  V30 45788 H 945.244 -1.68132 6.70852 0
M  V30 45789 H 944.377 0.289041 8.15388 0
M  V30 45790 H 941.722 0.926847 5.72749 0
M  V30 45791 H 941.443 -1.86973 6.82036 0
M  V30 45792 H 940.451 -0.403896 7.13257 0
M  V30 45793 H 942.285 -1.20585 8.97435 0
M  V30 45794 H 942.356 -2.71231 5.45042 0
M  V30 45795 H 941.326 -4.76966 3.49992 0
M  V30 45796 H 943.063 -4.67047 3.95024 0
M  V30 45797 H 942.575 -4.58996 2.22312 0
M  V30 45798 H 941.839 -0.214893 1.39758 0
M  V30 45799 P 940.414 1.17771 8.83182 0
M  V30 45800 O 940.194 2.07206 9.98732 0
M  V30 45801 O 939.624 -0.0743816 8.81969 0
M  V30 45802 O 940.164 1.97652 7.47304 0
M  V30 45803 C 941.104 3.01055 7.08599 0
M  V30 45804 C 940.374 4.12613 6.37049 0
M  V30 45805 O 940.164 3.72827 4.97879 0
M  V30 45806 C 938.974 4.45719 6.88164 0
M  V30 45807 O 938.584 5.7877 6.5624 0
M  V30 45808 C 938.094 3.47768 6.11991 0
M  V30 45809 C 938.804 3.39356 4.77615 0
M  V30 45810 N 938.754 2.04571 4.15244 0
M  V30 45811 C 938.604 1.98587 2.78314 0
M  V30 45812 O 938.514 2.98134 2.08835 0
M  V30 45813 N 938.564 0.714467 2.24925 0
M  V30 45814 C 938.654 -0.470001 2.94169 0
M  V30 45815 C 938.804 -0.312541 4.36783 0
M  V30 45816 C 938.854 0.914512 4.92583 0
M  V30 45817 H 941.595 3.41169 7.98575 0
M  V30 45818 H 941.864 2.58295 6.41556 0
M  V30 45819 H 940.997 5.02657 6.42673 0
M  V30 45820 H 938.342 4.11637 4.08885 0
M  V30 45821 H 938.063 2.49626 6.61679 0
M  V30 45822 H 937.071 3.86566 6.00778 0
M  V30 45823 H 938.905 4.29943 7.96918 0
M  V30 45824 H 938.976 1.00937 6.00374 0
M  V30 45825 P 937.034 6.144 6.45285 0
M  V30 45826 O 936.814 7.54673 6.86199 0
M  V30 45827 O 936.244 5.12391 7.179 0
M  V30 45828 O 936.784 5.99236 4.88467 0
M  V30 45829 C 937.724 6.60234 3.96415 0
M  V30 45830 C 936.994 7.08079 2.736 0
M  V30 45831 O 936.784 5.94365 1.8368 0
M  V30 45832 C 935.594 7.64886 2.9555 0
M  V30 45833 O 935.204 8.5406 1.90739 0
M  V30 45834 C 934.714 6.4116 2.90739 0
M  V30 45835 C 935.424 5.55375 1.86963 0
M  V30 45836 N 935.374 4.09664 2.15742 0
M  V30 45837 C 935.224 3.22231 1.08477 0
M  V30 45838 O 935.134 3.68951 -0.0600489 0
M  V30 45839 N 935.174 1.76692 1.48799 0
M  V30 45840 C 935.274 1.41695 2.57602 0
M  V30 45841 N 935.224 0.107296 2.75791 0
M  V30 45842 C 935.424 2.29178 3.69733 0
M  V30 45843 C 935.474 3.62753 3.42653 0
M  V30 45844 H 938.214 7.45488 4.45578 0
M  V30 45845 H 938.484 5.86232 3.67314 0
M  V30 45846 H 937.617 7.84508 2.24507 0
M  V30 45847 H 934.962 5.73556 0.888715 0
M  V30 45848 H 934.682 5.9096 3.88638 0
M  V30 45849 H 933.691 6.66053 2.58894 0
M  V30 45850 H 935.525 8.16339 3.92049 0
M  V30 45851 H 935.597 4.33052 4.24913 0
M  V30 45852 H 935.495 1.9103 4.71577 0
M  V30 45853 H 935.107 -0.521221 1.95056 0
M  V30 45854 H 935.303 -0.286429 3.70695 0
M  V30 45855 P 933.655 8.7635 1.60911 0
M  V30 45856 O 933.435 10.1388 1.11561 0
M  V30 45857 O 932.865 8.36503 2.79617 0
M  V30 45858 O 933.405 7.71806 0.42951 0
M  V30 45859 C 934.345 7.67148 -0.673689 0
M  V30 45860 C 933.615 7.33374 -1.95559 0
M  V30 45861 O 933.405 5.88721 -2.00726 0
M  V30 45862 C 932.215 7.92526 -2.10483 0
M  V30 45863 O 931.825 8.02971 -3.47653 0
M  V30 45864 C 931.335 6.89602 -1.41652 0
M  V30 45865 C 932.045 5.59201 -1.75185 0
M  V30 45866 N 931.995 4.58301 -0.657969 0
M  V30 45867 H 934.834 8.65116 -0.777161 0
M  V30 45868 H 935.106 6.9022 -0.46725 0
M  V30 45869 H 934.238 7.66548 -2.79458 0
M  V30 45870 H 931.583 5.16165 -2.65183 0
M  V30 45871 H 931.303 7.06433 -0.329384 0
M  V30 45872 H 930.312 6.90926 -1.82021 0
M  V30 45873 H 932.146 8.90873 -1.62657 0
M  V30 45874 P 930.275 8.03563 -3.84925 0
M  V30 45875 O 930.055 8.85821 -5.0569 0
M  V30 45876 O 929.485 8.41101 -2.65469 0
M  V30 45877 O 930.025 6.4965 -4.18908 0
M  V30 45878 C 930.965 5.80886 -5.05289 0
M  V30 45879 C 930.235 4.78366 -5.89277 0
M  V30 45880 O 930.025 3.58302 -5.08433 0
M  V30 45881 C 928.835 5.16748 -6.36559 0
M  V30 45882 O 928.445 4.45271 -7.53232 0
M  V30 45883 C 927.955 4.74572 -5.19863 0
M  V30 45884 C 928.665 3.49373 -4.70338 0
M  V30 45885 N 928.615 3.31704 -3.22876 0
M  V30 45886 C 928.465 2.03326 -2.74871 0
M  V30 45887 O 928.375 1.06486 -3.48076 0
M  V30 45888 N 928.425 1.91838 -1.37456 0
M  V30 45889 C 928.515 2.94295 -0.462035 0
M  V30 45890 C 928.665 4.25064 -1.05249 0
M  V30 45891 C 928.715 4.40214 -2.39192 0
M  V30 45892 H 931.456 6.54063 -5.71245 0
M  V30 45893 H 931.725 5.30339 -4.43905 0
M  V30 45894 H 930.858 4.55889 -6.76652 0
M  V30 45895 H 928.203 2.6167 -5.17842 0
M  V30 45896 H 927.924 5.52155 -4.41878 0
M  V30 45897 H 926.932 4.51918 -5.53297 0
M  V30 45898 H 928.766 6.25055 -6.55162 0
M  V30 45899 H 928.837 5.39798 -2.81523 0
M  V30 45900 P 926.895 4.23843 -7.83734 0
M  V30 45901 O 926.675 4.19407 -9.29784 0
M  V30 45902 O 926.105 5.24426 -7.09156 0
M  V30 45903 O 926.645 2.7935 -7.20758 0
M  V30 45904 C 927.585 1.7299 -7.50419 0
M  V30 45905 C 926.855 0.406376 -7.57911 0
M  V30 45906 O 926.645 -0.0897726 -6.21935 0
M  V30 45907 C 925.455 0.447224 -8.1878 0
M  V30 45908 O 925.065 -0.825065 -8.71101 0
M  V30 45909 C 924.575 0.783801 -6.99623 0
M  V30 45910 C 925.285 0.0619192 -5.85967 0
M  V30 45911 N 925.235 0.7859 -4.56281 0
M  V30 45912 H 928.074 1.93423 -8.4679 0
M  V30 45913 H 928.346 1.68181 -6.71046 0
M  V30 45914 H 927.478 -0.289041 -8.15388 0
M  V30 45915 P 923.515 -1.17771 -8.83182 0
M  V30 45916 O 923.295 -2.07206 -9.98732 0
M  V30 45917 O 922.725 0.0743816 -8.81969 0
M  V30 45918 O 923.265 -1.97652 -7.47304 0
M  V30 45919 C 924.205 -3.01133 -7.08783 0
M  V30 45920 C 923.475 -4.12613 -6.37049 0
M  V30 45921 O 923.265 -3.72827 -4.97879 0
M  V30 45922 C 922.075 -4.45085 -6.88694 0
M  V30 45923 O 921.685 -5.7877 -6.5624 0
M  V30 45924 C 921.195 -3.47817 -6.12078 0
M  V30 45925 C 921.905 -3.39414 -4.77697 0
M  V30 45926 N 921.855 -2.04615 -4.15333 0
M  V30 45927 H 924.694 -3.41248 -7.98759 0
M  V30 45928 H 924.966 -2.5837 -6.41742 0
M  V30 45929 H 924.098 -5.02657 -6.42673 0
M  V30 45930 P 920.135 -6.144 -6.45285 0
M  V30 45931 O 919.915 -7.54673 -6.86199 0
M  V30 45932 O 919.345 -5.12391 -7.179 0
M  V30 45933 O 919.885 -5.99158 -4.88404 0
M  V30 45934 C 920.825 -6.60234 -3.96415 0
M  V30 45935 C 920.095 -7.08259 -2.72856 0
M  V30 45936 O 919.885 -5.9427 -1.83651 0
M  V30 45937 C 918.695 -7.64886 -2.9555 0
M  V30 45938 O 918.305 -8.53963 -1.90717 0
M  V30 45939 C 917.815 -6.4116 -2.90739 0
M  V30 45940 C 918.525 -5.55375 -1.86963 0
M  V30 45941 N 918.475 -4.09664 -2.15742 0
M  V30 45942 H 921.314 -7.45574 -4.45629 0
M  V30 45943 H 921.586 -5.86232 -3.67314 0
M  V30 45944 H 920.718 -7.84412 -2.24479 0
M  V30 45945 P 916.755 -8.7635 -1.60911 0
M  V30 45946 O 916.535 -10.1388 -1.11561 0
M  V30 45947 O 915.965 -8.36503 -2.79617 0
M  V30 45948 O 916.505 -7.71806 -0.42951 0
M  V30 45949 C 917.445 -7.66948 0.673514 0
M  V30 45950 C 916.715 -7.33374 1.95559 0
M  V30 45951 O 916.505 -5.88721 2.00726 0
M  V30 45952 C 915.315 -7.92218 2.1125 0
M  V30 45953 O 914.925 -8.02971 3.47653 0
M  V30 45954 C 914.435 -6.89504 1.41631 0
M  V30 45955 C 915.145 -5.59106 1.75155 0
M  V30 45956 N 915.095 -4.58136 0.662409 0
M  V30 45957 C 914.945 -3.26059 1.02863 0
M  V30 45958 O 914.855 -2.90743 2.19009 0
M  V30 45959 N 914.905 -2.35995 -0.0155585 0
M  V30 45960 C 914.995 -2.65248 -1.35603 0
M  V30 45961 C 915.145 -4.05747 -1.64698 0
M  V30 45962 C 915.195 -4.96734 -0.652411 0
M  V30 45963 H 917.936 -8.64917 0.776982 0
M  V30 45964 H 918.205 -6.89974 0.474015 0
M  V30 45965 H 917.338 -7.66548 2.79458 0
M  V30 45966 H 914.683 -5.16076 2.65138 0
M  V30 45967 H 914.404 -7.06433 0.329384 0
M  V30 45968 H 913.412 -6.90829 1.81996 0
M  V30 45969 H 915.246 -8.90774 1.62639 0
M  V30 45970 H 915.317 -6.02181 -0.895285 0
M  V30 45971 P 913.375 -8.03563 3.84925 0
M  V30 45972 O 913.155 -8.85821 5.0569 0
M  V30 45973 O 912.585 -8.41101 2.65469 0
M  V30 45974 O 913.125 -6.4965 4.18908 0
M  V30 45975 C 914.065 -5.81037 5.05421 0
M  V30 45976 C 913.335 -4.78366 5.89277 0
M  V30 45977 O 913.125 -3.58302 5.08433 0
M  V30 45978 C 911.935 -5.17448 6.36119 0
M  V30 45979 O 911.545 -4.45271 7.53232 0
M  V30 45980 C 911.055 -4.74639 5.19936 0
M  V30 45981 C 911.765 -3.49432 4.70418 0
M  V30 45982 N 911.715 -3.31776 3.22945 0
M  V30 45983 C 911.795 -4.27147 2.23315 0
M  V30 45984 N 911.715 -3.78447 1.02186 0
M  V30 45985 C 911.575 -2.41001 1.21732 0
M  V30 45986 C 911.445 -1.36111 0.27694 0
M  V30 45987 N 911.325 -0.113683 0.912949 0
M  V30 45988 C 911.325 0.0846396 2.27943 0
M  V30 45989 N 911.195 1.34737 2.6916 0
M  V30 45990 N 911.455 -0.902521 3.16379 0
M  V30 45991 C 911.575 -2.11937 2.56849 0
M  V30 45992 H 914.554 -6.54213 5.71376 0
M  V30 45993 H 914.826 -5.30492 4.44033 0
M  V30 45994 H 913.958 -4.55889 6.76652 0
M  V30 45995 P 909.995 -4.23843 7.83734 0
M  V30 45996 O 909.775 -4.19407 9.29784 0
M  V30 45997 O 909.205 -5.24426 7.09156 0
M  V30 45998 O 909.745 -2.7935 7.20758 0
M  V30 45999 C 910.685 -1.7299 7.50419 0
M  V30 46000 C 909.955 -0.406376 7.57911 0
M  V30 46001 O 909.745 0.0897726 6.21935 0
M  V30 46002 C 908.555 -0.447224 8.1878 0
M  V30 46003 O 908.165 0.825065 8.71101 0
M  V30 46004 C 907.675 -0.783801 6.99623 0
M  V30 46005 C 908.385 -0.0619192 5.85967 0
M  V30 46006 N 908.335 -0.7859 4.56281 0
M  V30 46007 C 908.415 -2.14308 4.31736 0
M  V30 46008 N 908.335 -2.46106 3.05116 0
M  V30 46009 C 908.195 -1.23422 2.4014 0
M  V30 46010 C 908.065 -0.938381 1.02409 0
M  V30 46011 N 907.945 0.444647 0.805413 0
M  V30 46012 C 907.945 1.40829 1.79435 0
M  V30 46013 N 907.815 2.67213 1.38558 0
M  V30 46014 N 908.075 1.12947 3.09005 0
M  V30 46015 C 908.195 -0.204887 3.32369 0
M  V30 46016 H 911.174 -1.93423 8.4679 0
M  V30 46017 H 911.446 -1.68181 6.71046 0
M  V30 46018 H 910.578 0.289041 8.15388 0
M  V30 46019 P 906.615 1.17771 8.83182 0
M  V30 46020 O 906.395 2.07206 9.98732 0
M  V30 46021 O 905.825 -0.0743816 8.81969 0
M  V30 46022 O 906.365 1.97652 7.47304 0
M  V30 46023 C 907.305 3.01133 7.08783 0
M  V30 46024 C 906.575 4.12613 6.37049 0
M  V30 46025 O 906.365 3.72827 4.97879 0
M  V30 46026 C 905.175 4.45085 6.88694 0
M  V30 46027 O 904.785 5.7877 6.5624 0
M  V30 46028 C 904.295 3.47817 6.12078 0
M  V30 46029 C 905.005 3.39414 4.77697 0
M  V30 46030 N 904.955 2.04615 4.15333 0
M  V30 46031 H 907.794 3.41248 7.98759 0
M  V30 46032 H 908.066 2.5837 6.41742 0
M  V30 46033 H 907.198 5.02657 6.42673 0
M  V30 46034 P 903.235 6.144 6.45285 0
M  V30 46035 O 903.015 7.54673 6.86199 0
M  V30 46036 O 902.445 5.12391 7.179 0
M  V30 46037 O 902.985 5.99158 4.88404 0
M  V30 46038 C 903.925 6.60234 3.96415 0
M  V30 46039 C 903.195 7.08259 2.72856 0
M  V30 46040 O 902.985 5.9427 1.83651 0
M  V30 46041 C 901.795 7.64886 2.9555 0
M  V30 46042 O 901.405 8.53963 1.90717 0
M  V30 46043 C 900.915 6.4116 2.90739 0
M  V30 46044 C 901.625 5.55375 1.86963 0
M  V30 46045 N 901.575 4.09448 2.16152 0
M  V30 46046 C 901.655 3.46824 3.37593 0
M  V30 46047 N 901.585 2.17422 3.29777 0
M  V30 46048 C 901.435 1.93065 1.94427 0
M  V30 46049 C 901.305 0.738053 1.20141 0
M  V30 46050 N 901.295 -0.474256 1.74676 0
M  V30 46051 N 901.185 0.850049 -0.13045 0
M  V30 46052 C 901.195 2.06169 -0.676992 0
M  V30 46053 N 901.315 3.23842 -0.101312 0
M  V30 46054 C 901.435 3.09402 1.23122 0
M  V30 46055 H 904.414 7.45574 4.45629 0
M  V30 46056 H 904.686 5.85864 3.679 0
M  V30 46057 H 903.818 7.84412 2.24479 0
M  V30 46058 H 901.163 5.73457 0.888562 0
M  V30 46059 H 900.883 5.90877 3.88583 0
M  V30 46060 H 899.892 6.6596 2.58858 0
M  V30 46061 H 901.726 8.16339 3.92049 0
M  V30 46062 H 901.767 4.00505 4.3174 0
M  V30 46063 H 901.386 -0.581337 2.76658 0
M  V30 46064 H 901.197 -1.30811 1.14888 0
M  V30 46065 H 901.089 2.08295 -1.75542 0
M  V30 46066 P 899.855 8.7635 1.60911 0
M  V30 46067 O 899.635 10.1388 1.11561 0
M  V30 46068 O 899.065 8.36503 2.79617 0
M  V30 46069 O 899.605 7.71806 0.42951 0
M  V30 46070 C 900.545 7.67148 -0.673689 0
M  V30 46071 C 899.815 7.33374 -1.95559 0
M  V30 46072 O 899.605 5.88721 -2.00726 0
M  V30 46073 C 898.415 7.92526 -2.10483 0
M  V30 46074 O 898.025 8.02971 -3.47653 0
M  V30 46075 C 897.535 6.89602 -1.41652 0
M  V30 46076 C 898.245 5.59201 -1.75185 0
M  V30 46077 N 898.195 4.58235 -0.662552 0
M  V30 46078 H 901.034 8.65116 -0.777161 0
M  V30 46079 H 901.306 6.90173 -0.474152 0
M  V30 46080 H 900.438 7.66548 -2.79458 0
M  V30 46081 P 896.475 8.03563 -3.84925 0
M  V30 46082 O 896.255 8.85821 -5.0569 0
M  V30 46083 O 895.685 8.41101 -2.65469 0
M  V30 46084 O 896.225 6.4965 -4.18908 0
M  V30 46085 C 897.165 5.80886 -5.05289 0
M  V30 46086 C 896.435 4.78366 -5.89277 0
M  V30 46087 O 896.225 3.58302 -5.08433 0
M  V30 46088 C 895.035 5.16748 -6.36559 0
M  V30 46089 O 894.645 4.45271 -7.53232 0
M  V30 46090 C 894.155 4.74572 -5.19863 0
M  V30 46091 C 894.865 3.49373 -4.70338 0
M  V30 46092 N 894.815 3.31704 -3.22876 0
M  V30 46093 C 894.665 2.03326 -2.74871 0
M  V30 46094 O 894.575 1.06486 -3.48076 0
M  V30 46095 N 894.625 1.91838 -1.37456 0
M  V30 46096 C 894.715 2.94295 -0.462035 0
M  V30 46097 C 894.865 4.25064 -1.05249 0
M  V30 46098 C 894.915 4.40214 -2.39192 0
M  V30 46099 H 897.656 6.54063 -5.71245 0
M  V30 46100 H 897.925 5.30339 -4.43905 0
M  V30 46101 H 897.058 4.55889 -6.76652 0
M  V30 46102 H 894.403 2.6167 -5.17842 0
M  V30 46103 H 894.124 5.52155 -4.41878 0
M  V30 46104 H 893.132 4.51918 -5.53297 0
M  V30 46105 H 894.966 6.25055 -6.55162 0
M  V30 46106 H 895.037 5.39798 -2.81523 0
M  V30 46107 P 893.095 4.23843 -7.83734 0
M  V30 46108 O 892.875 4.19407 -9.29784 0
M  V30 46109 O 892.305 5.24426 -7.09156 0
M  V30 46110 O 892.845 2.7935 -7.20758 0
M  V30 46111 C 893.785 1.7299 -7.50419 0
M  V30 46112 C 893.055 0.406376 -7.57911 0
M  V30 46113 O 892.845 -0.0897726 -6.21935 0
M  V30 46114 C 891.655 0.447224 -8.1878 0
M  V30 46115 O 891.265 -0.825065 -8.71101 0
M  V30 46116 C 890.775 0.783801 -6.99623 0
M  V30 46117 C 891.485 0.0619192 -5.85967 0
M  V30 46118 N 891.435 0.790462 -4.56202 0
M  V30 46119 C 891.515 2.13895 -4.34171 0
M  V30 46120 N 891.445 2.46449 -3.08687 0
M  V30 46121 C 891.295 1.2525 -2.43697 0
M  V30 46122 C 891.165 0.914535 -1.07318 0
M  V30 46123 N 891.155 1.80782 -0.0887348 0
M  V30 46124 N 891.045 -0.386745 -0.768133 0
M  V30 46125 C 891.055 -1.28096 -1.75159 0
M  V30 46126 N 891.175 -1.09708 -3.04861 0
M  V30 46127 C 891.295 0.214857 -3.32306 0
M  V30 46128 H 894.274 1.93423 -8.4679 0
M  V30 46129 H 894.546 1.68852 -6.70877 0
M  V30 46130 H 893.678 -0.289041 -8.15388 0
M  V30 46131 H 891.023 -0.927006 -5.72848 0
M  V30 46132 H 890.743 1.86973 -6.82036 0
M  V30 46133 H 889.752 0.403953 -7.13357 0
M  V30 46134 H 891.586 1.20599 -8.97534 0
M  V30 46135 H 891.627 2.86846 -5.14318 0
M  V30 46136 H 891.246 2.81082 -0.302037 0
M  V30 46137 H 891.057 1.49688 0.889064 0
M  V30 46138 H 890.949 -2.31317 -1.43855 0
M  V30 46139 P 889.715 -1.17771 -8.83182 0
M  V30 46140 O 889.495 -2.07206 -9.98732 0
M  V30 46141 O 888.925 0.0743816 -8.81969 0
M  V30 46142 O 889.465 -1.97652 -7.47304 0
M  V30 46143 C 890.405 -3.01133 -7.08783 0
M  V30 46144 C 889.675 -4.12613 -6.37049 0
M  V30 46145 O 889.465 -3.72827 -4.97879 0
M  V30 46146 C 888.275 -4.45085 -6.88694 0
M  V30 46147 O 887.885 -5.7877 -6.5624 0
M  V30 46148 C 887.395 -3.47817 -6.12078 0
M  V30 46149 C 888.105 -3.39414 -4.77697 0
M  V30 46150 N 888.055 -2.04615 -4.15333 0
M  V30 46151 H 890.894 -3.41248 -7.98759 0
M  V30 46152 H 891.166 -2.5837 -6.41742 0
M  V30 46153 H 890.298 -5.02657 -6.42673 0
M  V30 46154 P 886.335 -6.144 -6.45285 0
M  V30 46155 O 886.115 -7.54673 -6.86199 0
M  V30 46156 O 885.545 -5.12391 -7.179 0
M  V30 46157 O 886.085 -5.99158 -4.88404 0
M  V30 46158 C 887.025 -6.60234 -3.96415 0
M  V30 46159 C 886.295 -7.08259 -2.72856 0
M  V30 46160 O 886.085 -5.9427 -1.83651 0
M  V30 46161 C 884.895 -7.64886 -2.9555 0
M  V30 46162 O 884.505 -8.53963 -1.90717 0
M  V30 46163 C 884.015 -6.4116 -2.90739 0
M  V30 46164 C 884.725 -5.55375 -1.86963 0
M  V30 46165 N 884.675 -4.09664 -2.15742 0
M  V30 46166 C 884.755 -3.44381 -3.37233 0
M  V30 46167 N 884.675 -2.14131 -3.28347 0
M  V30 46168 C 884.535 -1.90247 -1.91588 0
M  V30 46169 C 884.405 -0.683992 -1.20892 0
M  V30 46170 N 884.285 -0.903396 0.173998 0
M  V30 46171 C 884.285 -2.14171 0.784879 0
M  V30 46172 N 884.155 -2.1435 2.11317 0
M  V30 46173 N 884.415 -3.28784 0.119316 0
M  V30 46174 C 884.535 -3.0977 -1.22194 0
M  V30 46175 H 887.514 -7.45574 -4.45629 0
M  V30 46176 H 887.786 -5.86232 -3.67314 0
M  V30 46177 H 886.918 -7.84412 -2.24479 0
M  V30 46178 P 882.955 -8.7635 -1.60911 0
M  V30 46179 O 882.735 -10.1388 -1.11561 0
M  V30 46180 O 882.165 -8.36503 -2.79617 0
M  V30 46181 O 882.705 -7.71806 -0.42951 0
M  V30 46182 C 883.645 -7.67148 0.673689 0
M  V30 46183 C 882.915 -7.33374 1.95559 0
M  V30 46184 O 882.705 -5.88721 2.00726 0
M  V30 46185 C 881.515 -7.92526 2.10483 0
M  V30 46186 O 881.125 -8.02971 3.47653 0
M  V30 46187 C 880.635 -6.89602 1.41652 0
M  V30 46188 C 881.345 -5.59201 1.75185 0
M  V30 46189 N 881.295 -4.58235 0.662552 0
M  V30 46190 C 881.375 -4.7683 -0.704049 0
M  V30 46191 N 881.295 -3.66233 -1.39775 0
M  V30 46192 C 881.155 -2.66526 -0.431739 0
M  V30 46193 C 881.025 -1.26394 -0.575992 0
M  V30 46194 N 880.905 -0.62859 0.67177 0
M  V30 46195 C 880.905 -1.27134 1.89385 0
M  V30 46196 N 880.775 -0.492035 2.96951 0
M  V30 46197 N 881.035 -2.58978 2.02907 0
M  V30 46198 C 881.155 -3.22433 0.832218 0
M  V30 46199 H 884.134 -8.65116 0.777161 0
M  V30 46200 H 884.406 -6.90173 0.474152 0
M  V30 46201 H 883.538 -7.66548 2.79458 0
M  V30 46202 P 879.575 -8.03563 3.84925 0
M  V30 46203 O 879.355 -8.85821 5.0569 0
M  V30 46204 O 878.785 -8.41101 2.65469 0
M  V30 46205 O 879.325 -6.4965 4.18908 0
M  V30 46206 C 880.265 -5.81037 5.05421 0
M  V30 46207 C 879.535 -4.78366 5.89277 0
M  V30 46208 O 879.325 -3.58302 5.08433 0
M  V30 46209 C 878.135 -5.17448 6.36119 0
M  V30 46210 O 877.745 -4.45271 7.53232 0
M  V30 46211 C 877.255 -4.74639 5.19936 0
M  V30 46212 C 877.965 -3.49432 4.70418 0
M  V30 46213 N 877.915 -3.31776 3.22945 0
M  V30 46214 C 877.995 -4.27147 2.23315 0
M  V30 46215 N 877.915 -3.78447 1.02186 0
M  V30 46216 C 877.775 -2.41001 1.21732 0
M  V30 46217 C 877.645 -1.36111 0.27694 0
M  V30 46218 N 877.525 -0.113683 0.912949 0
M  V30 46219 C 877.525 0.0846396 2.27943 0
M  V30 46220 N 877.395 1.34737 2.6916 0
M  V30 46221 N 877.655 -0.902521 3.16379 0
M  V30 46222 C 877.775 -2.11937 2.56849 0
M  V30 46223 H 880.754 -6.54213 5.71376 0
M  V30 46224 H 881.026 -5.30492 4.44033 0
M  V30 46225 H 880.158 -4.55889 6.76652 0
M  V30 46226 P 876.195 -4.23843 7.83734 0
M  V30 46227 O 875.975 -4.19407 9.29784 0
M  V30 46228 O 875.405 -5.24426 7.09156 0
M  V30 46229 O 875.945 -2.7935 7.20758 0
M  V30 46230 C 876.885 -1.7299 7.50419 0
M  V30 46231 C 876.155 -0.406376 7.57911 0
M  V30 46232 O 875.945 0.0897726 6.21935 0
M  V30 46233 C 874.755 -0.447224 8.1878 0
M  V30 46234 O 874.365 0.825065 8.71101 0
M  V30 46235 C 873.875 -0.783801 6.99623 0
M  V30 46236 C 874.585 -0.0619192 5.85967 0
M  V30 46237 N 874.535 -0.7859 4.56281 0
M  V30 46238 H 877.374 -1.93423 8.4679 0
M  V30 46239 H 877.646 -1.68181 6.71046 0
M  V30 46240 H 876.778 0.289041 8.15388 0
M  V30 46241 P 872.815 1.17771 8.83182 0
M  V30 46242 O 872.595 2.07206 9.98732 0
M  V30 46243 O 872.025 -0.0743816 8.81969 0
M  V30 46244 O 872.565 1.97652 7.47304 0
M  V30 46245 C 873.505 3.01133 7.08783 0
M  V30 46246 C 872.775 4.12613 6.37049 0
M  V30 46247 O 872.565 3.72827 4.97879 0
M  V30 46248 C 871.375 4.45085 6.88694 0
M  V30 46249 O 870.985 5.7877 6.5624 0
M  V30 46250 C 870.495 3.47817 6.12078 0
M  V30 46251 C 871.205 3.39414 4.77697 0
M  V30 46252 N 871.155 2.04199 4.15538 0
M  V30 46253 H 873.994 3.41248 7.98759 0
M  V30 46254 H 874.266 2.57728 6.42 0
M  V30 46255 H 873.398 5.02657 6.42673 0
M  V30 46256 H 870.743 4.11708 4.08956 0
M  V30 46257 H 870.463 2.49626 6.61679 0
M  V30 46258 H 869.472 3.8662 6.00862 0
M  V30 46259 H 871.306 4.29991 7.97006 0
M  V30 46260 P 869.435 6.144 6.45285 0
M  V30 46261 O 869.215 7.54673 6.86199 0
M  V30 46262 O 868.645 5.12391 7.179 0
M  V30 46263 O 869.185 5.99158 4.88404 0
M  V30 46264 C 870.125 6.60062 3.96313 0
M  V30 46265 C 869.395 7.08259 2.72856 0
M  V30 46266 O 869.185 5.9427 1.83651 0
M  V30 46267 C 867.995 7.65087 2.94749 0
M  V30 46268 O 867.605 8.53963 1.90717 0
M  V30 46269 C 867.115 6.41069 2.90698 0
M  V30 46270 C 867.825 5.5528 1.86931 0
M  V30 46271 N 867.775 4.09575 2.15696 0
M  V30 46272 C 867.625 3.24249 1.08435 0
M  V30 46273 O 867.535 3.63946 -0.0628747 0
M  V30 46274 N 867.585 1.90009 1.39973 0
M  V30 46275 C 867.675 1.34884 2.65614 0
M  V30 46276 O 867.625 0.123716 2.81728 0
M  V30 46277 C 867.825 2.3145 3.71736 0
M  V30 46278 C 867.935 1.75913 5.10438 0
M  V30 46279 C 867.875 3.63518 3.44754 0
M  V30 46280 H 870.616 7.45402 4.45526 0
M  V30 46281 H 870.885 5.86062 3.67208 0
M  V30 46282 H 870.018 7.84412 2.24479 0
M  V30 46283 H 867.363 5.73358 0.888409 0
M  V30 46284 H 867.084 5.90877 3.88583 0
M  V30 46285 H 866.092 6.65867 2.58821 0
M  V30 46286 H 867.926 8.16248 3.92006 0
M  V30 46287 H 867.997 4.34551 4.26383 0
M  V30 46288 H 866.967 1.85471 5.61775 0
M  V30 46289 H 868.704 2.31364 5.66257 0
M  V30 46290 H 868.216 0.695936 5.05229 0
M  V30 46291 H 867.48 1.26277 0.63625 0
M  V30 46292 P 866.055 8.7635 1.60911 0
M  V30 46293 O 865.835 10.1388 1.11561 0
M  V30 46294 O 865.265 8.36503 2.79617 0
M  V30 46295 O 865.805 7.71806 0.42951 0
M  V30 46296 C 866.745 7.66948 -0.673514 0
M  V30 46297 C 866.015 7.33374 -1.95559 0
M  V30 46298 O 865.805 5.88721 -2.00726 0
M  V30 46299 C 864.615 7.92218 -2.1125 0
M  V30 46300 O 864.225 8.02971 -3.47653 0
M  V30 46301 C 863.735 6.89504 -1.41631 0
M  V30 46302 C 864.445 5.59106 -1.75155 0
M  V30 46303 N 864.395 4.58136 -0.662409 0
M  V30 46304 C 864.245 3.26059 -1.02863 0
M  V30 46305 O 864.155 2.90743 -2.19009 0
M  V30 46306 N 864.205 2.35995 0.0155585 0
M  V30 46307 C 864.295 2.65248 1.35603 0
M  V30 46308 C 864.445 4.05747 1.64698 0
M  V30 46309 C 864.495 4.96734 0.652411 0
M  V30 46310 H 867.236 8.64917 -0.776982 0
M  V30 46311 H 867.505 6.89974 -0.474015 0
M  V30 46312 H 866.638 7.66548 -2.79458 0
M  V30 46313 H 863.983 5.16076 -2.65138 0
M  V30 46314 H 863.704 7.06433 -0.329384 0
M  V30 46315 H 862.712 6.90829 -1.81996 0
M  V30 46316 H 864.546 8.90774 -1.62639 0
M  V30 46317 H 864.617 6.02181 0.895285 0
M  V30 46318 P 862.675 8.03563 -3.84925 0
M  V30 46319 O 862.455 8.85821 -5.0569 0
M  V30 46320 O 861.885 8.41101 -2.65469 0
M  V30 46321 O 862.425 6.4965 -4.18908 0
M  V30 46322 C 863.365 5.81037 -5.05421 0
M  V30 46323 C 862.635 4.78366 -5.89277 0
M  V30 46324 O 862.425 3.58302 -5.08433 0
M  V30 46325 C 861.235 5.17448 -6.36119 0
M  V30 46326 O 860.845 4.45271 -7.53232 0
M  V30 46327 C 860.355 4.74639 -5.19936 0
M  V30 46328 C 861.065 3.49432 -4.70418 0
M  V30 46329 N 861.015 3.31776 -3.22945 0
M  V30 46330 H 863.854 6.54213 -5.71376 0
M  V30 46331 H 864.126 5.30492 -4.44033 0
M  V30 46332 H 863.258 4.55889 -6.76652 0
M  V30 46333 P 859.295 4.23843 -7.83734 0
M  V30 46334 O 859.075 4.19407 -9.29784 0
M  V30 46335 O 858.505 5.24426 -7.09156 0
M  V30 46336 O 859.045 2.7935 -7.20758 0
M  V30 46337 C 859.985 1.7299 -7.50419 0
M  V30 46338 C 859.255 0.406376 -7.57911 0
M  V30 46339 O 859.045 -0.0897726 -6.21935 0
M  V30 46340 C 857.855 0.447224 -8.1878 0
M  V30 46341 O 857.465 -0.825065 -8.71101 0
M  V30 46342 C 856.975 0.783801 -6.99623 0
M  V30 46343 C 857.685 0.0619192 -5.85967 0
M  V30 46344 N 857.635 0.7859 -4.56281 0
M  V30 46345 H 860.474 1.93423 -8.4679 0
M  V30 46346 H 860.746 1.68181 -6.71046 0
M  V30 46347 H 859.878 -0.289041 -8.15388 0
M  V30 46348 P 855.915 -1.17771 -8.83182 0
M  V30 46349 O 855.695 -2.07206 -9.98732 0
M  V30 46350 O 855.125 0.0743816 -8.81969 0
M  V30 46351 O 855.665 -1.97652 -7.47304 0
M  V30 46352 C 856.605 -3.01133 -7.08783 0
M  V30 46353 C 855.875 -4.12613 -6.37049 0
M  V30 46354 O 855.665 -3.72827 -4.97879 0
M  V30 46355 C 854.475 -4.45085 -6.88694 0
M  V30 46356 O 854.085 -5.7877 -6.5624 0
M  V30 46357 C 853.595 -3.47817 -6.12078 0
M  V30 46358 C 854.305 -3.39414 -4.77697 0
M  V30 46359 N 854.255 -2.04615 -4.15333 0
M  V30 46360 H 857.094 -3.41248 -7.98759 0
M  V30 46361 H 857.366 -2.5837 -6.41742 0
M  V30 46362 H 856.498 -5.02657 -6.42673 0
M  V30 46363 P 852.535 -6.144 -6.45285 0
M  V30 46364 O 852.315 -7.54673 -6.86199 0
M  V30 46365 O 851.745 -5.12391 -7.179 0
M  V30 46366 O 852.285 -5.99158 -4.88404 0
M  V30 46367 C 853.225 -6.60234 -3.96415 0
M  V30 46368 C 852.495 -7.08259 -2.72856 0
M  V30 46369 O 852.285 -5.9427 -1.83651 0
M  V30 46370 C 851.095 -7.64886 -2.9555 0
M  V30 46371 O 850.705 -8.53963 -1.90717 0
M  V30 46372 C 850.215 -6.4116 -2.90739 0
M  V30 46373 C 850.925 -5.55375 -1.86963 0
M  V30 46374 N 850.875 -4.09664 -2.15742 0
M  V30 46375 H 853.714 -7.45574 -4.45629 0
M  V30 46376 H 853.986 -5.86232 -3.67314 0
M  V30 46377 H 853.118 -7.84412 -2.24479 0
M  V30 46378 P 849.155 -8.7635 -1.60911 0
M  V30 46379 O 848.935 -10.1388 -1.11561 0
M  V30 46380 O 848.365 -8.36503 -2.79617 0
M  V30 46381 O 848.905 -7.71806 -0.42951 0
M  V30 46382 C 849.845 -7.66948 0.673514 0
M  V30 46383 C 849.115 -7.33374 1.95559 0
M  V30 46384 O 848.905 -5.88721 2.00726 0
M  V30 46385 C 847.715 -7.92218 2.1125 0
M  V30 46386 O 847.325 -8.02971 3.47653 0
M  V30 46387 C 846.835 -6.89504 1.41631 0
M  V30 46388 C 847.545 -5.59106 1.75155 0
M  V30 46389 N 847.495 -4.58136 0.662409 0
M  V30 46390 C 847.345 -3.26059 1.02863 0
M  V30 46391 O 847.255 -2.90743 2.19009 0
M  V30 46392 N 847.305 -2.35995 -0.0155585 0
M  V30 46393 C 847.395 -2.65248 -1.35603 0
M  V30 46394 O 847.345 -1.75605 -2.20651 0
M  V30 46395 C 847.545 -4.05747 -1.64698 0
M  V30 46396 C 847.655 -4.42345 -3.09553 0
M  V30 46397 C 847.595 -4.96734 -0.652411 0
M  V30 46398 H 850.336 -8.64917 0.776982 0
M  V30 46399 H 850.605 -6.89974 0.474015 0
M  V30 46400 H 849.738 -7.66548 2.79458 0
M  V30 46401 H 847.083 -5.16076 2.65138 0
M  V30 46402 H 846.804 -7.06433 0.329384 0
M  V30 46403 H 845.812 -6.90829 1.81996 0
M  V30 46404 H 847.646 -8.90774 1.62639 0
M  V30 46405 H 847.717 -6.02181 -0.895285 0
M  V30 46406 H 846.687 -4.80252 -3.45468 0
M  V30 46407 H 848.424 -5.20015 -3.22119 0
M  V30 46408 H 847.936 -3.53269 -3.67833 0
M  V30 46409 H 847.2 -1.39558 0.227499 0
M  V30 46410 P 845.775 -8.03563 3.84925 0
M  V30 46411 O 845.555 -8.85821 5.0569 0
M  V30 46412 O 844.985 -8.41101 2.65469 0
M  V30 46413 O 845.525 -6.4965 4.18908 0
M  V30 46414 C 846.465 -5.81037 5.05421 0
M  V30 46415 C 845.735 -4.78366 5.89277 0
M  V30 46416 O 845.525 -3.58302 5.08433 0
M  V30 46417 C 844.335 -5.17448 6.36119 0
M  V30 46418 O 843.945 -4.45271 7.53232 0
M  V30 46419 C 843.455 -4.74639 5.19936 0
M  V30 46420 C 844.165 -3.49432 4.70418 0
M  V30 46421 N 844.115 -3.31776 3.22945 0
M  V30 46422 H 846.954 -6.54213 5.71376 0
M  V30 46423 H 847.226 -5.30492 4.44033 0
M  V30 46424 H 846.358 -4.55889 6.76652 0
M  V30 46425 P 842.395 -4.23843 7.83734 0
M  V30 46426 O 842.175 -4.19407 9.29784 0
M  V30 46427 O 841.605 -5.24426 7.09156 0
M  V30 46428 O 842.145 -2.7935 7.20758 0
M  V30 46429 C 843.085 -1.7299 7.50419 0
M  V30 46430 C 842.355 -0.406376 7.57911 0
M  V30 46431 O 842.145 0.0897726 6.21935 0
M  V30 46432 C 840.955 -0.447224 8.1878 0
M  V30 46433 O 840.565 0.825065 8.71101 0
M  V30 46434 C 840.075 -0.783801 6.99623 0
M  V30 46435 C 840.785 -0.0619192 5.85967 0
M  V30 46436 N 840.735 -0.7859 4.56281 0
M  V30 46437 H 843.574 -1.93423 8.4679 0
M  V30 46438 H 843.846 -1.68181 6.71046 0
M  V30 46439 H 842.978 0.289041 8.15388 0
M  V30 46440 P 839.015 1.17771 8.83182 0
M  V30 46441 O 838.795 2.07206 9.98732 0
M  V30 46442 O 838.225 -0.0743816 8.81969 0
M  V30 46443 O 838.765 1.97652 7.47304 0
M  V30 46444 C 839.705 3.01133 7.08783 0
M  V30 46445 C 838.975 4.12613 6.37049 0
M  V30 46446 O 838.765 3.72827 4.97879 0
M  V30 46447 C 837.575 4.45085 6.88694 0
M  V30 46448 O 837.185 5.7877 6.5624 0
M  V30 46449 C 836.695 3.47817 6.12078 0
M  V30 46450 C 837.405 3.39414 4.77697 0
M  V30 46451 N 837.355 2.04615 4.15333 0
M  V30 46452 H 840.194 3.41248 7.98759 0
M  V30 46453 H 840.466 2.5837 6.41742 0
M  V30 46454 H 839.598 5.02657 6.42673 0
M  V30 46455 P 835.635 6.144 6.45285 0
M  V30 46456 O 835.415 7.54673 6.86199 0
M  V30 46457 O 834.845 5.12391 7.179 0
M  V30 46458 O 835.385 5.99158 4.88404 0
M  V30 46459 C 836.325 6.60234 3.96415 0
M  V30 46460 C 835.595 7.08259 2.72856 0
M  V30 46461 O 835.385 5.9427 1.83651 0
M  V30 46462 C 834.195 7.64886 2.9555 0
M  V30 46463 O 833.805 8.53963 1.90717 0
M  V30 46464 C 833.315 6.4116 2.90739 0
M  V30 46465 C 834.025 5.55375 1.86963 0
M  V30 46466 N 833.975 4.09448 2.16152 0
M  V30 46467 H 836.814 7.45574 4.45629 0
M  V30 46468 H 837.086 5.85864 3.679 0
M  V30 46469 H 836.218 7.84412 2.24479 0
M  V30 46470 H 833.563 5.73457 0.888562 0
M  V30 46471 H 833.283 5.90877 3.88583 0
M  V30 46472 H 832.292 6.6596 2.58858 0
M  V30 46473 H 834.126 8.16339 3.92049 0
M  V30 46474 P 832.255 8.7635 1.60911 0
M  V30 46475 O 832.035 10.1388 1.11561 0
M  V30 46476 O 831.465 8.36503 2.79617 0
M  V30 46477 O 832.005 7.71806 0.42951 0
M  V30 46478 C 832.945 7.66948 -0.673514 0
M  V30 46479 C 832.215 7.33374 -1.95559 0
M  V30 46480 O 832.005 5.88721 -2.00726 0
M  V30 46481 C 830.815 7.92218 -2.1125 0
M  V30 46482 O 830.425 8.02971 -3.47653 0
M  V30 46483 C 829.935 6.89504 -1.41631 0
M  V30 46484 C 830.645 5.59106 -1.75155 0
M  V30 46485 N 830.595 4.58136 -0.662409 0
M  V30 46486 C 830.445 3.26059 -1.02863 0
M  V30 46487 O 830.355 2.90743 -2.19009 0
M  V30 46488 N 830.405 2.35995 0.0155585 0
M  V30 46489 C 830.495 2.65248 1.35603 0
M  V30 46490 O 830.445 1.75605 2.20651 0
M  V30 46491 C 830.645 4.05747 1.64698 0
M  V30 46492 C 830.755 4.42345 3.09553 0
M  V30 46493 C 830.695 4.96734 0.652411 0
M  V30 46494 H 833.436 8.64917 -0.776982 0
M  V30 46495 H 833.705 6.89974 -0.474015 0
M  V30 46496 H 832.838 7.66548 -2.79458 0
M  V30 46497 H 830.183 5.16076 -2.65138 0
M  V30 46498 H 829.904 7.06433 -0.329384 0
M  V30 46499 H 828.912 6.90829 -1.81996 0
M  V30 46500 H 830.746 8.90774 -1.62639 0
M  V30 46501 H 830.817 6.02181 0.895285 0
M  V30 46502 H 829.787 4.80252 3.45468 0
M  V30 46503 H 831.524 5.20015 3.22119 0
M  V30 46504 H 831.036 3.53269 3.67833 0
M  V30 46505 H 830.3 1.39558 -0.227499 0
M  V30 46506 P 828.875 8.03563 -3.84925 0
M  V30 46507 O 828.655 8.85821 -5.0569 0
M  V30 46508 O 828.085 8.41101 -2.65469 0
M  V30 46509 O 828.625 6.4965 -4.18908 0
M  V30 46510 C 829.565 5.81037 -5.05421 0
M  V30 46511 C 828.835 4.78366 -5.89277 0
M  V30 46512 O 828.625 3.58302 -5.08433 0
M  V30 46513 C 827.435 5.17448 -6.36119 0
M  V30 46514 O 827.045 4.45271 -7.53232 0
M  V30 46515 C 826.555 4.74639 -5.19936 0
M  V30 46516 C 827.265 3.49432 -4.70418 0
M  V30 46517 N 827.215 3.32099 -3.22613 0
M  V30 46518 H 830.054 6.54213 -5.71376 0
M  V30 46519 H 830.326 5.30936 -4.43503 0
M  V30 46520 H 829.458 4.55889 -6.76652 0
M  V30 46521 H 826.803 2.61715 -5.17932 0
M  V30 46522 H 826.523 5.52155 -4.41878 0
M  V30 46523 H 825.532 4.51981 -5.53374 0
M  V30 46524 H 827.366 6.25124 -6.55234 0
M  V30 46525 P 825.495 4.23843 -7.83734 0
M  V30 46526 O 825.275 4.19407 -9.29784 0
M  V30 46527 O 824.705 5.24426 -7.09156 0
M  V30 46528 O 825.245 2.7935 -7.20758 0
M  V30 46529 C 826.185 1.7299 -7.50419 0
M  V30 46530 C 825.455 0.406376 -7.57911 0
M  V30 46531 O 825.245 -0.0897726 -6.21935 0
M  V30 46532 C 824.055 0.447224 -8.1878 0
M  V30 46533 O 823.665 -0.825065 -8.71101 0
M  V30 46534 C 823.175 0.783801 -6.99623 0
M  V30 46535 C 823.885 0.0619192 -5.85967 0
M  V30 46536 N 823.835 0.7859 -4.56281 0
M  V30 46537 H 826.674 1.93423 -8.4679 0
M  V30 46538 H 826.946 1.68181 -6.71046 0
M  V30 46539 H 826.078 -0.289041 -8.15388 0
M  V30 46540 P 822.115 -1.17771 -8.83182 0
M  V30 46541 O 821.895 -2.07206 -9.98732 0
M  V30 46542 O 821.325 0.0743816 -8.81969 0
M  V30 46543 O 821.865 -1.97678 -7.474 0
M  V30 46544 C 822.805 -3.01133 -7.08783 0
M  V30 46545 C 822.075 -4.1203 -6.37546 0
M  V30 46546 O 821.865 -3.72887 -4.9796 0
M  V30 46547 C 820.675 -4.45085 -6.88694 0
M  V30 46548 O 820.285 -5.78836 -6.56315 0
M  V30 46549 C 819.795 -3.47817 -6.12078 0
M  V30 46550 C 820.505 -3.39414 -4.77697 0
M  V30 46551 N 820.455 -2.04615 -4.15333 0
M  V30 46552 C 820.305 -1.96929 -2.77162 0
M  V30 46553 O 820.215 -3.02017 -2.12006 0
M  V30 46554 N 820.255 -0.55485 -2.24237 0
M  V30 46555 C 820.355 0.367808 -2.9169 0
M  V30 46556 N 820.305 1.53426 -2.29427 0
M  V30 46557 C 820.505 0.319148 -4.33828 0
M  V30 46558 C 820.555 -0.920672 -4.90433 0
M  V30 46559 H 823.295 -3.41209 -7.98667 0
M  V30 46560 H 823.565 -2.5837 -6.41742 0
M  V30 46561 H 822.698 -5.02718 -6.42752 0
M  V30 46562 H 820.043 -4.11779 -4.09026 0
M  V30 46563 H 819.763 -2.49661 -6.61772 0
M  V30 46564 H 818.772 -3.86674 -6.00946 0
M  V30 46565 H 820.606 -4.29991 -7.97006 0
M  V30 46566 H 820.678 -1.00589 -5.98303 0
M  V30 46567 H 820.576 1.22639 -4.93799 0
M  V30 46568 H 820.188 1.56819 -1.27167 0
M  V30 46569 H 820.384 2.41062 -2.83063 0
M  V30 46570 P 818.735 -6.144 -6.45285 0
M  V30 46571 O 818.515 -7.54673 -6.86199 0
M  V30 46572 O 817.945 -5.12391 -7.179 0
M  V30 46573 O 818.485 -5.99158 -4.88404 0
M  V30 46574 C 819.425 -6.60062 -3.96313 0
M  V30 46575 C 818.695 -7.08259 -2.72856 0
M  V30 46576 O 818.485 -5.9427 -1.83651 0
M  V30 46577 C 817.295 -7.65087 -2.94749 0
M  V30 46578 O 816.905 -8.53963 -1.90717 0
M  V30 46579 C 816.415 -6.41069 -2.90698 0
M  V30 46580 C 817.125 -5.5528 -1.86931 0
M  V30 46581 N 817.075 -4.09575 -2.15696 0
M  V30 46582 C 816.925 -3.24249 -1.08435 0
M  V30 46583 O 816.835 -3.63946 0.0628747 0
M  V30 46584 N 816.885 -1.90009 -1.39973 0
M  V30 46585 C 816.975 -1.34884 -2.65614 0
M  V30 46586 C 817.125 -2.3145 -3.71736 0
M  V30 46587 C 817.175 -3.63518 -3.44754 0
M  V30 46588 H 819.916 -7.45402 -4.45526 0
M  V30 46589 H 820.185 -5.86062 -3.67208 0
M  V30 46590 H 819.318 -7.84412 -2.24479 0
M  V30 46591 H 816.663 -5.73358 -0.888409 0
M  V30 46592 H 816.384 -5.90877 -3.88583 0
M  V30 46593 H 815.392 -6.65867 -2.58821 0
M  V30 46594 H 817.226 -8.16248 -3.92006 0
M  V30 46595 H 817.297 -4.34551 -4.26383 0
M  V30 46596 P 815.355 -8.7635 -1.60911 0
M  V30 46597 O 815.135 -10.1388 -1.11561 0
M  V30 46598 O 814.565 -8.36503 -2.79617 0
M  V30 46599 O 815.105 -7.71806 -0.42951 0
M  V30 46600 C 816.045 -7.67148 0.673689 0
M  V30 46601 C 815.315 -7.33374 1.95559 0
M  V30 46602 O 815.105 -5.88721 2.00726 0
M  V30 46603 C 813.915 -7.92526 2.10483 0
M  V30 46604 O 813.525 -8.02971 3.47653 0
M  V30 46605 C 813.035 -6.89602 1.41652 0
M  V30 46606 C 813.745 -5.59201 1.75185 0
M  V30 46607 N 813.695 -4.58235 0.662552 0
M  V30 46608 H 816.534 -8.65116 0.777161 0
M  V30 46609 H 816.806 -6.90173 0.474152 0
M  V30 46610 H 815.938 -7.66548 2.79458 0
M  V30 46611 P 811.975 -8.03563 3.84925 0
M  V30 46612 O 811.755 -8.85821 5.0569 0
M  V30 46613 O 811.185 -8.41101 2.65469 0
M  V30 46614 O 811.725 -6.4965 4.18908 0
M  V30 46615 C 812.665 -5.81037 5.05421 0
M  V30 46616 C 811.935 -4.78366 5.89277 0
M  V30 46617 O 811.725 -3.58302 5.08433 0
M  V30 46618 C 810.535 -5.17448 6.36119 0
M  V30 46619 O 810.145 -4.45271 7.53232 0
M  V30 46620 C 809.655 -4.74639 5.19936 0
M  V30 46621 C 810.365 -3.49432 4.70418 0
M  V30 46622 N 810.315 -3.32099 3.22613 0
M  V30 46623 H 813.154 -6.54213 5.71376 0
M  V30 46624 H 813.426 -5.30936 4.43503 0
M  V30 46625 H 812.558 -4.55889 6.76652 0
M  V30 46626 H 809.903 -2.61715 5.17932 0
M  V30 46627 H 809.623 -5.52155 4.41878 0
M  V30 46628 H 808.632 -4.51981 5.53374 0
M  V30 46629 H 810.466 -6.25124 6.55234 0
M  V30 46630 P 808.595 -4.23843 7.83734 0
M  V30 46631 O 808.375 -4.19407 9.29784 0
M  V30 46632 O 807.805 -5.24426 7.09156 0
M  V30 46633 O 808.345 -2.7935 7.20758 0
M  V30 46634 C 809.285 -1.72945 7.50224 0
M  V30 46635 C 808.555 -0.406376 7.57911 0
M  V30 46636 O 808.345 0.0897726 6.21935 0
M  V30 46637 C 807.155 -0.438983 8.18724 0
M  V30 46638 O 806.765 0.825065 8.71101 0
M  V30 46639 C 806.275 -0.783689 6.99524 0
M  V30 46640 C 806.985 -0.0619086 5.85867 0
M  V30 46641 N 806.935 -0.78573 4.56183 0
M  V30 46642 C 806.785 -0.0292889 3.41887 0
M  V30 46643 O 806.695 1.18445 3.4419 0
M  V30 46644 N 806.745 -0.744061 2.23964 0
M  V30 46645 C 806.835 -2.10932 2.10362 0
M  V30 46646 O 806.785 -2.64117 0.98825 0
M  V30 46647 C 806.985 -2.8202 3.34994 0
M  V30 46648 C 807.095 -4.31095 3.25037 0
M  V30 46649 C 807.035 -2.15547 4.52261 0
M  V30 46650 H 809.776 -1.93379 8.46595 0
M  V30 46651 H 810.045 -1.68132 6.70852 0
M  V30 46652 H 809.178 0.289041 8.15388 0
M  V30 46653 H 806.523 0.926847 5.72749 0
M  V30 46654 H 806.244 -1.86973 6.82036 0
M  V30 46655 H 805.252 -0.403896 7.13257 0
M  V30 46656 H 807.086 -1.20585 8.97435 0
M  V30 46657 H 807.157 -2.71231 5.45042 0
M  V30 46658 H 806.127 -4.76966 3.49992 0
M  V30 46659 H 807.864 -4.67047 3.95024 0
M  V30 46660 H 807.376 -4.58996 2.22312 0
M  V30 46661 H 806.64 -0.214893 1.39758 0
M  V30 46662 P 805.215 1.17771 8.83182 0
M  V30 46663 O 804.995 2.07206 9.98732 0
M  V30 46664 O 804.425 -0.0743816 8.81969 0
M  V30 46665 O 804.965 1.97678 7.474 0
M  V30 46666 C 805.905 3.01133 7.08783 0
M  V30 46667 C 805.175 4.1203 6.37546 0
M  V30 46668 O 804.965 3.72887 4.9796 0
M  V30 46669 C 803.775 4.45085 6.88694 0
M  V30 46670 O 803.385 5.78836 6.56315 0
M  V30 46671 C 802.895 3.47817 6.12078 0
M  V30 46672 C 803.605 3.39414 4.77697 0
M  V30 46673 N 803.555 2.04615 4.15333 0
M  V30 46674 C 803.405 1.96929 2.77162 0
M  V30 46675 O 803.315 3.02017 2.12006 0
M  V30 46676 N 803.355 0.55485 2.24237 0
M  V30 46677 C 803.455 -0.367808 2.9169 0
M  V30 46678 N 803.405 -1.53426 2.29427 0
M  V30 46679 C 803.605 -0.319148 4.33828 0
M  V30 46680 C 803.655 0.920672 4.90433 0
M  V30 46681 H 806.395 3.41209 7.98667 0
M  V30 46682 H 806.665 2.5837 6.41742 0
M  V30 46683 H 805.798 5.02718 6.42752 0
M  V30 46684 H 803.143 4.11779 4.09026 0
M  V30 46685 H 802.863 2.49661 6.61772 0
M  V30 46686 H 801.872 3.86674 6.00946 0
M  V30 46687 H 803.706 4.29991 7.97006 0
M  V30 46688 H 803.778 1.00589 5.98303 0
M  V30 46689 H 803.676 -1.22639 4.93799 0
M  V30 46690 H 803.288 -1.56819 1.27167 0
M  V30 46691 H 803.484 -2.41062 2.83063 0
M  V30 46692 P 801.835 6.144 6.45285 0
M  V30 46693 O 801.615 7.54673 6.86199 0
M  V30 46694 O 801.045 5.12391 7.179 0
M  V30 46695 O 801.585 5.99158 4.88404 0
M  V30 46696 C 802.525 6.60234 3.96415 0
M  V30 46697 C 801.795 7.08259 2.72856 0
M  V30 46698 O 801.585 5.9427 1.83651 0
M  V30 46699 C 800.395 7.64886 2.9555 0
M  V30 46700 O 800.005 8.53963 1.90717 0
M  V30 46701 C 799.515 6.4116 2.90739 0
M  V30 46702 C 800.225 5.55375 1.86963 0
M  V30 46703 N 800.175 4.09664 2.15742 0
M  V30 46704 H 803.014 7.45574 4.45629 0
M  V30 46705 H 803.286 5.86232 3.67314 0
M  V30 46706 H 802.418 7.84412 2.24479 0
M  V30 46707 P 798.455 8.7635 1.60911 0
M  V30 46708 O 798.235 10.1388 1.11561 0
M  V30 46709 O 797.665 8.36503 2.79617 0
M  V30 46710 O 798.205 7.71806 0.42951 0
M  V30 46711 C 799.145 7.67148 -0.673689 0
M  V30 46712 C 798.415 7.33374 -1.95559 0
M  V30 46713 O 798.205 5.88721 -2.00726 0
M  V30 46714 C 797.015 7.92526 -2.10483 0
M  V30 46715 O 796.625 8.02971 -3.47653 0
M  V30 46716 C 796.135 6.89602 -1.41652 0
M  V30 46717 C 796.845 5.59201 -1.75185 0
M  V30 46718 N 796.795 4.58301 -0.657969 0
M  V30 46719 H 799.634 8.65116 -0.777161 0
M  V30 46720 H 799.906 6.9022 -0.46725 0
M  V30 46721 H 799.038 7.66548 -2.79458 0
M  V30 46722 H 796.383 5.16165 -2.65183 0
M  V30 46723 H 796.103 7.06433 -0.329384 0
M  V30 46724 H 795.112 6.90926 -1.82021 0
M  V30 46725 H 796.946 8.90873 -1.62657 0
M  V30 46726 P 795.075 8.03563 -3.84925 0
M  V30 46727 O 794.855 8.85821 -5.0569 0
M  V30 46728 O 794.285 8.41101 -2.65469 0
M  V30 46729 O 794.825 6.4965 -4.18908 0
M  V30 46730 C 795.765 5.81037 -5.05421 0
M  V30 46731 C 795.035 4.78366 -5.89277 0
M  V30 46732 O 794.825 3.58302 -5.08433 0
M  V30 46733 C 793.635 5.17448 -6.36119 0
M  V30 46734 O 793.245 4.45271 -7.53232 0
M  V30 46735 C 792.755 4.74639 -5.19936 0
M  V30 46736 C 793.465 3.49432 -4.70418 0
M  V30 46737 N 793.415 3.31776 -3.22945 0
M  V30 46738 H 796.254 6.54213 -5.71376 0
M  V30 46739 H 796.526 5.30492 -4.44033 0
M  V30 46740 H 795.658 4.55889 -6.76652 0
M  V30 46741 P 791.695 4.23843 -7.83734 0
M  V30 46742 O 791.475 4.19407 -9.29784 0
M  V30 46743 O 790.905 5.24426 -7.09156 0
M  V30 46744 O 791.445 2.7935 -7.20758 0
M  V30 46745 C 792.385 1.72945 -7.50224 0
M  V30 46746 C 791.655 0.406376 -7.57911 0
M  V30 46747 O 791.445 -0.0897726 -6.21935 0
M  V30 46748 C 790.255 0.438983 -8.18724 0
M  V30 46749 O 789.865 -0.825065 -8.71101 0
M  V30 46750 C 789.375 0.783689 -6.99524 0
M  V30 46751 C 790.085 0.0619086 -5.85867 0
M  V30 46752 N 790.035 0.78573 -4.56183 0
M  V30 46753 C 789.885 0.0292889 -3.41887 0
M  V30 46754 O 789.795 -1.18445 -3.4419 0
M  V30 46755 N 789.845 0.744061 -2.23964 0
M  V30 46756 C 789.935 2.10932 -2.10362 0
M  V30 46757 C 790.085 2.8202 -3.34994 0
M  V30 46758 C 790.135 2.15547 -4.52261 0
M  V30 46759 H 792.876 1.93379 -8.46595 0
M  V30 46760 H 793.145 1.68132 -6.70852 0
M  V30 46761 H 792.278 -0.289041 -8.15388 0
M  V30 46762 H 789.623 -0.926847 -5.72749 0
M  V30 46763 H 789.344 1.86973 -6.82036 0
M  V30 46764 H 788.352 0.403896 -7.13257 0
M  V30 46765 H 790.186 1.20585 -8.97435 0
M  V30 46766 H 790.257 2.71231 -5.45042 0
M  V30 46767 P 788.315 -1.17771 -8.83182 0
M  V30 46768 O 788.095 -2.07206 -9.98732 0
M  V30 46769 O 787.525 0.0743816 -8.81969 0
M  V30 46770 O 788.065 -1.97652 -7.47304 0
M  V30 46771 C 789.005 -3.01133 -7.08783 0
M  V30 46772 C 788.275 -4.12613 -6.37049 0
M  V30 46773 O 788.065 -3.72827 -4.97879 0
M  V30 46774 C 786.875 -4.45085 -6.88694 0
M  V30 46775 O 786.485 -5.7877 -6.5624 0
M  V30 46776 C 785.995 -3.47817 -6.12078 0
M  V30 46777 C 786.705 -3.39414 -4.77697 0
M  V30 46778 N 786.655 -2.04615 -4.15333 0
M  V30 46779 H 789.494 -3.41248 -7.98759 0
M  V30 46780 H 789.766 -2.5837 -6.41742 0
M  V30 46781 H 788.898 -5.02657 -6.42673 0
M  V30 46782 P 784.935 -6.144 -6.45285 0
M  V30 46783 O 784.715 -7.54673 -6.86199 0
M  V30 46784 O 784.145 -5.12391 -7.179 0
M  V30 46785 O 784.685 -5.99158 -4.88404 0
M  V30 46786 C 785.625 -6.60062 -3.96313 0
M  V30 46787 C 784.895 -7.08259 -2.72856 0
M  V30 46788 O 784.685 -5.9427 -1.83651 0
M  V30 46789 C 783.495 -7.65087 -2.94749 0
M  V30 46790 O 783.105 -8.53963 -1.90717 0
M  V30 46791 C 782.615 -6.41069 -2.90698 0
M  V30 46792 C 783.325 -5.5528 -1.86931 0
M  V30 46793 N 783.275 -4.09575 -2.15696 0
M  V30 46794 C 783.125 -3.24249 -1.08435 0
M  V30 46795 O 783.035 -3.63946 0.0628747 0
M  V30 46796 N 783.085 -1.90009 -1.39973 0
M  V30 46797 C 783.175 -1.34884 -2.65614 0
M  V30 46798 O 783.125 -0.123716 -2.81728 0
M  V30 46799 C 783.325 -2.3145 -3.71736 0
M  V30 46800 C 783.435 -1.75913 -5.10438 0
M  V30 46801 C 783.375 -3.63518 -3.44754 0
M  V30 46802 H 786.116 -7.45402 -4.45526 0
M  V30 46803 H 786.385 -5.86062 -3.67208 0
M  V30 46804 H 785.518 -7.84412 -2.24479 0
M  V30 46805 H 782.863 -5.73358 -0.888409 0
M  V30 46806 H 782.584 -5.90877 -3.88583 0
M  V30 46807 H 781.592 -6.65867 -2.58821 0
M  V30 46808 H 783.426 -8.16248 -3.92006 0
M  V30 46809 H 783.497 -4.34551 -4.26383 0
M  V30 46810 H 782.467 -1.85471 -5.61775 0
M  V30 46811 H 784.204 -2.31364 -5.66257 0
M  V30 46812 H 783.716 -0.695936 -5.05229 0
M  V30 46813 H 782.98 -1.26277 -0.63625 0
M  V30 46814 P 781.555 -8.7635 -1.60911 0
M  V30 46815 O 781.335 -10.1388 -1.11561 0
M  V30 46816 O 780.765 -8.36503 -2.79617 0
M  V30 46817 O 781.305 -7.71806 -0.42951 0
M  V30 46818 C 782.245 -7.66948 0.673514 0
M  V30 46819 C 781.515 -7.33374 1.95559 0
M  V30 46820 O 781.305 -5.88721 2.00726 0
M  V30 46821 C 780.115 -7.92218 2.1125 0
M  V30 46822 O 779.725 -8.02971 3.47653 0
M  V30 46823 C 779.235 -6.89504 1.41631 0
M  V30 46824 C 779.945 -5.59106 1.75155 0
M  V30 46825 N 779.895 -4.58136 0.662409 0
M  V30 46826 C 779.745 -3.26059 1.02863 0
M  V30 46827 O 779.655 -2.90743 2.19009 0
M  V30 46828 N 779.705 -2.35995 -0.0155585 0
M  V30 46829 C 779.795 -2.65248 -1.35603 0
M  V30 46830 O 779.745 -1.75605 -2.20651 0
M  V30 46831 C 779.945 -4.05747 -1.64698 0
M  V30 46832 C 780.055 -4.42345 -3.09553 0
M  V30 46833 C 779.995 -4.96734 -0.652411 0
M  V30 46834 H 782.736 -8.64917 0.776982 0
M  V30 46835 H 783.005 -6.89974 0.474015 0
M  V30 46836 H 782.138 -7.66548 2.79458 0
M  V30 46837 H 779.483 -5.16076 2.65138 0
M  V30 46838 H 779.204 -7.06433 0.329384 0
M  V30 46839 H 778.212 -6.90829 1.81996 0
M  V30 46840 H 780.046 -8.90774 1.62639 0
M  V30 46841 H 780.117 -6.02181 -0.895285 0
M  V30 46842 H 779.087 -4.80252 -3.45468 0
M  V30 46843 H 780.824 -5.20015 -3.22119 0
M  V30 46844 H 780.336 -3.53269 -3.67833 0
M  V30 46845 H 779.6 -1.39558 0.227499 0
M  V30 46846 P 778.175 -8.03563 3.84925 0
M  V30 46847 O 777.955 -8.85821 5.0569 0
M  V30 46848 O 777.385 -8.41101 2.65469 0
M  V30 46849 O 777.925 -6.4965 4.18908 0
M  V30 46850 C 778.865 -5.80886 5.05289 0
M  V30 46851 C 778.135 -4.78366 5.89277 0
M  V30 46852 O 777.925 -3.58302 5.08433 0
M  V30 46853 C 776.735 -5.16748 6.36559 0
M  V30 46854 O 776.345 -4.45271 7.53232 0
M  V30 46855 C 775.855 -4.74572 5.19863 0
M  V30 46856 C 776.565 -3.49373 4.70338 0
M  V30 46857 N 776.515 -3.31704 3.22876 0
M  V30 46858 C 776.365 -2.03326 2.74871 0
M  V30 46859 O 776.275 -1.06486 3.48076 0
M  V30 46860 N 776.325 -1.91838 1.37456 0
M  V30 46861 C 776.415 -2.94295 0.462035 0
M  V30 46862 O 776.365 -2.71763 -0.752928 0
M  V30 46863 C 776.565 -4.25064 1.05249 0
M  V30 46864 C 776.675 -5.39815 0.095697 0
M  V30 46865 C 776.615 -4.40214 2.39192 0
M  V30 46866 H 779.356 -6.54063 5.71245 0
M  V30 46867 H 779.625 -5.30339 4.43905 0
M  V30 46868 H 778.758 -4.55889 6.76652 0
M  V30 46869 H 776.103 -2.6167 5.17842 0
M  V30 46870 H 775.824 -5.52155 4.41878 0
M  V30 46871 H 774.832 -4.51918 5.53297 0
M  V30 46872 H 776.666 -6.25055 6.55162 0
M  V30 46873 H 776.737 -5.39798 2.81523 0
M  V30 46874 H 775.707 -5.91593 0.0279582 0
M  V30 46875 H 777.444 -6.10038 0.450573 0
M  V30 46876 H 776.956 -5.02007 -0.89937 0
M  V30 46877 H 776.22 -0.995326 1.00435 0
M  V30 46878 P 774.795 -4.23843 7.83734 0
M  V30 46879 O 774.575 -4.19407 9.29784 0
M  V30 46880 O 774.005 -5.24426 7.09156 0
M  V30 46881 O 774.545 -2.7935 7.20758 0
M  V30 46882 C 775.485 -1.7299 7.50419 0
M  V30 46883 C 774.755 -0.406376 7.57911 0
M  V30 46884 O 774.545 0.0897726 6.21935 0
M  V30 46885 C 773.355 -0.447224 8.1878 0
M  V30 46886 O 772.965 0.825065 8.71101 0
M  V30 46887 C 772.475 -0.783801 6.99623 0
M  V30 46888 C 773.185 -0.0619192 5.85967 0
M  V30 46889 N 773.135 -0.7859 4.56281 0
M  V30 46890 H 775.974 -1.93423 8.4679 0
M  V30 46891 H 776.246 -1.68181 6.71046 0
M  V30 46892 H 775.378 0.289041 8.15388 0
M  V30 46893 P 771.415 1.17771 8.83182 0
M  V30 46894 O 771.195 2.07206 9.98732 0
M  V30 46895 O 770.625 -0.0743816 8.81969 0
M  V30 46896 O 771.165 1.97652 7.47304 0
M  V30 46897 C 772.105 3.01055 7.08599 0
M  V30 46898 C 771.375 4.12613 6.37049 0
M  V30 46899 O 771.165 3.72827 4.97879 0
M  V30 46900 C 769.975 4.45719 6.88164 0
M  V30 46901 O 769.585 5.7877 6.5624 0
M  V30 46902 C 769.095 3.47768 6.11991 0
M  V30 46903 C 769.805 3.39356 4.77615 0
M  V30 46904 N 769.755 2.04571 4.15244 0
M  V30 46905 C 769.605 1.98587 2.78314 0
M  V30 46906 O 769.515 2.98134 2.08835 0
M  V30 46907 N 769.565 0.714467 2.24925 0
M  V30 46908 C 769.655 -0.470001 2.94169 0
M  V30 46909 C 769.805 -0.312541 4.36783 0
M  V30 46910 C 769.855 0.914512 4.92583 0
M  V30 46911 H 772.596 3.41169 7.98575 0
M  V30 46912 H 772.865 2.58295 6.41556 0
M  V30 46913 H 771.998 5.02657 6.42673 0
M  V30 46914 H 769.343 4.11637 4.08885 0
M  V30 46915 H 769.064 2.49626 6.61679 0
M  V30 46916 H 768.072 3.86566 6.00778 0
M  V30 46917 H 769.906 4.29943 7.96918 0
M  V30 46918 H 769.977 1.00937 6.00374 0
M  V30 46919 P 768.035 6.144 6.45285 0
M  V30 46920 O 767.815 7.54673 6.86199 0
M  V30 46921 O 767.245 5.12391 7.179 0
M  V30 46922 O 767.785 5.99158 4.88404 0
M  V30 46923 C 768.725 6.60234 3.96415 0
M  V30 46924 C 767.995 7.08259 2.72856 0
M  V30 46925 O 767.785 5.9427 1.83651 0
M  V30 46926 C 766.595 7.64886 2.9555 0
M  V30 46927 O 766.205 8.53963 1.90717 0
M  V30 46928 C 765.715 6.4116 2.90739 0
M  V30 46929 C 766.425 5.55375 1.86963 0
M  V30 46930 N 766.375 4.09664 2.15742 0
M  V30 46931 H 769.214 7.45574 4.45629 0
M  V30 46932 H 769.486 5.86232 3.67314 0
M  V30 46933 H 768.618 7.84412 2.24479 0
M  V30 46934 P 764.656 8.7635 1.60911 0
M  V30 46935 O 764.436 10.1388 1.11561 0
M  V30 46936 O 763.866 8.36503 2.79617 0
M  V30 46937 O 764.406 7.71806 0.42951 0
M  V30 46938 C 765.346 7.67148 -0.673689 0
M  V30 46939 C 764.616 7.33374 -1.95559 0
M  V30 46940 O 764.406 5.88721 -2.00726 0
M  V30 46941 C 763.216 7.92526 -2.10483 0
M  V30 46942 O 762.826 8.02971 -3.47653 0
M  V30 46943 C 762.336 6.89602 -1.41652 0
M  V30 46944 C 763.046 5.59201 -1.75185 0
M  V30 46945 N 762.996 4.58235 -0.662552 0
M  V30 46946 C 763.076 4.7683 0.704049 0
M  V30 46947 N 762.996 3.66233 1.39775 0
M  V30 46948 C 762.856 2.66526 0.431739 0
M  V30 46949 C 762.726 1.26394 0.575992 0
M  V30 46950 O 762.706 0.589894 1.60503 0
M  V30 46951 N 762.606 0.62859 -0.67177 0
M  V30 46952 C 762.606 1.27134 -1.89385 0
M  V30 46953 N 762.476 0.492035 -2.96951 0
M  V30 46954 N 762.736 2.58978 -2.02907 0
M  V30 46955 C 762.856 3.22433 -0.832218 0
M  V30 46956 H 765.835 8.65116 -0.777161 0
M  V30 46957 H 766.107 6.90173 -0.474152 0
M  V30 46958 H 765.239 7.66548 -2.79458 0
M  V30 46959 H 762.584 5.16254 -2.65229 0
M  V30 46960 H 762.304 7.06532 -0.329431 0
M  V30 46961 H 761.313 6.91023 -1.82047 0
M  V30 46962 H 763.147 8.90971 -1.62675 0
M  V30 46963 H 763.196 5.74954 1.16305 0
M  V30 46964 H 762.514 -0.366713 -0.674793 0
M  V30 46965 H 762.477 0.908532 -3.91188 0
M  V30 46966 H 762.376 -0.528253 -2.85758 0
M  V30 46967 P 761.276 8.03563 -3.84925 0
M  V30 46968 O 761.056 8.85821 -5.0569 0
M  V30 46969 O 760.486 8.41101 -2.65469 0
M  V30 46970 O 761.026 6.4965 -4.18908 0
M  V30 46971 C 761.966 5.81037 -5.05421 0
M  V30 46972 C 761.236 4.78366 -5.89277 0
M  V30 46973 O 761.026 3.58302 -5.08433 0
M  V30 46974 C 759.836 5.17448 -6.36119 0
M  V30 46975 O 759.446 4.45271 -7.53232 0
M  V30 46976 C 758.956 4.74639 -5.19936 0
M  V30 46977 C 759.666 3.49432 -4.70418 0
M  V30 46978 N 759.616 3.31776 -3.22945 0
M  V30 46979 H 762.455 6.54213 -5.71376 0
M  V30 46980 H 762.727 5.30492 -4.44033 0
M  V30 46981 H 761.859 4.55889 -6.76652 0
M  V30 46982 P 757.896 4.23843 -7.83734 0
M  V30 46983 O 757.676 4.19407 -9.29784 0
M  V30 46984 O 757.106 5.24426 -7.09156 0
M  V30 46985 O 757.646 2.7935 -7.20758 0
M  V30 46986 C 758.586 1.7299 -7.50419 0
M  V30 46987 C 757.856 0.406376 -7.57911 0
M  V30 46988 O 757.646 -0.0897726 -6.21935 0
M  V30 46989 C 756.456 0.447224 -8.1878 0
M  V30 46990 O 756.066 -0.825065 -8.71101 0
M  V30 46991 C 755.576 0.783801 -6.99623 0
M  V30 46992 C 756.286 0.0619192 -5.85967 0
M  V30 46993 N 756.236 0.790462 -4.56202 0
M  V30 46994 H 759.075 1.93423 -8.4679 0
M  V30 46995 H 759.347 1.68852 -6.70877 0
M  V30 46996 H 758.479 -0.289041 -8.15388 0
M  V30 46997 H 755.824 -0.927006 -5.72848 0
M  V30 46998 H 755.544 1.86973 -6.82036 0
M  V30 46999 H 754.553 0.403953 -7.13357 0
M  V30 47000 H 756.387 1.20599 -8.97534 0
M  V30 47001 P 754.516 -1.17771 -8.83182 0
M  V30 47002 O 754.296 -2.07206 -9.98732 0
M  V30 47003 O 753.726 0.0743816 -8.81969 0
M  V30 47004 O 754.266 -1.97652 -7.47304 0
M  V30 47005 C 755.206 -3.01055 -7.08599 0
M  V30 47006 C 754.476 -4.12613 -6.37049 0
M  V30 47007 O 754.266 -3.72827 -4.97879 0
M  V30 47008 C 753.076 -4.45719 -6.88164 0
M  V30 47009 O 752.686 -5.7877 -6.5624 0
M  V30 47010 C 752.196 -3.47768 -6.11991 0
M  V30 47011 C 752.906 -3.39356 -4.77615 0
M  V30 47012 N 752.856 -2.04571 -4.15244 0
M  V30 47013 C 752.706 -1.98587 -2.78314 0
M  V30 47014 O 752.616 -2.98134 -2.08835 0
M  V30 47015 N 752.666 -0.714467 -2.24925 0
M  V30 47016 C 752.756 0.470001 -2.94169 0
M  V30 47017 C 752.906 0.312541 -4.36783 0
M  V30 47018 C 752.956 -0.914512 -4.92583 0
M  V30 47019 H 755.697 -3.41169 -7.98575 0
M  V30 47020 H 755.966 -2.58295 -6.41556 0
M  V30 47021 H 755.099 -5.02657 -6.42673 0
M  V30 47022 H 752.444 -4.11637 -4.08885 0
M  V30 47023 H 752.165 -2.49626 -6.61679 0
M  V30 47024 H 751.173 -3.86566 -6.00778 0
M  V30 47025 H 753.007 -4.29943 -7.96918 0
M  V30 47026 H 753.078 -1.00937 -6.00374 0
M  V30 47027 P 751.136 -6.144 -6.45285 0
M  V30 47028 O 750.916 -7.54673 -6.86199 0
M  V30 47029 O 750.346 -5.12391 -7.179 0
M  V30 47030 O 750.886 -5.99158 -4.88404 0
M  V30 47031 C 751.826 -6.60234 -3.96415 0
M  V30 47032 C 751.096 -7.08259 -2.72856 0
M  V30 47033 O 750.886 -5.9427 -1.83651 0
M  V30 47034 C 749.696 -7.64886 -2.9555 0
M  V30 47035 O 749.306 -8.53963 -1.90717 0
M  V30 47036 C 748.816 -6.4116 -2.90739 0
M  V30 47037 C 749.526 -5.55375 -1.86963 0
M  V30 47038 N 749.476 -4.09664 -2.15742 0
M  V30 47039 H 752.315 -7.45574 -4.45629 0
M  V30 47040 H 752.587 -5.86232 -3.67314 0
M  V30 47041 H 751.719 -7.84412 -2.24479 0
M  V30 47042 P 747.756 -8.7635 -1.60911 0
M  V30 47043 O 747.536 -10.1388 -1.11561 0
M  V30 47044 O 746.966 -8.36503 -2.79617 0
M  V30 47045 O 747.506 -7.71806 -0.42951 0
M  V30 47046 C 748.446 -7.66948 0.673514 0
M  V30 47047 C 747.716 -7.33374 1.95559 0
M  V30 47048 O 747.506 -5.88721 2.00726 0
M  V30 47049 C 746.316 -7.92218 2.1125 0
M  V30 47050 O 745.926 -8.02971 3.47653 0
M  V30 47051 C 745.436 -6.89504 1.41631 0
M  V30 47052 C 746.146 -5.59106 1.75155 0
M  V30 47053 N 746.096 -4.58136 0.662409 0
M  V30 47054 C 745.946 -3.26059 1.02863 0
M  V30 47055 O 745.856 -2.90743 2.19009 0
M  V30 47056 N 745.906 -2.35995 -0.0155585 0
M  V30 47057 C 745.996 -2.65248 -1.35603 0
M  V30 47058 O 745.946 -1.75605 -2.20651 0
M  V30 47059 C 746.146 -4.05747 -1.64698 0
M  V30 47060 C 746.256 -4.42345 -3.09553 0
M  V30 47061 C 746.196 -4.96734 -0.652411 0
M  V30 47062 H 748.937 -8.64917 0.776982 0
M  V30 47063 H 749.206 -6.89974 0.474015 0
M  V30 47064 H 748.339 -7.66548 2.79458 0
M  V30 47065 H 745.684 -5.16076 2.65138 0
M  V30 47066 H 745.405 -7.06433 0.329384 0
M  V30 47067 H 744.413 -6.90829 1.81996 0
M  V30 47068 H 746.247 -8.90774 1.62639 0
M  V30 47069 H 746.318 -6.02181 -0.895285 0
M  V30 47070 H 745.288 -4.80252 -3.45468 0
M  V30 47071 H 747.025 -5.20015 -3.22119 0
M  V30 47072 H 746.537 -3.53269 -3.67833 0
M  V30 47073 H 745.801 -1.39558 0.227499 0
M  V30 47074 P 744.376 -8.03563 3.84925 0
M  V30 47075 O 744.156 -8.85821 5.0569 0
M  V30 47076 O 743.586 -8.41101 2.65469 0
M  V30 47077 O 744.126 -6.4965 4.18908 0
M  V30 47078 C 745.066 -5.80886 5.05289 0
M  V30 47079 C 744.336 -4.78366 5.89277 0
M  V30 47080 O 744.126 -3.58302 5.08433 0
M  V30 47081 C 742.936 -5.16748 6.36559 0
M  V30 47082 O 742.546 -4.45271 7.53232 0
M  V30 47083 C 742.056 -4.74572 5.19863 0
M  V30 47084 C 742.766 -3.49373 4.70338 0
M  V30 47085 N 742.716 -3.31704 3.22876 0
M  V30 47086 C 742.566 -2.03326 2.74871 0
M  V30 47087 O 742.476 -1.06486 3.48076 0
M  V30 47088 N 742.526 -1.91838 1.37456 0
M  V30 47089 C 742.616 -2.94295 0.462035 0
M  V30 47090 C 742.766 -4.25064 1.05249 0
M  V30 47091 C 742.816 -4.40214 2.39192 0
M  V30 47092 H 745.557 -6.54063 5.71245 0
M  V30 47093 H 745.826 -5.30339 4.43905 0
M  V30 47094 H 744.959 -4.55889 6.76652 0
M  V30 47095 H 742.304 -2.6167 5.17842 0
M  V30 47096 H 742.025 -5.52155 4.41878 0
M  V30 47097 H 741.033 -4.51918 5.53297 0
M  V30 47098 H 742.867 -6.25055 6.55162 0
M  V30 47099 H 742.938 -5.39798 2.81523 0
M  V30 47100 P 740.996 -4.23843 7.83734 0
M  V30 47101 O 740.776 -4.19407 9.29784 0
M  V30 47102 O 740.206 -5.24426 7.09156 0
M  V30 47103 O 740.746 -2.7935 7.20758 0
M  V30 47104 C 741.686 -1.7299 7.50419 0
M  V30 47105 C 740.956 -0.406376 7.57911 0
M  V30 47106 O 740.746 0.0897726 6.21935 0
M  V30 47107 C 739.556 -0.447224 8.1878 0
M  V30 47108 O 739.166 0.825065 8.71101 0
M  V30 47109 C 738.676 -0.783801 6.99623 0
M  V30 47110 C 739.386 -0.0619192 5.85967 0
M  V30 47111 N 739.336 -0.7859 4.56281 0
M  V30 47112 C 739.416 -2.14308 4.31736 0
M  V30 47113 N 739.336 -2.46106 3.05116 0
M  V30 47114 C 739.196 -1.23422 2.4014 0
M  V30 47115 C 739.066 -0.938381 1.02409 0
M  V30 47116 O 739.046 -1.70876 0.0650402 0
M  V30 47117 N 738.946 0.444647 0.805413 0
M  V30 47118 C 738.946 1.40829 1.79435 0
M  V30 47119 N 738.816 2.67213 1.38558 0
M  V30 47120 N 739.076 1.12947 3.09005 0
M  V30 47121 C 739.196 -0.204887 3.32369 0
M  V30 47122 H 742.175 -1.93423 8.4679 0
M  V30 47123 H 742.447 -1.68181 6.71046 0
M  V30 47124 H 741.579 0.289041 8.15388 0
M  V30 47125 H 738.924 0.927166 5.72947 0
M  V30 47126 H 738.644 -1.87 6.82132 0
M  V30 47127 H 737.653 -0.404009 7.13457 0
M  V30 47128 H 739.487 -1.20612 8.97633 0
M  V30 47129 H 739.536 -2.88284 5.10874 0
M  V30 47130 H 738.854 0.755087 -0.140242 0
M  V30 47131 H 738.817 3.43967 2.0729 0
M  V30 47132 H 738.716 2.88096 0.380644 0
M  V30 47133 P 737.616 1.17771 8.83182 0
M  V30 47134 O 737.396 2.07206 9.98732 0
M  V30 47135 O 736.826 -0.0743816 8.81969 0
M  V30 47136 O 737.366 1.97652 7.47304 0
M  V30 47137 C 738.306 3.01133 7.08783 0
M  V30 47138 C 737.576 4.12613 6.37049 0
M  V30 47139 O 737.366 3.72827 4.97879 0
M  V30 47140 C 736.176 4.45085 6.88694 0
M  V30 47141 O 735.786 5.7877 6.5624 0
M  V30 47142 C 735.296 3.47817 6.12078 0
M  V30 47143 C 736.006 3.39414 4.77697 0
M  V30 47144 N 735.956 2.04615 4.15333 0
M  V30 47145 H 738.795 3.41248 7.98759 0
M  V30 47146 H 739.067 2.5837 6.41742 0
M  V30 47147 H 738.199 5.02657 6.42673 0
M  V30 47148 P 734.236 6.144 6.45285 0
M  V30 47149 O 734.016 7.54673 6.86199 0
M  V30 47150 O 733.446 5.12391 7.179 0
M  V30 47151 O 733.986 5.99158 4.88404 0
M  V30 47152 C 734.926 6.60234 3.96415 0
M  V30 47153 C 734.196 7.08259 2.72856 0
M  V30 47154 O 733.986 5.9427 1.83651 0
M  V30 47155 C 732.796 7.64886 2.9555 0
M  V30 47156 O 732.406 8.53963 1.90717 0
M  V30 47157 C 731.916 6.4116 2.90739 0
M  V30 47158 C 732.626 5.55375 1.86963 0
M  V30 47159 N 732.576 4.09664 2.15742 0
M  V30 47160 H 735.415 7.45574 4.45629 0
M  V30 47161 H 735.687 5.86232 3.67314 0
M  V30 47162 H 734.819 7.84412 2.24479 0
M  V30 47163 P 730.856 8.7635 1.60911 0
M  V30 47164 O 730.636 10.1388 1.11561 0
M  V30 47165 O 730.066 8.36503 2.79617 0
M  V30 47166 O 730.606 7.71806 0.42951 0
M  V30 47167 C 731.546 7.67148 -0.673689 0
M  V30 47168 C 730.816 7.33374 -1.95559 0
M  V30 47169 O 730.606 5.88721 -2.00726 0
M  V30 47170 C 729.416 7.92526 -2.10483 0
M  V30 47171 O 729.026 8.02971 -3.47653 0
M  V30 47172 C 728.536 6.89602 -1.41652 0
M  V30 47173 C 729.246 5.59201 -1.75185 0
M  V30 47174 N 729.196 4.58235 -0.662552 0
M  V30 47175 H 732.035 8.65116 -0.777161 0
M  V30 47176 H 732.307 6.90173 -0.474152 0
M  V30 47177 H 731.439 7.66548 -2.79458 0
M  V30 47178 P 727.476 8.03563 -3.84925 0
M  V30 47179 O 727.256 8.85821 -5.0569 0
M  V30 47180 O 726.686 8.41101 -2.65469 0
M  V30 47181 O 727.226 6.4965 -4.18908 0
M  V30 47182 C 728.166 5.80886 -5.05289 0
M  V30 47183 C 727.436 4.78366 -5.89277 0
M  V30 47184 O 727.226 3.58302 -5.08433 0
M  V30 47185 C 726.036 5.16748 -6.36559 0
M  V30 47186 O 725.646 4.45271 -7.53232 0
M  V30 47187 C 725.156 4.74572 -5.19863 0
M  V30 47188 C 725.866 3.49373 -4.70338 0
M  V30 47189 N 725.816 3.31704 -3.22876 0
M  V30 47190 C 725.666 2.03326 -2.74871 0
M  V30 47191 O 725.576 1.06486 -3.48076 0
M  V30 47192 N 725.626 1.91838 -1.37456 0
M  V30 47193 C 725.716 2.94295 -0.462035 0
M  V30 47194 C 725.866 4.25064 -1.05249 0
M  V30 47195 C 725.916 4.40214 -2.39192 0
M  V30 47196 H 728.657 6.54063 -5.71245 0
M  V30 47197 H 728.926 5.30339 -4.43905 0
M  V30 47198 H 728.059 4.55889 -6.76652 0
M  V30 47199 H 725.404 2.6167 -5.17842 0
M  V30 47200 H 725.125 5.52155 -4.41878 0
M  V30 47201 H 724.133 4.51918 -5.53297 0
M  V30 47202 H 725.967 6.25055 -6.55162 0
M  V30 47203 H 726.038 5.39798 -2.81523 0
M  V30 47204 P 724.096 4.23843 -7.83734 0
M  V30 47205 O 723.876 4.19407 -9.29784 0
M  V30 47206 O 723.306 5.24426 -7.09156 0
M  V30 47207 O 723.846 2.7935 -7.20758 0
M  V30 47208 C 724.786 1.7299 -7.50419 0
M  V30 47209 C 724.056 0.406376 -7.57911 0
M  V30 47210 O 723.846 -0.0897726 -6.21935 0
M  V30 47211 C 722.656 0.447224 -8.1878 0
M  V30 47212 O 722.266 -0.825065 -8.71101 0
M  V30 47213 C 721.776 0.783801 -6.99623 0
M  V30 47214 C 722.486 0.0619192 -5.85967 0
M  V30 47215 N 722.436 0.790462 -4.56202 0
M  V30 47216 H 725.275 1.93423 -8.4679 0
M  V30 47217 H 725.547 1.68852 -6.70877 0
M  V30 47218 H 724.679 -0.289041 -8.15388 0
M  V30 47219 H 722.024 -0.927006 -5.72848 0
M  V30 47220 H 721.744 1.86973 -6.82036 0
M  V30 47221 H 720.753 0.403953 -7.13357 0
M  V30 47222 H 722.587 1.20599 -8.97534 0
M  V30 47223 P 720.716 -1.17771 -8.83182 0
M  V30 47224 O 720.496 -2.07206 -9.98732 0
M  V30 47225 O 719.926 0.0743816 -8.81969 0
M  V30 47226 O 720.466 -1.97652 -7.47304 0
M  V30 47227 C 721.406 -3.01133 -7.08783 0
M  V30 47228 C 720.676 -4.12613 -6.37049 0
M  V30 47229 O 720.466 -3.72827 -4.97879 0
M  V30 47230 C 719.276 -4.45085 -6.88694 0
M  V30 47231 O 718.886 -5.7877 -6.5624 0
M  V30 47232 C 718.396 -3.47817 -6.12078 0
M  V30 47233 C 719.106 -3.39414 -4.77697 0
M  V30 47234 N 719.056 -2.04615 -4.15333 0
M  V30 47235 H 721.895 -3.41248 -7.98759 0
M  V30 47236 H 722.167 -2.5837 -6.41742 0
M  V30 47237 H 721.299 -5.02657 -6.42673 0
M  V30 47238 P 717.336 -6.144 -6.45285 0
M  V30 47239 O 717.116 -7.54673 -6.86199 0
M  V30 47240 O 716.546 -5.12391 -7.179 0
M  V30 47241 O 717.086 -5.99158 -4.88404 0
M  V30 47242 C 718.026 -6.60234 -3.96415 0
M  V30 47243 C 717.296 -7.08259 -2.72856 0
M  V30 47244 O 717.086 -5.9427 -1.83651 0
M  V30 47245 C 715.896 -7.64886 -2.9555 0
M  V30 47246 O 715.506 -8.53963 -1.90717 0
M  V30 47247 C 715.016 -6.4116 -2.90739 0
M  V30 47248 C 715.726 -5.55375 -1.86963 0
M  V30 47249 N 715.676 -4.09664 -2.15742 0
M  V30 47250 H 718.515 -7.45574 -4.45629 0
M  V30 47251 H 718.787 -5.86232 -3.67314 0
M  V30 47252 H 717.919 -7.84412 -2.24479 0
M  V30 47253 P 713.956 -8.7635 -1.60911 0
M  V30 47254 O 713.736 -10.1388 -1.11561 0
M  V30 47255 O 713.166 -8.36503 -2.79617 0
M  V30 47256 O 713.706 -7.71806 -0.42951 0
M  V30 47257 C 714.646 -7.66948 0.673514 0
M  V30 47258 C 713.916 -7.33374 1.95559 0
M  V30 47259 O 713.706 -5.88721 2.00726 0
M  V30 47260 C 712.516 -7.92218 2.1125 0
M  V30 47261 O 712.126 -8.02971 3.47653 0
M  V30 47262 C 711.636 -6.89504 1.41631 0
M  V30 47263 C 712.346 -5.59106 1.75155 0
M  V30 47264 N 712.296 -4.58136 0.662409 0
M  V30 47265 C 712.146 -3.26059 1.02863 0
M  V30 47266 O 712.056 -2.90743 2.19009 0
M  V30 47267 N 712.106 -2.35995 -0.0155585 0
M  V30 47268 C 712.196 -2.65248 -1.35603 0
M  V30 47269 O 712.146 -1.75605 -2.20651 0
M  V30 47270 C 712.346 -4.05747 -1.64698 0
M  V30 47271 C 712.456 -4.42345 -3.09553 0
M  V30 47272 C 712.396 -4.96734 -0.652411 0
M  V30 47273 H 715.137 -8.64917 0.776982 0
M  V30 47274 H 715.406 -6.89974 0.474015 0
M  V30 47275 H 714.539 -7.66548 2.79458 0
M  V30 47276 H 711.884 -5.16076 2.65138 0
M  V30 47277 H 711.605 -7.06433 0.329384 0
M  V30 47278 H 710.613 -6.90829 1.81996 0
M  V30 47279 H 712.447 -8.90774 1.62639 0
M  V30 47280 H 712.518 -6.02181 -0.895285 0
M  V30 47281 H 711.488 -4.80252 -3.45468 0
M  V30 47282 H 713.225 -5.20015 -3.22119 0
M  V30 47283 H 712.737 -3.53269 -3.67833 0
M  V30 47284 H 712.001 -1.39558 0.227499 0
M  V30 47285 P 710.576 -8.03563 3.84925 0
M  V30 47286 O 710.356 -8.85821 5.0569 0
M  V30 47287 O 709.786 -8.41101 2.65469 0
M  V30 47288 O 710.326 -6.4965 4.18908 0
M  V30 47289 C 711.266 -5.81037 5.05421 0
M  V30 47290 C 710.536 -4.78366 5.89277 0
M  V30 47291 O 710.326 -3.58302 5.08433 0
M  V30 47292 C 709.136 -5.17448 6.36119 0
M  V30 47293 O 708.746 -4.45271 7.53232 0
M  V30 47294 C 708.256 -4.74639 5.19936 0
M  V30 47295 C 708.966 -3.49432 4.70418 0
M  V30 47296 N 708.916 -3.32099 3.22613 0
M  V30 47297 H 711.755 -6.54213 5.71376 0
M  V30 47298 H 712.027 -5.30936 4.43503 0
M  V30 47299 H 711.159 -4.55889 6.76652 0
M  V30 47300 H 708.504 -2.61715 5.17932 0
M  V30 47301 H 708.224 -5.52155 4.41878 0
M  V30 47302 H 707.233 -4.51981 5.53374 0
M  V30 47303 H 709.067 -6.25124 6.55234 0
M  V30 47304 P 707.196 -4.23843 7.83734 0
M  V30 47305 O 706.976 -4.19407 9.29784 0
M  V30 47306 O 706.406 -5.24426 7.09156 0
M  V30 47307 O 706.946 -2.7935 7.20758 0
M  V30 47308 C 707.886 -1.7299 7.50419 0
M  V30 47309 C 707.156 -0.406376 7.57911 0
M  V30 47310 O 706.946 0.0897726 6.21935 0
M  V30 47311 C 705.756 -0.447224 8.1878 0
M  V30 47312 O 705.366 0.825065 8.71101 0
M  V30 47313 C 704.876 -0.783801 6.99623 0
M  V30 47314 C 705.586 -0.0619192 5.85967 0
M  V30 47315 N 705.536 -0.7859 4.56281 0
M  V30 47316 H 708.375 -1.93423 8.4679 0
M  V30 47317 H 708.647 -1.68181 6.71046 0
M  V30 47318 H 707.779 0.289041 8.15388 0
M  V30 47319 P 703.816 1.17771 8.83182 0
M  V30 47320 O 703.596 2.07206 9.98732 0
M  V30 47321 O 703.026 -0.0743816 8.81969 0
M  V30 47322 O 703.566 1.97652 7.47304 0
M  V30 47323 C 704.506 3.01133 7.08783 0
M  V30 47324 C 703.776 4.12613 6.37049 0
M  V30 47325 O 703.566 3.72827 4.97879 0
M  V30 47326 C 702.376 4.45085 6.88694 0
M  V30 47327 O 701.986 5.7877 6.5624 0
M  V30 47328 C 701.496 3.47817 6.12078 0
M  V30 47329 C 702.206 3.39414 4.77697 0
M  V30 47330 N 702.156 2.04615 4.15333 0
M  V30 47331 H 704.995 3.41248 7.98759 0
M  V30 47332 H 705.267 2.5837 6.41742 0
M  V30 47333 H 704.399 5.02657 6.42673 0
M  V30 47334 P 700.436 6.144 6.45285 0
M  V30 47335 O 700.216 7.54673 6.86199 0
M  V30 47336 O 699.646 5.12391 7.179 0
M  V30 47337 O 700.186 5.99158 4.88404 0
M  V30 47338 C 701.126 6.60234 3.96415 0
M  V30 47339 C 700.396 7.08259 2.72856 0
M  V30 47340 O 700.186 5.9427 1.83651 0
M  V30 47341 C 698.996 7.64886 2.9555 0
M  V30 47342 O 698.606 8.53963 1.90717 0
M  V30 47343 C 698.116 6.4116 2.90739 0
M  V30 47344 C 698.826 5.55375 1.86963 0
M  V30 47345 N 698.776 4.09664 2.15742 0
M  V30 47346 C 698.856 3.44381 3.37233 0
M  V30 47347 N 698.776 2.14131 3.28347 0
M  V30 47348 C 698.636 1.90247 1.91588 0
M  V30 47349 C 698.506 0.683992 1.20892 0
M  V30 47350 N 698.386 0.903396 -0.173998 0
M  V30 47351 C 698.386 2.14171 -0.784879 0
M  V30 47352 N 698.256 2.1435 -2.11317 0
M  V30 47353 N 698.516 3.28784 -0.119316 0
M  V30 47354 C 698.636 3.0977 1.22194 0
M  V30 47355 H 701.615 7.45574 4.45629 0
M  V30 47356 H 701.887 5.86232 3.67314 0
M  V30 47357 H 701.019 7.84412 2.24479 0
M  V30 47358 P 697.056 8.7635 1.60911 0
M  V30 47359 O 696.836 10.1388 1.11561 0
M  V30 47360 O 696.266 8.36503 2.79617 0
M  V30 47361 O 696.806 7.71806 0.42951 0
M  V30 47362 C 697.746 7.67148 -0.673689 0
M  V30 47363 C 697.016 7.33374 -1.95559 0
M  V30 47364 O 696.806 5.88721 -2.00726 0
M  V30 47365 C 695.616 7.92526 -2.10483 0
M  V30 47366 O 695.226 8.02971 -3.47653 0
M  V30 47367 C 694.736 6.89602 -1.41652 0
M  V30 47368 C 695.446 5.59201 -1.75185 0
M  V30 47369 N 695.396 4.58235 -0.662552 0
M  V30 47370 H 698.235 8.65116 -0.777161 0
M  V30 47371 H 698.507 6.90173 -0.474152 0
M  V30 47372 H 697.639 7.66548 -2.79458 0
M  V30 47373 P 693.676 8.03563 -3.84925 0
M  V30 47374 O 693.456 8.85821 -5.0569 0
M  V30 47375 O 692.886 8.41101 -2.65469 0
M  V30 47376 O 693.426 6.4965 -4.18908 0
M  V30 47377 C 694.366 5.81037 -5.05421 0
M  V30 47378 C 693.636 4.78366 -5.89277 0
M  V30 47379 O 693.426 3.58302 -5.08433 0
M  V30 47380 C 692.236 5.17448 -6.36119 0
M  V30 47381 O 691.846 4.45271 -7.53232 0
M  V30 47382 C 691.356 4.74639 -5.19936 0
M  V30 47383 C 692.066 3.49432 -4.70418 0
M  V30 47384 N 692.016 3.31776 -3.22945 0
M  V30 47385 C 692.096 4.27147 -2.23315 0
M  V30 47386 N 692.016 3.78447 -1.02186 0
M  V30 47387 C 691.876 2.41001 -1.21732 0
M  V30 47388 C 691.746 1.36111 -0.27694 0
M  V30 47389 N 691.626 0.113683 -0.912949 0
M  V30 47390 C 691.626 -0.0846396 -2.27943 0
M  V30 47391 N 691.496 -1.34737 -2.6916 0
M  V30 47392 N 691.756 0.902521 -3.16379 0
M  V30 47393 C 691.876 2.11937 -2.56849 0
M  V30 47394 H 694.855 6.54213 -5.71376 0
M  V30 47395 H 695.127 5.30492 -4.44033 0
M  V30 47396 H 694.259 4.55889 -6.76652 0
M  V30 47397 P 690.296 4.23843 -7.83734 0
M  V30 47398 O 690.076 4.19407 -9.29784 0
M  V30 47399 O 689.506 5.24426 -7.09156 0
M  V30 47400 O 690.046 2.7935 -7.20758 0
M  V30 47401 C 690.986 1.7299 -7.50419 0
M  V30 47402 C 690.256 0.406376 -7.57911 0
M  V30 47403 O 690.046 -0.0897726 -6.21935 0
M  V30 47404 C 688.856 0.447224 -8.1878 0
M  V30 47405 O 688.466 -0.825065 -8.71101 0
M  V30 47406 C 687.976 0.783801 -6.99623 0
M  V30 47407 C 688.686 0.0619192 -5.85967 0
M  V30 47408 N 688.636 0.7859 -4.56281 0
M  V30 47409 H 691.475 1.93423 -8.4679 0
M  V30 47410 H 691.747 1.68181 -6.71046 0
M  V30 47411 H 690.879 -0.289041 -8.15388 0
M  V30 47412 P 686.916 -1.17771 -8.83182 0
M  V30 47413 O 686.696 -2.07206 -9.98732 0
M  V30 47414 O 686.126 0.0743816 -8.81969 0
M  V30 47415 O 686.666 -1.97652 -7.47304 0
M  V30 47416 C 687.606 -3.01055 -7.08599 0
M  V30 47417 C 686.876 -4.12613 -6.37049 0
M  V30 47418 O 686.666 -3.72827 -4.97879 0
M  V30 47419 C 685.476 -4.45719 -6.88164 0
M  V30 47420 O 685.086 -5.7877 -6.5624 0
M  V30 47421 C 684.596 -3.47768 -6.11991 0
M  V30 47422 C 685.306 -3.39356 -4.77615 0
M  V30 47423 N 685.256 -2.04571 -4.15244 0
M  V30 47424 C 685.106 -1.98587 -2.78314 0
M  V30 47425 O 685.016 -2.98134 -2.08835 0
M  V30 47426 N 685.066 -0.714467 -2.24925 0
M  V30 47427 C 685.156 0.470001 -2.94169 0
M  V30 47428 C 685.306 0.312541 -4.36783 0
M  V30 47429 C 685.356 -0.914512 -4.92583 0
M  V30 47430 H 688.097 -3.41169 -7.98575 0
M  V30 47431 H 688.366 -2.58295 -6.41556 0
M  V30 47432 H 687.499 -5.02657 -6.42673 0
M  V30 47433 H 684.844 -4.11637 -4.08885 0
M  V30 47434 H 684.565 -2.49626 -6.61679 0
M  V30 47435 H 683.573 -3.86566 -6.00778 0
M  V30 47436 H 685.407 -4.29943 -7.96918 0
M  V30 47437 H 685.478 -1.00937 -6.00374 0
M  V30 47438 P 683.536 -6.144 -6.45285 0
M  V30 47439 O 683.316 -7.54673 -6.86199 0
M  V30 47440 O 682.746 -5.12391 -7.179 0
M  V30 47441 O 683.286 -5.99158 -4.88404 0
M  V30 47442 C 684.226 -6.60234 -3.96415 0
M  V30 47443 C 683.496 -7.08259 -2.72856 0
M  V30 47444 O 683.286 -5.9427 -1.83651 0
M  V30 47445 C 682.096 -7.64886 -2.9555 0
M  V30 47446 O 681.706 -8.53963 -1.90717 0
M  V30 47447 C 681.216 -6.4116 -2.90739 0
M  V30 47448 C 681.926 -5.55375 -1.86963 0
M  V30 47449 N 681.876 -4.09448 -2.16152 0
M  V30 47450 C 681.956 -3.46824 -3.37593 0
M  V30 47451 N 681.886 -2.17422 -3.29777 0
M  V30 47452 C 681.736 -1.93065 -1.94427 0
M  V30 47453 C 681.606 -0.738053 -1.20141 0
M  V30 47454 N 681.596 0.474256 -1.74676 0
M  V30 47455 N 681.486 -0.850049 0.13045 0
M  V30 47456 C 681.496 -2.06169 0.676992 0
M  V30 47457 N 681.616 -3.23842 0.101312 0
M  V30 47458 C 681.736 -3.09402 -1.23122 0
M  V30 47459 H 684.715 -7.45574 -4.45629 0
M  V30 47460 H 684.987 -5.85864 -3.679 0
M  V30 47461 H 684.119 -7.84412 -2.24479 0
M  V30 47462 H 681.464 -5.73457 -0.888562 0
M  V30 47463 H 681.184 -5.90877 -3.88583 0
M  V30 47464 H 680.193 -6.6596 -2.58858 0
M  V30 47465 H 682.027 -8.16339 -3.92049 0
M  V30 47466 H 682.068 -4.00505 -4.3174 0
M  V30 47467 H 681.687 0.581337 -2.76658 0
M  V30 47468 H 681.498 1.30811 -1.14888 0
M  V30 47469 H 681.39 -2.08295 1.75542 0
M  V30 47470 P 680.156 -8.7635 -1.60911 0
M  V30 47471 O 679.936 -10.1388 -1.11561 0
M  V30 47472 O 679.366 -8.36503 -2.79617 0
M  V30 47473 O 679.906 -7.71906 -0.429565 0
M  V30 47474 C 680.846 -7.67148 0.673689 0
M  V30 47475 C 680.116 -7.33666 1.94851 0
M  V30 47476 O 679.906 -5.88816 2.00759 0
M  V30 47477 C 678.716 -7.92526 2.10483 0
M  V30 47478 O 678.326 -8.03063 3.47693 0
M  V30 47479 C 677.836 -6.89602 1.41652 0
M  V30 47480 C 678.546 -5.59201 1.75185 0
M  V30 47481 N 678.496 -4.58235 0.662552 0
M  V30 47482 C 678.346 -3.24451 1.01643 0
M  V30 47483 O 678.256 -2.94958 2.21722 0
M  V30 47484 N 678.296 -2.30408 -0.165238 0
M  V30 47485 C 678.396 -2.66048 -1.25118 0
M  V30 47486 N 678.346 -1.70787 -2.16813 0
M  V30 47487 C 678.546 -4.02732 -1.64413 0
M  V30 47488 C 678.596 -4.9488 -0.63991 0
M  V30 47489 H 681.336 -8.65017 0.777072 0
M  V30 47490 H 681.606 -6.90173 0.474152 0
M  V30 47491 H 680.739 -7.66642 2.79492 0
M  V30 47492 H 678.084 -5.16254 2.65229 0
M  V30 47493 H 677.804 -7.06532 0.329431 0
M  V30 47494 H 676.813 -6.91023 1.82047 0
M  V30 47495 H 678.647 -8.90873 1.62657 0
M  V30 47496 H 678.719 -6.00104 -0.892197 0
M  V30 47497 H 678.617 -4.31733 -2.69229 0
M  V30 47498 H 678.229 -0.724835 -1.8844 0
M  V30 47499 H 678.425 -1.94716 -3.16734 0
M  V30 47500 P 676.776 -8.03563 3.84925 0
M  V30 47501 O 676.556 -8.85821 5.0569 0
M  V30 47502 O 675.986 -8.41101 2.65469 0
M  V30 47503 O 676.526 -6.4965 4.18908 0
M  V30 47504 C 677.466 -5.81037 5.05421 0
M  V30 47505 C 676.736 -4.78366 5.89277 0
M  V30 47506 O 676.526 -3.58302 5.08433 0
M  V30 47507 C 675.336 -5.17448 6.36119 0
M  V30 47508 O 674.946 -4.45271 7.53232 0
M  V30 47509 C 674.456 -4.74639 5.19936 0
M  V30 47510 C 675.166 -3.49432 4.70418 0
M  V30 47511 N 675.116 -3.31776 3.22945 0
M  V30 47512 C 675.196 -4.27147 2.23315 0
M  V30 47513 N 675.116 -3.78447 1.02186 0
M  V30 47514 C 674.976 -2.41001 1.21732 0
M  V30 47515 C 674.846 -1.36111 0.27694 0
M  V30 47516 N 674.726 -0.113683 0.912949 0
M  V30 47517 C 674.726 0.0846396 2.27943 0
M  V30 47518 N 674.596 1.34737 2.6916 0
M  V30 47519 N 674.856 -0.902521 3.16379 0
M  V30 47520 C 674.976 -2.11937 2.56849 0
M  V30 47521 H 677.955 -6.54213 5.71376 0
M  V30 47522 H 678.227 -5.30492 4.44033 0
M  V30 47523 H 677.359 -4.55889 6.76652 0
M  V30 47524 P 673.396 -4.23843 7.83734 0
M  V30 47525 O 673.176 -4.19407 9.29784 0
M  V30 47526 O 672.606 -5.24426 7.09156 0
M  V30 47527 O 673.146 -2.7935 7.20758 0
M  V30 47528 C 674.086 -1.7299 7.50419 0
M  V30 47529 C 673.356 -0.406376 7.57911 0
M  V30 47530 O 673.146 0.0897726 6.21935 0
M  V30 47531 C 671.956 -0.447224 8.1878 0
M  V30 47532 O 671.566 0.825065 8.71101 0
M  V30 47533 C 671.076 -0.783801 6.99623 0
M  V30 47534 C 671.786 -0.0619192 5.85967 0
M  V30 47535 N 671.736 -0.7859 4.56281 0
M  V30 47536 H 674.575 -1.93423 8.4679 0
M  V30 47537 H 674.847 -1.68181 6.71046 0
M  V30 47538 H 673.979 0.289041 8.15388 0
M  V30 47539 P 670.016 1.17771 8.83182 0
M  V30 47540 O 669.796 2.07206 9.98732 0
M  V30 47541 O 669.226 -0.0743816 8.81969 0
M  V30 47542 O 669.766 1.97652 7.47304 0
M  V30 47543 C 670.706 3.01133 7.08783 0
M  V30 47544 C 669.976 4.12613 6.37049 0
M  V30 47545 O 669.766 3.72827 4.97879 0
M  V30 47546 C 668.576 4.45085 6.88694 0
M  V30 47547 O 668.186 5.7877 6.5624 0
M  V30 47548 C 667.696 3.47817 6.12078 0
M  V30 47549 C 668.406 3.39414 4.77697 0
M  V30 47550 N 668.356 2.04615 4.15333 0
M  V30 47551 H 671.195 3.41248 7.98759 0
M  V30 47552 H 671.467 2.5837 6.41742 0
M  V30 47553 H 670.599 5.02657 6.42673 0
M  V30 47554 P 666.636 6.144 6.45285 0
M  V30 47555 O 666.416 7.54673 6.86199 0
M  V30 47556 O 665.846 5.12391 7.179 0
M  V30 47557 O 666.386 5.99158 4.88404 0
M  V30 47558 C 667.326 6.60234 3.96415 0
M  V30 47559 C 666.596 7.08259 2.72856 0
M  V30 47560 O 666.386 5.9427 1.83651 0
M  V30 47561 C 665.196 7.64886 2.9555 0
M  V30 47562 O 664.806 8.53963 1.90717 0
M  V30 47563 C 664.316 6.4116 2.90739 0
M  V30 47564 C 665.026 5.55375 1.86963 0
M  V30 47565 N 664.976 4.09664 2.15742 0
M  V30 47566 H 667.815 7.45574 4.45629 0
M  V30 47567 H 668.087 5.86232 3.67314 0
M  V30 47568 H 667.219 7.84412 2.24479 0
M  V30 47569 P 663.256 8.7635 1.60911 0
M  V30 47570 O 663.036 10.1388 1.11561 0
M  V30 47571 O 662.466 8.36503 2.79617 0
M  V30 47572 O 663.006 7.71806 0.42951 0
M  V30 47573 C 663.946 7.66948 -0.673514 0
M  V30 47574 C 663.216 7.33374 -1.95559 0
M  V30 47575 O 663.006 5.88721 -2.00726 0
M  V30 47576 C 661.816 7.92218 -2.1125 0
M  V30 47577 O 661.426 8.02971 -3.47653 0
M  V30 47578 C 660.936 6.89504 -1.41631 0
M  V30 47579 C 661.646 5.59106 -1.75155 0
M  V30 47580 N 661.596 4.58136 -0.662409 0
M  V30 47581 C 661.446 3.26059 -1.02863 0
M  V30 47582 O 661.356 2.90743 -2.19009 0
M  V30 47583 N 661.406 2.35995 0.0155585 0
M  V30 47584 C 661.496 2.65248 1.35603 0
M  V30 47585 O 661.446 1.75605 2.20651 0
M  V30 47586 C 661.646 4.05747 1.64698 0
M  V30 47587 C 661.756 4.42345 3.09553 0
M  V30 47588 C 661.696 4.96734 0.652411 0
M  V30 47589 H 664.437 8.64917 -0.776982 0
M  V30 47590 H 664.706 6.89974 -0.474015 0
M  V30 47591 H 663.839 7.66548 -2.79458 0
M  V30 47592 H 661.184 5.16076 -2.65138 0
M  V30 47593 H 660.905 7.06433 -0.329384 0
M  V30 47594 H 659.913 6.90829 -1.81996 0
M  V30 47595 H 661.747 8.90774 -1.62639 0
M  V30 47596 H 661.818 6.02181 0.895285 0
M  V30 47597 H 660.788 4.80252 3.45468 0
M  V30 47598 H 662.525 5.20015 3.22119 0
M  V30 47599 H 662.037 3.53269 3.67833 0
M  V30 47600 H 661.301 1.39558 -0.227499 0
M  V30 47601 P 659.876 8.03563 -3.84925 0
M  V30 47602 O 659.656 8.85821 -5.0569 0
M  V30 47603 O 659.086 8.41101 -2.65469 0
M  V30 47604 O 659.626 6.4965 -4.18908 0
M  V30 47605 C 660.566 5.81037 -5.05421 0
M  V30 47606 C 659.836 4.78366 -5.89277 0
M  V30 47607 O 659.626 3.58302 -5.08433 0
M  V30 47608 C 658.436 5.17448 -6.36119 0
M  V30 47609 O 658.046 4.45271 -7.53232 0
M  V30 47610 C 657.556 4.74639 -5.19936 0
M  V30 47611 C 658.266 3.49432 -4.70418 0
M  V30 47612 N 658.216 3.31776 -3.22945 0
M  V30 47613 H 661.055 6.54213 -5.71376 0
M  V30 47614 H 661.327 5.30492 -4.44033 0
M  V30 47615 H 660.459 4.55889 -6.76652 0
M  V30 47616 P 656.496 4.23843 -7.83734 0
M  V30 47617 O 656.276 4.19407 -9.29784 0
M  V30 47618 O 655.706 5.24426 -7.09156 0
M  V30 47619 O 656.246 2.7935 -7.20758 0
M  V30 47620 C 657.186 1.72945 -7.50224 0
M  V30 47621 C 656.456 0.406376 -7.57911 0
M  V30 47622 O 656.246 -0.0897726 -6.21935 0
M  V30 47623 C 655.056 0.438983 -8.18724 0
M  V30 47624 O 654.666 -0.825065 -8.71101 0
M  V30 47625 C 654.176 0.783689 -6.99524 0
M  V30 47626 C 654.886 0.0619086 -5.85867 0
M  V30 47627 N 654.836 0.78573 -4.56183 0
M  V30 47628 C 654.686 0.0292889 -3.41887 0
M  V30 47629 O 654.596 -1.18445 -3.4419 0
M  V30 47630 N 654.646 0.744061 -2.23964 0
M  V30 47631 C 654.736 2.10932 -2.10362 0
M  V30 47632 C 654.886 2.8202 -3.34994 0
M  V30 47633 C 654.936 2.15547 -4.52261 0
M  V30 47634 H 657.677 1.93379 -8.46595 0
M  V30 47635 H 657.946 1.68132 -6.70852 0
M  V30 47636 H 657.079 -0.289041 -8.15388 0
M  V30 47637 H 654.424 -0.926847 -5.72749 0
M  V30 47638 H 654.145 1.86973 -6.82036 0
M  V30 47639 H 653.153 0.403896 -7.13257 0
M  V30 47640 H 654.987 1.20585 -8.97435 0
M  V30 47641 H 655.058 2.71231 -5.45042 0
M  V30 47642 P 653.116 -1.17771 -8.83182 0
M  V30 47643 O 652.896 -2.07206 -9.98732 0
M  V30 47644 O 652.326 0.0743816 -8.81969 0
M  V30 47645 O 652.866 -1.97652 -7.47304 0
M  V30 47646 C 653.806 -3.01133 -7.08783 0
M  V30 47647 C 653.076 -4.12613 -6.37049 0
M  V30 47648 O 652.866 -3.72827 -4.97879 0
M  V30 47649 C 651.676 -4.45085 -6.88694 0
M  V30 47650 O 651.286 -5.7877 -6.5624 0
M  V30 47651 C 650.796 -3.47817 -6.12078 0
M  V30 47652 C 651.506 -3.39414 -4.77697 0
M  V30 47653 N 651.456 -2.04615 -4.15333 0
M  V30 47654 H 654.295 -3.41248 -7.98759 0
M  V30 47655 H 654.567 -2.5837 -6.41742 0
M  V30 47656 H 653.699 -5.02657 -6.42673 0
M  V30 47657 P 649.736 -6.144 -6.45285 0
M  V30 47658 O 649.516 -7.54673 -6.86199 0
M  V30 47659 O 648.946 -5.12391 -7.179 0
M  V30 47660 O 649.486 -5.99236 -4.88467 0
M  V30 47661 C 650.426 -6.60234 -3.96415 0
M  V30 47662 C 649.696 -7.08079 -2.736 0
M  V30 47663 O 649.486 -5.94365 -1.8368 0
M  V30 47664 C 648.296 -7.64886 -2.9555 0
M  V30 47665 O 647.906 -8.5406 -1.90739 0
M  V30 47666 C 647.416 -6.4116 -2.90739 0
M  V30 47667 C 648.126 -5.55375 -1.86963 0
M  V30 47668 N 648.076 -4.09664 -2.15742 0
M  V30 47669 C 647.926 -3.22231 -1.08477 0
M  V30 47670 O 647.836 -3.68951 0.0600489 0
M  V30 47671 N 647.876 -1.76692 -1.48799 0
M  V30 47672 C 647.976 -1.41695 -2.57602 0
M  V30 47673 N 647.926 -0.107296 -2.75791 0
M  V30 47674 C 648.126 -2.29178 -3.69733 0
M  V30 47675 C 648.176 -3.62753 -3.42653 0
M  V30 47676 H 650.916 -7.45488 -4.45578 0
M  V30 47677 H 651.186 -5.86232 -3.67314 0
M  V30 47678 H 650.319 -7.84508 -2.24507 0
M  V30 47679 H 647.664 -5.73556 -0.888715 0
M  V30 47680 H 647.384 -5.9096 -3.88638 0
M  V30 47681 H 646.393 -6.66053 -2.58894 0
M  V30 47682 H 648.227 -8.16339 -3.92049 0
M  V30 47683 H 648.299 -4.33052 -4.24913 0
M  V30 47684 H 648.197 -1.9103 -4.71577 0
M  V30 47685 H 647.809 0.521221 -1.95056 0
M  V30 47686 H 648.005 0.286429 -3.70695 0
M  V30 47687 P 646.356 -8.7635 -1.60911 0
M  V30 47688 O 646.136 -10.1388 -1.11561 0
M  V30 47689 O 645.566 -8.36503 -2.79617 0
M  V30 47690 O 646.106 -7.71806 -0.42951 0
M  V30 47691 C 647.046 -7.67148 0.673689 0
M  V30 47692 C 646.316 -7.33374 1.95559 0
M  V30 47693 O 646.106 -5.88721 2.00726 0
M  V30 47694 C 644.916 -7.92526 2.10483 0
M  V30 47695 O 644.526 -8.02971 3.47653 0
M  V30 47696 C 644.036 -6.89602 1.41652 0
M  V30 47697 C 644.746 -5.59201 1.75185 0
M  V30 47698 N 644.696 -4.58235 0.662552 0
M  V30 47699 H 647.535 -8.65116 0.777161 0
M  V30 47700 H 647.807 -6.90173 0.474152 0
M  V30 47701 H 646.939 -7.66548 2.79458 0
M  V30 47702 P 642.976 -8.03563 3.84925 0
M  V30 47703 O 642.756 -8.85821 5.0569 0
M  V30 47704 O 642.186 -8.41101 2.65469 0
M  V30 47705 O 642.726 -6.4965 4.18908 0
M  V30 47706 C 643.666 -5.81037 5.05421 0
M  V30 47707 C 642.936 -4.78366 5.89277 0
M  V30 47708 O 642.726 -3.58302 5.08433 0
M  V30 47709 C 641.536 -5.17448 6.36119 0
M  V30 47710 O 641.146 -4.45271 7.53232 0
M  V30 47711 C 640.656 -4.74639 5.19936 0
M  V30 47712 C 641.366 -3.49432 4.70418 0
M  V30 47713 N 641.316 -3.31776 3.22945 0
M  V30 47714 H 644.155 -6.54213 5.71376 0
M  V30 47715 H 644.427 -5.30492 4.44033 0
M  V30 47716 H 643.559 -4.55889 6.76652 0
M  V30 47717 P 639.596 -4.23843 7.83734 0
M  V30 47718 O 639.376 -4.19407 9.29784 0
M  V30 47719 O 638.806 -5.24426 7.09156 0
M  V30 47720 O 639.346 -2.7935 7.20758 0
M  V30 47721 C 640.286 -1.7299 7.50419 0
M  V30 47722 C 639.556 -0.406376 7.57911 0
M  V30 47723 O 639.346 0.0897726 6.21935 0
M  V30 47724 C 638.156 -0.447224 8.1878 0
M  V30 47725 O 637.766 0.825065 8.71101 0
M  V30 47726 C 637.276 -0.783801 6.99623 0
M  V30 47727 C 637.986 -0.0619192 5.85967 0
M  V30 47728 N 637.936 -0.790462 4.56202 0
M  V30 47729 C 638.016 -2.13895 4.34171 0
M  V30 47730 N 637.946 -2.46449 3.08687 0
M  V30 47731 C 637.796 -1.2525 2.43697 0
M  V30 47732 C 637.666 -0.914535 1.07318 0
M  V30 47733 N 637.656 -1.80782 0.0887348 0
M  V30 47734 N 637.546 0.386745 0.768133 0
M  V30 47735 C 637.556 1.28096 1.75159 0
M  V30 47736 N 637.676 1.09708 3.04861 0
M  V30 47737 C 637.796 -0.214857 3.32306 0
M  V30 47738 H 640.775 -1.93423 8.4679 0
M  V30 47739 H 641.047 -1.68852 6.70877 0
M  V30 47740 H 640.179 0.289041 8.15388 0
M  V30 47741 H 637.524 0.927006 5.72848 0
M  V30 47742 H 637.244 -1.86973 6.82036 0
M  V30 47743 H 636.253 -0.403953 7.13357 0
M  V30 47744 H 638.087 -1.20599 8.97534 0
M  V30 47745 H 638.128 -2.86846 5.14318 0
M  V30 47746 H 637.747 -2.81082 0.302037 0
M  V30 47747 H 637.558 -1.49688 -0.889064 0
M  V30 47748 H 637.45 2.31317 1.43855 0
M  V30 47749 P 636.216 1.17771 8.83182 0
M  V30 47750 O 635.996 2.07206 9.98732 0
M  V30 47751 O 635.426 -0.0743816 8.81969 0
M  V30 47752 O 635.966 1.97652 7.47304 0
M  V30 47753 C 636.906 3.01133 7.08783 0
M  V30 47754 C 636.176 4.12613 6.37049 0
M  V30 47755 O 635.966 3.72827 4.97879 0
M  V30 47756 C 634.776 4.45085 6.88694 0
M  V30 47757 O 634.386 5.7877 6.5624 0
M  V30 47758 C 633.896 3.47817 6.12078 0
M  V30 47759 C 634.606 3.39414 4.77697 0
M  V30 47760 N 634.556 2.04615 4.15333 0
M  V30 47761 H 637.395 3.41248 7.98759 0
M  V30 47762 H 637.667 2.5837 6.41742 0
M  V30 47763 H 636.799 5.02657 6.42673 0
M  V30 47764 P 632.836 6.144 6.45285 0
M  V30 47765 O 632.616 7.54673 6.86199 0
M  V30 47766 O 632.046 5.12391 7.179 0
M  V30 47767 O 632.586 5.99236 4.88467 0
M  V30 47768 C 633.526 6.60234 3.96415 0
M  V30 47769 C 632.796 7.08079 2.736 0
M  V30 47770 O 632.586 5.94365 1.8368 0
M  V30 47771 C 631.396 7.64886 2.9555 0
M  V30 47772 O 631.006 8.5406 1.90739 0
M  V30 47773 C 630.516 6.4116 2.90739 0
M  V30 47774 C 631.226 5.55375 1.86963 0
M  V30 47775 N 631.176 4.09664 2.15742 0
M  V30 47776 C 631.026 3.22231 1.08477 0
M  V30 47777 O 630.936 3.68951 -0.0600489 0
M  V30 47778 N 630.976 1.76692 1.48799 0
M  V30 47779 C 631.076 1.41695 2.57602 0
M  V30 47780 N 631.026 0.107296 2.75791 0
M  V30 47781 C 631.226 2.29178 3.69733 0
M  V30 47782 C 631.276 3.62753 3.42653 0
M  V30 47783 H 634.016 7.45488 4.45578 0
M  V30 47784 H 634.286 5.86232 3.67314 0
M  V30 47785 H 633.419 7.84508 2.24507 0
M  V30 47786 H 630.764 5.73556 0.888715 0
M  V30 47787 H 630.484 5.9096 3.88638 0
M  V30 47788 H 629.493 6.66053 2.58894 0
M  V30 47789 H 631.327 8.16339 3.92049 0
M  V30 47790 H 631.399 4.33052 4.24913 0
M  V30 47791 H 631.297 1.9103 4.71577 0
M  V30 47792 H 630.909 -0.521221 1.95056 0
M  V30 47793 H 631.105 -0.286429 3.70695 0
M  V30 47794 P 629.456 8.7635 1.60911 0
M  V30 47795 O 629.236 10.1388 1.11561 0
M  V30 47796 O 628.666 8.36503 2.79617 0
M  V30 47797 O 629.206 7.71806 0.42951 0
M  V30 47798 C 630.146 7.67148 -0.673689 0
M  V30 47799 C 629.416 7.33374 -1.95559 0
M  V30 47800 O 629.206 5.88721 -2.00726 0
M  V30 47801 C 628.016 7.92526 -2.10483 0
M  V30 47802 O 627.626 8.02971 -3.47653 0
M  V30 47803 C 627.136 6.89602 -1.41652 0
M  V30 47804 C 627.846 5.59201 -1.75185 0
M  V30 47805 N 627.796 4.58235 -0.662552 0
M  V30 47806 H 630.635 8.65116 -0.777161 0
M  V30 47807 H 630.907 6.90173 -0.474152 0
M  V30 47808 H 630.039 7.66548 -2.79458 0
M  V30 47809 P 626.076 8.03563 -3.84925 0
M  V30 47810 O 625.856 8.85821 -5.0569 0
M  V30 47811 O 625.286 8.41101 -2.65469 0
M  V30 47812 O 625.826 6.4965 -4.18908 0
M  V30 47813 C 626.766 5.81037 -5.05421 0
M  V30 47814 C 626.036 4.78366 -5.89277 0
M  V30 47815 O 625.826 3.58302 -5.08433 0
M  V30 47816 C 624.636 5.17448 -6.36119 0
M  V30 47817 O 624.246 4.45271 -7.53232 0
M  V30 47818 C 623.756 4.74639 -5.19936 0
M  V30 47819 C 624.466 3.49432 -4.70418 0
M  V30 47820 N 624.416 3.31776 -3.22945 0
M  V30 47821 H 627.255 6.54213 -5.71376 0
M  V30 47822 H 627.527 5.30492 -4.44033 0
M  V30 47823 H 626.659 4.55889 -6.76652 0
M  V30 47824 P 622.696 4.23843 -7.83734 0
M  V30 47825 O 622.476 4.19407 -9.29784 0
M  V30 47826 O 621.906 5.24426 -7.09156 0
M  V30 47827 O 622.446 2.7935 -7.20758 0
M  V30 47828 C 623.386 1.7299 -7.50419 0
M  V30 47829 C 622.656 0.406376 -7.57911 0
M  V30 47830 O 622.446 -0.0897726 -6.21935 0
M  V30 47831 C 621.256 0.447224 -8.1878 0
M  V30 47832 O 620.866 -0.825065 -8.71101 0
M  V30 47833 C 620.376 0.783801 -6.99623 0
M  V30 47834 C 621.086 0.0619192 -5.85967 0
M  V30 47835 N 621.036 0.790462 -4.56202 0
M  V30 47836 C 621.116 2.13895 -4.34171 0
M  V30 47837 N 621.046 2.46449 -3.08687 0
M  V30 47838 C 620.896 1.2525 -2.43697 0
M  V30 47839 C 620.766 0.914535 -1.07318 0
M  V30 47840 N 620.756 1.80782 -0.0887348 0
M  V30 47841 N 620.646 -0.386745 -0.768133 0
M  V30 47842 C 620.656 -1.28096 -1.75159 0
M  V30 47843 N 620.776 -1.09708 -3.04861 0
M  V30 47844 C 620.896 0.214857 -3.32306 0
M  V30 47845 H 623.875 1.93423 -8.4679 0
M  V30 47846 H 624.147 1.68852 -6.70877 0
M  V30 47847 H 623.279 -0.289041 -8.15388 0
M  V30 47848 H 620.624 -0.927006 -5.72848 0
M  V30 47849 H 620.344 1.86973 -6.82036 0
M  V30 47850 H 619.353 0.403953 -7.13357 0
M  V30 47851 H 621.187 1.20599 -8.97534 0
M  V30 47852 H 621.228 2.86846 -5.14318 0
M  V30 47853 H 620.847 2.81082 -0.302037 0
M  V30 47854 H 620.658 1.49688 0.889064 0
M  V30 47855 H 620.55 -2.31317 -1.43855 0
M  V30 47856 P 619.316 -1.17771 -8.83182 0
M  V30 47857 O 619.096 -2.07206 -9.98732 0
M  V30 47858 O 618.526 0.0743816 -8.81969 0
M  V30 47859 O 619.066 -1.97652 -7.47304 0
M  V30 47860 C 620.006 -3.01133 -7.08783 0
M  V30 47861 C 619.276 -4.12613 -6.37049 0
M  V30 47862 O 619.066 -3.72827 -4.97879 0
M  V30 47863 C 617.876 -4.45085 -6.88694 0
M  V30 47864 O 617.486 -5.7877 -6.5624 0
M  V30 47865 C 616.996 -3.47817 -6.12078 0
M  V30 47866 C 617.706 -3.39414 -4.77697 0
M  V30 47867 N 617.656 -2.04615 -4.15333 0
M  V30 47868 H 620.495 -3.41248 -7.98759 0
M  V30 47869 H 620.767 -2.5837 -6.41742 0
M  V30 47870 H 619.899 -5.02657 -6.42673 0
M  V30 47871 P 615.936 -6.144 -6.45285 0
M  V30 47872 O 615.716 -7.54673 -6.86199 0
M  V30 47873 O 615.146 -5.12391 -7.179 0
M  V30 47874 O 615.686 -5.99158 -4.88404 0
M  V30 47875 C 616.626 -6.60234 -3.96415 0
M  V30 47876 C 615.896 -7.08259 -2.72856 0
M  V30 47877 O 615.686 -5.9427 -1.83651 0
M  V30 47878 C 614.496 -7.64886 -2.9555 0
M  V30 47879 O 614.106 -8.53963 -1.90717 0
M  V30 47880 C 613.616 -6.4116 -2.90739 0
M  V30 47881 C 614.326 -5.55375 -1.86963 0
M  V30 47882 N 614.276 -4.09664 -2.15742 0
M  V30 47883 H 617.115 -7.45574 -4.45629 0
M  V30 47884 H 617.387 -5.86232 -3.67314 0
M  V30 47885 H 616.519 -7.84412 -2.24479 0
M  V30 47886 P 612.556 -8.7635 -1.60911 0
M  V30 47887 O 612.336 -10.1388 -1.11561 0
M  V30 47888 O 611.766 -8.36503 -2.79617 0
M  V30 47889 O 612.306 -7.71806 -0.42951 0
M  V30 47890 C 613.246 -7.67148 0.673689 0
M  V30 47891 C 612.516 -7.33374 1.95559 0
M  V30 47892 O 612.306 -5.88721 2.00726 0
M  V30 47893 C 611.116 -7.92526 2.10483 0
M  V30 47894 O 610.726 -8.02971 3.47653 0
M  V30 47895 C 610.236 -6.89602 1.41652 0
M  V30 47896 C 610.946 -5.59201 1.75185 0
M  V30 47897 N 610.896 -4.58301 0.657969 0
M  V30 47898 C 610.976 -4.79019 -0.692603 0
M  V30 47899 N 610.906 -3.69736 -1.38998 0
M  V30 47900 C 610.756 -2.70474 -0.438135 0
M  V30 47901 C 610.626 -1.30327 -0.538142 0
M  V30 47902 N 610.616 -0.64304 -1.69192 0
M  V30 47903 N 610.506 -0.611027 0.605183 0
M  V30 47904 C 610.516 -1.27002 1.75953 0
M  V30 47905 N 610.636 -2.56038 1.98546 0
M  V30 47906 C 610.756 -3.22681 0.822541 0
M  V30 47907 H 613.735 -8.65116 0.777161 0
M  V30 47908 H 614.007 -6.9022 0.46725 0
M  V30 47909 H 613.139 -7.66548 2.79458 0
M  V30 47910 H 610.484 -5.16165 2.65183 0
M  V30 47911 H 610.204 -7.06433 0.329384 0
M  V30 47912 H 609.213 -6.90926 1.82021 0
M  V30 47913 H 611.047 -8.90873 1.62657 0
M  V30 47914 H 611.088 -5.77785 -1.13874 0
M  V30 47915 H 610.707 -1.15585 -2.57991 0
M  V30 47916 H 610.518 0.382989 -1.69835 0
M  V30 47917 H 610.41 -0.653331 2.64449 0
M  V30 47918 P 609.176 -8.03563 3.84925 0
M  V30 47919 O 608.956 -8.85821 5.0569 0
M  V30 47920 O 608.386 -8.41101 2.65469 0
M  V30 47921 O 608.926 -6.49734 4.18962 0
M  V30 47922 C 609.866 -5.81037 5.05421 0
M  V30 47923 C 609.136 -4.79018 5.88876 0
M  V30 47924 O 608.926 -3.58359 5.08515 0
M  V30 47925 C 607.736 -5.17448 6.36119 0
M  V30 47926 O 607.346 -4.45322 7.53318 0
M  V30 47927 C 606.856 -4.74639 5.19936 0
M  V30 47928 C 607.566 -3.49432 4.70418 0
M  V30 47929 N 607.516 -3.31776 3.22945 0
M  V30 47930 C 607.366 -2.02742 2.72939 0
M  V30 47931 O 607.276 -1.08301 3.52749 0
M  V30 47932 N 607.316 -1.96117 1.22063 0
M  V30 47933 C 607.416 -2.8878 0.551566 0
M  V30 47934 N 607.366 -2.65609 -0.750198 0
M  V30 47935 C 607.566 -4.22457 1.03707 0
M  V30 47936 C 607.616 -4.37979 2.39113 0
M  V30 47937 H 610.356 -6.54138 5.7131 0
M  V30 47938 H 610.626 -5.30492 4.44033 0
M  V30 47939 H 609.759 -4.55945 6.76735 0
M  V30 47940 H 607.104 -2.6176 5.18021 0
M  V30 47941 H 606.824 -5.52233 4.41941 0
M  V30 47942 H 605.833 -4.52045 5.53452 0
M  V30 47943 H 607.667 -6.25124 6.55234 0
M  V30 47944 H 607.739 -5.37936 2.80552 0
M  V30 47945 H 607.637 -5.07528 0.359553 0
M  V30 47946 H 607.249 -1.69403 -1.09847 0
M  V30 47947 H 607.445 -3.43701 -1.41792 0
M  V30 47948 P 605.796 -4.23843 7.83734 0
M  V30 47949 O 605.576 -4.19407 9.29784 0
M  V30 47950 O 605.006 -5.24426 7.09156 0
M  V30 47951 O 605.546 -2.7935 7.20758 0
M  V30 47952 C 606.486 -1.72945 7.50224 0
M  V30 47953 C 605.756 -0.406376 7.57911 0
M  V30 47954 O 605.546 0.0897726 6.21935 0
M  V30 47955 C 604.356 -0.438983 8.18724 0
M  V30 47956 O 603.966 0.825065 8.71101 0
M  V30 47957 C 603.476 -0.783689 6.99524 0
M  V30 47958 C 604.186 -0.0619086 5.85867 0
M  V30 47959 N 604.136 -0.78573 4.56183 0
M  V30 47960 C 603.986 -0.0292889 3.41887 0
M  V30 47961 O 603.896 1.18445 3.4419 0
M  V30 47962 N 603.946 -0.744061 2.23964 0
M  V30 47963 C 604.036 -2.10932 2.10362 0
M  V30 47964 O 603.986 -2.64117 0.98825 0
M  V30 47965 C 604.186 -2.8202 3.34994 0
M  V30 47966 C 604.296 -4.31095 3.25037 0
M  V30 47967 C 604.236 -2.15547 4.52261 0
M  V30 47968 H 606.977 -1.93379 8.46595 0
M  V30 47969 H 607.246 -1.68132 6.70852 0
M  V30 47970 H 606.379 0.289041 8.15388 0
M  V30 47971 H 603.724 0.926847 5.72749 0
M  V30 47972 H 603.445 -1.86973 6.82036 0
M  V30 47973 H 602.453 -0.403896 7.13257 0
M  V30 47974 H 604.287 -1.20585 8.97435 0
M  V30 47975 H 604.358 -2.71231 5.45042 0
M  V30 47976 H 603.328 -4.76966 3.49992 0
M  V30 47977 H 605.065 -4.67047 3.95024 0
M  V30 47978 H 604.577 -4.58996 2.22312 0
M  V30 47979 H 603.841 -0.214893 1.39758 0
M  V30 47980 P 602.416 1.17771 8.83182 0
M  V30 47981 O 602.196 2.07206 9.98732 0
M  V30 47982 O 601.626 -0.0743816 8.81969 0
M  V30 47983 O 602.166 1.97652 7.47304 0
M  V30 47984 C 603.106 3.01133 7.08783 0
M  V30 47985 C 602.376 4.12613 6.37049 0
M  V30 47986 O 602.166 3.72827 4.97879 0
M  V30 47987 C 600.976 4.45085 6.88694 0
M  V30 47988 O 600.586 5.7877 6.5624 0
M  V30 47989 C 600.096 3.47817 6.12078 0
M  V30 47990 C 600.806 3.39414 4.77697 0
M  V30 47991 N 600.756 2.04615 4.15333 0
M  V30 47992 H 603.595 3.41248 7.98759 0
M  V30 47993 H 603.867 2.5837 6.41742 0
M  V30 47994 H 602.999 5.02657 6.42673 0
M  V30 47995 P 599.036 6.144 6.45285 0
M  V30 47996 O 598.816 7.54673 6.86199 0
M  V30 47997 O 598.246 5.12391 7.179 0
M  V30 47998 O 598.786 5.99158 4.88404 0
M  V30 47999 C 599.726 6.60234 3.96415 0
M  V30 48000 C 598.996 7.08259 2.72856 0
M  V30 48001 O 598.786 5.9427 1.83651 0
M  V30 48002 C 597.596 7.64886 2.9555 0
M  V30 48003 O 597.206 8.53963 1.90717 0
M  V30 48004 C 596.716 6.4116 2.90739 0
M  V30 48005 C 597.426 5.55375 1.86963 0
M  V30 48006 N 597.376 4.09448 2.16152 0
M  V30 48007 C 597.456 3.46824 3.37593 0
M  V30 48008 N 597.386 2.17422 3.29777 0
M  V30 48009 C 597.236 1.93065 1.94427 0
M  V30 48010 C 597.106 0.738053 1.20141 0
M  V30 48011 N 597.096 -0.474256 1.74676 0
M  V30 48012 N 596.986 0.850049 -0.13045 0
M  V30 48013 C 596.996 2.06169 -0.676992 0
M  V30 48014 N 597.116 3.23842 -0.101312 0
M  V30 48015 C 597.236 3.09402 1.23122 0
M  V30 48016 H 600.215 7.45574 4.45629 0
M  V30 48017 H 600.487 5.85864 3.679 0
M  V30 48018 H 599.619 7.84412 2.24479 0
M  V30 48019 H 596.964 5.73457 0.888562 0
M  V30 48020 H 596.684 5.90877 3.88583 0
M  V30 48021 H 595.693 6.6596 2.58858 0
M  V30 48022 H 597.527 8.16339 3.92049 0
M  V30 48023 H 597.568 4.00505 4.3174 0
M  V30 48024 H 597.187 -0.581337 2.76658 0
M  V30 48025 H 596.998 -1.30811 1.14888 0
M  V30 48026 H 596.89 2.08295 -1.75542 0
M  V30 48027 P 595.656 8.7635 1.60911 0
M  V30 48028 O 595.436 10.1388 1.11561 0
M  V30 48029 O 594.866 8.36503 2.79617 0
M  V30 48030 O 595.406 7.71806 0.42951 0
M  V30 48031 C 596.346 7.67148 -0.673689 0
M  V30 48032 C 595.616 7.33374 -1.95559 0
M  V30 48033 O 595.406 5.88721 -2.00726 0
M  V30 48034 C 594.216 7.92526 -2.10483 0
M  V30 48035 O 593.826 8.02971 -3.47653 0
M  V30 48036 C 593.336 6.89602 -1.41652 0
M  V30 48037 C 594.046 5.59201 -1.75185 0
M  V30 48038 N 593.996 4.58235 -0.662552 0
M  V30 48039 H 596.835 8.65116 -0.777161 0
M  V30 48040 H 597.107 6.90173 -0.474152 0
M  V30 48041 H 596.239 7.66548 -2.79458 0
M  V30 48042 P 592.277 8.03563 -3.84925 0
M  V30 48043 O 592.057 8.85821 -5.0569 0
M  V30 48044 O 591.487 8.41101 -2.65469 0
M  V30 48045 O 592.027 6.4965 -4.18908 0
M  V30 48046 C 592.967 5.80886 -5.05289 0
M  V30 48047 C 592.237 4.78366 -5.89277 0
M  V30 48048 O 592.027 3.58302 -5.08433 0
M  V30 48049 C 590.837 5.16748 -6.36559 0
M  V30 48050 O 590.447 4.45271 -7.53232 0
M  V30 48051 C 589.957 4.74572 -5.19863 0
M  V30 48052 C 590.667 3.49373 -4.70338 0
M  V30 48053 N 590.617 3.31704 -3.22876 0
M  V30 48054 C 590.467 2.03326 -2.74871 0
M  V30 48055 O 590.377 1.06486 -3.48076 0
M  V30 48056 N 590.427 1.91838 -1.37456 0
M  V30 48057 C 590.517 2.94295 -0.462035 0
M  V30 48058 O 590.467 2.71763 0.752928 0
M  V30 48059 C 590.667 4.25064 -1.05249 0
M  V30 48060 C 590.777 5.39815 -0.095697 0
M  V30 48061 C 590.717 4.40214 -2.39192 0
M  V30 48062 H 593.458 6.54063 -5.71245 0
M  V30 48063 H 593.727 5.30339 -4.43905 0
M  V30 48064 H 592.86 4.55889 -6.76652 0
M  V30 48065 H 590.205 2.6167 -5.17842 0
M  V30 48066 H 589.926 5.52155 -4.41878 0
M  V30 48067 H 588.934 4.51918 -5.53297 0
M  V30 48068 H 590.768 6.25055 -6.55162 0
M  V30 48069 H 590.839 5.39798 -2.81523 0
M  V30 48070 H 589.809 5.91593 -0.0279582 0
M  V30 48071 H 591.546 6.10038 -0.450573 0
M  V30 48072 H 591.058 5.02007 0.89937 0
M  V30 48073 H 590.322 0.995326 -1.00435 0
M  V30 48074 P 588.897 4.23843 -7.83734 0
M  V30 48075 O 588.677 4.19407 -9.29784 0
M  V30 48076 O 588.107 5.24426 -7.09156 0
M  V30 48077 O 588.647 2.7935 -7.20758 0
M  V30 48078 C 589.587 1.7299 -7.50419 0
M  V30 48079 C 588.857 0.406376 -7.57911 0
M  V30 48080 O 588.647 -0.0897726 -6.21935 0
M  V30 48081 C 587.457 0.447224 -8.1878 0
M  V30 48082 O 587.067 -0.825065 -8.71101 0
M  V30 48083 C 586.577 0.783801 -6.99623 0
M  V30 48084 C 587.287 0.0619192 -5.85967 0
M  V30 48085 N 587.237 0.790462 -4.56202 0
M  V30 48086 H 590.076 1.93423 -8.4679 0
M  V30 48087 H 590.348 1.68852 -6.70877 0
M  V30 48088 H 589.48 -0.289041 -8.15388 0
M  V30 48089 H 586.825 -0.927006 -5.72848 0
M  V30 48090 H 586.545 1.86973 -6.82036 0
M  V30 48091 H 585.554 0.403953 -7.13357 0
M  V30 48092 H 587.388 1.20599 -8.97534 0
M  V30 48093 P 585.517 -1.17771 -8.83182 0
M  V30 48094 O 585.297 -2.07206 -9.98732 0
M  V30 48095 O 584.727 0.0743816 -8.81969 0
M  V30 48096 O 585.267 -1.97652 -7.47304 0
M  V30 48097 C 586.207 -3.01133 -7.08783 0
M  V30 48098 C 585.477 -4.12613 -6.37049 0
M  V30 48099 O 585.267 -3.72827 -4.97879 0
M  V30 48100 C 584.077 -4.45085 -6.88694 0
M  V30 48101 O 583.687 -5.7877 -6.5624 0
M  V30 48102 C 583.197 -3.47817 -6.12078 0
M  V30 48103 C 583.907 -3.39414 -4.77697 0
M  V30 48104 N 583.857 -2.04615 -4.15333 0
M  V30 48105 H 586.696 -3.41248 -7.98759 0
M  V30 48106 H 586.968 -2.5837 -6.41742 0
M  V30 48107 H 586.1 -5.02657 -6.42673 0
M  V30 48108 P 582.137 -6.144 -6.45285 0
M  V30 48109 O 581.917 -7.54673 -6.86199 0
M  V30 48110 O 581.347 -5.12391 -7.179 0
M  V30 48111 O 581.887 -5.99158 -4.88404 0
M  V30 48112 C 582.827 -6.60234 -3.96415 0
M  V30 48113 C 582.097 -7.08259 -2.72856 0
M  V30 48114 O 581.887 -5.9427 -1.83651 0
M  V30 48115 C 580.697 -7.64886 -2.9555 0
M  V30 48116 O 580.307 -8.53963 -1.90717 0
M  V30 48117 C 579.817 -6.4116 -2.90739 0
M  V30 48118 C 580.527 -5.55375 -1.86963 0
M  V30 48119 N 580.477 -4.09664 -2.15742 0
M  V30 48120 H 583.316 -7.45574 -4.45629 0
M  V30 48121 H 583.588 -5.86232 -3.67314 0
M  V30 48122 H 582.72 -7.84412 -2.24479 0
M  V30 48123 P 578.757 -8.7635 -1.60911 0
M  V30 48124 O 578.537 -10.1388 -1.11561 0
M  V30 48125 O 577.967 -8.36503 -2.79617 0
M  V30 48126 O 578.507 -7.71806 -0.42951 0
M  V30 48127 C 579.447 -7.66948 0.673514 0
M  V30 48128 C 578.717 -7.33374 1.95559 0
M  V30 48129 O 578.507 -5.88721 2.00726 0
M  V30 48130 C 577.317 -7.92218 2.1125 0
M  V30 48131 O 576.927 -8.02971 3.47653 0
M  V30 48132 C 576.437 -6.89504 1.41631 0
M  V30 48133 C 577.147 -5.59106 1.75155 0
M  V30 48134 N 577.097 -4.58136 0.662409 0
M  V30 48135 C 576.947 -3.26059 1.02863 0
M  V30 48136 O 576.857 -2.90743 2.19009 0
M  V30 48137 N 576.907 -2.35995 -0.0155585 0
M  V30 48138 C 576.997 -2.65248 -1.35603 0
M  V30 48139 C 577.147 -4.05747 -1.64698 0
M  V30 48140 C 577.197 -4.96734 -0.652411 0
M  V30 48141 H 579.938 -8.64917 0.776982 0
M  V30 48142 H 580.207 -6.89974 0.474015 0
M  V30 48143 H 579.34 -7.66548 2.79458 0
M  V30 48144 H 576.685 -5.16076 2.65138 0
M  V30 48145 H 576.406 -7.06433 0.329384 0
M  V30 48146 H 575.414 -6.90829 1.81996 0
M  V30 48147 H 577.248 -8.90774 1.62639 0
M  V30 48148 H 577.319 -6.02181 -0.895285 0
M  V30 48149 P 575.377 -8.03563 3.84925 0
M  V30 48150 O 575.157 -8.85821 5.0569 0
M  V30 48151 O 574.587 -8.41101 2.65469 0
M  V30 48152 O 575.127 -6.4965 4.18908 0
M  V30 48153 C 576.067 -5.81037 5.05421 0
M  V30 48154 C 575.337 -4.78366 5.89277 0
M  V30 48155 O 575.127 -3.58302 5.08433 0
M  V30 48156 C 573.937 -5.17448 6.36119 0
M  V30 48157 O 573.547 -4.45271 7.53232 0
M  V30 48158 C 573.057 -4.74639 5.19936 0
M  V30 48159 C 573.767 -3.49432 4.70418 0
M  V30 48160 N 573.717 -3.31776 3.22945 0
M  V30 48161 H 576.556 -6.54213 5.71376 0
M  V30 48162 H 576.828 -5.30492 4.44033 0
M  V30 48163 H 575.96 -4.55889 6.76652 0
M  V30 48164 P 571.997 -4.23843 7.83734 0
M  V30 48165 O 571.777 -4.19407 9.29784 0
M  V30 48166 O 571.207 -5.24426 7.09156 0
M  V30 48167 O 571.747 -2.7935 7.20758 0
M  V30 48168 C 572.687 -1.7299 7.50419 0
M  V30 48169 C 571.957 -0.406376 7.57911 0
M  V30 48170 O 571.747 0.0897726 6.21935 0
M  V30 48171 C 570.557 -0.447224 8.1878 0
M  V30 48172 O 570.167 0.825065 8.71101 0
M  V30 48173 C 569.677 -0.783801 6.99623 0
M  V30 48174 C 570.387 -0.0619192 5.85967 0
M  V30 48175 N 570.337 -0.7859 4.56281 0
M  V30 48176 H 573.176 -1.93423 8.4679 0
M  V30 48177 H 573.448 -1.68181 6.71046 0
M  V30 48178 H 572.58 0.289041 8.15388 0
M  V30 48179 P 568.617 1.17771 8.83182 0
M  V30 48180 O 568.397 2.07206 9.98732 0
M  V30 48181 O 567.827 -0.0743816 8.81969 0
M  V30 48182 O 568.367 1.97652 7.47304 0
M  V30 48183 C 569.307 3.01133 7.08783 0
M  V30 48184 C 568.577 4.12613 6.37049 0
M  V30 48185 O 568.367 3.72827 4.97879 0
M  V30 48186 C 567.177 4.45085 6.88694 0
M  V30 48187 O 566.787 5.7877 6.5624 0
M  V30 48188 C 566.297 3.47817 6.12078 0
M  V30 48189 C 567.007 3.39414 4.77697 0
M  V30 48190 N 566.957 2.04615 4.15333 0
M  V30 48191 H 569.796 3.41248 7.98759 0
M  V30 48192 H 570.068 2.5837 6.41742 0
M  V30 48193 H 569.2 5.02657 6.42673 0
M  V30 48194 P 565.237 6.144 6.45285 0
M  V30 48195 O 565.017 7.54673 6.86199 0
M  V30 48196 O 564.447 5.12391 7.179 0
M  V30 48197 O 564.987 5.99158 4.88404 0
M  V30 48198 C 565.927 6.60234 3.96415 0
M  V30 48199 C 565.197 7.08259 2.72856 0
M  V30 48200 O 564.987 5.9427 1.83651 0
M  V30 48201 C 563.797 7.64886 2.9555 0
M  V30 48202 O 563.407 8.53963 1.90717 0
M  V30 48203 C 562.917 6.4116 2.90739 0
M  V30 48204 C 563.627 5.55375 1.86963 0
M  V30 48205 N 563.577 4.09664 2.15742 0
M  V30 48206 H 566.416 7.45574 4.45629 0
M  V30 48207 H 566.688 5.86232 3.67314 0
M  V30 48208 H 565.82 7.84412 2.24479 0
M  V30 48209 P 561.857 8.7635 1.60911 0
M  V30 48210 O 561.637 10.1388 1.11561 0
M  V30 48211 O 561.067 8.36503 2.79617 0
M  V30 48212 O 561.607 7.71806 0.42951 0
M  V30 48213 C 562.547 7.66948 -0.673514 0
M  V30 48214 C 561.817 7.33374 -1.95559 0
M  V30 48215 O 561.607 5.88721 -2.00726 0
M  V30 48216 C 560.417 7.92218 -2.1125 0
M  V30 48217 O 560.027 8.02971 -3.47653 0
M  V30 48218 C 559.537 6.89504 -1.41631 0
M  V30 48219 C 560.247 5.59106 -1.75155 0
M  V30 48220 N 560.197 4.58136 -0.662409 0
M  V30 48221 C 560.047 3.26059 -1.02863 0
M  V30 48222 O 559.957 2.90743 -2.19009 0
M  V30 48223 N 560.007 2.35995 0.0155585 0
M  V30 48224 C 560.097 2.65248 1.35603 0
M  V30 48225 O 560.047 1.75605 2.20651 0
M  V30 48226 C 560.247 4.05747 1.64698 0
M  V30 48227 C 560.357 4.42345 3.09553 0
M  V30 48228 C 560.297 4.96734 0.652411 0
M  V30 48229 H 563.038 8.64917 -0.776982 0
M  V30 48230 H 563.307 6.89974 -0.474015 0
M  V30 48231 H 562.44 7.66548 -2.79458 0
M  V30 48232 H 559.785 5.16076 -2.65138 0
M  V30 48233 H 559.506 7.06433 -0.329384 0
M  V30 48234 H 558.514 6.90829 -1.81996 0
M  V30 48235 H 560.348 8.90774 -1.62639 0
M  V30 48236 H 560.419 6.02181 0.895285 0
M  V30 48237 H 559.389 4.80252 3.45468 0
M  V30 48238 H 561.126 5.20015 3.22119 0
M  V30 48239 H 560.638 3.53269 3.67833 0
M  V30 48240 H 559.902 1.39558 -0.227499 0
M  V30 48241 P 558.477 8.03563 -3.84925 0
M  V30 48242 O 558.257 8.85821 -5.0569 0
M  V30 48243 O 557.687 8.41101 -2.65469 0
M  V30 48244 O 558.227 6.4965 -4.18908 0
M  V30 48245 C 559.167 5.80886 -5.05289 0
M  V30 48246 C 558.437 4.78366 -5.89277 0
M  V30 48247 O 558.227 3.58302 -5.08433 0
M  V30 48248 C 557.037 5.16748 -6.36559 0
M  V30 48249 O 556.647 4.45271 -7.53232 0
M  V30 48250 C 556.157 4.74572 -5.19863 0
M  V30 48251 C 556.867 3.49373 -4.70338 0
M  V30 48252 N 556.817 3.31704 -3.22876 0
M  V30 48253 C 556.667 2.03326 -2.74871 0
M  V30 48254 O 556.577 1.06486 -3.48076 0
M  V30 48255 N 556.627 1.91838 -1.37456 0
M  V30 48256 C 556.717 2.94295 -0.462035 0
M  V30 48257 O 556.667 2.71763 0.752928 0
M  V30 48258 C 556.867 4.25064 -1.05249 0
M  V30 48259 C 556.977 5.39815 -0.095697 0
M  V30 48260 C 556.917 4.40214 -2.39192 0
M  V30 48261 H 559.658 6.54063 -5.71245 0
M  V30 48262 H 559.927 5.30339 -4.43905 0
M  V30 48263 H 559.06 4.55889 -6.76652 0
M  V30 48264 H 556.405 2.6167 -5.17842 0
M  V30 48265 H 556.126 5.52155 -4.41878 0
M  V30 48266 H 555.134 4.51918 -5.53297 0
M  V30 48267 H 556.968 6.25055 -6.55162 0
M  V30 48268 H 557.039 5.39798 -2.81523 0
M  V30 48269 H 556.009 5.91593 -0.0279582 0
M  V30 48270 H 557.746 6.10038 -0.450573 0
M  V30 48271 H 557.258 5.02007 0.89937 0
M  V30 48272 H 556.522 0.995326 -1.00435 0
M  V30 48273 P 555.097 4.23843 -7.83734 0
M  V30 48274 O 554.877 4.19407 -9.29784 0
M  V30 48275 O 554.307 5.24426 -7.09156 0
M  V30 48276 O 554.847 2.7935 -7.20758 0
M  V30 48277 C 555.787 1.72945 -7.50224 0
M  V30 48278 C 555.057 0.406376 -7.57911 0
M  V30 48279 O 554.847 -0.0897726 -6.21935 0
M  V30 48280 C 553.657 0.438983 -8.18724 0
M  V30 48281 O 553.267 -0.825065 -8.71101 0
M  V30 48282 C 552.777 0.783689 -6.99524 0
M  V30 48283 C 553.487 0.0619086 -5.85867 0
M  V30 48284 N 553.437 0.78573 -4.56183 0
M  V30 48285 C 553.287 0.0292889 -3.41887 0
M  V30 48286 O 553.197 -1.18445 -3.4419 0
M  V30 48287 N 553.247 0.744061 -2.23964 0
M  V30 48288 C 553.337 2.10932 -2.10362 0
M  V30 48289 C 553.487 2.8202 -3.34994 0
M  V30 48290 C 553.537 2.15547 -4.52261 0
M  V30 48291 H 556.278 1.93379 -8.46595 0
M  V30 48292 H 556.547 1.68132 -6.70852 0
M  V30 48293 H 555.68 -0.289041 -8.15388 0
M  V30 48294 H 553.025 -0.926847 -5.72749 0
M  V30 48295 H 552.746 1.86973 -6.82036 0
M  V30 48296 H 551.754 0.403896 -7.13257 0
M  V30 48297 H 553.588 1.20585 -8.97435 0
M  V30 48298 H 553.659 2.71231 -5.45042 0
M  V30 48299 P 551.717 -1.17771 -8.83182 0
M  V30 48300 O 551.497 -2.07206 -9.98732 0
M  V30 48301 O 550.927 0.0743816 -8.81969 0
M  V30 48302 O 551.467 -1.97652 -7.47304 0
M  V30 48303 C 552.407 -3.01133 -7.08783 0
M  V30 48304 C 551.677 -4.12613 -6.37049 0
M  V30 48305 O 551.467 -3.72827 -4.97879 0
M  V30 48306 C 550.277 -4.45085 -6.88694 0
M  V30 48307 O 549.887 -5.7877 -6.5624 0
M  V30 48308 C 549.397 -3.47817 -6.12078 0
M  V30 48309 C 550.107 -3.39414 -4.77697 0
M  V30 48310 N 550.057 -2.04615 -4.15333 0
M  V30 48311 H 552.896 -3.41248 -7.98759 0
M  V30 48312 H 553.168 -2.5837 -6.41742 0
M  V30 48313 H 552.3 -5.02657 -6.42673 0
M  V30 48314 P 548.337 -6.144 -6.45285 0
M  V30 48315 O 548.117 -7.54673 -6.86199 0
M  V30 48316 O 547.547 -5.12391 -7.179 0
M  V30 48317 O 548.087 -5.99158 -4.88404 0
M  V30 48318 C 549.027 -6.60234 -3.96415 0
M  V30 48319 C 548.297 -7.08259 -2.72856 0
M  V30 48320 O 548.087 -5.9427 -1.83651 0
M  V30 48321 C 546.897 -7.64886 -2.9555 0
M  V30 48322 O 546.507 -8.53963 -1.90717 0
M  V30 48323 C 546.017 -6.4116 -2.90739 0
M  V30 48324 C 546.727 -5.55375 -1.86963 0
M  V30 48325 N 546.677 -4.09448 -2.16152 0
M  V30 48326 H 549.516 -7.45574 -4.45629 0
M  V30 48327 H 549.788 -5.85864 -3.679 0
M  V30 48328 H 548.92 -7.84412 -2.24479 0
M  V30 48329 H 546.265 -5.73457 -0.888562 0
M  V30 48330 H 545.985 -5.90877 -3.88583 0
M  V30 48331 H 544.994 -6.6596 -2.58858 0
M  V30 48332 H 546.828 -8.16339 -3.92049 0
M  V30 48333 P 544.957 -8.7635 -1.60911 0
M  V30 48334 O 544.737 -10.1388 -1.11561 0
M  V30 48335 O 544.167 -8.36503 -2.79617 0
M  V30 48336 O 544.707 -7.71806 -0.42951 0
M  V30 48337 C 545.647 -7.67148 0.673689 0
M  V30 48338 C 544.917 -7.33374 1.95559 0
M  V30 48339 O 544.707 -5.88721 2.00726 0
M  V30 48340 C 543.517 -7.92526 2.10483 0
M  V30 48341 O 543.127 -8.02971 3.47653 0
M  V30 48342 C 542.637 -6.89602 1.41652 0
M  V30 48343 C 543.347 -5.59201 1.75185 0
M  V30 48344 N 543.297 -4.58235 0.662552 0
M  V30 48345 C 543.377 -4.7683 -0.704049 0
M  V30 48346 N 543.297 -3.66233 -1.39775 0
M  V30 48347 C 543.157 -2.66526 -0.431739 0
M  V30 48348 C 543.027 -1.26394 -0.575992 0
M  V30 48349 N 542.907 -0.62859 0.67177 0
M  V30 48350 C 542.907 -1.27134 1.89385 0
M  V30 48351 N 542.777 -0.492035 2.96951 0
M  V30 48352 N 543.037 -2.58978 2.02907 0
M  V30 48353 C 543.157 -3.22433 0.832218 0
M  V30 48354 H 546.136 -8.65116 0.777161 0
M  V30 48355 H 546.408 -6.90173 0.474152 0
M  V30 48356 H 545.54 -7.66548 2.79458 0
M  V30 48357 P 541.577 -8.03563 3.84925 0
M  V30 48358 O 541.357 -8.85821 5.0569 0
M  V30 48359 O 540.787 -8.41101 2.65469 0
M  V30 48360 O 541.327 -6.4965 4.18908 0
M  V30 48361 C 542.267 -5.80886 5.05289 0
M  V30 48362 C 541.537 -4.78366 5.89277 0
M  V30 48363 O 541.327 -3.58302 5.08433 0
M  V30 48364 C 540.137 -5.16748 6.36559 0
M  V30 48365 O 539.747 -4.45271 7.53232 0
M  V30 48366 C 539.257 -4.74572 5.19863 0
M  V30 48367 C 539.967 -3.49373 4.70338 0
M  V30 48368 N 539.917 -3.31704 3.22876 0
M  V30 48369 C 539.767 -2.03326 2.74871 0
M  V30 48370 O 539.677 -1.06486 3.48076 0
M  V30 48371 N 539.727 -1.91838 1.37456 0
M  V30 48372 C 539.817 -2.94295 0.462035 0
M  V30 48373 O 539.767 -2.71763 -0.752928 0
M  V30 48374 C 539.967 -4.25064 1.05249 0
M  V30 48375 C 540.077 -5.39815 0.095697 0
M  V30 48376 C 540.017 -4.40214 2.39192 0
M  V30 48377 H 542.758 -6.54063 5.71245 0
M  V30 48378 H 543.027 -5.30339 4.43905 0
M  V30 48379 H 542.16 -4.55889 6.76652 0
M  V30 48380 H 539.505 -2.6167 5.17842 0
M  V30 48381 H 539.226 -5.52155 4.41878 0
M  V30 48382 H 538.234 -4.51918 5.53297 0
M  V30 48383 H 540.068 -6.25055 6.55162 0
M  V30 48384 H 540.139 -5.39798 2.81523 0
M  V30 48385 H 539.109 -5.91593 0.0279582 0
M  V30 48386 H 540.846 -6.10038 0.450573 0
M  V30 48387 H 540.358 -5.02007 -0.89937 0
M  V30 48388 H 539.622 -0.995326 1.00435 0
M  V30 48389 P 538.197 -4.23843 7.83734 0
M  V30 48390 O 537.977 -4.19407 9.29784 0
M  V30 48391 O 537.407 -5.24426 7.09156 0
M  V30 48392 O 537.947 -2.7935 7.20758 0
M  V30 48393 C 538.887 -1.7299 7.50419 0
M  V30 48394 C 538.157 -0.406376 7.57911 0
M  V30 48395 O 537.947 0.0897726 6.21935 0
M  V30 48396 C 536.757 -0.447224 8.1878 0
M  V30 48397 O 536.367 0.825065 8.71101 0
M  V30 48398 C 535.877 -0.783801 6.99623 0
M  V30 48399 C 536.587 -0.0619192 5.85967 0
M  V30 48400 N 536.537 -0.7859 4.56281 0
M  V30 48401 H 539.376 -1.93423 8.4679 0
M  V30 48402 H 539.648 -1.68181 6.71046 0
M  V30 48403 H 538.78 0.289041 8.15388 0
M  V30 48404 P 534.817 1.17771 8.83182 0
M  V30 48405 O 534.597 2.07206 9.98732 0
M  V30 48406 O 534.027 -0.0743816 8.81969 0
M  V30 48407 O 534.567 1.97652 7.47304 0
M  V30 48408 C 535.507 3.01133 7.08783 0
M  V30 48409 C 534.777 4.12613 6.37049 0
M  V30 48410 O 534.567 3.72827 4.97879 0
M  V30 48411 C 533.377 4.45085 6.88694 0
M  V30 48412 O 532.987 5.7877 6.5624 0
M  V30 48413 C 532.497 3.47817 6.12078 0
M  V30 48414 C 533.207 3.39414 4.77697 0
M  V30 48415 N 533.157 2.04615 4.15333 0
M  V30 48416 H 535.996 3.41248 7.98759 0
M  V30 48417 H 536.268 2.5837 6.41742 0
M  V30 48418 H 535.4 5.02657 6.42673 0
M  V30 48419 P 531.437 6.144 6.45285 0
M  V30 48420 O 531.217 7.54673 6.86199 0
M  V30 48421 O 530.647 5.12391 7.179 0
M  V30 48422 O 531.187 5.99158 4.88404 0
M  V30 48423 C 532.127 6.60234 3.96415 0
M  V30 48424 C 531.397 7.08259 2.72856 0
M  V30 48425 O 531.187 5.9427 1.83651 0
M  V30 48426 C 529.997 7.64886 2.9555 0
M  V30 48427 O 529.607 8.53963 1.90717 0
M  V30 48428 C 529.117 6.4116 2.90739 0
M  V30 48429 C 529.827 5.55375 1.86963 0
M  V30 48430 N 529.777 4.09664 2.15742 0
M  V30 48431 H 532.616 7.45574 4.45629 0
M  V30 48432 H 532.888 5.86232 3.67314 0
M  V30 48433 H 532.02 7.84412 2.24479 0
M  V30 48434 P 528.057 8.7635 1.60911 0
M  V30 48435 O 527.837 10.1388 1.11561 0
M  V30 48436 O 527.267 8.36503 2.79617 0
M  V30 48437 O 527.807 7.71806 0.42951 0
M  V30 48438 C 528.747 7.67148 -0.673689 0
M  V30 48439 C 528.017 7.33374 -1.95559 0
M  V30 48440 O 527.807 5.88721 -2.00726 0
M  V30 48441 C 526.617 7.92526 -2.10483 0
M  V30 48442 O 526.227 8.02971 -3.47653 0
M  V30 48443 C 525.737 6.89602 -1.41652 0
M  V30 48444 C 526.447 5.59201 -1.75185 0
M  V30 48445 N 526.397 4.58235 -0.662552 0
M  V30 48446 H 529.236 8.65116 -0.777161 0
M  V30 48447 H 529.508 6.90173 -0.474152 0
M  V30 48448 H 528.64 7.66548 -2.79458 0
M  V30 48449 P 524.677 8.03563 -3.84925 0
M  V30 48450 O 524.457 8.85821 -5.0569 0
M  V30 48451 O 523.887 8.41101 -2.65469 0
M  V30 48452 O 524.427 6.4965 -4.18908 0
M  V30 48453 C 525.367 5.81037 -5.05421 0
M  V30 48454 C 524.637 4.78366 -5.89277 0
M  V30 48455 O 524.427 3.58302 -5.08433 0
M  V30 48456 C 523.237 5.17448 -6.36119 0
M  V30 48457 O 522.847 4.45271 -7.53232 0
M  V30 48458 C 522.357 4.74639 -5.19936 0
M  V30 48459 C 523.067 3.49432 -4.70418 0
M  V30 48460 N 523.017 3.31776 -3.22945 0
M  V30 48461 H 525.856 6.54213 -5.71376 0
M  V30 48462 H 526.128 5.30492 -4.44033 0
M  V30 48463 H 525.26 4.55889 -6.76652 0
M  V30 48464 P 521.297 4.23843 -7.83734 0
M  V30 48465 O 521.077 4.19407 -9.29784 0
M  V30 48466 O 520.507 5.24426 -7.09156 0
M  V30 48467 O 521.047 2.7935 -7.20758 0
M  V30 48468 C 521.987 1.7299 -7.50419 0
M  V30 48469 C 521.257 0.406376 -7.57911 0
M  V30 48470 O 521.047 -0.0897726 -6.21935 0
M  V30 48471 C 519.857 0.447224 -8.1878 0
M  V30 48472 O 519.467 -0.825065 -8.71101 0
M  V30 48473 C 518.977 0.783801 -6.99623 0
M  V30 48474 C 519.687 0.0619192 -5.85967 0
M  V30 48475 N 519.637 0.7859 -4.56281 0
M  V30 48476 H 522.476 1.93423 -8.4679 0
M  V30 48477 H 522.748 1.68181 -6.71046 0
M  V30 48478 H 521.88 -0.289041 -8.15388 0
M  V30 48479 P 517.917 -1.17771 -8.83182 0
M  V30 48480 O 517.697 -2.07206 -9.98732 0
M  V30 48481 O 517.127 0.0743816 -8.81969 0
M  V30 48482 O 517.667 -1.97652 -7.47304 0
M  V30 48483 C 518.607 -3.01133 -7.08783 0
M  V30 48484 C 517.877 -4.12613 -6.37049 0
M  V30 48485 O 517.667 -3.72827 -4.97879 0
M  V30 48486 C 516.477 -4.45085 -6.88694 0
M  V30 48487 O 516.087 -5.7877 -6.5624 0
M  V30 48488 C 515.597 -3.47817 -6.12078 0
M  V30 48489 C 516.307 -3.39414 -4.77697 0
M  V30 48490 N 516.257 -2.04615 -4.15333 0
M  V30 48491 H 519.096 -3.41248 -7.98759 0
M  V30 48492 H 519.368 -2.5837 -6.41742 0
M  V30 48493 H 518.5 -5.02657 -6.42673 0
M  V30 48494 P 514.537 -6.144 -6.45285 0
M  V30 48495 O 514.317 -7.54673 -6.86199 0
M  V30 48496 O 513.747 -5.12391 -7.179 0
M  V30 48497 O 514.287 -5.99158 -4.88404 0
M  V30 48498 C 515.227 -6.60234 -3.96415 0
M  V30 48499 C 514.497 -7.08259 -2.72856 0
M  V30 48500 O 514.287 -5.9427 -1.83651 0
M  V30 48501 C 513.097 -7.64886 -2.9555 0
M  V30 48502 O 512.707 -8.53963 -1.90717 0
M  V30 48503 C 512.217 -6.4116 -2.90739 0
M  V30 48504 C 512.927 -5.55375 -1.86963 0
M  V30 48505 N 512.877 -4.09448 -2.16152 0
M  V30 48506 H 515.716 -7.45574 -4.45629 0
M  V30 48507 H 515.988 -5.85864 -3.679 0
M  V30 48508 H 515.12 -7.84412 -2.24479 0
M  V30 48509 H 512.465 -5.73457 -0.888562 0
M  V30 48510 H 512.185 -5.90877 -3.88583 0
M  V30 48511 H 511.194 -6.6596 -2.58858 0
M  V30 48512 H 513.028 -8.16339 -3.92049 0
M  V30 48513 P 511.157 -8.7635 -1.60911 0
M  V30 48514 O 510.937 -10.1388 -1.11561 0
M  V30 48515 O 510.367 -8.36503 -2.79617 0
M  V30 48516 O 510.907 -7.71806 -0.42951 0
M  V30 48517 C 511.847 -7.67148 0.673689 0
M  V30 48518 C 511.117 -7.33374 1.95559 0
M  V30 48519 O 510.907 -5.88721 2.00726 0
M  V30 48520 C 509.717 -7.92526 2.10483 0
M  V30 48521 O 509.327 -8.02971 3.47653 0
M  V30 48522 C 508.837 -6.89602 1.41652 0
M  V30 48523 C 509.547 -5.59201 1.75185 0
M  V30 48524 N 509.497 -4.58235 0.662552 0
M  V30 48525 C 509.577 -4.7683 -0.704049 0
M  V30 48526 N 509.497 -3.66233 -1.39775 0
M  V30 48527 C 509.357 -2.66526 -0.431739 0
M  V30 48528 C 509.227 -1.26394 -0.575992 0
M  V30 48529 N 509.107 -0.62859 0.67177 0
M  V30 48530 C 509.107 -1.27134 1.89385 0
M  V30 48531 N 508.977 -0.492035 2.96951 0
M  V30 48532 N 509.237 -2.58978 2.02907 0
M  V30 48533 C 509.357 -3.22433 0.832218 0
M  V30 48534 H 512.336 -8.65116 0.777161 0
M  V30 48535 H 512.608 -6.90173 0.474152 0
M  V30 48536 H 511.74 -7.66548 2.79458 0
M  V30 48537 P 507.777 -8.03563 3.84925 0
M  V30 48538 O 507.557 -8.85821 5.0569 0
M  V30 48539 O 506.987 -8.41101 2.65469 0
M  V30 48540 O 507.527 -6.4965 4.18908 0
M  V30 48541 C 508.467 -5.81037 5.05421 0
M  V30 48542 C 507.737 -4.78366 5.89277 0
M  V30 48543 O 507.527 -3.58302 5.08433 0
M  V30 48544 C 506.337 -5.17448 6.36119 0
M  V30 48545 O 505.947 -4.45271 7.53232 0
M  V30 48546 C 505.457 -4.74639 5.19936 0
M  V30 48547 C 506.167 -3.49432 4.70418 0
M  V30 48548 N 506.117 -3.31776 3.22945 0
M  V30 48549 H 508.956 -6.54213 5.71376 0
M  V30 48550 H 509.228 -5.30492 4.44033 0
M  V30 48551 H 508.36 -4.55889 6.76652 0
M  V30 48552 P 504.397 -4.23843 7.83734 0
M  V30 48553 O 504.177 -4.19407 9.29784 0
M  V30 48554 O 503.607 -5.24426 7.09156 0
M  V30 48555 O 504.147 -2.7935 7.20758 0
M  V30 48556 C 505.087 -1.7299 7.50419 0
M  V30 48557 C 504.357 -0.406376 7.57911 0
M  V30 48558 O 504.147 0.0897726 6.21935 0
M  V30 48559 C 502.957 -0.447224 8.1878 0
M  V30 48560 O 502.567 0.825065 8.71101 0
M  V30 48561 C 502.077 -0.783801 6.99623 0
M  V30 48562 C 502.787 -0.0619192 5.85967 0
M  V30 48563 N 502.737 -0.7859 4.56281 0
M  V30 48564 H 505.576 -1.93423 8.4679 0
M  V30 48565 H 505.848 -1.68181 6.71046 0
M  V30 48566 H 504.98 0.289041 8.15388 0
M  V30 48567 P 501.017 1.17771 8.83182 0
M  V30 48568 O 500.797 2.07206 9.98732 0
M  V30 48569 O 500.227 -0.0743816 8.81969 0
M  V30 48570 O 500.767 1.97652 7.47304 0
M  V30 48571 C 501.707 3.01133 7.08783 0
M  V30 48572 C 500.977 4.12613 6.37049 0
M  V30 48573 O 500.767 3.72827 4.97879 0
M  V30 48574 C 499.577 4.45085 6.88694 0
M  V30 48575 O 499.187 5.7877 6.5624 0
M  V30 48576 C 498.697 3.47817 6.12078 0
M  V30 48577 C 499.407 3.39414 4.77697 0
M  V30 48578 N 499.357 2.04615 4.15333 0
M  V30 48579 H 502.196 3.41248 7.98759 0
M  V30 48580 H 502.468 2.5837 6.41742 0
M  V30 48581 H 501.6 5.02657 6.42673 0
M  V30 48582 P 497.637 6.144 6.45285 0
M  V30 48583 O 497.417 7.54673 6.86199 0
M  V30 48584 O 496.847 5.12391 7.179 0
M  V30 48585 O 497.387 5.99158 4.88404 0
M  V30 48586 C 498.327 6.60234 3.96415 0
M  V30 48587 C 497.597 7.08259 2.72856 0
M  V30 48588 O 497.387 5.9427 1.83651 0
M  V30 48589 C 496.197 7.64886 2.9555 0
M  V30 48590 O 495.807 8.53963 1.90717 0
M  V30 48591 C 495.317 6.4116 2.90739 0
M  V30 48592 C 496.027 5.55375 1.86963 0
M  V30 48593 N 495.977 4.09664 2.15742 0
M  V30 48594 H 498.816 7.45574 4.45629 0
M  V30 48595 H 499.088 5.86232 3.67314 0
M  V30 48596 H 498.22 7.84412 2.24479 0
M  V30 48597 P 494.257 8.7635 1.60911 0
M  V30 48598 O 494.037 10.1388 1.11561 0
M  V30 48599 O 493.467 8.36503 2.79617 0
M  V30 48600 O 494.007 7.71806 0.42951 0
M  V30 48601 C 494.947 7.67148 -0.673689 0
M  V30 48602 C 494.217 7.33374 -1.95559 0
M  V30 48603 O 494.007 5.88721 -2.00726 0
M  V30 48604 C 492.817 7.92526 -2.10483 0
M  V30 48605 O 492.427 8.02971 -3.47653 0
M  V30 48606 C 491.937 6.89602 -1.41652 0
M  V30 48607 C 492.647 5.59201 -1.75185 0
M  V30 48608 N 492.597 4.58301 -0.657969 0
M  V30 48609 C 492.677 4.79019 0.692603 0
M  V30 48610 N 492.607 3.69736 1.38998 0
M  V30 48611 C 492.457 2.70474 0.438135 0
M  V30 48612 C 492.327 1.30327 0.538142 0
M  V30 48613 N 492.317 0.64304 1.69192 0
M  V30 48614 N 492.207 0.611027 -0.605183 0
M  V30 48615 C 492.217 1.27002 -1.75953 0
M  V30 48616 N 492.337 2.56038 -1.98546 0
M  V30 48617 C 492.457 3.22681 -0.822541 0
M  V30 48618 H 495.436 8.65116 -0.777161 0
M  V30 48619 H 495.708 6.9022 -0.46725 0
M  V30 48620 H 494.84 7.66548 -2.79458 0
M  V30 48621 H 492.185 5.16165 -2.65183 0
M  V30 48622 H 491.905 7.06433 -0.329384 0
M  V30 48623 H 490.914 6.90926 -1.82021 0
M  V30 48624 H 492.748 8.90873 -1.62657 0
M  V30 48625 H 492.789 5.77785 1.13874 0
M  V30 48626 H 492.408 1.15585 2.57991 0
M  V30 48627 H 492.219 -0.382989 1.69835 0
M  V30 48628 H 492.111 0.653331 -2.64449 0
M  V30 48629 P 490.877 8.03563 -3.84925 0
M  V30 48630 O 490.657 8.85821 -5.0569 0
M  V30 48631 O 490.087 8.41101 -2.65469 0
M  V30 48632 O 490.627 6.4965 -4.18908 0
M  V30 48633 C 491.567 5.81037 -5.05421 0
M  V30 48634 C 490.837 4.78366 -5.89277 0
M  V30 48635 O 490.627 3.58302 -5.08433 0
M  V30 48636 C 489.437 5.17448 -6.36119 0
M  V30 48637 O 489.047 4.45271 -7.53232 0
M  V30 48638 C 488.557 4.74639 -5.19936 0
M  V30 48639 C 489.267 3.49432 -4.70418 0
M  V30 48640 N 489.217 3.31776 -3.22945 0
M  V30 48641 H 492.056 6.54213 -5.71376 0
M  V30 48642 H 492.328 5.30492 -4.44033 0
M  V30 48643 H 491.46 4.55889 -6.76652 0
M  V30 48644 P 487.497 4.23843 -7.83734 0
M  V30 48645 O 487.277 4.19407 -9.29784 0
M  V30 48646 O 486.707 5.24426 -7.09156 0
M  V30 48647 O 487.247 2.7935 -7.20758 0
M  V30 48648 C 488.187 1.7299 -7.50419 0
M  V30 48649 C 487.457 0.406376 -7.57911 0
M  V30 48650 O 487.247 -0.0897726 -6.21935 0
M  V30 48651 C 486.057 0.447224 -8.1878 0
M  V30 48652 O 485.667 -0.825065 -8.71101 0
M  V30 48653 C 485.177 0.783801 -6.99623 0
M  V30 48654 C 485.887 0.0619192 -5.85967 0
M  V30 48655 N 485.837 0.790462 -4.56202 0
M  V30 48656 C 485.917 2.13895 -4.34171 0
M  V30 48657 N 485.847 2.46449 -3.08687 0
M  V30 48658 C 485.697 1.2525 -2.43697 0
M  V30 48659 C 485.567 0.914535 -1.07318 0
M  V30 48660 N 485.557 1.80782 -0.0887348 0
M  V30 48661 N 485.447 -0.386745 -0.768133 0
M  V30 48662 C 485.457 -1.28096 -1.75159 0
M  V30 48663 N 485.577 -1.09708 -3.04861 0
M  V30 48664 C 485.697 0.214857 -3.32306 0
M  V30 48665 H 488.676 1.93423 -8.4679 0
M  V30 48666 H 488.948 1.68852 -6.70877 0
M  V30 48667 H 488.08 -0.289041 -8.15388 0
M  V30 48668 H 485.425 -0.927006 -5.72848 0
M  V30 48669 H 485.145 1.86973 -6.82036 0
M  V30 48670 H 484.154 0.403953 -7.13357 0
M  V30 48671 H 485.988 1.20599 -8.97534 0
M  V30 48672 H 486.029 2.86846 -5.14318 0
M  V30 48673 H 485.648 2.81082 -0.302037 0
M  V30 48674 H 485.459 1.49688 0.889064 0
M  V30 48675 H 485.351 -2.31317 -1.43855 0
M  V30 48676 P 484.117 -1.17771 -8.83182 0
M  V30 48677 O 483.897 -2.07206 -9.98732 0
M  V30 48678 O 483.327 0.0743816 -8.81969 0
M  V30 48679 O 483.867 -1.97652 -7.47304 0
M  V30 48680 C 484.807 -3.01133 -7.08783 0
M  V30 48681 C 484.077 -4.12613 -6.37049 0
M  V30 48682 O 483.867 -3.72827 -4.97879 0
M  V30 48683 C 482.677 -4.45085 -6.88694 0
M  V30 48684 O 482.287 -5.7877 -6.5624 0
M  V30 48685 C 481.797 -3.47817 -6.12078 0
M  V30 48686 C 482.507 -3.39414 -4.77697 0
M  V30 48687 N 482.457 -2.04615 -4.15333 0
M  V30 48688 H 485.296 -3.41248 -7.98759 0
M  V30 48689 H 485.568 -2.5837 -6.41742 0
M  V30 48690 H 484.7 -5.02657 -6.42673 0
M  V30 48691 P 480.737 -6.144 -6.45285 0
M  V30 48692 O 480.517 -7.54673 -6.86199 0
M  V30 48693 O 479.947 -5.12391 -7.179 0
M  V30 48694 O 480.487 -5.99158 -4.88404 0
M  V30 48695 C 481.427 -6.60234 -3.96415 0
M  V30 48696 C 480.697 -7.08259 -2.72856 0
M  V30 48697 O 480.487 -5.9427 -1.83651 0
M  V30 48698 C 479.297 -7.64886 -2.9555 0
M  V30 48699 O 478.907 -8.53963 -1.90717 0
M  V30 48700 C 478.417 -6.4116 -2.90739 0
M  V30 48701 C 479.127 -5.55375 -1.86963 0
M  V30 48702 N 479.077 -4.09448 -2.16152 0
M  V30 48703 H 481.916 -7.45574 -4.45629 0
M  V30 48704 H 482.188 -5.85864 -3.679 0
M  V30 48705 H 481.32 -7.84412 -2.24479 0
M  V30 48706 H 478.665 -5.73457 -0.888562 0
M  V30 48707 H 478.385 -5.90877 -3.88583 0
M  V30 48708 H 477.394 -6.6596 -2.58858 0
M  V30 48709 H 479.228 -8.16339 -3.92049 0
M  V30 48710 P 477.357 -8.7635 -1.60911 0
M  V30 48711 O 477.137 -10.1388 -1.11561 0
M  V30 48712 O 476.567 -8.36503 -2.79617 0
M  V30 48713 O 477.107 -7.71806 -0.42951 0
M  V30 48714 C 478.047 -7.67148 0.673689 0
M  V30 48715 C 477.317 -7.33374 1.95559 0
M  V30 48716 O 477.107 -5.88721 2.00726 0
M  V30 48717 C 475.917 -7.92526 2.10483 0
M  V30 48718 O 475.527 -8.02971 3.47653 0
M  V30 48719 C 475.037 -6.89602 1.41652 0
M  V30 48720 C 475.747 -5.59201 1.75185 0
M  V30 48721 N 475.697 -4.58235 0.662552 0
M  V30 48722 H 478.536 -8.65116 0.777161 0
M  V30 48723 H 478.808 -6.90173 0.474152 0
M  V30 48724 H 477.94 -7.66548 2.79458 0
M  V30 48725 P 473.977 -8.03563 3.84925 0
M  V30 48726 O 473.757 -8.85821 5.0569 0
M  V30 48727 O 473.187 -8.41101 2.65469 0
M  V30 48728 O 473.727 -6.49734 4.18962 0
M  V30 48729 C 474.667 -5.81037 5.05421 0
M  V30 48730 C 473.937 -4.79018 5.88876 0
M  V30 48731 O 473.727 -3.58359 5.08515 0
M  V30 48732 C 472.537 -5.17448 6.36119 0
M  V30 48733 O 472.147 -4.45322 7.53318 0
M  V30 48734 C 471.657 -4.74639 5.19936 0
M  V30 48735 C 472.367 -3.49432 4.70418 0
M  V30 48736 N 472.317 -3.31776 3.22945 0
M  V30 48737 C 472.167 -2.02742 2.72939 0
M  V30 48738 O 472.077 -1.08301 3.52749 0
M  V30 48739 N 472.117 -1.96117 1.22063 0
M  V30 48740 C 472.217 -2.8878 0.551566 0
M  V30 48741 N 472.167 -2.65609 -0.750198 0
M  V30 48742 C 472.367 -4.22457 1.03707 0
M  V30 48743 C 472.417 -4.37979 2.39113 0
M  V30 48744 H 475.157 -6.54138 5.7131 0
M  V30 48745 H 475.427 -5.30492 4.44033 0
M  V30 48746 H 474.56 -4.55945 6.76735 0
M  V30 48747 H 471.905 -2.6176 5.18021 0
M  V30 48748 H 471.625 -5.52233 4.41941 0
M  V30 48749 H 470.634 -4.52045 5.53452 0
M  V30 48750 H 472.468 -6.25124 6.55234 0
M  V30 48751 H 472.54 -5.37936 2.80552 0
M  V30 48752 H 472.438 -5.07528 0.359553 0
M  V30 48753 H 472.05 -1.69403 -1.09847 0
M  V30 48754 H 472.246 -3.43701 -1.41792 0
M  V30 48755 P 470.597 -4.23843 7.83734 0
M  V30 48756 O 470.377 -4.19407 9.29784 0
M  V30 48757 O 469.807 -5.24426 7.09156 0
M  V30 48758 O 470.347 -2.7935 7.20758 0
M  V30 48759 C 471.287 -1.7299 7.50419 0
M  V30 48760 C 470.557 -0.406376 7.57911 0
M  V30 48761 O 470.347 0.0897726 6.21935 0
M  V30 48762 C 469.157 -0.447224 8.1878 0
M  V30 48763 O 468.767 0.825065 8.71101 0
M  V30 48764 C 468.277 -0.783801 6.99623 0
M  V30 48765 C 468.987 -0.0619192 5.85967 0
M  V30 48766 N 468.937 -0.7859 4.56281 0
M  V30 48767 H 471.776 -1.93423 8.4679 0
M  V30 48768 H 472.048 -1.68181 6.71046 0
M  V30 48769 H 471.18 0.289041 8.15388 0
M  V30 48770 P 467.217 1.17771 8.83182 0
M  V30 48771 O 466.997 2.07206 9.98732 0
M  V30 48772 O 466.427 -0.0743816 8.81969 0
M  V30 48773 O 466.967 1.97652 7.47304 0
M  V30 48774 C 467.907 3.01133 7.08783 0
M  V30 48775 C 467.177 4.12613 6.37049 0
M  V30 48776 O 466.967 3.72827 4.97879 0
M  V30 48777 C 465.777 4.45085 6.88694 0
M  V30 48778 O 465.387 5.7877 6.5624 0
M  V30 48779 C 464.897 3.47817 6.12078 0
M  V30 48780 C 465.607 3.39414 4.77697 0
M  V30 48781 N 465.557 2.04615 4.15333 0
M  V30 48782 H 468.396 3.41248 7.98759 0
M  V30 48783 H 468.668 2.5837 6.41742 0
M  V30 48784 H 467.8 5.02657 6.42673 0
M  V30 48785 P 463.837 6.144 6.45285 0
M  V30 48786 O 463.617 7.54673 6.86199 0
M  V30 48787 O 463.047 5.12391 7.179 0
M  V30 48788 O 463.587 5.99158 4.88404 0
M  V30 48789 C 464.527 6.60062 3.96313 0
M  V30 48790 C 463.797 7.08259 2.72856 0
M  V30 48791 O 463.587 5.9427 1.83651 0
M  V30 48792 C 462.397 7.65087 2.94749 0
M  V30 48793 O 462.007 8.53963 1.90717 0
M  V30 48794 C 461.517 6.41069 2.90698 0
M  V30 48795 C 462.227 5.5528 1.86931 0
M  V30 48796 N 462.177 4.09575 2.15696 0
M  V30 48797 C 462.027 3.24249 1.08435 0
M  V30 48798 O 461.937 3.63946 -0.0628747 0
M  V30 48799 N 461.987 1.90009 1.39973 0
M  V30 48800 C 462.077 1.34884 2.65614 0
M  V30 48801 O 462.027 0.123716 2.81728 0
M  V30 48802 C 462.227 2.3145 3.71736 0
M  V30 48803 C 462.337 1.75913 5.10438 0
M  V30 48804 C 462.277 3.63518 3.44754 0
M  V30 48805 H 465.018 7.45402 4.45526 0
M  V30 48806 H 465.287 5.86062 3.67208 0
M  V30 48807 H 464.42 7.84412 2.24479 0
M  V30 48808 H 461.765 5.73358 0.888409 0
M  V30 48809 H 461.486 5.90877 3.88583 0
M  V30 48810 H 460.494 6.65867 2.58821 0
M  V30 48811 H 462.328 8.16248 3.92006 0
M  V30 48812 H 462.399 4.34551 4.26383 0
M  V30 48813 H 461.369 1.85471 5.61775 0
M  V30 48814 H 463.106 2.31364 5.66257 0
M  V30 48815 H 462.618 0.695936 5.05229 0
M  V30 48816 H 461.882 1.26277 0.63625 0
M  V30 48817 P 460.457 8.7635 1.60911 0
M  V30 48818 O 460.237 10.1388 1.11561 0
M  V30 48819 O 459.667 8.36503 2.79617 0
M  V30 48820 O 460.207 7.71806 0.42951 0
M  V30 48821 C 461.147 7.67148 -0.673689 0
M  V30 48822 C 460.417 7.33374 -1.95559 0
M  V30 48823 O 460.207 5.88721 -2.00726 0
M  V30 48824 C 459.017 7.92526 -2.10483 0
M  V30 48825 O 458.627 8.02971 -3.47653 0
M  V30 48826 C 458.137 6.89602 -1.41652 0
M  V30 48827 C 458.847 5.59201 -1.75185 0
M  V30 48828 N 458.797 4.58235 -0.662552 0
M  V30 48829 H 461.636 8.65116 -0.777161 0
M  V30 48830 H 461.908 6.90173 -0.474152 0
M  V30 48831 H 461.04 7.66548 -2.79458 0
M  V30 48832 P 457.077 8.03563 -3.84925 0
M  V30 48833 O 456.857 8.85821 -5.0569 0
M  V30 48834 O 456.287 8.41101 -2.65469 0
M  V30 48835 O 456.827 6.4965 -4.18908 0
M  V30 48836 C 457.767 5.81037 -5.05421 0
M  V30 48837 C 457.037 4.78366 -5.89277 0
M  V30 48838 O 456.827 3.58302 -5.08433 0
M  V30 48839 C 455.637 5.17448 -6.36119 0
M  V30 48840 O 455.247 4.45271 -7.53232 0
M  V30 48841 C 454.757 4.74639 -5.19936 0
M  V30 48842 C 455.467 3.49432 -4.70418 0
M  V30 48843 N 455.417 3.32099 -3.22613 0
M  V30 48844 H 458.256 6.54213 -5.71376 0
M  V30 48845 H 458.528 5.30936 -4.43503 0
M  V30 48846 H 457.66 4.55889 -6.76652 0
M  V30 48847 H 455.005 2.61715 -5.17932 0
M  V30 48848 H 454.725 5.52155 -4.41878 0
M  V30 48849 H 453.734 4.51981 -5.53374 0
M  V30 48850 H 455.568 6.25124 -6.55234 0
M  V30 48851 P 453.697 4.23843 -7.83734 0
M  V30 48852 O 453.477 4.19407 -9.29784 0
M  V30 48853 O 452.907 5.24426 -7.09156 0
M  V30 48854 O 453.447 2.7935 -7.20758 0
M  V30 48855 C 454.387 1.72945 -7.50224 0
M  V30 48856 C 453.657 0.406376 -7.57911 0
M  V30 48857 O 453.447 -0.0897726 -6.21935 0
M  V30 48858 C 452.257 0.438983 -8.18724 0
M  V30 48859 O 451.867 -0.825065 -8.71101 0
M  V30 48860 C 451.377 0.783689 -6.99524 0
M  V30 48861 C 452.087 0.0619086 -5.85867 0
M  V30 48862 N 452.037 0.78573 -4.56183 0
M  V30 48863 C 451.887 0.0292889 -3.41887 0
M  V30 48864 O 451.797 -1.18445 -3.4419 0
M  V30 48865 N 451.847 0.744061 -2.23964 0
M  V30 48866 C 451.937 2.10932 -2.10362 0
M  V30 48867 O 451.887 2.64117 -0.98825 0
M  V30 48868 C 452.087 2.8202 -3.34994 0
M  V30 48869 C 452.197 4.31095 -3.25037 0
M  V30 48870 C 452.137 2.15547 -4.52261 0
M  V30 48871 H 454.878 1.93379 -8.46595 0
M  V30 48872 H 455.147 1.68132 -6.70852 0
M  V30 48873 H 454.28 -0.289041 -8.15388 0
M  V30 48874 H 451.625 -0.926847 -5.72749 0
M  V30 48875 H 451.346 1.86973 -6.82036 0
M  V30 48876 H 450.354 0.403896 -7.13257 0
M  V30 48877 H 452.188 1.20585 -8.97435 0
M  V30 48878 H 452.259 2.71231 -5.45042 0
M  V30 48879 H 451.229 4.76966 -3.49992 0
M  V30 48880 H 452.966 4.67047 -3.95024 0
M  V30 48881 H 452.478 4.58996 -2.22312 0
M  V30 48882 H 451.742 0.214893 -1.39758 0
M  V30 48883 P 450.317 -1.17771 -8.83182 0
M  V30 48884 O 450.097 -2.07206 -9.98732 0
M  V30 48885 O 449.527 0.0743816 -8.81969 0
M  V30 48886 O 450.067 -1.97678 -7.474 0
M  V30 48887 C 451.007 -3.01133 -7.08783 0
M  V30 48888 C 450.277 -4.1203 -6.37546 0
M  V30 48889 O 450.067 -3.72887 -4.9796 0
M  V30 48890 C 448.877 -4.45085 -6.88694 0
M  V30 48891 O 448.487 -5.78836 -6.56315 0
M  V30 48892 C 447.997 -3.47817 -6.12078 0
M  V30 48893 C 448.707 -3.39414 -4.77697 0
M  V30 48894 N 448.657 -2.04615 -4.15333 0
M  V30 48895 C 448.507 -1.96929 -2.77162 0
M  V30 48896 O 448.417 -3.02017 -2.12006 0
M  V30 48897 N 448.457 -0.55485 -2.24237 0
M  V30 48898 C 448.557 0.367808 -2.9169 0
M  V30 48899 N 448.507 1.53426 -2.29427 0
M  V30 48900 C 448.707 0.319148 -4.33828 0
M  V30 48901 C 448.757 -0.920672 -4.90433 0
M  V30 48902 H 451.497 -3.41209 -7.98667 0
M  V30 48903 H 451.767 -2.5837 -6.41742 0
M  V30 48904 H 450.9 -5.02718 -6.42752 0
M  V30 48905 H 448.245 -4.11779 -4.09026 0
M  V30 48906 H 447.965 -2.49661 -6.61772 0
M  V30 48907 H 446.974 -3.86674 -6.00946 0
M  V30 48908 H 448.808 -4.29991 -7.97006 0
M  V30 48909 H 448.88 -1.00589 -5.98303 0
M  V30 48910 H 448.778 1.22639 -4.93799 0
M  V30 48911 H 448.39 1.56819 -1.27167 0
M  V30 48912 H 448.586 2.41062 -2.83063 0
M  V30 48913 P 446.937 -6.144 -6.45285 0
M  V30 48914 O 446.717 -7.54673 -6.86199 0
M  V30 48915 O 446.147 -5.12391 -7.179 0
M  V30 48916 O 446.687 -5.99236 -4.88467 0
M  V30 48917 C 447.627 -6.60234 -3.96415 0
M  V30 48918 C 446.897 -7.08079 -2.736 0
M  V30 48919 O 446.687 -5.94365 -1.8368 0
M  V30 48920 C 445.497 -7.64886 -2.9555 0
M  V30 48921 O 445.107 -8.5406 -1.90739 0
M  V30 48922 C 444.617 -6.4116 -2.90739 0
M  V30 48923 C 445.327 -5.55375 -1.86963 0
M  V30 48924 N 445.277 -4.09664 -2.15742 0
M  V30 48925 C 445.127 -3.22231 -1.08477 0
M  V30 48926 O 445.037 -3.68951 0.0600489 0
M  V30 48927 N 445.077 -1.76692 -1.48799 0
M  V30 48928 C 445.177 -1.41695 -2.57602 0
M  V30 48929 N 445.127 -0.107296 -2.75791 0
M  V30 48930 C 445.327 -2.29178 -3.69733 0
M  V30 48931 C 445.377 -3.62753 -3.42653 0
M  V30 48932 H 448.117 -7.45488 -4.45578 0
M  V30 48933 H 448.387 -5.86232 -3.67314 0
M  V30 48934 H 447.52 -7.84508 -2.24507 0
M  V30 48935 H 444.865 -5.73556 -0.888715 0
M  V30 48936 H 444.585 -5.9096 -3.88638 0
M  V30 48937 H 443.594 -6.66053 -2.58894 0
M  V30 48938 H 445.428 -8.16339 -3.92049 0
M  V30 48939 H 445.5 -4.33052 -4.24913 0
M  V30 48940 H 445.398 -1.9103 -4.71577 0
M  V30 48941 H 445.01 0.521221 -1.95056 0
M  V30 48942 H 445.206 0.286429 -3.70695 0
M  V30 48943 P 443.557 -8.7635 -1.60911 0
M  V30 48944 O 443.337 -10.1388 -1.11561 0
M  V30 48945 O 442.767 -8.36503 -2.79617 0
M  V30 48946 O 443.307 -7.71806 -0.42951 0
M  V30 48947 C 444.247 -7.67148 0.673689 0
M  V30 48948 C 443.517 -7.33374 1.95559 0
M  V30 48949 O 443.307 -5.88721 2.00726 0
M  V30 48950 C 442.117 -7.92526 2.10483 0
M  V30 48951 O 441.727 -8.02971 3.47653 0
M  V30 48952 C 441.237 -6.89602 1.41652 0
M  V30 48953 C 441.947 -5.59201 1.75185 0
M  V30 48954 N 441.897 -4.58235 0.662552 0
M  V30 48955 H 444.736 -8.65116 0.777161 0
M  V30 48956 H 445.008 -6.90173 0.474152 0
M  V30 48957 H 444.14 -7.66548 2.79458 0
M  V30 48958 P 440.177 -8.03563 3.84925 0
M  V30 48959 O 439.957 -8.85821 5.0569 0
M  V30 48960 O 439.387 -8.41101 2.65469 0
M  V30 48961 O 439.927 -6.4965 4.18908 0
M  V30 48962 C 440.867 -5.81037 5.05421 0
M  V30 48963 C 440.137 -4.78366 5.89277 0
M  V30 48964 O 439.927 -3.58302 5.08433 0
M  V30 48965 C 438.737 -5.17448 6.36119 0
M  V30 48966 O 438.347 -4.45271 7.53232 0
M  V30 48967 C 437.857 -4.74639 5.19936 0
M  V30 48968 C 438.567 -3.49432 4.70418 0
M  V30 48969 N 438.517 -3.31776 3.22945 0
M  V30 48970 H 441.356 -6.54213 5.71376 0
M  V30 48971 H 441.628 -5.30492 4.44033 0
M  V30 48972 H 440.76 -4.55889 6.76652 0
M  V30 48973 P 436.797 -4.23843 7.83734 0
M  V30 48974 O 436.577 -4.19407 9.29784 0
M  V30 48975 O 436.007 -5.24426 7.09156 0
M  V30 48976 O 436.547 -2.7935 7.20758 0
M  V30 48977 C 437.487 -1.72945 7.50224 0
M  V30 48978 C 436.757 -0.406376 7.57911 0
M  V30 48979 O 436.547 0.0897726 6.21935 0
M  V30 48980 C 435.357 -0.438983 8.18724 0
M  V30 48981 O 434.967 0.825065 8.71101 0
M  V30 48982 C 434.477 -0.783689 6.99524 0
M  V30 48983 C 435.187 -0.0619086 5.85867 0
M  V30 48984 N 435.137 -0.78573 4.56183 0
M  V30 48985 C 434.987 -0.0292889 3.41887 0
M  V30 48986 O 434.897 1.18445 3.4419 0
M  V30 48987 N 434.947 -0.744061 2.23964 0
M  V30 48988 C 435.037 -2.10932 2.10362 0
M  V30 48989 C 435.187 -2.8202 3.34994 0
M  V30 48990 C 435.237 -2.15547 4.52261 0
M  V30 48991 H 437.978 -1.93379 8.46595 0
M  V30 48992 H 438.247 -1.68132 6.70852 0
M  V30 48993 H 437.38 0.289041 8.15388 0
M  V30 48994 H 434.725 0.926847 5.72749 0
M  V30 48995 H 434.446 -1.86973 6.82036 0
M  V30 48996 H 433.454 -0.403896 7.13257 0
M  V30 48997 H 435.288 -1.20585 8.97435 0
M  V30 48998 H 435.359 -2.71231 5.45042 0
M  V30 48999 P 433.417 1.17771 8.83182 0
M  V30 49000 O 433.197 2.07206 9.98732 0
M  V30 49001 O 432.627 -0.0743816 8.81969 0
M  V30 49002 O 433.167 1.97652 7.47304 0
M  V30 49003 C 434.107 3.01133 7.08783 0
M  V30 49004 C 433.377 4.12613 6.37049 0
M  V30 49005 O 433.167 3.72827 4.97879 0
M  V30 49006 C 431.977 4.45085 6.88694 0
M  V30 49007 O 431.587 5.7877 6.5624 0
M  V30 49008 C 431.097 3.47817 6.12078 0
M  V30 49009 C 431.807 3.39414 4.77697 0
M  V30 49010 N 431.757 2.04615 4.15333 0
M  V30 49011 H 434.596 3.41248 7.98759 0
M  V30 49012 H 434.868 2.5837 6.41742 0
M  V30 49013 H 434 5.02657 6.42673 0
M  V30 49014 P 430.037 6.144 6.45285 0
M  V30 49015 O 429.817 7.54673 6.86199 0
M  V30 49016 O 429.247 5.12391 7.179 0
M  V30 49017 O 429.787 5.99158 4.88404 0
M  V30 49018 C 430.727 6.60062 3.96313 0
M  V30 49019 C 429.997 7.08259 2.72856 0
M  V30 49020 O 429.787 5.9427 1.83651 0
M  V30 49021 C 428.597 7.65087 2.94749 0
M  V30 49022 O 428.207 8.53963 1.90717 0
M  V30 49023 C 427.717 6.41069 2.90698 0
M  V30 49024 C 428.427 5.5528 1.86931 0
M  V30 49025 N 428.377 4.09575 2.15696 0
M  V30 49026 C 428.227 3.24249 1.08435 0
M  V30 49027 O 428.137 3.63946 -0.0628747 0
M  V30 49028 N 428.187 1.90009 1.39973 0
M  V30 49029 C 428.277 1.34884 2.65614 0
M  V30 49030 C 428.427 2.3145 3.71736 0
M  V30 49031 C 428.477 3.63518 3.44754 0
M  V30 49032 H 431.218 7.45402 4.45526 0
M  V30 49033 H 431.487 5.86062 3.67208 0
M  V30 49034 H 430.62 7.84412 2.24479 0
M  V30 49035 H 427.965 5.73358 0.888409 0
M  V30 49036 H 427.686 5.90877 3.88583 0
M  V30 49037 H 426.694 6.65867 2.58821 0
M  V30 49038 H 428.528 8.16248 3.92006 0
M  V30 49039 H 428.599 4.34551 4.26383 0
M  V30 49040 P 426.657 8.7635 1.60911 0
M  V30 49041 O 426.437 10.1388 1.11561 0
M  V30 49042 O 425.867 8.36503 2.79617 0
M  V30 49043 O 426.407 7.71806 0.42951 0
M  V30 49044 C 427.347 7.66948 -0.673514 0
M  V30 49045 C 426.617 7.33374 -1.95559 0
M  V30 49046 O 426.407 5.88721 -2.00726 0
M  V30 49047 C 425.217 7.92218 -2.1125 0
M  V30 49048 O 424.827 8.02971 -3.47653 0
M  V30 49049 C 424.337 6.89504 -1.41631 0
M  V30 49050 C 425.047 5.59106 -1.75155 0
M  V30 49051 N 424.997 4.58136 -0.662409 0
M  V30 49052 C 424.847 3.26059 -1.02863 0
M  V30 49053 O 424.757 2.90743 -2.19009 0
M  V30 49054 N 424.807 2.35995 0.0155585 0
M  V30 49055 C 424.897 2.65248 1.35603 0
M  V30 49056 C 425.047 4.05747 1.64698 0
M  V30 49057 C 425.097 4.96734 0.652411 0
M  V30 49058 H 427.838 8.64917 -0.776982 0
M  V30 49059 H 428.107 6.89974 -0.474015 0
M  V30 49060 H 427.24 7.66548 -2.79458 0
M  V30 49061 H 424.585 5.16076 -2.65138 0
M  V30 49062 H 424.306 7.06433 -0.329384 0
M  V30 49063 H 423.314 6.90829 -1.81996 0
M  V30 49064 H 425.148 8.90774 -1.62639 0
M  V30 49065 H 425.219 6.02181 0.895285 0
M  V30 49066 P 423.278 8.03563 -3.84925 0
M  V30 49067 O 423.058 8.85821 -5.0569 0
M  V30 49068 O 422.488 8.41101 -2.65469 0
M  V30 49069 O 423.028 6.4965 -4.18908 0
M  V30 49070 C 423.968 5.81037 -5.05421 0
M  V30 49071 C 423.238 4.78366 -5.89277 0
M  V30 49072 O 423.028 3.58302 -5.08433 0
M  V30 49073 C 421.838 5.17448 -6.36119 0
M  V30 49074 O 421.448 4.45271 -7.53232 0
M  V30 49075 C 420.958 4.74639 -5.19936 0
M  V30 49076 C 421.668 3.49432 -4.70418 0
M  V30 49077 N 421.618 3.31776 -3.22945 0
M  V30 49078 H 424.457 6.54213 -5.71376 0
M  V30 49079 H 424.729 5.30492 -4.44033 0
M  V30 49080 H 423.861 4.55889 -6.76652 0
M  V30 49081 P 419.898 4.23843 -7.83734 0
M  V30 49082 O 419.678 4.19407 -9.29784 0
M  V30 49083 O 419.108 5.24426 -7.09156 0
M  V30 49084 O 419.648 2.7935 -7.20758 0
M  V30 49085 C 420.588 1.7299 -7.50419 0
M  V30 49086 C 419.858 0.406376 -7.57911 0
M  V30 49087 O 419.648 -0.0897726 -6.21935 0
M  V30 49088 C 418.458 0.447224 -8.1878 0
M  V30 49089 O 418.068 -0.825065 -8.71101 0
M  V30 49090 C 417.578 0.783801 -6.99623 0
M  V30 49091 C 418.288 0.0619192 -5.85967 0
M  V30 49092 N 418.238 0.7859 -4.56281 0
M  V30 49093 H 421.077 1.93423 -8.4679 0
M  V30 49094 H 421.349 1.68181 -6.71046 0
M  V30 49095 H 420.481 -0.289041 -8.15388 0
M  V30 49096 P 416.518 -1.17771 -8.83182 0
M  V30 49097 O 416.298 -2.07206 -9.98732 0
M  V30 49098 O 415.728 0.0743816 -8.81969 0
M  V30 49099 O 416.268 -1.97652 -7.47304 0
M  V30 49100 C 417.208 -3.01133 -7.08783 0
M  V30 49101 C 416.478 -4.12613 -6.37049 0
M  V30 49102 O 416.268 -3.72827 -4.97879 0
M  V30 49103 C 415.078 -4.45085 -6.88694 0
M  V30 49104 O 414.688 -5.7877 -6.5624 0
M  V30 49105 C 414.198 -3.47817 -6.12078 0
M  V30 49106 C 414.908 -3.39414 -4.77697 0
M  V30 49107 N 414.858 -2.04615 -4.15333 0
M  V30 49108 H 417.697 -3.41248 -7.98759 0
M  V30 49109 H 417.969 -2.5837 -6.41742 0
M  V30 49110 H 417.101 -5.02657 -6.42673 0
M  V30 49111 P 413.138 -6.144 -6.45285 0
M  V30 49112 O 412.918 -7.54673 -6.86199 0
M  V30 49113 O 412.348 -5.12391 -7.179 0
M  V30 49114 O 412.888 -5.99236 -4.88467 0
M  V30 49115 C 413.828 -6.60234 -3.96415 0
M  V30 49116 C 413.098 -7.08079 -2.736 0
M  V30 49117 O 412.888 -5.94365 -1.8368 0
M  V30 49118 C 411.698 -7.64886 -2.9555 0
M  V30 49119 O 411.308 -8.5406 -1.90739 0
M  V30 49120 C 410.818 -6.4116 -2.90739 0
M  V30 49121 C 411.528 -5.55375 -1.86963 0
M  V30 49122 N 411.478 -4.09664 -2.15742 0
M  V30 49123 C 411.328 -3.22231 -1.08477 0
M  V30 49124 O 411.238 -3.68951 0.0600489 0
M  V30 49125 N 411.278 -1.76692 -1.48799 0
M  V30 49126 C 411.378 -1.41695 -2.57602 0
M  V30 49127 N 411.328 -0.107296 -2.75791 0
M  V30 49128 C 411.528 -2.29178 -3.69733 0
M  V30 49129 C 411.578 -3.62753 -3.42653 0
M  V30 49130 H 414.318 -7.45488 -4.45578 0
M  V30 49131 H 414.588 -5.86232 -3.67314 0
M  V30 49132 H 413.721 -7.84508 -2.24507 0
M  V30 49133 H 411.066 -5.73556 -0.888715 0
M  V30 49134 H 410.786 -5.9096 -3.88638 0
M  V30 49135 H 409.795 -6.66053 -2.58894 0
M  V30 49136 H 411.629 -8.16339 -3.92049 0
M  V30 49137 H 411.701 -4.33052 -4.24913 0
M  V30 49138 H 411.599 -1.9103 -4.71577 0
M  V30 49139 H 411.211 0.521221 -1.95056 0
M  V30 49140 H 411.407 0.286429 -3.70695 0
M  V30 49141 P 409.758 -8.7635 -1.60911 0
M  V30 49142 O 409.538 -10.1388 -1.11561 0
M  V30 49143 O 408.968 -8.36503 -2.79617 0
M  V30 49144 O 409.508 -7.71806 -0.42951 0
M  V30 49145 C 410.448 -7.67148 0.673689 0
M  V30 49146 C 409.718 -7.33374 1.95559 0
M  V30 49147 O 409.508 -5.88721 2.00726 0
M  V30 49148 C 408.318 -7.92526 2.10483 0
M  V30 49149 O 407.928 -8.02971 3.47653 0
M  V30 49150 C 407.438 -6.89602 1.41652 0
M  V30 49151 C 408.148 -5.59201 1.75185 0
M  V30 49152 N 408.098 -4.58235 0.662552 0
M  V30 49153 H 410.937 -8.65116 0.777161 0
M  V30 49154 H 411.209 -6.90173 0.474152 0
M  V30 49155 H 410.341 -7.66548 2.79458 0
M  V30 49156 P 406.378 -8.03563 3.84925 0
M  V30 49157 O 406.158 -8.85821 5.0569 0
M  V30 49158 O 405.588 -8.41101 2.65469 0
M  V30 49159 O 406.128 -6.4965 4.18908 0
M  V30 49160 C 407.068 -5.81037 5.05421 0
M  V30 49161 C 406.338 -4.78366 5.89277 0
M  V30 49162 O 406.128 -3.58302 5.08433 0
M  V30 49163 C 404.938 -5.17448 6.36119 0
M  V30 49164 O 404.548 -4.45271 7.53232 0
M  V30 49165 C 404.058 -4.74639 5.19936 0
M  V30 49166 C 404.768 -3.49432 4.70418 0
M  V30 49167 N 404.718 -3.31776 3.22945 0
M  V30 49168 H 407.557 -6.54213 5.71376 0
M  V30 49169 H 407.829 -5.30492 4.44033 0
M  V30 49170 H 406.961 -4.55889 6.76652 0
M  V30 49171 P 402.998 -4.23843 7.83734 0
M  V30 49172 O 402.778 -4.19407 9.29784 0
M  V30 49173 O 402.208 -5.24426 7.09156 0
M  V30 49174 O 402.748 -2.79386 7.20852 0
M  V30 49175 C 403.688 -1.7299 7.50419 0
M  V30 49176 C 402.958 -0.41401 7.5797 0
M  V30 49177 O 402.748 0.089787 6.22035 0
M  V30 49178 C 401.558 -0.447224 8.1878 0
M  V30 49179 O 401.168 0.825159 8.71201 0
M  V30 49180 C 400.678 -0.783801 6.99623 0
M  V30 49181 C 401.388 -0.0619192 5.85967 0
M  V30 49182 N 401.338 -0.7859 4.56281 0
M  V30 49183 C 401.188 -0.0359258 3.39981 0
M  V30 49184 O 401.098 1.19723 3.49038 0
M  V30 49185 N 401.138 -0.869151 2.14025 0
M  V30 49186 C 401.238 -2.01207 2.14363 0
M  V30 49187 N 401.188 -2.58978 0.954287 0
M  V30 49188 C 401.388 -2.80817 3.32215 0
M  V30 49189 C 401.438 -2.13785 4.50884 0
M  V30 49190 H 404.178 -1.93401 8.46693 0
M  V30 49191 H 404.448 -1.68181 6.71046 0
M  V30 49192 H 403.581 0.289076 8.15488 0
M  V30 49193 H 400.926 0.927166 5.72947 0
M  V30 49194 H 400.646 -1.87 6.82132 0
M  V30 49195 H 399.655 -0.404009 7.13457 0
M  V30 49196 H 401.489 -1.20599 8.97534 0
M  V30 49197 H 401.561 -2.70295 5.43162 0
M  V30 49198 H 401.459 -3.89465 3.27406 0
M  V30 49199 H 401.071 -2.01616 0.107046 0
M  V30 49200 H 401.267 -3.61403 0.873101 0
M  V30 49201 P 399.618 1.17771 8.83182 0
M  V30 49202 O 399.398 2.07206 9.98732 0
M  V30 49203 O 398.828 -0.0743816 8.81969 0
M  V30 49204 O 399.368 1.97652 7.47304 0
M  V30 49205 C 400.308 3.01133 7.08783 0
M  V30 49206 C 399.578 4.12613 6.37049 0
M  V30 49207 O 399.368 3.72827 4.97879 0
M  V30 49208 C 398.178 4.45085 6.88694 0
M  V30 49209 O 397.788 5.7877 6.5624 0
M  V30 49210 C 397.298 3.47817 6.12078 0
M  V30 49211 C 398.008 3.39414 4.77697 0
M  V30 49212 N 397.958 2.04615 4.15333 0
M  V30 49213 H 400.797 3.41248 7.98759 0
M  V30 49214 H 401.069 2.5837 6.41742 0
M  V30 49215 H 400.201 5.02657 6.42673 0
M  V30 49216 P 396.238 6.144 6.45285 0
M  V30 49217 O 396.018 7.54673 6.86199 0
M  V30 49218 O 395.448 5.12391 7.179 0
M  V30 49219 O 395.988 5.99158 4.88404 0
M  V30 49220 C 396.928 6.60062 3.96313 0
M  V30 49221 C 396.198 7.08259 2.72856 0
M  V30 49222 O 395.988 5.9427 1.83651 0
M  V30 49223 C 394.798 7.65087 2.94749 0
M  V30 49224 O 394.408 8.53963 1.90717 0
M  V30 49225 C 393.918 6.41069 2.90698 0
M  V30 49226 C 394.628 5.5528 1.86931 0
M  V30 49227 N 394.578 4.09575 2.15696 0
M  V30 49228 C 394.428 3.24249 1.08435 0
M  V30 49229 O 394.338 3.63946 -0.0628747 0
M  V30 49230 N 394.388 1.90009 1.39973 0
M  V30 49231 C 394.478 1.34884 2.65614 0
M  V30 49232 C 394.628 2.3145 3.71736 0
M  V30 49233 C 394.678 3.63518 3.44754 0
M  V30 49234 H 397.419 7.45402 4.45526 0
M  V30 49235 H 397.688 5.86062 3.67208 0
M  V30 49236 H 396.821 7.84412 2.24479 0
M  V30 49237 H 394.166 5.73358 0.888409 0
M  V30 49238 H 393.887 5.90877 3.88583 0
M  V30 49239 H 392.895 6.65867 2.58821 0
M  V30 49240 H 394.729 8.16248 3.92006 0
M  V30 49241 H 394.8 4.34551 4.26383 0
M  V30 49242 P 392.858 8.7635 1.60911 0
M  V30 49243 O 392.638 10.1388 1.11561 0
M  V30 49244 O 392.068 8.36503 2.79617 0
M  V30 49245 O 392.608 7.71806 0.42951 0
M  V30 49246 C 393.548 7.67148 -0.673689 0
M  V30 49247 C 392.818 7.33374 -1.95559 0
M  V30 49248 O 392.608 5.88721 -2.00726 0
M  V30 49249 C 391.418 7.92526 -2.10483 0
M  V30 49250 O 391.028 8.02971 -3.47653 0
M  V30 49251 C 390.538 6.89602 -1.41652 0
M  V30 49252 C 391.248 5.59201 -1.75185 0
M  V30 49253 N 391.198 4.58235 -0.662552 0
M  V30 49254 H 394.037 8.65116 -0.777161 0
M  V30 49255 H 394.309 6.90173 -0.474152 0
M  V30 49256 H 393.441 7.66548 -2.79458 0
M  V30 49257 P 389.478 8.03563 -3.84925 0
M  V30 49258 O 389.258 8.85821 -5.0569 0
M  V30 49259 O 388.688 8.41101 -2.65469 0
M  V30 49260 O 389.228 6.4965 -4.18908 0
M  V30 49261 C 390.168 5.81037 -5.05421 0
M  V30 49262 C 389.438 4.78366 -5.89277 0
M  V30 49263 O 389.228 3.58302 -5.08433 0
M  V30 49264 C 388.038 5.17448 -6.36119 0
M  V30 49265 O 387.648 4.45271 -7.53232 0
M  V30 49266 C 387.158 4.74639 -5.19936 0
M  V30 49267 C 387.868 3.49432 -4.70418 0
M  V30 49268 N 387.818 3.31776 -3.22945 0
M  V30 49269 H 390.657 6.54213 -5.71376 0
M  V30 49270 H 390.929 5.30492 -4.44033 0
M  V30 49271 H 390.061 4.55889 -6.76652 0
M  V30 49272 P 386.098 4.23843 -7.83734 0
M  V30 49273 O 385.878 4.19407 -9.29784 0
M  V30 49274 O 385.308 5.24426 -7.09156 0
M  V30 49275 O 385.848 2.7935 -7.20758 0
M  V30 49276 C 386.788 1.7299 -7.50419 0
M  V30 49277 C 386.058 0.406376 -7.57911 0
M  V30 49278 O 385.848 -0.0897726 -6.21935 0
M  V30 49279 C 384.658 0.447224 -8.1878 0
M  V30 49280 O 384.268 -0.825065 -8.71101 0
M  V30 49281 C 383.778 0.783801 -6.99623 0
M  V30 49282 C 384.488 0.0619192 -5.85967 0
M  V30 49283 N 384.438 0.790462 -4.56202 0
M  V30 49284 H 387.277 1.93423 -8.4679 0
M  V30 49285 H 387.549 1.68852 -6.70877 0
M  V30 49286 H 386.681 -0.289041 -8.15388 0
M  V30 49287 H 384.026 -0.927006 -5.72848 0
M  V30 49288 H 383.746 1.86973 -6.82036 0
M  V30 49289 H 382.755 0.403953 -7.13357 0
M  V30 49290 H 384.589 1.20599 -8.97534 0
M  V30 49291 P 382.718 -1.17771 -8.83182 0
M  V30 49292 O 382.498 -2.07206 -9.98732 0
M  V30 49293 O 381.928 0.0743816 -8.81969 0
M  V30 49294 O 382.468 -1.97652 -7.47304 0
M  V30 49295 C 383.408 -3.01055 -7.08599 0
M  V30 49296 C 382.678 -4.12613 -6.37049 0
M  V30 49297 O 382.468 -3.72827 -4.97879 0
M  V30 49298 C 381.278 -4.45719 -6.88164 0
M  V30 49299 O 380.888 -5.7877 -6.5624 0
M  V30 49300 C 380.398 -3.47768 -6.11991 0
M  V30 49301 C 381.108 -3.39356 -4.77615 0
M  V30 49302 N 381.058 -2.04571 -4.15244 0
M  V30 49303 C 380.908 -1.98587 -2.78314 0
M  V30 49304 O 380.818 -2.98134 -2.08835 0
M  V30 49305 N 380.868 -0.714467 -2.24925 0
M  V30 49306 C 380.958 0.470001 -2.94169 0
M  V30 49307 C 381.108 0.312541 -4.36783 0
M  V30 49308 C 381.158 -0.914512 -4.92583 0
M  V30 49309 H 383.899 -3.41169 -7.98575 0
M  V30 49310 H 384.168 -2.58295 -6.41556 0
M  V30 49311 H 383.301 -5.02657 -6.42673 0
M  V30 49312 H 380.646 -4.11637 -4.08885 0
M  V30 49313 H 380.367 -2.49626 -6.61679 0
M  V30 49314 H 379.375 -3.86566 -6.00778 0
M  V30 49315 H 381.209 -4.29943 -7.96918 0
M  V30 49316 H 381.28 -1.00937 -6.00374 0
M  V30 49317 P 379.338 -6.144 -6.45285 0
M  V30 49318 O 379.118 -7.54673 -6.86199 0
M  V30 49319 O 378.548 -5.12391 -7.179 0
M  V30 49320 O 379.088 -5.99158 -4.88404 0
M  V30 49321 C 380.028 -6.60234 -3.96415 0
M  V30 49322 C 379.298 -7.08259 -2.72856 0
M  V30 49323 O 379.088 -5.9427 -1.83651 0
M  V30 49324 C 377.898 -7.64886 -2.9555 0
M  V30 49325 O 377.508 -8.53963 -1.90717 0
M  V30 49326 C 377.018 -6.4116 -2.90739 0
M  V30 49327 C 377.728 -5.55375 -1.86963 0
M  V30 49328 N 377.678 -4.09664 -2.15742 0
M  V30 49329 H 380.517 -7.45574 -4.45629 0
M  V30 49330 H 380.789 -5.86232 -3.67314 0
M  V30 49331 H 379.921 -7.84412 -2.24479 0
M  V30 49332 P 375.958 -8.7635 -1.60911 0
M  V30 49333 O 375.738 -10.1388 -1.11561 0
M  V30 49334 O 375.168 -8.36503 -2.79617 0
M  V30 49335 O 375.708 -7.71806 -0.42951 0
M  V30 49336 C 376.648 -7.67148 0.673689 0
M  V30 49337 C 375.918 -7.33374 1.95559 0
M  V30 49338 O 375.708 -5.88721 2.00726 0
M  V30 49339 C 374.518 -7.92526 2.10483 0
M  V30 49340 O 374.128 -8.02971 3.47653 0
M  V30 49341 C 373.638 -6.89602 1.41652 0
M  V30 49342 C 374.348 -5.59201 1.75185 0
M  V30 49343 N 374.298 -4.58301 0.657969 0
M  V30 49344 H 377.137 -8.65116 0.777161 0
M  V30 49345 H 377.409 -6.9022 0.46725 0
M  V30 49346 H 376.541 -7.66548 2.79458 0
M  V30 49347 H 373.886 -5.16165 2.65183 0
M  V30 49348 H 373.606 -7.06433 0.329384 0
M  V30 49349 H 372.615 -6.90926 1.82021 0
M  V30 49350 H 374.449 -8.90873 1.62657 0
M  V30 49351 P 372.578 -8.03563 3.84925 0
M  V30 49352 O 372.358 -8.85821 5.0569 0
M  V30 49353 O 371.788 -8.41101 2.65469 0
M  V30 49354 O 372.328 -6.49734 4.18962 0
M  V30 49355 C 373.268 -5.81037 5.05421 0
M  V30 49356 C 372.538 -4.79018 5.88876 0
M  V30 49357 O 372.328 -3.58359 5.08515 0
M  V30 49358 C 371.138 -5.17448 6.36119 0
M  V30 49359 O 370.748 -4.45322 7.53318 0
M  V30 49360 C 370.258 -4.74639 5.19936 0
M  V30 49361 C 370.968 -3.49432 4.70418 0
M  V30 49362 N 370.918 -3.31776 3.22945 0
M  V30 49363 C 370.768 -2.02742 2.72939 0
M  V30 49364 O 370.678 -1.08301 3.52749 0
M  V30 49365 N 370.718 -1.96117 1.22063 0
M  V30 49366 C 370.818 -2.8878 0.551566 0
M  V30 49367 N 370.768 -2.65609 -0.750198 0
M  V30 49368 C 370.968 -4.22457 1.03707 0
M  V30 49369 C 371.018 -4.37979 2.39113 0
M  V30 49370 H 373.758 -6.54138 5.7131 0
M  V30 49371 H 374.028 -5.30492 4.44033 0
M  V30 49372 H 373.161 -4.55945 6.76735 0
M  V30 49373 H 370.506 -2.6176 5.18021 0
M  V30 49374 H 370.226 -5.52233 4.41941 0
M  V30 49375 H 369.235 -4.52045 5.53452 0
M  V30 49376 H 371.069 -6.25124 6.55234 0
M  V30 49377 H 371.141 -5.37936 2.80552 0
M  V30 49378 H 371.039 -5.07528 0.359553 0
M  V30 49379 H 370.651 -1.69403 -1.09847 0
M  V30 49380 H 370.847 -3.43701 -1.41792 0
M  V30 49381 P 369.198 -4.23843 7.83734 0
M  V30 49382 O 368.978 -4.19407 9.29784 0
M  V30 49383 O 368.408 -5.24426 7.09156 0
M  V30 49384 O 368.948 -2.79386 7.20852 0
M  V30 49385 C 369.888 -1.7299 7.50419 0
M  V30 49386 C 369.158 -0.41401 7.5797 0
M  V30 49387 O 368.948 0.089787 6.22035 0
M  V30 49388 C 367.758 -0.447224 8.1878 0
M  V30 49389 O 367.368 0.825159 8.71201 0
M  V30 49390 C 366.878 -0.783801 6.99623 0
M  V30 49391 C 367.588 -0.0619192 5.85967 0
M  V30 49392 N 367.538 -0.7859 4.56281 0
M  V30 49393 C 367.388 -0.0359258 3.39981 0
M  V30 49394 O 367.298 1.19723 3.49038 0
M  V30 49395 N 367.338 -0.869151 2.14025 0
M  V30 49396 C 367.438 -2.01207 2.14363 0
M  V30 49397 N 367.388 -2.58978 0.954287 0
M  V30 49398 C 367.588 -2.80817 3.32215 0
M  V30 49399 C 367.638 -2.13785 4.50884 0
M  V30 49400 H 370.378 -1.93401 8.46693 0
M  V30 49401 H 370.648 -1.68181 6.71046 0
M  V30 49402 H 369.781 0.289076 8.15488 0
M  V30 49403 H 367.126 0.927166 5.72947 0
M  V30 49404 H 366.846 -1.87 6.82132 0
M  V30 49405 H 365.855 -0.404009 7.13457 0
M  V30 49406 H 367.689 -1.20599 8.97534 0
M  V30 49407 H 367.761 -2.70295 5.43162 0
M  V30 49408 H 367.659 -3.89465 3.27406 0
M  V30 49409 H 367.271 -2.01616 0.107046 0
M  V30 49410 H 367.467 -3.61403 0.873101 0
M  V30 49411 P 365.818 1.17771 8.83182 0
M  V30 49412 O 365.598 2.07206 9.98732 0
M  V30 49413 O 365.028 -0.0743816 8.81969 0
M  V30 49414 O 365.568 1.97652 7.47304 0
M  V30 49415 C 366.508 3.01133 7.08783 0
M  V30 49416 C 365.778 4.12613 6.37049 0
M  V30 49417 O 365.568 3.72827 4.97879 0
M  V30 49418 C 364.378 4.45085 6.88694 0
M  V30 49419 O 363.988 5.7877 6.5624 0
M  V30 49420 C 363.498 3.47817 6.12078 0
M  V30 49421 C 364.208 3.39414 4.77697 0
M  V30 49422 N 364.158 2.04615 4.15333 0
M  V30 49423 C 364.238 0.803897 4.75249 0
M  V30 49424 N 364.158 -0.197615 3.91502 0
M  V30 49425 C 364.018 0.413002 2.66823 0
M  V30 49426 C 363.888 -0.157221 1.38007 0
M  V30 49427 O 363.868 -1.34419 1.057 0
M  V30 49428 N 363.768 0.833136 0.390236 0
M  V30 49429 C 363.768 2.19402 0.623885 0
M  V30 49430 N 363.638 2.97622 -0.449677 0
M  V30 49431 N 363.898 2.73005 1.83601 0
M  V30 49432 C 364.018 1.78786 2.80935 0
M  V30 49433 H 366.997 3.41248 7.98759 0
M  V30 49434 H 367.269 2.5837 6.41742 0
M  V30 49435 H 366.401 5.02657 6.42673 0
M  V30 49436 H 363.746 4.11779 4.09026 0
M  V30 49437 H 363.466 2.49661 6.61772 0
M  V30 49438 H 362.475 3.86674 6.00946 0
M  V30 49439 H 364.309 4.30038 7.97094 0
M  V30 49440 H 364.358 0.670579 5.82754 0
M  V30 49441 H 363.676 0.528446 -0.557287 0
M  V30 49442 H 363.639 4.00117 -0.344773 0
M  V30 49443 H 363.538 2.55448 -1.38544 0
M  V30 49444 P 362.438 6.144 6.45285 0
M  V30 49445 O 362.218 7.54673 6.86199 0
M  V30 49446 O 361.648 5.12391 7.179 0
M  V30 49447 O 362.188 5.99158 4.88404 0
M  V30 49448 C 363.128 6.60234 3.96415 0
M  V30 49449 C 362.398 7.08259 2.72856 0
M  V30 49450 O 362.188 5.9427 1.83651 0
M  V30 49451 C 360.998 7.64886 2.9555 0
M  V30 49452 O 360.608 8.53963 1.90717 0
M  V30 49453 C 360.118 6.4116 2.90739 0
M  V30 49454 C 360.828 5.55375 1.86963 0
M  V30 49455 N 360.778 4.09664 2.15742 0
M  V30 49456 C 360.858 3.44381 3.37233 0
M  V30 49457 N 360.778 2.14131 3.28347 0
M  V30 49458 C 360.638 1.90247 1.91588 0
M  V30 49459 C 360.508 0.683992 1.20892 0
M  V30 49460 N 360.388 0.903396 -0.173998 0
M  V30 49461 C 360.388 2.14171 -0.784879 0
M  V30 49462 N 360.258 2.1435 -2.11317 0
M  V30 49463 N 360.518 3.28784 -0.119316 0
M  V30 49464 C 360.638 3.0977 1.22194 0
M  V30 49465 H 363.617 7.45574 4.45629 0
M  V30 49466 H 363.889 5.86232 3.67314 0
M  V30 49467 H 363.021 7.84412 2.24479 0
M  V30 49468 P 359.058 8.7635 1.60911 0
M  V30 49469 O 358.838 10.1388 1.11561 0
M  V30 49470 O 358.268 8.36503 2.79617 0
M  V30 49471 O 358.808 7.71806 0.42951 0
M  V30 49472 C 359.748 7.67148 -0.673689 0
M  V30 49473 C 359.018 7.33374 -1.95559 0
M  V30 49474 O 358.808 5.88721 -2.00726 0
M  V30 49475 C 357.618 7.92526 -2.10483 0
M  V30 49476 O 357.228 8.02971 -3.47653 0
M  V30 49477 C 356.738 6.89602 -1.41652 0
M  V30 49478 C 357.448 5.59201 -1.75185 0
M  V30 49479 N 357.398 4.58235 -0.662552 0
M  V30 49480 H 360.237 8.65116 -0.777161 0
M  V30 49481 H 360.509 6.90173 -0.474152 0
M  V30 49482 H 359.641 7.66548 -2.79458 0
M  V30 49483 P 355.678 8.03563 -3.84925 0
M  V30 49484 O 355.458 8.85821 -5.0569 0
M  V30 49485 O 354.888 8.41101 -2.65469 0
M  V30 49486 O 355.428 6.4965 -4.18908 0
M  V30 49487 C 356.368 5.81037 -5.05421 0
M  V30 49488 C 355.638 4.78366 -5.89277 0
M  V30 49489 O 355.428 3.58302 -5.08433 0
M  V30 49490 C 354.238 5.17448 -6.36119 0
M  V30 49491 O 353.848 4.45271 -7.53232 0
M  V30 49492 C 353.358 4.74639 -5.19936 0
M  V30 49493 C 354.068 3.49432 -4.70418 0
M  V30 49494 N 354.018 3.32099 -3.22613 0
M  V30 49495 H 356.857 6.54213 -5.71376 0
M  V30 49496 H 357.129 5.30936 -4.43503 0
M  V30 49497 H 356.261 4.55889 -6.76652 0
M  V30 49498 H 353.606 2.61715 -5.17932 0
M  V30 49499 H 353.326 5.52155 -4.41878 0
M  V30 49500 H 352.335 4.51981 -5.53374 0
M  V30 49501 H 354.169 6.25124 -6.55234 0
M  V30 49502 P 352.298 4.23843 -7.83734 0
M  V30 49503 O 352.078 4.19407 -9.29784 0
M  V30 49504 O 351.508 5.24426 -7.09156 0
M  V30 49505 O 352.048 2.7935 -7.20758 0
M  V30 49506 C 352.988 1.7299 -7.50419 0
M  V30 49507 C 352.258 0.406376 -7.57911 0
M  V30 49508 O 352.048 -0.0897726 -6.21935 0
M  V30 49509 C 350.858 0.447224 -8.1878 0
M  V30 49510 O 350.468 -0.825065 -8.71101 0
M  V30 49511 C 349.978 0.783801 -6.99623 0
M  V30 49512 C 350.688 0.0619192 -5.85967 0
M  V30 49513 N 350.638 0.7859 -4.56281 0
M  V30 49514 H 353.477 1.93423 -8.4679 0
M  V30 49515 H 353.749 1.68181 -6.71046 0
M  V30 49516 H 352.881 -0.289041 -8.15388 0
M  V30 49517 P 348.918 -1.17771 -8.83182 0
M  V30 49518 O 348.698 -2.07206 -9.98732 0
M  V30 49519 O 348.128 0.0743816 -8.81969 0
M  V30 49520 O 348.668 -1.97652 -7.47304 0
M  V30 49521 C 349.608 -3.01055 -7.08599 0
M  V30 49522 C 348.878 -4.12613 -6.37049 0
M  V30 49523 O 348.668 -3.72827 -4.97879 0
M  V30 49524 C 347.478 -4.45719 -6.88164 0
M  V30 49525 O 347.088 -5.7877 -6.5624 0
M  V30 49526 C 346.598 -3.47768 -6.11991 0
M  V30 49527 C 347.308 -3.39356 -4.77615 0
M  V30 49528 N 347.258 -2.04571 -4.15244 0
M  V30 49529 C 347.108 -1.98587 -2.78314 0
M  V30 49530 O 347.018 -2.98134 -2.08835 0
M  V30 49531 N 347.068 -0.714467 -2.24925 0
M  V30 49532 C 347.158 0.470001 -2.94169 0
M  V30 49533 O 347.108 1.55587 -2.35195 0
M  V30 49534 C 347.308 0.312541 -4.36783 0
M  V30 49535 C 347.418 1.57711 -5.16352 0
M  V30 49536 C 347.358 -0.914512 -4.92583 0
M  V30 49537 H 350.099 -3.41169 -7.98575 0
M  V30 49538 H 350.368 -2.58295 -6.41556 0
M  V30 49539 H 349.501 -5.02657 -6.42673 0
M  V30 49540 H 346.846 -4.11637 -4.08885 0
M  V30 49541 H 346.567 -2.49626 -6.61679 0
M  V30 49542 H 345.575 -3.86566 -6.00778 0
M  V30 49543 H 347.409 -4.29943 -7.96918 0
M  V30 49544 H 347.48 -1.00937 -6.00374 0
M  V30 49545 H 346.45 1.80153 -5.63503 0
M  V30 49546 H 348.187 1.4566 -5.94104 0
M  V30 49547 H 347.699 2.40664 -4.49645 0
M  V30 49548 H 346.963 -0.647622 -1.25697 0
M  V30 49549 P 345.538 -6.144 -6.45285 0
M  V30 49550 O 345.318 -7.54673 -6.86199 0
M  V30 49551 O 344.748 -5.12391 -7.179 0
M  V30 49552 O 345.288 -5.99158 -4.88404 0
M  V30 49553 C 346.228 -6.60062 -3.96313 0
M  V30 49554 C 345.498 -7.08259 -2.72856 0
M  V30 49555 O 345.288 -5.9427 -1.83651 0
M  V30 49556 C 344.098 -7.65087 -2.94749 0
M  V30 49557 O 343.708 -8.53963 -1.90717 0
M  V30 49558 C 343.218 -6.41069 -2.90698 0
M  V30 49559 C 343.928 -5.5528 -1.86931 0
M  V30 49560 N 343.878 -4.09575 -2.15696 0
M  V30 49561 C 343.728 -3.24249 -1.08435 0
M  V30 49562 O 343.638 -3.63946 0.0628747 0
M  V30 49563 N 343.688 -1.90009 -1.39973 0
M  V30 49564 C 343.778 -1.34884 -2.65614 0
M  V30 49565 C 343.928 -2.3145 -3.71736 0
M  V30 49566 C 343.978 -3.63518 -3.44754 0
M  V30 49567 H 346.719 -7.45402 -4.45526 0
M  V30 49568 H 346.988 -5.86062 -3.67208 0
M  V30 49569 H 346.121 -7.84412 -2.24479 0
M  V30 49570 H 343.466 -5.73358 -0.888409 0
M  V30 49571 H 343.187 -5.90877 -3.88583 0
M  V30 49572 H 342.195 -6.65867 -2.58821 0
M  V30 49573 H 344.029 -8.16248 -3.92006 0
M  V30 49574 H 344.1 -4.34551 -4.26383 0
M  V30 49575 P 342.158 -8.7635 -1.60911 0
M  V30 49576 O 341.938 -10.1388 -1.11561 0
M  V30 49577 O 341.368 -8.36503 -2.79617 0
M  V30 49578 O 341.908 -7.71806 -0.42951 0
M  V30 49579 C 342.848 -7.66948 0.673514 0
M  V30 49580 C 342.118 -7.33374 1.95559 0
M  V30 49581 O 341.908 -5.88721 2.00726 0
M  V30 49582 C 340.718 -7.92218 2.1125 0
M  V30 49583 O 340.328 -8.02971 3.47653 0
M  V30 49584 C 339.838 -6.89504 1.41631 0
M  V30 49585 C 340.548 -5.59106 1.75155 0
M  V30 49586 N 340.498 -4.58136 0.662409 0
M  V30 49587 C 340.348 -3.26059 1.02863 0
M  V30 49588 O 340.258 -2.90743 2.19009 0
M  V30 49589 N 340.308 -2.35995 -0.0155585 0
M  V30 49590 C 340.398 -2.65248 -1.35603 0
M  V30 49591 C 340.548 -4.05747 -1.64698 0
M  V30 49592 C 340.598 -4.96734 -0.652411 0
M  V30 49593 H 343.339 -8.64917 0.776982 0
M  V30 49594 H 343.608 -6.89974 0.474015 0
M  V30 49595 H 342.741 -7.66548 2.79458 0
M  V30 49596 H 340.086 -5.16076 2.65138 0
M  V30 49597 H 339.807 -7.06433 0.329384 0
M  V30 49598 H 338.815 -6.90829 1.81996 0
M  V30 49599 H 340.649 -8.90774 1.62639 0
M  V30 49600 H 340.72 -6.02181 -0.895285 0
M  V30 49601 P 338.778 -8.03563 3.84925 0
M  V30 49602 O 338.558 -8.85821 5.0569 0
M  V30 49603 O 337.988 -8.41101 2.65469 0
M  V30 49604 O 338.528 -6.4965 4.18908 0
M  V30 49605 C 339.468 -5.81037 5.05421 0
M  V30 49606 C 338.738 -4.78366 5.89277 0
M  V30 49607 O 338.528 -3.58302 5.08433 0
M  V30 49608 C 337.338 -5.17448 6.36119 0
M  V30 49609 O 336.948 -4.45271 7.53232 0
M  V30 49610 C 336.458 -4.74639 5.19936 0
M  V30 49611 C 337.168 -3.49432 4.70418 0
M  V30 49612 N 337.118 -3.31776 3.22945 0
M  V30 49613 H 339.957 -6.54213 5.71376 0
M  V30 49614 H 340.229 -5.30492 4.44033 0
M  V30 49615 H 339.361 -4.55889 6.76652 0
M  V30 49616 P 335.398 -4.23843 7.83734 0
M  V30 49617 O 335.178 -4.19407 9.29784 0
M  V30 49618 O 334.608 -5.24426 7.09156 0
M  V30 49619 O 335.148 -2.7935 7.20758 0
M  V30 49620 C 336.088 -1.72945 7.50224 0
M  V30 49621 C 335.358 -0.406376 7.57911 0
M  V30 49622 O 335.148 0.0897726 6.21935 0
M  V30 49623 C 333.958 -0.438983 8.18724 0
M  V30 49624 O 333.568 0.825065 8.71101 0
M  V30 49625 C 333.078 -0.783689 6.99524 0
M  V30 49626 C 333.788 -0.0619086 5.85867 0
M  V30 49627 N 333.738 -0.78573 4.56183 0
M  V30 49628 C 333.588 -0.0292889 3.41887 0
M  V30 49629 O 333.498 1.18445 3.4419 0
M  V30 49630 N 333.548 -0.744061 2.23964 0
M  V30 49631 C 333.638 -2.10932 2.10362 0
M  V30 49632 C 333.788 -2.8202 3.34994 0
M  V30 49633 C 333.838 -2.15547 4.52261 0
M  V30 49634 H 336.579 -1.93379 8.46595 0
M  V30 49635 H 336.848 -1.68132 6.70852 0
M  V30 49636 H 335.981 0.289041 8.15388 0
M  V30 49637 H 333.326 0.926847 5.72749 0
M  V30 49638 H 333.047 -1.86973 6.82036 0
M  V30 49639 H 332.055 -0.403896 7.13257 0
M  V30 49640 H 333.889 -1.20585 8.97435 0
M  V30 49641 H 333.96 -2.71231 5.45042 0
M  V30 49642 P 332.018 1.17771 8.83182 0
M  V30 49643 O 331.798 2.07206 9.98732 0
M  V30 49644 O 331.228 -0.0743816 8.81969 0
M  V30 49645 O 331.768 1.97678 7.474 0
M  V30 49646 C 332.708 3.01133 7.08783 0
M  V30 49647 C 331.978 4.1203 6.37546 0
M  V30 49648 O 331.768 3.72887 4.9796 0
M  V30 49649 C 330.578 4.45085 6.88694 0
M  V30 49650 O 330.188 5.78836 6.56315 0
M  V30 49651 C 329.698 3.47817 6.12078 0
M  V30 49652 C 330.408 3.39414 4.77697 0
M  V30 49653 N 330.358 2.04615 4.15333 0
M  V30 49654 C 330.208 1.96929 2.77162 0
M  V30 49655 O 330.118 3.02017 2.12006 0
M  V30 49656 N 330.158 0.55485 2.24237 0
M  V30 49657 C 330.258 -0.367808 2.9169 0
M  V30 49658 N 330.208 -1.53426 2.29427 0
M  V30 49659 C 330.408 -0.319148 4.33828 0
M  V30 49660 C 330.458 0.920672 4.90433 0
M  V30 49661 H 333.198 3.41209 7.98667 0
M  V30 49662 H 333.468 2.5837 6.41742 0
M  V30 49663 H 332.601 5.02718 6.42752 0
M  V30 49664 H 329.946 4.11779 4.09026 0
M  V30 49665 H 329.666 2.49661 6.61772 0
M  V30 49666 H 328.675 3.86674 6.00946 0
M  V30 49667 H 330.509 4.29991 7.97006 0
M  V30 49668 H 330.581 1.00589 5.98303 0
M  V30 49669 H 330.479 -1.22639 4.93799 0
M  V30 49670 H 330.091 -1.56819 1.27167 0
M  V30 49671 H 330.287 -2.41062 2.83063 0
M  V30 49672 P 328.638 6.144 6.45285 0
M  V30 49673 O 328.418 7.54673 6.86199 0
M  V30 49674 O 327.848 5.12391 7.179 0
M  V30 49675 O 328.388 5.99158 4.88404 0
M  V30 49676 C 329.328 6.60234 3.96415 0
M  V30 49677 C 328.598 7.08259 2.72856 0
M  V30 49678 O 328.388 5.9427 1.83651 0
M  V30 49679 C 327.198 7.64886 2.9555 0
M  V30 49680 O 326.808 8.53963 1.90717 0
M  V30 49681 C 326.318 6.4116 2.90739 0
M  V30 49682 C 327.028 5.55375 1.86963 0
M  V30 49683 N 326.978 4.09448 2.16152 0
M  V30 49684 H 329.817 7.45574 4.45629 0
M  V30 49685 H 330.089 5.85864 3.679 0
M  V30 49686 H 329.221 7.84412 2.24479 0
M  V30 49687 H 326.566 5.73457 0.888562 0
M  V30 49688 H 326.286 5.90877 3.88583 0
M  V30 49689 H 325.295 6.6596 2.58858 0
M  V30 49690 H 327.129 8.16339 3.92049 0
M  V30 49691 P 325.258 8.7635 1.60911 0
M  V30 49692 O 325.038 10.1388 1.11561 0
M  V30 49693 O 324.468 8.36503 2.79617 0
M  V30 49694 O 325.008 7.71806 0.42951 0
M  V30 49695 C 325.948 7.67148 -0.673689 0
M  V30 49696 C 325.218 7.33374 -1.95559 0
M  V30 49697 O 325.008 5.88721 -2.00726 0
M  V30 49698 C 323.818 7.92526 -2.10483 0
M  V30 49699 O 323.428 8.02971 -3.47653 0
M  V30 49700 C 322.938 6.89602 -1.41652 0
M  V30 49701 C 323.648 5.59201 -1.75185 0
M  V30 49702 N 323.598 4.58235 -0.662552 0
M  V30 49703 H 326.437 8.65116 -0.777161 0
M  V30 49704 H 326.709 6.90173 -0.474152 0
M  V30 49705 H 325.841 7.66548 -2.79458 0
M  V30 49706 P 321.878 8.03563 -3.84925 0
M  V30 49707 O 321.658 8.85821 -5.0569 0
M  V30 49708 O 321.088 8.41101 -2.65469 0
M  V30 49709 O 321.628 6.4965 -4.18908 0
M  V30 49710 C 322.568 5.81037 -5.05421 0
M  V30 49711 C 321.838 4.78366 -5.89277 0
M  V30 49712 O 321.628 3.58302 -5.08433 0
M  V30 49713 C 320.438 5.17448 -6.36119 0
M  V30 49714 O 320.048 4.45271 -7.53232 0
M  V30 49715 C 319.558 4.74639 -5.19936 0
M  V30 49716 C 320.268 3.49432 -4.70418 0
M  V30 49717 N 320.218 3.31776 -3.22945 0
M  V30 49718 H 323.057 6.54213 -5.71376 0
M  V30 49719 H 323.329 5.30492 -4.44033 0
M  V30 49720 H 322.461 4.55889 -6.76652 0
M  V30 49721 P 318.498 4.23843 -7.83734 0
M  V30 49722 O 318.278 4.19407 -9.29784 0
M  V30 49723 O 317.708 5.24426 -7.09156 0
M  V30 49724 O 318.248 2.79386 -7.20852 0
M  V30 49725 C 319.188 1.7299 -7.50419 0
M  V30 49726 C 318.458 0.41401 -7.5797 0
M  V30 49727 O 318.248 -0.089787 -6.22035 0
M  V30 49728 C 317.058 0.447224 -8.1878 0
M  V30 49729 O 316.668 -0.825159 -8.71201 0
M  V30 49730 C 316.178 0.783801 -6.99623 0
M  V30 49731 C 316.888 0.0619192 -5.85967 0
M  V30 49732 N 316.838 0.7859 -4.56281 0
M  V30 49733 C 316.688 0.0359258 -3.39981 0
M  V30 49734 O 316.598 -1.19723 -3.49038 0
M  V30 49735 N 316.638 0.869151 -2.14025 0
M  V30 49736 C 316.738 2.01207 -2.14363 0
M  V30 49737 N 316.688 2.58978 -0.954287 0
M  V30 49738 C 316.888 2.80817 -3.32215 0
M  V30 49739 C 316.938 2.13785 -4.50884 0
M  V30 49740 H 319.678 1.93401 -8.46693 0
M  V30 49741 H 319.948 1.68181 -6.71046 0
M  V30 49742 H 319.081 -0.289076 -8.15488 0
M  V30 49743 H 316.426 -0.927166 -5.72947 0
M  V30 49744 H 316.146 1.87 -6.82132 0
M  V30 49745 H 315.155 0.404009 -7.13457 0
M  V30 49746 H 316.989 1.20599 -8.97534 0
M  V30 49747 H 317.061 2.70295 -5.43162 0
M  V30 49748 H 316.959 3.89465 -3.27406 0
M  V30 49749 H 316.571 2.01616 -0.107046 0
M  V30 49750 H 316.767 3.61403 -0.873101 0
M  V30 49751 P 315.118 -1.17771 -8.83182 0
M  V30 49752 O 314.898 -2.07206 -9.98732 0
M  V30 49753 O 314.328 0.0743816 -8.81969 0
M  V30 49754 O 314.868 -1.97652 -7.47304 0
M  V30 49755 C 315.808 -3.01133 -7.08783 0
M  V30 49756 C 315.078 -4.12613 -6.37049 0
M  V30 49757 O 314.868 -3.72827 -4.97879 0
M  V30 49758 C 313.678 -4.45085 -6.88694 0
M  V30 49759 O 313.288 -5.7877 -6.5624 0
M  V30 49760 C 312.798 -3.47817 -6.12078 0
M  V30 49761 C 313.508 -3.39414 -4.77697 0
M  V30 49762 N 313.458 -2.04199 -4.15538 0
M  V30 49763 C 313.538 -0.821545 -4.76977 0
M  V30 49764 N 313.468 0.1794 -3.94592 0
M  V30 49765 C 313.318 -0.419121 -2.70776 0
M  V30 49766 C 313.188 0.109072 -1.40577 0
M  V30 49767 N 313.178 1.4104 -1.1344 0
M  V30 49768 N 313.068 -0.764381 -0.39411 0
M  V30 49769 C 313.078 -2.06587 -0.664135 0
M  V30 49770 N 313.198 -2.67948 -1.82153 0
M  V30 49771 C 313.318 -1.77942 -2.8147 0
M  V30 49772 H 316.297 -3.41248 -7.98759 0
M  V30 49773 H 316.569 -2.57728 -6.42 0
M  V30 49774 H 315.701 -5.02657 -6.42673 0
M  V30 49775 H 313.046 -4.11708 -4.08956 0
M  V30 49776 H 312.766 -2.49626 -6.61679 0
M  V30 49777 H 311.775 -3.8662 -6.00862 0
M  V30 49778 H 313.609 -4.29991 -7.97006 0
M  V30 49779 H 313.65 -0.702451 -5.84696 0
M  V30 49780 H 313.269 2.09647 -1.89651 0
M  V30 49781 H 313.08 1.73358 -0.160575 0
M  V30 49782 H 312.972 -2.71695 0.195838 0
M  V30 49783 P 311.738 -6.144 -6.45285 0
M  V30 49784 O 311.518 -7.54673 -6.86199 0
M  V30 49785 O 310.948 -5.12391 -7.179 0
M  V30 49786 O 311.488 -5.99158 -4.88404 0
M  V30 49787 C 312.428 -6.60062 -3.96313 0
M  V30 49788 C 311.698 -7.08259 -2.72856 0
M  V30 49789 O 311.488 -5.9427 -1.83651 0
M  V30 49790 C 310.298 -7.65087 -2.94749 0
M  V30 49791 O 309.908 -8.53963 -1.90717 0
M  V30 49792 C 309.418 -6.41069 -2.90698 0
M  V30 49793 C 310.128 -5.5528 -1.86931 0
M  V30 49794 N 310.078 -4.09575 -2.15696 0
M  V30 49795 C 309.928 -3.24249 -1.08435 0
M  V30 49796 O 309.838 -3.63946 0.0628747 0
M  V30 49797 N 309.888 -1.90009 -1.39973 0
M  V30 49798 C 309.978 -1.34884 -2.65614 0
M  V30 49799 C 310.128 -2.3145 -3.71736 0
M  V30 49800 C 310.178 -3.63518 -3.44754 0
M  V30 49801 H 312.919 -7.45402 -4.45526 0
M  V30 49802 H 313.188 -5.86062 -3.67208 0
M  V30 49803 H 312.321 -7.84412 -2.24479 0
M  V30 49804 H 309.666 -5.73358 -0.888409 0
M  V30 49805 H 309.387 -5.90877 -3.88583 0
M  V30 49806 H 308.395 -6.65867 -2.58821 0
M  V30 49807 H 310.229 -8.16248 -3.92006 0
M  V30 49808 H 310.3 -4.34551 -4.26383 0
M  V30 49809 P 308.358 -8.7635 -1.60911 0
M  V30 49810 O 308.138 -10.1388 -1.11561 0
M  V30 49811 O 307.568 -8.36503 -2.79617 0
M  V30 49812 O 308.108 -7.71806 -0.42951 0
M  V30 49813 C 309.048 -7.67148 0.673689 0
M  V30 49814 C 308.318 -7.33374 1.95559 0
M  V30 49815 O 308.108 -5.88721 2.00726 0
M  V30 49816 C 306.918 -7.92526 2.10483 0
M  V30 49817 O 306.528 -8.02971 3.47653 0
M  V30 49818 C 306.038 -6.89602 1.41652 0
M  V30 49819 C 306.748 -5.59201 1.75185 0
M  V30 49820 N 306.698 -4.58235 0.662552 0
M  V30 49821 H 309.537 -8.65116 0.777161 0
M  V30 49822 H 309.809 -6.90173 0.474152 0
M  V30 49823 H 308.941 -7.66548 2.79458 0
M  V30 49824 P 304.978 -8.03563 3.84925 0
M  V30 49825 O 304.758 -8.85821 5.0569 0
M  V30 49826 O 304.188 -8.41101 2.65469 0
M  V30 49827 O 304.728 -6.4965 4.18908 0
M  V30 49828 C 305.668 -5.81037 5.05421 0
M  V30 49829 C 304.938 -4.78366 5.89277 0
M  V30 49830 O 304.728 -3.58302 5.08433 0
M  V30 49831 C 303.538 -5.17448 6.36119 0
M  V30 49832 O 303.148 -4.45271 7.53232 0
M  V30 49833 C 302.658 -4.74639 5.19936 0
M  V30 49834 C 303.368 -3.49432 4.70418 0
M  V30 49835 N 303.318 -3.31776 3.22945 0
M  V30 49836 H 306.157 -6.54213 5.71376 0
M  V30 49837 H 306.429 -5.30492 4.44033 0
M  V30 49838 H 305.561 -4.55889 6.76652 0
M  V30 49839 P 301.598 -4.23843 7.83734 0
M  V30 49840 O 301.378 -4.19407 9.29784 0
M  V30 49841 O 300.808 -5.24426 7.09156 0
M  V30 49842 O 301.348 -2.7935 7.20758 0
M  V30 49843 C 302.288 -1.72945 7.50224 0
M  V30 49844 C 301.558 -0.406376 7.57911 0
M  V30 49845 O 301.348 0.0897726 6.21935 0
M  V30 49846 C 300.158 -0.438983 8.18724 0
M  V30 49847 O 299.768 0.825065 8.71101 0
M  V30 49848 C 299.278 -0.783689 6.99524 0
M  V30 49849 C 299.988 -0.0619086 5.85867 0
M  V30 49850 N 299.938 -0.78573 4.56183 0
M  V30 49851 C 299.788 -0.0292889 3.41887 0
M  V30 49852 O 299.698 1.18445 3.4419 0
M  V30 49853 N 299.748 -0.744061 2.23964 0
M  V30 49854 C 299.838 -2.10932 2.10362 0
M  V30 49855 O 299.788 -2.64117 0.98825 0
M  V30 49856 C 299.988 -2.8202 3.34994 0
M  V30 49857 C 300.098 -4.31095 3.25037 0
M  V30 49858 C 300.038 -2.15547 4.52261 0
M  V30 49859 H 302.779 -1.93379 8.46595 0
M  V30 49860 H 303.048 -1.68132 6.70852 0
M  V30 49861 H 302.181 0.289041 8.15388 0
M  V30 49862 H 299.526 0.926847 5.72749 0
M  V30 49863 H 299.247 -1.86973 6.82036 0
M  V30 49864 H 298.255 -0.403896 7.13257 0
M  V30 49865 H 300.089 -1.20585 8.97435 0
M  V30 49866 H 300.16 -2.71231 5.45042 0
M  V30 49867 H 299.13 -4.76966 3.49992 0
M  V30 49868 H 300.867 -4.67047 3.95024 0
M  V30 49869 H 300.379 -4.58996 2.22312 0
M  V30 49870 H 299.643 -0.214893 1.39758 0
M  V30 49871 P 298.218 1.17771 8.83182 0
M  V30 49872 O 297.998 2.07206 9.98732 0
M  V30 49873 O 297.428 -0.0743816 8.81969 0
M  V30 49874 O 297.968 1.97652 7.47304 0
M  V30 49875 C 298.908 3.01133 7.08783 0
M  V30 49876 C 298.178 4.12613 6.37049 0
M  V30 49877 O 297.968 3.72827 4.97879 0
M  V30 49878 C 296.778 4.45085 6.88694 0
M  V30 49879 O 296.388 5.7877 6.5624 0
M  V30 49880 C 295.898 3.47817 6.12078 0
M  V30 49881 C 296.608 3.39414 4.77697 0
M  V30 49882 N 296.558 2.04615 4.15333 0
M  V30 49883 H 299.397 3.41248 7.98759 0
M  V30 49884 H 299.669 2.5837 6.41742 0
M  V30 49885 H 298.801 5.02657 6.42673 0
M  V30 49886 P 294.838 6.144 6.45285 0
M  V30 49887 O 294.618 7.54673 6.86199 0
M  V30 49888 O 294.048 5.12391 7.179 0
M  V30 49889 O 294.588 5.99158 4.88404 0
M  V30 49890 C 295.528 6.60062 3.96313 0
M  V30 49891 C 294.798 7.08259 2.72856 0
M  V30 49892 O 294.588 5.9427 1.83651 0
M  V30 49893 C 293.398 7.65087 2.94749 0
M  V30 49894 O 293.008 8.53963 1.90717 0
M  V30 49895 C 292.518 6.41069 2.90698 0
M  V30 49896 C 293.228 5.5528 1.86931 0
M  V30 49897 N 293.178 4.09575 2.15696 0
M  V30 49898 C 293.028 3.24249 1.08435 0
M  V30 49899 O 292.938 3.63946 -0.0628747 0
M  V30 49900 N 292.988 1.90009 1.39973 0
M  V30 49901 C 293.078 1.34884 2.65614 0
M  V30 49902 O 293.028 0.123716 2.81728 0
M  V30 49903 C 293.228 2.3145 3.71736 0
M  V30 49904 C 293.338 1.75913 5.10438 0
M  V30 49905 C 293.278 3.63518 3.44754 0
M  V30 49906 H 296.019 7.45402 4.45526 0
M  V30 49907 H 296.288 5.86062 3.67208 0
M  V30 49908 H 295.421 7.84412 2.24479 0
M  V30 49909 H 292.766 5.73358 0.888409 0
M  V30 49910 H 292.487 5.90877 3.88583 0
M  V30 49911 H 291.495 6.65867 2.58821 0
M  V30 49912 H 293.329 8.16248 3.92006 0
M  V30 49913 H 293.4 4.34551 4.26383 0
M  V30 49914 H 292.37 1.85471 5.61775 0
M  V30 49915 H 294.107 2.31364 5.66257 0
M  V30 49916 H 293.619 0.695936 5.05229 0
M  V30 49917 H 292.883 1.26277 0.63625 0
M  V30 49918 P 291.458 8.7635 1.60911 0
M  V30 49919 O 291.238 10.1388 1.11561 0
M  V30 49920 O 290.668 8.36503 2.79617 0
M  V30 49921 O 291.208 7.71806 0.42951 0
M  V30 49922 C 292.148 7.67148 -0.673689 0
M  V30 49923 C 291.418 7.33374 -1.95559 0
M  V30 49924 O 291.208 5.88721 -2.00726 0
M  V30 49925 C 290.018 7.92526 -2.10483 0
M  V30 49926 O 289.628 8.02971 -3.47653 0
M  V30 49927 C 289.138 6.89602 -1.41652 0
M  V30 49928 C 289.848 5.59201 -1.75185 0
M  V30 49929 N 289.798 4.58301 -0.657969 0
M  V30 49930 H 292.637 8.65116 -0.777161 0
M  V30 49931 H 292.909 6.9022 -0.46725 0
M  V30 49932 H 292.041 7.66548 -2.79458 0
M  V30 49933 H 289.386 5.16165 -2.65183 0
M  V30 49934 H 289.106 7.06433 -0.329384 0
M  V30 49935 H 288.115 6.90926 -1.82021 0
M  V30 49936 H 289.949 8.90873 -1.62657 0
M  V30 49937 P 288.078 8.03563 -3.84925 0
M  V30 49938 O 287.858 8.85821 -5.0569 0
M  V30 49939 O 287.288 8.41101 -2.65469 0
M  V30 49940 O 287.828 6.4965 -4.18908 0
M  V30 49941 C 288.768 5.81037 -5.05421 0
M  V30 49942 C 288.038 4.78366 -5.89277 0
M  V30 49943 O 287.828 3.58302 -5.08433 0
M  V30 49944 C 286.638 5.17448 -6.36119 0
M  V30 49945 O 286.248 4.45271 -7.53232 0
M  V30 49946 C 285.758 4.74639 -5.19936 0
M  V30 49947 C 286.468 3.49432 -4.70418 0
M  V30 49948 N 286.418 3.31776 -3.22945 0
M  V30 49949 H 289.257 6.54213 -5.71376 0
M  V30 49950 H 289.529 5.30492 -4.44033 0
M  V30 49951 H 288.661 4.55889 -6.76652 0
M  V30 49952 P 284.698 4.23843 -7.83734 0
M  V30 49953 O 284.478 4.19407 -9.29784 0
M  V30 49954 O 283.908 5.24426 -7.09156 0
M  V30 49955 O 284.448 2.7935 -7.20758 0
M  V30 49956 C 285.388 1.7299 -7.50419 0
M  V30 49957 C 284.658 0.406376 -7.57911 0
M  V30 49958 O 284.448 -0.0897726 -6.21935 0
M  V30 49959 C 283.258 0.447224 -8.1878 0
M  V30 49960 O 282.868 -0.825065 -8.71101 0
M  V30 49961 C 282.378 0.783801 -6.99623 0
M  V30 49962 C 283.088 0.0619192 -5.85967 0
M  V30 49963 N 283.038 0.790462 -4.56202 0
M  V30 49964 H 285.877 1.93423 -8.4679 0
M  V30 49965 H 286.149 1.68852 -6.70877 0
M  V30 49966 H 285.281 -0.289041 -8.15388 0
M  V30 49967 H 282.626 -0.927006 -5.72848 0
M  V30 49968 H 282.346 1.86973 -6.82036 0
M  V30 49969 H 281.355 0.403953 -7.13357 0
M  V30 49970 H 283.189 1.20599 -8.97534 0
M  V30 49971 P 281.318 -1.17771 -8.83182 0
M  V30 49972 O 281.098 -2.07206 -9.98732 0
M  V30 49973 O 280.528 0.0743816 -8.81969 0
M  V30 49974 O 281.068 -1.97652 -7.47304 0
M  V30 49975 C 282.008 -3.01133 -7.08783 0
M  V30 49976 C 281.278 -4.12613 -6.37049 0
M  V30 49977 O 281.068 -3.72827 -4.97879 0
M  V30 49978 C 279.878 -4.45085 -6.88694 0
M  V30 49979 O 279.488 -5.7877 -6.5624 0
M  V30 49980 C 278.998 -3.47817 -6.12078 0
M  V30 49981 C 279.708 -3.39414 -4.77697 0
M  V30 49982 N 279.658 -2.04615 -4.15333 0
M  V30 49983 H 282.497 -3.41248 -7.98759 0
M  V30 49984 H 282.769 -2.5837 -6.41742 0
M  V30 49985 H 281.901 -5.02657 -6.42673 0
M  V30 49986 P 277.938 -6.144 -6.45285 0
M  V30 49987 O 277.718 -7.54673 -6.86199 0
M  V30 49988 O 277.148 -5.12391 -7.179 0
M  V30 49989 O 277.688 -5.99158 -4.88404 0
M  V30 49990 C 278.628 -6.60234 -3.96415 0
M  V30 49991 C 277.898 -7.08259 -2.72856 0
M  V30 49992 O 277.688 -5.9427 -1.83651 0
M  V30 49993 C 276.498 -7.64886 -2.9555 0
M  V30 49994 O 276.108 -8.53963 -1.90717 0
M  V30 49995 C 275.618 -6.4116 -2.90739 0
M  V30 49996 C 276.328 -5.55375 -1.86963 0
M  V30 49997 N 276.278 -4.09448 -2.16152 0
M  V30 49998 H 279.117 -7.45574 -4.45629 0
M  V30 49999 H 279.389 -5.85864 -3.679 0
M  V30 50000 H 278.521 -7.84412 -2.24479 0
M  V30 50001 H 275.866 -5.73457 -0.888562 0
M  V30 50002 H 275.586 -5.90877 -3.88583 0
M  V30 50003 H 274.595 -6.6596 -2.58858 0
M  V30 50004 H 276.429 -8.16339 -3.92049 0
M  V30 50005 P 274.558 -8.7635 -1.60911 0
M  V30 50006 O 274.338 -10.1388 -1.11561 0
M  V30 50007 O 273.768 -8.36503 -2.79617 0
M  V30 50008 O 274.308 -7.71806 -0.42951 0
M  V30 50009 C 275.248 -7.66948 0.673514 0
M  V30 50010 C 274.518 -7.33374 1.95559 0
M  V30 50011 O 274.308 -5.88721 2.00726 0
M  V30 50012 C 273.118 -7.92218 2.1125 0
M  V30 50013 O 272.728 -8.02971 3.47653 0
M  V30 50014 C 272.238 -6.89504 1.41631 0
M  V30 50015 C 272.948 -5.59106 1.75155 0
M  V30 50016 N 272.898 -4.58136 0.662409 0
M  V30 50017 C 272.748 -3.26059 1.02863 0
M  V30 50018 O 272.658 -2.90743 2.19009 0
M  V30 50019 N 272.708 -2.35995 -0.0155585 0
M  V30 50020 C 272.798 -2.65248 -1.35603 0
M  V30 50021 C 272.948 -4.05747 -1.64698 0
M  V30 50022 C 272.998 -4.96734 -0.652411 0
M  V30 50023 H 275.739 -8.64917 0.776982 0
M  V30 50024 H 276.008 -6.89974 0.474015 0
M  V30 50025 H 275.141 -7.66548 2.79458 0
M  V30 50026 H 272.486 -5.16076 2.65138 0
M  V30 50027 H 272.207 -7.06433 0.329384 0
M  V30 50028 H 271.215 -6.90829 1.81996 0
M  V30 50029 H 273.049 -8.90774 1.62639 0
M  V30 50030 H 273.12 -6.02181 -0.895285 0
M  V30 50031 P 271.178 -8.03563 3.84925 0
M  V30 50032 O 270.958 -8.85821 5.0569 0
M  V30 50033 O 270.388 -8.41101 2.65469 0
M  V30 50034 O 270.928 -6.4965 4.18908 0
M  V30 50035 C 271.868 -5.81037 5.05421 0
M  V30 50036 C 271.138 -4.78366 5.89277 0
M  V30 50037 O 270.928 -3.58302 5.08433 0
M  V30 50038 C 269.738 -5.17448 6.36119 0
M  V30 50039 O 269.348 -4.45271 7.53232 0
M  V30 50040 C 268.858 -4.74639 5.19936 0
M  V30 50041 C 269.568 -3.49432 4.70418 0
M  V30 50042 N 269.518 -3.31776 3.22945 0
M  V30 50043 H 272.357 -6.54213 5.71376 0
M  V30 50044 H 272.629 -5.30492 4.44033 0
M  V30 50045 H 271.761 -4.55889 6.76652 0
M  V30 50046 P 267.798 -4.23843 7.83734 0
M  V30 50047 O 267.578 -4.19407 9.29784 0
M  V30 50048 O 267.008 -5.24426 7.09156 0
M  V30 50049 O 267.548 -2.7935 7.20758 0
M  V30 50050 C 268.488 -1.72945 7.50224 0
M  V30 50051 C 267.758 -0.406376 7.57911 0
M  V30 50052 O 267.548 0.0897726 6.21935 0
M  V30 50053 C 266.358 -0.438983 8.18724 0
M  V30 50054 O 265.968 0.825065 8.71101 0
M  V30 50055 C 265.478 -0.783689 6.99524 0
M  V30 50056 C 266.188 -0.0619086 5.85867 0
M  V30 50057 N 266.138 -0.78573 4.56183 0
M  V30 50058 C 265.988 -0.0292889 3.41887 0
M  V30 50059 O 265.898 1.18445 3.4419 0
M  V30 50060 N 265.948 -0.744061 2.23964 0
M  V30 50061 C 266.038 -2.10932 2.10362 0
M  V30 50062 O 265.988 -2.64117 0.98825 0
M  V30 50063 C 266.188 -2.8202 3.34994 0
M  V30 50064 C 266.298 -4.31095 3.25037 0
M  V30 50065 C 266.238 -2.15547 4.52261 0
M  V30 50066 H 268.979 -1.93379 8.46595 0
M  V30 50067 H 269.248 -1.68132 6.70852 0
M  V30 50068 H 268.381 0.289041 8.15388 0
M  V30 50069 H 265.726 0.926847 5.72749 0
M  V30 50070 H 265.447 -1.86973 6.82036 0
M  V30 50071 H 264.455 -0.403896 7.13257 0
M  V30 50072 H 266.289 -1.20585 8.97435 0
M  V30 50073 H 266.36 -2.71231 5.45042 0
M  V30 50074 H 265.33 -4.76966 3.49992 0
M  V30 50075 H 267.067 -4.67047 3.95024 0
M  V30 50076 H 266.579 -4.58996 2.22312 0
M  V30 50077 H 265.843 -0.214893 1.39758 0
M  V30 50078 P 264.418 1.17771 8.83182 0
M  V30 50079 O 264.198 2.07206 9.98732 0
M  V30 50080 O 263.628 -0.0743816 8.81969 0
M  V30 50081 O 264.168 1.97652 7.47304 0
M  V30 50082 C 265.108 3.01133 7.08783 0
M  V30 50083 C 264.378 4.12613 6.37049 0
M  V30 50084 O 264.168 3.72827 4.97879 0
M  V30 50085 C 262.978 4.45085 6.88694 0
M  V30 50086 O 262.588 5.7877 6.5624 0
M  V30 50087 C 262.098 3.47817 6.12078 0
M  V30 50088 C 262.808 3.39414 4.77697 0
M  V30 50089 N 262.758 2.04615 4.15333 0
M  V30 50090 H 265.597 3.41248 7.98759 0
M  V30 50091 H 265.869 2.5837 6.41742 0
M  V30 50092 H 265.001 5.02657 6.42673 0
M  V30 50093 P 261.038 6.144 6.45285 0
M  V30 50094 O 260.818 7.54673 6.86199 0
M  V30 50095 O 260.248 5.12391 7.179 0
M  V30 50096 O 260.788 5.99158 4.88404 0
M  V30 50097 C 261.728 6.60234 3.96415 0
M  V30 50098 C 260.998 7.08259 2.72856 0
M  V30 50099 O 260.788 5.9427 1.83651 0
M  V30 50100 C 259.598 7.64886 2.9555 0
M  V30 50101 O 259.208 8.53963 1.90717 0
M  V30 50102 C 258.718 6.4116 2.90739 0
M  V30 50103 C 259.428 5.55375 1.86963 0
M  V30 50104 N 259.378 4.09664 2.15742 0
M  V30 50105 H 262.217 7.45574 4.45629 0
M  V30 50106 H 262.489 5.86232 3.67314 0
M  V30 50107 H 261.621 7.84412 2.24479 0
M  V30 50108 P 257.658 8.7635 1.60911 0
M  V30 50109 O 257.438 10.1388 1.11561 0
M  V30 50110 O 256.868 8.36503 2.79617 0
M  V30 50111 O 257.408 7.71806 0.42951 0
M  V30 50112 C 258.348 7.66948 -0.673514 0
M  V30 50113 C 257.618 7.33374 -1.95559 0
M  V30 50114 O 257.408 5.88721 -2.00726 0
M  V30 50115 C 256.218 7.92218 -2.1125 0
M  V30 50116 O 255.828 8.02971 -3.47653 0
M  V30 50117 C 255.338 6.89504 -1.41631 0
M  V30 50118 C 256.048 5.59106 -1.75155 0
M  V30 50119 N 255.998 4.58136 -0.662409 0
M  V30 50120 C 255.848 3.26059 -1.02863 0
M  V30 50121 O 255.758 2.90743 -2.19009 0
M  V30 50122 N 255.808 2.35995 0.0155585 0
M  V30 50123 C 255.898 2.65248 1.35603 0
M  V30 50124 C 256.048 4.05747 1.64698 0
M  V30 50125 C 256.098 4.96734 0.652411 0
M  V30 50126 H 258.839 8.64917 -0.776982 0
M  V30 50127 H 259.108 6.89974 -0.474015 0
M  V30 50128 H 258.241 7.66548 -2.79458 0
M  V30 50129 H 255.586 5.16076 -2.65138 0
M  V30 50130 H 255.307 7.06433 -0.329384 0
M  V30 50131 H 254.315 6.90829 -1.81996 0
M  V30 50132 H 256.149 8.90774 -1.62639 0
M  V30 50133 H 256.22 6.02181 0.895285 0
M  V30 50134 P 254.279 8.03563 -3.84925 0
M  V30 50135 O 254.059 8.85821 -5.0569 0
M  V30 50136 O 253.489 8.41101 -2.65469 0
M  V30 50137 O 254.029 6.4965 -4.18908 0
M  V30 50138 C 254.969 5.81037 -5.05421 0
M  V30 50139 C 254.239 4.78366 -5.89277 0
M  V30 50140 O 254.029 3.58302 -5.08433 0
M  V30 50141 C 252.839 5.17448 -6.36119 0
M  V30 50142 O 252.449 4.45271 -7.53232 0
M  V30 50143 C 251.959 4.74639 -5.19936 0
M  V30 50144 C 252.669 3.49432 -4.70418 0
M  V30 50145 N 252.619 3.31776 -3.22945 0
M  V30 50146 H 255.458 6.54213 -5.71376 0
M  V30 50147 H 255.73 5.30492 -4.44033 0
M  V30 50148 H 254.862 4.55889 -6.76652 0
M  V30 50149 P 250.899 4.23843 -7.83734 0
M  V30 50150 O 250.679 4.19407 -9.29784 0
M  V30 50151 O 250.109 5.24426 -7.09156 0
M  V30 50152 O 250.649 2.7935 -7.20758 0
M  V30 50153 C 251.589 1.7299 -7.50419 0
M  V30 50154 C 250.859 0.406376 -7.57911 0
M  V30 50155 O 250.649 -0.0897726 -6.21935 0
M  V30 50156 C 249.459 0.447224 -8.1878 0
M  V30 50157 O 249.069 -0.825065 -8.71101 0
M  V30 50158 C 248.579 0.783801 -6.99623 0
M  V30 50159 C 249.289 0.0619192 -5.85967 0
M  V30 50160 N 249.239 0.7859 -4.56281 0
M  V30 50161 H 252.078 1.93423 -8.4679 0
M  V30 50162 H 252.35 1.68181 -6.71046 0
M  V30 50163 H 251.482 -0.289041 -8.15388 0
M  V30 50164 P 247.519 -1.17771 -8.83182 0
M  V30 50165 O 247.299 -2.07206 -9.98732 0
M  V30 50166 O 246.729 0.0743816 -8.81969 0
M  V30 50167 O 247.269 -1.97652 -7.47304 0
M  V30 50168 C 248.209 -3.01133 -7.08783 0
M  V30 50169 C 247.479 -4.12613 -6.37049 0
M  V30 50170 O 247.269 -3.72827 -4.97879 0
M  V30 50171 C 246.079 -4.45085 -6.88694 0
M  V30 50172 O 245.689 -5.7877 -6.5624 0
M  V30 50173 C 245.199 -3.47817 -6.12078 0
M  V30 50174 C 245.909 -3.39414 -4.77697 0
M  V30 50175 N 245.859 -2.04199 -4.15538 0
M  V30 50176 H 248.698 -3.41248 -7.98759 0
M  V30 50177 H 248.97 -2.57728 -6.42 0
M  V30 50178 H 248.102 -5.02657 -6.42673 0
M  V30 50179 H 245.447 -4.11708 -4.08956 0
M  V30 50180 H 245.167 -2.49626 -6.61679 0
M  V30 50181 H 244.176 -3.8662 -6.00862 0
M  V30 50182 H 246.01 -4.29991 -7.97006 0
M  V30 50183 P 244.139 -6.144 -6.45285 0
M  V30 50184 O 243.919 -7.54673 -6.86199 0
M  V30 50185 O 243.349 -5.12391 -7.179 0
M  V30 50186 O 243.889 -5.99158 -4.88404 0
M  V30 50187 C 244.829 -6.60234 -3.96415 0
M  V30 50188 C 244.099 -7.08259 -2.72856 0
M  V30 50189 O 243.889 -5.9427 -1.83651 0
M  V30 50190 C 242.699 -7.64886 -2.9555 0
M  V30 50191 O 242.309 -8.53963 -1.90717 0
M  V30 50192 C 241.819 -6.4116 -2.90739 0
M  V30 50193 C 242.529 -5.55375 -1.86963 0
M  V30 50194 N 242.479 -4.09664 -2.15742 0
M  V30 50195 C 242.559 -3.44381 -3.37233 0
M  V30 50196 N 242.479 -2.14131 -3.28347 0
M  V30 50197 C 242.339 -1.90247 -1.91588 0
M  V30 50198 C 242.209 -0.683992 -1.20892 0
M  V30 50199 O 242.189 0.46618 -1.64523 0
M  V30 50200 N 242.089 -0.903396 0.173998 0
M  V30 50201 C 242.089 -2.14171 0.784879 0
M  V30 50202 N 241.959 -2.1435 2.11317 0
M  V30 50203 N 242.219 -3.28784 0.119316 0
M  V30 50204 C 242.339 -3.0977 -1.22194 0
M  V30 50205 H 245.318 -7.45574 -4.45629 0
M  V30 50206 H 245.59 -5.86232 -3.67314 0
M  V30 50207 H 244.722 -7.84412 -2.24479 0
M  V30 50208 H 242.067 -5.73556 -0.888715 0
M  V30 50209 H 241.787 -5.9096 -3.88638 0
M  V30 50210 H 240.796 -6.66053 -2.58894 0
M  V30 50211 H 242.63 -8.16429 -3.92093 0
M  V30 50212 H 242.679 -3.96785 -4.32043 0
M  V30 50213 H 241.997 -0.0999567 0.761467 0
M  V30 50214 H 241.96 -3.03436 2.63076 0
M  V30 50215 H 241.859 -1.25228 2.62233 0
M  V30 50216 P 240.759 -8.7635 -1.60911 0
M  V30 50217 O 240.539 -10.1388 -1.11561 0
M  V30 50218 O 239.969 -8.36503 -2.79617 0
M  V30 50219 O 240.509 -7.71806 -0.42951 0
M  V30 50220 C 241.449 -7.67148 0.673689 0
M  V30 50221 C 240.719 -7.33374 1.95559 0
M  V30 50222 O 240.509 -5.88721 2.00726 0
M  V30 50223 C 239.319 -7.92526 2.10483 0
M  V30 50224 O 238.929 -8.02971 3.47653 0
M  V30 50225 C 238.439 -6.89602 1.41652 0
M  V30 50226 C 239.149 -5.59201 1.75185 0
M  V30 50227 N 239.099 -4.58235 0.662552 0
M  V30 50228 H 241.938 -8.65116 0.777161 0
M  V30 50229 H 242.21 -6.90173 0.474152 0
M  V30 50230 H 241.342 -7.66548 2.79458 0
M  V30 50231 P 237.379 -8.03563 3.84925 0
M  V30 50232 O 237.159 -8.85821 5.0569 0
M  V30 50233 O 236.589 -8.41101 2.65469 0
M  V30 50234 O 237.129 -6.4965 4.18908 0
M  V30 50235 C 238.069 -5.81037 5.05421 0
M  V30 50236 C 237.339 -4.78366 5.89277 0
M  V30 50237 O 237.129 -3.58302 5.08433 0
M  V30 50238 C 235.939 -5.17448 6.36119 0
M  V30 50239 O 235.549 -4.45271 7.53232 0
M  V30 50240 C 235.059 -4.74639 5.19936 0
M  V30 50241 C 235.769 -3.49432 4.70418 0
M  V30 50242 N 235.719 -3.32099 3.22613 0
M  V30 50243 H 238.558 -6.54213 5.71376 0
M  V30 50244 H 238.83 -5.30936 4.43503 0
M  V30 50245 H 237.962 -4.55889 6.76652 0
M  V30 50246 H 235.307 -2.61715 5.17932 0
M  V30 50247 H 235.027 -5.52155 4.41878 0
M  V30 50248 H 234.036 -4.51981 5.53374 0
M  V30 50249 H 235.87 -6.25124 6.55234 0
M  V30 50250 P 233.999 -4.23843 7.83734 0
M  V30 50251 O 233.779 -4.19407 9.29784 0
M  V30 50252 O 233.209 -5.24426 7.09156 0
M  V30 50253 O 233.749 -2.7935 7.20758 0
M  V30 50254 C 234.689 -1.7299 7.50419 0
M  V30 50255 C 233.959 -0.406376 7.57911 0
M  V30 50256 O 233.749 0.0897726 6.21935 0
M  V30 50257 C 232.559 -0.447224 8.1878 0
M  V30 50258 O 232.169 0.825065 8.71101 0
M  V30 50259 C 231.679 -0.783801 6.99623 0
M  V30 50260 C 232.389 -0.0619192 5.85967 0
M  V30 50261 N 232.339 -0.7859 4.56281 0
M  V30 50262 C 232.419 -2.14308 4.31736 0
M  V30 50263 N 232.339 -2.46106 3.05116 0
M  V30 50264 C 232.199 -1.23422 2.4014 0
M  V30 50265 C 232.069 -0.938381 1.02409 0
M  V30 50266 N 231.949 0.444647 0.805413 0
M  V30 50267 C 231.949 1.40829 1.79435 0
M  V30 50268 N 231.819 2.67213 1.38558 0
M  V30 50269 N 232.079 1.12947 3.09005 0
M  V30 50270 C 232.199 -0.204887 3.32369 0
M  V30 50271 H 235.178 -1.93423 8.4679 0
M  V30 50272 H 235.45 -1.68181 6.71046 0
M  V30 50273 H 234.582 0.289041 8.15388 0
M  V30 50274 P 230.619 1.17771 8.83182 0
M  V30 50275 O 230.399 2.07206 9.98732 0
M  V30 50276 O 229.829 -0.0743816 8.81969 0
M  V30 50277 O 230.369 1.97652 7.47304 0
M  V30 50278 C 231.309 3.01133 7.08783 0
M  V30 50279 C 230.579 4.12613 6.37049 0
M  V30 50280 O 230.369 3.72827 4.97879 0
M  V30 50281 C 229.179 4.45085 6.88694 0
M  V30 50282 O 228.789 5.7877 6.5624 0
M  V30 50283 C 228.299 3.47817 6.12078 0
M  V30 50284 C 229.009 3.39414 4.77697 0
M  V30 50285 N 228.959 2.04615 4.15333 0
M  V30 50286 C 229.039 0.803897 4.75249 0
M  V30 50287 N 228.959 -0.197615 3.91502 0
M  V30 50288 C 228.819 0.413002 2.66823 0
M  V30 50289 C 228.689 -0.157221 1.38007 0
M  V30 50290 N 228.569 0.833136 0.390236 0
M  V30 50291 C 228.569 2.19402 0.623885 0
M  V30 50292 N 228.439 2.97622 -0.449677 0
M  V30 50293 N 228.699 2.73005 1.83601 0
M  V30 50294 C 228.819 1.78786 2.80935 0
M  V30 50295 H 231.798 3.41248 7.98759 0
M  V30 50296 H 232.07 2.5837 6.41742 0
M  V30 50297 H 231.202 5.02657 6.42673 0
M  V30 50298 P 227.239 6.144 6.45285 0
M  V30 50299 O 227.019 7.54673 6.86199 0
M  V30 50300 O 226.449 5.12391 7.179 0
M  V30 50301 O 226.989 5.99158 4.88404 0
M  V30 50302 C 227.929 6.60234 3.96415 0
M  V30 50303 C 227.199 7.08259 2.72856 0
M  V30 50304 O 226.989 5.9427 1.83651 0
M  V30 50305 C 225.799 7.64886 2.9555 0
M  V30 50306 O 225.409 8.53963 1.90717 0
M  V30 50307 C 224.919 6.4116 2.90739 0
M  V30 50308 C 225.629 5.55375 1.86963 0
M  V30 50309 N 225.579 4.09448 2.16152 0
M  V30 50310 C 225.659 3.46824 3.37593 0
M  V30 50311 N 225.589 2.17422 3.29777 0
M  V30 50312 C 225.439 1.93065 1.94427 0
M  V30 50313 C 225.309 0.738053 1.20141 0
M  V30 50314 N 225.299 -0.474256 1.74676 0
M  V30 50315 N 225.189 0.850049 -0.13045 0
M  V30 50316 C 225.199 2.06169 -0.676992 0
M  V30 50317 N 225.319 3.23842 -0.101312 0
M  V30 50318 C 225.439 3.09402 1.23122 0
M  V30 50319 H 228.418 7.45574 4.45629 0
M  V30 50320 H 228.69 5.85864 3.679 0
M  V30 50321 H 227.822 7.84412 2.24479 0
M  V30 50322 H 225.167 5.73457 0.888562 0
M  V30 50323 H 224.887 5.90877 3.88583 0
M  V30 50324 H 223.896 6.6596 2.58858 0
M  V30 50325 H 225.73 8.16339 3.92049 0
M  V30 50326 H 225.771 4.00505 4.3174 0
M  V30 50327 H 225.39 -0.581337 2.76658 0
M  V30 50328 H 225.201 -1.30811 1.14888 0
M  V30 50329 H 225.093 2.08295 -1.75542 0
M  V30 50330 P 223.859 8.7635 1.60911 0
M  V30 50331 O 223.639 10.1388 1.11561 0
M  V30 50332 O 223.069 8.36503 2.79617 0
M  V30 50333 O 223.609 7.71806 0.42951 0
M  V30 50334 C 224.549 7.67148 -0.673689 0
M  V30 50335 C 223.819 7.33374 -1.95559 0
M  V30 50336 O 223.609 5.88721 -2.00726 0
M  V30 50337 C 222.419 7.92526 -2.10483 0
M  V30 50338 O 222.029 8.02971 -3.47653 0
M  V30 50339 C 221.539 6.89602 -1.41652 0
M  V30 50340 C 222.249 5.59201 -1.75185 0
M  V30 50341 N 222.199 4.58235 -0.662552 0
M  V30 50342 H 225.038 8.65116 -0.777161 0
M  V30 50343 H 225.31 6.90173 -0.474152 0
M  V30 50344 H 224.442 7.66548 -2.79458 0
M  V30 50345 P 220.479 8.03563 -3.84925 0
M  V30 50346 O 220.259 8.85821 -5.0569 0
M  V30 50347 O 219.689 8.41101 -2.65469 0
M  V30 50348 O 220.229 6.4965 -4.18908 0
M  V30 50349 C 221.169 5.80886 -5.05289 0
M  V30 50350 C 220.439 4.78366 -5.89277 0
M  V30 50351 O 220.229 3.58302 -5.08433 0
M  V30 50352 C 219.039 5.16748 -6.36559 0
M  V30 50353 O 218.649 4.45271 -7.53232 0
M  V30 50354 C 218.159 4.74572 -5.19863 0
M  V30 50355 C 218.869 3.49373 -4.70338 0
M  V30 50356 N 218.819 3.31704 -3.22876 0
M  V30 50357 C 218.669 2.03326 -2.74871 0
M  V30 50358 O 218.579 1.06486 -3.48076 0
M  V30 50359 N 218.629 1.91838 -1.37456 0
M  V30 50360 C 218.719 2.94295 -0.462035 0
M  V30 50361 C 218.869 4.25064 -1.05249 0
M  V30 50362 C 218.919 4.40214 -2.39192 0
M  V30 50363 H 221.66 6.54063 -5.71245 0
M  V30 50364 H 221.929 5.30339 -4.43905 0
M  V30 50365 H 221.062 4.55889 -6.76652 0
M  V30 50366 H 218.407 2.6167 -5.17842 0
M  V30 50367 H 218.128 5.52155 -4.41878 0
M  V30 50368 H 217.136 4.51918 -5.53297 0
M  V30 50369 H 218.97 6.25055 -6.55162 0
M  V30 50370 H 219.041 5.39798 -2.81523 0
M  V30 50371 P 217.099 4.23843 -7.83734 0
M  V30 50372 O 216.879 4.19407 -9.29784 0
M  V30 50373 O 216.309 5.24426 -7.09156 0
M  V30 50374 O 216.849 2.7935 -7.20758 0
M  V30 50375 C 217.789 1.7299 -7.50419 0
M  V30 50376 C 217.059 0.406376 -7.57911 0
M  V30 50377 O 216.849 -0.0897726 -6.21935 0
M  V30 50378 C 215.659 0.447224 -8.1878 0
M  V30 50379 O 215.269 -0.825065 -8.71101 0
M  V30 50380 C 214.779 0.783801 -6.99623 0
M  V30 50381 C 215.489 0.0619192 -5.85967 0
M  V30 50382 N 215.439 0.7859 -4.56281 0
M  V30 50383 H 218.278 1.93423 -8.4679 0
M  V30 50384 H 218.55 1.68181 -6.71046 0
M  V30 50385 H 217.682 -0.289041 -8.15388 0
M  V30 50386 P 213.719 -1.17771 -8.83182 0
M  V30 50387 O 213.499 -2.07206 -9.98732 0
M  V30 50388 O 212.929 0.0743816 -8.81969 0
M  V30 50389 O 213.469 -1.97652 -7.47304 0
M  V30 50390 C 214.409 -3.01055 -7.08599 0
M  V30 50391 C 213.679 -4.12613 -6.37049 0
M  V30 50392 O 213.469 -3.72827 -4.97879 0
M  V30 50393 C 212.279 -4.45719 -6.88164 0
M  V30 50394 O 211.889 -5.7877 -6.5624 0
M  V30 50395 C 211.399 -3.47768 -6.11991 0
M  V30 50396 C 212.109 -3.39356 -4.77615 0
M  V30 50397 N 212.059 -2.04571 -4.15244 0
M  V30 50398 C 211.909 -1.98587 -2.78314 0
M  V30 50399 O 211.819 -2.98134 -2.08835 0
M  V30 50400 N 211.869 -0.714467 -2.24925 0
M  V30 50401 C 211.959 0.470001 -2.94169 0
M  V30 50402 O 211.909 1.55587 -2.35195 0
M  V30 50403 C 212.109 0.312541 -4.36783 0
M  V30 50404 C 212.219 1.57711 -5.16352 0
M  V30 50405 C 212.159 -0.914512 -4.92583 0
M  V30 50406 H 214.9 -3.41169 -7.98575 0
M  V30 50407 H 215.169 -2.58295 -6.41556 0
M  V30 50408 H 214.302 -5.02657 -6.42673 0
M  V30 50409 H 211.647 -4.11637 -4.08885 0
M  V30 50410 H 211.368 -2.49626 -6.61679 0
M  V30 50411 H 210.376 -3.86566 -6.00778 0
M  V30 50412 H 212.21 -4.29943 -7.96918 0
M  V30 50413 H 212.281 -1.00937 -6.00374 0
M  V30 50414 H 211.251 1.80153 -5.63503 0
M  V30 50415 H 212.988 1.4566 -5.94104 0
M  V30 50416 H 212.5 2.40664 -4.49645 0
M  V30 50417 H 211.764 -0.647622 -1.25697 0
M  V30 50418 P 210.339 -6.144 -6.45285 0
M  V30 50419 O 210.119 -7.54673 -6.86199 0
M  V30 50420 O 209.549 -5.12391 -7.179 0
M  V30 50421 O 210.089 -5.99158 -4.88404 0
M  V30 50422 C 211.029 -6.60234 -3.96415 0
M  V30 50423 C 210.299 -7.08259 -2.72856 0
M  V30 50424 O 210.089 -5.9427 -1.83651 0
M  V30 50425 C 208.899 -7.64886 -2.9555 0
M  V30 50426 O 208.509 -8.53963 -1.90717 0
M  V30 50427 C 208.019 -6.4116 -2.90739 0
M  V30 50428 C 208.729 -5.55375 -1.86963 0
M  V30 50429 N 208.679 -4.09664 -2.15742 0
M  V30 50430 H 211.518 -7.45574 -4.45629 0
M  V30 50431 H 211.79 -5.86232 -3.67314 0
M  V30 50432 H 210.922 -7.84412 -2.24479 0
M  V30 50433 P 206.959 -8.7635 -1.60911 0
M  V30 50434 O 206.739 -10.1388 -1.11561 0
M  V30 50435 O 206.169 -8.36503 -2.79617 0
M  V30 50436 O 206.709 -7.71906 -0.429565 0
M  V30 50437 C 207.649 -7.67148 0.673689 0
M  V30 50438 C 206.919 -7.33666 1.94851 0
M  V30 50439 O 206.709 -5.88816 2.00759 0
M  V30 50440 C 205.519 -7.92526 2.10483 0
M  V30 50441 O 205.129 -8.03063 3.47693 0
M  V30 50442 C 204.639 -6.89602 1.41652 0
M  V30 50443 C 205.349 -5.59201 1.75185 0
M  V30 50444 N 205.299 -4.58235 0.662552 0
M  V30 50445 C 205.149 -3.24451 1.01643 0
M  V30 50446 O 205.059 -2.94958 2.21722 0
M  V30 50447 N 205.099 -2.30408 -0.165238 0
M  V30 50448 C 205.199 -2.66048 -1.25118 0
M  V30 50449 N 205.149 -1.70787 -2.16813 0
M  V30 50450 C 205.349 -4.02732 -1.64413 0
M  V30 50451 C 205.399 -4.9488 -0.63991 0
M  V30 50452 H 208.139 -8.65017 0.777072 0
M  V30 50453 H 208.409 -6.90173 0.474152 0
M  V30 50454 H 207.542 -7.66642 2.79492 0
M  V30 50455 H 204.887 -5.16254 2.65229 0
M  V30 50456 H 204.607 -7.06532 0.329431 0
M  V30 50457 H 203.616 -6.91023 1.82047 0
M  V30 50458 H 205.45 -8.90873 1.62657 0
M  V30 50459 H 205.522 -6.00104 -0.892197 0
M  V30 50460 H 205.42 -4.31733 -2.69229 0
M  V30 50461 H 205.032 -0.724835 -1.8844 0
M  V30 50462 H 205.228 -1.94716 -3.16734 0
M  V30 50463 P 203.579 -8.03563 3.84925 0
M  V30 50464 O 203.359 -8.85821 5.0569 0
M  V30 50465 O 202.789 -8.41101 2.65469 0
M  V30 50466 O 203.329 -6.4965 4.18908 0
M  V30 50467 C 204.269 -5.81037 5.05421 0
M  V30 50468 C 203.539 -4.78366 5.89277 0
M  V30 50469 O 203.329 -3.58302 5.08433 0
M  V30 50470 C 202.139 -5.17448 6.36119 0
M  V30 50471 O 201.749 -4.45271 7.53232 0
M  V30 50472 C 201.259 -4.74639 5.19936 0
M  V30 50473 C 201.969 -3.49432 4.70418 0
M  V30 50474 N 201.919 -3.31776 3.22945 0
M  V30 50475 H 204.758 -6.54213 5.71376 0
M  V30 50476 H 205.03 -5.30492 4.44033 0
M  V30 50477 H 204.162 -4.55889 6.76652 0
M  V30 50478 P 200.199 -4.23843 7.83734 0
M  V30 50479 O 199.979 -4.19407 9.29784 0
M  V30 50480 O 199.409 -5.24426 7.09156 0
M  V30 50481 O 199.949 -2.7935 7.20758 0
M  V30 50482 C 200.889 -1.72945 7.50224 0
M  V30 50483 C 200.159 -0.406376 7.57911 0
M  V30 50484 O 199.949 0.0897726 6.21935 0
M  V30 50485 C 198.759 -0.438983 8.18724 0
M  V30 50486 O 198.369 0.825065 8.71101 0
M  V30 50487 C 197.879 -0.783689 6.99524 0
M  V30 50488 C 198.589 -0.0619086 5.85867 0
M  V30 50489 N 198.539 -0.78573 4.56183 0
M  V30 50490 C 198.389 -0.0292889 3.41887 0
M  V30 50491 O 198.299 1.18445 3.4419 0
M  V30 50492 N 198.349 -0.744061 2.23964 0
M  V30 50493 C 198.439 -2.10932 2.10362 0
M  V30 50494 O 198.389 -2.64117 0.98825 0
M  V30 50495 C 198.589 -2.8202 3.34994 0
M  V30 50496 C 198.699 -4.31095 3.25037 0
M  V30 50497 C 198.639 -2.15547 4.52261 0
M  V30 50498 H 201.38 -1.93379 8.46595 0
M  V30 50499 H 201.649 -1.68132 6.70852 0
M  V30 50500 H 200.782 0.289041 8.15388 0
M  V30 50501 H 198.127 0.926847 5.72749 0
M  V30 50502 H 197.848 -1.86973 6.82036 0
M  V30 50503 H 196.856 -0.403896 7.13257 0
M  V30 50504 H 198.69 -1.20585 8.97435 0
M  V30 50505 H 198.761 -2.71231 5.45042 0
M  V30 50506 H 197.731 -4.76966 3.49992 0
M  V30 50507 H 199.468 -4.67047 3.95024 0
M  V30 50508 H 198.98 -4.58996 2.22312 0
M  V30 50509 H 198.244 -0.214893 1.39758 0
M  V30 50510 P 196.819 1.17771 8.83182 0
M  V30 50511 O 196.599 2.07206 9.98732 0
M  V30 50512 O 196.029 -0.0743816 8.81969 0
M  V30 50513 O 196.569 1.97652 7.47304 0
M  V30 50514 C 197.509 3.01133 7.08783 0
M  V30 50515 C 196.779 4.12613 6.37049 0
M  V30 50516 O 196.569 3.72827 4.97879 0
M  V30 50517 C 195.379 4.45085 6.88694 0
M  V30 50518 O 194.989 5.7877 6.5624 0
M  V30 50519 C 194.499 3.47817 6.12078 0
M  V30 50520 C 195.209 3.39414 4.77697 0
M  V30 50521 N 195.159 2.04199 4.15538 0
M  V30 50522 H 197.998 3.41248 7.98759 0
M  V30 50523 H 198.27 2.57728 6.42 0
M  V30 50524 H 197.402 5.02657 6.42673 0
M  V30 50525 H 194.747 4.11708 4.08956 0
M  V30 50526 H 194.467 2.49626 6.61679 0
M  V30 50527 H 193.476 3.8662 6.00862 0
M  V30 50528 H 195.31 4.29991 7.97006 0
M  V30 50529 P 193.439 6.144 6.45285 0
M  V30 50530 O 193.219 7.54673 6.86199 0
M  V30 50531 O 192.649 5.12391 7.179 0
M  V30 50532 O 193.189 5.99158 4.88404 0
M  V30 50533 C 194.129 6.60234 3.96415 0
M  V30 50534 C 193.399 7.08259 2.72856 0
M  V30 50535 O 193.189 5.9427 1.83651 0
M  V30 50536 C 191.999 7.64886 2.9555 0
M  V30 50537 O 191.609 8.53963 1.90717 0
M  V30 50538 C 191.119 6.4116 2.90739 0
M  V30 50539 C 191.829 5.55375 1.86963 0
M  V30 50540 N 191.779 4.09664 2.15742 0
M  V30 50541 H 194.618 7.45574 4.45629 0
M  V30 50542 H 194.89 5.86232 3.67314 0
M  V30 50543 H 194.022 7.84412 2.24479 0
M  V30 50544 P 190.059 8.7635 1.60911 0
M  V30 50545 O 189.839 10.1388 1.11561 0
M  V30 50546 O 189.269 8.36503 2.79617 0
M  V30 50547 O 189.809 7.71806 0.42951 0
M  V30 50548 C 190.749 7.67148 -0.673689 0
M  V30 50549 C 190.019 7.33374 -1.95559 0
M  V30 50550 O 189.809 5.88721 -2.00726 0
M  V30 50551 C 188.619 7.92526 -2.10483 0
M  V30 50552 O 188.229 8.02971 -3.47653 0
M  V30 50553 C 187.739 6.89602 -1.41652 0
M  V30 50554 C 188.449 5.59201 -1.75185 0
M  V30 50555 N 188.399 4.58235 -0.662552 0
M  V30 50556 H 191.238 8.65116 -0.777161 0
M  V30 50557 H 191.51 6.90173 -0.474152 0
M  V30 50558 H 190.642 7.66548 -2.79458 0
M  V30 50559 P 186.679 8.03563 -3.84925 0
M  V30 50560 O 186.459 8.85821 -5.0569 0
M  V30 50561 O 185.889 8.41101 -2.65469 0
M  V30 50562 O 186.429 6.4965 -4.18908 0
M  V30 50563 C 187.369 5.81037 -5.05421 0
M  V30 50564 C 186.639 4.78366 -5.89277 0
M  V30 50565 O 186.429 3.58302 -5.08433 0
M  V30 50566 C 185.239 5.17448 -6.36119 0
M  V30 50567 O 184.849 4.45271 -7.53232 0
M  V30 50568 C 184.359 4.74639 -5.19936 0
M  V30 50569 C 185.069 3.49432 -4.70418 0
M  V30 50570 N 185.019 3.32099 -3.22613 0
M  V30 50571 C 185.099 4.28245 -2.25527 0
M  V30 50572 N 185.029 3.80823 -1.04874 0
M  V30 50573 C 184.879 2.44571 -1.23535 0
M  V30 50574 C 184.749 1.37068 -0.330675 0
M  V30 50575 N 184.739 1.51472 0.990824 0
M  V30 50576 N 184.629 0.138614 -0.848756 0
M  V30 50577 C 184.639 -0.00675923 -2.16999 0
M  V30 50578 N 184.759 0.904372 -3.11122 0
M  V30 50579 C 184.879 2.12707 -2.56212 0
M  V30 50580 H 187.858 6.54213 -5.71376 0
M  V30 50581 H 188.13 5.30936 -4.43503 0
M  V30 50582 H 187.262 4.55889 -6.76652 0
M  V30 50583 H 184.607 2.61715 -5.17932 0
M  V30 50584 H 184.327 5.52155 -4.41878 0
M  V30 50585 H 183.336 4.51981 -5.53374 0
M  V30 50586 H 185.17 6.25124 -6.55234 0
M  V30 50587 H 185.211 5.34372 -2.47488 0
M  V30 50588 H 184.83 2.45153 1.4078 0
M  V30 50589 H 184.641 0.688422 1.59911 0
M  V30 50590 H 184.533 -1.02584 -2.52346 0
M  V30 50591 P 183.299 4.23843 -7.83734 0
M  V30 50592 O 183.079 4.19407 -9.29784 0
M  V30 50593 O 182.509 5.24426 -7.09156 0
M  V30 50594 O 183.049 2.79386 -7.20852 0
M  V30 50595 C 183.989 1.7299 -7.50419 0
M  V30 50596 C 183.259 0.41401 -7.5797 0
M  V30 50597 O 183.049 -0.089787 -6.22035 0
M  V30 50598 C 181.859 0.447224 -8.1878 0
M  V30 50599 O 181.469 -0.825159 -8.71201 0
M  V30 50600 C 180.979 0.783801 -6.99623 0
M  V30 50601 C 181.689 0.0619192 -5.85967 0
M  V30 50602 N 181.639 0.7859 -4.56281 0
M  V30 50603 C 181.489 0.0359258 -3.39981 0
M  V30 50604 O 181.399 -1.19723 -3.49038 0
M  V30 50605 N 181.439 0.869151 -2.14025 0
M  V30 50606 C 181.539 2.01207 -2.14363 0
M  V30 50607 N 181.489 2.58978 -0.954287 0
M  V30 50608 C 181.689 2.80817 -3.32215 0
M  V30 50609 C 181.739 2.13785 -4.50884 0
M  V30 50610 H 184.479 1.93401 -8.46693 0
M  V30 50611 H 184.749 1.68181 -6.71046 0
M  V30 50612 H 183.882 -0.289076 -8.15488 0
M  V30 50613 H 181.227 -0.927166 -5.72947 0
M  V30 50614 H 180.947 1.87 -6.82132 0
M  V30 50615 H 179.956 0.404009 -7.13457 0
M  V30 50616 H 181.79 1.20599 -8.97534 0
M  V30 50617 H 181.862 2.70295 -5.43162 0
M  V30 50618 H 181.76 3.89465 -3.27406 0
M  V30 50619 H 181.372 2.01616 -0.107046 0
M  V30 50620 H 181.568 3.61403 -0.873101 0
M  V30 50621 P 179.919 -1.17771 -8.83182 0
M  V30 50622 O 179.699 -2.07206 -9.98732 0
M  V30 50623 O 179.129 0.0743816 -8.81969 0
M  V30 50624 O 179.669 -1.97652 -7.47304 0
M  V30 50625 C 180.609 -3.01133 -7.08783 0
M  V30 50626 C 179.879 -4.12613 -6.37049 0
M  V30 50627 O 179.669 -3.72827 -4.97879 0
M  V30 50628 C 178.479 -4.45085 -6.88694 0
M  V30 50629 O 178.089 -5.7877 -6.5624 0
M  V30 50630 C 177.599 -3.47817 -6.12078 0
M  V30 50631 C 178.309 -3.39414 -4.77697 0
M  V30 50632 N 178.259 -2.04199 -4.15538 0
M  V30 50633 C 178.339 -0.821545 -4.76977 0
M  V30 50634 N 178.269 0.1794 -3.94592 0
M  V30 50635 C 178.119 -0.419121 -2.70776 0
M  V30 50636 C 177.989 0.109072 -1.40577 0
M  V30 50637 N 177.979 1.4104 -1.1344 0
M  V30 50638 N 177.869 -0.764381 -0.39411 0
M  V30 50639 C 177.879 -2.06587 -0.664135 0
M  V30 50640 N 177.999 -2.67948 -1.82153 0
M  V30 50641 C 178.119 -1.77942 -2.8147 0
M  V30 50642 H 181.098 -3.41248 -7.98759 0
M  V30 50643 H 181.37 -2.57728 -6.42 0
M  V30 50644 H 180.502 -5.02657 -6.42673 0
M  V30 50645 H 177.847 -4.11708 -4.08956 0
M  V30 50646 H 177.567 -2.49626 -6.61679 0
M  V30 50647 H 176.576 -3.8662 -6.00862 0
M  V30 50648 H 178.41 -4.29991 -7.97006 0
M  V30 50649 H 178.451 -0.702451 -5.84696 0
M  V30 50650 H 178.07 2.09647 -1.89651 0
M  V30 50651 H 177.881 1.73358 -0.160575 0
M  V30 50652 H 177.773 -2.71695 0.195838 0
M  V30 50653 P 176.539 -6.144 -6.45285 0
M  V30 50654 O 176.319 -7.54673 -6.86199 0
M  V30 50655 O 175.749 -5.12391 -7.179 0
M  V30 50656 O 176.289 -5.99158 -4.88404 0
M  V30 50657 C 177.229 -6.60234 -3.96415 0
M  V30 50658 C 176.499 -7.08259 -2.72856 0
M  V30 50659 O 176.289 -5.9427 -1.83651 0
M  V30 50660 C 175.099 -7.64886 -2.9555 0
M  V30 50661 O 174.709 -8.53963 -1.90717 0
M  V30 50662 C 174.219 -6.4116 -2.90739 0
M  V30 50663 C 174.929 -5.55375 -1.86963 0
M  V30 50664 N 174.879 -4.09664 -2.15742 0
M  V30 50665 H 177.718 -7.45574 -4.45629 0
M  V30 50666 H 177.99 -5.86232 -3.67314 0
M  V30 50667 H 177.122 -7.84412 -2.24479 0
M  V30 50668 P 173.159 -8.7635 -1.60911 0
M  V30 50669 O 172.939 -10.1388 -1.11561 0
M  V30 50670 O 172.369 -8.36503 -2.79617 0
M  V30 50671 O 172.909 -7.71806 -0.42951 0
M  V30 50672 C 173.849 -7.66948 0.673514 0
M  V30 50673 C 173.119 -7.33374 1.95559 0
M  V30 50674 O 172.909 -5.88721 2.00726 0
M  V30 50675 C 171.719 -7.92218 2.1125 0
M  V30 50676 O 171.329 -8.02971 3.47653 0
M  V30 50677 C 170.839 -6.89504 1.41631 0
M  V30 50678 C 171.549 -5.59106 1.75155 0
M  V30 50679 N 171.499 -4.58136 0.662409 0
M  V30 50680 C 171.349 -3.26059 1.02863 0
M  V30 50681 O 171.259 -2.90743 2.19009 0
M  V30 50682 N 171.309 -2.35995 -0.0155585 0
M  V30 50683 C 171.399 -2.65248 -1.35603 0
M  V30 50684 O 171.349 -1.75605 -2.20651 0
M  V30 50685 C 171.549 -4.05747 -1.64698 0
M  V30 50686 C 171.659 -4.42345 -3.09553 0
M  V30 50687 C 171.599 -4.96734 -0.652411 0
M  V30 50688 H 174.34 -8.64917 0.776982 0
M  V30 50689 H 174.609 -6.89974 0.474015 0
M  V30 50690 H 173.742 -7.66548 2.79458 0
M  V30 50691 H 171.087 -5.16076 2.65138 0
M  V30 50692 H 170.808 -7.06433 0.329384 0
M  V30 50693 H 169.816 -6.90829 1.81996 0
M  V30 50694 H 171.65 -8.90774 1.62639 0
M  V30 50695 H 171.721 -6.02181 -0.895285 0
M  V30 50696 H 170.691 -4.80252 -3.45468 0
M  V30 50697 H 172.428 -5.20015 -3.22119 0
M  V30 50698 H 171.94 -3.53269 -3.67833 0
M  V30 50699 H 171.204 -1.39558 0.227499 0
M  V30 50700 P 169.779 -8.03563 3.84925 0
M  V30 50701 O 169.559 -8.85821 5.0569 0
M  V30 50702 O 168.989 -8.41101 2.65469 0
M  V30 50703 O 169.529 -6.4965 4.18908 0
M  V30 50704 C 170.469 -5.81037 5.05421 0
M  V30 50705 C 169.739 -4.78366 5.89277 0
M  V30 50706 O 169.529 -3.58302 5.08433 0
M  V30 50707 C 168.339 -5.17448 6.36119 0
M  V30 50708 O 167.949 -4.45271 7.53232 0
M  V30 50709 C 167.459 -4.74639 5.19936 0
M  V30 50710 C 168.169 -3.49432 4.70418 0
M  V30 50711 N 168.119 -3.31776 3.22945 0
M  V30 50712 H 170.958 -6.54213 5.71376 0
M  V30 50713 H 171.23 -5.30492 4.44033 0
M  V30 50714 H 170.362 -4.55889 6.76652 0
M  V30 50715 P 166.399 -4.23843 7.83734 0
M  V30 50716 O 166.179 -4.19407 9.29784 0
M  V30 50717 O 165.609 -5.24426 7.09156 0
M  V30 50718 O 166.149 -2.7935 7.20758 0
M  V30 50719 C 167.089 -1.7299 7.50419 0
M  V30 50720 C 166.359 -0.406376 7.57911 0
M  V30 50721 O 166.149 0.0897726 6.21935 0
M  V30 50722 C 164.959 -0.447224 8.1878 0
M  V30 50723 O 164.569 0.825065 8.71101 0
M  V30 50724 C 164.079 -0.783801 6.99623 0
M  V30 50725 C 164.789 -0.0619192 5.85967 0
M  V30 50726 N 164.739 -0.7859 4.56281 0
M  V30 50727 H 167.578 -1.93423 8.4679 0
M  V30 50728 H 167.85 -1.68181 6.71046 0
M  V30 50729 H 166.982 0.289041 8.15388 0
M  V30 50730 P 163.019 1.17771 8.83182 0
M  V30 50731 O 162.799 2.07206 9.98732 0
M  V30 50732 O 162.229 -0.0743816 8.81969 0
M  V30 50733 O 162.769 1.97652 7.47304 0
M  V30 50734 C 163.709 3.01133 7.08783 0
M  V30 50735 C 162.979 4.12613 6.37049 0
M  V30 50736 O 162.769 3.72827 4.97879 0
M  V30 50737 C 161.579 4.45085 6.88694 0
M  V30 50738 O 161.189 5.7877 6.5624 0
M  V30 50739 C 160.699 3.47817 6.12078 0
M  V30 50740 C 161.409 3.39414 4.77697 0
M  V30 50741 N 161.359 2.04615 4.15333 0
M  V30 50742 H 164.198 3.41248 7.98759 0
M  V30 50743 H 164.47 2.5837 6.41742 0
M  V30 50744 H 163.602 5.02657 6.42673 0
M  V30 50745 P 159.639 6.144 6.45285 0
M  V30 50746 O 159.419 7.54673 6.86199 0
M  V30 50747 O 158.849 5.12391 7.179 0
M  V30 50748 O 159.389 5.99158 4.88404 0
M  V30 50749 C 160.329 6.60234 3.96415 0
M  V30 50750 C 159.599 7.08259 2.72856 0
M  V30 50751 O 159.389 5.9427 1.83651 0
M  V30 50752 C 158.199 7.64886 2.9555 0
M  V30 50753 O 157.809 8.53963 1.90717 0
M  V30 50754 C 157.319 6.4116 2.90739 0
M  V30 50755 C 158.029 5.55375 1.86963 0
M  V30 50756 N 157.979 4.09664 2.15742 0
M  V30 50757 H 160.818 7.45574 4.45629 0
M  V30 50758 H 161.09 5.86232 3.67314 0
M  V30 50759 H 160.222 7.84412 2.24479 0
M  V30 50760 P 156.259 8.7635 1.60911 0
M  V30 50761 O 156.039 10.1388 1.11561 0
M  V30 50762 O 155.469 8.36503 2.79617 0
M  V30 50763 O 156.009 7.71806 0.42951 0
M  V30 50764 C 156.949 7.67148 -0.673689 0
M  V30 50765 C 156.219 7.33374 -1.95559 0
M  V30 50766 O 156.009 5.88721 -2.00726 0
M  V30 50767 C 154.819 7.92526 -2.10483 0
M  V30 50768 O 154.429 8.02971 -3.47653 0
M  V30 50769 C 153.939 6.89602 -1.41652 0
M  V30 50770 C 154.649 5.59201 -1.75185 0
M  V30 50771 N 154.599 4.58235 -0.662552 0
M  V30 50772 C 154.679 4.7683 0.704049 0
M  V30 50773 N 154.599 3.66233 1.39775 0
M  V30 50774 C 154.459 2.66526 0.431739 0
M  V30 50775 C 154.329 1.26394 0.575992 0
M  V30 50776 N 154.209 0.62859 -0.67177 0
M  V30 50777 C 154.209 1.27134 -1.89385 0
M  V30 50778 N 154.079 0.492035 -2.96951 0
M  V30 50779 N 154.339 2.58978 -2.02907 0
M  V30 50780 C 154.459 3.22433 -0.832218 0
M  V30 50781 H 157.438 8.65116 -0.777161 0
M  V30 50782 H 157.71 6.90173 -0.474152 0
M  V30 50783 H 156.842 7.66548 -2.79458 0
M  V30 50784 P 152.879 8.03563 -3.84925 0
M  V30 50785 O 152.659 8.85821 -5.0569 0
M  V30 50786 O 152.089 8.41101 -2.65469 0
M  V30 50787 O 152.629 6.4965 -4.18908 0
M  V30 50788 C 153.569 5.81037 -5.05421 0
M  V30 50789 C 152.839 4.78366 -5.89277 0
M  V30 50790 O 152.629 3.58302 -5.08433 0
M  V30 50791 C 151.439 5.17448 -6.36119 0
M  V30 50792 O 151.049 4.45271 -7.53232 0
M  V30 50793 C 150.559 4.74639 -5.19936 0
M  V30 50794 C 151.269 3.49432 -4.70418 0
M  V30 50795 N 151.219 3.31776 -3.22945 0
M  V30 50796 H 154.058 6.54213 -5.71376 0
M  V30 50797 H 154.33 5.30492 -4.44033 0
M  V30 50798 H 153.462 4.55889 -6.76652 0
M  V30 50799 P 149.499 4.23843 -7.83734 0
M  V30 50800 O 149.279 4.19407 -9.29784 0
M  V30 50801 O 148.709 5.24426 -7.09156 0
M  V30 50802 O 149.249 2.7935 -7.20758 0
M  V30 50803 C 150.189 1.7299 -7.50419 0
M  V30 50804 C 149.459 0.406376 -7.57911 0
M  V30 50805 O 149.249 -0.0897726 -6.21935 0
M  V30 50806 C 148.059 0.447224 -8.1878 0
M  V30 50807 O 147.669 -0.825065 -8.71101 0
M  V30 50808 C 147.179 0.783801 -6.99623 0
M  V30 50809 C 147.889 0.0619192 -5.85967 0
M  V30 50810 N 147.839 0.7859 -4.56281 0
M  V30 50811 H 150.678 1.93423 -8.4679 0
M  V30 50812 H 150.95 1.68181 -6.71046 0
M  V30 50813 H 150.082 -0.289041 -8.15388 0
M  V30 50814 P 146.119 -1.17771 -8.83182 0
M  V30 50815 O 145.899 -2.07206 -9.98732 0
M  V30 50816 O 145.329 0.0743816 -8.81969 0
M  V30 50817 O 145.869 -1.97652 -7.47304 0
M  V30 50818 C 146.809 -3.01133 -7.08783 0
M  V30 50819 C 146.079 -4.12613 -6.37049 0
M  V30 50820 O 145.869 -3.72827 -4.97879 0
M  V30 50821 C 144.679 -4.45085 -6.88694 0
M  V30 50822 O 144.289 -5.7877 -6.5624 0
M  V30 50823 C 143.799 -3.47817 -6.12078 0
M  V30 50824 C 144.509 -3.39414 -4.77697 0
M  V30 50825 N 144.459 -2.04615 -4.15333 0
M  V30 50826 H 147.298 -3.41248 -7.98759 0
M  V30 50827 H 147.57 -2.5837 -6.41742 0
M  V30 50828 H 146.702 -5.02657 -6.42673 0
M  V30 50829 P 142.739 -6.144 -6.45285 0
M  V30 50830 O 142.519 -7.54673 -6.86199 0
M  V30 50831 O 141.949 -5.12391 -7.179 0
M  V30 50832 O 142.489 -5.99158 -4.88404 0
M  V30 50833 C 143.429 -6.60062 -3.96313 0
M  V30 50834 C 142.699 -7.08259 -2.72856 0
M  V30 50835 O 142.489 -5.9427 -1.83651 0
M  V30 50836 C 141.299 -7.65087 -2.94749 0
M  V30 50837 O 140.909 -8.53963 -1.90717 0
M  V30 50838 C 140.419 -6.41069 -2.90698 0
M  V30 50839 C 141.129 -5.5528 -1.86931 0
M  V30 50840 N 141.079 -4.09575 -2.15696 0
M  V30 50841 C 140.929 -3.24249 -1.08435 0
M  V30 50842 O 140.839 -3.63946 0.0628747 0
M  V30 50843 N 140.889 -1.90009 -1.39973 0
M  V30 50844 C 140.979 -1.34884 -2.65614 0
M  V30 50845 C 141.129 -2.3145 -3.71736 0
M  V30 50846 C 141.179 -3.63518 -3.44754 0
M  V30 50847 H 143.92 -7.45402 -4.45526 0
M  V30 50848 H 144.189 -5.86062 -3.67208 0
M  V30 50849 H 143.322 -7.84412 -2.24479 0
M  V30 50850 H 140.667 -5.73358 -0.888409 0
M  V30 50851 H 140.388 -5.90877 -3.88583 0
M  V30 50852 H 139.396 -6.65867 -2.58821 0
M  V30 50853 H 141.23 -8.16248 -3.92006 0
M  V30 50854 H 141.301 -4.34551 -4.26383 0
M  V30 50855 P 139.359 -8.7635 -1.60911 0
M  V30 50856 O 139.139 -10.1388 -1.11561 0
M  V30 50857 O 138.569 -8.36503 -2.79617 0
M  V30 50858 O 139.109 -7.71806 -0.42951 0
M  V30 50859 C 140.049 -7.66948 0.673514 0
M  V30 50860 C 139.319 -7.33374 1.95559 0
M  V30 50861 O 139.109 -5.88721 2.00726 0
M  V30 50862 C 137.919 -7.92218 2.1125 0
M  V30 50863 O 137.529 -8.02971 3.47653 0
M  V30 50864 C 137.039 -6.89504 1.41631 0
M  V30 50865 C 137.749 -5.59106 1.75155 0
M  V30 50866 N 137.699 -4.58136 0.662409 0
M  V30 50867 C 137.549 -3.26059 1.02863 0
M  V30 50868 O 137.459 -2.90743 2.19009 0
M  V30 50869 N 137.509 -2.35995 -0.0155585 0
M  V30 50870 C 137.599 -2.65248 -1.35603 0
M  V30 50871 C 137.749 -4.05747 -1.64698 0
M  V30 50872 C 137.799 -4.96734 -0.652411 0
M  V30 50873 H 140.54 -8.64917 0.776982 0
M  V30 50874 H 140.809 -6.89974 0.474015 0
M  V30 50875 H 139.942 -7.66548 2.79458 0
M  V30 50876 H 137.287 -5.16076 2.65138 0
M  V30 50877 H 137.008 -7.06433 0.329384 0
M  V30 50878 H 136.016 -6.90829 1.81996 0
M  V30 50879 H 137.85 -8.90774 1.62639 0
M  V30 50880 H 137.921 -6.02181 -0.895285 0
M  V30 50881 P 135.979 -8.03563 3.84925 0
M  V30 50882 O 135.759 -8.85821 5.0569 0
M  V30 50883 O 135.189 -8.41101 2.65469 0
M  V30 50884 O 135.729 -6.4965 4.18908 0
M  V30 50885 C 136.669 -5.81037 5.05421 0
M  V30 50886 C 135.939 -4.78366 5.89277 0
M  V30 50887 O 135.729 -3.58302 5.08433 0
M  V30 50888 C 134.539 -5.17448 6.36119 0
M  V30 50889 O 134.149 -4.45271 7.53232 0
M  V30 50890 C 133.659 -4.74639 5.19936 0
M  V30 50891 C 134.369 -3.49432 4.70418 0
M  V30 50892 N 134.319 -3.31776 3.22945 0
M  V30 50893 C 134.399 -4.27147 2.23315 0
M  V30 50894 N 134.319 -3.78447 1.02186 0
M  V30 50895 C 134.179 -2.41001 1.21732 0
M  V30 50896 C 134.049 -1.36111 0.27694 0
M  V30 50897 O 134.029 -1.42065 -0.951767 0
M  V30 50898 N 133.929 -0.113683 0.912949 0
M  V30 50899 C 133.929 0.0846396 2.27943 0
M  V30 50900 N 133.799 1.34737 2.6916 0
M  V30 50901 N 134.059 -0.902521 3.16379 0
M  V30 50902 C 134.179 -2.11937 2.56849 0
M  V30 50903 H 137.158 -6.54213 5.71376 0
M  V30 50904 H 137.43 -5.30492 4.44033 0
M  V30 50905 H 136.562 -4.55889 6.76652 0
M  V30 50906 H 133.907 -2.6176 5.18021 0
M  V30 50907 H 133.627 -5.52233 4.41941 0
M  V30 50908 H 132.636 -4.52045 5.53452 0
M  V30 50909 H 134.47 -6.25193 6.55307 0
M  V30 50910 H 134.519 -5.3351 2.43857 0
M  V30 50911 H 133.837 0.69331 0.330371 0
M  V30 50912 H 133.8 1.56433 3.6988 0
M  V30 50913 H 133.699 2.10701 2.00133 0
M  V30 50914 P 132.599 -4.23843 7.83734 0
M  V30 50915 O 132.379 -4.19407 9.29784 0
M  V30 50916 O 131.809 -5.24426 7.09156 0
M  V30 50917 O 132.349 -2.7935 7.20758 0
M  V30 50918 C 133.289 -1.7299 7.50419 0
M  V30 50919 C 132.559 -0.406376 7.57911 0
M  V30 50920 O 132.349 0.0897726 6.21935 0
M  V30 50921 C 131.159 -0.447224 8.1878 0
M  V30 50922 O 130.769 0.825065 8.71101 0
M  V30 50923 C 130.279 -0.783801 6.99623 0
M  V30 50924 C 130.989 -0.0619192 5.85967 0
M  V30 50925 N 130.939 -0.7859 4.56281 0
M  V30 50926 H 133.778 -1.93423 8.4679 0
M  V30 50927 H 134.05 -1.68181 6.71046 0
M  V30 50928 H 133.182 0.289041 8.15388 0
M  V30 50929 P 129.219 1.17771 8.83182 0
M  V30 50930 O 128.999 2.07206 9.98732 0
M  V30 50931 O 128.429 -0.0743816 8.81969 0
M  V30 50932 O 128.969 1.97652 7.47304 0
M  V30 50933 C 129.909 3.01133 7.08783 0
M  V30 50934 C 129.179 4.12613 6.37049 0
M  V30 50935 O 128.969 3.72827 4.97879 0
M  V30 50936 C 127.779 4.45085 6.88694 0
M  V30 50937 O 127.389 5.7877 6.5624 0
M  V30 50938 C 126.899 3.47817 6.12078 0
M  V30 50939 C 127.609 3.39414 4.77697 0
M  V30 50940 N 127.559 2.04615 4.15333 0
M  V30 50941 H 130.398 3.41248 7.98759 0
M  V30 50942 H 130.67 2.5837 6.41742 0
M  V30 50943 H 129.802 5.02657 6.42673 0
M  V30 50944 P 125.839 6.144 6.45285 0
M  V30 50945 O 125.619 7.54673 6.86199 0
M  V30 50946 O 125.049 5.12391 7.179 0
M  V30 50947 O 125.589 5.99158 4.88404 0
M  V30 50948 C 126.529 6.60234 3.96415 0
M  V30 50949 C 125.799 7.08259 2.72856 0
M  V30 50950 O 125.589 5.9427 1.83651 0
M  V30 50951 C 124.399 7.64886 2.9555 0
M  V30 50952 O 124.009 8.53963 1.90717 0
M  V30 50953 C 123.519 6.4116 2.90739 0
M  V30 50954 C 124.229 5.55375 1.86963 0
M  V30 50955 N 124.179 4.09664 2.15742 0
M  V30 50956 H 127.018 7.45574 4.45629 0
M  V30 50957 H 127.29 5.86232 3.67314 0
M  V30 50958 H 126.422 7.84412 2.24479 0
M  V30 50959 P 122.459 8.7635 1.60911 0
M  V30 50960 O 122.239 10.1388 1.11561 0
M  V30 50961 O 121.669 8.36503 2.79617 0
M  V30 50962 O 122.209 7.71806 0.42951 0
M  V30 50963 C 123.149 7.66948 -0.673514 0
M  V30 50964 C 122.419 7.33374 -1.95559 0
M  V30 50965 O 122.209 5.88721 -2.00726 0
M  V30 50966 C 121.019 7.92218 -2.1125 0
M  V30 50967 O 120.629 8.02971 -3.47653 0
M  V30 50968 C 120.139 6.89504 -1.41631 0
M  V30 50969 C 120.849 5.59106 -1.75155 0
M  V30 50970 N 120.799 4.58136 -0.662409 0
M  V30 50971 C 120.649 3.26059 -1.02863 0
M  V30 50972 O 120.559 2.90743 -2.19009 0
M  V30 50973 N 120.609 2.35995 0.0155585 0
M  V30 50974 C 120.699 2.65248 1.35603 0
M  V30 50975 O 120.649 1.75605 2.20651 0
M  V30 50976 C 120.849 4.05747 1.64698 0
M  V30 50977 C 120.959 4.42345 3.09553 0
M  V30 50978 C 120.899 4.96734 0.652411 0
M  V30 50979 H 123.64 8.64917 -0.776982 0
M  V30 50980 H 123.909 6.89974 -0.474015 0
M  V30 50981 H 123.042 7.66548 -2.79458 0
M  V30 50982 H 120.387 5.16076 -2.65138 0
M  V30 50983 H 120.108 7.06433 -0.329384 0
M  V30 50984 H 119.116 6.90829 -1.81996 0
M  V30 50985 H 120.95 8.90774 -1.62639 0
M  V30 50986 H 121.021 6.02181 0.895285 0
M  V30 50987 H 119.991 4.80252 3.45468 0
M  V30 50988 H 121.728 5.20015 3.22119 0
M  V30 50989 H 121.24 3.53269 3.67833 0
M  V30 50990 H 120.504 1.39558 -0.227499 0
M  V30 50991 P 119.079 8.03563 -3.84925 0
M  V30 50992 O 118.859 8.85821 -5.0569 0
M  V30 50993 O 118.289 8.41101 -2.65469 0
M  V30 50994 O 118.829 6.4965 -4.18908 0
M  V30 50995 C 119.769 5.81037 -5.05421 0
M  V30 50996 C 119.039 4.78366 -5.89277 0
M  V30 50997 O 118.829 3.58302 -5.08433 0
M  V30 50998 C 117.639 5.17448 -6.36119 0
M  V30 50999 O 117.249 4.45271 -7.53232 0
M  V30 51000 C 116.759 4.74639 -5.19936 0
M  V30 51001 C 117.469 3.49432 -4.70418 0
M  V30 51002 N 117.419 3.32099 -3.22613 0
M  V30 51003 C 117.499 4.28245 -2.25527 0
M  V30 51004 N 117.429 3.80823 -1.04874 0
M  V30 51005 C 117.279 2.44571 -1.23535 0
M  V30 51006 C 117.149 1.37068 -0.330675 0
M  V30 51007 N 117.139 1.51472 0.990824 0
M  V30 51008 N 117.029 0.138614 -0.848756 0
M  V30 51009 C 117.039 -0.00675923 -2.16999 0
M  V30 51010 N 117.159 0.904372 -3.11122 0
M  V30 51011 C 117.279 2.12707 -2.56212 0
M  V30 51012 H 120.258 6.54213 -5.71376 0
M  V30 51013 H 120.53 5.30936 -4.43503 0
M  V30 51014 H 119.662 4.55889 -6.76652 0
M  V30 51015 H 117.007 2.61715 -5.17932 0
M  V30 51016 H 116.727 5.52155 -4.41878 0
M  V30 51017 H 115.736 4.51981 -5.53374 0
M  V30 51018 H 117.57 6.25124 -6.55234 0
M  V30 51019 H 117.611 5.34372 -2.47488 0
M  V30 51020 H 117.23 2.45153 1.4078 0
M  V30 51021 H 117.041 0.688422 1.59911 0
M  V30 51022 H 116.933 -1.02584 -2.52346 0
M  V30 51023 P 115.699 4.23843 -7.83734 0
M  V30 51024 O 115.479 4.19407 -9.29784 0
M  V30 51025 O 114.909 5.24426 -7.09156 0
M  V30 51026 O 115.449 2.7935 -7.20758 0
M  V30 51027 C 116.389 1.7299 -7.50419 0
M  V30 51028 C 115.659 0.406376 -7.57911 0
M  V30 51029 O 115.449 -0.0897726 -6.21935 0
M  V30 51030 C 114.259 0.447224 -8.1878 0
M  V30 51031 O 113.869 -0.825065 -8.71101 0
M  V30 51032 C 113.379 0.783801 -6.99623 0
M  V30 51033 C 114.089 0.0619192 -5.85967 0
M  V30 51034 N 114.039 0.7859 -4.56281 0
M  V30 51035 H 116.878 1.93423 -8.4679 0
M  V30 51036 H 117.15 1.68181 -6.71046 0
M  V30 51037 H 116.282 -0.289041 -8.15388 0
M  V30 51038 P 112.319 -1.17771 -8.83182 0
M  V30 51039 O 112.099 -2.07206 -9.98732 0
M  V30 51040 O 111.529 0.0743816 -8.81969 0
M  V30 51041 O 112.069 -1.97652 -7.47304 0
M  V30 51042 C 113.009 -3.01133 -7.08783 0
M  V30 51043 C 112.279 -4.12613 -6.37049 0
M  V30 51044 O 112.069 -3.72827 -4.97879 0
M  V30 51045 C 110.879 -4.45085 -6.88694 0
M  V30 51046 O 110.489 -5.7877 -6.5624 0
M  V30 51047 C 109.999 -3.47817 -6.12078 0
M  V30 51048 C 110.709 -3.39414 -4.77697 0
M  V30 51049 N 110.659 -2.04199 -4.15538 0
M  V30 51050 C 110.739 -0.821545 -4.76977 0
M  V30 51051 N 110.669 0.1794 -3.94592 0
M  V30 51052 C 110.519 -0.419121 -2.70776 0
M  V30 51053 C 110.389 0.109072 -1.40577 0
M  V30 51054 N 110.379 1.4104 -1.1344 0
M  V30 51055 N 110.269 -0.764381 -0.39411 0
M  V30 51056 C 110.279 -2.06587 -0.664135 0
M  V30 51057 N 110.399 -2.67948 -1.82153 0
M  V30 51058 C 110.519 -1.77942 -2.8147 0
M  V30 51059 H 113.498 -3.41248 -7.98759 0
M  V30 51060 H 113.77 -2.57728 -6.42 0
M  V30 51061 H 112.902 -5.02657 -6.42673 0
M  V30 51062 H 110.247 -4.11708 -4.08956 0
M  V30 51063 H 109.967 -2.49626 -6.61679 0
M  V30 51064 H 108.976 -3.8662 -6.00862 0
M  V30 51065 H 110.81 -4.29991 -7.97006 0
M  V30 51066 H 110.851 -0.702451 -5.84696 0
M  V30 51067 H 110.47 2.09647 -1.89651 0
M  V30 51068 H 110.281 1.73358 -0.160575 0
M  V30 51069 H 110.173 -2.71695 0.195838 0
M  V30 51070 P 108.939 -6.144 -6.45285 0
M  V30 51071 O 108.719 -7.54673 -6.86199 0
M  V30 51072 O 108.149 -5.12391 -7.179 0
M  V30 51073 O 108.689 -5.99158 -4.88404 0
M  V30 51074 C 109.629 -6.60062 -3.96313 0
M  V30 51075 C 108.899 -7.08259 -2.72856 0
M  V30 51076 O 108.689 -5.9427 -1.83651 0
M  V30 51077 C 107.499 -7.65087 -2.94749 0
M  V30 51078 O 107.109 -8.53963 -1.90717 0
M  V30 51079 C 106.619 -6.41069 -2.90698 0
M  V30 51080 C 107.329 -5.5528 -1.86931 0
M  V30 51081 N 107.279 -4.09575 -2.15696 0
M  V30 51082 C 107.129 -3.24249 -1.08435 0
M  V30 51083 O 107.039 -3.63946 0.0628747 0
M  V30 51084 N 107.089 -1.90009 -1.39973 0
M  V30 51085 C 107.179 -1.34884 -2.65614 0
M  V30 51086 O 107.129 -0.123716 -2.81728 0
M  V30 51087 C 107.329 -2.3145 -3.71736 0
M  V30 51088 C 107.439 -1.75913 -5.10438 0
M  V30 51089 C 107.379 -3.63518 -3.44754 0
M  V30 51090 H 110.12 -7.45402 -4.45526 0
M  V30 51091 H 110.389 -5.86062 -3.67208 0
M  V30 51092 H 109.522 -7.84412 -2.24479 0
M  V30 51093 H 106.867 -5.73358 -0.888409 0
M  V30 51094 H 106.588 -5.90877 -3.88583 0
M  V30 51095 H 105.596 -6.65867 -2.58821 0
M  V30 51096 H 107.43 -8.16248 -3.92006 0
M  V30 51097 H 107.501 -4.34551 -4.26383 0
M  V30 51098 H 106.471 -1.85471 -5.61775 0
M  V30 51099 H 108.208 -2.31364 -5.66257 0
M  V30 51100 H 107.72 -0.695936 -5.05229 0
M  V30 51101 H 106.984 -1.26277 -0.63625 0
M  V30 51102 P 105.559 -8.7635 -1.60911 0
M  V30 51103 O 105.339 -10.1388 -1.11561 0
M  V30 51104 O 104.769 -8.36503 -2.79617 0
M  V30 51105 O 105.309 -7.71906 -0.429565 0
M  V30 51106 C 106.249 -7.67148 0.673689 0
M  V30 51107 C 105.519 -7.33666 1.94851 0
M  V30 51108 O 105.309 -5.88816 2.00759 0
M  V30 51109 C 104.119 -7.92526 2.10483 0
M  V30 51110 O 103.729 -8.03063 3.47693 0
M  V30 51111 C 103.239 -6.89602 1.41652 0
M  V30 51112 C 103.949 -5.59201 1.75185 0
M  V30 51113 N 103.899 -4.58235 0.662552 0
M  V30 51114 C 103.749 -3.24451 1.01643 0
M  V30 51115 O 103.659 -2.94958 2.21722 0
M  V30 51116 N 103.699 -2.30408 -0.165238 0
M  V30 51117 C 103.799 -2.66048 -1.25118 0
M  V30 51118 N 103.749 -1.70787 -2.16813 0
M  V30 51119 C 103.949 -4.02732 -1.64413 0
M  V30 51120 C 103.999 -4.9488 -0.63991 0
M  V30 51121 H 106.739 -8.65017 0.777072 0
M  V30 51122 H 107.009 -6.90173 0.474152 0
M  V30 51123 H 106.142 -7.66642 2.79492 0
M  V30 51124 H 103.487 -5.16254 2.65229 0
M  V30 51125 H 103.207 -7.06532 0.329431 0
M  V30 51126 H 102.216 -6.91023 1.82047 0
M  V30 51127 H 104.05 -8.90873 1.62657 0
M  V30 51128 H 104.122 -6.00104 -0.892197 0
M  V30 51129 H 104.02 -4.31733 -2.69229 0
M  V30 51130 H 103.632 -0.724835 -1.8844 0
M  V30 51131 H 103.828 -1.94716 -3.16734 0
M  V30 51132 P 102.179 -8.03563 3.84925 0
M  V30 51133 O 101.959 -8.85821 5.0569 0
M  V30 51134 O 101.389 -8.41101 2.65469 0
M  V30 51135 O 101.929 -6.4965 4.18908 0
M  V30 51136 C 102.869 -5.80886 5.05289 0
M  V30 51137 C 102.139 -4.78366 5.89277 0
M  V30 51138 O 101.929 -3.58302 5.08433 0
M  V30 51139 C 100.739 -5.16748 6.36559 0
M  V30 51140 O 100.349 -4.45271 7.53232 0
M  V30 51141 C 99.8594 -4.74572 5.19863 0
M  V30 51142 C 100.569 -3.49373 4.70338 0
M  V30 51143 N 100.519 -3.31704 3.22876 0
M  V30 51144 C 100.369 -2.03326 2.74871 0
M  V30 51145 O 100.279 -1.06486 3.48076 0
M  V30 51146 N 100.329 -1.91838 1.37456 0
M  V30 51147 C 100.419 -2.94295 0.462035 0
M  V30 51148 C 100.569 -4.25064 1.05249 0
M  V30 51149 C 100.619 -4.40214 2.39192 0
M  V30 51150 H 103.36 -6.54063 5.71245 0
M  V30 51151 H 103.629 -5.30339 4.43905 0
M  V30 51152 H 102.762 -4.55889 6.76652 0
M  V30 51153 H 100.107 -2.6167 5.17842 0
M  V30 51154 H 99.8284 -5.52155 4.41878 0
M  V30 51155 H 98.8364 -4.51918 5.53297 0
M  V30 51156 H 100.67 -6.25055 6.55162 0
M  V30 51157 H 100.741 -5.39798 2.81523 0
M  V30 51158 P 98.7994 -4.23843 7.83734 0
M  V30 51159 O 98.5794 -4.19407 9.29784 0
M  V30 51160 O 98.0094 -5.24426 7.09156 0
M  V30 51161 O 98.5494 -2.7935 7.20758 0
M  V30 51162 C 99.4894 -1.7299 7.50419 0
M  V30 51163 C 98.7594 -0.406376 7.57911 0
M  V30 51164 O 98.5494 0.0897726 6.21935 0
M  V30 51165 C 97.3594 -0.447224 8.1878 0
M  V30 51166 O 96.9694 0.825065 8.71101 0
M  V30 51167 C 96.4794 -0.783801 6.99623 0
M  V30 51168 C 97.1894 -0.0619192 5.85967 0
M  V30 51169 N 97.1394 -0.7859 4.56281 0
M  V30 51170 H 99.9784 -1.93423 8.4679 0
M  V30 51171 H 100.25 -1.68181 6.71046 0
M  V30 51172 H 99.3824 0.289041 8.15388 0
M  V30 51173 P 95.4195 1.17771 8.83182 0
M  V30 51174 O 95.1995 2.07206 9.98732 0
M  V30 51175 O 94.6295 -0.0743816 8.81969 0
M  V30 51176 O 95.1695 1.97652 7.47304 0
M  V30 51177 C 96.1095 3.01133 7.08783 0
M  V30 51178 C 95.3795 4.12613 6.37049 0
M  V30 51179 O 95.1695 3.72827 4.97879 0
M  V30 51180 C 93.9795 4.45085 6.88694 0
M  V30 51181 O 93.5895 5.7877 6.5624 0
M  V30 51182 C 93.0995 3.47817 6.12078 0
M  V30 51183 C 93.8095 3.39414 4.77697 0
M  V30 51184 N 93.7595 2.04615 4.15333 0
M  V30 51185 H 96.5985 3.41248 7.98759 0
M  V30 51186 H 96.8705 2.5837 6.41742 0
M  V30 51187 H 96.0025 5.02657 6.42673 0
M  V30 51188 P 92.0395 6.144 6.45285 0
M  V30 51189 O 91.8195 7.54673 6.86199 0
M  V30 51190 O 91.2495 5.12391 7.179 0
M  V30 51191 O 91.7895 5.99158 4.88404 0
M  V30 51192 C 92.7295 6.60234 3.96415 0
M  V30 51193 C 91.9995 7.08259 2.72856 0
M  V30 51194 O 91.7895 5.9427 1.83651 0
M  V30 51195 C 90.5995 7.64886 2.9555 0
M  V30 51196 O 90.2095 8.53963 1.90717 0
M  V30 51197 C 89.7195 6.4116 2.90739 0
M  V30 51198 C 90.4295 5.55375 1.86963 0
M  V30 51199 N 90.3795 4.09664 2.15742 0
M  V30 51200 H 93.2185 7.45574 4.45629 0
M  V30 51201 H 93.4905 5.86232 3.67314 0
M  V30 51202 H 92.6225 7.84412 2.24479 0
M  V30 51203 P 88.6595 8.7635 1.60911 0
M  V30 51204 O 88.4395 10.1388 1.11561 0
M  V30 51205 O 87.8695 8.36503 2.79617 0
M  V30 51206 O 88.4095 7.71806 0.42951 0
M  V30 51207 C 89.3495 7.67148 -0.673689 0
M  V30 51208 C 88.6195 7.33374 -1.95559 0
M  V30 51209 O 88.4095 5.88721 -2.00726 0
M  V30 51210 C 87.2195 7.92526 -2.10483 0
M  V30 51211 O 86.8295 8.02971 -3.47653 0
M  V30 51212 C 86.3395 6.89602 -1.41652 0
M  V30 51213 C 87.0495 5.59201 -1.75185 0
M  V30 51214 N 86.9995 4.58235 -0.662552 0
M  V30 51215 H 89.8385 8.65116 -0.777161 0
M  V30 51216 H 90.1105 6.90173 -0.474152 0
M  V30 51217 H 89.2425 7.66548 -2.79458 0
M  V30 51218 P 85.2795 8.03563 -3.84925 0
M  V30 51219 O 85.0595 8.85821 -5.0569 0
M  V30 51220 O 84.4895 8.41101 -2.65469 0
M  V30 51221 O 85.0295 6.4965 -4.18908 0
M  V30 51222 C 85.9695 5.80886 -5.05289 0
M  V30 51223 C 85.2395 4.78366 -5.89277 0
M  V30 51224 O 85.0295 3.58302 -5.08433 0
M  V30 51225 C 83.8395 5.16748 -6.36559 0
M  V30 51226 O 83.4495 4.45271 -7.53232 0
M  V30 51227 C 82.9595 4.74572 -5.19863 0
M  V30 51228 C 83.6695 3.49373 -4.70338 0
M  V30 51229 N 83.6195 3.31704 -3.22876 0
M  V30 51230 C 83.4695 2.03326 -2.74871 0
M  V30 51231 O 83.3795 1.06486 -3.48076 0
M  V30 51232 N 83.4295 1.91838 -1.37456 0
M  V30 51233 C 83.5195 2.94295 -0.462035 0
M  V30 51234 O 83.4695 2.71763 0.752928 0
M  V30 51235 C 83.6695 4.25064 -1.05249 0
M  V30 51236 C 83.7795 5.39815 -0.095697 0
M  V30 51237 C 83.7195 4.40214 -2.39192 0
M  V30 51238 H 86.4605 6.54063 -5.71245 0
M  V30 51239 H 86.7295 5.30339 -4.43905 0
M  V30 51240 H 85.8625 4.55889 -6.76652 0
M  V30 51241 H 83.2075 2.6167 -5.17842 0
M  V30 51242 H 82.9285 5.52155 -4.41878 0
M  V30 51243 H 81.9365 4.51918 -5.53297 0
M  V30 51244 H 83.7705 6.25055 -6.55162 0
M  V30 51245 H 83.8415 5.39798 -2.81523 0
M  V30 51246 H 82.8115 5.91593 -0.0279582 0
M  V30 51247 H 84.5485 6.10038 -0.450573 0
M  V30 51248 H 84.0605 5.02007 0.89937 0
M  V30 51249 H 83.3245 0.995326 -1.00435 0
M  V30 51250 P 81.8995 4.23843 -7.83734 0
M  V30 51251 O 81.6795 4.19407 -9.29784 0
M  V30 51252 O 81.1095 5.24426 -7.09156 0
M  V30 51253 O 81.6495 2.7935 -7.20758 0
M  V30 51254 C 82.5895 1.7299 -7.50419 0
M  V30 51255 C 81.8595 0.406376 -7.57911 0
M  V30 51256 O 81.6495 -0.0897726 -6.21935 0
M  V30 51257 C 80.4595 0.447224 -8.1878 0
M  V30 51258 O 80.0695 -0.825065 -8.71101 0
M  V30 51259 C 79.5795 0.783801 -6.99623 0
M  V30 51260 C 80.2895 0.0619192 -5.85967 0
M  V30 51261 N 80.2395 0.7859 -4.56281 0
M  V30 51262 H 83.0785 1.93423 -8.4679 0
M  V30 51263 H 83.3505 1.68181 -6.71046 0
M  V30 51264 H 82.4825 -0.289041 -8.15388 0
M  V30 51265 P 78.5196 -1.17771 -8.83182 0
M  V30 51266 O 78.2996 -2.07206 -9.98732 0
M  V30 51267 O 77.7296 0.0743816 -8.81969 0
M  V30 51268 O 78.2696 -1.97652 -7.47304 0
M  V30 51269 C 79.2096 -3.01133 -7.08783 0
M  V30 51270 C 78.4796 -4.12613 -6.37049 0
M  V30 51271 O 78.2696 -3.72827 -4.97879 0
M  V30 51272 C 77.0796 -4.45085 -6.88694 0
M  V30 51273 O 76.6896 -5.7877 -6.5624 0
M  V30 51274 C 76.1996 -3.47817 -6.12078 0
M  V30 51275 C 76.9096 -3.39414 -4.77697 0
M  V30 51276 N 76.8596 -2.04615 -4.15333 0
M  V30 51277 H 79.6986 -3.41248 -7.98759 0
M  V30 51278 H 79.9706 -2.5837 -6.41742 0
M  V30 51279 H 79.1026 -5.02657 -6.42673 0
M  V30 51280 P 75.1396 -6.144 -6.45285 0
M  V30 51281 O 74.9196 -7.54673 -6.86199 0
M  V30 51282 O 74.3496 -5.12391 -7.179 0
M  V30 51283 O 74.8896 -5.99236 -4.88467 0
M  V30 51284 C 75.8296 -6.60234 -3.96415 0
M  V30 51285 C 75.0996 -7.08079 -2.736 0
M  V30 51286 O 74.8896 -5.94365 -1.8368 0
M  V30 51287 C 73.6996 -7.64886 -2.9555 0
M  V30 51288 O 73.3096 -8.5406 -1.90739 0
M  V30 51289 C 72.8196 -6.4116 -2.90739 0
M  V30 51290 C 73.5296 -5.55375 -1.86963 0
M  V30 51291 N 73.4796 -4.09664 -2.15742 0
M  V30 51292 C 73.3296 -3.22231 -1.08477 0
M  V30 51293 O 73.2396 -3.68951 0.0600489 0
M  V30 51294 N 73.2796 -1.76692 -1.48799 0
M  V30 51295 C 73.3796 -1.41695 -2.57602 0
M  V30 51296 N 73.3296 -0.107296 -2.75791 0
M  V30 51297 C 73.5296 -2.29178 -3.69733 0
M  V30 51298 C 73.5796 -3.62753 -3.42653 0
M  V30 51299 H 76.3196 -7.45488 -4.45578 0
M  V30 51300 H 76.5896 -5.86232 -3.67314 0
M  V30 51301 H 75.7226 -7.84508 -2.24507 0
M  V30 51302 H 73.0676 -5.73556 -0.888715 0
M  V30 51303 H 72.7876 -5.9096 -3.88638 0
M  V30 51304 H 71.7966 -6.66053 -2.58894 0
M  V30 51305 H 73.6306 -8.16339 -3.92049 0
M  V30 51306 H 73.7026 -4.33052 -4.24913 0
M  V30 51307 H 73.6006 -1.9103 -4.71577 0
M  V30 51308 H 73.2126 0.521221 -1.95056 0
M  V30 51309 H 73.4086 0.286429 -3.70695 0
M  V30 51310 P 71.7596 -8.7635 -1.60911 0
M  V30 51311 O 71.5396 -10.1388 -1.11561 0
M  V30 51312 O 70.9696 -8.36503 -2.79617 0
M  V30 51313 O 71.5096 -7.71806 -0.42951 0
M  V30 51314 C 72.4496 -7.67148 0.673689 0
M  V30 51315 C 71.7196 -7.33374 1.95559 0
M  V30 51316 O 71.5096 -5.88721 2.00726 0
M  V30 51317 C 70.3196 -7.92526 2.10483 0
M  V30 51318 O 69.9296 -8.02971 3.47653 0
M  V30 51319 C 69.4396 -6.89602 1.41652 0
M  V30 51320 C 70.1496 -5.59201 1.75185 0
M  V30 51321 N 70.0996 -4.58301 0.657969 0
M  V30 51322 H 72.9386 -8.65116 0.777161 0
M  V30 51323 H 73.2106 -6.9022 0.46725 0
M  V30 51324 H 72.3426 -7.66548 2.79458 0
M  V30 51325 H 69.6876 -5.16165 2.65183 0
M  V30 51326 H 69.4076 -7.06433 0.329384 0
M  V30 51327 H 68.4166 -6.90926 1.82021 0
M  V30 51328 H 70.2506 -8.90873 1.62657 0
M  V30 51329 P 68.3796 -8.03563 3.84925 0
M  V30 51330 O 68.1596 -8.85821 5.0569 0
M  V30 51331 O 67.5896 -8.41101 2.65469 0
M  V30 51332 O 68.1296 -6.4965 4.18908 0
M  V30 51333 C 69.0696 -5.80886 5.05289 0
M  V30 51334 C 68.3396 -4.78366 5.89277 0
M  V30 51335 O 68.1296 -3.58302 5.08433 0
M  V30 51336 C 66.9396 -5.16748 6.36559 0
M  V30 51337 O 66.5496 -4.45271 7.53232 0
M  V30 51338 C 66.0596 -4.74572 5.19863 0
M  V30 51339 C 66.7696 -3.49373 4.70338 0
M  V30 51340 N 66.7196 -3.31704 3.22876 0
M  V30 51341 C 66.5696 -2.03326 2.74871 0
M  V30 51342 O 66.4796 -1.06486 3.48076 0
M  V30 51343 N 66.5296 -1.91838 1.37456 0
M  V30 51344 C 66.6196 -2.94295 0.462035 0
M  V30 51345 O 66.5696 -2.71763 -0.752928 0
M  V30 51346 C 66.7696 -4.25064 1.05249 0
M  V30 51347 C 66.8796 -5.39815 0.095697 0
M  V30 51348 C 66.8196 -4.40214 2.39192 0
M  V30 51349 H 69.5606 -6.54063 5.71245 0
M  V30 51350 H 69.8296 -5.30339 4.43905 0
M  V30 51351 H 68.9626 -4.55889 6.76652 0
M  V30 51352 H 66.3076 -2.6167 5.17842 0
M  V30 51353 H 66.0286 -5.52155 4.41878 0
M  V30 51354 H 65.0366 -4.51918 5.53297 0
M  V30 51355 H 66.8706 -6.25055 6.55162 0
M  V30 51356 H 66.9416 -5.39798 2.81523 0
M  V30 51357 H 65.9116 -5.91593 0.0279582 0
M  V30 51358 H 67.6486 -6.10038 0.450573 0
M  V30 51359 H 67.1606 -5.02007 -0.89937 0
M  V30 51360 H 66.4246 -0.995326 1.00435 0
M  V30 51361 P 64.9996 -4.23843 7.83734 0
M  V30 51362 O 64.7796 -4.19407 9.29784 0
M  V30 51363 O 64.2096 -5.24426 7.09156 0
M  V30 51364 O 64.7496 -2.7935 7.20758 0
M  V30 51365 C 65.6896 -1.72945 7.50224 0
M  V30 51366 C 64.9596 -0.406376 7.57911 0
M  V30 51367 O 64.7496 0.0897726 6.21935 0
M  V30 51368 C 63.5596 -0.438983 8.18724 0
M  V30 51369 O 63.1696 0.825065 8.71101 0
M  V30 51370 C 62.6796 -0.783689 6.99524 0
M  V30 51371 C 63.3896 -0.0619086 5.85867 0
M  V30 51372 N 63.3396 -0.78573 4.56183 0
M  V30 51373 C 63.1896 -0.0292889 3.41887 0
M  V30 51374 O 63.0996 1.18445 3.4419 0
M  V30 51375 N 63.1496 -0.744061 2.23964 0
M  V30 51376 C 63.2396 -2.10932 2.10362 0
M  V30 51377 O 63.1896 -2.64117 0.98825 0
M  V30 51378 C 63.3896 -2.8202 3.34994 0
M  V30 51379 C 63.4996 -4.31095 3.25037 0
M  V30 51380 C 63.4396 -2.15547 4.52261 0
M  V30 51381 H 66.1806 -1.93379 8.46595 0
M  V30 51382 H 66.4496 -1.68132 6.70852 0
M  V30 51383 H 65.5826 0.289041 8.15388 0
M  V30 51384 H 62.9276 0.926847 5.72749 0
M  V30 51385 H 62.6486 -1.86973 6.82036 0
M  V30 51386 H 61.6566 -0.403896 7.13257 0
M  V30 51387 H 63.4906 -1.20585 8.97435 0
M  V30 51388 H 63.5616 -2.71231 5.45042 0
M  V30 51389 H 62.5316 -4.76966 3.49992 0
M  V30 51390 H 64.2686 -4.67047 3.95024 0
M  V30 51391 H 63.7806 -4.58996 2.22312 0
M  V30 51392 H 63.0446 -0.214893 1.39758 0
M  V30 51393 P 61.6197 1.17771 8.83182 0
M  V30 51394 O 61.3997 2.07206 9.98732 0
M  V30 51395 O 60.8297 -0.0743816 8.81969 0
M  V30 51396 O 61.3697 1.97652 7.47304 0
M  V30 51397 C 62.3097 3.01055 7.08599 0
M  V30 51398 C 61.5797 4.12613 6.37049 0
M  V30 51399 O 61.3697 3.72827 4.97879 0
M  V30 51400 C 60.1797 4.45719 6.88164 0
M  V30 51401 O 59.7897 5.7877 6.5624 0
M  V30 51402 C 59.2997 3.47768 6.11991 0
M  V30 51403 C 60.0097 3.39356 4.77615 0
M  V30 51404 N 59.9597 2.04571 4.15244 0
M  V30 51405 C 59.8097 1.98587 2.78314 0
M  V30 51406 O 59.7197 2.98134 2.08835 0
M  V30 51407 N 59.7697 0.714467 2.24925 0
M  V30 51408 C 59.8597 -0.470001 2.94169 0
M  V30 51409 C 60.0097 -0.312541 4.36783 0
M  V30 51410 C 60.0597 0.914512 4.92583 0
M  V30 51411 H 62.8007 3.41169 7.98575 0
M  V30 51412 H 63.0697 2.58295 6.41556 0
M  V30 51413 H 62.2027 5.02657 6.42673 0
M  V30 51414 H 59.5477 4.11637 4.08885 0
M  V30 51415 H 59.2687 2.49626 6.61679 0
M  V30 51416 H 58.2767 3.86566 6.00778 0
M  V30 51417 H 60.1107 4.29943 7.96918 0
M  V30 51418 H 60.1817 1.00937 6.00374 0
M  V30 51419 P 58.2397 6.144 6.45285 0
M  V30 51420 O 58.0197 7.54673 6.86199 0
M  V30 51421 O 57.4497 5.12391 7.179 0
M  V30 51422 O 57.9897 5.99158 4.88404 0
M  V30 51423 C 58.9297 6.60062 3.96313 0
M  V30 51424 C 58.1997 7.08259 2.72856 0
M  V30 51425 O 57.9897 5.9427 1.83651 0
M  V30 51426 C 56.7997 7.65087 2.94749 0
M  V30 51427 O 56.4097 8.53963 1.90717 0
M  V30 51428 C 55.9197 6.41069 2.90698 0
M  V30 51429 C 56.6297 5.5528 1.86931 0
M  V30 51430 N 56.5797 4.09575 2.15696 0
M  V30 51431 C 56.4297 3.24249 1.08435 0
M  V30 51432 O 56.3397 3.63946 -0.0628747 0
M  V30 51433 N 56.3897 1.90009 1.39973 0
M  V30 51434 C 56.4797 1.34884 2.65614 0
M  V30 51435 O 56.4297 0.123716 2.81728 0
M  V30 51436 C 56.6297 2.3145 3.71736 0
M  V30 51437 C 56.7397 1.75913 5.10438 0
M  V30 51438 C 56.6797 3.63518 3.44754 0
M  V30 51439 H 59.4207 7.45402 4.45526 0
M  V30 51440 H 59.6897 5.86062 3.67208 0
M  V30 51441 H 58.8227 7.84412 2.24479 0
M  V30 51442 H 56.1677 5.73358 0.888409 0
M  V30 51443 H 55.8887 5.90877 3.88583 0
M  V30 51444 H 54.8967 6.65867 2.58821 0
M  V30 51445 H 56.7307 8.16248 3.92006 0
M  V30 51446 H 56.8017 4.34551 4.26383 0
M  V30 51447 H 55.7717 1.85471 5.61775 0
M  V30 51448 H 57.5087 2.31364 5.66257 0
M  V30 51449 H 57.0207 0.695936 5.05229 0
M  V30 51450 H 56.2847 1.26277 0.63625 0
M  V30 51451 P 54.8597 8.7635 1.60911 0
M  V30 51452 O 54.6397 10.1388 1.11561 0
M  V30 51453 O 54.0697 8.36503 2.79617 0
M  V30 51454 O 54.6097 7.71806 0.42951 0
M  V30 51455 C 55.5497 7.66948 -0.673514 0
M  V30 51456 C 54.8197 7.33374 -1.95559 0
M  V30 51457 O 54.6097 5.88721 -2.00726 0
M  V30 51458 C 53.4197 7.92218 -2.1125 0
M  V30 51459 O 53.0297 8.02971 -3.47653 0
M  V30 51460 C 52.5397 6.89504 -1.41631 0
M  V30 51461 C 53.2497 5.59106 -1.75155 0
M  V30 51462 N 53.1997 4.58136 -0.662409 0
M  V30 51463 C 53.0497 3.26059 -1.02863 0
M  V30 51464 O 52.9597 2.90743 -2.19009 0
M  V30 51465 N 53.0097 2.35995 0.0155585 0
M  V30 51466 C 53.0997 2.65248 1.35603 0
M  V30 51467 O 53.0497 1.75605 2.20651 0
M  V30 51468 C 53.2497 4.05747 1.64698 0
M  V30 51469 C 53.3597 4.42345 3.09553 0
M  V30 51470 C 53.2997 4.96734 0.652411 0
M  V30 51471 H 56.0407 8.64917 -0.776982 0
M  V30 51472 H 56.3097 6.89974 -0.474015 0
M  V30 51473 H 55.4427 7.66548 -2.79458 0
M  V30 51474 H 52.7877 5.16076 -2.65138 0
M  V30 51475 H 52.5087 7.06433 -0.329384 0
M  V30 51476 H 51.5167 6.90829 -1.81996 0
M  V30 51477 H 53.3507 8.90774 -1.62639 0
M  V30 51478 H 53.4217 6.02181 0.895285 0
M  V30 51479 H 52.3917 4.80252 3.45468 0
M  V30 51480 H 54.1287 5.20015 3.22119 0
M  V30 51481 H 53.6407 3.53269 3.67833 0
M  V30 51482 H 52.9047 1.39558 -0.227499 0
M  V30 51483 P 51.4797 8.03563 -3.84925 0
M  V30 51484 O 51.2597 8.85821 -5.0569 0
M  V30 51485 O 50.6897 8.41101 -2.65469 0
M  V30 51486 O 51.2297 6.4965 -4.18908 0
M  V30 51487 C 52.1697 5.81037 -5.05421 0
M  V30 51488 C 51.4397 4.78366 -5.89277 0
M  V30 51489 O 51.2297 3.58302 -5.08433 0
M  V30 51490 C 50.0397 5.17448 -6.36119 0
M  V30 51491 O 49.6497 4.45271 -7.53232 0
M  V30 51492 C 49.1597 4.74639 -5.19936 0
M  V30 51493 C 49.8697 3.49432 -4.70418 0
M  V30 51494 N 49.8197 3.32099 -3.22613 0
M  V30 51495 H 52.6587 6.54213 -5.71376 0
M  V30 51496 H 52.9307 5.30936 -4.43503 0
M  V30 51497 H 52.0627 4.55889 -6.76652 0
M  V30 51498 H 49.4077 2.61715 -5.17932 0
M  V30 51499 H 49.1277 5.52155 -4.41878 0
M  V30 51500 H 48.1367 4.51981 -5.53374 0
M  V30 51501 H 49.9707 6.25124 -6.55234 0
M  V30 51502 P 48.0997 4.23843 -7.83734 0
M  V30 51503 O 47.8797 4.19407 -9.29784 0
M  V30 51504 O 47.3097 5.24426 -7.09156 0
M  V30 51505 O 47.8497 2.7935 -7.20758 0
M  V30 51506 C 48.7897 1.7299 -7.50419 0
M  V30 51507 C 48.0597 0.406376 -7.57911 0
M  V30 51508 O 47.8497 -0.0897726 -6.21935 0
M  V30 51509 C 46.6597 0.447224 -8.1878 0
M  V30 51510 O 46.2697 -0.825065 -8.71101 0
M  V30 51511 C 45.7797 0.783801 -6.99623 0
M  V30 51512 C 46.4897 0.0619192 -5.85967 0
M  V30 51513 N 46.4397 0.790462 -4.56202 0
M  V30 51514 H 49.2787 1.93423 -8.4679 0
M  V30 51515 H 49.5507 1.68852 -6.70877 0
M  V30 51516 H 48.6827 -0.289041 -8.15388 0
M  V30 51517 H 46.0277 -0.927006 -5.72848 0
M  V30 51518 H 45.7477 1.86973 -6.82036 0
M  V30 51519 H 44.7567 0.403953 -7.13357 0
M  V30 51520 H 46.5907 1.20599 -8.97534 0
M  V30 51521 P 44.7198 -1.17771 -8.83182 0
M  V30 51522 O 44.4998 -2.07206 -9.98732 0
M  V30 51523 O 43.9298 0.0743816 -8.81969 0
M  V30 51524 O 44.4698 -1.97678 -7.474 0
M  V30 51525 C 45.4098 -3.01133 -7.08783 0
M  V30 51526 C 44.6798 -4.1203 -6.37546 0
M  V30 51527 O 44.4698 -3.72887 -4.9796 0
M  V30 51528 C 43.2798 -4.45085 -6.88694 0
M  V30 51529 O 42.8898 -5.78836 -6.56315 0
M  V30 51530 C 42.3998 -3.47817 -6.12078 0
M  V30 51531 C 43.1098 -3.39414 -4.77697 0
M  V30 51532 N 43.0598 -2.04615 -4.15333 0
M  V30 51533 C 42.9098 -1.96929 -2.77162 0
M  V30 51534 O 42.8198 -3.02017 -2.12006 0
M  V30 51535 N 42.8598 -0.55485 -2.24237 0
M  V30 51536 C 42.9598 0.367808 -2.9169 0
M  V30 51537 N 42.9098 1.53426 -2.29427 0
M  V30 51538 C 43.1098 0.319148 -4.33828 0
M  V30 51539 C 43.1598 -0.920672 -4.90433 0
M  V30 51540 H 45.8998 -3.41209 -7.98667 0
M  V30 51541 H 46.1698 -2.5837 -6.41742 0
M  V30 51542 H 45.3028 -5.02718 -6.42752 0
M  V30 51543 H 42.6478 -4.11779 -4.09026 0
M  V30 51544 H 42.3678 -2.49661 -6.61772 0
M  V30 51545 H 41.3768 -3.86674 -6.00946 0
M  V30 51546 H 43.2108 -4.29991 -7.97006 0
M  V30 51547 H 43.2828 -1.00589 -5.98303 0
M  V30 51548 H 43.1808 1.22639 -4.93799 0
M  V30 51549 H 42.7928 1.56819 -1.27167 0
M  V30 51550 H 42.9888 2.41062 -2.83063 0
M  V30 51551 P 41.3398 -6.144 -6.45285 0
M  V30 51552 O 41.1198 -7.54673 -6.86199 0
M  V30 51553 O 40.5498 -5.12391 -7.179 0
M  V30 51554 O 41.0898 -5.99236 -4.88467 0
M  V30 51555 C 42.0298 -6.60234 -3.96415 0
M  V30 51556 C 41.2998 -7.08079 -2.736 0
M  V30 51557 O 41.0898 -5.94365 -1.8368 0
M  V30 51558 C 39.8998 -7.64886 -2.9555 0
M  V30 51559 O 39.5098 -8.5406 -1.90739 0
M  V30 51560 C 39.0198 -6.4116 -2.90739 0
M  V30 51561 C 39.7298 -5.55375 -1.86963 0
M  V30 51562 N 39.6798 -4.09664 -2.15742 0
M  V30 51563 C 39.5298 -3.22231 -1.08477 0
M  V30 51564 O 39.4398 -3.68951 0.0600489 0
M  V30 51565 N 39.4798 -1.76692 -1.48799 0
M  V30 51566 C 39.5798 -1.41695 -2.57602 0
M  V30 51567 N 39.5298 -0.107296 -2.75791 0
M  V30 51568 C 39.7298 -2.29178 -3.69733 0
M  V30 51569 C 39.7798 -3.62753 -3.42653 0
M  V30 51570 H 42.5198 -7.45488 -4.45578 0
M  V30 51571 H 42.7898 -5.86232 -3.67314 0
M  V30 51572 H 41.9228 -7.84508 -2.24507 0
M  V30 51573 H 39.2678 -5.73556 -0.888715 0
M  V30 51574 H 38.9878 -5.9096 -3.88638 0
M  V30 51575 H 37.9968 -6.66053 -2.58894 0
M  V30 51576 H 39.8308 -8.16339 -3.92049 0
M  V30 51577 H 39.9028 -4.33052 -4.24913 0
M  V30 51578 H 39.8008 -1.9103 -4.71577 0
M  V30 51579 H 39.4128 0.521221 -1.95056 0
M  V30 51580 H 39.6088 0.286429 -3.70695 0
M  V30 51581 P 37.9598 -8.7635 -1.60911 0
M  V30 51582 O 37.7398 -10.1388 -1.11561 0
M  V30 51583 O 37.1698 -8.36503 -2.79617 0
M  V30 51584 O 37.7098 -7.71806 -0.42951 0
M  V30 51585 C 38.6498 -7.67148 0.673689 0
M  V30 51586 C 37.9198 -7.33374 1.95559 0
M  V30 51587 O 37.7098 -5.88721 2.00726 0
M  V30 51588 C 36.5198 -7.92526 2.10483 0
M  V30 51589 O 36.1298 -8.02971 3.47653 0
M  V30 51590 C 35.6398 -6.89602 1.41652 0
M  V30 51591 C 36.3498 -5.59201 1.75185 0
M  V30 51592 N 36.2998 -4.58235 0.662552 0
M  V30 51593 H 39.1388 -8.65116 0.777161 0
M  V30 51594 H 39.4108 -6.90173 0.474152 0
M  V30 51595 H 38.5428 -7.66548 2.79458 0
M  V30 51596 P 34.5798 -8.03563 3.84925 0
M  V30 51597 O 34.3598 -8.85821 5.0569 0
M  V30 51598 O 33.7898 -8.41101 2.65469 0
M  V30 51599 O 34.3298 -6.4965 4.18908 0
M  V30 51600 C 35.2698 -5.81037 5.05421 0
M  V30 51601 C 34.5398 -4.78366 5.89277 0
M  V30 51602 O 34.3298 -3.58302 5.08433 0
M  V30 51603 C 33.1398 -5.17448 6.36119 0
M  V30 51604 O 32.7498 -4.45271 7.53232 0
M  V30 51605 C 32.2598 -4.74639 5.19936 0
M  V30 51606 C 32.9698 -3.49432 4.70418 0
M  V30 51607 N 32.9198 -3.32099 3.22613 0
M  V30 51608 H 35.7588 -6.54213 5.71376 0
M  V30 51609 H 36.0308 -5.30936 4.43503 0
M  V30 51610 H 35.1628 -4.55889 6.76652 0
M  V30 51611 H 32.5078 -2.61715 5.17932 0
M  V30 51612 H 32.2278 -5.52155 4.41878 0
M  V30 51613 H 31.2368 -4.51981 5.53374 0
M  V30 51614 H 33.0708 -6.25124 6.55234 0
M  V30 51615 P 31.1998 -4.23843 7.83734 0
M  V30 51616 O 30.9798 -4.19407 9.29784 0
M  V30 51617 O 30.4098 -5.24426 7.09156 0
M  V30 51618 O 30.9498 -2.7935 7.20758 0
M  V30 51619 C 31.8898 -1.72945 7.50224 0
M  V30 51620 C 31.1598 -0.406376 7.57911 0
M  V30 51621 O 30.9498 0.0897726 6.21935 0
M  V30 51622 C 29.7598 -0.438983 8.18724 0
M  V30 51623 O 29.3698 0.825065 8.71101 0
M  V30 51624 C 28.8798 -0.783689 6.99524 0
M  V30 51625 C 29.5898 -0.0619086 5.85867 0
M  V30 51626 N 29.5398 -0.78573 4.56183 0
M  V30 51627 C 29.3898 -0.0292889 3.41887 0
M  V30 51628 O 29.2998 1.18445 3.4419 0
M  V30 51629 N 29.3498 -0.744061 2.23964 0
M  V30 51630 C 29.4398 -2.10932 2.10362 0
M  V30 51631 O 29.3898 -2.64117 0.98825 0
M  V30 51632 C 29.5898 -2.8202 3.34994 0
M  V30 51633 C 29.6998 -4.31095 3.25037 0
M  V30 51634 C 29.6398 -2.15547 4.52261 0
M  V30 51635 H 32.3808 -1.93379 8.46595 0
M  V30 51636 H 32.6498 -1.68132 6.70852 0
M  V30 51637 H 31.7828 0.289041 8.15388 0
M  V30 51638 H 29.1278 0.926847 5.72749 0
M  V30 51639 H 28.8488 -1.86973 6.82036 0
M  V30 51640 H 27.8568 -0.403896 7.13257 0
M  V30 51641 H 29.6908 -1.20585 8.97435 0
M  V30 51642 H 29.7618 -2.71231 5.45042 0
M  V30 51643 H 28.7318 -4.76966 3.49992 0
M  V30 51644 H 30.4688 -4.67047 3.95024 0
M  V30 51645 H 29.9808 -4.58996 2.22312 0
M  V30 51646 H 29.2448 -0.214893 1.39758 0
M  V30 51647 P 27.8199 1.17771 8.83182 0
M  V30 51648 O 27.5999 2.07206 9.98732 0
M  V30 51649 O 27.0299 -0.0743816 8.81969 0
M  V30 51650 O 27.5699 1.97652 7.47304 0
M  V30 51651 C 28.5099 3.01133 7.08783 0
M  V30 51652 C 27.7799 4.12613 6.37049 0
M  V30 51653 O 27.5699 3.72827 4.97879 0
M  V30 51654 C 26.3799 4.45085 6.88694 0
M  V30 51655 O 25.9899 5.7877 6.5624 0
M  V30 51656 C 25.4999 3.47817 6.12078 0
M  V30 51657 C 26.2099 3.39414 4.77697 0
M  V30 51658 N 26.1599 2.04615 4.15333 0
M  V30 51659 H 28.9989 3.41248 7.98759 0
M  V30 51660 H 29.2709 2.5837 6.41742 0
M  V30 51661 H 28.4029 5.02657 6.42673 0
M  V30 51662 P 24.4399 6.144 6.45285 0
M  V30 51663 O 24.2199 7.54673 6.86199 0
M  V30 51664 O 23.6499 5.12391 7.179 0
M  V30 51665 O 24.1899 5.99236 4.88467 0
M  V30 51666 C 25.1299 6.60234 3.96415 0
M  V30 51667 C 24.3999 7.08079 2.736 0
M  V30 51668 O 24.1899 5.94365 1.8368 0
M  V30 51669 C 22.9999 7.64886 2.9555 0
M  V30 51670 O 22.6099 8.5406 1.90739 0
M  V30 51671 C 22.1199 6.4116 2.90739 0
M  V30 51672 C 22.8299 5.55375 1.86963 0
M  V30 51673 N 22.7799 4.09664 2.15742 0
M  V30 51674 C 22.6299 3.22231 1.08477 0
M  V30 51675 O 22.5399 3.68951 -0.0600489 0
M  V30 51676 N 22.5799 1.76692 1.48799 0
M  V30 51677 C 22.6799 1.41695 2.57602 0
M  V30 51678 N 22.6299 0.107296 2.75791 0
M  V30 51679 C 22.8299 2.29178 3.69733 0
M  V30 51680 C 22.8799 3.62753 3.42653 0
M  V30 51681 H 25.6199 7.45488 4.45578 0
M  V30 51682 H 25.8899 5.86232 3.67314 0
M  V30 51683 H 25.0229 7.84508 2.24507 0
M  V30 51684 H 22.3679 5.73556 0.888715 0
M  V30 51685 H 22.0879 5.9096 3.88638 0
M  V30 51686 H 21.0969 6.66053 2.58894 0
M  V30 51687 H 22.9309 8.16339 3.92049 0
M  V30 51688 H 23.0029 4.33052 4.24913 0
M  V30 51689 H 22.9009 1.9103 4.71577 0
M  V30 51690 H 22.5129 -0.521221 1.95056 0
M  V30 51691 H 22.7089 -0.286429 3.70695 0
M  V30 51692 P 21.0599 8.7635 1.60911 0
M  V30 51693 O 20.8399 10.1388 1.11561 0
M  V30 51694 O 20.2699 8.36503 2.79617 0
M  V30 51695 O 20.8099 7.71906 0.429565 0
M  V30 51696 C 21.7499 7.67148 -0.673689 0
M  V30 51697 C 21.0199 7.33666 -1.94851 0
M  V30 51698 O 20.8099 5.88816 -2.00759 0
M  V30 51699 C 19.6199 7.92526 -2.10483 0
M  V30 51700 O 19.2299 8.03063 -3.47693 0
M  V30 51701 C 18.7399 6.89602 -1.41652 0
M  V30 51702 C 19.4499 5.59201 -1.75185 0
M  V30 51703 N 19.3999 4.58235 -0.662552 0
M  V30 51704 C 19.2499 3.24451 -1.01643 0
M  V30 51705 O 19.1599 2.94958 -2.21722 0
M  V30 51706 N 19.1999 2.30408 0.165238 0
M  V30 51707 C 19.2999 2.66048 1.25118 0
M  V30 51708 N 19.2499 1.70787 2.16813 0
M  V30 51709 C 19.4499 4.02732 1.64413 0
M  V30 51710 C 19.4999 4.9488 0.63991 0
M  V30 51711 H 22.2399 8.65017 -0.777072 0
M  V30 51712 H 22.5099 6.90173 -0.474152 0
M  V30 51713 H 21.6429 7.66642 -2.79492 0
M  V30 51714 H 18.9879 5.16254 -2.65229 0
M  V30 51715 H 18.7079 7.06532 -0.329431 0
M  V30 51716 H 17.7169 6.91023 -1.82047 0
M  V30 51717 H 19.5509 8.90873 -1.62657 0
M  V30 51718 H 19.6229 6.00104 0.892197 0
M  V30 51719 H 19.5209 4.31733 2.69229 0
M  V30 51720 H 19.1329 0.724835 1.8844 0
M  V30 51721 H 19.3289 1.94716 3.16734 0
M  V30 51722 P 17.6799 8.03563 -3.84925 0
M  V30 51723 O 17.4599 8.85821 -5.0569 0
M  V30 51724 O 16.8899 8.41101 -2.65469 0
M  V30 51725 O 17.4299 6.4965 -4.18908 0
M  V30 51726 C 18.3699 5.80886 -5.05289 0
M  V30 51727 C 17.6399 4.78366 -5.89277 0
M  V30 51728 O 17.4299 3.58302 -5.08433 0
M  V30 51729 C 16.2399 5.16748 -6.36559 0
M  V30 51730 O 15.8499 4.45271 -7.53232 0
M  V30 51731 C 15.3599 4.74572 -5.19863 0
M  V30 51732 C 16.0699 3.49373 -4.70338 0
M  V30 51733 N 16.0199 3.31704 -3.22876 0
M  V30 51734 C 15.8699 2.03326 -2.74871 0
M  V30 51735 O 15.7799 1.06486 -3.48076 0
M  V30 51736 N 15.8299 1.91838 -1.37456 0
M  V30 51737 C 15.9199 2.94295 -0.462035 0
M  V30 51738 O 15.8699 2.71763 0.752928 0
M  V30 51739 C 16.0699 4.25064 -1.05249 0
M  V30 51740 C 16.1799 5.39815 -0.095697 0
M  V30 51741 C 16.1199 4.40214 -2.39192 0
M  V30 51742 H 18.8609 6.54063 -5.71245 0
M  V30 51743 H 19.1299 5.30339 -4.43905 0
M  V30 51744 H 18.2629 4.55889 -6.76652 0
M  V30 51745 H 15.6079 2.6167 -5.17842 0
M  V30 51746 H 15.3289 5.52155 -4.41878 0
M  V30 51747 H 14.3369 4.51918 -5.53297 0
M  V30 51748 H 16.1709 6.25055 -6.55162 0
M  V30 51749 H 16.2419 5.39798 -2.81523 0
M  V30 51750 H 15.2119 5.91593 -0.0279582 0
M  V30 51751 H 16.9489 6.10038 -0.450573 0
M  V30 51752 H 16.4609 5.02007 0.89937 0
M  V30 51753 H 15.7249 0.995326 -1.00435 0
M  V30 51754 P 14.2999 4.23843 -7.83734 0
M  V30 51755 O 14.0799 4.19407 -9.29784 0
M  V30 51756 O 13.5099 5.24426 -7.09156 0
M  V30 51757 O 14.0499 2.7935 -7.20758 0
M  V30 51758 C 14.9899 1.72945 -7.50224 0
M  V30 51759 C 14.2599 0.406376 -7.57911 0
M  V30 51760 O 14.0499 -0.0897726 -6.21935 0
M  V30 51761 C 12.8599 0.438983 -8.18724 0
M  V30 51762 O 12.4699 -0.825065 -8.71101 0
M  V30 51763 C 11.9799 0.783689 -6.99524 0
M  V30 51764 C 12.6899 0.0619086 -5.85867 0
M  V30 51765 N 12.6399 0.78573 -4.56183 0
M  V30 51766 C 12.4899 0.0292889 -3.41887 0
M  V30 51767 O 12.3999 -1.18445 -3.4419 0
M  V30 51768 N 12.4499 0.744061 -2.23964 0
M  V30 51769 C 12.5399 2.10932 -2.10362 0
M  V30 51770 O 12.4899 2.64117 -0.98825 0
M  V30 51771 C 12.6899 2.8202 -3.34994 0
M  V30 51772 C 12.7999 4.31095 -3.25037 0
M  V30 51773 C 12.7399 2.15547 -4.52261 0
M  V30 51774 H 15.4809 1.93379 -8.46595 0
M  V30 51775 H 15.7499 1.68132 -6.70852 0
M  V30 51776 H 14.8829 -0.289041 -8.15388 0
M  V30 51777 H 12.2279 -0.926847 -5.72749 0
M  V30 51778 H 11.9489 1.86973 -6.82036 0
M  V30 51779 H 10.9569 0.403896 -7.13257 0
M  V30 51780 H 12.7909 1.20585 -8.97435 0
M  V30 51781 H 12.8619 2.71231 -5.45042 0
M  V30 51782 H 11.8319 4.76966 -3.49992 0
M  V30 51783 H 13.5689 4.67047 -3.95024 0
M  V30 51784 H 13.0809 4.58996 -2.22312 0
M  V30 51785 H 12.3449 0.214893 -1.39758 0
M  V30 51786 P 10.92 -1.17771 -8.83182 0
M  V30 51787 O 10.7 -2.07206 -9.98732 0
M  V30 51788 O 10.13 0.0743816 -8.81969 0
M  V30 51789 O 10.67 -1.97652 -7.47304 0
M  V30 51790 C 11.61 -3.01133 -7.08783 0
M  V30 51791 C 10.88 -4.12613 -6.37049 0
M  V30 51792 O 10.67 -3.72827 -4.97879 0
M  V30 51793 C 9.47996 -4.45085 -6.88694 0
M  V30 51794 O 9.08996 -5.7877 -6.5624 0
M  V30 51795 C 8.59996 -3.47817 -6.12078 0
M  V30 51796 C 9.30996 -3.39414 -4.77697 0
M  V30 51797 N 9.25996 -2.04615 -4.15333 0
M  V30 51798 C 9.33996 -0.803897 -4.75249 0
M  V30 51799 N 9.25996 0.197615 -3.91502 0
M  V30 51800 C 9.11996 -0.413002 -2.66823 0
M  V30 51801 C 8.98996 0.157221 -1.38007 0
M  V30 51802 O 8.96996 1.34419 -1.057 0
M  V30 51803 N 8.86996 -0.833136 -0.390236 0
M  V30 51804 C 8.86996 -2.19402 -0.623885 0
M  V30 51805 N 8.73996 -2.97622 0.449677 0
M  V30 51806 N 8.99996 -2.73005 -1.83601 0
M  V30 51807 C 9.11996 -1.78786 -2.80935 0
M  V30 51808 H 12.099 -3.41248 -7.98759 0
M  V30 51809 H 12.371 -2.5837 -6.41742 0
M  V30 51810 H 11.503 -5.02657 -6.42673 0
M  V30 51811 H 8.84796 -4.11779 -4.09026 0
M  V30 51812 H 8.56796 -2.49661 -6.61772 0
M  V30 51813 H 7.57696 -3.86674 -6.00946 0
M  V30 51814 H 9.41096 -4.30038 -7.97094 0
M  V30 51815 H 9.45996 -0.670579 -5.82754 0
M  V30 51816 H 8.77796 -0.528446 0.557287 0
M  V30 51817 H 8.74096 -4.00117 0.344773 0
M  V30 51818 H 8.63996 -2.55448 1.38544 0
M  V30 51819 P 7.53998 -6.144 -6.45285 0
M  V30 51820 O 7.31998 -7.54673 -6.86199 0
M  V30 51821 O 6.74998 -5.12391 -7.179 0
M  V30 51822 O 7.28998 -5.99158 -4.88404 0
M  V30 51823 C 8.22998 -6.60234 -3.96415 0
M  V30 51824 C 7.49998 -7.08259 -2.72856 0
M  V30 51825 O 7.28998 -5.9427 -1.83651 0
M  V30 51826 C 6.09998 -7.64886 -2.9555 0
M  V30 51827 O 5.70998 -8.53963 -1.90717 0
M  V30 51828 C 5.21998 -6.4116 -2.90739 0
M  V30 51829 C 5.92998 -5.55375 -1.86963 0
M  V30 51830 N 5.87998 -4.09664 -2.15742 0
M  V30 51831 H 8.71898 -7.45574 -4.45629 0
M  V30 51832 H 8.99098 -5.86232 -3.67314 0
M  V30 51833 H 8.12298 -7.84412 -2.24479 0
M  V30 51834 P 4.16 -8.7635 -1.60911 0
M  V30 51835 O 3.94 -10.1388 -1.11561 0
M  V30 51836 O 3.37 -8.36503 -2.79617 0
M  V30 51837 O 3.91 -7.71806 -0.42951 0
M  V30 51838 C 4.85 -7.67148 0.673689 0
M  V30 51839 C 4.12 -7.33374 1.95559 0
M  V30 51840 O 3.91 -5.88721 2.00726 0
M  V30 51841 C 2.72 -7.92526 2.10483 0
M  V30 51842 O 2.33 -8.02971 3.47653 0
M  V30 51843 C 1.84 -6.89602 1.41652 0
M  V30 51844 C 2.55 -5.59201 1.75185 0
M  V30 51845 N 2.5 -4.58235 0.662552 0
M  V30 51846 H 5.339 -8.65116 0.777161 0
M  V30 51847 H 5.611 -6.90173 0.474152 0
M  V30 51848 H 4.743 -7.66548 2.79458 0
M  V30 51849 H 1.613 -8.66322 3.55694 0
M  V30 END ATOM
M  V30 BEGIN BOND
M  V30 END BOND
M  V30 END CTAB
M  END
$$$$
