drugbank_target|L0DSL2 Cytochrome c-552 (DB02580)
 OpenBabel12092120503D

  0  0  0     0  0            999 V3000
M  V30 BEGIN CTAB
M  V30 COUNTS 8495 8609 0 0 0
M  V30 BEGIN ATOM
M  V30 1 H -0.908 1.98254 -0.117106 0
M  V30 2 N 0 1.576 0 0
M  V30 3 C 0.933 2.03868 1.02534 0
M  V30 4 C 1.911 0.928543 1.3348 0
M  V30 5 O 3.095 1.19667 1.45644 0
M  V30 6 C 0.222 2.43627 2.35294 0
M  V30 7 C -0.732 3.65373 2.2001 0
M  V30 8 S 0.101 5.13292 1.52614 0
M  V30 9 C 1.257 5.56322 2.86805 0
M  V30 10 H 1.49 2.90518 0.631377 0
M  V30 11 H -0.977 1.52953 0.210867 0
M  V30 12 H 0.981 2.67203 3.11629 0
M  V30 13 H -0.358 1.57376 2.7183 0
M  V30 14 H -1.165 3.90944 3.18086 0
M  V30 15 H -1.563 3.418 1.51819 0
M  V30 16 H 0.729 5.58782 3.83104 0
M  V30 17 H 1.672 6.56266 2.65933 0
M  V30 18 H 2.08 4.83886 2.90714 0
M  V30 19 N 1.4781 -0.272755 1.55222 0
M  V30 20 C 2.4261 -1.35705 1.88909 0
M  V30 21 C 3.4201 -1.5112 0.765456 0
M  V30 22 O 4.6261 -1.52901 0.949802 0
M  V30 23 H 1.0011 -0.453868 0.59959 0
M  V30 24 H 2.9721 -1.04544 2.79487 0
M  V30 25 C 1.7211 -2.71049 2.17779 0
M  V30 26 H 1.0441 -2.59979 3.03728 0
M  V30 27 H 2.4841 -3.45858 2.45272 0
M  V30 28 C 0.9431 -3.22165 0.985473 0
M  V30 29 O 1.4731 -4.01096 0.220233 0
M  V30 30 N -0.3209 -2.7985 0.783108 0
M  V30 31 H -0.7739 -2.15775 1.40708 0
M  V30 32 H -0.8159 -3.14397 -0.0130392 0
M  V30 33 N 2.9562 -1.48159 -0.537278 0
M  V30 34 C 4.2332 -1.46291 -1.29839 0
M  V30 35 C 4.6132 -0.170613 -2.10409 0
M  V30 36 O 3.9612 0.847746 -2.12192 0
M  V30 37 C 4.1712 -2.72055 -2.18603 0
M  V30 38 C 5.5192 -3.20087 -2.7898 0
M  V30 39 O 6.5432 -2.72921 -2.28894 0
M  V30 40 O 5.4022 -4.02138 -3.70064 0
M  V30 41 H 2.4962 -0.583906 -0.585647 0
M  V30 42 H 5.0422 -1.60384 -0.554534 0
M  V30 43 H 3.8142 -3.57628 -1.58801 0
M  V30 44 H 3.4372 -2.60646 -3.00249 0
M  V30 45 N 4.4343 0.785586 -1.36625 0
M  V30 46 C 5.3643 1.91259 -1.33949 0
M  V30 47 C 6.3453 1.68795 -0.210325 0
M  V30 48 O 7.5303 1.89854 -0.408561 0
M  V30 49 C 4.6603 3.28339 -1.13186 0
M  V30 50 C 3.6143 3.65335 -2.22967 0
M  V30 51 C 2.9403 5.00806 -1.87342 0
M  V30 52 C 4.2403 3.7352 -3.65075 0
M  V30 53 H 5.9343 1.93755 -2.28253 0
M  V30 54 H 3.4803 0.930788 -1.09874 0
M  V30 55 H 5.4333 4.06804 -1.09948 0
M  V30 56 H 4.1573 3.2624 -0.153332 0
M  V30 57 H 2.8163 2.89169 -2.25337 0
M  V30 58 H 2.4643 4.95233 -0.880545 0
M  V30 59 H 2.1643 5.26529 -2.60846 0
M  V30 60 H 3.6883 5.81687 -1.85667 0
M  V30 61 H 5.1023 4.42168 -3.64911 0
M  V30 62 H 3.4993 4.10731 -4.37516 0
M  V30 63 H 4.5693 2.74527 -3.99703 0
M  V30 64 N 5.9124 1.20967 1.01018 0
M  V30 65 C 6.8604 0.961223 2.1181 0
M  V30 66 C 7.8544 -0.0897034 1.69162 0
M  V30 67 O 9.0604 0.0612271 1.79896 0
M  V30 68 H 5.4354 0.29355 0.692338 0
M  V30 69 H 7.4064 1.90178 2.29946 0
M  V30 70 C 6.1554 0.536854 3.4353 0
M  V30 71 H 5.4784 1.33713 3.76777 0
M  V30 72 H 6.9184 0.402286 4.22087 0
M  V30 73 C 5.3774 -0.751574 3.2841 0
M  V30 74 O 5.9074 -1.80841 3.58691 0
M  V30 75 N 4.1134 -0.716079 2.81639 0
M  V30 76 H 3.6604 0.144236 2.57196 0
M  V30 77 H 3.6184 -1.57847 2.71904 0
M  V30 78 N 7.3905 -1.2043 1.01659 0
M  V30 79 C 8.8065 -1.41852 0.731442 0
M  V30 80 C 9.0065 -1.89358 -0.688898 0
M  V30 81 O 8.0625 -2.06247 -1.45666 0
M  V30 82 C 9.3755 -2.44019 1.75714 0
M  V30 83 C 10.9235 -2.57785 1.77527 0
M  V30 84 C 11.3985 -3.63194 2.79023 0
M  V30 85 N 12.8895 -3.70678 2.77763 0
M  V30 86 C 13.6245 -4.51897 3.52954 0
M  V30 87 N 13.1205 -5.36921 4.37821 0
M  V30 88 N 14.9135 -4.4643 3.41551 0
M  V30 89 H 7.0645 -0.879093 1.93354 0
M  V30 90 H 9.3275 -0.448425 0.835236 0
M  V30 91 H 9.0335 -2.1611 2.77469 0
M  V30 92 H 8.9075 -3.43007 1.56927 0
M  V30 93 H 11.2945 -2.85023 0.764569 0
M  V30 94 H 11.3755 -1.58992 2.00387 0
M  V30 95 H 11.0195 -3.36699 3.80258 0
M  V30 96 H 10.9495 -4.61609 2.53425 0
M  V30 97 H 13.4405 -3.09944 2.16201 0
M  V30 98 H 13.7535 -5.95981 4.91962 0
M  V30 99 H 12.0985 -5.36424 4.41899 0
M  V30 100 H 15.2895 -3.79042 2.74672 0
M  V30 101 H 15.4625 -5.09491 4.00404 0
M  V30 102 N 8.8686 -0.792821 -1.36206 0
M  V30 103 C 9.7986 -0.207853 -2.32573 0
M  V30 104 C 10.7796 0.659055 -1.56813 0
M  V30 105 O 11.9646 0.592176 -1.84951 0
M  V30 106 C 9.0946 0.655449 -3.41059 0
M  V30 107 C 8.0486 -0.111842 -4.27854 0
M  V30 108 C 7.3746 0.872274 -5.27537 0
M  V30 109 C 8.6746 -1.30299 -5.05786 0
M  V30 110 H 10.3686 -1.01294 -2.81744 0
M  V30 111 H 7.9146 -0.48854 -1.3546 0
M  V30 112 H 9.8676 1.07464 -4.07467 0
M  V30 113 H 8.5916 1.49328 -2.90463 0
M  V30 114 H 7.2506 -0.512053 -3.63006 0
M  V30 115 H 6.8986 1.70523 -4.73214 0
M  V30 116 H 6.5986 0.363291 -5.86476 0
M  V30 117 H 8.1226 1.28996 -5.96818 0
M  V30 118 H 9.5366 -0.959379 -5.65216 0
M  V30 119 H 7.9336 -1.7455 -5.74154 0
M  V30 120 H 9.0036 -2.09663 -4.37229 0
M  V30 121 N 10.3467 1.47872 -0.545128 0
M  V30 122 C 11.5947 2.02093 -0.016553 0
M  V30 123 C 11.9157 1.42305 1.3332 0
M  V30 124 O 11.1857 0.593853 1.86682 0
M  V30 125 H 9.7657 0.746993 -0.00313038 0
M  V30 126 H 12.4277 1.81414 -0.712397 0
M  V30 127 H 11.5237 3.11996 0.0805422 0
M  V30 128 N 11.8248 0.280983 1.55075 0
M  V30 129 C 13.2408 -0.0729964 1.59433 0
M  V30 130 C 13.4408 -1.5411 1.29817 0
M  V30 131 O 12.4968 -2.29086 1.06187 0
M  V30 132 C 13.8098 0.306921 2.9913 0
M  V30 133 C 15.3578 0.254023 3.11968 0
M  V30 134 C 15.8328 0.608467 4.5394 0
M  V30 135 N 17.3238 0.560241 4.59799 0
M  V30 136 C 18.0588 0.80722 5.6769 0
M  V30 137 N 17.5548 1.11912 6.83701 0
M  V30 138 N 19.3478 0.735623 5.57266 0
M  V30 139 H 11.4988 1.238 1.7259 0
M  V30 140 H 13.7618 0.500547 0.805082 0
M  V30 141 H 13.4678 1.32816 3.25657 0
M  V30 142 H 13.3418 -0.349363 3.75579 0
M  V30 143 H 15.7288 -0.75794 2.852 0
M  V30 144 H 15.8098 0.944649 2.37718 0
M  V30 145 H 15.4538 1.61814 4.81434 0
M  V30 146 H 15.3838 -0.104013 5.26497 0
M  V30 147 H 17.8748 0.329288 3.76463 0
M  V30 148 H 18.1878 1.29409 7.61888 0
M  V30 149 H 16.5328 1.15695 6.85303 0
M  V30 150 H 19.7238 0.491752 4.6551 0
M  V30 151 H 19.8968 0.931482 6.4127 0
M  V30 152 N 13.3029 -1.57598 0.00835791 0
M  V30 153 C 14.5489 -1.91211 -0.675732 0
M  V30 154 C 14.8819 -0.883139 -1.72958 0
M  V30 155 O 14.1569 0.097016 -1.94258 0
M  V30 156 C 14.4399 -3.35379 -1.31123 0
M  V30 157 C 14.2929 -4.48999 -0.268356 0
M  V30 158 C 15.6119 -3.7912 -2.23508 0
M  V30 159 H 12.7309 -0.695374 -0.244179 0
M  V30 160 H 15.3729 -1.89901 0.0613655 0
M  V30 161 H 13.5229 -3.36626 -1.93946 0
M  V30 162 H 15.1949 -4.59887 0.360844 0
M  V30 163 H 13.4379 -4.31873 0.408482 0
M  V30 164 H 14.1089 -5.46851 -0.752218 0
M  V30 165 H 16.5849 -3.79477 -1.70693 0
M  V30 166 H 15.4609 -4.80729 -2.64936 0
M  V30 167 H 15.7219 -3.13455 -3.11766 0
M  V30 168 N 14.781 0.264519 -1.55364 0
M  V30 169 C 16.029 0.993021 -1.76021 0
M  V30 170 C 16.35 1.86511 -0.569099 0
M  V30 171 O 15.62 1.91438 0.415735 0
M  V30 172 H 14.2 0.369639 -0.649135 0
M  V30 173 H 16.862 0.286707 -1.9278 0
M  V30 174 H 15.958 1.62502 -2.66457 0
M  V30 175 N 16.2591 1.48442 0.529413 0
M  V30 176 C 17.6751 1.34575 0.858004 0
M  V30 177 C 17.8751 0.3572 1.98309 0
M  V30 178 O 16.9311 -0.221379 2.51528 0
M  V30 179 C 18.2441 2.74617 1.22499 0
M  V30 180 C 19.7921 2.83109 1.33484 0
M  V30 181 C 20.2671 4.23854 1.73526 0
M  V30 182 N 21.7581 4.2653 1.80628 0
M  V30 183 C 22.4931 5.32372 2.12997 0
M  V30 184 N 21.9891 6.48491 2.43786 0
M  V30 185 N 23.7821 5.19766 2.14008 0
M  V30 186 H 15.9331 2.1133 -0.212925 0
M  V30 187 H 18.1961 0.947439 -0.0326199 0
M  V30 188 H 17.9021 3.4852 0.471905 0
M  V30 189 H 17.7761 3.08177 2.17501 0
M  V30 190 H 20.1631 2.09462 2.0787 0
M  V30 191 H 20.2441 2.53168 0.366027 0
M  V30 192 H 19.8881 4.98018 0.997013 0
M  V30 193 H 19.8181 4.5124 2.71459 0
M  V30 194 H 22.3091 3.42772 1.59108 0
M  V30 195 H 22.6221 7.24993 2.67592 0
M  V30 196 H 20.9671 6.51765 2.41304 0
M  V30 197 H 24.1581 4.28066 1.89412 0
M  V30 198 H 24.3311 6.02354 2.38902 0
M  V30 199 N 17.7372 -0.778329 1.37039 0
M  V30 200 C 18.9832 -1.53817 1.33086 0
M  V30 201 C 19.3382 -1.92208 -0.0860346 0
M  V30 202 O 18.6312 -1.60713 -1.04316 0
M  V30 203 C 18.8252 -2.81845 2.19768 0
M  V30 204 C 18.6542 -2.55967 3.69744 0
M  V30 205 C 17.4242 -2.50428 4.38878 0
M  V30 206 C 19.6222 -2.2441 4.62758 0
M  V30 207 N 17.6042 -2.16564 5.74433 0
M  V30 208 C 18.9752 -2.0063 5.86641 0
M  V30 209 C 21.0302 -2.1051 4.5121 0
M  V30 210 C 19.7332 -1.64354 7.00272 0
M  V30 211 C 21.7592 -1.75634 5.64718 0
M  V30 212 C 21.1212 -1.52709 6.87648 0
M  V30 213 H 17.2202 -0.563434 0.542279 0
M  V30 214 H 19.8042 -0.908617 1.72198 0
M  V30 215 H 17.9752 -3.42649 1.82883 0
M  V30 216 H 19.7072 -3.47682 2.07122 0
M  V30 217 H 16.4622 -2.66056 3.91805 0
M  V30 218 H 16.8862 -2.02348 6.46053 0
M  V30 219 H 21.5282 -2.26919 3.56746 0
M  V30 220 H 19.2462 -1.46683 7.94676 0
M  V30 221 H 22.8322 -1.65546 5.57751 0
M  V30 222 H 21.7122 -1.2612 7.73992 0
M  V30 223 N 19.2153 -1.21501 -1.00376 0
M  V30 224 C 20.4643 -1.02718 -1.73586 0
M  V30 225 C 20.7773 0.439589 -1.90596 0
M  V30 226 O 21.9833 0.746848 -2.61026 0
M  V30 227 C 20.4393 -1.78929 -3.1227 0
M  V30 228 C 20.0473 -3.29783 -3.03228 0
M  V30 229 C 21.7913 -1.68557 -3.89601 0
M  V30 230 C 19.6983 -3.98479 -4.36999 0
M  V30 231 H 18.6283 -0.380733 -0.650814 0
M  V30 232 H 21.2793 -1.45248 -1.1214 0
M  V30 233 H 19.6613 -1.29192 -3.74333 0
M  V30 234 H 20.8353 -3.86832 -2.50395 0
M  V30 235 H 19.1503 -3.40711 -2.39385 0
M  V30 236 H 21.7473 -2.17211 -4.88593 0
M  V30 237 H 22.0903 -0.644021 -4.11288 0
M  V30 238 H 22.6233 -2.15778 -3.34193 0
M  V30 239 H 19.3623 -5.02841 -4.20513 0
M  V30 240 H 18.8823 -3.46219 -4.89788 0
M  V30 241 H 20.5613 -4.03462 -5.05794 0
M  V30 242 N 20.6934 1.19889 -1.02296 0
M  V30 243 C 21.6564 2.21116 -0.603351 0
M  V30 244 C 22.6564 1.5738 0.329884 0
M  V30 245 O 23.8464 1.73802 0.117702 0
M  V30 246 C 20.9784 3.40696 0.117992 0
M  V30 247 H 22.1714 2.59754 -1.49893 0
M  V30 248 H 19.7244 1.33463 -0.813468 0
M  V30 249 H 20.4594 3.07569 1.0282 0
M  V30 250 H 20.2444 3.88188 -0.552511 0
M  V30 251 H 21.7344 4.15692 0.398696 0
M  V30 252 N 22.1715 0.800033 1.35784 0
M  V30 253 C 23.4195 0.376597 1.9856 0
M  V30 254 C 23.7405 -1.05812 1.63795 0
M  V30 255 O 23.0105 -1.73103 0.917171 0
M  V30 256 H 21.5905 0.136261 0.734467 0
M  V30 257 H 24.2525 1.02442 1.65806 0
M  V30 258 H 23.3485 0.477002 3.08433 0
M  V30 259 N 23.6496 -1.47581 0.552962 0
M  V30 260 C 24.6126 -2.28439 -0.186605 0
M  V30 261 C 25.6126 -1.36706 -0.84665 0
M  V30 262 O 26.8026 -1.59378 -0.703164 0
M  V30 263 C 23.9346 -3.16264 -1.2724 0
M  V30 264 H 25.1276 -2.95294 0.523609 0
M  V30 265 H 22.6806 -1.532 0.309745 0
M  V30 266 H 23.4156 -2.54091 -2.01514 0
M  V30 267 H 23.2006 -3.83769 -0.803968 0
M  V30 268 H 24.6906 -3.77198 -1.79196 0
M  V30 269 N 25.1277 -0.289203 -1.54924 0
M  V30 270 C 26.0907 0.579144 -2.21762 0
M  V30 271 C 27.0907 1.07047 -1.1999 0
M  V30 272 O 28.2807 0.968384 -1.44803 0
M  V30 273 C 25.4127 1.80055 -2.8947 0
M  V30 274 H 26.6057 -0.00464908 -2.999 0
M  V30 275 H 24.1587 -0.0399306 -1.56249 0
M  V30 276 H 24.8937 2.42449 -2.15381 0
M  V30 277 H 24.6787 1.45602 -3.64064 0
M  V30 278 H 26.1687 2.41773 -3.40493 0
M  V30 279 N 26.6058 1.57591 -0.0167156 0
M  V30 280 C 27.8458 1.93145 0.668902 0
M  V30 281 C 28.2098 0.892406 1.7 0
M  V30 282 O 29.4108 1.13373 2.43721 0
M  V30 283 C 27.6818 3.33678 1.28039 0
M  V30 284 S 29.2408 3.91142 1.9888 0
M  V30 285 H 26.0588 0.67593 0.220545 0
M  V30 286 H 28.6608 1.95347 -0.0774105 0
M  V30 287 H 27.3648 4.07126 0.517339 0
M  V30 288 H 26.8958 3.3489 2.06427 0
M  V30 289 H 28.9108 3.73571 3.26587 0
M  V30 290 N 28.0839 -0.256276 1.55502 0
M  V30 291 C 29.0139 -1.32102 1.92539 0
M  V30 292 C 29.9949 -1.50684 0.789194 0
M  V30 293 O 31.1799 -1.63449 1.04872 0
M  V30 294 C 28.3099 -2.67752 2.21192 0
M  V30 295 C 27.2639 -2.63878 3.36975 0
M  V30 296 C 26.5899 -4.03236 3.51147 0
M  V30 297 C 27.8899 -2.21682 4.72921 0
M  V30 298 H 29.5839 -1.01351 2.81724 0
M  V30 299 H 27.1299 -0.486105 1.35547 0
M  V30 300 H 29.0829 -3.42365 2.45691 0
M  V30 301 H 27.8069 -3.0012 1.28824 0
M  V30 302 H 26.4659 -1.91722 3.12471 0
M  V30 303 H 26.1139 -4.32854 2.56216 0
M  V30 304 H 25.8139 -4.01535 4.29003 0
M  V30 305 H 27.3379 -4.79563 3.77957 0
M  V30 306 H 28.7519 -2.86023 4.96854 0
M  V30 307 H 27.1489 -2.3111 5.53812 0
M  V30 308 H 28.2189 -1.16833 4.70615 0
M  V30 309 N 29.562 -1.4872 -0.521534 0
M  V30 310 C 30.809 -1.57168 -1.27689 0
M  V30 311 C 31.137 -0.249275 -1.92896 0
M  V30 312 O 30.392 0.761162 -1.80291 0
M  V30 313 C 30.691 -2.66497 -2.38148 0
M  V30 314 C 30.357 -4.08664 -1.90538 0
M  V30 315 C 29.019 -4.47357 -1.77271 0
M  V30 316 C 31.371 -4.97724 -1.54663 0
M  V30 317 C 28.699 -5.72905 -1.26478 0
M  V30 318 C 31.051 -6.2377 -1.05329 0
M  V30 319 C 29.715 -6.61311 -0.906861 0
M  V30 320 H 28.985 -0.575117 -0.467249 0
M  V30 321 H 31.632 -1.82472 -0.581051 0
M  V30 322 H 29.937 -2.35085 -3.13437 0
M  V30 323 H 31.634 -2.70246 -2.96257 0
M  V30 324 H 28.224 -3.78111 -2.01816 0
M  V30 325 H 32.408 -4.68501 -1.63768 0
M  V30 326 H 27.664 -6.00709 -1.13835 0
M  V30 327 H 31.838 -6.9217 -0.76644 0
M  V30 328 H 29.465 -7.5848 -0.511083 0
M  V30 329 N 31.0401 0.771051 -1.3745 0
M  V30 330 C 31.9701 1.89827 -1.3597 0
M  V30 331 C 32.9511 1.68562 -0.228216 0
M  V30 332 O 34.1361 1.8941 -0.428675 0
M  V30 333 C 31.2661 3.2712 -1.16662 0
M  V30 334 C 30.2201 3.6295 -2.2683 0
M  V30 335 C 29.5461 4.98791 -1.92644 0
M  V30 336 C 30.8461 3.69627 -3.69017 0
M  V30 337 H 32.5401 1.91323 -2.30295 0
M  V30 338 H 30.0861 0.919082 -1.10855 0
M  V30 339 H 32.0391 4.05615 -1.14256 0
M  V30 340 H 30.7631 3.26059 -0.187926 0
M  V30 341 H 29.4221 2.86763 -2.28392 0
M  V30 342 H 29.0701 4.94271 -0.933021 0
M  V30 343 H 28.7701 5.23733 -2.66416 0
M  V30 344 H 30.2941 5.79685 -1.91826 0
M  V30 345 H 31.7081 4.38273 -3.69581 0
M  V30 346 H 30.1051 4.06067 -4.41848 0
M  V30 347 H 31.1751 2.70273 -4.02592 0
M  V30 348 N 32.5182 1.22032 0.997298 0
M  V30 349 C 33.4812 0.987909 2.06816 0
M  V30 350 C 34.4812 -0.0440084 1.6074 0
M  V30 351 O 35.6712 0.194053 1.73116 0
M  V30 352 C 32.8032 0.49132 3.37341 0
M  V30 353 H 33.9962 1.93803 2.28868 0
M  V30 354 H 31.5492 1.03838 1.16822 0
M  V30 355 H 32.2842 -0.463364 3.20973 0
M  V30 356 H 32.0692 1.23575 3.72118 0
M  V30 357 H 33.5592 0.348824 4.16141 0
M  V30 358 N 33.9963 -1.19345 1.0293 0
M  V30 359 C 35.2213 -1.93538 0.745511 0
M  V30 360 C 35.6463 -1.75007 -0.689511 0
M  V30 361 O 35.0043 -1.05265 -1.47611 0
M  V30 362 C 35.0523 -3.43336 1.10239 0
M  V30 363 O 34.1563 -4.11806 0.221289 0
M  V30 364 H 33.4973 -0.604193 0.275404 0
M  V30 365 H 36.0273 -1.5141 1.37609 0
M  V30 366 H 36.0373 -3.94004 1.05947 0
M  V30 367 H 34.7123 -3.56146 2.14786 0
M  V30 368 H 33.2893 -3.715 0.322842 0
M  V30 369 N 35.4744 -0.807222 -1.35358 0
M  V30 370 C 36.4374 -0.223665 -2.28106 0
M  V30 371 C 37.4374 0.589354 -1.4961 0
M  V30 372 O 38.6274 0.407745 -1.69361 0
M  V30 373 C 35.7594 0.688149 -3.33882 0
M  V30 374 H 36.9524 -1.04169 -2.81227 0
M  V30 375 H 34.5054 -0.577921 -1.45223 0
M  V30 376 H 35.2404 1.52984 -2.85948 0
M  V30 377 H 35.0254 0.10687 -3.91954 0
M  V30 378 H 36.5154 1.09075 -4.03104 0
M  V30 379 N 36.9525 1.47285 -0.560781 0
M  V30 380 C 37.9155 2.28535 0.174488 0
M  V30 381 C 38.9155 1.37153 0.839388 0
M  V30 382 O 40.1055 1.59748 0.694702 0
M  V30 383 C 37.2375 3.16934 1.25561 0
M  V30 384 H 38.4305 2.95012 -0.539262 0
M  V30 385 H 35.9835 1.53034 -0.317865 0
M  V30 386 H 36.7185 2.55157 2.00164 0
M  V30 387 H 36.5035 3.8419 0.783604 0
M  V30 388 H 37.9935 3.78143 1.77193 0
M  V30 389 N 38.4306 0.297415 1.54768 0
M  V30 390 C 39.3806 -0.595275 2.20092 0
M  V30 391 C 40.3646 -1.10163 1.17273 0
M  V30 392 O 41.5566 -1.043 1.43006 0
M  V30 393 C 38.6856 -1.7684 2.94249 0
M  V30 394 C 37.7716 -1.27818 4.0438 0
M  V30 395 N 38.1626 -0.505695 5.03266 0
M  V30 396 C 36.4606 -1.55923 4.17857 0
M  V30 397 C 37.1616 -0.245094 5.81183 0
M  V30 398 N 36.1376 -0.823881 5.3732 0
M  V30 399 H 39.9396 0.00250837 2.939 0
M  V30 400 H 37.4536 0.102007 1.62079 0
M  V30 401 H 39.4506 -2.41944 3.39513 0
M  V30 402 H 38.1106 -2.36992 2.21957 0
M  V30 403 H 39.1216 -0.150928 5.1768 0
M  V30 404 H 35.7986 -2.16849 3.56767 0
M  V30 405 H 37.1886 0.375084 6.70852 0
M  V30 406 N 39.9087 -1.5758 0.0250728 0
M  V30 407 C 40.8717 -2.08896 -0.943139 0
M  V30 408 C 41.8717 -1.00321 -1.25668 0
M  V30 409 O 43.0617 -1.26495 -1.19769 0
M  V30 410 C 40.1937 -2.55143 -2.26086 0
M  V30 411 H 41.3867 -2.95723 -0.498775 0
M  V30 412 H 38.9397 -1.54703 -0.222888 0
M  V30 413 H 39.6747 -1.71633 -2.75159 0
M  V30 414 H 39.4597 -3.34461 -2.04641 0
M  V30 415 H 40.9497 -2.95083 -2.95492 0
M  V30 416 N 41.3868 0.248026 -1.55636 0
M  V30 417 C 42.2968 1.32859 -1.93354 0
M  V30 418 C 43.3128 1.52719 -0.833838 0
M  V30 419 O 44.4888 1.66363 -1.13513 0
M  V30 420 C 41.5538 2.66337 -2.21958 0
M  V30 421 C 40.6148 2.55008 -3.45354 0
M  V30 422 C 39.8478 3.82121 -3.72584 0
M  V30 423 O 40.0708 4.83951 -3.01907 0
M  V30 424 O 39.0048 3.80822 -4.6611 0
M  V30 425 H 42.8308 1.03862 -2.85388 0
M  V30 426 H 40.4158 0.448686 -1.42503 0
M  V30 427 H 42.2978 3.45216 -2.4167 0
M  V30 428 H 40.9728 2.95068 -1.33103 0
M  V30 429 H 39.8798 1.7442 -3.30951 0
M  V30 430 H 41.2128 2.31222 -4.34508 0
M  V30 431 N 42.8649 1.48995 0.513639 0
M  V30 432 C 44.2759 1.5119 1.09537 0
M  V30 433 C 44.6269 0.290906 1.94031 0
M  V30 434 O 43.7519 -0.60049 2.07902 0
M  V30 435 C 44.3469 2.73964 1.99322 0
M  V30 436 C 42.9059 2.78978 2.52682 0
M  V30 437 C 42.0529 2.44934 1.30009 0
M  V30 438 H 45.0039 1.55875 0.298125 0
M  V30 439 H 45.0249 2.53409 2.83838 0
M  V30 440 H 44.5369 3.62813 1.37799 0
M  V30 441 H 42.6379 1.94378 3.1788 0
M  V30 442 H 42.7509 3.8083 2.90698 0
M  V30 443 H 41.1149 1.9644 1.62122 0
M  V30 444 H 41.8979 3.36043 0.702131 0
M  V30 445 N 44.343 -0.763751 1.37857 0
M  V30 446 C 45.591 -1.51957 1.33243 0
M  V30 447 C 45.912 -1.94835 -0.0801709 0
M  V30 448 O 45.182 -1.66894 -1.02582 0
M  V30 449 H 43.762 -0.563626 0.49024 0
M  V30 450 H 46.424 -0.908504 1.7243 0
M  V30 451 H 45.52 -2.41523 1.97669 0
M  V30 452 N 45.8211 -1.22559 -0.990812 0
M  V30 453 C 46.7311 -1.01394 -2.11557 0
M  V30 454 C 47.7471 0.0383962 -1.73958 0
M  V30 455 O 48.9231 -0.154787 -2.00804 0
M  V30 456 C 45.9881 -0.596569 -3.41529 0
M  V30 457 C 45.0491 -1.72276 -3.93217 0
M  V30 458 C 44.2821 -1.32521 -5.16985 0
M  V30 459 O 44.5051 -0.204909 -5.70032 0
M  V30 460 O 43.4391 -2.14247 -5.62478 0
M  V30 461 H 47.2651 -1.95633 -2.32296 0
M  V30 462 H 44.8501 -1.01172 -1.0993 0
M  V30 463 H 46.7321 -0.374263 -4.19735 0
M  V30 464 H 45.4071 0.316939 -3.22145 0
M  V30 465 H 44.3141 -1.99961 -3.16174 0
M  V30 466 H 45.6471 -2.61421 -4.17037 0
M  V30 467 N 47.2992 1.18797 -1.03562 0
M  V30 468 C 48.2472 2.24297 -0.615905 0
M  V30 469 C 49.2412 1.65643 0.354808 0
M  V30 470 O 50.4472 1.78618 0.22265 0
M  V30 471 H 46.8222 0.729909 -0.180934 0
M  V30 472 H 48.7932 2.5701 -1.5162 0
M  V30 473 C 47.5422 3.47698 0.0104735 0
M  V30 474 H 46.8652 3.93125 -0.727509 0
M  V30 475 H 48.3052 4.23159 0.266995 0
M  V30 476 C 46.7642 3.12489 1.25905 0
M  V30 477 O 47.2942 3.25761 2.35038 0
M  V30 478 N 45.5002 2.6686 1.15039 0
M  V30 479 H 45.0472 2.56261 0.262328 0
M  V30 480 H 45.0052 2.43674 1.98672 0
M  V30 481 N 48.7773 0.814389 1.34928 0
M  V30 482 C 49.7073 0.244827 2.32213 0
M  V30 483 C 50.6883 -0.634024 1.57842 0
M  V30 484 O 51.8733 -0.562676 1.8587 0
M  V30 485 C 49.0033 -0.601106 3.42058 0
M  V30 486 C 47.9573 0.179896 4.27622 0
M  V30 487 C 47.2833 -0.788237 5.28858 0
M  V30 488 C 48.5833 1.38329 5.03649 0
M  V30 489 H 50.2773 1.05763 2.80097 0
M  V30 490 H 47.8233 0.510029 1.34665 0
M  V30 491 H 49.7763 -1.00968 4.09125 0
M  V30 492 H 48.5003 -1.44688 2.92802 0
M  V30 493 H 47.1593 0.569739 3.62146 0
M  V30 494 H 46.8073 -1.62973 4.75866 0
M  V30 495 H 46.5073 -0.269942 5.8698 0
M  V30 496 H 48.0313 -1.19485 5.98795 0
M  V30 497 H 49.4453 1.04918 5.63618 0
M  V30 498 H 47.8423 1.83662 5.71304 0
M  V30 499 H 48.9123 2.16592 4.33839 0
M  V30 500 N 50.2554 -1.46986 0.568584 0
M  V30 501 C 51.2024 -2.30153 -0.172707 0
M  V30 502 C 52.1724 -1.39759 -0.897586 0
M  V30 503 O 53.3574 -1.68716 -0.891044 0
M  V30 504 C 50.4974 -3.23952 -1.1895 0
M  V30 505 C 49.6104 -4.29441 -0.469517 0
M  V30 506 C 48.7454 -5.1038 -1.47259 0
M  V30 507 C 47.7844 -6.07632 -0.738225 0
M  V30 508 N 46.9214 -6.8149 -1.68868 0
M  V30 509 H 51.7614 -2.93019 0.542596 0
M  V30 510 H 49.2984 -1.44422 0.279401 0
M  V30 511 H 51.2564 -3.76767 -1.79173 0
M  V30 512 H 49.8864 -2.62926 -1.87269 0
M  V30 513 H 48.9384 -3.79594 0.247467 0
M  V30 514 H 50.2504 -4.98689 0.105241 0
M  V30 515 H 49.4044 -5.67402 -2.14803 0
M  V30 516 H 48.1434 -4.4106 -2.08128 0
M  V30 517 H 47.1484 -5.49778 -0.0489293 0
M  V30 518 H 48.3734 -6.78966 -0.135129 0
M  V30 519 H 46.3194 -6.14891 -2.28573 0
M  V30 520 H 46.2364 -7.46948 -1.16636 0
M  V30 521 H 47.5044 -7.43078 -2.3549 0
M  V30 522 N 51.7335 -0.305618 -1.54608 0
M  V30 523 C 53.1445 0.186098 -1.8577 0
M  V30 524 C 53.4955 1.53058 -1.22751 0
M  V30 525 O 52.6205 2.09888 -0.526893 0
M  V30 526 C 53.2155 0.344449 -3.37044 0
M  V30 527 C 51.7745 0.780384 -3.68221 0
M  V30 528 C 50.9215 -0.108554 -2.77087 0
M  V30 529 H 53.8725 -0.526485 -1.49712 0
M  V30 530 H 53.8935 1.17828 -3.61796 0
M  V30 531 H 53.4055 -0.634235 -3.82883 0
M  V30 532 H 51.5065 1.76945 -3.27904 0
M  V30 533 H 51.6195 0.596572 -4.75371 0
M  V30 534 H 49.9835 0.412931 -2.5133 0
M  V30 535 H 50.7665 -1.08368 -3.25747 0
M  V30 536 N 53.2116 1.57565 -0.0334293 0
M  V30 537 C 54.4576 1.92262 0.645226 0
M  V30 538 C 54.7906 0.910543 1.71531 0
M  V30 539 O 54.0656 -0.066099 1.94388 0
M  V30 540 C 54.3486 3.37422 1.2577 0
M  V30 541 C 54.2016 4.49369 0.196891 0
M  V30 542 C 55.5206 3.82628 2.17449 0
M  V30 543 H 52.6396 0.699171 0.233085 0
M  V30 544 H 55.2816 1.89779 -0.0915694 0
M  V30 545 H 53.4316 3.39669 1.88566 0
M  V30 546 H 55.1036 4.59254 -0.433962 0
M  V30 547 H 53.3466 4.31168 -0.477137 0
M  V30 548 H 54.0176 5.47978 0.665124 0
M  V30 549 H 56.4936 3.82145 1.64634 0
M  V30 550 H 55.3696 4.84883 2.57254 0
M  V30 551 H 55.6306 3.18376 3.0674 0
M  V30 552 N 54.6897 -0.239769 1.55765 0
M  V30 553 C 55.9667 -0.990056 1.68693 0
M  V30 554 C 56.3467 -2.03107 0.5754 0
M  V30 555 O 55.6947 -2.24604 -0.42017 0
M  V30 556 C 55.9047 -1.61696 3.09282 0
M  V30 557 C 57.2527 -2.11613 3.6811 0
M  V30 558 O 58.2767 -1.71624 3.12127 0
M  V30 559 O 57.1357 -2.85057 4.66267 0
M  V30 560 H 54.2297 -0.461299 0.686391 0
M  V30 561 H 56.7757 -0.232991 1.68093 0
M  V30 562 H 55.5477 -0.864357 3.81634 0
M  V30 563 H 55.1707 -2.44005 3.13923 0
M  V30 564 N 56.1678 -1.49265 -0.50573 0
M  V30 565 C 57.1308 -1.65075 -1.59006 0
M  V30 566 C 58.1308 -0.522768 -1.52065 0
M  V30 567 O 59.3208 -0.789117 -1.55302 0
M  V30 568 C 56.4528 -1.64369 -2.98656 0
M  V30 569 H 57.6458 -2.61784 -1.46319 0
M  V30 570 H 55.1988 -1.38226 -0.729616 0
M  V30 571 H 55.9338 -0.692272 -3.16825 0
M  V30 572 H 55.7188 -2.46282 -3.05103 0
M  V30 573 H 57.2088 -1.78674 -3.77446 0
M  V30 574 N 57.6459 0.756429 -1.3826 0
M  V30 575 C 58.5789 1.87802 -1.29637 0
M  V30 576 C 59.5569 1.61667 -0.173939 0
M  V30 577 O 60.7409 1.85208 -0.350775 0
M  V30 578 C 57.8679 3.23354 -1.00797 0
M  V30 579 C 56.9139 3.68379 -2.14939 0
M  V30 580 S 57.7469 3.8025 -3.77054 0
M  V30 581 C 58.9029 5.18626 -3.50396 0
M  V30 582 H 59.1359 1.94829 -2.24564 0
M  V30 583 H 56.6689 0.919117 -1.24063 0
M  V30 584 H 58.6269 4.01637 -0.848413 0
M  V30 585 H 57.2879 3.14008 -0.0759369 0
M  V30 586 H 56.4809 4.66693 -1.90299 0
M  V30 587 H 56.0829 2.97242 -2.26988 0
M  V30 588 H 58.3749 6.04289 -3.06334 0
M  V30 589 H 59.3179 5.48286 -4.48094 0
M  V30 590 H 59.7259 4.87289 -2.84973 0
M  V30 591 N 59.124 1.23083 0.984299 0
M  V30 592 C 60.056 0.96636 2.07832 0
M  V30 593 C 61.069 -0.0582135 1.62696 0
M  V30 594 O 62.258 0.176843 1.77622 0
M  V30 595 C 59.358 0.433397 3.36117 0
M  V30 596 C 58.531 1.51722 4.10243 0
M  V30 597 C 57.59 0.989821 5.16807 0
M  V30 598 O 56.616 1.67794 5.43906 0
M  V30 599 N 57.818 -0.184367 5.80207 0
M  V30 600 H 60.583 1.90824 2.31098 0
M  V30 601 H 58.144 1.13888 1.1507 0
M  V30 602 H 60.136 0.065699 4.04647 0
M  V30 603 H 58.706 -0.413806 3.09849 0
M  V30 604 H 57.926 2.05786 3.36223 0
M  V30 605 H 59.214 2.24619 4.56534 0
M  V30 606 H 58.612 -0.760062 5.60571 0
M  V30 607 H 57.169 -0.493366 6.4993 0
M  V30 608 N 60.6021 -1.18246 1.0419 0
M  V30 609 C 61.8421 -1.89948 0.754916 0
M  V30 610 C 62.2061 -1.78608 -0.70451 0
M  V30 611 O 63.4071 -2.4503 -1.10516 0
M  V30 612 C 61.6781 -3.36305 1.20969 0
M  V30 613 S 63.2371 -4.26088 1.04854 0
M  V30 614 H 60.0551 -0.655897 0.274446 0
M  V30 615 H 62.6571 -1.42873 1.33445 0
M  V30 616 H 61.3611 -3.42089 2.26722 0
M  V30 617 H 60.8921 -3.8842 0.624004 0
M  V30 618 H 62.9071 -4.96189 -0.0332896 0
M  V30 619 N 62.0802 -0.821533 -1.34494 0
M  V30 620 C 63.3272 -0.408946 -1.98328 0
M  V30 621 C 63.6552 1.02764 -1.65136 0
M  V30 622 O 62.9102 1.73026 -0.914349 0
M  V30 623 C 63.2092 -0.556512 -3.53041 0
M  V30 624 C 62.8752 -1.95861 -4.0614 0
M  V30 625 C 61.5372 -2.34217 -4.20352 0
M  V30 626 C 63.8892 -2.87523 -4.34718 0
M  V30 627 C 61.2172 -3.63572 -4.6047 0
M  V30 628 C 63.5692 -4.1634 -4.76281 0
M  V30 629 C 62.2332 -4.54675 -4.88699 0
M  V30 630 H 61.5032 -0.149644 -0.725732 0
M  V30 631 H 64.1502 -1.04521 -1.6046 0
M  V30 632 H 62.4552 0.163148 -3.9146 0
M  V30 633 H 64.1522 -0.217826 -4.00408 0
M  V30 634 H 60.7422 -1.65066 -3.95539 0
M  V30 635 H 64.9262 -2.59133 -4.23277 0
M  V30 636 H 60.1822 -3.93101 -4.68275 0
M  V30 637 H 64.3562 -4.87455 -4.97354 0
M  V30 638 H 61.9832 -5.54959 -5.19542 0
M  V30 639 N 63.5583 1.46682 -0.576371 0
M  V30 640 C 64.8353 1.95599 0.00703437 0
M  V30 641 C 65.2153 1.51904 1.46589 0
M  V30 642 O 64.5633 0.766755 2.15251 0
M  V30 643 C 64.7733 3.4864 -0.158404 0
M  V30 644 C 66.1213 4.24594 -0.0229439 0
M  V30 645 O 67.1453 3.56094 -0.0869173 0
M  V30 646 O 66.0043 5.46373 0.118015 0
M  V30 647 H 63.0983 0.825275 0.053384 0
M  V30 648 H 65.6443 1.56996 -0.644244 0
M  V30 649 H 64.4163 3.7331 -1.17282 0
M  V30 650 H 64.0393 3.94057 0.5296 0
M  V30 651 N 65.0364 0.313813 1.54444 0
M  V30 652 C 66.2764 -0.292389 2.02298 0
M  V30 653 C 66.6404 -1.50105 1.19719 0
M  V30 654 O 67.8414 -2.17947 1.5733 0
M  V30 655 C 66.1124 -0.627682 3.51845 0
M  V30 656 S 67.6714 -1.21493 4.21646 0
M  V30 657 H 64.4894 -0.0890247 0.705405 0
M  V30 658 H 67.0914 0.444668 1.90376 0
M  V30 659 H 65.7954 0.260265 4.09574 0
M  V30 660 H 65.3264 -1.39519 3.67829 0
M  V30 661 H 67.3414 -2.5022 4.28491 0
M  V30 662 N 66.5145 -1.57545 0.0417849 0
M  V30 663 C 67.4645 -2.07483 -0.945247 0
M  V30 664 C 68.4485 -0.977983 -1.27767 0
M  V30 665 O 69.6405 -1.24142 -1.26166 0
M  V30 666 C 66.7695 -2.61576 -2.22335 0
M  V30 667 C 65.8555 -3.78213 -1.91874 0
M  V30 668 N 66.2465 -4.88344 -1.31733 0
M  V30 669 C 64.5445 -3.8694 -2.21796 0
M  V30 670 C 65.2455 -5.69462 -1.1869 0
M  V30 671 N 64.2215 -5.16771 -1.68666 0
M  V30 672 H 68.0235 -2.90029 -0.475441 0
M  V30 673 H 65.5375 -1.61581 -0.162911 0
M  V30 674 H 67.5345 -2.95651 -2.93932 0
M  V30 675 H 66.1945 -1.80465 -2.69931 0
M  V30 676 H 67.2055 -5.08335 -0.990729 0
M  V30 677 H 63.8825 -3.16757 -2.71977 0
M  V30 678 H 65.2725 -6.68023 -0.720793 0
M  V30 679 N 67.9926 0.231505 -1.5589 0
M  V30 680 C 69.2206 0.974505 -1.82513 0
M  V30 681 C 69.6356 1.78344 -0.619591 0
M  V30 682 O 68.9926 1.77792 0.411848 0
M  V30 683 C 69.0436 1.90007 -3.07538 0
M  V30 684 O 68.7646 1.12385 -4.2344 0
M  V30 685 C 70.2656 2.75779 -3.47075 0
M  V30 686 H 67.4856 0.286065 -0.606966 0
M  V30 687 H 70.0296 0.249739 -2.02969 0
M  V30 688 H 68.1846 2.57891 -2.89086 0
M  V30 689 H 68.5986 1.75125 -4.944 0
M  V30 690 H 70.0726 3.36443 -4.37619 0
M  V30 691 H 70.5496 3.47672 -2.68367 0
M  V30 692 H 71.1556 2.13323 -3.67931 0
M  V30 693 N 69.4707 1.49531 0.497807 0
M  V30 694 C 70.4027 1.62559 1.61578 0
M  V30 695 C 71.4157 0.508134 1.54667 0
M  V30 696 O 72.6047 0.780309 1.60541 0
M  V30 697 C 69.7047 1.56925 3.00379 0
M  V30 698 C 68.8777 2.84257 3.3244 0
M  V30 699 C 67.9367 2.71632 4.50669 0
M  V30 700 O 66.9627 3.4557 4.52294 0
M  V30 701 N 68.1647 1.83391 5.5077 0
M  V30 702 H 70.9297 2.58981 1.50828 0
M  V30 703 H 68.4907 1.4666 0.685743 0
M  V30 704 H 70.4827 1.46129 3.77397 0
M  V30 705 H 69.0527 0.683483 3.05037 0
M  V30 706 H 68.2727 3.09381 2.44289 0
M  V30 707 H 69.5607 3.68666 3.5066 0
M  V30 708 H 68.9587 1.22583 5.52259 0
M  V30 709 H 67.5157 1.78515 6.26878 0
M  V30 710 N 70.9488 -0.749086 1.3866 0
M  V30 711 C 72.1978 -1.50371 1.3443 0
M  V30 712 C 72.5108 -1.95503 -0.0616397 0
M  V30 713 O 73.7168 -2.70554 -0.226489 0
M  V30 714 C 72.1728 -2.71644 2.36088 0
M  V30 715 C 71.7808 -2.3352 3.82325 0
M  V30 716 C 73.5248 -3.49518 2.40909 0
M  V30 717 C 71.4318 -3.51431 4.75658 0
M  V30 718 H 70.3618 -0.564628 0.499712 0
M  V30 719 H 73.0128 -0.818449 1.64237 0
M  V30 720 H 71.3948 -3.42175 1.9933 0
M  V30 721 H 72.5688 -1.70627 4.28046 0
M  V30 722 H 70.8838 -1.6877 3.80665 0
M  V30 723 H 73.4808 -4.37197 3.07836 0
M  V30 724 H 73.8238 -3.90992 1.42937 0
M  V30 725 H 74.3568 -2.86005 2.76489 0
M  V30 726 H 71.0958 -3.15019 5.74842 0
M  V30 727 H 70.6158 -4.13352 4.34627 0
M  V30 728 H 72.2948 -4.17953 4.93887 0
M  V30 729 N 72.4269 -1.23603 -0.977757 0
M  V30 730 C 73.3369 -1.03632 -2.1047 0
M  V30 731 C 74.3529 0.0199435 -1.73989 0
M  V30 732 O 75.5289 -0.176076 -2.00629 0
M  V30 733 C 72.5939 -0.63276 -3.40877 0
M  V30 734 C 71.6549 -1.76437 -3.91367 0
M  V30 735 C 70.8879 -1.37997 -5.15551 0
M  V30 736 O 71.1109 -0.265357 -5.69782 0
M  V30 737 O 70.0449 -2.20201 -5.60174 0
M  V30 738 H 73.8709 -1.98086 -2.30208 0
M  V30 739 H 71.4559 -1.02332 -1.08851 0
M  V30 740 H 73.3379 -0.418761 -4.19314 0
M  V30 741 H 72.0129 0.282754 -3.22463 0
M  V30 742 H 70.9199 -2.03304 -3.14036 0
M  V30 743 H 72.2529 -2.6583 -4.14241 0
M  V30 744 N 73.905 1.17692 -1.04816 0
M  V30 745 C 75.182 1.83768 -0.669963 0
M  V30 746 C 75.562 1.93232 0.849986 0
M  V30 747 O 74.91 1.46397 1.75443 0
M  V30 748 C 75.12 3.21641 -1.35455 0
M  V30 749 C 76.468 3.97592 -1.49017 0
M  V30 750 O 77.492 3.31107 -1.31326 0
M  V30 751 O 76.351 5.16729 -1.77914 0
M  V30 752 H 73.445 0.792799 -0.235368 0
M  V30 753 H 75.991 1.25021 -1.14751 0
M  V30 754 H 74.763 3.097 -2.39168 0
M  V30 755 H 74.386 3.88052 -0.866107 0
M  V30 756 N 75.3831 0.828654 1.34056 0
M  V30 757 C 76.3161 0.199763 2.27324 0
M  V30 758 C 77.2941 -0.647168 1.49166 0
M  V30 759 O 78.4781 -0.609661 1.78369 0
M  V30 760 C 75.6051 -0.720455 3.30949 0
M  V30 761 C 74.6511 0.0496888 4.26471 0
M  V30 762 S 75.4841 1.40072 5.16856 0
M  V30 763 C 76.6401 0.485527 6.24014 0
M  V30 764 H 76.8731 0.990478 2.80316 0
M  V30 765 H 74.4061 0.624857 1.41191 0
M  V30 766 H 76.3641 -1.24581 3.91139 0
M  V30 767 H 75.0251 -1.48474 2.76793 0
M  V30 768 H 74.2181 -0.650104 4.9979 0
M  V30 769 H 73.8201 0.505779 3.70564 0
M  V30 770 H 76.1121 -0.320672 6.76741 0
M  V30 771 H 77.0551 1.18856 6.98054 0
M  V30 772 H 77.4631 0.0714109 5.64455 0
M  V30 773 N 76.8612 -1.46375 0.584142 0
M  V30 774 C 77.8112 -2.27371 -0.169232 0
M  V30 775 C 78.7952 -1.35955 -0.860523 0
M  V30 776 O 79.9872 -1.60119 -0.754382 0
M  V30 777 C 77.1162 -3.22334 -1.18134 0
M  V30 778 C 76.2022 -4.21235 -0.492088 0
M  V30 779 N 76.5932 -5.03766 0.453129 0
M  V30 780 C 74.8912 -4.39773 -0.742652 0
M  V30 781 C 75.5922 -5.75366 0.85609 0
M  V30 782 N 74.5682 -5.43214 0.204926 0
M  V30 783 H 78.3702 -2.88572 0.557097 0
M  V30 784 H 75.8842 -1.57242 0.406042 0
M  V30 785 H 77.8812 -3.79071 -1.73525 0
M  V30 786 H 76.5412 -2.62693 -1.90847 0
M  V30 787 H 77.5522 -5.11227 0.828723 0
M  V30 788 H 74.2292 -3.91279 -1.45625 0
M  V30 789 H 75.6192 -6.5172 1.63434 0
M  V30 790 N 78.3393 -0.321999 -1.54275 0
M  V30 791 C 79.5673 0.283052 -2.04955 0
M  V30 792 C 79.9823 1.45904 -1.19823 0
M  V30 793 O 79.3393 1.81063 -0.228545 0
M  V30 794 C 79.3903 0.719028 -3.54277 0
M  V30 795 O 79.1113 -0.410175 -4.36176 0
M  V30 796 C 80.6123 1.38705 -4.21041 0
M  V30 797 H 77.8323 0.0584616 -0.668448 0
M  V30 798 H 80.3763 -0.467734 -1.99079 0
M  V30 799 H 78.5313 1.41979 -3.60445 0
M  V30 800 H 78.9453 -0.0669416 -5.24457 0
M  V30 801 H 80.4193 1.64306 -5.2698 0
M  V30 802 H 80.8963 2.33385 -3.72059 0
M  V30 803 H 81.5023 0.728906 -4.19007 0
M  V30 804 N 79.8174 1.5752 -0.0501392 0
M  V30 805 C 81.0634 1.92936 0.624798 0
M  V30 806 C 81.3964 0.928685 1.70555 0
M  V30 807 O 80.6714 -0.0454779 1.94447 0
M  V30 808 C 80.9544 3.38737 1.22185 0
M  V30 809 C 80.8074 4.49552 0.149218 0
M  V30 810 C 82.1264 3.84913 2.13378 0
M  V30 811 H 79.2454 0.701604 0.225657 0
M  V30 812 H 81.8874 1.89671 -0.111693 0
M  V30 813 H 80.0374 3.4165 1.84953 0
M  V30 814 H 81.7094 4.58768 -0.482648 0
M  V30 815 H 79.9524 4.30638 -0.522841 0
M  V30 816 H 80.6234 5.48653 0.606966 0
M  V30 817 H 83.0994 3.8387 1.60572 0
M  V30 818 H 81.9754 4.87584 2.52097 0
M  V30 819 H 82.2364 3.21611 3.03346 0
M  V30 820 N 81.2955 -0.223234 1.56011 0
M  V30 821 C 82.5435 -0.946003 1.78592 0
M  V30 822 C 82.8645 -1.84936 0.618349 0
M  V30 823 O 82.1345 -1.92473 -0.364833 0
M  V30 824 H 80.7145 -0.352298 0.658707 0
M  V30 825 H 83.3765 -0.235494 1.93472 0
M  V30 826 H 82.4725 -1.55381 2.70672 0
M  V30 827 N 82.7736 -1.49793 -0.48987 0
M  V30 828 C 83.7206 -1.67281 -1.59014 0
M  V30 829 C 84.6906 -0.514177 -1.57941 0
M  V30 830 O 85.8756 -0.742533 -1.75759 0
M  V30 831 C 83.0156 -1.75569 -2.97102 0
M  V30 832 C 82.1286 -3.0281 -3.08107 0
M  V30 833 C 81.2636 -3.02008 -4.36995 0
M  V30 834 C 80.3026 -4.23782 -4.41673 0
M  V30 835 N 79.4396 -4.20826 -5.62005 0
M  V30 836 H 84.2796 -2.61224 -1.43409 0
M  V30 837 H 81.8166 -1.29508 -0.697565 0
M  V30 838 H 83.7746 -1.78354 -3.77155 0
M  V30 839 H 82.4046 -0.850827 -3.11385 0
M  V30 840 H 81.4566 -3.09584 -2.21047 0
M  V30 841 H 82.7686 -3.92801 -3.07423 0
M  V30 842 H 81.9226 -3.03418 -5.25378 0
M  V30 843 H 80.6616 -2.09815 -4.4026 0
M  V30 844 H 79.6666 -4.22604 -3.5169 0
M  V30 845 H 80.8916 -5.17181 -4.40115 0
M  V30 846 H 78.8376 -3.31476 -5.66091 0
M  V30 847 H 78.7546 -5.04564 -5.62984 0
M  V30 848 H 80.0226 -4.26355 -6.52565 0
M  V30 849 N 84.2517 0.741722 -1.39055 0
M  V30 850 C 85.2017 1.84661 -1.33732 0
M  V30 851 C 86.1857 1.59397 -0.219401 0
M  V30 852 O 87.3777 1.71015 -0.456375 0
M  V30 853 C 84.5067 3.22512 -1.17647 0
M  V30 854 C 83.5927 3.53628 -2.34112 0
M  V30 855 N 83.9837 3.55723 -3.59576 0
M  V30 856 C 82.2817 3.83956 -2.26923 0
M  V30 857 C 82.9827 3.84443 -4.36553 0
M  V30 858 N 81.9587 4.01877 -3.66055 0
M  V30 859 H 85.7607 1.84576 -2.28711 0
M  V30 860 H 83.2747 0.939647 -1.32455 0
M  V30 861 H 85.2717 4.01597 -1.11917 0
M  V30 862 H 83.9317 3.2384 -0.236124 0
M  V30 863 H 84.9427 3.37196 -3.93089 0
M  V30 864 H 81.6197 3.92929 -1.41113 0
M  V30 865 H 83.0097 3.92588 -5.45274 0
M  V30 866 N 85.7298 1.2412 0.971189 0
M  V30 867 C 86.6928 1.03156 2.04674 0
M  V30 868 C 87.6928 -0.00990322 1.60797 0
M  V30 869 O 88.8828 0.230729 1.72665 0
M  V30 870 C 86.0148 0.562765 3.36223 0
M  V30 871 H 87.2078 1.98614 2.24705 0
M  V30 872 H 84.7608 1.06293 1.14593 0
M  V30 873 H 85.4958 -0.395176 3.21883 0
M  V30 874 H 85.2808 1.31441 3.69413 0
M  V30 875 H 86.7708 0.437015 4.15307 0
M  V30 876 N 87.2079 -1.17134 1.05439 0
M  V30 877 C 88.4359 -1.91372 0.786414 0
M  V30 878 C 88.8509 -1.76955 -0.658202 0
M  V30 879 O 88.2079 -1.10838 -1.44987 0
M  V30 880 C 88.2589 -3.42356 1.1608 0
M  V30 881 O 87.9799 -3.56332 2.54871 0
M  V30 882 C 89.4809 -4.33663 0.919322 0
M  V30 883 H 86.7009 -0.607118 0.285743 0
M  V30 884 H 89.2449 -1.48525 1.40572 0
M  V30 885 H 87.3999 -3.82939 0.586191 0
M  V30 886 H 87.8139 -4.49896 2.69618 0
M  V30 887 H 89.2879 -5.38099 1.231 0
M  V30 888 H 89.7649 -4.38959 -0.145359 0
M  V30 889 H 90.3709 -3.98796 1.47789 0
M  V30 890 N 88.686 -0.835752 -1.33615 0
M  V30 891 C 89.932 -0.430596 -1.98176 0
M  V30 892 C 90.265 1.00684 -1.66061 0
M  V30 893 O 89.54 1.70339 -0.938877 0
M  V30 894 C 89.823 -0.648065 -3.5422 0
M  V30 895 C 89.676 -2.13255 -3.96033 0
M  V30 896 C 90.995 -0.0922113 -4.40003 0
M  V30 897 H 88.114 -0.157924 -0.719881 0
M  V30 898 H 90.756 -1.05069 -1.58305 0
M  V30 899 H 88.906 -0.120237 -3.88314 0
M  V30 900 H 90.578 -2.725 -3.72211 0
M  V30 901 H 88.821 -2.61823 -3.45878 0
M  V30 902 H 89.492 -2.23547 -5.04708 0
M  V30 903 H 91.968 -0.543343 -4.12537 0
M  V30 904 H 90.844 -0.274083 -5.48215 0
M  V30 905 H 91.105 1.00378 -4.30554 0
M  V30 906 N 90.1641 1.46063 -0.591896 0
M  V30 907 C 91.1121 2.32124 0.148739 0
M  V30 908 C 92.1061 1.45035 0.875286 0
M  V30 909 O 93.3121 1.61609 0.792632 0
M  V30 910 H 89.6871 0.749024 0.066832 0
M  V30 911 H 91.6581 2.92392 -0.595783 0
M  V30 912 C 90.4071 3.28373 1.1431 0
M  V30 913 H 89.7301 3.95371 0.59346 0
M  V30 914 H 91.1701 3.91352 1.63155 0
M  V30 915 C 89.6291 2.54393 2.20875 0
M  V30 916 O 90.1591 2.31373 3.28374 0
M  V30 917 N 88.3651 2.14797 1.95731 0
M  V30 918 H 87.9121 2.33719 1.08319 0
M  V30 919 H 87.8701 1.65619 2.67241 0
M  V30 920 N 91.6422 0.330177 1.54103 0
M  V30 921 C 92.8822 -0.270916 2.02597 0
M  V30 922 C 93.2462 -1.48826 1.21304 0
M  V30 923 O 94.4472 -2.16266 1.59633 0
M  V30 924 C 92.7182 -0.590328 3.52491 0
M  V30 925 S 94.2772 -1.17014 4.2291 0
M  V30 926 H 91.0952 -0.0815379 0.706309 0
M  V30 927 H 93.6972 0.464835 1.89893 0
M  V30 928 H 92.4012 0.303691 4.09275 0
M  V30 929 H 91.9322 -1.3561 3.69288 0
M  V30 930 H 93.9472 -2.45662 4.3112 0
M  V30 931 N 93.1203 -1.57491 0.0584922 0
M  V30 932 C 94.3663 -1.93264 -0.614558 0
M  V30 933 C 94.6993 -0.937717 -1.7006 0
M  V30 934 O 93.9743 0.0351652 -1.94468 0
M  V30 935 C 94.2573 -3.3938 -1.20386 0
M  V30 936 C 94.1103 -4.49625 -0.125375 0
M  V30 937 C 95.4293 -3.86039 -2.11334 0
M  V30 938 H 92.5483 -0.702791 -0.221933 0
M  V30 939 H 95.1903 -1.8961 0.12175 0
M  V30 940 H 93.3403 -3.42626 -1.83139 0
M  V30 941 H 95.0123 -4.58506 0.506971 0
M  V30 942 H 93.2553 -4.30354 0.545672 0
M  V30 943 H 93.9263 -5.48967 -0.577861 0
M  V30 944 H 96.4023 -3.84716 -1.58534 0
M  V30 945 H 95.2783 -4.88914 -2.49507 0
M  V30 946 H 95.5393 -3.23215 -3.01636 0
M  V30 947 N 94.5984 0.214957 -1.56127 0
M  V30 948 C 95.5484 1.27006 -1.8935 0
M  V30 949 C 96.5324 1.41969 -0.757202 0
M  V30 950 O 97.7244 1.44673 -1.01973 0
M  V30 951 C 94.8534 2.61911 -2.2194 0
M  V30 952 C 93.9394 2.50822 -3.41978 0
M  V30 953 N 94.3304 2.09391 -4.60423 0
M  V30 954 C 92.6284 2.81765 -3.45723 0
M  V30 955 C 93.3294 2.09712 -5.42582 0
M  V30 956 N 92.3054 2.50454 -4.82466 0
M  V30 957 H 96.1074 0.940734 -2.78437 0
M  V30 958 H 93.6214 0.423492 -1.56781 0
M  V30 959 H 95.6184 3.38096 -2.43919 0
M  V30 960 H 94.2784 2.95684 -1.34169 0
M  V30 961 H 95.2894 1.80416 -4.85459 0
M  V30 962 H 91.9664 3.19865 -2.68314 0
M  V30 963 H 93.3564 1.79748 -6.4741 0
M  V30 964 N 96.0765 1.50051 0.48192 0
M  V30 965 C 97.3165 1.62128 1.24474 0
M  V30 966 C 97.6805 0.309742 1.89485 0
M  V30 967 O 98.8815 0.305854 2.67054 0
M  V30 968 C 97.1525 2.76151 2.26882 0
M  V30 969 S 98.7115 3.08297 3.12247 0
M  V30 970 H 95.5295 0.571661 0.422759 0
M  V30 971 H 98.1315 1.87791 0.54359 0
M  V30 972 H 96.8355 3.69942 1.77683 0
M  V30 973 H 96.3665 2.52541 3.0164 0
M  V30 974 H 98.3815 2.51287 4.27866 0
M  V30 975 N 97.5546 -0.734337 1.39446 0
M  V30 976 C 98.5046 -1.83949 1.34709 0
M  V30 977 C 99.4886 -1.59279 0.227851 0
M  V30 978 O 100.681 -1.70771 0.465438 0
M  V30 979 C 97.8096 -3.21884 1.19356 0
M  V30 980 C 96.8956 -3.52381 2.35984 0
M  V30 981 N 97.2866 -3.53811 3.61457 0
M  V30 982 C 95.5846 -3.82747 2.28956 0
M  V30 983 C 96.2856 -3.82122 4.38586 0
M  V30 984 N 95.2616 -3.9993 3.68181 0
M  V30 985 H 99.0636 -1.83361 2.29687 0
M  V30 986 H 96.5776 -0.932609 1.32952 0
M  V30 987 H 98.5746 -4.00998 1.14046 0
M  V30 988 H 97.2346 -3.23711 0.253295 0
M  V30 989 H 98.2456 -3.35107 3.94872 0
M  V30 990 H 94.9226 -3.92175 1.43194 0
M  V30 991 H 96.3126 -3.89691 5.47349 0
M  V30 992 N 99.0327 -1.24633 -0.964593 0
M  V30 993 C 100.31 -0.995809 -1.68354 0
M  V30 994 C 100.69 0.480964 -2.05548 0
M  V30 995 O 100.038 1.45599 -1.76105 0
M  V30 996 C 100.248 -1.92177 -2.91323 0
M  V30 997 C 101.596 -2.19446 -3.63495 0
M  V30 998 O 102.62 -1.89855 -3.01386 0
M  V30 999 O 101.479 -2.69714 -4.75307 0
M  V30 1000 H 98.5727 -0.376854 -0.736146 0
M  V30 1001 H 101.119 -1.35745 -1.0184 0
M  V30 1002 H 99.8907 -2.91938 -2.60553 0
M  V30 1003 H 99.5137 -1.56349 -3.65569 0
M  V30 1004 N 100.511 1.16574 -1.06058 0
M  V30 1005 C 101.474 2.19085 -0.673392 0
M  V30 1006 C 102.474 1.5835 0.279648 0
M  V30 1007 O 103.664 1.74088 0.0623488 0
M  V30 1008 C 100.796 3.40899 0.00954234 0
M  V30 1009 H 101.989 2.54853 -1.58081 0
M  V30 1010 H 99.5418 1.30808 -0.855516 0
M  V30 1011 H 100.277 3.10684 0.929826 0
M  V30 1012 H 100.062 3.86233 -0.67573 0
M  V30 1013 H 101.552 4.1675 0.266245 0
M  V30 1014 N 101.989 0.842826 1.3317 0
M  V30 1015 C 103.217 0.454055 2.01856 0
M  V30 1016 C 103.632 -0.94587 1.63397 0
M  V30 1017 O 102.989 -1.61534 0.849302 0
M  V30 1018 C 103.04 0.569715 3.56982 0
M  V30 1019 O 102.761 1.91448 3.94055 0
M  V30 1020 C 104.262 0.178412 4.42941 0
M  V30 1021 H 101.482 0.17979 0.646465 0
M  V30 1022 H 104.026 1.1365 1.70012 0
M  V30 1023 H 102.181 -0.0648587 3.87346 0
M  V30 1024 H 102.595 1.90282 4.88767 0
M  V30 1025 H 104.069 0.310376 5.51127 0
M  V30 1026 H 104.546 -0.880056 4.30293 0
M  V30 1027 H 105.152 0.787579 4.17944 0
M  V30 1028 N 103.467 -1.45747 0.599634 0
M  V30 1029 C 104.377 -2.34262 -0.125888 0
M  V30 1030 C 105.393 -1.50768 -0.868625 0
M  V30 1031 O 106.569 -1.83592 -0.828003 0
M  V30 1032 C 103.634 -3.28252 -1.11587 0
M  V30 1033 C 102.695 -4.27651 -0.375956 0
M  V30 1034 C 101.928 -5.1715 -1.31877 0
M  V30 1035 O 102.151 -5.09916 -2.55621 0
M  V30 1036 O 101.085 -5.96286 -0.820157 0
M  V30 1037 H 104.911 -2.97688 0.601315 0
M  V30 1038 H 102.496 -1.44999 0.359934 0
M  V30 1039 H 104.378 -3.86191 -1.68626 0
M  V30 1040 H 103.053 -2.67401 -1.82424 0
M  V30 1041 H 101.96 -3.7335 0.236698 0
M  V30 1042 H 103.293 -4.91334 0.29177 0
M  V30 1043 N 104.945 -0.338344 -1.53925 0
M  V30 1044 C 105.895 0.536712 -2.21593 0
M  V30 1045 C 106.879 1.07015 -1.20153 0
M  V30 1046 O 108.071 1.00471 -1.45721 0
M  V30 1047 C 105.2 1.68977 -2.98834 0
M  V30 1048 C 104.286 1.17052 -4.07627 0
M  V30 1049 N 104.677 0.372085 -5.0443 0
M  V30 1050 C 102.975 1.44789 -4.21844 0
M  V30 1051 C 103.676 0.0909171 -5.81629 0
M  V30 1052 N 102.652 0.681131 -5.39316 0
M  V30 1053 H 106.454 -0.0804298 -2.9379 0
M  V30 1054 H 103.968 -0.144943 -1.61752 0
M  V30 1055 H 105.965 2.32857 -3.45808 0
M  V30 1056 H 104.625 2.31024 -2.28162 0
M  V30 1057 H 105.636 0.0136217 -5.17898 0
M  V30 1058 H 102.313 2.07313 -3.62391 0
M  V30 1059 H 103.703 -0.552817 -6.69622 0
M  V30 1060 N 106.423 1.57458 -0.0668435 0
M  V30 1061 C 107.669 1.93587 0.6043 0
M  V30 1062 C 108.002 0.946722 1.69561 0
M  V30 1063 O 107.277 -0.0248516 1.94484 0
M  V30 1064 C 107.56 3.40014 1.18585 0
M  V30 1065 C 107.413 4.49685 0.101529 0
M  V30 1066 C 108.732 3.87154 2.09284 0
M  V30 1067 H 105.851 0.703958 0.218202 0
M  V30 1068 H 108.493 1.89542 -0.131804 0
M  V30 1069 H 106.643 3.43592 1.81319 0
M  V30 1070 H 108.315 4.5823 -0.531279 0
M  V30 1071 H 106.558 4.30059 -0.568487 0
M  V30 1072 H 107.229 5.49266 0.54874 0
M  V30 1073 H 109.705 3.85551 1.56491 0
M  V30 1074 H 108.581 4.90231 2.46911 0
M  V30 1075 H 108.842 3.2481 2.99918 0
M  V30 1076 N 107.901 -0.206675 1.56239 0
M  V30 1077 C 108.811 -1.27686 1.96808 0
M  V30 1078 C 109.827 -1.50455 0.874035 0
M  V30 1079 O 111.003 -1.63295 1.17884 0
M  V30 1080 C 108.068 -2.60358 2.28942 0
M  V30 1081 C 107.129 -2.45762 3.51994 0
M  V30 1082 C 106.362 -3.72108 3.82585 0
M  V30 1083 O 106.585 -4.75776 3.14631 0
M  V30 1084 O 105.519 -3.6833 4.76043 0
M  V30 1085 H 109.345 -0.962593 2.88041 0
M  V30 1086 H 106.93 -0.410746 1.43643 0
M  V30 1087 H 108.812 -3.38687 2.50737 0
M  V30 1088 H 107.487 -2.91435 1.4088 0
M  V30 1089 H 106.394 -1.65584 3.35459 0
M  V30 1090 H 107.727 -2.19621 4.40486 0
M  V30 1091 N 109.379 -1.50304 -0.473955 0
M  V30 1092 C 110.607 -1.64902 -1.24959 0
M  V30 1093 C 111.022 -0.331198 -1.85872 0
M  V30 1094 O 110.379 0.68652 -1.69095 0
M  V30 1095 C 110.43 -2.73803 -2.36038 0
M  V30 1096 O 110.151 -4.00477 -1.77624 0
M  V30 1097 C 111.652 -2.99349 -3.26964 0
M  V30 1098 H 108.872 -0.554383 -0.378022 0
M  V30 1099 H 111.416 -1.9651 -0.566054 0
M  V30 1100 H 109.571 -2.44898 -3.00173 0
M  V30 1101 H 109.985 -4.60678 -2.5075 0
M  V30 1102 H 111.459 -3.79217 -4.01121 0
M  V30 1103 H 111.936 -2.10307 -3.85574 0
M  V30 1104 H 112.542 -3.29774 -2.68569 0
M  V30 1105 N 110.857 0.726932 -1.39834 0
M  V30 1106 C 111.82 1.82269 -1.38962 0
M  V30 1107 C 112.82 1.58248 -0.285334 0
M  V30 1108 O 114.01 1.65499 -0.54366 0
M  V30 1109 C 111.142 3.20186 -1.17019 0
M  V30 1110 H 112.335 1.84443 -2.36476 0
M  V30 1111 H 109.888 0.931416 -1.25516 0
M  V30 1112 H 110.623 3.23669 -0.202204 0
M  V30 1113 H 110.408 3.3902 -1.96998 0
M  V30 1114 H 111.898 4.00235 -1.1917 0
M  V30 1115 N 112.336 1.25143 0.95797 0
M  V30 1116 C 113.561 1.12521 1.74223 0
M  V30 1117 C 113.986 -0.317402 1.85403 0
M  V30 1118 O 113.344 -1.2299 1.33204 0
M  V30 1119 C 113.392 1.78062 3.1357 0
M  V30 1120 O 112.496 1.058 3.98598 0
M  V30 1121 H 111.837 0.39304 0.535178 0
M  V30 1122 H 114.367 1.65641 1.201 0
M  V30 1123 H 114.377 1.84213 3.64046 0
M  V30 1124 H 113.052 2.83021 3.04749 0
M  V30 1125 H 111.629 1.07506 3.57067 0
M  V30 1126 N 113.814 -1.1601 1.06675 0
M  V30 1127 C 115.039 -1.91068 0.806706 0
M  V30 1128 C 115.464 -1.77112 -0.633485 0
M  V30 1129 O 114.822 -1.09908 -1.44187 0
M  V30 1130 C 114.87 -3.39655 1.21106 0
M  V30 1131 O 113.974 -4.10893 0.352189 0
M  V30 1132 H 113.315 -0.595125 0.294486 0
M  V30 1133 H 115.845 -1.46955 1.42356 0
M  V30 1134 H 115.855 -3.90434 1.18428 0
M  V30 1135 H 114.53 -3.49132 2.26008 0
M  V30 1136 H 113.107 -3.70285 0.440868 0
M  V30 1137 N 115.292 -0.849877 -1.32721 0
M  V30 1138 C 116.708 -0.539102 -1.50219 0
M  V30 1139 C 116.908 0.931271 -1.78689 0
M  V30 1140 O 115.964 1.71455 -1.85363 0
M  V30 1141 C 117.277 -1.42196 -2.64954 0
M  V30 1142 C 118.825 -1.42189 -2.78839 0
M  V30 1143 C 119.3 -2.28985 -3.96648 0
M  V30 1144 N 120.791 -2.26754 -4.03902 0
M  V30 1145 C 121.526 -2.90644 -4.94281 0
M  V30 1146 N 121.022 -3.63629 -5.897 0
M  V30 1147 N 122.815 -2.80057 -4.87365 0
M  V30 1148 H 114.966 -1.80156 -1.12506 0
M  V30 1149 H 117.229 -0.769217 -0.554085 0
M  V30 1150 H 116.935 -2.46733 -2.50631 0
M  V30 1151 H 116.809 -1.10591 -3.60624 0
M  V30 1152 H 119.196 -0.38419 -2.92588 0
M  V30 1153 H 119.277 -1.77807 -1.83898 0
M  V30 1154 H 118.921 -3.32819 -3.83658 0
M  V30 1155 H 118.851 -1.90702 -4.90857 0
M  V30 1156 H 121.342 -1.73688 -3.3562 0
M  V30 1157 H 121.655 -4.09558 -6.55349 0
M  V30 1158 H 120 -3.67737 -5.89741 0
M  V30 1159 H 123.191 -2.22593 -4.11789 0
M  V30 1160 H 123.364 -3.30132 -5.57599 0
M  V30 1161 N 116.77 1.45427 -0.607355 0
M  V30 1162 C 118.186 1.57283 -0.270985 0
M  V30 1163 C 118.386 1.59875 1.22647 0
M  V30 1164 O 117.442 1.52893 2.00948 0
M  V30 1165 C 118.755 2.85566 -0.941952 0
M  V30 1166 C 120.303 2.9924 -0.917849 0
M  V30 1167 C 120.778 4.30293 -1.56882 0
M  V30 1168 N 122.269 4.37051 -1.5343 0
M  V30 1169 C 123.004 5.37123 -2.00715 0
M  V30 1170 N 122.5 6.43734 -2.56084 0
M  V30 1171 N 124.293 5.28479 -1.91484 0
M  V30 1172 H 116.444 1.41988 -1.57966 0
M  V30 1173 H 118.707 0.67885 -0.661715 0
M  V30 1174 H 118.413 2.8955 -1.99633 0
M  V30 1175 H 118.287 3.74322 -0.465096 0
M  V30 1176 H 120.674 2.94822 0.127984 0
M  V30 1177 H 120.755 2.11895 -1.43297 0
M  V30 1178 H 120.399 4.35469 -2.61398 0
M  V30 1179 H 120.329 5.16454 -1.02873 0
M  V30 1180 H 122.82 3.60615 -1.12982 0
M  V30 1181 H 123.133 7.16341 -2.89958 0
M  V30 1182 H 121.478 6.44485 -2.60122 0
M  V30 1183 H 124.669 4.44098 -1.47967 0
M  V30 1184 H 124.842 6.0632 -2.28648 0
M  V30 1185 N 118.248 0.346503 1.53744 0
M  V30 1186 C 119.181 -0.552023 2.21423 0
M  V30 1187 C 120.159 -1.09798 1.19929 0
M  V30 1188 O 121.343 -1.1577 1.4876 0
M  V30 1189 C 118.47 -1.75972 2.89398 0
M  V30 1190 C 117.516 -1.34295 4.04805 0
M  V30 1191 S 118.349 -0.360263 5.34287 0
M  V30 1192 C 119.505 -1.57473 6.05767 0
M  V30 1193 H 119.738 0.0228119 2.97291 0
M  V30 1194 H 117.271 0.130579 1.53847 0
M  V30 1195 H 119.229 -2.45256 3.2918 0
M  V30 1196 H 117.89 -2.30578 2.1329 0
M  V30 1197 H 117.083 -2.24349 4.51313 0
M  V30 1198 H 116.685 -0.729555 3.66815 0
M  V30 1199 H 118.977 -2.50875 6.29339 0
M  V30 1200 H 119.92 -1.15138 6.98676 0
M  V30 1201 H 120.328 -1.77212 5.35963 0
M  V30 1202 N 119.726 -1.57421 0.075193 0
M  V30 1203 C 120.974 -1.93236 -0.591974 0
M  V30 1204 C 121.295 -0.956241 -1.69944 0
M  V30 1205 O 120.565 -0.00494792 -1.95899 0
M  V30 1206 H 119.145 -0.713355 -0.22166 0
M  V30 1207 H 121.807 -1.9444 0.133848 0
M  V30 1208 H 120.903 -2.95131 -1.01509 0
M  V30 1209 N 121.204 0.198386 -1.56346 0
M  V30 1210 C 122.114 1.2664 -1.97483 0
M  V30 1211 C 123.13 1.49989 -0.882002 0
M  V30 1212 O 124.306 1.62668 -1.18748 0
M  V30 1213 C 121.371 2.59141 -2.30319 0
M  V30 1214 C 120.432 2.43892 -3.53292 0
M  V30 1215 C 119.665 3.70074 -3.84553 0
M  V30 1216 O 119.888 4.74101 -3.1715 0
M  V30 1217 O 118.822 3.658 -4.7799 0
M  V30 1218 H 122.648 0.947304 -2.88548 0
M  V30 1219 H 120.233 0.403123 -1.43859 0
M  V30 1220 H 122.115 3.37352 -2.5253 0
M  V30 1221 H 120.79 2.90684 -1.42423 0
M  V30 1222 H 119.697 1.63803 -3.36332 0
M  V30 1223 H 121.03 2.17282 -4.41644 0
M  V30 1224 N 122.682 1.50554 0.465978 0
M  V30 1225 C 124.098 1.38093 0.800154 0
M  V30 1226 C 124.298 0.440988 1.96615 0
M  V30 1227 O 123.354 -0.114499 2.5224 0
M  V30 1228 C 124.667 2.79565 1.10742 0
M  V30 1229 C 126.215 2.88516 1.21357 0
M  V30 1230 C 126.69 4.30833 1.55393 0
M  V30 1231 N 128.181 4.33807 1.62375 0
M  V30 1232 C 128.916 5.40927 1.90225 0
M  V30 1233 N 128.412 6.58247 2.16062 0
M  V30 1234 N 130.205 5.28376 1.9177 0
M  V30 1235 H 122.356 2.10237 -0.302366 0
M  V30 1236 H 124.619 0.945203 -0.0727746 0
M  V30 1237 H 124.325 3.50208 0.323661 0
M  V30 1238 H 124.199 3.17125 2.04234 0
M  V30 1239 H 126.586 2.1809 1.98799 0
M  V30 1240 H 126.667 2.54492 0.258321 0
M  V30 1241 H 126.311 5.01799 0.784889 0
M  V30 1242 H 126.241 4.62347 2.52076 0
M  V30 1243 H 128.732 3.49212 1.44427 0
M  V30 1244 H 129.045 7.3569 2.36601 0
M  V30 1245 H 127.39 6.61413 2.13444 0
M  V30 1246 H 130.581 4.35715 1.71085 0
M  V30 1247 H 130.754 6.11944 2.13139 0
M  V30 1248 N 124.16 -0.719506 1.40217 0
M  V30 1249 C 125.571 -1.29848 1.34151 0
M  V30 1250 C 125.922 -1.96196 0.0131349 0
M  V30 1251 O 125.047 -1.973 -0.88892 0
M  V30 1252 C 125.642 -2.36118 2.42968 0
M  V30 1253 C 124.201 -2.8965 2.40374 0
M  V30 1254 C 123.348 -1.63393 2.24049 0
M  V30 1255 H 126.299 -0.51591 1.5008 0
M  V30 1256 H 126.32 -3.16871 2.10649 0
M  V30 1257 H 125.832 -1.878 3.39636 0
M  V30 1258 H 123.933 -3.42208 1.47392 0
M  V30 1259 H 124.046 -3.4171 3.35814 0
M  V30 1260 H 122.41 -1.88312 1.71495 0
M  V30 1261 H 123.193 -1.17104 3.2271 0
M  V30 1262 N 125.638 -1.25649 -0.95132 0
M  V30 1263 C 126.884 -1.10757 -1.69884 0
M  V30 1264 C 127.217 0.350061 -1.91019 0
M  V30 1265 O 126.492 1.25783 -1.48354 0
M  V30 1266 C 126.775 -1.86606 -3.07978 0
M  V30 1267 C 126.628 -3.40217 -2.94232 0
M  V30 1268 C 127.947 -1.65182 -4.07925 0
M  V30 1269 H 125.066 -0.40374 -0.616574 0
M  V30 1270 H 127.708 -1.54521 -1.10558 0
M  V30 1271 H 125.858 -1.49409 -3.58621 0
M  V30 1272 H 127.53 -3.87108 -2.50889 0
M  V30 1273 H 125.773 -3.67759 -2.30078 0
M  V30 1274 H 126.444 -3.88505 -3.92133 0
M  V30 1275 H 128.92 -1.9757 -3.66204 0
M  V30 1276 H 127.796 -2.20683 -5.02583 0
M  V30 1277 H 128.057 -0.593933 -4.38092 0
M  V30 1278 N 127.117 1.15442 -1.07289 0
M  V30 1279 C 128.345 1.90096 -0.81676 0
M  V30 1280 C 128.76 1.7798 0.629966 0
M  V30 1281 O 128.117 1.1313 1.43206 0
M  V30 1282 C 128.168 3.40466 -1.21512 0
M  V30 1283 O 127.889 3.52232 -2.60508 0
M  V30 1284 C 129.39 4.32145 -0.988198 0
M  V30 1285 H 126.61 0.602495 -0.295366 0
M  V30 1286 H 129.154 1.4627 -1.42918 0
M  V30 1287 H 127.309 3.81958 -0.647039 0
M  V30 1288 H 127.723 4.45549 -2.76742 0
M  V30 1289 H 129.197 5.36072 -1.31645 0
M  V30 1290 H 129.674 4.39135 0.0755063 0
M  V30 1291 H 130.28 3.96395 -1.54115 0
M  V30 1292 N 128.595 0.856903 1.32268 0
M  V30 1293 C 130.011 0.547061 1.49931 0
M  V30 1294 C 130.211 -0.921781 1.7918 0
M  V30 1295 O 129.267 -1.70469 1.8627 0
M  V30 1296 C 130.58 1.43599 2.64196 0
M  V30 1297 C 132.128 1.43665 2.78081 0
M  V30 1298 C 132.603 2.31085 3.95428 0
M  V30 1299 N 134.094 2.28893 4.02694 0
M  V30 1300 C 134.829 2.93262 4.92732 0
M  V30 1301 N 134.325 3.66751 5.87763 0
M  V30 1302 N 136.118 2.82638 4.85873 0
M  V30 1303 H 128.269 1.8075 1.11549 0
M  V30 1304 H 130.532 0.772144 0.549997 0
M  V30 1305 H 130.238 2.48058 2.49319 0
M  V30 1306 H 130.112 1.12502 3.60032 0
M  V30 1307 H 132.499 0.399701 2.92381 0
M  V30 1308 H 132.58 1.7878 1.82952 0
M  V30 1309 H 132.224 3.34849 3.81888 0
M  V30 1310 H 132.154 1.93302 4.89839 0
M  V30 1311 H 134.645 1.75466 3.34694 0
M  V30 1312 H 134.958 4.13027 6.53168 0
M  V30 1313 H 133.303 3.70859 5.87783 0
M  V30 1314 H 136.494 2.24774 4.10602 0
M  V30 1315 H 136.667 3.33084 5.55841 0
M  V30 1316 N 130.073 -1.45103 0.615059 0
M  V30 1317 C 131.006 -2.27717 -0.148408 0
M  V30 1318 C 131.984 -1.37584 -0.866572 0
M  V30 1319 O 133.168 -1.67017 -0.87393 0
M  V30 1320 C 130.295 -3.16136 -1.21557 0
M  V30 1321 C 129.341 -4.22263 -0.599712 0
M  V30 1322 S 130.174 -5.3215 0.598081 0
M  V30 1323 C 131.33 -6.24137 -0.469484 0
M  V30 1324 H 131.563 -2.92121 0.552483 0
M  V30 1325 H 129.096 -1.49054 0.402778 0
M  V30 1326 H 131.054 -3.67633 -1.82638 0
M  V30 1327 H 129.715 -2.50982 -1.88857 0
M  V30 1328 H 128.908 -4.84081 -1.4029 0
M  V30 1329 H 128.51 -3.73945 -0.063876 0
M  V30 1330 H 130.802 -6.63984 -1.34652 0
M  V30 1331 H 131.745 -7.0801 0.112725 0
M  V30 1332 H 132.153 -5.58971 -0.788168 0
M  V30 1333 N 131.551 -0.354651 -1.53558 0
M  V30 1334 C 132.828 0.294281 -1.93374 0
M  V30 1335 C 133.208 1.67313 -1.28723 0
M  V30 1336 O 132.556 2.24179 -0.442247 0
M  V30 1337 C 132.766 0.355445 -3.47185 0
M  V30 1338 C 134.114 0.601007 -4.20325 0
M  V30 1339 O 135.138 0.437106 -3.53508 0
M  V30 1340 O 133.997 0.919322 -5.38712 0
M  V30 1341 H 131.091 0.174033 -0.808481 0
M  V30 1342 H 133.637 -0.406638 -1.64756 0
M  V30 1343 H 132.409 -0.611729 -3.86489 0
M  V30 1344 H 132.032 1.1027 -3.82003 0
M  V30 1345 N 133.029 1.57378 -0.0835403 0
M  V30 1346 C 133.959 2.1641 0.87686 0
M  V30 1347 C 134.94 1.09429 1.30228 0
M  V30 1348 O 136.125 1.37516 1.37124 0
M  V30 1349 C 133.255 2.73517 2.14022 0
M  V30 1350 C 132.209 3.85769 1.85381 0
M  V30 1351 C 131.535 4.29529 3.18448 0
M  V30 1352 C 132.835 5.09486 1.14984 0
M  V30 1353 H 134.529 2.96914 0.385059 0
M  V30 1354 H 132.075 1.42823 0.18377 0
M  V30 1355 H 134.028 3.13463 2.81636 0
M  V30 1356 H 132.752 1.90252 2.65465 0
M  V30 1357 H 131.411 3.46345 1.20169 0
M  V30 1358 H 131.059 3.43169 3.67755 0
M  V30 1359 H 130.759 5.05204 3.00071 0
M  V30 1360 H 132.283 4.72099 3.8724 0
M  V30 1361 H 133.697 5.46674 1.72687 0
M  V30 1362 H 132.094 5.90515 1.06826 0
M  V30 1363 H 133.164 4.84724 0.130749 0
M  V30 1364 N 134.507 -0.190092 1.56449 0
M  V30 1365 C 135.417 -1.25591 1.98152 0
M  V30 1366 C 136.433 -1.49519 0.889944 0
M  V30 1367 O 137.609 -1.62036 1.19609 0
M  V30 1368 C 134.674 -2.57916 2.3169 0
M  V30 1369 C 133.735 -2.42015 3.5458 0
M  V30 1370 C 132.968 -3.6803 3.8651 0
M  V30 1371 O 133.191 -4.72413 3.1966 0
M  V30 1372 O 132.125 -3.6326 4.79923 0
M  V30 1373 H 135.951 -0.931988 2.89046 0
M  V30 1374 H 133.536 -0.395488 1.4407 0
M  V30 1375 H 135.418 -3.36008 2.54316 0
M  V30 1376 H 134.093 -2.89925 1.43963 0
M  V30 1377 H 133 -1.62017 3.37196 0
M  V30 1378 H 134.333 -2.14937 4.4279 0
M  V30 1379 N 135.985 -1.50799 -0.457987 0
M  V30 1380 C 136.948 -1.7005 -1.53674 0
M  V30 1381 C 137.948 -0.570881 -1.50325 0
M  V30 1382 O 139.138 -0.838126 -1.52712 0
M  V30 1383 C 136.27 -1.73788 -2.93276 0
M  V30 1384 H 137.463 -2.66306 -1.37917 0
M  V30 1385 H 135.016 -1.40477 -0.685271 0
M  V30 1386 H 135.751 -0.792717 -3.14462 0
M  V30 1387 H 135.536 -2.55864 -2.97113 0
M  V30 1388 H 137.026 -1.90591 -3.71571 0
M  V30 1389 N 137.463 0.71206 -1.40597 0
M  V30 1390 C 138.703 1.48438 -1.40519 0
M  V30 1391 C 139.067 1.91998 -0.00767611 0
M  V30 1392 O 140.268 2.6854 0.118239 0
M  V30 1393 C 138.539 2.67514 -2.37004 0
M  V30 1394 S 140.098 3.56875 -2.55315 0
M  V30 1395 H 136.916 0.507457 -0.498005 0
M  V30 1396 H 139.518 0.832355 -1.76896 0
M  V30 1397 H 138.222 2.33689 -3.37368 0
M  V30 1398 H 137.753 3.37625 -2.01923 0
M  V30 1399 H 139.768 4.62081 -1.8082 0
M  V30 1400 N 138.941 1.26152 0.944643 0
M  V30 1401 C 139.904 1.07474 2.0244 0
M  V30 1402 C 140.904 0.0242064 1.60782 0
M  V30 1403 O 142.094 0.267302 1.72137 0
M  V30 1404 C 139.226 0.633956 3.34953 0
M  V30 1405 H 140.419 2.03336 2.20442 0
M  V30 1406 H 137.972 1.087 1.12312 0
M  V30 1407 H 138.707 -0.326811 3.22649 0
M  V30 1408 H 138.492 1.39247 3.66542 0
M  V30 1409 H 139.982 0.52501 4.14287 0
M  V30 1410 N 140.419 -1.14872 1.07899 0
M  V30 1411 C 141.647 -1.89661 0.82683 0
M  V30 1412 C 142.062 -1.78312 -0.620519 0
M  V30 1413 O 141.419 -1.13888 -1.42604 0
M  V30 1414 C 141.47 -3.39817 1.23316 0
M  V30 1415 O 141.191 -3.50845 2.62372 0
M  V30 1416 C 142.692 -4.31615 1.0111 0
M  V30 1417 H 139.912 -0.60092 0.298557 0
M  V30 1418 H 142.456 -1.4551 1.43691 0
M  V30 1419 H 140.611 -3.8161 0.667286 0
M  V30 1420 H 141.025 -4.44076 2.79101 0
M  V30 1421 H 142.499 -5.35367 1.34486 0
M  V30 1422 H 142.976 -4.39169 -0.0522168 0
M  V30 1423 H 143.582 -3.95572 1.56215 0
M  V30 1424 N 141.898 -0.863906 -1.31812 0
M  V30 1425 C 143.138 -0.47825 -1.98726 0
M  V30 1426 C 143.502 0.950397 -1.66828 0
M  V30 1427 O 144.703 1.44109 -2.26905 0
M  V30 1428 C 142.974 -0.721134 -3.50049 0
M  V30 1429 S 144.533 -0.434432 -4.36644 0
M  V30 1430 H 141.351 -0.178773 -0.688158 0
M  V30 1431 H 143.953 -1.11862 -1.60334 0
M  V30 1432 H 142.657 -1.75981 -3.70755 0
M  V30 1433 H 142.188 -0.0675315 -3.93342 0
M  V30 1434 H 144.203 0.735786 -4.90714 0
M  V30 1435 N 143.376 1.44774 -0.622745 0
M  V30 1436 C 144.326 2.2774 0.108889 0
M  V30 1437 C 145.31 1.38189 0.824175 0
M  V30 1438 O 146.502 1.62063 0.711664 0
M  V30 1439 C 143.631 3.25353 1.09546 0
M  V30 1440 C 142.717 4.22392 0.380232 0
M  V30 1441 N 143.108 5.02388 -0.586535 0
M  V30 1442 C 141.406 4.41588 0.625792 0
M  V30 1443 C 142.107 5.72894 -1.00834 0
M  V30 1444 N 141.083 5.42479 -0.348878 0
M  V30 1445 H 144.885 2.86993 -0.63341 0
M  V30 1446 H 142.399 1.5611 -0.447589 0
M  V30 1447 H 144.396 3.83538 1.63414 0
M  V30 1448 H 143.056 2.6766 1.83815 0
M  V30 1449 H 144.067 5.0885 -0.963975 0
M  V30 1450 H 140.744 3.95003 1.352 0
M  V30 1451 H 142.134 6.47158 -1.80656 0
M  V30 1452 N 144.854 0.36279 1.53368 0
M  V30 1453 C 146.082 -0.228613 2.05633 0
M  V30 1454 C 146.497 -1.42676 1.23649 0
M  V30 1455 O 145.854 -1.80394 0.27647 0
M  V30 1456 C 145.905 -0.624845 3.56059 0
M  V30 1457 O 145.626 0.525675 4.34935 0
M  V30 1458 C 147.127 -1.27493 4.24571 0
M  V30 1459 H 144.347 -0.0407183 0.669763 0
M  V30 1460 H 146.891 0.520352 1.97769 0
M  V30 1461 H 145.046 -1.32373 3.64083 0
M  V30 1462 H 145.46 0.205969 5.24095 0
M  V30 1463 H 146.934 -1.50277 5.31151 0
M  V30 1464 H 147.411 -2.23439 3.78116 0
M  V30 1465 H 148.017 -0.617558 4.20792 0
M  V30 1466 N 146.332 -1.57332 0.0918853 0
M  V30 1467 C 147.295 -2.12708 -0.85369 0
M  V30 1468 C 148.295 -1.05561 -1.213 0
M  V30 1469 O 149.485 -1.31461 -1.14296 0
M  V30 1470 C 146.617 -2.64503 -2.15061 0
M  V30 1471 H 147.81 -2.97573 -0.3729 0
M  V30 1472 H 145.363 -1.55509 -0.157072 0
M  V30 1473 H 146.098 -1.83149 -2.67632 0
M  V30 1474 H 145.883 -3.4284 -1.90272 0
M  V30 1475 H 147.373 -3.07351 -2.82711 0
M  V30 1476 N 147.81 0.181792 -1.56548 0
M  V30 1477 C 148.742 1.24956 -1.92142 0
M  V30 1478 C 149.755 1.41022 -0.813422 0
M  V30 1479 O 150.944 1.41212 -1.09186 0
M  V30 1480 C 148.044 2.61981 -2.14987 0
M  V30 1481 C 147.217 2.6735 -3.46183 0
M  V30 1482 C 146.276 3.85664 -3.5798 0
M  V30 1483 O 145.302 3.72148 -4.30691 0
M  V30 1484 N 146.504 5.01683 -2.92053 0
M  V30 1485 H 149.269 0.947329 -2.84334 0
M  V30 1486 H 146.83 0.371629 -1.57577 0
M  V30 1487 H 148.822 3.3958 -2.20154 0
M  V30 1488 H 147.392 2.84637 -1.2923 0
M  V30 1489 H 146.612 1.75925 -3.52766 0
M  V30 1490 H 147.9 2.67939 -4.32534 0
M  V30 1491 H 147.298 5.15564 -2.32832 0
M  V30 1492 H 145.855 5.77181 -3.0283 0
M  V30 1493 N 149.288 1.51039 0.449983 0
M  V30 1494 C 150.535 1.63081 1.20045 0
M  V30 1495 C 150.863 0.341024 1.91487 0
M  V30 1496 O 150.118 -0.674276 1.83717 0
M  V30 1497 C 150.417 2.77556 2.25161 0
M  V30 1498 C 150.083 4.17289 1.70823 0
M  V30 1499 C 148.745 4.55305 1.55725 0
M  V30 1500 C 151.097 5.04536 1.3074 0
M  V30 1501 C 148.425 5.78287 0.989999 0
M  V30 1502 C 150.777 6.28085 0.754482 0
M  V30 1503 C 149.441 6.64885 0.590308 0
M  V30 1504 H 148.711 0.596755 0.439277 0
M  V30 1505 H 151.358 1.85037 0.49333 0
M  V30 1506 H 149.663 2.49771 3.01863 0
M  V30 1507 H 151.36 2.84073 2.83026 0
M  V30 1508 H 147.95 3.8731 1.83546 0
M  V30 1509 H 152.134 4.75782 1.41229 0
M  V30 1510 H 147.39 6.05456 0.850451 0
M  V30 1511 H 151.564 6.95038 0.435324 0
M  V30 1512 H 149.191 7.60055 0.14862 0
M  V30 1513 N 150.766 -0.704594 1.40972 0
M  V30 1514 C 151.714 -1.83994 1.42299 0
M  V30 1515 C 152.708 -1.66684 0.302111 0
M  V30 1516 O 153.914 -1.73655 0.473697 0
M  V30 1517 H 150.289 -0.606171 0.44504 0
M  V30 1518 H 152.26 -1.79992 2.38003 0
M  V30 1519 C 151.009 -3.21946 1.31323 0
M  V30 1520 H 150.332 -3.35878 2.16855 0
M  V30 1521 H 151.772 -4.01491 1.36311 0
M  V30 1522 C 150.231 -3.36891 0.0245977 0
M  V30 1523 O 150.761 -3.90687 -0.934153 0
M  V30 1524 N 148.967 -2.90559 -0.0485243 0
M  V30 1525 H 148.514 -2.46968 0.732419 0
M  V30 1526 H 148.472 -3.00937 -0.910171 0
M  V30 1527 N 152.244 -1.26651 -0.937939 0
M  V30 1528 C 153.469 -1.15279 -1.72411 0
M  V30 1529 C 153.894 0.287866 -1.85884 0
M  V30 1530 O 153.252 1.20855 -1.35143 0
M  V30 1531 C 153.3 -1.83028 -3.10698 0
M  V30 1532 O 152.404 -1.12128 -3.96864 0
M  V30 1533 H 151.745 -0.401504 -0.528858 0
M  V30 1534 H 154.275 -1.67531 -1.1745 0
M  V30 1535 H 154.285 -1.89981 -3.6107 0
M  V30 1536 H 152.96 -2.87833 -3.00208 0
M  V30 1537 H 151.537 -1.13173 -3.55312 0
M  V30 1538 N 153.722 1.14298 -1.08507 0
M  V30 1539 C 154.969 1.85359 -0.815373 0
M  V30 1540 C 155.297 1.83001 0.658865 0
M  V30 1541 O 154.552 1.25655 1.50031 0
M  V30 1542 C 154.851 3.33547 -1.28379 0
M  V30 1543 C 154.517 3.56093 -2.76602 0
M  V30 1544 C 153.179 3.61955 -3.17084 0
M  V30 1545 C 155.531 3.64834 -3.72217 0
M  V30 1546 C 152.859 3.74082 -4.51973 0
M  V30 1547 C 155.211 3.78487 -5.06883 0
M  V30 1548 C 153.875 3.82598 -5.46969 0
M  V30 1549 H 153.145 0.678276 -0.298366 0
M  V30 1550 H 155.792 1.35002 -1.35819 0
M  V30 1551 H 154.097 3.86191 -0.660593 0
M  V30 1552 H 155.794 3.86959 -1.05186 0
M  V30 1553 H 152.384 3.52179 -2.4427 0
M  V30 1554 H 156.568 3.59595 -3.42061 0
M  V30 1555 H 151.824 3.75527 -4.82483 0
M  V30 1556 H 155.998 3.84193 -5.80834 0
M  V30 1557 H 153.625 3.91747 -6.51489 0
M  V30 1558 N 155.201 0.870884 1.31352 0
M  V30 1559 C 156.447 0.482987 1.96965 0
M  V30 1560 C 156.78 -0.962462 1.68672 0
M  V30 1561 O 156.055 -1.6779 0.98371 0
M  V30 1562 C 156.338 0.741752 3.52378 0
M  V30 1563 C 156.191 2.2368 3.9024 0
M  V30 1564 C 157.51 0.208838 4.39604 0
M  V30 1565 H 154.629 0.176955 0.715441 0
M  V30 1566 H 157.271 1.09229 1.55464 0
M  V30 1567 H 155.421 0.223149 3.87859 0
M  V30 1568 H 157.093 2.82273 3.64856 0
M  V30 1569 H 155.336 2.70901 3.38814 0
M  V30 1570 H 156.007 2.3685 4.98604 0
M  V30 1571 H 158.483 0.652529 4.10952 0
M  V30 1572 H 157.359 0.419336 5.47296 0
M  V30 1573 H 157.62 -0.889275 4.33064 0
M  V30 1574 N 156.679 -1.44442 0.630414 0
M  V30 1575 C 157.589 -2.34476 -0.0761693 0
M  V30 1576 C 158.605 -1.52576 -0.836449 0
M  V30 1577 O 159.781 -1.85307 -0.788874 0
M  V30 1578 C 156.846 -3.30545 -1.04599 0
M  V30 1579 C 155.907 -4.28352 -0.28516 0
M  V30 1580 C 155.14 -5.19831 -1.20878 0
M  V30 1581 O 155.363 -5.15223 -2.44747 0
M  V30 1582 O 154.297 -5.97892 -0.693491 0
M  V30 1583 H 158.123 -2.96345 0.664324 0
M  V30 1584 H 155.708 -1.44203 0.39061 0
M  V30 1585 H 157.59 -3.89681 -1.60396 0
M  V30 1586 H 156.265 -2.7121 -1.76711 0
M  V30 1587 H 155.172 -3.72764 0.315837 0
M  V30 1588 H 156.505 -4.90605 0.395924 0
M  V30 1589 N 158.157 -0.370918 -1.53173 0
M  V30 1590 C 159.403 0.217423 -2.01631 0
M  V30 1591 C 159.736 1.47983 -1.25756 0
M  V30 1592 O 159.011 1.91274 -0.352764 0
M  V30 1593 C 159.294 0.503982 -3.56556 0
M  V30 1594 C 159.147 -0.77243 -4.43118 0
M  V30 1595 C 160.466 1.30234 -4.20389 0
M  V30 1596 H 157.585 0.0775486 -0.732909 0
M  V30 1597 H 160.227 -0.496863 -1.83388 0
M  V30 1598 H 158.377 1.11248 -3.72231 0
M  V30 1599 H 160.049 -1.4098 -4.39229 0
M  V30 1600 H 158.292 -1.39167 -4.10871 0
M  V30 1601 H 158.963 -0.526815 -5.4948 0
M  V30 1602 H 161.439 0.787546 -4.08579 0
M  V30 1603 H 160.315 1.47158 -5.28806 0
M  V30 1604 H 160.576 2.31237 -3.76805 0
M  V30 1605 N 159.635 1.57281 -0.100228 0
M  V30 1606 C 161.051 1.57527 0.256416 0
M  V30 1607 C 161.251 1.11173 1.68056 0
M  V30 1608 O 160.307 0.79053 2.39806 0
M  V30 1609 C 161.62 3.00673 0.0401747 0
M  V30 1610 C 163.168 3.12815 0.107528 0
M  V30 1611 C 163.643 4.57929 -0.0807834 0
M  V30 1612 N 165.134 4.63193 -0.0261207 0
M  V30 1613 C 165.869 5.73212 -0.146999 0
M  V30 1614 N 165.365 6.92047 -0.322999 0
M  V30 1615 N 167.158 5.62031 -0.0879044 0
M  V30 1616 H 159.309 1.85718 -1.03065 0
M  V30 1617 H 161.572 0.857446 -0.404339 0
M  V30 1618 H 161.278 3.38804 -0.943649 0
M  V30 1619 H 161.152 3.69042 0.780262 0
M  V30 1620 H 163.539 2.74554 1.08186 0
M  V30 1621 H 163.62 2.47028 -0.664134 0
M  V30 1622 H 163.264 4.96886 -1.05201 0
M  V30 1623 H 163.194 5.21783 0.710635 0
M  V30 1624 H 165.685 3.77748 0.107161 0
M  V30 1625 H 165.998 7.7173 -0.406608 0
M  V30 1626 H 164.343 6.94074 -0.358733 0
M  V30 1627 H 167.534 4.68075 0.048498 0
M  V30 1628 H 167.707 6.47734 -0.185557 0
M  V30 1629 N 161.113 -0.173488 1.56642 0
M  V30 1630 C 162.063 -1.21941 1.92651 0
M  V30 1631 C 163.047 -1.39912 0.794577 0
M  V30 1632 O 164.239 -1.41919 1.05773 0
M  V30 1633 C 161.368 -2.55935 2.28806 0
M  V30 1634 C 160.454 -2.41667 3.48508 0
M  V30 1635 N 160.845 -1.9711 4.65813 0
M  V30 1636 C 159.143 -2.72499 3.53072 0
M  V30 1637 C 159.844 -1.95253 5.47952 0
M  V30 1638 N 158.82 -2.37575 4.88937 0
M  V30 1639 H 162.622 -0.866581 2.80834 0
M  V30 1640 H 160.136 -0.381776 1.57849 0
M  V30 1641 H 162.133 -3.31511 2.52797 0
M  V30 1642 H 160.793 -2.92022 1.41961 0
M  V30 1643 H 161.804 -1.67481 4.90072 0
M  V30 1644 H 158.481 -3.12639 2.767 0
M  V30 1645 H 159.871 -1.6252 6.51948 0
M  V30 1646 N 162.591 -1.51276 -0.441967 0
M  V30 1647 C 163.501 -1.75092 -1.56141 0
M  V30 1648 C 164.517 -0.634963 -1.62001 0
M  V30 1649 O 165.693 -0.916686 -1.79329 0
M  V30 1650 C 162.758 -1.86666 -2.92158 0
M  V30 1651 C 161.819 -3.10506 -2.96453 0
M  V30 1652 C 161.052 -3.21519 -4.25982 0
M  V30 1653 O 161.275 -2.38586 -5.18105 0
M  V30 1654 O 160.209 -4.14465 -4.36466 0
M  V30 1655 H 164.035 -2.70044 -1.38961 0
M  V30 1656 H 161.62 -1.35722 -0.624499 0
M  V30 1657 H 163.502 -1.96292 -3.72891 0
M  V30 1658 H 162.177 -0.949014 -3.09476 0
M  V30 1659 H 161.084 -3.06363 -2.14692 0
M  V30 1660 H 162.417 -4.01945 -2.84079 0
M  V30 1661 N 164.069 0.697108 -1.41344 0
M  V30 1662 C 165.294 1.49096 -1.44171 0
M  V30 1663 C 165.719 1.88038 -0.0481568 0
M  V30 1664 O 165.077 1.54525 0.948243 0
M  V30 1665 C 165.125 2.73088 -2.3549 0
M  V30 1666 O 164.229 3.70514 -1.81088 0
M  V30 1667 H 163.57 0.448801 -0.489361 0
M  V30 1668 H 166.1 0.856992 -1.85787 0
M  V30 1669 H 166.11 3.21413 -2.51312 0
M  V30 1670 H 164.785 2.44081 -3.36745 0
M  V30 1671 H 163.362 3.29441 -1.74708 0
M  V30 1672 N 165.547 1.27147 0.931209 0
M  V30 1673 C 166.497 1.06227 2.01742 0
M  V30 1674 C 167.481 -0.00859065 1.60898 0
M  V30 1675 O 168.673 0.209537 1.75755 0
M  V30 1676 C 165.802 0.707787 3.35924 0
M  V30 1677 C 164.888 1.81661 3.83223 0
M  V30 1678 N 165.279 3.05564 4.03069 0
M  V30 1679 C 163.577 1.70249 4.12227 0
M  V30 1680 C 164.278 3.77697 4.42403 0
M  V30 1681 N 163.254 3.0544 4.49675 0
M  V30 1682 H 167.056 2.00261 2.15111 0
M  V30 1683 H 164.57 1.1781 1.11779 0
M  V30 1684 H 166.567 0.539043 4.134 0
M  V30 1685 H 165.227 -0.224964 3.2392 0
M  V30 1686 H 166.238 3.41363 3.89476 0
M  V30 1687 H 162.915 0.840329 4.08956 0
M  V30 1688 H 164.305 4.84168 4.65866 0
M  V30 1689 N 167.025 -1.13721 1.09112 0
M  V30 1690 C 168.436 -1.6648 0.845068 0
M  V30 1691 C 168.787 -1.85911 -0.62701 0
M  V30 1692 O 167.912 -1.57556 -1.48341 0
M  V30 1693 C 168.507 -3.02413 1.52748 0
M  V30 1694 C 167.066 -3.52176 1.32849 0
M  V30 1695 C 166.213 -2.27492 1.58564 0
M  V30 1696 H 169.164 -0.976872 1.25072 0
M  V30 1697 H 169.185 -3.68223 0.958752 0
M  V30 1698 H 168.697 -2.88238 2.59885 0
M  V30 1699 H 166.798 -3.7156 0.278137 0
M  V30 1700 H 166.911 -4.32499 2.0611 0
M  V30 1701 H 165.275 -2.33923 1.00758 0
M  V30 1702 H 166.058 -2.15886 2.66924 0
M  V30 1703 N 168.503 -0.877838 -1.30888 0
M  V30 1704 C 169.919 -0.570844 -1.49042 0
M  V30 1705 C 170.119 0.893159 -1.80624 0
M  V30 1706 O 169.175 1.67485 -1.88958 0
M  V30 1707 C 170.488 -1.47784 -2.61878 0
M  V30 1708 C 172.036 -1.48071 -2.75761 0
M  V30 1709 C 172.511 -2.37347 -3.91702 0
M  V30 1710 N 174.002 -2.35271 -3.99001 0
M  V30 1711 C 174.737 -3.01063 -4.88004 0
M  V30 1712 N 174.233 -3.76055 -5.81854 0
M  V30 1713 N 176.026 -2.90332 -4.81315 0
M  V30 1714 H 168.177 -1.82502 -1.0866 0
M  V30 1715 H 170.44 -0.780797 -0.537644 0
M  V30 1716 H 170.146 -2.51993 -2.45341 0
M  V30 1717 H 170.02 -1.18215 -3.58197 0
M  V30 1718 H 172.407 -0.446166 -2.91708 0
M  V30 1719 H 172.488 -1.81668 -1.80085 0
M  V30 1720 H 172.132 -3.40883 -3.76512 0
M  V30 1721 H 172.062 -2.01071 -4.86701 0
M  V30 1722 H 174.553 -1.80768 -3.3186 0
M  V30 1723 H 174.866 -4.23366 -6.46514 0
M  V30 1724 H 173.211 -3.80163 -5.81808 0
M  V30 1725 H 176.402 -2.31278 -4.06974 0
M  V30 1726 H 176.575 -3.41885 -5.50471 0
M  V30 1727 N 169.982 1.44106 -0.638065 0
M  V30 1728 C 170.912 2.33448 0.0494287 0
M  V30 1729 C 171.893 1.48606 0.827672 0
M  V30 1730 O 173.078 1.77308 0.792173 0
M  V30 1731 C 170.208 3.31771 1.02691 0
M  V30 1732 C 169.162 4.26485 0.359823 0
M  V30 1733 C 168.488 5.14729 1.44769 0
M  V30 1734 C 169.788 5.17056 -0.738296 0
M  V30 1735 H 171.482 2.91183 -0.696636 0
M  V30 1736 H 169.028 1.40014 -0.336456 0
M  V30 1737 H 170.981 3.93161 1.51666 0
M  V30 1738 H 169.705 2.7226 1.80395 0
M  V30 1739 H 168.364 3.66437 -0.10934 0
M  V30 1740 H 168.012 4.51566 2.21578 0
M  V30 1741 H 167.712 5.78913 1.00668 0
M  V30 1742 H 169.236 5.78991 1.93911 0
M  V30 1743 H 170.65 5.72342 -0.331354 0
M  V30 1744 H 169.047 5.89879 -1.10286 0
M  V30 1745 H 170.117 4.57652 -1.60258 0
M  V30 1746 N 171.46 0.379036 1.52974 0
M  V30 1747 C 172.37 -0.468639 2.29872 0
M  V30 1748 C 173.386 -1.08067 1.36373 0
M  V30 1749 O 174.562 -1.08871 1.69438 0
M  V30 1750 C 171.627 -1.58594 3.083 0
M  V30 1751 C 170.688 -1.00007 4.17489 0
M  V30 1752 C 169.921 -2.06413 4.92168 0
M  V30 1753 O 170.144 -3.27751 4.66835 0
M  V30 1754 O 169.078 -1.68717 5.7777 0
M  V30 1755 H 172.904 0.157508 3.03291 0
M  V30 1756 H 170.489 0.143035 1.48714 0
M  V30 1757 H 172.371 -2.23525 3.57232 0
M  V30 1758 H 171.046 -2.19724 2.37703 0
M  V30 1759 H 169.953 -0.314299 3.72777 0
M  V30 1760 H 171.286 -0.433135 4.90291 0
M  V30 1761 N 172.938 -1.57226 0.108567 0
M  V30 1762 C 173.885 -2.14756 -0.845481 0
M  V30 1763 C 174.855 -1.06971 -1.27068 0
M  V30 1764 O 176.04 -1.34827 -1.35005 0
M  V30 1765 C 173.18 -2.74298 -2.09415 0
M  V30 1766 C 172.293 -3.96358 -1.71826 0
M  V30 1767 C 171.428 -4.44021 -2.9158 0
M  V30 1768 C 170.467 -5.58637 -2.50181 0
M  V30 1769 N 169.604 -6.01091 -3.62814 0
M  V30 1770 H 174.444 -2.95961 -0.348035 0
M  V30 1771 H 171.981 -1.46226 -0.160106 0
M  V30 1772 H 173.939 -3.06945 -2.82561 0
M  V30 1773 H 172.569 -1.95801 -2.56636 0
M  V30 1774 H 171.621 -3.69939 -0.885947 0
M  V30 1775 H 172.933 -4.79504 -1.37394 0
M  V30 1776 H 172.087 -4.78522 -3.72963 0
M  V30 1777 H 170.826 -3.59803 -3.29231 0
M  V30 1778 H 169.831 -5.23751 -1.67228 0
M  V30 1779 H 171.056 -6.44613 -2.13659 0
M  V30 1780 H 169.002 -5.19817 -4.00158 0
M  V30 1781 H 168.919 -6.79066 -3.32273 0
M  V30 1782 H 170.187 -6.40227 -4.44668 0
M  V30 1783 N 174.416 0.165178 -1.56732 0
M  V30 1784 C 175.379 1.18822 -1.95995 0
M  V30 1785 C 176.379 1.3685 -0.84431 0
M  V30 1786 O 177.569 1.34152 -1.11126 0
M  V30 1787 C 174.701 2.5521 -2.26011 0
M  V30 1788 H 175.894 0.851825 -2.87548 0
M  V30 1789 H 173.447 0.407857 -1.50885 0
M  V30 1790 H 174.182 2.93852 -1.37191 0
M  V30 1791 H 173.967 2.43489 -3.07336 0
M  V30 1792 H 175.457 3.28927 -2.57288 0
M  V30 1793 N 175.894 1.51508 0.433938 0
M  V30 1794 C 177.122 1.68157 1.20543 0
M  V30 1795 C 177.537 0.380362 1.84929 0
M  V30 1796 O 176.894 -0.641446 1.70856 0
M  V30 1797 C 176.945 2.79965 2.28696 0
M  V30 1798 O 176.666 4.05045 1.66943 0
M  V30 1799 C 178.167 3.07912 3.18912 0
M  V30 1800 H 175.387 0.56421 0.363191 0
M  V30 1801 H 177.931 1.97941 0.513754 0
M  V30 1802 H 176.086 2.5277 2.93574 0
M  V30 1803 H 176.5 4.67165 2.38448 0
M  V30 1804 H 177.974 3.89719 3.90926 0
M  V30 1805 H 178.451 2.20456 3.79863 0
M  V30 1806 H 179.057 3.36779 2.59731 0
M  V30 1807 N 177.372 -0.689602 1.41712 0
M  V30 1808 C 178.783 -1.26973 1.36875 0
M  V30 1809 C 179.134 -1.96124 0.054748 0
M  V30 1810 O 178.259 -1.99141 -0.84687 0
M  V30 1811 C 178.854 -2.30912 2.47922 0
M  V30 1812 C 177.413 -2.84486 2.46464 0
M  V30 1813 C 176.56 -1.58603 2.27465 0
M  V30 1814 H 179.511 -0.48396 1.51141 0
M  V30 1815 H 179.532 -3.12331 2.17323 0
M  V30 1816 H 179.044 -1.80554 3.43543 0
M  V30 1817 H 177.145 -3.39005 1.54617 0
M  V30 1818 H 177.258 -3.34511 3.42986 0
M  V30 1819 H 175.622 -1.84632 1.75451 0
M  V30 1820 H 176.405 -1.10233 3.25121 0
M  V30 1821 N 178.85 -1.27639 -0.924453 0
M  V30 1822 C 180.078 -1.16989 -1.70649 0
M  V30 1823 C 180.493 0.272869 -1.86818 0
M  V30 1824 O 179.85 1.18549 -1.38753 0
M  V30 1825 C 179.901 -1.85229 -3.10439 0
M  V30 1826 O 179.622 -3.23868 -2.95028 0
M  V30 1827 C 181.123 -1.80746 -4.04779 0
M  V30 1828 H 178.343 -0.406595 -0.53378 0
M  V30 1829 H 180.887 -1.68569 -1.15778 0
M  V30 1830 H 179.042 -1.37545 -3.6216 0
M  V30 1831 H 179.456 -3.57889 -3.83426 0
M  V30 1832 H 180.93 -2.33101 -5.00368 0
M  V30 1833 H 181.407 -0.777499 -4.32263 0
M  V30 1834 H 182.013 -2.28059 -3.58984 0
M  V30 1835 N 180.328 1.1314 -1.09713 0
M  V30 1836 C 181.553 1.88862 -0.857081 0
M  V30 1837 C 181.978 1.78729 0.586304 0
M  V30 1838 O 181.336 1.13692 1.41222 0
M  V30 1839 C 181.384 3.36325 -1.30069 0
M  V30 1840 O 180.488 4.09815 -0.461007 0
M  V30 1841 H 179.829 0.587108 -0.310162 0
M  V30 1842 H 182.359 1.43129 -1.46203 0
M  V30 1843 H 182.369 3.87157 -1.28738 0
M  V30 1844 H 181.044 3.43017 -2.35185 0
M  V30 1845 H 179.621 3.68986 -0.538888 0
M  V30 1846 N 181.806 0.884767 1.30421 0
M  V30 1847 C 183.222 0.57874 1.48737 0
M  V30 1848 C 183.422 -0.883567 1.81095 0
M  V30 1849 O 182.478 -1.6648 1.89844 0
M  V30 1850 C 183.791 1.49171 2.61091 0
M  V30 1851 C 185.339 1.49532 2.74971 0
M  V30 1852 C 185.814 2.39421 3.90438 0
M  V30 1853 N 187.305 2.37383 3.97748 0
M  V30 1854 C 188.04 3.03647 4.86401 0
M  V30 1855 N 187.536 3.79136 5.79852 0
M  V30 1856 N 189.329 2.9288 4.79768 0
M  V30 1857 H 181.48 1.83075 1.0769 0
M  V30 1858 H 183.743 0.783637 0.533495 0
M  V30 1859 H 183.449 2.53291 2.44001 0
M  V30 1860 H 183.323 1.20113 3.57565 0
M  V30 1861 H 185.71 0.46163 2.91467 0
M  V30 1862 H 185.791 1.8262 1.79119 0
M  V30 1863 H 185.435 3.42874 3.74699 0
M  V30 1864 H 185.365 2.03649 4.85628 0
M  V30 1865 H 187.856 1.82525 3.30897 0
M  V30 1866 H 188.169 4.26789 6.4426 0
M  V30 1867 H 186.514 3.83243 5.79784 0
M  V30 1868 H 189.705 2.33433 4.05742 0
M  V30 1869 H 189.878 3.448 5.4865 0
M  V30 1870 N 183.284 -1.43765 0.645699 0
M  V30 1871 C 184.509 -2.06767 0.161883 0
M  V30 1872 C 184.934 -1.48034 -1.16049 0
M  V30 1873 O 184.292 -0.587369 -1.71522 0
M  V30 1874 C 184.34 -3.60519 0.0762003 0
M  V30 1875 O 183.444 -4.00982 -0.963721 0
M  V30 1876 H 182.785 -0.657675 0.091429 0
M  V30 1877 H 185.315 -1.84397 0.886499 0
M  V30 1878 H 185.325 -4.07853 -0.109604 0
M  V30 1879 H 184 -4.02646 1.04157 0
M  V30 1880 H 182.577 -3.65253 -0.751312 0
M  V30 1881 N 184.763 -0.387143 -1.52771 0
M  V30 1882 C 186.174 0.0873634 -1.86495 0
M  V30 1883 C 186.525 1.46336 -1.30691 0
M  V30 1884 O 185.65 2.068 -0.637409 0
M  V30 1885 C 186.245 0.165305 -3.38396 0
M  V30 1886 C 184.804 0.584101 -3.7184 0
M  V30 1887 C 183.951 -0.255279 -2.76122 0
M  V30 1888 H 186.902 -0.605104 -1.46711 0
M  V30 1889 H 186.923 0.984848 -3.67534 0
M  V30 1890 H 186.435 -0.836301 -3.78982 0
M  V30 1891 H 184.536 1.59315 -3.36823 0
M  V30 1892 H 184.649 0.343749 -4.77865 0
M  V30 1893 H 183.013 0.279126 -2.53166 0
M  V30 1894 H 183.796 -1.25482 -3.19545 0
M  V30 1895 N 186.241 1.57166 -0.116904 0
M  V30 1896 C 187.174 2.10912 0.871291 0
M  V30 1897 C 188.152 1.025 1.26224 0
M  V30 1898 O 189.336 1.3014 1.36366 0
M  V30 1899 C 186.463 2.6041 2.16574 0
M  V30 1900 C 185.509 3.80687 1.92302 0
M  V30 1901 S 186.342 5.23199 1.14119 0
M  V30 1902 C 187.498 5.76064 2.44748 0
M  V30 1903 H 187.731 2.94401 0.414138 0
M  V30 1904 H 185.264 1.54096 0.096829 0
M  V30 1905 H 187.222 2.89583 2.9095 0
M  V30 1906 H 185.883 1.77106 2.59408 0
M  V30 1907 H 185.076 4.13462 2.8821 0
M  V30 1908 H 184.678 3.5212 1.26047 0
M  V30 1909 H 186.97 5.8566 3.406 0
M  V30 1910 H 187.913 6.74184 2.16521 0
M  V30 1911 H 188.321 5.04117 2.54019 0
M  V30 1912 N 187.719 -0.156864 1.56817 0
M  V30 1913 C 188.966 -0.871125 1.82805 0
M  V30 1914 C 189.294 -1.81611 0.696262 0
M  V30 1915 O 188.549 -1.93141 -0.315459 0
M  V30 1916 C 188.848 -1.68737 3.1506 0
M  V30 1917 C 188.514 -0.890045 4.42028 0
M  V30 1918 C 187.176 -0.670042 4.76512 0
M  V30 1919 C 189.528 -0.331769 5.20143 0
M  V30 1920 C 186.856 0.119104 5.86579 0
M  V30 1921 C 189.208 0.444365 6.31037 0
M  V30 1922 C 187.872 0.675035 6.64078 0
M  V30 1923 H 187.142 -0.318767 0.668931 0
M  V30 1924 H 189.789 -0.135274 1.91022 0
M  V30 1925 H 188.094 -2.49304 3.0225 0
M  V30 1926 H 189.791 -2.24331 3.3238 0
M  V30 1927 H 186.381 -1.07157 4.14988 0
M  V30 1928 H 190.565 -0.489043 4.93885 0
M  V30 1929 H 185.821 0.307417 6.10627 0
M  V30 1930 H 189.995 0.884139 6.90765 0
M  V30 1931 H 187.622 1.28839 7.49203 0
M  V30 1932 N 189.197 -1.51736 -0.425897 0
M  V30 1933 C 190.474 -1.55519 -1.1863 0
M  V30 1934 C 190.854 -0.326219 -2.08564 0
M  V30 1935 O 190.202 0.688012 -2.17896 0
M  V30 1936 C 190.412 -2.87521 -1.9782 0
M  V30 1937 C 191.76 -3.39899 -2.54468 0
M  V30 1938 O 192.784 -2.89148 -2.08019 0
M  V30 1939 O 191.643 -4.2848 -3.39215 0
M  V30 1940 H 188.737 -0.625739 -0.540721 0
M  V30 1941 H 191.283 -1.64055 -0.434038 0
M  V30 1942 H 190.055 -3.68422 -1.31836 0
M  V30 1943 H 189.678 -2.822 -2.80088 0
M  V30 1944 N 190.675 0.682077 -1.42076 0
M  V30 1945 C 191.622 1.79578 -1.44984 0
M  V30 1946 C 192.592 1.6332 -0.302614 0
M  V30 1947 O 193.777 1.83978 -0.505633 0
M  V30 1948 C 190.917 3.1756 -1.35091 0
M  V30 1949 C 190.03 3.45156 -2.59791 0
M  V30 1950 C 189.165 4.72826 -2.42093 0
M  V30 1951 C 188.204 4.93433 -3.62202 0
M  V30 1952 N 187.341 6.12338 -3.43491 0
M  V30 1953 H 192.181 1.76427 -2.40161 0
M  V30 1954 H 189.718 0.861376 -1.19242 0
M  V30 1955 H 191.676 3.97287 -1.27354 0
M  V30 1956 H 190.306 3.19854 -0.435133 0
M  V30 1957 H 189.358 2.59736 -2.77923 0
M  V30 1958 H 190.67 3.5628 -3.49094 0
M  V30 1959 H 189.824 5.60631 -2.319 0
M  V30 1960 H 188.563 4.63973 -1.50268 0
M  V30 1961 H 187.568 4.04073 -3.72834 0
M  V30 1962 H 188.793 5.04136 -4.54998 0
M  V30 1963 H 186.739 6.04672 -2.54377 0
M  V30 1964 H 186.656 6.2429 -4.26377 0
M  V30 1965 H 187.924 7.02841 -3.37097 0
M  V30 1966 N 192.153 1.28127 0.917671 0
M  V30 1967 C 193.083 1.14248 2.03641 0
M  V30 1968 C 194.064 0.0412748 1.7005 0
M  V30 1969 O 195.249 0.217566 1.92977 0
M  V30 1970 C 192.379 0.799431 3.37974 0
M  V30 1971 C 191.333 1.85497 3.85713 0
M  V30 1972 C 190.659 1.36565 5.16966 0
M  V30 1973 C 191.959 3.26085 4.08002 0
M  V30 1974 H 193.653 2.07835 2.15511 0
M  V30 1975 H 191.199 1.00064 1.03553 0
M  V30 1976 H 193.152 0.689114 4.15727 0
M  V30 1977 H 191.876 -0.172145 3.26146 0
M  V30 1978 H 190.535 1.95437 3.10161 0
M  V30 1979 H 190.183 0.383253 5.01538 0
M  V30 1980 H 189.883 2.07143 5.49878 0
M  V30 1981 H 191.407 1.26848 5.97279 0
M  V30 1982 H 192.821 3.19089 4.76293 0
M  V30 1983 H 191.218 3.94462 4.52238 0
M  V30 1984 H 192.288 3.70394 3.12948 0
M  V30 1985 N 193.631 -1.12557 1.10312 0
M  V30 1986 C 194.88 -1.83395 0.839588 0
M  V30 1987 C 195.193 -1.84939 -0.636929 0
M  V30 1988 O 196.399 -2.51761 -1.01631 0
M  V30 1989 C 194.855 -3.29303 1.45215 0
M  V30 1990 C 194.463 -3.36122 2.96186 0
M  V30 1991 C 196.207 -4.05121 1.26796 0
M  V30 1992 C 194.114 -4.76357 3.50483 0
M  V30 1993 H 193.044 -0.687133 0.310425 0
M  V30 1994 H 195.695 -1.26746 1.32694 0
M  V30 1995 H 194.077 -3.85812 0.892469 0
M  V30 1996 H 195.251 -2.89559 3.58458 0
M  V30 1997 H 193.566 -2.73776 3.13745 0
M  V30 1998 H 196.163 -5.08668 1.64806 0
M  V30 1999 H 196.506 -4.15773 0.209409 0
M  V30 2000 H 197.039 -3.54967 1.79563 0
M  V30 2001 H 193.778 -4.70899 4.55998 0
M  V30 2002 H 193.298 -5.23377 2.92978 0
M  V30 2003 H 194.977 -5.45294 3.48228 0
M  V30 2004 N 195.109 -0.891671 -1.2995 0
M  V30 2005 C 196.072 -0.36828 -2.26222 0
M  V30 2006 C 197.072 0.493014 -1.53056 0
M  V30 2007 O 198.262 0.299213 -1.71611 0
M  V30 2008 C 195.394 0.47442 -3.37583 0
M  V30 2009 H 196.587 -1.21844 -2.74033 0
M  V30 2010 H 194.14 -0.669107 -1.41254 0
M  V30 2011 H 194.875 1.34489 -2.95099 0
M  V30 2012 H 194.66 -0.142615 -3.91841 0
M  V30 2013 H 196.15 0.83218 -4.09224 0
M  V30 2014 N 196.587 1.43421 -0.653314 0
M  V30 2015 C 197.835 2.01414 -0.166415 0
M  V30 2016 C 198.156 1.51803 1.22397 0
M  V30 2017 O 197.426 0.730693 1.81763 0
M  V30 2018 H 196.006 0.744703 -0.0585319 0
M  V30 2019 H 198.668 1.75629 -0.845003 0
M  V30 2020 H 197.764 3.11734 -0.151111 0
M  V30 2021 N 198.065 0.39524 1.52563 0
M  V30 2022 C 199.015 -0.4541 2.23432 0
M  V30 2023 C 199.999 -1.02482 1.24042 0
M  V30 2024 O 201.191 -0.949938 1.49349 0
M  V30 2025 C 198.32 -1.57769 3.049 0
M  V30 2026 C 197.406 -1.01842 4.1169 0
M  V30 2027 N 197.797 -0.184613 5.05463 0
M  V30 2028 C 196.095 -1.29033 4.26927 0
M  V30 2029 C 196.796 0.125013 5.81566 0
M  V30 2030 N 195.772 -0.480498 5.41472 0
M  V30 2031 H 199.574 0.189413 2.93289 0
M  V30 2032 H 197.088 0.204877 1.61102 0
M  V30 2033 H 199.085 -2.19862 3.54212 0
M  V30 2034 H 197.745 -2.22397 2.36579 0
M  V30 2035 H 198.756 0.178602 5.17592 0
M  V30 2036 H 195.433 -1.93721 3.69836 0
M  V30 2037 H 196.823 0.800962 6.67109 0
M  V30 2038 N 199.544 -1.57102 0.125237 0
M  V30 2039 C 200.792 -1.95021 -0.530198 0
M  V30 2040 C 201.113 -1.00982 -1.66816 0
M  V30 2041 O 200.383 -0.0672693 -1.95784 0
M  V30 2042 H 198.963 -0.720046 -0.198853 0
M  V30 2043 H 201.625 -1.93916 0.19564 0
M  V30 2044 H 200.721 -2.98211 -0.920681 0
M  V30 2045 N 201.022 0.148545 -1.56898 0
M  V30 2046 C 202.269 0.861418 -1.83264 0
M  V30 2047 C 202.597 1.81239 -0.705883 0
M  V30 2048 O 201.852 1.93305 0.305212 0
M  V30 2049 C 202.151 1.67064 -3.1595 0
M  V30 2050 C 201.817 0.866591 -4.42494 0
M  V30 2051 C 200.479 0.644762 -4.76861 0
M  V30 2052 C 202.831 0.30418 -5.20312 0
M  V30 2053 C 200.159 -0.15021 -5.86508 0
M  V30 2054 C 202.511 -0.477824 -6.30793 0
M  V30 2055 C 201.175 -0.710244 -6.63711 0
M  V30 2056 H 200.445 0.315215 -0.670612 0
M  V30 2057 H 203.092 0.125142 -1.91091 0
M  V30 2058 H 201.397 2.47698 -3.03567 0
M  V30 2059 H 203.094 2.22566 -3.33565 0
M  V30 2060 H 199.684 1.04955 -4.15551 0
M  V30 2061 H 203.868 0.462844 -4.94137 0
M  V30 2062 H 199.124 -0.339796 -6.10455 0
M  V30 2063 H 203.298 -0.92076 -6.90286 0
M  V30 2064 H 200.925 -1.3281 -7.48509 0
M  V30 2065 N 202.5 1.5196 0.417844 0
M  V30 2066 C 203.463 1.74065 1.49111 0
M  V30 2067 C 204.463 0.610537 1.48758 0
M  V30 2068 O 205.653 0.87832 1.50437 0
M  V30 2069 C 202.785 1.81502 2.88565 0
M  V30 2070 H 203.978 2.69869 1.30807 0
M  V30 2071 H 201.531 1.42244 0.647785 0
M  V30 2072 H 202.266 0.875813 3.1225 0
M  V30 2073 H 202.051 2.63651 2.90225 0
M  V30 2074 H 203.541 2.00376 3.66387 0
M  V30 2075 N 203.978 -0.674533 1.42435 0
M  V30 2076 C 205.225 -1.43459 1.42919 0
M  V30 2077 C 205.553 -1.94446 0.0457312 0
M  V30 2078 O 204.808 -1.7132 -0.94593 0
M  V30 2079 C 205.107 -2.64767 2.40069 0
M  V30 2080 C 204.773 -2.3232 3.86443 0
M  V30 2081 C 203.435 -2.23182 4.26314 0
M  V30 2082 C 205.787 -2.05977 4.78773 0
M  V30 2083 C 203.115 -1.85827 5.56494 0
M  V30 2084 C 205.467 -1.70125 6.09295 0
M  V30 2085 C 204.131 -1.59498 6.48164 0
M  V30 2086 H 203.401 -0.524952 0.522978 0
M  V30 2087 H 206.048 -0.769097 1.75377 0
M  V30 2088 H 204.353 -3.36349 2.00939 0
M  V30 2089 H 206.05 -3.22949 2.37707 0
M  V30 2090 H 202.64 -2.40334 3.54877 0
M  V30 2091 H 206.824 -2.11969 4.48757 0
M  V30 2092 H 202.08 -1.76168 5.8547 0
M  V30 2093 H 206.254 -1.48767 6.80324 0
M  V30 2094 H 203.881 -1.30322 7.48946 0
M  V30 2095 N 205.456 -1.28612 -0.910864 0
M  V30 2096 C 206.366 -1.14643 -2.0468 0
M  V30 2097 C 207.382 -0.0723121 -1.7385 0
M  V30 2098 O 208.558 -0.282178 -1.99413 0
M  V30 2099 C 205.623 -0.812561 -3.37044 0
M  V30 2100 C 204.684 -1.96935 -3.81465 0
M  V30 2101 C 203.917 -1.65131 -5.07511 0
M  V30 2102 O 204.14 -0.567013 -5.67575 0
M  V30 2103 O 203.074 -2.49585 -5.47714 0
M  V30 2104 H 206.9 -2.1001 -2.19384 0
M  V30 2105 H 204.485 -1.07958 -1.03274 0
M  V30 2106 H 206.367 -0.640441 -4.16505 0
M  V30 2107 H 205.042 0.111426 -3.23508 0
M  V30 2108 H 203.949 -2.19664 -3.02818 0
M  V30 2109 H 205.282 -2.87414 -3.99567 0
M  V30 2110 N 206.934 1.1197 -1.10907 0
M  V30 2111 C 207.884 2.15946 -0.731538 0
M  V30 2112 C 208.868 1.58758 0.261699 0
M  V30 2113 O 210.06 1.76863 0.0696722 0
M  V30 2114 C 207.189 3.42877 -0.170299 0
M  V30 2115 C 206.275 4.07037 -1.19087 0
M  V30 2116 N 206.666 4.46135 -2.38322 0
M  V30 2117 C 204.964 4.33884 -1.03252 0
M  V30 2118 C 205.665 4.96331 -3.03366 0
M  V30 2119 N 204.641 4.9214 -2.30865 0
M  V30 2120 H 208.443 2.43947 -1.63912 0
M  V30 2121 H 205.957 1.28927 -0.987505 0
M  V30 2122 H 207.954 4.16732 0.118271 0
M  V30 2123 H 206.614 3.16343 0.731935 0
M  V30 2124 H 207.625 4.38345 -2.75815 0
M  V30 2125 H 204.302 4.17084 -0.186256 0
M  V30 2126 H 205.692 5.36257 -4.04818 0
M  V30 2127 N 208.412 0.89855 1.29475 0
M  V30 2128 C 209.375 0.380272 2.26023 0
M  V30 2129 C 210.375 -0.484891 1.53315 0
M  V30 2130 O 211.565 -0.290108 1.71767 0
M  V30 2131 C 208.697 -0.45651 3.3783 0
M  V30 2132 H 209.89 1.23295 2.73383 0
M  V30 2133 H 207.443 0.676589 1.40897 0
M  V30 2134 H 208.178 -1.32922 2.95808 0
M  V30 2135 H 207.963 0.163393 3.91759 0
M  V30 2136 H 209.453 -0.810466 4.0966 0
M  V30 2137 N 209.89 -1.43072 0.660911 0
M  V30 2138 C 210.8 -2.34585 -0.0264163 0
M  V30 2139 C 211.816 -1.54316 -0.803898 0
M  V30 2140 O 212.992 -1.86939 -0.749391 0
M  V30 2141 C 210.057 -3.32689 -0.975639 0
M  V30 2142 C 209.118 -4.2886 -0.194236 0
M  V30 2143 C 208.351 -5.22278 -1.09825 0
M  V30 2144 O 208.574 -5.20299 -2.33763 0
M  V30 2145 O 207.508 -5.99228 -0.566513 0
M  V30 2146 H 211.334 -2.94869 0.727034 0
M  V30 2147 H 208.919 -1.43342 0.42111 0
M  V30 2148 H 210.801 -3.92995 -1.52094 0
M  V30 2149 H 209.476 -2.74898 -1.70918 0
M  V30 2150 H 208.383 -3.72011 0.394835 0
M  V30 2151 H 209.716 -4.89655 0.499899 0
M  V30 2152 N 211.368 -0.403325 -1.52352 0
M  V30 2153 C 212.779 0.0675782 -1.86578 0
M  V30 2154 C 213.13 1.44941 -1.32236 0
M  V30 2155 O 212.255 2.06112 -0.659307 0
M  V30 2156 C 212.85 0.129404 -3.38553 0
M  V30 2157 C 211.409 0.544629 -3.72439 0
M  V30 2158 C 210.556 -0.284551 -2.75836 0
M  V30 2159 H 213.507 -0.620631 -1.46061 0
M  V30 2160 H 213.528 0.94581 -3.68558 0
M  V30 2161 H 213.04 -0.87645 -3.78074 0
M  V30 2162 H 211.141 1.55734 -3.38493 0
M  V30 2163 H 211.254 0.293046 -4.78203 0
M  V30 2164 H 209.618 0.252258 -2.53448 0
M  V30 2165 H 210.401 -1.28865 -3.18196 0
M  V30 2166 N 212.846 1.57033 -0.133567 0
M  V30 2167 C 214.262 1.58035 0.222944 0
M  V30 2168 C 214.462 1.14713 1.6566 0
M  V30 2169 O 213.518 0.841218 2.38075 0
M  V30 2170 C 214.831 3.00691 -0.0236116 0
M  V30 2171 C 216.379 3.12973 0.0411512 0
M  V30 2172 C 216.854 4.57654 -0.177899 0
M  V30 2173 N 218.345 4.63033 -0.124365 0
M  V30 2174 C 219.08 5.72771 -0.268553 0
M  V30 2175 N 218.576 6.91206 -0.46972 0
M  V30 2176 N 220.369 5.61718 -0.2071 0
M  V30 2177 H 212.52 1.8349 -1.06981 0
M  V30 2178 H 214.783 0.848677 -0.422436 0
M  V30 2179 H 214.489 3.36726 -1.0153 0
M  V30 2180 H 214.363 3.70614 0.701808 0
M  V30 2181 H 216.75 2.76787 1.02338 0
M  V30 2182 H 216.831 2.45564 -0.716383 0
M  V30 2183 H 216.475 4.94542 -1.15717 0
M  V30 2184 H 216.405 5.23173 0.599797 0
M  V30 2185 H 218.896 3.7789 0.027011 0
M  V30 2186 H 219.209 7.70693 -0.570212 0
M  V30 2187 H 217.554 6.93156 -0.505876 0
M  V30 2188 H 220.745 4.68072 -0.0507986 0
M  V30 2189 H 220.918 6.47195 -0.322909 0
M  V30 2190 N 214.325 -0.140222 1.56975 0
M  V30 2191 C 215.55 -0.870414 1.88251 0
M  V30 2192 C 215.975 -1.73637 0.723312 0
M  V30 2193 O 215.333 -1.78329 -0.32689 0
M  V30 2194 C 215.381 -1.69737 3.18154 0
M  V30 2195 O 214.485 -2.80229 3.02565 0
M  V30 2196 H 213.826 -0.242025 0.61832 0
M  V30 2197 H 216.356 -0.128999 2.04193 0
M  V30 2198 H 216.366 -2.09099 3.50345 0
M  V30 2199 H 215.041 -1.06152 4.02125 0
M  V30 2200 H 213.618 -2.44224 2.81796 0
M  V30 2201 N 215.803 -1.52179 -0.40978 0
M  V30 2202 C 216.753 -1.71857 -1.49831 0
M  V30 2203 C 217.737 -0.572469 -1.50372 0
M  V30 2204 O 218.929 -0.829509 -1.56359 0
M  V30 2205 C 216.058 -1.87206 -2.87765 0
M  V30 2206 C 215.144 -3.07685 -2.91875 0
M  V30 2207 N 215.535 -4.30403 -2.65683 0
M  V30 2208 C 213.833 -3.07505 -3.23043 0
M  V30 2209 C 214.534 -5.11868 -2.76344 0
M  V30 2210 N 213.51 -4.47101 -3.09195 0
M  V30 2211 H 217.312 -2.64381 -1.28375 0
M  V30 2212 H 214.826 -1.50203 -0.617479 0
M  V30 2213 H 216.823 -1.99419 -3.66111 0
M  V30 2214 H 215.483 -0.958814 -3.10221 0
M  V30 2215 H 216.494 -4.58887 -2.4009 0
M  V30 2216 H 213.171 -2.25915 -3.51096 0
M  V30 2217 H 214.561 -6.19634 -2.59814 0
M  V30 2218 N 217.281 0.66697 -1.42791 0
M  V30 2219 C 218.244 1.76211 -1.46568 0
M  V30 2220 C 219.244 1.56896 -0.352196 0
M  V30 2221 O 220.434 1.63044 -0.613364 0
M  V30 2222 C 217.566 3.14935 -1.30494 0
M  V30 2223 H 218.759 1.74247 -2.44086 0
M  V30 2224 H 216.312 0.877342 -1.29354 0
M  V30 2225 H 217.047 3.2252 -0.339301 0
M  V30 2226 H 216.832 3.30359 -2.11199 0
M  V30 2227 H 218.322 3.94821 -1.36038 0
M  V30 2228 N 218.759 1.29093 0.90403 0
M  V30 2229 C 220.006 1.16813 1.65411 0
M  V30 2230 C 220.334 -0.28128 1.92455 0
M  V30 2231 O 219.589 -1.22006 1.53013 0
M  V30 2232 C 219.888 1.92224 3.01305 0
M  V30 2233 C 219.554 3.41968 2.93885 0
M  V30 2234 C 218.216 3.82807 2.91569 0
M  V30 2235 C 220.568 4.37409 2.83413 0
M  V30 2236 C 217.896 5.1741 2.76594 0
M  V30 2237 C 220.248 5.72097 2.69977 0
M  V30 2238 C 218.912 6.12199 2.66024 0
M  V30 2239 H 218.182 0.42745 0.605283 0
M  V30 2240 H 220.829 1.59981 1.05254 0
M  V30 2241 H 219.134 1.41635 3.65304 0
M  V30 2242 H 220.831 1.80131 3.58265 0
M  V30 2243 H 217.421 3.09504 2.96488 0
M  V30 2244 H 221.605 4.06813 2.84283 0
M  V30 2245 H 216.861 5.47596 2.71935 0
M  V30 2246 H 221.035 6.45704 2.60844 0
M  V30 2247 H 218.662 7.16448 2.54178 0
M  V30 2248 N 220.237 -1.11381 1.11499 0
M  V30 2249 C 221.17 -2.16621 0.71769 0
M  V30 2250 C 222.148 -1.60058 -0.286413 0
M  V30 2251 O 223.332 -1.87613 -0.182689 0
M  V30 2252 C 220.459 -3.38646 0.0607265 0
M  V30 2253 C 219.505 -4.13874 1.03008 0
M  V30 2254 S 220.338 -4.70731 2.55289 0
M  V30 2255 C 221.494 -5.96079 1.90895 0
M  V30 2256 H 221.727 -2.49987 1.60915 0
M  V30 2257 H 219.26 -1.23015 0.933092 0
M  V30 2258 H 221.218 -4.09313 -0.311965 0
M  V30 2259 H 219.879 -3.03537 -0.807702 0
M  V30 2260 H 219.072 -5.01333 0.517853 0
M  V30 2261 H 218.674 -3.4897 1.34522 0
M  V30 2262 H 220.966 -6.65948 1.24577 0
M  V30 2263 H 221.909 -6.51946 2.76354 0
M  V30 2264 H 222.317 -5.47652 1.36885 0
M  V30 2265 N 221.715 -0.905404 -1.28997 0
M  V30 2266 C 222.645 -0.404212 -2.29975 0
M  V30 2267 C 223.626 0.523784 -1.61835 0
M  V30 2268 O 224.811 0.433298 -1.89304 0
M  V30 2269 C 221.941 0.364042 -3.45387 0
M  V30 2270 C 220.895 -0.474048 -4.25367 0
M  V30 2271 C 220.221 0.422045 -5.33032 0
M  V30 2272 C 221.521 -1.72696 -4.92923 0
M  V30 2273 H 223.215 -1.24807 -2.72146 0
M  V30 2274 H 220.761 -0.601585 -1.30832 0
M  V30 2275 H 222.714 0.725447 -4.15109 0
M  V30 2276 H 221.438 1.24174 -3.02074 0
M  V30 2277 H 220.097 -0.81786 -3.57361 0
M  V30 2278 H 219.745 1.29804 -4.85963 0
M  V30 2279 H 219.445 -0.135057 -5.87445 0
M  V30 2280 H 220.969 0.779517 -6.05604 0
M  V30 2281 H 222.383 -1.43495 -5.55051 0
M  V30 2282 H 220.78 -2.22582 -5.57295 0
M  V30 2283 H 221.85 -2.45964 -4.17887 0
M  V30 2284 N 223.193 1.4272 -0.668489 0
M  V30 2285 C 224.439 2.01923 -0.188419 0
M  V30 2286 C 224.772 1.52704 1.19979 0
M  V30 2287 O 224.047 0.726566 1.8042 0
M  V30 2288 C 224.33 3.59451 -0.216085 0
M  V30 2289 C 224.183 4.18864 -1.6393 0
M  V30 2290 C 225.502 4.37903 0.439179 0
M  V30 2291 H 222.621 0.733674 -0.0699412 0
M  V30 2292 H 225.263 1.69822 -0.852076 0
M  V30 2293 H 223.413 3.86929 0.349012 0
M  V30 2294 H 225.085 4.02362 -2.25616 0
M  V30 2295 H 223.328 3.74933 -2.18193 0
M  V30 2296 H 223.999 5.27987 -1.61039 0
M  V30 2297 H 226.475 4.16079 -0.0417878 0
M  V30 2298 H 225.351 5.47519 0.389157 0
M  V30 2299 H 225.612 4.15303 1.51577 0
M  V30 2300 N 224.671 0.411399 1.52136 0
M  V30 2301 C 225.948 -0.222308 1.94333 0
M  V30 2302 C 226.328 -1.6242 1.34844 0
M  V30 2303 O 225.676 -2.22384 0.525145 0
M  V30 2304 C 225.886 -0.226345 3.48265 0
M  V30 2305 C 227.234 -0.444592 4.22266 0
M  V30 2306 O 228.258 -0.305602 3.54887 0
M  V30 2307 O 227.117 -0.718749 5.41753 0
M  V30 2308 H 224.211 -0.143907 0.814383 0
M  V30 2309 H 226.757 0.467506 1.63133 0
M  V30 2310 H 225.529 0.75475 3.83952 0
M  V30 2311 H 225.152 -0.960163 3.85832 0
M  V30 2312 N 226.149 -1.5696 0.141893 0
M  V30 2313 C 227.099 -2.13074 -0.811383 0
M  V30 2314 C 228.083 -1.05726 -1.21288 0
M  V30 2315 O 229.275 -1.31914 -1.18015 0
M  V30 2316 C 226.404 -2.75186 -2.0525 0
M  V30 2317 C 225.49 -3.8965 -1.67432 0
M  V30 2318 N 225.881 -4.95733 -1.0041 0
M  V30 2319 C 224.179 -4.00262 -1.96739 0
M  V30 2320 C 224.88 -5.75858 -0.822345 0
M  V30 2321 N 223.856 -5.26452 -1.3546 0
M  V30 2322 H 227.658 -2.92465 -0.290031 0
M  V30 2323 H 225.172 -1.6229 -0.0598218 0
M  V30 2324 H 227.169 -3.13745 -2.74535 0
M  V30 2325 H 225.829 -1.97266 -2.57907 0
M  V30 2326 H 226.84 -5.13607 -0.665441 0
M  V30 2327 H 223.517 -3.33412 -2.51282 0
M  V30 2328 H 224.907 -6.71254 -0.294496 0
M  V30 2329 N 227.627 0.131896 -1.57047 0
M  V30 2330 C 228.874 0.841932 -1.84168 0
M  V30 2331 C 229.202 1.8048 -0.725066 0
M  V30 2332 O 228.457 1.93618 0.284692 0
M  V30 2333 C 228.756 1.63703 -3.17704 0
M  V30 2334 C 228.422 0.81961 -4.43388 0
M  V30 2335 C 227.084 0.594148 -4.77518 0
M  V30 2336 C 229.436 0.248977 -5.20605 0
M  V30 2337 C 226.764 -0.212409 -5.86315 0
M  V30 2338 C 229.116 -0.544701 -6.30251 0
M  V30 2339 C 227.78 -0.780599 -6.6292 0
M  V30 2340 H 227.05 0.308085 -0.673917 0
M  V30 2341 H 229.697 0.104867 -1.91213 0
M  V30 2342 H 228.002 2.44464 -3.06177 0
M  V30 2343 H 229.699 2.19015 -3.35907 0
M  V30 2344 H 226.289 1.00542 -4.16641 0
M  V30 2345 H 230.473 0.410408 -4.946 0
M  V30 2346 H 225.729 -0.404524 -6.1006 0
M  V30 2347 H 229.903 -0.993922 -6.89271 0
M  V30 2348 H 227.53 -1.40742 -7.47058 0
M  V30 2349 N 229.106 1.52395 0.401703 0
M  V30 2350 C 230.352 1.67065 1.14966 0
M  V30 2351 C 230.685 0.403052 1.89971 0
M  V30 2352 O 229.96 -0.598774 1.85054 0
M  V30 2353 C 230.243 2.8975 2.13815 0
M  V30 2354 C 230.096 4.26578 1.42658 0
M  V30 2355 C 231.415 3.07965 3.14397 0
M  V30 2356 H 228.534 0.607968 0.416587 0
M  V30 2357 H 231.176 1.84965 0.434511 0
M  V30 2358 H 229.326 2.74619 2.74803 0
M  V30 2359 H 230.998 4.53451 0.847329 0
M  V30 2360 H 229.241 4.27639 0.72849 0
M  V30 2361 H 229.912 5.08483 2.14823 0
M  V30 2362 H 232.388 3.22043 2.63491 0
M  V30 2363 H 231.264 3.95308 3.80819 0
M  V30 2364 H 231.525 2.21611 3.82545 0
M  V30 2365 N 230.584 -0.659388 1.43143 0
M  V30 2366 C 231.83 -1.42145 1.44647 0
M  V30 2367 C 232.163 -1.9408 0.0681907 0
M  V30 2368 O 231.438 -1.71899 -0.910007 0
M  V30 2369 C 231.721 -2.60735 2.48373 0
M  V30 2370 C 231.574 -2.14332 3.95451 0
M  V30 2371 C 232.893 -3.62951 2.48906 0
M  V30 2372 H 230.012 -0.51552 0.526696 0
M  V30 2373 H 232.654 -0.748069 1.74654 0
M  V30 2374 H 230.804 -3.18184 2.22916 0
M  V30 2375 H 232.476 -1.61932 4.31944 0
M  V30 2376 H 230.719 -1.4576 4.08578 0
M  V30 2377 H 231.39 -2.99583 4.63631 0
M  V30 2378 H 233.866 -3.1525 2.71582 0
M  V30 2379 H 232.742 -4.43487 3.23435 0
M  V30 2380 H 233.003 -4.15126 1.52061 0
M  V30 2381 N 232.062 -1.29571 -0.897171 0
M  V30 2382 C 233.339 -1.08365 -1.62839 0
M  V30 2383 C 233.719 0.371331 -2.07808 0
M  V30 2384 O 233.067 1.3606 -1.83576 0
M  V30 2385 C 233.277 -2.0735 -2.80726 0
M  V30 2386 C 234.625 -2.38406 -3.51351 0
M  V30 2387 O 235.649 -2.05564 -2.90898 0
M  V30 2388 O 234.508 -2.9453 -4.60341 0
M  V30 2389 H 231.602 -0.415345 -0.715134 0
M  V30 2390 H 234.148 -1.40952 -0.945018 0
M  V30 2391 H 232.92 -3.05339 -2.44711 0
M  V30 2392 H 232.543 -1.75507 -3.56767 0
M  V30 2393 N 233.54 1.10788 -1.12088 0
M  V30 2394 C 234.956 1.34691 -0.856186 0
M  V30 2395 C 235.156 1.94791 0.515615 0
M  V30 2396 O 234.212 2.18524 1.26505 0
M  V30 2397 C 235.525 2.27208 -1.9697 0
M  V30 2398 C 237.073 2.40755 -2.00016 0
M  V30 2399 C 237.548 3.36598 -3.1059 0
M  V30 2400 N 239.039 3.44164 -3.10008 0
M  V30 2401 C 239.774 4.18284 -3.92206 0
M  V30 2402 N 239.27 4.95322 -4.84384 0
M  V30 2403 N 241.063 4.13865 -3.80357 0
M  V30 2404 H 233.214 0.70144 -2.00483 0
M  V30 2405 H 235.477 0.371405 -0.872217 0
M  V30 2406 H 235.183 1.90251 -2.958 0
M  V30 2407 H 235.057 3.27485 -1.87172 0
M  V30 2408 H 237.444 2.76982 -1.01808 0
M  V30 2409 H 237.525 1.40305 -2.13888 0
M  V30 2410 H 237.169 3.01096 -4.09028 0
M  V30 2411 H 237.099 4.36918 -2.93956 0
M  V30 2412 H 239.59 2.8922 -2.43228 0
M  V30 2413 H 239.903 5.49267 -5.43623 0
M  V30 2414 H 238.248 4.94459 -4.884 0
M  V30 2415 H 241.439 3.52773 -3.07683 0
M  V30 2416 H 241.612 4.71372 -4.44649 0
M  V30 2417 N 235.018 0.912232 1.28515 0
M  V30 2418 C 235.981 0.404223 2.25607 0
M  V30 2419 C 236.981 -0.468602 1.53821 0
M  V30 2420 O 238.171 -0.271873 1.72065 0
M  V30 2421 C 235.303 -0.420653 3.38295 0
M  V30 2422 H 236.496 1.26188 2.7206 0
M  V30 2423 H 234.049 0.691495 1.40171 0
M  V30 2424 H 234.784 -1.29777 2.97201 0
M  V30 2425 H 234.569 0.204935 3.91564 0
M  V30 2426 H 236.059 -0.766971 4.10496 0
M  V30 2427 N 236.496 -1.42363 0.676048 0
M  V30 2428 C 237.726 -2.05561 0.206967 0
M  V30 2429 C 238.134 -1.50887 -1.14148 0
M  V30 2430 O 237.477 -0.643933 -1.72044 0
M  V30 2431 C 237.539 -3.5944 0.0659508 0
M  V30 2432 C 237.203 -4.36812 1.34331 0
M  V30 2433 C 238.2 -4.67383 2.27704 0
M  V30 2434 C 235.885 -4.76429 1.59125 0
M  V30 2435 C 237.879 -5.36509 3.44147 0
M  V30 2436 C 235.566 -5.45294 2.75857 0
M  V30 2437 C 236.564 -5.75259 3.68193 0
M  V30 2438 O 236.252 -6.42712 4.82883 0
M  V30 2439 H 235.984 -0.668872 0.0979084 0
M  V30 2440 H 238.538 -1.83467 0.923531 0
M  V30 2441 H 236.768 -3.80197 -0.706204 0
M  V30 2442 H 238.457 -4.0427 -0.363418 0
M  V30 2443 H 239.223 -4.37275 2.09799 0
M  V30 2444 H 235.102 -4.52498 0.881258 0
M  V30 2445 H 238.646 -5.59814 4.16238 0
M  V30 2446 H 234.543 -5.7482 2.93688 0
M  V30 2447 H 235.311 -6.61204 4.82444 0
M  V30 2448 N 237.974 -0.419461 -1.51915 0
M  V30 2449 C 239.222 0.152637 -2.01523 0
M  V30 2450 C 239.543 1.44762 -1.30649 0
M  V30 2451 O 238.813 1.90997 -0.435535 0
M  V30 2452 H 237.393 0.0593966 -0.744635 0
M  V30 2453 H 240.055 -0.558073 -1.86739 0
M  V30 2454 H 239.151 0.341369 -3.10227 0
M  V30 2455 N 239.452 1.56882 -0.150215 0
M  V30 2456 C 240.7 1.9584 0.499105 0
M  V30 2457 C 241.021 1.03623 1.65188 0
M  V30 2458 O 240.291 0.0984084 1.95653 0
M  V30 2459 H 238.871 0.723119 0.187373 0
M  V30 2460 H 241.533 1.9358 -0.226466 0
M  V30 2461 H 240.629 2.99638 0.873122 0
M  V30 2462 N 240.93 -0.123565 1.57115 0
M  V30 2463 C 242.346 -0.476961 1.52306 0
M  V30 2464 C 242.546 -1.82109 0.86248 0
M  V30 2465 O 241.602 -2.48586 0.442884 0
M  V30 2466 C 242.915 -0.465661 2.97073 0
M  V30 2467 C 244.463 -0.549534 3.08138 0
M  V30 2468 C 244.938 -0.568669 4.54456 0
M  V30 2469 N 246.429 -0.630237 4.58892 0
M  V30 2470 C 247.164 -0.666415 5.69514 0
M  V30 2471 N 246.66 -0.660514 6.89644 0
M  V30 2472 N 248.453 -0.709077 5.5761 0
M  V30 2473 H 240.604 0.757198 1.98445 0
M  V30 2474 H 242.867 0.278808 0.906074 0
M  V30 2475 H 242.573 0.454232 3.48754 0
M  V30 2476 H 242.447 -1.29513 3.54269 0
M  V30 2477 H 244.834 -1.45985 2.56461 0
M  V30 2478 H 244.915 0.307532 2.53945 0
M  V30 2479 H 244.559 0.337581 5.06777 0
M  V30 2480 H 244.489 -1.44256 5.06456 0
M  V30 2481 H 246.98 -0.641146 3.72421 0
M  V30 2482 H 247.293 -0.690616 7.69708 0
M  V30 2483 H 245.638 -0.628012 6.92157 0
M  V30 2484 H 248.829 -0.711019 4.62668 0
M  V30 2485 H 249.002 -0.733804 6.43832 0
M  V30 2486 N 242.408 -1.52605 -0.393616 0
M  V30 2487 C 243.655 -1.67424 -1.1391 0
M  V30 2488 C 243.983 -0.411859 -1.90089 0
M  V30 2489 O 243.238 0.605626 -1.86093 0
M  V30 2490 C 243.537 -2.85721 -2.14705 0
M  V30 2491 C 243.203 -4.23342 -1.55218 0
M  V30 2492 C 241.865 -4.60771 -1.3872 0
M  V30 2493 C 244.217 -5.09041 -1.11924 0
M  V30 2494 C 241.545 -5.81563 -0.774689 0
M  V30 2495 C 243.897 -6.30452 -0.520853 0
M  V30 2496 C 242.561 -6.66617 -0.343134 0
M  V30 2497 H 241.831 -0.612648 -0.416826 0
M  V30 2498 H 244.478 -1.8674 -0.424315 0
M  V30 2499 H 242.783 -2.60803 -2.92385 0
M  V30 2500 H 244.48 -2.94382 -2.72288 0
M  V30 2501 H 241.07 -3.93855 -1.69045 0
M  V30 2502 H 245.254 -4.80695 -1.23473 0
M  V30 2503 H 240.51 -6.08196 -0.625154 0
M  V30 2504 H 244.684 -6.96175 -0.177065 0
M  V30 2505 H 242.311 -7.60083 0.133571 0
M  V30 2506 N 243.887 0.651787 -1.4349 0
M  V30 2507 C 244.819 1.77725 -1.44729 0
M  V30 2508 C 245.832 1.59141 -0.343231 0
M  V30 2509 O 247.021 1.67835 -0.607751 0
M  V30 2510 C 244.121 3.15172 -1.24579 0
M  V30 2511 C 243.294 3.60402 -2.47849 0
M  V30 2512 C 242.353 4.76656 -2.22902 0
M  V30 2513 O 241.379 4.86022 -2.96263 0
M  V30 2514 N 242.581 5.66958 -1.24656 0
M  V30 2515 H 245.346 1.77141 -2.41746 0
M  V30 2516 H 242.907 0.835678 -1.38665 0
M  V30 2517 H 244.899 3.90634 -1.0577 0
M  V30 2518 H 243.469 3.1052 -0.360015 0
M  V30 2519 H 242.689 2.75369 -2.82073 0
M  V30 2520 H 243.977 3.87368 -3.29884 0
M  V30 2521 H 243.375 5.62065 -0.640265 0
M  V30 2522 H 241.932 6.42135 -1.1183 0
M  V30 2523 N 245.365 1.30045 0.890287 0
M  V30 2524 C 246.612 1.18561 1.64163 0
M  V30 2525 C 246.94 -0.260852 1.92743 0
M  V30 2526 O 246.195 -1.20376 1.54299 0
M  V30 2527 C 246.494 1.95409 2.99249 0
M  V30 2528 C 246.16 3.45066 2.90242 0
M  V30 2529 C 244.822 3.85878 2.87492 0
M  V30 2530 C 247.174 4.4039 2.78758 0
M  V30 2531 C 244.502 5.20314 2.7109 0
M  V30 2532 C 246.854 5.74928 2.63894 0
M  V30 2533 C 245.518 6.14986 2.59516 0
M  V30 2534 H 244.788 0.433846 0.600715 0
M  V30 2535 H 247.435 1.61088 1.03552 0
M  V30 2536 H 245.74 1.45501 3.63781 0
M  V30 2537 H 247.437 1.8392 3.56334 0
M  V30 2538 H 244.027 3.12631 2.93189 0
M  V30 2539 H 248.211 4.09806 2.79952 0
M  V30 2540 H 243.467 5.50449 2.66112 0
M  V30 2541 H 247.641 6.48434 2.53981 0
M  V30 2542 H 245.268 7.19104 2.46565 0
M  V30 2543 N 246.843 -1.10192 1.12674 0
M  V30 2544 C 247.79 -2.16606 0.796906 0
M  V30 2545 C 248.76 -1.64394 -0.237476 0
M  V30 2546 O 249.945 -1.90474 -0.111484 0
M  V30 2547 C 247.085 -3.44116 0.26043 0
M  V30 2548 C 246.198 -4.10268 1.35293 0
M  V30 2549 C 245.333 -5.25507 0.775621 0
M  V30 2550 C 244.372 -5.83567 1.84706 0
M  V30 2551 N 243.509 -6.90179 1.28829 0
M  V30 2552 H 248.349 -2.44163 1.70846 0
M  V30 2553 H 245.886 -1.19846 0.85295 0
M  V30 2554 H 247.844 -4.17143 -0.0686814 0
M  V30 2555 H 246.474 -3.16901 -0.614274 0
M  V30 2556 H 245.526 -3.35184 1.79877 0
M  V30 2557 H 246.838 -4.4946 2.16303 0
M  V30 2558 H 245.992 -6.05398 0.397327 0
M  V30 2559 H 244.731 -4.87656 -0.0656581 0
M  V30 2560 H 243.736 -5.02344 2.23452 0
M  V30 2561 H 244.961 -6.23482 2.69161 0
M  V30 2562 H 242.907 -6.54322 0.468881 0
M  V30 2563 H 242.824 -7.28097 2.03497 0
M  V30 2564 H 244.092 -7.73844 0.937311 0
M  V30 2565 N 248.321 -0.919034 -1.28029 0
M  V30 2566 C 249.269 -0.401753 -2.29104 0
M  V30 2567 C 250.263 0.509354 -1.61561 0
M  V30 2568 O 251.469 0.390014 -1.75724 0
M  V30 2569 H 247.844 -0.111331 -0.743713 0
M  V30 2570 H 249.815 -1.2672 -2.70156 0
M  V30 2571 C 248.564 0.338148 -3.46052 0
M  V30 2572 H 247.887 -0.353732 -3.98232 0
M  V30 2573 H 249.327 0.664653 -4.18758 0
M  V30 2574 C 247.786 1.54798 -2.99231 0
M  V30 2575 O 248.316 2.64696 -3.02157 0
M  V30 2576 N 246.522 1.3968 -2.54829 0
M  V30 2577 H 246.069 0.502698 -2.52647 0
M  V30 2578 H 246.027 2.20755 -2.23863 0
M  V30 2579 N 249.799 1.42003 -0.683588 0
M  V30 2580 C 251.045 2.02223 -0.218536 0
M  V30 2581 C 251.4 1.53126 1.16492 0
M  V30 2582 O 250.693 0.727459 1.77253 0
M  V30 2583 C 250.887 3.56827 -0.202357 0
M  V30 2584 C 250.716 4.20928 -1.5827 0
M  V30 2585 C 249.486 4.5573 -2.18262 0
M  V30 2586 C 251.684 4.47933 -2.52706 0
M  V30 2587 N 249.666 5.05056 -3.48986 0
M  V30 2588 C 251.037 4.98906 -3.68094 0
M  V30 2589 C 253.092 4.29931 -2.51125 0
M  V30 2590 C 251.795 5.33768 -4.82166 0
M  V30 2591 C 253.821 4.65875 -3.643 0
M  V30 2592 C 253.183 5.17008 -4.78417 0
M  V30 2593 H 249.282 0.771931 -0.125088 0
M  V30 2594 H 251.866 1.72729 -0.898479 0
M  V30 2595 H 250.037 3.85819 0.447029 0
M  V30 2596 H 251.769 4.03755 0.276399 0
M  V30 2597 H 248.524 4.41781 -1.70665 0
M  V30 2598 H 248.948 5.34139 -4.15962 0
M  V30 2599 H 253.59 3.89647 -1.6412 0
M  V30 2600 H 251.308 5.72981 -5.6984 0
M  V30 2601 H 254.894 4.53615 -3.64314 0
M  V30 2602 H 253.774 5.44301 -5.64541 0
M  V30 2603 N 251.277 0.427512 1.51691 0
M  V30 2604 C 252.209 -0.424521 2.25234 0
M  V30 2605 C 253.222 -0.994671 1.2888 0
M  V30 2606 O 254.411 -0.890483 1.54702 0
M  V30 2607 C 251.511 -1.60479 2.98496 0
M  V30 2608 C 250.684 -1.15527 4.21868 0
M  V30 2609 C 249.743 -2.20454 4.77793 0
M  V30 2610 O 248.769 -1.8029 5.39893 0
M  V30 2611 N 249.971 -3.52831 4.60967 0
M  V30 2612 H 252.736 0.205749 2.98993 0
M  V30 2613 H 250.297 0.255867 1.59865 0
M  V30 2614 H 252.289 -2.30276 3.32799 0
M  V30 2615 H 250.859 -2.14061 2.27809 0
M  V30 2616 H 250.079 -0.284736 3.9317 0
M  V30 2617 H 251.367 -0.832173 5.01949 0
M  V30 2618 H 250.765 -3.88201 4.11481 0
M  V30 2619 H 249.322 -4.18551 4.99658 0
M  V30 2620 N 252.755 -1.56801 0.158532 0
M  V30 2621 C 253.702 -2.17337 -0.776729 0
M  V30 2622 C 254.672 -1.1096 -1.23601 0
M  V30 2623 O 255.857 -1.39054 -1.30647 0
M  V30 2624 C 252.997 -2.80822 -2.00582 0
M  V30 2625 C 252.11 -4.01624 -1.59129 0
M  V30 2626 C 251.245 -4.53072 -2.77306 0
M  V30 2627 C 250.284 -5.66314 -2.32282 0
M  V30 2628 N 249.421 -6.12329 -3.43508 0
M  V30 2629 H 254.261 -2.96918 -0.253701 0
M  V30 2630 H 251.798 -1.46661 -0.113504 0
M  V30 2631 H 253.756 -3.15779 -2.72652 0
M  V30 2632 H 252.386 -2.03866 -2.50277 0
M  V30 2633 H 251.438 -3.72571 -0.767806 0
M  V30 2634 H 252.75 -4.83633 -1.2207 0
M  V30 2635 H 251.904 -4.90145 -3.57551 0
M  V30 2636 H 250.643 -3.70095 -3.17617 0
M  V30 2637 H 249.648 -5.28806 -1.5048 0
M  V30 2638 H 250.873 -6.51085 -1.93043 0
M  V30 2639 H 248.819 -5.32284 -3.83418 0
M  V30 2640 H 248.736 -6.89293 -3.105 0
M  V30 2641 H 250.004 -6.5405 -4.24075 0
M  V30 2642 N 254.233 0.115231 -1.57178 0
M  V30 2643 C 255.479 0.82357 -1.85325 0
M  V30 2644 C 255.812 1.79349 -0.744814 0
M  V30 2645 O 255.087 1.92899 0.249024 0
M  V30 2646 C 255.37 1.57014 -3.24066 0
M  V30 2647 C 255.223 0.619565 -4.45513 0
M  V30 2648 C 256.542 2.52545 -3.60429 0
M  V30 2649 H 253.661 0.297948 -0.674089 0
M  V30 2650 H 256.303 0.0877138 -1.89797 0
M  V30 2651 H 254.453 2.19742 -3.20383 0
M  V30 2652 H 256.125 0.000837639 -4.613 0
M  V30 2653 H 254.368 -0.0686174 -4.33746 0
M  V30 2654 H 255.039 1.17866 -5.3927 0
M  V30 2655 H 257.515 1.9992 -3.64926 0
M  V30 2656 H 256.391 3.01811 -4.58477 0
M  V30 2657 H 256.652 3.35383 -2.88047 0
M  V30 2658 N 255.711 1.52812 0.385517 0
M  V30 2659 C 256.939 1.71907 1.15133 0
M  V30 2660 C 257.354 0.439004 1.83625 0
M  V30 2661 O 256.711 -0.586765 1.7281 0
M  V30 2662 C 256.762 2.87099 2.19673 0
M  V30 2663 O 256.483 4.10151 1.53973 0
M  V30 2664 C 257.984 3.17902 3.08955 0
M  V30 2665 H 255.204 0.575479 0.345057 0
M  V30 2666 H 257.748 1.99476 0.45052 0
M  V30 2667 H 255.903 2.61982 2.85384 0
M  V30 2668 H 256.317 4.74514 2.23465 0
M  V30 2669 H 257.791 4.01959 3.7833 0
M  V30 2670 H 258.268 2.3243 3.72657 0
M  V30 2671 H 258.874 3.44871 2.48885 0
M  V30 2672 N 257.189 -0.644168 1.43834 0
M  V30 2673 C 258.466 -1.40188 1.36406 0
M  V30 2674 C 258.846 -2.11094 0.0163124 0
M  V30 2675 O 258.194 -2.05426 -1.00062 0
M  V30 2676 C 258.404 -2.3791 2.55343 0
M  V30 2677 C 259.752 -3.01637 2.98832 0
M  V30 2678 O 260.776 -2.48237 2.55455 0
M  V30 2679 O 259.635 -3.98477 3.74003 0
M  V30 2680 H 256.729 -0.626773 0.539523 0
M  V30 2681 H 259.275 -0.670317 1.559 0
M  V30 2682 H 258.047 -1.84525 3.4506 0
M  V30 2683 H 257.67 -3.18503 2.37995 0
M  V30 2684 N 258.668 -1.30515 -0.883378 0
M  V30 2685 C 259.916 -1.19194 -1.63209 0
M  V30 2686 C 260.237 0.253205 -1.93349 0
M  V30 2687 O 259.507 1.17025 -1.57105 0
M  V30 2688 H 258.087 -0.438148 -0.605009 0
M  V30 2689 H 260.749 -1.63663 -1.05832 0
M  V30 2690 H 259.845 -1.75396 -2.58153 0
M  V30 2691 N 260.146 1.09593 -1.13257 0
M  V30 2692 C 261.079 2.15451 -0.752061 0
M  V30 2693 C 262.057 1.60493 0.260913 0
M  V30 2694 O 263.241 1.8788 0.152819 0
M  V30 2695 C 260.368 3.38506 -0.114594 0
M  V30 2696 C 259.414 4.12183 -1.09579 0
M  V30 2697 S 260.247 4.6661 -2.62745 0
M  V30 2698 C 261.403 5.92966 -2.00354 0
M  V30 2699 H 261.636 2.47395 -1.64872 0
M  V30 2700 H 259.169 1.21515 -0.952545 0
M  V30 2701 H 261.127 4.09757 0.246808 0
M  V30 2702 H 259.788 3.04784 0.759309 0
M  V30 2703 H 258.981 5.00445 -0.597545 0
M  V30 2704 H 258.583 3.46785 -1.40057 0
M  V30 2705 H 260.875 6.63882 -1.35156 0
M  V30 2706 H 261.818 6.47467 -2.86691 0
M  V30 2707 H 262.226 5.45405 -1.4558 0
M  V30 2708 N 261.624 0.925811 1.2754 0
M  V30 2709 C 262.872 0.564138 1.94067 0
M  V30 2710 C 263.193 -0.897188 1.73134 0
M  V30 2711 O 262.463 -1.63573 1.07799 0
M  V30 2712 H 261.043 0.205645 0.718136 0
M  V30 2713 H 263.705 1.1778 1.55287 0
M  V30 2714 H 262.801 0.76881 3.02483 0
M  V30 2715 N 263.102 -1.41638 0.69111 0
M  V30 2716 C 264.065 -2.29178 0.0319786 0
M  V30 2717 C 265.065 -1.44153 -0.712496 0
M  V30 2718 O 266.255 -1.65354 -0.548053 0
M  V30 2719 C 263.387 -3.26952 -0.965161 0
M  V30 2720 H 264.58 -2.88959 0.802681 0
M  V30 2721 H 262.133 -1.4955 0.454356 0
M  V30 2722 H 262.868 -2.72142 -1.76378 0
M  V30 2723 H 262.653 -3.89685 -0.434522 0
M  V30 2724 H 264.143 -3.92561 -1.42428 0
M  V30 2725 N 264.58 -0.43555 -1.51462 0
M  V30 2726 C 265.826 0.131709 -2.02372 0
M  V30 2727 C 266.159 1.42516 -1.3192 0
M  V30 2728 O 265.434 1.89606 -0.433573 0
M  V30 2729 C 265.717 0.352301 -3.58373 0
M  V30 2730 C 265.57 -0.959676 -4.39443 0
M  V30 2731 C 266.889 1.12286 -4.25535 0
M  V30 2732 H 264.008 0.0463936 -0.735538 0
M  V30 2733 H 266.65 -0.574197 -1.81116 0
M  V30 2734 H 264.8 0.9536 -3.76615 0
M  V30 2735 H 266.472 -1.59482 -4.32855 0
M  V30 2736 H 264.715 -1.56468 -4.04599 0
M  V30 2737 H 265.386 -0.759394 -5.46752 0
M  V30 2738 H 267.862 0.613545 -4.11552 0
M  V30 2739 H 266.738 1.24598 -5.34571 0
M  V30 2740 H 266.999 2.15048 -3.86273 0
M  V30 2741 N 266.058 1.56714 -0.166846 0
M  V30 2742 C 267.474 1.58473 0.189372 0
M  V30 2743 C 267.674 1.18201 1.63189 0
M  V30 2744 O 266.73 0.891528 2.36237 0
M  V30 2745 C 268.043 3.00573 -0.0873872 0
M  V30 2746 C 269.591 3.1299 -0.0252443 0
M  V30 2747 C 270.066 4.57174 -0.274934 0
M  V30 2748 N 271.557 4.62665 -0.222553 0
M  V30 2749 C 272.292 5.72072 -0.389985 0
M  V30 2750 N 271.788 6.90054 -0.616229 0
M  V30 2751 N 273.581 5.61153 -0.326202 0
M  V30 2752 H 265.732 1.8118 -1.10849 0
M  V30 2753 H 267.995 0.839525 -0.440342 0
M  V30 2754 H 267.701 3.34497 -1.0865 0
M  V30 2755 H 267.575 3.72019 0.623037 0
M  V30 2756 H 269.962 2.78895 0.96444 0
M  V30 2757 H 270.043 2.43989 -0.768309 0
M  V30 2758 H 269.687 4.91976 -1.26181 0
M  V30 2759 H 269.617 5.24328 0.48869 0
M  V30 2760 H 272.108 3.77863 -0.0531512 0
M  V30 2761 H 272.421 7.69311 -0.733559 0
M  V30 2762 H 270.766 6.91927 -0.652791 0
M  V30 2763 H 273.957 4.67859 -0.150072 0
M  V30 2764 H 274.13 6.46364 -0.460116 0
M  V30 2765 N 267.536 -0.106894 1.57237 0
M  V30 2766 C 268.784 -0.810921 1.85117 0
M  V30 2767 C 269.105 -1.7984 0.753827 0
M  V30 2768 O 268.375 -1.94649 -0.221056 0
M  V30 2769 H 266.955 -0.302466 0.683025 0
M  V30 2770 H 269.617 -0.0913324 1.94686 0
M  V30 2771 H 268.713 -1.34875 2.81452 0
M  V30 2772 N 269.014 -1.53014 -0.377408 0
M  V30 2773 C 269.977 -1.77957 -1.44444 0
M  V30 2774 C 270.977 -0.649763 -1.47087 0
M  V30 2775 O 272.167 -0.917897 -1.48055 0
M  V30 2776 C 269.299 -1.89089 -2.83651 0
M  V30 2777 H 270.492 -2.73243 -1.23606 0
M  V30 2778 H 268.045 -1.43912 -0.609844 0
M  V30 2779 H 268.78 -0.958293 -3.09818 0
M  V30 2780 H 268.565 -2.71254 -2.83132 0
M  V30 2781 H 270.055 -2.1002 -3.60945 0
M  V30 2782 N 270.492 0.636531 -1.44174 0
M  V30 2783 C 271.738 1.39649 -1.47884 0
M  V30 2784 C 272.093 1.92098 -0.107747 0
M  V30 2785 O 271.386 1.70391 0.876208 0
M  V30 2786 C 271.58 2.58309 -2.47005 0
M  V30 2787 C 271.409 2.17476 -3.93617 0
M  V30 2788 C 270.179 2.0501 -4.61843 0
M  V30 2789 C 272.377 1.76722 -4.82984 0
M  V30 2790 N 270.359 1.57683 -5.93304 0
M  V30 2791 C 271.73 1.40601 -6.03847 0
M  V30 2792 C 273.785 1.64054 -4.70096 0
M  V30 2793 C 272.488 0.930787 -7.13252 0
M  V30 2794 C 274.514 1.17937 -5.79521 0
M  V30 2795 C 273.876 0.827625 -6.99521 0
M  V30 2796 H 269.975 0.506027 -0.596205 0
M  V30 2797 H 272.559 0.730791 -1.80465 0
M  V30 2798 H 270.73 3.22514 -2.16423 0
M  V30 2799 H 272.462 3.25083 -2.41045 0
M  V30 2800 H 269.217 2.25294 -4.16581 0
M  V30 2801 H 269.641 1.36334 -6.63131 0
M  V30 2802 H 274.283 1.89882 -3.77762 0
M  V30 2803 H 272.001 0.660012 -8.054 0
M  V30 2804 H 275.587 1.08601 -5.71574 0
M  V30 2805 H 274.467 0.476231 -7.82753 0
M  V30 2806 N 271.97 1.30982 0.876444 0
M  V30 2807 C 273.198 1.23242 1.6619 0
M  V30 2808 C 273.613 -0.203345 1.87702 0
M  V30 2809 O 272.97 -1.13317 1.43057 0
M  V30 2810 C 273.021 1.96623 3.03351 0
M  V30 2811 O 272.742 3.34594 2.82804 0
M  V30 2812 C 274.243 1.95644 3.97792 0
M  V30 2813 H 271.463 0.426126 0.518322 0
M  V30 2814 H 274.007 1.7275 1.09442 0
M  V30 2815 H 272.162 1.50892 3.56806 0
M  V30 2816 H 272.576 3.71873 3.69879 0
M  V30 2817 H 274.05 2.51511 4.91372 0
M  V30 2818 H 274.527 0.937395 4.2908 0
M  V30 2819 H 275.133 2.41225 3.50272 0
M  V30 2820 N 273.449 -1.08991 1.13837 0
M  V30 2821 C 274.695 -1.81526 0.90422 0
M  V30 2822 C 275.028 -1.85706 -0.568066 0
M  V30 2823 O 274.303 -1.32855 -1.42056 0
M  V30 2824 C 274.586 -3.27447 1.49835 0
M  V30 2825 C 274.439 -3.31512 3.04006 0
M  V30 2826 C 275.758 -4.24256 1.17025 0
M  V30 2827 H 272.877 -0.659029 0.329923 0
M  V30 2828 H 275.519 -1.27644 1.40737 0
M  V30 2829 H 273.669 -3.73462 1.07044 0
M  V30 2830 H 275.341 -2.93867 3.55584 0
M  V30 2831 H 273.584 -2.70963 3.38765 0
M  V30 2832 H 274.255 -4.34329 3.40679 0
M  V30 2833 H 276.731 -3.86549 1.54009 0
M  V30 2834 H 275.607 -5.24684 1.61237 0
M  V30 2835 H 275.868 -4.42019 0.0846274 0
M  V30 2836 N 274.927 -0.932562 -1.27047 0
M  V30 2837 C 275.857 -0.452902 -2.29066 0
M  V30 2838 C 276.838 0.489338 -1.62909 0
M  V30 2839 O 278.023 0.393046 -1.90181 0
M  V30 2840 C 275.153 0.290698 -3.46081 0
M  V30 2841 C 274.107 -0.564168 -4.24265 0
M  V30 2842 C 273.433 0.308886 -5.33807 0
M  V30 2843 C 274.733 -1.83112 -4.89149 0
M  V30 2844 H 276.427 -1.30552 -2.69437 0
M  V30 2845 H 273.973 -0.629201 -1.29526 0
M  V30 2846 H 275.926 0.637233 -4.16554 0
M  V30 2847 H 274.65 1.17738 -3.0464 0
M  V30 2848 H 273.309 -0.893477 -3.55545 0
M  V30 2849 H 272.957 1.19467 -4.88607 0
M  V30 2850 H 272.657 -0.259633 -5.87026 0
M  V30 2851 H 274.181 0.650884 -6.07121 0
M  V30 2852 H 275.595 -1.55236 -5.51883 0
M  V30 2853 H 273.992 -2.34353 -5.52448 0
M  V30 2854 H 275.062 -2.54772 -4.12576 0
M  V30 2855 N 276.405 1.4127 -0.698611 0
M  V30 2856 C 277.633 2.05503 -0.239992 0
M  V30 2857 C 278.048 1.52584 1.11191 0
M  V30 2858 O 277.405 0.675323 1.69545 0
M  V30 2859 C 277.456 3.60987 -0.192429 0
M  V30 2860 O 277.177 4.1195 -1.49094 0
M  V30 2861 C 278.678 4.42371 0.28681 0
M  V30 2862 H 275.898 0.661748 -0.111045 0
M  V30 2863 H 278.442 1.80987 -0.95205 0
M  V30 2864 H 276.597 3.84533 0.470472 0
M  V30 2865 H 277.011 5.06018 -1.38007 0
M  V30 2866 H 278.485 5.51344 0.26896 0
M  V30 2867 H 278.962 4.18699 1.32619 0
M  V30 2868 H 279.568 4.23897 -0.345201 0
M  V30 2869 N 277.883 0.443576 1.51229 0
M  V30 2870 C 279.16 -0.181038 1.9476 0
M  V30 2871 C 279.54 -1.59523 1.38259 0
M  V30 2872 O 278.888 -2.2122 0.572198 0
M  V30 2873 C 279.098 -0.152422 3.48667 0
M  V30 2874 C 280.446 -0.354923 4.23114 0
M  V30 2875 O 281.47 -0.230257 3.55455 0
M  V30 2876 O 280.329 -0.603674 5.43156 0
M  V30 2877 H 277.423 -0.1266 0.817252 0
M  V30 2878 H 279.969 0.502004 1.62105 0
M  V30 2879 H 278.741 0.836022 3.82265 0
M  V30 2880 H 278.364 -0.878107 3.87782 0
M  V30 2881 N 279.361 -1.56624 0.175154 0
M  V30 2882 C 280.324 -2.16934 -0.739738 0
M  V30 2883 C 281.324 -1.11842 -1.15533 0
M  V30 2884 O 282.514 -1.37335 -1.07167 0
M  V30 2885 C 279.646 -2.75531 -2.00738 0
M  V30 2886 H 280.839 -2.99131 -0.214639 0
M  V30 2887 H 278.392 -1.56123 -0.0744197 0
M  V30 2888 H 279.127 -1.97078 -2.57548 0
M  V30 2889 H 278.912 -3.52444 -1.71831 0
M  V30 2890 H 280.402 -3.21904 -2.66021 0
M  V30 2891 N 280.839 0.0985539 -1.57292 0
M  V30 2892 C 282.116 0.834155 -1.76921 0
M  V30 2893 C 282.496 1.97101 -0.755928 0
M  V30 2894 O 281.844 2.27474 0.216245 0
M  V30 2895 C 282.054 1.33194 -3.22584 0
M  V30 2896 C 283.402 1.77611 -3.85668 0
M  V30 2897 O 284.426 1.42825 -3.26312 0
M  V30 2898 O 283.285 2.4192 -4.90038 0
M  V30 2899 H 280.379 0.397628 -0.725135 0
M  V30 2900 H 282.925 0.0807044 -1.69508 0
M  V30 2901 H 281.697 0.517248 -3.87866 0
M  V30 2902 H 281.32 2.1475 -3.34616 0
M  V30 2903 N 282.317 1.53212 0.369288 0
M  V30 2904 C 283.728 1.60943 0.946276 0
M  V30 2905 C 284.079 0.47452 1.90375 0
M  V30 2906 O 283.204 -0.399597 2.12679 0
M  V30 2907 C 283.799 2.91715 1.72302 0
M  V30 2908 C 282.358 3.01792 2.24941 0
M  V30 2909 C 281.505 2.56211 1.06072 0
M  V30 2910 H 284.456 1.58007 0.148198 0
M  V30 2911 H 284.477 2.79309 2.58393 0
M  V30 2912 H 283.989 3.74295 1.0259 0
M  V30 2913 H 282.09 2.23791 2.97906 0
M  V30 2914 H 282.203 4.06803 2.53077 0
M  V30 2915 H 280.567 2.10998 1.4266 0
M  V30 2916 H 281.35 3.41206 0.378639 0
M  V30 2917 N 283.795 -0.628877 1.44509 0
M  V30 2918 C 284.705 -1.7694 1.54044 0
M  V30 2919 C 285.721 -1.68705 0.425987 0
M  V30 2920 O 286.897 -1.89442 0.683656 0
M  V30 2921 C 283.962 -3.13332 1.48405 0
M  V30 2922 C 283.023 -3.33181 2.70719 0
M  V30 2923 C 282.256 -4.63067 2.6534 0
M  V30 2924 O 282.479 -5.44017 1.71469 0
M  V30 2925 O 281.413 -4.85167 3.56226 0
M  V30 2926 H 285.239 -1.71848 2.50403 0
M  V30 2927 H 282.824 -0.790378 1.26781 0
M  V30 2928 H 284.706 -3.94634 1.47791 0
M  V30 2929 H 283.381 -3.1896 0.551898 0
M  V30 2930 H 282.288 -2.51549 2.769 0
M  V30 2931 H 283.621 -3.32416 3.62988 0
M  V30 2932 N 285.273 -1.31445 -0.869486 0
M  V30 2933 C 286.498 -1.24256 -1.66058 0
M  V30 2934 C 286.923 0.188928 -1.87149 0
M  V30 2935 O 286.281 1.13522 -1.4136 0
M  V30 2936 C 286.329 -1.9924 -3.00559 0
M  V30 2937 O 285.433 -1.33007 -3.90362 0
M  V30 2938 H 284.774 -0.428973 -0.506831 0
M  V30 2939 H 287.304 -1.73521 -1.08404 0
M  V30 2940 H 287.314 -2.08854 -3.50491 0
M  V30 2941 H 285.989 -3.03342 -2.84528 0
M  V30 2942 H 284.566 -1.31848 -3.48813 0
M  V30 2943 N 286.751 1.08385 -1.14413 0
M  V30 2944 C 287.976 1.85057 -0.936413 0
M  V30 2945 C 288.401 1.81055 0.509971 0
M  V30 2946 O 287.759 1.1958 1.36273 0
M  V30 2947 C 287.807 3.30505 -1.44217 0
M  V30 2948 O 286.911 4.07491 -0.634409 0
M  V30 2949 H 286.252 0.573425 -0.334784 0
M  V30 2950 H 288.782 1.36799 -1.52142 0
M  V30 2951 H 288.792 3.81348 -1.45043 0
M  V30 2952 H 287.467 3.32734 -2.49522 0
M  V30 2953 H 286.044 3.66368 -0.694902 0
M  V30 2954 N 288.23 0.939286 1.26551 0
M  V30 2955 C 289.507 0.5038 1.89001 0
M  V30 2956 C 289.887 -1.01854 1.84903 0
M  V30 2957 O 289.235 -1.87773 1.30206 0
M  V30 2958 C 289.445 1.063 3.32417 0
M  V30 2959 C 290.793 1.13051 4.09273 0
M  V30 2960 O 291.817 1.01345 3.41479 0
M  V30 2961 O 290.676 1.31233 5.30509 0
M  V30 2962 H 287.77 0.163897 0.810597 0
M  V30 2963 H 290.316 1.03173 1.34735 0
M  V30 2964 H 289.088 2.10665 3.29752 0
M  V30 2965 H 288.711 0.517408 3.94219 0
M  V30 2966 N 289.708 -1.40897 0.706093 0
M  V30 2967 C 290.64 -2.29199 0.00815776 0
M  V30 2968 C 291.653 -1.45336 -0.733582 0
M  V30 2969 O 292.842 -1.68727 -0.582537 0
M  V30 2970 C 289.942 -3.23417 -1.01265 0
M  V30 2971 C 289.115 -4.36089 -0.338387 0
M  V30 2972 C 288.174 -5.10811 -1.26326 0
M  V30 2973 O 287.2 -5.64215 -0.751651 0
M  V30 2974 N 288.402 -5.19269 -2.595 0
M  V30 2975 H 291.167 -2.89738 0.766297 0
M  V30 2976 H 288.728 -1.52164 0.55296 0
M  V30 2977 H 290.72 -3.70276 -1.63334 0
M  V30 2978 H 289.29 -2.64112 -1.67223 0
M  V30 2979 H 288.51 -3.91479 0.462352 0
M  V30 2980 H 289.798 -5.08634 0.130031 0
M  V30 2981 H 289.196 -4.77347 -3.03573 0
M  V30 2982 H 287.753 -5.69667 -3.16737 0
M  V30 2983 N 291.186 -0.45159 -1.50991 0
M  V30 2984 C 292.602 -0.104647 -1.59257 0
M  V30 2985 C 292.802 1.38728 -1.4614 0
M  V30 2986 O 291.858 2.15866 -1.30989 0
M  V30 2987 C 293.171 -0.637468 -2.93865 0
M  V30 2988 C 294.719 -0.599166 -3.07212 0
M  V30 2989 C 295.194 -1.1092 -4.44366 0
M  V30 2990 N 296.685 -1.06778 -4.50725 0
M  V30 2991 C 297.42 -1.43314 -5.55201 0
M  V30 2992 N 296.916 -1.87204 -6.67028 0
M  V30 2993 N 298.709 -1.3504 -5.45638 0
M  V30 2994 H 290.86 -1.42214 -1.57762 0
M  V30 2995 H 293.123 -0.586921 -0.744465 0
M  V30 2996 H 292.829 -1.68187 -3.08879 0
M  V30 2997 H 292.703 -0.0702139 -3.77135 0
M  V30 2998 H 295.09 0.436277 -2.91857 0
M  V30 2999 H 295.171 -1.20299 -2.25747 0
M  V30 3000 H 294.815 -2.14318 -4.60467 0
M  V30 3001 H 294.745 -0.481773 -5.24392 0
M  V30 3002 H 297.236 -0.745643 -3.70471 0
M  V30 3003 H 297.549 -2.13282 -7.42786 0
M  V30 3004 H 295.894 -1.91142 -6.68199 0
M  V30 3005 H 299.085 -1.00607 -4.57161 0
M  V30 3006 H 299.258 -1.63841 -6.26945 0
M  V30 3007 N 292.664 1.56529 -0.183458 0
M  V30 3008 C 294.08 1.58664 0.172554 0
M  V30 3009 C 294.28 1.19925 1.61926 0
M  V30 3010 O 293.336 0.916534 2.35278 0
M  V30 3011 C 294.649 3.00463 -0.119262 0
M  V30 3012 C 296.197 3.12945 -0.0584396 0
M  V30 3013 C 296.672 4.56857 -0.323408 0
M  V30 3014 N 298.163 4.62403 -0.271612 0
M  V30 3015 C 298.898 5.71626 -0.450639 0
M  V30 3016 N 298.394 6.89362 -0.689384 0
M  V30 3017 N 300.187 5.60775 -0.385701 0
M  V30 3018 H 292.338 1.79994 -1.12765 0
M  V30 3019 H 294.601 0.834808 -0.449222 0
M  V30 3020 H 294.307 3.33326 -1.12192 0
M  V30 3021 H 294.181 3.72659 0.583544 0
M  V30 3022 H 296.568 2.79902 0.934805 0
M  V30 3023 H 296.649 2.4316 -0.794144 0
M  V30 3024 H 296.293 4.9061 -1.31392 0
M  V30 3025 H 296.223 5.24816 0.43305 0
M  V30 3026 H 298.714 3.77785 -0.0932256 0
M  V30 3027 H 299.027 7.68489 -0.815113 0
M  V30 3028 H 297.372 6.91196 -0.726142 0
M  V30 3029 H 300.563 4.67674 -0.199687 0
M  V30 3030 H 300.736 6.4584 -0.528646 0
M  V30 3031 N 294.142 -0.090211 1.57342 0
M  V30 3032 C 295.389 -0.792807 1.86335 0
M  V30 3033 C 295.717 -1.78494 0.772662 0
M  V30 3034 O 294.972 -1.94305 -0.233258 0
M  V30 3035 C 295.271 -1.55222 3.21933 0
M  V30 3036 C 294.937 -0.701765 4.45406 0
M  V30 3037 C 293.599 -0.467334 4.78925 0
M  V30 3038 C 295.951 -0.11086 5.21082 0
M  V30 3039 C 293.279 0.367785 5.85546 0
M  V30 3040 C 295.631 0.711609 6.28585 0
M  V30 3041 C 294.295 0.956086 6.60617 0
M  V30 3042 H 293.565 -0.290109 0.681849 0
M  V30 3043 H 296.212 -0.0541332 1.91423 0
M  V30 3044 H 294.517 -2.3626 3.12551 0
M  V30 3045 H 296.214 -2.10032 3.41595 0
M  V30 3046 H 292.804 -0.894598 4.1916 0
M  V30 3047 H 296.988 -0.279129 4.95514 0
M  V30 3048 H 292.244 0.566128 6.08773 0
M  V30 3049 H 296.418 1.17632 6.86393 0
M  V30 3050 H 294.045 1.60499 7.43064 0
M  V30 3051 N 295.62 -1.53406 -0.361157 0
M  V30 3052 C 296.55 -1.83136 -1.44857 0
M  V30 3053 C 297.531 -0.685174 -1.5569 0
M  V30 3054 O 298.716 -0.93544 -1.70186 0
M  V30 3055 C 295.846 -2.02522 -2.82138 0
M  V30 3056 C 294.8 -3.18302 -2.86126 0
M  V30 3057 C 294.126 -3.22989 -4.26125 0
M  V30 3058 C 295.426 -4.56796 -2.53248 0
M  V30 3059 H 297.12 -2.74201 -1.20226 0
M  V30 3060 H 294.666 -1.31938 -0.576922 0
M  V30 3061 H 296.619 -2.21904 -3.58241 0
M  V30 3062 H 295.343 -1.08172 -3.08166 0
M  V30 3063 H 294.002 -2.98747 -2.12475 0
M  V30 3064 H 293.65 -2.26267 -4.49235 0
M  V30 3065 H 293.35 -4.00781 -4.29708 0
M  V30 3066 H 294.874 -3.44559 -5.04094 0
M  V30 3067 H 296.288 -4.7631 -3.19064 0
M  V30 3068 H 294.685 -5.36862 -2.68141 0
M  V30 3069 H 295.755 -4.61606 -1.48484 0
M  V30 3070 N 297.098 0.621204 -1.44841 0
M  V30 3071 C 298.323 1.41244 -1.51871 0
M  V30 3072 C 298.748 1.87519 -0.147764 0
M  V30 3073 O 298.106 1.59334 0.865 0
M  V30 3074 C 298.154 2.60221 -2.49634 0
M  V30 3075 O 297.258 3.60395 -2.00473 0
M  V30 3076 H 296.599 0.42223 -0.512463 0
M  V30 3077 H 299.129 0.757305 -1.90069 0
M  V30 3078 H 299.139 3.0764 -2.67996 0
M  V30 3079 H 297.814 2.25887 -3.4921 0
M  V30 3080 H 296.391 3.19717 -1.91925 0
M  V30 3081 N 298.576 1.31904 0.862503 0
M  V30 3082 C 299.508 1.16005 1.97675 0
M  V30 3083 C 300.521 0.0971234 1.6251 0
M  V30 3084 O 301.71 0.345337 1.75128 0
M  V30 3085 C 298.81 0.751791 3.30456 0
M  V30 3086 C 297.983 1.90133 3.93914 0
M  V30 3087 C 297.042 1.4779 5.05019 0
M  V30 3088 O 296.068 2.18872 5.25437 0
M  V30 3089 N 297.27 0.369491 5.79323 0
M  V30 3090 H 300.035 2.11982 2.11857 0
M  V30 3091 H 297.596 1.24337 1.03691 0
M  V30 3092 H 299.588 0.451084 4.02178 0
M  V30 3093 H 298.158 -0.116593 3.12382 0
M  V30 3094 H 297.378 2.36896 3.15078 0
M  V30 3095 H 298.666 2.67111 4.33047 0
M  V30 3096 H 298.064 -0.222299 5.65263 0
M  V30 3097 H 296.621 0.128354 6.51674 0
M  V30 3098 N 300.054 -1.07777 1.14986 0
M  V30 3099 C 301.282 -1.84018 0.945773 0
M  V30 3100 C 301.697 -1.81897 -0.505863 0
M  V30 3101 O 301.054 -1.22726 -1.35072 0
M  V30 3102 C 301.105 -3.31287 1.44677 0
M  V30 3103 O 300.826 -3.33449 2.84154 0
M  V30 3104 C 302.327 -4.24311 1.28355 0
M  V30 3105 H 299.547 -0.580716 0.336169 0
M  V30 3106 H 302.091 -1.36077 1.52654 0
M  V30 3107 H 300.246 -3.76594 0.908625 0
M  V30 3108 H 300.66 -4.25427 3.06777 0
M  V30 3109 H 302.134 -5.2573 1.68261 0
M  V30 3110 H 302.611 -4.38612 0.227184 0
M  V30 3111 H 303.217 -3.84836 1.81056 0
M  V30 3112 N 301.532 -0.945985 -1.26051 0
M  V30 3113 C 302.495 -0.463897 -2.24456 0
M  V30 3114 C 303.495 0.427655 -1.55009 0
M  V30 3115 O 304.685 0.226157 -1.72726 0
M  V30 3116 C 301.817 0.330812 -3.39291 0
M  V30 3117 H 303.01 -1.33357 -2.68619 0
M  V30 3118 H 300.563 -0.728416 -1.38289 0
M  V30 3119 H 301.298 1.21852 -3.00537 0
M  V30 3120 H 301.083 -0.308679 -3.90883 0
M  V30 3121 H 302.573 0.657865 -4.12386 0
M  V30 3122 N 303.011 1.40521 -0.713556 0
M  V30 3123 C 304.239 2.05237 -0.261775 0
M  V30 3124 C 304.654 1.53755 1.09567 0
M  V30 3125 O 304.011 0.693268 1.6882 0
M  V30 3126 C 304.062 3.60763 -0.230706 0
M  V30 3127 O 303.783 4.10345 -1.53455 0
M  V30 3128 C 305.284 4.42651 0.239874 0
M  V30 3129 H 302.504 0.660533 -0.118057 0
M  V30 3130 H 305.048 1.79967 -0.971192 0
M  V30 3131 H 303.203 3.8501 0.429661 0
M  V30 3132 H 303.617 5.04526 -1.43366 0
M  V30 3133 H 305.091 5.51599 0.210468 0
M  V30 3134 H 305.568 4.20082 1.28171 0
M  V30 3135 H 306.174 4.23507 -0.390142 0
M  V30 3136 N 304.489 0.459591 1.5075 0
M  V30 3137 C 305.452 -0.329093 2.26825 0
M  V30 3138 C 306.452 -0.930481 1.31144 0
M  V30 3139 O 307.642 -0.801453 1.54669 0
M  V30 3140 C 304.774 -1.46768 3.07688 0
M  V30 3141 H 305.967 0.337924 2.9799 0
M  V30 3142 H 303.52 0.213336 1.54837 0
M  V30 3143 H 304.255 -2.17009 2.40993 0
M  V30 3144 H 304.04 -1.04238 3.77991 0
M  V30 3145 H 305.53 -2.02433 3.65254 0
M  V30 3146 N 305.967 -1.56429 0.191757 0
M  V30 3147 C 306.93 -2.17707 -0.716688 0
M  V30 3148 C 307.93 -1.13061 -1.14341 0
M  V30 3149 O 309.12 -1.38464 -1.05704 0
M  V30 3150 C 306.252 -2.77644 -1.97804 0
M  V30 3151 H 307.445 -2.99342 -0.1829 0
M  V30 3152 H 304.998 -1.56193 -0.0578566 0
M  V30 3153 H 305.733 -1.99799 -2.55443 0
M  V30 3154 H 305.518 -3.54246 -1.68083 0
M  V30 3155 H 307.008 -3.24708 -2.62592 0
M  V30 3156 N 307.445 0.0818655 -1.57387 0
M  V30 3157 C 308.393 1.11712 -2.04018 0
M  V30 3158 C 309.387 1.40683 -0.94364 0
M  V30 3159 O 310.593 1.40209 -1.12878 0
M  V30 3160 H 306.968 0.377542 -0.650358 0
M  V30 3161 H 308.939 0.697614 -2.90131 0
M  V30 3162 C 307.688 2.42537 -2.49141 0
M  V30 3163 H 307.011 2.21092 -3.33104 0
M  V30 3164 H 308.451 3.13446 -2.85531 0
M  V30 3165 C 306.91 3.0778 -1.37014 0
M  V30 3166 O 307.44 3.95436 -0.706621 0
M  V30 3167 N 305.646 2.68242 -1.11779 0
M  V30 3168 H 305.193 1.97052 -1.65917 0
M  V30 3169 H 305.151 3.1222 -0.369594 0
M  V30 3170 N 308.923 1.53595 0.353017 0
M  V30 3171 C 310.334 1.61937 0.929153 0
M  V30 3172 C 310.685 0.494686 1.89861 0
M  V30 3173 O 309.81 -0.377017 2.1309 0
M  V30 3174 C 310.405 2.93526 1.69199 0
M  V30 3175 C 308.964 3.04161 2.21727 0
M  V30 3176 C 308.111 2.57322 1.03348 0
M  V30 3177 H 311.062 1.58155 0.131431 0
M  V30 3178 H 311.083 2.82034 2.55416 0
M  V30 3179 H 310.595 3.75362 0.986144 0
M  V30 3180 H 308.696 2.26938 2.95516 0
M  V30 3181 H 308.809 4.09465 2.48748 0
M  V30 3182 H 307.173 2.12499 1.40414 0
M  V30 3183 H 307.956 3.41588 0.342428 0
M  V30 3184 N 310.401 -0.613514 1.45168 0
M  V30 3185 C 311.647 -1.37471 1.49096 0
M  V30 3186 C 311.98 -1.93765 0.129901 0
M  V30 3187 O 311.255 -1.74707 -0.854858 0
M  V30 3188 C 311.538 -2.52701 2.56542 0
M  V30 3189 C 311.391 -2.01643 4.0207 0
M  V30 3190 C 312.71 -3.54849 2.60327 0
M  V30 3191 H 309.829 -0.498502 0.54283 0
M  V30 3192 H 312.471 -0.692125 1.76945 0
M  V30 3193 H 310.621 -3.10931 2.32926 0
M  V30 3194 H 312.293 -1.48108 4.36877 0
M  V30 3195 H 310.536 -1.32688 4.13009 0
M  V30 3196 H 311.207 -2.84681 4.72928 0
M  V30 3197 H 313.683 -3.0645 2.81474 0
M  V30 3198 H 312.559 -4.32973 3.37381 0
M  V30 3199 H 312.82 -4.10079 1.6519 0
M  V30 3200 N 311.879 -1.3236 -0.855495 0
M  V30 3201 C 313.119 -1.24187 -1.62348 0
M  V30 3202 C 313.483 0.193597 -1.91021 0
M  V30 3203 O 314.684 0.39904 -2.65822 0
M  V30 3204 C 312.955 -2.07661 -2.90881 0
M  V30 3205 S 314.514 -2.16505 -3.81669 0
M  V30 3206 H 311.332 -0.442076 -0.556857 0
M  V30 3207 H 313.934 -1.67198 -1.01317 0
M  V30 3208 H 312.638 -3.11018 -2.67761 0
M  V30 3209 H 312.169 -1.65425 -3.56929 0
M  V30 3210 H 314.184 -1.31394 -4.78487 0
M  V30 3211 N 313.357 1.07166 -1.15556 0
M  V30 3212 C 314.287 2.16403 -0.877046 0
M  V30 3213 C 315.268 1.69217 0.173111 0
M  V30 3214 O 316.453 1.94181 0.027084 0
M  V30 3215 C 313.583 3.45349 -0.367632 0
M  V30 3216 C 312.537 4.05995 -1.35468 0
M  V30 3217 C 311.863 5.30045 -0.704038 0
M  V30 3218 C 313.163 4.45804 -2.72132 0
M  V30 3219 H 314.857 2.39959 -1.79053 0
M  V30 3220 H 312.403 1.15325 -0.862331 0
M  V30 3221 H 314.356 4.21095 -0.160317 0
M  V30 3222 H 313.08 3.21385 0.581326 0
M  V30 3223 H 311.739 3.32296 -1.54839 0
M  V30 3224 H 311.387 5.02373 0.251128 0
M  V30 3225 H 311.087 5.71579 -1.36277 0
M  V30 3226 H 312.611 6.08495 -0.50654 0
M  V30 3227 H 314.025 5.12671 -2.56595 0
M  V30 3228 H 312.422 4.98296 -3.34397 0
M  V30 3229 H 313.492 3.57083 -3.28054 0
M  V30 3230 N 314.835 0.952656 1.25548 0
M  V30 3231 C 315.783 0.462354 2.27958 0
M  V30 3232 C 316.777 -0.46634 1.62855 0
M  V30 3233 O 317.983 -0.343287 1.76696 0
M  V30 3234 H 314.358 0.13101 0.7405 0
M  V30 3235 H 316.329 1.33839 2.66702 0
M  V30 3236 C 315.078 -0.24628 3.46827 0
M  V30 3237 H 314.401 0.459192 3.97154 0
M  V30 3238 H 315.841 -0.553393 4.20373 0
M  V30 3239 C 314.3 -1.4681 3.0323 0
M  V30 3240 O 314.83 -2.56591 3.09069 0
M  V30 3241 N 313.036 -1.32874 2.58443 0
M  V30 3242 H 312.583 -0.435536 2.53891 0
M  V30 3243 H 312.541 -2.14742 2.29637 0
M  V30 3244 N 316.313 -1.40141 0.720998 0
M  V30 3245 C 317.553 -2.02644 0.267335 0
M  V30 3246 C 317.917 -1.55948 -1.12001 0
M  V30 3247 O 319.118 -2.10552 -1.67097 0
M  V30 3248 C 317.389 -3.55679 0.350281 0
M  V30 3249 S 318.948 -4.38793 -0.0256004 0
M  V30 3250 H 315.766 -0.703105 0.105664 0
M  V30 3251 H 318.368 -1.71175 0.944416 0
M  V30 3252 H 317.072 -3.87157 1.36153 0
M  V30 3253 H 316.603 -3.91883 -0.345096 0
M  V30 3254 H 318.618 -4.803 -1.24604 0
M  V30 3255 N 317.792 -0.46758 -1.50504 0
M  V30 3256 C 318.739 0.328413 -2.28452 0
M  V30 3257 C 319.709 0.990313 -1.33349 0
M  V30 3258 O 320.894 1.00343 -1.62284 0
M  V30 3259 C 318.034 1.40648 -3.15138 0
M  V30 3260 C 317.147 0.759709 -4.25267 0
M  V30 3261 C 316.282 1.81537 -4.99217 0
M  V30 3262 C 315.321 1.14866 -6.01226 0
M  V30 3263 N 314.458 2.14702 -6.68467 0
M  V30 3264 H 319.298 -0.342603 -2.96024 0
M  V30 3265 H 316.835 -0.180801 -1.45985 0
M  V30 3266 H 318.793 2.04315 -3.63746 0
M  V30 3267 H 317.423 2.04671 -2.49619 0
M  V30 3268 H 316.475 0.0105671 -3.80399 0
M  V30 3269 H 317.787 0.233243 -4.98254 0
M  V30 3270 H 316.941 2.52793 -5.51526 0
M  V30 3271 H 315.68 2.37564 -4.25928 0
M  V30 3272 H 314.685 0.42171 -5.4818 0
M  V30 3273 H 315.91 0.595334 -6.76485 0
M  V30 3274 H 313.856 2.69752 -5.97972 0
M  V30 3275 H 313.773 1.6703 -7.37317 0
M  V30 3276 H 315.041 2.85348 -7.25394 0
M  V30 3277 N 319.27 1.56325 -0.20005 0
M  V30 3278 C 320.498 2.02105 0.442874 0
M  V30 3279 C 320.913 1.08014 1.5485 0
M  V30 3280 O 320.27 0.0858797 1.82298 0
M  V30 3281 C 320.321 3.47549 0.994583 0
M  V30 3282 O 320.042 4.38049 -0.0669322 0
M  V30 3283 C 321.543 4.0887 1.7129 0
M  V30 3284 H 318.763 0.661807 0.110691 0
M  V30 3285 H 321.307 2.02134 -0.310207 0
M  V30 3286 H 319.462 3.48204 1.69803 0
M  V30 3287 H 319.876 5.23368 0.344462 0
M  V30 3288 H 321.35 5.12475 2.05118 0
M  V30 3289 H 321.827 3.52615 2.61838 0
M  V30 3290 H 322.433 4.12002 1.05518 0
M  V30 3291 N 320.748 -0.0735177 1.57428 0
M  V30 3292 C 321.68 -1.11423 2.00294 0
M  V30 3293 C 322.693 -1.35084 0.908637 0
M  V30 3294 O 323.882 -1.33355 1.18654 0
M  V30 3295 C 320.982 -2.46548 2.32523 0
M  V30 3296 C 320.155 -2.42867 3.63778 0
M  V30 3297 C 319.214 -3.60087 3.83697 0
M  V30 3298 O 318.24 -3.41595 4.55304 0
M  V30 3299 N 319.442 -4.80372 3.25919 0
M  V30 3300 H 322.207 -0.749206 2.90184 0
M  V30 3301 H 319.768 -0.262195 1.59763 0
M  V30 3302 H 321.76 -3.23607 2.43024 0
M  V30 3303 H 320.33 -2.75059 1.48531 0
M  V30 3304 H 319.55 -1.51206 3.64047 0
M  V30 3305 H 320.838 -2.37506 4.49965 0
M  V30 3306 H 320.236 -4.983 2.67795 0
M  V30 3307 H 318.793 -5.54948 3.41871 0
M  V30 3308 N 322.226 -1.5378 -0.344866 0
M  V30 3309 C 323.503 -1.61589 -1.10219 0
M  V30 3310 C 323.883 -0.436316 -2.06542 0
M  V30 3311 O 323.231 0.571543 -2.21237 0
M  V30 3312 C 323.441 -2.97602 -1.82301 0
M  V30 3313 C 324.789 -3.5291 -2.36093 0
M  V30 3314 O 325.813 -2.99768 -1.924 0
M  V30 3315 O 324.672 -4.45859 -3.16026 0
M  V30 3316 H 321.766 -0.653522 -0.506792 0
M  V30 3317 H 324.312 -1.66126 -0.346465 0
M  V30 3318 H 323.084 -3.74893 -1.12121 0
M  V30 3319 H 322.707 -2.9665 -2.64735 0
M  V30 3320 N 323.704 0.605807 -1.45491 0
M  V30 3321 C 324.654 1.71074 -1.50724 0
M  V30 3322 C 325.638 1.5658 -0.37033 0
M  V30 3323 O 326.83 1.65887 -0.617299 0
M  V30 3324 C 323.959 3.0983 -1.47852 0
M  V30 3325 C 323.045 3.29704 -2.66751 0
M  V30 3326 N 323.436 3.19831 -3.91844 0
M  V30 3327 C 321.734 3.60579 -2.62486 0
M  V30 3328 C 322.435 3.41083 -4.71208 0
M  V30 3329 N 321.411 3.65157 -4.02693 0
M  V30 3330 H 325.213 1.61937 -2.45263 0
M  V30 3331 H 322.727 0.80912 -1.40808 0
M  V30 3332 H 324.724 3.89101 -1.49686 0
M  V30 3333 H 323.384 3.20115 -0.543714 0
M  V30 3334 H 324.395 2.98194 -4.23439 0
M  V30 3335 H 321.072 3.7769 -1.77922 0
M  V30 3336 H 322.462 3.38828 -5.80211 0
M  V30 3337 N 325.182 1.32811 0.848464 0
M  V30 3338 C 326.431 1.23075 1.59798 0
M  V30 3339 C 326.744 -0.204419 1.94529 0
M  V30 3340 O 327.95 -0.423701 2.68173 0
M  V30 3341 C 326.406 2.15594 2.88179 0
M  V30 3342 C 326.014 3.64228 2.60849 0
M  V30 3343 C 327.758 2.14709 3.66197 0
M  V30 3344 C 325.665 4.48689 3.85269 0
M  V30 3345 H 324.595 0.457091 0.599653 0
M  V30 3346 H 327.246 1.57813 0.936342 0
M  V30 3347 H 325.628 1.73778 3.55833 0
M  V30 3348 H 326.802 4.14424 2.01467 0
M  V30 3349 H 325.117 3.67306 1.96151 0
M  V30 3350 H 327.714 2.75046 4.58534 0
M  V30 3351 H 328.057 1.13966 4.00397 0
M  V30 3352 H 328.59 2.54837 3.05455 0
M  V30 3353 H 325.329 5.5027 3.56207 0
M  V30 3354 H 324.849 4.03241 4.44024 0
M  V30 3355 H 326.528 4.62006 4.52946 0
M  V30 3356 N 326.66 -1.06551 1.16123 0
M  V30 3357 C 327.59 -2.15935 0.88851 0
M  V30 3358 C 328.571 -1.69306 -0.164135 0
M  V30 3359 O 329.756 -1.94193 -0.0167857 0
M  V30 3360 C 326.886 -3.45149 0.385942 0
M  V30 3361 C 325.84 -4.05271 1.3762 0
M  V30 3362 C 325.166 -5.29664 0.732137 0
M  V30 3363 C 326.466 -4.44355 2.74493 0
M  V30 3364 H 328.16 -2.39006 1.80323 0
M  V30 3365 H 325.706 -1.14866 0.868435 0
M  V30 3366 H 327.659 -4.21004 0.182647 0
M  V30 3367 H 326.383 -3.21689 -0.564274 0
M  V30 3368 H 325.042 -3.3147 1.56599 0
M  V30 3369 H 324.69 -5.02499 -0.224483 0
M  V30 3370 H 324.39 -5.70848 1.39307 0
M  V30 3371 H 325.914 -6.08218 0.538802 0
M  V30 3372 H 327.328 -5.11303 2.59311 0
M  V30 3373 H 325.725 -4.96515 3.37035 0
M  V30 3374 H 326.795 -3.55339 3.29943 0
M  V30 3375 N 328.138 -0.959301 -1.25041 0
M  V30 3376 C 329.415 -0.533805 -1.88175 0
M  V30 3377 C 329.795 0.988994 -1.865 0
M  V30 3378 O 329.143 1.85677 -1.33177 0
M  V30 3379 C 329.353 -1.11575 -3.30684 0
M  V30 3380 C 330.701 -1.19548 -4.07423 0
M  V30 3381 O 331.725 -1.06765 -3.39823 0
M  V30 3382 O 330.584 -1.39656 -5.28354 0
M  V30 3383 H 327.678 -0.176772 -0.807887 0
M  V30 3384 H 330.224 -1.05303 -1.33076 0
M  V30 3385 H 328.996 -2.15884 -3.26358 0
M  V30 3386 H 328.619 -0.580059 -3.93346 0
M  V30 3387 N 329.616 1.39756 -0.72842 0
M  V30 3388 C 330.862 2.01425 -0.282761 0
M  V30 3389 C 331.217 1.56754 1.11561 0
M  V30 3390 O 330.51 0.783482 1.74849 0
M  V30 3391 C 330.704 3.56002 -0.315776 0
M  V30 3392 C 330.533 4.1568 -1.71582 0
M  V30 3393 C 329.303 4.48555 -2.32651 0
M  V30 3394 C 331.501 4.39667 -2.66829 0
M  V30 3395 N 329.483 4.93698 -3.64877 0
M  V30 3396 C 330.854 4.86942 -3.8378 0
M  V30 3397 C 332.909 4.21724 -2.64675 0
M  V30 3398 C 331.612 5.18158 -4.98904 0
M  V30 3399 C 333.638 4.54049 -3.78937 0
M  V30 3400 C 333 5.01525 -4.94623 0
M  V30 3401 H 329.099 0.76756 -0.149583 0
M  V30 3402 H 331.683 1.69784 -0.952976 0
M  V30 3403 H 329.854 3.87046 0.324057 0
M  V30 3404 H 331.586 4.0443 0.147808 0
M  V30 3405 H 328.341 4.36128 -1.84633 0
M  V30 3406 H 328.765 5.20635 -4.32744 0
M  V30 3407 H 333.407 3.84228 -1.76433 0
M  V30 3408 H 331.125 5.54562 -5.87781 0
M  V30 3409 H 334.711 4.41795 -3.78561 0
M  V30 3410 H 333.591 5.26065 -5.81572 0
M  V30 3411 N 331.094 0.475555 1.50254 0
M  V30 3412 C 332.057 -0.305016 2.27161 0
M  V30 3413 C 333.057 -0.916519 1.32123 0
M  V30 3414 O 334.247 -0.785003 1.5551 0
M  V30 3415 C 331.379 -1.43496 3.09227 0
M  V30 3416 H 332.572 0.369511 2.97615 0
M  V30 3417 H 330.125 0.229747 1.54602 0
M  V30 3418 H 330.86 -2.14441 2.43281 0
M  V30 3419 H 330.645 -1.00223 3.79075 0
M  V30 3420 H 332.135 -1.98548 3.67381 0
M  V30 3421 N 332.573 -1.56217 0.208337 0
M  V30 3422 C 333.803 -2.02043 -0.431523 0
M  V30 3423 C 334.211 -1.08755 -1.54819 0
M  V30 3424 O 333.554 -0.0870009 -1.83494 0
M  V30 3425 C 333.616 -3.44239 -1.03633 0
M  V30 3426 C 333.28 -4.56965 -0.0567502 0
M  V30 3427 C 334.277 -5.14624 0.738773 0
M  V30 3428 C 331.962 -5.02266 0.0581736 0
M  V30 3429 C 333.956 -6.16045 1.63605 0
M  V30 3430 C 331.643 -6.03528 0.959001 0
M  V30 3431 C 332.641 -6.60293 1.7465 0
M  V30 3432 O 332.329 -7.59586 2.6322 0
M  V30 3433 H 332.061 -0.666772 -0.111313 0
M  V30 3434 H 334.615 -2.02919 0.318277 0
M  V30 3435 H 332.845 -3.40391 -1.83497 0
M  V30 3436 H 334.534 -3.73793 -1.58221 0
M  V30 3437 H 335.3 -4.80483 0.660364 0
M  V30 3438 H 331.179 -4.57771 -0.544633 0
M  V30 3439 H 334.723 -6.60279 2.25116 0
M  V30 3440 H 330.62 -6.37092 1.03848 0
M  V30 3441 H 331.388 -7.77057 2.57148 0
M  V30 3442 N 334.051 0.0651679 -1.57465 0
M  V30 3443 C 334.984 1.10876 -1.99453 0
M  V30 3444 C 335.962 1.37205 -0.872555 0
M  V30 3445 O 337.146 1.50468 -1.13542 0
M  V30 3446 C 334.273 2.45167 -2.3369 0
M  V30 3447 C 333.319 2.3493 -3.55964 0
M  V30 3448 S 334.152 1.73708 -5.06543 0
M  V30 3449 C 335.308 3.09563 -5.43987 0
M  V30 3450 H 335.541 0.750967 -2.87659 0
M  V30 3451 H 333.074 0.273933 -1.51951 0
M  V30 3452 H 335.032 3.22412 -2.54088 0
M  V30 3453 H 333.693 2.78105 -1.46001 0
M  V30 3454 H 332.886 3.3398 -3.77457 0
M  V30 3455 H 332.488 1.65823 -3.3523 0
M  V30 3456 H 334.78 4.05882 -5.42463 0
M  V30 3457 H 335.723 2.92843 -6.44708 0
M  V30 3458 H 336.131 3.10474 -4.71451 0
M  V30 3459 N 335.529 1.53961 0.336706 0
M  V30 3460 C 336.777 1.71197 1.07405 0
M  V30 3461 C 337.098 0.481475 1.88962 0
M  V30 3462 O 336.368 -0.504585 1.8929 0
M  V30 3463 H 334.948 0.631185 0.399517 0
M  V30 3464 H 337.61 1.91232 0.376323 0
M  V30 3465 H 336.706 2.58587 1.74755 0
M  V30 3466 N 337.007 -0.598083 1.45811 0
M  V30 3467 C 338.284 -1.35777 1.40797 0
M  V30 3468 C 338.664 -2.10935 0.083462 0
M  V30 3469 O 338.012 -2.08505 -0.934763 0
M  V30 3470 C 338.222 -2.29666 2.62783 0
M  V30 3471 C 339.57 -2.91977 3.08277 0
M  V30 3472 O 340.594 -2.39984 2.63223 0
M  V30 3473 O 339.453 -3.86376 3.86491 0
M  V30 3474 H 336.547 -0.609291 0.55919 0
M  V30 3475 H 339.093 -0.620379 1.57954 0
M  V30 3476 H 337.865 -1.73454 3.50756 0
M  V30 3477 H 337.488 -3.1077 2.48008 0
M  V30 3478 N 338.485 -1.33259 -0.841409 0
M  V30 3479 C 339.395 -1.25332 -1.98316 0
M  V30 3480 C 340.411 -0.164364 -1.73222 0
M  V30 3481 O 341.587 -0.387486 -1.97637 0
M  V30 3482 C 338.652 -0.990078 -3.32262 0
M  V30 3483 C 337.713 -2.16879 -3.70489 0
M  V30 3484 C 336.946 -1.91801 -4.98044 0
M  V30 3485 O 337.169 -0.867075 -5.63771 0
M  V30 3486 O 336.103 -2.78267 -5.33714 0
M  V30 3487 H 339.929 -2.21344 -2.07944 0
M  V30 3488 H 337.514 -1.1328 -0.974058 0
M  V30 3489 H 339.396 -0.860321 -4.12524 0
M  V30 3490 H 338.071 -0.0602155 -3.23644 0
M  V30 3491 H 336.978 -2.35407 -2.90748 0
M  V30 3492 H 338.311 -3.0819 -3.8377 0
M  V30 3493 N 339.963 1.05934 -1.16686 0
M  V30 3494 C 340.913 2.11764 -0.844978 0
M  V30 3495 C 341.897 1.59922 0.177178 0
M  V30 3496 O 343.089 1.76983 -0.0241768 0
M  V30 3497 C 340.218 3.41493 -0.351812 0
M  V30 3498 C 339.304 4.00152 -1.40496 0
M  V30 3499 N 339.695 4.32874 -2.61636 0
M  V30 3500 C 337.993 4.278 -1.26106 0
M  V30 3501 C 338.694 4.79552 -3.29249 0
M  V30 3502 N 337.67 4.79211 -2.56628 0
M  V30 3503 H 341.472 2.34916 -1.76612 0
M  V30 3504 H 338.986 1.23511 -1.05446 0
M  V30 3505 H 340.983 4.16773 -0.102796 0
M  V30 3506 H 339.643 3.19778 0.56322 0
M  V30 3507 H 340.654 4.23109 -2.98663 0
M  V30 3508 H 337.331 4.15511 -0.407081 0
M  V30 3509 H 338.721 5.14045 -4.32675 0
M  V30 3510 N 341.441 0.965919 1.2453 0
M  V30 3511 C 342.351 0.502154 2.29163 0
M  V30 3512 C 343.367 -0.436017 1.68448 0
M  V30 3513 O 344.543 -0.309497 1.99008 0
M  V30 3514 C 341.608 -0.201956 3.46111 0
M  V30 3515 C 340.669 0.775821 4.22232 0
M  V30 3516 C 339.902 0.105217 5.33596 0
M  V30 3517 O 340.125 -1.10683 5.59558 0
M  V30 3518 O 339.059 0.796475 5.96607 0
M  V30 3519 H 342.885 1.37194 2.70946 0
M  V30 3520 H 340.47 0.732875 1.30189 0
M  V30 3521 H 342.352 -0.597564 4.17142 0
M  V30 3522 H 341.027 -1.04673 3.06309 0
M  V30 3523 H 339.934 1.22185 3.53584 0
M  V30 3524 H 341.267 1.58896 4.65846 0
M  V30 3525 N 342.919 -1.39368 0.735821 0
M  V30 3526 C 343.882 -2.2896 0.104874 0
M  V30 3527 C 344.882 -1.46347 -0.666274 0
M  V30 3528 O 346.072 -1.67014 -0.49517 0
M  V30 3529 C 343.204 -3.29857 -0.860656 0
M  V30 3530 H 344.397 -2.86259 0.894205 0
M  V30 3531 H 341.95 -1.48029 0.501704 0
M  V30 3532 H 342.685 -2.77615 -1.67631 0
M  V30 3533 H 342.47 -3.9087 -0.310327 0
M  V30 3534 H 343.96 -3.96893 -1.29867 0
M  V30 3535 N 344.397 -0.483516 -1.5 0
M  V30 3536 C 345.36 0.292965 -2.2732 0
M  V30 3537 C 346.36 0.909499 -1.32608 0
M  V30 3538 O 347.55 0.776745 -1.55924 0
M  V30 3539 C 344.682 1.41854 -3.09984 0
M  V30 3540 H 345.875 -0.385289 -2.97415 0
M  V30 3541 H 343.428 -0.237942 -1.54478 0
M  V30 3542 H 344.163 2.13148 -2.44414 0
M  V30 3543 H 343.948 0.982114 -3.79601 0
M  V30 3544 H 345.438 1.96597 -3.68429 0
M  V30 3545 N 345.875 1.56104 -0.216619 0
M  V30 3546 C 346.822 2.2007 0.695531 0
M  V30 3547 C 347.792 1.15471 1.19397 0
M  V30 3548 O 348.977 1.43807 1.25396 0
M  V30 3549 C 346.117 2.88073 1.90021 0
M  V30 3550 C 345.23 4.07253 1.44113 0
M  V30 3551 C 344.365 4.63052 2.603 0
M  V30 3552 C 343.404 5.74545 2.11103 0
M  V30 3553 N 342.541 6.24656 3.20545 0
M  V30 3554 H 347.381 2.97655 0.143327 0
M  V30 3555 H 344.918 1.46982 0.0589934 0
M  V30 3556 H 346.876 3.25681 2.60745 0
M  V30 3557 H 345.506 2.13015 2.42538 0
M  V30 3558 H 344.558 3.75164 0.628999 0
M  V30 3559 H 345.87 4.8783 1.04036 0
M  V30 3560 H 345.024 5.03078 3.39113 0
M  V30 3561 H 343.763 3.81628 3.03663 0
M  V30 3562 H 342.768 5.34027 1.3075 0
M  V30 3563 H 343.993 6.57801 1.68746 0
M  V30 3564 H 341.939 5.46148 3.63399 0
M  V30 3565 H 341.856 7.00343 2.84704 0
M  V30 3566 H 343.124 6.69338 3.99508 0
M  V30 3567 N 347.353 -0.0568162 1.57498 0
M  V30 3568 C 348.599 -0.748893 1.89111 0
M  V30 3569 C 348.954 -1.74422 0.81208 0
M  V30 3570 O 348.247 -1.90731 -0.182247 0
M  V30 3571 C 348.441 -1.48359 3.25153 0
M  V30 3572 C 348.27 -0.560924 4.46188 0
M  V30 3573 C 347.04 -0.192264 5.04934 0
M  V30 3574 C 349.238 0.148824 5.14085 0
M  V30 3575 N 347.22 0.734555 6.0949 0
M  V30 3576 C 348.591 0.932286 6.12951 0
M  V30 3577 C 350.646 0.218713 4.97419 0
M  V30 3578 C 349.349 1.77917 6.96949 0
M  V30 3579 C 351.375 1.05262 5.81957 0
M  V30 3580 C 350.737 1.82409 6.80372 0
M  V30 3581 H 346.836 -0.249002 0.741298 0
M  V30 3582 H 349.42 -0.00984926 1.94698 0
M  V30 3583 H 347.591 -2.19326 3.20547 0
M  V30 3584 H 349.323 -2.12586 3.44368 0
M  V30 3585 H 346.078 -0.548421 4.70414 0
M  V30 3586 H 346.502 1.19165 6.6643 0
M  V30 3587 H 351.144 -0.363407 4.21235 0
M  V30 3588 H 348.862 2.3722 7.72497 0
M  V30 3589 H 352.448 1.10987 5.71116 0
M  V30 3590 H 351.328 2.45895 7.44651 0
M  V30 3591 N 348.832 -1.54138 -0.328536 0
M  V30 3592 C 350.057 -1.76378 -1.09112 0
M  V30 3593 C 350.482 -0.508596 -1.81094 0
M  V30 3594 O 349.84 0.539598 -1.73084 0
M  V30 3595 C 349.888 -2.95358 -2.06872 0
M  V30 3596 O 348.992 -2.66556 -3.14677 0
M  V30 3597 H 348.333 -0.584614 -0.314838 0
M  V30 3598 H 350.863 -2.01146 -0.374348 0
M  V30 3599 H 350.873 -3.22566 -2.4983 0
M  V30 3600 H 349.548 -3.86385 -1.5388 0
M  V30 3601 H 348.125 -2.50282 -2.7643 0
M  V30 3602 N 350.31 0.590341 -1.46126 0
M  V30 3603 C 351.726 0.912917 -1.30912 0
M  V30 3604 C 351.926 1.99616 -0.274893 0
M  V30 3605 O 350.982 2.50397 0.325197 0
M  V30 3606 C 352.295 1.3375 -2.69317 0
M  V30 3607 C 353.843 1.45077 -2.77348 0
M  V30 3608 C 354.318 1.90904 -4.16317 0
M  V30 3609 N 355.809 1.9811 -4.18696 0
M  V30 3610 C 356.544 2.34828 -5.23109 0
M  V30 3611 N 356.04 2.70393 -6.37856 0
M  V30 3612 N 357.833 2.35317 -5.10473 0
M  V30 3613 H 349.984 -0.125358 -2.1203 0
M  V30 3614 H 352.247 0.00658481 -0.947977 0
M  V30 3615 H 351.953 0.615614 -3.4627 0
M  V30 3616 H 351.827 2.30058 -2.9892 0
M  V30 3617 H 354.214 2.16353 -2.00687 0
M  V30 3618 H 354.295 0.4704 -2.51438 0
M  V30 3619 H 353.939 1.20209 -4.9347 0
M  V30 3620 H 353.869 2.89886 -4.39629 0
M  V30 3621 H 356.36 1.73146 -3.359 0
M  V30 3622 H 356.673 2.97341 -7.13308 0
M  V30 3623 H 355.018 2.68048 -6.41229 0
M  V30 3624 H 358.209 2.0695 -4.19868 0
M  V30 3625 H 358.382 2.63605 -5.9196 0
M  V30 3626 N 351.788 1.33704 0.83433 0
M  V30 3627 C 353.016 1.28467 1.62185 0
M  V30 3628 C 353.431 -0.143526 1.88254 0
M  V30 3629 O 352.788 -1.08709 1.4659 0
M  V30 3630 C 352.839 2.06174 2.96942 0
M  V30 3631 O 352.56 3.43422 2.72016 0
M  V30 3632 C 354.061 2.08201 3.91366 0
M  V30 3633 H 351.281 0.4424 0.504503 0
M  V30 3634 H 353.825 1.76145 1.03891 0
M  V30 3635 H 351.98 1.62167 3.51825 0
M  V30 3636 H 352.394 3.83453 3.57861 0
M  V30 3637 H 353.868 2.67017 4.83121 0
M  V30 3638 H 354.345 1.07343 4.2588 0
M  V30 3639 H 354.951 2.52246 3.42421 0
M  V30 3640 N 353.266 -1.05314 1.17247 0
M  V30 3641 C 354.491 -1.82509 0.985148 0
M  V30 3642 C 354.916 -1.82343 -0.461788 0
M  V30 3643 O 354.274 -1.23151 -1.33055 0
M  V30 3644 C 354.322 -3.26566 1.52929 0
M  V30 3645 O 353.426 -4.05666 0.742225 0
M  V30 3646 H 352.767 -0.564347 0.349869 0
M  V30 3647 H 355.297 -1.32718 1.55715 0
M  V30 3648 H 355.307 -3.77369 1.55103 0
M  V30 3649 H 353.982 -3.26001 2.58256 0
M  V30 3650 H 352.559 -3.64397 0.791794 0
M  V30 3651 N 354.744 -0.972509 -1.24016 0
M  V30 3652 C 355.654 -0.5143 -2.28893 0
M  V30 3653 C 356.67 0.427078 -1.68677 0
M  V30 3654 O 357.846 0.298939 -1.99169 0
M  V30 3655 C 354.911 0.183598 -3.46214 0
M  V30 3656 C 353.972 -0.798202 -4.21814 0
M  V30 3657 C 353.205 -0.133514 -5.33533 0
M  V30 3658 O 353.428 1.07714 -5.60137 0
M  V30 3659 O 352.362 -0.828103 -5.96176 0
M  V30 3660 H 356.188 -1.38629 -2.70214 0
M  V30 3661 H 353.773 -0.739769 -1.29799 0
M  V30 3662 H 355.655 0.575433 -4.17453 0
M  V30 3663 H 354.33 1.03048 -3.0686 0
M  V30 3664 H 353.237 -1.24059 -3.52931 0
M  V30 3665 H 354.57 -1.61364 -4.64997 0
M  V30 3666 N 356.222 1.38976 -0.743202 0
M  V30 3667 C 357.468 2.0064 -0.295189 0
M  V30 3668 C 357.801 1.5885 1.11716 0
M  V30 3669 O 357.076 0.821181 1.76315 0
M  V30 3670 C 357.359 3.578 -0.406318 0
M  V30 3671 C 357.212 4.09586 -1.85903 0
M  V30 3672 C 358.531 4.39616 0.206439 0
M  V30 3673 H 355.65 0.728935 -0.108733 0
M  V30 3674 H 358.292 1.65067 -0.940897 0
M  V30 3675 H 356.442 3.88235 0.143419 0
M  V30 3676 H 358.114 3.89837 -2.46627 0
M  V30 3677 H 356.357 3.6284 -2.3776 0
M  V30 3678 H 357.028 5.18708 -1.888 0
M  V30 3679 H 359.504 4.15273 -0.262283 0
M  V30 3680 H 358.38 5.48812 0.0983819 0
M  V30 3681 H 358.641 4.22754 1.2935 0
M  V30 3682 N 357.7 0.491464 1.49741 0
M  V30 3683 C 358.946 -0.0565092 2.02721 0
M  V30 3684 C 359.279 -1.37522 1.37118 0
M  V30 3685 O 358.554 -1.87866 0.503645 0
M  V30 3686 C 358.837 -0.219051 3.59433 0
M  V30 3687 C 358.69 1.12211 4.35579 0
M  V30 3688 C 360.009 -0.964157 4.29409 0
M  V30 3689 H 357.128 -0.0190627 0.736753 0
M  V30 3690 H 359.77 0.641021 1.7886 0
M  V30 3691 H 357.92 -0.813165 3.79895 0
M  V30 3692 H 359.592 1.75437 4.26637 0
M  V30 3693 H 357.835 1.71377 3.98513 0
M  V30 3694 H 358.506 0.961794 5.43556 0
M  V30 3695 H 360.982 -0.460378 4.13545 0
M  V30 3696 H 359.858 -1.04671 5.38828 0
M  V30 3697 H 360.119 -2.00563 3.93988 0
M  V30 3698 N 359.178 -1.55987 0.224894 0
M  V30 3699 C 360.088 -2.24066 -0.69511 0
M  V30 3700 C 361.104 -1.24939 -1.21104 0
M  V30 3701 O 362.28 -1.5776 -1.25195 0
M  V30 3702 C 359.345 -2.90983 -1.88493 0
M  V30 3703 C 358.406 -4.05462 -1.41064 0
M  V30 3704 C 357.639 -4.69179 -2.54375 0
M  V30 3705 O 357.862 -4.31895 -3.72589 0
M  V30 3706 O 356.796 -5.58108 -2.25386 0
M  V30 3707 H 360.622 -3.03353 -0.145149 0
M  V30 3708 H 358.207 -1.49399 -0.00569476 0
M  V30 3709 H 360.089 -3.33209 -2.57972 0
M  V30 3710 H 358.764 -2.14653 -2.42293 0
M  V30 3711 H 357.671 -3.67798 -0.683774 0
M  V30 3712 H 359.004 -4.83545 -0.918985 0
M  V30 3713 N 360.656 0.0484629 -1.57525 0
M  V30 3714 C 361.903 0.743125 -1.88372 0
M  V30 3715 C 362.231 1.76383 -0.819715 0
M  V30 3716 O 361.486 1.94855 0.181659 0
M  V30 3717 C 361.785 1.46632 -3.25935 0
M  V30 3718 C 361.451 0.583427 -4.4711 0
M  V30 3719 C 360.113 0.340191 -4.79996 0
M  V30 3720 C 362.465 -0.0273345 -5.21193 0
M  V30 3721 C 359.793 -0.522903 -5.84365 0
M  V30 3722 C 362.145 -0.878017 -6.26477 0
M  V30 3723 C 360.809 -1.1309 -6.5785 0
M  V30 3724 H 360.079 0.271929 -0.689301 0
M  V30 3725 H 362.726 0.00336166 -1.915 0
M  V30 3726 H 361.031 2.2789 -3.18706 0
M  V30 3727 H 362.728 2.00902 -3.47044 0
M  V30 3728 H 359.318 0.783151 -4.21384 0
M  V30 3729 H 363.502 0.147654 -4.9608 0
M  V30 3730 H 358.758 -0.727335 -6.07058 0
M  V30 3731 H 362.932 -1.35789 -6.83033 0
M  V30 3732 H 360.559 -1.80144 -7.38547 0
M  V30 3733 N 362.134 1.5431 0.320358 0
M  V30 3734 C 363.097 1.83195 1.3774 0
M  V30 3735 C 364.097 0.703906 1.44575 0
M  V30 3736 O 365.287 0.972214 1.44546 0
M  V30 3737 C 362.419 1.99487 2.76438 0
M  V30 3738 H 363.612 2.77642 1.1338 0
M  V30 3739 H 361.165 1.46076 0.556012 0
M  V30 3740 H 361.9 1.07262 3.06048 0
M  V30 3741 H 361.685 2.81575 2.7287 0
M  V30 3742 H 363.175 2.23271 3.52902 0
M  V30 3743 N 363.613 -0.582584 1.46437 0
M  V30 3744 C 365.029 -0.905962 1.31394 0
M  V30 3745 C 365.229 -1.99468 0.285476 0
M  V30 3746 O 364.285 -2.50566 -0.311914 0
M  V30 3747 C 365.598 -1.3232 2.70022 0
M  V30 3748 C 367.146 -1.43604 2.78113 0
M  V30 3749 C 367.621 -1.88694 4.17323 0
M  V30 3750 N 369.112 -1.95887 4.19741 0
M  V30 3751 C 369.847 -2.32051 5.24347 0
M  V30 3752 N 369.343 -2.67006 6.39281 0
M  V30 3753 N 371.136 -2.32606 5.11713 0
M  V30 3754 H 363.287 0.1366 2.1196 0
M  V30 3755 H 365.55 -0.00155736 0.947999 0
M  V30 3756 H 365.256 -0.597242 3.46592 0
M  V30 3757 H 365.13 -2.28469 3.00136 0
M  V30 3758 H 367.517 -2.15286 2.01832 0
M  V30 3759 H 367.598 -0.457059 2.51684 0
M  V30 3760 H 367.242 -1.1759 4.941 0
M  V30 3761 H 367.172 -2.8755 4.4116 0
M  V30 3762 H 369.663 -1.71362 3.36814 0
M  V30 3763 H 369.976 -2.93554 7.14875 0
M  V30 3764 H 368.321 -2.64644 6.42642 0
M  V30 3765 H 371.512 -2.04721 4.2096 0
M  V30 3766 H 371.685 -2.60462 5.93349 0
M  V30 3767 N 365.091 -1.34144 -0.827227 0
M  V30 3768 C 366.368 -1.16844 -1.56865 0
M  V30 3769 C 366.748 0.260654 -2.09485 0
M  V30 3770 O 366.096 1.26138 -1.9053 0
M  V30 3771 C 366.306 -2.21939 -2.6934 0
M  V30 3772 C 367.654 -2.56695 -3.3822 0
M  V30 3773 O 368.678 -2.20695 -2.79593 0
M  V30 3774 O 367.537 -3.18518 -4.44082 0
M  V30 3775 H 364.631 -0.452669 -0.692112 0
M  V30 3776 H 367.177 -1.45763 -0.868973 0
M  V30 3777 H 365.949 -3.17882 -2.28182 0
M  V30 3778 H 365.572 -1.94172 -3.46962 0
M  V30 3779 N 366.569 1.04691 -1.17803 0
M  V30 3780 C 367.499 2.14494 -0.92275 0
M  V30 3781 C 368.48 1.69546 0.137179 0
M  V30 3782 O 369.665 1.94195 -0.0141108 0
M  V30 3783 C 366.795 3.44491 -0.440803 0
M  V30 3784 C 365.749 4.03031 -1.4405 0
M  V30 3785 C 365.075 5.28432 -0.81631 0
M  V30 3786 C 366.375 4.39932 -2.81527 0
M  V30 3787 H 368.069 2.36107 -1.84103 0
M  V30 3788 H 365.615 1.1347 -0.886599 0
M  V30 3789 H 367.568 4.2066 -0.249602 0
M  V30 3790 H 366.292 3.22546 0.513025 0
M  V30 3791 H 364.951 3.28937 -1.61853 0
M  V30 3792 H 364.599 5.02792 0.144511 0
M  V30 3793 H 364.299 5.68559 -1.48371 0
M  V30 3794 H 365.823 6.07284 -0.635496 0
M  V30 3795 H 367.237 5.07113 -2.67412 0
M  V30 3796 H 365.634 4.9109 -3.44892 0
M  V30 3797 H 366.704 3.50045 -3.35554 0
M  V30 3798 N 368.047 0.979072 1.23499 0
M  V30 3799 C 368.995 0.510604 2.26926 0
M  V30 3800 C 369.989 -0.431691 1.63807 0
M  V30 3801 O 371.195 -0.30573 1.77385 0
M  V30 3802 H 367.57 0.146688 0.737554 0
M  V30 3803 H 369.541 1.39466 2.63803 0
M  V30 3804 C 368.29 -0.172658 3.47271 0
M  V30 3805 H 367.613 0.543331 3.96091 0
M  V30 3806 H 369.053 -0.464101 4.21452 0
M  V30 3807 C 367.512 -1.40345 3.06276 0
M  V30 3808 O 368.042 -2.49978 3.14442 0
M  V30 3809 N 366.248 -1.27362 2.61203 0
M  V30 3810 H 365.795 -0.381584 2.54758 0
M  V30 3811 H 365.753 -2.09822 2.34141 0
M  V30 3812 N 369.525 -1.3858 0.750561 0
M  V30 3813 C 370.475 -2.27795 0.0965949 0
M  V30 3814 C 371.459 -1.45048 -0.696411 0
M  V30 3815 O 372.651 -1.67812 -0.562863 0
M  V30 3816 C 369.78 -3.33894 -0.798085 0
M  V30 3817 C 368.866 -4.241 0.0016067 0
M  V30 3818 N 369.257 -4.95067 1.03647 0
M  V30 3819 C 367.555 -4.45429 -0.225674 0
M  V30 3820 C 368.256 -5.61489 1.52004 0
M  V30 3821 N 367.232 -5.37135 0.835874 0
M  V30 3822 H 371.034 -2.80125 0.889228 0
M  V30 3823 H 368.548 -1.51446 0.586323 0
M  V30 3824 H 370.545 -3.96693 -1.28219 0
M  V30 3825 H 369.205 -2.83123 -1.5897 0
M  V30 3826 H 370.216 -4.98104 1.41819 0
M  V30 3827 H 366.893 -4.05571 -0.990872 0
M  V30 3828 H 368.283 -6.28264 2.38188 0
M  V30 3829 N 371.003 -0.499398 -1.49478 0
M  V30 3830 C 372.414 -0.051215 -1.8663 0
M  V30 3831 C 372.765 1.36238 -1.41186 0
M  V30 3832 O 371.89 2.01502 -0.789051 0
M  V30 3833 C 372.485 -0.0861651 -3.3869 0
M  V30 3834 C 371.044 0.30667 -3.75149 0
M  V30 3835 C 370.191 -0.459397 -2.73468 0
M  V30 3836 H 373.142 -0.712264 -1.41818 0
M  V30 3837 H 373.163 0.709507 -3.73826 0
M  V30 3838 H 372.675 -1.11512 -3.71735 0
M  V30 3839 H 370.776 1.33892 -3.47712 0
M  V30 3840 H 370.889 -0.0116669 -4.79099 0
M  V30 3841 H 369.253 0.0905645 -2.54539 0
M  V30 3842 H 370.036 -1.4884 -3.09357 0
M  V30 3843 N 372.481 1.55866 -0.233164 0
M  V30 3844 C 373.411 2.23783 0.666599 0
M  V30 3845 C 374.392 1.21343 1.19205 0
M  V30 3846 O 375.577 1.4996 1.23392 0
M  V30 3847 C 372.707 2.92671 1.86978 0
M  V30 3848 C 371.661 4.01682 1.47768 0
M  V30 3849 C 370.987 4.57926 2.76058 0
M  V30 3850 C 372.287 5.18126 0.658993 0
M  V30 3851 H 373.981 2.99232 0.100306 0
M  V30 3852 H 371.527 1.43924 0.046804 0
M  V30 3853 H 373.48 3.3888 2.50476 0
M  V30 3854 H 372.204 2.14688 2.46123 0
M  V30 3855 H 370.863 3.56222 0.866106 0
M  V30 3856 H 370.511 3.76659 3.33372 0
M  V30 3857 H 370.211 5.31505 2.50552 0
M  V30 3858 H 371.735 5.06859 3.40479 0
M  V30 3859 H 373.149 5.60644 1.19795 0
M  V30 3860 H 371.546 5.98009 0.500552 0
M  V30 3861 H 372.616 4.83763 -0.331856 0
M  V30 3862 N 373.959 -0.0401083 1.57549 0
M  V30 3863 C 374.907 -1.06264 2.06908 0
M  V30 3864 C 375.901 -1.38132 0.980608 0
M  V30 3865 O 377.107 -1.37167 1.16556 0
M  V30 3866 H 373.482 -0.360166 0.660139 0
M  V30 3867 H 375.453 -0.620445 2.91878 0
M  V30 3868 C 374.202 -2.35846 2.55483 0
M  V30 3869 H 373.525 -2.12183 3.38849 0
M  V30 3870 H 374.965 -3.05765 2.93741 0
M  V30 3871 C 373.424 -3.0404 1.45126 0
M  V30 3872 O 373.954 -3.93424 0.811216 0
M  V30 3873 N 372.16 -2.65184 1.18852 0
M  V30 3874 H 371.707 -1.92584 1.71083 0
M  V30 3875 H 371.665 -3.1113 0.452244 0
M  V30 3876 N 375.437 -1.54477 -0.31217 0
M  V30 3877 C 376.677 -1.74958 -1.05684 0
M  V30 3878 C 377.041 -0.518414 -1.84869 0
M  V30 3879 O 378.242 -0.600759 -2.62001 0
M  V30 3880 C 376.513 -2.99656 -1.94785 0
M  V30 3881 S 378.072 -3.4109 -2.76049 0
M  V30 3882 H 374.89 -0.615104 -0.356606 0
M  V30 3883 H 377.492 -1.92669 -0.331514 0
M  V30 3884 H 376.196 -3.87397 -1.35468 0
M  V30 3885 H 375.727 -2.845 -2.71704 0
M  V30 3886 H 377.742 -2.97283 -3.97287 0
M  V30 3887 N 376.915 0.57481 -1.46744 0
M  V30 3888 C 378.162 1.33272 -1.52462 0
M  V30 3889 C 378.49 1.93669 -0.179572 0
M  V30 3890 O 377.745 1.7743 0.825664 0
M  V30 3891 C 378.044 2.476 -2.57738 0
M  V30 3892 C 377.71 2.05146 -4.01529 0
M  V30 3893 C 376.372 1.93284 -4.40676 0
M  V30 3894 C 378.724 1.72506 -4.91824 0
M  V30 3895 C 376.052 1.47049 -5.67973 0
M  V30 3896 C 378.404 1.27748 -6.19567 0
M  V30 3897 C 377.068 1.14468 -6.57612 0
M  V30 3898 H 376.338 0.487678 -0.557899 0
M  V30 3899 H 378.985 0.646456 -1.80259 0
M  V30 3900 H 377.29 3.21708 -2.23632 0
M  V30 3901 H 378.987 3.05807 -2.5939 0
M  V30 3902 H 375.577 2.15316 -3.7059 0
M  V30 3903 H 379.761 1.80552 -4.62293 0
M  V30 3904 H 375.017 1.35417 -5.96215 0
M  V30 3905 H 379.191 1.01547 -6.88957 0
M  V30 3906 H 376.818 0.78419 -7.56145 0
M  V30 3907 N 378.394 1.34581 0.820102 0
M  V30 3908 C 379.327 1.20735 1.93644 0
M  V30 3909 C 380.305 0.0983343 1.62302 0
M  V30 3910 O 381.489 0.263997 1.86642 0
M  V30 3911 C 378.616 0.856037 3.27704 0
M  V30 3912 C 377.662 1.97521 3.78005 0
M  V30 3913 S 378.495 3.58906 3.97425 0
M  V30 3914 C 379.651 3.25822 5.34407 0
M  V30 3915 H 379.884 2.15231 2.05093 0
M  V30 3916 H 377.417 1.1964 0.97599 0
M  V30 3917 H 379.375 0.660133 4.05157 0
M  V30 3918 H 378.036 -0.0706253 3.14021 0
M  V30 3919 H 377.229 1.68321 4.75062 0
M  V30 3920 H 376.831 2.12875 3.07507 0
M  V30 3921 H 379.123 2.77812 6.17922 0
M  V30 3922 H 380.066 4.22029 5.68592 0
M  V30 3923 H 380.474 2.61932 5.00052 0
M  V30 3924 N 379.872 -1.04064 1.18357 0
M  V30 3925 C 381.112 -1.78829 0.989921 0
M  V30 3926 C 381.476 -1.86106 -0.472095 0
M  V30 3927 O 382.677 -2.57076 -0.785187 0
M  V30 3928 C 380.948 -3.1823 1.6268 0
M  V30 3929 S 382.507 -4.09332 1.58091 0
M  V30 3930 H 379.325 -0.615754 0.355482 0
M  V30 3931 H 381.927 -1.24778 1.50501 0
M  V30 3932 H 380.631 -3.10543 2.68311 0
M  V30 3933 H 380.162 -3.77357 1.112 0
M  V30 3934 H 382.177 -4.92598 0.596817 0
M  V30 3935 N 381.35 -0.985608 -1.22978 0
M  V30 3936 C 382.3 -0.50118 -2.22423 0
M  V30 3937 C 383.284 0.426649 -1.5514 0
M  V30 3938 O 384.476 0.254656 -1.75159 0
M  V30 3939 C 381.605 0.190003 -3.42774 0
M  V30 3940 C 380.691 -0.757703 -4.17276 0
M  V30 3941 N 381.082 -1.90251 -4.68656 0
M  V30 3942 C 379.38 -0.57209 -4.42316 0
M  V30 3943 C 380.081 -2.49676 -5.25392 0
M  V30 3944 N 379.057 -1.78013 -5.13627 0
M  V30 3945 H 382.859 -1.37441 -2.59783 0
M  V30 3946 H 380.373 -0.846941 -1.38567 0
M  V30 3947 H 382.37 0.55439 -4.13197 0
M  V30 3948 H 381.03 1.05946 -3.06929 0
M  V30 3949 H 382.041 -2.28354 -4.64839 0
M  V30 3950 H 378.718 0.251909 -4.16739 0
M  V30 3951 H 380.108 -3.46384 -5.75732 0
M  V30 3952 N 382.828 1.3818 -0.7579 0
M  V30 3953 C 384.105 1.94106 -0.241306 0
M  V30 3954 C 384.485 1.69282 1.26122 0
M  V30 3955 O 383.833 1.03378 2.03777 0
M  V30 3956 C 384.043 3.43809 -0.59967 0
M  V30 3957 C 385.391 4.20868 -0.561717 0
M  V30 3958 O 386.415 3.5211 -0.538222 0
M  V30 3959 O 385.274 5.43451 -0.576478 0
M  V30 3960 H 382.368 0.825376 -0.0518042 0
M  V30 3961 H 384.914 1.47548 -0.838315 0
M  V30 3962 H 383.686 3.55403 -1.6372 0
M  V30 3963 H 383.309 3.97592 0.0251197 0
M  V30 3964 N 384.306 0.507319 1.49211 0
M  V30 3965 C 385.717 0.0611118 1.866 0
M  V30 3966 C 386.068 -1.35488 1.41907 0
M  V30 3967 O 385.193 -2.0108 0.799726 0
M  V30 3968 C 385.788 0.104125 3.3864 0
M  V30 3969 C 384.347 -0.28677 3.75306 0
M  V30 3970 C 383.494 0.473893 2.73221 0
M  V30 3971 H 386.445 0.719775 1.41439 0
M  V30 3972 H 386.466 -0.689672 3.74198 0
M  V30 3973 H 385.978 1.13482 3.71138 0
M  V30 3974 H 384.079 -1.32046 3.48417 0
M  V30 3975 H 384.192 0.0370745 4.79086 0
M  V30 3976 H 382.556 -0.0770644 2.54583 0
M  V30 3977 H 383.339 1.50478 3.08563 0
M  V30 3978 N 385.784 -1.5574 0.241426 0
M  V30 3979 C 386.734 -2.17803 -0.674233 0
M  V30 3980 C 387.718 -1.13225 -1.14319 0
M  V30 3981 O 388.91 -1.39153 -1.09387 0
M  V30 3982 C 386.039 -2.87682 -1.87333 0
M  V30 3983 C 385.125 -3.99509 -1.42313 0
M  V30 3984 N 385.516 -5.01115 -0.686798 0
M  V30 3985 C 383.814 -4.11964 -1.70885 0
M  V30 3986 C 384.515 -5.79922 -0.454456 0
M  V30 3987 N 383.491 -5.34001 -1.01705 0
M  V30 3988 H 387.293 -2.93718 -0.103447 0
M  V30 3989 H 384.807 -1.62342 0.0435095 0
M  V30 3990 H 386.804 -3.3057 -2.54026 0
M  V30 3991 H 385.464 -2.13269 -2.4484 0
M  V30 3992 H 386.475 -5.16799 -0.337459 0
M  V30 3993 H 383.152 -3.48718 -2.2957 0
M  V30 3994 H 384.542 -6.71768 0.132992 0
M  V30 3995 N 387.262 0.0317525 -1.57568 0
M  V30 3996 C 388.487 0.738664 -1.938 0
M  V30 3997 C 388.912 1.68242 -0.841208 0
M  V30 3998 O 388.27 1.80157 0.203267 0
M  V30 3999 C 388.318 1.47417 -3.29091 0
M  V30 4000 O 387.422 2.5872 -3.2115 0
M  V30 4001 H 386.763 0.198856 -0.633524 0
M  V30 4002 H 389.293 -0.0119713 -2.04596 0
M  V30 4003 H 389.303 1.84468 -3.63917 0
M  V30 4004 H 387.978 0.781988 -4.08482 0
M  V30 4005 H 386.555 2.24231 -2.97951 0
M  V30 4006 N 388.74 1.54641 0.303973 0
M  V30 4007 C 389.703 1.84646 1.35789 0
M  V30 4008 C 390.703 0.7192 1.4382 0
M  V30 4009 O 391.893 0.987491 1.43507 0
M  V30 4010 C 389.025 2.02407 2.74307 0
M  V30 4011 H 390.218 2.78829 1.10429 0
M  V30 4012 H 387.771 1.46658 0.540487 0
M  V30 4013 H 388.506 1.10502 3.04893 0
M  V30 4014 H 388.291 2.84453 2.69868 0
M  V30 4015 H 389.781 2.27002 3.50514 0
M  V30 4016 N 390.218 -0.567019 1.47046 0
M  V30 4017 C 391.466 -1.322 1.52864 0
M  V30 4018 C 391.787 -1.94088 0.188388 0
M  V30 4019 O 391.057 -1.7941 -0.786693 0
M  V30 4020 H 389.637 -0.490894 0.563056 0
M  V30 4021 H 392.299 -0.662879 1.83281 0
M  V30 4022 H 391.395 -2.12062 2.2899 0
M  V30 4023 N 391.696 -1.35014 -0.812953 0
M  V30 4024 C 393.107 -1.25035 -1.38648 0
M  V30 4025 C 393.458 0.119967 -1.95833 0
M  V30 4026 O 392.583 1.02069 -1.90816 0
M  V30 4027 C 393.178 -2.26394 -2.52054 0
M  V30 4028 C 391.737 -2.20175 -3.05287 0
M  V30 4029 C 390.884 -2.12451 -1.78213 0
M  V30 4030 H 393.835 -1.46235 -0.616516 0
M  V30 4031 H 393.856 -1.88672 -3.30429 0
M  V30 4032 H 393.368 -3.26116 -2.10404 0
M  V30 4033 H 391.469 -1.23841 -3.51417 0
M  V30 4034 H 391.582 -3.11863 -3.63701 0
M  V30 4035 H 389.946 -1.58328 -1.9951 0
M  V30 4036 H 390.729 -3.14024 -1.38723 0
M  V30 4037 N 393.175 1.03435 -1.18907 0
M  V30 4038 C 394.591 1.28973 -0.940111 0
M  V30 4039 C 394.791 1.97676 0.390691 0
M  V30 4040 O 393.847 2.26127 1.12352 0
M  V30 4041 C 395.16 2.14221 -2.11021 0
M  V30 4042 C 396.708 2.27547 -2.14922 0
M  V30 4043 C 397.183 3.16164 -3.31367 0
M  V30 4044 N 398.674 3.23752 -3.31269 0
M  V30 4045 C 399.409 3.92495 -4.18014 0
M  V30 4046 N 398.905 4.63515 -5.14904 0
M  V30 4047 N 400.698 3.88838 -4.05908 0
M  V30 4048 H 392.849 0.57252 -2.04538 0
M  V30 4049 H 395.112 0.315184 -0.894071 0
M  V30 4050 H 394.818 1.71054 -3.073 0
M  V30 4051 H 394.692 3.14919 -2.0762 0
M  V30 4052 H 397.079 2.69947 -1.19217 0
M  V30 4053 H 397.16 1.26418 -2.22378 0
M  V30 4054 H 396.804 2.74474 -4.27348 0
M  V30 4055 H 396.734 4.17339 -3.21148 0
M  V30 4056 H 399.225 2.73167 -2.61129 0
M  V30 4057 H 399.538 5.13583 -5.77453 0
M  V30 4058 H 397.883 4.62398 -5.18857 0
M  V30 4059 H 401.074 3.32491 -3.29495 0
M  V30 4060 H 401.247 4.4214 -4.73726 0
M  V30 4061 N 394.653 0.992116 1.22453 0
M  V30 4062 C 395.899 0.668523 1.91464 0
M  V30 4063 C 396.232 -0.797313 1.77078 0
M  V30 4064 O 395.507 -1.5765 1.13916 0
M  V30 4065 C 395.79 1.07424 3.43703 0
M  V30 4066 C 395.643 2.59857 3.67143 0
M  V30 4067 C 396.962 0.626891 4.35612 0
M  V30 4068 H 394.081 0.244341 0.695318 0
M  V30 4069 H 396.723 1.2355 1.44345 0
M  V30 4070 H 394.873 0.591816 3.83966 0
M  V30 4071 H 396.545 3.15764 3.3629 0
M  V30 4072 H 394.788 3.01961 3.11451 0
M  V30 4073 H 395.459 2.83296 4.73759 0
M  V30 4074 H 397.935 1.04125 4.02861 0
M  V30 4075 H 396.811 0.939076 5.40807 0
M  V30 4076 H 397.072 -0.472457 4.39568 0
M  V30 4077 N 396.131 -1.37776 0.765217 0
M  V30 4078 C 397.377 -2.00145 0.327072 0
M  V30 4079 C 397.71 -1.60607 -1.09175 0
M  V30 4080 O 396.985 -0.849127 -1.74986 0
M  V30 4081 C 397.268 -3.57109 0.46319 0
M  V30 4082 C 397.121 -4.06576 1.92395 0
M  V30 4083 C 398.44 -4.39888 -0.136473 0
M  V30 4084 H 395.559 -0.727113 0.120316 0
M  V30 4085 H 398.201 -1.63549 0.967039 0
M  V30 4086 H 396.351 -3.88414 -0.0816358 0
M  V30 4087 H 398.023 -3.85864 2.52798 0
M  V30 4088 H 396.266 -3.59011 2.43503 0
M  V30 4089 H 396.937 -5.15639 1.97028 0
M  V30 4090 H 399.413 -4.14803 0.328317 0
M  V30 4091 H 398.289 -5.48899 -0.0110582 0
M  V30 4092 H 398.55 -4.24758 -1.22608 0
M  V30 4093 N 397.609 -0.515225 -1.4894 0
M  V30 4094 C 399.025 -0.172099 -1.58669 0
M  V30 4095 C 399.225 1.32405 -1.51892 0
M  V30 4096 O 398.281 2.10116 -1.40027 0
M  V30 4097 C 399.594 -0.761533 -2.90897 0
M  V30 4098 C 401.142 -0.728926 -3.04394 0
M  V30 4099 C 401.617 -1.29667 -4.39261 0
M  V30 4100 N 403.108 -1.25799 -4.4579 0
M  V30 4101 C 403.843 -1.66733 -5.48623 0
M  V30 4102 N 403.339 -2.15327 -6.58488 0
M  V30 4103 N 405.132 -1.58061 -5.39419 0
M  V30 4104 H 397.283 -1.48778 -1.51588 0
M  V30 4105 H 399.546 -0.617968 -0.718901 0
M  V30 4106 H 399.252 -1.81136 -3.01468 0
M  V30 4107 H 399.126 -0.230106 -3.76497 0
M  V30 4108 H 401.513 0.312098 -2.93445 0
M  V30 4109 H 401.594 -1.29766 -2.20442 0
M  V30 4110 H 401.238 -2.33655 -4.50963 0
M  V30 4111 H 401.168 -0.703752 -5.21876 0
M  V30 4112 H 403.659 -0.902102 -3.66975 0
M  V30 4113 H 403.972 -2.44594 -7.33071 0
M  V30 4114 H 402.317 -2.19311 -6.59491 0
M  V30 4115 H 405.508 -1.19906 -4.52482 0
M  V30 4116 H 405.681 -1.90284 -6.19432 0
M  V30 4117 N 399.087 1.5561 -0.249682 0
M  V30 4118 C 400.364 1.90932 0.424761 0
M  V30 4119 C 400.744 1.17078 1.75658 0
M  V30 4120 O 400.092 0.289176 2.26663 0
M  V30 4121 C 400.302 3.43975 0.590109 0
M  V30 4122 C 401.65 4.15281 0.884714 0
M  V30 4123 O 402.674 3.49729 0.67587 0
M  V30 4124 O 401.533 5.31236 1.28259 0
M  V30 4125 H 398.627 0.794815 0.228468 0
M  V30 4126 H 401.173 1.67135 -0.293954 0
M  V30 4127 H 399.945 3.89748 -0.34818 0
M  V30 4128 H 399.568 3.73644 1.35926 0
M  V30 4129 N 400.565 -0.0233959 1.57583 0
M  V30 4130 C 401.813 -0.711654 1.89156 0
M  V30 4131 C 402.134 -1.75591 0.848096 0
M  V30 4132 O 401.404 -1.95547 -0.117566 0
M  V30 4133 H 399.984 -0.265835 0.698098 0
M  V30 4134 H 402.646 0.0119948 1.94896 0
M  V30 4135 H 401.742 -1.19766 2.88206 0
M  V30 4136 N 402.043 -1.548 -0.295768 0
M  V30 4137 C 402.973 -1.89115 -1.36959 0
M  V30 4138 C 403.954 -0.75059 -1.52644 0
M  V30 4139 O 405.139 -1.00678 -1.66065 0
M  V30 4140 C 402.269 -2.14307 -2.73295 0
M  V30 4141 C 401.223 -3.30151 -2.72368 0
M  V30 4142 C 400.549 -3.40772 -4.12042 0
M  V30 4143 C 401.849 -4.67126 -2.33646 0
M  V30 4144 H 403.543 -2.79053 -1.08488 0
M  V30 4145 H 401.089 -1.34266 -0.520443 0
M  V30 4146 H 403.042 -2.36898 -3.48507 0
M  V30 4147 H 401.766 -1.21145 -3.03301 0
M  V30 4148 H 400.425 -3.0749 -1.99613 0
M  V30 4149 H 400.073 -2.45117 -4.39234 0
M  V30 4150 H 399.773 -4.18645 -4.12322 0
M  V30 4151 H 401.297 -3.6563 -4.89027 0
M  V30 4152 H 402.711 -4.89414 -2.98575 0
M  V30 4153 H 401.108 -5.47751 -2.45129 0
M  V30 4154 H 402.178 -4.67489 -1.28772 0
M  V30 4155 N 403.521 0.559213 -1.47345 0
M  V30 4156 C 404.77 1.31281 -1.53128 0
M  V30 4157 C 405.083 1.94602 -0.197344 0
M  V30 4158 O 406.289 2.71173 -0.133154 0
M  V30 4159 C 404.745 2.38051 -2.69925 0
M  V30 4160 C 404.353 1.8093 -4.0984 0
M  V30 4161 C 406.097 3.14604 -2.84999 0
M  V30 4162 C 404.004 2.85468 -5.1794 0
M  V30 4163 H 402.934 0.493614 -0.569966 0
M  V30 4164 H 405.585 0.594155 -1.73615 0
M  V30 4165 H 403.967 3.12822 -2.42814 0
M  V30 4166 H 405.141 1.12544 -4.46845 0
M  V30 4167 H 403.456 1.16967 -3.99634 0
M  V30 4168 H 406.053 3.92666 -3.62929 0
M  V30 4169 H 406.396 3.68665 -1.93369 0
M  V30 4170 H 406.929 2.46945 -3.1187 0
M  V30 4171 H 403.668 2.36264 -6.1144 0
M  V30 4172 H 403.188 3.52269 -4.85455 0
M  V30 4173 H 404.867 3.48996 -5.44803 0
M  V30 4174 N 404.999 1.35443 0.805782 0
M  V30 4175 C 405.947 1.28465 1.93906 0
M  V30 4176 C 406.941 0.17943 1.68447 0
M  V30 4177 O 408.147 0.345459 1.76654 0
M  V30 4178 H 404.522 0.399528 0.637088 0
M  V30 4179 H 406.493 2.24206 1.96912 0
M  V30 4180 C 405.242 1.07432 3.30687 0
M  V30 4181 H 404.565 1.91716 3.50835 0
M  V30 4182 H 406.005 1.06591 4.10383 0
M  V30 4183 C 404.464 -0.22179 3.36169 0
M  V30 4184 O 404.994 -1.21731 3.82811 0
M  V30 4185 N 403.2 -0.260841 2.89427 0
M  V30 4186 H 402.747 0.549884 2.51663 0
M  V30 4187 H 402.705 -1.12777 2.93477 0
M  V30 4188 N 406.477 -1.02803 1.19454 0
M  V30 4189 C 407.44 -2.09264 0.934955 0
M  V30 4190 C 408.44 -1.60576 -0.0849015 0
M  V30 4191 O 409.63 -1.73554 0.149933 0
M  V30 4192 C 406.762 -3.38482 0.40531 0
M  V30 4193 H 407.955 -2.33726 1.87916 0
M  V30 4194 H 405.508 -1.19426 1.00832 0
M  V30 4195 H 406.243 -3.19689 -0.544899 0
M  V30 4196 H 406.028 -3.75142 1.14065 0
M  V30 4197 H 407.518 -4.16894 0.242806 0
M  V30 4198 N 407.956 -0.998596 -1.21925 0
M  V30 4199 C 409.202 -0.678667 -1.91107 0
M  V30 4200 C 409.535 0.78791 -1.77498 0
M  V30 4201 O 408.81 1.57043 -1.1475 0
M  V30 4202 C 409.093 -1.09245 -3.43129 0
M  V30 4203 C 408.946 -2.61801 -3.6576 0
M  V30 4204 C 410.265 -0.649984 -4.35274 0
M  V30 4205 H 407.384 -0.248025 -0.694012 0
M  V30 4206 H 410.026 -1.24314 -1.43688 0
M  V30 4207 H 408.176 -0.612171 -3.83647 0
M  V30 4208 H 409.848 -3.17543 -3.34611 0
M  V30 4209 H 408.091 -3.03609 -3.09845 0
M  V30 4210 H 408.762 -2.85804 -4.7225 0
M  V30 4211 H 411.238 -1.0626 -4.02303 0
M  V30 4212 H 410.114 -0.967743 -5.40302 0
M  V30 4213 H 410.375 0.449139 -4.39813 0
M  V30 4214 N 409.434 1.37368 -0.772513 0
M  V30 4215 C 410.68 1.99969 -0.337681 0
M  V30 4216 C 411.013 1.61184 1.08321 0
M  V30 4217 O 410.288 0.858395 1.74533 0
M  V30 4218 C 410.571 3.56858 -0.482121 0
M  V30 4219 C 410.424 4.0555 -1.94549 0
M  V30 4220 C 411.743 4.39955 0.113143 0
M  V30 4221 H 408.862 0.726464 -0.124171 0
M  V30 4222 H 411.504 1.63034 -0.975699 0
M  V30 4223 H 409.654 3.88452 0.0610361 0
M  V30 4224 H 411.326 3.84518 -2.54841 0
M  V30 4225 H 409.569 3.57715 -2.45403 0
M  V30 4226 H 410.24 5.14587 -1.9976 0
M  V30 4227 H 412.716 4.14623 -0.35031 0
M  V30 4228 H 411.592 5.48897 -0.0180514 0
M  V30 4229 H 411.853 4.25403 1.20354 0
M  V30 4230 N 410.912 0.523116 1.48665 0
M  V30 4231 C 412.189 -0.0775449 1.95446 0
M  V30 4232 C 412.569 -1.5197 1.4652 0
M  V30 4233 O 411.917 -2.17876 0.688657 0
M  V30 4234 C 412.127 0.0326135 3.48985 0
M  V30 4235 C 413.475 -0.130141 4.24401 0
M  V30 4236 O 414.499 -0.0415142 3.56176 0
M  V30 4237 O 413.358 -0.31491 5.45592 0
M  V30 4238 H 410.452 -0.0831012 0.822814 0
M  V30 4239 H 412.998 0.587227 1.59216 0
M  V30 4240 H 411.77 1.03748 3.77296 0
M  V30 4241 H 411.393 -0.671317 3.91892 0
M  V30 4242 N 412.39 -1.55475 0.257931 0
M  V30 4243 C 413.806 -1.59307 -0.0966563 0
M  V30 4244 C 414.006 -1.27514 -1.5602 0
M  V30 4245 O 413.062 -1.02774 -2.30637 0
M  V30 4246 C 414.375 -2.99552 0.262481 0
M  V30 4247 C 415.923 -3.1231 0.207683 0
M  V30 4248 C 416.398 -4.54793 0.541012 0
M  V30 4249 N 417.889 -4.6058 0.491921 0
M  V30 4250 C 418.624 -5.68825 0.722857 0
M  V30 4251 N 418.12 -6.85287 1.0175 0
M  V30 4252 N 419.913 -5.58296 0.652815 0
M  V30 4253 H 412.064 -1.74409 1.21224 0
M  V30 4254 H 414.327 -0.812424 0.48854 0
M  V30 4255 H 414.033 -3.27593 1.27967 0
M  V30 4256 H 413.907 -3.75019 -0.40508 0
M  V30 4257 H 416.294 -2.84044 -0.800195 0
M  V30 4258 H 416.375 -2.39095 0.909255 0
M  V30 4259 H 416.019 -4.83783 1.5465 0
M  V30 4260 H 415.949 -5.26285 -0.18216 0
M  V30 4261 H 418.44 -3.7691 0.273366 0
M  V30 4262 H 418.753 -7.63725 1.18084 0
M  V30 4263 H 417.098 -6.86945 1.05509 0
M  V30 4264 H 420.289 -4.66189 0.422592 0
M  V30 4265 H 420.462 -6.42582 0.836182 0
M  V30 4266 N 413.868 0.0150385 -1.57593 0
M  V30 4267 C 415.116 0.701613 -1.8953 0
M  V30 4268 C 415.437 1.75139 -0.857396 0
M  V30 4269 O 414.707 1.95607 0.107194 0
M  V30 4270 H 413.287 0.26213 -0.699498 0
M  V30 4271 H 415.949 -0.0223304 -1.94887 0
M  V30 4272 H 415.045 1.18236 -2.88837 0
M  V30 4273 N 415.346 1.54954 0.287554 0
M  V30 4274 C 416.276 1.89839 1.35954 0
M  V30 4275 C 417.257 0.758675 1.52244 0
M  V30 4276 O 418.442 1.01557 1.65529 0
M  V30 4277 C 415.572 2.15753 2.72154 0
M  V30 4278 C 414.526 3.3159 2.70614 0
M  V30 4279 C 413.852 3.42952 4.10229 0
M  V30 4280 C 415.152 4.68359 2.31165 0
M  V30 4281 H 416.846 2.79625 1.07007 0
M  V30 4282 H 414.392 1.3454 0.513316 0
M  V30 4283 H 416.345 2.38743 3.47246 0
M  V30 4284 H 415.069 1.22752 3.02654 0
M  V30 4285 H 413.728 3.08545 1.97979 0
M  V30 4286 H 413.376 2.47443 4.37928 0
M  V30 4287 H 413.076 4.20826 4.10097 0
M  V30 4288 H 414.6 3.68218 4.87081 0
M  V30 4289 H 416.014 4.9099 2.95976 0
M  V30 4290 H 414.411 5.49044 2.42221 0
M  V30 4291 H 415.481 4.68165 1.26291 0
M  V30 4292 N 416.824 -0.551391 1.4764 0
M  V30 4293 C 418.072 -1.30572 1.54258 0
M  V30 4294 C 418.393 -1.93877 0.208963 0
M  V30 4295 O 417.663 -1.80234 -0.767619 0
M  V30 4296 H 416.243 -0.484894 0.568231 0
M  V30 4297 H 418.905 -0.643402 1.83974 0
M  V30 4298 H 418.001 -2.09621 2.31226 0
M  V30 4299 N 418.302 -1.35869 -0.798587 0
M  V30 4300 C 419.53 -1.32722 -1.58722 0
M  V30 4301 C 419.945 0.0935631 -1.88568 0
M  V30 4302 O 419.302 1.04784 -1.49421 0
M  V30 4303 C 419.353 -2.13974 -2.91371 0
M  V30 4304 O 419.074 -3.50514 -2.62815 0
M  V30 4305 C 420.575 -2.18504 -3.85708 0
M  V30 4306 H 417.795 -0.45562 -0.492596 0
M  V30 4307 H 420.339 -1.78837 -0.991843 0
M  V30 4308 H 418.494 -1.71438 -3.47402 0
M  V30 4309 H 418.908 -3.92806 -3.47568 0
M  V30 4310 H 420.382 -2.79732 -4.75872 0
M  V30 4311 H 420.859 -1.18597 -4.22885 0
M  V30 4312 H 421.465 -2.61236 -3.35612 0
M  V30 4313 N 419.78 1.02168 -1.19998 0
M  V30 4314 C 421.01 1.79036 -1.031 0
M  V30 4315 C 421.418 1.84409 0.423078 0
M  V30 4316 O 420.761 1.29228 1.30559 0
M  V30 4317 C 420.823 3.25185 -1.53281 0
M  V30 4318 C 420.487 3.43431 -3.01503 0
M  V30 4319 C 421.484 3.33063 -3.99206 0
M  V30 4320 C 419.169 3.69412 -3.40353 0
M  V30 4321 C 421.163 3.48413 -5.33748 0
M  V30 4322 C 418.85 3.84406 -4.75053 0
M  V30 4323 C 419.848 3.7391 -5.71559 0
M  V30 4324 O 419.536 3.88452 -7.03818 0
M  V30 4325 H 419.268 0.570043 -0.363355 0
M  V30 4326 H 421.822 1.29524 -1.59414 0
M  V30 4327 H 420.052 3.75756 -0.913483 0
M  V30 4328 H 421.741 3.83671 -1.32481 0
M  V30 4329 H 422.507 3.12934 -3.70537 0
M  V30 4330 H 418.386 3.76671 -2.65782 0
M  V30 4331 H 421.93 3.40137 -6.09059 0
M  V30 4332 H 417.827 4.04035 -5.03415 0
M  V30 4333 H 418.595 4.055 -7.10993 0
M  V30 4334 N 421.258 1.00505 1.21394 0
M  V30 4335 C 422.669 0.721082 1.72213 0
M  V30 4336 C 423.02 -0.761263 1.80829 0
M  V30 4337 O 422.145 -1.59464 1.46288 0
M  V30 4338 C 422.74 1.30228 3.12772 0
M  V30 4339 C 421.299 1.06743 3.60947 0
M  V30 4340 C 420.446 1.41507 2.38477 0
M  V30 4341 H 423.397 1.17594 1.06571 0
M  V30 4342 H 423.418 0.686955 3.74247 0
M  V30 4343 H 422.93 2.38115 3.06468 0
M  V30 4344 H 421.031 0.00572162 3.726 0
M  V30 4345 H 421.144 1.73936 4.46411 0
M  V30 4346 H 419.508 0.833852 2.40664 0
M  V30 4347 H 420.291 2.50424 2.34824 0
M  V30 4348 N 422.737 -1.36956 0.779787 0
M  V30 4349 C 423.687 -2.27539 0.144892 0
M  V30 4350 C 424.671 -1.46493 -0.665488 0
M  V30 4351 O 425.863 -1.68968 -0.527141 0
M  V30 4352 C 422.992 -3.35512 -0.727082 0
M  V30 4353 C 422.078 -4.24001 0.0915642 0
M  V30 4354 N 422.469 -4.92757 1.14125 0
M  V30 4355 C 420.767 -4.45807 -0.131141 0
M  V30 4356 C 421.468 -5.58138 1.6388 0
M  V30 4357 N 420.444 -5.35241 0.94962 0
M  V30 4358 H 424.246 -2.78176 0.948446 0
M  V30 4359 H 421.76 -1.50169 0.618315 0
M  V30 4360 H 423.757 -3.99324 -1.19776 0
M  V30 4361 H 422.417 -2.86431 -1.52929 0
M  V30 4362 H 423.428 -4.94984 1.52353 0
M  V30 4363 H 420.105 -4.07582 -0.904621 0
M  V30 4364 H 421.495 -6.23071 2.51461 0
M  V30 4365 N 424.215 -0.530993 -1.48385 0
M  V30 4366 C 425.492 0.0671788 -1.95485 0
M  V30 4367 C 425.872 1.51191 -1.47324 0
M  V30 4368 O 425.22 2.17507 -0.700202 0
M  V30 4369 C 425.43 -0.0511206 -3.48963 0
M  V30 4370 C 426.778 0.107632 -4.24464 0
M  V30 4371 O 427.802 0.0226248 -3.56193 0
M  V30 4372 O 426.661 0.285972 -5.45751 0
M  V30 4373 H 423.755 0.0787365 -0.823243 0
M  V30 4374 H 426.301 -0.595662 -1.58902 0
M  V30 4375 H 425.073 -1.05747 -3.7674 0
M  V30 4376 H 424.696 0.650525 -3.92242 0
M  V30 4377 N 425.693 1.55336 -0.266172 0
M  V30 4378 C 427.104 1.85236 0.233315 0
M  V30 4379 C 427.455 1.18816 1.56132 0
M  V30 4380 O 426.58 0.473307 2.11161 0
M  V30 4381 C 427.175 3.36059 0.430113 0
M  V30 4382 C 425.734 3.66116 0.873842 0
M  V30 4383 C 424.881 2.77274 -0.0380016 0
M  V30 4384 H 427.832 1.51004 -0.488214 0
M  V30 4385 H 427.853 3.58681 1.26998 0
M  V30 4386 H 427.365 3.84373 -0.536588 0
M  V30 4387 H 425.466 3.23295 1.85233 0
M  V30 4388 H 425.579 4.73699 0.717358 0
M  V30 4389 H 423.943 2.50198 0.476759 0
M  V30 4390 H 424.726 3.284 -1.00042 0
M  V30 4391 N 427.171 -0.0066808 1.57599 0
M  V30 4392 C 428.417 -0.693947 1.90558 0
M  V30 4393 C 428.75 -1.73792 0.866594 0
M  V30 4394 O 428.025 -1.94156 -0.115548 0
M  V30 4395 C 428.308 -1.34317 3.34112 0
M  V30 4396 C 428.161 -0.311189 4.48722 0
M  V30 4397 C 429.48 -2.27116 3.7697 0
M  V30 4398 H 426.599 -0.250803 0.693013 0
M  V30 4399 H 429.241 0.043242 1.89951 0
M  V30 4400 H 427.391 -1.9715 3.3476 0
M  V30 4401 H 429.063 0.316944 4.6021 0
M  V30 4402 H 427.306 0.367253 4.32243 0
M  V30 4403 H 427.977 -0.804366 5.46108 0
M  V30 4404 H 430.453 -1.74306 3.77831 0
M  V30 4405 H 429.329 -2.69511 4.78179 0
M  V30 4406 H 429.59 -3.14743 3.10466 0
M  V30 4407 N 428.649 -1.55105 -0.279332 0
M  V30 4408 C 429.596 -1.8755 -1.34513 0
M  V30 4409 C 430.566 -0.726384 -1.49375 0
M  V30 4410 O 431.751 -0.977063 -1.63884 0
M  V30 4411 C 428.891 -2.14738 -2.70151 0
M  V30 4412 C 428.004 -3.42285 -2.63562 0
M  V30 4413 C 427.139 -3.59206 -3.91337 0
M  V30 4414 C 426.178 -4.80467 -3.79233 0
M  V30 4415 N 425.315 -4.94079 -4.98829 0
M  V30 4416 H 430.155 -2.78456 -1.06143 0
M  V30 4417 H 427.692 -1.37867 -0.512936 0
M  V30 4418 H 429.65 -2.28501 -3.49061 0
M  V30 4419 H 428.28 -1.27075 -2.96735 0
M  V30 4420 H 427.332 -3.37029 -1.76397 0
M  V30 4421 H 428.644 -4.31328 -2.50515 0
M  V30 4422 H 427.798 -3.72751 -4.78687 0
M  V30 4423 H 426.537 -2.68337 -4.07243 0
M  V30 4424 H 425.542 -4.66932 -2.90266 0
M  V30 4425 H 426.767 -5.72765 -3.64852 0
M  V30 4426 H 424.713 -4.06139 -5.15158 0
M  V30 4427 H 424.63 -5.77156 -4.8829 0
M  V30 4428 H 425.898 -5.12003 -5.8777 0
M  V30 4429 N 430.127 0.543554 -1.4793 0
M  V30 4430 C 431.352 1.32995 -1.59145 0
M  V30 4431 C 431.777 1.86472 -0.246956 0
M  V30 4432 O 431.135 1.63696 0.779324 0
M  V30 4433 C 431.183 2.46623 -2.63077 0
M  V30 4434 O 430.287 3.49261 -2.19295 0
M  V30 4435 H 429.628 0.394472 -0.534124 0
M  V30 4436 H 432.158 0.655489 -1.93816 0
M  V30 4437 H 432.168 2.93001 -2.83926 0
M  V30 4438 H 430.843 2.07059 -3.60693 0
M  V30 4439 H 429.42 3.09094 -2.08603 0
M  V30 4440 N 431.605 1.3629 0.791371 0
M  V30 4441 C 432.515 1.32606 1.93527 0
M  V30 4442 C 433.531 0.228541 1.72493 0
M  V30 4443 O 434.707 0.460571 1.96063 0
M  V30 4444 C 431.772 1.11271 3.28359 0
M  V30 4445 C 430.833 2.3048 3.62185 0
M  V30 4446 C 430.066 2.10154 4.90583 0
M  V30 4447 O 430.289 1.07572 5.60165 0
M  V30 4448 O 429.223 2.97884 5.23019 0
M  V30 4449 H 433.049 2.28909 1.99585 0
M  V30 4450 H 430.634 1.16818 0.931344 0
M  V30 4451 H 432.516 1.01283 4.09047 0
M  V30 4452 H 431.191 0.180292 3.23198 0
M  V30 4453 H 430.098 2.46036 2.81811 0
M  V30 4454 H 431.431 3.22221 3.72068 0
M  V30 4455 N 433.083 -1.0153 1.20538 0
M  V30 4456 C 434.015 -2.10224 0.913155 0
M  V30 4457 C 435.028 -1.62495 -0.0995998 0
M  V30 4458 O 436.217 -1.78014 0.131582 0
M  V30 4459 C 433.317 -3.37111 0.347717 0
M  V30 4460 C 432.49 -4.13971 1.41233 0
M  V30 4461 C 431.549 -5.19158 0.857976 0
M  V30 4462 O 430.575 -5.48 1.53897 0
M  V30 4463 N 431.777 -5.7955 -0.331966 0
M  V30 4464 H 434.542 -2.35879 1.84881 0
M  V30 4465 H 432.103 -1.17931 1.10923 0
M  V30 4466 H 434.095 -4.04683 -0.0373026 0
M  V30 4467 H 432.665 -3.08696 -0.492527 0
M  V30 4468 H 431.885 -3.41351 1.97163 0
M  V30 4469 H 433.173 -4.62103 2.12928 0
M  V30 4470 H 432.571 -5.58455 -0.902478 0
M  V30 4471 H 431.128 -6.48464 -0.65861 0
M  V30 4472 N 434.561 -1.01147 -1.20859 0
M  V30 4473 C 435.493 -0.535546 -2.22855 0
M  V30 4474 C 436.506 0.379323 -1.58319 0
M  V30 4475 O 437.695 0.178489 -1.77605 0
M  V30 4476 C 434.795 0.240962 -3.38042 0
M  V30 4477 C 433.968 -0.674562 -4.32167 0
M  V30 4478 C 433.027 0.053467 -5.26173 0
M  V30 4479 O 432.053 -0.567339 -5.66366 0
M  V30 4480 N 433.255 1.32997 -5.65059 0
M  V30 4481 H 436.02 -1.41268 -2.64317 0
M  V30 4482 H 433.581 -0.888386 -1.35349 0
M  V30 4483 H 435.573 0.737115 -3.97931 0
M  V30 4484 H 434.143 1.01935 -2.95513 0
M  V30 4485 H 433.363 -1.35111 -3.70322 0
M  V30 4486 H 434.651 -1.2974 -4.91981 0
M  V30 4487 H 434.049 1.85536 -5.34409 0
M  V30 4488 H 432.606 1.77095 -6.2728 0
M  V30 4489 N 436.039 1.36541 -0.78704 0
M  V30 4490 C 437.287 1.98911 -0.357633 0
M  V30 4491 C 437.608 1.62778 1.07371 0
M  V30 4492 O 436.878 0.900612 1.73971 0
M  V30 4493 H 435.458 0.735734 -0.129246 0
M  V30 4494 H 438.12 1.66776 -1.00855 0
M  V30 4495 H 437.216 3.08874 -0.447549 0
M  V30 4496 N 437.518 0.538854 1.48102 0
M  V30 4497 C 438.451 -0.266495 2.26639 0
M  V30 4498 C 439.429 -0.93687 1.32897 0
M  V30 4499 O 440.613 -0.959507 1.62252 0
M  V30 4500 C 437.74 -1.37814 3.09394 0
M  V30 4501 C 436.786 -0.818247 4.18577 0
M  V30 4502 S 437.619 0.320848 5.34538 0
M  V30 4503 C 438.775 -0.793059 6.20855 0
M  V30 4504 H 439.008 0.399994 2.94597 0
M  V30 4505 H 436.541 0.324808 1.50945 0
M  V30 4506 H 438.499 -2.01488 3.57649 0
M  V30 4507 H 437.16 -2.01639 2.40833 0
M  V30 4508 H 436.353 -1.65247 4.7614 0
M  V30 4509 H 435.955 -0.258036 3.73109 0
M  V30 4510 H 438.247 -1.68961 6.56093 0
M  V30 4511 H 439.19 -0.255204 7.0764 0
M  V30 4512 H 439.598 -1.07746 5.54122 0
M  V30 4513 N 438.996 -1.55193 0.274407 0
M  V30 4514 C 440.224 -2.03987 -0.345943 0
M  V30 4515 C 440.639 -1.15279 -1.4952 0
M  V30 4516 O 439.996 -0.172759 -1.8168 0
M  V30 4517 C 440.047 -3.51898 -0.827631 0
M  V30 4518 O 439.768 -4.37231 0.275855 0
M  V30 4519 C 441.269 -4.16577 -1.51587 0
M  V30 4520 H 438.489 -0.666335 -0.0789892 0
M  V30 4521 H 441.033 -2.00423 0.406294 0
M  V30 4522 H 439.188 -3.55909 -1.52996 0
M  V30 4523 H 439.602 -5.24415 -0.0943638 0
M  V30 4524 H 441.076 -5.21678 -1.80433 0
M  V30 4525 H 441.553 -3.64707 -2.44716 0
M  V30 4526 H 442.159 -4.16568 -0.857409 0
M  V30 4527 N 440.474 -0.00167713 -1.576 0
M  V30 4528 C 441.421 0.989195 -2.08527 0
M  V30 4529 C 442.391 1.34031 -0.981065 0
M  V30 4530 O 443.576 1.43839 -1.2536 0
M  V30 4531 C 440.716 2.27537 -2.59463 0
M  V30 4532 C 439.829 1.98314 -3.83791 0
M  V30 4533 C 438.964 3.21025 -4.23222 0
M  V30 4534 C 438.003 2.87495 -5.40382 0
M  V30 4535 N 437.14 4.02749 -5.75098 0
M  V30 4536 H 441.98 0.547973 -2.92919 0
M  V30 4537 H 439.517 0.258917 -1.44803 0
M  V30 4538 H 441.475 3.02729 -2.87073 0
M  V30 4539 H 440.105 2.69325 -1.77943 0
M  V30 4540 H 439.157 1.13482 -3.63078 0
M  V30 4541 H 440.469 1.69601 -4.69081 0
M  V30 4542 H 439.623 4.04561 -4.52123 0
M  V30 4543 H 438.362 3.52877 -3.36644 0
M  V30 4544 H 437.367 2.02367 -5.11202 0
M  V30 4545 H 438.592 2.56889 -6.28637 0
M  V30 4546 H 436.538 4.34494 -4.91478 0
M  V30 4547 H 436.455 3.77566 -6.54966 0
M  V30 4548 H 437.723 4.87068 -6.08592 0
M  V30 4549 N 441.952 1.55251 0.271103 0
M  V30 4550 C 443.198 1.76207 1.00394 0
M  V30 4551 C 443.531 0.562604 1.85872 0
M  V30 4552 O 442.806 -0.439785 1.89463 0
M  V30 4553 C 443.089 3.06828 1.8849 0
M  V30 4554 C 442.942 4.37134 1.05992 0
M  V30 4555 C 444.261 3.33503 2.87165 0
M  V30 4556 H 441.38 0.641086 0.363562 0
M  V30 4557 H 444.022 1.87982 0.276189 0
M  V30 4558 H 442.172 2.96921 2.5054 0
M  V30 4559 H 443.844 4.59001 0.459978 0
M  V30 4560 H 442.087 4.32275 0.363443 0
M  V30 4561 H 442.758 5.2486 1.70955 0
M  V30 4562 H 445.234 3.43215 2.3525 0
M  V30 4563 H 444.11 4.2616 3.45946 0
M  V30 4564 H 444.371 2.53235 3.62387 0
M  V30 4565 N 443.43 -0.535701 1.48216 0
M  V30 4566 C 444.658 -1.31671 1.59594 0
M  V30 4567 C 445.073 -1.87083 0.254056 0
M  V30 4568 O 444.43 -1.66112 -0.755854 0
M  V30 4569 C 444.481 -2.47158 2.63809 0
M  V30 4570 O 444.202 -1.94032 3.92789 0
M  V30 4571 C 445.703 -3.39062 2.85573 0
M  V30 4572 H 442.923 -0.400623 0.538277 0
M  V30 4573 H 445.467 -0.646827 1.94001 0
M  V30 4574 H 443.622 -3.10043 2.32276 0
M  V30 4575 H 444.036 -2.69585 4.49916 0
M  V30 4576 H 445.51 -4.16459 3.62306 0
M  V30 4577 H 445.987 -3.93941 1.94184 0
M  V30 4578 H 446.593 -2.81975 3.18387 0
M  V30 4579 N 444.908 -1.36708 -0.784132 0
M  V30 4580 C 446.155 -1.31231 -1.54222 0
M  V30 4581 C 446.483 0.106864 -1.94206 0
M  V30 4582 O 445.738 1.07734 -1.63376 0
M  V30 4583 C 446.037 -2.18571 -2.82774 0
M  V30 4584 C 445.703 -3.67039 -2.61903 0
M  V30 4585 C 444.365 -4.07503 -2.55919 0
M  V30 4586 C 446.717 -4.61149 -2.4288 0
M  V30 4587 C 444.045 -5.40211 -2.28886 0
M  V30 4588 C 446.397 -5.94081 -2.17373 0
M  V30 4589 C 445.061 -6.33664 -2.09825 0
M  V30 4590 H 444.331 -0.48021 -0.56434 0
M  V30 4591 H 446.978 -1.68807 -0.904233 0
M  V30 4592 H 445.283 -1.73949 -3.51068 0
M  V30 4593 H 446.98 -2.11655 -3.40592 0
M  V30 4594 H 443.57 -3.34941 -2.67418 0
M  V30 4595 H 447.754 -4.30756 -2.46501 0
M  V30 4596 H 443.01 -5.69855 -2.21529 0
M  V30 4597 H 447.184 -6.66566 -2.01649 0
M  V30 4598 H 444.811 -7.36423 -1.88641 0
M  V30 4599 N 446.386 1.0089 -1.21074 0
M  V30 4600 C 447.318 2.09737 -0.924291 0
M  V30 4601 C 448.331 1.62546 0.0909809 0
M  V30 4602 O 449.52 1.77942 -0.141021 0
M  V30 4603 C 446.62 3.36922 -0.36559 0
M  V30 4604 C 445.793 4.13216 -1.43426 0
M  V30 4605 C 444.852 5.18696 -0.885496 0
M  V30 4606 O 443.878 5.47176 -1.56801 0
M  V30 4607 N 445.08 5.79718 0.301227 0
M  V30 4608 H 447.845 2.34895 -1.8613 0
M  V30 4609 H 445.406 1.17341 -1.11546 0
M  V30 4610 H 447.398 4.04697 0.0158407 0
M  V30 4611 H 445.968 3.08952 0.476149 0
M  V30 4612 H 445.188 3.40301 -1.9897 0
M  V30 4613 H 446.476 4.60967 -2.15376 0
M  V30 4614 H 445.874 5.58926 0.872849 0
M  V30 4615 H 444.431 6.48804 0.624211 0
M  V30 4616 N 447.864 1.01787 1.20321 0
M  V30 4617 C 449.28 0.732951 1.41774 0
M  V30 4618 C 449.48 -0.686883 1.89431 0
M  V30 4619 O 448.536 -1.45446 2.06402 0
M  V30 4620 C 449.849 1.75973 2.43832 0
M  V30 4621 C 451.397 1.77802 2.57596 0
M  V30 4622 C 451.872 2.7941 3.62897 0
M  V30 4623 N 453.363 2.78157 3.70382 0
M  V30 4624 C 454.098 3.53434 4.51521 0
M  V30 4625 N 453.594 4.38392 5.36455 0
M  V30 4626 N 455.387 3.42026 4.46066 0
M  V30 4627 H 447.538 1.93447 0.877035 0
M  V30 4628 H 449.801 0.835712 0.447536 0
M  V30 4629 H 449.507 2.77699 2.15815 0
M  V30 4630 H 449.381 1.57292 3.4284 0
M  V30 4631 H 451.768 0.767602 2.84942 0
M  V30 4632 H 451.849 2.00557 1.58779 0
M  V30 4633 H 451.493 3.80616 3.36295 0
M  V30 4634 H 451.423 2.53916 4.61339 0
M  V30 4635 H 453.914 2.16531 3.09714 0
M  V30 4636 H 454.227 4.92596 5.95457 0
M  V30 4637 H 452.572 4.4247 5.35953 0
M  V30 4638 H 455.763 2.75075 3.78749 0
M  V30 4639 H 455.936 4.00946 5.09064 0
M  V30 4640 N 449.342 -1.36122 0.79427 0
M  V30 4641 C 450.59 -1.98718 0.368177 0
M  V30 4642 C 450.911 -1.63345 -1.06506 0
M  V30 4643 O 450.181 -0.909825 -1.73491 0
M  V30 4644 H 448.761 -0.735038 0.133146 0
M  V30 4645 H 451.423 -1.66239 1.01739 0
M  V30 4646 H 450.519 -3.08633 0.463923 0
M  V30 4647 N 450.82 -0.546701 -1.47814 0
M  V30 4648 C 452.236 -0.205717 -1.58269 0
M  V30 4649 C 452.436 1.29153 -1.54667 0
M  V30 4650 O 451.492 2.07098 -1.44453 0
M  V30 4651 C 452.805 -0.823065 -2.89216 0
M  V30 4652 C 454.353 -0.793328 -3.02779 0
M  V30 4653 C 454.828 -1.38955 -4.36412 0
M  V30 4654 N 456.319 -1.35227 -4.43021 0
M  V30 4655 C 457.054 -1.78333 -5.44963 0
M  V30 4656 N 456.55 -2.29246 -6.53772 0
M  V30 4657 N 458.343 -1.69467 -5.35945 0
M  V30 4658 H 450.494 -1.5196 -1.48398 0
M  V30 4659 H 452.757 -0.633078 -0.705632 0
M  V30 4660 H 452.463 -1.8749 -2.97558 0
M  V30 4661 H 452.337 -0.309915 -3.75925 0
M  V30 4662 H 454.724 0.249784 -2.94041 0
M  V30 4663 H 454.805 -1.34412 -2.17639 0
M  V30 4664 H 454.449 -2.43168 -4.45906 0
M  V30 4665 H 454.379 -0.814291 -5.20266 0
M  V30 4666 H 456.87 -0.979739 -3.64979 0
M  V30 4667 H 457.183 -2.60089 -7.27718 0
M  V30 4668 H 455.528 -2.3325 -6.5469 0
M  V30 4669 H 458.719 -1.29477 -4.49837 0
M  V30 4670 H 458.892 -2.03381 -6.15256 0
M  V30 4671 N 452.299 1.55045 -0.282633 0
M  V30 4672 C 453.209 2.26491 0.61147 0
M  V30 4673 C 454.225 1.29348 1.16384 0
M  V30 4674 O 455.401 1.62298 1.19253 0
M  V30 4675 C 452.466 2.97779 1.77563 0
M  V30 4676 C 451.527 4.10418 1.25919 0
M  V30 4677 C 450.76 4.78297 2.36786 0
M  V30 4678 O 450.983 4.45426 3.56303 0
M  V30 4679 O 449.917 5.66089 2.04517 0
M  V30 4680 H 453.743 3.03683 0.0324615 0
M  V30 4681 H 451.328 1.49317 -0.0497576 0
M  V30 4682 H 453.21 3.42554 2.45427 0
M  V30 4683 H 451.885 2.23498 2.34159 0
M  V30 4684 H 450.792 3.70082 0.546797 0
M  V30 4685 H 452.125 4.86622 0.738887 0
M  V30 4686 N 453.777 0.010035 1.57597 0
M  V30 4687 C 455.054 -0.710296 1.82248 0
M  V30 4688 C 455.434 -1.91426 0.889911 0
M  V30 4689 O 454.782 -2.28424 -0.0590292 0
M  V30 4690 C 454.992 -1.10655 3.30993 0
M  V30 4691 C 456.34 -1.50621 3.96987 0
M  V30 4692 O 457.364 -1.20007 3.35375 0
M  V30 4693 O 456.223 -2.07587 5.05539 0
M  V30 4694 H 453.317 -0.34673 0.750804 0
M  V30 4695 H 455.863 0.0362578 1.69661 0
M  V30 4696 H 454.635 -0.248826 3.90508 0
M  V30 4697 H 454.258 -1.91189 3.48615 0
M  V30 4698 N 455.255 -1.55392 -0.262866 0
M  V30 4699 C 456.502 -1.76476 -0.993109 0
M  V30 4700 C 456.83 -0.571479 -1.85915 0
M  V30 4701 O 456.085 0.445733 -1.90556 0
M  V30 4702 C 456.384 -3.02889 -1.89718 0
M  V30 4703 C 456.05 -4.34974 -1.18781 0
M  V30 4704 C 454.712 -4.7087 -0.991699 0
M  V30 4705 C 457.064 -5.16695 -0.683798 0
M  V30 4706 C 454.392 -5.86036 -0.279024 0
M  V30 4707 C 456.744 -6.32598 0.0153327 0
M  V30 4708 C 455.408 -6.67127 0.223062 0
M  V30 4709 H 454.678 -0.64577 -0.363404 0
M  V30 4710 H 457.325 -1.89664 -0.264525 0
M  V30 4711 H 455.63 -2.84644 -2.6923 0
M  V30 4712 H 457.327 -3.16399 -2.46359 0
M  V30 4713 H 453.917 -4.06765 -1.35058 0
M  V30 4714 H 458.101 -4.8943 -0.8229 0
M  V30 4715 H 453.357 -6.11306 -0.107456 0
M  V30 4716 H 457.531 -6.95171 0.413584 0
M  V30 4717 H 455.158 -7.56216 0.777265 0
M  V30 4718 N 456.733 0.527833 -1.48498 0
M  V30 4719 C 458.149 0.856571 -1.34666 0
M  V30 4720 C 458.349 1.98271 -0.35931 0
M  V30 4721 O 457.405 2.51551 0.218703 0
M  V30 4722 C 458.718 1.22207 -2.74747 0
M  V30 4723 C 460.266 1.33183 -2.83251 0
M  V30 4724 C 460.741 1.73075 -4.24039 0
M  V30 4725 N 462.232 1.80174 -4.26722 0
M  V30 4726 C 462.967 2.1243 -5.32598 0
M  V30 4727 N 462.463 2.43096 -6.4875 0
M  V30 4728 N 464.256 2.13454 -5.19994 0
M  V30 4729 H 456.407 -0.215174 -2.11307 0
M  V30 4730 H 458.67 -0.0336281 -0.947403 0
M  V30 4731 H 458.376 0.468195 -3.4857 0
M  V30 4732 H 458.25 2.17173 -3.08409 0
M  V30 4733 H 460.637 2.07647 -2.09683 0
M  V30 4734 H 460.718 0.363333 -2.53206 0
M  V30 4735 H 460.362 0.991712 -4.98124 0
M  V30 4736 H 460.292 2.70979 -4.51529 0
M  V30 4737 H 462.783 1.58744 -3.42942 0
M  V30 4738 H 463.096 2.6682 -7.25277 0
M  V30 4739 H 461.441 2.40611 -6.52021 0
M  V30 4740 H 464.632 1.88956 -4.28268 0
M  V30 4741 H 464.805 2.38261 -6.02608 0
M  V30 4742 N 458.211 1.37122 0.776871 0
M  V30 4743 C 459.174 1.32301 1.8716 0
M  V30 4744 C 460.174 0.228099 1.59174 0
M  V30 4745 O 461.364 0.483642 1.67352 0
M  V30 4746 C 458.496 1.054 3.24197 0
M  V30 4747 H 459.689 2.29673 1.92848 0
M  V30 4748 H 457.242 1.22077 0.97606 0
M  V30 4749 H 457.977 0.0853872 3.24188 0
M  V30 4750 H 457.762 1.84648 3.45901 0
M  V30 4751 H 459.252 1.04664 4.04271 0
M  V30 4752 N 459.689 -1.00246 1.21608 0
M  V30 4753 C 460.938 -1.73476 1.02902 0
M  V30 4754 C 461.251 -1.90643 -0.437561 0
M  V30 4755 O 462.457 -2.61105 -0.74407 0
M  V30 4756 C 460.913 -3.12079 1.79261 0
M  V30 4757 C 460.521 -3.02877 3.30106 0
M  V30 4758 C 462.265 -3.89421 1.68972 0
M  V30 4759 C 460.172 -4.36575 3.98944 0
M  V30 4760 H 459.102 -0.650408 0.381425 0
M  V30 4761 H 461.753 -1.11985 1.45367 0
M  V30 4762 H 460.135 -3.74196 1.2959 0
M  V30 4763 H 461.309 -2.49983 3.87098 0
M  V30 4764 H 459.624 -2.39022 3.40965 0
M  V30 4765 H 462.221 -4.88362 2.17731 0
M  V30 4766 H 462.564 -4.1122 0.648397 0
M  V30 4767 H 463.097 -3.33963 2.16133 0
M  V30 4768 H 459.836 -4.19978 5.03288 0
M  V30 4769 H 459.356 -4.8942 3.4674 0
M  V30 4770 H 461.035 -5.05364 4.04 0
M  V30 4771 N 461.167 -1.02423 -1.1978 0
M  V30 4772 C 462.415 -0.716569 -1.8897 0
M  V30 4773 C 462.736 0.756769 -1.79716 0
M  V30 4774 O 462.006 1.5449 -1.20456 0
M  V30 4775 H 460.586 -0.262062 -0.699523 0
M  V30 4776 H 463.248 -1.29747 -1.45436 0
M  V30 4777 H 462.344 -1.00675 -2.95417 0
M  V30 4778 N 462.645 1.35699 -0.801477 0
M  V30 4779 C 463.575 2.32436 -0.222658 0
M  V30 4780 C 464.556 1.5723 0.649057 0
M  V30 4781 O 465.741 1.85324 0.580387 0
M  V30 4782 C 462.871 3.41469 0.633719 0
M  V30 4783 C 461.825 4.27774 -0.139083 0
M  V30 4784 C 461.151 5.28082 0.838666 0
M  V30 4785 C 462.451 5.04946 -1.33517 0
M  V30 4786 H 464.145 2.81094 -1.03086 0
M  V30 4787 H 461.691 1.35146 -0.497155 0
M  V30 4788 H 463.644 4.08143 1.04868 0
M  V30 4789 H 462.368 2.91408 1.47475 0
M  V30 4790 H 461.027 3.62673 -0.535156 0
M  V30 4791 H 460.675 4.7429 1.67506 0
M  V30 4792 H 460.375 5.86695 0.32594 0
M  V30 4793 H 461.899 5.97628 1.25194 0
M  V30 4794 H 463.313 5.64593 -0.995349 0
M  V30 4795 H 461.71 5.7303 -1.78202 0
M  V30 4796 H 462.78 4.35886 -2.12442 0
M  V30 4797 N 464.123 0.554532 1.47522 0
M  V30 4798 C 465.053 -0.182974 2.32782 0
M  V30 4799 C 466.034 -0.911377 1.43624 0
M  V30 4800 O 467.219 -0.892366 1.72483 0
M  V30 4801 C 464.349 -1.21513 3.25349 0
M  V30 4802 C 463.303 -0.603355 4.23726 0
M  V30 4803 C 462.629 -1.73995 5.05598 0
M  V30 4804 C 463.929 0.441121 5.20434 0
M  V30 4805 H 465.623 0.52882 2.94693 0
M  V30 4806 H 463.169 0.255759 1.41711 0
M  V30 4807 H 465.122 -1.73922 3.83835 0
M  V30 4808 H 463.846 -1.95683 2.61487 0
M  V30 4809 H 462.505 -0.10059 3.66462 0
M  V30 4810 H 462.153 -2.47063 4.38143 0
M  V30 4811 H 461.853 -1.3364 5.72201 0
M  V30 4812 H 463.377 -2.26735 5.66942 0
M  V30 4813 H 464.791 0.00319931 5.733 0
M  V30 4814 H 463.188 0.763402 5.95224 0
M  V30 4815 H 464.258 1.33799 4.66075 0
M  V30 4816 N 465.601 -1.54893 0.290851 0
M  V30 4817 C 466.878 -1.91991 -0.373989 0
M  V30 4818 C 467.258 -1.21694 -1.72493 0
M  V30 4819 O 466.606 -0.34917 -2.25816 0
M  V30 4820 C 466.816 -3.45419 -0.498703 0
M  V30 4821 C 468.164 -4.1748 -0.774298 0
M  V30 4822 O 469.188 -3.51398 -0.582908 0
M  V30 4823 O 468.047 -5.3445 -1.14129 0
M  V30 4824 H 465.141 -0.800593 -0.207315 0
M  V30 4825 H 467.687 -1.66297 0.338164 0
M  V30 4826 H 466.459 -3.88688 0.451392 0
M  V30 4827 H 466.082 -3.77117 -1.25972 0
M  V30 4828 N 467.08 -0.0183926 -1.57589 0
M  V30 4829 C 468.308 0.673046 -1.95647 0
M  V30 4830 C 468.723 1.66275 -0.894312 0
M  V30 4831 O 468.08 1.82072 0.124975 0
M  V30 4832 C 468.131 1.38884 -3.33756 0
M  V30 4833 O 467.852 0.438806 -4.35897 0
M  V30 4834 C 469.353 2.1731 -3.86383 0
M  V30 4835 H 466.573 0.186292 -0.644621 0
M  V30 4836 H 469.117 -0.0749748 -2.04363 0
M  V30 4837 H 467.272 2.08835 -3.26293 0
M  V30 4838 H 467.686 0.945869 -5.15901 0
M  V30 4839 H 469.16 2.62863 -4.85394 0
M  V30 4840 H 469.637 3.00764 -3.20059 0
M  V30 4841 H 470.243 1.52339 -3.97081 0
M  V30 4842 N 468.558 1.5553 0.254621 0
M  V30 4843 C 469.521 1.88872 1.29846 0
M  V30 4844 C 470.521 0.764591 1.41459 0
M  V30 4845 O 471.711 1.03265 1.40293 0
M  V30 4846 C 468.843 2.11032 2.67728 0
M  V30 4847 H 470.036 2.82201 1.01502 0
M  V30 4848 H 467.589 1.48303 0.493556 0
M  V30 4849 H 468.324 1.20146 3.01223 0
M  V30 4850 H 468.109 2.92895 2.60682 0
M  V30 4851 H 469.599 2.38038 3.43115 0
M  V30 4852 N 470.036 -0.519951 1.48776 0
M  V30 4853 C 471.313 -1.28123 1.47797 0
M  V30 4854 C 471.693 -2.10196 0.195157 0
M  V30 4855 O 471.041 -2.13167 -0.822925 0
M  V30 4856 C 471.251 -2.15413 2.74587 0
M  V30 4857 C 472.599 -2.75225 3.23321 0
M  V30 4858 O 473.623 -2.25694 2.75574 0
M  V30 4859 O 472.482 -3.65346 4.06429 0
M  V30 4860 H 469.576 -0.578793 0.590701 0
M  V30 4861 H 472.122 -0.535779 1.6102 0
M  V30 4862 H 470.894 -1.54617 3.59457 0
M  V30 4863 H 470.517 -2.97186 2.64132 0
M  V30 4864 N 471.514 -1.37532 -0.769588 0
M  V30 4865 C 472.739 -1.36231 -1.56384 0
M  V30 4866 C 473.164 0.0495849 -1.88035 0
M  V30 4867 O 472.522 1.02723 -1.49391 0
M  V30 4868 C 472.57 -2.20986 -2.84952 0
M  V30 4869 O 471.674 -1.61597 -3.79421 0
M  V30 4870 H 471.015 -0.465387 -0.473615 0
M  V30 4871 H 473.545 -1.81085 -0.952342 0
M  V30 4872 H 473.555 -2.34277 -3.34034 0
M  V30 4873 H 472.23 -3.23612 -2.61243 0
M  V30 4874 H 470.807 -1.57359 -3.38072 0
M  V30 4875 N 472.992 0.995999 -1.22138 0
M  V30 4876 C 473.94 2.10673 -0.985876 0
M  V30 4877 C 474.934 1.69255 0.0699553 0
M  V30 4878 O 476.14 1.79812 -0.0822176 0
M  V30 4879 H 472.515 0.688865 -0.30161 0
M  V30 4880 H 474.486 2.27711 -1.92848 0
M  V30 4881 C 473.235 3.42881 -0.576909 0
M  V30 4882 H 472.558 3.75191 -1.38101 0
M  V30 4883 H 473.998 4.21589 -0.451518 0
M  V30 4884 C 472.457 3.29265 0.713196 0
M  V30 4885 O 472.987 3.60777 1.76643 0
M  V30 4886 N 471.193 2.82456 0.683162 0
M  V30 4887 H 470.74 2.5701 -0.174242 0
M  V30 4888 H 470.698 2.73727 1.54663 0
M  V30 4889 N 474.47 1.03057 1.19235 0
M  V30 4890 C 475.716 0.729098 1.89241 0
M  V30 4891 C 476.049 -0.740573 1.79525 0
M  V30 4892 O 475.324 -1.53946 1.18874 0
M  V30 4893 C 475.607 1.18304 3.40112 0
M  V30 4894 C 475.46 2.71406 3.5869 0
M  V30 4895 C 476.779 0.765161 4.33397 0
M  V30 4896 H 473.898 0.266338 0.687192 0
M  V30 4897 H 476.54 1.28079 1.40341 0
M  V30 4898 H 474.69 0.713672 3.81889 0
M  V30 4899 H 476.362 3.26303 3.26074 0
M  V30 4900 H 474.605 3.11717 3.01687 0
M  V30 4901 H 475.276 2.98225 4.64506 0
M  V30 4902 H 477.752 1.16889 3.99345 0
M  V30 4903 H 476.628 1.11065 5.37546 0
M  V30 4904 H 476.889 -0.332372 4.40849 0
M  V30 4905 N 475.948 -1.35272 0.808662 0
M  V30 4906 C 476.881 -2.27595 0.165994 0
M  V30 4907 C 477.859 -1.48189 -0.669241 0
M  V30 4908 O 479.043 -1.77444 -0.636073 0
M  V30 4909 C 476.17 -3.29843 -0.769505 0
M  V30 4910 C 475.216 -4.26498 -0.0136267 0
M  V30 4911 S 476.049 -5.18878 1.32384 0
M  V30 4912 C 477.205 -6.24666 0.392838 0
M  V30 4913 H 477.438 -2.81755 0.948756 0
M  V30 4914 H 474.971 -1.42103 0.603828 0
M  V30 4915 H 476.929 -3.89247 -1.30374 0
M  V30 4916 H 475.59 -2.74558 -1.52567 0
M  V30 4917 H 474.783 -4.98769 -0.724227 0
M  V30 4918 H 474.385 -3.71274 0.450713 0
M  V30 4919 H 476.677 -6.7619 -0.4211 0
M  V30 4920 H 477.62 -6.99741 1.0848 0
M  V30 4921 H 478.028 -5.64499 -0.0123908 0
M  V30 4922 N 477.426 -0.562348 -1.47226 0
M  V30 4923 C 478.666 -0.0426374 -2.04356 0
M  V30 4924 C 479.03 1.28487 -1.42671 0
M  V30 4925 O 480.231 1.89259 -1.90878 0
M  V30 4926 C 478.502 0.0433826 -3.57374 0
M  V30 4927 S 480.061 0.508472 -4.35844 0
M  V30 4928 H 476.879 -0.0276234 -0.710463 0
M  V30 4929 H 479.481 -0.750245 -1.80531 0
M  V30 4930 H 478.185 -0.927072 -3.99792 0
M  V30 4931 H 477.716 0.774387 -3.85703 0
M  V30 4932 H 479.731 1.76719 -4.63665 0
M  V30 4933 N 478.904 1.54736 -0.299062 0
M  V30 4934 C 479.867 2.22127 0.565012 0
M  V30 4935 C 480.867 1.20669 1.06281 0
M  V30 4936 O 482.057 1.45417 0.959145 0
M  V30 4937 C 479.189 2.90611 1.78208 0
M  V30 4938 H 480.382 2.99891 -0.0237448 0
M  V30 4939 H 477.935 1.5622 -0.0498788 0
M  V30 4940 H 478.67 2.16921 2.41072 0
M  V30 4941 H 478.455 3.64984 1.43281 0
M  V30 4942 H 479.945 3.42026 2.396 0
M  V30 4943 N 480.382 0.0267497 1.57577 0
M  V30 4944 C 481.314 -0.984594 2.06974 0
M  V30 4945 C 482.327 -1.29032 0.992705 0
M  V30 4946 O 483.516 -1.25539 1.26895 0
M  V30 4947 C 480.616 -2.31262 2.47732 0
M  V30 4948 C 479.789 -2.1924 3.78487 0
M  V30 4949 C 478.848 -3.34956 4.05821 0
M  V30 4950 O 477.874 -3.11948 4.76106 0
M  V30 4951 N 479.076 -4.58672 3.55809 0
M  V30 4952 H 481.841 -0.563143 2.94362 0
M  V30 4953 H 479.402 -0.160061 1.61107 0
M  V30 4954 H 481.394 -3.07496 2.63112 0
M  V30 4955 H 479.964 -2.65056 1.65723 0
M  V30 4956 H 479.184 -1.27747 3.72927 0
M  V30 4957 H 480.472 -2.08409 4.64158 0
M  V30 4958 H 479.87 -4.8026 2.98942 0
M  V30 4959 H 478.427 -5.32083 3.76472 0
M  V30 4960 N 481.861 -1.55662 -0.24637 0
M  V30 4961 C 483.101 -1.79283 -0.981685 0
M  V30 4962 C 483.465 -0.596356 -1.82504 0
M  V30 4963 O 484.666 -0.711342 -2.59217 0
M  V30 4964 C 482.937 -3.07648 -1.819 0
M  V30 4965 S 484.496 -3.52491 -2.61334 0
M  V30 4966 H 481.314 -0.629676 -0.330196 0
M  V30 4967 H 483.916 -1.93901 -0.249498 0
M  V30 4968 H 482.62 -3.92794 -1.18915 0
M  V30 4969 H 482.151 -2.95768 -2.59393 0
M  V30 4970 H 484.166 -3.13866 -3.84321 0
M  V30 4971 N 483.339 0.512053 -1.4905 0
M  V30 4972 C 484.289 1.61142 -1.61298 0
M  V30 4973 C 485.273 1.53908 -0.46916 0
M  V30 4974 O 486.465 1.61625 -0.721547 0
M  V30 4975 C 483.594 2.998 -1.67256 0
M  V30 4976 C 482.68 3.12072 -2.87179 0
M  V30 4977 N 483.071 2.94263 -4.11391 0
M  V30 4978 C 481.369 3.43156 -2.84886 0
M  V30 4979 C 482.07 3.10426 -4.91946 0
M  V30 4980 N 481.046 3.38808 -4.251 0
M  V30 4981 H 484.848 1.46011 -2.55065 0
M  V30 4982 H 482.362 0.717934 -1.45669 0
M  V30 4983 H 484.359 3.78794 -1.74128 0
M  V30 4984 H 483.019 3.1601 -0.746195 0
M  V30 4985 H 484.03 2.70661 -4.41546 0
M  V30 4986 H 480.707 3.65611 -2.01581 0
M  V30 4987 H 482.097 3.01243 -6.00585 0
M  V30 4988 N 484.817 1.37938 0.762283 0
M  V30 4989 C 486.063 1.33866 1.52341 0
M  V30 4990 C 486.396 -0.0738961 1.94059 0
M  V30 4991 O 485.671 -1.03326 1.64785 0
M  V30 4992 C 485.954 2.28644 2.78197 0
M  V30 4993 C 485.807 3.78722 2.42672 0
M  V30 4994 C 487.126 2.21702 3.80179 0
M  V30 4995 H 484.245 0.487593 0.55265 0
M  V30 4996 H 486.887 1.68717 0.873767 0
M  V30 4997 H 485.037 1.99055 3.33631 0
M  V30 4998 H 486.709 4.18948 1.93081 0
M  V30 4999 H 484.952 3.96827 1.75244 0
M  V30 5000 H 485.623 4.40486 3.3268 0
M  V30 5001 H 488.099 2.47805 3.34263 0
M  V30 5002 H 486.975 2.90143 4.65949 0
M  V30 5003 H 487.236 1.21301 4.25133 0
M  V30 5004 N 486.295 -0.989507 1.22664 0
M  V30 5005 C 487.205 -2.11449 1.01619 0
M  V30 5006 C 488.221 -1.73962 -0.036545 0
M  V30 5007 O 489.397 -2.00788 0.156924 0
M  V30 5008 C 486.462 -3.41465 0.600204 0
M  V30 5009 C 485.523 -3.93033 1.72695 0
M  V30 5010 C 484.756 -5.16844 1.33071 0
M  V30 5011 O 484.979 -5.7001 0.210975 0
M  V30 5012 O 483.913 -5.6225 2.14845 0
M  V30 5013 H 487.739 -2.32088 1.9588 0
M  V30 5014 H 485.324 -1.09823 1.01289 0
M  V30 5015 H 487.206 -4.19695 0.37873 0
M  V30 5016 H 485.881 -3.22178 -0.313511 0
M  V30 5017 H 484.788 -3.15961 2.00298 0
M  V30 5018 H 486.121 -4.16758 2.61865 0
M  V30 5019 N 487.773 -1.03688 -1.18687 0
M  V30 5020 C 489.003 -0.756819 -1.92239 0
M  V30 5021 C 489.411 0.689374 -1.76194 0
M  V30 5022 O 488.754 1.48126 -1.08648 0
M  V30 5023 C 488.816 -1.03851 -3.44173 0
M  V30 5024 C 488.48 -2.47785 -3.83994 0
M  V30 5025 C 489.477 -3.4595 -3.88091 0
M  V30 5026 C 487.162 -2.82397 -4.154 0
M  V30 5027 C 489.156 -4.76779 -4.23038 0
M  V30 5028 C 486.843 -4.13433 -4.50018 0
M  V30 5029 C 487.841 -5.10434 -4.53813 0
M  V30 5030 O 487.529 -6.39122 -4.87625 0
M  V30 5031 H 487.261 -0.275678 -0.617234 0
M  V30 5032 H 489.815 -1.38658 -1.51536 0
M  V30 5033 H 488.045 -0.351612 -3.85098 0
M  V30 5034 H 489.734 -0.746846 -3.9897 0
M  V30 5035 H 490.5 -3.20549 -3.63969 0
M  V30 5036 H 486.379 -2.07568 -4.11627 0
M  V30 5037 H 489.923 -5.52488 -4.25914 0
M  V30 5038 H 485.82 -4.38604 -4.736 0
M  V30 5039 H 486.588 -6.43715 -5.05542 0
M  V30 5040 N 489.251 1.34841 -0.815825 0
M  V30 5041 C 490.199 2.31549 -0.220888 0
M  V30 5042 C 491.193 1.5707 0.634457 0
M  V30 5043 O 492.399 1.72125 0.526589 0
M  V30 5044 H 488.774 0.750153 -0.0526782 0
M  V30 5045 H 490.745 2.7926 -1.05149 0
M  V30 5046 C 489.494 3.42335 0.608427 0
M  V30 5047 H 488.817 3.9978 -0.0404121 0
M  V30 5048 H 490.257 4.12258 0.990931 0
M  V30 5049 C 488.716 2.86173 1.77782 0
M  V30 5050 O 489.246 2.80474 2.87571 0
M  V30 5051 N 487.452 2.43093 1.59229 0
M  V30 5052 H 486.999 2.47928 0.699237 0
M  V30 5053 H 486.957 2.05866 2.37627 0
M  V30 5054 N 490.729 0.570148 1.46925 0
M  V30 5055 C 491.969 0.0534743 2.0433 0
M  V30 5056 C 492.333 -1.27729 1.4335 0
M  V30 5057 O 493.534 -1.88244 1.91879 0
M  V30 5058 C 491.805 -0.0244296 3.57392 0
M  V30 5059 S 493.364 -0.485351 4.36108 0
M  V30 5060 H 490.182 0.0313908 0.710307 0
M  V30 5061 H 492.784 0.759808 1.80131 0
M  V30 5062 H 491.488 0.948261 3.99295 0
M  V30 5063 H 491.019 -0.753922 3.86108 0
M  V30 5064 H 493.034 -1.74258 4.64595 0
M  V30 5065 N 492.207 -1.54576 0.307264 0
M  V30 5066 C 493.155 -2.25208 -0.581723 0
M  V30 5067 C 494.149 -1.26031 -1.13192 0
M  V30 5068 O 495.355 -1.43862 -1.08184 0
M  V30 5069 H 491.73 -0.723173 -0.206214 0
M  V30 5070 H 493.701 -2.98378 0.0364663 0
M  V30 5071 C 492.45 -3.01086 -1.73904 0
M  V30 5072 H 491.773 -3.77208 -1.32491 0
M  V30 5073 H 493.213 -3.5378 -2.33701 0
M  V30 5074 C 491.672 -2.08422 -2.64692 0
M  V30 5075 O 492.202 -1.65636 -3.65961 0
M  V30 5076 N 490.408 -1.74247 -2.32564 0
M  V30 5077 H 489.955 -2.09238 -1.50257 0
M  V30 5078 H 489.913 -1.12524 -2.93574 0
M  V30 5079 N 493.685 -0.035106 -1.57561 0
M  V30 5080 C 495.096 0.502885 -1.798 0
M  V30 5081 C 495.447 1.71892 -0.945921 0
M  V30 5082 O 494.572 2.15822 -0.157991 0
M  V30 5083 C 495.167 0.919097 -3.26095 0
M  V30 5084 C 493.726 1.40216 -3.49308 0
M  V30 5085 C 492.873 0.369709 -2.74824 0
M  V30 5086 H 495.824 -0.261102 -1.56537 0
M  V30 5087 H 495.845 1.78308 -3.36135 0
M  V30 5088 H 495.357 0.0338526 -3.88085 0
M  V30 5089 H 493.458 2.30714 -2.92578 0
M  V30 5090 H 493.571 1.40541 -4.58023 0
M  V30 5091 H 491.935 0.839113 -2.40481 0
M  V30 5092 H 492.718 -0.507173 -3.39533 0
M  V30 5093 N 495.163 1.55791 0.238111 0
M  V30 5094 C 496.411 1.77681 0.963001 0
M  V30 5095 C 496.732 0.600674 1.85518 0
M  V30 5096 O 496.002 -0.383182 1.92116 0
M  V30 5097 H 494.582 0.655315 0.358568 0
M  V30 5098 H 497.244 1.93239 0.253945 0
M  V30 5099 H 496.34 2.69177 1.57956 0
M  V30 5100 N 496.642 -0.504142 1.49319 0
M  V30 5101 C 497.872 -1.28071 1.62116 0
M  V30 5102 C 498.28 -1.86955 0.290566 0
M  V30 5103 O 497.623 -1.68415 -0.733616 0
M  V30 5104 C 497.685 -2.4521 2.62893 0
M  V30 5105 C 497.349 -2.07218 4.0732 0
M  V30 5106 C 498.346 -1.61375 4.94221 0
M  V30 5107 C 496.031 -2.16949 4.53033 0
M  V30 5108 C 498.025 -1.25763 6.2487 0
M  V30 5109 C 495.712 -1.80949 5.83696 0
M  V30 5110 C 496.71 -1.3543 6.69438 0
M  V30 5111 O 496.398 -0.99915 7.97667 0
M  V30 5112 H 496.13 -0.394763 0.54876 0
M  V30 5113 H 498.684 -0.612118 1.96067 0
M  V30 5114 H 496.914 -3.15134 2.24115 0
M  V30 5115 H 498.603 -3.0724 2.65252 0
M  V30 5116 H 499.369 -1.53306 4.60133 0
M  V30 5117 H 495.248 -2.5133 3.86463 0
M  V30 5118 H 498.792 -0.901631 6.91749 0
M  V30 5119 H 494.689 -1.88667 6.17313 0
M  V30 5120 H 495.457 -1.13089 8.1065 0
M  V30 5121 N 498.12 -1.38341 -0.754957 0
M  V30 5122 C 499.052 -1.31347 -1.87831 0
M  V30 5123 C 500.065 -0.225955 -1.61224 0
M  V30 5124 O 501.254 -0.48341 -1.7183 0
M  V30 5125 C 498.354 -1.01201 -3.23437 0
M  V30 5126 C 497.527 -2.20834 -3.77559 0
M  V30 5127 C 496.586 -1.87454 -4.91678 0
M  V30 5128 O 495.612 -2.59934 -5.06382 0
M  V30 5129 N 496.814 -0.828682 -5.74555 0
M  V30 5130 H 499.579 -2.28147 -1.94342 0
M  V30 5131 H 497.14 -1.32184 -0.934828 0
M  V30 5132 H 499.132 -0.769249 -3.97322 0
M  V30 5133 H 497.702 -0.132011 -3.12321 0
M  V30 5134 H 496.922 -2.61184 -2.95256 0
M  V30 5135 H 498.21 -3.00678 -4.10451 0
M  V30 5136 H 497.608 -0.227591 -5.65242 0
M  V30 5137 H 496.165 -0.645802 -6.48593 0
M  V30 5138 N 499.598 0.982988 -1.23187 0
M  V30 5139 C 500.528 2.09301 -1.03515 0
M  V30 5140 C 501.509 1.70035 0.0471136 0
M  V30 5141 O 502.694 1.93847 -0.117029 0
M  V30 5142 C 499.824 3.4167 -0.622791 0
M  V30 5143 C 498.778 3.94828 -1.65211 0
M  V30 5144 C 498.104 5.23362 -1.09527 0
M  V30 5145 C 499.404 4.2439 -3.04451 0
M  V30 5146 H 501.098 2.26016 -1.96359 0
M  V30 5147 H 498.644 1.08611 -0.945501 0
M  V30 5148 H 500.597 4.18746 -0.472233 0
M  V30 5149 H 499.321 3.24811 0.341329 0
M  V30 5150 H 497.98 3.19895 -1.79061 0
M  V30 5151 H 497.628 5.02852 -0.122211 0
M  V30 5152 H 497.328 5.59895 -1.783 0
M  V30 5153 H 498.852 6.03062 -0.956511 0
M  V30 5154 H 500.266 4.92225 -2.93917 0
M  V30 5155 H 498.663 4.72118 -3.70438 0
M  V30 5156 H 499.733 3.31765 -3.53638 0
M  V30 5157 N 501.076 1.04316 1.18135 0
M  V30 5158 C 502.301 0.768047 1.92655 0
M  V30 5159 C 502.726 -0.66904 1.758 0
M  V30 5160 O 502.084 -1.46372 1.06981 0
M  V30 5161 C 502.132 1.14239 3.42026 0
M  V30 5162 O 501.236 0.269333 4.1152 0
M  V30 5163 H 500.577 0.282436 0.600937 0
M  V30 5164 H 503.107 1.39367 1.49793 0
M  V30 5165 H 503.117 1.10538 3.92741 0
M  V30 5166 H 501.792 2.18928 3.53615 0
M  V30 5167 H 500.369 0.366175 3.71098 0
M  V30 5168 N 502.554 -1.34406 0.822964 0
M  V30 5169 C 503.831 -1.92733 0.333641 0
M  V30 5170 C 504.211 -1.75107 -1.17901 0
M  V30 5171 O 503.559 -1.12983 -1.98613 0
M  V30 5172 C 503.769 -3.40557 0.763023 0
M  V30 5173 C 505.117 -4.17709 0.761879 0
M  V30 5174 O 506.141 -3.49141 0.705606 0
M  V30 5175 O 505 -5.40082 0.835109 0
M  V30 5176 H 502.094 -0.821964 0.0911249 0
M  V30 5177 H 504.64 -1.4338 0.907757 0
M  V30 5178 H 503.412 -3.47187 1.8049 0
M  V30 5179 H 503.035 -3.97259 0.164605 0
M  V30 5180 N 504.032 -0.577932 -1.46621 0
M  V30 5181 C 505.28 -0.061566 -2.02006 0
M  V30 5182 C 505.601 1.30117 -1.4524 0
M  V30 5183 O 504.871 1.85313 -0.63529 0
M  V30 5184 H 503.451 -0.0197692 -0.746738 0
M  V30 5185 H 506.113 -0.752631 -1.79782 0
M  V30 5186 H 505.209 0.0110238 -3.12098 0
M  V30 5187 N 505.51 1.54411 -0.315457 0
M  V30 5188 C 506.735 2.05299 0.294496 0
M  V30 5189 C 507.16 1.19052 1.4563 0
M  V30 5190 O 506.518 0.197804 1.80218 0
M  V30 5191 C 506.566 3.5345 0.714549 0
M  V30 5192 O 505.67 3.70175 1.81781 0
M  V30 5193 H 505.011 0.661743 0.0547019 0
M  V30 5194 H 507.541 1.99327 -0.461508 0
M  V30 5195 H 507.551 3.9557 0.999426 0
M  V30 5196 H 506.226 4.1568 -0.135244 0
M  V30 5197 H 504.803 3.3996 1.53236 0
M  V30 5198 N 506.988 0.0434614 1.5754 0
M  V30 5199 C 508.404 -0.313039 1.565 0
M  V30 5200 C 508.604 -1.71954 1.05043 0
M  V30 5201 O 507.66 -2.425 0.703564 0
M  V30 5202 C 508.973 -0.148544 3.00333 0
M  V30 5203 C 510.521 -0.220231 3.12224 0
M  V30 5204 C 510.996 -0.0843565 4.57922 0
M  V30 5205 N 512.487 -0.140881 4.62986 0
M  V30 5206 C 513.222 -0.0597443 5.73369 0
M  V30 5207 N 512.718 0.0733004 6.92761 0
M  V30 5208 N 514.511 -0.11477 5.61983 0
M  V30 5209 H 506.662 0.96303 1.89313 0
M  V30 5210 H 508.925 0.373164 0.871466 0
M  V30 5211 H 508.631 0.820894 3.41986 0
M  V30 5212 H 508.505 -0.912798 3.65989 0
M  V30 5213 H 510.892 -1.18014 2.70475 0
M  V30 5214 H 510.973 0.574646 2.49262 0
M  V30 5215 H 510.617 0.872192 5.00355 0
M  V30 5216 H 510.547 -0.898281 5.18882 0
M  V30 5217 H 513.038 -0.243273 3.77116 0
M  V30 5218 H 513.351 0.128128 7.72694 0
M  V30 5219 H 511.696 0.10828 6.94916 0
M  V30 5220 H 514.887 -0.217212 4.67596 0
M  V30 5221 H 515.06 -0.0480779 6.47982 0
M  V30 5222 N 508.466 -1.55915 -0.229846 0
M  V30 5223 C 509.712 -1.78807 -0.956868 0
M  V30 5224 C 510.045 -0.611687 -1.84315 0
M  V30 5225 O 509.32 0.389398 -1.90562 0
M  V30 5226 C 509.603 -3.11718 -1.80288 0
M  V30 5227 C 509.456 -4.3979 -0.943649 0
M  V30 5228 C 510.775 -3.40999 -2.78222 0
M  V30 5229 H 507.894 -0.6505 -0.346437 0
M  V30 5230 H 510.536 -1.88648 -0.226252 0
M  V30 5231 H 508.686 -3.03459 -2.42579 0
M  V30 5232 H 510.358 -4.60059 -0.338121 0
M  V30 5233 H 508.601 -4.33086 -0.248705 0
M  V30 5234 H 509.272 -5.29208 -1.5698 0
M  V30 5235 H 511.748 -3.49332 -2.26067 0
M  V30 5236 H 510.624 -4.35183 -3.34526 0
M  V30 5237 H 510.885 -2.62754 -3.55546 0
M  V30 5238 N 509.944 0.496216 -1.49584 0
M  V30 5239 C 511.192 1.24756 -1.58998 0
M  V30 5240 C 511.513 1.92968 -0.280775 0
M  V30 5241 O 510.783 1.82959 0.700198 0
M  V30 5242 H 509.363 0.463471 -0.585836 0
M  V30 5243 H 512.025 0.574678 -1.86235 0
M  V30 5244 H 511.121 2.00895 -2.38847 0
M  V30 5245 N 511.423 1.38739 0.74761 0
M  V30 5246 C 512.356 1.3083 1.86972 0
M  V30 5247 C 513.334 0.184229 1.61553 0
M  V30 5248 O 514.518 0.36256 1.8498 0
M  V30 5249 C 511.645 1.02854 3.22705 0
M  V30 5250 C 510.691 2.17281 3.67003 0
M  V30 5251 S 511.524 3.79468 3.77842 0
M  V30 5252 C 512.68 3.53692 5.16385 0
M  V30 5253 H 512.913 2.258 1.93395 0
M  V30 5254 H 510.446 1.24646 0.911199 0
M  V30 5255 H 512.404 0.87397 4.01089 0
M  V30 5256 H 511.065 0.0959295 3.13953 0
M  V30 5257 H 510.258 1.93267 4.65472 0
M  V30 5258 H 509.86 2.28876 2.9579 0
M  V30 5259 H 512.152 3.10176 6.02327 0
M  V30 5260 H 513.095 4.51576 5.45422 0
M  V30 5261 H 513.503 2.8807 4.85464 0
M  V30 5262 N 512.901 -0.976442 1.23707 0
M  V30 5263 C 514.178 -1.69296 0.979699 0
M  V30 5264 C 514.558 -2.0508 -0.500555 0
M  V30 5265 O 513.906 -1.74708 -1.47273 0
M  V30 5266 C 514.116 -2.93143 1.89389 0
M  V30 5267 C 515.464 -3.65572 2.15968 0
M  V30 5268 O 516.488 -3.03184 1.86971 0
M  V30 5269 O 515.347 -4.77859 2.65167 0
M  V30 5270 H 512.441 -0.739708 0.369812 0
M  V30 5271 H 514.987 -1.03131 1.34767 0
M  V30 5272 H 513.759 -2.63327 2.89439 0
M  V30 5273 H 513.382 -3.67044 1.52854 0
M  V30 5274 N 514.379 -1.04941 -1.1758 0
M  V30 5275 C 515.656 -0.671918 -1.83697 0
M  V30 5276 C 516.036 0.847929 -1.93322 0
M  V30 5277 O 515.384 1.75287 -1.46583 0
M  V30 5278 C 515.594 -1.35797 -3.21497 0
M  V30 5279 C 516.942 -1.4944 -3.97433 0
M  V30 5280 O 517.966 -1.31678 -3.30967 0
M  V30 5281 O 516.825 -1.78463 -5.1654 0
M  V30 5282 H 513.919 -0.236212 -0.792548 0
M  V30 5283 H 516.465 -1.14884 -1.24899 0
M  V30 5284 H 515.237 -2.39498 -3.09446 0
M  V30 5285 H 514.86 -0.870236 -3.8796 0
M  V30 5286 N 515.857 1.33968 -0.830081 0
M  V30 5287 C 517.273 1.51003 -0.516742 0
M  V30 5288 C 517.473 1.77286 0.957694 0
M  V30 5289 O 516.529 1.82797 1.74188 0
M  V30 5290 C 517.842 2.67036 -1.38247 0
M  V30 5291 C 519.39 2.80919 -1.38034 0
M  V30 5292 C 519.865 4.00004 -2.23071 0
M  V30 5293 N 521.356 4.07224 -2.20733 0
M  V30 5294 C 522.091 4.98541 -2.83275 0
M  V30 5295 N 521.587 5.95033 -3.54835 0
M  V30 5296 N 523.38 4.91469 -2.72791 0
M  V30 5297 H 515.531 1.15168 -1.78466 0
M  V30 5298 H 517.794 0.565443 -0.760906 0
M  V30 5299 H 517.5 2.54266 -2.42985 0
M  V30 5300 H 517.374 3.62226 -1.05225 0
M  V30 5301 H 519.761 2.93127 -0.340713 0
M  V30 5302 H 519.842 1.86517 -1.75057 0
M  V30 5303 H 519.486 3.88557 -3.27087 0
M  V30 5304 H 519.416 4.93634 -1.83394 0
M  V30 5305 H 521.907 3.38162 -1.68687 0
M  V30 5306 H 522.22 6.61357 -3.99784 0
M  V30 5307 H 520.565 5.95135 -3.58942 0
M  V30 5308 H 523.756 4.15048 -2.16456 0
M  V30 5309 H 523.929 5.62439 -3.21818 0
M  V30 5310 N 517.335 0.585699 1.46312 0
M  V30 5311 C 518.751 0.247607 1.57668 0
M  V30 5312 C 518.951 -1.25007 1.58037 0
M  V30 5313 O 518.007 -2.03196 1.49893 0
M  V30 5314 C 519.32 0.899456 2.86933 0
M  V30 5315 C 520.868 0.873326 3.00569 0
M  V30 5316 C 521.343 1.50477 4.32574 0
M  V30 5317 N 522.834 1.46925 4.3928 0
M  V30 5318 C 523.569 1.92719 5.40044 0
M  V30 5319 N 523.065 2.46499 6.47464 0
M  V30 5320 N 524.858 1.83617 5.31264 0
M  V30 5321 H 517.009 1.55841 1.44317 0
M  V30 5322 H 519.272 0.651564 0.688599 0
M  V30 5323 H 518.978 1.95313 2.92482 0
M  V30 5324 H 518.852 0.409476 3.74971 0
M  V30 5325 H 521.239 -0.171736 2.946 0
M  V30 5326 H 521.32 1.40136 2.13999 0
M  V30 5327 H 520.964 2.54905 4.39302 0
M  V30 5328 H 520.894 0.951944 5.17924 0
M  V30 5329 H 523.385 1.07616 3.62253 0
M  V30 5330 H 523.698 2.79291 7.20567 0
M  V30 5331 H 522.043 2.50526 6.48276 0
M  V30 5332 H 525.234 1.41358 4.46246 0
M  V30 5333 H 525.407 2.19622 6.09648 0
M  V30 5334 N 518.813 -1.54241 0.323641 0
M  V30 5335 C 519.776 -2.22997 -0.529602 0
M  V30 5336 C 520.776 -1.22345 -1.04347 0
M  V30 5337 O 521.966 -1.46924 -0.935889 0
M  V30 5338 C 519.098 -2.93409 -1.73562 0
M  V30 5339 H 520.291 -2.99815 0.0714518 0
M  V30 5340 H 517.844 -1.56121 0.0747258 0
M  V30 5341 H 518.579 -2.20729 -2.37591 0
M  V30 5342 H 518.364 -3.67217 -1.37456 0
M  V30 5343 H 519.854 -3.45794 -2.34128 0
M  V30 5344 N 520.291 -0.0518155 -1.57515 0
M  V30 5345 C 521.239 0.940195 -2.12751 0
M  V30 5346 C 522.233 1.3218 -1.05948 0
M  V30 5347 O 523.439 1.30138 -1.24355 0
M  V30 5348 H 519.814 0.321066 -0.680015 0
M  V30 5349 H 521.785 0.449217 -2.94999 0
M  V30 5350 C 520.534 2.2055 -2.68799 0
M  V30 5351 H 519.857 1.92066 -3.50643 0
M  V30 5352 H 521.297 2.88119 -3.11068 0
M  V30 5353 C 519.756 2.95061 -1.62605 0
M  V30 5354 O 520.286 3.88025 -1.03921 0
M  V30 5355 N 518.492 2.57804 -1.34111 0
M  V30 5356 H 518.039 1.82281 -1.8202 0
M  V30 5357 H 517.997 3.07964 -0.632872 0
M  V30 5358 N 521.769 1.56035 0.221574 0
M  V30 5359 C 522.719 1.8881 1.27807 0
M  V30 5360 C 523.703 0.751177 1.42289 0
M  V30 5361 O 524.895 1.01359 1.45104 0
M  V30 5362 C 522.024 2.20828 2.6285 0
M  V30 5363 C 521.11 3.40912 2.52269 0
M  V30 5364 N 521.501 4.59531 2.1134 0
M  V30 5365 C 519.799 3.44526 2.83228 0
M  V30 5366 C 520.5 5.41689 2.1201 0
M  V30 5367 N 519.476 4.814 2.52497 0
M  V30 5368 H 523.278 2.78036 0.952529 0
M  V30 5369 H 520.792 1.566 0.430134 0
M  V30 5370 H 522.789 2.42483 3.39127 0
M  V30 5371 H 521.449 1.32914 2.9625 0
M  V30 5372 H 522.46 4.8469 1.82472 0
M  V30 5373 H 519.137 2.66956 3.21 0
M  V30 5374 H 520.527 6.46643 1.82491 0
M  V30 5375 N 523.247 -0.488276 1.49845 0
M  V30 5376 C 524.494 -1.24157 1.59973 0
M  V30 5377 C 524.822 -1.92293 0.292182 0
M  V30 5378 O 524.077 -1.81942 -0.720813 0
M  V30 5379 C 524.376 -2.32152 2.71735 0
M  V30 5380 C 524.042 -1.81387 4.12807 0
M  V30 5381 C 522.704 -1.67262 4.51195 0
M  V30 5382 C 525.056 -1.43537 5.01045 0
M  V30 5383 C 522.384 -1.13685 5.7558 0
M  V30 5384 C 524.736 -0.914081 6.25961 0
M  V30 5385 C 523.4 -0.759327 6.63167 0
M  V30 5386 H 522.67 -0.454322 0.585383 0
M  V30 5387 H 525.317 -0.540261 1.83721 0
M  V30 5388 H 523.622 -3.08122 2.42008 0
M  V30 5389 H 525.319 -2.90164 2.76778 0
M  V30 5390 H 521.909 -1.93344 3.82513 0
M  V30 5391 H 526.093 -1.53292 4.72033 0
M  V30 5392 H 521.349 -1.00426 6.03096 0
M  V30 5393 H 525.523 -0.612066 6.93705 0
M  V30 5394 H 523.15 -0.342002 7.5943 0
M  V30 5395 N 524.725 -1.39134 -0.740242 0
M  V30 5396 C 525.972 -1.36071 -1.49969 0
M  V30 5397 C 526.3 0.0450245 -1.94448 0
M  V30 5398 O 525.555 1.02482 -1.66721 0
M  V30 5399 C 525.854 -2.27457 -2.75678 0
M  V30 5400 C 525.52 -3.75185 -2.50094 0
M  V30 5401 C 524.182 -4.15439 -2.42825 0
M  V30 5402 C 526.534 -4.68643 -2.28086 0
M  V30 5403 C 523.862 -5.4722 -2.11584 0
M  V30 5404 C 526.214 -6.00695 -1.98363 0
M  V30 5405 C 524.878 -6.40018 -1.8956 0
M  V30 5406 H 524.148 -0.497921 -0.548777 0
M  V30 5407 H 526.795 -1.71599 -0.85007 0
M  V30 5408 H 525.1 -1.8503 -3.45356 0
M  V30 5409 H 526.797 -2.22384 -3.33686 0
M  V30 5410 H 523.387 -3.43279 -2.56627 0
M  V30 5411 H 527.571 -4.3838 -2.32672 0
M  V30 5412 H 522.827 -5.76615 -2.03287 0
M  V30 5413 H 527.001 -6.72644 -1.80341 0
M  V30 5414 H 524.628 -7.42051 -1.65117 0
M  V30 5415 N 526.204 0.969867 -1.24223 0
M  V30 5416 C 527.45 1.71582 -1.09231 0
M  V30 5417 C 527.805 1.88898 0.365432 0
M  V30 5418 O 527.098 1.43781 1.2664 0
M  V30 5419 C 527.292 3.10883 -1.76314 0
M  V30 5420 C 527.121 3.07155 -3.2846 0
M  V30 5421 C 525.891 3.11757 -3.97663 0
M  V30 5422 C 528.089 2.895 -4.25082 0
M  V30 5423 N 526.071 2.98025 -5.36707 0
M  V30 5424 C 527.442 2.84041 -5.51109 0
M  V30 5425 C 529.497 2.74064 -4.15684 0
M  V30 5426 C 528.2 2.64725 -6.68815 0
M  V30 5427 C 530.226 2.56115 -5.33066 0
M  V30 5428 C 529.588 2.51363 -6.58024 0
M  V30 5429 H 525.687 0.636496 -0.454309 0
M  V30 5430 H 528.271 1.15004 -1.57106 0
M  V30 5431 H 526.442 3.65657 -1.30955 0
M  V30 5432 H 528.174 3.74171 -1.54201 0
M  V30 5433 H 524.929 3.20352 -3.48814 0
M  V30 5434 H 525.353 2.94405 -6.09635 0
M  V30 5435 H 529.995 2.76521 -3.19837 0
M  V30 5436 H 527.713 2.61011 -7.64787 0
M  V30 5437 H 531.299 2.45119 -5.27644 0
M  V30 5438 H 530.179 2.37651 -7.47323 0
M  V30 5439 N 527.682 1.05563 1.17022 0
M  V30 5440 C 528.645 0.664098 2.19368 0
M  V30 5441 C 529.645 -0.286358 1.5823 0
M  V30 5442 O 530.835 -0.069728 1.7406 0
M  V30 5443 C 527.967 -0.0239932 3.40892 0
M  V30 5444 H 529.16 1.57 2.55521 0
M  V30 5445 H 526.713 0.849964 1.31169 0
M  V30 5446 H 527.448 -0.942988 3.10287 0
M  V30 5447 H 527.233 0.659351 3.86516 0
M  V30 5448 H 528.723 -0.283909 4.16634 0
M  V30 5449 N 529.16 -1.33526 0.837174 0
M  V30 5450 C 530.108 -2.31168 0.257698 0
M  V30 5451 C 531.102 -1.5806 -0.609388 0
M  V30 5452 O 532.308 -1.72941 -0.499139 0
M  V30 5453 H 528.683 -0.74922 0.0646058 0
M  V30 5454 H 530.654 -2.77552 1.09578 0
M  V30 5455 C 529.403 -3.4326 -0.553887 0
M  V30 5456 H 528.726 -3.99665 0.104008 0
M  V30 5457 H 530.166 -4.13782 -0.925219 0
M  V30 5458 C 528.625 -2.88965 -1.73207 0
M  V30 5459 O 529.155 -2.85013 -2.83073 0
M  V30 5460 N 527.361 -2.45596 -1.55342 0
M  V30 5461 H 526.908 -2.49009 -0.659705 0
M  V30 5462 H 526.866 -2.0962 -2.34322 0
M  V30 5463 N 530.638 -0.59345 -1.46 0
M  V30 5464 C 531.884 -0.0832754 -2.02629 0
M  V30 5465 C 532.217 1.27749 -1.46266 0
M  V30 5466 O 531.492 1.8395 -0.631866 0
M  V30 5467 C 531.775 -0.0290756 -3.60088 0
M  V30 5468 C 531.628 -1.41951 -4.26814 0
M  V30 5469 C 532.947 0.666055 -4.35031 0
M  V30 5470 H 530.066 -0.031736 -0.736316 0
M  V30 5471 H 532.708 -0.762711 -1.74019 0
M  V30 5472 H 530.858 0.549532 -3.84594 0
M  V30 5473 H 532.53 -2.04411 -4.13538 0
M  V30 5474 H 530.773 -1.98422 -3.8576 0
M  V30 5475 H 531.444 -1.33395 -5.3564 0
M  V30 5476 H 533.92 0.174401 -4.15734 0
M  V30 5477 H 532.796 0.673041 -5.44758 0
M  V30 5478 H 533.057 1.72946 -4.06869 0
M  V30 5479 N 532.116 1.54067 -0.331816 0
M  V30 5480 C 533.363 2.00715 0.268269 0
M  V30 5481 C 533.691 1.21986 1.51491 0
M  V30 5482 O 532.946 0.292309 1.93505 0
M  V30 5483 C 533.245 3.51634 0.639392 0
M  V30 5484 C 532.911 4.48018 -0.509019 0
M  V30 5485 C 531.573 4.74089 -0.824209 0
M  V30 5486 C 533.925 5.05237 -1.28003 0
M  V30 5487 C 531.253 5.54637 -1.91298 0
M  V30 5488 C 533.605 5.86972 -2.35895 0
M  V30 5489 C 532.269 6.11342 -2.67987 0
M  V30 5490 H 531.539 0.734469 0.0981667 0
M  V30 5491 H 534.186 1.8596 -0.457304 0
M  V30 5492 H 532.491 3.6416 1.44551 0
M  V30 5493 H 534.188 3.85175 1.11539 0
M  V30 5494 H 530.778 4.27851 -0.253287 0
M  V30 5495 H 534.962 4.8507 -1.04978 0
M  V30 5496 H 530.218 5.71747 -2.16599 0
M  V30 5497 H 534.392 6.30327 -2.96076 0
M  V30 5498 H 532.019 6.73544 -3.5248 0
M  V30 5499 N 533.594 0.0601682 1.57485 0
M  V30 5500 C 534.871 -0.651956 1.84415 0
M  V30 5501 C 535.251 -1.88498 0.950361 0
M  V30 5502 O 534.599 -2.28496 0.0136719 0
M  V30 5503 C 534.809 -1.00069 3.34346 0
M  V30 5504 C 536.157 -1.37915 4.01578 0
M  V30 5505 O 537.181 -1.09277 3.39024 0
M  V30 5506 O 536.04 -1.91399 5.11887 0
M  V30 5507 H 533.134 -0.322668 0.761455 0
M  V30 5508 H 535.68 0.0902159 1.6946 0
M  V30 5509 H 534.452 -0.124463 3.91102 0
M  V30 5510 H 534.075 -1.80001 3.54521 0
M  V30 5511 N 535.072 -1.5615 -0.213296 0
M  V30 5512 C 536.302 -1.83372 -0.951757 0
M  V30 5513 C 536.71 -0.638158 -1.78113 0
M  V30 5514 O 536.053 0.402609 -1.79234 0
M  V30 5515 C 536.115 -3.04444 -1.91192 0
M  V30 5516 C 535.779 -4.39107 -1.26627 0
M  V30 5517 C 536.776 -5.15794 -0.652087 0
M  V30 5518 C 534.461 -4.85834 -1.27556 0
M  V30 5519 C 536.455 -6.37376 -0.055814 0
M  V30 5520 C 534.142 -6.07356 -0.675451 0
M  V30 5521 C 535.14 -6.82967 -0.0666367 0
M  V30 5522 O 534.828 -8.0219 0.524119 0
M  V30 5523 H 534.56 -0.613398 -0.284111 0
M  V30 5524 H 537.114 -2.04096 -0.231112 0
M  V30 5525 H 535.344 -2.79559 -2.67178 0
M  V30 5526 H 537.033 -3.18466 -2.51662 0
M  V30 5527 H 537.799 -4.80796 -0.637172 0
M  V30 5528 H 533.678 -4.26949 -1.73883 0
M  V30 5529 H 537.222 -6.96334 0.420004 0
M  V30 5530 H 533.119 -6.41825 -0.687806 0
M  V30 5531 H 533.887 -8.17426 0.419243 0
M  V30 5532 N 536.55 0.480323 -1.50102 0
M  V30 5533 C 537.497 1.57946 -1.6829 0
M  V30 5534 C 538.467 1.57611 -0.524223 0
M  V30 5535 O 539.652 1.75282 -0.753709 0
M  V30 5536 C 536.792 2.95978 -1.77457 0
M  V30 5537 C 535.905 3.06173 -3.04766 0
M  V30 5538 C 535.04 4.35063 -3.04784 0
M  V30 5539 C 534.079 4.38966 -4.26586 0
M  V30 5540 N 533.216 5.59314 -4.24396 0
M  V30 5541 H 538.056 1.41743 -2.62131 0
M  V30 5542 H 535.593 0.689304 -1.2995 0
M  V30 5543 H 537.551 3.76011 -1.80752 0
M  V30 5544 H 536.181 3.10837 -0.870637 0
M  V30 5545 H 535.233 2.19071 -3.10986 0
M  V30 5546 H 536.545 3.04916 -3.9475 0
M  V30 5547 H 535.699 5.23436 -3.06757 0
M  V30 5548 H 534.438 4.38915 -2.12614 0
M  V30 5549 H 533.443 3.48992 -4.24835 0
M  V30 5550 H 534.668 4.36813 -5.19972 0
M  V30 5551 H 532.614 5.63969 -3.35074 0
M  V30 5552 H 532.531 5.5976 -5.08138 0
M  V30 5553 H 533.799 6.49837 -4.30502 0
M  V30 5554 N 538.028 1.39524 0.732853 0
M  V30 5555 C 538.938 1.40695 1.87729 0
M  V30 5556 C 539.954 0.301496 1.71368 0
M  V30 5557 O 541.13 0.543313 1.93933 0
M  V30 5558 C 538.195 1.25098 3.23344 0
M  V30 5559 C 537.256 2.45634 3.52083 0
M  V30 5560 C 536.489 2.30772 4.81228 0
M  V30 5561 O 536.712 1.31233 5.55098 0
M  V30 5562 O 535.646 3.19799 5.09914 0
M  V30 5563 H 539.472 2.37168 1.89697 0
M  V30 5564 H 537.057 1.20663 0.880959 0
M  V30 5565 H 538.939 1.18541 4.04383 0
M  V30 5566 H 537.614 0.317209 3.22142 0
M  V30 5567 H 536.521 2.57767 2.71122 0
M  V30 5568 H 537.854 3.37712 3.58066 0
M  V30 5569 N 539.506 -0.963266 1.24736 0
M  V30 5570 C 540.469 -2.04013 1.04457 0
M  V30 5571 C 541.469 -1.608 0.000335555 0
M  V30 5572 O 542.659 -1.72515 0.241719 0
M  V30 5573 C 539.791 -3.35858 0.584162 0
M  V30 5574 H 540.984 -2.23436 2.00041 0
M  V30 5575 H 538.537 -1.13914 1.07021 0
M  V30 5576 H 539.272 -3.22128 -0.374673 0
M  V30 5577 H 539.057 -3.68568 1.3379 0
M  V30 5578 H 540.547 -4.1502 0.463451 0
M  V30 5579 N 540.985 -1.06182 -1.16461 0
M  V30 5580 C 541.948 -0.675723 -2.19013 0
M  V30 5581 C 542.948 0.277963 -1.58379 0
M  V30 5582 O 544.138 0.0604962 -1.74095 0
M  V30 5583 C 541.27 0.00591459 -3.40899 0
M  V30 5584 H 542.463 -1.58353 -2.54685 0
M  V30 5585 H 540.016 -0.856908 -1.30716 0
M  V30 5586 H 540.751 0.92652 -3.10783 0
M  V30 5587 H 540.536 -0.67984 -3.86161 0
M  V30 5588 H 542.026 0.26181 -4.16778 0
M  V30 5589 N 542.463 1.3308 -0.844243 0
M  V30 5590 C 543.395 2.27954 -0.238671 0
M  V30 5591 C 544.408 1.51978 0.583665 0
M  V30 5592 O 545.597 1.73731 0.409857 0
M  V30 5593 C 542.697 3.31963 0.682185 0
M  V30 5594 C 541.87 4.37281 -0.101998 0
M  V30 5595 C 540.929 5.20928 0.743022 0
M  V30 5596 O 539.955 5.68914 0.180285 0
M  V30 5597 N 541.157 5.42738 2.0595 0
M  V30 5598 H 543.922 2.8056 -1.05386 0
M  V30 5599 H 541.483 1.4583 -0.70322 0
M  V30 5600 H 543.475 3.84828 1.25259 0
M  V30 5601 H 542.045 2.79594 1.39808 0
M  V30 5602 H 541.265 3.84843 -0.853802 0
M  V30 5603 H 542.553 5.04746 -0.641015 0
M  V30 5604 H 541.951 5.05463 2.54016 0
M  V30 5605 H 540.508 5.98639 2.57827 0
M  V30 5606 N 543.941 0.601185 1.45683 0
M  V30 5607 C 544.851 -0.123395 2.34275 0
M  V30 5608 C 545.867 -0.86702 1.5086 0
M  V30 5609 O 547.043 -0.826049 1.8368 0
M  V30 5610 C 544.108 -1.11237 3.2837 0
M  V30 5611 C 543.169 -0.371405 4.2769 0
M  V30 5612 C 542.402 -1.31327 5.1729 0
M  V30 5613 O 542.625 -2.55078 5.10188 0
M  V30 5614 O 541.559 -0.813811 5.96373 0
M  V30 5615 H 545.385 0.604483 2.97623 0
M  V30 5616 H 542.97 0.361477 1.44961 0
M  V30 5617 H 544.852 -1.68214 3.8637 0
M  V30 5618 H 543.527 -1.82139 2.67595 0
M  V30 5619 H 542.434 0.24067 3.73325 0
M  V30 5620 H 543.767 0.296998 4.91303 0
M  V30 5621 N 545.419 -1.53889 0.339982 0
M  V30 5622 C 546.668 -2.00035 -0.258604 0
M  V30 5623 C 546.981 -1.23179 -1.51942 0
M  V30 5624 O 548.187 -1.59784 -2.19503 0
M  V30 5625 C 546.643 -3.56249 -0.511359 0
M  V30 5626 C 546.251 -4.41957 0.733349 0
M  V30 5627 C 547.995 -4.1082 -1.069 0
M  V30 5628 C 545.902 -5.89673 0.451591 0
M  V30 5629 H 544.832 -0.747284 -0.10041 0
M  V30 5630 H 547.483 -1.77776 0.454758 0
M  V30 5631 H 545.865 -3.7456 -1.28533 0
M  V30 5632 H 547.039 -4.35421 1.50815 0
M  V30 5633 H 545.354 -3.9836 1.21237 0
M  V30 5634 H 547.951 -5.18789 -1.2947 0
M  V30 5635 H 548.294 -3.63817 -2.02343 0
M  V30 5636 H 548.827 -3.96205 -0.355817 0
M  V30 5637 H 545.566 -6.40903 1.37565 0
M  V30 5638 H 545.086 -5.99122 -0.285193 0
M  V30 5639 H 546.765 -6.46965 0.0675067 0
M  V30 5640 N 546.897 -0.0685191 -1.57451 0
M  V30 5641 C 548.174 0.642167 -1.84758 0
M  V30 5642 C 548.554 1.87991 -0.960344 0
M  V30 5643 O 547.902 2.28485 -0.0257894 0
M  V30 5644 C 548.112 0.982946 -3.34872 0
M  V30 5645 C 549.46 1.35784 -4.02303 0
M  V30 5646 O 550.484 1.07477 -3.39598 0
M  V30 5647 O 549.343 1.88681 -5.12895 0
M  V30 5648 H 546.437 0.318625 -0.763156 0
M  V30 5649 H 548.983 -0.0992015 -1.6941 0
M  V30 5650 H 547.755 0.10372 -3.91163 0
M  V30 5651 H 547.378 1.78119 -3.55471 0
M  V30 5652 N 548.375 1.56261 0.205012 0
M  V30 5653 C 549.622 1.8004 0.926927 0
M  V30 5654 C 549.95 0.640086 1.83666 0
M  V30 5655 O 549.205 -0.374702 1.92079 0
M  V30 5656 C 549.504 3.09722 1.78345 0
M  V30 5657 C 549.17 4.39082 1.02555 0
M  V30 5658 C 547.832 4.74226 0.816256 0
M  V30 5659 C 550.184 5.18877 0.491559 0
M  V30 5660 C 547.512 5.86668 0.0613287 0
M  V30 5661 C 549.864 6.32105 -0.250107 0
M  V30 5662 C 548.528 6.6584 -0.470508 0
M  V30 5663 H 547.798 0.658812 0.339187 0
M  V30 5664 H 550.445 1.90515 0.19395 0
M  V30 5665 H 548.75 2.9444 2.5848 0
M  V30 5666 H 550.447 3.25324 2.34446 0
M  V30 5667 H 547.037 4.11497 1.19868 0
M  V30 5668 H 551.221 4.92147 0.640684 0
M  V30 5669 H 546.477 6.11283 -0.119501 0
M  V30 5670 H 550.651 6.93157 -0.671307 0
M  V30 5671 H 548.278 7.5281 -1.05739 0
M  V30 5672 N 549.853 -0.472356 1.50355 0
M  V30 5673 C 551.1 -1.22453 1.61281 0
M  V30 5674 C 551.428 -1.91972 0.31256 0
M  V30 5675 O 550.683 -1.82696 -0.701475 0
M  V30 5676 C 550.982 -2.29257 2.74182 0
M  V30 5677 C 550.648 -1.76999 4.14708 0
M  V30 5678 C 549.31 -1.62467 4.52944 0
M  V30 5679 C 551.662 -1.38215 5.0254 0
M  V30 5680 C 548.99 -1.07574 5.76754 0
M  V30 5681 C 551.342 -0.847638 6.26895 0
M  V30 5682 C 550.006 -0.688946 6.63935 0
M  V30 5683 H 549.276 -0.448087 0.590168 0
M  V30 5684 H 551.923 -0.520744 1.84284 0
M  V30 5685 H 550.228 -3.05538 2.45263 0
M  V30 5686 H 551.925 -2.87212 2.7984 0
M  V30 5687 H 548.515 -1.89276 3.84542 0
M  V30 5688 H 552.699 -1.48276 4.73633 0
M  V30 5689 H 547.955 -0.940237 6.04127 0
M  V30 5690 H 552.129 -0.538455 6.94315 0
M  V30 5691 H 549.756 -0.261435 7.5975 0
M  V30 5692 N 551.331 -1.39911 -0.725443 0
M  V30 5693 C 552.608 -1.28158 -1.47766 0
M  V30 5694 C 552.988 0.104545 -2.10841 0
M  V30 5695 O 552.336 1.11657 -1.99361 0
M  V30 5696 C 552.546 -2.41306 -2.52135 0
M  V30 5697 C 553.894 -2.81076 -3.18247 0
M  V30 5698 O 554.918 -2.40827 -2.62452 0
M  V30 5699 O 553.777 -3.50581 -4.19231 0
M  V30 5700 H 550.871 -0.502761 -0.656628 0
M  V30 5701 H 553.417 -1.51808 -0.758456 0
M  V30 5702 H 552.189 -3.33932 -2.03974 0
M  V30 5703 H 551.812 -2.19374 -3.31603 0
M  V30 5704 N 552.809 0.956637 -1.25245 0
M  V30 5705 C 554.056 1.701 -1.09874 0
M  V30 5706 C 554.384 1.91128 0.36062 0
M  V30 5707 O 553.639 1.47837 1.28229 0
M  V30 5708 C 553.938 3.08996 -1.79601 0
M  V30 5709 C 553.604 3.07774 -3.29523 0
M  V30 5710 C 552.266 3.07149 -3.70423 0
M  V30 5711 C 554.618 3.01257 -4.25316 0
M  V30 5712 C 551.946 2.97752 -5.0553 0
M  V30 5713 C 554.298 2.93403 -5.60444 0
M  V30 5714 C 552.962 2.91111 -6.00675 0
M  V30 5715 H 552.232 0.62244 -0.402056 0
M  V30 5716 H 554.879 1.1178 -1.55491 0
M  V30 5717 H 553.184 3.70848 -1.26408 0
M  V30 5718 H 554.881 3.65407 -1.65162 0
M  V30 5719 H 551.471 3.09032 -2.9698 0
M  V30 5720 H 555.655 3.00861 -3.9471 0
M  V30 5721 H 550.911 2.94346 -5.35883 0
M  V30 5722 H 555.085 2.87321 -6.34366 0
M  V30 5723 H 552.712 2.83586 -7.05325 0
M  V30 5724 N 554.287 1.06798 1.15896 0
M  V30 5725 C 555.703 0.792423 1.38538 0
M  V30 5726 C 555.903 -0.60592 1.92174 0
M  V30 5727 O 554.959 -1.36561 2.12385 0
M  V30 5728 C 556.272 1.86157 2.36149 0
M  V30 5729 C 557.82 1.88567 2.49823 0
M  V30 5730 C 558.295 2.9455 3.5072 0
M  V30 5731 N 559.786 2.93616 3.58251 0
M  V30 5732 C 560.521 3.72267 4.36125 0
M  V30 5733 N 560.017 4.60751 5.17379 0
M  V30 5734 N 561.81 3.60637 4.31158 0
M  V30 5735 H 553.961 1.96993 0.794198 0
M  V30 5736 H 556.224 0.853942 0.411688 0
M  V30 5737 H 555.93 2.86603 2.03843 0
M  V30 5738 H 555.804 1.71692 3.3586 0
M  V30 5739 H 558.191 0.887765 2.8143 0
M  V30 5740 H 558.272 2.0711 1.5013 0
M  V30 5741 H 557.916 3.94537 3.19849 0
M  V30 5742 H 557.846 2.73255 4.50155 0
M  V30 5743 H 560.337 2.29472 3.00252 0
M  V30 5744 H 560.65 5.17408 5.74028 0
M  V30 5745 H 558.995 4.64803 5.16704 0
M  V30 5746 H 562.186 2.90892 3.66742 0
M  V30 5747 H 562.359 4.22176 4.91601 0
M  V30 5748 N 555.766 -1.3263 0.851289 0
M  V30 5749 C 556.716 -2.26451 0.265302 0
M  V30 5750 C 557.7 -1.49814 -0.586899 0
M  V30 5751 O 558.892 -1.71525 -0.436834 0
M  V30 5752 C 556.021 -3.38895 -0.548212 0
M  V30 5753 C 555.107 -4.2292 0.316189 0
M  V30 5754 N 555.498 -4.86014 1.40084 0
M  V30 5755 C 553.796 -4.45876 0.105356 0
M  V30 5756 C 554.497 -5.48667 1.93235 0
M  V30 5757 N 553.473 -5.29455 1.232 0
M  V30 5758 H 557.275 -2.72757 1.09457 0
M  V30 5759 H 554.789 -1.4668 0.697047 0
M  V30 5760 H 556.786 -4.05111 -0.984402 0
M  V30 5761 H 555.446 -2.94135 -1.37531 0
M  V30 5762 H 556.457 -4.86212 1.78377 0
M  V30 5763 H 553.134 -4.11804 -0.687299 0
M  V30 5764 H 554.524 -6.08865 2.84135 0
M  V30 5765 N 557.244 -0.608902 -1.45362 0
M  V30 5766 C 558.207 0.0992563 -2.28985 0
M  V30 5767 C 559.207 0.793841 -1.39838 0
M  V30 5768 O 560.397 0.641804 -1.61946 0
M  V30 5769 C 557.529 1.15073 -3.20891 0
M  V30 5770 H 558.722 -0.635964 -2.93079 0
M  V30 5771 H 556.275 -0.368007 -1.51906 0
M  V30 5772 H 557.01 1.91667 -2.616 0
M  V30 5773 H 556.795 0.656867 -3.86559 0
M  V30 5774 H 558.285 1.64665 -3.83765 0
M  V30 5775 N 558.722 1.53707 -0.348139 0
M  V30 5776 C 559.95 2.05406 0.248224 0
M  V30 5777 C 560.365 1.22282 1.43849 0
M  V30 5778 O 559.722 0.259244 1.80649 0
M  V30 5779 C 559.773 3.55446 0.658793 0
M  V30 5780 O 559.494 4.35417 -0.484149 0
M  V30 5781 C 560.995 4.23335 1.31539 0
M  V30 5782 H 558.215 0.669344 0.0471075 0
M  V30 5783 H 560.759 1.98257 -0.501456 0
M  V30 5784 H 558.914 3.62803 1.35841 0
M  V30 5785 H 559.328 5.24268 -0.155949 0
M  V30 5786 H 560.802 5.29692 1.55338 0
M  V30 5787 H 561.279 3.75967 2.27036 0
M  V30 5788 H 561.885 4.20184 0.657683 0
M  V30 5789 N 560.2 0.0768682 1.57412 0
M  V30 5790 C 561.428 -0.59997 1.9801 0
M  V30 5791 C 561.843 -1.62842 0.955408 0
M  V30 5792 O 561.2 -1.8241 -0.057314 0
M  V30 5793 C 561.251 -1.26401 3.38681 0
M  V30 5794 O 560.972 -0.276723 4.37225 0
M  V30 5795 C 562.473 -2.0282 3.94182 0
M  V30 5796 H 559.693 -0.162239 0.651091 0
M  V30 5797 H 562.237 0.150771 2.03943 0
M  V30 5798 H 560.392 -1.96581 3.33819 0
M  V30 5799 H 560.806 -0.753744 5.19056 0
M  V30 5800 H 562.28 -2.44667 4.94815 0
M  V30 5801 H 562.757 -2.88678 3.31001 0
M  V30 5802 H 563.363 -1.37496 4.02461 0
M  V30 5803 N 561.678 -1.56367 -0.196722 0
M  V30 5804 C 562.926 -1.80172 -0.915554 0
M  V30 5805 C 563.247 -0.649649 -1.8386 0
M  V30 5806 O 562.517 0.332111 -1.93064 0
M  V30 5807 H 561.097 -0.664592 -0.341067 0
M  V30 5808 H 563.759 -1.93844 -0.202622 0
M  V30 5809 H 562.855 -2.7327 -1.50764 0
M  V30 5810 N 563.156 0.464375 -1.50603 0
M  V30 5811 C 564.119 1.54393 -1.69397 0
M  V30 5812 C 565.119 1.50566 -0.564504 0
M  V30 5813 O 566.309 1.53066 -0.831645 0
M  V30 5814 C 563.441 2.9401 -1.72543 0
M  V30 5815 H 564.634 1.39044 -2.65719 0
M  V30 5816 H 562.187 0.69122 -1.40185 0
M  V30 5817 H 562.922 3.14795 -0.77938 0
M  V30 5818 H 562.707 2.98195 -2.54602 0
M  V30 5819 H 564.197 3.72375 -1.89015 0
M  V30 5820 N 564.634 1.40294 0.718013 0
M  V30 5821 C 565.597 1.4012 1.81381 0
M  V30 5822 C 566.597 0.295405 1.58063 0
M  V30 5823 O 567.787 0.554187 1.6515 0
M  V30 5824 C 564.919 1.19056 3.19435 0
M  V30 5825 H 566.112 2.37645 1.82933 0
M  V30 5826 H 563.665 1.26107 0.923405 0
M  V30 5827 H 564.4 0.222809 3.23534 0
M  V30 5828 H 564.185 1.99152 3.37758 0
M  V30 5829 H 565.675 1.21716 3.99468 0
M  V30 5830 N 566.112 -0.949982 1.2575 0
M  V30 5831 C 567.042 -2.06483 1.09028 0
M  V30 5832 C 568.023 -1.701 -0.00201532 0
M  V30 5833 O 569.208 -1.93469 0.168383 0
M  V30 5834 C 566.338 -3.39899 0.71316 0
M  V30 5835 C 565.292 -3.90309 1.75621 0
M  V30 5836 C 564.618 -5.20274 1.23365 0
M  V30 5837 C 565.918 -4.16169 3.15596 0
M  V30 5838 H 567.612 -2.20731 2.02283 0
M  V30 5839 H 565.158 -1.06066 0.973964 0
M  V30 5840 H 567.111 -4.17346 0.58309 0
M  V30 5841 H 565.835 -3.25602 -0.255091 0
M  V30 5842 H 564.494 -3.15035 1.8748 0
M  V30 5843 H 564.142 -5.02351 0.255491 0
M  V30 5844 H 563.842 -5.54971 1.93082 0
M  V30 5845 H 565.366 -6.00314 1.11607 0
M  V30 5846 H 566.78 -4.84259 3.06864 0
M  V30 5847 H 565.177 -4.62131 3.82825 0
M  V30 5848 H 566.247 -3.22273 3.6231 0
M  V30 5849 N 567.59 -1.07411 -1.15328 0
M  V30 5850 C 569.001 -0.820261 -1.67716 0
M  V30 5851 C 569.352 0.654539 -1.8496 0
M  V30 5852 O 568.477 1.50664 -1.55337 0
M  V30 5853 C 569.072 -1.48242 -3.04647 0
M  V30 5854 C 567.631 -1.27606 -3.5411 0
M  V30 5855 C 566.778 -1.5517 -2.29821 0
M  V30 5856 H 569.729 -1.23608 -0.995332 0
M  V30 5857 H 569.75 -0.903984 -3.69606 0
M  V30 5858 H 569.262 -2.55578 -2.92064 0
M  V30 5859 H 567.363 -0.222948 -3.71932 0
M  V30 5860 H 567.476 -1.99667 -4.35511 0
M  V30 5861 H 565.84 -0.972747 -2.35393 0
M  V30 5862 H 566.623 -2.63689 -2.19824 0
M  V30 5863 N 569.068 1.32177 -0.85831 0
M  V30 5864 C 570.015 2.28794 -0.303607 0
M  V30 5865 C 570.985 1.55213 0.591453 0
M  V30 5866 O 572.17 1.83418 0.525585 0
M  V30 5867 C 569.31 3.41475 0.49889 0
M  V30 5868 C 568.423 4.2993 -0.422373 0
M  V30 5869 C 567.558 5.29743 0.393111 0
M  V30 5870 C 566.597 6.09842 -0.525317 0
M  V30 5871 N 565.734 7.01643 0.253208 0
M  V30 5872 H 570.574 2.75631 -1.13276 0
M  V30 5873 H 568.111 1.35606 -0.570026 0
M  V30 5874 H 570.069 4.05531 0.979826 0
M  V30 5875 H 568.699 2.95779 1.29284 0
M  V30 5876 H 567.751 3.66422 -1.02171 0
M  V30 5877 H 569.063 4.85899 -1.12709 0
M  V30 5878 H 568.217 5.9942 0.937056 0
M  V30 5879 H 566.956 4.744 1.13117 0
M  V30 5880 H 565.961 5.39066 -1.08112 0
M  V30 5881 H 567.186 6.6727 -1.26205 0
M  V30 5882 H 565.132 6.48725 0.974295 0
M  V30 5883 H 565.049 7.54981 -0.392398 0
M  V30 5884 H 566.317 7.756 0.778761 0
M  V30 5885 N 570.547 0.616602 1.45037 0
M  V30 5886 C 571.477 -0.0840787 2.33349 0
M  V30 5887 C 572.458 -0.849641 1.4736 0
M  V30 5888 O 573.643 -0.818407 1.76113 0
M  V30 5889 C 570.773 -1.07604 3.3021 0
M  V30 5890 C 569.727 -0.423096 4.25904 0
M  V30 5891 C 569.053 -1.52394 5.12523 0
M  V30 5892 C 570.353 0.661457 5.18095 0
M  V30 5893 H 572.047 0.653333 2.92185 0
M  V30 5894 H 569.593 0.315634 1.40498 0
M  V30 5895 H 571.546 -1.57485 3.90866 0
M  V30 5896 H 570.27 -1.84416 2.69552 0
M  V30 5897 H 568.929 0.05493 3.66559 0
M  V30 5898 H 568.577 -2.28257 4.48227 0
M  V30 5899 H 568.277 -1.09251 5.77354 0
M  V30 5900 H 569.801 -2.02485 5.76049 0
M  V30 5901 H 571.215 0.246353 5.7277 0
M  V30 5902 H 569.612 1.01517 5.91451 0
M  V30 5903 H 570.682 1.53446 4.59981 0
M  V30 5904 N 572.025 -1.5352 0.356285 0
M  V30 5905 C 572.957 -2.23009 -0.529127 0
M  V30 5906 C 573.97 -1.241 -1.05371 0
M  V30 5907 O 575.159 -1.50379 -0.961679 0
M  V30 5908 C 572.259 -2.90685 -1.74229 0
M  V30 5909 C 571.432 -4.16019 -1.35081 0
M  V30 5910 C 570.491 -4.66989 -2.42502 0
M  V30 5911 O 569.517 -5.30895 -2.05279 0
M  V30 5912 N 570.719 -4.44006 -3.7395 0
M  V30 5913 H 573.484 -2.99627 0.0660501 0
M  V30 5914 H 571.045 -1.60885 0.181014 0
M  V30 5915 H 573.037 -3.21695 -2.4555 0
M  V30 5916 H 571.607 -2.17575 -2.24454 0
M  V30 5917 H 570.827 -3.91414 -0.467833 0
M  V30 5918 H 572.115 -4.9752 -1.06542 0
M  V30 5919 H 571.513 -3.92924 -4.06973 0
M  V30 5920 H 570.07 -4.7959 -4.41403 0
M  V30 5921 N 573.503 -0.0852151 -1.57369 0
M  V30 5922 C 574.453 0.88767 -2.10011 0
M  V30 5923 C 575.437 1.25021 -1.01285 0
M  V30 5924 O 576.629 1.22694 -1.27574 0
M  V30 5925 C 573.758 2.15037 -2.67608 0
M  V30 5926 C 572.844 1.81371 -3.83361 0
M  V30 5927 N 573.235 1.18216 -4.91791 0
M  V30 5928 C 571.533 2.11041 -3.92909 0
M  V30 5929 C 572.234 1.02941 -5.72519 0
M  V30 5930 N 571.21 1.54351 -5.21226 0
M  V30 5931 H 575.012 0.395279 -2.9123 0
M  V30 5932 H 572.526 0.11829 -1.61969 0
M  V30 5933 H 574.523 2.85667 -3.03644 0
M  V30 5934 H 573.183 2.64851 -1.8784 0
M  V30 5935 H 574.194 0.850168 -5.10874 0
M  V30 5936 H 570.871 2.63138 -3.24136 0
M  V30 5937 H 572.261 0.536298 -6.69756 0
M  V30 5938 N 574.981 1.5647 0.188427 0
M  V30 5939 C 576.392 1.70864 0.752494 0
M  V30 5940 C 576.743 0.692905 1.83557 0
M  V30 5941 O 575.868 -0.149307 2.15884 0
M  V30 5942 C 576.463 3.09789 1.37173 0
M  V30 5943 C 575.022 3.25925 1.88281 0
M  V30 5944 C 574.169 2.66817 0.755259 0
M  V30 5945 H 577.12 1.58657 -0.0367408 0
M  V30 5946 H 577.141 3.07489 2.24122 0
M  V30 5947 H 576.653 3.83693 0.583219 0
M  V30 5948 H 574.754 2.56948 2.6983 0
M  V30 5949 H 574.867 4.33498 2.04001 0
M  V30 5950 H 573.231 2.2617 1.17128 0
M  V30 5951 H 574.014 3.43294 -0.0211237 0
M  V30 5952 N 576.459 -0.456382 1.50847 0
M  V30 5953 C 577.369 -1.57805 1.73594 0
M  V30 5954 C 578.385 -1.62599 0.619476 0
M  V30 5955 O 579.561 -1.80195 0.899532 0
M  V30 5956 C 576.626 -2.93926 1.8387 0
M  V30 5957 C 575.687 -2.99402 3.07663 0
M  V30 5958 C 574.92 -4.29031 3.1744 0
M  V30 5959 O 575.143 -5.20358 2.33631 0
M  V30 5960 O 574.077 -4.40401 4.10281 0
M  V30 5961 H 577.903 -1.41531 2.68705 0
M  V30 5962 H 575.488 -0.637422 1.3512 0
M  V30 5963 H 577.37 -3.74747 1.92725 0
M  V30 5964 H 576.045 -3.10368 0.91944 0
M  V30 5965 H 574.952 -2.17606 3.043 0
M  V30 5966 H 576.285 -2.87901 3.99216 0
M  V30 5967 N 577.937 -1.40673 -0.710563 0
M  V30 5968 C 578.9 -1.4108 -1.80635 0
M  V30 5969 C 579.9 -0.303783 -1.57904 0
M  V30 5970 O 581.09 -0.562937 -1.64853 0
M  V30 5971 C 578.222 -1.20748 -3.18799 0
M  V30 5972 H 579.415 -2.38612 -1.81671 0
M  V30 5973 H 576.968 -1.26595 -0.916704 0
M  V30 5974 H 577.703 -0.239964 -3.23411 0
M  V30 5975 H 577.488 -2.00941 -3.36698 0
M  V30 5976 H 578.978 -1.23833 -3.98817 0
M  V30 5977 N 579.415 0.9433 -1.26252 0
M  V30 5978 C 580.325 2.07532 -1.09397 0
M  V30 5979 C 581.341 1.73977 -0.0280449 0
M  V30 5980 O 582.517 2.00067 -0.231337 0
M  V30 5981 C 579.582 3.39002 -0.726523 0
M  V30 5982 C 578.643 3.86353 -1.87163 0
M  V30 5983 C 577.876 5.11549 -1.52162 0
M  V30 5984 O 578.099 5.68834 -0.422385 0
M  V30 5985 O 577.033 5.53889 -2.35565 0
M  V30 5986 H 580.859 2.24658 -2.04359 0
M  V30 5987 H 578.444 1.05988 -1.05295 0
M  V30 5988 H 580.326 4.18 -0.534236 0
M  V30 5989 H 579.001 3.2312 0.193721 0
M  V30 5990 H 577.908 3.0831 -2.11886 0
M  V30 5991 H 579.241 4.06752 -2.77152 0
M  V30 5992 N 580.893 1.08022 1.14757 0
M  V30 5993 C 582.121 0.828847 1.89572 0
M  V30 5994 C 582.536 -0.618621 1.78377 0
M  V30 5995 O 581.893 -1.42482 1.1404 0
M  V30 5996 C 581.944 1.23677 3.39685 0
M  V30 5997 O 581.665 2.62746 3.50566 0
M  V30 5998 C 583.166 1.01569 4.31507 0
M  V30 5999 H 580.386 0.299196 0.600602 0
M  V30 6000 H 582.93 1.43846 1.45357 0
M  V30 6001 H 581.085 0.671347 3.81539 0
M  V30 6002 H 581.499 2.79573 4.43778 0
M  V30 6003 H 582.973 1.35055 5.35223 0
M  V30 6004 H 583.45 -0.0475433 4.39174 0
M  V30 6005 H 584.056 1.56636 3.95405 0
M  V30 6006 N 582.371 -1.3172 0.865308 0
M  V30 6007 C 583.618 -1.96876 0.473931 0
M  V30 6008 C 583.946 -1.68425 -0.972786 0
M  V30 6009 O 583.201 -0.970742 -1.69927 0
M  V30 6010 C 583.5 -3.5102 0.672283 0
M  V30 6011 C 583.166 -3.9948 2.09108 0
M  V30 6012 C 581.828 -4.12425 2.4791 0
M  V30 6013 C 584.18 -4.2503 3.0166 0
M  V30 6014 C 581.508 -4.48267 3.78515 0
M  V30 6015 C 583.86 -4.62335 4.31774 0
M  V30 6016 C 582.524 -4.73486 4.70497 0
M  V30 6017 H 581.794 -0.72042 0.173424 0
M  V30 6018 H 584.441 -1.56937 1.0974 0
M  V30 6019 H 582.746 -3.91785 -0.034356 0
M  V30 6020 H 584.443 -3.99475 0.349353 0
M  V30 6021 H 581.033 -3.89898 1.77981 0
M  V30 6022 H 585.217 -4.14529 2.7291 0
M  V30 6023 H 580.473 -4.55097 4.08285 0
M  V30 6024 H 584.647 -4.81058 5.03543 0
M  V30 6025 H 582.274 -5.01016 5.71741 0
M  V30 6026 N 583.85 -0.624285 -1.44708 0
M  V30 6027 C 585.096 -0.13473 -2.02953 0
M  V30 6028 C 585.451 1.22724 -1.48178 0
M  V30 6029 O 584.744 1.80109 -0.653542 0
M  V30 6030 C 584.938 -0.0546353 -3.57358 0
M  V30 6031 C 584.767 -1.40729 -4.27113 0
M  V30 6032 C 583.537 -1.99231 -4.64365 0
M  V30 6033 C 585.735 -2.33968 -4.58 0
M  V30 6034 N 583.716 -3.27803 -5.19055 0
M  V30 6035 C 585.088 -3.47149 -5.137 0
M  V30 6036 C 587.143 -2.33132 -4.39948 0
M  V30 6037 C 585.846 -4.59682 -5.53249 0
M  V30 6038 C 587.872 -3.44724 -4.8054 0
M  V30 6039 C 587.234 -4.56629 -5.36348 0
M  V30 6040 H 583.332 -0.0930617 -0.776443 0
M  V30 6041 H 585.917 -0.826286 -1.76297 0
M  V30 6042 H 584.088 0.606183 -3.8364 0
M  V30 6043 H 585.82 0.443116 -4.02267 0
M  V30 6044 H 582.575 -1.52251 -4.4846 0
M  V30 6045 H 582.999 -3.93519 -5.50883 0
M  V30 6046 H 587.641 -1.47868 -3.961 0
M  V30 6047 H 585.359 -5.4566 -5.96054 0
M  V30 6048 H 588.945 -3.45245 -4.68291 0
M  V30 6049 H 587.825 -5.41551 -5.67179 0
M  V30 6050 N 585.328 1.53329 -0.364422 0
M  V30 6051 C 586.576 2.00842 0.225189 0
M  V30 6052 C 586.897 1.25345 1.49378 0
M  V30 6053 O 586.167 0.366396 1.92443 0
M  V30 6054 H 584.747 0.742009 0.0862027 0
M  V30 6055 H 587.409 1.8863 -0.490389 0
M  V30 6056 H 586.505 3.08795 0.452987 0
M  V30 6057 N 586.806 0.0935595 1.57322 0
M  V30 6058 C 588.031 -0.582324 1.99057 0
M  V30 6059 C 588.456 -1.61025 0.972242 0
M  V30 6060 O 587.814 -1.81202 -0.0594622 0
M  V30 6061 C 587.862 -1.20799 3.39765 0
M  V30 6062 O 586.966 -2.32382 3.40694 0
M  V30 6063 H 586.307 -0.147884 0.647323 0
M  V30 6064 H 588.837 0.174516 2.03854 0
M  V30 6065 H 588.847 -1.54966 3.77425 0
M  V30 6066 H 587.522 -0.454914 4.13405 0
M  V30 6067 H 586.099 -1.99845 3.14827 0
M  V30 6068 N 588.284 -1.56567 -0.180126 0
M  V30 6069 C 589.53 -1.81761 -0.899497 0
M  V30 6070 C 589.863 -0.670015 -1.82276 0
M  V30 6071 O 589.138 0.328575 -1.91705 0
M  V30 6072 C 589.421 -3.17296 -1.7028 0
M  V30 6073 C 589.274 -4.4257 -0.803255 0
M  V30 6074 C 590.593 -3.49678 -2.67233 0
M  V30 6075 H 587.712 -0.661192 -0.325567 0
M  V30 6076 H 590.354 -1.89272 -0.16612 0
M  V30 6077 H 588.504 -3.11023 -2.32802 0
M  V30 6078 H 590.176 -4.60902 -0.191585 0
M  V30 6079 H 588.419 -4.33658 -0.110796 0
M  V30 6080 H 589.09 -5.33935 -1.40064 0
M  V30 6081 H 591.566 -3.56347 -2.14839 0
M  V30 6082 H 590.442 -4.45605 -3.20511 0
M  V30 6083 H 590.703 -2.73932 -3.47007 0
M  V30 6084 N 589.762 0.448376 -1.51087 0
M  V30 6085 C 590.712 1.54156 -1.67988 0
M  V30 6086 C 591.696 1.5178 -0.534015 0
M  V30 6087 O 592.888 1.58419 -0.789448 0
M  V30 6088 C 590.017 2.92437 -1.79822 0
M  V30 6089 C 589.103 2.99611 -3.00157 0
M  V30 6090 N 589.494 2.7655 -4.23502 0
M  V30 6091 C 587.792 3.30764 -2.99184 0
M  V30 6092 C 588.493 2.89281 -5.0467 0
M  V30 6093 N 587.469 3.20473 -4.39088 0
M  V30 6094 H 591.271 1.35061 -2.61028 0
M  V30 6095 H 588.785 0.655504 -1.48583 0
M  V30 6096 H 590.782 3.71068 -1.90037 0
M  V30 6097 H 589.442 3.1256 -0.879554 0
M  V30 6098 H 590.453 2.5169 -4.52628 0
M  V30 6099 H 587.13 3.56732 -2.16907 0
M  V30 6100 H 588.52 2.75499 -6.12821 0
M  V30 6101 N 591.24 1.41047 0.703093 0
M  V30 6102 C 592.15 1.44645 1.84703 0
M  V30 6103 C 593.166 0.337778 1.7069 0
M  V30 6104 O 594.342 0.584327 1.92737 0
M  V30 6105 C 591.407 1.31928 3.20618 0
M  V30 6106 C 590.468 2.53047 3.46794 0
M  V30 6107 C 589.701 2.40927 4.76224 0
M  V30 6108 O 589.924 1.42978 5.5219 0
M  V30 6109 O 588.858 3.30543 5.03016 0
M  V30 6110 H 592.684 2.41139 1.84624 0
M  V30 6111 H 590.269 1.22504 0.855167 0
M  V30 6112 H 592.151 1.27092 4.01778 0
M  V30 6113 H 590.826 0.385469 3.21397 0
M  V30 6114 H 589.733 2.6346 2.65593 0
M  V30 6115 H 591.066 3.45231 3.50822 0
M  V30 6116 N 592.718 -0.936591 1.26751 0
M  V30 6117 C 594.134 -1.21095 1.03963 0
M  V30 6118 C 594.334 -2.00156 -0.232372 0
M  V30 6119 O 593.39 -2.3434 -0.940274 0
M  V30 6120 C 594.703 -1.96775 2.27377 0
M  V30 6121 C 596.251 -2.09749 2.32324 0
M  V30 6122 C 596.726 -2.88832 3.55443 0
M  V30 6123 N 598.217 -2.96404 3.55948 0
M  V30 6124 C 598.952 -3.58036 4.47881 0
M  V30 6125 N 598.448 -4.21132 5.50109 0
M  V30 6126 N 600.241 -3.55353 4.35523 0
M  V30 6127 H 592.392 -0.408173 2.08441 0
M  V30 6128 H 594.655 -0.243139 0.91629 0
M  V30 6129 H 594.361 -1.46094 3.19921 0
M  V30 6130 H 594.235 -2.97424 2.31989 0
M  V30 6131 H 596.622 -2.5962 1.40291 0
M  V30 6132 H 596.703 -1.08347 2.31721 0
M  V30 6133 H 596.347 -2.39647 4.47808 0
M  V30 6134 H 596.277 -3.90499 3.53296 0
M  V30 6135 H 598.768 -2.51552 2.82011 0
M  V30 6136 H 599.081 -4.66071 6.16439 0
M  V30 6137 H 597.426 -4.19705 5.53961 0
M  V30 6138 H 600.617 -3.05256 3.54875 0
M  V30 6139 H 600.79 -4.03097 5.07363 0
M  V30 6140 N 594.196 -1.08629 -1.14182 0
M  V30 6141 C 595.144 -0.71284 -2.21408 0
M  V30 6142 C 596.138 0.282457 -1.67029 0
M  V30 6143 O 597.344 0.144783 -1.79417 0
M  V30 6144 H 593.719 -0.212497 -0.721352 0
M  V30 6145 H 595.69 -1.6265 -2.50175 0
M  V30 6146 C 594.439 -0.140704 -3.47415 0
M  V30 6147 H 593.762 -0.897739 -3.8959 0
M  V30 6148 H 595.202 0.0827677 -4.23919 0
M  V30 6149 C 593.661 1.122 -3.17668 0
M  V30 6150 O 594.191 2.20652 -3.35672 0
M  V30 6151 N 592.397 1.03328 -2.71609 0
M  V30 6152 H 591.944 0.150666 -2.57159 0
M  V30 6153 H 591.902 1.8789 -2.52081 0
M  V30 6154 N 595.674 1.31259 -0.872281 0
M  V30 6155 C 596.922 1.96233 -0.483409 0
M  V30 6156 C 597.243 1.69276 0.968012 0
M  V30 6157 O 596.513 1.00943 1.67891 0
M  V30 6158 H 595.093 0.726025 -0.175774 0
M  V30 6159 H 597.755 1.60024 -1.11258 0
M  V30 6160 H 596.851 3.05403 -0.643075 0
M  V30 6161 N 597.152 0.631951 1.44375 0
M  V30 6162 C 598.398 0.13697 2.02337 0
M  V30 6163 C 598.731 -1.23826 1.49602 0
M  V30 6164 O 598.006 -1.8221 0.680415 0
M  V30 6165 C 598.289 0.124536 3.59885 0
M  V30 6166 C 598.142 1.53217 4.229 0
M  V30 6167 C 599.461 -0.550481 4.36644 0
M  V30 6168 H 596.58 0.051247 0.735216 0
M  V30 6169 H 599.222 0.808581 1.71936 0
M  V30 6170 H 597.372 -0.44737 3.85916 0
M  V30 6171 H 599.044 2.15303 4.07973 0
M  V30 6172 H 597.287 2.0858 3.80364 0
M  V30 6173 H 597.958 1.4755 5.31914 0
M  V30 6174 H 600.434 -0.0641154 4.16051 0
M  V30 6175 H 599.31 -0.528371 5.46351 0
M  V30 6176 H 599.571 -1.62097 4.11311 0
M  V30 6177 N 598.631 -1.53133 0.372548 0
M  V30 6178 C 599.594 -2.24569 -0.458389 0
M  V30 6179 C 600.594 -1.25603 -1.00402 0
M  V30 6180 O 601.784 -1.49827 -0.888672 0
M  V30 6181 C 598.916 -2.98783 -1.6414 0
M  V30 6182 H 600.109 -2.99436 0.166799 0
M  V30 6183 H 597.662 -1.55805 0.124357 0
M  V30 6184 H 598.397 -2.28176 -2.30448 0
M  V30 6185 H 598.182 -3.71404 -1.25704 0
M  V30 6186 H 599.672 -3.53068 -2.23008 0
M  V30 6187 N 600.109 -0.101901 -1.5727 0
M  V30 6188 C 601.349 0.563489 -1.96479 0
M  V30 6189 C 601.713 1.64926 -0.983021 0
M  V30 6190 O 602.914 2.37234 -1.26386 0
M  V30 6191 C 601.185 1.09809 -3.40113 0
M  V30 6192 S 602.744 1.7744 -4.01323 0
M  V30 6193 H 599.562 0.183675 -0.686866 0
M  V30 6194 H 602.164 -0.182922 -1.94642 0
M  V30 6195 H 600.868 0.296447 -4.09328 0
M  V30 6196 H 600.399 1.88018 -3.45562 0
M  V30 6197 H 602.414 3.0591 -3.90683 0
M  V30 6198 N 601.587 1.56661 0.17182 0
M  V30 6199 C 602.55 1.9549 1.19651 0
M  V30 6200 C 603.55 0.838501 1.37207 0
M  V30 6201 O 604.74 1.10556 1.34622 0
M  V30 6202 C 601.872 2.24927 2.56166 0
M  V30 6203 H 603.065 2.87184 0.864007 0
M  V30 6204 H 600.618 1.50711 0.41425 0
M  V30 6205 H 601.353 1.35944 2.94431 0
M  V30 6206 H 601.138 3.06301 2.4479 0
M  V30 6207 H 602.628 2.55891 3.30014 0
M  V30 6208 N 603.065 -0.440357 1.51323 0
M  V30 6209 C 604.342 -1.20109 1.5438 0
M  V30 6210 C 604.722 -2.08866 0.306303 0
M  V30 6211 O 604.07 -2.1723 -0.708773 0
M  V30 6212 C 604.28 -2.00555 2.8562 0
M  V30 6213 C 605.628 -2.577 3.37455 0
M  V30 6214 O 606.652 -2.10769 2.8715 0
M  V30 6215 O 605.511 -3.43289 4.25224 0
M  V30 6216 H 602.605 -0.546668 0.620551 0
M  V30 6217 H 605.151 -0.449672 1.63634 0
M  V30 6218 H 603.923 -1.35346 3.67147 0
M  V30 6219 H 603.546 -2.82768 2.79514 0
M  V30 6220 N 604.543 -1.41418 -0.695603 0
M  V30 6221 C 605.783 -1.42241 -1.46788 0
M  V30 6222 C 606.147 -0.0300827 -1.91976 0
M  V30 6223 O 607.348 0.0868914 -2.6866 0
M  V30 6224 C 605.619 -2.4011 -2.6473 0
M  V30 6225 S 607.178 -2.59462 -3.53871 0
M  V30 6226 H 603.996 -0.503893 -0.50161 0
M  V30 6227 H 606.598 -1.77855 -0.811654 0
M  V30 6228 H 605.302 -3.40073 -2.29736 0
M  V30 6229 H 604.833 -2.05849 -3.35246 0
M  V30 6230 H 606.848 -1.862 -4.59939 0
M  V30 6231 N 606.021 0.929856 -1.27246 0
M  V30 6232 C 606.971 2.01629 -1.06442 0
M  V30 6233 C 607.955 1.60899 0.00687842 0
M  V30 6234 O 609.147 1.75733 -0.211407 0
M  V30 6235 C 606.276 3.35849 -0.711361 0
M  V30 6236 C 605.362 3.8303 -1.82069 0
M  V30 6237 N 605.753 4.02743 -3.05993 0
M  V30 6238 C 604.051 4.12046 -1.70687 0
M  V30 6239 C 604.752 4.42001 -3.78167 0
M  V30 6240 N 603.728 4.4935 -3.05918 0
M  V30 6241 H 607.53 2.14898 -2.00489 0
M  V30 6242 H 605.044 1.11654 -1.17929 0
M  V30 6243 H 607.041 4.13343 -0.543442 0
M  V30 6244 H 605.701 3.23944 0.221517 0
M  V30 6245 H 606.712 3.89112 -3.41778 0
M  V30 6246 H 603.389 4.08866 -0.844681 0
M  V30 6247 H 604.779 4.6535 -4.84664 0
M  V30 6248 N 607.499 1.09233 1.13605 0
M  V30 6249 C 608.432 0.6739 2.18023 0
M  V30 6250 C 609.41 -0.318603 1.59448 0
M  V30 6251 O 610.594 -0.220452 1.87206 0
M  V30 6252 C 607.721 -0.00751458 3.38699 0
M  V30 6253 C 606.767 0.946481 4.15865 0
M  V30 6254 S 607.6 2.45753 4.75779 0
M  V30 6255 C 608.756 1.78846 5.99804 0
M  V30 6256 H 608.989 1.55846 2.53178 0
M  V30 6257 H 606.522 0.908118 1.2487 0
M  V30 6258 H 608.48 -0.394368 4.08601 0
M  V30 6259 H 607.141 -0.868693 3.01849 0
M  V30 6260 H 606.334 0.416742 5.02274 0
M  V30 6261 H 605.936 1.27464 3.51609 0
M  V30 6262 H 608.228 1.11135 6.68323 0
M  V30 6263 H 609.171 2.63163 6.57382 0
M  V30 6264 H 609.579 1.25823 5.50299 0
M  V30 6265 N 608.977 -1.30795 0.87923 0
M  V30 6266 C 610.388 -1.78535 0.546093 0
M  V30 6267 C 610.739 -1.72354 -0.937467 0
M  V30 6268 O 609.864 -1.2969 -1.73233 0
M  V30 6269 C 610.459 -3.24181 0.9845 0
M  V30 6270 C 609.018 -3.69779 0.702871 0
M  V30 6271 C 608.165 -2.51377 1.17068 0
M  V30 6272 H 611.116 -1.17746 1.06403 0
M  V30 6273 H 611.137 -3.79227 0.311045 0
M  V30 6274 H 610.649 -3.28647 2.06429 0
M  V30 6275 H 608.75 -3.70806 -0.365166 0
M  V30 6276 H 608.863 -4.61507 1.28639 0
M  V30 6277 H 607.227 -2.47768 0.590172 0
M  V30 6278 H 608.01 -2.58584 2.25808 0
M  V30 6279 N 610.455 -0.639598 -1.44038 0
M  V30 6280 C 611.402 0.0602458 -2.30721 0
M  V30 6281 C 612.372 0.828352 -1.43971 0
M  V30 6282 O 613.557 0.807693 -1.72861 0
M  V30 6283 C 610.697 1.03008 -3.29368 0
M  V30 6284 C 609.81 0.259502 -4.3122 0
M  V30 6285 C 608.945 1.22191 -5.16955 0
M  V30 6286 C 607.984 0.440978 -6.10509 0
M  V30 6287 N 607.121 1.35428 -6.88915 0
M  V30 6288 H 611.961 -0.684867 -2.90023 0
M  V30 6289 H 609.498 -0.349509 -1.42888 0
M  V30 6290 H 611.456 1.60583 -3.85057 0
M  V30 6291 H 610.086 1.74222 -2.71747 0
M  V30 6292 H 609.138 -0.432317 -3.77935 0
M  V30 6293 H 610.45 -0.348347 -4.97582 0
M  V30 6294 H 609.604 1.86873 -5.77203 0
M  V30 6295 H 608.343 1.86367 -4.50687 0
M  V30 6296 H 607.348 -0.219279 -5.49363 0
M  V30 6297 H 608.573 -0.196192 -6.78817 0
M  V30 6298 H 606.519 1.9831 -6.25307 0
M  V30 6299 H 606.436 0.800657 -7.51748 0
M  V30 6300 H 607.704 1.98967 -7.53679 0
M  V30 6301 N 611.933 1.52934 -0.380664 0
M  V30 6302 C 613.179 2.01765 0.20458 0
M  V30 6303 C 613.512 1.26696 1.47179 0
M  V30 6304 O 612.787 0.364936 1.91046 0
M  V30 6305 C 613.07 3.56869 0.481269 0
M  V30 6306 C 612.923 4.42617 -0.800629 0
M  V30 6307 C 614.242 4.2121 1.27554 0
M  V30 6308 H 611.361 0.733388 0.0728803 0
M  V30 6309 H 614.003 1.83068 -0.50853 0
M  V30 6310 H 612.153 3.72932 1.08875 0
M  V30 6311 H 613.825 4.38323 -1.43773 0
M  V30 6312 H 612.068 4.09977 -1.4178 0
M  V30 6313 H 612.739 5.49134 -0.561791 0
M  V30 6314 H 615.215 4.09072 0.761514 0
M  V30 6315 H 614.091 5.29732 1.43788 0
M  V30 6316 H 614.352 3.78269 2.28833 0
M  V30 6317 N 613.412 0.11024 1.57214 0
M  V30 6318 C 614.344 -0.873497 2.11902 0
M  V30 6319 C 615.357 -1.23588 1.05971 0
M  V30 6320 O 616.546 -1.18636 1.33371 0
M  V30 6321 C 613.646 -2.17805 2.59643 0
M  V30 6322 C 612.819 -1.98869 3.89576 0
M  V30 6323 C 611.878 -3.12974 4.23006 0
M  V30 6324 O 610.904 -2.86272 4.91973 0
M  V30 6325 N 612.106 -4.39167 3.79622 0
M  V30 6326 H 614.871 -0.406317 2.96933 0
M  V30 6327 H 612.432 -0.074437 1.61729 0
M  V30 6328 H 614.424 -2.93117 2.79042 0
M  V30 6329 H 612.994 -2.55899 1.7954 0
M  V30 6330 H 612.214 -1.078 3.79174 0
M  V30 6331 H 613.502 -1.83512 4.74553 0
M  V30 6332 H 612.9 -4.63739 3.2398 0
M  V30 6333 H 611.457 -5.11379 4.04147 0
M  V30 6334 N 614.89 -1.56749 -0.16351 0
M  V30 6335 C 615.82 -2.00042 -1.20438 0
M  V30 6336 C 616.801 -0.877256 -1.45733 0
M  V30 6337 O 617.986 -1.1439 -1.56935 0
M  V30 6338 C 615.116 -2.36697 -2.54149 0
M  V30 6339 C 614.07 -3.52046 -2.43408 0
M  V30 6340 C 613.396 -3.74466 -3.81679 0
M  V30 6341 C 614.696 -4.85247 -1.93216 0
M  V30 6342 H 616.39 -2.87244 -0.844477 0
M  V30 6343 H 613.936 -1.38194 -0.40478 0
M  V30 6344 H 615.889 -2.65582 -3.27176 0
M  V30 6345 H 614.613 -1.46414 -2.91943 0
M  V30 6346 H 613.272 -3.23301 -1.72834 0
M  V30 6347 H 612.92 -2.81461 -4.1688 0
M  V30 6348 H 612.62 -4.52084 -3.75359 0
M  V30 6349 H 614.144 -4.0576 -4.5628 0
M  V30 6350 H 615.558 -5.12957 -2.56023 0
M  V30 6351 H 613.955 -5.66556 -1.97825 0
M  V30 6352 H 615.025 -4.7672 -0.88689 0
M  V30 6353 N 616.368 0.432326 -1.51554 0
M  V30 6354 C 617.278 1.55023 -1.76082 0
M  V30 6355 C 618.294 1.61593 -0.645265 0
M  V30 6356 O 619.47 1.78742 -0.928086 0
M  V30 6357 C 616.535 2.90964 -1.88523 0
M  V30 6358 C 615.596 2.9447 -3.12388 0
M  V30 6359 C 614.829 4.23926 -3.24225 0
M  V30 6360 O 615.052 5.16576 -2.4188 0
M  V30 6361 O 613.986 4.33818 -4.17235 0
M  V30 6362 H 617.812 1.37238 -2.70923 0
M  V30 6363 H 615.397 0.615845 -1.36117 0
M  V30 6364 H 617.279 3.71633 -1.98662 0
M  V30 6365 H 615.954 3.08865 -0.9687 0
M  V30 6366 H 614.861 2.12737 -3.07723 0
M  V30 6367 H 616.194 2.81514 -4.03746 0
M  V30 6368 N 617.846 1.41785 0.688094 0
M  V30 6369 C 618.794 1.44436 1.82321 0
M  V30 6370 C 619.788 0.321544 1.6632 0
M  V30 6371 O 620.994 0.493931 1.73091 0
M  V30 6372 H 617.369 0.452084 0.600936 0
M  V30 6373 H 619.34 2.40087 1.77202 0
M  V30 6374 C 618.089 1.35071 3.20392 0
M  V30 6375 H 617.412 2.2076 3.33324 0
M  V30 6376 H 618.852 1.40988 3.99873 0
M  V30 6377 C 617.311 0.0639127 3.36839 0
M  V30 6378 O 617.841 -0.888495 3.91751 0
M  V30 6379 N 616.047 -0.0146114 2.90596 0
M  V30 6380 H 615.594 0.761191 2.46097 0
M  V30 6381 H 615.552 -0.874988 3.01979 0
M  V30 6382 N 619.324 -0.923095 1.27737 0
M  V30 6383 C 620.572 -1.66797 1.14119 0
M  V30 6384 C 620.893 -1.92479 -0.312541 0
M  V30 6385 O 620.163 -1.53432 -1.218 0
M  V30 6386 H 618.743 -0.618196 0.419336 0
M  V30 6387 H 621.405 -1.10815 1.60331 0
M  V30 6388 H 620.501 -2.63424 1.67374 0
M  V30 6389 N 620.802 -1.09834 -1.13024 0
M  V30 6390 C 621.749 -0.741522 -2.18564 0
M  V30 6391 C 622.719 0.279236 -1.63736 0
M  V30 6392 O 623.904 0.159923 -1.90129 0
M  V30 6393 C 621.044 -0.17277 -3.44667 0
M  V30 6394 C 620.157 -1.24808 -4.13578 0
M  V30 6395 C 619.292 -0.641631 -5.27311 0
M  V30 6396 C 618.331 -1.69795 -5.88078 0
M  V30 6397 N 617.468 -1.11223 -6.93234 0
M  V30 6398 H 622.308 -1.64576 -2.48432 0
M  V30 6399 H 619.845 -0.822174 -1.21978 0
M  V30 6400 H 621.803 0.17482 -4.16834 0
M  V30 6401 H 620.433 0.694725 -3.15235 0
M  V30 6402 H 619.485 -1.71288 -3.39653 0
M  V30 6403 H 620.797 -2.04795 -4.54819 0
M  V30 6404 H 619.951 -0.243128 -6.06213 0
M  V30 6405 H 618.69 0.189742 -4.87331 0
M  V30 6406 H 617.695 -2.10595 -5.07868 0
M  V30 6407 H 618.92 -2.53206 -6.3013 0
M  V30 6408 H 616.866 -0.302208 -6.55304 0
M  V30 6409 H 616.783 -1.84901 -7.3304 0
M  V30 6410 H 618.051 -0.740068 -7.75979 0
M  V30 6411 N 622.28 1.30327 -0.886154 0
M  V30 6412 C 623.526 1.96388 -0.505941 0
M  V30 6413 C 623.859 1.69784 0.942712 0
M  V30 6414 O 623.134 1.00322 1.6663 0
M  V30 6415 C 623.417 3.51488 -0.782826 0
M  V30 6416 C 623.27 3.87603 -2.28219 0
M  V30 6417 C 624.589 4.39331 -0.260128 0
M  V30 6418 H 621.708 0.713327 -0.185292 0
M  V30 6419 H 624.35 1.54178 -1.11036 0
M  V30 6420 H 622.5 3.87572 -0.268399 0
M  V30 6421 H 624.172 3.61537 -2.86512 0
M  V30 6422 H 622.415 3.3563 -2.74837 0
M  V30 6423 H 623.086 4.95806 -2.42653 0
M  V30 6424 H 625.562 4.10162 -0.700444 0
M  V30 6425 H 624.438 5.46769 -0.483179 0
M  V30 6426 H 624.699 4.34072 0.838674 0
M  V30 6427 N 623.758 0.647228 1.43697 0
M  V30 6428 C 624.988 0.16551 2.05936 0
M  V30 6429 C 625.396 -1.17164 1.48557 0
M  V30 6430 O 624.739 -1.73307 0.60914 0
M  V30 6431 C 624.801 -0.00648082 3.59499 0
M  V30 6432 C 624.465 1.25503 4.39429 0
M  V30 6433 C 625.462 2.18241 4.71876 0
M  V30 6434 C 623.147 1.49494 4.79538 0
M  V30 6435 C 625.141 3.33268 5.43333 0
M  V30 6436 C 622.828 2.64815 5.50742 0
M  V30 6437 C 623.826 3.56528 5.82561 0
M  V30 6438 O 623.514 4.69836 6.52311 0
M  V30 6439 H 623.246 0.0844124 0.670709 0
M  V30 6440 H 625.8 0.88638 1.8529 0
M  V30 6441 H 624.03 -0.782661 3.78697 0
M  V30 6442 H 625.719 -0.444794 4.03456 0
M  V30 6443 H 626.485 2.00946 4.41413 0
M  V30 6444 H 622.364 0.789912 4.54182 0
M  V30 6445 H 625.908 4.04874 5.68087 0
M  V30 6446 H 621.805 2.82047 5.8062 0
M  V30 6447 H 622.573 4.69024 6.70789 0
M  V30 6448 N 625.236 -1.5273 0.388769 0
M  V30 6449 C 626.464 -2.05992 -0.193677 0
M  V30 6450 C 626.879 -1.26053 -1.40557 0
M  V30 6451 O 626.236 -0.307049 -1.79898 0
M  V30 6452 C 626.287 -3.57068 -0.564321 0
M  V30 6453 O 626.008 -4.3398 0.599422 0
M  V30 6454 C 627.509 -4.26674 -1.20269 0
M  V30 6455 H 624.729 -0.670358 -0.0293445 0
M  V30 6456 H 627.273 -1.96857 0.553844 0
M  V30 6457 H 625.428 -3.66277 -1.26174 0
M  V30 6458 H 625.842 -5.2367 0.294895 0
M  V30 6459 H 627.316 -5.33625 -1.4124 0
M  V30 6460 H 627.793 -3.81854 -2.16989 0
M  V30 6461 H 628.399 -4.2178 -0.546047 0
M  V30 6462 N 626.714 -0.118576 -1.57153 0
M  V30 6463 C 627.939 0.550582 -1.99958 0
M  V30 6464 C 628.364 1.59458 -0.997736 0
M  V30 6465 O 627.722 1.81274 0.0306269 0
M  V30 6466 C 627.77 1.15379 -3.41643 0
M  V30 6467 O 626.874 2.26932 -3.44348 0
M  V30 6468 H 626.215 0.137567 -0.649593 0
M  V30 6469 H 628.745 -0.206926 -2.03551 0
M  V30 6470 H 628.755 1.48942 -3.79843 0
M  V30 6471 H 627.43 0.389087 -4.14076 0
M  V30 6472 H 626.007 1.94812 -3.17967 0
M  V30 6473 N 628.193 1.56834 0.155195 0
M  V30 6474 C 629.143 1.94061 1.19684 0
M  V30 6475 C 630.127 0.810851 1.38975 0
M  V30 6476 O 631.319 1.07422 1.40675 0
M  V30 6477 C 628.448 2.31778 2.53247 0
M  V30 6478 C 627.534 3.51305 2.37583 0
M  V30 6479 N 627.925 4.68081 1.9166 0
M  V30 6480 C 626.223 3.56228 2.6836 0
M  V30 6481 C 626.924 5.50193 1.88845 0
M  V30 6482 N 625.9 4.91676 2.31852 0
M  V30 6483 H 629.702 2.81826 0.833747 0
M  V30 6484 H 627.216 1.58284 0.363328 0
M  V30 6485 H 629.213 2.56649 3.28538 0
M  V30 6486 H 627.873 1.4536 2.90346 0
M  V30 6487 H 628.884 4.91993 1.6175 0
M  V30 6488 H 625.561 2.8033 3.09389 0
M  V30 6489 H 626.951 6.53801 1.54901 0
M  V30 6490 N 629.671 -0.424282 1.51781 0
M  V30 6491 C 630.896 -1.19928 1.6921 0
M  V30 6492 C 631.321 -1.8392 0.394355 0
M  V30 6493 O 630.679 -1.69371 -0.646778 0
M  V30 6494 C 630.727 -2.24937 2.81843 0
M  V30 6495 O 629.831 -3.3073 2.46356 0
M  V30 6496 H 629.172 -0.35078 0.563781 0
M  V30 6497 H 631.702 -0.499401 1.98412 0
M  V30 6498 H 631.712 -2.69512 3.06312 0
M  V30 6499 H 630.387 -1.77742 3.76006 0
M  V30 6500 H 628.964 -2.9154 2.32505 0
M  V30 6501 N 631.149 -1.42148 -0.680565 0
M  V30 6502 C 632.081 -1.41119 -1.80605 0
M  V30 6503 C 633.094 -0.311099 -1.598 0
M  V30 6504 O 634.283 -0.573813 -1.69026 0
M  V30 6505 C 631.383 -1.18204 -3.17618 0
M  V30 6506 C 630.556 -2.40537 -3.65322 0
M  V30 6507 C 629.615 -2.13254 -4.8105 0
M  V30 6508 O 628.641 -2.8641 -4.91892 0
M  V30 6509 N 629.843 -1.13208 -5.69354 0
M  V30 6510 H 632.608 -2.38128 -1.81975 0
M  V30 6511 H 630.169 -1.36953 -0.863446 0
M  V30 6512 H 632.161 -0.97878 -3.92686 0
M  V30 6513 H 630.731 -0.29738 -3.11182 0
M  V30 6514 H 629.951 -2.76468 -2.80996 0
M  V30 6515 H 631.239 -3.22012 -3.93936 0
M  V30 6516 H 630.637 -0.526893 -5.63241 0
M  V30 6517 H 629.194 -0.988699 -6.44258 0
M  V30 6518 N 632.627 0.916307 -1.28225 0
M  V30 6519 C 634.043 1.19425 -1.05876 0
M  V30 6520 C 634.243 2.005 0.2005 0
M  V30 6521 O 633.299 2.35806 0.902873 0
M  V30 6522 C 634.612 1.93133 -2.30478 0
M  V30 6523 C 636.16 2.06026 -2.35632 0
M  V30 6524 C 636.635 2.83141 -3.59994 0
M  V30 6525 N 638.126 2.90704 -3.60618 0
M  V30 6526 C 638.861 3.50865 -4.53521 0
M  V30 6527 N 638.357 4.12327 -5.56739 0
M  V30 6528 N 640.15 3.48379 -4.41122 0
M  V30 6529 H 632.301 0.37496 -2.09064 0
M  V30 6530 H 634.564 0.228531 -0.920042 0
M  V30 6531 H 634.27 1.40985 -3.22205 0
M  V30 6532 H 634.144 2.93696 -2.36691 0
M  V30 6533 H 636.531 2.57355 -1.44404 0
M  V30 6534 H 636.612 1.04647 -2.33415 0
M  V30 6535 H 636.256 2.32492 -4.51564 0
M  V30 6536 H 636.186 3.84829 -3.59464 0
M  V30 6537 H 638.677 2.47034 -2.85977 0
M  V30 6538 H 638.99 4.56205 -6.23776 0
M  V30 6539 H 637.335 4.10839 -5.60568 0
M  V30 6540 H 640.526 2.99572 -3.59686 0
M  V30 6541 H 640.699 3.94974 -5.13712 0
M  V30 6542 N 634.105 1.10431 1.1244 0
M  V30 6543 C 635.333 0.868872 1.87772 0
M  V30 6544 C 635.748 -0.580645 1.7965 0
M  V30 6545 O 635.105 -1.40031 1.17036 0
M  V30 6546 C 635.156 1.30855 3.36986 0
M  V30 6547 O 634.877 2.70123 3.44914 0
M  V30 6548 C 636.378 1.107 4.29256 0
M  V30 6549 H 633.598 0.311868 0.59412 0
M  V30 6550 H 636.142 1.46897 1.42273 0
M  V30 6551 H 634.297 0.752126 3.80029 0
M  V30 6552 H 634.711 2.88923 4.37748 0
M  V30 6553 H 636.185 1.46378 5.32238 0
M  V30 6554 H 636.662 0.0456228 4.39176 0
M  V30 6555 H 637.268 1.64988 3.91994 0
M  V30 6556 N 635.583 -1.29855 0.893053 0
M  V30 6557 C 636.994 -1.77946 0.564998 0
M  V30 6558 C 637.345 -1.73339 -0.919134 0
M  V30 6559 O 636.47 -1.3152 -1.71847 0
M  V30 6560 C 637.065 -3.23118 1.01883 0
M  V30 6561 C 635.624 -3.69013 0.742051 0
M  V30 6562 C 634.771 -2.50121 1.19727 0
M  V30 6563 H 637.722 -1.16611 1.07646 0
M  V30 6564 H 637.743 -3.78875 0.351249 0
M  V30 6565 H 637.255 -3.26439 2.09903 0
M  V30 6566 H 635.356 -3.71173 -0.325816 0
M  V30 6567 H 635.469 -4.60117 1.33527 0
M  V30 6568 H 633.833 -2.47128 0.616418 0
M  V30 6569 H 634.616 -2.56174 2.28538 0
M  V30 6570 N 637.061 -0.65484 -1.43351 0
M  V30 6571 C 638.477 -0.32255 -1.56307 0
M  V30 6572 C 638.677 1.17324 -1.63821 0
M  V30 6573 O 637.733 1.95813 -1.59417 0
M  V30 6574 C 639.046 -1.03533 -2.82314 0
M  V30 6575 C 640.594 -1.01574 -2.9606 0
M  V30 6576 C 641.069 -1.70945 -4.24902 0
M  V30 6577 N 642.56 -1.67716 -4.3177 0
M  V30 6578 C 643.295 -2.18265 -5.30234 0
M  V30 6579 N 642.791 -2.7711 -6.34966 0
M  V30 6580 N 644.584 -2.08756 -5.21898 0
M  V30 6581 H 636.735 -1.62549 -1.36717 0
M  V30 6582 H 638.998 -0.683676 -0.656727 0
M  V30 6583 H 638.704 -2.09045 -2.8283 0
M  V30 6584 H 638.578 -0.587913 -3.7259 0
M  V30 6585 H 640.965 0.0309834 -2.95084 0
M  V30 6586 H 641.046 -1.50186 -2.07069 0
M  V30 6587 H 640.69 -2.75574 -4.26639 0
M  V30 6588 H 640.62 -1.19797 -5.12793 0
M  V30 6589 H 643.111 -1.24777 -3.56706 0
M  V30 6590 H 643.424 -3.13353 -7.06421 0
M  V30 6591 H 641.769 -2.81171 -6.35585 0
M  V30 6592 H 644.96 -1.62488 -4.38994 0
M  V30 6593 H 645.133 -2.48459 -5.98475 0
M  V30 6594 N 638.539 1.52521 -0.396863 0
M  V30 6595 C 639.816 1.94112 0.240842 0
M  V30 6596 C 640.196 1.33288 1.637 0
M  V30 6597 O 639.544 0.503901 2.22875 0
M  V30 6598 C 639.754 3.48033 0.259567 0
M  V30 6599 C 641.102 4.21822 0.484866 0
M  V30 6600 O 642.126 3.54579 0.339453 0
M  V30 6601 O 640.985 5.41042 0.770412 0
M  V30 6602 H 638.079 0.812973 0.151671 0
M  V30 6603 H 640.625 1.63572 -0.451918 0
M  V30 6604 H 639.397 3.84655 -0.718078 0
M  V30 6605 H 639.02 3.84899 0.996937 0
M  V30 6606 N 640.017 0.126909 1.57088 0
M  V30 6607 C 640.95 -0.857844 2.11462 0
M  V30 6608 C 641.928 -1.25569 1.03301 0
M  V30 6609 O 643.112 -1.35535 1.31006 0
M  V30 6610 C 640.239 -2.14912 2.61784 0
M  V30 6611 C 639.285 -1.89874 3.81903 0
M  V30 6612 S 640.118 -1.10785 5.23915 0
M  V30 6613 C 641.274 -2.41075 5.7761 0
M  V30 6614 H 641.507 -0.395384 2.94659 0
M  V30 6615 H 639.04 -0.0870151 1.54155 0
M  V30 6616 H 640.998 -2.89101 2.91429 0
M  V30 6617 H 639.659 -2.58275 1.78754 0
M  V30 6618 H 638.852 -2.85572 4.15289 0
M  V30 6619 H 638.454 -1.23802 3.52915 0
M  V30 6620 H 640.746 -3.36864 5.87817 0
M  V30 6621 H 641.689 -2.12223 6.75549 0
M  V30 6622 H 642.097 -2.50804 5.05725 0
M  V30 6623 N 641.495 -1.56914 -0.146875 0
M  V30 6624 C 642.428 -1.93425 -1.21087 0
M  V30 6625 C 643.406 -0.800106 -1.41552 0
M  V30 6626 O 644.59 -1.05572 -1.56162 0
M  V30 6627 C 641.717 -2.20639 -2.56975 0
M  V30 6628 C 640.763 -3.43279 -2.53104 0
M  V30 6629 S 641.596 -4.96836 -1.99786 0
M  V30 6630 C 642.752 -5.27172 -3.37403 0
M  V30 6631 H 642.985 -2.8337 -0.899378 0
M  V30 6632 H 640.518 -1.50322 -0.352494 0
M  V30 6633 H 642.476 -2.36998 -3.35175 0
M  V30 6634 H 641.137 -1.31357 -2.85314 0
M  V30 6635 H 640.33 -3.59599 -3.53136 0
M  V30 6636 H 639.932 -3.26163 -1.83012 0
M  V30 6637 H 642.224 -5.20647 -4.33513 0
M  V30 6638 H 643.167 -6.28626 -3.25937 0
M  V30 6639 H 643.575 -4.54687 -3.34544 0
M  V30 6640 N 642.974 0.416227 -1.52004 0
M  V30 6641 C 644.222 1.16153 -1.65387 0
M  V30 6642 C 644.543 1.91208 -0.382669 0
M  V30 6643 O 643.813 1.86413 0.602231 0
M  V30 6644 H 642.393 0.431765 -0.60958 0
M  V30 6645 H 645.055 0.475151 -1.89019 0
M  V30 6646 H 644.151 1.87952 -2.4916 0
M  V30 6647 N 644.452 1.42507 0.673017 0
M  V30 6648 C 645.384 1.42074 1.79854 0
M  V30 6649 C 646.397 0.319569 1.59633 0
M  V30 6650 O 647.586 0.582769 1.68719 0
M  V30 6651 C 644.686 1.19886 3.16987 0
M  V30 6652 C 643.859 2.42471 3.64042 0
M  V30 6653 C 642.918 2.15802 4.79913 0
M  V30 6654 O 641.944 2.89015 4.90366 0
M  V30 6655 N 643.146 1.16225 5.68746 0
M  V30 6656 H 645.911 2.3909 1.8071 0
M  V30 6657 H 643.472 1.37409 0.856171 0
M  V30 6658 H 645.464 0.999591 3.92161 0
M  V30 6659 H 644.034 0.313879 3.1102 0
M  V30 6660 H 643.254 2.77954 2.79526 0
M  V30 6661 H 644.542 3.24097 3.92223 0
M  V30 6662 H 643.94 0.556756 5.62954 0
M  V30 6663 H 642.497 1.02285 6.43724 0
M  V30 6664 N 645.93 -0.909495 1.28709 0
M  V30 6665 C 646.893 -1.99399 1.13016 0
M  V30 6666 C 647.893 -1.60654 0.068536 0
M  V30 6667 O 649.083 -1.71334 0.314671 0
M  V30 6668 C 646.215 -3.33078 0.726085 0
M  V30 6669 H 647.408 -2.14751 2.09338 0
M  V30 6670 H 644.961 -1.09272 1.11756 0
M  V30 6671 H 645.696 -3.23428 -0.23771 0
M  V30 6672 H 645.481 -3.62562 1.49302 0
M  V30 6673 H 646.971 -4.12681 0.639058 0
M  V30 6674 N 647.408 -1.11026 -1.11852 0
M  V30 6675 C 648.648 -0.866348 -1.85132 0
M  V30 6676 C 649.012 0.597236 -1.82475 0
M  V30 6677 O 650.213 0.957744 -2.51159 0
M  V30 6678 C 648.484 -1.40721 -3.28531 0
M  V30 6679 S 650.043 -1.29964 -4.19112 0
M  V30 6680 H 646.861 -0.312899 -0.638447 0
M  V30 6681 H 649.463 -1.41691 -1.34699 0
M  V30 6682 H 648.167 -2.46631 -3.28027 0
M  V30 6683 H 647.698 -0.85349 -3.8403 0
M  V30 6684 H 649.713 -0.261333 -4.95511 0
M  V30 6685 N 648.886 1.2938 -0.899927 0
M  V30 6686 C 649.816 2.30144 -0.39446 0
M  V30 6687 C 650.797 1.61611 0.530639 0
M  V30 6688 O 651.982 1.89119 0.441319 0
M  V30 6689 C 649.112 3.45229 0.37868 0
M  V30 6690 C 648.066 4.25564 -0.456012 0
M  V30 6691 C 647.392 5.32848 0.444637 0
M  V30 6692 C 648.692 4.93651 -1.70605 0
M  V30 6693 H 650.386 2.72673 -1.23653 0
M  V30 6694 H 647.932 1.31086 -0.596034 0
M  V30 6695 H 649.885 4.14797 0.743037 0
M  V30 6696 H 648.609 3.01545 1.25453 0
M  V30 6697 H 647.268 3.57704 -0.802704 0
M  V30 6698 H 646.916 4.85408 1.31863 0
M  V30 6699 H 646.616 5.87497 -0.110154 0
M  V30 6700 H 648.14 6.05268 0.805182 0
M  V30 6701 H 649.554 5.55655 -1.41141 0
M  V30 6702 H 647.951 5.58233 -2.20217 0
M  V30 6703 H 649.021 4.18926 -2.4419 0
M  V30 6704 N 650.364 0.662433 1.43002 0
M  V30 6705 C 651.312 -0.035345 2.32573 0
M  V30 6706 C 652.306 -0.803505 1.49131 0
M  V30 6707 O 653.512 -0.712865 1.65282 0
M  V30 6708 H 649.887 -0.0302194 0.751393 0
M  V30 6709 H 651.858 0.737686 2.89138 0
M  V30 6710 C 650.607 -0.981575 3.33557 0
M  V30 6711 H 649.93 -0.399914 3.97795 0
M  V30 6712 H 651.37 -1.43873 3.98844 0
M  V30 6713 C 649.829 -2.08204 2.64863 0
M  V30 6714 O 650.359 -3.16698 2.47113 0
M  V30 6715 N 648.565 -1.85022 2.24088 0
M  V30 6716 H 648.112 -0.967909 2.38724 0
M  V30 6717 H 648.07 -2.58845 1.78457 0
M  V30 6718 N 651.842 -1.52309 0.404946 0
M  V30 6719 C 653.082 -2.03677 -0.171779 0
M  V30 6720 C 653.446 -1.28419 -1.42733 0
M  V30 6721 O 654.647 -1.69991 -2.08222 0
M  V30 6722 C 652.918 -3.54951 -0.417701 0
M  V30 6723 S 654.477 -4.28114 -0.962472 0
M  V30 6724 H 651.295 -0.709445 -0.0469912 0
M  V30 6725 H 653.897 -1.874 0.556901 0
M  V30 6726 H 652.601 -4.07306 0.50295 0
M  V30 6727 H 652.132 -3.75462 -1.17437 0
M  V30 6728 H 654.147 -4.42589 -2.24342 0
M  V30 6729 N 653.32 -0.135238 -1.57019 0
M  V30 6730 C 654.27 0.820408 -2.12728 0
M  V30 6731 C 655.254 1.21735 -1.05211 0
M  V30 6732 O 656.446 1.18574 -1.31413 0
M  V30 6733 C 653.575 2.06414 -2.74314 0
M  V30 6734 C 652.661 1.69083 -3.88937 0
M  V30 6735 N 653.052 1.0251 -4.95303 0
M  V30 6736 C 651.35 1.98434 -3.99425 0
M  V30 6737 C 652.051 0.846749 -5.75504 0
M  V30 6738 N 651.027 1.3769 -5.25873 0
M  V30 6739 H 654.829 0.302426 -2.9234 0
M  V30 6740 H 652.343 0.0667009 -1.62263 0
M  V30 6741 H 654.34 2.75863 -3.12579 0
M  V30 6742 H 653 2.58741 -1.96171 0
M  V30 6743 H 654.011 0.687207 -5.1332 0
M  V30 6744 H 650.688 2.52693 -3.32344 0
M  V30 6745 H 652.078 0.322949 -6.71123 0
M  V30 6746 N 654.798 1.5699 0.138552 0
M  V30 6747 C 655.761 1.97984 1.15478 0
M  V30 6748 C 656.761 0.867416 1.35398 0
M  V30 6749 O 657.951 1.13387 1.32246 0
M  V30 6750 C 655.083 2.3031 2.51337 0
M  V30 6751 H 656.276 2.88953 0.802896 0
M  V30 6752 H 653.829 1.51555 0.382189 0
M  V30 6753 H 654.564 1.42159 2.91481 0
M  V30 6754 H 654.349 3.11425 2.38237 0
M  V30 6755 H 655.839 2.62834 3.24512 0
M  V30 6756 N 656.276 -0.40816 1.52223 0
M  V30 6757 C 657.186 -1.52202 1.78526 0
M  V30 6758 C 658.202 -1.60546 0.670892 0
M  V30 6759 O 659.378 -1.77242 0.956404 0
M  V30 6760 C 656.443 -2.87928 1.93128 0
M  V30 6761 C 655.504 -2.89463 3.17033 0
M  V30 6762 C 654.737 -4.18715 3.30929 0
M  V30 6763 O 654.96 -5.12662 2.50067 0
M  V30 6764 O 653.894 -4.27125 4.24084 0
M  V30 6765 H 657.72 -1.32911 2.73072 0
M  V30 6766 H 655.305 -0.594112 1.37079 0
M  V30 6767 H 657.187 -3.68426 2.04549 0
M  V30 6768 H 655.862 -3.07285 1.01772 0
M  V30 6769 H 654.769 -2.07815 3.11069 0
M  V30 6770 H 656.102 -2.75055 4.08174 0
M  V30 6771 N 657.755 -1.42862 -0.66545 0
M  V30 6772 C 659.001 -1.4504 -1.426 0
M  V30 6773 C 659.356 -0.0690217 -1.92276 0
M  V30 6774 O 658.649 0.91036 -1.68591 0
M  V30 6775 C 658.843 -2.4175 -2.63233 0
M  V30 6776 C 658.672 -3.89155 -2.25362 0
M  V30 6777 C 657.442 -4.57619 -2.14273 0
M  V30 6778 C 659.64 -4.79326 -1.86417 0
M  V30 6779 N 657.622 -5.90006 -1.69604 0
M  V30 6780 C 658.993 -6.00892 -1.52738 0
M  V30 6781 C 661.048 -4.66696 -1.73492 0
M  V30 6782 C 659.751 -7.11232 -1.0743 0
M  V30 6783 C 661.777 -5.77027 -1.29589 0
M  V30 6784 C 661.139 -6.97712 -0.968393 0
M  V30 6785 H 657.238 -0.585889 -0.517936 0
M  V30 6786 H 659.822 -1.78956 -0.767002 0
M  V30 6787 H 657.993 -2.09881 -3.26809 0
M  V30 6788 H 659.725 -2.34447 -3.29874 0
M  V30 6789 H 656.48 -4.11957 -2.33641 0
M  V30 6790 H 656.904 -6.60249 -1.49666 0
M  V30 6791 H 661.546 -3.7386 -1.97455 0
M  V30 6792 H 659.264 -8.03907 -0.822147 0
M  V30 6793 H 662.85 -5.6927 -1.20095 0
M  V30 6794 H 661.73 -7.81634 -0.63384 0
M  V30 6795 N 659.233 0.902656 -1.29189 0
M  V30 6796 C 660.461 1.68639 -1.19869 0
M  V30 6797 C 660.876 1.87254 0.241121 0
M  V30 6798 O 660.233 1.40745 1.16177 0
M  V30 6799 C 660.284 3.07251 -1.90471 0
M  V30 6800 O 660.005 2.89488 -3.28829 0
M  V30 6801 C 661.506 4.01653 -1.8759 0
M  V30 6802 H 658.726 0.526802 -0.415596 0
M  V30 6803 H 661.27 1.12901 -1.7051 0
M  V30 6804 H 659.425 3.59774 -1.43672 0
M  V30 6805 H 659.839 3.77296 -3.64346 0
M  V30 6806 H 661.313 4.96339 -2.4156 0
M  V30 6807 H 661.79 4.30881 -0.850756 0
M  V30 6808 H 662.396 3.55061 -2.34119 0
M  V30 6809 N 660.711 1.11618 1.11262 0
M  V30 6810 C 661.621 0.78898 2.20935 0
M  V30 6811 C 662.637 -0.21867 1.7262 0
M  V30 6812 O 663.813 -0.0543826 2.01327 0
M  V30 6813 C 660.878 0.239014 3.45875 0
M  V30 6814 C 659.939 1.3055 4.08968 0
M  V30 6815 C 659.172 0.781687 5.27944 0
M  V30 6816 O 659.395 -0.387605 5.69082 0
M  V30 6817 O 658.329 1.54734 5.81671 0
M  V30 6818 H 662.155 1.70477 2.51339 0
M  V30 6819 H 659.74 0.892203 1.19834 0
M  V30 6820 H 661.622 -0.0632312 4.21353 0
M  V30 6821 H 660.297 -0.649454 3.17118 0
M  V30 6822 H 659.204 1.66079 3.35214 0
M  V30 6823 H 660.537 2.16743 4.41909 0
M  V30 6824 N 662.189 -1.289 0.906776 0
M  V30 6825 C 663.466 -1.90221 0.455537 0
M  V30 6826 C 663.846 -1.82251 -1.06527 0
M  V30 6827 O 663.194 -1.25385 -1.91026 0
M  V30 6828 C 663.404 -3.35015 0.97806 0
M  V30 6829 C 664.752 -4.12018 1.02598 0
M  V30 6830 O 665.776 -3.43947 0.926218 0
M  V30 6831 O 664.635 -5.33677 1.17689 0
M  V30 6832 H 661.729 -0.814505 0.143214 0
M  V30 6833 H 664.275 -1.37317 0.997104 0
M  V30 6834 H 663.047 -3.35006 2.02204 0
M  V30 6835 H 662.67 -3.95408 0.416914 0
M  V30 6836 N 663.667 -0.670007 -1.42649 0
M  V30 6837 C 664.599 0.0501746 -2.29145 0
M  V30 6838 C 665.612 0.770331 -1.43422 0
M  V30 6839 O 666.801 0.625288 -1.6719 0
M  V30 6840 C 663.901 1.09463 -3.20735 0
M  V30 6841 C 663.074 0.44926 -4.35087 0
M  V30 6842 C 662.133 1.39285 -5.07431 0
M  V30 6843 O 661.159 0.894997 -5.6212 0
M  V30 6844 N 662.361 2.72631 -5.12496 0
M  V30 6845 H 665.126 -0.692312 -2.91594 0
M  V30 6846 H 662.687 -0.514056 -1.53522 0
M  V30 6847 H 664.679 1.72705 -3.65999 0
M  V30 6848 H 663.249 1.73891 -2.59771 0
M  V30 6849 H 662.469 -0.362573 -3.92529 0
M  V30 6850 H 663.757 -0.000544776 -5.088 0
M  V30 6851 H 663.155 3.15623 -4.69467 0
M  V30 6852 H 661.712 3.31132 -5.61422 0
M  V30 6853 N 665.145 1.52092 -0.413018 0
M  V30 6854 C 666.108 2.25706 0.398687 0
M  V30 6855 C 667.108 1.28221 0.970368 0
M  V30 6856 O 668.298 1.52131 0.848635 0
M  V30 6857 C 665.43 3.03029 1.5616 0
M  V30 6858 H 666.623 2.98888 -0.246131 0
M  V30 6859 H 664.176 1.5542 -0.165622 0
M  V30 6860 H 664.911 2.34205 2.24317 0
M  V30 6861 H 664.696 3.74606 1.15812 0
M  V30 6862 H 666.186 3.58857 2.13569 0
M  V30 6863 N 666.623 0.143563 1.56945 0
M  V30 6864 C 667.553 -0.7936 2.196 0
M  V30 6865 C 668.534 -1.25955 1.14321 0
M  V30 6866 O 669.719 -1.31773 1.42651 0
M  V30 6867 C 666.849 -2.03424 2.81489 0
M  V30 6868 C 665.803 -1.70519 3.92565 0
M  V30 6869 C 665.129 -3.01817 4.41373 0
M  V30 6870 C 666.429 -0.95449 5.13504 0
M  V30 6871 H 668.123 -0.271423 2.98167 0
M  V30 6872 H 665.669 -0.12911 1.4342 0
M  V30 6873 H 667.622 -2.69463 3.23987 0
M  V30 6874 H 666.346 -2.58008 2.00248 0
M  V30 6875 H 665.005 -1.06859 3.5068 0
M  V30 6876 H 664.653 -3.54386 3.56959 0
M  V30 6877 H 664.353 -2.80565 5.16292 0
M  V30 6878 H 665.877 -3.68934 4.86539 0
M  V30 6879 H 667.291 -1.5169 5.52868 0
M  V30 6880 H 665.688 -0.842035 5.94163 0
M  V30 6881 H 666.758 0.0544033 4.84869 0
M  V30 6882 N 668.101 -1.57061 -0.130224 0
M  V30 6883 C 669.331 -1.88159 -0.853217 0
M  V30 6884 C 669.739 -0.731675 -1.7448 0
M  V30 6885 O 669.082 0.307035 -1.81116 0
M  V30 6886 C 669.144 -3.1415 -1.74785 0
M  V30 6887 C 668.808 -4.45202 -1.03173 0
M  V30 6888 C 669.805 -5.18526 -0.377759 0
M  V30 6889 C 667.49 -4.91912 -1.01624 0
M  V30 6890 C 669.484 -6.36775 0.282123 0
M  V30 6891 C 667.171 -6.10082 -0.352555 0
M  V30 6892 C 668.169 -6.82361 0.295483 0
M  V30 6893 O 667.857 -7.98284 0.948606 0
M  V30 6894 H 667.589 -0.627596 -0.251197 0
M  V30 6895 H 670.143 -2.05034 -0.1226 0
M  V30 6896 H 668.373 -2.93328 -2.51983 0
M  V30 6897 H 670.062 -3.31359 -2.34427 0
M  V30 6898 H 670.828 -4.83498 -0.381417 0
M  V30 6899 H 666.707 -4.35566 -1.51007 0
M  V30 6900 H 670.251 -6.93129 0.788525 0
M  V30 6901 H 666.148 -6.44569 -0.346621 0
M  V30 6902 H 666.916 -8.14054 0.851954 0
M  V30 6903 N 669.579 0.400081 -1.52437 0
M  V30 6904 C 670.542 1.4707 -1.75793 0
M  V30 6905 C 671.542 1.48036 -0.627856 0
M  V30 6906 O 672.732 1.49401 -0.895817 0
M  V30 6907 C 669.864 2.86427 -1.84858 0
M  V30 6908 H 671.057 1.27649 -2.71377 0
M  V30 6909 H 668.61 0.631141 -1.42991 0
M  V30 6910 H 669.345 3.11207 -0.912194 0
M  V30 6911 H 669.13 2.87128 -2.6702 0
M  V30 6912 H 670.62 3.64023 -2.04638 0
M  V30 6913 N 671.057 1.43213 0.657864 0
M  V30 6914 C 672.306 1.43871 1.41365 0
M  V30 6915 C 672.619 0.064898 1.95492 0
M  V30 6916 O 673.825 -0.0510796 2.71452 0
M  V30 6917 C 672.281 2.53158 2.55811 0
M  V30 6918 C 671.889 3.96624 2.08311 0
M  V30 6919 C 673.633 2.63004 3.3321 0
M  V30 6920 C 671.54 4.97385 3.1994 0
M  V30 6921 H 670.47 0.535174 0.531136 0
M  V30 6922 H 673.121 1.69185 0.710543 0
M  V30 6923 H 671.503 2.21037 3.2857 0
M  V30 6924 H 672.677 4.38182 1.42593 0
M  V30 6925 H 670.992 3.90781 1.43804 0
M  V30 6926 H 673.589 3.3546 4.16378 0
M  V30 6927 H 673.932 1.67918 3.80932 0
M  V30 6928 H 674.465 2.94403 2.67529 0
M  V30 6929 H 671.204 5.94007 2.77192 0
M  V30 6930 H 670.724 4.60444 3.84385 0
M  V30 6931 H 672.403 5.19877 3.85145 0
M  V30 6932 N 672.536 -0.895792 1.29666 0
M  V30 6933 C 673.813 -1.62723 1.08538 0
M  V30 6934 C 674.193 -2.07848 -0.369119 0
M  V30 6935 O 673.541 -1.8372 -1.35864 0
M  V30 6936 C 673.751 -2.80505 2.07648 0
M  V30 6937 C 675.099 -3.51098 2.3878 0
M  V30 6938 O 676.123 -2.90679 2.05874 0
M  V30 6939 O 674.982 -4.60028 2.9502 0
M  V30 6940 H 672.076 -0.714692 0.416106 0
M  V30 6941 H 674.622 -0.943517 1.41053 0
M  V30 6942 H 673.394 -2.44386 3.05599 0
M  V30 6943 H 673.017 -3.5658 1.75887 0
M  V30 6944 N 674.014 -1.12206 -1.10668 0
M  V30 6945 C 675.244 -0.897332 -1.86095 0
M  V30 6946 C 675.652 0.556778 -1.80822 0
M  V30 6947 O 674.995 1.39658 -1.19337 0
M  V30 6948 C 675.057 -1.29095 -3.35522 0
M  V30 6949 C 674.721 -2.75586 -3.64556 0
M  V30 6950 C 675.718 -3.73785 -3.6136 0
M  V30 6951 C 673.403 -3.12432 -3.93309 0
M  V30 6952 C 675.397 -5.06845 -3.86506 0
M  V30 6953 C 673.084 -4.45675 -4.18111 0
M  V30 6954 C 674.082 -5.42691 -4.147 0
M  V30 6955 O 673.77 -6.73532 -4.38873 0
M  V30 6956 H 673.502 -0.320704 -0.595084 0
M  V30 6957 H 676.056 -1.49517 -1.40833 0
M  V30 6958 H 674.286 -0.636299 -3.81429 0
M  V30 6959 H 675.975 -1.04073 -3.92331 0
M  V30 6960 H 676.741 -3.46664 -3.39189 0
M  V30 6961 H 672.62 -2.3753 -3.95096 0
M  V30 6962 H 676.164 -5.82559 -3.83758 0
M  V30 6963 H 672.061 -4.72526 -4.39761 0
M  V30 6964 H 672.829 -6.79442 -4.564 0
M  V30 6965 N 675.492 1.28418 -0.913599 0
M  V30 6966 C 676.741 1.94265 -0.542572 0
M  V30 6967 C 677.054 1.72709 0.918207 0
M  V30 6968 O 678.26 2.32778 1.39738 0
M  V30 6969 C 676.716 3.47956 -0.919507 0
M  V30 6970 C 676.324 3.78291 -2.4 0
M  V30 6971 C 678.068 4.19962 -0.619057 0
M  V30 6972 C 675.975 5.2529 -2.71707 0
M  V30 6973 H 674.905 0.727213 -0.199192 0
M  V30 6974 H 677.556 1.45931 -1.11249 0
M  V30 6975 H 675.938 3.9502 -0.278372 0
M  V30 6976 H 677.112 3.42035 -3.08786 0
M  V30 6977 H 675.427 3.19456 -2.67089 0
M  V30 6978 H 678.024 5.28178 -0.832623 0
M  V30 6979 H 678.367 4.13935 0.443126 0
M  V30 6980 H 678.9 3.78674 -1.21865 0
M  V30 6981 H 675.639 5.36394 -3.76778 0
M  V30 6982 H 675.159 5.62743 -2.07559 0
M  V30 6983 H 676.838 5.93027 -2.58703 0
M  V30 6984 N 676.97 0.677563 1.42291 0
M  V30 6985 C 677.917 0.000947061 2.308 0
M  V30 6986 C 678.887 -0.789889 1.46116 0
M  V30 6987 O 680.072 -0.761578 1.74942 0
M  V30 6988 C 677.212 -0.942387 3.31984 0
M  V30 6989 C 676.325 -0.14508 4.31756 0
M  V30 6990 C 675.46 -1.08442 5.20013 0
M  V30 6991 C 674.499 -0.278958 6.11464 0
M  V30 6992 N 673.636 -1.17115 6.92263 0
M  V30 6993 H 678.476 0.761521 2.88106 0
M  V30 6994 H 676.013 0.38727 1.41911 0
M  V30 6995 H 677.971 -1.50317 3.89179 0
M  V30 6996 H 676.601 -1.66956 2.76271 0
M  V30 6997 H 675.653 0.532368 3.76656 0
M  V30 6998 H 676.965 0.48015 4.96484 0
M  V30 6999 H 676.119 -1.71504 5.81955 0
M  V30 7000 H 674.858 -1.74353 4.55469 0
M  V30 7001 H 673.863 0.364856 5.48588 0
M  V30 7002 H 675.088 0.376099 6.78058 0
M  V30 7003 H 673.034 -1.81661 6.30345 0
M  V30 7004 H 672.951 -0.601063 7.53607 0
M  V30 7005 H 674.219 -1.78915 7.58689 0
M  V30 7006 N 678.448 -1.51871 0.421078 0
M  V30 7007 C 679.396 -2.28903 -0.413066 0
M  V30 7008 C 680.39 -1.3408 -1.03532 0
M  V30 7009 O 681.596 -1.5149 -0.972146 0
M  V30 7010 H 677.971 -0.736478 -0.152003 0
M  V30 7011 H 679.942 -2.97285 0.257695 0
M  V30 7012 C 678.691 -3.13156 -1.51091 0
M  V30 7013 H 678.014 -3.85997 -1.04145 0
M  V30 7014 H 679.454 -3.7014 -2.06814 0
M  V30 7015 C 677.913 -2.27482 -2.48503 0
M  V30 7016 O 678.443 -1.92325 -3.52667 0
M  V30 7017 N 676.649 -1.91019 -2.18998 0
M  V30 7018 H 676.196 -2.19808 -1.34322 0
M  V30 7019 H 676.154 -1.3399 -2.84419 0
M  V30 7020 N 679.926 -0.151884 -1.56866 0
M  V30 7021 C 681.156 0.504081 -2.00356 0
M  V30 7022 C 681.564 1.58639 -1.03103 0
M  V30 7023 O 680.907 1.83688 -0.0207931 0
M  V30 7024 C 680.969 1.15975 -3.40279 0
M  V30 7025 C 680.633 0.221453 -4.56463 0
M  V30 7026 C 681.63 -0.552766 -5.16953 0
M  V30 7027 C 679.315 0.122936 -5.0215 0
M  V30 7028 C 681.309 -1.4129 -6.21543 0
M  V30 7029 C 678.996 -0.740801 -6.06593 0
M  V30 7030 C 679.994 -1.50732 -6.6616 0
M  V30 7031 O 679.682 -2.35666 -7.68581 0
M  V30 7032 H 679.414 0.135279 -0.662326 0
M  V30 7033 H 681.968 -0.244916 -2.03935 0
M  V30 7034 H 680.198 1.95649 -3.33554 0
M  V30 7035 H 681.887 1.71594 -3.67846 0
M  V30 7036 H 682.653 -0.486716 -4.82552 0
M  V30 7037 H 678.532 0.70931 -4.5551 0
M  V30 7038 H 682.076 -2.01166 -6.67966 0
M  V30 7039 H 677.973 -0.808125 -6.40421 0
M  V30 7040 H 678.741 -2.28967 -7.85822 0
M  V30 7041 N 681.404 1.57128 0.121893 0
M  V30 7042 C 682.632 1.88883 0.844451 0
M  V30 7043 C 683.047 0.742824 1.73573 0
M  V30 7044 O 682.404 -0.286475 1.80238 0
M  V30 7045 C 682.455 3.20076 1.68029 0
M  V30 7046 O 682.176 4.30264 0.824898 0
M  V30 7047 C 683.677 3.65515 2.50826 0
M  V30 7048 H 680.897 0.62549 0.242907 0
M  V30 7049 H 683.441 2.04219 0.107151 0
M  V30 7050 H 681.596 3.06418 2.37038 0
M  V30 7051 H 682.01 5.05439 1.40113 0
M  V30 7052 H 683.484 4.60081 3.05008 0
M  V30 7053 H 683.961 2.92029 3.28048 0
M  V30 7054 H 684.567 3.81952 1.87064 0
M  V30 7055 N 682.882 -0.391992 1.52647 0
M  V30 7056 C 683.832 -1.47815 1.73594 0
M  V30 7057 C 684.816 -1.49693 0.589979 0
M  V30 7058 O 686.008 -1.5538 0.847701 0
M  V30 7059 C 683.137 -2.85561 1.90551 0
M  V30 7060 C 682.223 -2.88264 3.1107 0
M  V30 7061 N 682.614 -2.60642 4.33474 0
M  V30 7062 C 680.912 -3.19432 3.11254 0
M  V30 7063 C 681.613 -2.70351 5.15058 0
M  V30 7064 N 680.589 -3.03956 4.50679 0
M  V30 7065 H 684.391 -1.2528 2.65861 0
M  V30 7066 H 681.905 -0.599907 1.50913 0
M  V30 7067 H 683.902 -3.63759 2.03678 0
M  V30 7068 H 682.562 -3.09081 0.994952 0
M  V30 7069 H 683.573 -2.34718 4.61658 0
M  V30 7070 H 680.25 -3.48436 2.29997 0
M  V30 7071 H 681.64 -2.52565 6.22624 0
M  V30 7072 N 684.36 -1.4356 -0.65026 0
M  V30 7073 C 685.608 -1.45046 -1.40734 0
M  V30 7074 C 685.929 -0.0769822 -1.94848 0
M  V30 7075 O 685.199 0.888098 -1.74613 0
M  V30 7076 H 683.779 -0.534034 -0.522318 0
M  V30 7077 H 686.441 -1.79186 -0.766703 0
M  V30 7078 H 685.537 -2.16476 -2.24822 0
M  V30 7079 N 685.838 0.888903 -1.30139 0
M  V30 7080 C 686.785 1.99422 -1.16188 0
M  V30 7081 C 687.755 1.66017 -0.0523869 0
M  V30 7082 O 688.94 1.89506 -0.221864 0
M  V30 7083 C 686.08 3.34325 -0.855612 0
M  V30 7084 C 685.193 3.80445 -2.0466 0
M  V30 7085 C 684.328 5.03975 -1.67876 0
M  V30 7086 C 683.367 5.42492 -2.83493 0
M  V30 7087 N 682.504 6.57206 -2.47032 0
M  V30 7088 H 687.344 2.10687 -2.10749 0
M  V30 7089 H 684.881 1.03165 -1.04859 0
M  V30 7090 H 686.839 4.11968 -0.658681 0
M  V30 7091 H 685.469 3.22756 0.0531155 0
M  V30 7092 H 684.521 2.98745 -2.3549 0
M  V30 7093 H 685.833 4.04933 -2.91257 0
M  V30 7094 H 684.987 5.89232 -1.44535 0
M  V30 7095 H 683.726 4.8135 -0.784431 0
M  V30 7096 H 682.731 4.55764 -3.07505 0
M  V30 7097 H 683.956 5.67093 -3.73607 0
M  V30 7098 H 681.902 6.36164 -1.601 0
M  V30 7099 H 681.819 6.81543 -3.27161 0
M  V30 7100 H 683.087 7.45704 -2.27038 0
M  V30 7101 N 687.317 1.12792 1.10072 0
M  V30 7102 C 688.566 0.880232 1.81479 0
M  V30 7103 C 688.879 -0.595575 1.86312 0
M  V30 7104 O 690.085 -0.959979 2.53962 0
M  V30 7105 C 688.541 1.52514 3.25987 0
M  V30 7106 C 688.149 3.036 3.29441 0
M  V30 7107 C 689.893 1.35788 4.02196 0
M  V30 7108 C 687.8 3.61007 4.68431 0
M  V30 7109 H 686.73 0.325654 0.680048 0
M  V30 7110 H 689.381 1.35485 1.23758 0
M  V30 7111 H 687.763 0.978188 3.83728 0
M  V30 7112 H 688.937 3.64819 2.81502 0
M  V30 7113 H 687.252 3.19765 2.66719 0
M  V30 7114 H 689.849 1.76096 5.0487 0
M  V30 7115 H 690.192 0.301972 4.15203 0
M  V30 7116 H 690.725 1.87426 3.50879 0
M  V30 7117 H 687.464 4.66375 4.60625 0
M  V30 7118 H 686.984 3.04564 5.16721 0
M  V30 7119 H 688.663 3.60289 5.37402 0
M  V30 7120 N 688.795 -1.27931 0.920396 0
M  V30 7121 C 690.041 -1.94977 0.557832 0
M  V30 7122 C 690.374 -1.72224 -0.897365 0
M  V30 7123 O 689.649 -1.04705 -1.63912 0
M  V30 7124 C 689.932 -3.49289 0.875741 0
M  V30 7125 C 689.785 -3.81416 2.38416 0
M  V30 7126 C 691.104 -4.38486 0.376517 0
M  V30 7127 H 688.223 -0.708164 0.20414 0
M  V30 7128 H 690.865 -1.5118 1.15085 0
M  V30 7129 H 689.015 -3.86724 0.371062 0
M  V30 7130 H 690.687 -3.53813 2.95997 0
M  V30 7131 H 688.93 -3.28225 2.83639 0
M  V30 7132 H 689.601 -4.89198 2.55713 0
M  V30 7133 H 692.077 -4.08161 0.808945 0
M  V30 7134 H 690.953 -5.45296 0.627976 0
M  V30 7135 H 691.214 -4.36143 -0.723293 0
M  V30 7136 N 690.273 -0.685099 -1.4193 0
M  V30 7137 C 691.22 -0.0131869 -2.30796 0
M  V30 7138 C 692.19 0.782129 -1.46533 0
M  V30 7139 O 693.375 0.75229 -1.75343 0
M  V30 7140 C 690.515 0.924768 -3.32479 0
M  V30 7141 C 689.628 0.122181 -4.31827 0
M  V30 7142 C 688.763 1.05682 -5.20581 0
M  V30 7143 C 687.802 0.246526 -6.11603 0
M  V30 7144 N 686.939 1.13442 -6.92875 0
M  V30 7145 H 691.779 -0.776789 -2.87698 0
M  V30 7146 H 689.316 -0.394791 -1.41703 0
M  V30 7147 H 691.274 1.48251 -3.89971 0
M  V30 7148 H 689.904 1.65488 -2.77152 0
M  V30 7149 H 688.956 -0.552335 -3.76369 0
M  V30 7150 H 690.268 -0.506473 -4.96222 0
M  V30 7151 H 689.422 1.68415 -5.82856 0
M  V30 7152 H 688.161 1.71935 -4.56388 0
M  V30 7153 H 687.166 -0.393944 -5.48387 0
M  V30 7154 H 688.391 -0.412053 -6.77849 0
M  V30 7155 H 686.337 1.78316 -6.313 0
M  V30 7156 H 686.254 0.561089 -7.53915 0
M  V30 7157 H 687.522 1.74889 -7.59628 0
M  V30 7158 N 691.751 1.51645 -0.429126 0
M  V30 7159 C 692.976 2.06917 0.141399 0
M  V30 7160 C 693.401 1.29527 1.36398 0
M  V30 7161 O 692.759 0.33094 1.78254 0
M  V30 7162 C 692.807 3.57776 0.4504 0
M  V30 7163 O 691.911 3.82639 1.53821 0
M  V30 7164 H 691.252 0.663978 0.0054647 0
M  V30 7165 H 693.782 1.95355 -0.608093 0
M  V30 7166 H 693.792 4.01894 0.703249 0
M  V30 7167 H 692.467 4.13532 -0.443213 0
M  V30 7168 H 691.044 3.5039 1.27597 0
M  V30 7169 N 693.229 0.160201 1.56784 0
M  V30 7170 C 694.139 -0.787167 2.21 0
M  V30 7171 C 695.155 -1.26167 1.19825 0
M  V30 7172 O 696.331 -1.31611 1.52448 0
M  V30 7173 C 693.396 -2.00364 2.8294 0
M  V30 7174 C 692.457 -1.5771 3.99282 0
M  V30 7175 C 691.69 -2.73558 4.58259 0
M  V30 7176 O 691.913 -3.90129 4.16119 0
M  V30 7177 O 690.847 -2.48271 5.48311 0
M  V30 7178 H 694.673 -0.270462 3.02493 0
M  V30 7179 H 692.258 -0.0674666 1.49248 0
M  V30 7180 H 694.14 -2.71529 3.22257 0
M  V30 7181 H 692.815 -2.50961 2.04451 0
M  V30 7182 H 691.722 -0.835274 3.64656 0
M  V30 7183 H 693.055 -1.11815 4.79331 0
M  V30 7184 N 694.707 -1.5719 -0.113559 0
M  V30 7185 C 695.937 -1.89053 -0.833212 0
M  V30 7186 C 696.345 -0.750139 -1.73694 0
M  V30 7187 O 695.688 0.287808 -1.81431 0
M  V30 7188 C 695.75 -3.15986 -1.71443 0
M  V30 7189 C 695.414 -4.46271 -0.984449 0
M  V30 7190 C 696.411 -5.18897 -0.322741 0
M  V30 7191 C 694.096 -4.92963 -0.964011 0
M  V30 7192 C 696.09 -6.3644 0.349646 0
M  V30 7193 C 693.777 -6.10422 -0.287828 0
M  V30 7194 C 694.775 -6.82009 0.36784 0
M  V30 7195 O 694.463 -7.97233 1.03322 0
M  V30 7196 H 694.195 -0.630225 -0.244526 0
M  V30 7197 H 696.749 -2.05152 -0.100847 0
M  V30 7198 H 694.979 -2.95984 -2.48858 0
M  V30 7199 H 696.668 -3.33826 -2.309 0
M  V30 7200 H 697.434 -4.83875 -0.330114 0
M  V30 7201 H 693.313 -4.37143 -1.46379 0
M  V30 7202 H 696.857 -6.92254 0.861996 0
M  V30 7203 H 692.754 -6.449 -0.278237 0
M  V30 7204 H 693.522 -8.13105 0.938247 0
M  V30 7205 N 696.185 0.383891 -1.52853 0
M  V30 7206 C 697.431 1.12667 -1.69345 0
M  V30 7207 C 697.786 1.87519 -0.430635 0
M  V30 7208 O 697.079 1.82742 0.575846 0
M  V30 7209 C 697.273 2.12881 -2.87082 0
M  V30 7210 C 697.102 1.47873 -4.24692 0
M  V30 7211 C 695.872 1.24064 -4.89833 0
M  V30 7212 C 698.07 0.926118 -5.05893 0
M  V30 7213 N 696.052 0.552138 -6.11412 0
M  V30 7214 C 697.423 0.365966 -6.18919 0
M  V30 7215 C 699.478 0.823023 -4.91051 0
M  V30 7216 C 698.181 -0.287204 -7.18726 0
M  V30 7217 C 700.207 0.183666 -5.91115 0
M  V30 7218 C 699.569 -0.365693 -7.0345 0
M  V30 7219 H 695.668 0.398064 -0.673104 0
M  V30 7220 H 698.252 0.415504 -1.90215 0
M  V30 7221 H 696.423 2.81329 -2.67784 0
M  V30 7222 H 698.155 2.79703 -2.92486 0
M  V30 7223 H 694.91 1.51701 -4.48647 0
M  V30 7224 H 695.334 0.223783 -6.7663 0
M  V30 7225 H 699.976 1.23354 -4.04405 0
M  V30 7226 H 697.694 -0.709719 -8.04977 0
M  V30 7227 H 701.28 0.105074 -5.81705 0
M  V30 7228 H 700.16 -0.85261 -7.79551 0
M  V30 7229 N 697.663 1.43903 0.642637 0
M  V30 7230 C 698.593 1.52697 1.76652 0
M  V30 7231 C 699.574 0.380816 1.65782 0
M  V30 7232 O 700.759 0.599432 1.84717 0
M  V30 7233 C 697.889 1.45975 3.15133 0
M  V30 7234 C 696.843 2.58949 3.40778 0
M  V30 7235 C 696.169 2.37279 4.79169 0
M  V30 7236 C 697.469 4.01153 3.34475 0
M  V30 7237 H 699.163 2.46766 1.69549 0
M  V30 7238 H 696.709 1.18767 0.814279 0
M  V30 7239 H 698.662 1.5073 3.93521 0
M  V30 7240 H 697.386 0.484162 3.22991 0
M  V30 7241 H 696.045 2.53564 2.64765 0
M  V30 7242 H 695.693 1.37939 4.83717 0
M  V30 7243 H 695.393 3.13016 4.97287 0
M  V30 7244 H 696.917 2.43834 5.59801 0
M  V30 7245 H 698.331 4.07968 4.02784 0
M  V30 7246 H 696.728 4.77001 3.64129 0
M  V30 7247 H 697.798 4.25539 2.32475 0
M  V30 7248 N 699.141 -0.881989 1.30609 0
M  V30 7249 C 700.104 -1.96957 1.1722 0
M  V30 7250 C 701.104 -1.60472 0.102598 0
M  V30 7251 O 702.294 -1.70628 0.350943 0
M  V30 7252 C 699.426 -3.31463 0.796572 0
M  V30 7253 H 700.619 -2.10262 2.13846 0
M  V30 7254 H 698.172 -1.06877 1.14048 0
M  V30 7255 H 698.907 -3.23859 -0.169053 0
M  V30 7256 H 698.692 -3.59314 1.56959 0
M  V30 7257 H 700.182 -4.11233 0.72645 0
M  V30 7258 N 700.619 -1.13374 -1.09472 0
M  V30 7259 C 701.566 -0.810682 -2.16094 0
M  V30 7260 C 702.536 0.227003 -1.64541 0
M  V30 7261 O 703.721 0.0993538 -1.90541 0
M  V30 7262 C 700.861 -0.282336 -3.43943 0
M  V30 7263 C 699.974 -1.37902 -4.09398 0
M  V30 7264 C 699.109 -0.809066 -5.25002 0
M  V30 7265 C 698.148 -1.88419 -5.82379 0
M  V30 7266 N 697.285 -1.33221 -6.89345 0
M  V30 7267 H 702.125 -1.72397 -2.43071 0
M  V30 7268 H 699.662 -0.860564 -1.19301 0
M  V30 7269 H 701.62 0.0421189 -4.17179 0
M  V30 7270 H 700.25 0.594083 -3.17286 0
M  V30 7271 H 699.302 -1.82008 -3.34032 0
M  V30 7272 H 700.614 -2.19161 -4.48074 0
M  V30 7273 H 699.768 -0.435867 -6.05132 0
M  V30 7274 H 698.507 0.0346058 -4.87688 0
M  V30 7275 H 697.512 -2.26646 -5.00911 0
M  V30 7276 H 698.737 -2.73125 -6.21755 0
M  V30 7277 H 696.683 -0.510535 -6.5401 0
M  V30 7278 H 696.6 -2.08129 -7.26786 0
M  V30 7279 H 697.868 -0.986565 -7.73232 0
M  V30 7280 N 702.098 1.27442 -0.927168 0
M  V30 7281 C 703.031 2.25177 -0.370232 0
M  V30 7282 C 704.009 1.53612 0.533103 0
M  V30 7283 O 705.193 1.8245 0.47373 0
M  V30 7284 C 702.32 3.35431 0.469411 0
M  V30 7285 C 701.366 4.24888 -0.370419 0
M  V30 7286 S 702.199 5.04852 -1.78562 0
M  V30 7287 C 703.355 6.18592 -0.953651 0
M  V30 7288 H 703.588 2.72069 -1.19858 0
M  V30 7289 H 701.121 1.36089 -0.729316 0
M  V30 7290 H 703.079 3.99404 0.947992 0
M  V30 7291 H 701.74 2.87179 1.27228 0
M  V30 7292 H 700.933 5.03264 0.272226 0
M  V30 7293 H 700.535 3.65709 -0.783153 0
M  V30 7294 H 702.827 6.77235 -0.189408 0
M  V30 7295 H 703.77 6.87132 -1.7104 0
M  V30 7296 H 704.178 5.62318 -0.495897 0
M  V30 7297 N 703.576 0.692616 1.41565 0
M  V30 7298 C 704.825 0.219452 2.00503 0
M  V30 7299 C 705.138 -1.18683 1.55479 0
M  V30 7300 O 706.344 -1.75731 2.06956 0
M  V30 7301 C 704.8 0.341451 3.58277 0
M  V30 7302 C 704.408 1.75291 4.12283 0
M  V30 7303 C 706.152 -0.0720899 4.24439 0
M  V30 7304 C 704.059 1.82673 5.62481 0
M  V30 7305 H 702.989 0.0782874 0.749925 0
M  V30 7306 H 705.64 0.860386 1.62079 0
M  V30 7307 H 704.022 -0.367683 3.94289 0
M  V30 7308 H 705.196 2.49057 3.87695 0
M  V30 7309 H 703.511 2.11587 3.58636 0
M  V30 7310 H 706.108 -0.0373385 5.34687 0
M  V30 7311 H 706.451 -1.11034 4.0122 0
M  V30 7312 H 706.984 0.586663 3.9345 0
M  V30 7313 H 703.723 2.84539 5.90523 0
M  V30 7314 H 703.243 1.13288 5.89004 0
M  V30 7315 H 704.922 1.58827 6.27203 0
M  V30 7316 N 705.054 -1.51416 0.437162 0
M  V30 7317 C 706.331 -1.94682 -0.189292 0
M  V30 7318 C 706.711 -1.37581 -1.60108 0
M  V30 7319 O 706.059 -0.562815 -2.2146 0
M  V30 7320 C 706.269 -3.48599 -0.167201 0
M  V30 7321 C 707.617 -4.2296 -0.372856 0
M  V30 7322 O 708.641 -3.55354 -0.245323 0
M  V30 7323 O 707.5 -5.42895 -0.626693 0
M  V30 7324 H 704.594 -0.816708 -0.130063 0
M  V30 7325 H 707.14 -1.62316 0.495128 0
M  V30 7326 H 705.912 -3.82616 0.81981 0
M  V30 7327 H 705.535 -3.87406 -0.894537 0
M  V30 7328 N 706.532 -0.168513 -1.56696 0
M  V30 7329 C 707.462 0.758563 -2.20835 0
M  V30 7330 C 708.443 1.24121 -1.1631 0
M  V30 7331 O 709.628 1.29487 -1.4473 0
M  V30 7332 C 706.758 1.9892 -2.8469 0
M  V30 7333 C 705.712 1.64252 -3.95228 0
M  V30 7334 C 705.038 2.94757 -4.46119 0
M  V30 7335 C 706.338 0.872675 -5.14958 0
M  V30 7336 H 708.032 0.223953 -2.98561 0
M  V30 7337 H 705.578 0.106277 -1.43607 0
M  V30 7338 H 707.531 2.64275 -3.28233 0
M  V30 7339 H 706.255 2.5479 -2.04327 0
M  V30 7340 H 704.914 1.01266 -3.52336 0
M  V30 7341 H 704.562 3.48662 -3.62552 0
M  V30 7342 H 704.262 2.72316 -5.2069 0
M  V30 7343 H 705.786 3.61147 -4.92347 0
M  V30 7344 H 707.2 1.42875 -5.55211 0
M  V30 7345 H 705.597 0.747402 -5.95428 0
M  V30 7346 H 706.667 -0.131535 -4.84722 0
M  V30 7347 N 708.01 1.57248 0.105221 0
M  V30 7348 C 709.257 1.8557 0.810552 0
M  V30 7349 C 709.585 0.755595 1.79223 0
M  V30 7350 O 708.84 -0.251788 1.94073 0
M  V30 7351 C 709.139 3.20437 1.58287 0
M  V30 7352 C 708.805 4.44716 0.744235 0
M  V30 7353 C 707.467 4.78458 0.513013 0
M  V30 7354 C 709.819 5.20953 0.160578 0
M  V30 7355 C 707.147 5.8587 -0.311894 0
M  V30 7356 C 709.499 6.29235 -0.651596 0
M  V30 7357 C 708.163 6.615 -0.893005 0
M  V30 7358 H 707.433 0.67905 0.296602 0
M  V30 7359 H 710.08 1.91363 0.0723968 0
M  V30 7360 H 708.385 3.10283 2.39232 0
M  V30 7361 H 710.082 3.39576 2.13282 0
M  V30 7362 H 706.672 4.18287 0.934555 0
M  V30 7363 H 710.856 4.95226 0.3264 0
M  V30 7364 H 706.112 6.09286 -0.508012 0
M  V30 7365 H 710.286 6.87484 -1.11077 0
M  V30 7366 H 707.913 7.44562 -1.53401 0
M  V30 7367 N 709.488 -0.375779 1.53054 0
M  V30 7368 C 710.899 -0.95309 1.6054 0
M  V30 7369 C 711.25 -1.90575 0.466446 0
M  V30 7370 O 710.375 -2.12507 -0.408609 0
M  V30 7371 C 710.97 -1.73537 2.90982 0
M  V30 7372 C 709.529 -2.26218 3.00836 0
M  V30 7373 C 708.676 -1.07157 2.55759 0
M  V30 7374 H 711.627 -0.154895 1.57942 0
M  V30 7375 H 711.648 -2.59574 2.78211 0
M  V30 7376 H 711.16 -1.04176 3.73857 0
M  V30 7377 H 709.261 -2.98852 2.22527 0
M  V30 7378 H 709.374 -2.54799 4.05727 0
M  V30 7379 H 707.738 -1.43553 2.10391 0
M  V30 7380 H 708.521 -0.393099 3.41042 0
M  V30 7381 N 710.966 -1.44241 -0.634997 0
M  V30 7382 C 712.212 -1.47038 -1.39669 0
M  V30 7383 C 712.545 -0.101122 -1.93937 0
M  V30 7384 O 711.82 0.880699 -1.73418 0
M  V30 7385 C 712.103 -2.52763 -2.56482 0
M  V30 7386 C 711.956 -3.99032 -2.07589 0
M  V30 7387 C 713.275 -2.55031 -3.58674 0
M  V30 7388 H 710.394 -0.53537 -0.506506 0
M  V30 7389 H 713.036 -1.75898 -0.718317 0
M  V30 7390 H 711.186 -2.28284 -3.14354 0
M  V30 7391 H 712.858 -4.3463 -1.54577 0
M  V30 7392 H 711.101 -4.10994 -1.38804 0
M  V30 7393 H 711.772 -4.68649 -2.91671 0
M  V30 7394 H 714.248 -2.76893 -3.10595 0
M  V30 7395 H 713.124 -3.30916 -4.37934 0
M  V30 7396 H 713.385 -1.59085 -4.12486 0
M  V30 7397 N 712.444 0.87505 -1.31075 0
M  V30 7398 C 713.407 1.96333 -1.18263 0
M  V30 7399 C 714.407 1.60416 -0.111106 0
M  V30 7400 O 715.597 1.7044 -0.359987 0
M  V30 7401 C 712.729 3.31036 -0.81414 0
M  V30 7402 H 713.922 2.09125 -2.14958 0
M  V30 7403 H 711.475 1.06271 -1.14614 0
M  V30 7404 H 712.21 3.23944 0.151875 0
M  V30 7405 H 711.995 3.58476 -1.58862 0
M  V30 7406 H 713.485 4.10842 -0.748249 0
M  V30 7407 N 713.922 1.13953 1.08869 0
M  V30 7408 C 714.869 0.82213 2.15661 0
M  V30 7409 C 715.839 -0.218274 1.6466 0
M  V30 7410 O 717.024 -0.0892475 1.90591 0
M  V30 7411 C 714.164 0.300572 3.43789 0
M  V30 7412 C 713.277 1.40071 4.08661 0
M  V30 7413 C 712.412 0.836897 5.24566 0
M  V30 7414 C 711.451 1.91504 5.81371 0
M  V30 7415 N 710.588 1.36875 6.88629 0
M  V30 7416 H 715.428 1.73683 2.42153 0
M  V30 7417 H 712.965 0.866879 1.18843 0
M  V30 7418 H 714.923 -0.0199943 4.17195 0
M  V30 7419 H 713.553 -0.577248 3.17597 0
M  V30 7420 H 712.605 1.83776 3.33062 0
M  V30 7421 H 713.917 2.21534 4.46905 0
M  V30 7422 H 713.071 0.467953 6.04893 0
M  V30 7423 H 711.81 -0.00874207 4.87699 0
M  V30 7424 H 710.815 2.29299 4.99702 0
M  V30 7425 H 712.04 2.76419 6.20298 0
M  V30 7426 H 709.986 0.545211 6.5373 0
M  V30 7427 H 709.903 2.1198 7.25672 0
M  V30 7428 H 711.171 1.02756 7.72698 0
M  V30 7429 N 715.4 -1.26948 0.933913 0
M  V30 7430 C 716.816 -1.46419 0.635103 0
M  V30 7431 C 717.016 -1.84336 -0.813785 0
M  V30 7432 O 716.072 -1.96061 -1.59111 0
M  V30 7433 C 717.385 -2.55206 1.5903 0
M  V30 7434 C 718.933 -2.69062 1.5992 0
M  V30 7435 C 719.408 -3.81013 2.54152 0
M  V30 7436 N 720.899 -3.88395 2.52395 0
M  V30 7437 C 721.634 -4.74454 3.21996 0
M  V30 7438 N 721.13 -5.64954 4.00997 0
M  V30 7439 N 722.923 -4.68237 3.10983 0
M  V30 7440 H 715.074 -1.00622 1.87053 0
M  V30 7441 H 717.337 -0.503189 0.803433 0
M  V30 7442 H 717.043 -2.34153 2.62422 0
M  V30 7443 H 716.917 -3.52719 1.33677 0
M  V30 7444 H 719.304 -2.89492 0.572569 0
M  V30 7445 H 719.385 -1.72016 1.89325 0
M  V30 7446 H 719.029 -3.61336 3.5693 0
M  V30 7447 H 718.959 -4.77499 2.22041 0
M  V30 7448 H 721.45 -3.23687 1.95025 0
M  V30 7449 H 721.763 -6.27496 4.51074 0
M  V30 7450 H 720.108 -5.6473 4.05099 0
M  V30 7451 H 723.299 -3.96535 2.48753 0
M  V30 7452 H 723.472 -5.35087 3.65494 0
M  V30 7453 N 716.879 -0.700114 -1.41195 0
M  V30 7454 C 717.842 -0.0465706 -2.29153 0
M  V30 7455 C 718.842 0.703302 -1.44604 0
M  V30 7456 O 720.032 0.537513 -1.657 0
M  V30 7457 C 717.164 0.944324 -3.2756 0
M  V30 7458 H 718.357 -0.821064 -2.88442 0
M  V30 7459 H 715.91 -0.463869 -1.49258 0
M  V30 7460 H 716.645 1.74642 -2.73259 0
M  V30 7461 H 716.43 0.409701 -3.89954 0
M  V30 7462 H 717.92 1.39925 -3.9346 0
M  V30 7463 N 718.357 1.51182 -0.445186 0
M  V30 7464 C 719.605 2.01753 0.11841 0
M  V30 7465 C 719.926 1.33087 1.42523 0
M  V30 7466 O 719.196 0.467891 1.9023 0
M  V30 7467 H 717.776 0.745536 0.0467492 0
M  V30 7468 H 720.438 1.85765 -0.589688 0
M  V30 7469 H 719.534 3.10762 0.288665 0
M  V30 7470 N 719.835 0.176821 1.56605 0
M  V30 7471 C 721.081 -0.467406 1.9734 0
M  V30 7472 C 721.414 -1.62523 1.06301 0
M  V30 7473 O 720.689 -1.94182 0.11125 0
M  V30 7474 C 720.972 -0.945106 3.47476 0
M  V30 7475 C 720.825 0.213273 4.49294 0
M  V30 7476 C 722.144 -1.8169 4.00845 0
M  V30 7477 H 719.263 -0.168426 0.717497 0
M  V30 7478 H 721.905 0.264065 1.88156 0
M  V30 7479 H 720.055 -1.56841 3.55434 0
M  V30 7480 H 721.727 0.850508 4.53392 0
M  V30 7481 H 719.97 0.867918 4.25029 0
M  V30 7482 H 720.641 -0.163187 5.51759 0
M  V30 7483 H 723.117 -1.29139 3.95553 0
M  V30 7484 H 721.993 -2.12015 5.06301 0
M  V30 7485 H 722.254 -2.76463 3.44994 0
M  V30 7486 N 721.313 -1.57302 -0.09688 0
M  V30 7487 C 722.538 -1.9058 -0.818169 0
M  V30 7488 C 722.963 -0.770921 -1.71576 0
M  V30 7489 O 722.321 0.277588 -1.79162 0
M  V30 7490 C 722.369 -3.22714 -1.60898 0
M  V30 7491 O 721.473 -3.10178 -2.71779 0
M  V30 7492 H 720.814 -0.624759 -0.224882 0
M  V30 7493 H 723.344 -2.04471 -0.07264 0
M  V30 7494 H 723.354 -3.55978 -1.99358 0
M  V30 7495 H 722.029 -4.04899 -0.950227 0
M  V30 7496 H 720.606 -2.88424 -2.3636 0
M  V30 7497 N 722.791 0.367657 -1.53252 0
M  V30 7498 C 723.701 1.47415 -1.82499 0
M  V30 7499 C 724.717 1.58711 -0.713222 0
M  V30 7500 O 725.893 1.74644 -1.00306 0
M  V30 7501 C 722.958 2.82706 -2.00694 0
M  V30 7502 C 722.019 2.80955 -3.24596 0
M  V30 7503 C 721.252 4.09793 -3.41914 0
M  V30 7504 O 721.475 5.05852 -2.63572 0
M  V30 7505 O 720.409 4.15731 -4.3526 0
M  V30 7506 H 724.235 1.25624 -2.765 0
M  V30 7507 H 721.82 0.557559 -1.38606 0
M  V30 7508 H 723.702 3.62873 -2.14246 0
M  V30 7509 H 722.377 3.04479 -1.09883 0
M  V30 7510 H 721.284 1.99494 -3.16469 0
M  V30 7511 H 722.617 2.64136 -4.15323 0
M  V30 7512 N 724.269 1.44576 0.627338 0
M  V30 7513 C 725.546 1.38033 1.38586 0
M  V30 7514 C 725.926 0.0409468 2.1106 0
M  V30 7515 O 725.274 -0.976582 2.0658 0
M  V30 7516 C 725.484 2.58102 2.34913 0
M  V30 7517 C 726.832 3.02332 2.98129 0
M  V30 7518 O 727.856 2.58334 2.45238 0
M  V30 7519 O 726.715 3.78628 3.94085 0
M  V30 7520 H 723.809 0.546801 0.620434 0
M  V30 7521 H 726.355 1.56672 0.652077 0
M  V30 7522 H 725.127 3.4719 1.80485 0
M  V30 7523 H 724.75 2.41696 3.15703 0
M  V30 7524 N 725.747 -0.868086 1.31537 0
M  V30 7525 C 726.993 -1.62367 1.2151 0
M  V30 7526 C 727.326 -1.92883 -0.225819 0
M  V30 7527 O 726.601 -1.56176 -1.15927 0
M  V30 7528 C 726.884 -2.95268 2.06129 0
M  V30 7529 C 726.737 -2.71619 3.58529 0
M  V30 7530 C 728.056 -3.96391 1.91212 0
M  V30 7531 H 725.175 -0.589178 0.442762 0
M  V30 7532 H 727.817 -1.00336 1.61347 0
M  V30 7533 H 725.967 -3.4821 1.72284 0
M  V30 7534 H 727.639 -2.25334 4.0252 0
M  V30 7535 H 725.882 -2.05817 3.81866 0
M  V30 7536 H 726.553 -3.66192 4.13047 0
M  V30 7537 H 729.029 -3.52663 2.20834 0
M  V30 7538 H 727.905 -4.87263 2.52718 0
M  V30 7539 H 728.166 -4.33335 0.875953 0
M  V30 7540 N 727.225 -1.14528 -1.08264 0
M  V30 7541 C 728.155 -0.856356 -2.1723 0
M  V30 7542 C 729.136 0.189251 -1.69044 0
M  V30 7543 O 730.321 0.0456119 -1.94146 0
M  V30 7544 C 727.451 -0.334662 -3.45684 0
M  V30 7545 C 726.405 -1.31588 -4.0727 0
M  V30 7546 C 725.731 -0.653428 -5.30692 0
M  V30 7547 C 727.031 -2.67866 -4.48381 0
M  V30 7548 H 728.725 -1.76755 -2.41657 0
M  V30 7549 H 726.271 -0.851287 -1.16143 0
M  V30 7550 H 728.224 -0.120128 -4.21229 0
M  V30 7551 H 726.948 0.611967 -3.20815 0
M  V30 7552 H 725.607 -1.51661 -3.33758 0
M  V30 7553 H 725.255 0.299054 -5.0211 0
M  V30 7554 H 724.955 -1.30817 -5.72853 0
M  V30 7555 H 726.479 -0.448453 -6.08951 0
M  V30 7556 H 727.893 -2.51692 -5.15096 0
M  V30 7557 H 726.29 -3.29627 -5.01464 0
M  V30 7558 H 727.36 -3.24632 -3.60198 0
M  V30 7559 N 728.703 1.26451 -0.940633 0
M  V30 7560 C 729.651 2.28389 -0.440581 0
M  V30 7561 C 730.645 1.62402 0.481859 0
M  V30 7562 O 731.851 1.76361 0.360132 0
M  V30 7563 H 728.226 0.741716 -0.123938 0
M  V30 7564 H 730.197 2.67967 -1.31288 0
M  V30 7565 C 728.946 3.46576 0.279364 0
M  V30 7566 H 728.269 3.97574 -0.421274 0
M  V30 7567 H 729.709 4.19826 0.59348 0
M  V30 7568 C 728.168 3.01815 1.49697 0
M  V30 7569 O 728.698 3.06607 2.59529 0
M  V30 7570 N 726.904 2.57163 1.35334 0
M  V30 7571 H 726.451 2.53464 0.459743 0
M  V30 7572 H 726.409 2.27578 2.16923 0
M  V30 7573 N 730.181 0.707592 1.40822 0
M  V30 7574 C 731.113 0.0105968 2.29198 0
M  V30 7575 C 732.126 -0.732035 1.45414 0
M  V30 7576 O 733.315 -0.580741 1.68789 0
M  V30 7577 C 730.415 -1.00921 3.23525 0
M  V30 7578 C 729.588 -0.333747 4.36125 0
M  V30 7579 C 728.647 -1.25783 5.10945 0
M  V30 7580 O 727.673 -0.745646 5.64295 0
M  V30 7581 N 728.875 -2.58947 5.19545 0
M  V30 7582 H 731.64 0.76938 2.89656 0
M  V30 7583 H 729.201 0.554579 1.52105 0
M  V30 7584 H 731.193 -1.6294 3.70449 0
M  V30 7585 H 729.763 -1.66942 2.6429 0
M  V30 7586 H 728.983 0.466518 3.9143 0
M  V30 7587 H 730.271 0.135444 5.0862 0
M  V30 7588 H 729.669 -3.03065 4.7767 0
M  V30 7589 H 728.226 -3.16131 5.70004 0
M  V30 7590 N 731.66 -1.50943 0.453197 0
M  V30 7591 C 732.623 -2.26684 -0.338705 0
M  V30 7592 C 733.623 -1.30748 -0.936032 0
M  V30 7593 O 734.813 -1.54327 -0.808002 0
M  V30 7594 C 731.945 -3.07063 -1.48071 0
M  V30 7595 H 733.138 -2.98131 0.325289 0
M  V30 7596 H 730.691 -1.54926 0.206771 0
M  V30 7597 H 731.426 -2.4007 -2.18029 0
M  V30 7598 H 731.211 -3.77545 -1.0584 0
M  V30 7599 H 732.701 -3.64393 -2.0398 0
M  V30 7600 N 733.138 -0.185124 -1.56509 0
M  V30 7601 C 734.554 0.170865 -1.58683 0
M  V30 7602 C 734.754 1.61799 -1.20098 0
M  V30 7603 O 733.81 2.35181 -0.919038 0
M  V30 7604 C 735.123 -0.122459 -3.00451 0
M  V30 7605 C 736.671 -0.0617699 -3.12939 0
M  V30 7606 C 737.146 -0.328269 -4.56822 0
M  V30 7607 N 738.637 -0.276533 -4.62374 0
M  V30 7608 C 739.372 -0.456722 -5.71578 0
M  V30 7609 N 738.868 -0.69672 -6.89288 0
M  V30 7610 N 740.661 -0.391669 -5.60734 0
M  V30 7611 H 732.812 -1.12956 -1.79874 0
M  V30 7612 H 735.075 -0.45011 -0.834329 0
M  V30 7613 H 734.781 -1.12546 -3.33206 0
M  V30 7614 H 734.655 0.579578 -3.72721 0
M  V30 7615 H 737.042 0.931826 -2.80002 0
M  V30 7616 H 737.123 -0.796732 -2.43076 0
M  V30 7617 H 736.767 -1.31914 -4.9047 0
M  V30 7618 H 736.697 0.427465 -5.24862 0
M  V30 7619 H 739.188 -0.0972458 -3.77775 0
M  V30 7620 H 739.501 -0.823291 -7.68402 0
M  V30 7621 H 737.846 -0.733497 -6.91119 0
M  V30 7622 H 741.037 -0.204663 -4.67652 0
M  V30 7623 H 741.21 -0.535518 -6.45783 0
M  V30 7624 N 734.616 1.57351 0.0885366 0
M  V30 7625 C 735.526 2.05858 1.12516 0
M  V30 7626 C 736.542 0.984758 1.43452 0
M  V30 7627 O 737.718 1.29836 1.53963 0
M  V30 7628 C 734.783 2.47882 2.42395 0
M  V30 7629 C 733.844 3.69487 2.18582 0
M  V30 7630 C 733.077 4.09497 3.42268 0
M  V30 7631 O 733.3 3.49536 4.50755 0
M  V30 7632 O 732.234 5.02406 3.31469 0
M  V30 7633 H 736.06 2.94467 0.743146 0
M  V30 7634 H 733.645 1.46326 0.301507 0
M  V30 7635 H 735.527 2.75509 3.18862 0
M  V30 7636 H 734.202 1.62408 2.8001 0
M  V30 7637 H 733.109 3.46967 1.39875 0
M  V30 7638 H 734.442 4.55761 1.85857 0
M  V30 7639 N 736.094 -0.359525 1.53444 0
M  V30 7640 C 737.024 -1.44662 1.8329 0
M  V30 7641 C 738.005 -1.55617 0.68683 0
M  V30 7642 O 739.19 -1.70086 0.93725 0
M  V30 7643 C 736.32 -2.81923 2.02822 0
M  V30 7644 C 735.274 -2.85787 3.18606 0
M  V30 7645 C 734.6 -4.25781 3.23442 0
M  V30 7646 C 735.9 -2.52762 4.57065 0
M  V30 7647 H 737.594 -1.19934 2.74329 0
M  V30 7648 H 735.14 -0.575517 1.31999 0
M  V30 7649 H 737.093 -3.58005 2.22285 0
M  V30 7650 H 735.817 -3.08051 1.085 0
M  V30 7651 H 734.476 -2.12157 2.98973 0
M  V30 7652 H 734.124 -4.48994 2.26745 0
M  V30 7653 H 733.824 -4.29281 4.01238 0
M  V30 7654 H 735.348 -5.03727 3.45096 0
M  V30 7655 H 736.762 -3.18557 4.76649 0
M  V30 7656 H 735.159 -2.67569 5.37147 0
M  V30 7657 H 736.229 -1.47993 4.61764 0
M  V30 7658 N 737.572 -1.44907 -0.619662 0
M  V30 7659 C 738.522 -1.49085 -1.72504 0
M  V30 7660 C 739.506 -0.355372 -1.56926 0
M  V30 7661 O 740.698 -0.601441 -1.66468 0
M  V30 7662 C 737.827 -1.44889 -3.11227 0
M  V30 7663 C 736.913 -2.63593 -3.32234 0
M  V30 7664 N 737.304 -3.88775 -3.23555 0
M  V30 7665 C 735.602 -2.59033 -3.63067 0
M  V30 7666 C 736.303 -4.67932 -3.45564 0
M  V30 7667 N 735.279 -3.9919 -3.68983 0
M  V30 7668 H 739.081 -2.43706 -1.6427 0
M  V30 7669 H 736.595 -1.4003 -0.82252 0
M  V30 7670 H 738.592 -1.45966 -3.90512 0
M  V30 7671 H 737.252 -0.513143 -3.2062 0
M  V30 7672 H 738.263 -4.20574 -3.02221 0
M  V30 7673 H 734.94 -1.7431 -3.79371 0
M  V30 7674 H 736.33 -5.76952 -3.44349 0
M  V30 7675 N 739.05 0.861098 -1.31996 0
M  V30 7676 C 740.28 1.64501 -1.24992 0
M  V30 7677 C 740.688 1.88288 0.185576 0
M  V30 7678 O 740.031 1.44756 1.131 0
M  V30 7679 C 740.093 3.03098 -1.93319 0
M  V30 7680 C 739.757 3.02381 -3.42658 0
M  V30 7681 C 740.754 2.79696 -4.38254 0
M  V30 7682 C 738.439 3.23221 -3.84491 0
M  V30 7683 C 740.433 2.77843 -5.73657 0
M  V30 7684 C 738.12 3.20996 -5.20005 0
M  V30 7685 C 739.118 2.98335 -6.14398 0
M  V30 7686 O 738.806 2.95971 -7.47433 0
M  V30 7687 H 738.538 0.519309 -0.432775 0
M  V30 7688 H 741.092 1.08241 -1.74565 0
M  V30 7689 H 739.322 3.61121 -1.38306 0
M  V30 7690 H 741.011 3.63751 -1.8011 0
M  V30 7691 H 741.777 2.63368 -4.07262 0
M  V30 7692 H 737.656 3.39887 -3.11445 0
M  V30 7693 H 741.2 2.60074 -6.47308 0
M  V30 7694 H 737.097 3.36865 -5.50629 0
M  V30 7695 H 737.865 3.1197 -7.56714 0
M  V30 7696 N 740.528 1.15101 1.07655 0
M  V30 7697 C 741.805 0.834578 1.76902 0
M  V30 7698 C 742.185 -0.670431 2.00171 0
M  V30 7699 O 741.533 -1.61378 1.6177 0
M  V30 7700 C 741.743 1.64191 3.07965 0
M  V30 7701 C 743.091 1.84615 3.82364 0
M  V30 7702 O 744.115 1.60941 3.17768 0
M  V30 7703 O 742.974 2.24244 4.98374 0
M  V30 7704 H 740.068 0.306608 0.768063 0
M  V30 7705 H 742.614 1.25663 1.14048 0
M  V30 7706 H 741.386 2.66386 2.86626 0
M  V30 7707 H 741.009 1.216 3.78549 0
M  V30 7708 N 742.006 -1.2595 0.947325 0
M  V30 7709 C 742.969 -2.24407 0.466285 0
M  V30 7710 C 743.969 -1.55054 -0.426005 0
M  V30 7711 O 745.159 -1.7275 -0.224319 0
M  V30 7712 C 742.291 -3.39326 -0.327201 0
M  V30 7713 H 743.484 -2.68477 1.33642 0
M  V30 7714 H 741.037 -1.38211 0.729887 0
M  V30 7715 H 741.772 -3.00667 -1.21532 0
M  V30 7716 H 741.557 -3.9085 0.312839 0
M  V30 7717 H 743.047 -4.12455 -0.653477 0
M  V30 7718 N 743.484 -0.715051 -1.40445 0
M  V30 7719 C 744.434 -0.038591 -2.27967 0
M  V30 7720 C 745.418 0.733099 -1.43229 0
M  V30 7721 O 746.61 0.605388 -1.66325 0
M  V30 7722 C 743.739 0.882801 -3.31755 0
M  V30 7723 C 742.825 0.106325 -4.23967 0
M  V30 7724 N 743.216 -0.910143 -4.97544 0
M  V30 7725 C 741.514 0.33896 -4.4471 0
M  V30 7726 C 742.215 -1.37665 -5.65175 0
M  V30 7727 N 741.191 -0.698905 -5.39088 0
M  V30 7728 H 744.993 -0.81765 -2.82297 0
M  V30 7729 H 742.507 -0.547591 -1.5289 0
M  V30 7730 H 744.504 1.38273 -3.93302 0
M  V30 7731 H 743.164 1.66124 -2.78985 0
M  V30 7732 H 744.175 -1.29097 -5.01552 0
M  V30 7733 H 740.852 1.09377 -4.02918 0
M  V30 7734 H 742.242 -2.22122 -6.34123 0
M  V30 7735 N 744.962 1.50701 -0.461195 0
M  V30 7736 C 745.892 2.31182 0.328184 0
M  V30 7737 C 746.873 1.37644 0.999408 0
M  V30 7738 O 748.058 1.66565 0.99848 0
M  V30 7739 C 745.188 3.17113 1.41621 0
M  V30 7740 C 744.142 4.19124 0.867148 0
M  V30 7741 C 743.468 4.93728 2.05272 0
M  V30 7742 C 744.768 5.22174 -0.114808 0
M  V30 7743 H 746.462 2.97423 -0.343501 0
M  V30 7744 H 744.008 1.43033 -0.166641 0
M  V30 7745 H 745.961 3.72208 1.97584 0
M  V30 7746 H 744.685 2.48739 2.11652 0
M  V30 7747 H 743.344 3.65116 0.329557 0
M  V30 7748 H 742.992 4.21835 2.73978 0
M  V30 7749 H 742.692 5.62724 1.69161 0
M  V30 7750 H 744.216 5.51654 2.61744 0
M  V30 7751 H 745.63 5.72198 0.355316 0
M  V30 7752 H 744.027 5.98833 -0.389689 0
M  V30 7753 H 745.097 4.7353 -1.04391 0
M  V30 7754 N 746.441 0.193421 1.56409 0
M  V30 7755 C 747.671 -0.450783 2.01622 0
M  V30 7756 C 748.079 -1.5585 1.07273 0
M  V30 7757 O 747.422 -1.83569 0.0694875 0
M  V30 7758 C 747.484 -1.06913 3.43235 0
M  V30 7759 C 747.148 -0.100352 4.5689 0
M  V30 7760 C 748.145 0.689633 5.15306 0
M  V30 7761 C 745.83 0.0102436 5.02299 0
M  V30 7762 C 747.824 1.5772 6.17579 0
M  V30 7763 C 745.511 0.901368 6.04416 0
M  V30 7764 C 746.509 1.68341 6.61929 0
M  V30 7765 O 746.197 2.5596 7.62063 0
M  V30 7766 H 745.929 -0.117671 0.66568 0
M  V30 7767 H 748.483 0.2989 2.03214 0
M  V30 7768 H 746.713 -1.86736 3.38624 0
M  V30 7769 H 748.402 -1.61781 3.72266 0
M  V30 7770 H 749.168 0.614485 4.81092 0
M  V30 7771 H 745.047 -0.58829 4.57231 0
M  V30 7772 H 748.591 2.18805 6.62397 0
M  V30 7773 H 744.488 0.977637 6.38054 0
M  V30 7774 H 745.256 2.49721 7.79475 0
M  V30 7775 N 747.919 -1.57396 -0.0801906 0
M  V30 7776 C 749.165 -1.87979 -0.776884 0
M  V30 7777 C 749.52 -0.786098 -1.75608 0
M  V30 7778 O 748.813 0.210541 -1.9044 0
M  V30 7779 C 749.007 -3.22915 -1.53169 0
M  V30 7780 C 748.836 -4.45306 -0.627099 0
M  V30 7781 C 747.606 -5.04593 -0.267201 0
M  V30 7782 C 749.804 -5.14249 0.0724916 0
M  V30 7783 N 747.786 -6.10513 0.643995 0
M  V30 7784 C 749.157 -6.14267 0.841191 0
M  V30 7785 C 751.212 -4.97689 0.144847 0
M  V30 7786 C 749.915 -6.99514 1.67551 0
M  V30 7787 C 751.941 -5.83455 0.966112 0
M  V30 7788 C 751.303 -6.83005 1.72288 0
M  V30 7789 H 747.402 -0.737519 -0.259979 0
M  V30 7790 H 749.986 -1.94661 -0.0387512 0
M  V30 7791 H 748.157 -3.17256 -2.2406 0
M  V30 7792 H 749.889 -3.41174 -2.17675 0
M  V30 7793 H 746.644 -4.69548 -0.618194 0
M  V30 7794 H 747.068 -6.68125 1.09259 0
M  V30 7795 H 751.71 -4.20649 -0.4259 0
M  V30 7796 H 749.428 -7.75934 2.25726 0
M  V30 7797 H 753.014 -5.727 1.02497 0
M  V30 7798 H 751.894 -7.48219 2.34813 0
M  V30 7799 N 749.397 0.351382 -1.53633 0
M  V30 7800 C 750.307 1.45471 -1.84052 0
M  V30 7801 C 751.323 1.57945 -0.730015 0
M  V30 7802 O 752.499 1.73571 -1.02153 0
M  V30 7803 C 749.564 2.80562 -2.03681 0
M  V30 7804 C 748.625 2.77497 -3.27558 0
M  V30 7805 C 747.858 4.06144 -3.46241 0
M  V30 7806 O 748.081 5.03028 -2.68922 0
M  V30 7807 O 747.015 4.11092 -4.39645 0
M  V30 7808 H 750.841 1.22684 -2.77817 0
M  V30 7809 H 748.426 0.542827 -1.3919 0
M  V30 7810 H 750.308 3.6058 -2.18082 0
M  V30 7811 H 748.983 3.03296 -1.13106 0
M  V30 7812 H 747.89 1.96126 -3.18568 0
M  V30 7813 H 749.223 2.59716 -4.18101 0
M  V30 7814 N 750.875 1.45233 0.611969 0
M  V30 7815 C 752.121 1.50233 1.37119 0
M  V30 7816 C 752.476 0.140336 1.91888 0
M  V30 7817 O 751.769 -0.847161 1.71854 0
M  V30 7818 C 751.963 2.51353 2.54079 0
M  V30 7819 C 751.792 3.97251 2.10764 0
M  V30 7820 C 750.562 4.65256 1.97141 0
M  V30 7821 C 752.76 4.85914 1.68499 0
M  V30 7822 N 750.742 5.95895 1.4759 0
M  V30 7823 C 752.113 6.06147 1.30331 0
M  V30 7824 C 754.168 4.72813 1.56051 0
M  V30 7825 C 752.871 7.14729 0.809591 0
M  V30 7826 C 754.897 5.8144 1.08083 0
M  V30 7827 C 754.259 7.00825 0.708775 0
M  V30 7828 H 750.358 0.604708 0.495835 0
M  V30 7829 H 752.942 1.81679 0.700055 0
M  V30 7830 H 751.113 2.21866 3.18795 0
M  V30 7831 H 752.845 2.46528 3.20945 0
M  V30 7832 H 749.6 4.20345 2.18191 0
M  V30 7833 H 750.024 6.65349 1.25059 0
M  V30 7834 H 754.666 3.80931 1.83443 0
M  V30 7835 H 752.384 8.06404 0.523215 0
M  V30 7836 H 755.97 5.73335 0.988842 0
M  V30 7837 H 754.85 7.83448 0.343305 0
M  V30 7838 N 752.353 -0.854086 1.3245 0
M  V30 7839 C 753.599 -1.6105 1.24235 0
M  V30 7840 C 753.954 -1.91421 -0.193877 0
M  V30 7841 O 753.247 -1.54599 -1.1318 0
M  V30 7842 C 753.441 -2.93746 2.03587 0
M  V30 7843 C 753.27 -2.76335 3.54781 0
M  V30 7844 C 752.04 -2.74687 4.24117 0
M  V30 7845 C 754.238 -2.50052 4.4942 0
M  V30 7846 N 752.22 -2.48493 5.6136 0
M  V30 7847 C 753.591 -2.33269 5.74444 0
M  V30 7848 C 755.646 -2.35525 4.38671 0
M  V30 7849 C 754.349 -2.03434 6.89933 0
M  V30 7850 C 756.375 -2.07081 5.5396 0
M  V30 7851 C 755.737 -1.91098 6.77983 0
M  V30 7852 H 751.836 -0.593008 0.50977 0
M  V30 7853 H 754.42 -1.00392 1.66822 0
M  V30 7854 H 752.591 -3.52382 1.63345 0
M  V30 7855 H 754.323 -3.58768 1.87263 0
M  V30 7856 H 751.078 -2.87647 3.7624 0
M  V30 7857 H 751.502 -2.38322 6.33665 0
M  V30 7858 H 756.144 -2.46602 3.43435 0
M  V30 7859 H 753.862 -1.91095 7.85181 0
M  V30 7860 H 757.448 -1.96618 5.4757 0
M  V30 7861 H 756.328 -1.69402 7.65684 0
M  V30 7862 N 753.831 -1.1567 -1.07043 0
M  V30 7863 C 755.059 -0.957471 -1.83412 0
M  V30 7864 C 755.474 0.494271 -1.82215 0
M  V30 7865 O 754.831 1.34288 -1.23584 0
M  V30 7866 C 754.882 -1.46784 -3.30359 0
M  V30 7867 O 754.603 -2.86271 -3.31633 0
M  V30 7868 C 756.104 -1.31054 -4.23485 0
M  V30 7869 H 753.324 -0.33986 -0.578564 0
M  V30 7870 H 755.868 -1.53518 -1.35102 0
M  V30 7871 H 754.023 -0.932586 -3.76007 0
M  V30 7872 H 754.437 -3.0948 -4.23465 0
M  V30 7873 H 755.911 -1.71605 -5.24648 0
M  V30 7874 H 756.388 -0.255107 -4.38458 0
M  V30 7875 H 756.994 -1.83503 -3.83676 0
M  V30 7876 N 755.309 1.25446 -0.953992 0
M  V30 7877 C 756.272 2.24156 -0.478179 0
M  V30 7878 C 757.272 1.55278 0.417776 0
M  V30 7879 O 758.462 1.72866 0.215155 0
M  V30 7880 C 755.594 3.39495 0.309202 0
M  V30 7881 H 756.787 2.67764 -1.35064 0
M  V30 7882 H 754.34 1.37822 -0.737206 0
M  V30 7883 H 755.075 3.01307 1.19936 0
M  V30 7884 H 754.86 3.90679 -0.333562 0
M  V30 7885 H 756.35 4.12796 0.631594 0
M  V30 7886 N 756.787 0.722489 1.40064 0
M  V30 7887 C 757.697 0.0755984 2.34478 0
M  V30 7888 C 758.713 -0.736046 1.57665 0
M  V30 7889 O 759.889 -0.667407 1.9002 0
M  V30 7890 C 756.954 -0.830075 3.36616 0
M  V30 7891 C 756.015 -0.00759884 4.29299 0
M  V30 7892 C 755.248 -0.870139 5.26559 0
M  V30 7893 O 755.471 -2.10921 5.2997 0
M  V30 7894 O 754.405 -0.305454 6.01124 0
M  V30 7895 H 758.231 0.854545 2.9143 0
M  V30 7896 H 755.816 0.483032 1.41376 0
M  V30 7897 H 757.698 -1.34864 3.99236 0
M  V30 7898 H 756.373 -1.58805 2.82069 0
M  V30 7899 H 755.28 0.556199 3.69942 0
M  V30 7900 H 756.613 0.712312 4.87018 0
M  V30 7901 N 758.265 -1.50454 0.469181 0
M  V30 7902 C 759.213 -2.30101 -0.340033 0
M  V30 7903 C 760.207 -1.37306 -0.992135 0
M  V30 7904 O 761.413 -1.54506 -0.923458 0
M  V30 7905 H 757.788 -0.740941 -0.128495 0
M  V30 7906 H 759.759 -2.96315 0.352144 0
M  V30 7907 C 758.508 -3.17804 -1.41052 0
M  V30 7908 H 757.831 -3.89115 -0.918124 0
M  V30 7909 H 759.271 -3.76533 -1.94934 0
M  V30 7910 C 757.73 -2.35272 -2.4114 0
M  V30 7911 O 758.26 -2.03448 -3.4637 0
M  V30 7912 N 756.466 -1.97889 -2.1281 0
M  V30 7913 H 756.013 -2.2397 -1.27261 0
M  V30 7914 H 755.971 -1.42971 -2.80012 0
M  V30 7915 N 759.743 -0.201713 -1.56304 0
M  V30 7916 C 760.968 0.443815 -2.02596 0
M  V30 7917 C 761.393 1.53945 -1.08086 0
M  V30 7918 O 760.751 1.81182 -0.0655056 0
M  V30 7919 C 760.799 0.971066 -3.47279 0
M  V30 7920 O 759.903 2.0836 -3.55893 0
M  V30 7921 H 759.244 0.10294 -0.655972 0
M  V30 7922 H 761.774 -0.314533 -2.02168 0
M  V30 7923 H 761.784 1.28598 -3.87204 0
M  V30 7924 H 760.459 0.169048 -4.15556 0
M  V30 7925 H 759.036 1.77683 -3.27846 0
M  V30 7926 N 761.222 1.57436 0.0718424 0
M  V30 7927 C 762.468 1.87525 0.772149 0
M  V30 7928 C 762.801 0.79399 1.77227 0
M  V30 7929 O 762.076 -0.195733 1.93513 0
M  V30 7930 C 762.359 3.28272 1.48018 0
M  V30 7931 C 762.212 4.47052 0.49647 0
M  V30 7932 C 763.531 3.67256 2.42509 0
M  V30 7933 H 760.65 0.682049 0.279245 0
M  V30 7934 H 763.292 1.89967 0.03534 0
M  V30 7935 H 761.442 3.26321 2.10824 0
M  V30 7936 H 763.114 4.61127 -0.126375 0
M  V30 7937 H 761.357 4.33392 -0.188205 0
M  V30 7938 H 762.028 5.42315 1.02949 0
M  V30 7939 H 764.504 3.70301 1.89781 0
M  V30 7940 H 763.38 4.66626 2.89053 0
M  V30 7941 H 763.641 2.97186 3.27312 0
M  V30 7942 N 762.7 -0.34323 1.53817 0
M  V30 7943 C 763.948 -1.0813 1.70741 0
M  V30 7944 C 764.269 -1.89165 0.473461 0
M  V30 7945 O 763.539 -1.89075 -0.512605 0
M  V30 7946 H 762.119 -0.40219 0.629486 0
M  V30 7947 H 764.781 -0.384426 1.91071 0
M  V30 7948 H 763.877 -1.7585 2.57843 0
M  V30 7949 N 764.178 -1.45556 -0.604258 0
M  V30 7950 C 765.425 -1.49746 -1.36317 0
M  V30 7951 C 765.753 -0.140516 -1.93992 0
M  V30 7952 O 765.008 0.861244 -1.7573 0
M  V30 7953 C 765.307 -2.52697 -2.52743 0
M  V30 7954 C 764.973 -3.97315 -2.13195 0
M  V30 7955 C 763.635 -4.36692 -2.02123 0
M  V30 7956 C 765.987 -4.88249 -1.8238 0
M  V30 7957 C 763.315 -5.64895 -1.58463 0
M  V30 7958 C 765.667 -6.16867 -1.40205 0
M  V30 7959 C 764.331 -6.55172 -1.27694 0
M  V30 7960 H 763.601 -0.54796 -0.49882 0
M  V30 7961 H 766.248 -1.7892 -0.682643 0
M  V30 7962 H 764.553 -2.17105 -3.26148 0
M  V30 7963 H 766.25 -2.53176 -3.10971 0
M  V30 7964 H 762.84 -3.66176 -2.22739 0
M  V30 7965 H 767.024 -4.58561 -1.89829 0
M  V30 7966 H 762.28 -5.93365 -1.47402 0
M  V30 7967 H 766.454 -6.86771 -1.15408 0
M  V30 7968 H 764.081 -7.54411 -0.936375 0
M  V30 7969 N 765.656 0.84705 -1.32902 0
M  V30 7970 C 766.606 1.94451 -1.19049 0
M  V30 7971 C 767.59 1.60617 -0.095461 0
M  V30 7972 O 768.782 1.74033 -0.322739 0
M  V30 7973 C 765.911 3.30645 -0.923509 0
M  V30 7974 C 764.997 3.70675 -2.0606 0
M  V30 7975 N 765.388 3.82468 -3.30986 0
M  V30 7976 C 763.686 4.00357 -1.96547 0
M  V30 7977 C 764.387 4.17056 -4.05511 0
M  V30 7978 N 763.363 4.28985 -3.33876 0
M  V30 7979 H 767.165 2.01713 -2.1375 0
M  V30 7980 H 764.679 1.03928 -1.24791 0
M  V30 7981 H 766.676 4.0905 -0.805212 0
M  V30 7982 H 765.336 3.24697 0.0150523 0
M  V30 7983 H 766.347 3.66589 -3.65832 0
M  V30 7984 H 763.024 4.02666 -1.10299 0
M  V30 7985 H 764.414 4.33585 -5.13277 0
M  V30 7986 N 767.134 1.16236 1.06428 0
M  V30 7987 C 768.082 0.863669 2.15971 0
M  V30 7988 C 769.076 -0.166723 1.68578 0
M  V30 7989 O 770.282 -0.0208425 1.79988 0
M  V30 7990 H 766.657 0.261684 0.705 0
M  V30 7991 H 768.628 1.79498 2.38376 0
M  V30 7992 C 767.377 0.379697 3.45621 0
M  V30 7993 H 766.7 1.16399 3.82481 0
M  V30 7994 H 768.14 0.209458 4.23482 0
M  V30 7995 C 766.599 -0.900499 3.24642 0
M  V30 7996 O 767.129 -1.97004 3.50074 0
M  V30 7997 N 765.335 -0.843721 2.78082 0
M  V30 7998 H 764.882 0.0268429 2.57586 0
M  V30 7999 H 764.84 -1.70078 2.64425 0
M  V30 8000 N 768.612 -1.24939 0.960631 0
M  V30 8001 C 770.023 -1.74701 0.658529 0
M  V30 8002 C 770.374 -1.77967 -0.825959 0
M  V30 8003 O 769.499 -1.40444 -1.64634 0
M  V30 8004 C 770.094 -3.17263 1.18867 0
M  V30 8005 C 768.653 -3.64561 0.936614 0
M  V30 8006 C 767.8 -2.43423 1.32817 0
M  V30 8007 H 770.751 -1.10741 1.13676 0
M  V30 8008 H 770.772 -3.76481 0.551589 0
M  V30 8009 H 770.284 -3.14854 2.26912 0
M  V30 8010 H 768.385 -3.72378 -0.128608 0
M  V30 8011 H 768.498 -4.52392 1.57729 0
M  V30 8012 H 766.862 -2.43513 0.746548 0
M  V30 8013 H 767.645 -2.437 2.41796 0
M  V30 8014 N 770.09 -0.729906 -1.39679 0
M  V30 8015 C 771.367 -0.202149 -1.94553 0
M  V30 8016 C 771.747 1.29507 -1.66707 0
M  V30 8017 O 771.095 2.05819 -0.992517 0
M  V30 8018 C 771.305 -0.530279 -3.44948 0
M  V30 8019 C 772.653 -0.476808 -4.21914 0
M  V30 8020 O 773.677 -0.467171 -3.53123 0
M  V30 8021 O 772.536 -0.466869 -5.44502 0
M  V30 8022 H 769.63 -0.0351644 -0.826252 0
M  V30 8023 H 772.176 -0.808417 -1.49207 0
M  V30 8024 H 770.948 -1.56526 -3.5863 0
M  V30 8025 H 770.571 0.10522 -3.97461 0
M  V30 8026 N 771.568 1.50203 -0.477153 0
M  V30 8027 C 772.5 2.26508 0.350239 0
M  V30 8028 C 773.513 1.32081 0.95176 0
M  V30 8029 O 774.702 1.57546 0.839139 0
M  V30 8030 C 771.802 3.0361 1.50579 0
M  V30 8031 C 770.975 4.25438 1.01595 0
M  V30 8032 C 770.034 4.84783 2.04626 0
M  V30 8033 O 769.06 5.45528 1.62442 0
M  V30 8034 N 770.262 4.72318 3.37485 0
M  V30 8035 H 773.027 2.98155 -0.30394 0
M  V30 8036 H 770.588 1.58938 -0.308289 0
M  V30 8037 H 772.58 3.4019 2.1921 0
M  V30 8038 H 771.15 2.34724 2.06455 0
M  V30 8039 H 770.37 3.93894 0.155316 0
M  V30 8040 H 771.658 5.04413 0.666694 0
M  V30 8041 H 771.056 4.24022 3.74462 0
M  V30 8042 H 769.613 5.13149 4.01897 0
M  V30 8043 N 773.046 0.209999 1.56195 0
M  V30 8044 C 774.009 -0.691232 2.18528 0
M  V30 8045 C 775.009 -1.13013 1.14388 0
M  V30 8046 O 776.199 -1.04081 1.39688 0
M  V30 8047 C 773.331 -1.94551 2.79934 0
M  V30 8048 H 774.524 -0.147953 2.99535 0
M  V30 8049 H 772.077 -0.0396243 1.5625 0
M  V30 8050 H 772.812 -2.53094 2.02766 0
M  V30 8051 H 772.597 -1.63938 3.56184 0
M  V30 8052 H 774.087 -2.58785 3.2775 0
M  V30 8053 N 774.524 -1.57472 -0.0634922 0
M  V30 8054 C 775.94 -1.54016 -0.418466 0
M  V30 8055 C 776.14 -0.931376 -1.78683 0
M  V30 8056 O 775.196 -0.537465 -2.46714 0
M  V30 8057 C 776.509 -2.98634 -0.351906 0
M  V30 8058 C 778.057 -3.10012 -0.431494 0
M  V30 8059 C 778.532 -4.56296 -0.394754 0
M  V30 8060 N 780.023 -4.60964 -0.454583 0
M  V30 8061 C 780.758 -5.71643 -0.448501 0
M  V30 8062 N 780.254 -6.91663 -0.396742 0
M  V30 8063 N 782.047 -5.5991 -0.495677 0
M  V30 8064 H 774.198 -1.95409 0.832408 0
M  V30 8065 H 776.461 -0.894769 0.313197 0
M  V30 8066 H 776.167 -3.46766 0.587048 0
M  V30 8067 H 776.041 -3.58955 -1.15893 0
M  V30 8068 H 778.428 -2.61848 -1.36087 0
M  V30 8069 H 778.509 -2.52585 0.404258 0
M  V30 8070 H 778.153 -5.05119 0.530811 0
M  V30 8071 H 778.083 -5.11594 -1.24815 0
M  V30 8072 H 780.574 -3.74598 -0.498496 0
M  V30 8073 H 780.887 -7.71783 -0.396256 0
M  V30 8074 H 779.232 -6.9405 -0.363304 0
M  V30 8075 H 782.423 -4.65046 -0.533864 0
M  V30 8076 H 782.596 -6.46164 -0.487469 0
M  V30 8077 N 776.003 0.335068 -1.53997 0
M  V30 8078 C 776.913 1.43511 -1.85585 0
M  V30 8079 C 777.929 1.57162 -0.746726 0
M  V30 8080 O 779.105 1.72477 -1.03988 0
M  V30 8081 C 776.17 2.78386 -2.06646 0
M  V30 8082 C 775.231 2.74007 -3.30483 0
M  V30 8083 C 774.464 4.02449 -3.50529 0
M  V30 8084 O 774.687 5.00147 -2.74242 0
M  V30 8085 O 773.621 4.06405 -4.4398 0
M  V30 8086 H 777.447 1.19731 -2.79102 0
M  V30 8087 H 775.032 0.528033 -1.39758 0
M  V30 8088 H 776.914 3.58247 -2.21894 0
M  V30 8089 H 775.589 3.0208 -1.16317 0
M  V30 8090 H 774.496 1.92736 -3.2063 0
M  V30 8091 H 775.829 2.55267 -4.20832 0
M  V30 8092 N 777.481 1.45874 0.596531 0
M  V30 8093 C 778.706 1.54247 1.38646 0
M  V30 8094 C 779.131 0.179571 1.87241 0
M  V30 8095 O 778.489 -0.837831 1.6078 0
M  V30 8096 C 778.537 2.54015 2.55946 0
M  V30 8097 O 777.641 2.06561 3.5694 0
M  V30 8098 H 776.982 0.519555 0.413471 0
M  V30 8099 H 779.512 1.91327 0.724936 0
M  V30 8100 H 779.522 2.73179 3.03047 0
M  V30 8101 H 778.197 3.52994 2.19928 0
M  V30 8102 H 776.774 1.97324 3.16414 0
M  V30 8103 N 778.959 -0.83999 1.33349 0
M  V30 8104 C 779.889 -1.965 1.26135 0
M  V30 8105 C 780.87 -1.69505 0.142152 0
M  V30 8106 O 782.055 -1.91346 0.331743 0
M  V30 8107 C 779.185 -3.32632 0.99866 0
M  V30 8108 C 778.139 -3.74021 2.08068 0
M  V30 8109 C 777.465 -5.07947 1.67014 0
M  V30 8110 C 778.765 -3.87925 3.49731 0
M  V30 8111 H 780.459 -2.02793 2.20262 0
M  V30 8112 H 778.005 -0.974297 1.06035 0
M  V30 8113 H 779.958 -4.10903 0.934696 0
M  V30 8114 H 778.682 -3.26593 0.0217759 0
M  V30 8115 H 777.341 -2.98012 2.13505 0
M  V30 8116 H 776.989 -4.98378 0.680316 0
M  V30 8117 H 776.689 -5.36611 2.39422 0
M  V30 8118 H 778.213 -5.88695 1.62082 0
M  V30 8119 H 779.627 -4.5651 3.46802 0
M  V30 8120 H 778.024 -4.28023 4.20614 0
M  V30 8121 H 779.094 -2.90407 3.88319 0
M  V30 8122 N 780.437 -1.16799 -1.0581 0
M  V30 8123 C 781.37 -0.822491 -2.12862 0
M  V30 8124 C 782.348 0.208006 -1.61264 0
M  V30 8125 O 783.532 0.0909652 -1.8828 0
M  V30 8126 C 780.659 -0.225826 -3.37946 0
M  V30 8127 C 779.705 -1.23071 -4.08357 0
M  V30 8128 S 780.538 -2.77944 -4.5772 0
M  V30 8129 C 781.694 -2.19741 -5.86059 0
M  V30 8130 H 781.927 -1.72917 -2.41841 0
M  V30 8131 H 779.46 -0.991982 -1.18318 0
M  V30 8132 H 781.418 0.111955 -4.10347 0
M  V30 8133 H 780.079 0.658692 -3.07116 0
M  V30 8134 H 779.272 -0.761758 -4.9821 0
M  V30 8135 H 778.874 -1.51383 -3.41993 0
M  V30 8136 H 781.166 -1.5691 -6.59079 0
M  V30 8137 H 782.109 -3.07823 -6.37692 0
M  V30 8138 H 782.517 -1.63433 -5.40324 0
M  V30 8139 N 781.915 1.24427 -0.967243 0
M  V30 8140 C 783.143 1.96541 -0.646477 0
M  V30 8141 C 783.558 1.71753 0.783996 0
M  V30 8142 O 782.915 1.00102 1.52597 0
M  V30 8143 C 782.966 3.4983 -0.911098 0
M  V30 8144 O 782.687 3.7377 -2.28534 0
M  V30 8145 C 784.188 4.3916 -0.604458 0
M  V30 8146 H 781.408 0.626129 -0.241255 0
M  V30 8147 H 783.952 1.58268 -1.29505 0
M  V30 8148 H 782.107 3.86168 -0.308741 0
M  V30 8149 H 782.521 4.68154 -2.365 0
M  V30 8150 H 783.995 5.4557 -0.840069 0
M  V30 8151 H 784.472 4.36771 0.461273 0
M  V30 8152 H 785.078 4.08409 -1.1867 0
M  V30 8153 N 783.393 0.737304 1.3929 0
M  V30 8154 C 784.618 0.295237 2.05288 0
M  V30 8155 C 785.043 -1.06235 1.55228 0
M  V30 8156 O 784.401 -1.67365 0.697043 0
M  V30 8157 C 784.449 0.309146 3.59272 0
M  V30 8158 O 783.553 -0.702437 4.06374 0
M  V30 8159 H 782.894 0.133762 0.650387 0
M  V30 8160 H 785.424 1.00387 1.78279 0
M  V30 8161 H 785.434 0.154336 4.07708 0
M  V30 8162 H 784.109 1.29974 3.95069 0
M  V30 8163 H 782.686 -0.513574 3.69346 0
M  V30 8164 N 784.871 -1.49948 0.485112 0
M  V30 8165 C 786.12 -2.01589 -0.066765 0
M  V30 8166 C 786.433 -1.371 -1.39509 0
M  V30 8167 O 787.639 -1.79978 -2.03274 0
M  V30 8168 C 786.095 -3.59501 -0.169476 0
M  V30 8169 C 785.703 -4.32955 1.15126 0
M  V30 8170 C 787.447 -4.19138 -0.672564 0
M  V30 8171 C 785.354 -5.82684 1.01158 0
M  V30 8172 H 784.284 -0.753453 -0.0287259 0
M  V30 8173 H 786.935 -1.72632 0.622132 0
M  V30 8174 H 785.317 -3.85106 -0.922471 0
M  V30 8175 H 786.491 -4.19064 1.9163 0
M  V30 8176 H 784.806 -3.84991 1.58654 0
M  V30 8177 H 787.403 -5.28767 -0.794325 0
M  V30 8178 H 787.746 -3.81447 -1.66745 0
M  V30 8179 H 788.279 -3.97793 0.0234415 0
M  V30 8180 H 785.018 -6.24873 1.98025 0
M  V30 8181 H 784.538 -5.99112 0.287151 0
M  V30 8182 H 786.217 -6.43376 0.683847 0
M  V30 8183 N 786.349 -0.21828 -1.56081 0
M  V30 8184 C 787.574 0.422302 -2.03055 0
M  V30 8185 C 787.999 1.5279 -1.09713 0
M  V30 8186 O 787.357 1.81102 -0.0847187 0
M  V30 8187 C 787.405 0.934177 -3.48289 0
M  V30 8188 O 786.509 2.04574 -3.58083 0
M  V30 8189 H 785.85 0.0959764 -0.657027 0
M  V30 8190 H 788.38 -0.335958 -2.01823 0
M  V30 8191 H 788.39 1.24484 -3.88546 0
M  V30 8192 H 787.065 0.124963 -4.15712 0
M  V30 8193 H 785.642 1.74196 -3.29712 0
M  V30 8194 N 787.827 1.57504 0.0551401 0
M  V30 8195 C 788.774 2.04825 1.06373 0
M  V30 8196 C 789.744 0.932108 1.37481 0
M  V30 8197 O 790.929 1.20093 1.48265 0
M  V30 8198 C 788.069 2.51091 2.36743 0
M  V30 8199 C 787.182 3.76392 2.12021 0
M  V30 8200 C 786.317 4.11373 3.36074 0
M  V30 8201 C 785.356 5.29666 3.0679 0
M  V30 8202 N 784.493 5.60205 4.2322 0
M  V30 8203 H 789.333 2.90753 0.653216 0
M  V30 8204 H 786.87 1.43776 0.310951 0
M  V30 8205 H 788.828 2.75973 3.12881 0
M  V30 8206 H 787.458 1.68118 2.75565 0
M  V30 8207 H 786.51 3.58751 1.26498 0
M  V30 8208 H 787.822 4.62662 1.86401 0
M  V30 8209 H 786.976 4.37245 4.20597 0
M  V30 8210 H 785.715 3.23704 3.64784 0
M  V30 8211 H 784.72 5.03574 2.20664 0
M  V30 8212 H 785.945 6.18968 2.79385 0
M  V30 8213 H 783.891 4.75495 4.5193 0
M  V30 8214 H 783.808 6.40928 4.00933 0
M  V30 8215 H 785.076 5.90637 5.08692 0
M  V30 8216 N 789.305 -0.326896 1.54172 0
M  V30 8217 C 790.53 -1.08924 1.76494 0
M  V30 8218 C 790.955 -1.81039 0.510523 0
M  V30 8219 O 790.313 -1.73141 -0.537756 0
M  V30 8220 C 790.361 -2.06558 2.95578 0
M  V30 8221 O 789.465 -3.14394 2.6689 0
M  V30 8222 H 788.806 -0.314216 0.584948 0
M  V30 8223 H 791.336 -0.372207 2.01186 0
M  V30 8224 H 791.346 -2.49487 3.22832 0
M  V30 8225 H 790.021 -1.53469 3.86549 0
M  V30 8226 H 788.598 -2.76164 2.50576 0
M  V30 8227 N 790.784 -1.46188 -0.588786 0
M  V30 8228 C 791.731 -1.56292 -1.69828 0
M  V30 8229 C 792.701 -0.407581 -1.61022 0
M  V30 8230 O 793.886 -0.623532 -1.80324 0
M  V30 8231 C 791.026 -1.55341 -3.08161 0
M  V30 8232 C 790.139 -2.81564 -3.27636 0
M  V30 8233 C 789.274 -2.72158 -4.56183 0
M  V30 8234 C 788.313 -3.93348 -4.68981 0
M  V30 8235 N 787.45 -3.82365 -5.88848 0
M  V30 8236 H 792.29 -2.51066 -1.6053 0
M  V30 8237 H 789.827 -1.24562 -0.782474 0
M  V30 8238 H 791.785 -1.52776 -3.88221 0
M  V30 8239 H 790.415 -0.641034 -3.16371 0
M  V30 8240 H 789.467 -2.94136 -2.41223 0
M  V30 8241 H 790.779 -3.714 -3.32962 0
M  V30 8242 H 789.933 -2.67665 -5.44464 0
M  V30 8243 H 788.672 -1.79953 -4.53286 0
M  V30 8244 H 787.677 -3.98181 -3.7912 0
M  V30 8245 H 788.902 -4.86643 -4.73662 0
M  V30 8246 H 786.848 -2.92942 -5.86959 0
M  V30 8247 H 786.765 -4.65851 -5.95415 0
M  V30 8248 H 788.033 -3.81836 -6.79575 0
M  V30 8249 N 792.262 0.832906 -1.33792 0
M  V30 8250 C 793.172 1.97514 -1.26592 0
M  V30 8251 C 794.188 1.73114 -0.175391 0
M  V30 8252 O 795.364 1.97387 -0.400062 0
M  V30 8253 C 792.429 3.31625 -1.01121 0
M  V30 8254 C 791.49 3.69101 -2.19233 0
M  V30 8255 C 790.723 4.96813 -1.94968 0
M  V30 8256 O 790.946 5.63208 -0.902955 0
M  V30 8257 O 789.88 5.31932 -2.8166 0
M  V30 8258 H 793.706 2.0653 -2.22664 0
M  V30 8259 H 791.291 0.966826 -1.13898 0
M  V30 8260 H 793.173 4.11968 -0.886571 0
M  V30 8261 H 791.848 3.23599 -0.080822 0
M  V30 8262 H 790.755 2.89243 -2.37253 0
M  V30 8263 H 792.088 3.818 -3.10628 0
M  V30 8264 N 793.74 1.17359 1.05189 0
M  V30 8265 C 794.703 0.892604 2.11105 0
M  V30 8266 C 795.703 -0.117236 1.60372 0
M  V30 8267 O 796.893 0.114936 1.7382 0
M  V30 8268 C 794.025 0.337032 3.3923 0
M  V30 8269 H 795.218 1.83169 2.37464 0
M  V30 8270 H 792.771 0.984051 1.21434 0
M  V30 8271 H 793.506 -0.609198 3.18527 0
M  V30 8272 H 793.291 1.06484 3.77364 0
M  V30 8273 H 794.781 0.158763 4.17298 0
M  V30 8274 N 795.218 -1.23913 0.973828 0
M  V30 8275 C 796.464 -1.92436 0.640026 0
M  V30 8276 C 796.797 -1.75875 -0.823512 0
M  V30 8277 O 796.072 -1.11563 -1.59323 0
M  V30 8278 C 796.355 -3.4526 1.0231 0
M  V30 8279 C 796.208 -3.70961 2.54378 0
M  V30 8280 C 797.527 -4.36495 0.562155 0
M  V30 8281 H 794.646 -0.698868 0.233992 0
M  V30 8282 H 797.288 -1.46163 1.21393 0
M  V30 8283 H 795.438 -3.84802 0.534751 0
M  V30 8284 H 797.11 -3.40941 3.10737 0
M  V30 8285 H 795.353 -3.15899 2.97305 0
M  V30 8286 H 796.024 -4.77912 2.76232 0
M  V30 8287 H 798.5 -4.04363 0.981333 0
M  V30 8288 H 797.376 -5.42142 0.858689 0
M  V30 8289 H 797.637 -4.38818 -0.537659 0
M  V30 8290 N 796.696 -0.74468 -1.38897 0
M  V30 8291 C 797.921 -0.306119 -2.05128 0
M  V30 8292 C 798.346 1.0541 -1.55789 0
M  V30 8293 O 797.704 1.66993 -0.705909 0
M  V30 8294 C 797.752 -0.328195 -3.59103 0
M  V30 8295 O 796.856 0.680876 -4.06741 0
M  V30 8296 H 796.197 -0.137209 -0.649669 0
M  V30 8297 H 798.727 -1.01331 -1.77745 0
M  V30 8298 H 798.737 -0.175956 -4.0762 0
M  V30 8299 H 797.412 -1.32067 -3.94374 0
M  V30 8300 H 795.989 0.49398 -3.69614 0
M  V30 8301 N 798.174 1.49689 -0.493057 0
M  V30 8302 C 799.104 2.31826 0.279073 0
M  V30 8303 C 800.085 1.39733 0.969987 0
M  V30 8304 O 801.27 1.68646 0.962925 0
M  V30 8305 C 798.4 3.20046 1.34862 0
M  V30 8306 C 797.354 4.20869 0.77805 0
M  V30 8307 C 796.68 4.97971 1.94753 0
M  V30 8308 C 797.98 5.21813 -0.225543 0
M  V30 8309 H 799.674 2.96627 -0.406512 0
M  V30 8310 H 797.22 1.42647 -0.196943 0
M  V30 8311 H 799.173 3.76315 1.89645 0
M  V30 8312 H 797.897 2.53172 2.06328 0
M  V30 8313 H 796.556 3.65733 0.252036 0
M  V30 8314 H 796.204 4.27552 2.64969 0
M  V30 8315 H 795.904 5.66186 1.57187 0
M  V30 8316 H 797.428 5.57082 2.49984 0
M  V30 8317 H 798.842 5.72823 0.233864 0
M  V30 8318 H 797.239 5.97872 -0.516622 0
M  V30 8319 H 798.309 4.71209 -1.14412 0
M  V30 8320 N 799.652 0.226554 1.55963 0
M  V30 8321 C 800.582 -0.676079 2.23498 0
M  V30 8322 C 801.563 -1.19718 1.20837 0
M  V30 8323 O 802.748 -1.24027 1.49436 0
M  V30 8324 C 799.878 -1.88217 2.91876 0
M  V30 8325 C 798.832 -1.4947 4.01052 0
M  V30 8326 C 798.158 -2.77997 4.56751 0
M  V30 8327 C 799.458 -0.680951 5.17842 0
M  V30 8328 H 801.152 -0.112989 2.99187 0
M  V30 8329 H 798.698 -0.0529046 1.43903 0
M  V30 8330 H 800.651 -2.51911 3.37815 0
M  V30 8331 H 799.375 -2.47031 2.13643 0
M  V30 8332 H 798.034 -0.881199 3.55852 0
M  V30 8333 H 797.682 -3.34966 3.75243 0
M  V30 8334 H 797.382 -2.52803 5.30438 0
M  V30 8335 H 798.906 -3.42625 5.05411 0
M  V30 8336 H 800.32 -1.22171 5.60131 0
M  V30 8337 H 798.717 -0.525898 5.97791 0
M  V30 8338 H 799.787 0.311346 4.83899 0
M  V30 8339 N 801.13 -1.57531 -0.0467866 0
M  V30 8340 C 802.078 -2.06455 -1.0714 0
M  V30 8341 C 803.072 -0.974744 -1.38546 0
M  V30 8342 O 804.278 -1.15974 -1.37659 0
M  V30 8343 H 800.653 -0.658607 -0.362962 0
M  V30 8344 H 802.624 -2.91613 -0.632813 0
M  V30 8345 C 801.373 -2.54481 -2.36927 0
M  V30 8346 H 800.696 -3.37946 -2.13617 0
M  V30 8347 H 802.136 -2.92442 -3.07007 0
M  V30 8348 C 800.595 -1.43836 -3.04652 0
M  V30 8349 O 801.125 -0.794531 -3.93764 0
M  V30 8350 N 799.331 -1.17727 -2.65686 0
M  V30 8351 H 798.878 -1.70265 -1.93307 0
M  V30 8352 H 798.836 -0.439051 -3.11319 0
M  V30 8353 N 802.608 0.318715 -1.54344 0
M  V30 8354 C 803.885 1.07461 -1.63437 0
M  V30 8355 C 804.265 2.05771 -0.47131 0
M  V30 8356 O 803.613 2.22175 0.53391 0
M  V30 8357 C 803.823 1.77224 -3.00654 0
M  V30 8358 C 805.171 2.30069 -3.56866 0
M  V30 8359 O 806.195 1.87284 -3.0299 0
M  V30 8360 O 805.054 3.08412 -4.51159 0
M  V30 8361 H 802.148 0.495627 -0.66203 0
M  V30 8362 H 804.694 0.318218 -1.6669 0
M  V30 8363 H 803.466 1.05742 -3.76742 0
M  V30 8364 H 803.089 2.59662 -3.01101 0
M  V30 8365 N 804.086 1.46499 0.581025 0
M  V30 8366 C 805.049 1.5677 1.672 0
M  V30 8367 C 806.049 0.444716 1.54528 0
M  V30 8368 O 807.239 0.709074 1.59116 0
M  V30 8369 C 804.371 1.4896 3.06633 0
M  V30 8370 H 805.564 2.54 1.5945 0
M  V30 8371 H 803.117 1.34334 0.799003 0
M  V30 8372 H 803.852 0.530168 3.19937 0
M  V30 8373 H 803.637 2.30439 3.17239 0
M  V30 8374 H 805.127 1.59237 3.86048 0
M  V30 8375 N 805.565 -0.825799 1.34232 0
M  V30 8376 C 806.814 -1.57686 1.2577 0
M  V30 8377 C 807.127 -1.94848 -0.171372 0
M  V30 8378 O 808.333 -2.68854 -0.378123 0
M  V30 8379 C 806.789 -2.84478 2.20454 0
M  V30 8380 C 806.397 -2.54629 3.68603 0
M  V30 8381 C 808.141 -3.625 2.20893 0
M  V30 8382 C 806.048 -3.77597 4.55164 0
M  V30 8383 H 804.978 -0.591809 0.467203 0
M  V30 8384 H 807.629 -0.909421 1.59379 0
M  V30 8385 H 806.011 -3.52832 1.79793 0
M  V30 8386 H 807.185 -1.94404 4.17784 0
M  V30 8387 H 805.5 -1.89888 3.70582 0
M  V30 8388 H 808.097 -4.538 2.82789 0
M  V30 8389 H 808.44 -3.98404 1.20746 0
M  V30 8390 H 808.973 -3.01086 2.59985 0
M  V30 8391 H 805.712 -3.46815 5.56237 0
M  V30 8392 H 805.232 -4.37116 4.10719 0
M  V30 8393 H 806.911 -4.45039 4.69627 0
M  V30 8394 N 807.043 -1.17915 -1.04565 0
M  V30 8395 C 808.32 -0.881187 -1.74627 0
M  V30 8396 C 808.7 0.617123 -2.01878 0
M  V30 8397 O 808.048 1.57032 -1.65991 0
M  V30 8398 C 808.258 -1.72299 -3.03503 0
M  V30 8399 C 809.606 -1.94688 -3.77335 0
M  V30 8400 O 810.63 -1.6931 -3.13389 0
M  V30 8401 O 809.489 -2.37379 -4.92253 0
M  V30 8402 H 806.583 -0.326864 -0.759664 0
M  V30 8403 H 809.129 -1.28642 -1.10676 0
M  V30 8404 H 807.901 -2.73891 -2.79462 0
M  V30 8405 H 807.524 -1.31593 -3.75192 0
M  V30 8406 N 808.521 1.23394 -0.980386 0
M  V30 8407 C 809.484 2.23092 -0.525619 0
M  V30 8408 C 810.484 1.56129 0.384745 0
M  V30 8409 O 811.674 1.73284 0.178439 0
M  V30 8410 C 808.806 3.40074 0.23712 0
M  V30 8411 H 809.999 2.64839 -1.40714 0
M  V30 8412 H 807.552 1.36227 -0.766275 0
M  V30 8413 H 808.287 3.03783 1.13518 0
M  V30 8414 H 808.072 3.89883 -0.416356 0
M  V30 8415 H 809.562 4.14043 0.543892 0
M  V30 8416 N 809.999 0.752036 1.385 0
M  V30 8417 C 810.931 0.0835089 2.29048 0
M  V30 8418 C 811.944 -0.685402 1.47669 0
M  V30 8419 O 813.133 -0.526748 1.70551 0
M  V30 8420 C 810.233 -0.905772 3.26572 0
M  V30 8421 C 809.406 -0.194828 4.36966 0
M  V30 8422 C 808.465 -1.09464 5.14688 0
M  V30 8423 O 807.491 -0.565743 5.66381 0
M  V30 8424 N 808.693 -2.42287 5.2752 0
M  V30 8425 H 811.458 0.861142 2.87062 0
M  V30 8426 H 809.019 0.602689 1.50264 0
M  V30 8427 H 811.011 -1.51072 3.75446 0
M  V30 8428 H 809.581 -1.58449 2.69467 0
M  V30 8429 H 808.801 0.590812 3.89747 0
M  V30 8430 H 810.089 0.297189 5.07931 0
M  V30 8431 H 809.487 -2.87715 4.8707 0
M  V30 8432 H 808.044 -2.97836 5.79773 0
M  V30 8433 N 811.477 -1.49425 0.500989 0
M  V30 8434 C 812.723 -2.02753 -0.0436 0
M  V30 8435 C 813.056 -1.37991 -1.36646 0
M  V30 8436 O 812.331 -0.515597 -1.87542 0
M  V30 8437 C 812.614 -3.59565 -0.19616 0
M  V30 8438 C 812.467 -4.34855 1.14982 0
M  V30 8439 C 813.786 -4.30014 -0.936795 0
M  V30 8440 H 810.905 -0.73686 -0.0143711 0
M  V30 8441 H 813.547 -1.78448 0.652397 0
M  V30 8442 H 811.697 -3.80405 -0.788959 0
M  V30 8443 H 813.369 -4.25512 1.7815 0
M  V30 8444 H 811.612 -3.97414 1.73911 0
M  V30 8445 H 812.283 -5.42933 0.996385 0
M  V30 8446 H 814.759 -4.1383 -0.434036 0
M  V30 8447 H 813.635 -5.39483 -1.01238 0
M  V30 8448 H 813.896 -3.95257 -1.9805 0
M  V30 8449 N 812.955 -0.234822 -1.55841 0
M  V30 8450 C 813.918 0.656378 -2.196 0
M  V30 8451 C 814.918 1.11179 -1.16171 0
M  V30 8452 O 816.108 1.01845 -1.41326 0
M  V30 8453 C 813.24 1.90072 -2.82993 0
M  V30 8454 H 814.433 0.100281 -2.99732 0
M  V30 8455 H 811.986 0.0147613 -1.56293 0
M  V30 8456 H 812.721 2.49836 -2.06767 0
M  V30 8457 H 812.506 1.5825 -3.58747 0
M  V30 8458 H 813.996 2.53538 -3.31826 0
M  V30 8459 N 814.433 1.57553 0.0384317 0
M  V30 8460 C 815.658 1.93485 0.746872 0
M  V30 8461 C 816.083 0.834069 1.68597 0
M  V30 8462 O 815.441 -0.210902 1.80069 0
M  V30 8463 C 815.489 3.28463 1.4881 0
M  V30 8464 O 814.593 3.20051 2.60079 0
M  V30 8465 H 813.934 0.632675 0.201539 0
M  V30 8466 H 816.464 2.046 -0.00329815 0
M  V30 8467 H 816.474 3.63132 1.86009 0
M  V30 8468 H 815.149 4.08147 0.799297 0
M  V30 8469 H 813.726 2.96998 2.25492 0
M  V30 8470 N 815.911 -0.310526 1.54511 0
M  V30 8471 C 817.327 -0.655637 1.45511 0
M  V30 8472 C 817.527 -1.91114 0.638564 0
M  V30 8473 O 816.583 -2.52098 0.142497 0
M  V30 8474 C 817.896 -0.817501 2.89374 0
M  V30 8475 C 819.444 -0.914003 2.99358 0
M  V30 8476 C 819.919 -1.10794 4.44397 0
M  V30 8477 N 821.41 -1.17437 4.48066 0
M  V30 8478 C 822.145 -1.34255 5.57461 0
M  V30 8479 N 821.641 -1.48032 6.768 0
M  V30 8480 N 823.434 -1.37067 5.45132 0
M  V30 8481 H 815.585 0.514506 2.06074 0
M  V30 8482 H 817.848 0.168478 0.932909 0
M  V30 8483 H 817.554 0.034003 3.51684 0
M  V30 8484 H 817.428 -1.7094 3.36243 0
M  V30 8485 H 819.815 -1.756 2.37168 0
M  V30 8486 H 819.896 0.00170958 2.558 0
M  V30 8487 H 819.54 -0.270743 5.07178 0
M  V30 8488 H 819.47 -2.03773 4.85576 0
M  V30 8489 H 821.961 -1.08181 3.62084 0
M  V30 8490 H 822.274 -1.60593 7.5593 0
M  V30 8491 H 820.619 -1.45105 6.79683 0
M  V30 8492 H 823.81 -1.25909 4.50849 0
M  V30 8493 H 823.983 -1.49831 6.3044 0
M  V30 8494 O 817.428 -1.54915 -0.456448 0
M  V30 8495 H 818.119 -1.58706 -1.11049 0
M  V30 END ATOM
M  V30 BEGIN BOND
M  V30 END BOND
M  V30 END CTAB
M  END
$$$$
