drugbank_target|O00180 Potassium channel subfamily K member 1 (DB00308; DB00908; DB01346)
 OpenBabel12092119253D

  0  0  0     0  0            999 V3000
M  V30 BEGIN CTAB
M  V30 COUNTS 5371 5440 0 0 0
M  V30 BEGIN ATOM
M  V30 1 H -0.908 1.98254 -0.117106 0
M  V30 2 N 0 1.576 0 0
M  V30 3 C 0.933 2.03868 1.02534 0
M  V30 4 C 1.911 0.928543 1.3348 0
M  V30 5 O 3.095 1.19667 1.45644 0
M  V30 6 C 0.222 2.43627 2.35294 0
M  V30 7 C -0.732 3.65373 2.2001 0
M  V30 8 S 0.101 5.13292 1.52614 0
M  V30 9 C 1.257 5.56322 2.86805 0
M  V30 10 H 1.49 2.90518 0.631377 0
M  V30 11 H -0.977 1.52953 0.210867 0
M  V30 12 H 0.981 2.67203 3.11629 0
M  V30 13 H -0.358 1.57376 2.7183 0
M  V30 14 H -1.165 3.90944 3.18086 0
M  V30 15 H -1.563 3.418 1.51819 0
M  V30 16 H 0.729 5.58782 3.83104 0
M  V30 17 H 1.672 6.56266 2.65933 0
M  V30 18 H 2.08 4.83886 2.90714 0
M  V30 19 N 1.4781 -0.272755 1.55222 0
M  V30 20 C 2.4081 -1.34136 1.91127 0
M  V30 21 C 3.3891 -1.51513 0.773168 0
M  V30 22 O 4.5741 -1.64552 1.03132 0
M  V30 23 C 1.7041 -2.70083 2.1834 0
M  V30 24 C 0.6581 -2.67437 3.34158 0
M  V30 25 C -0.0159 -4.06938 3.46851 0
M  V30 26 C 1.2841 -2.26686 4.70543 0
M  V30 27 H 2.9781 -1.04333 2.80633 0
M  V30 28 H 0.5241 -0.500454 1.35024 0
M  V30 29 H 2.4771 -3.44952 2.42046 0
M  V30 30 H 1.2011 -3.01469 1.25634 0
M  V30 31 H -0.1399 -1.95026 3.1042 0
M  V30 32 H -0.4919 -4.35547 2.51611 0
M  V30 33 H -0.7919 -4.06062 4.2472 0
M  V30 34 H 0.7321 -4.83545 3.72849 0
M  V30 35 H 2.1461 -2.91277 4.93792 0
M  V30 36 H 0.5431 -2.36971 5.5133 0
M  V30 37 H 1.6131 -1.21818 4.69349 0
M  V30 38 N 2.9562 -1.48159 -0.537278 0
M  V30 39 C 3.8882 -1.58218 -1.65831 0
M  V30 40 C 4.9012 -0.466948 -1.5596 0
M  V30 41 O 6.0902 -0.73747 -1.62553 0
M  V30 42 C 3.1902 -1.48906 -3.04434 0
M  V30 43 C 2.3632 -2.75343 -3.3986 0
M  V30 44 C 1.4222 -2.59588 -4.57712 0
M  V30 45 O 0.4482 -3.33457 -4.61297 0
M  V30 46 N 1.6502 -1.68724 -5.55439 0
M  V30 47 H 4.4152 -2.54891 -1.57641 0
M  V30 48 H 1.9762 -1.4479 -0.724386 0
M  V30 49 H 3.9682 -1.36072 -3.81139 0
M  V30 50 H 2.5382 -0.602368 -3.06741 0
M  V30 51 H 1.7582 -3.02795 -2.52406 0
M  V30 52 H 3.0462 -3.5924 -3.60311 0
M  V30 53 H 2.4442 -1.07898 -5.55315 0
M  V30 54 H 1.0012 -1.61832 -6.3139 0
M  V30 55 N 4.4343 0.785586 -1.36625 0
M  V30 56 C 5.6593 1.57963 -1.34397 0
M  V30 57 C 6.0843 1.87964 0.071526 0
M  V30 58 O 5.4423 1.48182 1.0446 0
M  V30 59 C 5.4903 2.87511 -2.17646 0
M  V30 60 O 4.5943 3.81281 -1.57158 0
M  V30 61 H 3.9353 0.479014 -0.459828 0
M  V30 62 H 6.4653 0.973411 -1.79961 0
M  V30 63 H 6.4753 3.36745 -2.30362 0
M  V30 64 H 5.1503 2.65002 -3.20541 0
M  V30 65 H 3.7273 3.39885 -1.53403 0
M  V30 66 N 5.9124 1.20967 1.01018 0
M  V30 67 C 6.8424 0.988272 2.11555 0
M  V30 68 C 7.8234 -0.0849778 1.69888 0
M  V30 69 O 9.0084 0.0738202 1.9406 0
M  V30 70 C 6.1384 0.546528 3.42973 0
M  V30 71 C 5.0924 1.56375 3.9841 0
M  V30 72 C 4.4184 0.97842 5.25672 0
M  V30 73 C 5.7184 2.94922 4.31066 0
M  V30 74 H 7.4124 1.91276 2.30334 0
M  V30 75 H 4.9584 0.921073 1.1069 0
M  V30 76 H 6.9114 0.378839 4.19694 0
M  V30 77 H 5.6354 -0.413598 3.23971 0
M  V30 78 H 4.2944 1.71891 3.23804 0
M  V30 79 H 3.9424 0.0101688 5.02999 0
M  V30 80 H 3.6424 1.65784 5.63728 0
M  V30 81 H 5.1664 0.821939 6.05043 0
M  V30 82 H 6.5804 2.8288 4.9865 0
M  V30 83 H 4.9774 3.5983 4.80253 0
M  V30 84 H 6.0474 3.4616 3.39561 0
M  V30 85 N 7.3905 -1.2043 1.01659 0
M  V30 86 C 8.3535 -2.21433 0.591616 0
M  V30 87 C 9.3535 -1.57203 -0.338226 0
M  V30 88 O 10.5435 -1.73737 -0.126918 0
M  V30 89 C 7.6755 -3.40628 -0.136058 0
M  V30 90 H 8.8685 -2.60545 1.48514 0
M  V30 91 H 6.4215 -1.33893 0.806379 0
M  V30 92 H 7.1565 -3.07019 -1.04449 0
M  V30 93 H 6.9415 -3.88475 0.531917 0
M  V30 94 H 8.4315 -4.15475 -0.420735 0
M  V30 95 N 8.8686 -0.792821 -1.36206 0
M  V30 96 C 10.1166 -0.366062 -1.98757 0
M  V30 97 C 10.4376 1.0668 -1.63231 0
M  V30 98 O 9.7076 1.73587 -0.907978 0
M  V30 99 H 8.2876 -0.132364 -0.735179 0
M  V30 100 H 10.9496 -1.01562 -1.66347 0
M  V30 101 H 10.0456 -0.460638 -3.08682 0
M  V30 102 N 10.3467 1.47872 -0.545128 0
M  V30 103 C 11.5717 2.07391 -0.0190611 0
M  V30 104 C 11.9967 1.39688 1.25971 0
M  V30 105 O 11.3547 0.467816 1.7516 0
M  V30 106 C 11.4027 3.60188 0.172335 0
M  V30 107 O 10.5067 3.9339 1.23766 0
M  V30 108 H 9.8477 0.662411 -0.0459059 0
M  V30 109 H 12.3777 1.90066 -0.757365 0
M  V30 110 H 12.3877 4.06129 0.390305 0
M  V30 111 H 11.0627 4.08865 -0.761725 0
M  V30 112 H 9.6397 3.5921 1.00114 0
M  V30 113 N 11.8248 0.280983 1.55075 0
M  V30 114 C 13.0498 -0.340154 2.04592 0
M  V30 115 C 13.4748 -1.48246 1.15779 0
M  V30 116 O 12.8328 -1.80614 0.15761 0
M  V30 117 C 12.8808 -0.793104 3.5177 0
M  V30 118 O 11.9848 -1.89981 3.66034 0
M  V30 119 H 11.3258 -0.0694289 0.66036 0
M  V30 120 H 13.8558 0.416993 2.00306 0
M  V30 121 H 13.8658 -1.08729 3.93245 0
M  V30 122 H 12.5408 0.0426163 4.15878 0
M  V30 123 H 11.1178 -1.60771 3.36463 0
M  V30 124 N 13.3029 -1.57598 0.00835791 0
M  V30 125 C 14.5429 -1.92788 -0.679136 0
M  V30 126 C 14.9069 -0.883378 -1.70471 0
M  V30 127 O 16.1079 -1.12079 -2.44319 0
M  V30 128 C 14.3789 -3.32994 -1.29807 0
M  V30 129 S 15.9379 -3.90082 -2.00952 0
M  V30 130 H 12.7559 -0.67475 -0.224127 0
M  V30 131 H 15.3579 -1.95385 0.0670497 0
M  V30 132 H 14.0619 -4.06846 -0.538922 0
M  V30 133 H 13.5929 -3.33791 -2.082 0
M  V30 134 H 15.6079 -3.71834 -3.28563 0
M  V30 135 N 14.781 0.264519 -1.55364 0
M  V30 136 C 16.027 0.99646 -1.76631 0
M  V30 137 C 16.36 1.85632 -0.570478 0
M  V30 138 O 15.635 1.89647 0.43175 0
M  V30 139 C 15.918 1.87187 -3.07625 0
M  V30 140 C 15.771 1.04138 -4.37579 0
M  V30 141 C 17.09 2.85749 -3.34717 0
M  V30 142 H 14.209 0.360841 -0.642622 0
M  V30 143 H 16.851 0.268218 -1.88097 0
M  V30 144 H 15.001 2.49279 -2.9798 0
M  V30 145 H 16.673 0.440517 -4.59192 0
M  V30 146 H 14.916 0.345115 -4.32425 0
M  V30 147 H 15.587 1.68729 -5.2558 0
M  V30 148 H 18.063 2.33793 -3.4421 0
M  V30 149 H 16.939 3.44136 -4.27623 0
M  V30 150 H 17.2 3.61311 -2.54768 0
M  V30 151 N 16.2591 1.48442 0.529413 0
M  V30 152 C 17.6751 1.34575 0.858004 0
M  V30 153 C 17.8751 0.3572 1.98309 0
M  V30 154 O 16.9311 -0.221379 2.51528 0
M  V30 155 C 18.2441 2.74617 1.22499 0
M  V30 156 C 19.7921 2.83109 1.33484 0
M  V30 157 C 20.2671 4.23854 1.73526 0
M  V30 158 N 21.7581 4.2653 1.80628 0
M  V30 159 C 22.4931 5.32372 2.12997 0
M  V30 160 N 21.9891 6.48491 2.43786 0
M  V30 161 N 23.7821 5.19766 2.14008 0
M  V30 162 H 15.9331 2.1133 -0.212925 0
M  V30 163 H 18.1961 0.947439 -0.0326199 0
M  V30 164 H 17.9021 3.4852 0.471905 0
M  V30 165 H 17.7761 3.08177 2.17501 0
M  V30 166 H 20.1631 2.09462 2.0787 0
M  V30 167 H 20.2441 2.53168 0.366027 0
M  V30 168 H 19.8881 4.98018 0.997013 0
M  V30 169 H 19.8181 4.5124 2.71459 0
M  V30 170 H 22.3091 3.42772 1.59108 0
M  V30 171 H 22.6221 7.24993 2.67592 0
M  V30 172 H 20.9671 6.51765 2.41304 0
M  V30 173 H 24.1581 4.28066 1.89412 0
M  V30 174 H 24.3311 6.02354 2.38902 0
M  V30 175 N 17.7372 -0.778329 1.37039 0
M  V30 176 C 18.6672 -1.90546 1.34962 0
M  V30 177 C 19.6482 -1.68681 0.219274 0
M  V30 178 O 20.8332 -1.89634 0.418624 0
M  V30 179 C 17.9632 -3.27734 1.14925 0
M  V30 180 C 16.9172 -3.64147 2.24902 0
M  V30 181 C 16.2432 -4.99806 1.89996 0
M  V30 182 C 17.5432 -3.71579 3.67051 0
M  V30 183 H 19.2372 -1.92541 2.29277 0
M  V30 184 H 16.7832 -0.924948 1.10366 0
M  V30 185 H 18.7362 -4.06215 1.12104 0
M  V30 186 H 17.4602 -3.26154 0.170631 0
M  V30 187 H 16.1192 -2.8797 2.26868 0
M  V30 188 H 15.7672 -4.94759 0.906796 0
M  V30 189 H 15.4672 -5.25139 2.63634 0
M  V30 190 H 16.9912 -5.80694 1.88749 0
M  V30 191 H 18.4052 -4.40227 3.67251 0
M  V30 192 H 16.8022 -4.08405 4.39688 0
M  V30 193 H 17.8722 -2.72404 4.01154 0
M  V30 194 N 19.2153 -1.21501 -1.00376 0
M  V30 195 C 20.4613 -1.03452 -1.74429 0
M  V30 196 C 20.7943 0.430764 -1.89362 0
M  V30 197 O 20.0693 1.31962 -1.42886 0
M  V30 198 C 20.3523 -1.73375 -3.15615 0
M  V30 199 C 20.2053 -3.27431 -3.08397 0
M  V30 200 C 21.5243 -1.47732 -4.14564 0
M  V30 201 H 18.6433 -0.377226 -0.633143 0
M  V30 202 H 21.2853 -1.49693 -1.17013 0
M  V30 203 H 19.4353 -1.34064 -3.64636 0
M  V30 204 H 21.1073 -3.76119 -2.67081 0
M  V30 205 H 19.3503 -3.5767 -2.45468 0
M  V30 206 H 20.0213 -3.71524 -4.08258 0
M  V30 207 H 22.4973 -1.8186 -3.74254 0
M  V30 208 H 21.3733 -1.99169 -5.11491 0
M  V30 209 H 21.6343 -0.407589 -4.40217 0
M  V30 210 N 20.6934 1.19889 -1.02296 0
M  V30 211 C 21.6034 2.26571 -0.608508 0
M  V30 212 C 22.6194 1.70299 0.356964 0
M  V30 213 O 23.7954 2.00235 0.216326 0
M  V30 214 C 20.8604 3.46677 0.0402814 0
M  V30 215 C 19.9214 4.18153 -0.97194 0
M  V30 216 C 19.1544 5.32525 -0.354016 0
M  V30 217 O 19.3774 5.64112 0.844604 0
M  V30 218 O 18.3114 5.92242 -1.07391 0
M  V30 219 H 22.1374 2.64251 -1.49684 0
M  V30 220 H 19.7224 1.26629 -0.792809 0
M  V30 221 H 21.6044 4.19475 0.402324 0
M  V30 222 H 20.2794 3.10858 0.902707 0
M  V30 223 H 19.1864 3.47499 -1.38546 0
M  V30 224 H 20.5194 4.57927 -1.80454 0
M  V30 225 N 22.1715 0.800033 1.35784 0
M  V30 226 C 23.5875 0.482977 1.52117 0
M  V30 227 C 23.7875 -0.996948 1.75109 0
M  V30 228 O 22.8435 -1.78216 1.78872 0
M  V30 229 C 24.1565 1.32264 2.70049 0
M  V30 230 C 25.7045 1.31742 2.83924 0
M  V30 231 C 26.1795 2.14106 4.04874 0
M  V30 232 N 27.6705 2.11607 4.12039 0
M  V30 233 C 28.4055 2.72099 5.04727 0
M  V30 234 N 27.9015 3.41492 6.02789 0
M  V30 235 N 29.6945 2.61776 4.97423 0
M  V30 236 H 21.8455 1.75856 1.19115 0
M  V30 237 H 24.1085 0.748122 0.582252 0
M  V30 238 H 23.8145 2.37261 2.59616 0
M  V30 239 H 23.6885 0.971303 3.6448 0
M  V30 240 H 26.0755 0.275333 2.93813 0
M  V30 241 H 26.1565 1.70859 1.9037 0
M  V30 242 H 25.8005 3.18351 3.95746 0
M  V30 243 H 25.7305 1.72353 4.97596 0
M  V30 244 H 28.2215 1.61112 3.41835 0
M  V30 245 H 28.5345 3.84953 6.70098 0
M  V30 246 H 26.8795 3.45596 6.02983 0
M  V30 247 H 30.0705 2.07157 4.19766 0
M  V30 248 H 30.2435 3.0921 5.69468 0
M  V30 249 N 23.6496 -1.47581 0.552962 0
M  V30 250 C 24.5996 -2.26961 -0.217423 0
M  V30 251 C 25.5836 -1.34099 -0.889168 0
M  V30 252 O 26.7756 -1.58483 -0.788176 0
M  V30 253 C 23.9046 -3.19756 -1.24944 0
M  V30 254 C 22.9906 -4.20097 -0.581327 0
M  V30 255 N 23.3816 -5.04614 0.346171 0
M  V30 256 C 21.6796 -4.38099 -0.835767 0
M  V30 257 C 22.3806 -5.77052 0.733854 0
M  V30 258 N 21.3566 -5.43526 0.0896567 0
M  V30 259 H 25.1586 -2.89688 0.495761 0
M  V30 260 H 22.6726 -1.58068 0.372597 0
M  V30 261 H 24.6696 -3.75305 -1.81527 0
M  V30 262 H 23.3296 -2.58585 -1.96376 0
M  V30 263 H 24.3406 -5.12869 0.720098 0
M  V30 264 H 21.0176 -3.88102 -1.53892 0
M  V30 265 H 22.4076 -6.5504 1.49574 0
M  V30 266 N 25.1277 -0.289203 -1.54924 0
M  V30 267 C 26.5437 0.0645403 -1.59469 0
M  V30 268 C 26.7437 1.53419 -1.30632 0
M  V30 269 O 25.7997 2.2852 -1.074 0
M  V30 270 C 27.1127 -0.32278 -2.98963 0
M  V30 271 C 28.6607 -0.270564 -3.11828 0
M  V30 272 C 29.1357 -0.632532 -4.53611 0
M  V30 273 N 30.6267 -0.584617 -4.59496 0
M  V30 274 C 31.3617 -0.837314 -5.67254 0
M  V30 275 N 30.8577 -1.15536 -6.83098 0
M  V30 276 N 32.6507 -0.765166 -5.56868 0
M  V30 277 H 24.8017 -1.24714 -1.71931 0
M  V30 278 H 27.0647 -0.504809 -0.802416 0
M  V30 279 H 26.7707 -1.34541 -3.24948 0
M  V30 280 H 26.6447 0.32944 -3.75759 0
M  V30 281 H 29.0317 0.742805 -2.85598 0
M  V30 282 H 29.1127 -0.957242 -2.37214 0
M  V30 283 H 28.7567 -1.64365 -4.80569 0
M  V30 284 H 28.6867 0.07609 -5.26545 0
M  V30 285 H 31.1777 -0.349248 -3.76283 0
M  V30 286 H 31.4907 -1.33447 -7.61191 0
M  V30 287 H 29.8357 -1.19328 -6.84679 0
M  V30 288 H 33.0267 -0.516432 -4.65243 0
M  V30 289 H 33.1997 -0.965477 -6.40767 0
M  V30 290 N 26.6058 1.57591 -0.0167156 0
M  V30 291 C 27.8308 1.9598 0.67872 0
M  V30 292 C 28.2558 0.892546 1.65575 0
M  V30 293 O 27.6138 -0.147772 1.80697 0
M  V30 294 C 27.6618 3.33468 1.37227 0
M  V30 295 O 26.7658 3.28954 2.48722 0
M  V30 296 H 26.1068 0.639339 0.17928 0
M  V30 297 H 28.6368 2.04463 -0.0748802 0
M  V30 298 H 28.6468 3.69417 1.7319 0
M  V30 299 H 27.3218 4.10694 0.656007 0
M  V30 300 H 25.8988 3.04705 2.14963 0
M  V30 301 N 28.0839 -0.256276 1.55502 0
M  V30 302 C 29.0469 -1.30047 1.88734 0
M  V30 303 C 30.0469 -1.4154 0.763086 0
M  V30 304 O 31.2369 -1.40403 1.03115 0
M  V30 305 C 28.3689 -2.67953 2.10747 0
M  V30 306 H 29.5619 -1.01802 2.82093 0
M  V30 307 H 27.1149 -0.495134 1.4825 0
M  V30 308 H 27.8499 -3.01351 1.19825 0
M  V30 309 H 27.6349 -2.60993 2.92617 0
M  V30 310 H 29.1249 -3.43368 2.37673 0
M  V30 311 N 29.562 -1.4872 -0.521534 0
M  V30 312 C 30.808 -1.58378 -1.27624 0
M  V30 313 C 31.163 -0.258028 -1.90662 0
M  V30 314 O 30.456 0.739917 -1.76736 0
M  V30 315 C 30.65 -2.66497 -2.38148 0
M  V30 316 C 30.479 -4.09456 -1.85945 0
M  V30 317 C 29.249 -4.76495 -1.68168 0
M  V30 318 C 31.447 -4.95353 -1.3831 0
M  V30 319 N 29.429 -6.0384 -1.1068 0
M  V30 320 C 30.8 -6.13012 -0.928238 0
M  V30 321 C 32.855 -4.81512 -1.26692 0
M  V30 322 C 31.558 -7.18354 -0.368701 0
M  V30 323 C 33.584 -5.86984 -0.721368 0
M  V30 324 C 32.946 -7.03857 -0.276623 0
M  V30 325 H 29.045 -0.634045 -0.457724 0
M  V30 326 H 31.629 -1.85639 -0.587049 0
M  V30 327 H 29.8 -2.41043 -3.04553 0
M  V30 328 H 31.532 -2.65791 -3.05184 0
M  V30 329 H 28.287 -4.32962 -1.91939 0
M  V30 330 H 28.711 -6.71778 -0.839217 0
M  V30 331 H 33.353 -3.91487 -1.5968 0
M  V30 332 H 31.071 -8.08096 -0.0265122 0
M  V30 333 H 34.657 -5.78329 -0.634531 0
M  V30 334 H 33.537 -7.84077 0.138947 0
M  V30 335 N 31.0401 0.771051 -1.3745 0
M  V30 336 C 32.2801 1.54264 -1.34096 0
M  V30 337 C 32.6441 1.91858 0.0737639 0
M  V30 338 O 33.8451 2.67797 0.23203 0
M  V30 339 C 32.1161 2.77326 -2.25445 0
M  V30 340 S 33.6751 3.67383 -2.39948 0
M  V30 341 H 30.4931 0.528122 -0.476034 0
M  V30 342 H 33.0951 0.906633 -1.73206 0
M  V30 343 H 31.7991 2.47788 -3.27153 0
M  V30 344 H 31.3301 3.45886 -1.87421 0
M  V30 345 H 33.3451 4.69334 -1.61059 0
M  V30 346 N 32.5182 1.22032 0.997298 0
M  V30 347 C 33.7652 1.04222 1.73621 0
M  V30 348 C 34.0932 -0.423264 1.89839 0
M  V30 349 O 33.3482 -1.3302 1.43542 0
M  V30 350 C 33.6472 1.69345 3.14733 0
M  V30 351 C 33.3132 3.19226 3.18442 0
M  V30 352 C 31.9752 3.60124 3.19161 0
M  V30 353 C 34.3272 4.15181 3.15078 0
M  V30 354 C 31.6552 4.95467 3.14212 0
M  V30 355 C 34.0072 5.50495 3.1167 0
M  V30 356 C 32.6712 5.90779 3.10703 0
M  V30 357 H 31.9412 0.381374 0.635323 0
M  V30 358 H 34.5882 1.51732 1.16831 0
M  V30 359 H 32.8932 1.14147 3.74803 0
M  V30 360 H 34.5902 1.53059 3.7064 0
M  V30 361 H 31.1802 2.86659 3.18629 0
M  V30 362 H 35.3642 3.84605 3.13676 0
M  V30 363 H 30.6202 5.25916 3.11805 0
M  V30 364 H 34.7942 6.24576 3.08022 0
M  V30 365 H 32.4212 6.9562 3.06622 0
M  V30 366 N 33.9963 -1.19345 1.0293 0
M  V30 367 C 35.2443 -1.88665 0.724574 0
M  V30 368 C 35.5653 -1.80036 -0.749144 0
M  V30 369 O 34.8353 -1.2111 -1.53978 0
M  V30 370 H 33.4153 -0.698406 0.265025 0
M  V30 371 H 36.0773 -1.44885 1.30362 0
M  V30 372 H 35.1733 -2.94987 1.01926 0
M  V30 373 N 35.4744 -0.807222 -1.35358 0
M  V30 374 C 36.7214 -0.387888 -1.9875 0
M  V30 375 C 37.0494 1.04509 -1.64037 0
M  V30 376 O 36.3044 1.73986 -0.895946 0
M  V30 377 C 36.6034 -0.519036 -3.53611 0
M  V30 378 C 36.2694 -1.91542 -4.08194 0
M  V30 379 C 34.9314 -2.29745 -4.22813 0
M  V30 380 C 37.2834 -2.82896 -4.37744 0
M  V30 381 C 34.6114 -3.58668 -4.643 0
M  V30 382 C 36.9634 -4.11265 -4.8067 0
M  V30 383 C 35.6274 -4.49466 -4.93494 0
M  V30 384 H 34.8974 -0.141938 -0.727279 0
M  V30 385 H 37.5444 -1.02814 -1.6156 0
M  V30 386 H 35.8494 0.204658 -3.91265 0
M  V30 387 H 37.5464 -0.175345 -4.00616 0
M  V30 388 H 34.1364 -1.60862 -3.97268 0
M  V30 389 H 38.3204 -2.54629 -4.26002 0
M  V30 390 H 33.5764 -3.88113 -4.72418 0
M  V30 391 H 37.7504 -4.82153 -5.02496 0
M  V30 392 H 35.3774 -5.49418 -5.25399 0
M  V30 393 N 36.9525 1.47285 -0.560781 0
M  V30 394 C 37.8825 2.32857 0.173105 0
M  V30 395 C 38.8635 1.44009 0.905281 0
M  V30 396 O 40.0485 1.7286 0.885046 0
M  V30 397 C 37.1785 3.25861 1.20133 0
M  V30 398 C 36.1325 4.23978 0.585388 0
M  V30 399 C 35.4585 5.06332 1.7185 0
M  V30 400 C 36.7585 5.20242 -0.463178 0
M  V30 401 H 38.4525 2.94466 -0.541307 0
M  V30 402 H 35.9985 1.41601 -0.261764 0
M  V30 403 H 37.9515 3.84569 1.72293 0
M  V30 404 H 36.6755 2.62315 1.94573 0
M  V30 405 H 35.3345 3.66501 0.085054 0
M  V30 406 H 34.9825 4.39186 2.45203 0
M  V30 407 H 34.6825 5.72762 1.31213 0
M  V30 408 H 36.2065 5.67899 2.24329 0
M  V30 409 H 37.6205 5.73293 -0.027502 0
M  V30 410 H 36.0175 5.94896 -0.788627 0
M  V30 411 H 37.0875 4.65504 -1.35773 0
M  V30 412 N 38.4306 0.297415 1.54768 0
M  V30 413 C 39.6766 -0.313376 2.00364 0
M  V30 414 C 40.0096 -1.53815 1.18553 0
M  V30 415 O 39.2846 -1.92739 0.261103 0
M  V30 416 C 39.5676 -0.673525 3.53745 0
M  V30 417 C 39.4206 0.560133 4.46299 0
M  V30 418 C 40.7396 -1.50143 4.13697 0
M  V30 419 H 37.8586 -0.112428 0.728374 0
M  V30 420 H 40.5006 0.4088 1.8555 0
M  V30 421 H 38.6506 -1.28881 3.665 0
M  V30 422 H 40.3226 1.19863 4.45455 0
M  V30 423 H 38.5656 1.19405 4.17043 0
M  V30 424 H 39.2366 0.26405 5.51368 0
M  V30 425 H 41.7126 -0.981588 4.04356 0
M  V30 426 H 40.5886 -1.72221 5.21182 0
M  V30 427 H 40.8496 -2.48952 3.65343 0
M  V30 428 N 39.9087 -1.5758 0.0250728 0
M  V30 429 C 40.8387 -2.13007 -0.956575 0
M  V30 430 C 41.8197 -1.0452 -1.342 0
M  V30 431 O 43.0047 -1.32332 -1.42133 0
M  V30 432 C 40.1347 -2.65386 -2.24026 0
M  V30 433 C 39.0887 -3.78623 -1.99571 0
M  V30 434 C 38.4147 -4.17414 -3.3417 0
M  V30 435 C 39.7147 -5.04867 -1.33814 0
M  V30 436 H 41.4087 -2.9528 -0.494991 0
M  V30 437 H 38.9547 -1.42042 -0.236651 0
M  V30 438 H 40.9077 -3.02794 -2.93076 0
M  V30 439 H 39.6317 -1.80268 -2.72343 0
M  V30 440 H 38.2907 -3.41646 -1.32941 0
M  V30 441 H 37.9387 -3.29284 -3.80238 0
M  V30 442 H 37.6387 -4.93719 -3.18615 0
M  V30 443 H 39.1627 -4.57402 -4.04495 0
M  V30 444 H 40.5767 -5.39888 -1.92857 0
M  V30 445 H 38.9737 -5.86144 -1.28669 0
M  V30 446 H 40.0437 -4.83904 -0.310561 0
M  V30 447 N 41.3868 0.248026 -1.55636 0
M  V30 448 C 42.6348 0.974295 -1.77065 0
M  V30 449 C 42.9558 1.85897 -0.588849 0
M  V30 450 O 42.2258 1.91868 0.395407 0
M  V30 451 H 40.8058 0.362733 -0.653019 0
M  V30 452 H 43.4678 0.266244 -1.93073 0
M  V30 453 H 42.5638 1.59667 -2.68166 0
M  V30 454 N 42.8649 1.48995 0.513639 0
M  V30 455 C 44.0949 1.61297 1.291 0
M  V30 456 C 44.5029 0.278656 1.87137 0
M  V30 457 O 43.8459 -0.744325 1.67945 0
M  V30 458 C 43.9079 2.61326 2.46879 0
M  V30 459 C 43.5719 4.05993 2.09807 0
M  V30 460 C 44.5689 4.93183 1.64519 0
M  V30 461 C 42.2539 4.51642 2.19829 0
M  V30 462 C 44.2479 6.24056 1.2974 0
M  V30 463 C 41.9349 5.82532 1.84662 0
M  V30 464 C 42.9329 6.68562 1.3969 0
M  V30 465 O 42.6209 7.97014 1.04992 0
M  V30 466 H 42.3529 0.546236 0.39825 0
M  V30 467 H 44.9069 1.95673 0.62459 0
M  V30 468 H 43.1369 2.22104 3.16554 0
M  V30 469 H 44.8259 2.6329 3.08923 0
M  V30 470 H 45.5919 4.59147 1.56233 0
M  V30 471 H 41.4709 3.84855 2.53786 0
M  V30 472 H 45.0149 6.91161 0.945659 0
M  V30 473 H 40.9119 6.16099 1.92594 0
M  V30 474 H 41.6799 8.09913 1.18249 0
M  V30 475 N 44.343 -0.763751 1.37857 0
M  V30 476 C 45.273 -1.89103 1.36975 0
M  V30 477 C 46.254 -1.68439 0.237152 0
M  V30 478 O 47.439 -1.8918 0.438713 0
M  V30 479 C 44.569 -3.26496 1.18395 0
M  V30 480 C 43.523 -3.61741 2.28751 0
M  V30 481 C 42.849 -4.97762 1.95286 0
M  V30 482 C 44.149 -3.67665 3.70972 0
M  V30 483 H 45.843 -1.90099 2.31307 0
M  V30 484 H 43.389 -0.91319 1.11341 0
M  V30 485 H 45.342 -4.05003 1.16406 0
M  V30 486 H 44.066 -3.25955 0.205215 0
M  V30 487 H 42.725 -2.85547 2.29909 0
M  V30 488 H 42.373 -4.93769 0.959221 0
M  V30 489 H 42.073 -5.22313 2.69189 0
M  V30 490 H 43.597 -5.7866 1.94898 0
M  V30 491 H 45.011 -4.36307 3.719 0
M  V30 492 H 43.408 -4.03718 4.43995 0
M  V30 493 H 44.478 -2.68134 4.0402 0
M  V30 494 N 45.8211 -1.22559 -0.990812 0
M  V30 495 C 46.7511 -1.0218 -2.09956 0
M  V30 496 C 47.7321 0.0579394 -1.70001 0
M  V30 497 O 48.9171 -0.104684 -1.93918 0
M  V30 498 C 46.0471 -0.601023 -3.4206 0
M  V30 499 C 45.0011 -1.62694 -3.95872 0
M  V30 500 C 44.3271 -1.06193 -5.24049 0
M  V30 501 C 45.6271 -3.01743 -4.2632 0
M  V30 502 H 47.3211 -1.94916 -2.27262 0
M  V30 503 H 44.8671 -0.938566 -1.09211 0
M  V30 504 H 46.8201 -0.445561 -4.19038 0
M  V30 505 H 45.5441 0.362005 -3.24588 0
M  V30 506 H 44.2031 -1.77021 -3.21028 0
M  V30 507 H 43.8511 -0.0901903 -5.02919 0
M  V30 508 H 43.5511 -1.74732 -5.61019 0
M  V30 509 H 45.0751 -0.918092 -6.03658 0
M  V30 510 H 46.4891 -2.90777 -4.94087 0
M  V30 511 H 44.8861 -3.67425 -4.74467 0
M  V30 512 H 45.9561 -3.51518 -3.34011 0
M  V30 513 N 47.2992 1.18797 -1.03562 0
M  V30 514 C 48.5292 1.92319 -0.754773 0
M  V30 515 C 48.9372 1.7612 0.691248 0
M  V30 516 O 48.2802 1.08491 1.48241 0
M  V30 517 C 48.3422 3.44284 -1.03484 0
M  V30 518 C 48.0062 3.84258 -2.47376 0
M  V30 519 C 49.0032 3.88459 -3.45537 0
M  V30 520 C 46.6882 4.15701 -2.81954 0
M  V30 521 C 48.6822 4.23545 -4.76328 0
M  V30 522 C 46.3692 4.50458 -4.12954 0
M  V30 523 C 47.3672 4.54356 -5.09951 0
M  V30 524 O 47.0552 4.88305 -6.38603 0
M  V30 525 H 46.7872 0.617527 -0.275021 0
M  V30 526 H 49.3412 1.51683 -1.38497 0
M  V30 527 H 47.5712 3.85135 -0.347513 0
M  V30 528 H 49.2602 3.99049 -0.7426 0
M  V30 529 H 50.0262 3.6431 -3.20162 0
M  V30 530 H 45.9052 4.11847 -2.0713 0
M  V30 531 H 49.4492 4.26502 -5.52035 0
M  V30 532 H 45.3462 4.74067 -4.38099 0
M  V30 533 H 46.1142 5.06227 -6.43177 0
M  V30 534 N 48.7773 0.814389 1.34928 0
M  V30 535 C 49.7073 0.244827 2.32213 0
M  V30 536 C 50.6883 -0.634024 1.57842 0
M  V30 537 O 51.8733 -0.562676 1.8587 0
M  V30 538 C 49.0033 -0.601106 3.42058 0
M  V30 539 C 47.9573 0.179896 4.27622 0
M  V30 540 C 47.2833 -0.788237 5.28858 0
M  V30 541 C 48.5833 1.38329 5.03649 0
M  V30 542 H 50.2773 1.05763 2.80097 0
M  V30 543 H 47.8233 0.510029 1.34665 0
M  V30 544 H 49.7763 -1.00968 4.09125 0
M  V30 545 H 48.5003 -1.44688 2.92802 0
M  V30 546 H 47.1593 0.569739 3.62146 0
M  V30 547 H 46.8073 -1.62973 4.75866 0
M  V30 548 H 46.5073 -0.269942 5.8698 0
M  V30 549 H 48.0313 -1.19485 5.98795 0
M  V30 550 H 49.4453 1.04918 5.63618 0
M  V30 551 H 47.8423 1.83662 5.71304 0
M  V30 552 H 48.9123 2.16592 4.33839 0
M  V30 553 N 50.2554 -1.46986 0.568584 0
M  V30 554 C 51.5014 -2.02741 0.0488709 0
M  V30 555 C 51.8344 -1.44077 -1.30214 0
M  V30 556 O 51.1094 -0.600552 -1.84996 0
M  V30 557 C 51.3924 -3.60086 -0.032047 0
M  V30 558 C 51.2454 -4.29162 1.34686 0
M  V30 559 C 52.5644 -4.33838 -0.739798 0
M  V30 560 H 49.6834 -0.736749 0.0192338 0
M  V30 561 H 52.3254 -1.75289 0.733065 0
M  V30 562 H 50.4754 -3.83606 -0.61473 0
M  V30 563 H 52.1474 -4.16948 1.97362 0
M  V30 564 H 50.3904 -3.89073 1.91846 0
M  V30 565 H 51.0614 -5.37826 1.24285 0
M  V30 566 H 53.5374 -4.15378 -0.244939 0
M  V30 567 H 52.4134 -5.43537 -0.765406 0
M  V30 568 H 52.6744 -4.03875 -1.79827 0
M  V30 569 N 51.7335 -0.305618 -1.54608 0
M  V30 570 C 52.9805 0.302298 -2.00231 0
M  V30 571 C 53.3085 1.5354 -1.19398 0
M  V30 572 O 52.5635 1.93973 -0.259423 0
M  V30 573 C 52.8625 0.698983 -3.50498 0
M  V30 574 C 52.5285 -0.432903 -4.48817 0
M  V30 575 C 51.1905 -0.743622 -4.75419 0
M  V30 576 C 53.5425 -1.19409 -5.07337 0
M  V30 577 C 50.8705 -1.81857 -5.57804 0
M  V30 578 C 53.2225 -2.25899 -5.90891 0
M  V30 579 C 51.8865 -2.57572 -6.15803 0
M  V30 580 H 51.1565 0.110619 -0.732697 0
M  V30 581 H 53.8035 -0.425674 -1.86709 0
M  V30 582 H 52.1085 1.50711 -3.61654 0
M  V30 583 H 53.8055 1.1806 -3.83227 0
M  V30 584 H 50.3955 -0.18063 -4.28219 0
M  V30 585 H 54.5795 -0.967295 -4.86782 0
M  V30 586 H 49.8355 -2.06864 -5.75341 0
M  V30 587 H 54.0095 -2.85335 -6.35261 0
M  V30 588 H 51.6365 -3.40998 -6.7943 0
M  V30 589 N 53.2116 1.57565 -0.0334293 0
M  V30 590 C 54.4596 1.91598 0.642999 0
M  V30 591 C 54.7806 0.910847 1.7242 0
M  V30 592 O 54.0506 -0.0469931 1.95844 0
M  V30 593 H 52.6306 0.707228 0.240496 0
M  V30 594 H 55.2926 1.94726 -0.0822488 0
M  V30 595 H 54.3886 2.92336 1.09298 0
M  V30 596 N 54.6897 -0.239769 1.55765 0
M  V30 597 C 55.6527 -1.28038 1.90103 0
M  V30 598 C 56.6527 -1.40723 0.778055 0
M  V30 599 O 57.8427 -1.39301 1.04599 0
M  V30 600 C 54.9747 -2.65702 2.13577 0
M  V30 601 H 56.1677 -0.988048 2.83157 0
M  V30 602 H 53.7207 -0.479382 1.48767 0
M  V30 603 H 54.4557 -3.00063 1.23015 0
M  V30 604 H 54.2407 -2.57875 2.95369 0
M  V30 605 H 55.7307 -3.40828 2.41301 0
M  V30 606 N 56.1678 -1.49265 -0.50573 0
M  V30 607 C 57.4138 -1.58748 -1.26202 0
M  V30 608 C 57.7468 -0.271227 -1.92297 0
M  V30 609 O 57.0218 0.724831 -1.80489 0
M  V30 610 C 57.3048 -2.74332 -2.33268 0
M  V30 611 C 57.1578 -4.15737 -1.71705 0
M  V30 612 C 58.4768 -2.85576 -3.34865 0
M  V30 613 H 55.5958 -0.577826 -0.457478 0
M  V30 614 H 58.2378 -1.81532 -0.560897 0
M  V30 615 H 56.3878 -2.55036 -2.93068 0
M  V30 616 H 58.0598 -4.46537 -1.15769 0
M  V30 617 H 56.3028 -4.21605 -1.02135 0
M  V30 618 H 56.9738 -4.92477 -2.49341 0
M  V30 619 H 59.4498 -3.03127 -2.8505 0
M  V30 620 H 58.3258 -3.68135 -4.07146 0
M  V30 621 H 58.5868 -1.94732 -3.96903 0
M  V30 622 N 57.6459 0.756429 -1.3826 0
M  V30 623 C 58.8919 1.51772 -1.34511 0
M  V30 624 C 59.2249 1.94089 0.0656691 0
M  V30 625 O 58.4999 1.65221 1.02626 0
M  V30 626 C 58.7829 2.77226 -2.29821 0
M  V30 627 C 58.6359 2.41065 -3.79747 0
M  V30 628 C 59.9549 3.79236 -2.23312 0
M  V30 629 H 57.0739 0.550578 -0.489931 0
M  V30 630 H 59.7159 0.866607 -1.69086 0
M  V30 631 H 57.8659 3.32784 -2.00467 0
M  V30 632 H 59.5379 1.91303 -4.19763 0
M  V30 633 H 57.7809 1.7356 -3.97567 0
M  V30 634 H 58.4519 3.3081 -4.41892 0
M  V30 635 H 60.9279 3.3321 -2.49219 0
M  V30 636 H 59.8039 4.64714 -2.92116 0
M  V30 637 H 60.0649 4.24615 -1.23102 0
M  V30 638 N 59.124 1.23083 0.984299 0
M  V30 639 C 60.371 1.06057 1.72505 0
M  V30 640 C 60.699 -0.403105 1.90277 0
M  V30 641 O 59.954 -1.3149 1.44944 0
M  V30 642 C 60.253 1.72673 3.1292 0
M  V30 643 C 59.919 3.22586 3.15038 0
M  V30 644 C 58.581 3.63489 3.15324 0
M  V30 645 C 60.933 4.185 3.10657 0
M  V30 646 C 58.261 4.98772 3.08939 0
M  V30 647 C 60.613 5.53769 3.05814 0
M  V30 648 C 59.277 5.94041 3.04419 0
M  V30 649 H 58.547 0.388091 0.631242 0
M  V30 650 H 61.194 1.52963 1.15215 0
M  V30 651 H 59.499 1.18116 3.73572 0
M  V30 652 H 61.196 1.56982 3.68996 0
M  V30 653 H 57.786 2.90022 3.15571 0
M  V30 654 H 61.97 3.87911 3.09579 0
M  V30 655 H 57.226 5.29193 3.0621 0
M  V30 656 H 61.4 6.27808 3.0138 0
M  V30 657 H 59.027 6.98833 2.99227 0
M  V30 658 N 60.6021 -1.18246 1.0419 0
M  V30 659 C 61.8271 -1.92736 0.765996 0
M  V30 660 C 62.2521 -1.75728 -0.67091 0
M  V30 661 O 61.6101 -1.06825 -1.46486 0
M  V30 662 C 61.6581 -3.42148 1.13875 0
M  V30 663 O 60.7621 -4.11548 0.264954 0
M  V30 664 H 60.1031 -0.601238 0.281797 0
M  V30 665 H 62.6331 -1.49942 1.39207 0
M  V30 666 H 62.6431 -3.92858 1.1012 0
M  V30 667 H 61.3181 -3.53848 2.18551 0
M  V30 668 H 59.8951 -3.71137 0.362226 0
M  V30 669 N 62.0802 -0.821533 -1.34494 0
M  V30 670 C 63.3052 -0.420873 -2.03085 0
M  V30 671 C 63.7302 0.964915 -1.61465 0
M  V30 672 O 63.0882 1.62763 -0.798607 0
M  V30 673 C 63.1362 -0.529414 -3.56693 0
M  V30 674 O 62.2402 0.451302 -4.09923 0
M  V30 675 H 61.5812 -0.173489 -0.640935 0
M  V30 676 H 64.1112 -1.11157 -1.71771 0
M  V30 677 H 64.1212 -0.404671 -4.05988 0
M  V30 678 H 62.7962 -1.54014 -3.86332 0
M  V30 679 H 61.3732 0.285558 -3.71805 0
M  V30 680 N 63.5583 1.46682 -0.576371 0
M  V30 681 C 64.8043 2.02712 -0.0596221 0
M  V30 682 C 65.1373 1.44765 1.29448 0
M  V30 683 O 64.4123 0.610355 1.84675 0
M  V30 684 C 64.6953 3.60098 0.0129503 0
M  V30 685 C 64.5483 4.28441 -1.3696 0
M  V30 686 C 65.8673 4.34224 0.71678 0
M  V30 687 H 62.9863 0.736637 -0.0231407 0
M  V30 688 H 65.6283 1.74898 -0.742351 0
M  V30 689 H 63.7783 3.83926 0.594378 0
M  V30 690 H 65.4503 4.15896 -1.9957 0
M  V30 691 H 63.6933 3.8805 -1.93907 0
M  V30 692 H 64.3643 5.3716 -1.27135 0
M  V30 693 H 66.8403 4.15503 0.222908 0
M  V30 694 H 65.7163 5.43936 0.73657 0
M  V30 695 H 65.9773 4.04823 1.77682 0
M  V30 696 N 65.0364 0.313813 1.54444 0
M  V30 697 C 65.9464 -0.565714 2.27677 0
M  V30 698 C 66.9624 -1.13754 1.31666 0
M  V30 699 O 68.1384 -1.15959 1.64668 0
M  V30 700 C 65.2034 -1.71528 3.01296 0
M  V30 701 C 64.2644 -1.17624 4.12872 0
M  V30 702 C 63.4974 -2.27102 4.8297 0
M  V30 703 O 63.7204 -3.47256 4.52514 0
M  V30 704 O 62.6544 -1.9307 5.70094 0
M  V30 705 H 66.4804 0.0287296 3.03686 0
M  V30 706 H 64.0654 0.0798312 1.49187 0
M  V30 707 H 65.9474 -2.38476 3.4743 0
M  V30 708 H 64.6224 -2.29608 2.2817 0
M  V30 709 H 63.5294 -0.472124 3.71109 0
M  V30 710 H 64.8624 -0.640695 4.88012 0
M  V30 711 N 66.5145 -1.57545 0.0417849 0
M  V30 712 C 67.4445 -2.14009 -0.933929 0
M  V30 713 C 68.4255 -1.05938 -1.33083 0
M  V30 714 O 69.6105 -1.33833 -1.40721 0
M  V30 715 C 66.7405 -2.67747 -2.21199 0
M  V30 716 C 65.6945 -3.80718 -1.95544 0
M  V30 717 C 65.0205 -4.20935 -3.29724 0
M  V30 718 C 66.3205 -5.06258 -1.28452 0
M  V30 719 H 68.0145 -2.95788 -0.463645 0
M  V30 720 H 65.5605 -1.42285 -0.221573 0
M  V30 721 H 67.5135 -3.05886 -2.89848 0
M  V30 722 H 66.2375 -1.83147 -2.70416 0
M  V30 723 H 64.8965 -3.43037 -1.2931 0
M  V30 724 H 64.5445 -3.33298 -3.76724 0
M  V30 725 H 64.2445 -4.9707 -3.13361 0
M  V30 726 H 65.7685 -4.61666 -3.9962 0
M  V30 727 H 67.1825 -5.41903 -1.8712 0
M  V30 728 H 65.5795 -5.87475 -1.22445 0
M  V30 729 H 66.6495 -4.84207 -0.259219 0
M  V30 730 N 67.9926 0.231505 -1.5589 0
M  V30 731 C 69.4036 0.799327 -1.68724 0
M  V30 732 C 69.7546 1.85398 -0.642022 0
M  V30 733 O 68.8796 2.1539 0.208784 0
M  V30 734 C 69.4746 1.45664 -3.05888 0
M  V30 735 C 68.0336 1.97197 -3.20609 0
M  V30 736 C 67.1806 0.828552 -2.64632 0
M  V30 737 H 70.1316 0.00702616 -1.58698 0
M  V30 738 H 70.1526 2.32517 -3.01191 0
M  V30 739 H 69.6646 0.688808 -3.81939 0
M  V30 740 H 67.7656 2.76813 -2.4941 0
M  V30 741 H 67.8786 2.15878 -4.27707 0
M  V30 742 H 66.2426 1.23321 -2.22854 0
M  V30 743 H 67.0256 0.0735544 -3.43221 0
M  V30 744 N 69.4707 1.49531 0.497807 0
M  V30 745 C 70.7007 1.62657 1.27382 0
M  V30 746 C 71.1087 0.298488 1.86831 0
M  V30 747 O 70.4517 -0.72647 1.68725 0
M  V30 748 C 70.5137 2.6393 2.44093 0
M  V30 749 C 70.1777 4.08195 2.05489 0
M  V30 750 C 71.1747 4.949 1.59279 0
M  V30 751 C 68.8597 4.53948 2.15026 0
M  V30 752 C 70.8537 6.25397 1.23113 0
M  V30 753 C 68.5407 5.84458 1.78473 0
M  V30 754 C 69.5387 6.70006 1.32591 0
M  V30 755 O 69.2267 7.98083 0.965327 0
M  V30 756 H 68.9587 0.550429 0.392434 0
M  V30 757 H 71.5127 1.96325 0.603801 0
M  V30 758 H 69.7427 2.25449 3.14181 0
M  V30 759 H 71.4317 2.66552 3.06113 0
M  V30 760 H 72.1977 4.60779 1.51354 0
M  V30 761 H 68.0767 3.87525 2.4969 0
M  V30 762 H 71.6207 6.92125 0.872299 0
M  V30 763 H 67.5177 6.18107 1.86048 0
M  V30 764 H 68.2857 8.11122 1.09652 0
M  V30 765 N 70.9488 -0.749086 1.3866 0
M  V30 766 C 71.8588 -1.89358 1.38494 0
M  V30 767 C 72.8748 -1.71708 0.281476 0
M  V30 768 O 74.0508 -1.94554 0.520643 0
M  V30 769 C 71.1158 -3.24782 1.21316 0
M  V30 770 C 70.1768 -3.54926 2.41508 0
M  V30 771 C 69.4098 -4.83888 2.2514 0
M  V30 772 O 69.6328 -5.56592 1.24746 0
M  V30 773 O 68.5668 -5.13612 3.13826 0
M  V30 774 H 72.3928 -1.92452 2.34938 0
M  V30 775 H 69.9778 -0.894981 1.19626 0
M  V30 776 H 71.8598 -4.05739 1.13814 0
M  V30 777 H 70.5348 -3.2249 0.279592 0
M  V30 778 H 69.4418 -2.74112 2.54585 0
M  V30 779 H 70.7748 -3.61983 3.3351 0
M  V30 780 N 72.4269 -1.23603 -0.977757 0
M  V30 781 C 73.7039 -0.977897 -1.69401 0
M  V30 782 C 74.0839 0.502738 -2.05026 0
M  V30 783 O 73.4319 1.47459 -1.74551 0
M  V30 784 C 73.6419 -1.89077 -2.93345 0
M  V30 785 C 74.9899 -2.15579 -3.65802 0
M  V30 786 O 76.0139 -1.86648 -3.03383 0
M  V30 787 O 74.8729 -2.64658 -4.78141 0
M  V30 788 H 71.9669 -0.369025 -0.740101 0
M  V30 789 H 74.5129 -1.34657 -1.03274 0
M  V30 790 H 73.2849 -2.89158 -2.63634 0
M  V30 791 H 72.9079 -1.52463 -3.67207 0
M  V30 792 N 73.905 1.17692 -1.04816 0
M  V30 793 C 74.835 2.23777 -0.666791 0
M  V30 794 C 75.816 1.66796 0.33361 0
M  V30 795 O 77.001 1.93039 0.212042 0
M  V30 796 C 74.131 3.47281 -0.0367933 0
M  V30 797 C 73.085 4.17059 -0.961546 0
M  V30 798 C 72.411 5.34342 -0.195626 0
M  V30 799 C 73.711 4.69713 -2.28402 0
M  V30 800 H 75.405 2.55933 -1.55367 0
M  V30 801 H 72.951 1.23019 -0.748484 0
M  V30 802 H 74.904 4.20706 0.241775 0
M  V30 803 H 73.628 3.14381 0.885004 0
M  V30 804 H 72.287 3.45541 -1.22462 0
M  V30 805 H 71.935 4.97692 0.728816 0
M  V30 806 H 71.635 5.81966 -0.811775 0
M  V30 807 H 73.159 6.10553 0.0757473 0
M  V30 808 H 74.573 5.34794 -2.06563 0
M  V30 809 H 72.97 5.279 -2.8538 0
M  V30 810 H 74.04 3.86726 -2.92525 0
M  V30 811 N 75.3831 0.828654 1.34056 0
M  V30 812 C 76.3131 0.269443 2.3194 0
M  V30 813 C 77.2941 -0.617247 1.58506 0
M  V30 814 O 78.4791 -0.542931 1.86456 0
M  V30 815 C 75.6091 -0.564793 3.42677 0
M  V30 816 C 74.5631 0.225241 4.27407 0
M  V30 817 C 73.8891 -0.7321 5.29664 0
M  V30 818 C 75.1891 1.43663 5.02154 0
M  V30 819 H 76.8831 1.08728 2.7896 0
M  V30 820 H 74.4291 0.524283 1.34117 0
M  V30 821 H 76.3821 -0.966233 4.10173 0
M  V30 822 H 75.1061 -1.41574 2.9432 0
M  V30 823 H 73.7651 0.608117 3.61521 0
M  V30 824 H 73.4131 -1.57916 4.77568 0
M  V30 825 H 73.1131 -0.20767 5.87233 0
M  V30 826 H 74.6371 -1.13128 6.00029 0
M  V30 827 H 76.0511 1.1089 5.62473 0
M  V30 828 H 74.4481 1.89711 5.69324 0
M  V30 829 H 75.5181 2.21181 4.31517 0
M  V30 830 N 76.8612 -1.46375 0.584142 0
M  V30 831 C 78.2772 -1.57694 0.245929 0
M  V30 832 C 78.4772 -1.57903 -1.25175 0
M  V30 833 O 77.5332 -1.49676 -2.03355 0
M  V30 834 C 78.8462 -2.87028 0.896402 0
M  V30 835 C 80.3942 -3.00662 0.870127 0
M  V30 836 C 80.8692 -4.32734 1.50017 0
M  V30 837 N 82.3602 -4.39436 1.46458 0
M  V30 838 C 83.0952 -5.40248 1.92144 0
M  V30 839 N 82.5912 -6.47726 2.4581 0
M  V30 840 N 84.3842 -5.31459 1.83052 0
M  V30 841 H 76.5352 -1.44483 1.55687 0
M  V30 842 H 78.7982 -0.689291 0.650831 0
M  V30 843 H 78.5042 -2.9269 1.95002 0
M  V30 844 H 78.3782 -3.75014 0.405486 0
M  V30 845 H 80.7652 -2.94581 -0.174871 0
M  V30 846 H 80.8462 -2.14148 1.39908 0
M  V30 847 H 80.4902 -4.39573 2.54437 0
M  V30 848 H 80.4202 -5.18025 0.946432 0
M  V30 849 H 82.9112 -3.62367 1.07231 0
M  V30 850 H 83.2242 -7.20863 2.78525 0
M  V30 851 H 81.5692 -6.48542 2.49836 0
M  V30 852 H 84.7602 -4.46396 1.40883 0
M  V30 853 H 84.9332 -6.09881 2.18973 0
M  V30 854 N 78.3393 -0.321999 -1.54275 0
M  V30 855 C 79.2713 0.578671 -2.21775 0
M  V30 856 C 80.2843 1.08109 -1.21722 0
M  V30 857 O 81.4733 0.994938 -1.482 0
M  V30 858 C 78.5733 1.80661 -2.86731 0
M  V30 859 C 77.7463 1.44314 -4.12907 0
M  V30 860 C 76.8053 2.52845 -4.61472 0
M  V30 861 O 75.8313 2.17054 -5.2619 0
M  V30 862 N 77.0333 3.83748 -4.35566 0
M  V30 863 H 79.7983 0.000709447 -2.997 0
M  V30 864 H 77.3593 -0.145132 -1.61248 0
M  V30 865 H 79.3513 2.52655 -3.16145 0
M  V30 866 H 77.9213 2.29245 -2.12521 0
M  V30 867 H 77.1413 0.554906 -3.90275 0
M  V30 868 H 78.4293 1.17598 -4.95023 0
M  V30 869 H 77.8273 4.15625 -3.83761 0
M  V30 870 H 76.3843 4.51977 -4.69638 0
M  V30 871 N 79.8174 1.5752 -0.0501392 0
M  V30 872 C 80.7274 2.14952 0.939827 0
M  V30 873 C 81.7434 1.10706 1.34239 0
M  V30 874 O 82.9194 1.42869 1.41952 0
M  V30 875 C 79.9844 2.68232 2.19665 0
M  V30 876 C 79.0454 3.87272 1.85253 0
M  V30 877 C 78.2784 4.38002 3.04943 0
M  V30 878 O 78.5014 3.87811 4.18281 0
M  V30 879 O 77.4354 5.29602 2.86017 0
M  V30 880 H 81.2614 2.9986 0.481392 0
M  V30 881 H 78.8464 1.4841 0.171699 0
M  V30 882 H 80.7284 3.02475 2.93406 0
M  V30 883 H 79.4034 1.86395 2.64648 0
M  V30 884 H 78.3104 3.5792 1.0883 0
M  V30 885 H 79.6434 4.70336 1.4507 0
M  V30 886 N 81.2955 -0.223234 1.56011 0
M  V30 887 C 82.2255 -1.27988 1.95298 0
M  V30 888 C 83.2065 -1.48976 0.820979 0
M  V30 889 O 84.3915 -1.61188 1.08315 0
M  V30 890 C 81.5215 -2.63 2.26822 0
M  V30 891 C 80.4755 -2.56671 3.42497 0
M  V30 892 C 79.8015 -3.95697 3.59622 0
M  V30 893 C 81.1015 -2.11601 4.77517 0
M  V30 894 H 82.7955 -0.953525 2.8381 0
M  V30 895 H 80.3415 -0.457244 1.36548 0
M  V30 896 H 82.2945 -3.37077 2.52898 0
M  V30 897 H 81.0185 -2.9732 1.35161 0
M  V30 898 H 79.6775 -1.85051 3.16467 0
M  V30 899 H 79.3255 -4.27322 2.6534 0
M  V30 900 H 79.0255 -3.92345 4.37424 0
M  V30 901 H 80.5495 -4.71438 3.88044 0
M  V30 902 H 81.9635 -2.7542 5.02809 0
M  V30 903 H 80.3605 -2.19311 5.5859 0
M  V30 904 H 81.4305 -1.06824 4.72987 0
M  V30 905 N 82.7736 -1.49793 -0.48987 0
M  V30 906 C 84.1896 -1.36803 -0.822022 0
M  V30 907 C 84.3896 -0.409652 -1.97292 0
M  V30 908 O 83.4456 0.154614 -2.52026 0
M  V30 909 C 84.7586 -2.77768 -1.15175 0
M  V30 910 C 86.3066 -2.86549 -1.25931 0
M  V30 911 C 86.7816 -4.28306 -1.62228 0
M  V30 912 N 88.2726 -4.31169 -1.69256 0
M  V30 913 C 89.0076 -5.37832 -1.98807 0
M  V30 914 N 88.5036 -6.54726 -2.26507 0
M  V30 915 N 90.2966 -5.25258 -2.00152 0
M  V30 916 H 82.4476 -2.10691 0.268881 0
M  V30 917 H 84.7106 -0.946241 0.057728 0
M  V30 918 H 84.4166 -3.49648 -0.379335 0
M  V30 919 H 84.2906 -3.13836 -2.09253 0
M  V30 920 H 86.6776 -2.14899 -2.02243 0
M  V30 921 H 86.7586 -2.54049 -0.298776 0
M  V30 922 H 86.4026 -5.00486 -0.864622 0
M  V30 923 H 86.3326 -4.58279 -2.594 0
M  V30 924 H 88.8236 -3.4687 -1.49965 0
M  V30 925 H 89.1366 -7.31833 -2.48276 0
M  V30 926 H 87.4816 -6.57933 -2.23939 0
M  V30 927 H 90.6726 -4.32938 -1.77996 0
M  V30 928 H 90.8456 -6.08476 -2.22848 0
M  V30 929 N 84.2517 0.741722 -1.39055 0
M  V30 930 C 85.1987 1.85566 -1.37237 0
M  V30 931 C 86.1687 1.64457 -0.233072 0
M  V30 932 O 87.3537 1.85957 -0.427147 0
M  V30 933 C 84.4937 3.23004 -1.215 0
M  V30 934 C 83.6067 3.55864 -2.44918 0
M  V30 935 C 82.7417 4.82669 -2.21821 0
M  V30 936 C 81.7807 5.08351 -3.40948 0
M  V30 937 N 80.9177 6.26356 -3.17211 0
M  V30 938 H 85.7577 1.86455 -2.32462 0
M  V30 939 H 83.2947 0.911176 -1.15482 0
M  V30 940 H 85.2527 4.02331 -1.10389 0
M  V30 941 H 83.8827 3.21411 -0.29908 0
M  V30 942 H 82.9347 2.7129 -2.66657 0
M  V30 943 H 84.2467 3.70765 -3.33668 0
M  V30 944 H 83.4007 5.69962 -2.07914 0
M  V30 945 H 82.1397 4.69929 -1.30454 0
M  V30 946 H 81.1447 4.19522 -3.55361 0
M  V30 947 H 82.3697 5.22981 -4.33207 0
M  V30 948 H 80.3157 6.14917 -2.28502 0
M  V30 949 H 80.2327 6.41813 -3.99515 0
M  V30 950 H 81.5007 7.16506 -3.06984 0
M  V30 951 N 85.7298 1.2412 0.971189 0
M  V30 952 C 86.6598 1.05508 2.08304 0
M  V30 953 C 87.6408 -0.0308864 1.70072 0
M  V30 954 O 88.8258 0.135521 1.93727 0
M  V30 955 C 85.9558 0.655365 3.4106 0
M  V30 956 C 84.9098 1.68971 3.93234 0
M  V30 957 C 84.2358 1.14516 5.22293 0
M  V30 958 C 85.5358 3.08487 4.21465 0
M  V30 959 H 87.2298 1.98507 2.24132 0
M  V30 960 H 84.7758 0.955821 1.07704 0
M  V30 961 H 86.7288 0.51217 4.18276 0
M  V30 962 H 85.4528 -0.31032 3.25122 0
M  V30 963 H 84.1118 1.82106 3.18171 0
M  V30 964 H 83.7598 0.170189 5.02712 0
M  V30 965 H 83.4598 1.83635 5.58168 0
M  V30 966 H 84.9838 1.01401 6.02121 0
M  V30 967 H 86.3978 2.98601 4.89398 0
M  V30 968 H 84.7948 3.74926 4.68562 0
M  V30 969 H 85.8648 3.56787 3.28376 0
M  V30 970 N 87.2079 -1.17134 1.05439 0
M  V30 971 C 88.1549 -2.21235 0.657539 0
M  V30 972 C 89.1249 -1.62551 -0.341543 0
M  V30 973 O 90.3099 -1.89379 -0.232393 0
M  V30 974 C 87.4499 -3.45076 0.0410575 0
M  V30 975 C 86.5629 -4.18042 1.08927 0
M  V30 976 C 85.6979 -5.29376 0.439848 0
M  V30 977 C 84.7369 -5.94132 1.4722 0
M  V30 978 N 83.8739 -6.96975 0.846756 0
M  V30 979 H 88.7139 -2.54534 1.54972 0
M  V30 980 H 86.2509 -1.25028 0.775006 0
M  V30 981 H 88.2089 -4.15862 -0.33383 0
M  V30 982 H 86.8389 -3.12353 -0.814568 0
M  V30 983 H 85.8909 -3.45945 1.58196 0
M  V30 984 H 87.2029 -4.62306 1.87282 0
M  V30 985 H 86.3569 -6.06699 0.0115125 0
M  V30 986 H 85.0959 -4.86251 -0.375656 0
M  V30 987 H 84.1009 -5.15538 1.91052 0
M  V30 988 H 85.3259 -6.39337 2.28965 0
M  V30 989 H 83.2719 -6.5598 0.0518075 0
M  V30 990 H 83.1889 -7.39565 1.5678 0
M  V30 991 H 84.4569 -7.78239 0.443277 0
M  V30 992 N 88.686 -0.835752 -1.33615 0
M  V30 993 C 90.102 -0.523139 -1.50783 0
M  V30 994 C 90.302 0.950171 -1.77691 0
M  V30 995 O 89.358 1.73411 -1.83534 0
M  V30 996 C 90.671 -1.39378 -2.66448 0
M  V30 997 C 92.219 -1.39223 -2.80332 0
M  V30 998 C 92.694 -2.24765 -3.99055 0
M  V30 999 N 94.185 -2.22458 -4.06284 0
M  V30 1000 C 94.92 -2.85386 -4.97336 0
M  V30 1001 N 94.416 -3.57354 -5.93523 0
M  V30 1002 N 96.209 -2.74872 -4.90308 0
M  V30 1003 H 88.36 -1.78952 -1.14411 0
M  V30 1004 H 90.623 -0.763297 -0.562212 0
M  V30 1005 H 90.329 -2.44061 -2.53234 0
M  V30 1006 H 90.203 -1.0676 -3.61776 0
M  V30 1007 H 92.59 -0.353136 -2.92979 0
M  V30 1008 H 92.671 -1.75846 -1.85773 0
M  V30 1009 H 92.315 -3.28732 -3.87167 0
M  V30 1010 H 92.245 -1.85485 -4.92852 0
M  V30 1011 H 94.736 -1.70119 -3.37443 0
M  V30 1012 H 95.049 -4.02584 -6.59656 0
M  V30 1013 H 93.394 -3.61461 -5.93608 0
M  V30 1014 H 96.585 -2.18213 -4.14126 0
M  V30 1015 H 96.758 -3.24199 -5.61069 0
M  V30 1016 N 90.1641 1.46063 -0.591896 0
M  V30 1017 C 91.5801 1.57561 -0.254288 0
M  V30 1018 C 91.7801 1.58565 1.24336 0
M  V30 1019 O 90.8361 1.50753 2.02558 0
M  V30 1020 C 92.1491 2.86549 -0.911611 0
M  V30 1021 C 93.6971 3.00197 -0.886059 0
M  V30 1022 C 94.1721 4.31933 -1.5231 0
M  V30 1023 N 95.6631 4.38654 -1.48786 0
M  V30 1024 C 96.3981 5.39222 -1.95006 0
M  V30 1025 N 95.8941 6.46414 -2.49241 0
M  V30 1026 N 97.6871 5.3048 -1.85868 0
M  V30 1027 H 89.8381 1.43655 -1.56451 0
M  V30 1028 H 92.1011 0.68583 -0.654478 0
M  V30 1029 H 91.8071 2.91651 -1.96551 0
M  V30 1030 H 91.6811 3.74794 -0.425368 0
M  V30 1031 H 94.0681 2.9467 0.159246 0
M  V30 1032 H 94.1491 2.13403 -1.41041 0
M  V30 1033 H 93.7931 4.38217 -2.56765 0
M  V30 1034 H 93.7231 5.17516 -0.973891 0
M  V30 1035 H 96.2141 3.61793 -1.09151 0
M  V30 1036 H 96.5271 7.19376 -2.82344 0
M  V30 1037 H 94.8721 6.47208 -2.53272 0
M  V30 1038 H 98.0631 4.45643 -1.43248 0
M  V30 1039 H 98.2361 6.08711 -2.22204 0
M  V30 1040 N 91.6422 0.330177 1.54103 0
M  V30 1041 C 92.8892 -0.270405 2.00686 0
M  V30 1042 C 93.2172 -1.51621 1.21825 0
M  V30 1043 O 92.4722 -1.93536 0.29025 0
M  V30 1044 C 92.7712 -0.643134 3.51566 0
M  V30 1045 C 92.4372 0.504251 4.48072 0
M  V30 1046 C 91.0992 0.819163 4.74176 0
M  V30 1047 C 93.4512 1.27465 5.05373 0
M  V30 1048 C 90.7792 1.90708 5.5484 0
M  V30 1049 C 93.1312 2.35271 5.87223 0
M  V30 1050 C 91.7952 2.67336 6.11627 0
M  V30 1051 H 91.0652 -0.0989482 0.734364 0
M  V30 1052 H 93.7122 0.455324 1.86008 0
M  V30 1053 H 92.0172 -1.44938 3.64006 0
M  V30 1054 H 93.7142 -1.11949 3.85056 0
M  V30 1055 H 90.3042 0.248733 4.27878 0
M  V30 1056 H 94.4882 1.04462 4.85182 0
M  V30 1057 H 89.7442 2.15991 5.71977 0
M  V30 1058 H 93.9182 2.95405 6.30641 0
M  V30 1059 H 91.5452 3.51763 6.73919 0
M  V30 1060 N 93.1203 -1.57491 0.0584922 0
M  V30 1061 C 94.0503 -2.14988 -0.911178 0
M  V30 1062 C 95.0313 -1.07343 -1.31952 0
M  V30 1063 O 96.2163 -1.35318 -1.39294 0
M  V30 1064 C 93.3463 -2.70078 -2.18347 0
M  V30 1065 C 92.3003 -3.82771 -1.91495 0
M  V30 1066 C 91.6263 -4.24408 -3.25241 0
M  V30 1067 C 92.9263 -5.07592 -1.23075 0
M  V30 1068 H 94.6203 -2.96263 -0.432246 0
M  V30 1069 H 92.1663 -1.42512 -0.206469 0
M  V30 1070 H 94.1193 -3.08943 -2.86587 0
M  V30 1071 H 92.8433 -1.86005 -2.68458 0
M  V30 1072 H 91.5023 -3.44389 -1.25664 0
M  V30 1073 H 91.1503 -3.37275 -3.73168 0
M  V30 1074 H 90.8503 -5.00366 -3.08071 0
M  V30 1075 H 92.3743 -4.65879 -3.94701 0
M  V30 1076 H 93.7883 -5.43857 -1.81362 0
M  V30 1077 H 92.1853 -5.88741 -1.16207 0
M  V30 1078 H 93.2553 -4.84454 -0.207847 0
M  V30 1079 N 94.5984 0.214957 -1.56127 0
M  V30 1080 C 95.5084 1.28727 -1.96129 0
M  V30 1081 C 96.5244 1.50916 -0.866044 0
M  V30 1082 O 97.7004 1.63918 -1.17016 0
M  V30 1083 C 94.7654 2.61569 -2.27558 0
M  V30 1084 C 93.8264 2.47625 -3.50685 0
M  V30 1085 C 93.0594 3.74132 -3.80606 0
M  V30 1086 O 93.2824 4.77438 -3.12104 0
M  V30 1087 O 92.2164 3.70849 -4.74083 0
M  V30 1088 H 96.0424 0.977855 -2.87527 0
M  V30 1089 H 93.6274 0.418358 -1.43423 0
M  V30 1090 H 95.5094 3.40012 -2.48938 0
M  V30 1091 H 94.1844 2.92178 -1.39332 0
M  V30 1092 H 93.0914 1.67361 -3.34576 0
M  V30 1093 H 94.4244 2.21954 -4.39315 0
M  V30 1094 N 96.0765 1.50051 0.48192 0
M  V30 1095 C 96.9865 1.7089 1.60728 0
M  V30 1096 C 98.0025 0.591788 1.63627 0
M  V30 1097 O 99.1785 0.868817 1.81696 0
M  V30 1098 C 96.2435 1.78855 2.97005 0
M  V30 1099 C 95.3045 3.02537 3.04581 0
M  V30 1100 C 94.5375 3.10112 4.34357 0
M  V30 1101 O 94.7605 2.24765 5.24249 0
M  V30 1102 O 93.6945 4.02747 4.47301 0
M  V30 1103 H 97.5205 2.66264 1.46072 0
M  V30 1104 H 95.1055 1.34018 0.660264 0
M  V30 1105 H 96.9875 1.86336 3.77964 0
M  V30 1106 H 95.6625 0.866628 3.11883 0
M  V30 1107 H 94.5695 3.00563 2.22739 0
M  V30 1108 H 95.9025 3.94272 2.94636 0
M  V30 1109 N 97.5546 -0.734337 1.39446 0
M  V30 1110 C 98.5046 -1.83949 1.34709 0
M  V30 1111 C 99.4886 -1.59279 0.227851 0
M  V30 1112 O 100.681 -1.70771 0.465438 0
M  V30 1113 C 97.8096 -3.21884 1.19356 0
M  V30 1114 C 96.8956 -3.52381 2.35984 0
M  V30 1115 N 97.2866 -3.53811 3.61457 0
M  V30 1116 C 95.5846 -3.82747 2.28956 0
M  V30 1117 C 96.2856 -3.82122 4.38586 0
M  V30 1118 N 95.2616 -3.9993 3.68181 0
M  V30 1119 H 99.0636 -1.83361 2.29687 0
M  V30 1120 H 96.5776 -0.932609 1.32952 0
M  V30 1121 H 98.5746 -4.00998 1.14046 0
M  V30 1122 H 97.2346 -3.23711 0.253295 0
M  V30 1123 H 98.2456 -3.35107 3.94872 0
M  V30 1124 H 94.9226 -3.92175 1.43194 0
M  V30 1125 H 96.3126 -3.89691 5.47349 0
M  V30 1126 N 99.0327 -1.24633 -0.964593 0
M  V30 1127 C 99.9427 -1.05859 -2.09359 0
M  V30 1128 C 100.959 0.00148855 -1.74 0
M  V30 1129 O 102.135 -0.197346 -2.00431 0
M  V30 1130 C 99.1997 -0.668879 -3.40187 0
M  V30 1131 C 98.2607 -1.80578 -3.89474 0
M  V30 1132 C 97.4937 -1.43457 -5.14058 0
M  V30 1133 O 97.7167 -0.325775 -5.69469 0
M  V30 1134 O 96.6507 -2.2613 -5.57807 0
M  V30 1135 H 100.477 -2.00516 -2.28094 0
M  V30 1136 H 98.0617 -1.03481 -1.0776 0
M  V30 1137 H 99.9437 -0.463211 -4.18846 0
M  V30 1138 H 98.6187 0.248536 -3.22744 0
M  V30 1139 H 97.5257 -2.06623 -3.11862 0
M  V30 1140 H 98.8587 -2.70208 -4.11398 0
M  V30 1141 N 100.511 1.16574 -1.06058 0
M  V30 1142 C 101.751 1.88723 -0.78504 0
M  V30 1143 C 102.115 1.79706 0.676006 0
M  V30 1144 O 103.316 2.46757 1.06603 0
M  V30 1145 C 101.587 3.34338 -1.26304 0
M  V30 1146 S 103.146 4.24366 -1.1162 0
M  V30 1147 H 99.9638 0.651448 -0.284846 0
M  V30 1148 H 102.566 1.40732 -1.35701 0
M  V30 1149 H 101.27 3.38439 -2.32136 0
M  V30 1150 H 100.801 3.87378 -0.685719 0
M  V30 1151 H 102.816 4.96179 -0.0456539 0
M  V30 1152 N 101.989 0.842826 1.3317 0
M  V30 1153 C 102.919 0.294028 2.31641 0
M  V30 1154 C 103.9 -0.600401 1.59151 0
M  V30 1155 O 105.085 -0.523124 1.87022 0
M  V30 1156 C 102.215 -0.528416 3.43257 0
M  V30 1157 C 101.169 0.27056 4.27144 0
M  V30 1158 C 100.495 -0.675881 5.30411 0
M  V30 1159 C 101.795 1.48981 5.00602 0
M  V30 1160 H 103.489 1.11681 2.77791 0
M  V30 1161 H 101.035 0.538478 1.33553 0
M  V30 1162 H 102.988 -0.922674 4.11175 0
M  V30 1163 H 101.712 -1.38445 2.95805 0
M  V30 1164 H 100.371 0.646427 3.60856 0
M  V30 1165 H 100.019 -1.52842 4.79216 0
M  V30 1166 H 99.7189 -0.145374 5.8742 0
M  V30 1167 H 101.243 -1.06757 6.01195 0
M  V30 1168 H 102.657 1.16849 5.61266 0
M  V30 1169 H 101.054 1.95739 5.6728 0
M  V30 1170 H 102.124 2.25746 4.29147 0
M  V30 1171 N 103.467 -1.45747 0.599634 0
M  V30 1172 C 104.692 -2.07178 0.0960198 0
M  V30 1173 C 105.117 -1.44268 -1.207 0
M  V30 1174 O 104.475 -0.532503 -1.73303 0
M  V30 1175 C 104.523 -3.60579 -0.0385348 0
M  V30 1176 O 103.627 -3.97713 -1.0908 0
M  V30 1177 H 102.968 -0.660251 0.0704593 0
M  V30 1178 H 105.498 -1.87124 0.827385 0
M  V30 1179 H 105.508 -4.07298 -0.239304 0
M  V30 1180 H 104.183 -4.05756 0.912947 0
M  V30 1181 H 102.76 -3.62678 -0.867135 0
M  V30 1182 N 104.945 -0.338344 -1.53925 0
M  V30 1183 C 105.855 0.529421 -2.28548 0
M  V30 1184 C 106.871 1.11645 -1.3346 0
M  V30 1185 O 108.047 1.13325 -1.66492 0
M  V30 1186 C 105.112 1.66713 -3.03987 0
M  V30 1187 C 104.173 1.11041 -4.14691 0
M  V30 1188 C 103.406 2.19389 -4.86522 0
M  V30 1189 O 103.629 3.40013 -4.57982 0
M  V30 1190 O 102.563 1.83976 -5.73094 0
M  V30 1191 H 106.389 -0.0770399 -3.03602 0
M  V30 1192 H 103.974 -0.103555 -1.49041 0
M  V30 1193 H 105.856 2.32918 -3.5118 0
M  V30 1194 H 104.531 2.25949 -2.31794 0
M  V30 1195 H 103.438 0.413024 -3.71813 0
M  V30 1196 H 104.771 0.562975 -4.8897 0
M  V30 1197 N 106.423 1.57458 -0.0668435 0
M  V30 1198 C 107.355 2.09413 0.931601 0
M  V30 1199 C 108.368 1.02522 1.26464 0
M  V30 1200 O 109.557 1.30049 1.22269 0
M  V30 1201 C 106.657 2.53537 2.24882 0
M  V30 1202 C 105.83 3.83944 2.09537 0
M  V30 1203 C 104.889 4.14214 3.2452 0
M  V30 1204 O 103.915 4.83891 2.9973 0
M  V30 1205 N 105.117 3.67367 4.49469 0
M  V30 1206 H 107.882 2.95699 0.488048 0
M  V30 1207 H 105.443 1.61462 0.119009 0
M  V30 1208 H 107.435 2.70853 3.00701 0
M  V30 1209 H 106.005 1.72415 2.60753 0
M  V30 1210 H 105.225 3.76057 1.18215 0
M  V30 1211 H 106.513 4.69312 1.96529 0
M  V30 1212 H 105.911 3.11068 4.72497 0
M  V30 1213 H 104.468 3.89891 5.2233 0
M  V30 1214 N 107.901 -0.206675 1.56239 0
M  V30 1215 C 108.833 -1.27997 1.9013 0
M  V30 1216 C 109.846 -1.42299 0.790883 0
M  V30 1217 O 111.035 -1.42931 1.06925 0
M  V30 1218 C 108.135 -2.65368 2.10792 0
M  V30 1219 C 107.308 -2.72824 3.41886 0
M  V30 1220 C 106.367 -3.9131 3.51799 0
M  V30 1221 O 105.393 -3.78953 4.24716 0
M  V30 1222 N 106.595 -5.06265 2.84035 0
M  V30 1223 H 109.36 -0.992444 2.82791 0
M  V30 1224 H 106.921 -0.396652 1.56966 0
M  V30 1225 H 108.913 -3.43039 2.14724 0
M  V30 1226 H 107.483 -2.86657 1.24685 0
M  V30 1227 H 106.703 -1.81515 3.49923 0
M  V30 1228 H 107.991 -2.74786 4.28217 0
M  V30 1229 H 107.389 -5.19203 2.246 0
M  V30 1230 H 105.946 -5.81925 2.93609 0
M  V30 1231 N 109.379 -1.50304 -0.473955 0
M  V30 1232 C 110.309 -1.71886 -1.58042 0
M  V30 1233 C 111.29 -0.567799 -1.60344 0
M  V30 1234 O 112.475 -0.806623 -1.76656 0
M  V30 1235 C 109.605 -1.81036 -2.96384 0
M  V30 1236 C 108.559 -2.962 -3.08949 0
M  V30 1237 C 107.885 -2.9049 -4.48909 0
M  V30 1238 C 109.185 -4.36752 -2.86434 0
M  V30 1239 H 110.879 -2.64527 -1.40234 0
M  V30 1240 H 108.425 -1.27295 -0.673201 0
M  V30 1241 H 110.378 -1.94719 -3.73714 0
M  V30 1242 H 109.102 -0.850147 -3.15341 0
M  V30 1243 H 107.761 -2.82164 -2.3405 0
M  V30 1244 H 107.409 -1.92321 -4.64781 0
M  V30 1245 H 107.109 -3.67802 -4.58253 0
M  V30 1246 H 108.633 -3.06218 -5.28264 0
M  V30 1247 H 110.047 -4.5133 -3.53517 0
M  V30 1248 H 108.444 -5.15493 -3.07225 0
M  V30 1249 H 109.514 -4.49321 -1.82316 0
M  V30 1250 N 110.857 0.726932 -1.39834 0
M  V30 1251 C 111.767 1.87131 -1.41489 0
M  V30 1252 C 112.783 1.71239 -0.308757 0
M  V30 1253 O 113.959 1.93701 -0.551529 0
M  V30 1254 C 111.024 3.22811 -1.26468 0
M  V30 1255 C 110.085 3.51039 -2.47124 0
M  V30 1256 C 109.318 4.80245 -2.3281 0
M  V30 1257 O 109.541 5.54537 -1.33585 0
M  V30 1258 O 108.475 5.08554 -3.21957 0
M  V30 1259 H 112.301 1.8869 -2.3797 0
M  V30 1260 H 109.886 0.875837 -1.21035 0
M  V30 1261 H 111.768 4.03877 -1.20255 0
M  V30 1262 H 110.443 3.22005 -0.330862 0
M  V30 1263 H 109.35 2.70027 -2.58914 0
M  V30 1264 H 110.683 3.56632 -3.39227 0
M  V30 1265 N 112.336 1.25143 0.95797 0
M  V30 1266 C 113.268 1.01023 2.05735 0
M  V30 1267 C 114.281 -0.0236902 1.62783 0
M  V30 1268 O 115.47 0.21448 1.77207 0
M  V30 1269 C 112.57 0.504595 3.35122 0
M  V30 1270 C 111.743 1.6039 4.06932 0
M  V30 1271 C 110.802 1.09922 5.14591 0
M  V30 1272 O 109.828 1.79293 5.40225 0
M  V30 1273 N 111.03 -0.0612545 5.80468 0
M  V30 1274 H 113.795 1.95683 2.26998 0
M  V30 1275 H 111.356 1.16303 1.12629 0
M  V30 1276 H 113.348 0.151516 4.04416 0
M  V30 1277 H 111.918 -0.347989 3.10657 0
M  V30 1278 H 111.138 2.12872 3.31782 0
M  V30 1279 H 112.426 2.34252 4.51667 0
M  V30 1280 H 111.824 -0.640985 5.62057 0
M  V30 1281 H 110.381 -0.355395 6.5083 0
M  V30 1282 N 113.814 -1.1601 1.06675 0
M  V30 1283 C 115.061 -1.86633 0.785781 0
M  V30 1284 C 115.389 -1.81929 -0.687896 0
M  V30 1285 O 114.644 -1.23253 -1.52011 0
M  V30 1286 C 114.943 -3.35547 1.23057 0
M  V30 1287 C 114.609 -3.60448 2.70902 0
M  V30 1288 C 113.271 -3.66954 3.11285 0
M  V30 1289 C 115.623 -3.7071 3.66365 0
M  V30 1290 C 112.951 -3.81225 4.45965 0
M  V30 1291 C 115.303 -3.86503 5.00797 0
M  V30 1292 C 113.967 -3.91252 5.40813 0
M  V30 1293 H 113.237 -0.682937 0.287538 0
M  V30 1294 H 115.884 -1.37146 1.33654 0
M  V30 1295 H 114.189 -3.87193 0.59907 0
M  V30 1296 H 115.886 -3.88583 0.990163 0
M  V30 1297 H 112.476 -3.56021 2.38636 0
M  V30 1298 H 116.66 -3.64991 3.36296 0
M  V30 1299 H 111.916 -3.83155 4.76447 0
M  V30 1300 H 116.09 -3.93385 5.74649 0
M  V30 1301 H 113.717 -4.02062 6.45174 0
M  V30 1302 N 115.292 -0.849877 -1.32721 0
M  V30 1303 C 116.222 -0.306308 -2.31482 0
M  V30 1304 C 117.203 0.591952 -1.59468 0
M  V30 1305 O 118.388 0.513199 -1.87296 0
M  V30 1306 C 115.518 0.510204 -3.43532 0
M  V30 1307 C 114.472 -0.293209 -4.26994 0
M  V30 1308 C 113.798 0.647743 -5.30762 0
M  V30 1309 C 115.098 -1.51634 -4.99804 0
M  V30 1310 H 116.792 -1.13153 -2.77195 0
M  V30 1311 H 114.338 -0.545553 -1.33266 0
M  V30 1312 H 116.291 0.900856 -4.11658 0
M  V30 1313 H 115.015 1.36874 -2.96535 0
M  V30 1314 H 113.674 -0.665555 -3.60508 0
M  V30 1315 H 113.322 1.50299 -4.8002 0
M  V30 1316 H 113.022 0.11422 -5.87489 0
M  V30 1317 H 114.546 1.03567 -6.01753 0
M  V30 1318 H 115.96 -1.19824 -5.60638 0
M  V30 1319 H 114.357 -1.98745 -5.66234 0
M  V30 1320 H 115.427 -2.28018 -4.27943 0
M  V30 1321 N 116.77 1.45427 -0.607355 0
M  V30 1322 C 118.018 2.01841 -0.102253 0
M  V30 1323 C 118.339 1.47832 1.27164 0
M  V30 1324 O 117.609 0.672497 1.83995 0
M  V30 1325 H 116.189 0.746188 -0.0348101 0
M  V30 1326 H 118.851 1.78229 -0.7887 0
M  V30 1327 H 117.947 3.12057 -0.0518585 0
M  V30 1328 N 118.248 0.346503 1.53744 0
M  V30 1329 C 119.664 -0.00530975 1.59599 0
M  V30 1330 C 119.864 -1.48465 1.36236 0
M  V30 1331 O 118.92 -2.24376 1.15808 0
M  V30 1332 C 120.233 0.433516 2.97559 0
M  V30 1333 C 121.781 0.386111 3.10609 0
M  V30 1334 C 122.256 0.800451 4.50951 0
M  V30 1335 N 123.747 0.754753 4.5701 0
M  V30 1336 C 124.482 1.04727 5.63755 0
M  V30 1337 N 123.978 1.4081 6.7834 0
M  V30 1338 N 125.771 0.971316 5.53644 0
M  V30 1339 H 117.922 1.31009 1.67184 0
M  V30 1340 H 120.185 0.534242 0.783128 0
M  V30 1341 H 119.891 1.46509 3.19731 0
M  V30 1342 H 119.765 -0.189753 3.76722 0
M  V30 1343 H 122.152 -0.636295 2.88158 0
M  V30 1344 H 122.233 1.04462 2.33498 0
M  V30 1345 H 121.877 1.82088 4.74137 0
M  V30 1346 H 121.807 0.119386 5.26465 0
M  V30 1347 H 124.298 0.488662 3.74727 0
M  V30 1348 H 124.611 1.61607 7.55714 0
M  V30 1349 H 122.956 1.44657 6.79779 0
M  V30 1350 H 126.147 0.688748 4.63005 0
M  V30 1351 H 126.32 1.20263 6.36742 0
M  V30 1352 N 119.726 -1.57421 0.075193 0
M  V30 1353 C 120.972 -1.93905 -0.594025 0
M  V30 1354 C 121.305 -0.955701 -1.69056 0
M  V30 1355 O 120.58 0.0145373 -1.94495 0
M  V30 1356 C 120.863 -3.40638 -1.1678 0
M  V30 1357 C 120.716 -4.49733 -0.0776792 0
M  V30 1358 C 122.035 -3.88259 -2.07228 0
M  V30 1359 H 119.154 -0.705105 -0.214466 0
M  V30 1360 H 121.796 -1.8947 0.141854 0
M  V30 1361 H 119.946 -3.44549 -1.79494 0
M  V30 1362 H 121.618 -4.57942 0.555573 0
M  V30 1363 H 119.861 -4.29751 0.591286 0
M  V30 1364 H 120.532 -5.49549 -0.519603 0
M  V30 1365 H 123.008 -3.86376 -1.54445 0
M  V30 1366 H 121.884 -4.91533 -2.44308 0
M  V30 1367 H 122.145 -3.26396 -2.98191 0
M  V30 1368 N 121.204 0.198386 -1.56346 0
M  V30 1369 C 122.134 1.24865 -1.9731 0
M  V30 1370 C 123.115 1.47651 -0.844576 0
M  V30 1371 O 124.3 1.59444 -1.10866 0
M  V30 1372 C 121.43 2.59358 -2.30977 0
M  V30 1373 C 120.384 2.5119 -3.46537 0
M  V30 1374 C 119.71 3.89926 -3.65871 0
M  V30 1375 C 121.01 2.03977 -4.80823 0
M  V30 1376 H 122.704 0.908252 -2.85291 0
M  V30 1377 H 120.25 0.435462 -1.37258 0
M  V30 1378 H 122.203 3.33011 -2.58228 0
M  V30 1379 H 120.927 2.95132 -1.39874 0
M  V30 1380 H 119.586 1.79993 -3.19371 0
M  V30 1381 H 119.234 4.23046 -2.72105 0
M  V30 1382 H 118.934 3.85336 -4.4361 0
M  V30 1383 H 120.458 4.65205 -3.95495 0
M  V30 1384 H 121.872 2.67386 -5.07127 0
M  V30 1385 H 120.269 2.10397 -5.62008 0
M  V30 1386 H 121.339 0.992861 -4.74626 0
M  V30 1387 N 122.682 1.50554 0.465978 0
M  V30 1388 C 123.592 1.72585 1.58907 0
M  V30 1389 C 124.608 0.60911 1.6299 0
M  V30 1390 O 125.784 0.88804 1.80765 0
M  V30 1391 C 122.849 1.81995 2.95091 0
M  V30 1392 C 121.91 3.05751 3.01355 0
M  V30 1393 C 121.143 3.14702 4.31043 0
M  V30 1394 O 121.366 2.30313 5.21835 0
M  V30 1395 O 120.3 4.07468 4.43005 0
M  V30 1396 H 124.126 2.67799 1.43239 0
M  V30 1397 H 121.711 1.34711 0.646013 0
M  V30 1398 H 123.593 1.90335 3.75966 0
M  V30 1399 H 122.268 0.899659 3.10947 0
M  V30 1400 H 121.175 3.02908 2.19539 0
M  V30 1401 H 122.508 3.97375 2.90437 0
M  V30 1402 N 124.16 -0.719506 1.40217 0
M  V30 1403 C 125.123 -1.8153 1.39927 0
M  V30 1404 C 126.123 -1.58095 0.293723 0
M  V30 1405 O 127.313 -1.65209 0.552429 0
M  V30 1406 C 124.445 -3.19561 1.18716 0
M  V30 1407 H 125.638 -1.83186 2.37451 0
M  V30 1408 H 123.191 -0.924746 1.26008 0
M  V30 1409 H 123.926 -3.23557 0.219366 0
M  V30 1410 H 123.711 -3.3797 1.98793 0
M  V30 1411 H 125.201 -3.99598 1.21291 0
M  V30 1412 N 125.638 -1.25649 -0.95132 0
M  V30 1413 C 126.863 -1.13443 -1.73624 0
M  V30 1414 C 127.288 0.307565 -1.85568 0
M  V30 1415 O 126.646 1.22282 -1.33854 0
M  V30 1416 C 126.694 -1.79723 -3.12621 0
M  V30 1417 O 125.798 -1.07912 -3.98031 0
M  V30 1418 H 125.139 -0.395872 -0.533086 0
M  V30 1419 H 127.669 -1.66276 -1.1922 0
M  V30 1420 H 127.679 -1.86141 -3.63064 0
M  V30 1421 H 126.354 -2.84633 -3.03244 0
M  V30 1422 H 124.931 -1.09398 -3.56492 0
M  V30 1423 N 127.117 1.15442 -1.07289 0
M  V30 1424 C 128.065 2.22225 -0.686952 0
M  V30 1425 C 129.059 1.66688 0.30193 0
M  V30 1426 O 130.265 1.79236 0.165712 0
M  V30 1427 H 126.64 0.723783 -0.204064 0
M  V30 1428 H 128.611 2.52056 -1.5972 0
M  V30 1429 C 127.36 3.47556 -0.100149 0
M  V30 1430 H 126.683 3.90612 -0.852211 0
M  V30 1431 H 128.123 4.23794 0.132235 0
M  V30 1432 C 126.582 3.16337 1.159 0
M  V30 1433 O 127.112 3.33074 2.24555 0
M  V30 1434 N 125.318 2.70385 1.06491 0
M  V30 1435 H 124.865 2.56966 0.180668 0
M  V30 1436 H 124.823 2.49871 1.90819 0
M  V30 1437 N 128.595 0.856903 1.32268 0
M  V30 1438 C 129.825 0.47475 2.01071 0
M  V30 1439 C 130.233 -0.933746 1.64553 0
M  V30 1440 O 129.576 -1.62114 0.863989 0
M  V30 1441 C 129.638 0.536746 3.55471 0
M  V30 1442 C 129.302 1.90453 4.15423 0
M  V30 1443 C 130.299 2.87029 4.33486 0
M  V30 1444 C 127.984 2.20229 4.51447 0
M  V30 1445 C 129.978 4.11532 4.86744 0
M  V30 1446 C 127.665 3.44984 5.0441 0
M  V30 1447 C 128.663 4.40452 5.22007 0
M  V30 1448 O 128.351 5.62998 5.73837 0
M  V30 1449 H 128.083 0.184778 0.650256 0
M  V30 1450 H 130.637 1.15615 1.69771 0
M  V30 1451 H 128.867 -0.20152 3.86175 0
M  V30 1452 H 130.556 0.169875 4.05544 0
M  V30 1453 H 131.322 2.6533 4.05986 0
M  V30 1454 H 127.201 1.46705 4.37034 0
M  V30 1455 H 130.745 4.86056 5.00395 0
M  V30 1456 H 126.642 3.66532 5.31342 0
M  V30 1457 H 127.41 5.64987 5.92226 0
M  V30 1458 N 130.073 -1.45103 0.615059 0
M  V30 1459 C 131.321 -2.01784 0.112955 0
M  V30 1460 C 131.642 -1.48504 -1.26378 0
M  V30 1461 O 130.912 -0.682245 -1.83636 0
M  V30 1462 H 129.492 -0.745993 0.0387668 0
M  V30 1463 H 132.154 -1.77808 0.798141 0
M  V30 1464 H 131.25 -3.12025 0.0684069 0
M  V30 1465 N 131.551 -0.354651 -1.53558 0
M  V30 1466 C 132.797 0.238797 -2.01389 0
M  V30 1467 C 133.13 1.49309 -1.2418 0
M  V30 1468 O 132.405 1.91638 -0.332457 0
M  V30 1469 C 132.688 0.541771 -3.56001 0
M  V30 1470 C 132.541 -0.725388 -4.43912 0
M  V30 1471 C 133.86 1.34685 -4.18984 0
M  V30 1472 H 130.979 0.0853177 -0.732045 0
M  V30 1473 H 133.621 -0.477384 -1.83905 0
M  V30 1474 H 131.771 1.15189 -3.71031 0
M  V30 1475 H 133.443 -1.36313 -4.407 0
M  V30 1476 H 131.686 -1.34801 -4.12324 0
M  V30 1477 H 132.357 -0.468505 -5.50008 0
M  V30 1478 H 134.833 0.830837 -4.07721 0
M  V30 1479 H 133.709 1.52759 -5.27215 0
M  V30 1480 H 133.97 2.35221 -3.74331 0
M  V30 1481 N 133.029 1.57378 -0.0835403 0
M  V30 1482 C 134.254 1.98682 0.594987 0
M  V30 1483 C 134.679 0.961969 1.61641 0
M  V30 1484 O 134.037 -0.0709989 1.81161 0
M  V30 1485 C 134.085 3.38988 1.2296 0
M  V30 1486 O 133.189 3.39208 2.34546 0
M  V30 1487 H 132.53 0.646368 0.152002 0
M  V30 1488 H 135.06 2.03961 -0.161533 0
M  V30 1489 H 135.07 3.76431 1.57366 0
M  V30 1490 H 133.745 4.13107 0.481228 0
M  V30 1491 H 132.322 3.13548 2.01846 0
M  V30 1492 N 134.507 -0.190092 1.56449 0
M  V30 1493 C 135.753 -0.911052 1.81184 0
M  V30 1494 C 136.086 -1.82699 0.658396 0
M  V30 1495 O 135.361 -1.91491 -0.340775 0
M  V30 1496 C 135.644 -1.72297 3.16205 0
M  V30 1497 C 135.497 -0.831419 4.42049 0
M  V30 1498 C 136.816 -2.69454 3.47969 0
M  V30 1499 H 133.935 -0.32977 0.659106 0
M  V30 1500 H 136.577 -0.178169 1.89163 0
M  V30 1501 H 134.727 -2.34778 3.09534 0
M  V30 1502 H 136.399 -0.220929 4.60771 0
M  V30 1503 H 134.642 -0.138406 4.33579 0
M  V30 1504 H 135.313 -1.43461 5.33032 0
M  V30 1505 H 137.789 -2.17104 3.54972 0
M  V30 1506 H 136.665 -3.23342 4.43555 0
M  V30 1507 H 136.926 -3.48744 2.71717 0
M  V30 1508 N 135.985 -1.50799 -0.457987 0
M  V30 1509 C 136.915 -1.73553 -1.5621 0
M  V30 1510 C 137.896 -0.584774 -1.59732 0
M  V30 1511 O 139.081 -0.825314 -1.7579 0
M  V30 1512 C 136.211 -1.84169 -2.94447 0
M  V30 1513 C 135.165 -2.99461 -3.0579 0
M  V30 1514 C 134.491 -2.95235 -4.45803 0
M  V30 1515 C 135.791 -4.39766 -2.81786 0
M  V30 1516 H 137.485 -2.66 -1.37421 0
M  V30 1517 H 135.031 -1.28002 -0.659662 0
M  V30 1518 H 136.984 -1.98672 -3.71628 0
M  V30 1519 H 135.708 -0.883545 -3.14422 0
M  V30 1520 H 134.367 -2.8463 -2.31044 0
M  V30 1521 H 134.015 -1.97239 -4.62715 0
M  V30 1522 H 133.715 -3.72642 -4.54326 0
M  V30 1523 H 135.239 -3.11803 -5.24987 0
M  V30 1524 H 136.653 -4.55054 -3.4871 0
M  V30 1525 H 135.05 -5.18722 -3.0174 0
M  V30 1526 H 136.12 -4.51229 -1.7754 0
M  V30 1527 N 137.463 0.71206 -1.40597 0
M  V30 1528 C 138.688 1.50617 -1.42581 0
M  V30 1529 C 139.113 1.88079 -0.0282102 0
M  V30 1530 O 138.471 1.53511 0.964579 0
M  V30 1531 C 138.519 2.7557 -2.3258 0
M  V30 1532 O 137.623 3.72414 -1.77148 0
M  V30 1533 H 136.964 0.453966 -0.484573 0
M  V30 1534 H 139.494 0.876649 -1.84868 0
M  V30 1535 H 139.504 3.2406 -2.47889 0
M  V30 1536 H 138.179 2.47639 -3.34138 0
M  V30 1537 H 136.756 3.31276 -1.71204 0
M  V30 1538 N 138.941 1.26152 0.944643 0
M  V30 1539 C 139.889 1.07215 2.06417 0
M  V30 1540 C 140.883 9.2007e-05 1.694 0
M  V30 1541 O 142.089 0.1565 1.79318 0
M  V30 1542 H 138.464 0.329837 0.675805 0
M  V30 1543 H 140.435 2.02099 2.19541 0
M  V30 1544 C 139.184 0.718197 3.40202 0
M  V30 1545 H 138.507 1.53497 3.69159 0
M  V30 1546 H 139.947 0.625459 4.19361 0
M  V30 1547 C 138.406 -0.576435 3.31932 0
M  V30 1548 O 138.936 -1.61574 3.67773 0
M  V30 1549 N 137.142 -0.565781 2.85039 0
M  V30 1550 H 136.689 0.280367 2.5607 0
M  V30 1551 H 136.647 -1.43213 2.79888 0
M  V30 1552 N 140.419 -1.14872 1.07899 0
M  V30 1553 C 141.382 -2.17986 0.708161 0
M  V30 1554 C 142.382 -1.58775 -0.25442 0
M  V30 1555 O 143.572 -1.74166 -0.034645 0
M  V30 1556 C 140.704 -3.40871 0.0446929 0
M  V30 1557 H 141.897 -2.52306 1.62116 0
M  V30 1558 H 139.45 -1.2943 0.876218 0
M  V30 1559 H 140.185 -3.12124 -0.880281 0
M  V30 1560 H 139.97 -3.8511 0.737091 0
M  V30 1561 H 141.46 -4.17121 -0.19991 0
M  V30 1562 N 141.898 -0.863906 -1.31812 0
M  V30 1563 C 143.123 -0.48527 -2.01643 0
M  V30 1564 C 143.548 0.913058 -1.64453 0
M  V30 1565 O 142.906 1.6014 -0.849985 0
M  V30 1566 C 142.954 -0.642625 -3.54828 0
M  V30 1567 O 142.058 0.320659 -4.11151 0
M  V30 1568 H 141.399 -0.193793 -0.635091 0
M  V30 1569 H 143.929 -1.16565 -1.68148 0
M  V30 1570 H 143.939 -0.533628 -4.04495 0
M  V30 1571 H 142.614 -1.66227 -3.81237 0
M  V30 1572 H 141.191 0.167126 -3.72525 0
M  V30 1573 N 143.376 1.44774 -0.622745 0
M  V30 1574 C 144.624 2.01721 -0.123655 0
M  V30 1575 C 144.945 1.49172 1.25589 0
M  V30 1576 O 144.215 0.691974 1.83272 0
M  V30 1577 H 142.795 0.745777 -0.0427225 0
M  V30 1578 H 145.457 1.77382 -0.807559 0
M  V30 1579 H 144.553 3.11984 -0.0849534 0
M  V30 1580 N 144.854 0.36279 1.53368 0
M  V30 1581 C 145.802 -0.500155 2.27159 0
M  V30 1582 C 146.796 -1.08575 1.3003 0
M  V30 1583 O 148.002 -1.02927 1.47668 0
M  V30 1584 H 144.377 -0.180009 0.730138 0
M  V30 1585 H 146.348 0.14401 2.98052 0
M  V30 1586 C 145.097 -1.62937 3.07159 0
M  V30 1587 H 144.42 -1.18806 3.8174 0
M  V30 1588 H 145.86 -2.20795 3.61975 0
M  V30 1589 C 144.319 -2.57007 2.17829 0
M  V30 1590 O 144.849 -3.59752 1.78721 0
M  V30 1591 N 143.055 -2.26131 1.82518 0
M  V30 1592 H 142.602 -1.42616 2.14519 0
M  V30 1593 H 142.56 -2.89327 1.23034 0
M  V30 1594 N 146.332 -1.57332 0.0918853 0
M  V30 1595 C 147.578 -1.95328 -0.567313 0
M  V30 1596 C 147.933 -0.972866 -1.65991 0
M  V30 1597 O 147.226 0.00166256 -1.916 0
M  V30 1598 C 147.42 -3.37689 -1.17051 0
M  V30 1599 C 147.249 -4.49489 -0.137875 0
M  V30 1600 C 146.019 -5.04498 0.284515 0
M  V30 1601 C 148.217 -5.10393 0.63271 0
M  V30 1602 N 146.199 -5.99853 1.30576 0
M  V30 1603 C 147.57 -6.01435 1.50587 0
M  V30 1604 C 149.625 -4.93143 0.68658 0
M  V30 1605 C 148.328 -6.77077 2.42815 0
M  V30 1606 C 150.354 -5.69445 1.59645 0
M  V30 1607 C 149.716 -6.60151 2.45725 0
M  V30 1608 H 145.815 -0.761467 -0.178023 0
M  V30 1609 H 148.399 -1.93924 0.173706 0
M  V30 1610 H 146.57 -3.39793 -1.88136 0
M  V30 1611 H 148.302 -3.62872 -1.79181 0
M  V30 1612 H 145.057 -4.73489 -0.102593 0
M  V30 1613 H 145.481 -6.52231 1.81449 0
M  V30 1614 H 150.123 -4.22785 0.035244 0
M  V30 1615 H 147.841 -7.46699 3.08975 0
M  V30 1616 H 151.427 -5.58112 1.64323 0
M  V30 1617 H 150.307 -7.18159 3.14987 0
M  V30 1618 N 147.81 0.181792 -1.56548 0
M  V30 1619 C 148.758 1.24461 -1.965 0
M  V30 1620 C 149.752 1.464 -0.852261 0
M  V30 1621 O 150.958 1.47103 -1.03733 0
M  V30 1622 H 147.333 0.418138 -0.625031 0
M  V30 1623 H 149.304 0.880714 -2.85107 0
M  V30 1624 C 148.053 2.57891 -2.33212 0
M  V30 1625 H 147.376 2.41829 -3.18369 0
M  V30 1626 H 148.816 3.3097 -2.65019 0
M  V30 1627 C 147.275 3.15871 -1.17163 0
M  V30 1628 O 147.805 3.9913 -0.453708 0
M  V30 1629 N 146.011 2.74808 -0.944936 0
M  V30 1630 H 145.558 2.07205 -1.53049 0
M  V30 1631 H 145.516 3.13939 -0.170286 0
M  V30 1632 N 149.288 1.51039 0.449983 0
M  V30 1633 C 150.534 1.64287 1.19923 0
M  V30 1634 C 150.889 0.348701 1.89214 0
M  V30 1635 O 150.182 -0.654751 1.80065 0
M  V30 1636 C 150.376 2.77556 2.25161 0
M  V30 1637 C 150.205 4.17862 1.66198 0
M  V30 1638 C 148.975 4.83976 1.45243 0
M  V30 1639 C 151.173 5.01388 1.14519 0
M  V30 1640 N 149.155 6.08433 0.817437 0
M  V30 1641 C 150.526 6.16743 0.634705 0
M  V30 1642 C 152.581 4.87008 1.03574 0
M  V30 1643 C 151.284 7.19295 0.0255452 0
M  V30 1644 C 153.31 5.89757 0.440489 0
M  V30 1645 C 152.672 7.04375 -0.0595112 0
M  V30 1646 H 148.771 0.655161 0.426952 0
M  V30 1647 H 151.355 1.88228 0.49781 0
M  V30 1648 H 149.526 2.553 2.92706 0
M  V30 1649 H 151.258 2.80049 2.92155 0
M  V30 1650 H 148.013 4.41627 1.71063 0
M  V30 1651 H 148.437 6.75017 0.517747 0
M  V30 1652 H 153.079 3.9866 1.4082 0
M  V30 1653 H 150.797 8.07302 -0.359071 0
M  V30 1654 H 154.383 5.80698 0.35788 0
M  V30 1655 H 153.263 7.82521 -0.512882 0
M  V30 1656 N 150.766 -0.704594 1.40972 0
M  V30 1657 C 152.043 -1.45847 1.30338 0
M  V30 1658 C 152.423 -2.10973 -0.0732344 0
M  V30 1659 O 151.771 -2.00997 -1.08685 0
M  V30 1660 C 151.981 -2.48525 2.45023 0
M  V30 1661 C 153.329 -3.1404 2.8577 0
M  V30 1662 O 154.353 -2.58848 2.44696 0
M  V30 1663 O 153.212 -4.13981 3.56766 0
M  V30 1664 H 150.306 -0.649092 0.512454 0
M  V30 1665 H 152.852 -0.735836 1.52917 0
M  V30 1666 H 151.624 -1.98994 3.36923 0
M  V30 1667 H 151.247 -3.2831 2.24272 0
M  V30 1668 N 152.244 -1.26651 -0.937939 0
M  V30 1669 C 153.491 -1.12387 -1.6845 0
M  V30 1670 C 153.819 0.332208 -1.91642 0
M  V30 1671 O 153.074 1.2602 -1.49725 0
M  V30 1672 C 153.373 -1.84168 -3.06295 0
M  V30 1673 C 153.039 -3.34056 -3.02849 0
M  V30 1674 C 151.701 -3.74942 -3.01616 0
M  V30 1675 C 154.053 -4.29741 -2.9491 0
M  V30 1676 C 151.381 -5.09894 -2.90215 0
M  V30 1677 C 153.733 -5.64738 -2.8505 0
M  V30 1678 C 152.397 -6.0493 -2.82162 0
M  V30 1679 H 151.667 -0.411252 -0.616403 0
M  V30 1680 H 154.314 -1.57134 -1.09459 0
M  V30 1681 H 152.619 -1.319 -3.6893 0
M  V30 1682 H 154.316 -1.70569 -3.62915 0
M  V30 1683 H 150.906 -3.01534 -3.0459 0
M  V30 1684 H 155.09 -3.99133 -2.94969 0
M  V30 1685 H 150.346 -5.40194 -2.86358 0
M  V30 1686 H 154.52 -6.38561 -2.77872 0
M  V30 1687 H 152.147 -7.09457 -2.73084 0
M  V30 1688 N 153.722 1.14298 -1.08507 0
M  V30 1689 C 154.95 1.89219 -0.836876 0
M  V30 1690 C 155.365 1.78638 0.611054 0
M  V30 1691 O 154.722 1.14643 1.41998 0
M  V30 1692 C 154.773 3.39158 -1.25116 0
M  V30 1693 O 154.494 3.49449 -2.64229 0
M  V30 1694 C 155.995 4.31073 -1.03398 0
M  V30 1695 H 153.215 0.599328 -0.301739 0
M  V30 1696 H 155.759 1.44746 -1.44461 0
M  V30 1697 H 153.914 3.81251 -0.687514 0
M  V30 1698 H 154.328 4.42589 -2.81452 0
M  V30 1699 H 155.802 5.34646 -1.37323 0
M  V30 1700 H 156.279 4.3919 0.0289259 0
M  V30 1701 H 156.885 3.94738 -1.58311 0
M  V30 1702 N 155.201 0.870884 1.31352 0
M  V30 1703 C 156.426 0.495957 2.01383 0
M  V30 1704 C 156.851 -0.904324 1.64935 0
M  V30 1705 O 156.209 -1.59687 0.858466 0
M  V30 1706 C 156.257 0.661433 3.54482 0
M  V30 1707 O 155.361 -0.298851 4.11316 0
M  V30 1708 H 154.702 0.197158 0.634054 0
M  V30 1709 H 157.232 1.17455 1.67527 0
M  V30 1710 H 157.242 0.555072 4.04207 0
M  V30 1711 H 155.917 1.68246 3.8035 0
M  V30 1712 H 154.494 -0.147368 3.72609 0
M  V30 1713 N 156.679 -1.44442 0.630414 0
M  V30 1714 C 157.642 -2.29107 -0.0652523 0
M  V30 1715 C 158.642 -1.41002 -0.772995 0
M  V30 1716 O 159.832 -1.62881 -0.617692 0
M  V30 1717 C 156.964 -3.22564 -1.10296 0
M  V30 1718 H 158.157 -2.92103 0.679401 0
M  V30 1719 H 155.71 -1.51343 0.390517 0
M  V30 1720 H 156.445 -2.64416 -1.87762 0
M  V30 1721 H 156.23 -3.87491 -0.59941 0
M  V30 1722 H 157.72 -3.86167 -1.5895 0
M  V30 1723 N 158.157 -0.370918 -1.53173 0
M  V30 1724 C 159.087 0.464847 -2.28826 0
M  V30 1725 C 160.068 1.07936 -1.31468 0
M  V30 1726 O 161.253 1.0956 -1.60344 0
M  V30 1727 C 158.383 1.60196 -3.08147 0
M  V30 1728 C 157.337 1.11443 -4.13237 0
M  V30 1729 C 156.663 2.3422 -4.80672 0
M  V30 1730 C 157.963 0.195384 -5.21934 0
M  V30 1731 H 159.657 -0.166329 -2.98938 0
M  V30 1732 H 157.203 -0.0814359 -1.4377 0
M  V30 1733 H 159.156 2.19332 -3.59822 0
M  V30 1734 H 157.88 2.26045 -2.35735 0
M  V30 1735 H 156.539 0.545727 -3.62515 0
M  V30 1736 H 156.187 2.98537 -4.04827 0
M  V30 1737 H 155.887 2.02269 -5.51689 0
M  V30 1738 H 157.411 2.94032 -5.35143 0
M  V30 1739 H 158.825 0.694375 -5.69079 0
M  V30 1740 H 157.222 -0.0335027 -6.00091 0
M  V30 1741 H 158.292 -0.760961 -4.78892 0
M  V30 1742 N 159.635 1.57281 -0.100228 0
M  V30 1743 C 160.882 1.94537 0.562268 0
M  V30 1744 C 161.21 0.982315 1.67871 0
M  V30 1745 O 160.465 0.00280936 1.957 0
M  V30 1746 C 160.764 3.38305 1.15259 0
M  V30 1747 C 160.43 4.50618 0.159409 0
M  V30 1748 C 159.092 4.81066 -0.113741 0
M  V30 1749 C 161.444 5.18615 -0.518461 0
M  V30 1750 C 158.772 5.76835 -1.07137 0
M  V30 1751 C 161.124 6.15412 -1.46459 0
M  V30 1752 C 159.788 6.44262 -1.74592 0
M  V30 1753 H 159.058 0.711863 0.205748 0
M  V30 1754 H 161.705 1.90679 -0.17715 0
M  V30 1755 H 160.01 3.38766 1.96836 0
M  V30 1756 H 161.707 3.64435 1.67297 0
M  V30 1757 H 158.297 4.2689 0.382491 0
M  V30 1758 H 162.481 4.95264 -0.320581 0
M  V30 1759 H 157.737 5.975 -1.29628 0
M  V30 1760 H 161.911 6.67194 -1.99564 0
M  V30 1761 H 159.538 7.1828 -2.48953 0
M  V30 1762 N 161.113 -0.173488 1.56642 0
M  V30 1763 C 162.36 -0.890465 1.81871 0
M  V30 1764 C 162.688 -1.82339 0.67696 0
M  V30 1765 O 161.943 -1.92795 -0.335926 0
M  V30 1766 C 162.242 -1.72069 3.13252 0
M  V30 1767 C 161.908 -0.936878 4.41059 0
M  V30 1768 C 160.57 -0.720545 4.75775 0
M  V30 1769 C 162.922 -0.386919 5.19762 0
M  V30 1770 C 160.25 0.0568829 5.86672 0
M  V30 1771 C 162.602 0.37741 6.31473 0
M  V30 1772 C 161.266 0.604563 6.64757 0
M  V30 1773 H 160.536 -0.325844 0.665512 0
M  V30 1774 H 163.183 -0.155527 1.90867 0
M  V30 1775 H 161.488 -2.52496 2.99588 0
M  V30 1776 H 163.185 -2.27844 3.29982 0
M  V30 1777 H 159.775 -1.11553 4.13828 0
M  V30 1778 H 163.959 -0.541398 4.93338 0
M  V30 1779 H 159.215 0.242635 6.10918 0
M  V30 1780 H 163.389 0.810825 6.91664 0
M  V30 1781 H 161.016 1.20885 7.50527 0
M  V30 1782 N 162.591 -1.51276 -0.441967 0
M  V30 1783 C 163.554 -1.7167 -1.51862 0
M  V30 1784 C 164.554 -0.586793 -1.49711 0
M  V30 1785 O 165.744 -0.854276 -1.51815 0
M  V30 1786 C 162.876 -1.76889 -2.91416 0
M  V30 1787 H 164.069 -2.67754 -1.35084 0
M  V30 1788 H 161.622 -1.41196 -0.670333 0
M  V30 1789 H 162.357 -0.826026 -3.13604 0
M  V30 1790 H 162.142 -2.59001 -2.94382 0
M  V30 1791 H 163.632 -1.94522 -3.69528 0
M  V30 1792 N 164.069 0.697108 -1.41344 0
M  V30 1793 C 165.294 1.49096 -1.44171 0
M  V30 1794 C 165.719 1.88038 -0.0481568 0
M  V30 1795 O 165.077 1.54525 0.948243 0
M  V30 1796 C 165.125 2.73088 -2.3549 0
M  V30 1797 O 164.229 3.70514 -1.81088 0
M  V30 1798 H 163.57 0.448801 -0.489361 0
M  V30 1799 H 166.1 0.856992 -1.85787 0
M  V30 1800 H 166.11 3.21413 -2.51312 0
M  V30 1801 H 164.785 2.44081 -3.36745 0
M  V30 1802 H 163.362 3.29441 -1.74708 0
M  V30 1803 N 165.547 1.27147 0.931209 0
M  V30 1804 C 166.775 1.16082 1.71267 0
M  V30 1805 C 167.19 -0.282772 1.8667 0
M  V30 1806 O 166.547 -1.19283 1.38122 0
M  V30 1807 C 166.598 1.8358 3.11417 0
M  V30 1808 O 166.319 3.22299 2.96741 0
M  V30 1809 C 167.82 1.78597 4.05732 0
M  V30 1810 H 165.04 0.403758 0.535929 0
M  V30 1811 H 167.584 1.67953 1.16671 0
M  V30 1812 H 165.739 1.35623 3.62885 0
M  V30 1813 H 166.153 3.55851 3.85319 0
M  V30 1814 H 167.627 2.30444 5.01597 0
M  V30 1815 H 168.104 0.754564 4.3267 0
M  V30 1816 H 168.71 2.26152 3.60188 0
M  V30 1817 N 167.025 -1.13721 1.09112 0
M  V30 1818 C 168.271 -1.85198 0.826414 0
M  V30 1819 C 168.604 -1.83129 -0.646319 0
M  V30 1820 O 167.879 -1.2671 -1.47563 0
M  V30 1821 C 168.162 -3.33507 1.35812 0
M  V30 1822 C 168.015 -3.44108 2.89672 0
M  V30 1823 C 169.334 -4.28838 0.989256 0
M  V30 1824 H 166.453 -0.67243 0.301675 0
M  V30 1825 H 169.095 -1.33499 1.35197 0
M  V30 1826 H 167.245 -3.77666 0.911082 0
M  V30 1827 H 168.917 -3.08684 3.428 0
M  V30 1828 H 167.16 -2.85087 3.26967 0
M  V30 1829 H 167.831 -4.48388 3.21951 0
M  V30 1830 H 170.307 -3.92734 1.37475 0
M  V30 1831 H 169.183 -5.31051 1.38838 0
M  V30 1832 H 169.444 -4.4198 -0.102924 0
M  V30 1833 N 168.503 -0.877838 -1.30888 0
M  V30 1834 C 169.433 -0.35534 -2.3078 0
M  V30 1835 C 170.414 0.557994 -1.60687 0
M  V30 1836 O 171.599 0.473355 -1.88343 0
M  V30 1837 C 168.729 0.437221 -3.44537 0
M  V30 1838 C 167.683 -0.383715 -4.26276 0
M  V30 1839 C 167.009 0.535014 -5.32017 0
M  V30 1840 C 168.309 -1.62201 -4.96476 0
M  V30 1841 H 170.003 -1.19007 -2.74732 0
M  V30 1842 H 167.549 -0.573698 -1.32078 0
M  V30 1843 H 169.502 0.813334 -4.13477 0
M  V30 1844 H 168.226 1.30553 -2.99372 0
M  V30 1845 H 166.885 -0.741874 -3.59015 0
M  V30 1846 H 166.533 1.40083 -4.831 0
M  V30 1847 H 166.233 -0.0104211 -5.87599 0
M  V30 1848 H 167.757 0.907799 -6.03814 0
M  V30 1849 H 169.171 -1.31689 -5.5797 0
M  V30 1850 H 167.568 -2.10711 -5.61891 0
M  V30 1851 H 168.638 -2.37044 -4.23011 0
M  V30 1852 N 169.982 1.44106 -0.638065 0
M  V30 1853 C 171.207 2.0685 -0.150916 0
M  V30 1854 C 171.632 1.47417 1.16833 0
M  V30 1855 O 170.99 0.578264 1.71831 0
M  V30 1856 C 171.038 3.60555 -0.05708 0
M  V30 1857 O 170.142 4.00465 0.984972 0
M  V30 1858 H 169.483 0.658151 -0.0879399 0
M  V30 1859 H 172.013 1.84865 -0.876707 0
M  V30 1860 H 172.023 4.07789 0.131232 0
M  V30 1861 H 170.698 4.03193 -1.02021 0
M  V30 1862 H 169.275 3.64849 0.770672 0
M  V30 1863 N 171.46 0.379036 1.52974 0
M  V30 1864 C 172.688 -0.20679 2.05864 0
M  V30 1865 C 173.103 -1.41356 1.25155 0
M  V30 1866 O 172.46 -1.8009 0.295588 0
M  V30 1867 C 172.511 -0.587045 3.56702 0
M  V30 1868 O 172.232 0.571776 4.34353 0
M  V30 1869 C 173.733 -1.22983 4.25899 0
M  V30 1870 H 170.953 -0.0336123 0.670158 0
M  V30 1871 H 173.497 0.541298 1.97206 0
M  V30 1872 H 171.652 -1.28504 3.65466 0
M  V30 1873 H 172.066 0.261544 5.23847 0
M  V30 1874 H 173.54 -1.44635 5.32715 0
M  V30 1875 H 174.017 -2.19416 3.80465 0
M  V30 1876 H 174.623 -0.572892 4.21424 0
M  V30 1877 N 172.938 -1.57226 0.108567 0
M  V30 1878 C 174.166 -1.99179 -0.559954 0
M  V30 1879 C 174.581 -0.988022 -1.60884 0
M  V30 1880 O 173.938 0.0205512 -1.82488 0
M  V30 1881 C 173.989 -3.41159 -1.19552 0
M  V30 1882 O 173.71 -4.37694 -0.188577 0
M  V30 1883 C 175.211 -3.98188 -1.94837 0
M  V30 1884 H 172.431 -0.654228 -0.149088 0
M  V30 1885 H 174.975 -2.03598 0.19183 0
M  V30 1886 H 173.13 -3.37711 -1.89815 0
M  V30 1887 H 173.544 -5.20469 -0.649014 0
M  V30 1888 H 175.018 -4.99644 -2.34648 0
M  V30 1889 H 175.495 -3.3675 -2.81951 0
M  V30 1890 H 176.101 -4.0515 -1.2936 0
M  V30 1891 N 174.416 0.165178 -1.56732 0
M  V30 1892 C 175.664 0.879068 -1.8198 0
M  V30 1893 C 175.985 1.82514 -0.686561 0
M  V30 1894 O 175.255 1.93694 0.293146 0
M  V30 1895 H 173.835 0.327608 -0.671329 0
M  V30 1896 H 176.497 0.163526 -1.94213 0
M  V30 1897 H 175.593 1.45228 -2.76252 0
M  V30 1898 N 175.894 1.51508 0.433938 0
M  V30 1899 C 177.124 1.67914 1.20369 0
M  V30 1900 C 177.532 0.377461 1.85397 0
M  V30 1901 O 176.875 -0.654255 1.71654 0
M  V30 1902 C 176.937 2.74045 2.32679 0
M  V30 1903 C 176.601 4.16543 1.87991 0
M  V30 1904 C 177.598 5.01211 1.38145 0
M  V30 1905 C 175.283 4.6266 1.95579 0
M  V30 1906 C 177.277 6.30056 0.964774 0
M  V30 1907 C 174.964 5.91501 1.53523 0
M  V30 1908 C 175.962 6.75027 1.04055 0
M  V30 1909 O 175.65 8.01459 0.625964 0
M  V30 1910 H 175.382 0.566578 0.368735 0
M  V30 1911 H 177.936 1.98709 0.51999 0
M  V30 1912 H 176.166 2.38572 3.04336 0
M  V30 1913 H 177.855 2.79295 2.94532 0
M  V30 1914 H 178.621 4.66783 1.31675 0
M  V30 1915 H 174.5 3.97767 2.33029 0
M  V30 1916 H 178.044 6.95202 0.57796 0
M  V30 1917 H 173.941 6.25442 1.59665 0
M  V30 1918 H 174.709 8.15043 0.751509 0
M  V30 1919 N 177.372 -0.689602 1.41712 0
M  V30 1920 C 178.62 -1.4468 1.4111 0
M  V30 1921 C 178.941 -1.94986 0.0232196 0
M  V30 1922 O 178.211 -1.72097 -0.935913 0
M  V30 1923 H 176.791 -0.536847 0.519427 0
M  V30 1924 H 179.453 -0.815825 1.77004 0
M  V30 1925 H 178.549 -2.30706 2.10193 0
M  V30 1926 N 178.85 -1.27639 -0.924453 0
M  V30 1927 C 179.8 -1.07295 -2.01176 0
M  V30 1928 C 180.784 5.77352e-05 -1.609 0
M  V30 1929 O 181.976 -0.218855 -1.75642 0
M  V30 1930 C 179.105 -0.725592 -3.35544 0
M  V30 1931 C 178.191 -1.83691 -3.82254 0
M  V30 1932 N 178.582 -3.07697 -4.01443 0
M  V30 1933 C 176.88 -1.72433 -4.11319 0
M  V30 1934 C 177.581 -3.80037 -4.40394 0
M  V30 1935 N 176.557 -3.0782 -4.48049 0
M  V30 1936 H 180.359 -2.01399 -2.14046 0
M  V30 1937 H 177.873 -1.18401 -1.11153 0
M  V30 1938 H 179.87 -0.560959 -4.13109 0
M  V30 1939 H 178.53 0.207782 -3.24034 0
M  V30 1940 H 179.541 -3.43424 -3.8766 0
M  V30 1941 H 176.218 -0.862005 -4.08504 0
M  V30 1942 H 177.608 -4.86632 -4.63291 0
M  V30 1943 N 180.328 1.1314 -1.09713 0
M  V30 1944 C 181.556 1.88321 -0.856898 0
M  V30 1945 C 181.971 1.79276 0.592073 0
M  V30 1946 O 181.328 1.16142 1.40774 0
M  V30 1947 C 181.379 3.37812 -1.28706 0
M  V30 1948 O 181.1 3.46627 -2.67921 0
M  V30 1949 C 182.601 4.29952 -1.07964 0
M  V30 1950 H 179.821 0.596094 -0.308079 0
M  V30 1951 H 182.365 1.43205 -1.45988 0
M  V30 1952 H 180.52 3.805 -0.727912 0
M  V30 1953 H 180.934 4.39579 -2.8613 0
M  V30 1954 H 182.408 5.33159 -1.42986 0
M  V30 1955 H 182.885 4.39196 -0.0176577 0
M  V30 1956 H 183.491 3.93036 -1.62489 0
M  V30 1957 N 181.806 0.884767 1.30421 0
M  V30 1958 C 183.052 0.503851 1.96441 0
M  V30 1959 C 183.385 -0.944518 1.69684 0
M  V30 1960 O 182.66 -1.66737 1.00145 0
M  V30 1961 C 182.943 0.779085 3.51571 0
M  V30 1962 C 182.796 2.27807 3.87846 0
M  V30 1963 C 184.115 0.255452 4.39358 0
M  V30 1964 H 181.234 0.184533 0.713524 0
M  V30 1965 H 183.876 1.10872 1.54297 0
M  V30 1966 H 182.026 0.264274 3.876 0
M  V30 1967 H 183.698 2.86127 3.61841 0
M  V30 1968 H 181.941 2.74479 3.35922 0
M  V30 1969 H 182.612 2.42125 4.96064 0
M  V30 1970 H 185.088 0.696079 4.10236 0
M  V30 1971 H 183.964 0.477361 5.4682 0
M  V30 1972 H 184.225 -0.843293 4.33983 0
M  V30 1973 N 183.284 -1.43765 0.645699 0
M  V30 1974 C 184.695 -1.85193 0.236719 0
M  V30 1975 C 185.046 -1.54045 -1.21509 0
M  V30 1976 O 184.171 -0.985694 -1.92647 0
M  V30 1977 C 184.766 -3.36151 0.422845 0
M  V30 1978 C 183.325 -3.76338 0.0682492 0
M  V30 1979 C 182.472 -2.67538 0.729306 0
M  V30 1980 H 185.423 -1.34025 0.849883 0
M  V30 1981 H 185.444 -3.79032 -0.333904 0
M  V30 1982 H 184.956 -3.5879 1.47958 0
M  V30 1983 H 183.057 -3.59312 -0.986179 0
M  V30 1984 H 183.17 -4.76603 0.488469 0
M  V30 1985 H 181.534 -2.54176 0.163235 0
M  V30 1986 H 182.317 -2.93006 1.78892 0
M  V30 1987 N 184.763 -0.387143 -1.52771 0
M  V30 1988 C 185.693 0.440551 -2.29306 0
M  V30 1989 C 186.674 1.06535 -1.32606 0
M  V30 1990 O 187.859 1.07853 -1.61497 0
M  V30 1991 C 184.989 1.56919 -3.09829 0
M  V30 1992 C 183.943 1.07054 -4.14395 0
M  V30 1993 C 183.269 2.29109 -4.83129 0
M  V30 1994 C 184.569 0.140015 -5.22112 0
M  V30 1995 H 186.263 -0.198026 -2.98744 0
M  V30 1996 H 183.809 -0.09668 -1.43675 0
M  V30 1997 H 185.762 2.15503 -3.62128 0
M  V30 1998 H 184.486 2.23532 -2.3812 0
M  V30 1999 H 183.145 0.507247 -3.63074 0
M  V30 2000 H 182.793 2.94227 -4.0797 0
M  V30 2001 H 182.493 1.96406 -5.53804 0
M  V30 2002 H 184.017 2.88339 -5.38231 0
M  V30 2003 H 185.431 0.633978 -5.69784 0
M  V30 2004 H 183.828 -0.0971485 -6.00021 0
M  V30 2005 H 184.898 -0.811711 -4.78058 0
M  V30 2006 N 186.241 1.57166 -0.116904 0
M  V30 2007 C 187.466 1.999 0.55271 0
M  V30 2008 C 187.891 0.996039 1.59564 0
M  V30 2009 O 187.249 -0.032556 1.81271 0
M  V30 2010 C 187.297 3.4152 1.15742 0
M  V30 2011 O 186.401 3.44106 2.27299 0
M  V30 2012 H 185.742 0.649447 0.138258 0
M  V30 2013 H 188.272 2.03573 -0.204759 0
M  V30 2014 H 188.282 3.79684 1.49346 0
M  V30 2015 H 186.957 4.14034 0.393493 0
M  V30 2016 H 185.534 3.17759 1.9515 0
M  V30 2017 N 187.719 -0.156864 1.56817 0
M  V30 2018 C 188.996 -0.899244 1.73704 0
M  V30 2019 C 189.376 -1.99771 0.682254 0
M  V30 2020 O 188.724 -2.26515 -0.300522 0
M  V30 2021 C 188.934 -1.45075 3.17418 0
M  V30 2022 C 190.282 -1.91802 3.7881 0
M  V30 2023 O 191.306 -1.54838 3.20786 0
M  V30 2024 O 190.165 -2.5994 4.80722 0
M  V30 2025 H 187.259 -0.424267 0.709878 0
M  V30 2026 H 189.805 -0.143561 1.69092 0
M  V30 2027 H 188.577 -0.660846 3.85679 0
M  V30 2028 H 188.2 -2.27021 3.26416 0
M  V30 2029 N 189.197 -1.51736 -0.425897 0
M  V30 2030 C 190.445 -1.64644 -1.17204 0
M  V30 2031 C 190.766 -0.370486 -1.91448 0
M  V30 2032 O 190.036 0.614088 -1.86026 0
M  V30 2033 H 188.616 -0.606819 -0.435638 0
M  V30 2034 H 191.278 -1.88713 -0.487177 0
M  V30 2035 H 190.374 -2.47958 -1.89534 0
M  V30 2036 N 190.675 0.682077 -1.42076 0
M  V30 2037 C 191.923 1.4393 -1.41876 0
M  V30 2038 C 192.244 1.94971 -0.0335599 0
M  V30 2039 O 191.514 1.72591 0.926773 0
M  V30 2040 H 190.094 0.534085 -0.522267 0
M  V30 2041 H 192.756 0.806427 -1.77434 0
M  V30 2042 H 191.852 2.29588 -2.11414 0
M  V30 2043 N 192.153 1.28127 0.917671 0
M  V30 2044 C 193.1 1.11717 2.0196 0
M  V30 2045 C 194.07 0.0153929 1.66093 0
M  V30 2046 O 195.255 0.179596 1.89953 0
M  V30 2047 C 192.395 0.780927 3.36148 0
M  V30 2048 C 191.508 1.96135 3.84909 0
M  V30 2049 C 190.643 1.56609 5.0759 0
M  V30 2050 C 189.682 2.71339 5.48673 0
M  V30 2051 N 188.819 2.32332 6.62545 0
M  V30 2052 H 193.659 2.06003 2.15329 0
M  V30 2053 H 191.196 1.02535 1.05475 0
M  V30 2054 H 193.154 0.56675 4.13333 0
M  V30 2055 H 191.784 -0.124998 3.22558 0
M  V30 2056 H 190.836 2.28777 3.03916 0
M  V30 2057 H 192.148 2.82165 4.1132 0
M  V30 2058 H 191.302 1.31374 5.92305 0
M  V30 2059 H 190.041 0.677014 4.82978 0
M  V30 2060 H 189.046 2.97276 4.62501 0
M  V30 2061 H 190.271 3.60882 5.75274 0
M  V30 2062 H 188.217 1.45889 6.39572 0
M  V30 2063 H 188.134 3.11899 6.88662 0
M  V30 2064 H 189.402 2.10371 7.50576 0
M  V30 2065 N 193.631 -1.12557 1.10312 0
M  V30 2066 C 194.594 -2.16434 0.75424 0
M  V30 2067 C 195.594 -1.59278 -0.220685 0
M  V30 2068 O 196.784 -1.742 0.00230591 0
M  V30 2069 C 193.916 -3.40699 0.116987 0
M  V30 2070 H 195.109 -2.48811 1.67431 0
M  V30 2071 H 192.662 -1.27542 0.903475 0
M  V30 2072 H 193.397 -3.13921 -0.813877 0
M  V30 2073 H 193.182 -3.83459 0.818613 0
M  V30 2074 H 194.672 -4.17451 -0.111387 0
M  V30 2075 N 195.109 -0.891671 -1.2995 0
M  V30 2076 C 196.356 -0.513501 -1.95881 0
M  V30 2077 C 196.684 0.938655 -1.70351 0
M  V30 2078 O 195.939 1.67936 -1.00478 0
M  V30 2079 C 196.238 -0.742868 -3.49594 0
M  V30 2080 C 195.904 -2.17114 -3.95186 0
M  V30 2081 C 194.566 -2.56169 -4.07346 0
M  V30 2082 C 196.918 -3.10162 -4.18866 0
M  V30 2083 C 194.246 -3.87469 -4.4055 0
M  V30 2084 C 196.598 -4.41001 -4.53542 0
M  V30 2085 C 195.262 -4.79941 -4.63911 0
M  V30 2086 H 194.532 -0.187903 -0.71678 0
M  V30 2087 H 197.179 -1.1288 -1.54694 0
M  V30 2088 H 195.484 -0.044586 -3.91775 0
M  V30 2089 H 197.181 -0.429767 -3.9869 0
M  V30 2090 H 193.771 -1.85801 -3.86233 0
M  V30 2091 H 197.955 -2.81206 -4.08946 0
M  V30 2092 H 193.211 -4.17371 -4.46779 0
M  V30 2093 H 197.385 -5.13133 -4.70815 0
M  V30 2094 H 195.012 -5.81719 -4.89395 0
M  V30 2095 N 196.587 1.43421 -0.653314 0
M  V30 2096 C 197.827 2.03689 -0.170346 0
M  V30 2097 C 198.191 1.50427 1.19314 0
M  V30 2098 O 199.392 2.0234 1.76952 0
M  V30 2099 C 197.663 3.56946 -0.180183 0
M  V30 2100 S 199.222 4.38171 0.234925 0
M  V30 2101 H 196.04 0.707345 -0.0719976 0
M  V30 2102 H 198.642 1.75486 -0.86167 0
M  V30 2103 H 197.346 3.93212 -1.17526 0
M  V30 2104 H 196.877 3.89791 0.531675 0
M  V30 2105 H 198.892 4.73808 1.47378 0
M  V30 2106 N 198.065 0.39524 1.52563 0
M  V30 2107 C 199.314 -0.186321 2.00838 0
M  V30 2108 C 199.627 -1.47402 1.28577 0
M  V30 2109 O 200.833 -2.13599 1.67593 0
M  V30 2110 C 199.289 -0.382595 3.57861 0
M  V30 2111 C 198.897 0.892202 4.39026 0
M  V30 2112 C 200.641 -0.9202 4.14406 0
M  V30 2113 C 198.548 0.66388 5.87662 0
M  V30 2114 H 197.478 -0.0734041 0.750418 0
M  V30 2115 H 200.129 0.518552 1.76021 0
M  V30 2116 H 198.511 -1.14946 3.7895 0
M  V30 2117 H 199.685 1.66414 4.29701 0
M  V30 2118 H 198 1.35519 3.9373 0
M  V30 2119 H 200.597 -1.10683 5.23119 0
M  V30 2120 H 200.94 -1.89096 3.70875 0
M  V30 2121 H 201.473 -0.212751 3.97231 0
M  V30 2122 H 198.212 1.6058 6.35527 0
M  V30 2123 H 197.732 -0.0690193 5.9976 0
M  V30 2124 H 199.411 0.300699 6.46301 0
M  V30 2125 N 199.544 -1.57102 0.125237 0
M  V30 2126 C 200.793 -1.94582 -0.531095 0
M  V30 2127 C 201.106 -1.01126 -1.6743 0
M  V30 2128 O 202.312 -1.28097 -2.39381 0
M  V30 2129 C 200.768 -3.45839 -0.996164 0
M  V30 2130 C 200.376 -4.47842 0.118926 0
M  V30 2131 C 202.12 -3.92227 -1.62352 0
M  V30 2132 C 200.027 -5.90284 -0.363192 0
M  V30 2133 H 198.957 -0.726391 -0.20217 0
M  V30 2134 H 201.608 -1.82339 0.206092 0
M  V30 2135 H 199.99 -3.53338 -1.78796 0
M  V30 2136 H 201.164 -4.52018 0.895358 0
M  V30 2137 H 199.479 -4.11243 0.653324 0
M  V30 2138 H 202.076 -4.96069 -1.99548 0
M  V30 2139 H 202.419 -3.32552 -2.50429 0
M  V30 2140 H 202.952 -3.87554 -0.897019 0
M  V30 2141 H 199.691 -6.53728 0.481679 0
M  V30 2142 H 199.211 -5.89515 -1.10597 0
M  V30 2143 H 200.89 -6.41752 -0.822377 0
M  V30 2144 N 201.022 0.148545 -1.56898 0
M  V30 2145 C 202.252 0.875118 -1.8715 0
M  V30 2146 C 202.66 1.75322 -0.711262 0
M  V30 2147 O 202.003 1.80745 0.328151 0
M  V30 2148 C 202.065 1.7844 -3.12089 0
M  V30 2149 C 201.729 1.08361 -4.43967 0
M  V30 2150 C 202.726 0.438247 -5.1805 0
M  V30 2151 C 200.411 1.07358 -4.90693 0
M  V30 2152 C 202.405 -0.20779 -6.37061 0
M  V30 2153 C 200.092 0.42373 -6.09629 0
M  V30 2154 C 201.09 -0.215829 -6.82659 0
M  V30 2155 O 200.778 -0.855378 -7.99336 0
M  V30 2156 H 200.51 0.258504 -0.624621 0
M  V30 2157 H 203.064 0.14652 -2.04877 0
M  V30 2158 H 201.294 2.55389 -2.90367 0
M  V30 2159 H 202.983 2.38279 -3.286 0
M  V30 2160 H 203.749 0.437817 -4.8302 0
M  V30 2161 H 199.628 1.5608 -4.33774 0
M  V30 2162 H 203.172 -0.70758 -6.94002 0
M  V30 2163 H 199.069 0.421822 -6.4412 0
M  V30 2164 H 199.837 -0.756892 -8.14993 0
M  V30 2165 N 202.5 1.5196 0.417844 0
M  V30 2166 C 203.725 1.69717 1.1921 0
M  V30 2167 C 204.15 0.402148 1.83751 0
M  V30 2168 O 203.508 -0.639593 1.69643 0
M  V30 2169 C 203.556 2.82794 2.2374 0
M  V30 2170 O 202.66 2.47756 3.29683 0
M  V30 2171 H 202.001 0.565263 0.348387 0
M  V30 2172 H 204.531 1.98621 0.490985 0
M  V30 2173 H 204.541 3.07452 2.68212 0
M  V30 2174 H 203.216 3.76756 1.76146 0
M  V30 2175 H 201.793 2.33739 2.90552 0
M  V30 2176 N 203.978 -0.674533 1.42435 0
M  V30 2177 C 205.224 -1.43671 1.43131 0
M  V30 2178 C 205.557 -1.94142 0.0476021 0
M  V30 2179 O 204.832 -1.70924 -0.928188 0
M  V30 2180 C 205.115 -2.63355 2.45594 0
M  V30 2181 C 204.968 -2.18514 3.93156 0
M  V30 2182 C 206.287 -3.65571 2.45043 0
M  V30 2183 H 203.406 -0.521077 0.521198 0
M  V30 2184 H 206.048 -0.766551 1.7385 0
M  V30 2185 H 204.198 -3.2053 2.19528 0
M  V30 2186 H 205.87 -1.66504 4.30202 0
M  V30 2187 H 204.113 -1.50086 4.07009 0
M  V30 2188 H 204.784 -3.04484 4.60428 0
M  V30 2189 H 207.26 -3.18113 2.68223 0
M  V30 2190 H 206.136 -4.46893 3.18713 0
M  V30 2191 H 206.397 -4.16716 1.47649 0
M  V30 2192 N 205.456 -1.28612 -0.910864 0
M  V30 2193 C 206.705 -1.15311 -1.65488 0
M  V30 2194 C 207.018 0.296999 -1.93332 0
M  V30 2195 O 208.224 0.551168 -2.65847 0
M  V30 2196 C 206.68 -2.01599 -2.98137 0
M  V30 2197 C 206.288 -3.51367 -2.7793 0
M  V30 2198 C 208.032 -1.96993 -3.76024 0
M  V30 2199 C 205.939 -4.29797 -4.06237 0
M  V30 2200 H 204.869 -0.42796 -0.620779 0
M  V30 2201 H 207.52 -1.53166 -1.01057 0
M  V30 2202 H 205.902 -1.56603 -3.63719 0
M  V30 2203 H 207.076 -4.0434 -2.21011 0
M  V30 2204 H 205.391 -3.57529 -2.13452 0
M  V30 2205 H 207.988 -2.52856 -4.71135 0
M  V30 2206 H 208.331 -0.94733 -4.05378 0
M  V30 2207 H 208.864 -2.39973 -3.17266 0
M  V30 2208 H 205.603 -5.32648 -3.82055 0
M  V30 2209 H 205.123 -3.81596 -4.62757 0
M  V30 2210 H 206.802 -4.39869 -4.74473 0
M  V30 2211 N 206.934 1.1197 -1.10907 0
M  V30 2212 C 208.182 1.83225 -0.852819 0
M  V30 2213 C 208.503 1.84769 0.623341 0
M  V30 2214 O 207.773 1.3143 1.45269 0
M  V30 2215 H 206.353 0.67849 -0.312507 0
M  V30 2216 H 209.015 1.3556 -1.40033 0
M  V30 2217 H 208.111 2.87265 -1.22005 0
M  V30 2218 N 208.412 0.89855 1.29475 0
M  V30 2219 C 209.661 0.519863 1.94885 0
M  V30 2220 C 209.974 -0.9383 1.71625 0
M  V30 2221 O 211.18 -1.42445 2.31131 0
M  V30 2222 C 209.636 0.878836 3.49005 0
M  V30 2223 C 209.244 2.35569 3.81066 0
M  V30 2224 C 210.988 0.570004 4.20656 0
M  V30 2225 C 208.895 2.65558 5.28425 0
M  V30 2226 H 207.825 0.190692 0.729488 0
M  V30 2227 H 210.476 1.09539 1.47219 0
M  V30 2228 H 208.858 0.232253 3.95318 0
M  V30 2229 H 210.032 3.04773 3.45616 0
M  V30 2230 H 208.347 2.63343 3.22552 0
M  V30 2231 H 210.944 0.770925 5.29113 0
M  V30 2232 H 211.287 -0.491404 4.1339 0
M  V30 2233 H 211.82 1.17438 3.8007 0
M  V30 2234 H 208.559 3.70493 5.40754 0
M  V30 2235 H 208.079 2.00977 5.65127 0
M  V30 2236 H 209.758 2.51765 5.96006 0
M  V30 2237 N 209.89 -1.43072 0.660911 0
M  V30 2238 C 211.301 -1.84932 0.256348 0
M  V30 2239 C 211.652 -1.55325 -1.19868 0
M  V30 2240 O 210.777 -1.00607 -1.91591 0
M  V30 2241 C 211.372 -3.35684 0.458475 0
M  V30 2242 C 209.931 -3.76245 0.108161 0
M  V30 2243 C 209.078 -2.66749 0.757641 0
M  V30 2244 H 212.029 -1.33116 0.864051 0
M  V30 2245 H 212.05 -3.79365 -0.293683 0
M  V30 2246 H 211.562 -3.572 1.51755 0
M  V30 2247 H 209.663 -3.60338 -0.948014 0
M  V30 2248 H 209.776 -4.76058 0.538992 0
M  V30 2249 H 208.14 -2.53989 0.190185 0
M  V30 2250 H 208.923 -2.91092 1.81989 0
M  V30 2251 N 211.368 -0.403325 -1.52352 0
M  V30 2252 C 212.615 0.174347 -2.01748 0
M  V30 2253 C 212.943 1.45636 -1.2892 0
M  V30 2254 O 212.198 1.9193 -0.382258 0
M  V30 2255 C 212.497 0.474665 -3.54234 0
M  V30 2256 C 212.163 -0.717458 -4.45155 0
M  V30 2257 C 210.825 -1.04447 -4.69728 0
M  V30 2258 C 213.177 -1.51432 -4.98716 0
M  V30 2259 C 210.505 -2.16963 -5.45109 0
M  V30 2260 C 212.857 -2.6302 -5.75329 0
M  V30 2261 C 211.521 -2.96213 -5.98175 0
M  V30 2262 H 210.791 0.0637981 -0.738248 0
M  V30 2263 H 213.438 -0.543553 -1.83624 0
M  V30 2264 H 211.743 1.27406 -3.70506 0
M  V30 2265 H 213.44 0.934496 -3.89959 0
M  V30 2266 H 210.03 -0.452596 -4.26204 0
M  V30 2267 H 214.214 -1.27491 -4.79645 0
M  V30 2268 H 209.47 -2.43034 -5.61021 0
M  V30 2269 H 213.644 -3.25158 -6.15829 0
M  V30 2270 H 211.271 -3.83516 -6.56368 0
M  V30 2271 N 212.846 1.57033 -0.133567 0
M  V30 2272 C 214.074 2.00044 0.528195 0
M  V30 2273 C 214.489 1.01349 1.59291 0
M  V30 2274 O 213.846 0.00848369 1.82498 0
M  V30 2275 C 213.897 3.43018 1.1411 0
M  V30 2276 O 213.618 4.37939 0.11892 0
M  V30 2277 C 215.119 4.01237 1.88477 0
M  V30 2278 H 212.339 0.656517 0.138661 0
M  V30 2279 H 214.883 2.03267 -0.224196 0
M  V30 2280 H 213.038 3.40688 1.84418 0
M  V30 2281 H 213.452 5.21436 0.56613 0
M  V30 2282 H 214.926 5.03314 2.26669 0
M  V30 2283 H 215.403 3.41193 2.76558 0
M  V30 2284 H 216.009 4.07156 1.22898 0
M  V30 2285 N 214.325 -0.140222 1.56975 0
M  V30 2286 C 215.255 -1.17456 2.01808 0
M  V30 2287 C 216.236 -1.44415 0.898794 0
M  V30 2288 O 217.421 -1.5522 1.16707 0
M  V30 2289 C 214.551 -2.50607 2.40444 0
M  V30 2290 C 213.505 -2.38155 3.55621 0
M  V30 2291 C 212.831 -3.76078 3.80091 0
M  V30 2292 C 214.131 -1.85991 4.88062 0
M  V30 2293 H 215.825 -0.801743 2.88466 0
M  V30 2294 H 213.371 -0.38422 1.38779 0
M  V30 2295 H 215.324 -3.23197 2.7041 0
M  V30 2296 H 214.048 -2.89737 1.50732 0
M  V30 2297 H 212.707 -1.68016 3.25832 0
M  V30 2298 H 212.355 -4.12656 2.87618 0
M  V30 2299 H 212.055 -3.68606 4.57606 0
M  V30 2300 H 213.579 -4.50206 4.12488 0
M  V30 2301 H 214.993 -2.4838 5.16701 0
M  V30 2302 H 213.39 -1.89393 5.6943 0
M  V30 2303 H 214.46 -0.816023 4.77984 0
M  V30 2304 N 215.803 -1.52179 -0.40978 0
M  V30 2305 C 216.733 -1.78435 -1.5061 0
M  V30 2306 C 217.714 -0.635295 -1.57791 0
M  V30 2307 O 218.899 -0.880823 -1.73076 0
M  V30 2308 C 216.029 -1.93444 -2.88439 0
M  V30 2309 C 214.983 -3.09038 -2.96108 0
M  V30 2310 C 214.309 -3.09268 -4.36185 0
M  V30 2311 C 215.609 -4.48508 -2.67652 0
M  V30 2312 H 217.303 -2.70237 -1.28889 0
M  V30 2313 H 214.849 -1.30036 -0.618605 0
M  V30 2314 H 216.802 -2.10394 -3.65119 0
M  V30 2315 H 215.526 -0.983129 -3.11452 0
M  V30 2316 H 214.185 -2.91837 -2.21872 0
M  V30 2317 H 213.833 -2.11861 -4.56206 0
M  V30 2318 H 213.533 -3.86907 -4.42241 0
M  V30 2319 H 215.057 -3.28348 -5.14801 0
M  V30 2320 H 216.471 -4.65918 -3.34056 0
M  V30 2321 H 214.868 -5.28059 -2.85085 0
M  V30 2322 H 215.938 -4.56649 -1.63095 0
M  V30 2323 N 217.281 0.66697 -1.42791 0
M  V30 2324 C 218.528 1.42699 -1.43678 0
M  V30 2325 C 218.856 1.94419 -0.0560425 0
M  V30 2326 O 218.111 1.7182 0.936831 0
M  V30 2327 C 218.41 2.6349 -2.4147 0
M  V30 2328 C 218.076 2.30267 -3.8767 0
M  V30 2329 C 216.738 2.20918 -4.27491 0
M  V30 2330 C 219.09 2.03435 -4.79858 0
M  V30 2331 C 216.418 1.82873 -5.57471 0
M  V30 2332 C 218.77 1.66892 -6.10188 0
M  V30 2333 C 217.434 1.56058 -6.49001 0
M  V30 2334 H 216.704 0.522171 -0.525755 0
M  V30 2335 H 219.351 0.759785 -1.75783 0
M  V30 2336 H 217.656 3.35279 -2.0272 0
M  V30 2337 H 219.353 3.21684 -2.39417 0
M  V30 2338 H 215.943 2.38449 -3.56146 0
M  V30 2339 H 220.127 2.09586 -4.49875 0
M  V30 2340 H 215.383 1.7306 -5.86396 0
M  V30 2341 H 219.557 1.45157 -6.81104 0
M  V30 2342 H 217.184 1.26348 -7.49627 0
M  V30 2343 N 218.759 1.29093 0.90403 0
M  V30 2344 C 219.689 1.16401 2.02418 0
M  V30 2345 C 220.67 0.0593085 1.69997 0
M  V30 2346 O 221.855 0.238021 1.92736 0
M  V30 2347 C 218.985 0.835233 3.37107 0
M  V30 2348 C 217.939 1.89578 3.83724 0
M  V30 2349 C 217.265 1.42041 5.15489 0
M  V30 2350 C 218.565 3.30394 4.04521 0
M  V30 2351 H 220.259 2.10109 2.13295 0
M  V30 2352 H 217.805 1.01157 1.02486 0
M  V30 2353 H 219.758 0.733169 4.14973 0
M  V30 2354 H 218.482 -0.137543 3.2631 0
M  V30 2355 H 217.141 1.98715 3.08071 0
M  V30 2356 H 216.789 0.436426 5.01103 0
M  V30 2357 H 216.489 2.12964 5.4765 0
M  V30 2358 H 218.013 1.33176 5.959 0
M  V30 2359 H 219.427 3.24123 4.72882 0
M  V30 2360 H 217.824 3.99237 4.48029 0
M  V30 2361 H 218.894 3.73692 3.09002 0
M  V30 2362 N 220.237 -1.11381 1.11499 0
M  V30 2363 C 221.465 -1.86934 0.88675 0
M  V30 2364 C 221.88 -1.80195 -0.563476 0
M  V30 2365 O 221.237 -1.18367 -1.38908 0
M  V30 2366 C 221.288 -3.35722 1.34064 0
M  V30 2367 O 221.009 -3.4232 2.73401 0
M  V30 2368 C 222.51 -4.2818 1.14791 0
M  V30 2369 H 219.73 -0.591117 0.317523 0
M  V30 2370 H 222.274 -1.40865 1.48248 0
M  V30 2371 H 220.429 -3.79294 0.788355 0
M  V30 2372 H 220.843 -4.34971 2.93087 0
M  V30 2373 H 222.317 -5.30817 1.5145 0
M  V30 2374 H 222.794 -4.39113 0.0875279 0
M  V30 2375 H 223.4 -3.90402 1.68721 0
M  V30 2376 N 221.715 -0.905404 -1.28997 0
M  V30 2377 C 222.678 -0.392253 -2.25819 0
M  V30 2378 C 223.678 0.476753 -1.5357 0
M  V30 2379 O 224.868 0.280994 -1.71919 0
M  V30 2380 C 222 0.438588 -3.38067 0
M  V30 2381 H 223.193 -1.24743 -2.72725 0
M  V30 2382 H 220.746 -0.684051 -1.40536 0
M  V30 2383 H 221.481 1.31352 -2.96508 0
M  V30 2384 H 221.266 -0.184167 -3.91667 0
M  V30 2385 H 222.756 0.78873 -4.10084 0
M  V30 2386 N 223.193 1.4272 -0.668489 0
M  V30 2387 C 224.439 2.01923 -0.188419 0
M  V30 2388 C 224.772 1.52704 1.19979 0
M  V30 2389 O 224.047 0.726566 1.8042 0
M  V30 2390 C 224.33 3.59451 -0.216085 0
M  V30 2391 C 224.183 4.18864 -1.6393 0
M  V30 2392 C 225.502 4.37903 0.439179 0
M  V30 2393 H 222.621 0.733674 -0.0699412 0
M  V30 2394 H 225.263 1.69822 -0.852076 0
M  V30 2395 H 223.413 3.86929 0.349012 0
M  V30 2396 H 225.085 4.02362 -2.25616 0
M  V30 2397 H 223.328 3.74933 -2.18193 0
M  V30 2398 H 223.999 5.27987 -1.61039 0
M  V30 2399 H 226.475 4.16079 -0.0417878 0
M  V30 2400 H 225.351 5.47519 0.389157 0
M  V30 2401 H 225.612 4.15303 1.51577 0
M  V30 2402 N 224.671 0.411399 1.52136 0
M  V30 2403 C 225.917 -0.163888 2.02137 0
M  V30 2404 C 226.25 -1.44597 1.29636 0
M  V30 2405 O 225.525 -1.90272 0.403353 0
M  V30 2406 C 225.808 -0.40927 3.57767 0
M  V30 2407 C 225.661 0.889643 4.40914 0
M  V30 2408 C 226.98 -1.19042 4.23694 0
M  V30 2409 H 224.099 -0.0580896 0.734707 0
M  V30 2410 H 226.741 0.54531 1.82007 0
M  V30 2411 H 224.891 -1.0134 3.7505 0
M  V30 2412 H 226.563 1.52575 4.35337 0
M  V30 2413 H 224.806 1.50011 4.07037 0
M  V30 2414 H 225.477 0.672314 5.4789 0
M  V30 2415 H 227.953 -0.678942 4.10524 0
M  V30 2416 H 226.829 -1.33086 5.32522 0
M  V30 2417 H 227.09 -2.21166 3.82803 0
M  V30 2418 N 226.149 -1.5696 0.141893 0
M  V30 2419 C 227.081 -2.13619 -0.830627 0
M  V30 2420 C 228.094 -1.08439 -1.21428 0
M  V30 2421 O 229.283 -1.35734 -1.15925 0
M  V30 2422 C 226.383 -2.63978 -2.12529 0
M  V30 2423 C 225.556 -3.93504 -1.9098 0
M  V30 2424 C 224.615 -4.29225 -3.04388 0
M  V30 2425 O 223.641 -4.97641 -2.76302 0
M  V30 2426 N 224.843 -3.88393 -4.31429 0
M  V30 2427 H 227.608 -2.97691 -0.34641 0
M  V30 2428 H 225.169 -1.61846 -0.0418375 0
M  V30 2429 H 227.161 -2.84891 -2.87436 0
M  V30 2430 H 225.731 -1.84659 -2.52229 0
M  V30 2431 H 224.951 -3.81269 -1.00139 0
M  V30 2432 H 226.239 -4.78154 -1.73914 0
M  V30 2433 H 225.637 -3.33257 -4.57117 0
M  V30 2434 H 224.194 -4.14368 -5.03133 0
M  V30 2435 N 227.627 0.131896 -1.57047 0
M  V30 2436 C 229.043 0.485031 -1.52051 0
M  V30 2437 C 229.243 1.82563 -0.85281 0
M  V30 2438 O 228.299 2.48817 -0.429694 0
M  V30 2439 C 229.612 0.481409 -2.96821 0
M  V30 2440 C 231.16 0.565868 -3.07842 0
M  V30 2441 C 231.635 0.592762 -4.54148 0
M  V30 2442 N 233.126 0.654564 -4.58552 0
M  V30 2443 C 233.861 0.696608 -5.69153 0
M  V30 2444 N 233.357 0.697078 -6.89284 0
M  V30 2445 N 235.15 0.738639 -5.57226 0
M  V30 2446 H 227.301 -0.746664 -1.98843 0
M  V30 2447 H 229.564 -0.273999 -0.90754 0
M  V30 2448 H 229.27 -0.435731 -3.4899 0
M  V30 2449 H 229.144 1.3139 -3.53577 0
M  V30 2450 H 231.531 1.47343 -2.55684 0
M  V30 2451 H 231.612 -0.29406 -2.54104 0
M  V30 2452 H 231.256 -0.310701 -5.06949 0
M  V30 2453 H 231.186 1.46939 -5.05684 0
M  V30 2454 H 233.677 0.660887 -3.72076 0
M  V30 2455 H 233.99 0.731426 -7.69331 0
M  V30 2456 H 232.335 0.66471 -6.91814 0
M  V30 2457 H 235.526 0.735545 -4.62285 0
M  V30 2458 H 235.699 0.767938 -6.43434 0
M  V30 2459 N 229.106 1.52395 0.401703 0
M  V30 2460 C 230.355 1.66044 1.14509 0
M  V30 2461 C 230.668 0.400216 1.91462 0
M  V30 2462 O 231.874 0.416632 2.68284 0
M  V30 2463 C 230.33 2.93388 2.0845 0
M  V30 2464 C 229.938 4.26545 1.36978 0
M  V30 2465 C 231.682 3.16402 2.83001 0
M  V30 2466 C 229.589 5.45007 2.29611 0
M  V30 2467 H 228.519 0.618562 0.431158 0
M  V30 2468 H 231.17 1.78886 0.40892 0
M  V30 2469 H 229.552 2.74263 2.8565 0
M  V30 2470 H 230.726 4.56179 0.650916 0
M  V30 2471 H 229.041 4.09692 0.74438 0
M  V30 2472 H 231.638 4.02085 3.52465 0
M  V30 2473 H 231.981 2.30943 3.46368 0
M  V30 2474 H 232.514 3.36034 2.12898 0
M  V30 2475 H 229.253 6.32835 1.70879 0
M  V30 2476 H 228.773 5.19702 2.9945 0
M  V30 2477 H 230.452 5.7838 2.89974 0
M  V30 2478 N 230.584 -0.659388 1.43143 0
M  V30 2479 C 231.812 -1.44723 1.47861 0
M  V30 2480 C 232.227 -1.88563 0.0945886 0
M  V30 2481 O 231.584 -1.59108 -0.893915 0
M  V30 2482 C 231.635 -2.68627 2.41913 0
M  V30 2483 O 231.356 -2.26623 3.74932 0
M  V30 2484 C 232.857 -3.62045 2.55809 0
M  V30 2485 H 230.077 -0.444801 0.502387 0
M  V30 2486 H 232.621 -0.808916 1.87821 0
M  V30 2487 H 230.776 -3.28613 2.05164 0
M  V30 2488 H 231.19 -3.06745 4.2545 0
M  V30 2489 H 232.664 -4.45666 3.25708 0
M  V30 2490 H 233.141 -4.08981 1.60099 0
M  V30 2491 H 233.747 -3.07944 2.93344 0
M  V30 2492 N 232.062 -1.29571 -0.897171 0
M  V30 2493 C 233.308 -1.17863 -1.65034 0
M  V30 2494 C 233.641 0.268729 -1.92332 0
M  V30 2495 O 232.916 1.19378 -1.53555 0
M  V30 2496 C 233.199 -1.995 -2.99786 0
M  V30 2497 C 233.052 -3.5239 -2.79538 0
M  V30 2498 C 234.371 -1.82335 -4.00552 0
M  V30 2499 H 231.49 -0.429528 -0.598895 0
M  V30 2500 H 234.132 -1.59072 -1.03905 0
M  V30 2501 H 232.282 -1.64485 -3.51962 0
M  V30 2502 H 233.954 -3.97401 -2.34244 0
M  V30 2503 H 232.197 -3.77187 -2.14273 0
M  V30 2504 H 232.868 -4.04787 -3.75302 0
M  V30 2505 H 235.344 -2.12924 -3.57495 0
M  V30 2506 H 234.22 -2.41801 -4.92771 0
M  V30 2507 H 234.481 -0.779209 -4.35179 0
M  V30 2508 N 233.54 1.10788 -1.12088 0
M  V30 2509 C 234.49 2.15158 -0.754401 0
M  V30 2510 C 235.474 1.59026 0.244846 0
M  V30 2511 O 236.666 1.76927 0.0509097 0
M  V30 2512 C 233.795 3.42677 -0.206657 0
M  V30 2513 C 232.881 4.05751 -1.23398 0
M  V30 2514 N 233.272 4.43582 -2.43041 0
M  V30 2515 C 231.57 4.32764 -1.07848 0
M  V30 2516 C 232.271 4.93085 -3.08613 0
M  V30 2517 N 231.247 4.89664 -2.36072 0
M  V30 2518 H 235.049 2.42195 -1.6649 0
M  V30 2519 H 232.563 1.27872 -1.00112 0
M  V30 2520 H 234.56 4.16834 0.0740646 0
M  V30 2521 H 233.22 3.17101 0.698342 0
M  V30 2522 H 234.231 4.35395 -2.80449 0
M  V30 2523 H 230.908 4.16863 -0.230483 0
M  V30 2524 H 232.298 5.31933 -4.10483 0
M  V30 2525 N 235.018 0.912232 1.28515 0
M  V30 2526 C 236.264 0.545405 1.95328 0
M  V30 2527 C 236.597 -0.908313 1.71649 0
M  V30 2528 O 235.872 -1.64575 1.03659 0
M  V30 2529 C 236.155 0.853483 3.4984 0
M  V30 2530 C 236.008 2.35982 3.82926 0
M  V30 2531 C 237.327 0.348589 4.38717 0
M  V30 2532 H 234.446 0.199626 0.709449 0
M  V30 2533 H 237.088 1.1412 1.5191 0
M  V30 2534 H 235.238 0.34643 3.86952 0
M  V30 2535 H 236.91 2.93738 3.55691 0
M  V30 2536 H 235.153 2.81543 3.30024 0
M  V30 2537 H 235.824 2.52593 4.90816 0
M  V30 2538 H 238.3 0.78294 4.08668 0
M  V30 2539 H 237.176 0.593242 5.45685 0
M  V30 2540 H 237.437 -0.751049 4.35674 0
M  V30 2541 N 236.496 -1.42363 0.676048 0
M  V30 2542 C 237.724 -2.05859 0.207268 0
M  V30 2543 C 238.139 -1.50796 -1.13605 0
M  V30 2544 O 237.496 -0.648265 -1.70598 0
M  V30 2545 C 237.547 -3.61248 0.134975 0
M  V30 2546 O 237.268 -4.1427 1.42521 0
M  V30 2547 C 238.769 -4.41859 -0.357151 0
M  V30 2548 H 235.989 -0.663431 0.100503 0
M  V30 2549 H 238.533 -1.82479 0.923136 0
M  V30 2550 H 236.688 -3.83735 -0.531588 0
M  V30 2551 H 237.102 -5.0815 1.29939 0
M  V30 2552 H 238.576 -5.50847 -0.356641 0
M  V30 2553 H 239.053 -4.16536 -1.39264 0
M  V30 2554 H 239.659 -4.24392 0.27772 0
M  V30 2555 N 237.974 -0.419461 -1.51915 0
M  V30 2556 C 239.39 -0.0708431 -1.59443 0
M  V30 2557 C 239.59 1.41796 -1.43164 0
M  V30 2558 O 238.646 2.18596 -1.26381 0
M  V30 2559 C 239.959 -0.574991 -2.95151 0
M  V30 2560 C 241.507 -0.533867 -3.08413 0
M  V30 2561 C 241.982 -1.01469 -4.46618 0
M  V30 2562 N 243.473 -0.971939 -4.52888 0
M  V30 2563 C 244.208 -1.31505 -5.58116 0
M  V30 2564 N 243.704 -1.73014 -6.70849 0
M  V30 2565 N 245.497 -1.23436 -5.48379 0
M  V30 2566 H 237.648 -1.38836 -1.60743 0
M  V30 2567 H 239.911 -0.570998 -0.756747 0
M  V30 2568 H 239.617 -1.61597 -3.12377 0
M  V30 2569 H 239.491 0.00979777 -3.77199 0
M  V30 2570 H 241.878 0.498086 -2.90866 0
M  V30 2571 H 241.959 -1.15484 -2.28248 0
M  V30 2572 H 241.603 -2.04502 -4.6491 0
M  V30 2573 H 241.533 -0.370433 -5.25295 0
M  V30 2574 H 244.024 -0.666893 -3.71969 0
M  V30 2575 H 244.337 -1.97479 -7.47143 0
M  V30 2576 H 242.682 -1.76926 -6.72103 0
M  V30 2577 H 245.873 -0.908869 -4.59192 0
M  V30 2578 H 246.046 -1.50506 -6.30279 0
M  V30 2579 N 239.452 1.56882 -0.150215 0
M  V30 2580 C 240.868 1.58263 0.20617 0
M  V30 2581 C 241.068 1.16464 1.64434 0
M  V30 2582 O 240.124 0.866422 2.3717 0
M  V30 2583 C 241.437 3.00649 -0.0555025 0
M  V30 2584 C 242.985 3.12999 0.00795388 0
M  V30 2585 C 243.46 4.5744 -0.226429 0
M  V30 2586 N 244.951 4.62875 -0.173469 0
M  V30 2587 C 245.686 5.72454 -0.329288 0
M  V30 2588 N 245.182 6.90669 -0.543005 0
M  V30 2589 N 246.975 5.61467 -0.266666 0
M  V30 2590 H 239.126 1.82345 -1.08922 0
M  V30 2591 H 241.389 0.844149 -0.431413 0
M  V30 2592 H 241.095 3.3563 -1.05096 0
M  V30 2593 H 240.969 3.71337 0.66246 0
M  V30 2594 H 243.356 2.77857 0.993966 0
M  V30 2595 H 243.437 2.4479 -0.742388 0
M  V30 2596 H 243.081 4.93287 -1.20956 0
M  V30 2597 H 243.011 5.2378 0.544274 0
M  V30 2598 H 245.502 3.77898 -0.0130709 0
M  V30 2599 H 245.815 7.70045 -0.651922 0
M  V30 2600 H 244.16 6.92581 -0.579366 0
M  V30 2601 H 247.351 4.67992 -0.100441 0
M  V30 2602 H 247.524 6.46816 -0.391535 0
M  V30 2603 N 240.93 -0.123565 1.57115 0
M  V30 2604 C 242.341 -0.681198 1.73829 0
M  V30 2605 C 242.692 -1.80535 0.768214 0
M  V30 2606 O 241.817 -2.16317 -0.0599103 0
M  V30 2607 C 242.412 -1.24246 3.15196 0
M  V30 2608 C 240.971 -1.74643 3.33432 0
M  V30 2609 C 240.118 -0.644284 2.69711 0
M  V30 2610 H 243.069 0.102315 1.5837 0
M  V30 2611 H 243.09 -2.11216 3.16493 0
M  V30 2612 H 242.602 -0.424062 3.85776 0
M  V30 2613 H 240.703 -2.58974 2.67886 0
M  V30 2614 H 240.816 -1.85902 4.41562 0
M  V30 2615 H 239.18 -1.07676 2.3082 0
M  V30 2616 H 239.963 0.163058 3.42913 0
M  V30 2617 N 242.408 -1.52605 -0.393616 0
M  V30 2618 C 243.654 -1.67672 -1.14079 0
M  V30 2619 C 243.987 -0.413121 -1.89755 0
M  V30 2620 O 243.262 0.588952 -1.85369 0
M  V30 2621 C 243.545 -2.9088 -2.12276 0
M  V30 2622 C 243.398 -4.27329 -1.40394 0
M  V30 2623 C 244.717 -3.09628 -3.12759 0
M  V30 2624 H 241.836 -0.610168 -0.413356 0
M  V30 2625 H 244.478 -1.85193 -0.424696 0
M  V30 2626 H 242.628 -2.76073 -2.73342 0
M  V30 2627 H 244.3 -4.53894 -0.82327 0
M  V30 2628 H 242.543 -4.2802 -0.705801 0
M  V30 2629 H 243.214 -5.09615 -2.12123 0
M  V30 2630 H 245.69 -3.23436 -2.61779 0
M  V30 2631 H 244.566 -3.97322 -3.78717 0
M  V30 2632 H 244.827 -2.23637 -3.81365 0
M  V30 2633 N 243.887 0.651787 -1.4349 0
M  V30 2634 C 244.817 1.77621 -1.51569 0
M  V30 2635 C 245.798 1.66022 -0.370253 0
M  V30 2636 O 246.983 1.85095 -0.587658 0
M  V30 2637 C 244.113 3.16056 -1.43966 0
M  V30 2638 C 243.067 3.4242 -2.56774 0
M  V30 2639 C 242.393 4.8067 -2.34223 0
M  V30 2640 C 243.693 3.37023 -3.99015 0
M  V30 2641 H 245.387 1.71117 -2.45681 0
M  V30 2642 H 242.933 0.821825 -1.18246 0
M  V30 2643 H 244.886 3.94472 -1.48221 0
M  V30 2644 H 243.61 3.23293 -0.463586 0
M  V30 2645 H 242.269 2.66375 -2.51873 0
M  V30 2646 H 241.917 4.84585 -1.34856 0
M  V30 2647 H 241.617 4.9927 -3.09844 0
M  V30 2648 H 243.141 5.61342 -2.40265 0
M  V30 2649 H 244.555 4.05374 -4.05395 0
M  V30 2650 H 242.952 3.67159 -4.74673 0
M  V30 2651 H 244.022 2.3518 -4.2405 0
M  V30 2652 N 245.365 1.30045 0.890287 0
M  V30 2653 C 246.595 1.21296 1.67245 0
M  V30 2654 C 247.003 -0.227471 1.87828 0
M  V30 2655 O 246.346 -1.16296 1.422 0
M  V30 2656 C 246.408 1.86519 3.07329 0
M  V30 2657 C 246.072 3.35837 3.09939 0
M  V30 2658 C 247.069 4.31915 2.89389 0
M  V30 2659 C 244.754 3.77196 3.31706 0
M  V30 2660 C 246.748 5.67325 2.90552 0
M  V30 2661 C 244.435 5.12725 3.32499 0
M  V30 2662 C 245.433 6.076 3.11947 0
M  V30 2663 O 245.121 7.40655 3.12547 0
M  V30 2664 H 244.853 0.4211 0.528821 0
M  V30 2665 H 247.407 1.72111 1.12103 0
M  V30 2666 H 245.637 1.30228 3.64112 0
M  V30 2667 H 247.326 1.71963 3.67673 0
M  V30 2668 H 248.092 4.01294 2.72375 0
M  V30 2669 H 243.971 3.03796 3.4674 0
M  V30 2670 H 247.515 6.41354 2.74429 0
M  V30 2671 H 243.412 5.42988 3.49047 0
M  V30 2672 H 244.18 7.49577 3.28749 0
M  V30 2673 N 246.843 -1.10192 1.12674 0
M  V30 2674 C 248.09 -1.82205 0.883606 0
M  V30 2675 C 248.418 -1.8532 -0.590492 0
M  V30 2676 O 247.673 -1.31137 -1.45264 0
M  V30 2677 C 247.972 -3.28552 1.4067 0
M  V30 2678 C 247.638 -3.45582 2.89627 0
M  V30 2679 C 246.3 -3.49937 3.30299 0
M  V30 2680 C 248.652 -3.50768 3.85501 0
M  V30 2681 C 245.98 -3.57049 4.65546 0
M  V30 2682 C 248.332 -3.59414 5.20581 0
M  V30 2683 C 246.996 -3.62034 5.60792 0
M  V30 2684 H 246.266 -0.666735 0.323334 0
M  V30 2685 H 248.913 -1.29868 1.40736 0
M  V30 2686 H 247.218 -3.83473 0.80347 0
M  V30 2687 H 248.915 -3.82788 1.19475 0
M  V30 2688 H 245.505 -3.42871 2.57172 0
M  V30 2689 H 249.689 -3.46651 3.55171 0
M  V30 2690 H 244.945 -3.57361 4.96088 0
M  V30 2691 H 249.119 -3.62371 5.94693 0
M  V30 2692 H 246.746 -3.67298 6.6558 0
M  V30 2693 N 248.321 -0.919034 -1.28029 0
M  V30 2694 C 249.271 -0.382574 -2.24767 0
M  V30 2695 C 250.255 0.508286 -1.52661 0
M  V30 2696 O 251.447 0.347145 -1.73562 0
M  V30 2697 C 248.576 0.371432 -3.41285 0
M  V30 2698 C 247.662 -0.535449 -4.20706 0
M  V30 2699 N 248.053 -1.65141 -4.78082 0
M  V30 2700 C 246.351 -0.336824 -4.44726 0
M  V30 2701 C 247.052 -2.21475 -5.37888 0
M  V30 2702 N 246.028 -1.50537 -5.22341 0
M  V30 2703 H 249.83 -1.23477 -2.66703 0
M  V30 2704 H 247.344 -0.772299 -1.42861 0
M  V30 2705 H 249.341 0.772638 -4.09678 0
M  V30 2706 H 248.001 1.22066 -3.00882 0
M  V30 2707 H 249.012 -2.03392 -4.7629 0
M  V30 2708 H 245.689 0.47246 -4.14818 0
M  V30 2709 H 247.079 -3.15379 -5.93284 0
M  V30 2710 N 249.799 1.42003 -0.683588 0
M  V30 2711 C 251.048 2.00638 -0.206681 0
M  V30 2712 C 251.361 1.5472 1.19671 0
M  V30 2713 O 252.567 2.05833 1.77045 0
M  V30 2714 C 251.023 3.58487 -0.318632 0
M  V30 2715 C 250.631 4.1339 -1.72663 0
M  V30 2716 C 252.375 4.24384 0.0991141 0
M  V30 2717 C 250.282 5.63633 -1.79087 0
M  V30 2718 H 249.212 0.750408 -0.0735107 0
M  V30 2719 H 251.863 1.62624 -0.850048 0
M  V30 2720 H 250.245 3.94047 0.392781 0
M  V30 2721 H 251.419 3.89273 -2.46583 0
M  V30 2722 H 249.734 3.59976 -2.09299 0
M  V30 2723 H 252.331 5.34652 0.0713833 0
M  V30 2724 H 252.674 4.00505 1.13586 0
M  V30 2725 H 253.207 3.93816 -0.561599 0
M  V30 2726 H 249.946 5.92323 -2.80774 0
M  V30 2727 H 249.466 5.89714 -1.09535 0
M  V30 2728 H 251.145 6.28201 -1.5483 0
M  V30 2729 N 251.277 0.427512 1.51691 0
M  V30 2730 C 252.693 0.0792977 1.59403 0
M  V30 2731 C 252.893 -1.41035 1.43914 0
M  V30 2732 O 251.949 -2.17922 1.27539 0
M  V30 2733 C 253.262 0.590636 2.94842 0
M  V30 2734 C 254.81 0.550215 3.08126 0
M  V30 2735 C 255.285 1.03836 4.46074 0
M  V30 2736 N 256.776 0.995943 4.52366 0
M  V30 2737 C 257.511 1.34463 5.57411 0
M  V30 2738 N 257.007 1.76569 6.69922 0
M  V30 2739 N 258.8 1.26343 5.47717 0
M  V30 2740 H 250.951 1.39687 1.60004 0
M  V30 2741 H 253.214 0.575003 0.753708 0
M  V30 2742 H 252.92 1.63251 3.11516 0
M  V30 2743 H 252.794 0.0102061 3.77199 0
M  V30 2744 H 255.181 -0.482654 2.91126 0
M  V30 2745 H 255.262 1.16693 2.27632 0
M  V30 2746 H 254.906 2.06965 4.63819 0
M  V30 2747 H 254.836 0.398286 5.25092 0
M  V30 2748 H 257.327 0.68661 3.7161 0
M  V30 2749 H 257.64 2.01438 7.46085 0
M  V30 2750 H 255.985 1.80488 6.71155 0
M  V30 2751 H 259.176 0.933209 4.58703 0
M  V30 2752 H 259.349 1.53846 6.29472 0
M  V30 2753 N 252.755 -1.56801 0.158532 0
M  V30 2754 C 254.001 -1.97559 -0.483957 0
M  V30 2755 C 254.356 -1.04239 -1.61716 0
M  V30 2756 O 253.649 -0.079603 -1.91435 0
M  V30 2757 C 253.843 -3.4235 -1.02623 0
M  V30 2758 C 253.672 -4.49669 0.0528929 0
M  V30 2759 C 252.442 -5.02838 0.498234 0
M  V30 2760 C 254.64 -5.0725 0.848616 0
M  V30 2761 N 252.622 -5.93775 1.559 0
M  V30 2762 C 253.993 -5.94506 1.7596 0
M  V30 2763 C 256.048 -4.89788 0.895121 0
M  V30 2764 C 254.751 -6.66169 2.71314 0
M  V30 2765 C 256.777 -5.62161 1.83654 0
M  V30 2766 C 256.139 -6.49134 2.73503 0
M  V30 2767 H 252.238 -0.768332 -0.145566 0
M  V30 2768 H 254.822 -1.93012 0.255799 0
M  V30 2769 H 252.993 -3.47467 -1.73555 0
M  V30 2770 H 254.725 -3.70145 -1.63629 0
M  V30 2771 H 251.48 -4.73498 0.0983222 0
M  V30 2772 H 251.904 -6.43948 2.08949 0
M  V30 2773 H 256.546 -4.22255 0.21453 0
M  V30 2774 H 254.264 -7.32923 3.40367 0
M  V30 2775 H 257.85 -5.5064 1.87847 0
M  V30 2776 H 256.73 -7.04153 3.45163 0
M  V30 2777 N 254.233 0.115231 -1.57178 0
M  V30 2778 C 255.481 0.820727 -1.84685 0
M  V30 2779 C 255.802 1.80237 -0.744279 0
M  V30 2780 O 255.072 1.94529 0.231375 0
M  V30 2781 H 253.652 0.306084 -0.681411 0
M  V30 2782 H 256.314 0.101656 -1.94635 0
M  V30 2783 H 255.41 1.36366 -2.80733 0
M  V30 2784 N 255.711 1.52812 0.385517 0
M  V30 2785 C 256.958 1.68026 1.1302 0
M  V30 2786 C 257.286 0.421934 1.89868 0
M  V30 2787 O 256.541 -0.595749 1.86412 0
M  V30 2788 C 256.84 2.86856 2.13187 0
M  V30 2789 C 256.506 4.24159 1.5297 0
M  V30 2790 C 255.168 4.61501 1.36274 0
M  V30 2791 C 257.52 5.09627 1.09223 0
M  V30 2792 C 254.848 5.81966 0.743837 0
M  V30 2793 C 257.2 6.30719 0.487411 0
M  V30 2794 C 255.864 6.6679 0.307777 0
M  V30 2795 H 255.134 0.614849 0.413571 0
M  V30 2796 H 257.781 1.86962 0.414405 0
M  V30 2797 H 256.086 2.6235 2.90998 0
M  V30 2798 H 257.783 2.95821 2.70722 0
M  V30 2799 H 254.373 3.94746 1.66954 0
M  V30 2800 H 258.557 4.81343 1.20922 0
M  V30 2801 H 253.813 6.08519 0.592891 0
M  V30 2802 H 257.987 6.96259 0.140143 0
M  V30 2803 H 255.614 7.60001 -0.173879 0
M  V30 2804 N 257.189 -0.644168 1.43834 0
M  V30 2805 C 258.414 -1.43642 1.49605 0
M  V30 2806 C 258.839 -1.8773 0.117913 0
M  V30 2807 O 258.197 -1.57938 -0.890239 0
M  V30 2808 C 258.245 -2.6416 2.45463 0
M  V30 2809 O 257.349 -3.63538 1.94714 0
M  V30 2810 H 256.69 -0.430329 0.50568 0
M  V30 2811 H 259.22 -0.787448 1.8884 0
M  V30 2812 H 259.23 -3.11864 2.63068 0
M  V30 2813 H 257.905 -2.31414 3.45572 0
M  V30 2814 H 256.482 -3.2273 1.86814 0
M  V30 2815 N 258.668 -1.30515 -0.883378 0
M  V30 2816 C 259.615 -1.17032 -1.98927 0
M  V30 2817 C 260.585 -0.0594241 -1.65994 0
M  V30 2818 O 261.77 -0.229895 -1.8941 0
M  V30 2819 C 258.91 -0.869777 -3.33959 0
M  V30 2820 C 258.023 -2.06271 -3.79574 0
M  V30 2821 C 257.158 -1.70011 -5.03259 0
M  V30 2822 C 256.197 -2.8579 -5.41286 0
M  V30 2823 N 255.334 -2.49816 -6.56153 0
M  V30 2824 H 260.174 -2.1164 -2.09792 0
M  V30 2825 H 257.711 -1.05296 -1.02719 0
M  V30 2826 H 259.669 -0.676138 -4.11685 0
M  V30 2827 H 258.299 0.0394332 -3.22776 0
M  V30 2828 H 257.351 -2.36755 -2.97744 0
M  V30 2829 H 258.663 -2.92971 -4.03694 0
M  V30 2830 H 257.817 -1.47032 -5.88614 0
M  V30 2831 H 256.556 -0.804829 -4.81013 0
M  V30 2832 H 255.561 -3.09434 -4.54456 0
M  V30 2833 H 256.786 -3.76008 -5.65504 0
M  V30 2834 H 254.732 -1.62795 -6.35479 0
M  V30 2835 H 254.649 -3.30048 -6.8015 0
M  V30 2836 H 255.917 -2.30197 -7.44735 0
M  V30 2837 N 260.146 1.09593 -1.13257 0
M  V30 2838 C 261.078 2.16015 -0.766167 0
M  V30 2839 C 262.091 1.61423 0.211303 0
M  V30 2840 O 263.28 1.78498 -0.00863946 0
M  V30 2841 C 260.38 3.38706 -0.114662 0
M  V30 2842 C 259.553 4.22717 -1.12379 0
M  V30 2843 C 258.612 5.23835 -0.498301 0
M  V30 2844 O 257.638 5.573 -1.15781 0
M  V30 2845 N 258.84 5.75886 0.730417 0
M  V30 2846 H 261.605 2.48055 -1.68193 0
M  V30 2847 H 259.166 1.25292 -1.02535 0
M  V30 2848 H 261.158 4.03464 0.315991 0
M  V30 2849 H 259.728 3.04569 0.704011 0
M  V30 2850 H 258.948 3.54122 -1.73179 0
M  V30 2851 H 260.236 4.75673 -1.80589 0
M  V30 2852 H 259.634 5.50911 1.28504 0
M  V30 2853 H 258.191 6.42387 1.10376 0
M  V30 2854 N 261.624 0.925811 1.2754 0
M  V30 2855 C 262.87 0.566092 1.94739 0
M  V30 2856 C 263.203 -0.890057 1.72603 0
M  V30 2857 O 262.478 -1.63467 1.05399 0
M  V30 2858 C 262.761 0.89054 3.48915 0
M  V30 2859 C 262.614 2.4003 3.80402 0
M  V30 2860 C 263.933 0.395101 4.38323 0
M  V30 2861 H 261.052 0.20714 0.707292 0
M  V30 2862 H 263.694 1.15725 1.50691 0
M  V30 2863 H 261.844 0.387452 3.86563 0
M  V30 2864 H 263.516 2.97494 3.52555 0
M  V30 2865 H 261.759 2.85028 3.2702 0
M  V30 2866 H 262.43 2.57785 4.8811 0
M  V30 2867 H 264.906 0.826241 4.07814 0
M  V30 2868 H 263.782 0.651086 5.45025 0
M  V30 2869 H 264.043 -0.704798 4.36446 0
M  V30 2870 N 263.102 -1.41638 0.69111 0
M  V30 2871 C 264.348 -2.01598 0.220519 0
M  V30 2872 C 264.681 -1.54594 -1.17535 0
M  V30 2873 O 263.956 -0.755177 -1.79241 0
M  V30 2874 C 264.239 -3.59062 0.273243 0
M  V30 2875 C 264.092 -4.16203 1.70573 0
M  V30 2876 C 265.411 -4.38546 -0.369457 0
M  V30 2877 H 262.53 -0.732468 0.0816045 0
M  V30 2878 H 265.172 -1.68445 0.878986 0
M  V30 2879 H 263.322 -3.87435 -0.287411 0
M  V30 2880 H 264.994 -3.98722 2.31989 0
M  V30 2881 H 263.237 -3.71414 2.2413 0
M  V30 2882 H 263.908 -5.25358 1.69419 0
M  V30 2883 H 266.384 -4.1596 0.107977 0
M  V30 2884 H 265.26 -5.48069 -0.302002 0
M  V30 2885 H 265.521 -4.17662 -1.44951 0
M  V30 2886 N 264.58 -0.43555 -1.51462 0
M  V30 2887 C 265.543 0.365137 -2.26273 0
M  V30 2888 C 266.543 0.951227 -1.29647 0
M  V30 2889 O 267.733 0.825958 -1.53374 0
M  V30 2890 C 264.865 1.51645 -3.05314 0
M  V30 2891 H 266.058 -0.290474 -2.9849 0
M  V30 2892 H 263.611 -0.188676 -1.55157 0
M  V30 2893 H 264.346 2.20816 -2.3751 0
M  V30 2894 H 264.131 1.10238 -3.76284 0
M  V30 2895 H 265.621 2.08218 -3.61987 0
M  V30 2896 N 266.058 1.56714 -0.166846 0
M  V30 2897 C 267.307 1.95922 0.479318 0
M  V30 2898 C 267.62 1.05529 1.6469 0
M  V30 2899 O 268.826 1.34399 2.35901 0
M  V30 2900 C 267.282 3.48359 0.90412 0
M  V30 2901 C 266.89 4.47369 -0.237621 0
M  V30 2902 C 268.634 3.96394 1.51896 0
M  V30 2903 C 266.541 5.91039 0.206561 0
M  V30 2904 H 265.471 0.731495 0.18284 0
M  V30 2905 H 268.122 1.81728 -0.254363 0
M  V30 2906 H 266.504 3.57955 1.69365 0
M  V30 2907 H 267.678 4.49485 -1.01489 0
M  V30 2908 H 265.993 4.09366 -0.762128 0
M  V30 2909 H 268.59 5.01186 1.86325 0
M  V30 2910 H 268.933 3.39075 2.41524 0
M  V30 2911 H 269.466 3.89796 0.79395 0
M  V30 2912 H 266.205 6.52221 -0.654834 0
M  V30 2913 H 265.725 5.9224 0.949282 0
M  V30 2914 H 267.404 6.43707 0.651939 0
M  V30 2915 N 267.536 -0.106894 1.57237 0
M  V30 2916 C 268.782 -0.81373 1.85759 0
M  V30 2917 C 269.115 -1.78952 0.754315 0
M  V30 2918 O 268.39 -1.93029 -0.23879 0
M  V30 2919 C 268.673 -1.55293 3.24894 0
M  V30 2920 C 268.526 -0.595929 4.45835 0
M  V30 2921 C 269.845 -2.5063 3.61763 0
M  V30 2922 H 266.964 -0.294369 0.67566 0
M  V30 2923 H 269.606 -0.0776472 1.89841 0
M  V30 2924 H 267.756 -2.1804 3.21544 0
M  V30 2925 H 269.428 0.0236262 4.61294 0
M  V30 2926 H 267.671 0.0916191 4.33703 0
M  V30 2927 H 268.342 -1.15004 5.39887 0
M  V30 2928 H 270.818 -1.97982 3.65981 0
M  V30 2929 H 269.694 -2.99376 4.60071 0
M  V30 2930 H 269.955 -3.3385 2.89821 0
M  V30 2931 N 269.014 -1.53014 -0.377408 0
M  V30 2932 C 269.964 -1.74996 -1.46152 0
M  V30 2933 C 270.948 -0.604236 -1.49123 0
M  V30 2934 O 272.14 -0.862489 -1.54564 0
M  V30 2935 C 269.269 -1.93267 -2.8373 0
M  V30 2936 C 268.355 -3.13807 -2.85283 0
M  V30 2937 N 268.746 -4.35941 -2.56493 0
M  V30 2938 C 267.044 -3.14288 -3.16448 0
M  V30 2939 C 267.745 -5.17615 -2.65424 0
M  V30 2940 N 266.721 -4.53559 -2.99641 0
M  V30 2941 H 270.523 -2.67044 -1.22738 0
M  V30 2942 H 268.037 -1.51479 -0.585479 0
M  V30 2943 H 270.034 -2.0714 -3.61799 0
M  V30 2944 H 268.694 -1.0244 -3.08117 0
M  V30 2945 H 269.705 -4.63876 -2.30302 0
M  V30 2946 H 266.382 -2.33312 -3.46225 0
M  V30 2947 H 267.772 -6.25006 -2.46612 0
M  V30 2948 N 270.492 0.636531 -1.44174 0
M  V30 2949 C 271.455 1.73063 -1.50273 0
M  V30 2950 C 272.455 1.56113 -0.385397 0
M  V30 2951 O 273.645 1.61707 -0.64781 0
M  V30 2952 C 270.777 3.12096 -1.37145 0
M  V30 2953 H 271.97 1.69031 -2.47727 0
M  V30 2954 H 269.523 0.849706 -1.31186 0
M  V30 2955 H 270.258 3.21728 -0.407636 0
M  V30 2956 H 270.043 3.25805 -2.18159 0
M  V30 2957 H 271.533 3.91846 -1.44382 0
M  V30 2958 N 271.97 1.30982 0.876444 0
M  V30 2959 C 273.216 1.20474 1.63138 0
M  V30 2960 C 273.549 -0.238096 1.92735 0
M  V30 2961 O 272.824 -1.1692 1.55435 0
M  V30 2962 C 273.107 2.04244 2.96574 0
M  V30 2963 C 272.96 3.56793 2.73896 0
M  V30 2964 C 274.279 1.88684 3.97601 0
M  V30 2965 H 271.398 0.439001 0.591985 0
M  V30 2966 H 274.04 1.60704 1.01361 0
M  V30 2967 H 272.19 1.70063 3.493 0
M  V30 2968 H 273.862 4.01077 2.27892 0
M  V30 2969 H 272.105 3.80548 2.08245 0
M  V30 2970 H 272.776 4.10706 3.68815 0
M  V30 2971 H 275.252 2.18584 3.54062 0
M  V30 2972 H 274.128 2.4961 4.88862 0
M  V30 2973 H 274.389 0.848343 4.33884 0
M  V30 2974 N 273.449 -1.08991 1.13837 0
M  V30 2975 C 274.379 -2.17771 0.842507 0
M  V30 2976 C 275.36 -1.6892 -0.20001 0
M  V30 2977 O 276.545 -1.94113 -0.0579731 0
M  V30 2978 C 273.675 -3.4589 0.312644 0
M  V30 2979 C 272.629 -4.08099 1.28992 0
M  V30 2980 C 271.955 -5.31098 0.619623 0
M  V30 2981 C 273.255 -4.50077 2.65005 0
M  V30 2982 H 274.949 -2.42777 1.75213 0
M  V30 2983 H 272.495 -1.16682 0.843875 0
M  V30 2984 H 274.448 -4.21297 0.0933043 0
M  V30 2985 H 273.172 -3.20419 -0.632382 0
M  V30 2986 H 271.831 -3.34717 1.49533 0
M  V30 2987 H 271.479 -5.0191 -0.33102 0
M  V30 2988 H 271.179 -5.73674 1.27167 0
M  V30 2989 H 272.703 -6.09224 0.409669 0
M  V30 2990 H 274.117 -5.16688 2.48407 0
M  V30 2991 H 272.514 -5.03553 3.26427 0
M  V30 2992 H 273.584 -3.62257 3.22332 0
M  V30 2993 N 274.927 -0.932562 -1.27047 0
M  V30 2994 C 275.857 -0.452902 -2.29066 0
M  V30 2995 C 276.838 0.489338 -1.62909 0
M  V30 2996 O 278.023 0.393046 -1.90181 0
M  V30 2997 C 275.153 0.290698 -3.46081 0
M  V30 2998 C 274.107 -0.564168 -4.24265 0
M  V30 2999 C 273.433 0.308886 -5.33807 0
M  V30 3000 C 274.733 -1.83112 -4.89149 0
M  V30 3001 H 276.427 -1.30552 -2.69437 0
M  V30 3002 H 273.973 -0.629201 -1.29526 0
M  V30 3003 H 275.926 0.637233 -4.16554 0
M  V30 3004 H 274.65 1.17738 -3.0464 0
M  V30 3005 H 273.309 -0.893477 -3.55545 0
M  V30 3006 H 272.957 1.19467 -4.88607 0
M  V30 3007 H 272.657 -0.259633 -5.87026 0
M  V30 3008 H 274.181 0.650884 -6.07121 0
M  V30 3009 H 275.595 -1.55236 -5.51883 0
M  V30 3010 H 273.992 -2.34353 -5.52448 0
M  V30 3011 H 275.062 -2.54772 -4.12576 0
M  V30 3012 N 276.405 1.4127 -0.698611 0
M  V30 3013 C 277.653 2.00782 -0.230409 0
M  V30 3014 C 277.974 1.5562 1.17505 0
M  V30 3015 O 277.244 0.78815 1.79346 0
M  V30 3016 H 275.824 0.742464 -0.0821944 0
M  V30 3017 H 278.486 1.72852 -0.90045 0
M  V30 3018 H 277.582 3.11095 -0.25021 0
M  V30 3019 N 277.883 0.443576 1.51229 0
M  V30 3020 C 279.13 -0.120796 2.02139 0
M  V30 3021 C 279.458 -1.42166 1.32736 0
M  V30 3022 O 278.713 -1.90849 0.43301 0
M  V30 3023 C 279.012 -0.380579 3.55368 0
M  V30 3024 C 278.678 0.83523 4.43097 0
M  V30 3025 C 277.34 1.16864 4.66794 0
M  V30 3026 C 279.692 1.64601 4.94526 0
M  V30 3027 C 277.02 2.31339 5.39165 0
M  V30 3028 C 279.372 2.78181 5.68153 0
M  V30 3029 C 278.036 3.11969 5.90112 0
M  V30 3030 H 277.306 -0.0442023 0.73968 0
M  V30 3031 H 279.953 0.592046 1.82118 0
M  V30 3032 H 278.258 -1.17538 3.73754 0
M  V30 3033 H 279.955 -0.830777 3.923 0
M  V30 3034 H 276.545 0.565437 4.24854 0
M  V30 3035 H 280.729 1.40163 4.76097 0
M  V30 3036 H 275.985 2.57823 5.5438 0
M  V30 3037 H 280.159 3.41371 6.06992 0
M  V30 3038 H 277.786 4.00784 6.45969 0
M  V30 3039 N 279.361 -1.56624 0.175154 0
M  V30 3040 C 280.607 -1.9729 -0.469506 0
M  V30 3041 C 280.94 -1.06128 -1.62636 0
M  V30 3042 O 280.215 -0.109183 -1.94193 0
M  V30 3043 C 280.498 -3.47375 -0.948804 0
M  V30 3044 C 280.351 -4.49317 0.208491 0
M  V30 3045 C 281.67 -4.00652 -1.82116 0
M  V30 3046 H 278.789 -0.717317 -0.16919 0
M  V30 3047 H 281.431 -1.88184 0.262062 0
M  V30 3048 H 279.581 -3.55267 -1.57219 0
M  V30 3049 H 281.253 -4.53482 0.845682 0
M  V30 3050 H 279.496 -4.25121 0.863395 0
M  V30 3051 H 280.167 -5.51741 -0.169059 0
M  V30 3052 H 282.643 -3.95416 -1.2956 0
M  V30 3053 H 281.519 -5.06075 -2.12554 0
M  V30 3054 H 281.78 -3.44699 -2.7683 0
M  V30 3055 N 280.839 0.0985539 -1.57292 0
M  V30 3056 C 282.067 0.816318 -1.90115 0
M  V30 3057 C 282.482 1.72451 -0.768509 0
M  V30 3058 O 281.839 1.80643 0.259687 0
M  V30 3059 C 281.89 1.63259 -3.22535 0
M  V30 3060 O 281.611 0.760934 -4.31441 0
M  V30 3061 C 283.112 2.45372 -3.69199 0
M  V30 3062 H 280.332 0.233595 -0.629027 0
M  V30 3063 H 282.876 0.0768229 -2.04356 0
M  V30 3064 H 281.031 2.32463 -3.09903 0
M  V30 3065 H 281.445 1.32595 -5.07463 0
M  V30 3066 H 282.919 2.98144 -4.64558 0
M  V30 3067 H 283.396 3.23677 -2.96867 0
M  V30 3068 H 284.002 1.81373 -3.84687 0
M  V30 3069 N 282.317 1.53212 0.369288 0
M  V30 3070 C 283.563 1.69466 1.11397 0
M  V30 3071 C 283.896 0.443257 1.89074 0
M  V30 3072 O 283.171 -0.559386 1.86282 0
M  V30 3073 C 283.454 2.9422 2.07621 0
M  V30 3074 C 283.307 4.29508 1.33577 0
M  V30 3075 C 284.626 3.14565 3.07794 0
M  V30 3076 H 281.745 0.616667 0.403597 0
M  V30 3077 H 284.387 1.85845 0.395179 0
M  V30 3078 H 282.537 2.80387 2.68916 0
M  V30 3079 H 284.209 4.55147 0.750955 0
M  V30 3080 H 282.452 4.29088 0.637618 0
M  V30 3081 H 283.123 5.12926 2.03989 0
M  V30 3082 H 285.599 3.2756 2.56601 0
M  V30 3083 H 284.475 4.03297 3.72348 0
M  V30 3084 H 284.736 2.29675 3.77759 0
M  V30 3085 N 283.795 -0.628877 1.44509 0
M  V30 3086 C 285.02 -1.42048 1.5112 0
M  V30 3087 C 285.445 -1.87594 0.137818 0
M  V30 3088 O 284.803 -1.58873 -0.873437 0
M  V30 3089 C 284.851 -2.61541 2.48251 0
M  V30 3090 O 283.955 -3.61453 1.98559 0
M  V30 3091 H 283.296 -0.424942 0.510216 0
M  V30 3092 H 285.826 -0.767374 1.89664 0
M  V30 3093 H 285.836 -3.09057 2.66361 0
M  V30 3094 H 284.511 -2.27736 3.48007 0
M  V30 3095 H 283.088 -3.20731 1.90227 0
M  V30 3096 N 285.273 -1.31445 -0.869486 0
M  V30 3097 C 286.513 -1.22458 -1.63656 0
M  V30 3098 C 286.877 0.213846 -1.90805 0
M  V30 3099 O 288.078 0.427212 -2.65383 0
M  V30 3100 C 286.349 -2.04564 -2.93067 0
M  V30 3101 S 287.908 -2.12445 -3.83944 0
M  V30 3102 H 284.726 -0.436145 -0.561514 0
M  V30 3103 H 287.328 -1.66114 -1.03085 0
M  V30 3104 H 286.032 -3.0816 -2.71045 0
M  V30 3105 H 285.563 -1.6163 -3.58663 0
M  V30 3106 H 287.578 -1.26312 -4.79854 0
M  V30 3107 N 286.751 1.08385 -1.14413 0
M  V30 3108 C 287.998 1.80776 -0.912482 0
M  V30 3109 C 288.326 1.86236 0.560934 0
M  V30 3110 O 287.581 1.33431 1.43159 0
M  V30 3111 C 287.88 3.26273 -1.45879 0
M  V30 3112 C 287.546 3.4093 -2.95089 0
M  V30 3113 C 286.208 3.44638 -3.35824 0
M  V30 3114 C 288.56 3.44591 -3.91033 0
M  V30 3115 C 285.888 3.49597 -4.71167 0
M  V30 3116 C 288.24 3.51086 -5.26233 0
M  V30 3117 C 286.904 3.53067 -5.6648 0
M  V30 3118 H 286.174 0.661507 -0.333901 0
M  V30 3119 H 288.821 1.27613 -1.42784 0
M  V30 3120 H 287.126 3.82146 -0.864376 0
M  V30 3121 H 288.823 3.80839 -1.2555 0
M  V30 3122 H 285.413 3.38736 -2.62594 0
M  V30 3123 H 289.597 3.40957 -3.60641 0
M  V30 3124 H 284.853 3.49424 -5.0171 0
M  V30 3125 H 289.027 3.52864 -6.00383 0
M  V30 3126 H 286.654 3.56662 -6.71339 0
M  V30 3127 N 288.23 0.939286 1.26551 0
M  V30 3128 C 289.477 0.585847 1.9384 0
M  V30 3129 C 289.805 -0.874784 1.73718 0
M  V30 3130 O 289.06 -1.64092 1.06642 0
M  V30 3131 C 289.359 0.872106 3.46596 0
M  V30 3132 C 289.025 2.31632 3.86856 0
M  V30 3133 C 287.687 2.71111 3.97558 0
M  V30 3134 C 290.039 3.25494 4.07066 0
M  V30 3135 C 287.367 4.03553 4.25866 0
M  V30 3136 C 289.719 4.57531 4.36862 0
M  V30 3137 C 288.383 4.96828 4.45778 0
M  V30 3138 H 287.653 0.214377 0.709312 0
M  V30 3139 H 290.3 1.18544 1.50398 0
M  V30 3140 H 288.605 0.18996 3.91339 0
M  V30 3141 H 290.302 0.577442 3.96821 0
M  V30 3142 H 286.892 2.00008 3.79071 0
M  V30 3143 H 291.076 2.9619 3.98227 0
M  V30 3144 H 286.332 4.33665 4.30981 0
M  V30 3145 H 290.506 5.30254 4.51446 0
M  V30 3146 H 288.133 5.99482 4.67468 0
M  V30 3147 N 289.708 -1.40897 0.706093 0
M  V30 3148 C 290.955 -2.01054 0.241531 0
M  V30 3149 C 291.283 -1.55956 -1.16223 0
M  V30 3150 O 290.538 -0.766336 -1.80072 0
M  V30 3151 C 290.837 -3.5646 0.259099 0
M  V30 3152 C 290.503 -4.21106 1.61184 0
M  V30 3153 C 289.165 -4.38479 1.98216 0
M  V30 3154 C 291.517 -4.57256 2.50132 0
M  V30 3155 C 288.845 -4.89282 3.2376 0
M  V30 3156 C 291.197 -5.09454 3.7502 0
M  V30 3157 C 289.861 -5.25037 4.12181 0
M  V30 3158 H 289.131 -0.73571 0.0883825 0
M  V30 3159 H 291.778 -1.68645 0.907257 0
M  V30 3160 H 290.083 -3.88721 -0.490189 0
M  V30 3161 H 291.78 -4.00826 -0.11804 0
M  V30 3162 H 288.37 -4.07966 1.31384 0
M  V30 3163 H 292.554 -4.43479 2.228 0
M  V30 3164 H 287.81 -4.99531 3.52532 0
M  V30 3165 H 291.984 -5.36404 4.44121 0
M  V30 3166 H 289.611 -5.64164 5.09532 0
M  V30 3167 N 291.186 -0.45159 -1.50991 0
M  V30 3168 C 292.435 0.111653 -2.01391 0
M  V30 3169 C 292.748 1.42529 -1.33959 0
M  V30 3170 O 293.954 2.07232 -1.75405 0
M  V30 3171 C 292.41 0.249514 -3.59034 0
M  V30 3172 C 292.018 -1.05453 -4.35412 0
M  V30 3173 C 293.762 0.765762 -4.17536 0
M  V30 3174 C 291.669 -0.881529 -5.84793 0
M  V30 3175 H 290.599 0.0455022 -0.752626 0
M  V30 3176 H 293.25 -0.583524 -1.73975 0
M  V30 3177 H 291.632 1.00803 -3.82955 0
M  V30 3178 H 292.806 -1.82248 -4.23229 0
M  V30 3179 H 291.121 -1.50039 -3.88429 0
M  V30 3180 H 293.718 0.911913 -5.26866 0
M  V30 3181 H 294.061 1.75201 -3.77638 0
M  V30 3182 H 294.594 0.0651744 -3.97747 0
M  V30 3183 H 291.333 -1.84057 -6.29129 0
M  V30 3184 H 290.853 -0.153625 -5.99603 0
M  V30 3185 H 292.532 -0.540363 -6.4474 0
M  V30 3186 N 292.664 1.56529 -0.183458 0
M  V30 3187 C 294.075 1.83739 0.331177 0
M  V30 3188 C 294.426 1.10373 1.62211 0
M  V30 3189 O 293.551 0.36071 2.13373 0
M  V30 3190 C 294.146 3.33306 0.607646 0
M  V30 3191 C 292.705 3.60969 1.06668 0
M  V30 3192 C 291.852 2.77086 0.109029 0
M  V30 3193 H 294.803 1.53379 -0.407484 0
M  V30 3194 H 294.824 3.51444 1.45832 0
M  V30 3195 H 294.336 3.86677 -0.332086 0
M  V30 3196 H 292.437 3.13021 2.0211 0
M  V30 3197 H 292.55 4.69231 0.967447 0
M  V30 3198 H 290.914 2.47319 0.608714 0
M  V30 3199 H 291.697 3.33241 -0.82494 0
M  V30 3200 N 294.142 -0.090211 1.57342 0
M  V30 3201 C 295.105 -1.09335 2.01441 0
M  V30 3202 C 296.105 -1.32666 0.908641 0
M  V30 3203 O 297.295 -1.28697 1.174 0
M  V30 3204 C 294.427 -2.44136 2.3793 0
M  V30 3205 H 295.62 -0.713662 2.91285 0
M  V30 3206 H 293.173 -0.335404 1.52659 0
M  V30 3207 H 293.908 -2.86972 1.51055 0
M  V30 3208 H 293.693 -2.28548 3.18603 0
M  V30 3209 H 295.183 -3.16277 2.72688 0
M  V30 3210 N 295.62 -1.53406 -0.361157 0
M  V30 3211 C 296.583 -1.79479 -1.42548 0
M  V30 3212 C 297.583 -0.665327 -1.4639 0
M  V30 3213 O 298.773 -0.933549 -1.47073 0
M  V30 3214 C 295.905 -1.92087 -2.8163 0
M  V30 3215 H 297.098 -2.74538 -1.20701 0
M  V30 3216 H 294.651 -1.4455 -0.594546 0
M  V30 3217 H 295.386 -0.991099 -3.08784 0
M  V30 3218 H 295.171 -2.74241 -2.80239 0
M  V30 3219 H 296.661 -2.13836 -3.58697 0
M  V30 3220 N 297.098 0.621204 -1.44841 0
M  V30 3221 C 298.344 1.3826 -1.48365 0
M  V30 3222 C 298.677 1.93831 -0.119624 0
M  V30 3223 O 297.952 1.74251 0.864111 0
M  V30 3224 C 298.235 2.54058 -2.55199 0
M  V30 3225 C 298.088 2.03772 -4.00995 0
M  V30 3226 C 299.407 3.56225 -2.58442 0
M  V30 3227 H 296.526 0.501374 -0.540179 0
M  V30 3228 H 299.168 0.7015 -1.76576 0
M  V30 3229 H 297.318 3.12162 -2.31274 0
M  V30 3230 H 298.99 1.50423 -4.36086 0
M  V30 3231 H 297.233 1.34876 -4.12299 0
M  V30 3232 H 297.904 2.87185 -4.71411 0
M  V30 3233 H 300.38 3.07939 -2.79844 0
M  V30 3234 H 299.256 4.34756 -3.3508 0
M  V30 3235 H 299.517 4.10949 -1.63013 0
M  V30 3236 N 298.576 1.31904 0.862503 0
M  V30 3237 C 299.823 1.22017 1.61611 0
M  V30 3238 C 300.151 -0.21991 1.93253 0
M  V30 3239 O 299.406 -1.17076 1.56817 0
M  V30 3240 C 299.705 2.01713 2.95037 0
M  V30 3241 C 299.371 3.51145 2.82857 0
M  V30 3242 C 298.033 3.91889 2.79243 0
M  V30 3243 C 300.385 4.46204 2.69353 0
M  V30 3244 C 297.713 5.25947 2.59993 0
M  V30 3245 C 300.065 5.80397 2.5164 0
M  V30 3246 C 298.729 6.20352 2.46413 0
M  V30 3247 H 297.999 0.44649 0.591378 0
M  V30 3248 H 300.646 1.63248 1.00111 0
M  V30 3249 H 298.951 1.53185 3.60613 0
M  V30 3250 H 300.648 1.91437 3.52353 0
M  V30 3251 H 297.238 3.1878 2.86491 0
M  V30 3252 H 301.422 4.15652 2.71196 0
M  V30 3253 H 296.678 5.5597 2.54376 0
M  V30 3254 H 300.852 6.53676 2.40169 0
M  V30 3255 H 298.479 7.24172 2.31256 0
M  V30 3256 N 300.054 -1.07777 1.14986 0
M  V30 3257 C 301.279 -1.84558 0.946213 0
M  V30 3258 C 301.704 -1.81323 -0.500362 0
M  V30 3259 O 301.062 -1.20301 -1.35637 0
M  V30 3260 C 301.11 -3.29736 1.45968 0
M  V30 3261 O 300.214 -4.07149 0.65601 0
M  V30 3262 H 299.555 -0.571641 0.33782 0
M  V30 3263 H 302.085 -1.35991 1.52865 0
M  V30 3264 H 302.095 -3.80574 1.47063 0
M  V30 3265 H 300.77 -3.31406 2.51283 0
M  V30 3266 H 299.347 -3.65994 0.714322 0
M  V30 3267 N 301.532 -0.945985 -1.26051 0
M  V30 3268 C 302.778 -0.597002 -1.93814 0
M  V30 3269 C 303.111 0.862484 -1.73997 0
M  V30 3270 O 302.386 1.61769 -1.07986 0
M  V30 3271 C 302.669 -0.945937 -3.47454 0
M  V30 3272 C 302.522 -2.46052 -3.76535 0
M  V30 3273 C 303.841 -0.464785 -4.37639 0
M  V30 3274 H 300.96 -0.218366 -0.703907 0
M  V30 3275 H 303.602 -1.18107 -1.48831 0
M  V30 3276 H 301.752 -0.448902 -3.85898 0
M  V30 3277 H 303.424 -3.03065 -3.47778 0
M  V30 3278 H 301.667 -2.90194 -3.22444 0
M  V30 3279 H 302.338 -2.65517 -4.83947 0
M  V30 3280 H 304.814 -0.891016 -4.06448 0
M  V30 3281 H 303.69 -0.737712 -5.4392 0
M  V30 3282 H 303.951 0.635274 -4.37512 0
M  V30 3283 N 303.011 1.40521 -0.713556 0
M  V30 3284 C 303.941 2.33381 -0.0743864 0
M  V30 3285 C 304.922 1.52784 0.747735 0
M  V30 3286 O 306.107 1.81258 0.697071 0
M  V30 3287 C 303.237 3.36748 0.849598 0
M  V30 3288 C 302.191 4.27793 0.133247 0
M  V30 3289 C 301.517 5.21679 1.17281 0
M  V30 3290 C 302.817 5.12415 -1.01134 0
M  V30 3291 H 304.511 2.87081 -0.850007 0
M  V30 3292 H 302.057 1.38034 -0.410201 0
M  V30 3293 H 304.01 4.00648 1.30612 0
M  V30 3294 H 302.734 2.81439 1.65709 0
M  V30 3295 H 301.393 3.65342 -0.303426 0
M  V30 3296 H 301.041 4.62677 1.9733 0
M  V30 3297 H 300.741 5.83435 0.698397 0
M  V30 3298 H 302.265 5.88456 1.62947 0
M  V30 3299 H 303.679 5.69781 -0.634274 0
M  V30 3300 H 302.076 5.83203 -1.41399 0
M  V30 3301 H 303.146 4.48514 -1.84292 0
M  V30 3302 N 304.489 0.459591 1.5075 0
M  V30 3303 C 305.399 -0.34613 2.32033 0
M  V30 3304 C 306.415 -1.00686 1.41909 0
M  V30 3305 O 307.591 -0.997361 1.7497 0
M  V30 3306 C 304.656 -1.42029 3.16273 0
M  V30 3307 C 303.717 -0.777362 4.22203 0
M  V30 3308 C 302.95 -1.80034 5.02418 0
M  V30 3309 O 303.173 -3.02544 4.83553 0
M  V30 3310 O 302.107 -1.37853 5.85901 0
M  V30 3311 H 305.933 0.318054 3.0203 0
M  V30 3312 H 303.518 0.221663 1.47746 0
M  V30 3313 H 305.4 -2.04275 3.68578 0
M  V30 3314 H 304.075 -2.06815 2.49016 0
M  V30 3315 H 302.982 -0.116256 3.73919 0
M  V30 3316 H 304.315 -0.172634 4.91897 0
M  V30 3317 N 305.967 -1.56429 0.191757 0
M  V30 3318 C 307.244 -1.89224 -0.495332 0
M  V30 3319 C 307.624 -1.10478 -1.79883 0
M  V30 3320 O 306.972 -0.204852 -2.2758 0
M  V30 3321 C 307.182 -3.41548 -0.717367 0
M  V30 3322 C 308.53 -4.11711 -1.03823 0
M  V30 3323 O 309.554 -3.4698 -0.805204 0
M  V30 3324 O 308.413 -5.2611 -1.47887 0
M  V30 3325 H 305.507 -0.785788 -0.25781 0
M  V30 3326 H 308.053 -1.68111 0.231721 0
M  V30 3327 H 306.825 -3.90772 0.203287 0
M  V30 3328 H 306.448 -3.68342 -1.497 0
M  V30 3329 N 307.445 0.0818655 -1.57387 0
M  V30 3330 C 308.722 0.815343 -1.77796 0
M  V30 3331 C 309.102 1.96289 -0.77679 0
M  V30 3332 O 308.45 2.27691 0.192106 0
M  V30 3333 C 308.66 1.29765 -3.23978 0
M  V30 3334 C 310.008 1.7351 -3.8753 0
M  V30 3335 O 311.032 1.39356 -3.27808 0
M  V30 3336 O 309.891 2.36708 -4.92576 0
M  V30 3337 H 306.985 0.389914 -0.729312 0
M  V30 3338 H 309.531 0.0627213 -1.69584 0
M  V30 3339 H 308.303 0.47608 -3.88393 0
M  V30 3340 H 307.926 2.11189 -3.36875 0
M  V30 3341 N 308.923 1.53595 0.353017 0
M  V30 3342 C 310.169 1.71581 1.09232 0
M  V30 3343 C 310.524 0.468328 1.86613 0
M  V30 3344 O 309.817 -0.538911 1.83865 0
M  V30 3345 C 310.011 2.91313 2.07054 0
M  V30 3346 C 309.84 4.27585 1.39287 0
M  V30 3347 C 308.61 4.92233 1.1417 0
M  V30 3348 C 310.808 5.07656 0.824005 0
M  V30 3349 N 308.79 6.124 0.428841 0
M  V30 3350 C 310.161 6.19531 0.241195 0
M  V30 3351 C 312.216 4.92609 0.723922 0
M  V30 3352 C 310.919 7.18002 -0.431952 0
M  V30 3353 C 312.945 5.91365 0.0645334 0
M  V30 3354 C 312.307 7.02571 -0.507347 0
M  V30 3355 H 308.406 0.680987 0.384422 0
M  V30 3356 H 310.99 1.91013 0.377096 0
M  V30 3357 H 309.161 2.73398 2.75877 0
M  V30 3358 H 310.893 2.98062 2.73753 0
M  V30 3359 H 307.648 4.51612 1.42631 0
M  V30 3360 H 308.072 6.76944 0.0874131 0
M  V30 3361 H 312.714 4.06808 1.15181 0
M  V30 3362 H 310.432 8.03384 -0.871758 0
M  V30 3363 H 314.018 5.81799 -0.0121469 0
M  V30 3364 H 312.898 7.77675 -1.0095 0
M  V30 3365 N 310.401 -0.613514 1.45168 0
M  V30 3366 C 311.349 -1.74572 1.53712 0
M  V30 3367 C 312.343 -1.64426 0.407505 0
M  V30 3368 O 313.549 -1.70291 0.583176 0
M  V30 3369 H 309.924 -0.576641 0.48269 0
M  V30 3370 H 311.895 -1.64492 2.48968 0
M  V30 3371 C 310.644 -3.12943 1.51532 0
M  V30 3372 H 309.967 -3.21407 2.37776 0
M  V30 3373 H 311.407 -3.9201 1.61569 0
M  V30 3374 C 309.866 -3.36053 0.238798 0
M  V30 3375 O 310.396 -3.95837 -0.6838 0
M  V30 3376 N 308.602 -2.9028 0.136359 0
M  V30 3377 H 308.149 -2.41811 0.887999 0
M  V30 3378 H 308.107 -3.06116 -0.716944 0
M  V30 3379 N 311.879 -1.3236 -0.855495 0
M  V30 3380 C 313.126 -1.22872 -1.60962 0
M  V30 3381 C 313.454 0.209658 -1.93367 0
M  V30 3382 O 312.709 1.16243 -1.57436 0
M  V30 3383 C 313.008 -2.03275 -2.93963 0
M  V30 3384 C 312.674 -3.5264 -2.80991 0
M  V30 3385 C 311.336 -3.93364 -2.7716 0
M  V30 3386 C 313.688 -4.47626 -2.66983 0
M  V30 3387 C 311.016 -5.27319 -2.572 0
M  V30 3388 C 313.368 -5.81723 -2.48558 0
M  V30 3389 C 312.032 -6.2165 -2.4312 0
M  V30 3390 H 311.302 -0.44962 -0.589001 0
M  V30 3391 H 313.949 -1.63777 -0.992442 0
M  V30 3392 H 312.254 -1.55095 -3.59795 0
M  V30 3393 H 313.951 -1.93303 -3.51333 0
M  V30 3394 H 310.541 -3.20295 -2.84797 0
M  V30 3395 H 314.725 -4.17084 -2.68988 0
M  V30 3396 H 309.981 -5.57311 -2.51424 0
M  V30 3397 H 314.155 -6.5494 -2.36699 0
M  V30 3398 H 311.782 -7.25388 -2.27412 0
M  V30 3399 N 313.357 1.07166 -1.15556 0
M  V30 3400 C 314.287 2.16403 -0.877046 0
M  V30 3401 C 315.268 1.69217 0.173111 0
M  V30 3402 O 316.453 1.94181 0.027084 0
M  V30 3403 C 313.583 3.45349 -0.367632 0
M  V30 3404 C 312.537 4.05995 -1.35468 0
M  V30 3405 C 311.863 5.30045 -0.704038 0
M  V30 3406 C 313.163 4.45804 -2.72132 0
M  V30 3407 H 314.857 2.39959 -1.79053 0
M  V30 3408 H 312.403 1.15325 -0.862331 0
M  V30 3409 H 314.356 4.21095 -0.160317 0
M  V30 3410 H 313.08 3.21385 0.581326 0
M  V30 3411 H 311.739 3.32296 -1.54839 0
M  V30 3412 H 311.387 5.02373 0.251128 0
M  V30 3413 H 311.087 5.71579 -1.36277 0
M  V30 3414 H 312.611 6.08495 -0.50654 0
M  V30 3415 H 314.025 5.12671 -2.56595 0
M  V30 3416 H 312.422 4.98296 -3.34397 0
M  V30 3417 H 313.492 3.57083 -3.28054 0
M  V30 3418 N 314.835 0.952656 1.25548 0
M  V30 3419 C 315.745 0.47782 2.29682 0
M  V30 3420 C 316.761 -0.453859 1.67977 0
M  V30 3421 O 317.937 -0.330587 1.98668 0
M  V30 3422 C 315.002 -0.238655 3.45878 0
M  V30 3423 C 314.063 0.730994 4.23031 0
M  V30 3424 C 313.296 0.0486165 5.33678 0
M  V30 3425 O 313.519 -1.16612 5.58353 0
M  V30 3426 O 312.453 0.733152 5.97418 0
M  V30 3427 H 316.279 1.34312 2.72386 0
M  V30 3428 H 313.864 0.719026 1.30959 0
M  V30 3429 H 315.746 -0.641774 4.16484 0
M  V30 3430 H 314.421 -1.07916 3.05181 0
M  V30 3431 H 313.328 1.18428 3.5486 0
M  V30 3432 H 314.661 1.53946 4.67506 0
M  V30 3433 N 316.313 -1.40141 0.720998 0
M  V30 3434 C 317.538 -2.05618 0.271258 0
M  V30 3435 C 317.963 -1.53978 -1.08039 0
M  V30 3436 O 317.321 -0.677463 -1.68167 0
M  V30 3437 C 317.369 -3.59609 0.267197 0
M  V30 3438 O 316.473 -4.05526 -0.749814 0
M  V30 3439 H 315.814 -0.651904 0.126162 0
M  V30 3440 H 318.344 -1.79439 0.982997 0
M  V30 3441 H 318.354 -4.0786 0.106744 0
M  V30 3442 H 317.029 -3.96559 1.25354 0
M  V30 3443 H 315.606 -3.68722 -0.556644 0
M  V30 3444 N 317.792 -0.46758 -1.50504 0
M  V30 3445 C 319.039 0.0886219 -2.02306 0
M  V30 3446 C 319.367 1.40037 -1.34981 0
M  V30 3447 O 318.622 1.90136 -0.463318 0
M  V30 3448 C 318.921 0.323995 -3.55928 0
M  V30 3449 C 318.587 -0.905618 -4.41712 0
M  V30 3450 C 317.249 -1.24275 -4.64875 0
M  V30 3451 C 319.601 -1.72448 -4.91845 0
M  V30 3452 C 316.929 -2.39888 -5.35417 0
M  V30 3453 C 319.281 -2.87185 -5.63656 0
M  V30 3454 C 317.945 -3.21317 -5.85074 0
M  V30 3455 H 317.215 0.0324291 -0.74029 0
M  V30 3456 H 319.862 -0.620945 -1.81153 0
M  V30 3457 H 318.167 1.11577 -3.75577 0
M  V30 3458 H 319.864 0.76826 -3.93572 0
M  V30 3459 H 316.454 -0.632956 -4.239 0
M  V30 3460 H 320.638 -1.4772 -4.73806 0
M  V30 3461 H 315.894 -2.66611 -5.50208 0
M  V30 3462 H 320.068 -3.50985 -6.01484 0
M  V30 3463 H 317.695 -4.1101 -6.39511 0
M  V30 3464 N 319.27 1.56325 -0.20005 0
M  V30 3465 C 320.5 2.01811 0.442232 0
M  V30 3466 C 320.908 1.07932 1.55394 0
M  V30 3467 O 320.251 0.0772685 1.83537 0
M  V30 3468 C 320.313 3.43685 1.05457 0
M  V30 3469 C 319.977 4.56928 0.0809833 0
M  V30 3470 C 320.974 5.15009 -0.711471 0
M  V30 3471 C 318.659 5.0229 -0.0315364 0
M  V30 3472 C 320.653 6.16904 -1.60336 0
M  V30 3473 C 318.34 6.04028 -0.926981 0
M  V30 3474 C 319.338 6.6121 -1.71146 0
M  V30 3475 O 319.026 7.60971 -2.59189 0
M  V30 3476 H 318.758 0.666173 0.114848 0
M  V30 3477 H 321.312 2.03085 -0.307511 0
M  V30 3478 H 319.542 3.39413 1.85299 0
M  V30 3479 H 321.231 3.72948 1.60201 0
M  V30 3480 H 321.997 4.80827 -0.634873 0
M  V30 3481 H 317.876 4.57476 0.568902 0
M  V30 3482 H 321.42 6.61464 -2.21611 0
M  V30 3483 H 317.317 6.37634 -1.00468 0
M  V30 3484 H 318.085 7.7841 -2.53023 0
M  V30 3485 N 320.748 -0.0735177 1.57428 0
M  V30 3486 C 321.995 -0.772999 1.87166 0
M  V30 3487 C 322.323 -1.77665 0.791551 0
M  V30 3488 O 321.578 -1.94541 -0.212636 0
M  V30 3489 C 321.877 -1.51799 3.23561 0
M  V30 3490 C 321.543 -0.654484 4.46125 0
M  V30 3491 C 320.205 -0.416511 4.79394 0
M  V30 3492 C 322.557 -0.0555862 5.2117 0
M  V30 3493 C 319.885 0.429869 5.85123 0
M  V30 3494 C 322.237 0.778239 6.27795 0
M  V30 3495 C 320.901 1.0261 6.59566 0
M  V30 3496 H 320.171 -0.282861 0.684888 0
M  V30 3497 H 322.818 -0.0338272 1.9147 0
M  V30 3498 H 321.123 -2.32932 3.1504 0
M  V30 3499 H 322.82 -2.06397 3.43804 0
M  V30 3500 H 319.41 -0.850091 4.20085 0
M  V30 3501 H 323.594 -0.226558 4.95783 0
M  V30 3502 H 318.85 0.630665 6.08139 0
M  V30 3503 H 323.024 1.24906 6.85107 0
M  V30 3504 H 320.651 1.68371 7.4132 0
M  V30 3505 N 322.226 -1.5378 -0.344866 0
M  V30 3506 C 323.466 -1.72677 -1.09371 0
M  V30 3507 C 323.83 -0.479084 -1.85927 0
M  V30 3508 O 325.031 -0.54505 -2.63216 0
M  V30 3509 C 323.302 -2.95457 -2.01097 0
M  V30 3510 S 324.861 -3.35158 -2.83222 0
M  V30 3511 H 321.679 -0.607402 -0.369573 0
M  V30 3512 H 324.281 -1.91922 -0.372307 0
M  V30 3513 H 322.985 -3.84437 -1.43655 0
M  V30 3514 H 322.516 -2.78673 -2.77678 0
M  V30 3515 H 324.531 -2.88789 -4.03504 0
M  V30 3516 N 323.704 0.605807 -1.45491 0
M  V30 3517 C 324.951 1.36476 -1.49601 0
M  V30 3518 C 325.279 1.94007 -0.138452 0
M  V30 3519 O 324.534 1.75638 0.863114 0
M  V30 3520 C 324.833 2.53012 -2.52428 0
M  V30 3521 C 324.499 2.13617 -3.97087 0
M  V30 3522 C 323.161 2.02587 -4.36477 0
M  V30 3523 C 325.513 1.82899 -4.88055 0
M  V30 3524 C 322.841 1.59064 -5.64726 0
M  V30 3525 C 325.193 1.40861 -6.16718 0
M  V30 3526 C 323.857 1.28391 -6.55036 0
M  V30 3527 H 323.127 0.499402 -0.547429 0
M  V30 3528 H 325.774 0.684546 -1.78847 0
M  V30 3529 H 324.079 3.26379 -2.16758 0
M  V30 3530 H 325.776 3.1124 -2.52845 0
M  V30 3531 H 322.366 2.23129 -3.65939 0
M  V30 3532 H 326.55 1.90317 -4.58359 0
M  V30 3533 H 321.806 1.48034 -5.93208 0
M  V30 3534 H 325.98 1.16138 -6.86648 0
M  V30 3535 H 323.607 0.944403 -7.54311 0
M  V30 3536 N 325.182 1.32811 0.848464 0
M  V30 3537 C 326.431 1.23075 1.59798 0
M  V30 3538 C 326.744 -0.204419 1.94529 0
M  V30 3539 O 327.95 -0.423701 2.68173 0
M  V30 3540 C 326.406 2.15594 2.88179 0
M  V30 3541 C 326.014 3.64228 2.60849 0
M  V30 3542 C 327.758 2.14709 3.66197 0
M  V30 3543 C 325.665 4.48689 3.85269 0
M  V30 3544 H 324.595 0.457091 0.599653 0
M  V30 3545 H 327.246 1.57813 0.936342 0
M  V30 3546 H 325.628 1.73778 3.55833 0
M  V30 3547 H 326.802 4.14424 2.01467 0
M  V30 3548 H 325.117 3.67306 1.96151 0
M  V30 3549 H 327.714 2.75046 4.58534 0
M  V30 3550 H 328.057 1.13966 4.00397 0
M  V30 3551 H 328.59 2.54837 3.05455 0
M  V30 3552 H 325.329 5.5027 3.56207 0
M  V30 3553 H 324.849 4.03241 4.44024 0
M  V30 3554 H 326.528 4.62006 4.52946 0
M  V30 3555 N 326.66 -1.06551 1.16123 0
M  V30 3556 C 327.885 -1.83544 0.965735 0
M  V30 3557 C 328.31 -1.81843 -0.481102 0
M  V30 3558 O 327.668 -1.21732 -1.34354 0
M  V30 3559 C 327.716 -3.28169 1.49457 0
M  V30 3560 O 326.82 -4.0643 0.699157 0
M  V30 3561 H 326.161 -0.568026 0.343864 0
M  V30 3562 H 328.691 -1.34362 1.54299 0
M  V30 3563 H 328.701 -3.78992 1.51092 0
M  V30 3564 H 327.376 -3.28722 2.54784 0
M  V30 3565 H 325.953 -3.65216 0.7531 0
M  V30 3566 N 328.138 -0.959301 -1.25041 0
M  V30 3567 C 329.068 -0.501388 -2.28053 0
M  V30 3568 C 330.049 0.454673 -1.63911 0
M  V30 3569 O 331.234 0.352618 -1.90972 0
M  V30 3570 C 328.364 0.217224 -3.4662 0
M  V30 3571 C 327.318 -0.654034 -4.22973 0
M  V30 3572 C 326.644 0.195589 -5.34342 0
M  V30 3573 C 327.944 -1.93447 -4.85155 0
M  V30 3574 H 329.638 -1.36238 -2.66608 0
M  V30 3575 H 327.184 -0.656534 -1.28163 0
M  V30 3576 H 329.137 0.548732 -4.17812 0
M  V30 3577 H 327.861 1.1125 -3.07068 0
M  V30 3578 H 326.52 -0.968693 -3.5357 0
M  V30 3579 H 326.168 1.09076 -4.91031 0
M  V30 3580 H 325.868 -0.384091 -5.86343 0
M  V30 3581 H 327.392 0.521958 -6.08365 0
M  V30 3582 H 328.806 -1.66908 -5.48466 0
M  V30 3583 H 327.203 -2.46018 -5.47353 0
M  V30 3584 H 328.273 -2.63466 -4.07079 0
M  V30 3585 N 329.616 1.39756 -0.72842 0
M  V30 3586 C 330.841 2.05472 -0.282159 0
M  V30 3587 C 331.266 1.54549 1.07221 0
M  V30 3588 O 330.624 0.686372 1.67805 0
M  V30 3589 C 330.672 3.59462 -0.286264 0
M  V30 3590 O 329.776 4.05918 0.728298 0
M  V30 3591 H 329.117 0.651226 -0.129618 0
M  V30 3592 H 331.647 1.78915 -0.992499 0
M  V30 3593 H 331.657 4.07798 -0.128373 0
M  V30 3594 H 330.332 3.95889 -1.27456 0
M  V30 3595 H 328.909 3.69012 0.537081 0
M  V30 3596 N 331.094 0.475555 1.50254 0
M  V30 3597 C 332.322 -0.0754493 2.06762 0
M  V30 3598 C 332.737 -1.33111 1.33891 0
M  V30 3599 O 332.094 -1.77846 0.40952 0
M  V30 3600 C 332.145 -0.359008 3.59713 0
M  V30 3601 O 331.866 0.846851 4.29837 0
M  V30 3602 C 333.367 -0.956484 4.32858 0
M  V30 3603 H 330.587 0.00907525 0.670939 0
M  V30 3604 H 333.131 0.665618 1.93364 0
M  V30 3605 H 331.286 -1.05001 3.72899 0
M  V30 3606 H 331.7 0.594162 5.21124 0
M  V30 3607 H 333.174 -1.10463 5.40834 0
M  V30 3608 H 333.651 -1.94775 3.93649 0
M  V30 3609 H 334.257 -0.303723 4.24214 0
M  V30 3610 N 332.573 -1.56217 0.208337 0
M  V30 3611 C 333.822 -1.97124 -0.427204 0
M  V30 3612 C 334.135 -1.09859 -1.61835 0
M  V30 3613 O 335.341 -1.40606 -2.32255 0
M  V30 3614 C 333.797 -3.50633 -0.811442 0
M  V30 3615 C 333.405 -4.46582 0.35615 0
M  V30 3616 C 335.149 -4.00282 -1.41332 0
M  V30 3617 C 333.056 -5.91379 -0.0497852 0
M  V30 3618 H 331.986 -0.736086 -0.163381 0
M  V30 3619 H 334.637 -1.8099 0.302456 0
M  V30 3620 H 333.019 -3.62319 -1.59815 0
M  V30 3621 H 334.193 -4.46636 1.1337 0
M  V30 3622 H 332.508 -4.07202 0.870396 0
M  V30 3623 H 335.105 -5.0595 -1.72972 0
M  V30 3624 H 335.448 -3.45359 -2.32449 0
M  V30 3625 H 335.981 -3.91764 -0.690323 0
M  V30 3626 H 332.72 -6.50255 0.827529 0
M  V30 3627 H 332.24 -5.94549 -0.791926 0
M  V30 3628 H 333.919 -6.45209 -0.481042 0
M  V30 3629 N 334.051 0.0651679 -1.57465 0
M  V30 3630 C 335.299 0.761555 -1.87202 0
M  V30 3631 C 335.62 1.77778 -0.801243 0
M  V30 3632 O 334.89 1.95166 0.16937 0
M  V30 3633 H 333.47 0.284251 -0.690804 0
M  V30 3634 H 336.132 0.0396827 -1.9486 0
M  V30 3635 H 335.228 1.27365 -2.84929 0
M  V30 3636 N 335.529 1.53961 0.336706 0
M  V30 3637 C 336.459 1.85417 1.41925 0
M  V30 3638 C 337.44 0.709856 1.5458 0
M  V30 3639 O 338.625 0.962396 1.68676 0
M  V30 3640 C 335.755 2.06985 2.78881 0
M  V30 3641 C 334.709 3.22813 2.81026 0
M  V30 3642 C 334.035 3.29727 4.20932 0
M  V30 3643 C 335.335 4.60767 2.45949 0
M  V30 3644 H 337.029 2.76079 1.15848 0
M  V30 3645 H 334.575 1.32839 0.555859 0
M  V30 3646 H 336.528 2.27575 3.54665 0
M  V30 3647 H 335.252 1.13061 3.06406 0
M  V30 3648 H 333.911 3.0209 2.07695 0
M  V30 3649 H 333.559 2.33385 4.45579 0
M  V30 3650 H 333.259 4.07566 4.23277 0
M  V30 3651 H 334.783 3.52536 4.98549 0
M  V30 3652 H 336.197 4.81325 3.11446 0
M  V30 3653 H 334.594 5.4106 2.59566 0
M  V30 3654 H 335.664 4.6391 1.41122 0
M  V30 3655 N 337.007 -0.598083 1.45811 0
M  V30 3656 C 338.255 -1.35413 1.50026 0
M  V30 3657 C 338.576 -1.94444 0.147177 0
M  V30 3658 O 337.846 -1.77701 -0.824571 0
M  V30 3659 H 336.426 -0.502727 0.552517 0
M  V30 3660 H 339.088 -0.701606 1.81834 0
M  V30 3661 H 338.184 -2.16871 2.2444 0
M  V30 3662 N 338.485 -1.33259 -0.841409 0
M  V30 3663 C 339.762 -1.15174 -1.58096 0
M  V30 3664 C 340.142 0.282858 -2.09196 0
M  V30 3665 O 339.49 1.28151 -1.89181 0
M  V30 3666 C 339.7 -2.1907 -2.71679 0
M  V30 3667 C 341.048 -2.53093 -3.40924 0
M  V30 3668 O 342.072 -2.17717 -2.81918 0
M  V30 3669 O 340.931 -3.1379 -4.47435 0
M  V30 3670 H 338.025 -0.445303 -0.696875 0
M  V30 3671 H 340.571 -1.44833 -0.884385 0
M  V30 3672 H 339.343 -3.15443 -2.31541 0
M  V30 3673 H 338.966 -1.90481 -3.49002 0
M  V30 3674 N 339.963 1.05934 -1.16686 0
M  V30 3675 C 341.193 1.82226 -0.973515 0
M  V30 3676 C 341.601 1.8297 0.481532 0
M  V30 3677 O 340.944 1.25009 1.34604 0
M  V30 3678 C 341.006 3.29897 -1.42858 0
M  V30 3679 C 340.67 3.52849 -2.90425 0
M  V30 3680 C 341.667 3.45595 -3.88407 0
M  V30 3681 C 339.352 3.80053 -3.28428 0
M  V30 3682 C 341.346 3.65217 -5.22394 0
M  V30 3683 C 339.033 3.99325 -4.62583 0
M  V30 3684 C 340.031 3.91905 -5.59374 0
M  V30 3685 O 339.719 4.10647 -6.91104 0
M  V30 3686 H 339.451 0.581314 -0.345036 0
M  V30 3687 H 342.005 1.3453 -1.55212 0
M  V30 3688 H 340.235 3.78472 -0.793477 0
M  V30 3689 H 341.924 3.87692 -1.20207 0
M  V30 3690 H 342.69 3.24564 -3.60393 0
M  V30 3691 H 338.569 3.84936 -2.53664 0
M  V30 3692 H 342.113 3.59341 -5.9793 0
M  V30 3693 H 338.01 4.19846 -4.90306 0
M  V30 3694 H 338.778 4.27915 -6.97733 0
M  V30 3695 N 341.441 0.965919 1.2453 0
M  V30 3696 C 342.687 0.62776 1.92839 0
M  V30 3697 C 343.02 -0.834694 1.75347 0
M  V30 3698 O 342.295 -1.60031 1.10546 0
M  V30 3699 C 342.578 1.00109 3.45905 0
M  V30 3700 C 342.431 2.52011 3.72573 0
M  V30 3701 C 343.75 0.53435 4.36844 0
M  V30 3702 H 340.869 0.229537 0.700344 0
M  V30 3703 H 343.511 1.2046 1.46933 0
M  V30 3704 H 341.661 0.510238 3.85135 0
M  V30 3705 H 343.333 3.08559 3.42912 0
M  V30 3706 H 341.576 2.95287 3.17786 0
M  V30 3707 H 342.247 2.73183 4.79661 0
M  V30 3708 H 344.723 0.955565 4.04979 0
M  V30 3709 H 343.599 0.824152 5.42678 0
M  V30 3710 H 343.86 -0.565589 4.38467 0
M  V30 3711 N 342.919 -1.39368 0.735821 0
M  V30 3712 C 344.33 -1.83313 0.354015 0
M  V30 3713 C 344.681 -1.61461 -1.11466 0
M  V30 3714 O 343.806 -1.10621 -1.85989 0
M  V30 3715 C 344.401 -3.32781 0.635769 0
M  V30 3716 C 342.96 -3.75142 0.307448 0
M  V30 3717 C 342.107 -2.62358 0.897974 0
M  V30 3718 H 345.058 -1.28349 0.933398 0
M  V30 3719 H 345.079 -3.80388 -0.0921773 0
M  V30 3720 H 344.591 -3.48654 1.70476 0
M  V30 3721 H 342.692 -3.64857 -0.755674 0
M  V30 3722 H 342.805 -4.72532 0.790583 0
M  V30 3723 H 341.169 -2.52624 0.324551 0
M  V30 3724 H 341.952 -2.81036 1.97164 0
M  V30 3725 N 344.397 -0.483516 -1.5 0
M  V30 3726 C 345.645 0.067027 -2.01989 0
M  V30 3727 C 345.966 1.3909 -1.36671 0
M  V30 3728 O 345.236 1.88978 -0.516152 0
M  V30 3729 H 343.816 0.0277606 -0.746484 0
M  V30 3730 H 346.478 -0.636773 -1.84204 0
M  V30 3731 H 345.574 0.209484 -3.11396 0
M  V30 3732 N 345.875 1.56104 -0.216619 0
M  V30 3733 C 346.785 2.23694 0.706982 0
M  V30 3734 C 347.801 1.24295 1.21765 0
M  V30 3735 O 348.977 1.57094 1.2603 0
M  V30 3736 C 346.042 2.8998 1.90033 0
M  V30 3737 C 345.103 4.04708 1.43213 0
M  V30 3738 C 344.336 4.67824 2.56859 0
M  V30 3739 O 344.559 4.29913 3.74874 0
M  V30 3740 O 343.493 5.56905 2.28343 0
M  V30 3741 H 347.319 3.03272 0.161235 0
M  V30 3742 H 344.904 1.49394 0.0136177 0
M  V30 3743 H 346.786 3.31837 2.59735 0
M  V30 3744 H 345.461 2.13365 2.43428 0
M  V30 3745 H 344.368 3.6743 0.70327 0
M  V30 3746 H 345.701 4.83051 0.944615 0
M  V30 3747 N 347.353 -0.0568162 1.57498 0
M  V30 3748 C 348.601 -0.751617 1.87604 0
M  V30 3749 C 348.922 -1.77351 0.81066 0
M  V30 3750 O 348.192 -1.95254 -0.159018 0
M  V30 3751 H 346.772 -0.280583 0.692302 0
M  V30 3752 H 349.434 -0.0293483 1.94878 0
M  V30 3753 H 348.53 -1.25852 2.856 0
M  V30 3754 N 348.832 -1.54138 -0.328536 0
M  V30 3755 C 350.062 -1.75807 -1.08516 0
M  V30 3756 C 350.47 -0.50428 -1.82356 0
M  V30 3757 O 349.813 0.534451 -1.75754 0
M  V30 3758 C 349.875 -2.89423 -2.13248 0
M  V30 3759 C 349.539 -4.28504 -1.5885 0
M  V30 3760 C 350.536 -5.09536 -1.03289 0
M  V30 3761 C 348.221 -4.75034 -1.63243 0
M  V30 3762 C 350.215 -6.35206 -0.52845 0
M  V30 3763 C 347.902 -6.00672 -1.12411 0
M  V30 3764 C 348.9 -6.80592 -0.573062 0
M  V30 3765 O 348.588 -8.03867 -0.0723692 0
M  V30 3766 H 348.32 -0.590633 -0.328829 0
M  V30 3767 H 350.874 -2.01819 -0.381868 0
M  V30 3768 H 349.104 -2.5897 -2.87178 0
M  V30 3769 H 350.793 -2.98921 -2.74592 0
M  V30 3770 H 351.559 -4.74745 -0.99206 0
M  V30 3771 H 347.438 -4.12875 -2.05074 0
M  V30 3772 H 350.982 -6.97532 -0.0976774 0
M  V30 3773 H 346.879 -6.34955 -1.162 0
M  V30 3774 H 347.647 -8.18283 -0.188258 0
M  V30 3775 N 350.31 0.590341 -1.46126 0
M  V30 3776 C 351.258 1.72105 -1.5647 0
M  V30 3777 C 352.252 1.63756 -0.433612 0
M  V30 3778 O 353.458 1.69342 -0.610194 0
M  V30 3779 H 349.833 0.568889 -0.491802 0
M  V30 3780 H 351.804 1.6051 -2.51553 0
M  V30 3781 C 350.553 3.10493 -1.56491 0
M  V30 3782 H 349.876 3.17583 -2.4286 0
M  V30 3783 H 351.316 3.8939 -1.67785 0
M  V30 3784 C 349.775 3.3563 -0.292231 0
M  V30 3785 O 350.305 3.96875 0.620739 0
M  V30 3786 N 348.511 2.90026 -0.182523 0
M  V30 3787 H 348.058 2.40367 -0.926356 0
M  V30 3788 H 348.016 3.07218 0.668152 0
M  V30 3789 N 351.788 1.33704 0.83433 0
M  V30 3790 C 352.72 1.20172 1.9517 0
M  V30 3791 C 353.733 0.131572 1.62267 0
M  V30 3792 O 354.922 0.382406 1.74356 0
M  V30 3793 C 352.022 0.821716 3.28787 0
M  V30 3794 C 351.195 1.98446 3.89792 0
M  V30 3795 C 350.254 1.58469 5.01771 0
M  V30 3796 O 349.28 2.29968 5.20676 0
M  V30 3797 N 350.482 0.492291 5.78409 0
M  V30 3798 H 353.247 2.16429 2.07313 0
M  V30 3799 H 350.808 1.26509 1.0103 0
M  V30 3800 H 352.8 0.536291 4.01131 0
M  V30 3801 H 351.37 -0.0503058 3.1256 0
M  V30 3802 H 350.59 2.43526 3.09982 0
M  V30 3803 H 351.878 2.76236 4.27283 0
M  V30 3804 H 351.276 -0.102349 5.65607 0
M  V30 3805 H 349.833 0.266555 6.51255 0
M  V30 3806 N 353.266 -1.05314 1.17247 0
M  V30 3807 C 354.213 -2.13031 0.888058 0
M  V30 3808 C 355.183 -1.65253 -0.167537 0
M  V30 3809 O 356.368 -1.90775 -0.0305974 0
M  V30 3810 C 353.508 -3.42702 0.406147 0
M  V30 3811 C 352.621 -4.04161 1.52572 0
M  V30 3812 C 351.756 -5.21744 0.997808 0
M  V30 3813 C 350.795 -5.75207 2.09291 0
M  V30 3814 N 349.932 -6.84094 1.57986 0
M  V30 3815 H 354.772 -2.36698 1.81048 0
M  V30 3816 H 352.309 -1.16121 0.903013 0
M  V30 3817 H 354.267 -4.17059 0.108305 0
M  V30 3818 H 352.897 -3.19222 -0.479313 0
M  V30 3819 H 351.949 -3.27253 1.93931 0
M  V30 3820 H 353.261 -4.39881 2.35172 0
M  V30 3821 H 352.415 -6.03168 0.653739 0
M  V30 3822 H 351.154 -4.87495 0.141232 0
M  V30 3823 H 350.159 -4.92414 2.44557 0
M  V30 3824 H 351.384 -6.11505 2.95362 0
M  V30 3825 H 349.33 -6.51745 0.74598 0
M  V30 3826 H 349.247 -7.18811 2.34195 0
M  V30 3827 H 350.515 -7.69172 1.26468 0
M  V30 3828 N 354.744 -0.972509 -1.24016 0
M  V30 3829 C 355.991 -0.637034 -1.92219 0
M  V30 3830 C 356.319 0.828418 -1.75976 0
M  V30 3831 O 355.574 1.61206 -1.10955 0
M  V30 3832 C 355.873 -0.963694 -3.44162 0
M  V30 3833 C 355.539 -2.41807 -3.80579 0
M  V30 3834 C 354.201 -2.81556 -3.9023 0
M  V30 3835 C 356.553 -3.36172 -3.98293 0
M  V30 3836 C 353.881 -4.14702 -4.15017 0
M  V30 3837 C 356.233 -4.68952 -4.24578 0
M  V30 3838 C 354.897 -5.08472 -4.32449 0
M  V30 3839 H 354.167 -0.233107 -0.703379 0
M  V30 3840 H 356.814 -1.2249 -1.47202 0
M  V30 3841 H 355.119 -0.29365 -3.90698 0
M  V30 3842 H 356.816 -0.682449 -3.9515 0
M  V30 3843 H 353.406 -2.09988 -3.73635 0
M  V30 3844 H 357.59 -3.06644 -3.90234 0
M  V30 3845 H 352.846 -4.4494 -4.19331 0
M  V30 3846 H 357.02 -5.42037 -4.37229 0
M  V30 3847 H 354.647 -6.11665 -4.51409 0
M  V30 3848 N 356.222 1.38976 -0.743202 0
M  V30 3849 C 357.638 1.53984 -0.419664 0
M  V30 3850 C 357.838 1.70837 1.0685 0
M  V30 3851 O 356.894 1.7135 1.8546 0
M  V30 3852 C 358.207 2.75287 -1.20985 0
M  V30 3853 C 359.755 2.89129 -1.19889 0
M  V30 3854 C 360.23 4.13381 -1.97181 0
M  V30 3855 N 361.721 4.20437 -1.94389 0
M  V30 3856 C 362.456 5.15547 -2.50996 0
M  V30 3857 N 361.952 6.16395 -3.16274 0
M  V30 3858 N 363.745 5.07822 -2.40984 0
M  V30 3859 H 355.896 1.26285 -1.7078 0
M  V30 3860 H 358.159 0.612689 -0.723406 0
M  V30 3861 H 357.865 2.69204 -2.26323 0
M  V30 3862 H 357.739 3.68184 -0.819759 0
M  V30 3863 H 360.126 2.947 -0.153606 0
M  V30 3864 H 360.207 1.97272 -1.62841 0
M  V30 3865 H 359.851 4.08572 -3.01714 0
M  V30 3866 H 359.781 5.04298 -1.51629 0
M  V30 3867 H 362.272 3.48205 -1.46839 0
M  V30 3868 H 362.585 6.85443 -3.56915 0
M  V30 3869 H 360.93 6.16758 -3.20367 0
M  V30 3870 H 364.121 4.27973 -1.89622 0
M  V30 3871 H 364.294 5.81767 -2.85397 0
M  V30 3872 N 357.7 0.491464 1.49741 0
M  V30 3873 C 358.61 -0.296835 2.32715 0
M  V30 3874 C 359.626 -0.976536 1.44013 0
M  V30 3875 O 360.802 -0.960023 1.77047 0
M  V30 3876 C 357.867 -1.35288 3.19215 0
M  V30 3877 C 356.928 -0.687632 4.23757 0
M  V30 3878 C 356.161 -1.69336 5.06123 0
M  V30 3879 O 356.384 -2.92219 4.89861 0
M  V30 3880 O 355.318 -1.25394 5.88693 0
M  V30 3881 H 359.144 0.382048 3.01287 0
M  V30 3882 H 356.729 0.252953 1.47243 0
M  V30 3883 H 358.611 -1.96411 3.72828 0
M  V30 3884 H 357.286 -2.01487 2.53347 0
M  V30 3885 H 356.193 -0.0369159 3.74082 0
M  V30 3886 H 357.526 -0.0682566 4.92153 0
M  V30 3887 N 359.178 -1.55987 0.224894 0
M  V30 3888 C 360.108 -2.23426 -0.678457 0
M  V30 3889 C 361.089 -1.20709 -1.19847 0
M  V30 3890 O 362.274 -1.49304 -1.24186 0
M  V30 3891 C 359.404 -2.91676 -1.88527 0
M  V30 3892 C 358.358 -4.00893 -1.49896 0
M  V30 3893 C 357.684 -4.56455 -2.78483 0
M  V30 3894 C 358.984 -5.17769 -0.686461 0
M  V30 3895 H 360.678 -2.99175 -0.116173 0
M  V30 3896 H 358.224 -1.43897 -0.054436 0
M  V30 3897 H 360.177 -3.37547 -2.5227 0
M  V30 3898 H 358.901 -2.1338 -2.47258 0
M  V30 3899 H 357.56 -3.55758 -0.884985 0
M  V30 3900 H 357.208 -3.74886 -3.35365 0
M  V30 3901 H 356.908 -5.30169 -2.53368 0
M  V30 3902 H 358.432 -5.05047 -3.43162 0
M  V30 3903 H 359.846 -5.60001 -1.22767 0
M  V30 3904 H 358.243 -5.97735 -0.532259 0
M  V30 3905 H 359.313 -4.83932 0.306196 0
M  V30 3906 N 360.656 0.0484629 -1.57525 0
M  V30 3907 C 361.886 0.754326 -1.92337 0
M  V30 3908 C 362.294 1.70443 -0.82132 0
M  V30 3909 O 361.637 1.82466 0.21254 0
M  V30 3910 C 361.699 1.58231 -3.22805 0
M  V30 3911 C 361.363 0.799074 -4.4996 0
M  V30 3912 C 362.36 0.1079 -5.19788 0
M  V30 3913 C 360.045 0.759345 -4.96527 0
M  V30 3914 C 362.039 -0.612516 -6.3445 0
M  V30 3915 C 359.726 0.0351713 -6.1109 0
M  V30 3916 C 360.724 -0.649537 -6.79904 0
M  V30 3917 O 360.412 -1.36199 -7.92278 0
M  V30 3918 H 360.144 0.218257 -0.639797 0
M  V30 3919 H 362.698 0.0159295 -2.05394 0
M  V30 3920 H 360.928 2.36406 -3.06021 0
M  V30 3921 H 362.617 2.16898 -3.43089 0
M  V30 3922 H 363.383 0.129748 -4.84826 0
M  V30 3923 H 359.262 1.28177 -4.42822 0
M  V30 3924 H 362.806 -1.14751 -6.88097 0
M  V30 3925 H 358.703 0.0113314 -6.45499 0
M  V30 3926 H 359.471 -1.27366 -8.0853 0
M  V30 3927 N 362.134 1.5431 0.320358 0
M  V30 3928 C 363.081 1.83918 1.39438 0
M  V30 3929 C 364.051 0.686525 1.51248 0
M  V30 3930 O 365.236 0.933269 1.66417 0
M  V30 3931 C 362.376 2.075 2.75749 0
M  V30 3932 C 361.489 3.35177 2.72544 0
M  V30 3933 C 360.624 3.48704 4.00723 0
M  V30 3934 C 359.663 4.70244 3.91838 0
M  V30 3935 N 358.8 4.80679 5.11754 0
M  V30 3936 H 363.64 2.75544 1.13489 0
M  V30 3937 H 361.177 1.36459 0.549309 0
M  V30 3938 H 363.135 2.19166 3.54996 0
M  V30 3939 H 361.765 1.19163 3 0
M  V30 3940 H 360.817 3.32233 1.85271 0
M  V30 3941 H 362.129 4.24534 2.61863 0
M  V30 3942 H 361.283 3.59928 4.88402 0
M  V30 3943 H 360.022 2.57445 4.14214 0
M  V30 3944 H 359.027 4.59072 3.02544 0
M  V30 3945 H 360.252 5.6289 3.7991 0
M  V30 3946 H 358.198 3.92337 5.25745 0
M  V30 3947 H 358.115 5.64007 5.0342 0
M  V30 3948 H 359.383 4.96239 6.01138 0
M  V30 3949 N 363.613 -0.582584 1.46437 0
M  V30 3950 C 364.862 -1.337 1.5102 0
M  V30 3951 C 365.175 -1.94891 0.166359 0
M  V30 3952 O 366.381 -2.71351 0.0899954 0
M  V30 3953 C 364.837 -2.42315 2.66104 0
M  V30 3954 C 364.445 -1.87427 4.06909 0
M  V30 3955 C 366.189 -3.19099 2.79958 0
M  V30 3956 C 364.096 -2.93672 5.13333 0
M  V30 3957 H 363.026 -0.502619 0.562041 0
M  V30 3958 H 365.677 -0.621701 1.72647 0
M  V30 3959 H 364.059 -3.16645 2.37807 0
M  V30 3960 H 365.233 -1.19639 4.44998 0
M  V30 3961 H 363.548 -1.2331 3.97723 0
M  V30 3962 H 366.145 -3.9839 3.56636 0
M  V30 3963 H 366.488 -3.71695 1.87479 0
M  V30 3964 H 367.021 -2.51875 3.07902 0
M  V30 3965 H 363.76 -2.45962 6.07604 0
M  V30 3966 H 363.28 -3.59948 4.79789 0
M  V30 3967 H 364.959 -3.5762 5.39182 0
M  V30 3968 N 365.091 -1.34144 -0.827227 0
M  V30 3969 C 366.339 -1.26009 -1.58007 0
M  V30 3970 C 366.66 0.170971 -1.94249 0
M  V30 3971 O 365.93 1.10256 -1.61927 0
M  V30 3972 H 364.51 -0.463414 -0.585881 0
M  V30 3973 H 367.172 -1.68005 -0.987951 0
M  V30 3974 H 366.268 -1.86187 -2.50481 0
M  V30 3975 N 366.569 1.04691 -1.17803 0
M  V30 3976 C 367.818 1.77176 -0.963931 0
M  V30 3977 C 368.131 1.88888 0.508015 0
M  V30 3978 O 369.337 2.58164 0.840465 0
M  V30 3979 C 367.793 3.18518 -1.67555 0
M  V30 3980 C 367.401 3.14919 -3.18637 0
M  V30 3981 C 369.145 3.95424 -1.54402 0
M  V30 3982 C 367.052 4.51081 -3.82466 0
M  V30 3983 H 365.982 0.664116 -0.357023 0
M  V30 3984 H 368.633 1.17303 -1.4111 0
M  V30 3985 H 367.015 3.78748 -1.15613 0
M  V30 3986 H 368.189 2.64178 -3.77554 0
M  V30 3987 H 366.504 2.51512 -3.31859 0
M  V30 3988 H 369.101 4.96106 -1.99456 0
M  V30 3989 H 369.444 4.13343 -0.495329 0
M  V30 3990 H 369.977 3.41754 -2.0359 0
M  V30 3991 H 366.716 4.38368 -4.87354 0
M  V30 3992 H 366.236 5.01951 -3.28337 0
M  V30 3993 H 367.915 5.2001 -3.84965 0
M  V30 3994 N 368.047 0.979072 1.23499 0
M  V30 3995 C 369.275 0.665202 1.95915 0
M  V30 3996 C 369.69 -0.767571 1.72493 0
M  V30 3997 O 369.047 -1.51635 1.01554 0
M  V30 3998 C 369.098 0.944438 3.48945 0
M  V30 3999 O 368.819 2.3209 3.71572 0
M  V30 4000 C 370.32 0.646336 4.38563 0
M  V30 4001 H 367.54 0.247218 0.623798 0
M  V30 4002 H 370.084 1.31009 1.57025 0
M  V30 4003 H 368.239 0.345575 3.85856 0
M  V30 4004 H 368.653 2.40957 4.65876 0
M  V30 4005 H 370.127 0.892091 5.44744 0
M  V30 4006 H 370.604 -0.419575 4.37191 0
M  V30 4007 H 371.21 1.22562 4.07258 0
M  V30 4008 N 369.525 -1.3858 0.750561 0
M  V30 4009 C 370.765 -2.02032 0.310258 0
M  V30 4010 C 371.129 -1.58288 -1.08668 0
M  V30 4011 O 372.33 -2.14049 -1.62593 0
M  V30 4012 C 370.601 -3.54856 0.425647 0
M  V30 4013 S 372.16 -4.38748 0.0674797 0
M  V30 4014 H 368.978 -0.700705 0.120554 0
M  V30 4015 H 371.58 -1.69134 0.980512 0
M  V30 4016 H 370.284 -3.84182 1.44335 0
M  V30 4017 H 369.815 -3.92527 -0.261894 0
M  V30 4018 H 371.83 -4.82835 -1.14388 0
M  V30 4019 N 371.003 -0.499398 -1.49478 0
M  V30 4020 C 372.233 0.0424839 -2.06556 0
M  V30 4021 C 372.641 1.31514 -1.36018 0
M  V30 4022 O 371.984 1.78555 -0.431718 0
M  V30 4023 C 372.046 0.368074 -3.57611 0
M  V30 4024 C 371.71 -0.806631 -4.49825 0
M  V30 4025 C 372.707 -1.69667 -4.91436 0
M  V30 4026 C 370.392 -1.00498 -4.92144 0
M  V30 4027 C 372.386 -2.76923 -5.74101 0
M  V30 4028 C 370.073 -2.08072 -5.74586 0
M  V30 4029 C 371.071 -2.96119 -6.15469 0
M  V30 4030 O 370.759 -4.01836 -6.96264 0
M  V30 4031 H 370.491 -0.0165165 -0.675798 0
M  V30 4032 H 373.045 -0.695497 -1.93267 0
M  V30 4033 H 371.275 1.15963 -3.68903 0
M  V30 4034 H 372.964 0.848381 -3.96935 0
M  V30 4035 H 373.73 -1.55524 -4.59388 0
M  V30 4036 H 369.609 -0.329036 -4.59824 0
M  V30 4037 H 373.153 -3.45676 -6.05932 0
M  V30 4038 H 369.05 -2.22211 -6.06047 0
M  V30 4039 H 369.818 -3.9917 -7.14567 0
M  V30 4040 N 372.481 1.55866 -0.233164 0
M  V30 4041 C 373.411 2.23783 0.666599 0
M  V30 4042 C 374.392 1.21343 1.19205 0
M  V30 4043 O 375.577 1.4996 1.23392 0
M  V30 4044 C 372.707 2.92671 1.86978 0
M  V30 4045 C 371.661 4.01682 1.47768 0
M  V30 4046 C 370.987 4.57926 2.76058 0
M  V30 4047 C 372.287 5.18126 0.658993 0
M  V30 4048 H 373.981 2.99232 0.100306 0
M  V30 4049 H 371.527 1.43924 0.046804 0
M  V30 4050 H 373.48 3.3888 2.50476 0
M  V30 4051 H 372.204 2.14688 2.46123 0
M  V30 4052 H 370.863 3.56222 0.866106 0
M  V30 4053 H 370.511 3.76659 3.33372 0
M  V30 4054 H 370.211 5.31505 2.50552 0
M  V30 4055 H 371.735 5.06859 3.40479 0
M  V30 4056 H 373.149 5.60644 1.19795 0
M  V30 4057 H 371.546 5.98009 0.500552 0
M  V30 4058 H 372.616 4.83763 -0.331856 0
M  V30 4059 N 373.959 -0.0401083 1.57549 0
M  V30 4060 C 374.889 -1.04384 2.08869 0
M  V30 4061 C 375.87 -1.38407 0.988817 0
M  V30 4062 O 377.055 -1.47483 1.26342 0
M  V30 4063 C 374.185 -2.34808 2.55895 0
M  V30 4064 C 373.139 -2.15057 3.70047 0
M  V30 4065 C 372.465 -3.51145 4.03239 0
M  V30 4066 C 373.765 -1.54576 4.98902 0
M  V30 4067 H 375.459 -0.616666 2.92981 0
M  V30 4068 H 373.005 -0.295184 1.40942 0
M  V30 4069 H 374.958 -3.05346 2.90417 0
M  V30 4070 H 373.682 -2.79565 1.68853 0
M  V30 4071 H 372.341 -1.46954 3.35857 0
M  V30 4072 H 371.989 -3.93529 3.13279 0
M  V30 4073 H 371.689 -3.38758 4.80122 0
M  V30 4074 H 373.213 -4.23062 4.40285 0
M  V30 4075 H 374.627 -2.15017 5.31451 0
M  V30 4076 H 373.024 -1.52796 5.80322 0
M  V30 4077 H 374.094 -0.51039 4.82206 0
M  V30 4078 N 375.437 -1.54477 -0.31217 0
M  V30 4079 C 376.367 -1.87652 -1.38957 0
M  V30 4080 C 377.348 -0.734358 -1.53431 0
M  V30 4081 O 378.533 -0.98911 -1.67123 0
M  V30 4082 C 375.663 -2.11396 -2.75552 0
M  V30 4083 C 374.617 -3.27243 -2.75855 0
M  V30 4084 C 373.943 -3.36382 -4.15633 0
M  V30 4085 C 375.243 -4.64622 -2.38587 0
M  V30 4086 H 376.937 -2.77887 -1.11442 0
M  V30 4087 H 374.483 -1.33707 -0.534655 0
M  V30 4088 H 376.436 -2.33189 -3.51 0
M  V30 4089 H 375.16 -1.17921 -3.04569 0
M  V30 4090 H 373.819 -3.05356 -2.02863 0
M  V30 4091 H 373.467 -2.40445 -4.41809 0
M  V30 4092 H 373.167 -4.14249 -4.1674 0
M  V30 4093 H 374.691 -3.60422 -4.92877 0
M  V30 4094 H 376.105 -4.86219 -3.03749 0
M  V30 4095 H 374.502 -5.45121 -2.50925 0
M  V30 4096 H 375.572 -4.66097 -1.33723 0
M  V30 4097 N 376.915 0.57481 -1.46744 0
M  V30 4098 C 378.163 1.33009 -1.52161 0
M  V30 4099 C 378.484 1.94185 -0.178092 0
M  V30 4100 O 377.754 1.7899 0.796196 0
M  V30 4101 H 376.334 0.493873 -0.560445 0
M  V30 4102 H 378.996 0.672589 -1.82927 0
M  V30 4103 H 378.092 2.13273 -2.27862 0
M  V30 4104 N 378.394 1.34581 0.820102 0
M  V30 4105 C 379.324 1.29038 1.94606 0
M  V30 4106 C 380.305 0.1673 1.69275 0
M  V30 4107 O 381.49 0.360112 1.90832 0
M  V30 4108 C 378.62 1.04793 3.31113 0
M  V30 4109 C 377.574 2.13597 3.70891 0
M  V30 4110 C 376.9 1.74537 5.05412 0
M  V30 4111 C 378.2 3.55451 3.8269 0
M  V30 4112 H 379.894 2.23248 1.99501 0
M  V30 4113 H 377.44 1.0747 0.958449 0
M  V30 4114 H 379.393 0.995592 4.0947 0
M  V30 4115 H 378.117 0.0702565 3.26524 0
M  V30 4116 H 376.776 2.17905 2.9481 0
M  V30 4117 H 376.424 0.754226 4.97313 0
M  V30 4118 H 376.124 2.47361 5.32997 0
M  V30 4119 H 377.648 1.70803 5.86224 0
M  V30 4120 H 379.062 3.5354 4.51312 0
M  V30 4121 H 377.459 4.26922 4.21732 0
M  V30 4122 H 378.529 3.92587 2.84611 0
M  V30 4123 N 379.872 -1.04064 1.18357 0
M  V30 4124 C 381.121 -1.76662 0.973313 0
M  V30 4125 C 381.434 -1.89154 -0.497991 0
M  V30 4126 O 382.64 -2.58606 -0.826762 0
M  V30 4127 C 381.096 -3.17624 1.69242 0
M  V30 4128 C 380.704 -3.13225 3.20303 0
M  V30 4129 C 382.448 -3.946 1.56497 0
M  V30 4130 C 380.355 -4.49046 3.84853 0
M  V30 4131 H 379.285 -0.662214 0.36054 0
M  V30 4132 H 381.936 -1.16553 1.41731 0
M  V30 4133 H 380.318 -3.78129 1.1762 0
M  V30 4134 H 381.492 -2.62172 3.78949 0
M  V30 4135 H 379.807 -2.49749 3.33189 0
M  V30 4136 H 382.404 -4.95042 2.02084 0
M  V30 4137 H 382.747 -4.13074 0.517243 0
M  V30 4138 H 383.28 -3.4067 2.05399 0
M  V30 4139 H 380.019 -4.35777 4.89672 0
M  V30 4140 H 379.539 -5.00203 3.30994 0
M  V30 4141 H 381.218 -5.17961 3.87718 0
M  V30 4142 N 381.35 -0.985608 -1.22978 0
M  V30 4143 C 382.313 -0.535071 -2.22867 0
M  V30 4144 C 383.313 0.378123 -1.56291 0
M  V30 4145 O 384.503 0.171092 -1.73358 0
M  V30 4146 C 381.635 0.222702 -3.40172 0
M  V30 4147 H 382.828 -1.41835 -2.6424 0
M  V30 4148 H 380.381 -0.772042 -1.35901 0
M  V30 4149 H 381.116 1.12229 -3.04262 0
M  V30 4150 H 380.901 -0.43288 -3.89703 0
M  V30 4151 H 382.391 0.526335 -4.1427 0
M  V30 4152 N 382.828 1.3818 -0.7579 0
M  V30 4153 C 383.761 2.28055 -0.0814093 0
M  V30 4154 C 384.739 1.45603 0.723779 0
M  V30 4155 O 385.923 1.74961 0.701491 0
M  V30 4156 C 383.05 3.2676 0.891394 0
M  V30 4157 C 382.096 4.26153 0.171909 0
M  V30 4158 S 382.929 5.23434 -1.13035 0
M  V30 4159 C 384.085 6.25694 -0.160727 0
M  V30 4160 H 384.318 2.85082 -0.84353 0
M  V30 4161 H 381.851 1.44246 -0.550671 0
M  V30 4162 H 383.809 3.8414 1.44731 0
M  V30 4163 H 382.47 2.68706 1.62652 0
M  V30 4164 H 381.663 4.95738 0.908843 0
M  V30 4165 H 381.265 3.72691 -0.312606 0
M  V30 4166 H 383.557 6.74161 0.671773 0
M  V30 4167 H 384.5 7.03285 -0.824353 0
M  V30 4168 H 384.908 5.64064 0.221892 0
M  V30 4169 N 384.306 0.507319 1.49211 0
M  V30 4170 C 385.236 -0.256939 2.32082 0
M  V30 4171 C 386.217 -0.956609 1.40652 0
M  V30 4172 O 387.402 -0.946788 1.69557 0
M  V30 4173 C 384.532 -1.31802 3.21318 0
M  V30 4174 C 383.486 -0.737855 4.21592 0
M  V30 4175 C 382.812 -1.89992 4.99807 0
M  V30 4176 C 384.112 0.275325 5.21574 0
M  V30 4177 H 385.806 0.434798 2.96226 0
M  V30 4178 H 383.352 0.210546 1.42452 0
M  V30 4179 H 385.305 -1.86045 3.78107 0
M  V30 4180 H 384.029 -2.03903 2.5513 0
M  V30 4181 H 382.688 -0.217126 3.65956 0
M  V30 4182 H 382.336 -2.60877 4.30061 0
M  V30 4183 H 382.036 -1.51777 5.6766 0
M  V30 4184 H 383.56 -2.44657 5.59442 0
M  V30 4185 H 384.974 -0.179193 5.7302 0
M  V30 4186 H 383.371 0.573649 5.97352 0
M  V30 4187 H 384.441 1.18903 4.70096 0
M  V30 4188 N 385.784 -1.5574 0.241426 0
M  V30 4189 C 387.03 -1.99104 -0.385406 0
M  V30 4190 C 387.363 -1.1293 -1.57988 0
M  V30 4191 O 386.638 -0.191449 -1.93555 0
M  V30 4192 C 386.921 -3.51087 -0.800616 0
M  V30 4193 C 386.774 -4.48028 0.398874 0
M  V30 4194 C 388.093 -4.08015 -1.64959 0
M  V30 4195 H 385.212 -0.723848 -0.138614 0
M  V30 4196 H 387.854 -1.86903 0.341642 0
M  V30 4197 H 386.004 -3.61615 -1.4201 0
M  V30 4198 H 387.676 -4.49487 1.03726 0
M  V30 4199 H 385.919 -4.21077 1.04293 0
M  V30 4200 H 386.59 -5.51962 0.0651056 0
M  V30 4201 H 389.066 -4.00555 -1.12672 0
M  V30 4202 H 387.942 -5.14635 -1.90898 0
M  V30 4203 H 388.203 -3.56131 -2.61961 0
M  V30 4204 N 387.262 0.0317525 -1.57568 0
M  V30 4205 C 388.508 0.724175 -1.8943 0
M  V30 4206 C 388.841 1.75149 -0.838836 0
M  V30 4207 O 388.116 1.93948 0.146422 0
M  V30 4208 C 388.399 1.39615 -3.31933 0
M  V30 4209 C 388.252 0.382537 -4.4817 0
M  V30 4210 C 389.571 2.33084 -3.73309 0
M  V30 4211 H 386.69 0.261797 -0.688935 0
M  V30 4212 H 389.332 -0.013017 -1.89996 0
M  V30 4213 H 387.482 2.02451 -3.31581 0
M  V30 4214 H 389.154 -0.243689 -4.60656 0
M  V30 4215 H 387.397 -0.29844 -4.32772 0
M  V30 4216 H 388.068 0.891145 -5.44759 0
M  V30 4217 H 390.544 1.80295 -3.7501 0
M  V30 4218 H 389.42 2.77084 -4.73831 0
M  V30 4219 H 389.681 3.19643 -3.05419 0
M  V30 4220 N 388.74 1.54641 0.303973 0
M  V30 4221 C 389.67 1.88386 1.3796 0
M  V30 4222 C 390.651 0.742485 1.5304 0
M  V30 4223 O 391.836 0.997959 1.66597 0
M  V30 4224 C 388.966 2.12854 2.74427 0
M  V30 4225 C 387.92 3.28702 2.74115 0
M  V30 4226 C 387.246 3.38582 4.13844 0
M  V30 4227 C 388.546 4.65881 2.3612 0
M  V30 4228 H 390.24 2.78474 1.09966 0
M  V30 4229 H 387.786 1.33988 0.527556 0
M  V30 4230 H 389.739 2.35047 3.49758 0
M  V30 4231 H 388.463 1.19535 3.03939 0
M  V30 4232 H 387.122 3.06428 2.0124 0
M  V30 4233 H 386.77 2.42784 4.40528 0
M  V30 4234 H 386.47 4.16453 4.14537 0
M  V30 4235 H 387.994 3.63031 4.90959 0
M  V30 4236 H 389.408 4.87823 3.01167 0
M  V30 4237 H 387.805 5.46444 2.48031 0
M  V30 4238 H 388.875 4.66799 1.3125 0
M  V30 4239 N 390.218 -0.567019 1.47046 0
M  V30 4240 C 391.128 -1.70247 1.6141 0
M  V30 4241 C 392.144 -1.66746 0.497157 0
M  V30 4242 O 393.32 -1.86371 0.763389 0
M  V30 4243 C 390.385 -3.06756 1.61561 0
M  V30 4244 C 389.446 -3.21399 2.84607 0
M  V30 4245 C 388.679 -4.51396 2.84741 0
M  V30 4246 O 388.902 -5.36255 1.94388 0
M  V30 4247 O 387.836 -4.69621 3.76483 0
M  V30 4248 H 391.662 -1.61073 2.57467 0
M  V30 4249 H 389.247 -0.735894 1.30019 0
M  V30 4250 H 391.129 -3.8801 1.64396 0
M  V30 4251 H 389.804 -3.16333 0.686684 0
M  V30 4252 H 388.711 -2.39579 2.8732 0
M  V30 4253 H 390.044 -3.16721 3.76761 0
M  V30 4254 N 391.696 -1.35014 -0.812953 0
M  V30 4255 C 392.924 -1.31031 -1.6012 0
M  V30 4256 C 393.339 0.113558 -1.88458 0
M  V30 4257 O 392.696 1.06363 -1.48301 0
M  V30 4258 C 392.747 -2.10872 -2.93624 0
M  V30 4259 O 392.468 -3.47706 -2.66518 0
M  V30 4260 C 393.969 -2.14401 -3.88004 0
M  V30 4261 H 391.189 -0.45037 -0.497401 0
M  V30 4262 H 393.733 -1.77775 -1.01076 0
M  V30 4263 H 391.888 -1.67744 -3.492 0
M  V30 4264 H 392.302 -3.89097 -3.51715 0
M  V30 4265 H 393.776 -2.74669 -4.78812 0
M  V30 4266 H 394.253 -1.14105 -4.24119 0
M  V30 4267 H 394.859 -2.57662 -3.38364 0
M  V30 4268 N 393.175 1.03435 -1.18907 0
M  V30 4269 C 394.422 1.76743 -0.988334 0
M  V30 4270 C 394.75 1.88447 0.481441 0
M  V30 4271 O 394.005 1.39383 1.37371 0
M  V30 4272 C 394.304 3.19792 -1.59586 0
M  V30 4273 C 393.97 3.28108 -3.09283 0
M  V30 4274 C 392.632 3.30084 -3.5014 0
M  V30 4275 C 394.984 3.27696 -4.05296 0
M  V30 4276 C 392.312 3.29299 -4.85571 0
M  V30 4277 C 394.664 3.28451 -5.4065 0
M  V30 4278 C 393.328 3.28723 -5.80946 0
M  V30 4279 H 392.598 0.64675 -0.361657 0
M  V30 4280 H 395.245 1.21442 -1.48068 0
M  V30 4281 H 393.55 3.78136 -1.02568 0
M  V30 4282 H 395.247 3.75171 -1.41589 0
M  V30 4283 H 391.837 3.27294 -2.76725 0
M  V30 4284 H 396.021 3.25354 -3.74778 0
M  V30 4285 H 391.277 3.2783 -5.16079 0
M  V30 4286 H 395.451 3.27082 -6.14809 0
M  V30 4287 H 393.078 3.27868 -6.85862 0
M  V30 4288 N 394.653 0.992116 1.22453 0
M  V30 4289 C 395.893 0.675727 1.92907 0
M  V30 4290 C 396.257 -0.777762 1.75542 0
M  V30 4291 O 397.458 -1.20553 2.40251 0
M  V30 4292 C 395.729 1.0696 3.4102 0
M  V30 4293 S 397.288 0.871456 4.30059 0
M  V30 4294 H 394.106 0.247089 0.666684 0
M  V30 4295 H 396.708 1.27423 1.48269 0
M  V30 4296 H 395.412 2.12383 3.51172 0
M  V30 4297 H 394.943 0.462858 3.90668 0
M  V30 4298 H 396.958 -0.238436 4.95627 0
M  V30 4299 N 396.131 -1.37776 0.765217 0
M  V30 4300 C 397.041 -2.34135 0.147666 0
M  V30 4301 C 398.057 -1.59854 -0.687215 0
M  V30 4302 O 399.233 -1.91983 -0.608659 0
M  V30 4303 C 396.298 -3.3901 -0.72617 0
M  V30 4304 C 395.359 -4.2912 0.124417 0
M  V30 4305 C 394.592 -5.28986 -0.707807 0
M  V30 4306 O 394.815 -5.36205 -1.94525 0
M  V30 4307 O 393.749 -6.01779 -0.12046 0
M  V30 4308 H 397.575 -2.88664 0.943758 0
M  V30 4309 H 395.16 -1.39824 0.526277 0
M  V30 4310 H 397.042 -4.03195 -1.22524 0
M  V30 4311 H 395.717 -2.86819 -1.50056 0
M  V30 4312 H 394.624 -3.68057 0.669696 0
M  V30 4313 H 395.957 -4.84598 0.861736 0
M  V30 4314 N 397.609 -0.515225 -1.4894 0
M  V30 4315 C 398.539 0.244628 -2.32215 0
M  V30 4316 C 399.52 0.949136 -1.41157 0
M  V30 4317 O 400.705 0.937783 -1.70057 0
M  V30 4318 C 397.835 1.30096 -3.22013 0
M  V30 4319 C 396.789 0.715486 -4.21977 0
M  V30 4320 C 396.115 1.87339 -5.00808 0
M  V30 4321 C 397.415 -0.302982 -5.2142 0
M  V30 4322 H 399.109 -0.450501 -2.95991 0
M  V30 4323 H 396.655 -0.218098 -1.42339 0
M  V30 4324 H 398.608 1.84037 -3.79089 0
M  V30 4325 H 397.332 2.02547 -2.56207 0
M  V30 4326 H 395.991 0.197715 -3.66066 0
M  V30 4327 H 395.639 2.58592 -4.31438 0
M  V30 4328 H 395.339 1.48764 -5.68457 0
M  V30 4329 H 396.863 2.41686 -5.60732 0
M  V30 4330 H 398.277 0.148802 -5.73107 0
M  V30 4331 H 396.674 -0.60532 -5.97039 0
M  V30 4332 H 397.744 -1.21395 -4.69459 0
M  V30 4333 N 399.087 1.5561 -0.249682 0
M  V30 4334 C 400.037 2.18157 0.662673 0
M  V30 4335 C 401.021 1.1383 1.13717 0
M  V30 4336 O 402.213 1.39731 1.08648 0
M  V30 4337 C 399.342 2.88672 1.85805 0
M  V30 4338 C 398.428 4.00258 1.40193 0
M  V30 4339 N 398.819 5.01473 0.660213 0
M  V30 4340 C 397.117 4.12864 1.68698 0
M  V30 4341 C 397.818 5.80155 0.423695 0
M  V30 4342 N 396.794 5.34533 0.988721 0
M  V30 4343 H 400.596 2.93769 0.0878688 0
M  V30 4344 H 398.11 1.62316 -0.0521183 0
M  V30 4345 H 400.107 3.31912 2.5227 0
M  V30 4346 H 398.767 2.14564 2.43705 0
M  V30 4347 H 399.778 5.16971 0.310047 0
M  V30 4348 H 396.455 3.4993 2.27717 0
M  V30 4349 H 397.845 6.71688 -0.168616 0
M  V30 4350 N 400.565 -0.0233959 1.57583 0
M  V30 4351 C 401.475 -1.03907 2.10334 0
M  V30 4352 C 402.491 -1.39257 1.04323 0
M  V30 4353 O 403.667 -1.48462 1.36091 0
M  V30 4354 C 400.732 -2.31938 2.57693 0
M  V30 4355 C 399.793 -2.03117 3.78209 0
M  V30 4356 C 399.026 -3.25043 4.233 0
M  V30 4357 O 399.249 -4.35916 3.67876 0
M  V30 4358 O 398.183 -3.10411 5.15683 0
M  V30 4359 H 402.009 -0.620748 2.97288 0
M  V30 4360 H 399.594 -0.240743 1.47448 0
M  V30 4361 H 401.476 -3.07196 2.88458 0
M  V30 4362 H 400.151 -2.73055 1.73847 0
M  V30 4363 H 399.058 -1.25408 3.52454 0
M  V30 4364 H 400.391 -1.66852 4.63056 0
M  V30 4365 N 402.043 -1.548 -0.295768 0
M  V30 4366 C 402.973 -1.89115 -1.36959 0
M  V30 4367 C 403.954 -0.75059 -1.52644 0
M  V30 4368 O 405.139 -1.00678 -1.66065 0
M  V30 4369 C 402.269 -2.14307 -2.73295 0
M  V30 4370 C 401.223 -3.30151 -2.72368 0
M  V30 4371 C 400.549 -3.40772 -4.12042 0
M  V30 4372 C 401.849 -4.67126 -2.33646 0
M  V30 4373 H 403.543 -2.79053 -1.08488 0
M  V30 4374 H 401.089 -1.34266 -0.520443 0
M  V30 4375 H 403.042 -2.36898 -3.48507 0
M  V30 4376 H 401.766 -1.21145 -3.03301 0
M  V30 4377 H 400.425 -3.0749 -1.99613 0
M  V30 4378 H 400.073 -2.45117 -4.39234 0
M  V30 4379 H 399.773 -4.18645 -4.12322 0
M  V30 4380 H 401.297 -3.6563 -4.89027 0
M  V30 4381 H 402.711 -4.89414 -2.98575 0
M  V30 4382 H 401.108 -5.47751 -2.45129 0
M  V30 4383 H 402.178 -4.67489 -1.28772 0
M  V30 4384 N 403.521 0.559213 -1.47345 0
M  V30 4385 C 404.468 1.66645 -1.59682 0
M  V30 4386 C 405.438 1.60168 -0.43994 0
M  V30 4387 O 406.623 1.79031 -0.659736 0
M  V30 4388 C 403.763 3.04969 -1.61518 0
M  V30 4389 C 402.876 3.21897 -2.88108 0
M  V30 4390 C 402.011 4.50608 -2.81294 0
M  V30 4391 C 401.05 4.60961 -4.02717 0
M  V30 4392 N 400.187 5.81024 -3.94151 0
M  V30 4393 H 405.027 1.55439 -2.54249 0
M  V30 4394 H 402.564 0.757219 -1.26113 0
M  V30 4395 H 404.522 3.85064 -1.60566 0
M  V30 4396 H 403.152 3.15015 -0.704645 0
M  V30 4397 H 402.204 2.35248 -2.98936 0
M  V30 4398 H 403.516 3.25412 -3.78032 0
M  V30 4399 H 402.67 5.3896 -2.7858 0
M  V30 4400 H 401.409 4.49568 -1.89049 0
M  V30 4401 H 400.414 3.71021 -4.05738 0
M  V30 4402 H 401.639 4.63761 -4.96087 0
M  V30 4403 H 399.585 5.80938 -3.04708 0
M  V30 4404 H 399.502 5.85909 -4.77752 0
M  V30 4405 H 400.77 6.71744 -3.9545 0
M  V30 4406 N 404.999 1.35443 0.805782 0
M  V30 4407 C 405.946 1.28431 1.91766 0
M  V30 4408 C 406.916 0.156102 1.65365 0
M  V30 4409 O 408.101 0.339936 1.87747 0
M  V30 4410 C 405.241 1.06301 3.2832 0
M  V30 4411 C 404.354 2.2805 3.66902 0
M  V30 4412 C 403.489 1.99064 4.92491 0
M  V30 4413 C 402.528 3.16863 5.23703 0
M  V30 4414 N 401.665 2.87647 6.40471 0
M  V30 4415 H 406.505 2.23511 1.97096 0
M  V30 4416 H 404.042 1.11105 0.964054 0
M  V30 4417 H 406 0.915012 4.07042 0
M  V30 4418 H 404.63 0.148822 3.22457 0
M  V30 4419 H 403.682 2.53711 2.83434 0
M  V30 4420 H 404.994 3.1601 3.85927 0
M  V30 4421 H 404.148 1.81099 5.7904 0
M  V30 4422 H 402.887 1.0839 4.75503 0
M  V30 4423 H 401.892 3.35404 4.35642 0
M  V30 4424 H 403.117 4.08339 5.4262 0
M  V30 4425 H 401.063 1.99568 6.24907 0
M  V30 4426 H 400.98 3.69141 6.59751 0
M  V30 4427 H 402.248 2.73226 7.30047 0
M  V30 4428 N 406.477 -1.02803 1.19454 0
M  V30 4429 C 407.724 -1.76217 0.997693 0
M  V30 4430 C 408.052 -1.887 -0.47144 0
M  V30 4431 O 407.307 -1.4011 -1.3663 0
M  V30 4432 C 407.606 -3.18941 1.6128 0
M  V30 4433 C 407.272 -3.26463 3.11019 0
M  V30 4434 C 405.934 -3.28223 3.51885 0
M  V30 4435 C 408.286 -3.25542 4.07028 0
M  V30 4436 C 405.614 -3.26719 4.8731 0
M  V30 4437 C 407.966 -3.25579 5.42385 0
M  V30 4438 C 406.63 -3.25637 5.82681 0
M  V30 4439 H 405.9 -0.644823 0.365082 0
M  V30 4440 H 408.547 -1.20655 1.4871 0
M  V30 4441 H 406.852 -3.77587 1.04572 0
M  V30 4442 H 408.549 -3.74415 1.43577 0
M  V30 4443 H 405.139 -3.25822 2.78457 0
M  V30 4444 H 409.323 -3.23362 3.76498 0
M  V30 4445 H 404.579 -3.25089 5.1781 0
M  V30 4446 H 408.753 -3.23817 6.16535 0
M  V30 4447 H 406.38 -3.24226 6.87591 0
M  V30 4448 N 407.956 -0.998596 -1.21925 0
M  V30 4449 C 409.372 -0.710303 -1.42923 0
M  V30 4450 C 409.572 0.716933 -1.88314 0
M  V30 4451 O 408.628 1.48712 -2.04062 0
M  V30 4452 C 409.941 -1.72072 -2.466 0
M  V30 4453 C 411.489 -1.73681 -2.60392 0
M  V30 4454 C 411.964 -2.73601 -3.67296 0
M  V30 4455 N 413.455 -2.7223 -3.7476 0
M  V30 4456 C 414.19 -3.46206 -4.57087 0
M  V30 4457 N 413.686 -4.29802 -5.43362 0
M  V30 4458 N 415.479 -3.34886 -4.51451 0
M  V30 4459 H 407.63 -1.92028 -0.9077 0
M  V30 4460 H 409.893 -0.828487 -0.460775 0
M  V30 4461 H 409.599 -2.74231 -2.20206 0
M  V30 4462 H 409.473 -1.51818 -3.45299 0
M  V30 4463 H 411.86 -0.722173 -2.86127 0
M  V30 4464 H 411.941 -1.98005 -1.61949 0
M  V30 4465 H 411.585 -3.75217 -3.42307 0
M  V30 4466 H 411.515 -2.46545 -4.65321 0
M  V30 4467 H 414.006 -2.11576 -3.1312 0
M  V30 4468 H 414.319 -4.83061 -6.03218 0
M  V30 4469 H 412.664 -4.33887 -5.42925 0
M  V30 4470 H 415.855 -2.69015 -3.83078 0
M  V30 4471 H 416.028 -3.92796 -5.15379 0
M  V30 4472 N 409.434 1.37368 -0.772513 0
M  V30 4473 C 410.381 2.30262 -0.157488 0
M  V30 4474 C 411.351 1.51137 0.688965 0
M  V30 4475 O 412.536 1.79704 0.641168 0
M  V30 4476 C 409.676 3.37611 0.715045 0
M  V30 4477 C 408.789 4.31746 -0.148098 0
M  V30 4478 C 407.924 5.26171 0.729213 0
M  V30 4479 C 406.963 6.11948 -0.136418 0
M  V30 4480 N 406.1 6.98613 0.698914 0
M  V30 4481 H 410.94 2.82277 -0.955179 0
M  V30 4482 H 408.477 1.38957 -0.482631 0
M  V30 4483 H 410.435 3.98479 1.23575 0
M  V30 4484 H 409.065 2.86959 1.47833 0
M  V30 4485 H 408.117 3.72178 -0.786613 0
M  V30 4486 H 409.429 4.92084 -0.81579 0
M  V30 4487 H 408.583 5.92247 1.31637 0
M  V30 4488 H 407.322 4.66246 1.43059 0
M  V30 4489 H 406.327 5.4485 -0.736102 0
M  V30 4490 H 407.552 6.73945 -0.835134 0
M  V30 4491 H 405.498 6.41215 1.38489 0
M  V30 4492 H 405.415 7.55948 0.0885358 0
M  V30 4493 H 406.683 7.69077 1.27044 0
M  V30 4494 N 410.912 0.523116 1.48665 0
M  V30 4495 C 411.845 -0.290518 2.26343 0
M  V30 4496 C 412.823 -0.950913 1.31895 0
M  V30 4497 O 414.007 -0.976662 1.61225 0
M  V30 4498 C 411.134 -1.41088 3.07915 0
M  V30 4499 C 410.18 -0.862597 4.17686 0
M  V30 4500 S 411.013 0.264135 5.34848 0
M  V30 4501 C 412.169 -0.858864 6.19979 0
M  V30 4502 H 412.402 0.368726 2.95005 0
M  V30 4503 H 409.935 0.30878 1.51281 0
M  V30 4504 H 411.893 -2.0527 3.55492 0
M  V30 4505 H 410.554 -2.04182 2.38681 0
M  V30 4506 H 409.747 -1.70287 4.74361 0
M  V30 4507 H 409.349 -0.297595 3.72814 0
M  V30 4508 H 411.641 -1.7591 6.54264 0
M  V30 4509 H 412.584 -0.330244 7.07329 0
M  V30 4510 H 412.992 -1.13617 5.52948 0
M  V30 4511 N 412.39 -1.55475 0.257931 0
M  V30 4512 C 413.637 -1.99207 -0.363728 0
M  V30 4513 C 413.965 -1.1462 -1.57139 0
M  V30 4514 O 413.22 -0.199653 -1.94679 0
M  V30 4515 C 413.519 -3.48183 -0.806433 0
M  V30 4516 C 413.185 -4.49936 0.294684 0
M  V30 4517 C 411.847 -4.77481 0.597076 0
M  V30 4518 C 414.199 -5.10769 1.03751 0
M  V30 4519 C 411.527 -5.63132 1.64618 0
M  V30 4520 C 413.879 -5.97558 2.07622 0
M  V30 4521 C 412.543 -6.23432 2.38514 0
M  V30 4522 H 411.813 -0.728949 -0.133097 0
M  V30 4523 H 414.46 -1.8793 0.368059 0
M  V30 4524 H 412.765 -3.56848 -1.61761 0
M  V30 4525 H 414.462 -3.79415 -1.29789 0
M  V30 4526 H 411.052 -4.28572 0.0488649 0
M  V30 4527 H 415.236 -4.89527 0.817149 0
M  V30 4528 H 410.492 -5.8143 1.89074 0
M  V30 4529 H 414.666 -6.43735 2.65666 0
M  V30 4530 H 412.293 -6.89594 3.19943 0
M  V30 4531 N 413.868 0.0150385 -1.57593 0
M  V30 4532 C 415.098 0.713359 -1.93894 0
M  V30 4533 C 415.506 1.68663 -0.857289 0
M  V30 4534 O 414.849 1.82876 0.173788 0
M  V30 4535 C 414.911 1.51348 -3.26089 0
M  V30 4536 C 414.575 0.703451 -4.51554 0
M  V30 4537 C 415.572 -0.00237924 -5.199 0
M  V30 4538 C 413.257 0.653854 -4.98026 0
M  V30 4539 C 415.251 -0.746955 -6.33008 0
M  V30 4540 C 412.938 -0.0944578 -6.11027 0
M  V30 4541 C 413.936 -0.793609 -6.78374 0
M  V30 4542 O 413.624 -1.52974 -7.89211 0
M  V30 4543 H 413.356 0.204637 -0.644282 0
M  V30 4544 H 415.91 -0.0276411 -2.05381 0
M  V30 4545 H 414.14 2.29862 -3.10967 0
M  V30 4546 H 415.829 2.09572 -3.47612 0
M  V30 4547 H 416.595 0.0268803 -4.84993 0
M  V30 4548 H 412.474 1.18756 -4.45441 0
M  V30 4549 H 416.018 -1.2932 -6.85509 0
M  V30 4550 H 411.915 -0.125591 -6.45378 0
M  V30 4551 H 412.683 -1.44488 -8.05646 0
M  V30 4552 N 415.346 1.54954 0.287554 0
M  V30 4553 C 416.592 1.75132 1.02257 0
M  V30 4554 C 416.925 0.542858 1.86458 0
M  V30 4555 O 416.2 -0.459856 1.88986 0
M  V30 4556 C 416.483 3.04812 1.91733 0
M  V30 4557 C 416.336 4.35985 1.10622 0
M  V30 4558 C 417.655 3.30438 2.90687 0
M  V30 4559 H 414.774 0.637194 0.370341 0
M  V30 4560 H 417.416 1.87678 0.296111 0
M  V30 4561 H 415.566 2.94247 2.53675 0
M  V30 4562 H 417.238 4.58487 0.508636 0
M  V30 4563 H 415.481 4.31865 0.409271 0
M  V30 4564 H 416.152 5.23017 1.76513 0
M  V30 4565 H 418.628 3.40701 2.38877 0
M  V30 4566 H 417.504 4.22467 3.50447 0
M  V30 4567 H 417.765 2.49377 3.65053 0
M  V30 4568 N 416.824 -0.551391 1.4764 0
M  V30 4569 C 417.771 -1.65796 1.60563 0
M  V30 4570 C 418.741 -1.59932 0.448428 0
M  V30 4571 O 419.926 -1.78679 0.669222 0
M  V30 4572 C 417.066 -3.04108 1.63133 0
M  V30 4573 C 416.179 -3.20365 2.89811 0
M  V30 4574 C 415.314 -4.49109 2.8368 0
M  V30 4575 C 414.353 -4.58819 4.05156 0
M  V30 4576 N 413.49 -5.78926 3.97227 0
M  V30 4577 H 418.33 -1.54088 2.5507 0
M  V30 4578 H 415.867 -0.75052 1.26513 0
M  V30 4579 H 417.825 -3.84207 1.62606 0
M  V30 4580 H 416.455 -3.14637 0.721341 0
M  V30 4581 H 415.507 -2.33659 3.00179 0
M  V30 4582 H 416.819 -3.23402 3.79753 0
M  V30 4583 H 415.973 -5.37475 2.81434 0
M  V30 4584 H 414.712 -4.4856 1.91431 0
M  V30 4585 H 413.717 -3.68864 4.077 0
M  V30 4586 H 414.942 -4.61124 4.98539 0
M  V30 4587 H 412.888 -5.79314 3.07785 0
M  V30 4588 H 412.805 -5.83367 4.80853 0
M  V30 4589 H 414.073 -6.69637 3.99007 0
M  V30 4590 N 418.302 -1.35869 -0.798587 0
M  V30 4591 C 419.249 -1.29446 -1.91082 0
M  V30 4592 C 420.219 -0.16487 -1.6528 0
M  V30 4593 O 421.404 -0.349888 -1.87564 0
M  V30 4594 C 418.544 -1.0804 -3.27752 0
M  V30 4595 C 417.657 -2.29993 -3.65687 0
M  V30 4596 C 416.792 -2.01673 -4.91428 0
M  V30 4597 C 415.831 -3.19636 -5.22015 0
M  V30 4598 N 414.968 -2.91039 -6.38937 0
M  V30 4599 H 419.808 -2.24553 -1.95907 0
M  V30 4600 H 417.345 -1.11615 -0.958148 0
M  V30 4601 H 419.303 -0.936586 -4.06551 0
M  V30 4602 H 417.933 -0.16592 -3.22373 0
M  V30 4603 H 416.985 -2.55211 -2.82085 0
M  V30 4604 H 418.297 -3.18052 -3.84245 0
M  V30 4605 H 417.451 -1.84168 -5.78072 0
M  V30 4606 H 416.19 -1.10911 -4.74921 0
M  V30 4607 H 415.195 -3.37709 -4.33858 0
M  V30 4608 H 416.42 -4.11211 -5.40447 0
M  V30 4609 H 414.366 -2.0288 -6.2384 0
M  V30 4610 H 414.283 -3.72635 -6.57784 0
M  V30 4611 H 415.551 -2.77093 -7.28587 0
M  V30 4612 N 419.78 1.02168 -1.19998 0
M  V30 4613 C 421.057 1.72816 -0.916191 0
M  V30 4614 C 421.437 2.03081 0.576325 0
M  V30 4615 O 420.785 1.69122 1.53656 0
M  V30 4616 C 420.995 2.9997 -1.78378 0
M  V30 4617 C 422.343 3.73336 -2.02251 0
M  V30 4618 O 423.367 3.09914 -1.75589 0
M  V30 4619 O 422.226 4.87371 -2.47249 0
M  V30 4620 H 419.32 0.752924 -0.342103 0
M  V30 4621 H 421.866 1.08062 -1.30846 0
M  V30 4622 H 420.638 2.73888 -2.79466 0
M  V30 4623 H 420.261 3.72464 -1.39126 0
M  V30 4624 N 421.258 1.00505 1.21394 0
M  V30 4625 C 422.205 0.565496 2.23765 0
M  V30 4626 C 423.175 -0.408466 1.60999 0
M  V30 4627 O 424.36 -0.310503 1.88257 0
M  V30 4628 C 421.5 -0.101667 3.4495 0
M  V30 4629 C 420.613 0.915479 4.22188 0
M  V30 4630 C 419.748 0.220574 5.30742 0
M  V30 4631 C 418.787 1.22527 5.99711 0
M  V30 4632 N 417.924 0.557831 6.9988 0
M  V30 4633 H 422.764 1.44314 2.60725 0
M  V30 4634 H 420.301 0.722643 1.28126 0
M  V30 4635 H 422.259 -0.505504 4.14126 0
M  V30 4636 H 420.889 -0.94303 3.08718 0
M  V30 4637 H 419.941 1.43756 3.52191 0
M  V30 4638 H 421.253 1.68005 4.69655 0
M  V30 4639 H 420.407 -0.239368 6.06228 0
M  V30 4640 H 419.146 -0.576401 4.84282 0
M  V30 4641 H 418.151 1.69571 5.22997 0
M  V30 4642 H 419.376 2.02332 6.48258 0
M  V30 4643 H 417.322 -0.219486 6.55633 0
M  V30 4644 H 417.239 1.26065 7.45415 0
M  V30 4645 H 418.507 0.121095 7.79406 0
M  V30 4646 N 422.737 -1.36956 0.779787 0
M  V30 4647 C 424.014 -1.93697 0.272156 0
M  V30 4648 C 424.394 -1.71267 -1.23413 0
M  V30 4649 O 423.742 -1.06607 -2.02107 0
M  V30 4650 C 423.952 -3.42812 0.654291 0
M  V30 4651 C 425.3 -4.19921 0.628602 0
M  V30 4652 O 426.324 -3.51209 0.594172 0
M  V30 4653 O 425.183 -5.42465 0.662864 0
M  V30 4654 H 422.277 -0.824447 0.0649286 0
M  V30 4655 H 424.823 -1.46196 0.861682 0
M  V30 4656 H 423.595 -3.52754 1.69353 0
M  V30 4657 H 423.218 -3.97582 0.0381369 0
M  V30 4658 N 424.215 -0.530993 -1.48385 0
M  V30 4659 C 425.125 0.23503 -2.3342 0
M  V30 4660 C 426.141 0.93801 -1.46552 0
M  V30 4661 O 427.317 0.912745 -1.7953 0
M  V30 4662 C 424.382 1.26778 -3.22689 0
M  V30 4663 C 423.443 0.575038 -4.25431 0
M  V30 4664 C 422.676 1.55858 -5.10435 0
M  V30 4665 O 422.899 2.79129 -4.97437 0
M  V30 4666 O 421.833 1.09742 -5.91811 0
M  V30 4667 H 425.659 -0.461794 -3.00169 0
M  V30 4668 H 423.244 -0.291903 -1.46521 0
M  V30 4669 H 425.126 1.86457 -3.77904 0
M  V30 4670 H 423.801 1.94699 -2.586 0
M  V30 4671 H 422.708 -0.0622782 -3.74048 0
M  V30 4672 H 424.041 -0.062253 -4.92161 0
M  V30 4673 N 425.693 1.55336 -0.266172 0
M  V30 4674 C 426.97 1.91372 0.404486 0
M  V30 4675 C 427.35 1.18935 1.74407 0
M  V30 4676 O 426.698 0.3132 2.26343 0
M  V30 4677 C 426.908 3.44581 0.553593 0
M  V30 4678 C 428.256 4.16196 0.840618 0
M  V30 4679 O 429.28 3.50426 0.638739 0
M  V30 4680 O 428.139 5.32567 1.22618 0
M  V30 4681 H 425.233 0.797194 0.220025 0
M  V30 4682 H 427.779 1.66813 -0.311664 0
M  V30 4683 H 426.551 3.89357 -0.389498 0
M  V30 4684 H 426.174 3.75065 1.31955 0
M  V30 4685 N 427.171 -0.0066808 1.57599 0
M  V30 4686 C 428.103 -1.02827 2.04839 0
M  V30 4687 C 429.116 -1.31108 0.965113 0
M  V30 4688 O 430.305 -1.28202 1.24203 0
M  V30 4689 C 427.405 -2.36464 2.42771 0
M  V30 4690 C 426.578 -2.27219 3.73751 0
M  V30 4691 C 425.637 -3.43489 3.98625 0
M  V30 4692 O 424.663 -3.21976 4.69382 0
M  V30 4693 N 425.865 -4.66116 3.46 0
M  V30 4694 H 428.63 -0.625455 2.93101 0
M  V30 4695 H 426.191 -0.194198 1.60731 0
M  V30 4696 H 428.183 -3.13008 2.56531 0
M  V30 4697 H 426.753 -2.68512 1.60063 0
M  V30 4698 H 425.973 -1.35629 3.70133 0
M  V30 4699 H 427.261 -2.18208 4.59633 0
M  V30 4700 H 426.659 -4.86493 2.88688 0
M  V30 4701 H 425.216 -5.39949 3.65101 0
M  V30 4702 N 428.649 -1.55105 -0.279332 0
M  V30 4703 C 429.895 -1.75672 -1.01327 0
M  V30 4704 C 430.228 -0.552739 -1.86168 0
M  V30 4705 O 429.503 0.449827 -1.89227 0
M  V30 4706 C 429.786 -3.05825 -1.90114 0
M  V30 4707 C 429.639 -4.36565 -1.08309 0
M  V30 4708 C 430.958 -3.31975 -2.8893 0
M  V30 4709 H 428.077 -0.639149 -0.366957 0
M  V30 4710 H 430.719 -1.87833 -0.286154 0
M  V30 4711 H 428.869 -2.95588 -2.52111 0
M  V30 4712 H 430.541 -4.58751 -0.484314 0
M  V30 4713 H 428.784 -4.32076 -0.386362 0
M  V30 4714 H 429.455 -5.23946 -1.73737 0
M  V30 4715 H 431.931 -3.41963 -2.37067 0
M  V30 4716 H 430.807 -4.2432 -3.48201 0
M  V30 4717 H 431.068 -2.51309 -3.63725 0
M  V30 4718 N 430.127 0.543554 -1.4793 0
M  V30 4719 C 431.077 1.64527 -1.57844 0
M  V30 4720 C 432.061 1.54869 -0.436408 0
M  V30 4721 O 433.253 1.63119 -0.687101 0
M  V30 4722 C 430.382 3.03281 -1.6086 0
M  V30 4723 C 429.468 3.18093 -2.80495 0
M  V30 4724 N 429.859 3.02923 -4.05057 0
M  V30 4725 C 428.157 3.49121 -2.77543 0
M  V30 4726 C 428.858 3.20791 -4.85251 0
M  V30 4727 N 427.834 3.47749 -4.17818 0
M  V30 4728 H 431.636 1.51388 -2.5191 0
M  V30 4729 H 429.15 0.748671 -1.44113 0
M  V30 4730 H 431.147 3.82403 -1.66054 0
M  V30 4731 H 429.807 3.17521 -0.678996 0
M  V30 4732 H 430.818 2.79966 -4.35705 0
M  V30 4733 H 427.495 3.69804 -1.93781 0
M  V30 4734 H 428.885 3.13915 -5.9406 0
M  V30 4735 N 431.605 1.3629 0.791371 0
M  V30 4736 C 432.854 1.29742 1.54434 0
M  V30 4737 C 433.167 -0.121729 1.95221 0
M  V30 4738 O 434.373 -0.309579 2.69729 0
M  V30 4739 C 432.829 2.27623 2.78776 0
M  V30 4740 C 432.437 3.74963 2.45166 0
M  V30 4741 C 434.181 2.30047 3.56761 0
M  V30 4742 C 432.088 4.64626 3.65891 0
M  V30 4743 H 431.018 0.482113 0.579727 0
M  V30 4744 H 433.669 1.61642 0.868565 0
M  V30 4745 H 432.051 1.88714 3.48142 0
M  V30 4746 H 433.225 4.22596 1.83709 0
M  V30 4747 H 431.54 3.75295 1.80396 0
M  V30 4748 H 434.137 2.94247 4.46456 0
M  V30 4749 H 434.48 1.30846 3.95203 0
M  V30 4750 H 435.013 2.67563 2.94372 0
M  V30 4751 H 431.752 5.64883 3.32547 0
M  V30 4752 H 431.272 4.2171 4.26521 0
M  V30 4753 H 432.951 4.80801 4.32943 0
M  V30 4754 N 433.083 -1.0153 1.20538 0
M  V30 4755 C 434.332 -1.74558 1.01057 0
M  V30 4756 C 434.645 -1.90168 -0.457756 0
M  V30 4757 O 435.851 -2.60301 -0.771722 0
M  V30 4758 C 434.307 -3.13963 1.75941 0
M  V30 4759 C 433.915 -3.06361 3.26875 0
M  V30 4760 C 435.659 -3.91191 1.64832 0
M  V30 4761 C 433.566 -4.40782 3.94291 0
M  V30 4762 H 432.496 -0.654417 0.374505 0
M  V30 4763 H 435.147 -1.13521 1.44171 0
M  V30 4764 H 433.529 -3.75549 1.25614 0
M  V30 4765 H 434.703 -2.54074 3.84425 0
M  V30 4766 H 433.018 -2.42625 3.38411 0
M  V30 4767 H 435.615 -4.90644 2.12539 0
M  V30 4768 H 435.958 -4.11884 0.604745 0
M  V30 4769 H 436.491 -3.36236 2.12579 0
M  V30 4770 H 433.23 -4.25292 4.98805 0
M  V30 4771 H 432.75 -4.9307 3.41529 0
M  V30 4772 H 434.429 -5.09621 3.98617 0
M  V30 4773 N 434.561 -1.01147 -1.20859 0
M  V30 4774 C 435.471 -0.58686 -2.27141 0
M  V30 4775 C 436.487 0.373198 -1.69951 0
M  V30 4776 O 437.663 0.235423 -2.00019 0
M  V30 4777 C 434.728 0.0733602 -3.46622 0
M  V30 4778 C 433.789 -0.931995 -4.19061 0
M  V30 4779 C 433.022 -0.303186 -5.32838 0
M  V30 4780 O 433.245 0.898395 -5.63281 0
M  V30 4781 O 432.179 -1.01735 -5.9324 0
M  V30 4782 H 436.005 -1.47155 -2.65667 0
M  V30 4783 H 433.59 -0.780689 -1.2738 0
M  V30 4784 H 435.472 0.442333 -4.19072 0
M  V30 4785 H 434.147 0.932329 -3.09983 0
M  V30 4786 H 433.054 -1.35224 -3.48805 0
M  V30 4787 H 434.387 -1.76076 -4.59628 0
M  V30 4788 N 436.039 1.36541 -0.78704 0
M  V30 4789 C 436.989 2.27459 -0.156957 0
M  V30 4790 C 437.973 1.46843 0.657709 0
M  V30 4791 O 439.165 1.69245 0.518173 0
M  V30 4792 C 436.294 3.35893 0.709278 0
M  V30 4793 C 435.38 4.23947 -0.114049 0
M  V30 4794 N 435.771 4.92145 -1.16736 0
M  V30 4795 C 434.069 4.4587 0.107497 0
M  V30 4796 C 434.77 5.57261 -1.66837 0
M  V30 4797 N 433.746 5.3473 -0.977992 0
M  V30 4798 H 437.548 2.77669 -0.963185 0
M  V30 4799 H 435.062 1.49839 -0.62627 0
M  V30 4800 H 437.059 3.99953 1.17656 0
M  V30 4801 H 435.719 2.87238 1.51408 0
M  V30 4802 H 436.73 4.94169 -1.54976 0
M  V30 4803 H 433.407 4.08056 0.882994 0
M  V30 4804 H 434.797 6.21728 -2.54762 0
M  V30 4805 N 437.518 0.538854 1.48102 0
M  V30 4806 C 438.795 -0.0568108 1.95517 0
M  V30 4807 C 439.175 -1.50408 1.48124 0
M  V30 4808 O 438.523 -2.17133 0.711727 0
M  V30 4809 C 438.733 0.0696262 3.48931 0
M  V30 4810 C 440.081 -0.0851202 4.24515 0
M  V30 4811 O 441.105 -0.0037347 3.562 0
M  V30 4812 O 439.964 -0.257025 5.45895 0
M  V30 4813 H 437.058 -0.0743695 0.823649 0
M  V30 4814 H 439.604 0.604081 1.58584 0
M  V30 4815 H 438.376 1.07744 3.76174 0
M  V30 4816 H 437.999 -0.629714 3.92582 0
M  V30 4817 N 438.996 -1.55193 0.274407 0
M  V30 4818 C 439.928 -2.1989 -0.646595 0
M  V30 4819 C 440.941 -1.1834 -1.11801 0
M  V30 4820 O 442.13 -1.4507 -1.04004 0
M  V30 4821 C 439.23 -2.8104 -1.89393 0
M  V30 4822 C 438.403 -4.08274 -1.56943 0
M  V30 4823 C 437.462 -4.53478 -2.66916 0
M  V30 4824 O 436.488 -5.19267 -2.33132 0
M  V30 4825 N 437.69 -4.2356 -3.9696 0
M  V30 4826 H 440.455 -2.99556 -0.0928686 0
M  V30 4827 H 438.016 -1.61618 0.0954783 0
M  V30 4828 H 440.008 -3.08226 -2.62257 0
M  V30 4829 H 438.578 -2.05372 -2.35672 0
M  V30 4830 H 437.798 -3.88384 -0.674655 0
M  V30 4831 H 439.086 -4.91173 -1.32764 0
M  V30 4832 H 438.484 -3.70799 -4.27229 0
M  V30 4833 H 437.041 -4.55518 -4.66205 0
M  V30 4834 N 440.474 -0.00167713 -1.576 0
M  V30 4835 C 441.404 0.988091 -2.11563 0
M  V30 4836 C 442.385 1.35736 -1.02517 0
M  V30 4837 O 443.57 1.44082 -1.30208 0
M  V30 4838 C 440.7 2.27941 -2.62031 0
M  V30 4839 C 439.654 2.0517 -3.75619 0
M  V30 4840 C 438.98 3.4033 -4.12407 0
M  V30 4841 C 440.28 1.41294 -5.02825 0
M  V30 4842 H 441.974 0.538771 -2.94513 0
M  V30 4843 H 439.52 0.257712 -1.41675 0
M  V30 4844 H 441.473 2.97539 -2.9841 0
M  V30 4845 H 440.197 2.74989 -1.76205 0
M  V30 4846 H 438.856 1.37998 -3.39635 0
M  V30 4847 H 438.504 3.85085 -3.23603 0
M  V30 4848 H 438.204 3.25909 -4.88935 0
M  V30 4849 H 439.728 4.1124 -4.51347 0
M  V30 4850 H 441.142 2.00851 -5.36965 0
M  V30 4851 H 439.539 1.37356 -5.84169 0
M  V30 4852 H 440.609 0.382362 -4.8339 0
M  V30 4853 N 441.952 1.55251 0.271103 0
M  V30 4854 C 443.177 1.80306 1.02491 0
M  V30 4855 C 443.602 0.575457 1.79081 0
M  V30 4856 O 442.96 -0.474987 1.74967 0
M  V30 4857 C 443.008 3.02832 1.95768 0
M  V30 4858 O 442.112 2.78051 3.04568 0
M  V30 4859 H 441.453 0.595896 0.292923 0
M  V30 4860 H 443.983 2.02397 0.299436 0
M  V30 4861 H 443.993 3.31616 2.37686 0
M  V30 4862 H 442.668 3.9183 1.39434 0
M  V30 4863 H 441.245 2.60369 2.66951 0
M  V30 4864 N 443.43 -0.535701 1.48216 0
M  V30 4865 C 444.677 -1.29183 1.55942 0
M  V30 4866 C 445.005 -1.93125 0.230857 0
M  V30 4867 O 444.26 -1.79556 -0.778331 0
M  V30 4868 C 444.559 -2.4068 2.64212 0
M  V30 4869 C 444.225 -1.94428 4.06827 0
M  V30 4870 C 442.887 -1.81532 4.45645 0
M  V30 4871 C 445.239 -1.59405 4.96225 0
M  V30 4872 C 442.567 -1.31939 5.71672 0
M  V30 4873 C 444.919 -1.11276 6.22736 0
M  V30 4874 C 443.583 -0.969924 6.60416 0
M  V30 4875 H 442.853 -0.472715 0.570632 0
M  V30 4876 H 445.5 -0.598437 1.81909 0
M  V30 4877 H 443.805 -3.15666 2.32083 0
M  V30 4878 H 445.502 -2.98822 2.67407 0
M  V30 4879 H 442.092 -2.05415 3.76168 0
M  V30 4880 H 446.276 -1.68231 4.66917 0
M  V30 4881 H 441.532 -1.19562 5.99596 0
M  V30 4882 H 445.706 -0.832453 6.91407 0
M  V30 4883 H 443.333 -0.583436 7.57958 0
M  V30 4884 N 444.908 -1.36708 -0.784132 0
M  V30 4885 C 446.133 -1.34565 -1.5782 0
M  V30 4886 C 446.558 0.0695257 -1.87971 0
M  V30 4887 O 445.916 1.04302 -1.48293 0
M  V30 4888 C 445.964 -2.17952 -2.87279 0
M  V30 4889 O 445.068 -1.57563 -3.81114 0
M  V30 4890 H 444.409 -0.460337 -0.478524 0
M  V30 4891 H 446.939 -1.80064 -0.971495 0
M  V30 4892 H 446.949 -2.30721 -3.365 0
M  V30 4893 H 445.624 -3.20823 -2.64661 0
M  V30 4894 H 444.201 -1.53764 -3.39722 0
M  V30 4895 N 446.386 1.0089 -1.21074 0
M  V30 4896 C 447.611 1.78727 -1.05221 0
M  V30 4897 C 448.036 1.83932 0.393795 0
M  V30 4898 O 447.394 1.28004 1.28393 0
M  V30 4899 C 447.442 3.20665 -1.64944 0
M  V30 4900 O 446.546 4.02632 -0.892273 0
M  V30 4901 H 445.887 0.550973 -0.370574 0
M  V30 4902 H 448.417 1.26847 -1.60534 0
M  V30 4903 H 448.427 3.71352 -1.69002 0
M  V30 4904 H 447.102 3.16191 -2.70177 0
M  V30 4905 H 445.679 3.61207 -0.926492 0
M  V30 4906 N 447.864 1.01787 1.20321 0
M  V30 4907 C 449.113 0.703249 1.89043 0
M  V30 4908 C 449.426 -0.770445 1.79787 0
M  V30 4909 O 450.632 -1.19767 2.43656 0
M  V30 4910 C 449.088 1.20749 3.3904 0
M  V30 4911 C 448.696 2.70817 3.56878 0
M  V30 4912 C 450.44 0.968352 4.13308 0
M  V30 4913 C 448.347 3.14716 5.00708 0
M  V30 4914 H 447.277 0.259354 0.707991 0
M  V30 4915 H 449.928 1.23072 1.36108 0
M  V30 4916 H 448.31 0.607989 3.91305 0
M  V30 4917 H 449.484 3.36327 3.14993 0
M  V30 4918 H 447.799 2.92888 2.95983 0
M  V30 4919 H 450.396 1.27173 5.19356 0
M  V30 4920 H 450.739 -0.095149 4.16191 0
M  V30 4921 H 451.272 1.53129 3.67146 0
M  V30 4922 H 448.011 4.20347 5.02979 0
M  V30 4923 H 447.531 2.53927 5.43398 0
M  V30 4924 H 449.21 3.07426 5.69296 0
M  V30 4925 N 449.342 -1.36122 0.79427 0
M  V30 4926 C 450.57 -2.03362 0.380989 0
M  V30 4927 C 450.985 -1.59881 -1.00416 0
M  V30 4928 O 450.342 -0.790515 -1.6449 0
M  V30 4929 C 450.393 -3.58804 0.440649 0
M  V30 4930 O 450.114 -4.007 1.77118 0
M  V30 4931 C 451.615 -4.43296 0.0186117 0
M  V30 4932 H 448.835 -0.652526 0.156367 0
M  V30 4933 H 451.379 -1.73998 1.07447 0
M  V30 4934 H 449.534 -3.8686 -0.204458 0
M  V30 4935 H 449.948 -4.95309 1.72538 0
M  V30 4936 H 451.422 -5.51887 0.111488 0
M  V30 4937 H 451.899 -4.2684 -1.03461 0
M  V30 4938 H 452.505 -4.20512 0.636395 0
M  V30 4939 N 450.82 -0.546701 -1.47814 0
M  V30 4940 C 452.097 0.0464413 -1.95545 0
M  V30 4941 C 452.477 1.4962 -1.48919 0
M  V30 4942 O 451.825 2.16752 -0.723232 0
M  V30 4943 C 452.035 -0.0881298 -3.48889 0
M  V30 4944 C 453.383 0.0626059 -4.24554 0
M  V30 4945 O 454.407 -0.0151555 -3.56197 0
M  V30 4946 O 453.266 0.228071 -5.46024 0
M  V30 4947 H 450.36 0.0700004 -0.824032 0
M  V30 4948 H 452.906 -0.612482 -1.58262 0
M  V30 4949 H 451.678 -1.09737 -3.75597 0
M  V30 4950 H 451.301 0.608886 -3.9291 0
M  V30 4951 N 452.299 1.55045 -0.282633 0
M  V30 4952 C 453.231 2.2023 0.634924 0
M  V30 4953 C 454.244 1.18931 1.11172 0
M  V30 4954 O 455.433 1.4562 1.03233 0
M  V30 4955 C 452.533 2.82041 1.87899 0
M  V30 4956 C 451.706 4.091 1.54776 0
M  V30 4957 C 450.765 4.54887 2.64507 0
M  V30 4958 O 449.791 5.20496 2.30375 0
M  V30 4959 N 450.993 4.25659 3.94709 0
M  V30 4960 H 453.758 2.99601 0.0769811 0
M  V30 4961 H 451.319 1.61565 -0.104048 0
M  V30 4962 H 453.311 3.09613 2.60619 0
M  V30 4963 H 451.881 2.06618 2.3458 0
M  V30 4964 H 451.101 3.88736 0.654049 0
M  V30 4965 H 452.389 4.9187 1.30158 0
M  V30 4966 H 451.787 3.7306 4.25256 0
M  V30 4967 H 450.344 4.57984 4.63782 0
M  V30 4968 N 453.777 0.010035 1.57597 0
M  V30 4969 C 454.74 -0.963029 2.07986 0
M  V30 4970 C 455.74 -1.26619 0.991173 0
M  V30 4971 O 456.93 -1.2097 1.25347 0
M  V30 4972 C 454.062 -2.2851 2.52974 0
M  V30 4973 H 455.255 -0.526971 2.95234 0
M  V30 4974 H 452.808 -0.237639 1.54483 0
M  V30 4975 H 453.543 -2.76784 1.69 0
M  V30 4976 H 453.328 -2.07824 3.32493 0
M  V30 4977 H 454.818 -2.98294 2.9225 0
M  V30 4978 N 455.255 -1.55392 -0.262866 0
M  V30 4979 C 456.218 -1.88181 -1.30846 0
M  V30 4980 C 457.218 -0.757079 -1.41862 0
M  V30 4981 O 458.408 -1.02519 -1.40838 0
M  V30 4982 C 455.54 -2.09609 -2.68844 0
M  V30 4983 H 456.733 -2.81659 -1.02997 0
M  V30 4984 H 454.286 -1.48039 -0.501414 0
M  V30 4985 H 455.021 -1.18547 -3.01856 0
M  V30 4986 H 454.806 -2.91508 -2.62231 0
M  V30 4987 H 456.296 -2.36215 -3.44372 0
M  V30 4988 N 456.733 0.527833 -1.48498 0
M  V30 4989 C 457.981 1.28101 -1.56316 0
M  V30 4990 C 458.302 1.9352 -0.239781 0
M  V30 4991 O 457.572 1.81433 0.738849 0
M  V30 4992 H 456.152 0.475793 -0.575873 0
M  V30 4993 H 458.814 0.614052 -1.84974 0
M  V30 4994 H 457.91 2.05916 -2.34532 0
M  V30 4995 N 458.211 1.37122 0.776871 0
M  V30 4996 C 459.144 1.26835 1.89705 0
M  V30 4997 C 460.122 0.14992 1.61907 0
M  V30 4998 O 461.306 0.323242 1.85708 0
M  V30 4999 C 458.433 0.95986 3.24814 0
M  V30 5000 C 457.479 2.09447 3.7153 0
M  V30 5001 S 458.312 3.71368 3.85806 0
M  V30 5002 C 459.468 3.42659 5.23771 0
M  V30 5003 H 459.701 2.21647 1.98141 0
M  V30 5004 H 457.234 1.22685 0.937433 0
M  V30 5005 H 459.192 0.788696 4.02852 0
M  V30 5006 H 457.853 0.0293137 3.14086 0
M  V30 5007 H 457.046 1.8335 4.69467 0
M  V30 5008 H 456.648 2.2255 3.00578 0
M  V30 5009 H 458.94 2.9733 6.0877 0
M  V30 5010 H 459.883 4.39905 5.54878 0
M  V30 5011 H 460.291 2.77708 4.91466 0
M  V30 5012 N 459.689 -1.00246 1.21608 0
M  V30 5013 C 460.636 -2.09073 0.977613 0
M  V30 5014 C 461.606 -1.65815 -0.097297 0
M  V30 5015 O 462.791 -1.90734 0.0503445 0
M  V30 5016 C 459.931 -3.40671 0.551133 0
M  V30 5017 C 459.044 -3.97326 1.69576 0
M  V30 5018 C 458.179 -5.17043 1.2182 0
M  V30 5019 C 457.218 -5.65813 2.335 0
M  V30 5020 N 456.355 -6.76778 1.86859 0
M  V30 5021 H 461.195 -2.28806 1.90924 0
M  V30 5022 H 458.732 -1.12186 0.951452 0
M  V30 5023 H 460.69 -4.16225 0.285097 0
M  V30 5024 H 459.32 -3.20967 -0.343489 0
M  V30 5025 H 458.372 -3.18734 2.07637 0
M  V30 5026 H 459.684 -4.29511 2.53617 0
M  V30 5027 H 458.838 -5.99852 0.908975 0
M  V30 5028 H 457.577 -4.86458 0.347869 0
M  V30 5029 H 456.582 -4.81599 2.65222 0
M  V30 5030 H 457.807 -5.98427 3.21033 0
M  V30 5031 H 455.753 -6.47994 1.02174 0
M  V30 5032 H 455.67 -7.08231 2.64471 0
M  V30 5033 H 456.938 -7.63116 1.58978 0
M  V30 5034 N 461.167 -1.02423 -1.1978 0
M  V30 5035 C 462.077 -0.610919 -2.26506 0
M  V30 5036 C 463.093 0.355152 -1.70337 0
M  V30 5037 O 464.269 0.214195 -2.00258 0
M  V30 5038 C 461.334 0.0365921 -3.46681 0
M  V30 5039 C 460.395 -0.976389 -4.18049 0
M  V30 5040 C 459.628 -0.359683 -5.32487 0
M  V30 5041 O 459.851 0.838601 -5.64202 0
M  V30 5042 O 458.785 -1.08022 -5.92127 0
M  V30 5043 H 462.611 -1.49965 -2.64091 0
M  V30 5044 H 460.196 -0.794156 -1.26545 0
M  V30 5045 H 462.078 0.39786 -4.19518 0
M  V30 5046 H 460.753 0.899398 -3.10954 0
M  V30 5047 H 459.66 -1.38916 -3.47352 0
M  V30 5048 H 460.993 -1.80941 -4.57735 0
M  V30 5049 N 462.645 1.35699 -0.801477 0
M  V30 5050 C 463.922 1.9324 -0.302937 0
M  V30 5051 C 464.302 1.73209 1.20672 0
M  V30 5052 O 463.65 1.09809 2.00385 0
M  V30 5053 C 463.86 3.41728 -0.708747 0
M  V30 5054 C 465.208 4.18868 -0.695328 0
M  V30 5055 O 466.232 3.5022 -0.649971 0
M  V30 5056 O 465.091 5.41342 -0.749081 0
M  V30 5057 H 462.185 0.82331 -0.0780367 0
M  V30 5058 H 464.731 1.44806 -0.884832 0
M  V30 5059 H 463.503 3.50015 -1.74944 0
M  V30 5060 H 463.126 3.97471 -0.101384 0
M  V30 5061 N 464.123 0.554532 1.47522 0
M  V30 5062 C 465.055 -0.232106 2.28022 0
M  V30 5063 C 466.068 -0.881865 1.36847 0
M  V30 5064 O 467.257 -0.756168 1.61692 0
M  V30 5065 C 464.357 -1.34604 3.11022 0
M  V30 5066 C 463.53 -0.793582 4.30141 0
M  V30 5067 C 462.589 -1.79168 4.94758 0
M  V30 5068 O 461.615 -1.33886 5.5323 0
M  V30 5069 N 462.817 -3.12495 4.89211 0
M  V30 5070 H 465.582 0.458407 2.96173 0
M  V30 5071 H 463.143 0.390433 1.57122 0
M  V30 5072 H 465.135 -2.01243 3.51118 0
M  V30 5073 H 463.705 -1.93983 2.45131 0
M  V30 5074 H 462.925 0.0495025 3.94169 0
M  V30 5075 H 464.213 -0.403776 5.07195 0
M  V30 5076 H 463.611 -3.51931 4.42901 0
M  V30 5077 H 462.168 -3.74698 5.33333 0
M  V30 5078 N 465.601 -1.54893 0.290851 0
M  V30 5079 C 466.548 -2.23138 -0.58974 0
M  V30 5080 C 467.518 -1.21036 -1.13752 0
M  V30 5081 O 468.703 -1.49626 -1.18392 0
M  V30 5082 C 465.843 -2.96811 -1.76061 0
M  V30 5083 C 464.956 -4.13665 -1.24519 0
M  V30 5084 C 464.091 -4.74944 -2.3791 0
M  V30 5085 C 463.13 -5.83963 -1.83451 0
M  V30 5086 N 462.267 -6.39239 -2.90376 0
M  V30 5087 H 467.107 -2.98 -0.00114915 0
M  V30 5088 H 464.644 -1.47096 0.0112006 0
M  V30 5089 H 466.602 -3.37751 -2.44909 0
M  V30 5090 H 465.232 -2.24344 -2.32098 0
M  V30 5091 H 464.284 -3.77737 -0.449288 0
M  V30 5092 H 465.596 -4.92238 -0.806424 0
M  V30 5093 H 464.75 -5.18684 -3.14724 0
M  V30 5094 H 463.489 -3.95682 -2.85109 0
M  V30 5095 H 462.494 -5.39657 -1.05122 0
M  V30 5096 H 463.719 -6.65103 -1.37169 0
M  V30 5097 H 461.665 -5.62864 -3.36927 0
M  V30 5098 H 461.582 -7.13129 -2.50965 0
M  V30 5099 H 462.85 -6.87637 -3.67118 0
M  V30 5100 N 467.08 -0.0183926 -1.57589 0
M  V30 5101 C 468.012 0.995557 -2.06449 0
M  V30 5102 C 469.025 1.29556 -0.985849 0
M  V30 5103 O 470.214 1.2621 -1.26227 0
M  V30 5104 C 467.314 2.32572 -2.46502 0
M  V30 5105 C 466.487 2.21245 -3.77319 0
M  V30 5106 C 465.546 3.37104 -4.04039 0
M  V30 5107 O 464.572 3.14468 -4.74445 0
M  V30 5108 N 465.774 4.60553 -3.53372 0
M  V30 5109 H 468.539 0.578746 -2.94059 0
M  V30 5110 H 466.1 0.168603 -1.6102 0
M  V30 5111 H 468.092 3.08887 -2.61478 0
M  V30 5112 H 466.662 2.65931 -1.64315 0
M  V30 5113 H 465.882 1.29723 -3.72244 0
M  V30 5114 H 467.17 2.10868 -4.63047 0
M  V30 5115 H 466.568 4.81839 -2.96391 0
M  V30 5116 H 465.125 5.34072 -3.73644 0
M  V30 5117 N 468.558 1.5553 0.254621 0
M  V30 5118 C 469.506 1.9048 1.33492 0
M  V30 5119 C 470.5 0.78304 1.50216 0
M  V30 5120 O 471.706 0.967582 1.51782 0
M  V30 5121 H 468.081 0.604846 0.44684 0
M  V30 5122 H 470.052 2.80688 1.01275 0
M  V30 5123 C 468.801 2.20928 2.68489 0
M  V30 5124 H 468.124 3.06742 2.56417 0
M  V30 5125 H 469.564 2.49291 3.42972 0
M  V30 5126 C 468.023 1.023 3.20993 0
M  V30 5127 O 468.553 0.267027 4.00811 0
M  V30 5128 N 466.759 0.815714 2.78917 0
M  V30 5129 H 466.306 1.43217 2.14119 0
M  V30 5130 H 466.264 0.0236532 3.14391 0
M  V30 5131 N 470.036 -0.519951 1.48776 0
M  V30 5132 C 470.946 -1.65025 1.66745 0
M  V30 5133 C 471.962 -1.6508 0.549954 0
M  V30 5134 O 473.138 -1.83848 0.822295 0
M  V30 5135 C 470.203 -3.0146 1.71238 0
M  V30 5136 C 469.264 -3.12182 2.94688 0
M  V30 5137 C 468.497 -4.42109 2.98958 0
M  V30 5138 O 468.72 -5.29799 2.1135 0
M  V30 5139 O 467.654 -4.57406 3.91233 0
M  V30 5140 H 471.48 -1.52801 2.62461 0
M  V30 5141 H 469.065 -0.694157 1.32294 0
M  V30 5142 H 470.947 -3.82584 1.76657 0
M  V30 5143 H 469.622 -3.13988 0.786975 0
M  V30 5144 H 468.529 -2.30316 2.94797 0
M  V30 5145 H 469.862 -3.04574 3.86646 0
M  V30 5146 N 471.514 -1.37532 -0.769588 0
M  V30 5147 C 472.925 -1.29382 -1.346 0
M  V30 5148 C 473.276 0.0576039 -1.96115 0
M  V30 5149 O 472.401 0.95947 -1.93967 0
M  V30 5150 C 472.996 -2.34298 -2.44724 0
M  V30 5151 C 471.555 -2.29776 -2.98128 0
M  V30 5152 C 470.702 -2.18013 -1.71364 0
M  V30 5153 H 473.653 -1.48123 -0.56968 0
M  V30 5154 H 473.674 -1.99089 -3.24259 0
M  V30 5155 H 473.186 -3.32645 -1.99922 0
M  V30 5156 H 471.287 -1.34959 -3.47299 0
M  V30 5157 H 471.4 -3.23276 -3.53595 0
M  V30 5158 H 469.764 -1.64595 -1.94372 0
M  V30 5159 H 470.547 -3.18278 -1.28662 0
M  V30 5160 N 472.992 0.995999 -1.22138 0
M  V30 5161 C 474.239 1.7351 -1.04406 0
M  V30 5162 C 474.567 1.89884 0.421244 0
M  V30 5163 O 473.822 1.43683 1.32867 0
M  V30 5164 C 474.121 3.14553 -1.6968 0
M  V30 5165 C 473.787 3.18102 -3.19565 0
M  V30 5166 C 472.449 3.18778 -3.60464 0
M  V30 5167 C 474.801 3.14636 -4.15516 0
M  V30 5168 C 472.129 3.13684 -4.95801 0
M  V30 5169 C 474.481 3.11084 -5.50826 0
M  V30 5170 C 473.145 3.10074 -5.91109 0
M  V30 5171 H 472.415 0.634916 -0.38205 0
M  V30 5172 H 475.062 1.1667 -1.51857 0
M  V30 5173 H 473.367 3.74682 -1.14546 0
M  V30 5174 H 475.064 3.70477 -1.53454 0
M  V30 5175 H 471.654 3.18324 -2.86998 0
M  V30 5176 H 475.838 3.13266 -3.84939 0
M  V30 5177 H 471.094 3.11245 -5.26247 0
M  V30 5178 H 475.268 3.07357 -6.24904 0
M  V30 5179 H 472.895 3.05882 -6.95946 0
M  V30 5180 N 474.47 1.03057 1.19235 0
M  V30 5181 C 475.716 0.729098 1.89241 0
M  V30 5182 C 476.049 -0.740573 1.79525 0
M  V30 5183 O 475.324 -1.53946 1.18874 0
M  V30 5184 C 475.607 1.18304 3.40112 0
M  V30 5185 C 475.46 2.71406 3.5869 0
M  V30 5186 C 476.779 0.765161 4.33397 0
M  V30 5187 H 473.898 0.266338 0.687192 0
M  V30 5188 H 476.54 1.28079 1.40341 0
M  V30 5189 H 474.69 0.713672 3.81889 0
M  V30 5190 H 476.362 3.26303 3.26074 0
M  V30 5191 H 474.605 3.11717 3.01687 0
M  V30 5192 H 475.276 2.98225 4.64506 0
M  V30 5193 H 477.752 1.16889 3.99345 0
M  V30 5194 H 476.628 1.11065 5.37546 0
M  V30 5195 H 476.889 -0.332372 4.40849 0
M  V30 5196 N 475.948 -1.35272 0.808662 0
M  V30 5197 C 476.911 -2.28082 0.226093 0
M  V30 5198 C 477.911 -1.49673 -0.587762 0
M  V30 5199 O 479.101 -1.69404 -0.405943 0
M  V30 5200 C 476.233 -3.33955 -0.684596 0
M  V30 5201 H 477.426 -2.81116 1.04469 0
M  V30 5202 H 474.979 -1.45162 0.579466 0
M  V30 5203 H 475.714 -2.86111 -1.5268 0
M  V30 5204 H 475.499 -3.91965 -0.102699 0
M  V30 5205 H 476.989 -4.03219 -1.08646 0
M  V30 5206 N 477.426 -0.562348 -1.47226 0
M  V30 5207 C 478.654 -0.0452275 -2.06851 0
M  V30 5208 C 479.069 1.25078 -1.41424 0
M  V30 5209 O 478.426 1.75156 -0.512513 0
M  V30 5210 C 478.477 0.148674 -3.61194 0
M  V30 5211 O 478.198 -1.09602 -4.24169 0
M  V30 5212 C 479.699 0.702488 -4.37699 0
M  V30 5213 H 476.919 -0.0481775 -0.669268 0
M  V30 5214 H 479.463 -0.777223 -1.89155 0
M  V30 5215 H 477.618 0.830817 -3.78386 0
M  V30 5216 H 478.032 -0.896982 -5.16773 0
M  V30 5217 H 479.506 0.78743 -5.46355 0
M  V30 5218 H 479.983 1.71493 -4.04335 0
M  V30 5219 H 480.589 0.0558772 -4.25263 0
M  V30 5220 N 478.904 1.54736 -0.299062 0
M  V30 5221 C 479.836 2.20891 0.61153 0
M  V30 5222 C 480.849 1.20104 1.09904 0
M  V30 5223 O 482.038 1.46707 1.01683 0
M  V30 5224 C 479.138 2.84018 1.84897 0
M  V30 5225 C 478.311 4.10719 1.50428 0
M  V30 5226 C 477.37 4.57667 2.59667 0
M  V30 5227 O 476.396 5.2291 2.24842 0
M  V30 5228 N 477.598 4.29821 3.90172 0
M  V30 5229 H 480.363 2.99666 0.0452001 0
M  V30 5230 H 477.924 1.61446 -0.121178 0
M  V30 5231 H 479.916 3.1236 2.5732 0
M  V30 5232 H 478.486 2.09095 2.32375 0
M  V30 5233 H 477.706 3.89408 0.612781 0
M  V30 5234 H 478.994 4.93223 1.24934 0
M  V30 5235 H 478.392 3.77549 4.21276 0
M  V30 5236 H 476.949 4.62877 4.58899 0
M  V30 5237 N 480.382 0.0267497 1.57577 0
M  V30 5238 C 481.607 -0.666227 1.96408 0
M  V30 5239 C 482.032 -1.65004 0.903071 0
M  V30 5240 O 481.39 -1.80787 -0.136263 0
M  V30 5241 C 481.438 -1.35101 3.34335 0
M  V30 5242 O 480.542 -2.46623 3.30531 0
M  V30 5243 H 479.883 -0.175206 0.640468 0
M  V30 5244 H 482.413 0.0878977 2.04411 0
M  V30 5245 H 482.423 -1.70834 3.70513 0
M  V30 5246 H 481.098 -0.629844 4.11103 0
M  V30 5247 H 479.675 -2.13019 3.06068 0
M  V30 5248 N 481.861 -1.55662 -0.24637 0
M  V30 5249 C 483.086 -1.81914 -0.996093 0
M  V30 5250 C 483.511 -0.603875 -1.78143 0
M  V30 5251 O 482.869 0.447091 -1.75701 0
M  V30 5252 C 482.917 -3.05908 -1.90925 0
M  V30 5253 O 482.021 -2.82861 -3.00105 0
M  V30 5254 H 481.362 -0.600481 -0.283406 0
M  V30 5255 H 483.892 -2.02848 -0.267199 0
M  V30 5256 H 483.902 -3.35356 -2.3238 0
M  V30 5257 H 482.577 -3.93999 -1.33183 0
M  V30 5258 H 481.154 -2.64583 -2.62775 0
M  V30 5259 N 483.339 0.512053 -1.4905 0
M  V30 5260 C 484.302 1.59704 -1.64399 0
M  V30 5261 C 485.302 1.52285 -0.516317 0
M  V30 5262 O 486.492 1.55635 -0.782527 0
M  V30 5263 C 483.624 2.9935 -1.63102 0
M  V30 5264 H 484.817 1.47428 -2.61161 0
M  V30 5265 H 482.37 0.735469 -1.37915 0
M  V30 5266 H 483.105 3.17116 -0.678836 0
M  V30 5267 H 482.89 3.06144 -2.44986 0
M  V30 5268 H 484.38 3.782 -1.77072 0
M  V30 5269 N 484.817 1.37938 0.762283 0
M  V30 5270 C 486.057 1.35076 1.53407 0
M  V30 5271 C 486.421 -0.061546 1.91901 0
M  V30 5272 O 487.622 -0.214973 2.67939 0
M  V30 5273 C 485.893 2.27206 2.75884 0
M  V30 5274 S 487.452 2.42283 3.65848 0
M  V30 5275 H 484.27 0.479387 0.52508 0
M  V30 5276 H 486.872 1.7378 0.895586 0
M  V30 5277 H 485.576 3.28724 2.457 0
M  V30 5278 H 485.107 1.8962 3.44685 0
M  V30 5279 H 487.122 1.64044 4.68299 0
M  V30 5280 N 486.295 -0.989507 1.22664 0
M  V30 5281 C 487.541 -1.7321 1.05481 0
M  V30 5282 C 487.874 -1.89852 -0.408635 0
M  V30 5283 O 487.149 -1.44416 -1.30285 0
M  V30 5284 C 487.432 -3.1357 1.77047 0
M  V30 5285 C 487.285 -3.04555 3.31008 0
M  V30 5286 C 488.604 -4.12812 1.5256 0
M  V30 5287 H 485.723 -0.628697 0.384589 0
M  V30 5288 H 488.365 -1.15258 1.51049 0
M  V30 5289 H 486.515 -3.63046 1.3831 0
M  V30 5290 H 488.187 -2.62674 3.7921 0
M  V30 5291 H 486.43 -2.41278 3.6051 0
M  V30 5292 H 487.101 -4.03894 3.76263 0
M  V30 5293 H 489.577 -3.72106 1.86215 0
M  V30 5294 H 488.453 -5.09132 2.05124 0
M  V30 5295 H 488.714 -4.39711 0.458936 0
M  V30 5296 N 487.773 -1.03688 -1.18687 0
M  V30 5297 C 489.05 -0.652397 -1.84399 0
M  V30 5298 C 489.43 0.868386 -1.92412 0
M  V30 5299 O 488.778 1.76832 -1.44716 0
M  V30 5300 C 488.988 -1.3238 -3.22919 0
M  V30 5301 C 490.336 -1.45216 -3.98996 0
M  V30 5302 O 491.36 -1.2816 -3.32345 0
M  V30 5303 O 490.219 -1.72975 -5.18403 0
M  V30 5304 H 487.313 -0.227793 -0.795009 0
M  V30 5305 H 489.859 -1.13553 -1.2611 0
M  V30 5306 H 488.631 -2.36202 -3.11968 0
M  V30 5307 H 488.254 -0.829039 -3.88861 0
M  V30 5308 N 489.251 1.34841 -0.815825 0
M  V30 5309 C 490.499 1.98107 -0.399744 0
M  V30 5310 C 490.82 1.65019 1.03894 0
M  V30 5311 O 490.09 0.937311 1.72021 0
M  V30 5312 H 488.67 0.732827 -0.144823 0
M  V30 5313 H 491.332 1.64599 -1.0437 0
M  V30 5314 H 490.428 3.07856 -0.512965 0
M  V30 5315 N 490.729 0.570148 1.46925 0
M  V30 5316 C 492.14 0.1402 1.86173 0
M  V30 5317 C 492.491 -1.29347 1.47526 0
M  V30 5318 O 491.616 -1.97508 0.884292 0
M  V30 5319 C 492.211 0.247661 3.37894 0
M  V30 5320 C 490.77 -0.127332 3.76185 0
M  V30 5321 C 489.917 0.589349 2.70965 0
M  V30 5322 H 492.868 0.779117 1.38259 0
M  V30 5323 H 492.889 -0.530341 3.76786 0
M  V30 5324 H 492.401 1.29121 3.65991 0
M  V30 5325 H 490.502 -1.17149 3.53704 0
M  V30 5326 H 490.615 0.240238 4.78497 0
M  V30 5327 H 488.979 0.0309824 2.54681 0
M  V30 5328 H 489.762 1.6343 3.01903 0
M  V30 5329 N 492.207 -1.54576 0.307264 0
M  V30 5330 C 493.17 -2.22423 -0.553224 0
M  V30 5331 C 494.17 -1.21231 -1.05639 0
M  V30 5332 O 495.36 -1.45923 -0.951419 0
M  V30 5333 C 492.492 -2.91552 -1.76664 0
M  V30 5334 H 493.685 -2.99874 0.0396484 0
M  V30 5335 H 491.238 -1.56192 0.0581629 0
M  V30 5336 H 491.973 -2.18196 -2.39918 0
M  V30 5337 H 491.758 -3.65738 -1.41343 0
M  V30 5338 H 493.248 -3.43292 -2.37783 0
M  V30 5339 N 493.685 -0.035106 -1.57561 0
M  V30 5340 C 494.633 0.962707 -2.11742 0
M  V30 5341 C 495.627 1.33296 -1.0454 0
M  V30 5342 O 496.833 1.31449 -1.22968 0
M  V30 5343 H 493.208 0.32826 -0.676572 0
M  V30 5344 H 495.179 0.48048 -2.94506 0
M  V30 5345 C 493.928 2.23388 -2.66445 0
M  V30 5346 H 493.251 1.95774 -3.48587 0
M  V30 5347 H 494.691 2.91402 -3.07995 0
M  V30 5348 C 493.15 2.96769 -1.59467 0
M  V30 5349 O 493.68 3.89105 -0.998 0
M  V30 5350 N 491.886 2.59212 -1.31369 0
M  V30 5351 H 491.433 1.84202 -1.80076 0
M  V30 5352 H 491.391 3.08618 -0.600173 0
M  V30 5353 N 495.163 1.55791 0.238111 0
M  V30 5354 C 496.113 1.87444 1.29803 0
M  V30 5355 C 497.097 0.736043 1.43078 0
M  V30 5356 O 498.289 0.998146 1.46171 0
M  V30 5357 C 495.418 2.18028 2.65177 0
M  V30 5358 C 494.504 3.38217 2.55871 0
M  V30 5359 N 494.895 4.57264 2.16202 0
M  V30 5360 C 493.193 3.41502 2.86866 0
M  V30 5361 C 493.894 5.3941 2.17744 0
M  V30 5362 N 492.87 4.78695 2.57589 0
M  V30 5363 H 496.672 2.7701 0.981965 0
M  V30 5364 H 494.186 1.56135 0.44672 0
M  V30 5365 H 496.183 2.38873 3.4168 0
M  V30 5366 H 494.843 1.29765 2.97643 0
M  V30 5367 H 495.854 4.82727 1.87602 0
M  V30 5368 H 492.531 2.63536 3.23813 0
M  V30 5369 H 493.921 6.44671 1.89339 0
M  V30 5370 O 496.68 -0.383686 1.56876 0
M  V30 5371 H 497.371 -1.03525 1.63714 0
M  V30 END ATOM
M  V30 BEGIN BOND
M  V30 END BOND
M  V30 END CTAB
M  END
$$$$
