drugbank_target|O00244 Copper transport protein ATOX1 (DB00515; DB02772; DB03127)
 OpenBabel12092120253D

  0  0  0     0  0            999 V3000
M  V30 BEGIN CTAB
M  V30 COUNTS 1045 1051 0 0 0
M  V30 BEGIN ATOM
M  V30 1 H -0.908 1.98254 -0.117106 0
M  V30 2 N 0 1.576 0 0
M  V30 3 C 0.933 2.03868 1.02534 0
M  V30 4 C 1.911 0.928543 1.3348 0
M  V30 5 O 3.095 1.19667 1.45644 0
M  V30 6 C 0.222 2.43627 2.35294 0
M  V30 7 C -0.732 3.65373 2.2001 0
M  V30 8 S 0.101 5.13292 1.52614 0
M  V30 9 C 1.257 5.56322 2.86805 0
M  V30 10 H 1.49 2.90518 0.631377 0
M  V30 11 H -0.977 1.52953 0.210867 0
M  V30 12 H 0.981 2.67203 3.11629 0
M  V30 13 H -0.358 1.57376 2.7183 0
M  V30 14 H -1.165 3.90944 3.18086 0
M  V30 15 H -1.563 3.418 1.51819 0
M  V30 16 H 0.729 5.58782 3.83104 0
M  V30 17 H 1.672 6.56266 2.65933 0
M  V30 18 H 2.08 4.83886 2.90714 0
M  V30 19 N 1.4781 -0.272755 1.55222 0
M  V30 20 C 2.8891 -0.84378 1.66545 0
M  V30 21 C 3.2401 -1.87035 0.592641 0
M  V30 22 O 2.3651 -2.14761 -0.265818 0
M  V30 23 C 2.9601 -1.53723 3.01918 0
M  V30 24 C 1.5191 -2.05628 3.15268 0
M  V30 25 C 0.6661 -0.898424 2.62343 0
M  V30 26 H 3.6171 -0.0490998 1.58624 0
M  V30 27 H 3.6381 -2.40421 2.94921 0
M  V30 28 H 3.1501 -0.78983 3.79978 0
M  V30 29 H 1.2511 -2.83329 2.41983 0
M  V30 30 H 1.3641 -2.27142 4.21833 0
M  V30 31 H -0.2719 -1.29186 2.19506 0
M  V30 32 H 0.5111 -0.164528 3.42906 0
M  V30 33 N 2.9562 -1.48159 -0.537278 0
M  V30 34 C 3.9032 -1.62138 -1.64256 0
M  V30 35 C 4.8732 -0.463668 -1.59497 0
M  V30 36 O 6.0582 -0.686241 -1.78032 0
M  V30 37 C 3.1982 -1.66028 -3.02537 0
M  V30 38 C 2.3112 -2.92855 -3.17585 0
M  V30 39 C 1.4462 -2.87952 -4.46382 0
M  V30 40 C 0.4852 -4.09516 -4.54932 0
M  V30 41 N -0.3778 -4.02733 -5.75109 0
M  V30 42 H 4.4622 -2.56529 -1.51647 0
M  V30 43 H 1.9992 -1.27224 -0.738414 0
M  V30 44 H 3.9572 -1.66265 -3.82638 0
M  V30 45 H 2.5872 -0.751331 -3.13934 0
M  V30 46 H 1.6392 -3.02395 -2.30784 0
M  V30 47 H 2.9512 -3.82822 -3.19764 0
M  V30 48 H 2.1052 -2.8655 -5.34765 0
M  V30 49 H 0.8442 -1.95702 -4.46712 0
M  V30 50 H -0.1508 -4.11201 -3.64957 0
M  V30 51 H 1.0742 -5.02917 -4.56346 0
M  V30 52 H -0.9798 -3.13299 -5.76351 0
M  V30 53 H -1.0628 -4.86397 -5.78752 0
M  V30 54 H 0.2052 -4.05379 -6.65799 0
M  V30 55 N 4.4343 0.785586 -1.36625 0
M  V30 56 C 5.3843 1.88822 -1.27789 0
M  V30 57 C 6.3683 1.60014 -0.168579 0
M  V30 58 O 7.5603 1.72381 -0.401737 0
M  V30 59 C 4.6893 3.26092 -1.07327 0
M  V30 60 C 3.7753 3.60897 -2.22743 0
M  V30 61 N 4.1663 3.66982 -3.48077 0
M  V30 62 C 2.4643 3.90981 -2.14593 0
M  V30 63 C 3.1653 3.98137 -4.24101 0
M  V30 64 N 2.1413 4.13319 -3.53084 0
M  V30 65 H 5.9433 1.91759 -2.22723 0
M  V30 66 H 3.4573 0.981311 -1.29399 0
M  V30 67 H 5.4543 4.04954 -0.990842 0
M  V30 68 H 4.1143 3.24428 -0.132977 0
M  V30 69 H 5.1253 3.49531 -3.82163 0
M  V30 70 H 1.8023 3.9722 -1.2854 0
M  V30 71 H 3.1923 4.09737 -5.32509 0
M  V30 72 N 5.9124 1.20967 1.01018 0
M  V30 73 C 6.8224 0.980157 2.13143 0
M  V30 74 C 7.8384 -0.0660665 1.73875 0
M  V30 75 O 9.0144 0.122821 2.01025 0
M  V30 76 C 6.0794 0.54216 3.42435 0
M  V30 77 C 5.1404 1.65999 3.95908 0
M  V30 78 C 4.3734 1.2428 5.19028 0
M  V30 79 O 4.5964 0.114196 5.70286 0
M  V30 80 O 3.5304 2.05271 5.65816 0
M  V30 81 H 7.3564 1.91913 2.35379 0
M  V30 82 H 4.9414 0.994099 1.11526 0
M  V30 83 H 6.8234 0.30744 4.20277 0
M  V30 84 H 5.4984 -0.36815 3.216 0
M  V30 85 H 4.4054 1.94906 3.19316 0
M  V30 86 H 5.7384 2.54753 4.21143 0
M  V30 87 N 7.3905 -1.2043 1.01659 0
M  V30 88 C 8.6375 -1.89797 0.705917 0
M  V30 89 C 8.9655 -1.78848 -0.764439 0
M  V30 90 O 8.2205 -1.16694 -1.57102 0
M  V30 91 C 8.5195 -3.40464 1.08714 0
M  V30 92 C 8.1855 -3.71614 2.5537 0
M  V30 93 C 6.8475 -3.79826 2.95441 0
M  V30 94 C 9.1995 -3.85915 3.50313 0
M  V30 95 C 6.5275 -3.99797 4.29394 0
M  V30 96 C 8.8795 -4.07396 4.83954 0
M  V30 97 C 7.5435 -4.13837 5.23732 0
M  V30 98 H 6.8135 -0.694518 0.258313 0
M  V30 99 H 9.4605 -1.42691 1.27717 0
M  V30 100 H 7.7655 -3.89385 0.434309 0
M  V30 101 H 9.4625 -3.92433 0.824461 0
M  V30 102 H 6.0525 -3.65822 2.23321 0
M  V30 103 H 10.2365 -3.78926 3.20513 0
M  V30 104 H 5.4925 -4.03018 4.59768 0
M  V30 105 H 9.6665 -4.17404 5.57447 0
M  V30 106 H 7.2935 -4.29064 6.27541 0
M  V30 107 N 8.8686 -0.792821 -1.36206 0
M  V30 108 C 10.0936 -0.377701 -2.03932 0
M  V30 109 C 10.5186 0.998947 -1.59382 0
M  V30 110 O 9.8766 1.64421 -0.763903 0
M  V30 111 C 9.9246 -0.453635 -3.57735 0
M  V30 112 O 9.0286 0.538151 -4.08874 0
M  V30 113 H 8.3696 -0.159855 -0.644471 0
M  V30 114 H 10.8996 -1.07488 -1.7409 0
M  V30 115 H 10.9096 -0.318464 -4.06755 0
M  V30 116 H 9.5846 -1.45784 -3.89512 0
M  V30 117 H 8.1616 0.364359 -3.71116 0
M  V30 118 N 10.3467 1.47872 -0.545128 0
M  V30 119 C 11.5927 2.02793 -0.0166104 0
M  V30 120 C 11.9257 1.41987 1.32489 0
M  V30 121 O 11.2007 0.571045 1.85928 0
M  V30 122 C 11.4837 3.59989 0.0893294 0
M  V30 123 C 11.3367 4.3125 -1.27841 0
M  V30 124 C 12.6557 4.32606 0.808724 0
M  V30 125 H 9.7747 0.736962 -0.00751035 0
M  V30 126 H 12.4167 1.76433 -0.705085 0
M  V30 127 H 10.5667 3.82579 0.675681 0
M  V30 128 H 12.2387 4.20035 -1.90704 0
M  V30 129 H 10.4817 3.92076 -1.85632 0
M  V30 130 H 11.1527 5.39736 -1.15713 0
M  V30 131 H 13.6287 4.14936 0.310992 0
M  V30 132 H 12.5047 5.42251 0.851782 0
M  V30 133 H 12.7657 4.00963 1.86229 0
M  V30 134 N 11.8248 0.280983 1.55075 0
M  V30 135 C 13.1018 -0.386207 1.91749 0
M  V30 136 C 13.4818 -1.73264 1.20594 0
M  V30 137 O 12.8298 -2.26034 0.334784 0
M  V30 138 C 13.0398 -0.520687 3.45094 0
M  V30 139 C 14.3878 -0.800865 4.16979 0
M  V30 140 O 15.4118 -0.605271 3.5102 0
M  V30 141 O 14.2708 -1.1753 5.33712 0
M  V30 142 H 11.3648 -0.212408 0.799257 0
M  V30 143 H 13.9108 0.327568 1.66509 0
M  V30 144 H 12.6828 0.426633 3.88967 0
M  V30 145 H 12.3058 -1.2837 3.76307 0
M  V30 146 N 13.3029 -1.57598 0.00835791 0
M  V30 147 C 14.2359 -2.04409 -1.01451 0
M  V30 148 C 15.2139 -0.935609 -1.32985 0
M  V30 149 O 16.3979 -1.20437 -1.45007 0
M  V30 150 C 13.5249 -2.44872 -2.33999 0
M  V30 151 C 12.5709 -3.66535 -2.18069 0
M  V30 152 S 13.4039 -5.14095 -1.4989 0
M  V30 153 C 14.5599 -5.57835 -2.8385 0
M  V30 154 H 14.7929 -2.90849 -0.615961 0
M  V30 155 H 12.3259 -1.53063 -0.202752 0
M  V30 156 H 14.2839 -2.68852 -3.10208 0
M  V30 157 H 12.9449 -1.58815 -2.70992 0
M  V30 158 H 12.1379 -3.92626 -3.16008 0
M  V30 159 H 11.7399 -3.426 -1.50004 0
M  V30 160 H 14.0319 -5.60806 -3.80136 0
M  V30 161 H 14.9749 -6.57667 -2.62449 0
M  V30 162 H 15.3829 -4.85421 -2.88144 0
M  V30 163 N 14.781 0.264519 -1.55364 0
M  V30 164 C 16.009 1.013 -1.80405 0
M  V30 165 C 16.424 1.79618 -0.581622 0
M  V30 166 O 15.781 1.76879 0.449468 0
M  V30 167 C 15.832 1.96487 -3.03439 0
M  V30 168 O 15.553 1.21341 -4.20961 0
M  V30 169 C 17.054 2.83079 -3.41147 0
M  V30 170 H 14.274 0.298875 -0.600762 0
M  V30 171 H 16.818 0.292736 -2.02394 0
M  V30 172 H 14.973 2.63965 -2.83551 0
M  V30 173 H 15.387 1.85573 -4.90574 0
M  V30 174 H 16.861 3.4565 -4.30384 0
M  V30 175 H 17.338 3.53286 -2.60932 0
M  V30 176 H 17.944 2.2108 -3.63323 0
M  V30 177 N 16.2591 1.48442 0.529413 0
M  V30 178 C 17.4991 1.58086 1.29569 0
M  V30 179 C 17.8631 0.249302 1.90375 0
M  V30 180 O 19.0641 0.220738 2.67892 0
M  V30 181 C 17.3351 2.68793 2.35552 0
M  V30 182 S 18.8941 2.98207 3.21898 0
M  V30 183 H 15.7121 0.557922 0.440732 0
M  V30 184 H 18.3141 1.85966 0.603059 0
M  V30 185 H 17.0181 3.64102 1.89363 0
M  V30 186 H 16.5491 2.42817 3.09522 0
M  V30 187 H 18.5641 2.37548 4.35644 0
M  V30 188 N 17.7372 -0.778329 1.37039 0
M  V30 189 C 18.9852 -1.53361 1.31623 0
M  V30 190 C 19.3062 -1.94739 -0.100831 0
M  V30 191 O 18.5762 -1.65797 -1.04347 0
M  V30 192 H 17.1562 -0.568794 0.484234 0
M  V30 193 H 19.8182 -0.926742 1.71457 0
M  V30 194 H 18.9142 -2.43606 1.95096 0
M  V30 195 N 19.2153 -1.21501 -1.00376 0
M  V30 196 C 20.4633 -1.03095 -1.73827 0
M  V30 197 C 20.7843 0.436341 -1.90055 0
M  V30 198 O 20.0543 1.31466 -1.45236 0
M  V30 199 H 18.6343 -0.378487 -0.644016 0
M  V30 200 H 21.2963 -1.52831 -1.20949 0
M  V30 201 H 20.3923 -1.49991 -2.73695 0
M  V30 202 N 20.6934 1.19889 -1.02296 0
M  V30 203 C 21.9334 1.91125 -0.724602 0
M  V30 204 C 22.2974 1.77464 0.732835 0
M  V30 205 O 23.4984 2.43241 1.144 0
M  V30 206 C 21.7694 3.38187 -1.15604 0
M  V30 207 S 23.3284 4.27702 -0.980621 0
M  V30 208 H 20.1464 0.66018 -0.263976 0
M  V30 209 H 22.7484 1.44978 -1.31155 0
M  V30 210 H 21.4524 3.45653 -2.21251 0
M  V30 211 H 20.9834 3.89363 -0.562131 0
M  V30 212 H 22.9984 4.96073 0.112225 0
M  V30 213 N 22.1715 0.800033 1.35784 0
M  V30 214 C 23.1345 0.211565 2.28221 0
M  V30 215 C 24.1345 -0.59728 1.49296 0
M  V30 216 O 25.3245 -0.416721 1.69142 0
M  V30 217 C 22.4565 -0.705846 3.33513 0
M  V30 218 H 23.6495 1.02677 2.81776 0
M  V30 219 H 21.2025 0.570211 1.45528 0
M  V30 220 H 21.9375 -1.54498 2.85133 0
M  V30 221 H 21.7225 -0.127655 3.91892 0
M  V30 222 H 23.2125 -1.11211 4.02519 0
M  V30 223 N 23.6496 -1.47581 0.552962 0
M  V30 224 C 24.5596 -2.33743 -0.200353 0
M  V30 225 C 25.5756 -1.47928 -0.916151 0
M  V30 226 O 26.7516 -1.80865 -0.885993 0
M  V30 227 C 23.8166 -3.24536 -1.21973 0
M  V30 228 C 22.8776 -4.26238 -0.511819 0
M  V30 229 C 22.1106 -5.12693 -1.48263 0
M  V30 230 O 22.3336 -5.01525 -2.71714 0
M  V30 231 O 21.2676 -5.93375 -1.00945 0
M  V30 232 H 25.0936 -2.9945 0.506304 0
M  V30 233 H 22.6786 -1.46071 0.313622 0
M  V30 234 H 24.5606 -3.80631 -1.80827 0
M  V30 235 H 23.2356 -2.61462 -1.90839 0
M  V30 236 H 22.1426 -3.73914 0.117799 0
M  V30 237 H 23.4756 -4.92014 0.135308 0
M  V30 238 N 25.1277 -0.289203 -1.54924 0
M  V30 239 C 26.0907 0.579144 -2.21762 0
M  V30 240 C 27.0907 1.07047 -1.1999 0
M  V30 241 O 28.2807 0.968384 -1.44803 0
M  V30 242 C 25.4127 1.80055 -2.8947 0
M  V30 243 H 26.6057 -0.00464908 -2.999 0
M  V30 244 H 24.1587 -0.0399306 -1.56249 0
M  V30 245 H 24.8937 2.42449 -2.15381 0
M  V30 246 H 24.6787 1.45602 -3.64064 0
M  V30 247 H 26.1687 2.41773 -3.40493 0
M  V30 248 N 26.6058 1.57591 -0.0167156 0
M  V30 249 C 27.8518 1.91567 0.665582 0
M  V30 250 C 28.1848 0.892298 1.72487 0
M  V30 251 O 27.4598 -0.0867127 1.94307 0
M  V30 252 C 27.7428 3.36069 1.29342 0
M  V30 253 C 27.5958 4.49135 0.244541 0
M  V30 254 C 28.9148 3.803 2.21495 0
M  V30 255 H 26.0338 0.69666 0.240488 0
M  V30 256 H 28.6758 1.89866 -0.0714356 0
M  V30 257 H 26.8258 3.3765 1.92158 0
M  V30 258 H 28.4978 4.59689 -0.385228 0
M  V30 259 H 26.7408 4.3165 -0.431379 0
M  V30 260 H 27.4118 5.47242 0.723207 0
M  V30 261 H 29.8878 3.80377 1.68678 0
M  V30 262 H 28.7638 4.82127 2.62382 0
M  V30 263 H 29.0248 3.15104 3.101 0
M  V30 264 N 28.0839 -0.256276 1.55502 0
M  V30 265 C 29.3089 -1.00766 1.81276 0
M  V30 266 C 29.7339 -1.78524 0.59252 0
M  V30 267 O 29.0919 -1.75413 -0.45827 0
M  V30 268 C 29.1399 -1.92869 3.04687 0
M  V30 269 O 28.2439 -3.019 2.80945 0
M  V30 270 H 27.5849 -0.287224 0.598664 0
M  V30 271 H 30.1149 -0.280109 2.02674 0
M  V30 272 H 30.1249 -2.34511 3.33869 0
M  V30 273 H 28.7999 -1.35689 3.93143 0
M  V30 274 H 27.3769 -2.64454 2.62904 0
M  V30 275 N 29.562 -1.4872 -0.521534 0
M  V30 276 C 30.978 -1.35028 -0.850855 0
M  V30 277 C 31.178 -0.367712 -1.98116 0
M  V30 278 O 30.234 0.208037 -2.51642 0
M  V30 279 C 31.547 -2.75263 -1.21041 0
M  V30 280 C 33.095 -2.83813 -1.31981 0
M  V30 281 C 33.57 -4.24769 -1.71276 0
M  V30 282 N 35.061 -4.27482 -1.78363 0
M  V30 283 C 35.796 -5.33494 -2.1017 0
M  V30 284 N 35.292 -6.49775 -2.40343 0
M  V30 285 N 37.085 -5.20894 -2.11248 0
M  V30 286 H 29.236 -2.11214 0.22413 0
M  V30 287 H 31.499 -0.947252 0.0376439 0
M  V30 288 H 31.205 -3.48765 -0.453415 0
M  V30 289 H 31.079 -3.09327 -2.15863 0
M  V30 290 H 33.466 -2.10561 -2.06756 0
M  V30 291 H 33.547 -2.53358 -0.352596 0
M  V30 292 H 33.191 -4.9854 -0.970588 0
M  V30 293 H 33.121 -4.52673 -2.69062 0
M  V30 294 H 35.612 -3.43611 -1.57288 0
M  V30 295 H 35.925 -7.26402 -2.63743 0
M  V30 296 H 34.27 -6.53035 -2.37844 0
M  V30 297 H 37.461 -4.29065 -1.87139 0
M  V30 298 H 37.634 -6.03612 -2.35704 0
M  V30 299 N 31.0401 0.771051 -1.3745 0
M  V30 300 C 32.2861 1.5319 -1.32894 0
M  V30 301 C 32.6191 1.94008 0.0862511 0
M  V30 302 O 31.8941 1.64124 1.04373 0
M  V30 303 C 32.1771 2.79648 -2.26868 0
M  V30 304 C 32.0301 2.45079 -3.77169 0
M  V30 305 C 33.3491 3.81583 -2.19277 0
M  V30 306 H 30.4681 0.555744 -0.484064 0
M  V30 307 H 33.1101 0.884492 -1.68157 0
M  V30 308 H 31.2601 3.34891 -1.96926 0
M  V30 309 H 32.9321 1.95745 -4.1771 0
M  V30 310 H 31.1751 1.77767 -3.95704 0
M  V30 311 H 31.8461 3.35478 -4.38359 0
M  V30 312 H 34.3221 3.35835 -2.45671 0
M  V30 313 H 33.1981 4.67787 -2.87171 0
M  V30 314 H 33.4591 4.25897 -1.18592 0
M  V30 315 N 32.5182 1.22032 0.997298 0
M  V30 316 C 33.4482 1.01065 2.10495 0
M  V30 317 C 34.4292 -0.0669542 1.69968 0
M  V30 318 O 35.6142 0.0943987 1.9397 0
M  V30 319 C 32.7442 0.582874 3.42374 0
M  V30 320 C 31.6982 1.60592 3.96729 0
M  V30 321 C 31.0242 1.03412 5.24605 0
M  V30 322 C 32.3242 2.99478 4.27914 0
M  V30 323 H 34.0182 1.93708 2.28292 0
M  V30 324 H 31.5642 0.932761 1.09707 0
M  V30 325 H 33.5172 0.423332 4.19268 0
M  V30 326 H 32.2412 -0.379213 3.24391 0
M  V30 327 H 30.9002 1.75316 3.21963 0
M  V30 328 H 30.5482 0.063518 5.0296 0
M  V30 329 H 30.2482 1.71754 5.61938 0
M  V30 330 H 31.7722 0.886066 6.04137 0
M  V30 331 H 33.1862 2.88153 4.95622 0
M  V30 332 H 31.5832 3.64903 4.76409 0
M  V30 333 H 32.6532 3.49742 3.3587 0
M  V30 334 N 33.9963 -1.19345 1.0293 0
M  V30 335 C 34.9443 -2.24621 0.604001 0
M  V30 336 C 35.9383 -1.65452 -0.363587 0
M  V30 337 O 37.1443 -1.78497 -0.23212 0
M  V30 338 H 33.5193 -0.730858 0.177061 0
M  V30 339 H 35.4903 -2.5781 1.50255 0
M  V30 340 C 34.2393 -3.47688 -0.0289127 0
M  V30 341 H 33.5623 -3.93505 0.706651 0
M  V30 342 H 35.0023 -4.23011 -0.289432 0
M  V30 343 C 33.4613 -3.11817 -1.2756 0
M  V30 344 O 33.9913 -3.2451 -2.36762 0
M  V30 345 N 32.1973 -2.66246 -1.16453 0
M  V30 346 H 31.7443 -2.56118 -0.275914 0
M  V30 347 H 31.7023 -2.42617 -1.99961 0
M  V30 348 N 35.4744 -0.807222 -1.35358 0
M  V30 349 C 36.4214 -0.216037 -2.29787 0
M  V30 350 C 37.3914 0.650278 -1.52842 0
M  V30 351 O 38.5764 0.595227 -1.81278 0
M  V30 352 C 35.7164 0.628893 -3.39321 0
M  V30 353 C 34.8294 -0.257927 -4.31229 0
M  V30 354 C 33.9644 0.595069 -5.27856 0
M  V30 355 C 33.0034 -0.292111 -6.11403 0
M  V30 356 N 32.1404 0.520895 -7.00165 0
M  V30 357 H 36.9804 -1.02671 -2.79755 0
M  V30 358 H 34.5174 -0.517839 -1.37684 0
M  V30 359 H 36.4754 1.13393 -4.01494 0
M  V30 360 H 35.1054 1.40482 -2.90628 0
M  V30 361 H 34.1574 -0.881076 -3.70056 0
M  V30 362 H 35.4694 -0.940759 -4.89848 0
M  V30 363 H 34.6234 1.16522 -5.95405 0
M  V30 364 H 33.3624 1.31146 -4.69736 0
M  V30 365 H 32.3674 -0.874525 -5.428 0
M  V30 366 H 33.5924 -1.00638 -6.71602 0
M  V30 367 H 31.5384 1.22125 -6.44532 0
M  V30 368 H 31.4554 -0.103877 -7.55929 0
M  V30 369 H 32.7234 1.0743 -7.72062 0
M  V30 370 N 36.9525 1.47285 -0.560781 0
M  V30 371 C 37.8825 2.32857 0.173105 0
M  V30 372 C 38.8635 1.44009 0.905281 0
M  V30 373 O 40.0485 1.7286 0.885046 0
M  V30 374 C 37.1785 3.25861 1.20133 0
M  V30 375 C 36.1325 4.23978 0.585388 0
M  V30 376 C 35.4585 5.06332 1.7185 0
M  V30 377 C 36.7585 5.20242 -0.463178 0
M  V30 378 H 38.4525 2.94466 -0.541307 0
M  V30 379 H 35.9985 1.41601 -0.261764 0
M  V30 380 H 37.9515 3.84569 1.72293 0
M  V30 381 H 36.6755 2.62315 1.94573 0
M  V30 382 H 35.3345 3.66501 0.085054 0
M  V30 383 H 34.9825 4.39186 2.45203 0
M  V30 384 H 34.6825 5.72762 1.31213 0
M  V30 385 H 36.2065 5.67899 2.24329 0
M  V30 386 H 37.6205 5.73293 -0.027502 0
M  V30 387 H 36.0175 5.94896 -0.788627 0
M  V30 388 H 37.0875 4.65504 -1.35773 0
M  V30 389 N 38.4306 0.297415 1.54768 0
M  V30 390 C 39.6786 -0.312295 1.99673 0
M  V30 391 C 39.9996 -1.54686 1.18732 0
M  V30 392 O 39.2696 -1.93854 0.282382 0
M  V30 393 H 37.8496 -0.118381 0.73756 0
M  V30 394 H 40.5116 0.407915 1.90583 0
M  V30 395 H 39.6076 -0.586813 3.06534 0
M  V30 396 N 39.9087 -1.5758 0.0250728 0
M  V30 397 C 41.1567 -1.91255 -0.653151 0
M  V30 398 C 41.4777 -0.901691 -1.729 0
M  V30 399 O 40.7477 0.0573785 -1.95816 0
M  V30 400 H 39.3277 -0.705942 -0.244243 0
M  V30 401 H 41.9897 -1.94767 0.0719209 0
M  V30 402 H 41.0857 -2.91752 -1.10847 0
M  V30 403 N 41.3868 0.248026 -1.55636 0
M  V30 404 C 42.6328 0.97767 -1.77678 0
M  V30 405 C 42.9658 1.85016 -0.590135 0
M  V30 406 O 42.2408 1.90095 0.411611 0
M  V30 407 C 42.5238 1.83914 -3.09593 0
M  V30 408 C 42.3768 0.99491 -4.38659 0
M  V30 409 C 43.6958 2.82183 -3.37729 0
M  V30 410 H 40.8148 0.354005 -0.646413 0
M  V30 411 H 43.4568 0.248253 -1.88371 0
M  V30 412 H 41.6068 2.46104 -3.00608 0
M  V30 413 H 43.2788 0.391789 -4.59633 0
M  V30 414 H 41.5218 0.299231 -4.32767 0
M  V30 415 H 42.1928 1.63145 -5.2734 0
M  V30 416 H 44.6688 2.30129 -3.4667 0
M  V30 417 H 43.5448 3.39582 -4.31249 0
M  V30 418 H 43.8058 3.58588 -2.58586 0
M  V30 419 N 42.8649 1.48995 0.513639 0
M  V30 420 C 43.8119 1.6473 1.61656 0
M  V30 421 C 44.7819 0.488984 1.58739 0
M  V30 422 O 45.9669 0.714478 1.76918 0
M  V30 423 C 43.1069 1.7082 2.99858 0
M  V30 424 C 42.2199 2.9787 3.12885 0
M  V30 425 C 41.3549 2.95017 4.41744 0
M  V30 426 C 40.3939 4.16702 4.48359 0
M  V30 427 N 39.5309 4.11832 5.68629 0
M  V30 428 H 44.3709 2.58909 1.47547 0
M  V30 429 H 41.9079 1.28382 0.71808 0
M  V30 430 H 43.8659 1.72331 3.79944 0
M  V30 431 H 42.4959 0.801181 3.12699 0
M  V30 432 H 41.5479 3.06029 2.25944 0
M  V30 433 H 42.8599 3.8786 3.13633 0
M  V30 434 H 42.0139 2.95021 5.30139 0
M  V30 435 H 40.7529 2.02784 4.43542 0
M  V30 436 H 39.7579 4.16955 3.58369 0
M  V30 437 H 40.9829 5.10113 4.48287 0
M  V30 438 H 38.9289 3.22428 5.71293 0
M  V30 439 H 38.8459 4.95543 5.7094 0
M  V30 440 H 40.1139 4.1592 6.59266 0
M  V30 441 N 44.343 -0.763751 1.37857 0
M  V30 442 C 45.573 -1.55067 1.3652 0
M  V30 443 C 45.981 -1.89135 -0.0494227 0
M  V30 444 O 45.324 -1.52529 -1.02375 0
M  V30 445 C 45.386 -2.8838 2.14656 0
M  V30 446 C 45.05 -2.76905 3.63555 0
M  V30 447 C 46.047 -2.4739 4.57268 0
M  V30 448 C 43.732 -2.94676 4.06781 0
M  V30 449 C 45.726 -2.35786 5.92186 0
M  V30 450 C 43.413 -2.82692 5.41782 0
M  V30 451 C 44.411 -2.53289 6.34298 0
M  V30 452 O 44.099 -2.41345 7.66817 0
M  V30 453 H 43.831 -0.486776 0.469069 0
M  V30 454 H 46.385 -0.953812 1.81911 0
M  V30 455 H 44.615 -3.50217 1.63967 0
M  V30 456 H 46.304 -3.49828 2.05852 0
M  V30 457 H 47.07 -2.33339 4.2518 0
M  V30 458 H 42.949 -3.16563 3.35126 0
M  V30 459 H 46.493 -2.12757 6.64365 0
M  V30 460 H 42.39 -2.96314 5.7347 0
M  V30 461 H 43.158 -2.56634 7.77226 0
M  V30 462 N 45.8211 -1.22559 -0.990812 0
M  V30 463 C 47.0981 -0.959875 -1.70428 0
M  V30 464 C 47.4781 0.524455 -2.04481 0
M  V30 465 O 46.8261 1.49302 -1.72977 0
M  V30 466 C 47.0361 -1.85955 -2.95333 0
M  V30 467 C 48.3841 -2.11687 -3.68068 0
M  V30 468 O 49.4081 -1.8342 -3.05345 0
M  V30 469 O 48.2671 -2.59572 -4.80921 0
M  V30 470 H 45.3611 -0.361154 -0.743974 0
M  V30 471 H 47.9071 -1.33554 -1.04697 0
M  V30 472 H 46.6791 -2.86346 -2.66687 0
M  V30 473 H 46.3021 -1.4856 -3.68803 0
M  V30 474 N 47.2992 1.18797 -1.03562 0
M  V30 475 C 48.5482 1.87978 -0.731235 0
M  V30 476 C 48.8612 1.80911 0.743671 0
M  V30 477 O 50.0672 2.45407 1.16137 0
M  V30 478 C 48.5232 3.3721 -1.25768 0
M  V30 479 C 48.1312 3.52818 -2.76085 0
M  V30 480 C 49.8752 4.11825 -1.0296 0
M  V30 481 C 47.7822 4.9598 -3.22114 0
M  V30 482 H 46.7122 0.704063 -0.269835 0
M  V30 483 H 49.3632 1.34266 -1.25079 0
M  V30 484 H 47.7452 3.90359 -0.666011 0
M  V30 485 H 48.9192 3.09965 -3.40966 0
M  V30 486 H 47.2342 2.91602 -2.97249 0
M  V30 487 H 49.8312 5.17411 -1.34869 0
M  V30 488 H 50.1742 4.16287 0.0333546 0
M  V30 489 H 50.7072 3.64833 -1.58562 0
M  V30 490 H 47.4462 4.96684 -4.27768 0
M  V30 491 H 46.9662 5.39569 -2.61965 0
M  V30 492 H 48.6452 5.6467 -3.15844 0
M  V30 493 N 48.7773 0.814389 1.34928 0
M  V30 494 C 50.0543 0.321363 1.92942 0
M  V30 495 C 50.4343 -1.19014 1.74353 0
M  V30 496 O 49.7823 -1.99328 1.11716 0
M  V30 497 C 49.9923 0.741323 3.41036 0
M  V30 498 C 51.3403 0.735266 4.18185 0
M  V30 499 O 52.3643 0.68336 3.49584 0
M  V30 500 O 51.2233 0.800703 5.40602 0
M  V30 501 H 48.3173 0.0858893 0.822528 0
M  V30 502 H 50.8633 0.898609 1.43955 0
M  V30 503 H 49.6353 1.78276 3.4833 0
M  V30 504 H 49.2583 0.139307 3.97356 0
M  V30 505 N 50.2554 -1.46986 0.568584 0
M  V30 506 C 51.1854 -2.32946 -0.160753 0
M  V30 507 C 52.1664 -1.44487 -0.897631 0
M  V30 508 O 53.3514 -1.73327 -0.875867 0
M  V30 509 C 50.4814 -3.26494 -1.18403 0
M  V30 510 C 49.4354 -4.24282 -0.562895 0
M  V30 511 C 48.7614 -5.07236 -1.69163 0
M  V30 512 C 50.0614 -5.19989 0.490761 0
M  V30 513 H 51.7554 -2.94175 0.556916 0
M  V30 514 H 49.3014 -1.4146 0.26927 0
M  V30 515 H 51.2544 -3.85477 -1.70251 0
M  V30 516 H 49.9784 -2.63343 -1.93179 0
M  V30 517 H 48.6374 -3.66541 -0.0656164 0
M  V30 518 H 48.2854 -4.4048 -2.42871 0
M  V30 519 H 47.9854 -5.7345 -1.28174 0
M  V30 520 H 49.5094 -5.6908 -2.21314 0
M  V30 521 H 50.9234 -5.73271 0.0579047 0
M  V30 522 H 49.3204 -5.94469 0.820165 0
M  V30 523 H 50.3904 -4.64777 1.3824 0
M  V30 524 N 51.7335 -0.305618 -1.54608 0
M  V30 525 C 53.1445 0.186098 -1.8577 0
M  V30 526 C 53.4955 1.53058 -1.22751 0
M  V30 527 O 52.6205 2.09888 -0.526893 0
M  V30 528 C 53.2155 0.344449 -3.37044 0
M  V30 529 C 51.7745 0.780384 -3.68221 0
M  V30 530 C 50.9215 -0.108554 -2.77087 0
M  V30 531 H 53.8725 -0.526485 -1.49712 0
M  V30 532 H 53.8935 1.17828 -3.61796 0
M  V30 533 H 53.4055 -0.634235 -3.82883 0
M  V30 534 H 51.5065 1.76945 -3.27904 0
M  V30 535 H 51.6195 0.596572 -4.75371 0
M  V30 536 H 49.9835 0.412931 -2.5133 0
M  V30 537 H 50.7665 -1.08368 -3.25747 0
M  V30 538 N 53.2116 1.57565 -0.0334293 0
M  V30 539 C 54.1596 2.1164 0.96496 0
M  V30 540 C 55.1536 1.04398 1.33407 0
M  V30 541 O 56.3596 1.22828 1.3158 0
M  V30 542 H 52.7346 0.676222 0.32898 0
M  V30 543 H 54.7056 2.94455 0.483614 0
M  V30 544 C 53.4546 2.66207 2.23672 0
M  V30 545 H 52.7776 3.48378 1.96145 0
M  V30 546 H 54.2176 3.07685 2.9173 0
M  V30 547 C 52.6766 1.59151 2.96939 0
M  V30 548 O 53.2066 0.993858 3.89211 0
M  V30 549 N 51.4126 1.31093 2.59351 0
M  V30 550 H 50.9596 1.7988 1.84393 0
M  V30 551 H 50.9176 0.596889 3.08682 0
M  V30 552 N 54.6897 -0.239769 1.55765 0
M  V30 553 C 55.6367 -1.29696 1.90913 0
M  V30 554 C 56.6067 -1.47478 0.764164 0
M  V30 555 O 57.7917 -1.61345 1.01845 0
M  V30 556 C 54.9317 -2.64598 2.21544 0
M  V30 557 C 54.0447 -2.54765 3.48882 0
M  V30 558 C 53.1797 -3.82069 3.69049 0
M  V30 559 C 52.2187 -3.66883 4.89963 0
M  V30 560 N 51.3557 -4.86094 5.06614 0
M  V30 561 H 56.1957 -0.990224 2.81067 0
M  V30 562 H 53.7327 -0.477684 1.39128 0
M  V30 563 H 55.6907 -3.43132 2.3731 0
M  V30 564 H 54.3207 -2.93405 1.34585 0
M  V30 565 H 53.3727 -1.67763 3.41409 0
M  V30 566 H 54.6847 -2.39457 4.37563 0
M  V30 567 H 53.8387 -4.69046 3.84812 0
M  V30 568 H 52.5777 -4.00282 2.78614 0
M  V30 569 H 51.5827 -2.78289 4.74168 0
M  V30 570 H 52.8077 -3.50157 5.81865 0
M  V30 571 H 50.7537 -5.04655 4.19117 0
M  V30 572 H 50.6707 -4.73443 5.89396 0
M  V30 573 H 51.9387 -5.74549 5.26795 0
M  V30 574 N 56.1678 -1.49265 -0.50573 0
M  V30 575 C 57.1148 -1.65585 -1.6078 0
M  V30 576 C 58.0848 -0.497396 -1.58478 0
M  V30 577 O 59.2698 -0.72385 -1.76536 0
M  V30 578 C 56.4098 -1.72408 -2.98948 0
M  V30 579 C 55.5228 -2.99525 -3.11301 0
M  V30 580 C 54.6578 -2.97356 -4.40174 0
M  V30 581 C 53.6968 -4.19074 -4.46143 0
M  V30 582 N 52.8338 -4.14841 -5.66437 0
M  V30 583 H 57.6738 -2.59688 -1.46172 0
M  V30 584 H 55.2108 -1.28761 -0.711261 0
M  V30 585 H 57.1688 -1.74344 -3.79025 0
M  V30 586 H 55.7988 -0.817753 -3.1227 0
M  V30 587 H 54.8508 -3.07222 -2.24318 0
M  V30 588 H 56.1628 -3.89518 -3.11572 0
M  V30 589 H 55.3168 -2.97829 -5.28567 0
M  V30 590 H 54.0558 -2.05133 -4.42461 0
M  V30 591 H 53.0608 -4.1885 -3.56153 0
M  V30 592 H 54.2858 -5.12483 -4.45575 0
M  V30 593 H 52.2318 -3.25453 -5.69575 0
M  V30 594 H 52.1488 -4.98564 -5.68304 0
M  V30 595 H 53.4168 -4.1941 -6.57051 0
M  V30 596 N 57.6459 0.756429 -1.3826 0
M  V30 597 C 58.8919 1.51772 -1.34511 0
M  V30 598 C 59.2249 1.94089 0.0656691 0
M  V30 599 O 58.4999 1.65221 1.02626 0
M  V30 600 C 58.7829 2.77226 -2.29821 0
M  V30 601 C 58.6359 2.41065 -3.79747 0
M  V30 602 C 59.9549 3.79236 -2.23312 0
M  V30 603 H 57.0739 0.550578 -0.489931 0
M  V30 604 H 59.7159 0.866607 -1.69086 0
M  V30 605 H 57.8659 3.32784 -2.00467 0
M  V30 606 H 59.5379 1.91303 -4.19763 0
M  V30 607 H 57.7809 1.7356 -3.97567 0
M  V30 608 H 58.4519 3.3081 -4.41892 0
M  V30 609 H 60.9279 3.3321 -2.49219 0
M  V30 610 H 59.8039 4.64714 -2.92116 0
M  V30 611 H 60.0649 4.24615 -1.23102 0
M  V30 612 N 59.124 1.23083 0.984299 0
M  V30 613 C 60.364 1.07226 1.74017 0
M  V30 614 C 60.728 -0.384766 1.88105 0
M  V30 615 O 61.929 -0.664411 2.60459 0
M  V30 616 C 60.2 1.77348 3.10294 0
M  V30 617 S 61.759 1.77014 4.01512 0
M  V30 618 H 58.577 0.383819 0.598502 0
M  V30 619 H 61.179 1.56158 1.17622 0
M  V30 620 H 59.883 2.82506 2.97689 0
M  V30 621 H 59.414 1.28682 3.71759 0
M  V30 622 H 61.429 0.825956 4.89277 0
M  V30 623 N 60.6021 -1.18246 1.0419 0
M  V30 624 C 61.8511 -1.87588 0.741194 0
M  V30 625 C 62.1641 -1.81303 -0.734066 0
M  V30 626 O 63.3701 -2.46019 -1.14834 0
M  V30 627 C 61.8261 -3.36538 1.27555 0
M  V30 628 C 61.4341 -3.51349 2.77953 0
M  V30 629 C 63.1781 -4.11273 1.05143 0
M  V30 630 C 61.0851 -4.94265 3.2474 0
M  V30 631 H 60.0151 -0.702622 0.273565 0
M  V30 632 H 62.6661 -1.33601 1.25789 0
M  V30 633 H 61.0481 -3.9 0.686703 0
M  V30 634 H 62.2221 -3.08153 3.42605 0
M  V30 635 H 60.5371 -2.90022 2.98791 0
M  V30 636 H 63.1341 -5.16689 1.37611 0
M  V30 637 H 63.4771 -4.16298 -0.0112774 0
M  V30 638 H 64.0101 -3.63987 1.60495 0
M  V30 639 H 60.7491 -4.94408 4.30396 0
M  V30 640 H 60.2691 -5.38172 2.64823 0
M  V30 641 H 61.9481 -5.62987 3.18834 0
M  V30 642 N 62.0802 -0.821533 -1.34494 0
M  V30 643 C 62.9902 -0.244355 -2.33324 0
M  V30 644 C 64.0062 0.620527 -1.62559 0
M  V30 645 O 65.1822 0.528754 -1.94335 0
M  V30 646 C 62.2472 0.585368 -3.41723 0
M  V30 647 C 61.3082 -0.301752 -4.28238 0
M  V30 648 C 60.5412 0.488466 -5.3146 0
M  V30 649 O 60.7642 1.72186 -5.4379 0
M  V30 650 O 59.6982 -0.12848 -6.01763 0
M  V30 651 H 63.5242 -1.06231 -2.84515 0
M  V30 652 H 61.1092 -0.583645 -1.37528 0
M  V30 653 H 62.9912 1.05747 -4.07916 0
M  V30 654 H 61.6662 1.38068 -2.92778 0
M  V30 655 H 60.5732 -0.821315 -3.64973 0
M  V30 656 H 61.9062 -1.06138 -4.8062 0
M  V30 657 N 63.5583 1.46682 -0.576371 0
M  V30 658 C 64.7833 2.07304 -0.0630475 0
M  V30 659 C 65.2083 1.42329 1.2298 0
M  V30 660 O 64.5663 0.504865 1.74129 0
M  V30 661 C 64.6143 3.60472 0.095895 0
M  V30 662 O 63.7183 3.95927 1.15394 0
M  V30 663 H 63.0593 0.661288 -0.0599463 0
M  V30 664 H 65.5893 1.88417 -0.797511 0
M  V30 665 H 65.5993 4.06865 0.304071 0
M  V30 666 H 64.2743 4.07157 -0.84828 0
M  V30 667 H 62.8513 3.61252 0.924724 0
M  V30 668 N 65.0364 0.313813 1.54444 0
M  V30 669 C 65.9464 -0.565714 2.27677 0
M  V30 670 C 66.9624 -1.13754 1.31666 0
M  V30 671 O 68.1384 -1.15959 1.64668 0
M  V30 672 C 65.2034 -1.71528 3.01296 0
M  V30 673 C 64.2644 -1.17624 4.12872 0
M  V30 674 C 63.4974 -2.27102 4.8297 0
M  V30 675 O 63.7204 -3.47256 4.52514 0
M  V30 676 O 62.6544 -1.9307 5.70094 0
M  V30 677 H 66.4804 0.0287296 3.03686 0
M  V30 678 H 64.0654 0.0798312 1.49187 0
M  V30 679 H 65.9474 -2.38476 3.4743 0
M  V30 680 H 64.6224 -2.29608 2.2817 0
M  V30 681 H 63.5294 -0.472124 3.71109 0
M  V30 682 H 64.8624 -0.640695 4.88012 0
M  V30 683 N 66.5145 -1.57545 0.0417849 0
M  V30 684 C 67.4645 -2.07483 -0.945247 0
M  V30 685 C 68.4485 -0.977983 -1.27767 0
M  V30 686 O 69.6405 -1.24142 -1.26166 0
M  V30 687 C 66.7695 -2.61576 -2.22335 0
M  V30 688 C 65.8555 -3.78213 -1.91874 0
M  V30 689 N 66.2465 -4.88344 -1.31733 0
M  V30 690 C 64.5445 -3.8694 -2.21796 0
M  V30 691 C 65.2455 -5.69462 -1.1869 0
M  V30 692 N 64.2215 -5.16771 -1.68666 0
M  V30 693 H 68.0235 -2.90029 -0.475441 0
M  V30 694 H 65.5375 -1.61581 -0.162911 0
M  V30 695 H 67.5345 -2.95651 -2.93932 0
M  V30 696 H 66.1945 -1.80465 -2.69931 0
M  V30 697 H 67.2055 -5.08335 -0.990729 0
M  V30 698 H 63.8825 -3.16757 -2.71977 0
M  V30 699 H 65.2725 -6.68023 -0.720793 0
M  V30 700 N 67.9926 0.231505 -1.5589 0
M  V30 701 C 69.2176 0.978689 -1.82856 0
M  V30 702 C 69.6426 1.77559 -0.620846 0
M  V30 703 O 69.0006 1.76119 0.430305 0
M  V30 704 C 69.0486 1.87997 -3.07716 0
M  V30 705 O 68.1526 2.97393 -2.85712 0
M  V30 706 H 67.4936 0.277663 -0.603158 0
M  V30 707 H 70.0236 0.24783 -2.03093 0
M  V30 708 H 70.0336 2.2917 -3.37558 0
M  V30 709 H 68.7086 1.29417 -3.95252 0
M  V30 710 H 67.2856 2.60238 -2.67078 0
M  V30 711 N 69.4707 1.49531 0.497807 0
M  V30 712 C 70.4037 1.61043 1.6168 0
M  V30 713 C 71.3817 0.459386 1.55976 0
M  V30 714 O 72.5657 0.675358 1.75986 0
M  V30 715 C 69.6927 1.56833 3.00202 0
M  V30 716 C 68.7387 2.77173 3.24156 0
M  V30 717 S 69.5717 4.38808 3.06933 0
M  V30 718 C 70.7277 4.37248 4.47845 0
M  V30 719 H 70.9607 2.55702 1.51671 0
M  V30 720 H 68.4937 1.38462 0.683201 0
M  V30 721 H 70.4517 1.55089 3.80076 0
M  V30 722 H 69.1127 0.634561 3.07623 0
M  V30 723 H 68.3057 2.70456 4.25288 0
M  V30 724 H 67.9077 2.76346 2.5201 0
M  V30 725 H 70.1997 4.09164 5.39992 0
M  V30 726 H 71.1427 5.38668 4.59612 0
M  V30 727 H 71.5507 3.67286 4.28674 0
M  V30 728 N 70.9488 -0.749086 1.3866 0
M  V30 729 C 72.2258 -1.4992 1.25632 0
M  V30 730 C 72.6058 -2.10633 -0.140317 0
M  V30 731 O 71.9538 -1.97437 -1.15025 0
M  V30 732 C 72.1638 -2.56195 2.36992 0
M  V30 733 C 73.5118 -3.22972 2.75634 0
M  V30 734 O 74.5358 -2.66502 2.36337 0
M  V30 735 O 73.3948 -4.25122 3.43415 0
M  V30 736 H 70.4888 -0.665067 0.491544 0
M  V30 737 H 73.0348 -0.784113 1.50498 0
M  V30 738 H 71.8068 -2.09612 3.30422 0
M  V30 739 H 71.4298 -3.35279 2.13714 0
M  V30 740 N 72.4269 -1.23603 -0.977757 0
M  V30 741 C 73.6549 -1.09646 -1.75458 0
M  V30 742 C 74.0699 0.351859 -1.85492 0
M  V30 743 O 73.4269 1.24327 -1.336 0
M  V30 744 C 73.4779 -1.71895 -3.18016 0
M  V30 745 O 73.1989 -3.11063 -3.08498 0
M  V30 746 C 74.6999 -1.63415 -4.12081 0
M  V30 747 H 71.9199 -0.38359 -0.550545 0
M  V30 748 H 74.4639 -1.63507 -1.22824 0
M  V30 749 H 72.6189 -1.22061 -3.67668 0
M  V30 750 H 73.0329 -3.41305 -3.9826 0
M  V30 751 H 74.5069 -2.11669 -5.09804 0
M  V30 752 H 74.9839 -0.593462 -4.35172 0
M  V30 753 H 75.5899 -2.12628 -3.68334 0
M  V30 754 N 73.905 1.17692 -1.04816 0
M  V30 755 C 74.835 2.23777 -0.666791 0
M  V30 756 C 75.816 1.66796 0.33361 0
M  V30 757 O 77.001 1.93039 0.212042 0
M  V30 758 C 74.131 3.47281 -0.0367933 0
M  V30 759 C 73.085 4.17059 -0.961546 0
M  V30 760 C 72.411 5.34342 -0.195626 0
M  V30 761 C 73.711 4.69713 -2.28402 0
M  V30 762 H 75.405 2.55933 -1.55367 0
M  V30 763 H 72.951 1.23019 -0.748484 0
M  V30 764 H 74.904 4.20706 0.241775 0
M  V30 765 H 73.628 3.14381 0.885004 0
M  V30 766 H 72.287 3.45541 -1.22462 0
M  V30 767 H 71.935 4.97692 0.728816 0
M  V30 768 H 71.635 5.81966 -0.811775 0
M  V30 769 H 73.159 6.10553 0.0757473 0
M  V30 770 H 74.573 5.34794 -2.06563 0
M  V30 771 H 72.97 5.279 -2.8538 0
M  V30 772 H 74.04 3.86726 -2.92525 0
M  V30 773 N 75.3831 0.828654 1.34056 0
M  V30 774 C 76.3131 0.269443 2.3194 0
M  V30 775 C 77.2941 -0.617247 1.58506 0
M  V30 776 O 78.4791 -0.542931 1.86456 0
M  V30 777 C 75.6091 -0.564793 3.42677 0
M  V30 778 C 74.5631 0.225241 4.27407 0
M  V30 779 C 73.8891 -0.7321 5.29664 0
M  V30 780 C 75.1891 1.43663 5.02154 0
M  V30 781 H 76.8831 1.08728 2.7896 0
M  V30 782 H 74.4291 0.524283 1.34117 0
M  V30 783 H 76.3821 -0.966233 4.10173 0
M  V30 784 H 75.1061 -1.41574 2.9432 0
M  V30 785 H 73.7651 0.608117 3.61521 0
M  V30 786 H 73.4131 -1.57916 4.77568 0
M  V30 787 H 73.1131 -0.20767 5.87233 0
M  V30 788 H 74.6371 -1.13128 6.00029 0
M  V30 789 H 76.0511 1.1089 5.62473 0
M  V30 790 H 74.4481 1.89711 5.69324 0
M  V30 791 H 75.5181 2.21181 4.31517 0
M  V30 792 N 76.8612 -1.46375 0.584142 0
M  V30 793 C 77.8242 -2.28784 -0.138108 0
M  V30 794 C 78.8242 -1.38471 -0.817462 0
M  V30 795 O 80.0142 -1.60833 -0.669199 0
M  V30 796 C 77.1462 -3.18892 -1.20503 0
M  V30 797 H 78.3392 -2.94117 0.586127 0
M  V30 798 H 75.8922 -1.52509 0.342171 0
M  V30 799 H 76.6272 -2.58309 -1.96079 0
M  V30 800 H 76.4122 -3.85388 -0.722384 0
M  V30 801 H 77.9022 -3.80914 -1.71155 0
M  V30 802 N 78.3393 -0.321999 -1.54275 0
M  V30 803 C 79.5673 0.283052 -2.04955 0
M  V30 804 C 79.9823 1.45904 -1.19823 0
M  V30 805 O 79.3393 1.81063 -0.228545 0
M  V30 806 C 79.3903 0.719028 -3.54277 0
M  V30 807 O 79.1113 -0.410175 -4.36176 0
M  V30 808 C 80.6123 1.38705 -4.21041 0
M  V30 809 H 77.8323 0.0584616 -0.668448 0
M  V30 810 H 80.3763 -0.467734 -1.99079 0
M  V30 811 H 78.5313 1.41979 -3.60445 0
M  V30 812 H 78.9453 -0.0669416 -5.24457 0
M  V30 813 H 80.4193 1.64306 -5.2698 0
M  V30 814 H 80.8963 2.33385 -3.72059 0
M  V30 815 H 81.5023 0.728906 -4.19007 0
M  V30 816 N 79.8174 1.5752 -0.0501392 0
M  V30 817 C 80.7474 2.14502 0.922566 0
M  V30 818 C 81.7284 1.06642 1.3252 0
M  V30 819 O 82.9134 1.34577 1.4001 0
M  V30 820 C 80.0434 2.68916 2.19776 0
M  V30 821 C 78.9974 3.8175 1.93523 0
M  V30 822 C 78.3234 4.22677 3.27487 0
M  V30 823 C 79.6234 5.06932 1.25765 0
M  V30 824 H 81.3174 2.9603 0.447952 0
M  V30 825 H 78.8634 1.42401 0.214024 0
M  V30 826 H 80.8164 3.07419 2.88222 0
M  V30 827 H 79.5404 1.84578 2.69441 0
M  V30 828 H 78.1994 3.43718 1.27489 0
M  V30 829 H 77.8474 3.35291 3.74952 0
M  V30 830 H 77.5474 4.98725 3.1072 0
M  V30 831 H 79.0714 4.63779 3.97166 0
M  V30 832 H 80.4854 5.42888 1.84244 0
M  V30 833 H 78.8824 5.88116 1.19328 0
M  V30 834 H 79.9524 4.84337 0.233536 0
M  V30 835 N 81.2955 -0.223234 1.56011 0
M  V30 836 C 82.2425 -1.27664 1.92277 0
M  V30 837 C 83.2125 -1.46659 0.779763 0
M  V30 838 O 84.3975 -1.60256 1.03551 0
M  V30 839 C 81.5375 -2.62234 2.24338 0
M  V30 840 C 80.6505 -2.51051 3.51564 0
M  V30 841 C 79.7855 -3.78133 3.7308 0
M  V30 842 C 78.8245 -3.61665 4.93827 0
M  V30 843 N 77.9615 -4.80693 5.11741 0
M  V30 844 H 82.8015 -0.960358 2.82101 0
M  V30 845 H 80.3385 -0.462901 1.39627 0
M  V30 846 H 82.2965 -3.40596 2.40936 0
M  V30 847 H 80.9265 -2.91961 1.3769 0
M  V30 848 H 79.9785 -1.64132 3.43169 0
M  V30 849 H 81.2905 -2.34803 4.40079 0
M  V30 850 H 80.4445 -4.64938 3.89766 0
M  V30 851 H 79.1835 -3.97304 2.82844 0
M  V30 852 H 78.1885 -2.73244 4.77093 0
M  V30 853 H 79.4135 -3.43966 5.85546 0
M  V30 854 H 77.3595 -5.00181 4.24446 0
M  V30 855 H 77.2765 -4.67165 5.94384 0
M  V30 856 H 78.5445 -5.6893 5.3286 0
M  V30 857 N 82.7736 -1.49793 -0.48987 0
M  V30 858 C 83.7206 -1.67281 -1.59014 0
M  V30 859 C 84.6906 -0.514177 -1.57941 0
M  V30 860 O 85.8756 -0.742533 -1.75759 0
M  V30 861 C 83.0156 -1.75569 -2.97102 0
M  V30 862 C 82.1286 -3.0281 -3.08107 0
M  V30 863 C 81.2636 -3.02008 -4.36995 0
M  V30 864 C 80.3026 -4.23782 -4.41673 0
M  V30 865 N 79.4396 -4.20826 -5.62005 0
M  V30 866 H 84.2796 -2.61224 -1.43409 0
M  V30 867 H 81.8166 -1.29508 -0.697565 0
M  V30 868 H 83.7746 -1.78354 -3.77155 0
M  V30 869 H 82.4046 -0.850827 -3.11385 0
M  V30 870 H 81.4566 -3.09584 -2.21047 0
M  V30 871 H 82.7686 -3.92801 -3.07423 0
M  V30 872 H 81.9226 -3.03418 -5.25378 0
M  V30 873 H 80.6616 -2.09815 -4.4026 0
M  V30 874 H 79.6666 -4.22604 -3.5169 0
M  V30 875 H 80.8916 -5.17181 -4.40115 0
M  V30 876 H 78.8376 -3.31476 -5.66091 0
M  V30 877 H 78.7546 -5.04564 -5.62984 0
M  V30 878 H 80.0226 -4.26355 -6.52565 0
M  V30 879 N 84.2517 0.741722 -1.39055 0
M  V30 880 C 85.4797 1.53098 -1.39171 0
M  V30 881 C 85.8947 1.88794 0.0155099 0
M  V30 882 O 85.2517 1.53626 0.985159 0
M  V30 883 C 85.3027 2.82274 -2.2584 0
M  V30 884 O 85.0237 2.48097 -3.61081 0
M  V30 885 C 86.5247 3.76343 -2.34266 0
M  V30 886 H 83.7447 0.473335 -0.4756 0
M  V30 887 H 86.2887 0.917045 -1.82785 0
M  V30 888 H 84.4437 3.40015 -1.85656 0
M  V30 889 H 84.8577 3.31029 -4.06842 0
M  V30 890 H 86.3317 4.63898 -2.9917 0
M  V30 891 H 86.8087 4.17619 -1.35982 0
M  V30 892 H 87.4147 3.24523 -2.74891 0
M  V30 893 N 85.7298 1.2412 0.971189 0
M  V30 894 C 86.9778 1.07668 1.71032 0
M  V30 895 C 87.2988 -0.385797 1.91146 0
M  V30 896 O 86.5688 -1.27569 1.4867 0
M  V30 897 H 85.1488 0.395429 0.633755 0
M  V30 898 H 87.8108 1.55984 1.16855 0
M  V30 899 H 86.9068 1.57195 2.69622 0
M  V30 900 N 87.2079 -1.17134 1.05439 0
M  V30 901 C 88.1549 -2.21235 0.657539 0
M  V30 902 C 89.1249 -1.62551 -0.341543 0
M  V30 903 O 90.3099 -1.89379 -0.232393 0
M  V30 904 C 87.4499 -3.45076 0.0410575 0
M  V30 905 C 86.5629 -4.18042 1.08927 0
M  V30 906 C 85.6979 -5.29376 0.439848 0
M  V30 907 C 84.7369 -5.94132 1.4722 0
M  V30 908 N 83.8739 -6.96975 0.846756 0
M  V30 909 H 88.7139 -2.54534 1.54972 0
M  V30 910 H 86.2509 -1.25028 0.775006 0
M  V30 911 H 88.2089 -4.15862 -0.33383 0
M  V30 912 H 86.8389 -3.12353 -0.814568 0
M  V30 913 H 85.8909 -3.45945 1.58196 0
M  V30 914 H 87.2029 -4.62306 1.87282 0
M  V30 915 H 86.3569 -6.06699 0.0115125 0
M  V30 916 H 85.0959 -4.86251 -0.375656 0
M  V30 917 H 84.1009 -5.15538 1.91052 0
M  V30 918 H 85.3259 -6.39337 2.28965 0
M  V30 919 H 83.2719 -6.5598 0.0518075 0
M  V30 920 H 83.1889 -7.39565 1.5678 0
M  V30 921 H 84.4569 -7.78239 0.443277 0
M  V30 922 N 88.686 -0.835752 -1.33615 0
M  V30 923 C 89.914 -0.443344 -2.02094 0
M  V30 924 C 90.329 0.954522 -1.62894 0
M  V30 925 O 89.686 1.61982 -0.840723 0
M  V30 926 C 89.737 -0.550775 -3.5728 0
M  V30 927 O 89.458 -1.89356 -3.95065 0
M  V30 928 C 90.959 -0.154919 -4.43029 0
M  V30 929 H 88.179 -0.176359 -0.647409 0
M  V30 930 H 90.723 -1.12746 -1.70612 0
M  V30 931 H 88.878 0.0853997 -3.87306 0
M  V30 932 H 89.292 -1.87687 -4.89769 0
M  V30 933 H 90.766 -0.281144 -5.51284 0
M  V30 934 H 91.243 0.902863 -4.2982 0
M  V30 935 H 91.849 -0.765404 -4.18356 0
M  V30 936 N 90.1641 1.46063 -0.591896 0
M  V30 937 C 91.4101 2.02638 -0.0811191 0
M  V30 938 C 91.7431 1.4613 1.27905 0
M  V30 939 O 91.0181 0.629908 1.84017 0
M  V30 940 C 91.3011 3.60091 -0.0252436 0
M  V30 941 C 91.1541 4.26965 -1.41496 0
M  V30 942 C 92.4731 4.3496 0.670685 0
M  V30 943 H 89.5921 0.73635 -0.0309524 0
M  V30 944 H 92.2341 1.741 -0.760859 0
M  V30 945 H 90.3841 3.84535 0.553624 0
M  V30 946 H 92.0561 4.13756 -2.0397 0
M  V30 947 H 90.2991 3.85971 -1.98011 0
M  V30 948 H 90.9701 5.35781 -1.32825 0
M  V30 949 H 93.4461 4.15716 0.178825 0
M  V30 950 H 92.3221 5.44686 0.678837 0
M  V30 951 H 92.5831 4.06685 1.73379 0
M  V30 952 N 91.6422 0.330177 1.54103 0
M  V30 953 C 92.8672 -0.274893 2.0557 0
M  V30 954 C 93.2922 -1.44487 1.20437 0
M  V30 955 O 92.6502 -1.80021 0.214991 0
M  V30 956 C 92.6982 -0.68079 3.54115 0
M  V30 957 O 91.8022 -1.7824 3.71893 0
M  V30 958 H 91.1432 -0.0483849 0.662235 0
M  V30 959 H 93.6732 0.480508 1.98878 0
M  V30 960 H 93.6832 -0.961635 3.96505 0
M  V30 961 H 92.3582 0.174903 4.15532 0
M  V30 962 H 90.9352 -1.49985 3.41407 0
M  V30 963 N 93.1203 -1.57491 0.0584922 0
M  V30 964 C 94.3503 -1.9701 -0.622134 0
M  V30 965 C 94.7583 -0.935034 -1.6448 0
M  V30 966 O 94.1013 0.0882904 -1.83488 0
M  V30 967 C 94.1633 -3.32794 -1.35972 0
M  V30 968 C 93.8273 -4.54343 -0.492043 0
M  V30 969 C 94.8243 -5.19323 0.244901 0
M  V30 970 C 92.5093 -5.00534 -0.420821 0
M  V30 971 C 94.5033 -6.28835 1.04143 0
M  V30 972 C 92.1903 -6.09921 0.379389 0
M  V30 973 C 93.1883 -6.73933 1.10919 0
M  V30 974 O 92.8763 -7.81216 1.89623 0
M  V30 975 H 92.6083 -0.653127 -0.174359 0
M  V30 976 H 95.1623 -2.05029 0.123418 0
M  V30 977 H 93.3923 -3.21351 -2.15105 0
M  V30 978 H 95.0813 -3.5701 -1.93129 0
M  V30 979 H 95.8473 -4.8459 0.19939 0
M  V30 980 H 91.7263 -4.50496 -0.978474 0
M  V30 981 H 95.2703 -6.7873 1.61157 0
M  V30 982 H 91.1673 -6.44089 0.426512 0
M  V30 983 H 91.9353 -7.98029 1.81913 0
M  V30 984 N 94.5984 0.214957 -1.56127 0
M  V30 985 C 95.5284 1.2695 -1.95974 0
M  V30 986 C 96.5094 1.48539 -0.828868 0
M  V30 987 O 97.6944 1.60611 -1.09168 0
M  V30 988 C 94.8244 2.61794 -2.28214 0
M  V30 989 C 93.7784 2.54851 -3.43853 0
M  V30 990 C 93.1044 3.93785 -3.61715 0
M  V30 991 C 94.4044 2.09065 -4.78632 0
M  V30 992 H 96.0984 0.93846 -2.84312 0
M  V30 993 H 93.6444 0.449996 -1.36788 0
M  V30 994 H 95.5974 3.35731 -2.54682 0
M  V30 995 H 94.3214 2.96599 -1.36736 0
M  V30 996 H 92.9804 1.8337 -3.17444 0
M  V30 997 H 92.6284 4.25908 -2.67602 0
M  V30 998 H 92.3284 3.90019 -4.39498 0
M  V30 999 H 93.8524 4.69374 -3.90539 0
M  V30 1000 H 95.2664 2.7275 -5.04262 0
M  V30 1001 H 93.6634 2.16346 -5.59745 0
M  V30 1002 H 94.7334 1.04315 -4.73547 0
M  V30 1003 N 96.0765 1.50051 0.48192 0
M  V30 1004 C 97.3245 1.60181 1.23234 0
M  V30 1005 C 97.6455 0.299176 1.92691 0
M  V30 1006 O 96.9155 -0.682708 1.83619 0
M  V30 1007 H 95.4955 0.590232 0.457859 0
M  V30 1008 H 98.1575 1.86775 0.556881 0
M  V30 1009 H 97.2535 2.40753 1.98607 0
M  V30 1010 N 97.5546 -0.734337 1.39446 0
M  V30 1011 C 98.4846 -1.86155 1.40955 0
M  V30 1012 C 99.4656 -1.67898 0.272827 0
M  V30 1013 O 100.651 -1.88207 0.478743 0
M  V30 1014 C 97.7806 -3.23912 1.25294 0
M  V30 1015 C 96.7346 -3.56808 2.36373 0
M  V30 1016 C 96.0606 -4.93508 2.058 0
M  V30 1017 C 97.3606 -3.59713 3.78687 0
M  V30 1018 H 99.0546 -1.8515 2.35287 0
M  V30 1019 H 96.6006 -0.889367 1.13253 0
M  V30 1020 H 98.5536 -4.02443 1.2497 0
M  V30 1021 H 97.2776 -3.25446 0.274308 0
M  V30 1022 H 95.9366 -2.80606 2.35914 0
M  V30 1023 H 95.5846 -4.91623 1.06374 0
M  V30 1024 H 95.2846 -5.16486 2.80208 0
M  V30 1025 H 96.8086 -5.74396 2.07128 0
M  V30 1026 H 98.2226 -4.2832 3.81071 0
M  V30 1027 H 96.6196 -3.94209 4.52459 0
M  V30 1028 H 97.6896 -2.59504 4.09617 0
M  V30 1029 N 99.0327 -1.24633 -0.964593 0
M  V30 1030 C 99.9427 -1.05859 -2.09359 0
M  V30 1031 C 100.959 0.00148855 -1.74 0
M  V30 1032 O 102.135 -0.197346 -2.00431 0
M  V30 1033 C 99.1997 -0.668879 -3.40187 0
M  V30 1034 C 98.2607 -1.80578 -3.89474 0
M  V30 1035 C 97.4937 -1.43457 -5.14058 0
M  V30 1036 O 97.7167 -0.325775 -5.69469 0
M  V30 1037 O 96.6507 -2.2613 -5.57807 0
M  V30 1038 H 100.477 -2.00516 -2.28094 0
M  V30 1039 H 98.0617 -1.03481 -1.0776 0
M  V30 1040 H 99.9437 -0.463211 -4.18846 0
M  V30 1041 H 98.6187 0.248536 -3.22744 0
M  V30 1042 H 97.5257 -2.06623 -3.11862 0
M  V30 1043 H 98.8587 -2.70208 -4.11398 0
M  V30 1044 O 100.55 1.09713 -1.18513 0
M  V30 1045 H 101.241 1.69993 -0.928547 0
M  V30 END ATOM
M  V30 BEGIN BOND
M  V30 END BOND
M  V30 END CTAB
M  END
$$$$
