drugbank_target|O00217 NADH dehydrogenase [ubiquinone] iron-sulfur protein 8, mitochondrial (DB00157)
 OpenBabel12092119233D

  0  0  0     0  0            999 V3000
M  V30 BEGIN CTAB
M  V30 COUNTS 3286 3322 0 0 0
M  V30 BEGIN ATOM
M  V30 1 H -0.908 1.98254 -0.117106 0
M  V30 2 N 0 1.576 0 0
M  V30 3 C 0.933 2.03868 1.02534 0
M  V30 4 C 1.911 0.928543 1.3348 0
M  V30 5 O 3.095 1.19667 1.45644 0
M  V30 6 C 0.222 2.43627 2.35294 0
M  V30 7 C -0.732 3.65373 2.2001 0
M  V30 8 S 0.101 5.13292 1.52614 0
M  V30 9 C 1.257 5.56322 2.86805 0
M  V30 10 H 1.49 2.90518 0.631377 0
M  V30 11 H -0.977 1.52953 0.210867 0
M  V30 12 H 0.981 2.67203 3.11629 0
M  V30 13 H -0.358 1.57376 2.7183 0
M  V30 14 H -1.165 3.90944 3.18086 0
M  V30 15 H -1.563 3.418 1.51819 0
M  V30 16 H 0.729 5.58782 3.83104 0
M  V30 17 H 1.672 6.56266 2.65933 0
M  V30 18 H 2.08 4.83886 2.90714 0
M  V30 19 N 1.4781 -0.272755 1.55222 0
M  V30 20 C 2.8941 -0.619959 1.47067 0
M  V30 21 C 3.0941 -1.895 0.684978 0
M  V30 22 O 2.1501 -2.51675 0.203931 0
M  V30 23 C 3.4631 -0.746693 2.91282 0
M  V30 24 C 5.0111 -0.840731 3.01497 0
M  V30 25 C 5.4861 -0.99924 4.46967 0
M  V30 26 N 6.9771 -1.06476 4.50796 0
M  V30 27 C 7.7121 -1.20621 5.6057 0
M  V30 28 N 7.2081 -1.31483 6.80209 0
M  V30 29 N 9.0011 -1.23733 5.48312 0
M  V30 30 H 1.1521 0.564606 2.04758 0
M  V30 31 H 3.4151 0.191177 0.928523 0
M  V30 32 H 3.1211 0.119753 3.51496 0
M  V30 33 H 2.9951 -1.6269 3.40311 0
M  V30 34 H 5.3821 -1.69764 2.41379 0
M  V30 35 H 5.4631 0.0640874 2.5572 0
M  V30 36 H 5.1071 -0.146984 5.07687 0
M  V30 37 H 5.0371 -1.91871 4.90401 0
M  V30 38 H 7.5281 -0.993196 3.64615 0
M  V30 39 H 7.8411 -1.42111 7.59621 0
M  V30 40 H 6.1861 -1.28487 6.8302 0
M  V30 41 H 9.3771 -1.14877 4.53785 0
M  V30 42 H 9.5501 -1.34412 6.33906 0
M  V30 43 N 2.9562 -1.48159 -0.537278 0
M  V30 44 C 4.1962 -1.57397 -1.30405 0
M  V30 45 C 4.5602 -0.239202 -1.90504 0
M  V30 46 O 5.7612 -0.206528 -2.68005 0
M  V30 47 C 4.0322 -2.6754 -2.36974 0
M  V30 48 S 5.5912 -2.96496 -3.23475 0
M  V30 49 H 2.4092 -0.555577 -0.443684 0
M  V30 50 H 5.0112 -1.85644 -0.612912 0
M  V30 51 H 3.7152 -3.63092 -1.91291 0
M  V30 52 H 3.2462 -2.41172 -3.10805 0
M  V30 53 H 5.2612 -2.35234 -4.36897 0
M  V30 54 N 4.4343 0.785586 -1.36625 0
M  V30 55 C 5.3643 1.91259 -1.33949 0
M  V30 56 C 6.3453 1.68795 -0.210325 0
M  V30 57 O 7.5303 1.89854 -0.408561 0
M  V30 58 C 4.6603 3.28339 -1.13186 0
M  V30 59 C 3.6143 3.65335 -2.22967 0
M  V30 60 C 2.9403 5.00806 -1.87342 0
M  V30 61 C 4.2403 3.7352 -3.65075 0
M  V30 62 H 5.9343 1.93755 -2.28253 0
M  V30 63 H 3.4803 0.930788 -1.09874 0
M  V30 64 H 5.4333 4.06804 -1.09948 0
M  V30 65 H 4.1573 3.2624 -0.153332 0
M  V30 66 H 2.8163 2.89169 -2.25337 0
M  V30 67 H 2.4643 4.95233 -0.880545 0
M  V30 68 H 2.1643 5.26529 -2.60846 0
M  V30 69 H 3.6883 5.81687 -1.85667 0
M  V30 70 H 5.1023 4.42168 -3.64911 0
M  V30 71 H 3.4993 4.10731 -4.37516 0
M  V30 72 H 4.5693 2.74527 -3.99703 0
M  V30 73 N 5.9124 1.20967 1.01018 0
M  V30 74 C 7.1404 1.04956 1.78303 0
M  V30 75 C 7.5554 -0.400915 1.84494 0
M  V30 76 O 6.9124 -1.27826 1.30257 0
M  V30 77 C 6.9634 1.63403 3.22462 0
M  V30 78 O 6.6844 3.02775 3.16637 0
M  V30 79 C 8.1854 1.52432 4.16268 0
M  V30 80 H 5.4054 0.368858 0.560522 0
M  V30 81 H 7.9494 1.60193 1.27116 0
M  V30 82 H 6.1044 1.1227 3.70775 0
M  V30 83 H 6.5184 3.30626 4.07169 0
M  V30 84 H 7.9924 1.98078 5.15237 0
M  V30 85 H 8.4694 0.477875 4.36592 0
M  V30 86 H 9.0754 2.02787 3.73841 0
M  V30 87 N 7.3905 -1.2043 1.01659 0
M  V30 88 C 8.6185 -1.93777 0.725132 0
M  V30 89 C 9.0335 -1.74772 -0.714166 0
M  V30 90 O 8.3905 -1.06169 -1.4844 0
M  V30 91 C 8.4415 -3.45876 1.05129 0
M  V30 92 O 8.1625 -3.6426 2.43406 0
M  V30 93 C 9.6635 -4.36368 0.780891 0
M  V30 94 H 6.8835 -0.615901 0.266284 0
M  V30 95 H 9.4275 -1.52922 1.35776 0
M  V30 96 H 7.5825 -3.8461 0.464065 0
M  V30 97 H 7.9965 -4.58246 2.55169 0
M  V30 98 H 9.4705 -5.41743 1.05918 0
M  V30 99 H 9.9475 -4.38275 -0.284937 0
M  V30 100 H 10.5535 -4.03296 1.35027 0
M  V30 101 N 8.8686 -0.792821 -1.36206 0
M  V30 102 C 10.2796 -0.429513 -1.81692 0
M  V30 103 C 10.6306 1.04695 -1.65932 0
M  V30 104 O 9.7556 1.81256 -1.18218 0
M  V30 105 C 10.3506 -0.772831 -3.29868 0
M  V30 106 C 8.9096 -0.462307 -3.7355 0
M  V30 107 C 8.0566 -1.00569 -2.5842 0
M  V30 108 H 11.0076 -0.985672 -1.24379 0
M  V30 109 H 11.0286 -0.0651928 -3.80444 0
M  V30 110 H 10.5406 -1.84747 -3.41307 0
M  V30 111 H 8.6416 0.604158 -3.67669 0
M  V30 112 H 8.7546 -0.985299 -4.68859 0
M  V30 113 H 7.1186 -0.428734 -2.51066 0
M  V30 114 H 7.9016 -2.08616 -2.72643 0
M  V30 115 N 10.3467 1.47872 -0.545128 0
M  V30 116 C 11.2797 2.2675 0.256885 0
M  V30 117 C 12.2577 1.33293 0.931228 0
M  V30 118 O 13.4417 1.62657 0.95262 0
M  V30 119 C 10.5687 3.09976 1.36501 0
M  V30 120 C 9.6147 4.1892 0.800496 0
M  V30 121 S 10.4477 5.34397 -0.343505 0
M  V30 122 C 11.6037 6.21186 0.766733 0
M  V30 123 H 11.8367 2.94425 -0.412479 0
M  V30 124 H 9.3697 1.50806 -0.331204 0
M  V30 125 H 11.3277 3.585 1.9997 0
M  V30 126 H 9.9887 2.41686 2.00616 0
M  V30 127 H 9.1817 4.76836 1.63227 0
M  V30 128 H 8.7837 3.73215 0.242217 0
M  V30 129 H 11.0757 6.56804 1.66178 0
M  V30 130 H 12.0187 7.07742 0.225204 0
M  V30 131 H 12.4267 5.54574 1.05396 0
M  V30 132 N 11.8248 0.280983 1.55075 0
M  V30 133 C 12.7548 -0.597469 2.25727 0
M  V30 134 C 13.7358 -1.15417 1.24952 0
M  V30 135 O 14.9208 -1.18722 1.53684 0
M  V30 136 C 12.0508 -1.7789 2.98283 0
M  V30 137 C 11.0048 -1.35347 4.06036 0
M  V30 138 C 10.3308 -2.61846 4.66198 0
M  V30 139 C 11.6308 -0.499354 5.19907 0
M  V30 140 H 13.3248 -0.00824265 2.99399 0
M  V30 141 H 10.8708 -0.0025244 1.44 0
M  V30 142 H 12.8238 -2.39937 3.46422 0
M  V30 143 H 11.5478 -2.39405 2.22155 0
M  V30 144 H 10.2068 -0.756156 3.58717 0
M  V30 145 H 9.8548 -3.21632 3.86732 0
M  V30 146 H 9.5548 -2.3409 5.38958 0
M  V30 147 H 11.0788 -3.24732 5.1709 0
M  V30 148 H 12.4928 -1.02498 5.64063 0
M  V30 149 H 10.8898 -0.316424 5.99265 0
M  V30 150 H 11.9598 0.480459 4.82514 0
M  V30 151 N 13.3029 -1.57598 0.00835791 0
M  V30 152 C 14.2329 -2.1198 -0.979113 0
M  V30 153 C 15.2139 -1.03091 -1.35301 0
M  V30 154 O 16.3989 -1.30818 -1.43528 0
M  V30 155 C 13.5289 -2.62995 -2.26828 0
M  V30 156 C 12.4829 -3.76485 -2.03576 0
M  V30 157 C 11.8089 -4.13846 -3.38579 0
M  V30 158 C 13.1089 -5.0342 -1.39161 0
M  V30 159 H 14.8029 -2.94738 -0.526281 0
M  V30 160 H 12.3489 -1.41783 -0.251704 0
M  V30 161 H 14.3019 -2.99669 -2.96271 0
M  V30 162 H 13.0259 -1.7737 -2.7424 0
M  V30 163 H 11.6849 -3.40217 -1.36557 0
M  V30 164 H 11.3329 -3.25232 -3.83709 0
M  V30 165 H 11.0329 -4.90312 -3.23834 0
M  V30 166 H 12.5569 -4.53086 -4.09323 0
M  V30 167 H 13.9709 -5.37812 -1.98573 0
M  V30 168 H 12.3679 -5.84746 -1.34878 0
M  V30 169 H 13.4379 -4.83548 -0.361868 0
M  V30 170 N 14.781 0.264519 -1.55364 0
M  V30 171 C 16.197 0.61215 -1.47394 0
M  V30 172 C 16.397 1.89134 -0.695018 0
M  V30 173 O 15.453 2.51563 -0.217275 0
M  V30 174 C 16.766 0.731235 -2.91674 0
M  V30 175 C 18.314 0.82473 -3.01939 0
M  V30 176 C 18.789 0.975522 -4.4749 0
M  V30 177 N 20.28 1.04083 -4.51354 0
M  V30 178 C 21.015 1.17646 -5.61201 0
M  V30 179 N 20.511 1.27874 -6.80896 0
M  V30 180 N 22.304 1.20823 -5.48961 0
M  V30 181 H 14.455 -0.575456 -2.04456 0
M  V30 182 H 16.718 -0.196099 -0.927496 0
M  V30 183 H 16.424 -0.138392 -3.51428 0
M  V30 184 H 16.298 1.60883 -3.41169 0
M  V30 185 H 18.685 1.68482 -2.42276 0
M  V30 186 H 18.766 -0.0776479 -2.55682 0
M  V30 187 H 18.41 0.120058 -5.07758 0
M  V30 188 H 18.34 1.89268 -4.91412 0
M  V30 189 H 20.831 0.973846 -3.65136 0
M  V30 190 H 21.144 1.38081 -7.60364 0
M  V30 191 H 19.489 1.24863 -6.83692 0
M  V30 192 H 22.68 1.12469 -4.54388 0
M  V30 193 H 22.853 1.31049 -6.3461 0
M  V30 194 N 16.2591 1.48442 0.529413 0
M  V30 195 C 17.2221 1.62524 1.61612 0
M  V30 196 C 18.2221 0.498509 1.52877 0
M  V30 197 O 19.4121 0.76431 1.56537 0
M  V30 198 C 16.5441 1.59597 3.01233 0
M  V30 199 H 17.7371 2.59423 1.50465 0
M  V30 200 H 15.2901 1.37047 0.751514 0
M  V30 201 H 16.0251 0.641781 3.17886 0
M  V30 202 H 15.8101 2.41397 3.08982 0
M  V30 203 H 17.3001 1.72646 3.80241 0
M  V30 204 N 17.7372 -0.778329 1.37039 0
M  V30 205 C 18.6672 -1.90546 1.34962 0
M  V30 206 C 19.6482 -1.68681 0.219274 0
M  V30 207 O 20.8332 -1.89634 0.418624 0
M  V30 208 C 17.9632 -3.27734 1.14925 0
M  V30 209 C 16.9172 -3.64147 2.24902 0
M  V30 210 C 16.2432 -4.99806 1.89996 0
M  V30 211 C 17.5432 -3.71579 3.67051 0
M  V30 212 H 19.2372 -1.92541 2.29277 0
M  V30 213 H 16.7832 -0.924948 1.10366 0
M  V30 214 H 18.7362 -4.06215 1.12104 0
M  V30 215 H 17.4602 -3.26154 0.170631 0
M  V30 216 H 16.1192 -2.8797 2.26868 0
M  V30 217 H 15.7672 -4.94759 0.906796 0
M  V30 218 H 15.4672 -5.25139 2.63634 0
M  V30 219 H 16.9912 -5.80694 1.88749 0
M  V30 220 H 18.4052 -4.40227 3.67251 0
M  V30 221 H 16.8022 -4.08405 4.39688 0
M  V30 222 H 17.8722 -2.72404 4.01154 0
M  V30 223 N 19.2153 -1.21501 -1.00376 0
M  V30 224 C 20.1783 -0.976927 -2.07337 0
M  V30 225 C 21.1783 0.0525322 -1.60714 0
M  V30 226 O 22.3683 -0.184869 -1.73216 0
M  V30 227 C 19.5003 -0.473423 -3.37597 0
M  V30 228 H 20.6933 -1.92587 -2.29892 0
M  V30 229 H 18.2463 -1.03217 -1.17371 0
M  V30 230 H 18.9813 0.480379 -3.20722 0
M  V30 231 H 18.7663 -1.216 -3.72768 0
M  V30 232 H 20.2563 -0.32675 -4.1632 0
M  V30 233 N 20.6934 1.19889 -1.02296 0
M  V30 234 C 21.6254 2.22334 -0.556787 0
M  V30 235 C 22.6384 1.58674 0.364199 0
M  V30 236 O 23.8274 1.77768 0.161533 0
M  V30 237 C 20.9274 3.38257 0.208694 0
M  V30 238 C 20.1004 4.31504 -0.71577 0
M  V30 239 C 19.1594 5.262 0.00325597 0
M  V30 240 O 18.1854 5.65798 -0.621357 0
M  V30 241 N 19.3874 5.66303 1.27599 0
M  V30 242 H 22.1524 2.62957 -1.43784 0
M  V30 243 H 19.7134 1.34495 -0.901261 0
M  V30 244 H 21.7054 3.98616 0.699111 0
M  V30 245 H 20.2754 2.96472 0.991102 0
M  V30 246 H 19.4954 3.69016 -1.38638 0
M  V30 247 H 20.7834 4.9072 -1.34428 0
M  V30 248 H 20.1814 5.36155 1.80429 0
M  V30 249 H 18.7384 6.28942 1.71102 0
M  V30 250 N 22.1715 0.800033 1.35784 0
M  V30 251 C 23.1345 0.211565 2.28221 0
M  V30 252 C 24.1345 -0.59728 1.49296 0
M  V30 253 O 25.3245 -0.416721 1.69142 0
M  V30 254 C 22.4565 -0.705846 3.33513 0
M  V30 255 H 23.6495 1.02677 2.81776 0
M  V30 256 H 21.2025 0.570211 1.45528 0
M  V30 257 H 21.9375 -1.54498 2.85133 0
M  V30 258 H 21.7225 -0.127655 3.91892 0
M  V30 259 H 23.2125 -1.11211 4.02519 0
M  V30 260 N 23.6496 -1.47581 0.552962 0
M  V30 261 C 24.6126 -2.28439 -0.186605 0
M  V30 262 C 25.6126 -1.36706 -0.84665 0
M  V30 263 O 26.8026 -1.59378 -0.703164 0
M  V30 264 C 23.9346 -3.16264 -1.2724 0
M  V30 265 H 25.1276 -2.95294 0.523609 0
M  V30 266 H 22.6806 -1.532 0.309745 0
M  V30 267 H 23.4156 -2.54091 -2.01514 0
M  V30 268 H 23.2006 -3.83769 -0.803968 0
M  V30 269 H 24.6906 -3.77198 -1.79196 0
M  V30 270 N 25.1277 -0.289203 -1.54924 0
M  V30 271 C 26.5437 0.0645403 -1.59469 0
M  V30 272 C 26.7437 1.53419 -1.30632 0
M  V30 273 O 25.7997 2.2852 -1.074 0
M  V30 274 C 27.1127 -0.32278 -2.98963 0
M  V30 275 C 28.6607 -0.270564 -3.11828 0
M  V30 276 C 29.1357 -0.632532 -4.53611 0
M  V30 277 N 30.6267 -0.584617 -4.59496 0
M  V30 278 C 31.3617 -0.837314 -5.67254 0
M  V30 279 N 30.8577 -1.15536 -6.83098 0
M  V30 280 N 32.6507 -0.765166 -5.56868 0
M  V30 281 H 24.8017 -1.24714 -1.71931 0
M  V30 282 H 27.0647 -0.504809 -0.802416 0
M  V30 283 H 26.7707 -1.34541 -3.24948 0
M  V30 284 H 26.6447 0.32944 -3.75759 0
M  V30 285 H 29.0317 0.742805 -2.85598 0
M  V30 286 H 29.1127 -0.957242 -2.37214 0
M  V30 287 H 28.7567 -1.64365 -4.80569 0
M  V30 288 H 28.6867 0.07609 -5.26545 0
M  V30 289 H 31.1777 -0.349248 -3.76283 0
M  V30 290 H 31.4907 -1.33447 -7.61191 0
M  V30 291 H 29.8357 -1.19328 -6.84679 0
M  V30 292 H 33.0267 -0.516432 -4.65243 0
M  V30 293 H 33.1997 -0.965477 -6.40767 0
M  V30 294 N 26.6058 1.57591 -0.0167156 0
M  V30 295 C 27.5688 2.08393 0.954204 0
M  V30 296 C 28.5688 0.996531 1.26198 0
M  V30 297 O 29.7588 1.25858 1.20438 0
M  V30 298 C 26.8908 2.5394 2.27436 0
M  V30 299 H 28.0838 2.95455 0.514451 0
M  V30 300 H 25.6368 1.54582 0.231089 0
M  V30 301 H 26.3718 1.70171 2.76066 0
M  V30 302 H 26.1568 3.33371 2.06412 0
M  V30 303 H 27.6468 2.93512 2.97053 0
M  V30 304 N 28.0839 -0.256276 1.55502 0
M  V30 305 C 29.3319 -0.983672 1.76545 0
M  V30 306 C 29.6529 -1.86206 0.578982 0
M  V30 307 O 28.9229 -1.91656 -0.405577 0
M  V30 308 H 27.5029 -0.366191 0.651086 0
M  V30 309 H 30.1649 -0.276479 1.92929 0
M  V30 310 H 29.2609 -1.61087 2.67315 0
M  V30 311 N 29.562 -1.4872 -0.521534 0
M  V30 312 C 30.973 -1.50607 -1.10337 0
M  V30 313 C 31.324 -0.280612 -1.94183 0
M  V30 314 O 30.449 0.611507 -2.0758 0
M  V30 315 C 31.044 -2.72903 -2.00772 0
M  V30 316 C 29.603 -2.77634 -2.54158 0
M  V30 317 C 28.75 -2.44241 -1.31307 0
M  V30 318 H 31.701 -1.55714 -0.306388 0
M  V30 319 H 31.722 -2.519 -2.85178 0
M  V30 320 H 31.234 -3.62077 -1.39721 0
M  V30 321 H 29.335 -1.92689 -3.18907 0
M  V30 322 H 29.448 -3.79283 -2.92714 0
M  V30 323 H 27.812 -1.95577 -1.63161 0
M  V30 324 H 28.595 -3.35666 -0.719943 0
M  V30 325 N 31.0401 0.771051 -1.3745 0
M  V30 326 C 32.4511 1.34737 -1.29239 0
M  V30 327 C 32.8021 1.96109 0.0596908 0
M  V30 328 O 31.9271 1.93865 0.961534 0
M  V30 329 C 32.5221 2.44973 -2.34037 0
M  V30 330 C 31.0811 2.98372 -2.29458 0
M  V30 331 C 30.2281 1.71595 -2.17831 0
M  V30 332 H 33.1791 0.571256 -1.48062 0
M  V30 333 H 33.2001 3.24471 -1.98744 0
M  V30 334 H 32.7121 2.00276 -3.32432 0
M  V30 335 H 30.8131 3.47443 -1.34589 0
M  V30 336 H 30.9261 3.53939 -3.229 0
M  V30 337 H 29.2901 1.94547 -1.64388 0
M  V30 338 H 30.0731 1.29001 -3.18141 0
M  V30 339 N 32.5182 1.22032 0.997298 0
M  V30 340 C 33.7662 1.04016 1.73278 0
M  V30 341 C 34.0872 -0.426255 1.90284 0
M  V30 342 O 33.3572 -1.30694 1.45931 0
M  V30 343 H 31.9372 0.381897 0.642 0
M  V30 344 H 34.5992 1.5347 1.20137 0
M  V30 345 H 33.6952 1.51441 2.72896 0
M  V30 346 N 33.9963 -1.19345 1.0293 0
M  V30 347 C 35.2443 -1.88665 0.724574 0
M  V30 348 C 35.5653 -1.80036 -0.749144 0
M  V30 349 O 34.8353 -1.2111 -1.53978 0
M  V30 350 H 33.4153 -0.698406 0.265025 0
M  V30 351 H 36.0773 -1.44885 1.30362 0
M  V30 352 H 35.1733 -2.94987 1.01926 0
M  V30 353 N 35.4744 -0.807222 -1.35358 0
M  V30 354 C 36.8904 -0.491038 -1.51858 0
M  V30 355 C 37.0904 0.987648 -1.75635 0
M  V30 356 O 36.1464 1.77265 -1.79815 0
M  V30 357 C 37.4594 -1.33695 -2.69344 0
M  V30 358 C 39.0074 -1.33246 -2.83222 0
M  V30 359 C 39.4824 -2.1625 -4.03733 0
M  V30 360 N 40.9734 -2.1379 -4.10911 0
M  V30 361 C 41.7084 -2.74772 -5.03277 0
M  V30 362 N 41.2044 -3.44684 -6.0097 0
M  V30 363 N 42.9974 -2.6441 -4.96028 0
M  V30 364 H 35.1484 -1.76485 -1.18181 0
M  V30 365 H 37.4114 -0.751199 -0.578276 0
M  V30 366 H 37.1174 -2.38634 -2.58354 0
M  V30 367 H 36.9914 -0.990618 -3.6396 0
M  V30 368 H 39.3784 -0.290911 -2.93663 0
M  V30 369 H 39.4594 -1.71866 -1.89461 0
M  V30 370 H 39.1034 -3.20445 -3.94052 0
M  V30 371 H 39.0334 -1.74989 -4.96675 0
M  V30 372 H 41.5244 -1.62923 -3.40976 0
M  V30 373 H 41.8374 -3.88501 -6.68047 0
M  V30 374 H 40.1824 -3.48788 -6.01142 0
M  V30 375 H 43.3734 -2.0938 -4.18662 0
M  V30 376 H 43.5464 -3.12225 -5.6782 0
M  V30 377 N 36.9525 1.47285 -0.560781 0
M  V30 378 C 38.1775 2.07359 -0.0410566 0
M  V30 379 C 38.6025 1.41017 1.24483 0
M  V30 380 O 37.9605 0.486368 1.74654 0
M  V30 381 C 38.0085 3.6035 0.134123 0
M  V30 382 O 37.1125 3.94681 1.19587 0
M  V30 383 H 36.4535 0.661887 -0.0529291 0
M  V30 384 H 38.9835 1.89252 -0.777482 0
M  V30 385 H 38.9935 4.0652 0.347207 0
M  V30 386 H 37.6685 4.08034 -0.805047 0
M  V30 387 H 36.2455 3.60251 0.962987 0
M  V30 388 N 38.4306 0.297415 1.54768 0
M  V30 389 C 39.3606 -0.573494 2.26348 0
M  V30 390 C 40.3416 -1.14085 1.26169 0
M  V30 391 O 41.5266 -1.17086 1.54934 0
M  V30 392 C 38.6566 -1.74716 3.00153 0
M  V30 393 C 37.6106 -1.31032 4.07449 0
M  V30 394 C 36.9366 -2.56887 4.68949 0
M  V30 395 C 38.2366 -0.444183 5.20408 0
M  V30 396 H 39.9306 0.0235131 2.99391 0
M  V30 397 H 37.4766 0.0127488 1.43994 0
M  V30 398 H 39.4296 -2.3625 3.48947 0
M  V30 399 H 38.1536 -2.37035 2.24682 0
M  V30 400 H 36.8126 -0.718066 3.59499 0
M  V30 401 H 36.4606 -3.17512 3.90122 0
M  V30 402 H 36.1606 -2.2836 5.41411 0
M  V30 403 H 37.6846 -3.19229 5.20505 0
M  V30 404 H 39.0986 -0.9651 5.65118 0
M  V30 405 H 37.4956 -0.252846 5.99567 0
M  V30 406 H 38.5656 0.531609 4.81977 0
M  V30 407 N 39.9087 -1.5758 0.0250728 0
M  V30 408 C 40.8587 -2.06468 -0.967201 0
M  V30 409 C 41.8427 -0.964376 -1.28797 0
M  V30 410 O 43.0347 -1.22797 -1.27475 0
M  V30 411 C 40.1637 -2.59203 -2.25097 0
M  V30 412 C 39.2497 -3.76157 -1.95874 0
M  V30 413 N 39.6407 -4.86919 -1.36905 0
M  V30 414 C 37.9387 -3.84566 -2.25887 0
M  V30 415 C 38.6397 -5.68172 -1.24724 0
M  V30 416 N 37.6157 -5.14953 -1.74138 0
M  V30 417 H 41.4177 -2.89508 -0.506176 0
M  V30 418 H 38.9317 -1.61399 -0.18004 0
M  V30 419 H 40.9287 -2.92517 -2.97052 0
M  V30 420 H 39.5887 -1.77592 -2.71829 0
M  V30 421 H 40.5997 -5.07256 -1.04459 0
M  V30 422 H 37.2767 -3.13854 -2.75321 0
M  V30 423 H 38.6667 -6.67221 -0.791605 0
M  V30 424 N 41.3868 0.248026 -1.55636 0
M  V30 425 C 42.6118 0.998028 -1.81808 0
M  V30 426 C 43.0368 1.78207 -0.601979 0
M  V30 427 O 42.3948 1.75653 0.448961 0
M  V30 428 C 42.4428 1.9125 -3.05705 0
M  V30 429 O 41.5468 3.00406 -2.82542 0
M  V30 430 H 40.8878 0.284045 -0.600179 0
M  V30 431 H 43.4178 0.269357 -2.02819 0
M  V30 432 H 43.4278 2.32737 -3.35108 0
M  V30 433 H 42.1028 1.33602 -3.93857 0
M  V30 434 H 40.6798 2.63056 -2.64303 0
M  V30 435 N 42.8649 1.48995 0.513639 0
M  V30 436 C 44.0899 1.61792 1.29762 0
M  V30 437 C 44.5149 0.284475 1.85936 0
M  V30 438 O 43.8729 -0.746185 1.65232 0
M  V30 439 C 43.9209 2.67993 2.41272 0
M  V30 440 O 43.0249 2.26287 3.44772 0
M  V30 441 H 42.3659 0.541963 0.38363 0
M  V30 442 H 44.8959 1.95097 0.616307 0
M  V30 443 H 44.9059 2.89772 2.87221 0
M  V30 444 H 43.5809 3.64791 1.9975 0
M  V30 445 H 42.1579 2.14788 3.04829 0
M  V30 446 N 44.343 -0.763751 1.37857 0
M  V30 447 C 45.306 -1.85889 1.34081 0
M  V30 448 C 46.306 -1.58949 0.243277 0
M  V30 449 O 47.496 -1.66882 0.499589 0
M  V30 450 C 44.628 -3.23176 1.08489 0
M  V30 451 H 45.821 -1.90648 2.31502 0
M  V30 452 H 43.374 -0.964367 1.23003 0
M  V30 453 H 44.109 -3.24091 0.116318 0
M  V30 454 H 43.894 -3.44124 1.8794 0
M  V30 455 H 45.384 -4.03254 1.08517 0
M  V30 456 N 45.8211 -1.22559 -0.990812 0
M  V30 457 C 47.0671 -1.05297 -1.73322 0
M  V30 458 C 47.4001 0.410655 -1.89808 0
M  V30 459 O 46.6751 1.30439 -1.44277 0
M  V30 460 C 46.9581 -1.76713 -3.13759 0
M  V30 461 C 46.8111 -3.30684 -3.04907 0
M  V30 462 C 48.1301 -1.52121 -4.12974 0
M  V30 463 H 45.2491 -0.38392 -0.629106 0
M  V30 464 H 47.8911 -1.50926 -1.15418 0
M  V30 465 H 46.0411 -1.37924 -3.63193 0
M  V30 466 H 47.7131 -3.7893 -2.63077 0
M  V30 467 H 45.9561 -3.60253 -2.41661 0
M  V30 468 H 46.6271 -3.75833 -4.04294 0
M  V30 469 H 49.1031 -1.85819 -3.72304 0
M  V30 470 H 47.9791 -2.04582 -5.0935 0
M  V30 471 H 48.2401 -0.454257 -4.3976 0
M  V30 472 N 47.2992 1.18797 -1.03562 0
M  V30 473 C 48.2622 2.20464 -0.626769 0
M  V30 474 C 49.2622 1.57721 0.313173 0
M  V30 475 O 50.4522 1.73917 0.0992615 0
M  V30 476 C 47.5842 3.40802 0.0818498 0
M  V30 477 H 48.7772 2.58149 -1.5264 0
M  V30 478 H 46.3302 1.32593 -0.827578 0
M  V30 479 H 47.0652 3.08642 0.995518 0
M  V30 480 H 46.8502 3.8758 -0.593652 0
M  V30 481 H 48.3402 4.16092 0.354584 0
M  V30 482 N 48.7773 0.814389 1.34928 0
M  V30 483 C 49.7403 0.235759 2.27984 0
M  V30 484 C 50.7403 -0.581412 1.49921 0
M  V30 485 O 51.9303 -0.398758 1.69575 0
M  V30 486 C 49.0623 -0.670433 3.34242 0
M  V30 487 H 50.2553 1.05659 2.80671 0
M  V30 488 H 47.8083 0.585614 1.44915 0
M  V30 489 H 48.5433 -1.51466 2.86755 0
M  V30 490 H 48.3283 -0.0860822 3.92005 0
M  V30 491 H 49.8183 -1.06935 4.03676 0
M  V30 492 N 50.2554 -1.46986 0.568584 0
M  V30 493 C 51.4834 -2.0683 0.0539956 0
M  V30 494 C 51.8984 -1.41953 -1.24478 0
M  V30 495 O 51.2554 -0.519933 -1.74937 0
M  V30 496 C 51.3064 -3.61254 -0.133362 0
M  V30 497 O 51.0274 -4.237 1.11399 0
M  V30 498 C 52.5284 -4.37992 -0.683927 0
M  V30 499 H 49.7484 -0.669058 0.0510141 0
M  V30 500 H 52.2924 -1.88824 0.785234 0
M  V30 501 H 50.4474 -3.78735 -0.81477 0
M  V30 502 H 50.8614 -5.16388 0.91888 0
M  V30 503 H 52.3354 -5.46684 -0.764263 0
M  V30 504 H 52.8124 -4.05058 -1.69778 0
M  V30 505 H 53.4184 -4.25283 -0.0378494 0
M  V30 506 N 51.7335 -0.305618 -1.54608 0
M  V30 507 C 52.9635 0.304333 -2.04346 0
M  V30 508 C 53.3715 1.47715 -1.18224 0
M  V30 509 O 52.7145 1.82591 -0.201577 0
M  V30 510 C 52.7765 0.819031 -3.50046 0
M  V30 511 C 52.4405 -0.22912 -4.56425 0
M  V30 512 C 53.4375 -1.05914 -5.08997 0
M  V30 513 C 51.1225 -0.372148 -5.0092 0
M  V30 514 C 53.1165 -2.01809 -6.04609 0
M  V30 515 C 50.8035 -1.33454 -5.9635 0
M  V30 516 C 51.8015 -2.15599 -6.48079 0
M  V30 517 O 51.4895 -3.10205 -7.41639 0
M  V30 518 H 51.2215 0.0693996 -0.672428 0
M  V30 519 H 53.7755 -0.444548 -2.00532 0
M  V30 520 H 52.0055 1.61852 -3.51199 0
M  V30 521 H 53.6945 1.34537 -3.82955 0
M  V30 522 H 54.4605 -0.959538 -4.75413 0
M  V30 523 H 50.3395 0.257304 -4.60281 0
M  V30 524 H 53.8835 -2.65966 -6.44909 0
M  V30 525 H 49.7805 -1.43485 -6.29351 0
M  V30 526 H 50.5485 -3.05237 -7.59455 0
M  V30 527 N 53.2116 1.57565 -0.0334293 0
M  V30 528 C 54.1586 2.10478 0.946981 0
M  V30 529 C 55.1286 1.00787 1.32027 0
M  V30 530 O 56.3136 1.28232 1.41284 0
M  V30 531 C 53.4536 2.63994 2.22263 0
M  V30 532 C 52.5666 3.87709 1.90541 0
M  V30 533 C 51.7016 4.29604 3.12433 0
M  V30 534 C 50.7406 5.46065 2.76549 0
M  V30 535 N 49.8776 5.83096 3.9108 0
M  V30 536 H 54.7176 2.93963 0.488846 0
M  V30 537 H 52.2546 1.45296 0.22969 0
M  V30 538 H 54.2126 2.93114 2.96884 0
M  V30 539 H 52.8426 1.83333 2.65685 0
M  V30 540 H 51.8946 3.65291 1.06144 0
M  V30 541 H 53.2066 4.72403 1.60116 0
M  V30 542 H 52.3606 4.60182 3.9537 0
M  V30 543 H 51.0996 3.43685 3.46023 0
M  V30 544 H 50.1046 5.15176 1.92026 0
M  V30 545 H 51.3296 6.33685 2.44171 0
M  V30 546 H 49.2756 5.00132 4.24504 0
M  V30 547 H 49.1926 6.6244 3.64293 0
M  V30 548 H 50.4606 6.18282 4.74708 0
M  V30 549 N 54.6897 -0.239769 1.55765 0
M  V30 550 C 55.9197 -0.982743 1.8173 0
M  V30 551 C 56.3277 -1.7917 0.607835 0
M  V30 552 O 55.6707 -1.78525 -0.432973 0
M  V30 553 C 55.7327 -1.96332 3.01155 0
M  V30 554 C 55.3967 -1.34062 4.36894 0
M  V30 555 C 56.3937 -0.739539 5.14613 0
M  V30 556 C 54.0787 -1.35784 4.83599 0
M  V30 557 C 56.0727 -0.163989 6.37189 0
M  V30 558 C 53.7597 -0.778441 6.06122 0
M  V30 559 C 54.7577 -0.182548 6.82756 0
M  V30 560 O 54.4457 0.387887 8.02964 0
M  V30 561 H 54.1777 -0.294481 0.608487 0
M  V30 562 H 56.7317 -0.26572 2.03674 0
M  V30 563 H 54.9617 -2.71884 2.74984 0
M  V30 564 H 56.6507 -2.57032 3.14149 0
M  V30 565 H 57.4167 -0.718687 4.79646 0
M  V30 566 H 53.2957 -1.81105 4.23936 0
M  V30 567 H 56.8397 0.301753 6.96947 0
M  V30 568 H 52.7367 -0.796645 6.40565 0
M  V30 569 H 53.5047 0.28044 8.18019 0
M  V30 570 N 56.1678 -1.49265 -0.50573 0
M  V30 571 C 57.4138 -1.58748 -1.26202 0
M  V30 572 C 57.7468 -0.271227 -1.92297 0
M  V30 573 O 57.0218 0.724831 -1.80489 0
M  V30 574 C 57.3048 -2.74332 -2.33268 0
M  V30 575 C 57.1578 -4.15737 -1.71705 0
M  V30 576 C 58.4768 -2.85576 -3.34865 0
M  V30 577 H 55.5958 -0.577826 -0.457478 0
M  V30 578 H 58.2378 -1.81532 -0.560897 0
M  V30 579 H 56.3878 -2.55036 -2.93068 0
M  V30 580 H 58.0598 -4.46537 -1.15769 0
M  V30 581 H 56.3028 -4.21605 -1.02135 0
M  V30 582 H 56.9738 -4.92477 -2.49341 0
M  V30 583 H 59.4498 -3.03127 -2.8505 0
M  V30 584 H 58.3258 -3.68135 -4.07146 0
M  V30 585 H 58.5868 -1.94732 -3.96903 0
M  V30 586 N 57.6459 0.756429 -1.3826 0
M  V30 587 C 58.5939 1.89149 -1.35372 0
M  V30 588 C 59.5879 1.67691 -0.24004 0
M  V30 589 O 60.7939 1.75294 -0.408919 0
M  V30 590 H 57.1689 0.622271 -0.422236 0
M  V30 591 H 59.1399 1.88701 -2.31159 0
M  V30 592 C 57.8889 3.26599 -1.19284 0
M  V30 593 H 57.2119 3.43695 -2.0424 0
M  V30 594 H 58.6519 4.06274 -1.21316 0
M  V30 595 C 57.1109 3.3675 0.100454 0
M  V30 596 O 57.6409 3.86951 1.07851 0
M  V30 597 N 55.8469 2.90179 0.15633 0
M  V30 598 H 55.3939 2.49517 -0.640253 0
M  V30 599 H 55.3519 2.97352 1.02123 0
M  V30 600 N 59.124 1.23083 0.984299 0
M  V30 601 C 60.057 0.951786 2.07404 0
M  V30 602 C 61.035 -0.10848 1.62238 0
M  V30 603 O 62.219 0.0249467 1.88483 0
M  V30 604 C 59.346 0.433142 3.35919 0
M  V30 605 C 58.392 1.47941 4.0002 0
M  V30 606 S 59.225 3.05556 4.39768 0
M  V30 607 C 60.381 2.55351 5.71442 0
M  V30 608 H 60.614 1.87456 2.30754 0
M  V30 609 H 58.147 1.06284 1.11996 0
M  V30 610 H 60.105 0.140506 4.10259 0
M  V30 611 H 58.766 -0.468656 3.10584 0
M  V30 612 H 57.959 1.06658 4.92585 0
M  V30 613 H 57.561 1.7212 3.3204 0
M  V30 614 H 59.853 1.97128 6.48187 0
M  V30 615 H 60.796 3.46441 6.17563 0
M  V30 616 H 61.204 1.96339 5.29255 0
M  V30 617 N 60.6021 -1.18246 1.0419 0
M  V30 618 C 61.5341 -2.2142 0.592088 0
M  V30 619 C 62.5471 -1.59233 -0.338909 0
M  V30 620 O 63.7361 -1.78002 -0.133231 0
M  V30 621 C 60.8361 -3.38546 -0.154854 0
M  V30 622 C 60.0091 -4.3031 0.784328 0
M  V30 623 C 59.0681 -5.26138 0.0804583 0
M  V30 624 O 58.0941 -5.64738 0.711292 0
M  V30 625 N 59.2961 -5.68261 -1.18574 0
M  V30 626 H 62.0611 -2.60636 1.47949 0
M  V30 627 H 59.6221 -1.33044 0.922544 0
M  V30 628 H 61.6141 -3.99678 -0.635606 0
M  V30 629 H 60.1841 -2.98012 -0.943811 0
M  V30 630 H 59.4041 -3.66764 1.44491 0
M  V30 631 H 60.6921 -4.8852 1.42218 0
M  V30 632 H 60.0901 -5.38957 -1.71876 0
M  V30 633 H 58.6471 -6.31584 -1.61074 0
M  V30 634 N 62.0802 -0.821533 -1.34494 0
M  V30 635 C 63.3572 -0.33159 -1.92769 0
M  V30 636 C 63.7372 1.18088 -1.74981 0
M  V30 637 O 63.0852 1.98733 -1.12772 0
M  V30 638 C 63.2952 -0.759398 -3.40638 0
M  V30 639 C 64.6432 -0.757433 -4.1779 0
M  V30 640 O 65.6672 -0.70189 -3.49216 0
M  V30 641 O 64.5262 -0.829361 -5.4017 0
M  V30 642 H 61.6202 -0.0902502 -0.822061 0
M  V30 643 H 64.1662 -0.906231 -1.43477 0
M  V30 644 H 62.9382 -1.8012 -3.47379 0
M  V30 645 H 62.5612 -0.160378 -3.97276 0
M  V30 646 N 63.5583 1.46682 -0.576371 0
M  V30 647 C 64.9693 1.86112 -0.148091 0
M  V30 648 C 65.3203 1.48073 1.2872 0
M  V30 649 O 64.4453 0.892656 1.97131 0
M  V30 650 C 65.0403 3.37786 -0.261982 0
M  V30 651 C 63.5993 3.76235 0.111384 0
M  V30 652 C 62.7463 2.70713 -0.60083 0
M  V30 653 H 65.6973 1.37927 -0.78497 0
M  V30 654 H 65.7183 3.77007 0.514364 0
M  V30 655 H 65.2303 3.6544 -1.30671 0
M  V30 656 H 63.3313 3.54198 1.15649 0
M  V30 657 H 63.4443 4.78391 -0.26052 0
M  V30 658 H 61.8083 2.54666 -0.0417783 0
M  V30 659 H 62.5913 3.01208 -1.64708 0
M  V30 660 N 65.0364 0.313813 1.54444 0
M  V30 661 C 65.9464 -0.565714 2.27677 0
M  V30 662 C 66.9624 -1.13754 1.31666 0
M  V30 663 O 68.1384 -1.15959 1.64668 0
M  V30 664 C 65.2034 -1.71528 3.01296 0
M  V30 665 C 64.2644 -1.17624 4.12872 0
M  V30 666 C 63.4974 -2.27102 4.8297 0
M  V30 667 O 63.7204 -3.47256 4.52514 0
M  V30 668 O 62.6544 -1.9307 5.70094 0
M  V30 669 H 66.4804 0.0287296 3.03686 0
M  V30 670 H 64.0654 0.0798312 1.49187 0
M  V30 671 H 65.9474 -2.38476 3.4743 0
M  V30 672 H 64.6224 -2.29608 2.2817 0
M  V30 673 H 63.5294 -0.472124 3.71109 0
M  V30 674 H 64.8624 -0.640695 4.88012 0
M  V30 675 N 66.5145 -1.57545 0.0417849 0
M  V30 676 C 67.4475 -2.06514 -0.970928 0
M  V30 677 C 68.4255 -0.963607 -1.30971 0
M  V30 678 O 69.6095 -1.23486 -1.4242 0
M  V30 679 C 66.7365 -2.4978 -2.28752 0
M  V30 680 C 65.7825 -3.71078 -2.10246 0
M  V30 681 S 66.6155 -5.17158 -1.38952 0
M  V30 682 C 67.7715 -5.6373 -2.71954 0
M  V30 683 H 68.0045 -2.9209 -0.554129 0
M  V30 684 H 65.5375 -1.53459 -0.17024 0
M  V30 685 H 67.4955 -2.75371 -3.04435 0
M  V30 686 H 66.1565 -1.64527 -2.67562 0
M  V30 687 H 65.3495 -3.9924 -3.07609 0
M  V30 688 H 64.9515 -3.45705 -1.42704 0
M  V30 689 H 67.2435 -5.68743 -3.68154 0
M  V30 690 H 68.1865 -6.63086 -2.4844 0
M  V30 691 H 68.5945 -4.91424 -2.77782 0
M  V30 692 N 67.9926 0.231505 -1.5589 0
M  V30 693 C 69.2696 0.981096 -1.69215 0
M  V30 694 C 69.6496 2.02799 -0.586164 0
M  V30 695 O 68.9976 2.24823 0.408253 0
M  V30 696 C 69.2076 1.60054 -3.10135 0
M  V30 697 C 70.5556 2.09658 -3.69227 0
M  V30 698 O 71.5796 1.69967 -3.13033 0
M  V30 699 O 70.4386 2.8258 -4.67772 0
M  V30 700 H 67.5326 0.457653 -0.688827 0
M  V30 701 H 70.0786 0.224073 -1.68214 0
M  V30 702 H 68.8506 0.844105 -3.82087 0
M  V30 703 H 68.4736 2.42336 -3.15212 0
M  V30 704 N 69.4707 1.49531 0.497807 0
M  V30 705 C 70.4037 1.61043 1.6168 0
M  V30 706 C 71.3817 0.459386 1.55976 0
M  V30 707 O 72.5657 0.675358 1.75986 0
M  V30 708 C 69.6927 1.56833 3.00202 0
M  V30 709 C 68.7387 2.77173 3.24156 0
M  V30 710 S 69.5717 4.38808 3.06933 0
M  V30 711 C 70.7277 4.37248 4.47845 0
M  V30 712 H 70.9607 2.55702 1.51671 0
M  V30 713 H 68.4937 1.38462 0.683201 0
M  V30 714 H 70.4517 1.55089 3.80076 0
M  V30 715 H 69.1127 0.634561 3.07623 0
M  V30 716 H 68.3057 2.70456 4.25288 0
M  V30 717 H 67.9077 2.76346 2.5201 0
M  V30 718 H 70.1997 4.09164 5.39992 0
M  V30 719 H 71.1427 5.38668 4.59612 0
M  V30 720 H 71.5507 3.67286 4.28674 0
M  V30 721 N 70.9488 -0.749086 1.3866 0
M  V30 722 C 71.8958 -1.86291 1.36251 0
M  V30 723 C 72.8658 -1.64578 0.224347 0
M  V30 724 O 74.0508 -1.86181 0.417279 0
M  V30 725 C 71.1908 -3.23644 1.19786 0
M  V30 726 C 70.3038 -3.57158 2.43027 0
M  V30 727 C 69.4388 -4.83838 2.19258 0
M  V30 728 C 68.4778 -5.10152 3.38247 0
M  V30 729 N 67.6148 -6.28029 3.13884 0
M  V30 730 H 72.4548 -1.87685 2.3147 0
M  V30 731 H 69.9918 -0.917287 1.14997 0
M  V30 732 H 71.9498 -4.0291 1.08254 0
M  V30 733 H 70.5798 -3.21566 0.282031 0
M  V30 734 H 69.6318 -2.72701 2.65214 0
M  V30 735 H 70.9438 -3.7253 3.31697 0
M  V30 736 H 70.0978 -5.71057 2.04888 0
M  V30 737 H 68.8368 -4.70614 1.2796 0
M  V30 738 H 67.8418 -4.21401 3.53131 0
M  V30 739 H 69.0668 -5.25271 4.30427 0
M  V30 740 H 67.0128 -6.1612 2.25238 0
M  V30 741 H 66.9298 -6.43922 3.96106 0
M  V30 742 H 68.1978 -7.18124 3.03179 0
M  V30 743 N 72.4269 -1.23603 -0.977757 0
M  V30 744 C 73.6519 -1.09735 -1.75991 0
M  V30 745 C 74.0769 0.346858 -1.84874 0
M  V30 746 O 73.4349 1.25093 -1.3123 0
M  V30 747 C 73.4829 -1.73051 -3.16363 0
M  V30 748 O 72.5869 -0.994452 -4.0023 0
M  V30 749 H 71.9279 -0.384476 -0.541364 0
M  V30 750 H 74.4579 -1.6371 -1.2272 0
M  V30 751 H 74.4679 -1.78398 -3.66931 0
M  V30 752 H 73.1429 -2.78137 -3.09213 0
M  V30 753 H 71.7199 -1.01812 -3.58732 0
M  V30 754 N 73.905 1.17692 -1.04816 0
M  V30 755 C 75.151 1.88137 -0.75711 0
M  V30 756 C 75.484 1.80604 0.713841 0
M  V30 757 O 74.759 1.21146 1.52164 0
M  V30 758 C 75.042 3.38318 -1.2334 0
M  V30 759 C 74.895 3.54622 -2.76701 0
M  V30 760 C 76.214 4.32214 -0.829415 0
M  V30 761 H 73.333 0.683163 -0.27651 0
M  V30 762 H 75.975 1.38424 -1.30149 0
M  V30 763 H 74.125 3.80787 -0.770286 0
M  V30 764 H 75.797 3.21194 -3.31107 0
M  V30 765 H 74.04 2.97026 -3.16161 0
M  V30 766 H 74.711 4.60028 -3.05088 0
M  V30 767 H 77.187 3.97565 -1.22805 0
M  V30 768 H 76.063 5.35838 -1.19033 0
M  V30 769 H 76.324 4.41294 0.266891 0
M  V30 770 N 75.3831 0.828654 1.34056 0
M  V30 771 C 76.6111 0.43262 2.02326 0
M  V30 772 C 77.0261 -0.963147 1.62385 0
M  V30 773 O 76.3831 -1.62425 0.832121 0
M  V30 774 C 76.4341 0.53182 3.57567 0
M  V30 775 O 76.1551 1.87258 3.96063 0
M  V30 776 C 77.6561 0.131422 4.43105 0
M  V30 777 H 74.8761 0.172923 0.648335 0
M  V30 778 H 77.4201 1.1184 1.71208 0
M  V30 779 H 75.5751 -0.105938 3.87255 0
M  V30 780 H 75.9891 1.85087 4.90758 0
M  V30 781 H 77.4631 0.251904 5.51425 0
M  V30 782 H 77.9401 -0.925645 4.29335 0
M  V30 783 H 78.5461 0.743207 4.18756 0
M  V30 784 N 76.8612 -1.46375 0.584142 0
M  V30 785 C 78.1382 -1.956 0.0033388 0
M  V30 786 C 78.5182 -1.52679 -1.45782 0
M  V30 787 O 77.8662 -0.77816 -2.14842 0
M  V30 788 C 78.0762 -3.48551 0.176891 0
M  V30 789 C 79.4242 -4.24576 0.0454609 0
M  V30 790 O 80.4482 -3.56043 0.105801 0
M  V30 791 O 79.3072 -5.46427 -0.0890376 0
M  V30 792 H 76.4012 -0.825547 -0.0490066 0
M  V30 793 H 78.9472 -1.56652 0.65256 0
M  V30 794 H 77.7192 -3.72683 1.1926 0
M  V30 795 H 77.3422 -3.94332 -0.508695 0
M  V30 796 N 78.3393 -0.321999 -1.54275 0
M  V30 797 C 79.7553 0.0306999 -1.5957 0
M  V30 798 C 79.9553 1.50614 -1.33857 0
M  V30 799 O 79.0113 2.2619 -1.12223 0
M  V30 800 C 80.3243 -0.386122 -2.98211 0
M  V30 801 C 81.8723 -0.336647 -3.11184 0
M  V30 802 C 82.3473 -0.728607 -4.52167 0
M  V30 803 N 83.8383 -0.681952 -4.58152 0
M  V30 804 C 84.5733 -0.957449 -5.6535 0
M  V30 805 N 84.0693 -1.3 -6.80494 0
M  V30 806 N 85.8623 -0.883113 -5.55119 0
M  V30 807 H 78.0133 -1.28332 -1.69247 0
M  V30 808 H 80.2763 -0.521716 -0.791528 0
M  V30 809 H 79.9823 -1.41404 -3.22022 0
M  V30 810 H 79.8563 0.249662 -3.76373 0
M  V30 811 H 82.2433 0.682058 -2.8711 0
M  V30 812 H 82.3243 -1.00734 -2.3513 0
M  V30 813 H 81.9683 -1.74522 -4.76974 0
M  V30 814 H 81.8983 -0.0356152 -5.26588 0
M  V30 815 H 84.3893 -0.428985 -3.75457 0
M  V30 816 H 84.7023 -1.49563 -7.58189 0
M  V30 817 H 83.0473 -1.33824 -6.81994 0
M  V30 818 H 86.2383 -0.615001 -4.64042 0
M  V30 819 H 86.4113 -1.10118 -6.38575 0
M  V30 820 N 79.8174 1.5752 -0.0501392 0
M  V30 821 C 80.7804 2.1037 0.909786 0
M  V30 822 C 81.7804 1.02308 1.24056 0
M  V30 823 O 82.9704 1.28385 1.17741 0
M  V30 824 C 80.1024 2.58708 2.21998 0
M  V30 825 H 81.2954 2.96479 0.451665 0
M  V30 826 H 78.8484 1.55038 0.198248 0
M  V30 827 H 79.5834 1.75989 2.72394 0
M  V30 828 H 79.3684 3.37675 1.99295 0
M  V30 829 H 80.8584 2.99747 2.9076 0
M  V30 830 N 81.2955 -0.223234 1.56011 0
M  V30 831 C 82.2585 -1.26014 1.9145 0
M  V30 832 C 83.2585 -1.3989 0.792937 0
M  V30 833 O 84.4485 -1.38184 1.0607 0
M  V30 834 C 81.5805 -2.63422 2.16383 0
M  V30 835 H 82.7735 -0.95796 2.84189 0
M  V30 836 H 80.3265 -0.463576 1.49267 0
M  V30 837 H 81.0615 -2.98741 1.2619 0
M  V30 838 H 80.8465 -2.54728 2.98088 0
M  V30 839 H 82.3365 -3.38249 2.44903 0
M  V30 840 N 82.7736 -1.49793 -0.48987 0
M  V30 841 C 84.1896 -1.36803 -0.822022 0
M  V30 842 C 84.3896 -0.409652 -1.97292 0
M  V30 843 O 83.4456 0.154614 -2.52026 0
M  V30 844 C 84.7586 -2.77768 -1.15175 0
M  V30 845 C 86.3066 -2.86549 -1.25931 0
M  V30 846 C 86.7816 -4.28306 -1.62228 0
M  V30 847 N 88.2726 -4.31169 -1.69256 0
M  V30 848 C 89.0076 -5.37832 -1.98807 0
M  V30 849 N 88.5036 -6.54726 -2.26507 0
M  V30 850 N 90.2966 -5.25258 -2.00152 0
M  V30 851 H 82.4476 -2.10691 0.268881 0
M  V30 852 H 84.7106 -0.946241 0.057728 0
M  V30 853 H 84.4166 -3.49648 -0.379335 0
M  V30 854 H 84.2906 -3.13836 -2.09253 0
M  V30 855 H 86.6776 -2.14899 -2.02243 0
M  V30 856 H 86.7586 -2.54049 -0.298776 0
M  V30 857 H 86.4026 -5.00486 -0.864622 0
M  V30 858 H 86.3326 -4.58279 -2.594 0
M  V30 859 H 88.8236 -3.4687 -1.49965 0
M  V30 860 H 89.1366 -7.31833 -2.48276 0
M  V30 861 H 87.4816 -6.57933 -2.23939 0
M  V30 862 H 90.6726 -4.32938 -1.77996 0
M  V30 863 H 90.8456 -6.08476 -2.22848 0
M  V30 864 N 84.2517 0.741722 -1.39055 0
M  V30 865 C 85.4797 1.53098 -1.39171 0
M  V30 866 C 85.8947 1.88794 0.0155099 0
M  V30 867 O 85.2517 1.53626 0.985159 0
M  V30 868 C 85.3027 2.82274 -2.2584 0
M  V30 869 O 85.0237 2.48097 -3.61081 0
M  V30 870 C 86.5247 3.76343 -2.34266 0
M  V30 871 H 83.7447 0.473335 -0.4756 0
M  V30 872 H 86.2887 0.917045 -1.82785 0
M  V30 873 H 84.4437 3.40015 -1.85656 0
M  V30 874 H 84.8577 3.31029 -4.06842 0
M  V30 875 H 86.3317 4.63898 -2.9917 0
M  V30 876 H 86.8087 4.17619 -1.35982 0
M  V30 877 H 87.4147 3.24523 -2.74891 0
M  V30 878 N 85.7298 1.2412 0.971189 0
M  V30 879 C 86.6598 1.05508 2.08304 0
M  V30 880 C 87.6408 -0.0308864 1.70072 0
M  V30 881 O 88.8258 0.135521 1.93727 0
M  V30 882 C 85.9558 0.655365 3.4106 0
M  V30 883 C 84.9098 1.68971 3.93234 0
M  V30 884 C 84.2358 1.14516 5.22293 0
M  V30 885 C 85.5358 3.08487 4.21465 0
M  V30 886 H 87.2298 1.98507 2.24132 0
M  V30 887 H 84.7758 0.955821 1.07704 0
M  V30 888 H 86.7288 0.51217 4.18276 0
M  V30 889 H 85.4528 -0.31032 3.25122 0
M  V30 890 H 84.1118 1.82106 3.18171 0
M  V30 891 H 83.7598 0.170189 5.02712 0
M  V30 892 H 83.4598 1.83635 5.58168 0
M  V30 893 H 84.9838 1.01401 6.02121 0
M  V30 894 H 86.3978 2.98601 4.89398 0
M  V30 895 H 84.7948 3.74926 4.68562 0
M  V30 896 H 85.8648 3.56787 3.28376 0
M  V30 897 N 87.2079 -1.17134 1.05439 0
M  V30 898 C 88.1379 -2.2342 0.678649 0
M  V30 899 C 89.1189 -1.66971 -0.32476 0
M  V30 900 O 90.3039 -1.93149 -0.201802 0
M  V30 901 C 87.4339 -3.47256 0.0552099 0
M  V30 902 C 86.3879 -4.16543 0.98365 0
M  V30 903 C 85.7139 -5.34231 0.223961 0
M  V30 904 C 87.0139 -4.68495 2.3089 0
M  V30 905 H 88.7079 -2.55105 1.56722 0
M  V30 906 H 86.2539 -1.2262 0.754998 0
M  V30 907 H 88.2069 -4.20828 -0.21946 0
M  V30 908 H 86.9309 -3.14846 -0.868319 0
M  V30 909 H 85.5899 -3.44887 1.24293 0
M  V30 910 H 85.2379 -4.98071 -0.702412 0
M  V30 911 H 84.9379 -5.81527 0.842627 0
M  V30 912 H 86.4619 -6.10585 -0.0433671 0
M  V30 913 H 87.8759 -5.33691 2.09396 0
M  V30 914 H 86.2729 -5.26379 2.88176 0
M  V30 915 H 87.3429 -3.85169 2.94572 0
M  V30 916 N 88.686 -0.835752 -1.33615 0
M  V30 917 C 89.932 -0.439817 -1.98588 0
M  V30 918 C 90.287 0.989274 -1.65019 0
M  V30 919 O 89.58 1.68168 -0.918159 0
M  V30 920 C 89.774 -0.593925 -3.52431 0
M  V30 921 C 89.603 -2.03644 -4.00948 0
M  V30 922 C 88.373 -2.67103 -4.28934 0
M  V30 923 C 90.571 -3.00479 -4.17393 0
M  V30 924 N 88.553 -4.02462 -4.6357 0
M  V30 925 C 89.924 -4.20777 -4.55353 0
M  V30 926 C 91.979 -2.96926 -3.99674 0
M  V30 927 C 90.682 -5.37994 -4.77447 0
M  V30 928 C 92.708 -4.1337 -4.22941 0
M  V30 929 C 92.07 -5.32422 -4.61201 0
M  V30 930 H 88.169 -0.209303 -0.75347 0
M  V30 931 H 90.753 -1.08316 -1.61789 0
M  V30 932 H 88.924 0.019599 -3.88395 0
M  V30 933 H 90.656 -0.169738 -4.04344 0
M  V30 934 H 87.411 -2.18259 -4.20309 0
M  V30 935 H 87.835 -4.72232 -4.85104 0
M  V30 936 H 92.477 -2.06015 -3.69212 0
M  V30 937 H 90.195 -6.29451 -5.06771 0
M  V30 938 H 93.781 -4.12034 -4.10754 0
M  V30 939 H 92.661 -6.21027 -4.78848 0
M  V30 940 N 90.1641 1.46063 -0.591896 0
M  V30 941 C 91.3921 2.06717 -0.0868936 0
M  V30 942 C 91.8071 1.43916 1.22203 0
M  V30 943 O 91.1641 0.547698 1.74088 0
M  V30 944 C 91.2151 3.6142 0.0758725 0
M  V30 945 O 90.9361 4.21874 -1.18126 0
M  V30 946 C 92.4371 4.39025 0.61416 0
M  V30 947 H 89.6571 0.668162 -0.0616518 0
M  V30 948 H 92.2011 1.8755 -0.815175 0
M  V30 949 H 90.3561 3.79983 0.754413 0
M  V30 950 H 90.7701 5.14861 -1.00092 0
M  V30 951 H 92.2441 5.4783 0.677193 0
M  V30 952 H 92.7211 4.07708 1.63312 0
M  V30 953 H 93.3271 4.2529 -0.0298142 0
M  V30 954 N 91.6422 0.330177 1.54103 0
M  V30 955 C 92.5522 -0.541534 2.28264 0
M  V30 956 C 93.5682 -1.12351 1.32866 0
M  V30 957 O 94.7442 -1.14206 1.65888 0
M  V30 958 C 91.8092 -1.68322 3.03098 0
M  V30 959 C 90.8702 -1.13238 4.14096 0
M  V30 960 C 90.1032 -2.21966 4.85352 0
M  V30 961 O 90.3262 -3.42437 4.56172 0
M  V30 962 O 89.2602 -1.87013 5.7211 0
M  V30 963 H 93.0862 0.060938 3.03639 0
M  V30 964 H 90.6712 0.09565 1.49093 0
M  V30 965 H 92.5532 -2.34777 3.49939 0
M  V30 966 H 91.2282 -2.27176 2.30593 0
M  V30 967 H 90.1352 -0.432736 3.71589 0
M  V30 968 H 91.4682 -0.588898 4.88664 0
M  V30 969 N 93.1203 -1.57491 0.0584922 0
M  V30 970 C 94.0503 -2.14988 -0.911178 0
M  V30 971 C 95.0313 -1.07343 -1.31952 0
M  V30 972 O 96.2163 -1.35318 -1.39294 0
M  V30 973 C 93.3463 -2.70078 -2.18347 0
M  V30 974 C 92.3003 -3.82771 -1.91495 0
M  V30 975 C 91.6263 -4.24408 -3.25241 0
M  V30 976 C 92.9263 -5.07592 -1.23075 0
M  V30 977 H 94.6203 -2.96263 -0.432246 0
M  V30 978 H 92.1663 -1.42512 -0.206469 0
M  V30 979 H 94.1193 -3.08943 -2.86587 0
M  V30 980 H 92.8433 -1.86005 -2.68458 0
M  V30 981 H 91.5023 -3.44389 -1.25664 0
M  V30 982 H 91.1503 -3.37275 -3.73168 0
M  V30 983 H 90.8503 -5.00366 -3.08071 0
M  V30 984 H 92.3743 -4.65879 -3.94701 0
M  V30 985 H 93.7883 -5.43857 -1.81362 0
M  V30 986 H 92.1853 -5.88741 -1.16207 0
M  V30 987 H 93.2553 -4.84454 -0.207847 0
M  V30 988 N 94.5984 0.214957 -1.56127 0
M  V30 989 C 95.8454 0.938372 -1.79446 0
M  V30 990 C 96.1734 1.8407 -0.628378 0
M  V30 991 O 95.4284 1.91837 0.386925 0
M  V30 992 C 95.7274 1.80314 -3.0858 0
M  V30 993 C 95.3934 1.05349 -4.3842 0
M  V30 994 C 94.0554 0.846435 -4.73697 0
M  V30 995 C 96.4074 0.524588 -5.18553 0
M  V30 996 C 93.7354 0.098683 -5.86617 0
M  V30 997 C 96.0874 -0.209853 -6.32252 0
M  V30 998 C 94.7514 -0.428102 -6.66126 0
M  V30 999 H 94.0214 0.343375 -0.656639 0
M  V30 1000 H 96.6684 0.206077 -1.90388 0
M  V30 1001 H 94.9734 2.6035 -2.92789 0
M  V30 1002 H 96.6704 2.36513 -3.23825 0
M  V30 1003 H 93.2604 1.22486 -4.10725 0
M  V30 1004 H 97.4444 0.672008 -4.91729 0
M  V30 1005 H 92.7004 -0.0805753 -6.11347 0
M  V30 1006 H 96.8744 -0.627157 -6.9357 0
M  V30 1007 H 94.5014 -1.00944 -7.53468 0
M  V30 1008 N 96.0765 1.50051 0.48192 0
M  V30 1009 C 97.4925 1.37237 0.814756 0
M  V30 1010 C 97.6925 0.420109 1.97072 0
M  V30 1011 O 96.7485 -0.141246 2.52105 0
M  V30 1012 C 98.0615 2.78375 1.13701 0
M  V30 1013 C 99.6095 2.87213 1.2441 0
M  V30 1014 C 100.084 4.29161 1.59954 0
M  V30 1015 N 101.575 4.32061 1.66967 0
M  V30 1016 C 102.31 5.38879 1.95952 0
M  V30 1017 N 101.806 6.55918 2.23031 0
M  V30 1018 N 103.599 5.26312 1.97363 0
M  V30 1019 H 95.7505 2.10546 -0.28005 0
M  V30 1020 H 98.0135 0.945921 -0.0627454 0
M  V30 1021 H 97.7195 3.49845 0.360787 0
M  V30 1022 H 97.5935 3.14941 2.07586 0
M  V30 1023 H 99.9805 2.15969 2.01101 0
M  V30 1024 H 100.061 2.54204 0.285299 0
M  V30 1025 H 99.7055 5.00938 0.838067 0
M  V30 1026 H 99.6355 4.59648 2.56966 0
M  V30 1027 H 102.126 3.47661 1.48123 0
M  V30 1028 H 102.439 7.33139 2.44391 0
M  V30 1029 H 100.784 6.59112 2.20447 0
M  V30 1030 H 103.975 4.33876 1.75697 0
M  V30 1031 H 104.148 6.09649 2.19618 0
M  V30 1032 N 97.5546 -0.734337 1.39446 0
M  V30 1033 C 98.8026 -1.49096 1.36436 0
M  V30 1034 C 99.1236 -1.94961 -0.0388255 0
M  V30 1035 O 98.3936 -1.69033 -0.990191 0
M  V30 1036 H 96.9736 -0.5531 0.502085 0
M  V30 1037 H 99.6356 -0.871725 1.74319 0
M  V30 1038 H 98.7316 -2.37276 2.02747 0
M  V30 1039 N 99.0327 -1.24633 -0.964593 0
M  V30 1040 C 99.9627 -1.06611 -2.07741 0
M  V30 1041 C 100.944 0.0218666 -1.70086 0
M  V30 1042 O 102.129 -0.145793 -1.93652 0
M  V30 1043 C 99.2587 -0.673444 -3.40708 0
M  V30 1044 C 98.2127 -1.71054 -3.92332 0
M  V30 1045 C 97.5387 -1.17285 -5.21678 0
M  V30 1046 C 98.8387 -3.10718 -4.19824 0
M  V30 1047 H 100.533 -1.99693 -2.23076 0
M  V30 1048 H 98.0787 -0.96152 -1.07195 0
M  V30 1049 H 100.032 -0.534345 -4.17998 0
M  V30 1050 H 98.7557 0.293073 -3.25282 0
M  V30 1051 H 97.4147 -1.83791 -3.17201 0
M  V30 1052 H 97.0627 -0.196847 -5.02615 0
M  V30 1053 H 96.7627 -1.86592 -5.57187 0
M  V30 1054 H 98.2867 -1.04593 -6.01575 0
M  V30 1055 H 99.7007 -3.01192 -4.87808 0
M  V30 1056 H 98.0977 -3.77406 -4.66567 0
M  V30 1057 H 99.1677 -3.58524 -3.26479 0
M  V30 1058 N 100.511 1.16574 -1.06058 0
M  V30 1059 C 101.759 1.86677 -0.77434 0
M  V30 1060 C 102.08 1.81959 0.701147 0
M  V30 1061 O 101.35 1.2515 1.50713 0
M  V30 1062 H 99.9298 0.691134 -0.283449 0
M  V30 1063 H 102.592 1.41378 -1.34158 0
M  V30 1064 H 101.688 2.92181 -1.09711 0
M  V30 1065 N 101.989 0.842826 1.3317 0
M  V30 1066 C 102.922 0.223862 2.27099 0
M  V30 1067 C 103.9 -0.631311 1.49844 0
M  V30 1068 O 105.084 -0.590708 1.79005 0
M  V30 1069 C 102.211 -0.685313 3.31694 0
M  V30 1070 C 101.257 0.094919 4.26394 0
M  V30 1071 S 102.09 1.45546 5.15341 0
M  V30 1072 C 103.246 0.551685 6.23464 0
M  V30 1073 H 103.479 1.02015 2.79249 0
M  V30 1074 H 101.012 0.639797 1.4052 0
M  V30 1075 H 102.97 -1.20426 3.92438 0
M  V30 1076 H 101.631 -1.4553 2.78352 0
M  V30 1077 H 100.824 -0.597059 5.00451 0
M  V30 1078 H 100.426 0.545054 3.70007 0
M  V30 1079 H 102.718 -0.248877 6.77043 0
M  V30 1080 H 103.661 1.26253 6.96754 0
M  V30 1081 H 104.069 0.131275 5.64347 0
M  V30 1082 N 103.467 -1.45747 0.599634 0
M  V30 1083 C 104.695 -2.06668 0.0978551 0
M  V30 1084 C 105.11 -1.44562 -1.21439 0
M  V30 1085 O 104.467 -0.556923 -1.73795 0
M  V30 1086 C 104.518 -3.61456 -0.0567044 0
M  V30 1087 O 104.239 -4.21242 1.20361 0
M  V30 1088 C 105.74 -4.39345 -0.590869 0
M  V30 1089 H 102.96 -0.667825 0.0651943 0
M  V30 1090 H 105.504 -1.87115 0.82511 0
M  V30 1091 H 103.659 -3.80378 -0.734251 0
M  V30 1092 H 104.073 -5.14323 1.02821 0
M  V30 1093 H 105.547 -5.48182 -0.648131 0
M  V30 1094 H 106.024 -4.08568 -1.61147 0
M  V30 1095 H 106.63 -4.25268 0.0523679 0
M  V30 1096 N 104.945 -0.338344 -1.53925 0
M  V30 1097 C 105.875 0.51328 -2.27789 0
M  V30 1098 C 106.856 1.107 -1.29149 0
M  V30 1099 O 108.041 1.12937 -1.57984 0
M  V30 1100 C 105.171 1.66697 -3.04679 0
M  V30 1101 C 104.125 1.20183 -4.1078 0
M  V30 1102 C 103.451 2.44363 -4.75595 0
M  V30 1103 C 104.751 0.30605 -5.21403 0
M  V30 1104 H 106.445 -0.102883 -2.99223 0
M  V30 1105 H 103.991 -0.0509219 -1.4391 0
M  V30 1106 H 105.944 2.26915 -3.55088 0
M  V30 1107 H 104.668 2.30995 -2.30887 0
M  V30 1108 H 103.327 0.622499 -3.61276 0
M  V30 1109 H 102.975 3.07057 -3.98403 0
M  V30 1110 H 102.675 2.13925 -5.47275 0
M  V30 1111 H 104.199 3.05317 -5.28786 0
M  V30 1112 H 105.613 0.814929 -5.67478 0
M  V30 1113 H 104.01 0.0937929 -6.00027 0
M  V30 1114 H 105.08 -0.65921 -4.80398 0
M  V30 1115 N 106.423 1.57458 -0.0668435 0
M  V30 1116 C 107.648 1.9804 0.616027 0
M  V30 1117 C 108.073 0.944771 1.62652 0
M  V30 1118 O 107.431 -0.0902094 1.81075 0
M  V30 1119 C 107.479 3.37665 1.26549 0
M  V30 1120 O 106.583 3.36701 2.38131 0
M  V30 1121 H 105.924 0.644719 0.158849 0
M  V30 1122 H 108.454 2.04121 -0.139891 0
M  V30 1123 H 108.464 3.7474 1.6135 0
M  V30 1124 H 107.139 4.12573 0.525016 0
M  V30 1125 H 105.716 3.1139 2.0516 0
M  V30 1126 N 107.901 -0.206675 1.56239 0
M  V30 1127 C 109.131 -0.943975 1.83773 0
M  V30 1128 C 109.539 -1.77841 0.645703 0
M  V30 1129 O 108.882 -1.79403 -0.395008 0
M  V30 1130 C 108.944 -1.899 3.05251 0
M  V30 1131 C 108.608 -1.24764 4.39639 0
M  V30 1132 C 109.605 -0.630216 5.16066 0
M  V30 1133 C 107.29 -1.25496 4.8637 0
M  V30 1134 C 109.284 -0.0287946 6.37393 0
M  V30 1135 C 106.971 -0.649698 6.07637 0
M  V30 1136 C 107.969 -0.0376845 6.8299 0
M  V30 1137 O 107.657 0.55812 8.0196 0
M  V30 1138 H 107.389 -0.281508 0.614597 0
M  V30 1139 H 109.943 -0.222458 2.04192 0
M  V30 1140 H 108.173 -2.6599 2.80689 0
M  V30 1141 H 109.862 -2.5031 3.1953 0
M  V30 1142 H 110.628 -0.616785 4.81062 0
M  V30 1143 H 106.507 -1.72072 4.27683 0
M  V30 1144 H 110.051 0.449518 6.9615 0
M  V30 1145 H 105.948 -0.660592 6.42111 0
M  V30 1146 H 106.716 0.453891 8.17241 0
M  V30 1147 N 109.379 -1.50304 -0.473955 0
M  V30 1148 C 110.309 -1.71886 -1.58042 0
M  V30 1149 C 111.29 -0.567799 -1.60344 0
M  V30 1150 O 112.475 -0.806623 -1.76656 0
M  V30 1151 C 109.605 -1.81036 -2.96384 0
M  V30 1152 C 108.559 -2.962 -3.08949 0
M  V30 1153 C 107.885 -2.9049 -4.48909 0
M  V30 1154 C 109.185 -4.36752 -2.86434 0
M  V30 1155 H 110.879 -2.64527 -1.40234 0
M  V30 1156 H 108.425 -1.27295 -0.673201 0
M  V30 1157 H 110.378 -1.94719 -3.73714 0
M  V30 1158 H 109.102 -0.850147 -3.15341 0
M  V30 1159 H 107.761 -2.82164 -2.3405 0
M  V30 1160 H 107.409 -1.92321 -4.64781 0
M  V30 1161 H 107.109 -3.67802 -4.58253 0
M  V30 1162 H 108.633 -3.06218 -5.28264 0
M  V30 1163 H 110.047 -4.5133 -3.53517 0
M  V30 1164 H 108.444 -5.15493 -3.07225 0
M  V30 1165 H 109.514 -4.49321 -1.82316 0
M  V30 1166 N 110.857 0.726932 -1.39834 0
M  V30 1167 C 112.104 1.48664 -1.37496 0
M  V30 1168 C 112.432 1.94482 0.0264678 0
M  V30 1169 O 111.687 1.67692 1.00886 0
M  V30 1170 C 111.986 2.73495 -2.30077 0
M  V30 1171 C 111.652 2.46502 -3.77555 0
M  V30 1172 C 110.314 2.3885 -4.17737 0
M  V30 1173 C 112.666 2.23604 -4.70798 0
M  V30 1174 C 109.994 2.06352 -5.49214 0
M  V30 1175 C 112.346 1.92622 -6.02561 0
M  V30 1176 C 111.01 1.83444 -6.41798 0
M  V30 1177 H 110.28 0.544001 -0.503135 0
M  V30 1178 H 112.927 0.833657 -1.72402 0
M  V30 1179 H 111.232 3.43575 -1.88317 0
M  V30 1180 H 112.929 3.31549 -2.25558 0
M  V30 1181 H 109.519 2.5334 -3.45712 0
M  V30 1182 H 113.703 2.28479 -4.40581 0
M  V30 1183 H 108.959 1.97776 -5.78528 0
M  V30 1184 H 113.133 1.73914 -6.74334 0
M  V30 1185 H 110.76 1.58029 -7.43593 0
M  V30 1186 N 112.336 1.25143 0.95797 0
M  V30 1187 C 113.752 1.01892 1.22842 0
M  V30 1188 C 113.952 -0.266311 1.99732 0
M  V30 1189 O 113.008 -0.979913 2.3271 0
M  V30 1190 C 114.321 2.24004 2.00606 0
M  V30 1191 C 115.869 2.28731 2.13662 0
M  V30 1192 C 116.344 3.5049 2.94823 0
M  V30 1193 N 117.835 3.50866 3.02403 0
M  V30 1194 C 118.57 4.4174 3.65586 0
M  V30 1195 N 118.066 5.42882 4.30408 0
M  V30 1196 N 119.859 4.29429 3.62694 0
M  V30 1197 H 112.01 2.07718 0.443493 0
M  V30 1198 H 114.273 0.912031 0.258657 0
M  V30 1199 H 113.979 3.17395 1.51503 0
M  V30 1200 H 113.853 2.26907 3.01319 0
M  V30 1201 H 116.24 1.35865 2.61963 0
M  V30 1202 H 116.321 2.29848 1.12265 0
M  V30 1203 H 115.965 4.43676 2.47213 0
M  V30 1204 H 115.895 3.46617 3.96439 0
M  V30 1205 H 118.386 2.777 2.56302 0
M  V30 1206 H 118.699 6.0844 4.76467 0
M  V30 1207 H 117.044 5.46758 4.29047 0
M  V30 1208 H 120.235 3.49643 3.11236 0
M  V30 1209 H 120.408 5.00448 4.1165 0
M  V30 1210 N 113.814 -1.1601 1.06675 0
M  V30 1211 C 114.724 -2.24156 0.692179 0
M  V30 1212 C 115.74 -1.71507 -0.293513 0
M  V30 1213 O 116.916 -2.009 -0.141861 0
M  V30 1214 C 113.981 -3.46587 0.0884131 0
M  V30 1215 C 113.042 -4.14257 1.12646 0
M  V30 1216 C 112.275 -5.30844 0.551416 0
M  V30 1217 O 112.498 -5.66858 -0.634656 0
M  V30 1218 O 111.432 -5.87848 1.29298 0
M  V30 1219 H 115.258 -2.58513 1.59388 0
M  V30 1220 H 112.843 -1.23599 0.83926 0
M  V30 1221 H 114.725 -4.20679 -0.246361 0
M  V30 1222 H 113.4 -3.13994 -0.786712 0
M  V30 1223 H 112.307 -3.42118 1.51348 0
M  V30 1224 H 113.64 -4.50914 1.97325 0
M  V30 1225 N 115.292 -0.849877 -1.32721 0
M  V30 1226 C 116.703 -0.506188 -1.79707 0
M  V30 1227 C 117.054 0.975627 -1.70223 0
M  V30 1228 O 116.179 1.76078 -1.25799 0
M  V30 1229 C 116.774 -0.912044 -3.26293 0
M  V30 1230 C 115.333 -0.620326 -3.71253 0
M  V30 1231 C 114.48 -1.11439 -2.53922 0
M  V30 1232 H 117.431 -1.03754 -1.20087 0
M  V30 1233 H 117.452 -0.226493 -3.79825 0
M  V30 1234 H 116.964 -1.99057 -3.33164 0
M  V30 1235 H 115.065 0.447674 -3.69901 0
M  V30 1236 H 115.178 -1.18327 -4.64258 0
M  V30 1237 H 113.542 -0.534834 -2.49021 0
M  V30 1238 H 114.325 -2.19992 -2.6355 0
M  V30 1239 N 116.77 1.45427 -0.607355 0
M  V30 1240 C 117.733 2.28974 0.101693 0
M  V30 1241 C 118.733 1.39754 0.795329 0
M  V30 1242 O 119.923 1.61878 0.643527 0
M  V30 1243 C 117.055 3.20768 1.15414 0
M  V30 1244 H 118.248 2.93147 -0.632844 0
M  V30 1245 H 115.801 1.51945 -0.366391 0
M  V30 1246 H 116.536 2.61395 1.91945 0
M  V30 1247 H 116.321 3.86489 0.66098 0
M  V30 1248 H 117.811 3.83589 1.65073 0
M  V30 1249 N 118.248 0.346503 1.53744 0
M  V30 1250 C 119.476 -0.25041 2.05379 0
M  V30 1251 C 119.891 -1.43979 1.22129 0
M  V30 1252 O 119.248 -1.80677 0.257321 0
M  V30 1253 C 119.299 -0.662575 3.55376 0
M  V30 1254 O 119.02 0.479515 4.35468 0
M  V30 1255 C 120.521 -1.31989 4.23195 0
M  V30 1256 H 117.741 -0.0478198 0.669294 0
M  V30 1257 H 120.285 0.499346 1.9831 0
M  V30 1258 H 118.44 -1.36227 3.62658 0
M  V30 1259 H 118.854 0.15037 5.24284 0
M  V30 1260 H 120.328 -1.55902 5.29527 0
M  V30 1261 H 120.805 -2.27436 3.75725 0
M  V30 1262 H 121.411 -0.662154 4.20114 0
M  V30 1263 N 119.726 -1.57421 0.075193 0
M  V30 1264 C 120.975 -1.92794 -0.592731 0
M  V30 1265 C 121.288 -0.957478 -1.70563 0
M  V30 1266 O 122.494 -1.20417 -2.43335 0
M  V30 1267 C 120.95 -3.42495 -1.10569 0
M  V30 1268 C 120.558 -4.47994 -0.0236121 0
M  V30 1269 C 122.302 -3.86864 -1.74748 0
M  V30 1270 C 120.209 -5.88829 -0.550803 0
M  V30 1271 H 119.139 -0.719591 -0.225177 0
M  V30 1272 H 121.79 -1.82902 0.147978 0
M  V30 1273 H 120.172 -3.47471 -1.89947 0
M  V30 1274 H 121.346 -4.54637 0.751099 0
M  V30 1275 H 119.661 -4.13113 0.522159 0
M  V30 1276 H 122.258 -4.8947 -2.15229 0
M  V30 1277 H 122.601 -3.24417 -2.60882 0
M  V30 1278 H 123.134 -3.84504 -1.01986 0
M  V30 1279 H 119.873 -6.54929 0.273457 0
M  V30 1280 H 119.393 -5.85698 -1.29296 0
M  V30 1281 H 121.072 -6.38811 -1.02613 0
M  V30 1282 N 121.204 0.198386 -1.56346 0
M  V30 1283 C 122.152 1.26538 -1.95169 0
M  V30 1284 C 123.146 1.47295 -0.836685 0
M  V30 1285 O 124.352 1.48195 -1.02167 0
M  V30 1286 H 120.727 0.424744 -0.620561 0
M  V30 1287 H 122.698 0.910904 -2.84157 0
M  V30 1288 C 121.447 2.6035 -2.30463 0
M  V30 1289 H 120.77 2.45192 -3.15786 0
M  V30 1290 H 122.21 3.33762 -2.61494 0
M  V30 1291 C 120.669 3.17096 -1.13806 0
M  V30 1292 O 121.199 3.99588 -0.41135 0
M  V30 1293 N 119.405 2.75795 -0.915736 0
M  V30 1294 H 118.952 2.08816 -1.50843 0
M  V30 1295 H 118.91 3.14101 -0.136979 0
M  V30 1296 N 122.682 1.50554 0.465978 0
M  V30 1297 C 123.912 1.65323 1.23903 0
M  V30 1298 C 124.32 0.338051 1.86155 0
M  V30 1299 O 123.663 -0.690518 1.70228 0
M  V30 1300 C 123.725 2.69048 2.3844 0
M  V30 1301 C 123.389 4.12462 1.96784 0
M  V30 1302 C 124.386 4.98168 1.48745 0
M  V30 1303 C 122.071 4.58407 2.05349 0
M  V30 1304 C 124.065 6.27868 1.0982 0
M  V30 1305 C 121.752 5.88112 1.66035 0
M  V30 1306 C 122.75 6.72668 1.18349 0
M  V30 1307 O 122.438 7.99951 0.795825 0
M  V30 1308 H 122.17 0.558629 0.38067 0
M  V30 1309 H 124.724 1.97561 0.562022 0
M  V30 1310 H 122.954 2.32062 3.09328 0
M  V30 1311 H 124.643 2.72985 3.0039 0
M  V30 1312 H 125.409 4.63885 1.41546 0
M  V30 1313 H 121.288 3.92735 2.41414 0
M  V30 1314 H 124.832 6.93819 0.725293 0
M  V30 1315 H 120.729 6.21914 1.72895 0
M  V30 1316 H 121.497 8.13265 0.924222 0
M  V30 1317 N 124.16 -0.719506 1.40217 0
M  V30 1318 C 125.571 -1.29848 1.34151 0
M  V30 1319 C 125.922 -1.96196 0.0131349 0
M  V30 1320 O 125.047 -1.973 -0.88892 0
M  V30 1321 C 125.642 -2.36118 2.42968 0
M  V30 1322 C 124.201 -2.8965 2.40374 0
M  V30 1323 C 123.348 -1.63393 2.24049 0
M  V30 1324 H 126.299 -0.51591 1.5008 0
M  V30 1325 H 126.32 -3.16871 2.10649 0
M  V30 1326 H 125.832 -1.878 3.39636 0
M  V30 1327 H 123.933 -3.42208 1.47392 0
M  V30 1328 H 124.046 -3.4171 3.35814 0
M  V30 1329 H 122.41 -1.88312 1.71495 0
M  V30 1330 H 123.193 -1.17104 3.2271 0
M  V30 1331 N 125.638 -1.25649 -0.95132 0
M  V30 1332 C 126.885 -1.10594 -1.69633 0
M  V30 1333 C 127.213 0.352515 -1.91279 0
M  V30 1334 O 126.468 1.27601 -1.4838 0
M  V30 1335 C 126.767 -1.80909 -3.08231 0
M  V30 1336 C 126.433 -3.30825 -3.06375 0
M  V30 1337 C 125.095 -3.71722 -3.05576 0
M  V30 1338 C 127.447 -4.26589 -2.99452 0
M  V30 1339 C 124.775 -5.06788 -2.95606 0
M  V30 1340 C 127.127 -5.61683 -2.91024 0
M  V30 1341 C 125.791 -6.01904 -2.88562 0
M  V30 1342 H 125.061 -0.404691 -0.620731 0
M  V30 1343 H 127.708 -1.55964 -1.11119 0
M  V30 1344 H 126.013 -1.27979 -3.70309 0
M  V30 1345 H 127.71 -1.6671 -3.64704 0
M  V30 1346 H 124.3 -2.98287 -3.07771 0
M  V30 1347 H 128.484 -3.95982 -2.99185 0
M  V30 1348 H 123.74 -5.37126 -2.92071 0
M  V30 1349 H 127.914 -6.35578 -2.84629 0
M  V30 1350 H 125.541 -7.06521 -2.80593 0
M  V30 1351 N 127.117 1.15442 -1.07289 0
M  V30 1352 C 128.027 2.23786 -0.704057 0
M  V30 1353 C 129.043 1.7166 0.284413 0
M  V30 1354 O 130.219 2.00972 0.131205 0
M  V30 1355 C 127.284 3.46535 -0.106792 0
M  V30 1356 C 126.345 4.13654 -1.14842 0
M  V30 1357 C 125.578 5.30544 -0.57956 0
M  V30 1358 O 125.801 5.67187 0.604585 0
M  V30 1359 O 124.735 5.87154 -1.32414 0
M  V30 1360 H 128.561 2.57664 -1.60757 0
M  V30 1361 H 126.146 1.23152 -0.845803 0
M  V30 1362 H 128.028 4.20804 0.224048 0
M  V30 1363 H 126.703 3.14407 0.770049 0
M  V30 1364 H 125.61 3.4131 -1.5316 0
M  V30 1365 H 126.943 4.49861 -1.99714 0
M  V30 1366 N 128.595 0.856903 1.32268 0
M  V30 1367 C 129.542 0.301172 2.28827 0
M  V30 1368 C 130.512 -0.593104 1.5515 0
M  V30 1369 O 131.697 -0.527537 1.83362 0
M  V30 1370 C 128.837 -0.502523 3.41422 0
M  V30 1371 C 127.95 0.417797 4.29975 0
M  V30 1372 C 127.085 -0.398749 5.29701 0
M  V30 1373 C 126.124 0.518827 6.09897 0
M  V30 1374 N 125.261 -0.260674 7.01616 0
M  V30 1375 H 130.101 1.12983 2.75751 0
M  V30 1376 H 127.638 0.568582 1.35667 0
M  V30 1377 H 129.596 -0.984141 4.05426 0
M  V30 1378 H 128.226 -1.29599 2.95642 0
M  V30 1379 H 127.278 1.01781 3.66531 0
M  V30 1380 H 128.59 1.12191 4.86019 0
M  V30 1381 H 127.744 -0.943435 5.9932 0
M  V30 1382 H 126.483 -1.13622 4.7428 0
M  V30 1383 H 125.488 1.07538 5.39181 0
M  V30 1384 H 126.713 1.25495 6.67404 0
M  V30 1385 H 124.659 -0.981198 6.4862 0
M  V30 1386 H 124.576 0.384364 7.55022 0
M  V30 1387 H 125.844 -0.787014 7.75517 0
M  V30 1388 N 130.073 -1.45103 0.615059 0
M  V30 1389 C 131.321 -2.01784 0.112955 0
M  V30 1390 C 131.642 -1.48504 -1.26378 0
M  V30 1391 O 130.912 -0.682245 -1.83636 0
M  V30 1392 H 129.492 -0.745993 0.0387668 0
M  V30 1393 H 132.154 -1.77808 0.798141 0
M  V30 1394 H 131.25 -3.12025 0.0684069 0
M  V30 1395 N 131.551 -0.354651 -1.53558 0
M  V30 1396 C 132.962 0.126902 -1.86268 0
M  V30 1397 C 133.313 1.49075 -1.27558 0
M  V30 1398 O 132.438 2.08105 -0.5934 0
M  V30 1399 C 133.033 0.237046 -3.3797 0
M  V30 1400 C 131.592 0.662842 -3.70518 0
M  V30 1401 C 130.739 -0.196652 -2.76602 0
M  V30 1402 H 133.69 -0.573849 -1.47962 0
M  V30 1403 H 133.711 1.06259 -3.65362 0
M  V30 1404 H 133.223 -0.755725 -3.80671 0
M  V30 1405 H 131.324 1.66424 -3.33367 0
M  V30 1406 H 131.437 0.445034 -4.77029 0
M  V30 1407 H 129.801 0.332763 -2.52517 0
M  V30 1408 H 130.584 -1.18676 -3.22135 0
M  V30 1409 N 133.029 1.57378 -0.0835403 0
M  V30 1410 C 133.959 2.1641 0.87686 0
M  V30 1411 C 134.94 1.09429 1.30228 0
M  V30 1412 O 136.125 1.37516 1.37124 0
M  V30 1413 C 133.255 2.73517 2.14022 0
M  V30 1414 C 132.209 3.85769 1.85381 0
M  V30 1415 C 131.535 4.29529 3.18448 0
M  V30 1416 C 132.835 5.09486 1.14984 0
M  V30 1417 H 134.529 2.96914 0.385059 0
M  V30 1418 H 132.075 1.42823 0.18377 0
M  V30 1419 H 134.028 3.13463 2.81636 0
M  V30 1420 H 132.752 1.90252 2.65465 0
M  V30 1421 H 131.411 3.46345 1.20169 0
M  V30 1422 H 131.059 3.43169 3.67755 0
M  V30 1423 H 130.759 5.05204 3.00071 0
M  V30 1424 H 132.283 4.72099 3.8724 0
M  V30 1425 H 133.697 5.46674 1.72687 0
M  V30 1426 H 132.094 5.90515 1.06826 0
M  V30 1427 H 133.164 4.84724 0.130749 0
M  V30 1428 N 134.507 -0.190092 1.56449 0
M  V30 1429 C 135.732 -0.929864 1.85387 0
M  V30 1430 C 136.157 -1.7585 0.667704 0
M  V30 1431 O 135.515 -1.77198 -0.383459 0
M  V30 1432 C 135.563 -1.79773 3.12593 0
M  V30 1433 O 134.667 -2.89713 2.93496 0
M  V30 1434 H 134.008 -0.261574 0.610307 0
M  V30 1435 H 136.538 -0.193896 2.03679 0
M  V30 1436 H 136.548 -2.20139 3.43515 0
M  V30 1437 H 135.223 -1.18892 3.98544 0
M  V30 1438 H 133.8 -2.53065 2.73884 0
M  V30 1439 N 135.985 -1.50799 -0.457987 0
M  V30 1440 C 137.396 -1.55152 -1.0385 0
M  V30 1441 C 137.747 -0.362719 -1.92818 0
M  V30 1442 O 136.872 0.522915 -2.09987 0
M  V30 1443 C 137.467 -2.81173 -1.89017 0
M  V30 1444 C 136.026 -2.88164 -2.42154 0
M  V30 1445 C 135.173 -2.49591 -1.20829 0
M  V30 1446 H 138.124 -1.56874 -0.240068 0
M  V30 1447 H 138.145 -2.63769 -2.74238 0
M  V30 1448 H 137.657 -3.67677 -1.24238 0
M  V30 1449 H 135.758 -2.06042 -3.10447 0
M  V30 1450 H 135.871 -3.91356 -2.76364 0
M  V30 1451 H 134.235 -2.02322 -1.54719 0
M  V30 1452 H 135.018 -3.38418 -0.576927 0
M  V30 1453 N 137.463 0.71206 -1.40597 0
M  V30 1454 C 138.879 1.02058 -1.22704 0
M  V30 1455 C 139.079 2.01228 -0.104729 0
M  V30 1456 O 138.135 2.4674 0.53624 0
M  V30 1457 C 139.448 1.56094 -2.57012 0
M  V30 1458 C 140.996 1.6806 -2.64054 0
M  V30 1459 C 141.471 2.25501 -3.9864 0
M  V30 1460 N 142.962 2.32882 -4.004 0
M  V30 1461 C 143.697 2.78317 -5.01325 0
M  V30 1462 N 143.193 3.23478 -6.12645 0
M  V30 1463 N 144.986 2.77733 -4.88693 0
M  V30 1464 H 137.137 0.0547896 -2.12329 0
M  V30 1465 H 139.4 0.0869027 -0.944008 0
M  V30 1466 H 139.106 0.906865 -3.39807 0
M  V30 1467 H 138.98 2.54564 -2.78347 0
M  V30 1468 H 141.367 2.32583 -1.81629 0
M  V30 1469 H 141.448 0.681802 -2.46546 0
M  V30 1470 H 141.092 1.61598 -4.81506 0
M  V30 1471 H 141.022 3.26102 -4.13479 0
M  V30 1472 H 143.513 2.00991 -3.20017 0
M  V30 1473 H 143.826 3.56725 -6.85542 0
M  V30 1474 H 142.171 3.21429 -6.16205 0
M  V30 1475 H 145.362 2.4179 -4.00818 0
M  V30 1476 H 145.535 3.12826 -5.67489 0
M  V30 1477 N 138.941 1.26152 0.944643 0
M  V30 1478 C 140.188 1.11492 1.69044 0
M  V30 1479 C 140.516 -0.342366 1.91463 0
M  V30 1480 O 139.771 -1.26812 1.49054 0
M  V30 1481 C 140.07 1.82541 3.07268 0
M  V30 1482 C 139.736 3.32445 3.04616 0
M  V30 1483 C 138.398 3.73337 3.036 0
M  V30 1484 C 140.75 4.28171 2.97185 0
M  V30 1485 C 138.078 5.08348 2.92915 0
M  V30 1486 C 140.43 5.63218 2.88041 0
M  V30 1487 C 139.094 6.03426 2.85366 0
M  V30 1488 H 138.364 0.407977 0.618576 0
M  V30 1489 H 141.011 1.56551 1.10291 0
M  V30 1490 H 139.316 1.29941 3.69625 0
M  V30 1491 H 141.013 1.68642 3.63815 0
M  V30 1492 H 137.603 2.99915 3.06185 0
M  V30 1493 H 141.787 3.97563 2.97081 0
M  V30 1494 H 137.043 5.38667 2.89219 0
M  V30 1495 H 141.217 6.37078 2.81254 0
M  V30 1496 H 138.844 7.07999 2.76842 0
M  V30 1497 N 140.419 -1.14872 1.07899 0
M  V30 1498 C 141.835 -1.37776 0.805606 0
M  V30 1499 C 142.035 -1.92743 -0.587555 0
M  V30 1500 O 141.091 -2.13678 -1.34528 0
M  V30 1501 C 142.404 -2.34361 1.88402 0
M  V30 1502 C 143.952 -2.48012 1.90942 0
M  V30 1503 C 144.427 -3.47893 2.97883 0
M  V30 1504 N 145.918 -3.55433 2.97021 0
M  V30 1505 C 146.653 -4.32553 3.76412 0
M  V30 1506 N 146.149 -5.12959 4.65666 0
M  V30 1507 N 147.942 -4.27697 3.64735 0
M  V30 1508 H 140.093 -0.775365 1.97742 0
M  V30 1509 H 142.356 -0.403521 0.857831 0
M  V30 1510 H 142.062 -2.01098 2.88535 0
M  V30 1511 H 141.936 -3.34206 1.74889 0
M  V30 1512 H 144.323 -2.8057 0.914579 0
M  V30 1513 H 144.404 -1.48147 2.08534 0
M  V30 1514 H 144.048 -3.16069 3.97571 0
M  V30 1515 H 143.978 -4.47527 2.77538 0
M  V30 1516 H 146.469 -2.98048 2.32326 0
M  V30 1517 H 146.782 -5.69065 5.22862 0
M  V30 1518 H 145.127 -5.12245 4.69712 0
M  V30 1519 H 148.318 -3.63949 2.94378 0
M  V30 1520 H 148.491 -4.8755 4.26848 0
M  V30 1521 N 141.898 -0.863906 -1.31812 0
M  V30 1522 C 143.146 -0.470904 -1.96537 0
M  V30 1523 C 143.467 0.978771 -1.68657 0
M  V30 1524 O 142.737 1.6853 -0.998717 0
M  V30 1525 H 141.317 -0.171148 -0.72713 0
M  V30 1526 H 143.979 -1.10236 -1.60729 0
M  V30 1527 H 143.075 -0.623616 -3.05806 0
M  V30 1528 N 143.376 1.44774 -0.622745 0
M  V30 1529 C 144.286 2.34433 0.0886031 0
M  V30 1530 C 145.302 1.52131 0.844529 0
M  V30 1531 O 146.478 1.84886 0.798691 0
M  V30 1532 C 143.543 3.29986 1.0635 0
M  V30 1533 C 142.604 4.28195 0.307873 0
M  V30 1534 C 141.837 5.19183 1.23633 0
M  V30 1535 O 142.06 5.13918 2.47476 0
M  V30 1536 O 140.994 5.97515 0.725189 0
M  V30 1537 H 144.82 2.96693 -0.648599 0
M  V30 1538 H 142.405 1.44408 -0.382957 0
M  V30 1539 H 144.287 3.88825 1.6246 0
M  V30 1540 H 142.962 2.70269 1.78146 0
M  V30 1541 H 141.869 3.72927 -0.296064 0
M  V30 1542 H 143.202 4.90808 -0.3699 0
M  V30 1543 N 144.854 0.36279 1.53368 0
M  V30 1544 C 145.804 -0.501391 2.22419 0
M  V30 1545 C 146.788 -1.0509 1.2184 0
M  V30 1546 O 147.98 -0.981404 1.47301 0
M  V30 1547 C 145.109 -1.64201 3.01484 0
M  V30 1548 C 144.195 -1.10552 4.09438 0
M  V30 1549 N 144.586 -0.291788 5.04958 0
M  V30 1550 C 142.884 -1.3806 4.24094 0
M  V30 1551 C 143.585 0.00162655 5.817 0
M  V30 1552 N 142.561 -0.595244 5.40331 0
M  V30 1553 H 146.363 0.127159 2.93625 0
M  V30 1554 H 143.877 0.170658 1.61501 0
M  V30 1555 H 145.874 -2.27326 3.49469 0
M  V30 1556 H 144.534 -2.27365 2.31809 0
M  V30 1557 H 145.545 0.0687731 5.17854 0
M  V30 1558 H 142.222 -2.01522 3.65644 0
M  V30 1559 H 143.612 0.659278 6.68658 0
M  V30 1560 N 146.332 -1.57332 0.0918853 0
M  V30 1561 C 147.295 -2.12708 -0.85369 0
M  V30 1562 C 148.295 -1.05561 -1.213 0
M  V30 1563 O 149.485 -1.31461 -1.14296 0
M  V30 1564 C 146.617 -2.64503 -2.15061 0
M  V30 1565 H 147.81 -2.97573 -0.3729 0
M  V30 1566 H 145.363 -1.55509 -0.157072 0
M  V30 1567 H 146.098 -1.83149 -2.67632 0
M  V30 1568 H 145.883 -3.4284 -1.90272 0
M  V30 1569 H 147.373 -3.07351 -2.82711 0
M  V30 1570 N 147.81 0.181792 -1.56548 0
M  V30 1571 C 148.74 1.22765 -1.98623 0
M  V30 1572 C 149.721 1.46747 -0.860189 0
M  V30 1573 O 150.906 1.58259 -1.12551 0
M  V30 1574 C 148.036 2.56894 -2.33715 0
M  V30 1575 C 146.99 2.475 -3.49182 0
M  V30 1576 C 146.316 3.86023 -3.69986 0
M  V30 1577 C 147.616 1.98866 -4.82959 0
M  V30 1578 H 149.31 0.877942 -2.86239 0
M  V30 1579 H 146.856 0.42088 -1.37712 0
M  V30 1580 H 148.809 3.30253 -2.61746 0
M  V30 1581 H 147.533 2.93632 -1.42997 0
M  V30 1582 H 146.192 1.76596 -3.21262 0
M  V30 1583 H 145.84 4.20136 -2.76576 0
M  V30 1584 H 145.54 3.80609 -4.47672 0
M  V30 1585 H 147.064 4.60984 -4.00407 0
M  V30 1586 H 148.478 2.61992 -5.09934 0
M  V30 1587 H 146.875 2.04424 -5.64208 0
M  V30 1588 H 147.945 0.942465 -4.75653 0
M  V30 1589 N 149.288 1.51039 0.449983 0
M  V30 1590 C 150.704 1.38934 0.785462 0
M  V30 1591 C 150.904 0.461817 1.96136 0
M  V30 1592 O 149.96 -0.0877389 2.52348 0
M  V30 1593 C 151.273 2.80724 1.0777 0
M  V30 1594 C 152.821 2.89787 1.1829 0
M  V30 1595 C 153.296 4.32457 1.50815 0
M  V30 1596 N 154.787 4.35505 1.57764 0
M  V30 1597 C 155.522 5.42914 1.84477 0
M  V30 1598 N 155.018 6.60502 2.09068 0
M  V30 1599 N 156.811 5.3038 1.86155 0
M  V30 1600 H 148.962 2.09904 -0.324647 0
M  V30 1601 H 151.225 0.944378 -0.0827957 0
M  V30 1602 H 150.931 3.50531 0.286498 0
M  V30 1603 H 150.805 3.19273 2.00859 0
M  V30 1604 H 153.192 2.20186 1.96474 0
M  V30 1605 H 153.273 2.54752 0.231314 0
M  V30 1606 H 152.917 5.02603 0.731622 0
M  V30 1607 H 152.847 4.64995 2.47158 0
M  V30 1608 H 155.338 3.50724 1.40715 0
M  V30 1609 H 155.651 7.38158 2.28785 0
M  V30 1610 H 153.996 6.63639 2.06416 0
M  V30 1611 H 157.187 4.37505 1.66454 0
M  V30 1612 H 157.36 6.1417 2.06637 0
M  V30 1613 N 150.766 -0.704594 1.40972 0
M  V30 1614 C 152.182 -1.01406 1.23244 0
M  V30 1615 C 152.382 -2.01169 0.115399 0
M  V30 1616 O 151.438 -2.47021 -0.523147 0
M  V30 1617 C 152.751 -1.54728 2.57836 0
M  V30 1618 C 154.299 -1.66658 2.64942 0
M  V30 1619 C 154.774 -2.23383 3.9983 0
M  V30 1620 N 156.265 -2.30756 4.01629 0
M  V30 1621 C 157 -2.75655 5.02794 0
M  V30 1622 N 156.496 -3.20225 6.14352 0
M  V30 1623 N 158.289 -2.75138 4.90159 0
M  V30 1624 H 150.44 -0.0435285 2.12355 0
M  V30 1625 H 152.703 -0.0818951 0.944456 0
M  V30 1626 H 152.409 -0.888832 3.40283 0
M  V30 1627 H 152.283 -2.53084 2.79693 0
M  V30 1628 H 154.67 -2.31617 1.8286 0
M  V30 1629 H 154.751 -0.668717 2.46904 0
M  V30 1630 H 154.395 -1.59043 4.82357 0
M  V30 1631 H 154.325 -3.23904 4.15203 0
M  V30 1632 H 156.816 -1.99291 3.21079 0
M  V30 1633 H 157.129 -3.53084 6.87424 0
M  V30 1634 H 155.474 -3.18156 6.17901 0
M  V30 1635 H 158.665 -2.39661 4.02095 0
M  V30 1636 H 158.838 -3.09812 5.6914 0
M  V30 1637 N 152.244 -1.26651 -0.937939 0
M  V30 1638 C 153.474 -1.15006 -1.71631 0
M  V30 1639 C 153.882 0.297026 -1.86854 0
M  V30 1640 O 153.225 1.21493 -1.37786 0
M  V30 1641 C 153.287 -1.74984 -3.14039 0
M  V30 1642 C 152.951 -3.24103 -3.2219 0
M  V30 1643 C 153.948 -4.20877 -3.05219 0
M  V30 1644 C 151.633 -3.64625 -3.45476 0
M  V30 1645 C 153.627 -5.56151 -3.11408 0
M  V30 1646 C 151.314 -5.00032 -3.513 0
M  V30 1647 C 152.312 -5.95604 -3.34282 0
M  V30 1648 O 152 -7.28545 -3.3982 0
M  V30 1649 H 151.732 -0.401183 -0.544085 0
M  V30 1650 H 154.286 -1.67832 -1.18413 0
M  V30 1651 H 152.516 -1.16624 -3.68695 0
M  V30 1652 H 154.205 -1.58199 -3.73802 0
M  V30 1653 H 154.971 -3.90908 -2.87081 0
M  V30 1654 H 150.85 -2.90718 -3.57777 0
M  V30 1655 H 154.394 -6.30727 -2.98043 0
M  V30 1656 H 150.291 -5.29659 -3.68959 0
M  V30 1657 H 151.059 -7.3686 -3.56343 0
M  V30 1658 N 153.722 1.14298 -1.08507 0
M  V30 1659 C 155.133 1.66926 -0.836227 0
M  V30 1660 C 155.484 1.85576 0.63686 0
M  V30 1661 O 154.609 1.56767 1.49175 0
M  V30 1662 C 155.204 3.03219 -1.51142 0
M  V30 1663 C 153.763 3.52876 -1.30979 0
M  V30 1664 C 152.91 2.2833 -1.57356 0
M  V30 1665 H 155.861 0.983491 -1.24552 0
M  V30 1666 H 155.882 3.68726 -0.939211 0
M  V30 1667 H 155.394 2.89612 -2.58353 0
M  V30 1668 H 153.495 3.71703 -0.258429 0
M  V30 1669 H 153.608 4.33586 -2.03814 0
M  V30 1670 H 151.972 2.34454 -0.995164 0
M  V30 1671 H 152.755 2.17298 -2.65775 0
M  V30 1672 N 155.201 0.870884 1.31352 0
M  V30 1673 C 156.426 0.495957 2.01383 0
M  V30 1674 C 156.851 -0.904324 1.64935 0
M  V30 1675 O 156.209 -1.59687 0.858466 0
M  V30 1676 C 156.257 0.661433 3.54482 0
M  V30 1677 O 155.361 -0.298851 4.11316 0
M  V30 1678 H 154.702 0.197158 0.634054 0
M  V30 1679 H 157.232 1.17455 1.67527 0
M  V30 1680 H 157.242 0.555072 4.04207 0
M  V30 1681 H 155.917 1.68246 3.8035 0
M  V30 1682 H 154.494 -0.147368 3.72609 0
M  V30 1683 N 156.679 -1.44442 0.630414 0
M  V30 1684 C 157.927 -2.01653 0.134351 0
M  V30 1685 C 158.248 -1.49836 -1.24796 0
M  V30 1686 O 157.518 -0.701684 -1.82902 0
M  V30 1687 H 156.098 -0.74554 0.0466769 0
M  V30 1688 H 158.76 -1.76952 0.816955 0
M  V30 1689 H 157.856 -3.11935 0.101498 0
M  V30 1690 N 158.157 -0.370918 -1.53173 0
M  V30 1691 C 159.067 0.480823 -2.2962 0
M  V30 1692 C 160.083 1.08789 -1.35798 0
M  V30 1693 O 161.259 1.09768 -1.68858 0
M  V30 1694 C 158.324 1.60227 -3.07454 0
M  V30 1695 C 157.385 1.0222 -4.16953 0
M  V30 1696 C 156.618 2.0902 -4.91066 0
M  V30 1697 O 156.841 3.30222 -4.65091 0
M  V30 1698 O 155.775 1.71778 -5.76867 0
M  V30 1699 H 159.601 -0.141421 -3.03371 0
M  V30 1700 H 157.186 -0.135146 -1.48787 0
M  V30 1701 H 159.068 2.25417 -3.56041 0
M  V30 1702 H 157.743 2.20982 -2.36535 0
M  V30 1703 H 156.65 0.334064 -3.72605 0
M  V30 1704 H 157.983 0.459131 -4.90054 0
M  V30 1705 N 159.635 1.57281 -0.100228 0
M  V30 1706 C 160.545 2.17833 0.870965 0
M  V30 1707 C 161.561 1.14921 1.30649 0
M  V30 1708 O 162.737 1.47313 1.37335 0
M  V30 1709 C 159.802 2.75085 2.1102 0
M  V30 1710 C 158.863 3.9297 1.72838 0
M  V30 1711 C 158.096 4.47482 2.90854 0
M  V30 1712 O 158.319 4.00922 4.05731 0
M  V30 1713 O 157.253 5.38433 2.69023 0
M  V30 1714 H 161.079 3.0124 0.38575 0
M  V30 1715 H 158.664 1.48881 0.124397 0
M  V30 1716 H 160.546 3.11656 2.83634 0
M  V30 1717 H 159.221 1.94721 2.58584 0
M  V30 1718 H 158.128 3.61201 0.973883 0
M  V30 1719 H 159.461 4.74713 1.30033 0
M  V30 1720 N 161.113 -0.173488 1.56642 0
M  V30 1721 C 162.529 -0.525174 1.50712 0
M  V30 1722 C 162.729 -1.8476 0.804107 0
M  V30 1723 O 161.785 -2.49869 0.363574 0
M  V30 1724 C 163.098 -0.559937 2.95441 0
M  V30 1725 C 164.646 -0.647288 3.06234 0
M  V30 1726 C 165.121 -0.712963 4.52417 0
M  V30 1727 N 166.612 -0.775911 4.56655 0
M  V30 1728 C 167.347 -0.847264 5.67106 0
M  V30 1729 N 166.843 -0.879585 6.87194 0
M  V30 1730 N 168.636 -0.886117 5.55071 0
M  V30 1731 H 160.787 0.693681 2.00753 0
M  V30 1732 H 163.05 0.249841 0.914485 0
M  V30 1733 H 162.756 0.343049 3.50023 0
M  V30 1734 H 162.63 -1.40718 3.49969 0
M  V30 1735 H 165.017 -1.5407 2.51687 0
M  V30 1736 H 165.098 0.226586 2.54794 0
M  V30 1737 H 164.742 0.176183 5.07594 0
M  V30 1738 H 164.672 -1.60295 5.0161 0
M  V30 1739 H 167.163 -0.759304 3.70193 0
M  V30 1740 H 167.476 -0.935144 7.67121 0
M  V30 1741 H 165.821 -0.847898 6.89808 0
M  V30 1742 H 169.012 -0.857853 4.60172 0
M  V30 1743 H 169.185 -0.938263 6.41171 0
M  V30 1744 N 162.591 -1.51276 -0.441967 0
M  V30 1745 C 163.831 -1.65372 -1.20132 0
M  V30 1746 C 164.195 -0.359871 -1.88597 0
M  V30 1747 O 165.396 -0.376551 -2.66149 0
M  V30 1748 C 163.667 -2.8207 -2.1948 0
M  V30 1749 S 165.226 -3.16467 -3.03964 0
M  V30 1750 H 162.044 -0.582669 -0.407453 0
M  V30 1751 H 164.646 -1.89166 -0.493609 0
M  V30 1752 H 163.35 -3.74523 -1.67812 0
M  V30 1753 H 162.881 -2.6045 -2.94838 0
M  V30 1754 H 164.896 -2.62543 -4.21053 0
M  V30 1755 N 164.069 0.697108 -1.41344 0
M  V30 1756 C 165.318 1.45279 -1.39918 0
M  V30 1757 C 165.631 1.95597 -0.0109624 0
M  V30 1758 O 166.837 2.71208 0.125919 0
M  V30 1759 C 165.293 2.62695 -2.46007 0
M  V30 1760 C 164.901 2.19169 -3.90729 0
M  V30 1761 C 166.645 3.40336 -2.53715 0
M  V30 1762 C 164.552 3.33535 -4.88373 0
M  V30 1763 H 163.482 0.545692 -0.520323 0
M  V30 1764 H 166.133 0.756929 -1.67161 0
M  V30 1765 H 164.515 3.34541 -2.11892 0
M  V30 1766 H 165.689 1.54623 -4.34083 0
M  V30 1767 H 164.004 1.54525 -3.86666 0
M  V30 1768 H 166.601 4.2547 -3.2385 0
M  V30 1769 H 166.944 3.85418 -1.5735 0
M  V30 1770 H 167.477 2.75546 -2.86913 0
M  V30 1771 H 164.216 2.93468 -5.86137 0
M  V30 1772 H 163.736 3.96936 -4.49668 0
M  V30 1773 H 165.415 3.99335 -5.09059 0
M  V30 1774 N 165.547 1.27147 0.931209 0
M  V30 1775 C 166.51 1.09615 2.01289 0
M  V30 1776 C 167.51 0.0412581 1.60747 0
M  V30 1777 O 168.7 0.285545 1.71844 0
M  V30 1778 C 165.832 0.669447 3.34262 0
M  V30 1779 H 167.025 2.05662 2.18273 0
M  V30 1780 H 164.578 1.09885 1.11153 0
M  V30 1781 H 165.313 -0.292572 3.22978 0
M  V30 1782 H 165.098 1.43127 3.65044 0
M  V30 1783 H 166.588 0.568921 4.13706 0
M  V30 1784 N 167.025 -1.13721 1.09112 0
M  V30 1785 C 168.265 -1.86576 0.834801 0
M  V30 1786 C 168.629 -1.81435 -0.628122 0
M  V30 1787 O 169.83 -2.49497 -1.00024 0
M  V30 1788 C 168.101 -3.30872 1.35124 0
M  V30 1789 S 169.66 -4.21257 1.22832 0
M  V30 1790 H 166.478 -0.643666 0.302017 0
M  V30 1791 H 169.08 -1.37085 1.39385 0
M  V30 1792 H 167.784 -3.32166 2.41027 0
M  V30 1793 H 167.315 -3.85423 0.788185 0
M  V30 1794 H 169.33 -4.95884 0.177191 0
M  V30 1795 N 168.503 -0.877838 -1.30888 0
M  V30 1796 C 169.45 -0.337538 -2.28318 0
M  V30 1797 C 170.42 0.568346 -1.56074 0
M  V30 1798 O 171.605 0.498298 -1.84178 0
M  V30 1799 C 168.745 0.448142 -3.42178 0
M  V30 1800 C 167.858 -0.48615 -4.29256 0
M  V30 1801 C 166.993 0.314427 -5.30269 0
M  V30 1802 C 166.032 -0.615791 -6.08995 0
M  V30 1803 N 165.169 0.14902 -7.01942 0
M  V30 1804 H 170.009 -1.17356 -2.73919 0
M  V30 1805 H 167.546 -0.590094 -1.34745 0
M  V30 1806 H 169.504 0.919517 -4.06941 0
M  V30 1807 H 168.134 1.24879 -2.97666 0
M  V30 1808 H 167.186 -1.076 -3.64865 0
M  V30 1809 H 168.498 -1.19909 -4.84173 0
M  V30 1810 H 167.652 0.847969 -6.00745 0
M  V30 1811 H 166.391 1.06062 -4.76027 0
M  V30 1812 H 165.396 -1.16102 -5.37401 0
M  V30 1813 H 166.621 -1.36097 -6.65323 0
M  V30 1814 H 164.567 0.877884 -6.50099 0
M  V30 1815 H 164.484 -0.504433 -7.54315 0
M  V30 1816 H 165.752 0.663537 -7.76671 0
M  V30 1817 N 169.982 1.44106 -0.638065 0
M  V30 1818 C 170.912 2.33448 0.0494287 0
M  V30 1819 C 171.893 1.48606 0.827672 0
M  V30 1820 O 173.078 1.77308 0.792173 0
M  V30 1821 C 170.208 3.31771 1.02691 0
M  V30 1822 C 169.162 4.26485 0.359823 0
M  V30 1823 C 168.488 5.14729 1.44769 0
M  V30 1824 C 169.788 5.17056 -0.738296 0
M  V30 1825 H 171.482 2.91183 -0.696636 0
M  V30 1826 H 169.028 1.40014 -0.336456 0
M  V30 1827 H 170.981 3.93161 1.51666 0
M  V30 1828 H 169.705 2.7226 1.80395 0
M  V30 1829 H 168.364 3.66437 -0.10934 0
M  V30 1830 H 168.012 4.51566 2.21578 0
M  V30 1831 H 167.712 5.78913 1.00668 0
M  V30 1832 H 169.236 5.78991 1.93911 0
M  V30 1833 H 170.65 5.72342 -0.331354 0
M  V30 1834 H 169.047 5.89879 -1.10286 0
M  V30 1835 H 170.117 4.57652 -1.60258 0
M  V30 1836 N 171.46 0.379036 1.52974 0
M  V30 1837 C 172.7 -0.206325 2.03356 0
M  V30 1838 C 173.064 -1.44892 1.25977 0
M  V30 1839 O 174.265 -2.11078 1.66432 0
M  V30 1840 C 172.536 -0.477887 3.54191 0
M  V30 1841 S 174.095 -1.035 4.26419 0
M  V30 1842 H 170.913 -0.0590259 0.708546 0
M  V30 1843 H 173.515 0.525013 1.88319 0
M  V30 1844 H 172.219 0.433745 4.08101 0
M  V30 1845 H 171.75 -1.23793 3.73415 0
M  V30 1846 H 173.765 -2.31821 4.38718 0
M  V30 1847 N 172.938 -1.57226 0.108567 0
M  V30 1848 C 173.848 -2.18292 -0.859401 0
M  V30 1849 C 174.864 -1.15612 -1.30038 0
M  V30 1850 O 176.04 -1.48039 -1.36552 0
M  V30 1851 C 173.105 -2.762 -2.09558 0
M  V30 1852 C 172.166 -3.93881 -1.70752 0
M  V30 1853 C 171.399 -4.49018 -2.88477 0
M  V30 1854 O 171.622 -4.03068 -4.036 0
M  V30 1855 O 170.556 -5.39852 -2.66164 0
M  V30 1856 H 174.382 -3.01441 -0.369769 0
M  V30 1857 H 171.967 -1.48945 -0.1165 0
M  V30 1858 H 173.849 -3.13156 -2.81978 0
M  V30 1859 H 172.524 -1.96089 -2.57548 0
M  V30 1860 H 171.431 -3.61713 -0.954714 0
M  V30 1861 H 172.764 -4.75396 -1.27513 0
M  V30 1862 N 174.416 0.165178 -1.56732 0
M  V30 1863 C 175.379 1.18822 -1.95995 0
M  V30 1864 C 176.379 1.3685 -0.84431 0
M  V30 1865 O 177.569 1.34152 -1.11126 0
M  V30 1866 C 174.701 2.5521 -2.26011 0
M  V30 1867 H 175.894 0.851825 -2.87548 0
M  V30 1868 H 173.447 0.407857 -1.50885 0
M  V30 1869 H 174.182 2.93852 -1.37191 0
M  V30 1870 H 173.967 2.43489 -3.07336 0
M  V30 1871 H 175.457 3.28927 -2.57288 0
M  V30 1872 N 175.894 1.51508 0.433938 0
M  V30 1873 C 177.143 1.63578 1.18005 0
M  V30 1874 C 177.456 0.359514 1.92268 0
M  V30 1875 O 178.662 0.359632 2.69108 0
M  V30 1876 C 177.118 2.88901 2.14626 0
M  V30 1877 C 176.726 4.23544 1.45995 0
M  V30 1878 C 178.47 3.10328 2.89649 0
M  V30 1879 C 176.377 5.40014 2.4112 0
M  V30 1880 H 175.307 0.609277 0.444182 0
M  V30 1881 H 177.958 1.77978 0.446773 0
M  V30 1882 H 176.34 2.68142 2.91403 0
M  V30 1883 H 177.514 4.54696 0.747532 0
M  V30 1884 H 175.829 4.08021 0.831115 0
M  V30 1885 H 178.426 3.94518 3.60915 0
M  V30 1886 H 178.769 2.23544 3.51189 0
M  V30 1887 H 179.302 3.31443 2.19978 0
M  V30 1888 H 176.041 6.29068 1.84264 0
M  V30 1889 H 175.561 5.13233 3.10406 0
M  V30 1890 H 177.24 5.72099 3.02177 0
M  V30 1891 N 177.372 -0.689602 1.41712 0
M  V30 1892 C 178.612 -1.46184 1.42862 0
M  V30 1893 C 178.976 -1.91962 0.0382204 0
M  V30 1894 O 180.177 -2.68694 -0.0755019 0
M  V30 1895 C 178.448 -2.6371 2.4123 0
M  V30 1896 S 180.007 -3.52768 2.6096 0
M  V30 1897 H 176.825 -0.49947 0.506015 0
M  V30 1898 H 179.427 -0.804107 1.78198 0
M  V30 1899 H 178.131 -2.28293 3.41044 0
M  V30 1900 H 177.662 -3.3437 2.07269 0
M  V30 1901 H 179.677 -4.59146 1.88148 0
M  V30 1902 N 178.85 -1.27639 -0.924453 0
M  V30 1903 C 180.261 -1.12834 -1.48746 0
M  V30 1904 C 180.612 0.285505 -1.94112 0
M  V30 1905 O 179.737 1.17874 -1.81479 0
M  V30 1906 C 180.332 -2.04217 -2.70334 0
M  V30 1907 C 178.891 -1.93509 -3.22848 0
M  V30 1908 C 178.038 -1.96583 -1.95577 0
M  V30 1909 H 180.989 -1.40484 -0.738233 0
M  V30 1910 H 181.01 -1.59989 -3.4523 0
M  V30 1911 H 180.522 -3.07111 -2.37285 0
M  V30 1912 H 178.623 -0.936131 -3.60649 0
M  V30 1913 H 178.736 -2.79917 -3.88823 0
M  V30 1914 H 177.1 -1.4085 -2.12211 0
M  V30 1915 H 177.883 -3.01137 -1.64837 0
M  V30 1916 N 180.328 1.1314 -1.09713 0
M  V30 1917 C 181.291 2.16831 -0.742751 0
M  V30 1918 C 182.291 1.59159 0.229129 0
M  V30 1919 O 183.481 1.74199 0.00693237 0
M  V30 1920 C 180.613 3.40756 -0.0989168 0
M  V30 1921 H 181.806 2.49695 -1.66109 0
M  V30 1922 H 179.359 1.2802 -0.896699 0
M  V30 1923 H 180.094 3.13485 0.830514 0
M  V30 1924 H 179.879 3.83888 -0.798265 0
M  V30 1925 H 181.369 4.17386 0.133524 0
M  V30 1926 N 181.806 0.884767 1.30421 0
M  V30 1927 C 182.738 0.308655 2.27112 0
M  V30 1928 C 183.751 -0.536655 1.53701 0
M  V30 1929 O 184.94 -0.35624 1.74909 0
M  V30 1930 C 182.04 -0.579782 3.33904 0
M  V30 1931 C 181.213 0.236417 4.36761 0
M  V30 1932 C 180.272 -0.582482 5.22966 0
M  V30 1933 O 179.298 -0.00525502 5.692 0
M  V30 1934 N 180.5 -1.89163 5.48815 0
M  V30 1935 H 183.265 1.13964 2.77186 0
M  V30 1936 H 180.826 0.747731 1.43599 0
M  V30 1937 H 182.818 -1.13366 3.88497 0
M  V30 1938 H 181.388 -1.31144 2.83761 0
M  V30 1939 H 180.608 0.97174 3.82035 0
M  V30 1940 H 181.896 0.795924 5.02536 0
M  V30 1941 H 181.294 -2.38352 5.13035 0
M  V30 1942 H 179.851 -2.39296 6.06284 0
M  V30 1943 N 183.284 -1.43765 0.645699 0
M  V30 1944 C 184.247 -2.29163 -0.0409488 0
M  V30 1945 C 185.247 -1.41813 -0.757996 0
M  V30 1946 O 186.437 -1.63527 -0.600382 0
M  V30 1947 C 183.569 -3.23716 -1.06869 0
M  V30 1948 H 184.762 -2.91366 0.710345 0
M  V30 1949 H 182.315 -1.5092 0.406547 0
M  V30 1950 H 183.05 -2.66393 -1.84947 0
M  V30 1951 H 182.835 -3.88105 -0.558277 0
M  V30 1952 H 184.325 -3.87831 -1.54845 0
M  V30 1953 N 184.763 -0.387143 -1.52771 0
M  V30 1954 C 186.012 0.19697 -2.00736 0
M  V30 1955 C 186.325 1.48082 -1.27793 0
M  V30 1956 O 187.531 2.14485 -1.66458 0
M  V30 1957 C 185.987 0.401568 -3.57653 0
M  V30 1958 C 185.595 -0.868907 -4.39493 0
M  V30 1959 C 187.339 0.942164 -4.13912 0
M  V30 1960 C 185.246 -0.632705 -5.88006 0
M  V30 1961 H 184.176 0.0773827 -0.750019 0
M  V30 1962 H 186.827 -0.50921 -1.76293 0
M  V30 1963 H 185.209 1.16954 -3.78335 0
M  V30 1964 H 186.383 -1.64133 -4.30577 0
M  V30 1965 H 184.698 -1.33429 -3.94443 0
M  V30 1966 H 187.295 1.13455 -5.22525 0
M  V30 1967 H 187.638 1.9106 -3.69867 0
M  V30 1968 H 188.171 0.233814 -3.97112 0
M  V30 1969 H 184.91 -1.57208 -6.36369 0
M  V30 1970 H 184.43 0.100825 -5.99715 0
M  V30 1971 H 186.109 -0.26642 -6.46451 0
M  V30 1972 N 186.241 1.57166 -0.116904 0
M  V30 1973 C 187.469 1.99473 0.549383 0
M  V30 1974 C 187.884 0.996541 1.60357 0
M  V30 1975 O 187.241 -0.0108731 1.82497 0
M  V30 1976 C 187.292 3.41788 1.17741 0
M  V30 1977 O 187.013 4.37788 0.165362 0
M  V30 1978 C 188.514 3.99216 1.92722 0
M  V30 1979 H 185.734 0.655009 0.145616 0
M  V30 1980 H 188.278 2.03494 -0.202625 0
M  V30 1981 H 186.433 3.38713 1.88021 0
M  V30 1982 H 186.847 5.20806 0.621403 0
M  V30 1983 H 188.321 5.00882 2.31995 0
M  V30 1984 H 188.798 3.3824 2.80161 0
M  V30 1985 H 189.404 4.0583 1.27209 0
M  V30 1986 N 187.719 -0.156864 1.56817 0
M  V30 1987 C 188.968 -0.869504 1.81996 0
M  V30 1988 C 189.281 -1.82777 0.696545 0
M  V30 1989 O 190.487 -2.58384 0.833658 0
M  V30 1990 C 188.943 -1.59679 3.22538 0
M  V30 1991 C 188.551 -0.681431 4.42787 0
M  V30 1992 C 190.295 -2.2968 3.56997 0
M  V30 1993 C 188.202 -1.40978 5.74351 0
M  V30 1994 H 187.132 -0.328438 0.678708 0
M  V30 1995 H 189.783 -0.1223 1.83092 0
M  V30 1996 H 188.165 -2.38927 3.158 0
M  V30 1997 H 189.339 0.0751166 4.60739 0
M  V30 1998 H 187.654 -0.0903431 4.16302 0
M  V30 1999 H 190.251 -2.84794 4.52544 0
M  V30 2000 H 190.594 -3.05707 2.82576 0
M  V30 2001 H 191.127 -1.57361 3.65352 0
M  V30 2002 H 187.866 -0.691561 6.51842 0
M  V30 2003 H 187.386 -2.13929 5.60352 0
M  V30 2004 H 189.065 -1.95337 6.16808 0
M  V30 2005 N 189.197 -1.51736 -0.425897 0
M  V30 2006 C 190.107 -1.76738 -1.54275 0
M  V30 2007 C 191.123 -0.65211 -1.61318 0
M  V30 2008 O 192.299 -0.935654 -1.78346 0
M  V30 2009 C 189.364 -1.89755 -2.90162 0
M  V30 2010 C 188.425 -3.13633 -2.93143 0
M  V30 2011 C 187.658 -3.2602 -4.22548 0
M  V30 2012 O 187.881 -2.44067 -5.15546 0
M  V30 2013 O 186.815 -4.19071 -4.32046 0
M  V30 2014 H 190.641 -2.71502 -1.36089 0
M  V30 2015 H 188.226 -1.36376 -0.610069 0
M  V30 2016 H 190.108 -2.00236 -3.70788 0
M  V30 2017 H 188.783 -0.981785 -3.08452 0
M  V30 2018 H 187.69 -3.08622 -2.11431 0
M  V30 2019 H 189.023 -4.04936 -2.798 0
M  V30 2020 N 190.675 0.682077 -1.42076 0
M  V30 2021 C 191.638 1.77756 -1.44691 0
M  V30 2022 C 192.638 1.5726 -0.335535 0
M  V30 2023 O 193.828 1.63686 -0.596037 0
M  V30 2024 C 190.96 3.16301 -1.27146 0
M  V30 2025 H 192.153 1.76826 -2.42224 0
M  V30 2026 H 189.706 0.891012 -1.28416 0
M  V30 2027 H 190.441 3.22862 -0.305075 0
M  V30 2028 H 190.226 3.32581 -2.07683 0
M  V30 2029 H 191.716 3.96241 -1.31843 0
M  V30 2030 N 192.153 1.28127 0.917671 0
M  V30 2031 C 193.063 1.13556 2.05286 0
M  V30 2032 C 194.079 0.0630914 1.73886 0
M  V30 2033 O 195.255 0.271598 1.9956 0
M  V30 2034 C 192.32 0.794676 3.3747 0
M  V30 2035 C 191.381 1.94909 3.82504 0
M  V30 2036 C 190.614 1.62437 5.0838 0
M  V30 2037 O 190.837 0.536905 5.67867 0
M  V30 2038 O 189.771 2.46677 5.4903 0
M  V30 2039 H 193.597 2.08844 2.20495 0
M  V30 2040 H 191.182 1.07409 1.03845 0
M  V30 2041 H 193.064 0.618344 4.16839 0
M  V30 2042 H 191.739 -0.128581 3.23445 0
M  V30 2043 H 190.646 2.18055 3.03978 0
M  V30 2044 H 191.979 2.85291 4.01086 0
M  V30 2045 N 193.631 -1.12557 1.10312 0
M  V30 2046 C 195.042 -1.65574 0.862678 0
M  V30 2047 C 195.393 -1.86566 -0.607256 0
M  V30 2048 O 194.518 -1.59121 -1.46662 0
M  V30 2049 C 195.113 -3.00776 1.55947 0
M  V30 2050 C 193.672 -3.50748 1.36576 0
M  V30 2051 C 192.819 -2.25797 1.60968 0
M  V30 2052 H 195.77 -0.963552 1.26101 0
M  V30 2053 H 195.791 -3.67185 0.997753 0
M  V30 2054 H 195.303 -2.85465 2.62928 0
M  V30 2055 H 193.404 -3.71245 0.317531 0
M  V30 2056 H 193.517 -4.30289 2.10686 0
M  V30 2057 H 191.881 -2.32841 1.03234 0
M  V30 2058 H 192.664 -2.13043 2.69198 0
M  V30 2059 N 195.109 -0.891671 -1.2995 0
M  V30 2060 C 196.525 -0.58662 -1.48428 0
M  V30 2061 C 196.725 0.873951 -1.81561 0
M  V30 2062 O 195.781 1.65471 -1.90724 0
M  V30 2063 C 197.094 -1.50553 -2.60296 0
M  V30 2064 C 198.642 -1.50988 -2.74175 0
M  V30 2065 C 199.117 -2.41488 -3.89163 0
M  V30 2066 N 200.608 -2.39489 -3.96483 0
M  V30 2067 C 201.343 -3.06223 -4.84784 0
M  V30 2068 N 200.839 -3.82206 -5.77833 0
M  V30 2069 N 202.632 -2.95421 -4.78208 0
M  V30 2070 H 194.783 -1.83644 -1.06718 0
M  V30 2071 H 197.046 -0.786455 -0.529332 0
M  V30 2072 H 196.752 -2.54581 -2.42654 0
M  V30 2073 H 196.626 -1.22008 -3.56923 0
M  V30 2074 H 199.013 -0.47708 -2.91218 0
M  V30 2075 H 199.094 -1.83567 -1.78148 0
M  V30 2076 H 198.738 -3.44857 -3.72876 0
M  V30 2077 H 198.668 -2.06222 -4.84541 0
M  V30 2078 H 201.159 -1.84278 -3.29924 0
M  V30 2079 H 201.472 -4.302 -6.41988 0
M  V30 2080 H 199.817 -3.86313 -5.77743 0
M  V30 2081 H 203.008 -2.35581 -4.04499 0
M  V30 2082 H 203.181 -3.47704 -5.46814 0
M  V30 2083 N 196.587 1.43421 -0.653314 0
M  V30 2084 C 197.55 2.29182 0.0287951 0
M  V30 2085 C 198.55 1.42213 0.750465 0
M  V30 2086 O 199.74 1.63843 0.591701 0
M  V30 2087 C 196.872 3.24278 1.05151 0
M  V30 2088 H 198.065 2.90985 -0.725786 0
M  V30 2089 H 195.618 1.50702 -0.414545 0
M  V30 2090 H 196.353 2.6737 1.83532 0
M  V30 2091 H 196.138 3.88396 0.537687 0
M  V30 2092 H 197.628 3.88647 1.52786 0
M  V30 2093 N 198.065 0.39524 1.52563 0
M  V30 2094 C 199.342 -0.242908 1.94086 0
M  V30 2095 C 199.722 -1.63841 1.33114 0
M  V30 2096 O 199.07 -2.22928 0.501529 0
M  V30 2097 C 199.28 -0.26327 3.48006 0
M  V30 2098 C 200.628 -0.489354 4.21771 0
M  V30 2099 O 201.652 -0.343226 3.54543 0
M  V30 2100 O 200.511 -0.776169 5.4096 0
M  V30 2101 H 197.605 -0.152536 0.812811 0
M  V30 2102 H 200.151 0.450178 1.6362 0
M  V30 2103 H 198.923 0.713985 3.84731 0
M  V30 2104 H 198.546 -1.00103 3.84792 0
M  V30 2105 N 199.544 -1.57102 0.125237 0
M  V30 2106 C 200.792 -1.95021 -0.530198 0
M  V30 2107 C 201.113 -1.00982 -1.66816 0
M  V30 2108 O 200.383 -0.0672693 -1.95784 0
M  V30 2109 H 198.963 -0.720046 -0.198853 0
M  V30 2110 H 201.625 -1.93916 0.19564 0
M  V30 2111 H 200.721 -2.98211 -0.920681 0
M  V30 2112 N 201.022 0.148545 -1.56898 0
M  V30 2113 C 202.247 0.880385 -1.87787 0
M  V30 2114 C 202.672 1.74018 -0.714093 0
M  V30 2115 O 202.03 1.78153 0.336343 0
M  V30 2116 C 202.078 1.71422 -3.17249 0
M  V30 2117 O 201.182 2.8183 -3.01074 0
M  V30 2118 H 200.523 0.245301 -0.617028 0
M  V30 2119 H 203.053 0.139826 -2.04122 0
M  V30 2120 H 203.063 2.10954 -3.49231 0
M  V30 2121 H 201.738 1.08284 -4.01556 0
M  V30 2122 H 200.315 2.45715 -2.80497 0
M  V30 2123 N 202.5 1.5196 0.417844 0
M  V30 2124 C 203.916 1.40569 0.755816 0
M  V30 2125 C 204.116 0.503316 1.95113 0
M  V30 2126 O 203.172 -0.0341925 2.52477 0
M  V30 2127 C 204.485 2.82947 1.01791 0
M  V30 2128 C 206.033 2.92231 1.12116 0
M  V30 2129 C 206.508 4.35559 1.41608 0
M  V30 2130 N 207.999 4.38753 1.48491 0
M  V30 2131 C 208.734 5.46705 1.7292 0
M  V30 2132 N 208.23 6.64788 1.95011 0
M  V30 2133 N 210.023 5.34209 1.74863 0
M  V30 2134 H 202.174 2.09168 -0.369098 0
M  V30 2135 H 204.437 0.942409 -0.102809 0
M  V30 2136 H 204.143 3.5106 0.212081 0
M  V30 2137 H 204.017 3.23462 1.94042 0
M  V30 2138 H 206.404 2.24304 1.9176 0
M  V30 2139 H 206.485 2.55185 0.177225 0
M  V30 2140 H 206.129 5.04042 0.624848 0
M  V30 2141 H 206.059 4.70133 2.37239 0
M  V30 2142 H 208.55 3.5363 1.33244 0
M  V30 2143 H 208.863 7.42845 2.13076 0
M  V30 2144 H 207.208 6.67869 1.92293 0
M  V30 2145 H 210.399 4.40937 1.57137 0
M  V30 2146 H 210.572 6.18415 1.93563 0
M  V30 2147 N 203.978 -0.674533 1.42435 0
M  V30 2148 C 205.394 -0.98769 1.25367 0
M  V30 2149 C 205.594 -2.00879 0.158044 0
M  V30 2150 O 204.65 -2.48075 -0.470633 0
M  V30 2151 C 205.963 -1.49224 2.6106 0
M  V30 2152 C 207.511 -1.61 2.68417 0
M  V30 2153 C 207.986 -2.14852 4.04478 0
M  V30 2154 N 209.477 -2.22185 4.06434 0
M  V30 2155 C 210.212 -2.64928 5.08528 0
M  V30 2156 N 209.708 -3.07121 6.21006 0
M  V30 2157 N 211.501 -2.64679 4.95885 0
M  V30 2158 H 203.652 0.00152503 2.124 0
M  V30 2159 H 205.915 -0.0618434 0.945981 0
M  V30 2160 H 205.621 -0.816453 3.42092 0
M  V30 2161 H 205.495 -2.47094 2.84999 0
M  V30 2162 H 207.882 -2.27686 1.87732 0
M  V30 2163 H 207.963 -0.616195 2.48267 0
M  V30 2164 H 207.607 -1.48775 4.85622 0
M  V30 2165 H 207.537 -3.15024 4.2198 0
M  V30 2166 H 210.028 -1.92435 3.25234 0
M  V30 2167 H 210.341 -3.38423 6.94759 0
M  V30 2168 H 208.686 -3.04978 6.24511 0
M  V30 2169 H 211.877 -2.31078 4.07088 0
M  V30 2170 H 212.05 -2.9767 5.75584 0
M  V30 2171 N 205.456 -1.28612 -0.910864 0
M  V30 2172 C 206.684 -1.18792 -1.69399 0
M  V30 2173 C 207.099 0.253039 -1.87097 0
M  V30 2174 O 206.456 1.17071 -1.40003 0
M  V30 2175 C 206.507 -1.88511 -3.08457 0
M  V30 2176 O 206.228 -3.26979 -2.91576 0
M  V30 2177 C 207.729 -1.85029 -4.02839 0
M  V30 2178 H 204.949 -0.412233 -0.529438 0
M  V30 2179 H 207.493 -1.69788 -1.13984 0
M  V30 2180 H 205.648 -1.41379 -3.60681 0
M  V30 2181 H 206.062 -3.61936 -3.79608 0
M  V30 2182 H 207.536 -2.38395 -4.97867 0
M  V30 2183 H 208.013 -0.823303 -4.31414 0
M  V30 2184 H 208.619 -2.31853 -3.56545 0
M  V30 2185 N 206.934 1.1197 -1.10907 0
M  V30 2186 C 208.162 1.87402 -0.876824 0
M  V30 2187 C 208.577 1.79894 0.573025 0
M  V30 2188 O 207.934 1.17629 1.39534 0
M  V30 2189 C 207.985 3.36428 -1.32282 0
M  V30 2190 O 207.706 3.43765 -2.71582 0
M  V30 2191 C 209.207 4.28783 -1.12518 0
M  V30 2192 H 206.427 0.592793 -0.314384 0
M  V30 2193 H 208.971 1.41649 -1.47499 0
M  V30 2194 H 207.126 3.79706 -0.768229 0
M  V30 2195 H 207.54 4.3652 -2.90776 0
M  V30 2196 H 209.014 5.31613 -1.48633 0
M  V30 2197 H 209.491 4.39153 -0.0642394 0
M  V30 2198 H 210.097 3.91291 -1.66648 0
M  V30 2199 N 208.412 0.89855 1.29475 0
M  V30 2200 C 209.828 0.594483 1.48115 0
M  V30 2201 C 210.028 -0.86431 1.82022 0
M  V30 2202 O 209.084 -1.64457 1.91599 0
M  V30 2203 C 210.397 1.51932 2.59494 0
M  V30 2204 C 211.945 1.5244 2.7337 0
M  V30 2205 C 212.42 2.43548 3.87877 0
M  V30 2206 N 213.911 2.41589 3.95208 0
M  V30 2207 C 214.646 3.08789 4.83153 0
M  V30 2208 N 214.142 3.85265 5.75798 0
M  V30 2209 N 215.935 2.97952 4.76635 0
M  V30 2210 H 208.086 1.84207 1.05742 0
M  V30 2211 H 210.349 0.789251 0.525154 0
M  V30 2212 H 210.055 2.55865 2.41301 0
M  V30 2213 H 209.929 1.23899 3.56271 0
M  V30 2214 H 212.316 0.492518 2.90961 0
M  V30 2215 H 212.397 1.8451 1.77172 0
M  V30 2216 H 212.041 3.46829 3.71041 0
M  V30 2217 H 211.971 2.08788 4.83441 0
M  V30 2218 H 214.462 1.86025 3.28943 0
M  V30 2219 H 214.775 4.33598 6.39697 0
M  V30 2220 H 213.12 3.89371 5.75687 0
M  V30 2221 H 216.311 2.37723 4.03244 0
M  V30 2222 H 216.484 3.50599 5.44962 0
M  V30 2223 N 209.89 -1.43072 0.660911 0
M  V30 2224 C 211.12 -2.05769 0.185153 0
M  V30 2225 C 211.528 -1.49668 -1.15742 0
M  V30 2226 O 210.871 -0.625649 -1.72717 0
M  V30 2227 C 210.933 -3.59489 0.0278237 0
M  V30 2228 C 210.597 -4.38212 1.2969 0
M  V30 2229 C 211.594 -4.69772 2.22734 0
M  V30 2230 C 209.279 -4.7809 1.54063 0
M  V30 2231 C 211.273 -5.40129 3.38437 0
M  V30 2232 C 208.96 -5.4819 2.70058 0
M  V30 2233 C 209.958 -5.79132 3.62071 0
M  V30 2234 O 209.646 -6.47798 4.76039 0
M  V30 2235 H 209.378 -0.669873 0.0908086 0
M  V30 2236 H 211.932 -1.84436 0.90402 0
M  V30 2237 H 210.162 -3.79426 -0.746489 0
M  V30 2238 H 211.851 -4.03862 -0.406275 0
M  V30 2239 H 212.617 -4.39476 2.05149 0
M  V30 2240 H 208.496 -4.53408 0.833215 0
M  V30 2241 H 212.04 -5.64198 4.10277 0
M  V30 2242 H 207.937 -5.77902 2.87574 0
M  V30 2243 H 208.705 -6.66283 4.75404 0
M  V30 2244 N 211.368 -0.403325 -1.52352 0
M  V30 2245 C 212.645 0.232611 -1.94212 0
M  V30 2246 C 213.025 1.63133 -1.33981 0
M  V30 2247 O 212.373 2.22659 -0.513344 0
M  V30 2248 C 212.583 0.244811 -3.4814 0
M  V30 2249 C 213.931 0.46698 -4.22024 0
M  V30 2250 O 214.955 0.324419 -3.5472 0
M  V30 2251 O 213.814 0.74747 -5.41364 0
M  V30 2252 H 210.908 0.148223 -0.813609 0
M  V30 2253 H 213.454 -0.458848 -1.63379 0
M  V30 2254 H 212.226 -0.734378 -3.84347 0
M  V30 2255 H 211.849 0.980611 -3.85318 0
M  V30 2256 N 212.846 1.57033 -0.133567 0
M  V30 2257 C 214.095 1.94861 0.520768 0
M  V30 2258 C 214.408 1.02012 1.66892 0
M  V30 2259 O 215.614 1.29365 2.38699 0
M  V30 2260 C 214.07 3.46362 0.977809 0
M  V30 2261 C 213.678 4.47773 -0.142674 0
M  V30 2262 C 215.422 3.93083 1.60269 0
M  V30 2263 C 213.329 5.90468 0.331883 0
M  V30 2264 H 212.259 0.727453 0.198315 0
M  V30 2265 H 214.91 1.82227 -0.215759 0
M  V30 2266 H 213.292 3.54282 1.7692 0
M  V30 2267 H 214.466 4.51536 -0.919317 0
M  V30 2268 H 212.781 4.10891 -0.675124 0
M  V30 2269 H 215.378 4.97121 1.96914 0
M  V30 2270 H 215.721 3.33876 2.48662 0
M  V30 2271 H 216.254 3.88025 0.876453 0
M  V30 2272 H 212.993 6.53463 -0.516341 0
M  V30 2273 H 212.513 5.90094 1.07469 0
M  V30 2274 H 214.192 6.42179 0.788332 0
M  V30 2275 N 214.325 -0.140222 1.56975 0
M  V30 2276 C 215.602 -0.880769 1.74648 0
M  V30 2277 C 215.982 -1.99036 0.703404 0
M  V30 2278 O 215.33 -2.26821 -0.27648 0
M  V30 2279 C 215.54 -1.417 3.18939 0
M  V30 2280 C 216.888 -1.87774 3.80823 0
M  V30 2281 O 217.912 -1.51427 3.2241 0
M  V30 2282 O 216.771 -2.54827 4.83452 0
M  V30 2283 H 213.865 -0.416713 0.714338 0
M  V30 2284 H 216.411 -0.125618 1.69234 0
M  V30 2285 H 215.183 -0.619902 3.86359 0
M  V30 2286 H 214.806 -2.23546 3.28805 0
M  V30 2287 N 215.803 -1.52179 -0.40978 0
M  V30 2288 C 216.736 -1.70196 -1.52015 0
M  V30 2289 C 217.714 -0.549542 -1.53032 0
M  V30 2290 O 218.898 -0.776815 -1.71749 0
M  V30 2291 C 216.025 -1.74069 -2.90547 0
M  V30 2292 C 215.071 -2.95601 -3.07445 0
M  V30 2293 S 215.904 -4.55956 -2.80827 0
M  V30 2294 C 217.06 -4.62614 -4.21591 0
M  V30 2295 H 217.293 -2.64109 -1.36504 0
M  V30 2296 H 214.826 -1.4221 -0.601312 0
M  V30 2297 H 216.784 -1.76985 -3.70387 0
M  V30 2298 H 215.445 -0.812835 -3.034 0
M  V30 2299 H 214.638 -2.94791 -4.08796 0
M  V30 2300 H 214.24 -2.90569 -2.35469 0
M  V30 2301 H 216.532 -4.39951 -5.15218 0
M  V30 2302 H 217.475 -5.64548 -4.27424 0
M  V30 2303 H 217.883 -3.91654 -4.06531 0
M  V30 2304 N 217.281 0.66697 -1.42791 0
M  V30 2305 C 218.509 1.45505 -1.47091 0
M  V30 2306 C 218.924 1.8861 -0.0845873 0
M  V30 2307 O 218.281 1.58632 0.90234 0
M  V30 2308 C 218.332 2.69906 -2.40485 0
M  V30 2309 O 218.053 2.28608 -3.73725 0
M  V30 2310 C 219.554 3.63396 -2.53886 0
M  V30 2311 H 216.774 0.447459 -0.500022 0
M  V30 2312 H 219.318 0.818866 -1.8739 0
M  V30 2313 H 217.473 3.29696 -2.03419 0
M  V30 2314 H 217.887 3.08997 -4.23817 0
M  V30 2315 H 219.361 4.47387 -3.2334 0
M  V30 2316 H 219.838 4.09824 -1.57927 0
M  V30 2317 H 220.444 3.09495 -2.91706 0
M  V30 2318 N 218.759 1.29093 0.90403 0
M  V30 2319 C 219.706 1.13853 2.00764 0
M  V30 2320 C 220.676 0.0330084 1.66067 0
M  V30 2321 O 221.861 0.199733 1.89752 0
M  V30 2322 C 219.001 0.816537 3.35301 0
M  V30 2323 C 218.114 2.00206 3.82807 0
M  V30 2324 C 217.249 1.61983 5.059 0
M  V30 2325 C 216.288 2.77143 5.45764 0
M  V30 2326 N 215.425 2.39346 6.60044 0
M  V30 2327 H 220.265 2.08276 2.13132 0
M  V30 2328 H 217.802 1.03648 1.04381 0
M  V30 2329 H 219.76 0.610557 4.12708 0
M  V30 2330 H 218.39 -0.090779 3.22672 0
M  V30 2331 H 217.442 2.31988 3.01473 0
M  V30 2332 H 218.754 2.86512 4.08304 0
M  V30 2333 H 217.908 1.37649 5.90879 0
M  V30 2334 H 216.647 0.728202 4.82233 0
M  V30 2335 H 215.652 3.02165 4.59322 0
M  V30 2336 H 216.877 3.66964 5.71414 0
M  V30 2337 H 214.823 1.52665 6.37989 0
M  V30 2338 H 214.74 3.19185 6.85315 0
M  V30 2339 H 216.008 2.1832 7.48303 0
M  V30 2340 N 220.237 -1.11381 1.11499 0
M  V30 2341 C 221.477 -1.84763 0.874188 0
M  V30 2342 C 221.841 -1.82726 -0.589496 0
M  V30 2343 O 223.042 -2.51562 -0.947089 0
M  V30 2344 C 221.313 -3.27931 1.42112 0
M  V30 2345 S 222.872 -4.18557 1.31739 0
M  V30 2346 H 219.69 -0.637115 0.315603 0
M  V30 2347 H 222.292 -1.34097 1.42261 0
M  V30 2348 H 220.996 -3.26978 2.48019 0
M  V30 2349 H 220.527 -3.83665 0.869761 0
M  V30 2350 H 222.542 -4.95396 0.282335 0
M  V30 2351 N 221.715 -0.905404 -1.28997 0
M  V30 2352 C 222.964 -0.530191 -1.94607 0
M  V30 2353 C 223.277 0.929185 -1.72121 0
M  V30 2354 O 224.483 1.41218 -2.31883 0
M  V30 2355 C 222.939 -0.897333 -3.48534 0
M  V30 2356 C 222.547 -2.37587 -3.79811 0
M  V30 2357 C 224.291 -0.592304 -4.20347 0
M  V30 2358 C 222.198 -2.68357 -5.27009 0
M  V30 2359 H 221.128 -0.194558 -0.728466 0
M  V30 2360 H 223.779 -1.10318 -1.46636 0
M  V30 2361 H 222.161 -0.253214 -3.9519 0
M  V30 2362 H 223.335 -3.06602 -3.43994 0
M  V30 2363 H 221.65 -2.6505 -3.2115 0
M  V30 2364 H 224.247 -0.798975 -5.28697 0
M  V30 2365 H 224.59 0.469474 -4.13644 0
M  V30 2366 H 225.123 -1.19452 -3.79442 0
M  V30 2367 H 221.862 -3.73355 -5.38782 0
M  V30 2368 H 221.382 -2.03971 -5.64053 0
M  V30 2369 H 223.061 -2.54922 -5.94663 0
M  V30 2370 N 223.193 1.4272 -0.668489 0
M  V30 2371 C 224.423 2.05668 -0.196063 0
M  V30 2372 C 224.831 1.5028 1.14946 0
M  V30 2373 O 224.174 0.6348 1.72383 0
M  V30 2374 C 224.236 3.59469 -0.0468879 0
M  V30 2375 C 223.9 4.37518 -1.32012 0
M  V30 2376 C 224.897 4.68584 -2.25222 0
M  V30 2377 C 222.582 4.77266 -1.56596 0
M  V30 2378 C 224.576 5.38326 -3.41297 0
M  V30 2379 C 222.263 5.4675 -2.72962 0
M  V30 2380 C 223.261 5.77204 -3.65137 0
M  V30 2381 O 222.949 6.45264 -4.79468 0
M  V30 2382 H 222.681 0.669382 -0.0943599 0
M  V30 2383 H 225.235 1.83954 -0.913788 0
M  V30 2384 H 223.465 3.79817 0.726357 0
M  V30 2385 H 225.154 4.04071 0.384852 0
M  V30 2386 H 225.92 4.38382 -2.07477 0
M  V30 2387 H 221.799 4.52959 -0.857249 0
M  V30 2388 H 225.343 5.62014 -4.13263 0
M  V30 2389 H 221.24 5.76369 -2.90635 0
M  V30 2390 H 222.008 6.63753 -4.78931 0
M  V30 2391 N 224.671 0.411399 1.52136 0
M  V30 2392 C 225.911 -0.163143 2.03748 0
M  V30 2393 C 226.275 -1.42187 1.29022 0
M  V30 2394 O 227.476 -2.075 1.70872 0
M  V30 2395 C 225.747 -0.402651 3.55125 0
M  V30 2396 S 227.306 -0.944315 4.28519 0
M  V30 2397 H 224.124 -0.0439833 0.709638 0
M  V30 2398 H 226.726 0.56484 1.87163 0
M  V30 2399 H 225.43 0.520212 4.0709 0
M  V30 2400 H 224.961 -1.15844 3.75957 0
M  V30 2401 H 226.976 -2.22463 4.43536 0
M  V30 2402 N 226.149 -1.5696 0.141893 0
M  V30 2403 C 227.397 -1.95573 -0.509484 0
M  V30 2404 C 227.718 -1.02746 -1.65736 0
M  V30 2405 O 226.988 -0.0880311 -1.95702 0
M  V30 2406 H 225.568 -0.722115 -0.191205 0
M  V30 2407 H 228.23 -1.93697 0.216196 0
M  V30 2408 H 227.326 -2.99171 -0.889 0
M  V30 2409 N 227.627 0.131896 -1.57047 0
M  V30 2410 C 228.874 0.841932 -1.84168 0
M  V30 2411 C 229.202 1.8048 -0.725066 0
M  V30 2412 O 228.457 1.93618 0.284692 0
M  V30 2413 C 228.756 1.63703 -3.17704 0
M  V30 2414 C 228.422 0.81961 -4.43388 0
M  V30 2415 C 227.084 0.594148 -4.77518 0
M  V30 2416 C 229.436 0.248977 -5.20605 0
M  V30 2417 C 226.764 -0.212409 -5.86315 0
M  V30 2418 C 229.116 -0.544701 -6.30251 0
M  V30 2419 C 227.78 -0.780599 -6.6292 0
M  V30 2420 H 227.05 0.308085 -0.673917 0
M  V30 2421 H 229.697 0.104867 -1.91213 0
M  V30 2422 H 228.002 2.44464 -3.06177 0
M  V30 2423 H 229.699 2.19015 -3.35907 0
M  V30 2424 H 226.289 1.00542 -4.16641 0
M  V30 2425 H 230.473 0.410408 -4.946 0
M  V30 2426 H 225.729 -0.404524 -6.1006 0
M  V30 2427 H 229.903 -0.993922 -6.89271 0
M  V30 2428 H 227.53 -1.40742 -7.47058 0
M  V30 2429 N 229.106 1.52395 0.401703 0
M  V30 2430 C 230.346 1.68498 1.15705 0
M  V30 2431 C 230.71 0.409748 1.87577 0
M  V30 2432 O 231.911 0.446983 2.65058 0
M  V30 2433 C 230.182 2.87789 2.11924 0
M  V30 2434 S 231.741 3.24415 2.95466 0
M  V30 2435 H 228.559 0.593267 0.391862 0
M  V30 2436 H 231.161 1.90408 0.443282 0
M  V30 2437 H 229.865 3.7884 1.57824 0
M  V30 2438 H 229.396 2.68175 2.87829 0
M  V30 2439 H 231.411 2.73614 4.13944 0
M  V30 2440 N 230.584 -0.659388 1.43143 0
M  V30 2441 C 231.516 -1.7849 1.43784 0
M  V30 2442 C 232.529 -1.5932 0.334787 0
M  V30 2443 O 233.718 -1.68155 0.598842 0
M  V30 2444 C 230.818 -3.15828 1.22906 0
M  V30 2445 C 229.991 -3.61711 2.45934 0
M  V30 2446 C 229.05 -4.77831 2.20371 0
M  V30 2447 O 228.076 -4.87586 2.93681 0
M  V30 2448 N 229.278 -5.67611 1.21647 0
M  V30 2449 H 232.043 -1.7842 2.40803 0
M  V30 2450 H 229.604 -0.84302 1.3822 0
M  V30 2451 H 231.596 -3.91189 1.03697 0
M  V30 2452 H 230.166 -3.10707 0.343542 0
M  V30 2453 H 229.386 -2.76861 2.80609 0
M  V30 2454 H 230.674 -3.89112 3.27825 0
M  V30 2455 H 230.072 -5.62397 0.610449 0
M  V30 2456 H 228.629 -6.42719 1.08423 0
M  V30 2457 N 232.062 -1.29571 -0.897171 0
M  V30 2458 C 232.972 -1.16808 -2.03453 0
M  V30 2459 C 233.988 -0.0907471 -1.73763 0
M  V30 2460 O 235.164 -0.303312 -1.99103 0
M  V30 2461 C 232.229 -0.848264 -3.36163 0
M  V30 2462 C 231.29 -2.0097 -3.79354 0
M  V30 2463 C 230.523 -1.70505 -5.05731 0
M  V30 2464 O 230.746 -0.62718 -5.66941 0
M  V30 2465 O 229.68 -2.5538 -5.45036 0
M  V30 2466 H 233.506 -2.12325 -2.17144 0
M  V30 2467 H 231.091 -1.09047 -1.02123 0
M  V30 2468 H 232.973 -0.684581 -4.15802 0
M  V30 2469 H 231.648 0.0771071 -3.23608 0
M  V30 2470 H 230.555 -2.22863 -3.00471 0
M  V30 2471 H 231.888 -2.91636 -3.96496 0
M  V30 2472 N 233.54 1.10788 -1.12088 0
M  V30 2473 C 234.503 2.15207 -0.788577 0
M  V30 2474 C 235.503 1.59609 0.195317 0
M  V30 2475 O 236.693 1.74174 -0.0300193 0
M  V30 2476 C 233.825 3.4047 -0.171174 0
M  V30 2477 H 235.018 2.46116 -1.71368 0
M  V30 2478 H 232.571 1.26089 -0.923652 0
M  V30 2479 H 233.306 3.15176 0.763832 0
M  V30 2480 H 233.091 3.82109 -0.879514 0
M  V30 2481 H 234.581 4.17576 0.04496 0
M  V30 2482 N 235.018 0.912232 1.28515 0
M  V30 2483 C 236.258 0.551677 1.96814 0
M  V30 2484 C 236.622 -0.887825 1.7024 0
M  V30 2485 O 237.823 -1.35588 2.32098 0
M  V30 2486 C 236.094 0.850555 3.47132 0
M  V30 2487 S 237.653 0.59619 4.34731 0
M  V30 2488 H 234.471 0.204191 0.681049 0
M  V30 2489 H 237.073 1.17736 1.56072 0
M  V30 2490 H 235.777 1.8962 3.63968 0
M  V30 2491 H 235.308 0.213471 3.9282 0
M  V30 2492 H 237.323 -0.553154 4.93107 0
M  V30 2493 N 236.496 -1.42363 0.676048 0
M  V30 2494 C 237.907 -1.84649 0.275948 0
M  V30 2495 C 238.258 -1.56588 -1.18214 0
M  V30 2496 O 237.383 -1.02634 -1.90513 0
M  V30 2497 C 237.978 -3.35178 0.494053 0
M  V30 2498 C 236.537 -3.76109 0.148061 0
M  V30 2499 C 235.684 -2.65931 0.785891 0
M  V30 2500 H 238.635 -1.32192 0.878121 0
M  V30 2501 H 238.656 -3.79655 -0.25343 0
M  V30 2502 H 238.168 -3.55571 1.55535 0
M  V30 2503 H 236.269 -3.61323 -0.909742 0
M  V30 2504 H 236.382 -4.7546 0.589454 0
M  V30 2505 H 234.746 -2.53773 0.217113 0
M  V30 2506 H 235.529 -2.89146 1.85067 0
M  V30 2507 N 237.974 -0.419461 -1.51915 0
M  V30 2508 C 239.22 0.153166 -2.02221 0
M  V30 2509 C 239.553 1.43907 -1.30401 0
M  V30 2510 O 238.828 1.90055 -0.413438 0
M  V30 2511 C 239.111 0.390291 -3.57979 0
M  V30 2512 C 238.964 -0.913014 -4.40436 0
M  V30 2513 C 240.283 1.16794 -4.2432 0
M  V30 2514 H 237.402 0.0541924 -0.735005 0
M  V30 2515 H 240.044 -0.554955 -1.81715 0
M  V30 2516 H 238.194 0.993491 -3.75582 0
M  V30 2517 H 239.866 -1.54882 -4.34522 0
M  V30 2518 H 238.109 -1.52168 -4.06236 0
M  V30 2519 H 238.78 -0.701361 -5.47526 0
M  V30 2520 H 241.256 0.657161 -4.10878 0
M  V30 2521 H 240.132 1.3026 -5.3322 0
M  V30 2522 H 240.393 2.19132 -3.83971 0
M  V30 2523 N 239.452 1.56882 -0.150215 0
M  V30 2524 C 240.729 1.87844 0.545327 0
M  V30 2525 C 241.109 1.0567 1.82749 0
M  V30 2526 O 240.457 0.144442 2.28043 0
M  V30 2527 C 240.667 3.39526 0.80767 0
M  V30 2528 C 242.015 4.08814 1.14703 0
M  V30 2529 O 243.039 3.44723 0.896917 0
M  V30 2530 O 241.898 5.22004 1.61784 0
M  V30 2531 H 238.992 0.778677 0.278553 0
M  V30 2532 H 241.538 1.68666 -0.187068 0
M  V30 2533 H 240.31 3.91173 -0.0996096 0
M  V30 2534 H 239.933 3.64243 1.59413 0
M  V30 2535 N 240.93 -0.123565 1.57115 0
M  V30 2536 C 241.893 -1.13583 1.99076 0
M  V30 2537 C 242.893 -1.34564 0.880296 0
M  V30 2538 O 244.083 -1.31158 1.14644 0
M  V30 2539 C 241.215 -2.49128 2.32698 0
M  V30 2540 H 242.408 -0.775287 2.89706 0
M  V30 2541 H 239.961 -0.36771 1.51913 0
M  V30 2542 H 240.696 -2.90111 1.44934 0
M  V30 2543 H 240.481 -2.35255 3.13684 0
M  V30 2544 H 241.971 -3.2199 2.65918 0
M  V30 2545 N 242.408 -1.52605 -0.393616 0
M  V30 2546 C 243.657 -1.66649 -1.13627 0
M  V30 2547 C 243.97 -0.410364 -1.91247 0
M  V30 2548 O 245.176 -0.430854 -2.68059 0
M  V30 2549 C 243.632 -2.9449 -2.06891 0
M  V30 2550 C 243.24 -4.27266 -1.34714 0
M  V30 2551 C 244.984 -3.17899 -2.81319 0
M  V30 2552 C 242.891 -5.46217 -2.26717 0
M  V30 2553 H 241.821 -0.62084 -0.427871 0
M  V30 2554 H 244.472 -1.791 -0.399428 0
M  V30 2555 H 242.854 -2.75774 -2.84191 0
M  V30 2556 H 244.028 -4.56518 -0.626714 0
M  V30 2557 H 242.343 -4.10081 -0.722643 0
M  V30 2558 H 244.94 -4.03949 -3.50328 0
M  V30 2559 H 245.283 -2.32777 -3.45139 0
M  V30 2560 H 245.816 -3.37159 -2.11113 0
M  V30 2561 H 242.555 -6.33733 -1.67521 0
M  V30 2562 H 242.075 -5.21283 -2.96689 0
M  V30 2563 H 243.754 -5.7991 -2.86903 0
M  V30 2564 N 243.887 0.651787 -1.4349 0
M  V30 2565 C 245.133 1.41376 -1.45398 0
M  V30 2566 C 245.466 1.94041 -0.0784823 0
M  V30 2567 O 244.741 1.72379 0.900878 0
M  V30 2568 C 245.024 2.59414 -2.49752 0
M  V30 2569 C 244.877 2.12232 -3.96582 0
M  V30 2570 C 246.196 3.61626 -2.50827 0
M  V30 2571 H 243.315 0.512719 -0.529422 0
M  V30 2572 H 245.957 0.738796 -1.75048 0
M  V30 2573 H 244.107 3.16997 -2.246 0
M  V30 2574 H 245.779 1.59639 -4.32797 0
M  V30 2575 H 244.022 1.43592 -4.09346 0
M  V30 2576 H 244.693 2.9712 -4.65214 0
M  V30 2577 H 247.169 3.13805 -2.7325 0
M  V30 2578 H 246.045 4.41766 -3.25783 0
M  V30 2579 H 246.306 4.14314 -1.5426 0
M  V30 2580 N 245.365 1.30045 0.890287 0
M  V30 2581 C 246.275 1.17885 2.02831 0
M  V30 2582 C 247.291 0.0999609 1.73713 0
M  V30 2583 O 248.467 0.313867 1.98939 0
M  V30 2584 C 245.532 0.866079 3.35708 0
M  V30 2585 C 244.593 2.02979 3.78283 0
M  V30 2586 C 243.826 1.73184 5.0482 0
M  V30 2587 O 244.049 0.657237 5.66601 0
M  V30 2588 O 242.983 2.58267 5.43674 0
M  V30 2589 H 246.809 2.13474 2.16015 0
M  V30 2590 H 244.394 1.09587 1.01543 0
M  V30 2591 H 246.276 0.706623 4.15433 0
M  V30 2592 H 244.951 -0.0599443 3.23644 0
M  V30 2593 H 243.858 2.24454 2.99285 0
M  V30 2594 H 245.191 2.93734 3.94944 0
M  V30 2595 N 246.843 -1.10192 1.12674 0
M  V30 2596 C 248.091 -1.81845 0.881861 0
M  V30 2597 C 248.412 -1.85737 -0.593867 0
M  V30 2598 O 247.682 -1.33724 -1.4316 0
M  V30 2599 H 246.262 -0.673432 0.323261 0
M  V30 2600 H 248.924 -1.33316 1.42172 0
M  V30 2601 H 248.02 -2.85288 1.2656 0
M  V30 2602 N 248.321 -0.919034 -1.28029 0
M  V30 2603 C 249.732 -0.600735 -1.76771 0
M  V30 2604 C 250.083 0.884024 -1.75156 0
M  V30 2605 O 249.208 1.69163 -1.34956 0
M  V30 2606 C 249.803 -1.08372 -3.21 0
M  V30 2607 C 248.362 -0.816248 -3.67443 0
M  V30 2608 C 247.509 -1.24742 -2.47658 0
M  V30 2609 H 250.46 -1.09974 -1.14418 0
M  V30 2610 H 250.481 -0.427512 -3.78091 0
M  V30 2611 H 249.993 -2.16437 -3.22144 0
M  V30 2612 H 248.094 0.250968 -3.71754 0
M  V30 2613 H 248.207 -1.4277 -4.57333 0
M  V30 2614 H 246.571 -0.666083 -2.45836 0
M  V30 2615 H 247.354 -2.33653 -2.51518 0
M  V30 2616 N 249.799 1.42003 -0.683588 0
M  V30 2617 C 250.747 2.326 0.000815408 0
M  V30 2618 C 251.741 1.50308 0.781278 0
M  V30 2619 O 252.947 1.66322 0.688251 0
M  V30 2620 H 249.322 0.751758 0.0190616 0
M  V30 2621 H 251.293 2.88011 -0.780528 0
M  V30 2622 C 250.042 3.34978 0.93195 0
M  V30 2623 H 249.365 3.98345 0.340817 0
M  V30 2624 H 250.805 4.00936 1.37936 0
M  V30 2625 C 249.264 2.67925 2.04249 0
M  V30 2626 O 249.794 2.51788 3.12995 0
M  V30 2627 N 248 2.2681 1.81675 0
M  V30 2628 H 247.547 2.40135 0.932363 0
M  V30 2629 H 247.505 1.8228 2.56167 0
M  V30 2630 N 251.277 0.427512 1.51691 0
M  V30 2631 C 252.524 -0.142229 2.02 0
M  V30 2632 C 252.852 -1.43566 1.31221 0
M  V30 2633 O 252.107 -1.91298 0.412744 0
M  V30 2634 C 252.406 -0.418249 3.54944 0
M  V30 2635 C 252.072 0.788187 4.43958 0
M  V30 2636 C 250.734 1.11906 4.68007 0
M  V30 2637 C 253.086 1.59347 4.96244 0
M  V30 2638 C 250.414 2.25608 5.41588 0
M  V30 2639 C 252.766 2.7214 5.71072 0
M  V30 2640 C 251.43 3.05692 5.93387 0
M  V30 2641 H 250.7 -0.0520451 0.73917 0
M  V30 2642 H 253.347 0.572697 1.82736 0
M  V30 2643 H 251.652 -1.21496 3.72486 0
M  V30 2644 H 253.349 -0.872339 3.91397 0
M  V30 2645 H 249.939 0.520344 4.2543 0
M  V30 2646 H 254.123 1.35106 4.77556 0
M  V30 2647 H 249.379 2.51929 5.57083 0
M  V30 2648 H 253.553 3.34914 6.10578 0
M  V30 2649 H 251.18 3.9391 6.50184 0
M  V30 2650 N 252.755 -1.56801 0.158532 0
M  V30 2651 C 253.665 -2.20916 -0.789518 0
M  V30 2652 C 254.681 -1.1969 -1.26294 0
M  V30 2653 O 255.857 -1.52308 -1.31773 0
M  V30 2654 C 252.922 -2.82727 -2.00665 0
M  V30 2655 C 251.983 -3.99114 -1.58134 0
M  V30 2656 C 251.216 -4.57968 -2.74045 0
M  V30 2657 O 251.439 -4.15704 -3.90572 0
M  V30 2658 O 250.373 -5.48047 -2.48855 0
M  V30 2659 H 254.199 -3.02464 -0.273681 0
M  V30 2660 H 251.784 -1.4924 -0.0690548 0
M  V30 2661 H 253.666 -3.21968 -2.71872 0
M  V30 2662 H 252.341 -2.04184 -2.51179 0
M  V30 2663 H 251.248 -3.64567 -0.839155 0
M  V30 2664 H 252.581 -4.79212 -1.12325 0
M  V30 2665 N 254.233 0.115231 -1.57178 0
M  V30 2666 C 255.48 0.822351 -1.8505 0
M  V30 2667 C 255.808 1.79701 -0.744168 0
M  V30 2668 O 255.063 1.93909 0.26414 0
M  V30 2669 C 255.362 1.60324 -3.19423 0
M  V30 2670 C 255.028 0.772536 -4.44233 0
M  V30 2671 C 253.69 0.543468 -4.78121 0
M  V30 2672 C 256.042 0.193746 -5.2084 0
M  V30 2673 C 253.37 -0.274583 -5.86057 0
M  V30 2674 C 255.722 -0.611517 -6.29637 0
M  V30 2675 C 254.386 -0.850867 -6.62055 0
M  V30 2676 H 253.656 0.30092 -0.677147 0
M  V30 2677 H 256.303 0.0845802 -1.91313 0
M  V30 2678 H 254.608 2.41203 -3.08753 0
M  V30 2679 H 256.305 2.1544 -3.38211 0
M  V30 2680 H 252.895 0.96117 -4.17683 0
M  V30 2681 H 257.079 0.357926 -4.95008 0
M  V30 2682 H 252.335 -0.469206 -6.09597 0
M  V30 2683 H 256.509 -1.06697 -6.88178 0
M  V30 2684 H 254.136 -1.48657 -7.45523 0
M  V30 2685 N 255.711 1.52812 0.385517 0
M  V30 2686 C 256.936 1.72207 1.15583 0
M  V30 2687 C 257.361 0.441034 1.82857 0
M  V30 2688 O 256.719 -0.603465 1.70962 0
M  V30 2689 C 256.767 2.87476 2.17692 0
M  V30 2690 O 255.871 2.54693 3.24354 0
M  V30 2691 H 255.212 0.572526 0.336319 0
M  V30 2692 H 257.742 1.99618 0.448744 0
M  V30 2693 H 257.752 3.13072 2.6163 0
M  V30 2694 H 256.427 3.80408 1.68115 0
M  V30 2695 H 255.004 2.3985 2.85529 0
M  V30 2696 N 257.189 -0.644168 1.43834 0
M  V30 2697 C 258.417 -1.43147 1.49387 0
M  V30 2698 C 258.832 -1.88452 0.114583 0
M  V30 2699 O 258.189 -1.60047 -0.876989 0
M  V30 2700 C 258.24 -2.66046 2.44748 0
M  V30 2701 O 257.961 -2.22633 3.77314 0
M  V30 2702 C 259.462 -3.59311 2.59635 0
M  V30 2703 H 256.682 -0.439447 0.507077 0
M  V30 2704 H 259.226 -0.78895 1.88669 0
M  V30 2705 H 257.381 -3.26418 2.08638 0
M  V30 2706 H 257.795 -3.02216 4.28679 0
M  V30 2707 H 259.269 -4.42187 3.30416 0
M  V30 2708 H 259.746 -4.07259 1.64427 0
M  V30 2709 H 260.352 -3.04816 2.96593 0
M  V30 2710 N 258.668 -1.30515 -0.883378 0
M  V30 2711 C 259.578 -1.18959 -2.02203 0
M  V30 2712 C 260.594 -0.109172 -1.73657 0
M  V30 2713 O 261.77 -0.324413 -1.9877 0
M  V30 2714 C 258.835 -0.883871 -3.35244 0
M  V30 2715 C 257.896 -2.04982 -3.77201 0
M  V30 2716 C 257.129 -1.75859 -5.03894 0
M  V30 2717 O 257.352 -0.687276 -5.66244 0
M  V30 2718 O 256.286 -2.61146 -5.42297 0
M  V30 2719 H 260.112 -2.14616 -2.1488 0
M  V30 2720 H 257.697 -1.10124 -1.0096 0
M  V30 2721 H 259.579 -0.728644 -4.15053 0
M  V30 2722 H 258.254 0.0427798 -3.23672 0
M  V30 2723 H 257.161 -2.26038 -2.9809 0
M  V30 2724 H 258.494 -2.95825 -3.93381 0
M  V30 2725 N 260.146 1.09593 -1.13257 0
M  V30 2726 C 261.374 1.855 -0.916378 0
M  V30 2727 C 261.789 1.81069 0.534738 0
M  V30 2728 O 261.146 1.20562 1.37007 0
M  V30 2729 C 261.197 3.33546 -1.39388 0
M  V30 2730 O 260.918 3.37927 -2.78813 0
M  V30 2731 C 262.419 4.26299 -1.21588 0
M  V30 2732 H 259.639 0.585991 -0.326887 0
M  V30 2733 H 262.183 1.38488 -1.5047 0
M  V30 2734 H 260.338 3.77992 -0.848597 0
M  V30 2735 H 260.752 4.30254 -2.9997 0
M  V30 2736 H 262.226 5.28341 -1.59876 0
M  V30 2737 H 262.703 4.38918 -0.157376 0
M  V30 2738 H 263.309 3.87668 -1.7491 0
M  V30 2739 N 261.624 0.925811 1.2754 0
M  V30 2740 C 262.574 0.394488 2.24561 0
M  V30 2741 C 263.558 -0.500183 1.52928 0
M  V30 2742 O 264.75 -0.337936 1.73744 0
M  V30 2743 C 261.879 -0.353328 3.41477 0
M  V30 2744 C 260.965 0.557752 4.20416 0
M  V30 2745 N 261.356 1.67674 4.77199 0
M  V30 2746 C 259.654 0.360404 4.44541 0
M  V30 2747 C 260.355 2.24324 5.36706 0
M  V30 2748 N 259.331 1.53305 5.21535 0
M  V30 2749 H 263.133 1.2489 2.66045 0
M  V30 2750 H 260.647 0.779864 1.4245 0
M  V30 2751 H 262.644 -0.7509 4.10082 0
M  V30 2752 H 261.304 -1.20469 3.01525 0
M  V30 2753 H 262.315 2.05915 4.75204 0
M  V30 2754 H 258.992 -0.450454 4.15063 0
M  V30 2755 H 260.382 3.18521 5.91603 0
M  V30 2756 N 263.102 -1.41638 0.69111 0
M  V30 2757 C 264.012 -2.34588 0.0233487 0
M  V30 2758 C 265.028 -1.55987 -0.770984 0
M  V30 2759 O 266.204 -1.88486 -0.709569 0
M  V30 2760 C 263.269 -3.34684 -0.904851 0
M  V30 2761 C 262.33 -4.29176 -0.103225 0
M  V30 2762 C 261.563 -5.2449 -0.987216 0
M  V30 2763 O 261.786 -5.2514 -2.22674 0
M  V30 2764 O 260.72 -6.00295 -0.439281 0
M  V30 2765 H 264.546 -2.93261 0.789416 0
M  V30 2766 H 262.131 -1.42417 0.45142 0
M  V30 2767 H 264.013 -3.96133 -1.43724 0
M  V30 2768 H 262.688 -2.78461 -1.65049 0
M  V30 2769 H 261.595 -3.71089 0.473655 0
M  V30 2770 H 262.928 -4.88484 0.60365 0
M  V30 2771 N 264.58 -0.43555 -1.51462 0
M  V30 2772 C 265.49 0.383001 -2.31453 0
M  V30 2773 C 266.506 1.02931 -1.4029 0
M  V30 2774 O 267.682 1.02507 -1.73362 0
M  V30 2775 C 264.747 1.47043 -3.13973 0
M  V30 2776 C 263.808 0.844433 -4.20913 0
M  V30 2777 C 263.041 1.88004 -4.9949 0
M  V30 2778 O 263.264 3.10199 -4.78678 0
M  V30 2779 O 262.198 1.47157 -5.83634 0
M  V30 2780 H 266.024 -0.269964 -3.02498 0
M  V30 2781 H 263.609 -0.19813 -1.4808 0
M  V30 2782 H 265.491 2.10113 -3.65281 0
M  V30 2783 H 264.166 2.10751 -2.45695 0
M  V30 2784 H 263.073 0.175729 -3.73687 0
M  V30 2785 H 264.406 0.250869 -4.9156 0
M  V30 2786 N 266.058 1.56714 -0.166846 0
M  V30 2787 C 266.988 2.20754 0.760913 0
M  V30 2788 C 267.969 1.16178 1.24244 0
M  V30 2789 O 269.154 1.44592 1.29641 0
M  V30 2790 C 266.284 2.84478 1.99223 0
M  V30 2791 C 265.238 3.95053 1.64672 0
M  V30 2792 C 264.564 4.45805 2.95232 0
M  V30 2793 C 265.864 5.14865 0.878155 0
M  V30 2794 H 267.558 2.98537 0.22713 0
M  V30 2795 H 265.104 1.43596 0.107805 0
M  V30 2796 H 267.057 3.27951 2.64624 0
M  V30 2797 H 265.781 2.04056 2.55007 0
M  V30 2798 H 264.44 3.52228 1.01641 0
M  V30 2799 H 264.088 3.62181 3.49047 0
M  V30 2800 H 263.788 5.204 2.7287 0
M  V30 2801 H 265.312 4.91962 3.6167 0
M  V30 2802 H 266.726 5.55059 1.43466 0
M  V30 2803 H 265.123 5.95348 0.753738 0
M  V30 2804 H 266.193 4.84735 -0.126377 0
M  V30 2805 N 267.536 -0.106894 1.57237 0
M  V30 2806 C 268.466 -1.13148 2.04254 0
M  V30 2807 C 269.447 -1.42476 0.929224 0
M  V30 2808 O 270.632 -1.52709 1.19973 0
M  V30 2809 C 267.762 -2.4545 2.45706 0
M  V30 2810 C 266.716 -2.30558 3.60592 0
M  V30 2811 C 266.042 -3.67931 3.87983 0
M  V30 2812 C 267.342 -1.75597 4.91897 0
M  V30 2813 H 269.036 -0.740374 2.90101 0
M  V30 2814 H 266.582 -0.354696 1.39563 0
M  V30 2815 H 268.535 -3.17389 2.77205 0
M  V30 2816 H 267.259 -2.86475 1.56843 0
M  V30 2817 H 265.918 -1.61067 3.29322 0
M  V30 2818 H 265.566 -4.06462 2.96306 0
M  V30 2819 H 265.266 -3.58817 4.65322 0
M  V30 2820 H 266.79 -4.41356 4.21945 0
M  V30 2821 H 268.204 -2.37364 5.21854 0
M  V30 2822 H 266.601 -1.77272 5.73319 0
M  V30 2823 H 267.671 -0.714451 4.79608 0
M  V30 2824 N 269.014 -1.53014 -0.377408 0
M  V30 2825 C 270.244 -1.72265 -1.14054 0
M  V30 2826 C 270.652 -0.44601 -1.83868 0
M  V30 2827 O 269.995 0.590095 -1.73964 0
M  V30 2828 C 270.057 -2.82492 -2.22348 0
M  V30 2829 C 269.721 -4.23233 -1.72402 0
M  V30 2830 C 270.718 -5.05992 -1.19448 0
M  V30 2831 C 268.403 -4.696 -1.78273 0
M  V30 2832 C 270.397 -6.33203 -0.730268 0
M  V30 2833 C 268.084 -5.96792 -1.31464 0
M  V30 2834 C 269.082 -6.78424 -0.789297 0
M  V30 2835 O 268.77 -8.0323 -0.328077 0
M  V30 2836 H 268.502 -0.579873 -0.347453 0
M  V30 2837 H 271.056 -2.00502 -0.445882 0
M  V30 2838 H 269.286 -2.49702 -2.95272 0
M  V30 2839 H 270.975 -2.90034 -2.83963 0
M  V30 2840 H 271.741 -4.71349 -1.14259 0
M  V30 2841 H 267.62 -4.06142 -2.18106 0
M  V30 2842 H 271.164 -6.96868 -0.319542 0
M  V30 2843 H 267.061 -6.30937 -1.36342 0
M  V30 2844 H 267.829 -8.1727 -0.448493 0
M  V30 2845 N 270.492 0.636531 -1.44174 0
M  V30 2846 C 271.44 1.76995 -1.50915 0
M  V30 2847 C 272.434 1.65053 -0.381295 0
M  V30 2848 O 273.64 1.71197 -0.55601 0
M  V30 2849 H 270.015 0.584247 -0.473455 0
M  V30 2850 H 271.986 1.68432 -2.4632 0
M  V30 2851 C 270.735 3.15314 -1.46534 0
M  V30 2852 H 270.058 3.25149 -2.32633 0
M  V30 2853 H 271.498 3.9453 -1.55312 0
M  V30 2854 C 269.957 3.3639 -0.185305 0
M  V30 2855 O 270.487 3.94699 0.746688 0
M  V30 2856 N 268.693 2.9046 -0.0901606 0
M  V30 2857 H 268.24 2.43193 -0.849416 0
M  V30 2858 H 268.198 3.04937 0.765553 0
M  V30 2859 N 271.97 1.30982 0.876444 0
M  V30 2860 C 272.917 1.18085 1.98304 0
M  V30 2861 C 273.887 0.0682263 1.6596 0
M  V30 2862 O 275.072 0.239937 1.89285 0
M  V30 2863 C 272.212 0.887475 3.33493 0
M  V30 2864 C 271.325 2.08281 3.78475 0
M  V30 2865 C 270.46 1.72678 5.0235 0
M  V30 2866 C 269.499 2.88657 5.39762 0
M  V30 2867 N 268.636 2.53292 6.54819 0
M  V30 2868 H 273.476 2.1275 2.08666 0
M  V30 2869 H 271.013 1.05839 1.02159 0
M  V30 2870 H 272.971 0.697961 4.1132 0
M  V30 2871 H 271.601 -0.022315 3.22792 0
M  V30 2872 H 270.653 2.3833 2.96484 0
M  V30 2873 H 271.965 2.95108 4.02135 0
M  V30 2874 H 271.119 1.50151 5.87826 0
M  V30 2875 H 269.858 0.830327 4.8058 0
M  V30 2876 H 268.863 3.1184 4.52809 0
M  V30 2877 H 270.088 3.79002 5.63502 0
M  V30 2878 H 268.034 1.66163 6.34607 0
M  V30 2879 H 267.951 3.3365 6.7839 0
M  V30 2880 H 269.219 2.34143 7.43503 0
M  V30 2881 N 273.449 -1.08991 1.13837 0
M  V30 2882 C 274.359 -2.19301 0.833333 0
M  V30 2883 C 275.375 -1.73026 -0.183847 0
M  V30 2884 O 276.551 -2.01395 -0.0138092 0
M  V30 2885 C 273.616 -3.45323 0.308651 0
M  V30 2886 C 272.677 -4.06255 1.38764 0
M  V30 2887 C 271.91 -5.26262 0.887896 0
M  V30 2888 O 272.133 -5.69747 -0.27287 0
M  V30 2889 O 271.067 -5.78435 1.66421 0
M  V30 2890 H 274.893 -2.47854 1.75506 0
M  V30 2891 H 272.478 -1.18012 0.916166 0
M  V30 2892 H 274.36 -4.21394 0.0216739 0
M  V30 2893 H 273.035 -3.18362 -0.585431 0
M  V30 2894 H 271.942 -3.318 1.72799 0
M  V30 2895 H 273.275 -4.37452 2.25602 0
M  V30 2896 N 274.927 -0.932562 -1.27047 0
M  V30 2897 C 275.874 -0.434072 -2.26681 0
M  V30 2898 C 276.844 0.501639 -1.58344 0
M  V30 2899 O 278.029 0.419734 -1.86126 0
M  V30 2900 C 275.169 0.30261 -3.43771 0
M  V30 2901 C 274.282 -0.667774 -4.26808 0
M  V30 2902 C 273.417 0.0892393 -5.31125 0
M  V30 2903 C 272.456 -0.873532 -6.05835 0
M  V30 2904 N 271.593 -0.148832 -7.01942 0
M  V30 2905 H 276.433 -1.28868 -2.68695 0
M  V30 2906 H 273.97 -0.646713 -1.32121 0
M  V30 2907 H 275.928 0.746092 -4.10474 0
M  V30 2908 H 274.558 1.12142 -3.02695 0
M  V30 2909 H 273.61 -1.22978 -3.59973 0
M  V30 2910 H 274.922 -1.40337 -4.78651 0
M  V30 2911 H 274.076 0.592409 -6.03801 0
M  V30 2912 H 272.815 0.85777 -4.80097 0
M  V30 2913 H 271.82 -1.38791 -5.31994 0
M  V30 2914 H 273.045 -1.64193 -6.58952 0
M  V30 2915 H 270.991 0.601365 -6.53238 0
M  V30 2916 H 270.908 -0.82391 -7.51497 0
M  V30 2917 H 272.176 0.333527 -7.78786 0
M  V30 2918 N 276.405 1.4127 -0.698611 0
M  V30 2919 C 277.335 2.33447 -0.049629 0
M  V30 2920 C 278.316 1.51982 0.763898 0
M  V30 2921 O 279.501 1.80509 0.716257 0
M  V30 2922 C 276.631 3.35828 0.885267 0
M  V30 2923 C 275.585 4.27627 0.178613 0
M  V30 2924 C 274.911 5.20406 1.22807 0
M  V30 2925 C 276.211 5.13459 -0.956933 0
M  V30 2926 H 277.905 2.87966 -0.81951 0
M  V30 2927 H 275.451 1.38461 -0.395538 0
M  V30 2928 H 277.404 3.9924 1.34854 0
M  V30 2929 H 276.128 2.79666 1.68685 0
M  V30 2930 H 274.787 3.65643 -0.26466 0
M  V30 2931 H 274.435 4.60558 2.02226 0
M  V30 2932 H 274.135 5.82661 0.760239 0
M  V30 2933 H 275.659 5.86695 1.69179 0
M  V30 2934 H 277.073 5.70421 -0.573805 0
M  V30 2935 H 275.47 5.8467 -1.35205 0
M  V30 2936 H 276.54 4.50443 -1.79524 0
M  V30 2937 N 277.883 0.443576 1.51229 0
M  V30 2938 C 278.813 -0.355142 2.30783 0
M  V30 2939 C 279.794 -1.0154 1.36468 0
M  V30 2940 O 280.979 -1.01785 1.65389 0
M  V30 2941 C 278.109 -1.45312 3.15439 0
M  V30 2942 C 277.063 -0.916002 4.18083 0
M  V30 2943 C 276.389 -2.1102 4.91299 0
M  V30 2944 C 277.689 0.0538602 5.22272 0
M  V30 2945 H 279.383 0.308767 2.97804 0
M  V30 2946 H 276.929 0.149937 1.43217 0
M  V30 2947 H 278.882 -2.01914 3.69876 0
M  V30 2948 H 277.606 -2.14541 2.46252 0
M  V30 2949 H 276.265 -0.372145 3.64706 0
M  V30 2950 H 275.913 -2.78882 4.18609 0
M  V30 2951 H 275.613 -1.75717 5.60712 0
M  V30 2952 H 277.137 -2.68164 5.48562 0
M  V30 2953 H 278.551 -0.422069 5.71744 0
M  V30 2954 H 276.948 0.319776 5.99247 0
M  V30 2955 H 278.018 0.98858 4.74716 0
M  V30 2956 N 279.361 -1.56624 0.175154 0
M  V30 2957 C 280.309 -2.19468 -0.770495 0
M  V30 2958 C 281.303 -1.15985 -1.23466 0
M  V30 2959 O 282.509 -1.34176 -1.19987 0
M  V30 2960 H 278.884 -0.703095 -0.266761 0
M  V30 2961 H 280.855 -2.97613 -0.216542 0
M  V30 2962 C 279.604 -2.85264 -1.98796 0
M  V30 2963 H 278.927 -3.64623 -1.63983 0
M  V30 2964 H 280.367 -3.327 -2.62843 0
M  V30 2965 C 278.826 -1.85239 -2.81404 0
M  V30 2966 O 279.356 -1.34024 -3.78682 0
M  V30 2967 N 277.562 -1.53911 -2.46495 0
M  V30 2968 H 277.109 -1.95751 -1.67449 0
M  V30 2969 H 277.067 -0.872382 -3.02054 0
M  V30 2970 N 280.839 0.0985539 -1.57292 0
M  V30 2971 C 281.787 1.1387 -2.02821 0
M  V30 2972 C 282.781 1.41676 -0.928666 0
M  V30 2973 O 283.987 1.41398 -1.11385 0
M  V30 2974 H 280.362 0.384419 -0.646317 0
M  V30 2975 H 282.333 0.728347 -2.89375 0
M  V30 2976 C 281.082 2.45166 -2.46554 0
M  V30 2977 H 280.405 2.24613 -3.3074 0
M  V30 2978 H 281.845 3.16456 -2.8219 0
M  V30 2979 C 280.304 3.09216 -1.33742 0
M  V30 2980 O 280.834 3.96163 -0.66464 0
M  V30 2981 N 279.04 2.69413 -1.08928 0
M  V30 2982 H 278.587 1.98801 -1.63817 0
M  V30 2983 H 278.545 3.12594 -0.336458 0
M  V30 2984 N 282.317 1.53212 0.369288 0
M  V30 2985 C 283.565 1.68881 1.11012 0
M  V30 2986 C 283.886 0.441285 1.89941 0
M  V30 2987 O 283.156 -0.544623 1.88177 0
M  V30 2988 H 281.736 0.622569 0.412816 0
M  V30 2989 H 284.398 1.90391 0.416802 0
M  V30 2990 H 283.494 2.54822 1.80201 0
M  V30 2991 N 283.795 -0.628877 1.44509 0
M  V30 2992 C 285.072 -1.38733 1.37886 0
M  V30 2993 C 285.452 -2.11065 0.0387008 0
M  V30 2994 O 284.8 -2.06476 -0.97878 0
M  V30 2995 C 285.01 -2.35188 2.57852 0
M  V30 2996 C 286.358 -2.9845 3.02014 0
M  V30 2997 O 287.382 -2.45513 2.58073 0
M  V30 2998 O 286.241 -3.94487 3.78209 0
M  V30 2999 H 283.335 -0.621015 0.54614 0
M  V30 3000 H 285.881 -0.653744 1.56602 0
M  V30 3001 H 284.653 -1.80855 3.46998 0
M  V30 3002 H 284.276 -3.1596 2.4136 0
M  V30 3003 N 285.273 -1.31445 -0.869486 0
M  V30 3004 C 286.22 -1.19135 -1.97675 0
M  V30 3005 C 287.19 -0.0770266 -1.65921 0
M  V30 3006 O 288.375 -0.249972 -1.89155 0
M  V30 3007 C 285.515 -0.905149 -3.33018 0
M  V30 3008 C 284.628 -2.10285 -3.77365 0
M  V30 3009 C 283.763 -1.75339 -5.01427 0
M  V30 3010 C 282.802 -2.91515 -5.38224 0
M  V30 3011 N 281.939 -2.56762 -6.53466 0
M  V30 3012 H 286.779 -2.13853 -2.07535 0
M  V30 3013 H 284.316 -1.06379 -1.01597 0
M  V30 3014 H 286.274 -0.719765 -4.10944 0
M  V30 3015 H 284.904 0.00519624 -3.228 0
M  V30 3016 H 283.956 -2.39899 -2.95216 0
M  V30 3017 H 285.268 -2.97237 -4.00564 0
M  V30 3018 H 284.422 -1.53266 -5.87022 0
M  V30 3019 H 283.161 -0.855801 -4.80133 0
M  V30 3020 H 282.166 -3.14237 -4.51149 0
M  V30 3021 H 283.391 -3.81985 -5.61484 0
M  V30 3022 H 281.337 -1.69526 -6.33717 0
M  V30 3023 H 281.254 -3.37243 -6.76612 0
M  V30 3024 H 282.522 -2.38083 -7.42251 0
M  V30 3025 N 286.751 1.08385 -1.14413 0
M  V30 3026 C 287.997 1.81212 -0.923793 0
M  V30 3027 C 288.352 1.84555 0.543814 0
M  V30 3028 O 287.645 1.31056 1.39767 0
M  V30 3029 C 287.839 3.26273 -1.45879 0
M  V30 3030 C 287.668 3.37063 -2.97689 0
M  V30 3031 C 286.438 3.4824 -3.66138 0
M  V30 3032 C 288.636 3.28698 -3.95553 0
M  V30 3033 N 286.618 3.47824 -5.05858 0
M  V30 3034 C 287.989 3.35276 -5.21527 0
M  V30 3035 C 290.044 3.12437 -3.8767 0
M  V30 3036 C 288.747 3.27267 -6.40538 0
M  V30 3037 C 290.773 3.05757 -5.06228 0
M  V30 3038 C 290.135 3.12938 -6.3107 0
M  V30 3039 H 286.234 0.6769 -0.391574 0
M  V30 3040 H 288.818 1.29455 -1.45429 0
M  V30 3041 H 286.989 3.76474 -0.95507 0
M  V30 3042 H 288.721 3.87165 -1.17835 0
M  V30 3043 H 285.476 3.52141 -3.16692 0
M  V30 3044 H 285.9 3.51171 -5.78798 0
M  V30 3045 H 290.542 3.05747 -2.92025 0
M  V30 3046 H 288.26 3.32718 -7.36427 0
M  V30 3047 H 291.846 2.94295 -5.01878 0
M  V30 3048 H 290.726 3.078 -7.21269 0
M  V30 3049 N 288.23 0.939286 1.26551 0
M  V30 3050 C 289.14 0.453432 2.30176 0
M  V30 3051 C 290.156 -0.471649 1.67486 0
M  V30 3052 O 291.332 -0.35164 1.98306 0
M  V30 3053 C 288.397 -0.275326 3.45605 0
M  V30 3054 C 287.458 0.686084 4.23782 0
M  V30 3055 C 286.691 -0.00798994 5.33699 0
M  V30 3056 O 286.914 -1.22528 5.57085 0
M  V30 3057 O 285.848 0.669746 5.98162 0
M  V30 3058 H 289.674 1.31416 2.73795 0
M  V30 3059 H 287.259 0.705095 1.31715 0
M  V30 3060 H 289.141 -0.685911 4.1578 0
M  V30 3061 H 287.816 -1.11147 3.0402 0
M  V30 3062 H 286.723 1.14658 3.56096 0
M  V30 3063 H 288.056 1.48979 4.69112 0
M  V30 3064 N 289.708 -1.40897 0.706093 0
M  V30 3065 C 290.671 -2.29131 0.0562841 0
M  V30 3066 C 291.671 -1.44901 -0.697166 0
M  V30 3067 O 292.861 -1.65926 -0.530484 0
M  V30 3068 C 289.993 -3.27957 -0.93043 0
M  V30 3069 H 291.186 -2.88091 0.833284 0
M  V30 3070 H 288.739 -1.4906 0.470192 0
M  V30 3071 H 289.474 -2.73997 -1.73482 0
M  V30 3072 H 289.259 -3.90124 -0.393166 0
M  V30 3073 H 290.749 -3.94049 -1.38256 0
M  V30 3074 N 291.186 -0.45159 -1.50991 0
M  V30 3075 C 292.096 0.358431 -2.31846 0
M  V30 3076 C 293.112 1.01438 -1.41373 0
M  V30 3077 O 294.288 1.00663 -1.74439 0
M  V30 3078 C 291.353 1.43704 -3.15515 0
M  V30 3079 C 290.414 0.799742 -4.21785 0
M  V30 3080 C 289.647 1.82696 -5.01456 0
M  V30 3081 O 289.87 3.05105 -4.81941 0
M  V30 3082 O 288.804 1.40958 -5.85162 0
M  V30 3083 H 292.63 -0.302032 -3.02194 0
M  V30 3084 H 290.215 -0.213825 -1.47862 0
M  V30 3085 H 292.097 2.06227 -3.67489 0
M  V30 3086 H 290.772 2.08133 -2.47916 0
M  V30 3087 H 289.679 0.136084 -3.73852 0
M  V30 3088 H 291.012 0.198718 -4.91799 0
M  V30 3089 N 292.664 1.56529 -0.183458 0
M  V30 3090 C 293.913 1.96419 0.458511 0
M  V30 3091 C 294.226 1.0727 1.63562 0
M  V30 3092 O 295.432 1.36893 2.34462 0
M  V30 3093 C 293.888 3.49298 0.867122 0
M  V30 3094 C 293.496 4.47092 -0.285057 0
M  V30 3095 C 295.24 3.97983 1.47683 0
M  V30 3096 C 293.147 5.91225 0.143862 0
M  V30 3097 H 292.077 0.733394 0.175071 0
M  V30 3098 H 294.728 1.81448 -0.273624 0
M  V30 3099 H 293.11 3.59731 1.65559 0
M  V30 3100 H 294.284 4.48383 -1.0625 0
M  V30 3101 H 292.599 4.08535 -0.805503 0
M  V30 3102 H 295.196 5.03134 1.80999 0
M  V30 3103 H 295.539 3.41618 2.37914 0
M  V30 3104 H 296.072 3.90617 0.752562 0
M  V30 3105 H 292.811 6.5149 -0.723974 0
M  V30 3106 H 292.331 5.93214 0.886413 0
M  V30 3107 H 294.01 6.44362 0.583628 0
M  V30 3108 N 294.142 -0.090211 1.57342 0
M  V30 3109 C 295.105 -1.09335 2.01441 0
M  V30 3110 C 296.105 -1.32666 0.908641 0
M  V30 3111 O 297.295 -1.28697 1.174 0
M  V30 3112 C 294.427 -2.44136 2.3793 0
M  V30 3113 H 295.62 -0.713662 2.91285 0
M  V30 3114 H 293.173 -0.335404 1.52659 0
M  V30 3115 H 293.908 -2.86972 1.51055 0
M  V30 3116 H 293.693 -2.28548 3.18603 0
M  V30 3117 H 295.183 -3.16277 2.72688 0
M  V30 3118 N 295.62 -1.53406 -0.361157 0
M  V30 3119 C 296.583 -1.79479 -1.42548 0
M  V30 3120 C 297.583 -0.665327 -1.4639 0
M  V30 3121 O 298.773 -0.933549 -1.47073 0
M  V30 3122 C 295.905 -1.92087 -2.8163 0
M  V30 3123 H 297.098 -2.74538 -1.20701 0
M  V30 3124 H 294.651 -1.4455 -0.594546 0
M  V30 3125 H 295.386 -0.991099 -3.08784 0
M  V30 3126 H 295.171 -2.74241 -2.80239 0
M  V30 3127 H 296.661 -2.13836 -3.58697 0
M  V30 3128 N 297.098 0.621204 -1.44841 0
M  V30 3129 C 298.046 1.75385 -1.52784 0
M  V30 3130 C 299.04 1.64639 -0.398779 0
M  V30 3131 O 300.246 1.70598 -0.574137 0
M  V30 3132 H 296.621 0.579193 -0.479625 0
M  V30 3133 H 298.592 1.6581 -2.48092 0
M  V30 3134 C 297.341 3.13742 -1.4987 0
M  V30 3135 H 296.664 3.22663 -2.36069 0
M  V30 3136 H 298.104 3.92861 -1.59487 0
M  V30 3137 C 296.563 3.36175 -0.220973 0
M  V30 3138 O 297.093 3.95469 0.704782 0
M  V30 3139 N 295.299 2.90348 -0.120963 0
M  V30 3140 H 294.846 2.42278 -0.875162 0
M  V30 3141 H 294.804 3.05732 0.733168 0
M  V30 3142 N 298.576 1.31904 0.862503 0
M  V30 3143 C 299.825 1.21373 1.61094 0
M  V30 3144 C 300.138 -0.22504 1.94301 0
M  V30 3145 O 301.344 -0.452121 2.67709 0
M  V30 3146 C 299.8 2.12525 2.9045 0
M  V30 3147 C 299.408 3.61441 2.64697 0
M  V30 3148 C 301.152 2.10813 3.68454 0
M  V30 3149 C 299.059 4.44578 3.90006 0
M  V30 3150 H 297.989 0.450705 0.604468 0
M  V30 3151 H 300.64 1.56811 0.953027 0
M  V30 3152 H 299.022 1.69994 3.57656 0
M  V30 3153 H 300.196 4.12264 2.05851 0
M  V30 3154 H 298.511 3.65205 2.00036 0
M  V30 3155 H 301.108 2.70167 4.61426 0
M  V30 3156 H 301.451 1.09713 4.01583 0
M  V30 3157 H 301.984 2.51583 3.08141 0
M  V30 3158 H 298.723 5.46461 3.62023 0
M  V30 3159 H 298.243 3.98508 4.48276 0
M  V30 3160 H 299.922 4.57176 4.5782 0
M  V30 3161 N 300.054 -1.07777 1.14986 0
M  V30 3162 C 300.986 -2.14769 0.800436 0
M  V30 3163 C 301.999 -1.61739 -0.185595 0
M  V30 3164 O 303.188 -1.78462 0.0370358 0
M  V30 3165 C 300.288 -3.38481 0.168533 0
M  V30 3166 C 299.461 -4.20876 1.1909 0
M  V30 3167 C 298.52 -5.22976 0.581575 0
M  V30 3168 O 297.546 -5.55388 1.24633 0
M  V30 3169 N 298.748 -5.76976 -0.638706 0
M  V30 3170 H 301.513 -2.45348 1.72118 0
M  V30 3171 H 299.074 -1.23645 1.04515 0
M  V30 3172 H 301.066 -4.03916 -0.251764 0
M  V30 3173 H 299.636 -3.05651 -0.655467 0
M  V30 3174 H 298.856 -3.51322 1.78791 0
M  V30 3175 H 300.144 -4.7274 1.88133 0
M  V30 3176 H 299.542 -5.52886 -1.19723 0
M  V30 3177 H 298.099 -6.44061 -1.00142 0
M  V30 3178 N 301.532 -0.945985 -1.26051 0
M  V30 3179 C 302.495 -0.463897 -2.24456 0
M  V30 3180 C 303.495 0.427655 -1.55009 0
M  V30 3181 O 304.685 0.226157 -1.72726 0
M  V30 3182 C 301.817 0.330812 -3.39291 0
M  V30 3183 H 303.01 -1.33357 -2.68619 0
M  V30 3184 H 300.563 -0.728416 -1.38289 0
M  V30 3185 H 301.298 1.21852 -3.00537 0
M  V30 3186 H 301.083 -0.308679 -3.90883 0
M  V30 3187 H 302.573 0.657865 -4.12386 0
M  V30 3188 N 303.011 1.40521 -0.713556 0
M  V30 3189 C 304.288 1.94775 -0.17943 0
M  V30 3190 C 304.668 1.65184 1.31444 0
M  V30 3191 O 304.016 0.968429 2.06963 0
M  V30 3192 C 304.226 3.45543 -0.489986 0
M  V30 3193 C 305.574 4.22442 -0.427536 0
M  V30 3194 O 306.598 3.53644 -0.425929 0
M  V30 3195 O 305.457 5.4501 -0.403292 0
M  V30 3196 H 302.551 0.826606 -0.0255192 0
M  V30 3197 H 305.097 1.5014 -0.790949 0
M  V30 3198 H 303.869 3.60432 -1.5233 0
M  V30 3199 H 303.492 3.97311 0.151598 0
M  V30 3200 N 304.489 0.459591 1.5075 0
M  V30 3201 C 305.719 -0.0972338 2.06371 0
M  V30 3202 C 306.127 -1.35074 1.32483 0
M  V30 3203 O 305.47 -1.79637 0.384226 0
M  V30 3204 C 305.532 -0.462759 3.56509 0
M  V30 3205 C 305.196 0.687084 4.51805 0
M  V30 3206 C 306.193 1.56578 4.95761 0
M  V30 3207 C 303.878 0.874144 4.94635 0
M  V30 3208 C 305.872 2.61604 5.81242 0
M  V30 3209 C 303.559 1.92765 5.79901 0
M  V30 3210 C 304.557 2.79697 6.23104 0
M  V30 3211 O 304.245 3.83235 7.06673 0
M  V30 3212 H 303.977 -0.00140687 0.675999 0
M  V30 3213 H 306.531 0.644011 1.95043 0
M  V30 3214 H 304.761 -1.25703 3.65699 0
M  V30 3215 H 306.45 -0.953323 3.94546 0
M  V30 3216 H 307.216 1.4329 4.6335 0
M  V30 3217 H 303.095 0.207006 4.60535 0
M  V30 3218 H 306.639 3.29489 6.14884 0
M  V30 3219 H 302.536 2.06064 6.11725 0
M  V30 3220 H 303.304 3.80084 7.24899 0
M  V30 3221 N 305.967 -1.56429 0.191757 0
M  V30 3222 C 306.897 -2.21937 -0.725696 0
M  V30 3223 C 307.878 -1.1814 -1.2238 0
M  V30 3224 O 309.063 -1.46636 -1.27325 0
M  V30 3225 C 306.193 -2.87611 -1.94672 0
M  V30 3226 C 305.147 -3.97623 -1.58366 0
M  V30 3227 C 304.473 -4.50446 -2.88102 0
M  V30 3228 C 305.773 -5.16197 -0.796133 0
M  V30 3229 H 307.467 -2.98861 -0.179606 0
M  V30 3230 H 305.013 -1.43749 -0.0849464 0
M  V30 3231 H 306.966 -3.3212 -2.59373 0
M  V30 3232 H 305.69 -2.08087 -2.51728 0
M  V30 3233 H 304.349 -3.53801 -0.960247 0
M  V30 3234 H 303.997 -3.67688 -3.43241 0
M  V30 3235 H 303.697 -5.24675 -2.64556 0
M  V30 3236 H 305.221 -4.97654 -3.53798 0
M  V30 3237 H 306.635 -5.57271 -1.34618 0
M  V30 3238 H 305.032 -5.96471 -0.658928 0
M  V30 3239 H 306.102 -4.84473 0.203478 0
M  V30 3240 N 307.445 0.0818655 -1.57387 0
M  V30 3241 C 308.675 0.794954 -1.90694 0
M  V30 3242 C 309.083 1.72147 -0.784982 0
M  V30 3243 O 308.426 1.81974 0.251196 0
M  V30 3244 C 308.488 1.65042 -3.19376 0
M  V30 3245 C 308.152 0.894337 -4.48164 0
M  V30 3246 C 309.149 0.21813 -5.19442 0
M  V30 3247 C 306.834 0.864495 -4.94805 0
M  V30 3248 C 308.828 -0.477802 -6.35607 0
M  V30 3249 C 306.515 0.164785 -6.10878 0
M  V30 3250 C 307.513 -0.505173 -6.81129 0
M  V30 3251 O 307.201 -1.19363 -7.94989 0
M  V30 3252 H 306.933 0.231779 -0.635023 0
M  V30 3253 H 309.487 0.059493 -2.05314 0
M  V30 3254 H 307.717 2.42844 -3.00938 0
M  V30 3255 H 309.406 2.24127 -3.38411 0
M  V30 3256 H 310.172 0.232558 -4.84442 0
M  V30 3257 H 306.051 1.37542 -4.40004 0
M  V30 3258 H 309.595 -1.00129 -6.90377 0
M  V30 3259 H 305.492 0.148249 -6.4533 0
M  V30 3260 H 306.26 -1.10188 -8.11049 0
M  V30 3261 N 308.923 1.53595 0.353017 0
M  V30 3262 C 310.339 1.43648 0.695516 0
M  V30 3263 C 310.539 0.585617 1.92802 0
M  V30 3264 O 309.595 0.0729223 2.52395 0
M  V30 3265 C 310.908 2.8701 0.896991 0
M  V30 3266 C 312.456 2.96723 0.996209 0
M  V30 3267 C 312.931 4.41173 1.23007 0
M  V30 3268 N 314.422 4.44657 1.29749 0
M  V30 3269 C 315.157 5.53547 1.49577 0
M  V30 3270 N 314.653 6.72461 1.66639 0
M  V30 3271 N 316.446 5.41145 1.52048 0
M  V30 3272 H 308.597 2.07415 -0.457481 0
M  V30 3273 H 310.86 0.9372 -0.142687 0
M  V30 3274 H 310.566 3.51644 0.0629938 0
M  V30 3275 H 310.44 3.31401 1.80148 0
M  V30 3276 H 312.827 2.32235 1.82074 0
M  V30 3277 H 312.908 2.55707 0.0688331 0
M  V30 3278 H 312.552 5.06238 0.410505 0
M  V30 3279 H 312.482 4.79772 2.17086 0
M  V30 3280 H 314.973 3.58963 1.18126 0
M  V30 3281 H 315.286 7.51214 1.81378 0
M  V30 3282 H 313.631 6.75423 1.63794 0
M  V30 3283 H 316.822 4.47205 1.38294 0
M  V30 3284 H 316.995 6.26068 1.67159 0
M  V30 3285 O 310.44 -0.498996 1.53598 0
M  V30 3286 H 311.131 -1.15384 1.55584 0
M  V30 END ATOM
M  V30 BEGIN BOND
M  V30 END BOND
M  V30 END CTAB
M  END
$$$$
