drugbank_target|O00398 Putative P2Y purinoceptor 10 (DB01069)
 OpenBabel12092121213D

  0  0  0     0  0            999 V3000
M  V30 BEGIN CTAB
M  V30 COUNTS 5506 5579 0 0 0
M  V30 BEGIN ATOM
M  V30 1 H -0.908 1.98254 -0.117106 0
M  V30 2 N 0 1.576 0 0
M  V30 3 C 0.933 2.03868 1.02534 0
M  V30 4 C 1.911 0.928543 1.3348 0
M  V30 5 O 3.095 1.19667 1.45644 0
M  V30 6 C 0.222 2.43627 2.35294 0
M  V30 7 C -0.732 3.65373 2.2001 0
M  V30 8 S 0.101 5.13292 1.52614 0
M  V30 9 C 1.257 5.56322 2.86805 0
M  V30 10 H 1.49 2.90518 0.631377 0
M  V30 11 H -0.977 1.52953 0.210867 0
M  V30 12 H 0.981 2.67203 3.11629 0
M  V30 13 H -0.358 1.57376 2.7183 0
M  V30 14 H -1.165 3.90944 3.18086 0
M  V30 15 H -1.563 3.418 1.51819 0
M  V30 16 H 0.729 5.58782 3.83104 0
M  V30 17 H 1.672 6.56266 2.65933 0
M  V30 18 H 2.08 4.83886 2.90714 0
M  V30 19 N 1.4781 -0.272755 1.55222 0
M  V30 20 C 2.4411 -1.32041 1.87344 0
M  V30 21 C 3.4411 -1.42342 0.74803 0
M  V30 22 O 4.6311 -1.41488 1.0162 0
M  V30 23 C 1.7631 -2.70173 2.07893 0
M  V30 24 H 2.9561 -1.04789 2.80997 0
M  V30 25 H 0.5091 -0.51083 1.47717 0
M  V30 26 H 1.2441 -3.02605 1.16622 0
M  V30 27 H 1.0291 -2.64082 2.89833 0
M  V30 28 H 2.5191 -3.45869 2.34017 0
M  V30 29 N 2.9562 -1.48159 -0.537278 0
M  V30 30 C 3.9042 -1.62573 -1.66352 0
M  V30 31 C 4.8982 -0.492366 -1.62087 0
M  V30 32 O 6.1042 -0.670847 -1.67032 0
M  V30 33 H 2.4792 -0.511992 -0.550789 0
M  V30 34 H 4.4502 -2.57176 -1.51337 0
M  V30 35 C 3.1992 -1.67583 -3.04649 0
M  V30 36 H 2.5222 -2.54151 -3.08622 0
M  V30 37 H 3.9622 -1.81713 -3.83088 0
M  V30 38 C 2.4212 -0.413039 -3.34358 0
M  V30 39 O 2.9512 0.477259 -3.98855 0
M  V30 40 N 1.1572 -0.286961 -2.8918 0
M  V30 41 H 0.7042 -1.01241 -2.36871 0
M  V30 42 H 0.6622 0.556963 -3.09427 0
M  V30 43 N 4.4343 0.785586 -1.36625 0
M  V30 44 C 5.3643 1.91259 -1.33949 0
M  V30 45 C 6.3453 1.68795 -0.210325 0
M  V30 46 O 7.5303 1.89854 -0.408561 0
M  V30 47 C 4.6603 3.28339 -1.13186 0
M  V30 48 C 3.6143 3.65335 -2.22967 0
M  V30 49 C 2.9403 5.00806 -1.87342 0
M  V30 50 C 4.2403 3.7352 -3.65075 0
M  V30 51 H 5.9343 1.93755 -2.28253 0
M  V30 52 H 3.4803 0.930788 -1.09874 0
M  V30 53 H 5.4333 4.06804 -1.09948 0
M  V30 54 H 4.1573 3.2624 -0.153332 0
M  V30 55 H 2.8163 2.89169 -2.25337 0
M  V30 56 H 2.4643 4.95233 -0.880545 0
M  V30 57 H 2.1643 5.26529 -2.60846 0
M  V30 58 H 3.6883 5.81687 -1.85667 0
M  V30 59 H 5.1023 4.42168 -3.64911 0
M  V30 60 H 3.4993 4.10731 -4.37516 0
M  V30 61 H 4.5693 2.74527 -3.99703 0
M  V30 62 N 5.9124 1.20967 1.01018 0
M  V30 63 C 7.1894 0.93264 1.71934 0
M  V30 64 C 7.5694 -0.55692 2.03621 0
M  V30 65 O 6.9174 -1.52035 1.7058 0
M  V30 66 C 7.1274 1.81233 2.98254 0
M  V30 67 C 8.4754 2.05804 3.71389 0
M  V30 68 O 9.4994 1.78539 3.08225 0
M  V30 69 O 8.3584 2.51888 4.84989 0
M  V30 70 H 5.4524 0.349272 0.749625 0
M  V30 71 H 7.9984 1.31871 1.06808 0
M  V30 72 H 6.7704 2.82067 2.71208 0
M  V30 73 H 6.3934 1.42674 3.7112 0
M  V30 74 N 7.3905 -1.2043 1.01659 0
M  V30 75 C 8.3375 -2.23215 0.586822 0
M  V30 76 C 9.3075 -1.61382 -0.393085 0
M  V30 77 O 10.4925 -1.88544 -0.292525 0
M  V30 78 C 7.6325 -3.45032 -0.0687464 0
M  V30 79 C 6.7455 -4.21296 0.955724 0
M  V30 80 C 5.8805 -5.30507 0.271208 0
M  V30 81 C 4.9195 -5.98515 1.28244 0
M  V30 82 N 4.0565 -6.99316 0.62459 0
M  V30 83 H 8.8965 -2.59336 1.46796 0
M  V30 84 H 6.4335 -1.27431 0.734836 0
M  V30 85 H 8.3915 -4.1459 -0.465965 0
M  V30 86 H 7.0215 -3.09604 -0.913529 0
M  V30 87 H 6.0735 -3.50803 1.4711 0
M  V30 88 H 7.3855 -4.6803 1.72479 0
M  V30 89 H 6.5395 -6.06428 -0.18151 0
M  V30 90 H 5.2785 -4.8481 -0.530163 0
M  V30 91 H 4.2835 -5.21355 1.74554 0
M  V30 92 H 5.5085 -6.46298 2.08509 0
M  V30 93 H 3.4545 -6.55812 -0.156914 0
M  V30 94 H 3.3715 -7.44178 1.33172 0
M  V30 95 H 4.6395 -7.79255 0.195462 0
M  V30 96 N 8.8686 -0.792821 -1.36206 0
M  V30 97 C 10.0986 -0.378275 -2.03107 0
M  V30 98 C 10.5066 1.01119 -1.59911 0
M  V30 99 O 9.8496 1.66052 -0.785658 0
M  V30 100 C 9.9116 -0.366535 -3.57627 0
M  V30 101 C 9.5756 -1.70416 -4.24037 0
M  V30 102 C 10.5726 -2.6602 -4.46687 0
M  V30 103 C 8.2576 -1.98439 -4.6144 0
M  V30 104 C 10.2516 -3.8784 -5.05825 0
M  V30 105 C 7.9386 -3.20525 -5.20295 0
M  V30 106 C 8.9366 -4.15044 -5.42427 0
M  V30 107 O 8.6246 -5.34978 -6.00045 0
M  V30 108 H 8.3566 -0.153543 -0.658332 0
M  V30 109 H 10.9106 -1.07383 -1.75094 0
M  V30 110 H 9.1406 0.385539 -3.84773 0
M  V30 111 H 10.8296 0.0238088 -4.05893 0
M  V30 112 H 11.5956 -2.45658 -4.18183 0
M  V30 113 H 7.4746 -1.25686 -4.43536 0
M  V30 114 H 11.0186 -4.61628 -5.23015 0
M  V30 115 H 6.9156 -3.40764 -5.48225 0
M  V30 116 H 7.6836 -5.36088 -6.18508 0
M  V30 117 N 10.3467 1.47872 -0.545128 0
M  V30 118 C 11.5747 2.06889 -0.021084 0
M  V30 119 C 11.9897 1.39955 1.2672 0
M  V30 120 O 11.3467 0.492036 1.75742 0
M  V30 121 C 11.3977 3.60996 0.190817 0
M  V30 122 O 11.1187 4.25419 -1.04644 0
M  V30 123 C 12.6197 4.36849 0.753521 0
M  V30 124 H 9.8397 0.669785 -0.0403635 0
M  V30 125 H 12.3837 1.90049 -0.755095 0
M  V30 126 H 10.5387 3.77391 0.87492 0
M  V30 127 H 10.9527 5.17785 -0.836611 0
M  V30 128 H 12.4267 5.45399 0.851139 0
M  V30 129 H 12.9037 4.02306 1.762 0
M  V30 130 H 13.5097 4.25169 0.105503 0
M  V30 131 N 11.8248 0.280983 1.55075 0
M  V30 132 C 12.7348 -0.61388 2.26426 0
M  V30 133 C 13.7508 -1.16521 1.29224 0
M  V30 134 O 14.9268 -1.19426 1.62171 0
M  V30 135 C 11.9918 -1.7788 2.9759 0
M  V30 136 C 11.0528 -1.26355 4.10284 0
M  V30 137 C 10.2858 -2.37295 4.78045 0
M  V30 138 O 10.5088 -3.56777 4.45047 0
M  V30 139 O 9.4428 -2.05119 5.65871 0
M  V30 140 H 13.2688 -0.0356932 3.03679 0
M  V30 141 H 10.8538 0.0481686 1.49322 0
M  V30 142 H 12.7358 -2.45791 3.42293 0
M  V30 143 H 11.4108 -2.34397 2.23249 0
M  V30 144 H 10.3178 -0.550735 3.70024 0
M  V30 145 H 11.6508 -0.744065 4.86543 0
M  V30 146 N 13.3029 -1.57598 0.00835791 0
M  V30 147 C 14.5309 -1.95214 -0.68549 0
M  V30 148 C 14.9459 -0.883706 -1.66841 0
M  V30 149 O 14.3029 0.136565 -1.81988 0
M  V30 150 C 14.3539 -3.32865 -1.41007 0
M  V30 151 O 14.0749 -4.35609 -0.466552 0
M  V30 152 C 15.5759 -3.84991 -2.19765 0
M  V30 153 H 12.7959 -0.643422 -0.190392 0
M  V30 154 H 15.3399 -2.04406 0.0619607 0
M  V30 155 H 13.4949 -3.24956 -2.10908 0
M  V30 156 H 13.9089 -5.15288 -0.978699 0
M  V30 157 H 15.3829 -4.8371 -2.65948 0
M  V30 158 H 15.8599 -3.18137 -3.02796 0
M  V30 159 H 16.4659 -3.96103 -1.54864 0
M  V30 160 N 14.781 0.264519 -1.55364 0
M  V30 161 C 16.028 0.994986 -1.7637 0
M  V30 162 C 16.356 1.85976 -0.5695 0
M  V30 163 O 15.611 1.90509 0.44776 0
M  V30 164 C 15.91 1.9004 -3.02687 0
M  V30 165 C 15.576 1.19243 -4.34847 0
M  V30 166 C 14.238 0.996709 -4.70764 0
M  V30 167 C 16.59 0.689296 -5.16622 0
M  V30 168 C 13.918 0.285261 -5.86006 0
M  V30 169 C 16.27 -0.00860079 -6.32599 0
M  V30 170 C 14.934 -0.215963 -6.67151 0
M  V30 171 H 14.204 0.364091 -0.645383 0
M  V30 172 H 16.851 0.266543 -1.89636 0
M  V30 173 H 15.156 2.69533 -2.84357 0
M  V30 174 H 16.853 2.46695 -3.16137 0
M  V30 175 H 13.443 1.3549 -4.06621 0
M  V30 176 H 17.627 0.828108 -4.89342 0
M  V30 177 H 12.883 0.113961 -6.11294 0
M  V30 178 H 17.057 -0.406186 -6.95214 0
M  V30 179 H 14.684 -0.769217 -7.56298 0
M  V30 180 N 16.2591 1.48442 0.529413 0
M  V30 181 C 17.2061 1.63007 1.63394 0
M  V30 182 C 18.1761 0.47212 1.59249 0
M  V30 183 O 19.3611 0.695673 1.77666 0
M  V30 184 C 16.5011 1.6763 3.01653 0
M  V30 185 C 15.6141 2.94535 3.16027 0
M  V30 186 C 14.7491 2.90316 4.44849 0
M  V30 187 C 13.7881 4.11923 4.52754 0
M  V30 188 N 12.9251 4.05777 5.72965 0
M  V30 189 H 17.7651 2.5733 1.50285 0
M  V30 190 H 15.3021 1.27613 0.731656 0
M  V30 191 H 17.2601 1.68292 3.81751 0
M  V30 192 H 15.8901 0.76797 3.13532 0
M  V30 193 H 14.9421 3.03615 2.29177 0
M  V30 194 H 16.2541 3.84512 3.17729 0
M  V30 195 H 15.4081 2.89382 5.33238 0
M  V30 196 H 14.1471 1.98068 4.45668 0
M  V30 197 H 13.1521 4.13131 3.62771 0
M  V30 198 H 14.3771 5.0533 4.53672 0
M  V30 199 H 12.3231 3.16351 5.74681 0
M  V30 200 H 12.2401 4.8946 5.76164 0
M  V30 201 H 13.5081 4.08904 6.6364 0
M  V30 202 N 17.7372 -0.778329 1.37039 0
M  V30 203 C 18.6702 -1.8984 1.26633 0
M  V30 204 C 19.6482 -1.61923 0.148197 0
M  V30 205 O 20.8322 -1.85742 0.321265 0
M  V30 206 C 17.9592 -3.24916 0.956403 0
M  V30 207 C 17.0052 -3.71752 2.09051 0
M  V30 208 S 17.8382 -3.86201 3.70957 0
M  V30 209 C 18.9942 -5.24135 3.42101 0
M  V30 210 H 19.2272 -1.98377 2.21436 0
M  V30 211 H 16.7602 -0.938738 1.22585 0
M  V30 212 H 18.7182 -4.02936 0.784409 0
M  V30 213 H 17.3792 -3.14089 0.0259713 0
M  V30 214 H 16.5722 -4.69661 1.8285 0
M  V30 215 H 16.1742 -3.00815 2.2223 0
M  V30 216 H 18.4662 -6.09086 2.96682 0
M  V30 217 H 19.4092 -5.55346 4.39314 0
M  V30 218 H 19.8172 -4.91761 2.77185 0
M  V30 219 N 19.2153 -1.21501 -1.00376 0
M  V30 220 C 20.4633 -1.03095 -1.73827 0
M  V30 221 C 20.7843 0.436341 -1.90055 0
M  V30 222 O 20.0543 1.31466 -1.45236 0
M  V30 223 H 18.6343 -0.378487 -0.644016 0
M  V30 224 H 21.2963 -1.52831 -1.20949 0
M  V30 225 H 20.3923 -1.49991 -2.73695 0
M  V30 226 N 20.6934 1.19889 -1.02296 0
M  V30 227 C 21.9184 1.9393 -0.735237 0
M  V30 228 C 22.3434 1.74639 0.698782 0
M  V30 229 O 21.7014 1.04481 1.48167 0
M  V30 230 C 21.7494 3.43916 -1.08417 0
M  V30 231 O 20.8534 4.11917 -0.199446 0
M  V30 232 H 20.1944 0.605645 -0.272196 0
M  V30 233 H 22.7244 1.52137 -1.36804 0
M  V30 234 H 22.7344 3.9456 -1.03856 0
M  V30 235 H 21.4094 3.5728 -2.12894 0
M  V30 236 H 19.9864 3.71666 -0.303136 0
M  V30 237 N 22.1715 0.800033 1.35784 0
M  V30 238 C 23.1195 0.193851 2.31791 0
M  V30 239 C 24.1135 -0.652744 1.56319 0
M  V30 240 O 25.3195 -0.546641 1.71499 0
M  V30 241 H 21.6945 0.04392 0.750716 0
M  V30 242 H 23.6655 1.01883 2.80468 0
M  V30 243 C 22.4145 -0.648338 3.41602 0
M  V30 244 H 21.7375 -0.00624665 3.998 0
M  V30 245 H 23.1775 -1.03898 4.11073 0
M  V30 246 C 21.6365 -1.8111 2.84079 0
M  V30 247 O 22.1665 -2.90825 2.77099 0
M  V30 248 N 20.3725 -1.62056 2.41218 0
M  V30 249 H 19.9195 -0.728123 2.47095 0
M  V30 250 H 19.8775 -2.40013 2.03079 0
M  V30 251 N 23.6496 -1.47581 0.552962 0
M  V30 252 C 24.8746 -2.07378 0.0300593 0
M  V30 253 C 25.2996 -1.40355 -1.25229 0
M  V30 254 O 24.6576 -0.477099 -1.7491 0
M  V30 255 C 24.7056 -3.60274 -0.153231 0
M  V30 256 O 23.8096 -3.94041 -1.21678 0
M  V30 257 H 23.1506 -0.662158 0.0494182 0
M  V30 258 H 25.6806 -1.89662 0.767434 0
M  V30 259 H 25.6906 -4.0633 -0.368761 0
M  V30 260 H 24.3656 -4.08455 0.783397 0
M  V30 261 H 22.9426 -3.59735 -0.982079 0
M  V30 262 N 25.1277 -0.289203 -1.54924 0
M  V30 263 C 26.3557 0.326463 -2.04308 0
M  V30 264 C 26.7707 1.48413 -1.16701 0
M  V30 265 O 26.1277 1.81507 -0.190087 0
M  V30 266 C 26.1787 0.794014 -3.52672 0
M  V30 267 O 25.8997 -0.317564 -4.36948 0
M  V30 268 C 27.4007 1.47605 -4.18004 0
M  V30 269 H 24.6207 0.0726272 -0.667058 0
M  V30 270 H 27.1647 -0.425401 -2.00026 0
M  V30 271 H 25.3197 1.49593 -3.57352 0
M  V30 272 H 25.7337 0.0443186 -5.24481 0
M  V30 273 H 27.2077 1.75447 -5.23376 0
M  V30 274 H 27.6847 2.41224 -3.67025 0
M  V30 275 H 28.2907 0.81762 -4.17367 0
M  V30 276 N 26.6058 1.57591 -0.0167156 0
M  V30 277 C 27.8308 1.9598 0.67872 0
M  V30 278 C 28.2558 0.892546 1.65575 0
M  V30 279 O 27.6138 -0.147772 1.80697 0
M  V30 280 C 27.6618 3.33468 1.37227 0
M  V30 281 O 26.7658 3.28954 2.48722 0
M  V30 282 H 26.1068 0.639339 0.17928 0
M  V30 283 H 28.6368 2.04463 -0.0748802 0
M  V30 284 H 28.6468 3.69417 1.7319 0
M  V30 285 H 27.3218 4.10694 0.656007 0
M  V30 286 H 25.8988 3.04705 2.14963 0
M  V30 287 N 28.0839 -0.256276 1.55502 0
M  V30 288 C 29.3119 -1.00342 1.8094 0
M  V30 289 C 29.7269 -1.79307 0.59114 0
M  V30 290 O 29.0839 -1.77114 -0.440081 0
M  V30 291 C 29.1349 -1.94875 3.04476 0
M  V30 292 O 28.8559 -1.19107 4.21598 0
M  V30 293 C 30.3569 -2.81266 3.42644 0
M  V30 294 H 27.5769 -0.295685 0.602338 0
M  V30 295 H 30.1209 -0.281998 2.02546 0
M  V30 296 H 28.2759 -2.62457 2.84947 0
M  V30 297 H 28.6899 -1.82969 4.91551 0
M  V30 298 H 30.1639 -3.43362 4.32211 0
M  V30 299 H 30.6409 -3.51897 2.62802 0
M  V30 300 H 31.2469 -2.1915 3.64491 0
M  V30 301 N 29.562 -1.4872 -0.521534 0
M  V30 302 C 30.525 -1.63379 -1.60748 0
M  V30 303 C 31.525 -0.50661 -1.52611 0
M  V30 304 O 32.715 -0.772601 -1.5613 0
M  V30 305 C 29.847 -1.61192 -3.00383 0
M  V30 306 H 31.04 -2.60217 -1.49087 0
M  V30 307 H 28.593 -1.37444 -0.744235 0
M  V30 308 H 29.328 -0.65863 -3.17541 0
M  V30 309 H 29.113 -2.43032 -3.07698 0
M  V30 310 H 30.603 -1.7466 -3.7932 0
M  V30 311 N 31.0401 0.771051 -1.3745 0
M  V30 312 C 31.9501 1.91538 -1.35464 0
M  V30 313 C 32.9661 1.72134 -0.254123 0
M  V30 314 O 34.1421 1.95358 -0.489626 0
M  V30 315 C 31.2071 3.26671 -1.16134 0
M  V30 316 C 30.2681 3.58723 -2.35831 0
M  V30 317 C 29.5011 4.87409 -2.17413 0
M  V30 318 O 29.7241 5.58506 -1.15876 0
M  V30 319 O 28.6581 5.18539 -3.05615 0
M  V30 320 H 32.4841 1.96165 -2.31847 0
M  V30 321 H 30.0691 0.9139 -1.18187 0
M  V30 322 H 31.9511 4.07499 -1.07345 0
M  V30 323 H 30.6261 3.22894 -0.228251 0
M  V30 324 H 29.5331 2.78127 -2.50192 0
M  V30 325 H 30.8661 3.67243 -3.27709 0
M  V30 326 N 32.5182 1.22032 0.997298 0
M  V30 327 C 33.7672 1.03637 1.73038 0
M  V30 328 C 34.0802 -0.429475 1.90827 0
M  V30 329 O 35.2862 -0.732995 2.61418 0
M  V30 330 C 33.7422 1.80582 3.11317 0
M  V30 331 C 33.3502 3.31387 3.01474 0
M  V30 332 C 35.0942 1.70621 3.88701 0
M  V30 333 C 33.0012 4.00791 4.3488 0
M  V30 334 H 31.9312 0.384179 0.648785 0
M  V30 335 H 34.5822 1.4584 1.11368 0
M  V30 336 H 32.9642 1.31175 3.73643 0
M  V30 337 H 34.1382 3.88155 2.4834 0
M  V30 338 H 32.4532 3.41976 2.37575 0
M  V30 339 H 35.0502 2.19799 4.87434 0
M  V30 340 H 35.3932 0.665823 4.10941 0
M  V30 341 H 35.9262 2.17547 3.33044 0
M  V30 342 H 32.6652 5.05064 4.1784 0
M  V30 343 H 32.1852 3.48811 4.87945 0
M  V30 344 H 33.8642 4.06139 5.03647 0
M  V30 345 N 33.9963 -1.19345 1.0293 0
M  V30 346 C 35.2263 -1.92717 0.744563 0
M  V30 347 C 35.6343 -1.75751 -0.700579 0
M  V30 348 O 34.9773 -1.07703 -1.48815 0
M  V30 349 C 35.0393 -3.44828 1.01657 0
M  V30 350 C 34.7033 -3.85564 2.45335 0
M  V30 351 C 35.7003 -3.90286 3.43472 0
M  V30 352 C 33.3853 -4.1719 2.79746 0
M  V30 353 C 35.3793 -4.26065 4.74075 0
M  V30 354 C 33.0663 -4.52642 4.10559 0
M  V30 355 C 34.0643 -4.57054 5.07534 0
M  V30 356 O 33.7523 -4.91685 6.36004 0
M  V30 357 H 33.4843 -0.618977 0.271742 0
M  V30 358 H 36.0383 -1.52415 1.37691 0
M  V30 359 H 34.2683 -3.85314 0.327084 0
M  V30 360 H 35.9573 -3.99437 0.721427 0
M  V30 361 H 36.7233 -3.66002 3.18225 0
M  V30 362 H 32.6023 -4.1294 2.04943 0
M  V30 363 H 36.1463 -4.29423 5.49765 0
M  V30 364 H 32.0433 -4.76383 4.35579 0
M  V30 365 H 32.8113 -5.09631 6.40483 0
M  V30 366 N 35.4744 -0.807222 -1.35358 0
M  V30 367 C 36.7144 -0.393534 -2.00576 0
M  V30 368 C 37.0784 1.0203 -1.62647 0
M  V30 369 O 38.2794 1.53603 -2.20589 0
M  V30 370 C 36.5504 -0.572017 -3.52793 0
M  V30 371 S 38.1094 -0.248845 -4.38094 0
M  V30 372 H 34.9274 -0.149425 -0.695121 0
M  V30 373 H 37.5294 -1.04961 -1.64935 0
M  V30 374 H 36.2334 -1.60097 -3.77885 0
M  V30 375 H 35.7644 0.099359 -3.93275 0
M  V30 376 H 37.7794 0.943253 -4.87152 0
M  V30 377 N 36.9525 1.47285 -0.560781 0
M  V30 378 C 37.9005 2.31756 0.197942 0
M  V30 379 C 38.8945 1.43146 0.905854 0
M  V30 380 O 40.1005 1.59891 0.826733 0
M  V30 381 H 36.4755 0.747438 0.0827049 0
M  V30 382 H 38.4465 2.9359 -0.533629 0
M  V30 383 C 37.1955 3.25874 1.21249 0
M  V30 384 H 36.5185 3.94023 0.67719 0
M  V30 385 H 37.9585 3.87803 1.71419 0
M  V30 386 C 36.4175 2.49651 2.26221 0
M  V30 387 O 36.9475 2.24355 3.33208 0
M  V30 388 N 35.1535 2.10597 2.00243 0
M  V30 389 H 34.7005 2.31369 1.13252 0
M  V30 390 H 34.6585 1.59913 2.70694 0
M  V30 391 N 38.4306 0.297415 1.54768 0
M  V30 392 C 39.6766 -0.313376 2.00364 0
M  V30 393 C 40.0096 -1.53815 1.18553 0
M  V30 394 O 39.2846 -1.92739 0.261103 0
M  V30 395 C 39.5676 -0.673525 3.53745 0
M  V30 396 C 39.4206 0.560133 4.46299 0
M  V30 397 C 40.7396 -1.50143 4.13697 0
M  V30 398 H 37.8586 -0.112428 0.728374 0
M  V30 399 H 40.5006 0.4088 1.8555 0
M  V30 400 H 38.6506 -1.28881 3.665 0
M  V30 401 H 40.3226 1.19863 4.45455 0
M  V30 402 H 38.5656 1.19405 4.17043 0
M  V30 403 H 39.2366 0.26405 5.51368 0
M  V30 404 H 41.7126 -0.981588 4.04356 0
M  V30 405 H 40.5886 -1.72221 5.21182 0
M  V30 406 H 40.8496 -2.48952 3.65343 0
M  V30 407 N 39.9087 -1.5758 0.0250728 0
M  V30 408 C 41.1367 -1.9593 -0.664747 0
M  V30 409 C 41.5517 -0.901352 -1.65895 0
M  V30 410 O 40.9087 0.117255 -1.82123 0
M  V30 411 C 40.9597 -3.34342 -1.37468 0
M  V30 412 O 40.6807 -4.36079 -0.420324 0
M  V30 413 C 42.1817 -3.873 -2.1567 0
M  V30 414 H 39.4017 -0.645405 -0.183557 0
M  V30 415 H 41.9457 -2.04329 0.0836372 0
M  V30 416 H 40.1007 -3.27175 -2.0745 0
M  V30 417 H 40.5147 -5.16297 -0.923991 0
M  V30 418 H 41.9887 -4.86504 -2.60803 0
M  V30 419 H 42.4657 -3.21331 -2.99405 0
M  V30 420 H 43.0717 -3.97723 -1.50654 0
M  V30 421 N 41.3868 0.248026 -1.55636 0
M  V30 422 C 42.3348 1.32683 -1.91045 0
M  V30 423 C 43.3288 1.49883 -0.789401 0
M  V30 424 O 44.5348 1.51371 -0.974007 0
M  V30 425 H 40.9098 0.444272 -0.606734 0
M  V30 426 H 42.8808 1.00085 -2.81115 0
M  V30 427 C 41.6298 2.6755 -2.22064 0
M  V30 428 H 40.9528 2.55114 -3.07826 0
M  V30 429 H 42.3928 3.41912 -2.50743 0
M  V30 430 C 40.8518 3.20556 -1.0366 0
M  V30 431 O 41.3818 4.00695 -0.284016 0
M  V30 432 N 39.5878 2.78568 -0.82753 0
M  V30 433 H 39.1348 2.1351 -1.44123 0
M  V30 434 H 39.0928 3.14378 -0.0369803 0
M  V30 435 N 42.8649 1.48995 0.513639 0
M  V30 436 C 44.1109 1.58076 1.27042 0
M  V30 437 C 44.4439 0.261026 1.92438 0
M  V30 438 O 43.7189 -0.734393 1.80103 0
M  V30 439 C 44.0019 2.73091 2.34719 0
M  V30 440 C 43.8549 4.14821 1.73907 0
M  V30 441 C 45.1739 2.83796 3.36375 0
M  V30 442 H 42.2929 0.575391 0.460536 0
M  V30 443 H 44.9349 1.81232 0.570516 0
M  V30 444 H 43.0849 2.53479 2.94416 0
M  V30 445 H 44.7569 4.45917 1.18135 0
M  V30 446 H 42.9999 4.21058 1.0437 0
M  V30 447 H 43.6709 4.91147 2.51949 0
M  V30 448 H 46.1469 3.01611 2.86653 0
M  V30 449 H 45.0229 3.65971 4.09093 0
M  V30 450 H 45.2839 1.92624 3.9793 0
M  V30 451 N 44.343 -0.763751 1.37857 0
M  V30 452 C 45.29 -1.87726 1.34267 0
M  V30 453 C 46.26 -1.64807 0.206879 0
M  V30 454 O 47.445 -1.86613 0.397508 0
M  V30 455 C 44.585 -3.24896 1.16346 0
M  V30 456 C 43.698 -3.59716 2.39225 0
M  V30 457 C 42.833 -4.86137 2.14114 0
M  V30 458 C 41.872 -5.13711 3.32817 0
M  V30 459 N 41.009 -6.31323 3.07206 0
M  V30 460 H 45.849 -1.90129 2.29466 0
M  V30 461 H 43.386 -0.929433 1.14017 0
M  V30 462 H 45.344 -4.04036 1.03975 0
M  V30 463 H 43.974 -3.21847 0.247909 0
M  V30 464 H 43.026 -2.75498 2.62307 0
M  V30 465 H 44.338 -3.76027 3.27728 0
M  V30 466 H 43.492 -5.73198 1.9882 0
M  V30 467 H 42.231 -4.71945 1.22961 0
M  V30 468 H 41.236 -4.25123 3.48641 0
M  V30 469 H 42.461 -5.29807 4.24832 0
M  V30 470 H 40.407 -6.18474 2.1869 0
M  V30 471 H 40.324 -6.48087 3.89254 0
M  V30 472 H 41.592 -7.213 2.95546 0
M  V30 473 N 45.8211 -1.22559 -0.990812 0
M  V30 474 C 47.0681 -1.05141 -1.73065 0
M  V30 475 C 47.3961 0.413191 -1.9006 0
M  V30 476 O 46.6511 1.32257 -1.44245 0
M  V30 477 C 46.9501 -1.71011 -3.13831 0
M  V30 478 C 46.6161 -3.20911 -3.16745 0
M  V30 479 C 45.2781 -3.61812 -3.17247 0
M  V30 480 C 47.6301 -4.16846 -3.12872 0
M  V30 481 C 44.9581 -4.97127 -3.1158 0
M  V30 482 C 47.3101 -5.5214 -3.08746 0
M  V30 483 C 45.9741 -5.92419 -3.07565 0
M  V30 484 H 45.2441 -0.384738 -0.633291 0
M  V30 485 H 47.8911 -1.5235 -1.16025 0
M  V30 486 H 46.1961 -1.16133 -3.74193 0
M  V30 487 H 47.8931 -1.55023 -3.69823 0
M  V30 488 H 44.4831 -2.88344 -3.17105 0
M  V30 489 H 48.6671 -3.86263 -3.11632 0
M  V30 490 H 43.9231 -5.27562 -3.09012 0
M  V30 491 H 48.0971 -6.26201 -3.04705 0
M  V30 492 H 45.7241 -6.97236 -3.02929 0
M  V30 493 N 47.2992 1.18797 -1.03562 0
M  V30 494 C 48.2312 2.21731 -0.580337 0
M  V30 495 C 49.2442 1.59051 0.347349 0
M  V30 496 O 50.4332 1.77929 0.142669 0
M  V30 497 C 47.5332 3.38459 0.172805 0
M  V30 498 C 46.7062 4.3072 -0.761496 0
M  V30 499 C 45.7652 5.26174 -0.0525547 0
M  V30 500 O 44.7912 5.65108 -0.681333 0
M  V30 501 N 45.9932 5.67624 1.21586 0
M  V30 502 H 48.7582 2.61417 -1.46565 0
M  V30 503 H 46.3192 1.33531 -0.915476 0
M  V30 504 H 48.3112 3.99335 0.656793 0
M  V30 505 H 46.8812 2.97507 0.959602 0
M  V30 506 H 46.1012 3.67525 -1.42544 0
M  V30 507 H 47.3892 4.89267 -1.39626 0
M  V30 508 H 46.7872 5.38038 1.74732 0
M  V30 509 H 45.3442 6.30721 1.64421 0
M  V30 510 N 48.7773 0.814389 1.34928 0
M  V30 511 C 50.0073 0.41054 2.0248 0
M  V30 512 C 50.4153 -0.985625 1.61499 0
M  V30 513 O 49.7583 -1.64781 0.811976 0
M  V30 514 C 49.8203 0.423384 3.56998 0
M  V30 515 C 49.4843 1.77141 4.21272 0
M  V30 516 C 50.4813 2.73093 4.42398 0
M  V30 517 C 48.1663 2.05755 4.58225 0
M  V30 518 C 50.1603 3.95838 4.9959 0
M  V30 519 C 47.8473 3.28762 5.1513 0
M  V30 520 C 48.8453 4.23621 5.35755 0
M  V30 521 O 48.5333 5.44456 5.91458 0
M  V30 522 H 48.2653 0.163997 0.655806 0
M  V30 523 H 50.8193 1.10155 1.73364 0
M  V30 524 H 49.0493 -0.324276 3.85338 0
M  V30 525 H 50.7383 0.0407683 4.0588 0
M  V30 526 H 51.5043 2.5228 4.14222 0
M  V30 527 H 47.3833 1.32727 4.4148 0
M  V30 528 H 50.9273 4.69891 5.15605 0
M  V30 529 H 46.8243 3.49443 5.42734 0
M  V30 530 H 47.5923 5.4586 6.09901 0
M  V30 531 N 50.2554 -1.46986 0.568584 0
M  V30 532 C 51.4804 -2.07335 0.0520528 0
M  V30 533 C 51.9054 -1.41675 -1.23733 0
M  V30 534 O 51.2634 -0.495623 -1.74394 0
M  V30 535 C 51.3114 -3.60417 -0.11501 0
M  V30 536 O 50.4154 -3.95309 -1.17492 0
M  V30 537 H 49.7564 -0.661597 0.0564385 0
M  V30 538 H 52.2864 -1.88837 0.787507 0
M  V30 539 H 52.2964 -4.06698 -0.325644 0
M  V30 540 H 50.9714 -4.07601 0.826675 0
M  V30 541 H 49.5484 -3.60757 -0.943869 0
M  V30 542 N 51.7335 -0.305618 -1.54608 0
M  V30 543 C 52.6635 0.561482 -2.26649 0
M  V30 544 C 53.6445 1.13415 -1.26772 0
M  V30 545 O 54.8295 1.16262 -1.55553 0
M  V30 546 C 51.9595 1.73122 -3.01075 0
M  V30 547 C 50.9135 1.2887 -4.08138 0
M  V30 548 C 50.2395 2.54396 -4.70305 0
M  V30 549 C 51.5395 0.416578 -5.20636 0
M  V30 550 H 53.2335 -0.0393902 -2.99374 0
M  V30 551 H 50.7795 -0.020385 -1.43986 0
M  V30 552 H 52.7325 2.34396 -3.50195 0
M  V30 553 H 51.4565 2.3584 -2.25936 0
M  V30 554 H 50.1155 0.698991 -3.59875 0
M  V30 555 H 49.7635 3.15439 -3.918 0
M  V30 556 H 49.4635 2.25486 -5.42614 0
M  V30 557 H 50.9875 3.16464 -5.2219 0
M  V30 558 H 52.4015 0.935116 -5.65622 0
M  V30 559 H 50.7985 0.221046 -5.99693 0
M  V30 560 H 51.8685 -0.557162 -4.81688 0
M  V30 561 N 53.2116 1.57565 -0.0334293 0
M  V30 562 C 54.4416 1.95996 0.653398 0
M  V30 563 C 54.8496 0.908749 1.65947 0
M  V30 564 O 54.1926 -0.117471 1.83324 0
M  V30 565 C 54.2546 3.30589 1.41249 0
M  V30 566 C 53.9186 4.53503 0.564263 0
M  V30 567 C 54.9156 5.19647 -0.16225 0
M  V30 568 C 52.6006 4.99801 0.500398 0
M  V30 569 C 54.5946 6.30412 -0.941255 0
M  V30 570 C 52.2816 6.10448 -0.282308 0
M  V30 571 C 53.2796 6.75612 -1.00184 0
M  V30 572 O 52.9676 7.84134 -1.77171 0
M  V30 573 H 52.6996 0.65027 0.184728 0
M  V30 574 H 55.2536 2.05199 -0.0907841 0
M  V30 575 H 53.4836 3.17888 2.20191 0
M  V30 576 H 55.1726 3.53892 1.98784 0
M  V30 577 H 55.9386 4.84846 -0.12227 0
M  V30 578 H 51.8176 4.48883 1.05002 0
M  V30 579 H 55.3616 6.81208 -1.50339 0
M  V30 580 H 51.2586 6.44686 -0.323989 0
M  V30 581 H 52.0266 8.00822 -1.69194 0
M  V30 582 N 54.6897 -0.239769 1.55765 0
M  V30 583 C 55.6527 -1.28038 1.90103 0
M  V30 584 C 56.6527 -1.40723 0.778055 0
M  V30 585 O 57.8427 -1.39301 1.04599 0
M  V30 586 C 54.9747 -2.65702 2.13577 0
M  V30 587 H 56.1677 -0.988048 2.83157 0
M  V30 588 H 53.7207 -0.479382 1.48767 0
M  V30 589 H 54.4557 -3.00063 1.23015 0
M  V30 590 H 54.2407 -2.57875 2.95369 0
M  V30 591 H 55.7307 -3.40828 2.41301 0
M  V30 592 N 56.1678 -1.49265 -0.50573 0
M  V30 593 C 57.3958 -1.62215 -1.28429 0
M  V30 594 C 57.8108 -0.291697 -1.86533 0
M  V30 595 O 57.1678 0.722233 -1.67601 0
M  V30 596 C 57.2188 -2.68735 -2.41793 0
M  V30 597 O 56.9398 -3.96619 -1.86078 0
M  V30 598 C 58.4408 -2.92346 -3.3324 0
M  V30 599 H 55.6608 -0.546239 -0.389697 0
M  V30 600 H 58.2048 -1.95265 -0.607609 0
M  V30 601 H 56.3598 -2.38476 -3.053 0
M  V30 602 H 56.7738 -4.55256 -2.60465 0
M  V30 603 H 58.2478 -3.70623 -4.09075 0
M  V30 604 H 58.7248 -2.02081 -3.89948 0
M  V30 605 H 59.3308 -3.24003 -2.75503 0
M  V30 606 N 57.6459 0.756429 -1.3826 0
M  V30 607 C 58.8739 1.54565 -1.3754 0
M  V30 608 C 59.2889 1.88767 0.0355331 0
M  V30 609 O 58.6459 1.52572 1.0014 0
M  V30 610 C 58.6969 2.84654 -2.22833 0
M  V30 611 O 58.4179 2.51912 -3.5843 0
M  V30 612 C 59.9189 3.78807 -2.30261 0
M  V30 613 H 57.1389 0.478353 -0.470553 0
M  V30 614 H 59.6829 0.936381 -1.81803 0
M  V30 615 H 57.8379 3.41965 -1.8204 0
M  V30 616 H 58.2519 3.35325 -4.03308 0
M  V30 617 H 59.7259 4.67045 -2.94233 0
M  V30 618 H 60.2029 4.19038 -1.31545 0
M  V30 619 H 60.8089 3.2742 -2.71433 0
M  V30 620 N 59.124 1.23083 0.984299 0
M  V30 621 C 60.354 1.08556 1.75781 0
M  V30 622 C 60.762 -0.366171 1.85623 0
M  V30 623 O 60.105 -1.26524 1.33182 0
M  V30 624 C 60.167 1.63208 3.20318 0
M  V30 625 C 59.831 3.11922 3.33997 0
M  V30 626 C 60.828 4.09259 3.2063 0
M  V30 627 C 58.513 3.51552 3.58771 0
M  V30 628 C 60.507 5.4421 3.31835 0
M  V30 629 C 58.194 4.86649 3.69616 0
M  V30 630 C 59.192 5.82787 3.56157 0
M  V30 631 O 58.88 7.15431 3.66626 0
M  V30 632 H 58.612 0.380713 0.5586 0
M  V30 633 H 61.166 1.63321 1.2456 0
M  V30 634 H 59.396 1.0286 3.72769 0
M  V30 635 H 61.085 1.44216 3.79416 0
M  V30 636 H 61.851 3.79984 3.01392 0
M  V30 637 H 57.73 2.77239 3.6832 0
M  V30 638 H 61.274 6.1923 3.21247 0
M  V30 639 H 57.171 5.15601 3.88363 0
M  V30 640 H 57.939 7.23127 3.83445 0
M  V30 641 N 60.6021 -1.18246 1.0419 0
M  V30 642 C 61.8511 -1.87588 0.741194 0
M  V30 643 C 62.1641 -1.81303 -0.734066 0
M  V30 644 O 63.3701 -2.46019 -1.14834 0
M  V30 645 C 61.8261 -3.36538 1.27555 0
M  V30 646 C 61.4341 -3.51349 2.77953 0
M  V30 647 C 63.1781 -4.11273 1.05143 0
M  V30 648 C 61.0851 -4.94265 3.2474 0
M  V30 649 H 60.0151 -0.702622 0.273565 0
M  V30 650 H 62.6661 -1.33601 1.25789 0
M  V30 651 H 61.0481 -3.9 0.686703 0
M  V30 652 H 62.2221 -3.08153 3.42605 0
M  V30 653 H 60.5371 -2.90022 2.98791 0
M  V30 654 H 63.1341 -5.16689 1.37611 0
M  V30 655 H 63.4771 -4.16298 -0.0112774 0
M  V30 656 H 64.0101 -3.63987 1.60495 0
M  V30 657 H 60.7491 -4.94408 4.30396 0
M  V30 658 H 60.2691 -5.38172 2.64823 0
M  V30 659 H 61.9481 -5.62987 3.18834 0
M  V30 660 N 62.0802 -0.821533 -1.34494 0
M  V30 661 C 63.0102 -0.257138 -2.3208 0
M  V30 662 C 63.9912 0.625645 -1.58176 0
M  V30 663 O 65.1762 0.552811 -1.86166 0
M  V30 664 C 62.3062 0.582958 -3.42372 0
M  V30 665 C 61.2602 -0.202571 -4.2752 0
M  V30 666 C 60.5862 0.760179 -5.29269 0
M  V30 667 C 61.8862 -1.40998 -5.02908 0
M  V30 668 H 63.5802 -1.07247 -2.79532 0
M  V30 669 H 61.1262 -0.517163 -1.34393 0
M  V30 670 H 63.0792 0.987972 -4.09655 0
M  V30 671 H 61.8032 1.43133 -2.93565 0
M  V30 672 H 60.4622 -0.588936 -3.61838 0
M  V30 673 H 60.1102 1.60447 -4.76724 0
M  V30 674 H 59.8102 0.238809 -5.87115 0
M  V30 675 H 61.3342 1.16308 -5.9942 0
M  V30 676 H 62.7482 -1.07905 -5.63054 0
M  V30 677 H 61.1452 -1.86689 -5.70322 0
M  V30 678 H 62.2152 -2.1889 -4.32684 0
M  V30 679 N 63.5583 1.46682 -0.576371 0
M  V30 680 C 64.8073 2.01619 -0.0572825 0
M  V30 681 C 65.1203 1.45417 1.30818 0
M  V30 682 O 66.3263 1.92133 1.91825 0
M  V30 683 C 64.7823 3.59863 -0.0518371 0
M  V30 684 C 64.3903 4.25059 -1.41523 0
M  V30 685 C 66.1343 4.2248 0.413639 0
M  V30 686 C 64.0413 5.75364 -1.36785 0
M  V30 687 H 62.9713 0.753794 -0.0176448 0
M  V30 688 H 65.6223 1.68481 -0.727076 0
M  V30 689 H 64.0043 3.90048 0.683994 0
M  V30 690 H 65.1783 4.06491 -2.17029 0
M  V30 691 H 63.4933 3.7451 -1.8202 0
M  V30 692 H 66.0903 5.3265 0.467779 0
M  V30 693 H 66.4333 3.90976 1.42982 0
M  V30 694 H 66.9663 3.96897 -0.267929 0
M  V30 695 H 63.7053 6.11518 -2.36063 0
M  V30 696 H 63.2253 5.96214 -0.654895 0
M  V30 697 H 64.9043 6.37955 -1.07805 0
M  V30 698 N 65.0364 0.313813 1.54444 0
M  V30 699 C 66.2834 -0.291675 2.00388 0
M  V30 700 C 66.6114 -1.52904 1.2021 0
M  V30 701 O 65.8664 -1.93833 0.269707 0
M  V30 702 C 66.1654 -0.680386 3.50864 0
M  V30 703 C 65.8314 0.456699 4.48581 0
M  V30 704 C 64.4934 0.768824 4.75018 0
M  V30 705 C 66.8454 1.22098 5.06697 0
M  V30 706 C 64.1734 1.84812 5.56831 0
M  V30 707 C 66.5254 2.29029 5.89685 0
M  V30 708 C 65.1894 2.60834 6.14428 0
M  V30 709 H 64.4594 -0.106732 0.733273 0
M  V30 710 H 67.1064 0.43557 1.86481 0
M  V30 711 H 65.4114 -1.48791 3.62448 0
M  V30 712 H 67.1084 -1.16026 3.83847 0
M  V30 713 H 63.6984 0.203337 4.28117 0
M  V30 714 H 67.8824 0.993096 4.86263 0
M  V30 715 H 63.1384 2.09912 5.74236 0
M  V30 716 H 67.3124 2.887 6.33739 0
M  V30 717 H 64.9394 3.44596 6.77612 0
M  V30 718 N 66.5145 -1.57545 0.0417849 0
M  V30 719 C 67.7635 -1.91494 -0.633492 0
M  V30 720 C 68.0765 -0.921084 -1.72556 0
M  V30 721 O 69.2825 -1.15228 -2.45835 0
M  V30 722 C 67.7385 -3.40072 -1.17808 0
M  V30 723 C 67.3465 -4.47843 -0.118633 0
M  V30 724 C 69.0905 -3.8307 -1.82915 0
M  V30 725 C 66.9975 -5.87529 -0.675578 0
M  V30 726 H 65.9275 -0.714653 -0.24039 0
M  V30 727 H 68.5785 -1.83175 0.109148 0
M  V30 728 H 66.9605 -3.43364 -1.97274 0
M  V30 729 H 68.1345 -4.56128 0.654494 0
M  V30 730 H 66.4495 -4.14128 0.434414 0
M  V30 731 H 69.0465 -4.84794 -2.25563 0
M  V30 732 H 69.3895 -3.1881 -2.67705 0
M  V30 733 H 69.9225 -3.82255 -1.10119 0
M  V30 734 H 66.6615 -6.55362 0.134475 0
M  V30 735 H 66.1815 -5.82824 -1.4169 0
M  V30 736 H 67.8605 -6.36491 -1.1614 0
M  V30 737 N 67.9926 0.231505 -1.5589 0
M  V30 738 C 69.4036 0.799327 -1.68724 0
M  V30 739 C 69.7546 1.85398 -0.642022 0
M  V30 740 O 68.8796 2.1539 0.208784 0
M  V30 741 C 69.4746 1.45664 -3.05888 0
M  V30 742 C 68.0336 1.97197 -3.20609 0
M  V30 743 C 67.1806 0.828552 -2.64632 0
M  V30 744 H 70.1316 0.00702616 -1.58698 0
M  V30 745 H 70.1526 2.32517 -3.01191 0
M  V30 746 H 69.6646 0.688808 -3.81939 0
M  V30 747 H 67.7656 2.76813 -2.4941 0
M  V30 748 H 67.8786 2.15878 -4.27707 0
M  V30 749 H 66.2426 1.23321 -2.22854 0
M  V30 750 H 67.0256 0.0735544 -3.43221 0
M  V30 751 N 69.4707 1.49531 0.497807 0
M  V30 752 C 70.7187 1.58865 1.24926 0
M  V30 753 C 71.0397 0.278721 1.92998 0
M  V30 754 O 70.3097 -0.702144 1.82885 0
M  V30 755 H 68.8897 0.585343 0.464094 0
M  V30 756 H 71.5517 1.86174 0.57666 0
M  V30 757 H 70.6477 2.38633 2.01149 0
M  V30 758 N 70.9488 -0.749086 1.3866 0
M  V30 759 C 71.8788 -1.8764 1.38973 0
M  V30 760 C 72.8598 -1.68178 0.255004 0
M  V30 761 O 74.0448 -1.88704 0.458754 0
M  V30 762 C 71.1748 -3.25222 1.21851 0
M  V30 763 C 70.1288 -3.59295 2.32575 0
M  V30 764 C 69.4548 -4.95663 2.00555 0
M  V30 765 C 70.7548 -3.63709 3.7485 0
M  V30 766 H 72.4488 -1.87635 2.3331 0
M  V30 767 H 69.9948 -0.901329 1.12303 0
M  V30 768 H 71.9478 -4.03746 1.20695 0
M  V30 769 H 70.6718 -3.25719 0.239775 0
M  V30 770 H 69.3308 -2.83093 2.32925 0
M  V30 771 H 68.9788 -4.92724 1.01154 0
M  V30 772 H 68.6788 -5.19429 2.74714 0
M  V30 773 H 70.2028 -5.7656 2.01024 0
M  V30 774 H 71.6168 -4.32338 3.76506 0
M  V30 775 H 70.0138 -3.98986 4.48252 0
M  V30 776 H 71.0838 -2.63834 4.06841 0
M  V30 777 N 72.4269 -1.23603 -0.977757 0
M  V30 778 C 73.3569 -1.04401 -2.0886 0
M  V30 779 C 74.3379 0.0399052 -1.70053 0
M  V30 780 O 75.5229 -0.125246 -1.93796 0
M  V30 781 C 72.6529 -0.637269 -3.41403 0
M  V30 782 C 71.6069 -1.66883 -3.94124 0
M  V30 783 C 70.9329 -1.11745 -5.22893 0
M  V30 784 C 72.2329 -3.06247 -4.23096 0
M  V30 785 H 73.9269 -1.97316 -2.25182 0
M  V30 786 H 71.4729 -0.950096 -1.08209 0
M  V30 787 H 73.4259 -0.48998 -4.18542 0
M  V30 788 H 72.1499 0.327557 -3.24953 0
M  V30 789 H 70.8089 -1.80416 -3.19133 0
M  V30 790 H 70.4569 -0.143527 -5.02795 0
M  V30 791 H 70.1569 -1.80672 -5.59134 0
M  V30 792 H 71.6809 -0.982067 -6.02651 0
M  V30 793 H 73.0949 -2.96001 -4.90975 0
M  V30 794 H 71.4919 -3.72436 -4.70544 0
M  V30 795 H 72.5619 -3.55041 -3.30263 0
M  V30 796 N 73.905 1.17692 -1.04816 0
M  V30 797 C 74.868 2.19787 -0.650117 0
M  V30 798 C 75.868 1.58044 0.296427 0
M  V30 799 O 77.058 1.74012 0.0808097 0
M  V30 800 C 74.19 3.40869 0.0456987 0
M  V30 801 H 75.383 2.56516 -1.5537 0
M  V30 802 H 72.936 1.31708 -0.841594 0
M  V30 803 H 73.671 3.09681 0.962726 0
M  V30 804 H 73.456 3.86928 -0.634727 0
M  V30 805 H 74.946 4.16445 0.310432 0
M  V30 806 N 75.3831 0.828654 1.34056 0
M  V30 807 C 76.3311 0.242973 2.31327 0
M  V30 808 C 77.3251 -0.61944 1.57668 0
M  V30 809 O 78.5311 -0.51014 1.7262 0
M  V30 810 H 74.9061 0.059834 0.749616 0
M  V30 811 H 76.8771 1.07809 2.78244 0
M  V30 812 C 75.6261 -0.575733 3.429 0
M  V30 813 H 74.9491 0.0785582 3.99723 0
M  V30 814 H 76.3891 -0.951547 4.13185 0
M  V30 815 C 74.8481 -1.75044 2.87856 0
M  V30 816 O 75.3781 -2.84882 2.83205 0
M  V30 817 N 73.5841 -1.56903 2.44602 0
M  V30 818 H 73.1311 -0.675547 2.48584 0
M  V30 819 H 73.0891 -2.35652 2.08124 0
M  V30 820 N 76.8612 -1.46375 0.584142 0
M  V30 821 C 78.0862 -2.07268 0.0740405 0
M  V30 822 C 78.5112 -1.42979 -1.22223 0
M  V30 823 O 77.8692 -0.514092 -1.73859 0
M  V30 824 C 77.9172 -3.60518 -0.0767769 0
M  V30 825 O 77.0212 -3.96533 -1.13292 0
M  V30 826 H 76.3622 -0.660961 0.0634524 0
M  V30 827 H 78.8922 -1.87991 0.807492 0
M  V30 828 H 78.9022 -4.07021 -0.282489 0
M  V30 829 H 77.5772 -4.06702 0.86986 0
M  V30 830 H 76.1542 -3.61738 -0.905553 0
M  V30 831 N 78.3393 -0.321999 -1.54275 0
M  V30 832 C 79.3023 0.531975 -2.22941 0
M  V30 833 C 80.3023 1.04478 -1.22234 0
M  V30 834 O 81.4923 0.937452 -1.46825 0
M  V30 835 C 78.6243 1.73874 -2.93224 0
M  V30 836 H 79.8173 -0.0682612 -2.99822 0
M  V30 837 H 77.3703 -0.0730644 -1.56129 0
M  V30 838 H 78.1053 2.37825 -2.20476 0
M  V30 839 H 77.8903 1.37847 -3.6707 0
M  V30 840 H 79.3803 2.34496 -3.45545 0
M  V30 841 N 79.8174 1.5752 -0.0501392 0
M  V30 842 C 80.7804 2.1037 0.909786 0
M  V30 843 C 81.7804 1.02308 1.24056 0
M  V30 844 O 82.9704 1.28385 1.17741 0
M  V30 845 C 80.1024 2.58708 2.21998 0
M  V30 846 H 81.2954 2.96479 0.451665 0
M  V30 847 H 78.8484 1.55038 0.198248 0
M  V30 848 H 79.5834 1.75989 2.72394 0
M  V30 849 H 79.3684 3.37675 1.99295 0
M  V30 850 H 80.8584 2.99747 2.9076 0
M  V30 851 N 81.2955 -0.223234 1.56011 0
M  V30 852 C 82.2255 -1.27988 1.95298 0
M  V30 853 C 83.2065 -1.48976 0.820979 0
M  V30 854 O 84.3915 -1.61188 1.08315 0
M  V30 855 C 81.5215 -2.63 2.26822 0
M  V30 856 C 80.4755 -2.56671 3.42497 0
M  V30 857 C 79.8015 -3.95697 3.59622 0
M  V30 858 C 81.1015 -2.11601 4.77517 0
M  V30 859 H 82.7955 -0.953525 2.8381 0
M  V30 860 H 80.3415 -0.457244 1.36548 0
M  V30 861 H 82.2945 -3.37077 2.52898 0
M  V30 862 H 81.0185 -2.9732 1.35161 0
M  V30 863 H 79.6775 -1.85051 3.16467 0
M  V30 864 H 79.3255 -4.27322 2.6534 0
M  V30 865 H 79.0255 -3.92345 4.37424 0
M  V30 866 H 80.5495 -4.71438 3.88044 0
M  V30 867 H 81.9635 -2.7542 5.02809 0
M  V30 868 H 80.3605 -2.19311 5.5859 0
M  V30 869 H 81.4305 -1.06824 4.72987 0
M  V30 870 N 82.7736 -1.49793 -0.48987 0
M  V30 871 C 84.0196 -1.61049 -1.24236 0
M  V30 872 C 84.3746 -0.298412 -1.90072 0
M  V30 873 O 83.6676 0.702262 -1.78266 0
M  V30 874 C 83.8616 -2.71488 -2.32441 0
M  V30 875 C 83.6906 -4.13308 -1.77218 0
M  V30 876 C 82.4606 -4.79955 -1.58023 0
M  V30 877 C 84.6586 -4.98176 -1.27772 0
M  V30 878 N 82.6406 -6.06052 -0.978465 0
M  V30 879 C 84.0116 -6.14843 -0.798 0
M  V30 880 C 86.0666 -4.84091 -1.16449 0
M  V30 881 C 84.7696 -7.18975 -0.216245 0
M  V30 882 C 86.7956 -5.88382 -0.596698 0
M  V30 883 C 86.1576 -7.04285 -0.127262 0
M  V30 884 H 82.2566 -0.643611 -0.444172 0
M  V30 885 H 84.8406 -1.86842 -0.54754 0
M  V30 886 H 83.0116 -2.47449 -2.99372 0
M  V30 887 H 84.7436 -2.72205 -2.99477 0
M  V30 888 H 81.4986 -4.36936 -1.82712 0
M  V30 889 H 81.9226 -6.73407 -0.696534 0
M  V30 890 H 86.5646 -3.94786 -1.5134 0
M  V30 891 H 84.2826 -8.0797 0.144903 0
M  V30 892 H 87.8686 -5.79545 -0.511716 0
M  V30 893 H 86.7486 -7.83606 0.30523 0
M  V30 894 N 84.2517 0.741722 -1.39055 0
M  V30 895 C 85.4977 1.50336 -1.36113 0
M  V30 896 C 85.8307 1.94148 0.0450796 0
M  V30 897 O 85.1057 1.66301 1.00868 0
M  V30 898 C 85.3887 2.74773 -2.32749 0
M  V30 899 C 85.2417 2.37023 -3.82283 0
M  V30 900 C 86.5607 3.76846 -2.27322 0
M  V30 901 H 83.6797 0.545351 -0.495743 0
M  V30 902 H 86.3217 0.848624 -1.69995 0
M  V30 903 H 84.4717 3.30639 -2.03986 0
M  V30 904 H 86.1437 1.8684 -4.21768 0
M  V30 905 H 84.3867 1.69334 -3.99385 0
M  V30 906 H 85.0577 3.26104 -4.45376 0
M  V30 907 H 87.5337 3.30548 -2.5274 0
M  V30 908 H 86.4097 4.6159 -2.97028 0
M  V30 909 H 86.6707 4.23286 -1.27599 0
M  V30 910 N 85.7298 1.2412 0.971189 0
M  V30 911 C 86.6598 1.05508 2.08304 0
M  V30 912 C 87.6408 -0.0308864 1.70072 0
M  V30 913 O 88.8258 0.135521 1.93727 0
M  V30 914 C 85.9558 0.655365 3.4106 0
M  V30 915 C 84.9098 1.68971 3.93234 0
M  V30 916 C 84.2358 1.14516 5.22293 0
M  V30 917 C 85.5358 3.08487 4.21465 0
M  V30 918 H 87.2298 1.98507 2.24132 0
M  V30 919 H 84.7758 0.955821 1.07704 0
M  V30 920 H 86.7288 0.51217 4.18276 0
M  V30 921 H 85.4528 -0.31032 3.25122 0
M  V30 922 H 84.1118 1.82106 3.18171 0
M  V30 923 H 83.7598 0.170189 5.02712 0
M  V30 924 H 83.4598 1.83635 5.58168 0
M  V30 925 H 84.9838 1.01401 6.02121 0
M  V30 926 H 86.3978 2.98601 4.89398 0
M  V30 927 H 84.7948 3.74926 4.68562 0
M  V30 928 H 85.8648 3.56787 3.28376 0
M  V30 929 N 87.2079 -1.17134 1.05439 0
M  V30 930 C 88.4479 -1.89137 0.77502 0
M  V30 931 C 88.8119 -1.79345 -0.685526 0
M  V30 932 O 90.0129 -2.46188 -1.0791 0
M  V30 933 C 88.2839 -3.35003 1.2453 0
M  V30 934 S 89.8429 -4.24952 1.09367 0
M  V30 935 H 86.6609 -0.652949 0.281387 0
M  V30 936 H 89.2629 -1.4145 1.34953 0
M  V30 937 H 87.9669 -3.39666 2.30338 0
M  V30 938 H 87.4979 -3.87736 0.665166 0
M  V30 939 H 89.5129 -4.96196 0.0193397 0
M  V30 940 N 88.686 -0.835752 -1.33615 0
M  V30 941 C 90.102 -0.523139 -1.50783 0
M  V30 942 C 90.302 0.950171 -1.77691 0
M  V30 943 O 89.358 1.73411 -1.83534 0
M  V30 944 C 90.671 -1.39378 -2.66448 0
M  V30 945 C 92.219 -1.39223 -2.80332 0
M  V30 946 C 92.694 -2.24765 -3.99055 0
M  V30 947 N 94.185 -2.22458 -4.06284 0
M  V30 948 C 94.92 -2.85386 -4.97336 0
M  V30 949 N 94.416 -3.57354 -5.93523 0
M  V30 950 N 96.209 -2.74872 -4.90308 0
M  V30 951 H 88.36 -1.78952 -1.14411 0
M  V30 952 H 90.623 -0.763297 -0.562212 0
M  V30 953 H 90.329 -2.44061 -2.53234 0
M  V30 954 H 90.203 -1.0676 -3.61776 0
M  V30 955 H 92.59 -0.353136 -2.92979 0
M  V30 956 H 92.671 -1.75846 -1.85773 0
M  V30 957 H 92.315 -3.28732 -3.87167 0
M  V30 958 H 92.245 -1.85485 -4.92852 0
M  V30 959 H 94.736 -1.70119 -3.37443 0
M  V30 960 H 95.049 -4.02584 -6.59656 0
M  V30 961 H 93.394 -3.61461 -5.93608 0
M  V30 962 H 96.585 -2.18213 -4.14126 0
M  V30 963 H 96.758 -3.24199 -5.61069 0
M  V30 964 N 90.1641 1.46063 -0.591896 0
M  V30 965 C 91.4111 2.02338 -0.0809991 0
M  V30 966 C 91.7391 1.46228 1.28249 0
M  V30 967 O 90.9941 0.620818 1.85592 0
M  V30 968 C 91.2931 3.57391 0.0249813 0
M  V30 969 C 90.9591 4.32583 -1.27211 0
M  V30 970 C 89.6211 4.52844 -1.62745 0
M  V30 971 C 91.9731 4.75687 -2.13005 0
M  V30 972 C 89.3011 5.13462 -2.83855 0
M  V30 973 C 91.6531 5.37644 -3.3335 0
M  V30 974 C 90.3171 5.5613 -3.69155 0
M  V30 975 H 89.5871 0.740407 -0.0296397 0
M  V30 976 H 92.2341 1.75321 -0.770374 0
M  V30 977 H 90.5391 3.83597 0.797537 0
M  V30 978 H 92.2361 3.98621 0.436184 0
M  V30 979 H 88.8261 4.17116 -0.985499 0
M  V30 980 H 93.0101 4.59782 -1.86855 0
M  V30 981 H 88.2661 5.25965 -3.11722 0
M  V30 982 H 92.4401 5.7 -4.00092 0
M  V30 983 H 90.0671 6.0287 -4.63089 0
M  V30 984 N 91.6422 0.330177 1.54103 0
M  V30 985 C 92.8912 -0.271336 1.99867 0
M  V30 986 C 93.2042 -1.52723 1.22209 0
M  V30 987 O 94.4102 -2.20515 1.58383 0
M  V30 988 C 92.8662 -0.534032 3.55916 0
M  V30 989 C 92.4742 0.705193 4.42415 0
M  V30 990 C 94.2182 -1.09514 4.1013 0
M  V30 991 C 92.1252 0.414035 5.89949 0
M  V30 992 H 91.0552 -0.105166 0.74663 0
M  V30 993 H 93.7062 0.443429 1.78062 0
M  V30 994 H 92.0882 -1.30915 3.73734 0
M  V30 995 H 93.2622 1.4804 4.36372 0
M  V30 996 H 91.5772 1.18698 3.99124 0
M  V30 997 H 94.1742 -1.3277 5.17954 0
M  V30 998 H 94.5172 -2.04656 3.62521 0
M  V30 999 H 95.0502 -0.381038 3.95971 0
M  V30 1000 H 91.7892 1.33481 6.41766 0
M  V30 1001 H 91.3092 -0.323336 5.98928 0
M  V30 1002 H 92.9882 0.0263105 6.46995 0
M  V30 1003 N 93.1203 -1.57491 0.0584922 0
M  V30 1004 C 94.3453 -1.97711 -0.62652 0
M  V30 1005 C 94.7703 -0.936132 -1.63151 0
M  V30 1006 O 94.1283 0.099811 -1.81025 0
M  V30 1007 C 94.1763 -3.36989 -1.28338 0
M  V30 1008 O 93.2803 -3.35433 -2.39913 0
M  V30 1009 H 92.6213 -0.643868 -0.162266 0
M  V30 1010 H 95.1513 -2.04193 0.129064 0
M  V30 1011 H 95.1613 -3.73879 -1.63335 0
M  V30 1012 H 93.8363 -4.12289 -0.546889 0
M  V30 1013 H 92.4133 -3.10298 -2.06809 0
M  V30 1014 N 94.5984 0.214957 -1.56127 0
M  V30 1015 C 95.5454 1.26642 -1.92952 0
M  V30 1016 C 96.5154 1.46244 -0.78753 0
M  V30 1017 O 97.7004 1.59704 -1.04399 0
M  V30 1018 C 94.8404 2.6104 -2.25726 0
M  V30 1019 C 93.9534 2.49183 -3.52891 0
M  V30 1020 C 93.0884 3.76149 -3.7508 0
M  V30 1021 C 92.1274 3.59041 -4.95738 0
M  V30 1022 N 91.2644 4.77972 -5.14283 0
M  V30 1023 H 96.1044 0.945384 -2.82607 0
M  V30 1024 H 93.6414 0.455489 -1.3987 0
M  V30 1025 H 95.5994 3.39313 -2.42739 0
M  V30 1026 H 94.2294 2.91227 -1.39236 0
M  V30 1027 H 93.2814 1.6231 -3.44034 0
M  V30 1028 H 94.5934 2.32466 -4.41318 0
M  V30 1029 H 93.7474 4.62865 -3.92226 0
M  V30 1030 H 92.4864 3.95799 -2.84947 0
M  V30 1031 H 91.4914 2.7071 -4.78535 0
M  V30 1032 H 92.7164 3.40856 -5.87362 0
M  V30 1033 H 90.6624 4.97923 -4.27093 0
M  V30 1034 H 90.5794 4.64006 -5.96853 0
M  V30 1035 H 91.8474 5.66096 -5.35869 0
M  V30 1036 N 96.0765 1.50051 0.48192 0
M  V30 1037 C 97.0235 1.68122 1.58125 0
M  V30 1038 C 97.9935 0.522545 1.57666 0
M  V30 1039 O 99.1785 0.751844 1.75362 0
M  V30 1040 C 96.3185 1.77142 2.96167 0
M  V30 1041 C 95.4315 3.0444 3.06497 0
M  V30 1042 C 94.5665 3.04321 4.35387 0
M  V30 1043 C 93.6055 4.26118 4.3942 0
M  V30 1044 N 92.7425 4.238 5.59766 0
M  V30 1045 H 97.5825 2.6198 1.42022 0
M  V30 1046 H 95.1195 1.29877 0.690687 0
M  V30 1047 H 97.0775 1.80352 3.76203 0
M  V30 1048 H 95.7075 0.867329 3.1093 0
M  V30 1049 H 94.7595 3.10752 2.19402 0
M  V30 1050 H 96.0715 3.94426 3.05336 0
M  V30 1051 H 95.2255 3.062 5.23762 0
M  V30 1052 H 93.9645 2.12147 4.39141 0
M  V30 1053 H 92.9695 4.24463 3.49444 0
M  V30 1054 H 94.1945 5.19507 4.37366 0
M  V30 1055 H 92.1405 3.34474 5.64326 0
M  V30 1056 H 92.0575 5.07542 5.60301 0
M  V30 1057 H 93.3255 4.2981 6.50295 0
M  V30 1058 N 97.5546 -0.734337 1.39446 0
M  V30 1059 C 98.5026 -1.86971 1.38364 0
M  V30 1060 C 99.4966 -1.67288 0.266687 0
M  V30 1061 O 100.703 -1.74621 0.436755 0
M  V30 1062 H 97.0776 -0.615474 0.432082 0
M  V30 1063 H 99.0486 -1.85 2.34132 0
M  V30 1064 C 97.7976 -3.2466 1.24465 0
M  V30 1065 H 97.1206 -3.40402 2.09682 0
M  V30 1066 H 98.5606 -4.04292 1.27764 0
M  V30 1067 C 97.0196 -3.36867 -0.0468674 0
M  V30 1068 O 97.5496 -3.88618 -1.01681 0
M  V30 1069 N 95.7556 -2.90391 -0.110145 0
M  V30 1070 H 95.3026 -2.48466 0.679868 0
M  V30 1071 H 95.2606 -2.98939 -0.973799 0
M  V30 1072 N 99.0327 -1.24633 -0.964593 0
M  V30 1073 C 99.9797 -1.04144 -2.05968 0
M  V30 1074 C 100.95 0.046262 -1.66036 0
M  V30 1075 O 102.135 -0.108972 -1.90489 0
M  V30 1076 C 99.2747 -0.65563 -3.38815 0
M  V30 1077 C 98.3877 -1.81714 -3.91923 0
M  V30 1078 C 97.5227 -1.37662 -5.13052 0
M  V30 1079 C 96.5617 -2.50788 -5.58365 0
M  V30 1080 N 95.6987 -2.07582 -6.70712 0
M  V30 1081 H 100.539 -1.9787 -2.22827 0
M  V30 1082 H 98.0757 -0.9855 -1.09208 0
M  V30 1083 H 100.034 -0.412954 -4.15151 0
M  V30 1084 H 98.6637 0.244627 -3.21872 0
M  V30 1085 H 97.7157 -2.1734 -3.12198 0
M  V30 1086 H 99.0277 -2.66705 -4.21509 0
M  V30 1087 H 98.1817 -1.093 -5.96773 0
M  V30 1088 H 96.9207 -0.497293 -4.85158 0
M  V30 1089 H 95.9257 -2.79906 -4.73215 0
M  V30 1090 H 97.1507 -3.39283 -5.88272 0
M  V30 1091 H 95.0967 -1.22051 -6.44546 0
M  V30 1092 H 95.0137 -2.86125 -6.99763 0
M  V30 1093 H 96.2817 -1.82369 -7.57867 0
M  V30 1094 N 100.511 1.16574 -1.06058 0
M  V30 1095 C 101.474 2.19085 -0.673392 0
M  V30 1096 C 102.474 1.5835 0.279648 0
M  V30 1097 O 103.664 1.74088 0.0623488 0
M  V30 1098 C 100.796 3.40899 0.00954234 0
M  V30 1099 H 101.989 2.54853 -1.58081 0
M  V30 1100 H 99.5418 1.30808 -0.855516 0
M  V30 1101 H 100.277 3.10684 0.929826 0
M  V30 1102 H 100.062 3.86233 -0.67573 0
M  V30 1103 H 101.552 4.1675 0.266245 0
M  V30 1104 N 101.989 0.842826 1.3317 0
M  V30 1105 C 103.238 0.436738 1.96915 0
M  V30 1106 C 103.551 -1.01025 1.67491 0
M  V30 1107 O 104.757 -1.5212 2.24881 0
M  V30 1108 C 103.213 0.730021 3.52418 0
M  V30 1109 C 102.821 2.19195 3.90714 0
M  V30 1110 C 104.565 0.391076 4.22695 0
M  V30 1111 C 102.472 2.42907 5.39212 0
M  V30 1112 H 101.402 0.15958 0.736919 0
M  V30 1113 H 104.053 1.03196 1.51733 0
M  V30 1114 H 102.435 0.0643755 3.95948 0
M  V30 1115 H 103.609 2.8984 3.58231 0
M  V30 1116 H 101.924 2.49425 3.33431 0
M  V30 1117 H 104.521 0.545817 5.31907 0
M  V30 1118 H 104.864 -0.666294 4.10933 0
M  V30 1119 H 105.397 1.01212 3.84709 0
M  V30 1120 H 102.136 3.47224 5.55982 0
M  V30 1121 H 101.656 1.76827 5.73142 0
M  V30 1122 H 103.335 2.2626 6.06148 0
M  V30 1123 N 103.467 -1.45747 0.599634 0
M  V30 1124 C 104.716 -2.01502 0.0893511 0
M  V30 1125 C 105.029 -1.4748 -1.28488 0
M  V30 1126 O 106.235 -1.95161 -1.88745 0
M  V30 1127 C 104.691 -3.59735 0.109082 0
M  V30 1128 C 104.299 -4.22754 1.48267 0
M  V30 1129 C 106.043 -4.23085 -0.346374 0
M  V30 1130 C 103.95 -5.73115 1.45921 0
M  V30 1131 H 102.88 -0.753417 0.0296347 0
M  V30 1132 H 105.531 -1.67303 0.753788 0
M  V30 1133 H 103.913 -3.91087 -0.621854 0
M  V30 1134 H 105.087 -4.02987 2.23468 0
M  V30 1135 H 103.402 -3.71567 1.87955 0
M  V30 1136 H 105.999 -5.33327 -0.38298 0
M  V30 1137 H 106.342 -3.93201 -1.36743 0
M  V30 1138 H 106.875 -3.9642 0.331038 0
M  V30 1139 H 103.614 -6.07685 2.45762 0
M  V30 1140 H 103.134 -5.95097 0.749665 0
M  V30 1141 H 104.813 -6.3616 1.17941 0
M  V30 1142 N 104.945 -0.338344 -1.53925 0
M  V30 1143 C 106.192 0.259758 -2.00827 0
M  V30 1144 C 106.52 1.50973 -1.22628 0
M  V30 1145 O 105.775 1.93379 -0.300509 0
M  V30 1146 C 106.074 0.62448 -3.51902 0
M  V30 1147 C 105.74 -0.528006 -4.47798 0
M  V30 1148 C 104.402 -0.844298 -4.73735 0
M  V30 1149 C 106.754 -1.30143 -5.0469 0
M  V30 1150 C 104.082 -1.93648 -5.53821 0
M  V30 1151 C 106.434 -2.38382 -5.85967 0
M  V30 1152 C 105.098 -2.70576 -6.10201 0
M  V30 1153 H 104.368 0.0950523 -0.734878 0
M  V30 1154 H 107.015 -0.465182 -1.85764 0
M  V30 1155 H 105.32 1.43006 -3.64769 0
M  V30 1156 H 107.017 1.09905 -3.85645 0
M  V30 1157 H 103.607 -0.271421 -4.2774 0
M  V30 1158 H 107.791 -1.07033 -4.84621 0
M  V30 1159 H 103.047 -2.19021 -5.70824 0
M  V30 1160 H 107.221 -2.98746 -6.29066 0
M  V30 1161 H 104.848 -3.55333 -6.72044 0
M  V30 1162 N 106.423 1.57458 -0.0668435 0
M  V30 1163 C 107.356 2.08033 0.93795 0
M  V30 1164 C 108.334 0.984321 1.29421 0
M  V30 1165 O 109.518 1.25736 1.40437 0
M  V30 1166 C 106.645 2.53388 2.24749 0
M  V30 1167 C 105.691 3.74376 2.04315 0
M  V30 1168 S 106.524 5.19303 1.30706 0
M  V30 1169 C 107.68 5.67986 2.62951 0
M  V30 1170 H 107.913 2.92935 0.50759 0
M  V30 1171 H 105.446 1.5371 0.145804 0
M  V30 1172 H 107.404 2.8018 3.00016 0
M  V30 1173 H 106.065 1.68763 2.64911 0
M  V30 1174 H 105.258 4.04083 3.01218 0
M  V30 1175 H 104.86 3.47931 1.37186 0
M  V30 1176 H 107.152 5.74528 3.5906 0
M  V30 1177 H 108.095 6.66955 2.3786 0
M  V30 1178 H 108.503 4.95781 2.69929 0
M  V30 1179 N 107.901 -0.206675 1.56239 0
M  V30 1180 C 109.15 -0.926964 1.79138 0
M  V30 1181 C 109.463 -1.84901 0.638043 0
M  V30 1182 O 110.669 -2.60906 0.751033 0
M  V30 1183 C 109.125 -1.6986 3.17294 0
M  V30 1184 C 108.733 -0.821956 4.40395 0
M  V30 1185 C 110.477 -2.40922 3.4951 0
M  V30 1186 C 108.384 -1.59179 5.69575 0
M  V30 1187 H 107.314 -0.349864 0.667915 0
M  V30 1188 H 109.965 -0.180487 1.8261 0
M  V30 1189 H 108.347 -2.48853 3.08039 0
M  V30 1190 H 109.521 -0.0715019 4.60745 0
M  V30 1191 H 107.836 -0.222741 4.15804 0
M  V30 1192 H 110.433 -2.99047 4.43255 0
M  V30 1193 H 110.776 -3.14542 2.72707 0
M  V30 1194 H 111.309 -1.68905 3.60161 0
M  V30 1195 H 108.048 -0.898589 6.49312 0
M  V30 1196 H 107.568 -2.31648 5.53262 0
M  V30 1197 H 109.247 -2.14862 6.10281 0
M  V30 1198 N 109.379 -1.50304 -0.473955 0
M  V30 1199 C 110.327 -1.69482 -1.59307 0
M  V30 1200 C 111.321 -0.560669 -1.59853 0
M  V30 1201 O 112.527 -0.741087 -1.64036 0
M  V30 1202 H 108.902 -0.534892 -0.528578 0
M  V30 1203 H 110.873 -2.63364 -1.40293 0
M  V30 1204 C 109.622 -1.80354 -2.97267 0
M  V30 1205 H 108.945 -2.67012 -2.97564 0
M  V30 1206 H 110.385 -1.97798 -3.75036 0
M  V30 1207 C 108.844 -0.55448 -3.32306 0
M  V30 1208 O 109.374 0.307661 -4.0052 0
M  V30 1209 N 107.58 -0.409354 -2.87702 0
M  V30 1210 H 107.127 -1.11196 -2.32364 0
M  V30 1211 H 107.085 0.425223 -3.11511 0
M  V30 1212 N 110.857 0.726932 -1.39834 0
M  V30 1213 C 111.787 1.85405 -1.41941 0
M  V30 1214 C 112.768 1.67751 -0.281728 0
M  V30 1215 O 113.953 1.8795 -0.488717 0
M  V30 1216 C 111.083 3.23243 -1.2701 0
M  V30 1217 C 110.037 3.55549 -2.38262 0
M  V30 1218 C 109.363 4.9241 -2.08415 0
M  V30 1219 C 110.663 3.577 -3.80589 0
M  V30 1220 H 112.357 1.83899 -2.36266 0
M  V30 1221 H 109.903 0.883349 -1.13723 0
M  V30 1222 H 111.856 4.01775 -1.27103 0
M  V30 1223 H 110.58 3.25296 -0.291564 0
M  V30 1224 H 109.239 2.79351 -2.37399 0
M  V30 1225 H 108.887 4.91052 -1.0898 0
M  V30 1226 H 108.587 5.14992 -2.82943 0
M  V30 1227 H 110.111 5.73289 -2.10171 0
M  V30 1228 H 111.525 4.26293 -3.83337 0
M  V30 1229 H 109.922 3.91804 -4.54543 0
M  V30 1230 H 110.992 2.57328 -4.10987 0
M  V30 1231 N 112.336 1.25143 0.95797 0
M  V30 1232 C 113.561 1.12521 1.74223 0
M  V30 1233 C 113.986 -0.317402 1.85403 0
M  V30 1234 O 113.344 -1.2299 1.33204 0
M  V30 1235 C 113.392 1.78062 3.1357 0
M  V30 1236 O 112.496 1.058 3.98598 0
M  V30 1237 H 111.837 0.39304 0.535178 0
M  V30 1238 H 114.367 1.65641 1.201 0
M  V30 1239 H 114.377 1.84213 3.64046 0
M  V30 1240 H 113.052 2.83021 3.04749 0
M  V30 1241 H 111.629 1.07506 3.57067 0
M  V30 1242 N 113.814 -1.1601 1.06675 0
M  V30 1243 C 115.06 -1.86909 0.786945 0
M  V30 1244 C 115.393 -1.81717 -0.685018 0
M  V30 1245 O 114.668 -1.23551 -1.50218 0
M  V30 1246 C 114.951 -3.36313 1.28707 0
M  V30 1247 C 114.804 -3.50175 2.82308 0
M  V30 1248 C 116.123 -4.3084 0.898071 0
M  V30 1249 H 113.242 -0.678677 0.287343 0
M  V30 1250 H 115.884 -1.36336 1.32334 0
M  V30 1251 H 114.034 -3.79513 0.830768 0
M  V30 1252 H 115.706 -3.15886 3.36175 0
M  V30 1253 H 113.949 -2.91959 3.20847 0
M  V30 1254 H 114.62 -4.55116 3.12368 0
M  V30 1255 H 117.096 -3.95561 1.29114 0
M  V30 1256 H 115.972 -5.33876 1.27543 0
M  V30 1257 H 116.233 -4.41662 -0.196651 0
M  V30 1258 N 115.292 -0.849877 -1.32721 0
M  V30 1259 C 116.255 -0.296122 -2.27279 0
M  V30 1260 C 117.255 0.541458 -1.5141 0
M  V30 1261 O 118.445 0.353658 -1.70572 0
M  V30 1262 C 115.577 0.581579 -3.35902 0
M  V30 1263 H 116.77 -1.13064 -2.77771 0
M  V30 1264 H 114.323 -0.62383 -1.43311 0
M  V30 1265 H 115.058 1.43809 -2.9067 0
M  V30 1266 H 114.843 -0.0178814 -3.92096 0
M  V30 1267 H 116.333 0.961951 -4.0637 0
M  V30 1268 N 116.77 1.45427 -0.607355 0
M  V30 1269 C 118.047 1.9557 -0.0344566 0
M  V30 1270 C 118.427 1.54979 1.43334 0
M  V30 1271 O 117.775 0.812241 2.13576 0
M  V30 1272 C 117.985 3.48226 -0.232321 0
M  V30 1273 C 119.333 4.2445 -0.113001 0
M  V30 1274 O 120.357 3.55829 -0.162431 0
M  V30 1275 O 119.216 5.465 0.00209442 0
M  V30 1276 H 116.31 0.826222 0.0358667 0
M  V30 1277 H 118.856 1.55594 -0.6774 0
M  V30 1278 H 117.628 3.70739 -1.25174 0
M  V30 1279 H 117.251 3.95092 0.445896 0
M  V30 1280 N 118.248 0.346503 1.53744 0
M  V30 1281 C 119.178 -0.501193 2.28058 0
M  V30 1282 C 120.159 -1.10014 1.29734 0
M  V30 1283 O 121.344 -1.12097 1.58581 0
M  V30 1284 C 118.474 -1.65078 3.05559 0
M  V30 1285 C 117.428 -1.18003 4.11411 0
M  V30 1286 C 116.754 -2.41837 4.76884 0
M  V30 1287 C 118.054 -0.278394 5.21558 0
M  V30 1288 H 119.748 0.11875 2.99164 0
M  V30 1289 H 117.294 0.0585531 1.43881 0
M  V30 1290 H 119.247 -2.25028 3.56287 0
M  V30 1291 H 117.971 -2.29767 2.32109 0
M  V30 1292 H 116.63 -0.603331 3.61601 0
M  V30 1293 H 116.278 -3.0494 4.00026 0
M  V30 1294 H 115.978 -2.1102 5.48402 0
M  V30 1295 H 117.502 -3.02508 5.30397 0
M  V30 1296 H 118.916 -0.784823 5.67903 0
M  V30 1297 H 117.313 -0.0619707 6.00068 0
M  V30 1298 H 118.383 0.684677 4.80042 0
M  V30 1299 N 119.726 -1.57421 0.075193 0
M  V30 1300 C 120.689 -2.11791 -0.876203 0
M  V30 1301 C 121.689 -1.04268 -1.22412 0
M  V30 1302 O 122.879 -1.30242 -1.15684 0
M  V30 1303 C 120.011 -2.62207 -2.17854 0
M  V30 1304 H 121.204 -2.9716 -0.40444 0
M  V30 1305 H 118.757 -1.55333 -0.173557 0
M  V30 1306 H 119.492 -1.803 -2.6956 0
M  V30 1307 H 119.277 -3.40802 -1.93897 0
M  V30 1308 H 120.767 -3.04335 -2.85955 0
M  V30 1309 N 121.204 0.198386 -1.56346 0
M  V30 1310 C 122.154 1.2499 -1.90687 0
M  V30 1311 C 123.138 1.41158 -0.772217 0
M  V30 1312 O 124.33 1.43584 -1.03502 0
M  V30 1313 C 121.459 2.59542 -2.24706 0
M  V30 1314 C 120.545 2.47181 -3.44619 0
M  V30 1315 N 120.936 2.04495 -4.62618 0
M  V30 1316 C 119.234 2.78082 -3.48692 0
M  V30 1317 C 119.935 2.03945 -5.44776 0
M  V30 1318 N 118.911 2.45323 -4.85095 0
M  V30 1319 H 122.713 0.911149 -2.7942 0
M  V30 1320 H 120.227 0.40684 -1.57221 0
M  V30 1321 H 122.224 3.3549 -2.47491 0
M  V30 1322 H 120.884 2.94244 -1.37298 0
M  V30 1323 H 121.895 1.75256 -4.87345 0
M  V30 1324 H 118.572 3.17002 -2.71691 0
M  V30 1325 H 119.962 1.72872 -6.4928 0
M  V30 1326 N 122.682 1.50554 0.465978 0
M  V30 1327 C 123.928 1.62038 1.21949 0
M  V30 1328 C 124.261 0.322116 1.9151 0
M  V30 1329 O 123.536 -0.676723 1.82348 0
M  V30 1330 C 123.819 2.80421 2.25912 0
M  V30 1331 C 123.672 4.20144 1.60622 0
M  V30 1332 C 124.991 2.94354 3.27176 0
M  V30 1333 H 122.11 0.589752 0.441998 0
M  V30 1334 H 124.752 1.82956 0.51257 0
M  V30 1335 H 122.902 2.62717 2.86203 0
M  V30 1336 H 124.574 4.49449 1.03889 0
M  V30 1337 H 122.817 4.24165 0.909211 0
M  V30 1338 H 123.488 4.98914 2.36196 0
M  V30 1339 H 125.964 3.10578 2.76913 0
M  V30 1340 H 124.84 3.788 3.97242 0
M  V30 1341 H 125.101 2.05186 3.916 0
M  V30 1342 N 124.16 -0.719506 1.40217 0
M  V30 1343 C 125.09 -1.8465 1.42922 0
M  V30 1344 C 126.071 -1.67599 0.29062 0
M  V30 1345 O 127.256 -1.87688 0.498677 0
M  V30 1346 C 124.386 -3.22565 1.28722 0
M  V30 1347 C 123.34 -3.54281 2.40144 0
M  V30 1348 C 122.666 -4.91298 2.11023 0
M  V30 1349 C 123.966 -3.55676 3.82481 0
M  V30 1350 H 125.66 -1.82644 2.37237 0
M  V30 1351 H 123.206 -0.877305 1.1419 0
M  V30 1352 H 125.159 -4.01095 1.29232 0
M  V30 1353 H 123.883 -3.25137 0.308811 0
M  V30 1354 H 122.542 -2.78088 2.38877 0
M  V30 1355 H 122.19 -4.90468 1.11582 0
M  V30 1356 H 121.89 -5.13485 2.8567 0
M  V30 1357 H 123.414 -5.72166 2.13209 0
M  V30 1358 H 124.828 -4.24254 3.85592 0
M  V30 1359 H 123.225 -3.89388 4.56614 0
M  V30 1360 H 124.295 -2.55144 4.12346 0
M  V30 1361 N 125.638 -1.25649 -0.95132 0
M  V30 1362 C 126.863 -1.13443 -1.73624 0
M  V30 1363 C 127.288 0.307565 -1.85568 0
M  V30 1364 O 126.646 1.22282 -1.33854 0
M  V30 1365 C 126.694 -1.79723 -3.12621 0
M  V30 1366 O 125.798 -1.07912 -3.98031 0
M  V30 1367 H 125.139 -0.395872 -0.533086 0
M  V30 1368 H 127.669 -1.66276 -1.1922 0
M  V30 1369 H 127.679 -1.86141 -3.63064 0
M  V30 1370 H 126.354 -2.84633 -3.03244 0
M  V30 1371 H 124.931 -1.09398 -3.56492 0
M  V30 1372 N 127.117 1.15442 -1.07289 0
M  V30 1373 C 128.047 2.22312 -0.714107 0
M  V30 1374 C 129.028 1.67467 0.298155 0
M  V30 1375 O 130.213 1.93445 0.171048 0
M  V30 1376 C 127.343 3.47124 -0.110448 0
M  V30 1377 C 126.297 4.14926 -1.04979 0
M  V30 1378 C 125.623 5.33807 -0.308924 0
M  V30 1379 C 126.923 4.64762 -2.38314 0
M  V30 1380 H 128.617 2.5258 -1.6076 0
M  V30 1381 H 126.163 1.21404 -0.77441 0
M  V30 1382 H 128.116 4.21124 0.152482 0
M  V30 1383 H 126.84 3.16187 0.81812 0
M  V30 1384 H 125.499 3.42866 -1.29764 0
M  V30 1385 H 125.147 4.99126 0.623084 0
M  V30 1386 H 124.847 5.80113 -0.935036 0
M  V30 1387 H 126.371 6.10576 -0.0537771 0
M  V30 1388 H 127.785 5.30292 -2.1786 0
M  V30 1389 H 126.182 5.21728 -2.96514 0
M  V30 1390 H 127.252 3.80434 -3.00663 0
M  V30 1391 N 128.595 0.856903 1.32268 0
M  V30 1392 C 130.006 0.515711 1.79436 0
M  V30 1393 C 130.357 -0.966586 1.70738 0
M  V30 1394 O 129.482 -1.75409 1.26731 0
M  V30 1395 C 130.077 0.929335 3.25805 0
M  V30 1396 C 128.636 0.640006 3.70919 0
M  V30 1397 C 127.783 1.12784 2.53328 0
M  V30 1398 H 130.734 1.04389 1.19535 0
M  V30 1399 H 130.755 0.246633 3.797 0
M  V30 1400 H 130.267 2.00821 3.32103 0
M  V30 1401 H 128.368 -0.428051 3.70133 0
M  V30 1402 H 128.481 1.20788 4.63624 0
M  V30 1403 H 126.845 0.548033 2.48734 0
M  V30 1404 H 127.628 2.21387 2.62379 0
M  V30 1405 N 130.073 -1.45103 0.615059 0
M  V30 1406 C 131.003 -2.33339 -0.0865619 0
M  V30 1407 C 131.984 -1.4727 -0.851209 0
M  V30 1408 O 133.169 -1.76026 -0.820281 0
M  V30 1409 C 130.299 -3.30095 -1.07956 0
M  V30 1410 C 129.253 -4.25858 -0.427628 0
M  V30 1411 C 128.579 -5.12361 -1.5294 0
M  V30 1412 C 129.879 -5.18165 0.655944 0
M  V30 1413 H 131.573 -2.92254 0.650224 0
M  V30 1414 H 129.119 -1.40532 0.314138 0
M  V30 1415 H 131.072 -3.90698 -1.57901 0
M  V30 1416 H 129.796 -2.69355 -1.84703 0
M  V30 1417 H 128.455 -3.66564 0.0510292 0
M  V30 1418 H 128.103 -4.47984 -2.28734 0
M  V30 1419 H 127.803 -5.77238 -1.09865 0
M  V30 1420 H 129.327 -5.75833 -2.03098 0
M  V30 1421 H 130.741 -5.72796 0.240257 0
M  V30 1422 H 129.138 -5.91559 1.00888 0
M  V30 1423 H 130.208 -4.60144 1.52957 0
M  V30 1424 N 131.551 -0.354651 -1.53558 0
M  V30 1425 C 132.967 -0.00315426 -1.596 0
M  V30 1426 C 133.167 1.47741 -1.37021 0
M  V30 1427 O 132.223 2.23759 -1.16996 0
M  V30 1428 C 133.536 -0.44929 -2.97325 0
M  V30 1429 C 135.084 -0.402578 -3.104 0
M  V30 1430 C 135.559 -0.824355 -4.5052 0
M  V30 1431 N 137.05 -0.778979 -4.56603 0
M  V30 1432 C 137.785 -1.07715 -5.63192 0
M  V30 1433 N 137.281 -1.44405 -6.77583 0
M  V30 1434 N 139.074 -1.00066 -5.53121 0
M  V30 1435 H 131.225 -1.31893 -1.66487 0
M  V30 1436 H 133.488 -0.538388 -0.780284 0
M  V30 1437 H 133.194 -1.48202 -3.1895 0
M  V30 1438 H 133.068 0.169772 -3.76818 0
M  V30 1439 H 135.455 0.621004 -2.88492 0
M  V30 1440 H 135.536 -1.05699 -2.32941 0
M  V30 1441 H 135.18 -1.846 -4.73165 0
M  V30 1442 H 135.11 -0.147304 -5.26394 0
M  V30 1443 H 137.601 -0.508528 -3.74463 0
M  V30 1444 H 137.914 -1.65612 -7.54846 0
M  V30 1445 H 136.259 -1.4826 -6.79002 0
M  V30 1446 H 139.45 -0.713293 -4.62633 0
M  V30 1447 H 139.623 -1.23638 -6.36096 0
M  V30 1448 N 133.029 1.57378 -0.0835403 0
M  V30 1449 C 134.278 1.93106 0.582498 0
M  V30 1450 C 134.591 0.96651 1.70053 0
M  V30 1451 O 135.797 1.21705 2.42693 0
M  V30 1452 C 134.253 3.43076 1.08751 0
M  V30 1453 C 133.861 4.48 -0.000146404 0
M  V30 1454 C 135.605 3.87785 1.72694 0
M  V30 1455 C 133.512 5.89113 0.519568 0
M  V30 1456 H 132.442 0.720775 0.221358 0
M  V30 1457 H 135.093 1.82821 -0.157675 0
M  V30 1458 H 133.475 3.48474 1.88101 0
M  V30 1459 H 134.649 4.54233 -0.775199 0
M  V30 1460 H 132.964 4.1283 -0.54406 0
M  V30 1461 H 135.561 4.90604 2.1263 0
M  V30 1462 H 135.904 3.25796 2.59158 0
M  V30 1463 H 136.437 3.8504 0.999457 0
M  V30 1464 H 133.176 6.54775 -0.308186 0
M  V30 1465 H 132.696 5.86376 1.26188 0
M  V30 1466 H 134.375 6.39346 0.992237 0
M  V30 1467 N 134.507 -0.190092 1.56449 0
M  V30 1468 C 135.737 -0.92443 1.84764 0
M  V30 1469 C 136.145 -1.77146 0.664529 0
M  V30 1470 O 135.488 -1.79812 -0.375957 0
M  V30 1471 C 135.55 -1.86651 3.07248 0
M  V30 1472 C 135.214 -1.20094 4.40938 0
M  V30 1473 C 136.211 -0.575445 5.16706 0
M  V30 1474 C 133.896 -1.2033 4.87674 0
M  V30 1475 C 135.89 0.0388111 6.37388 0
M  V30 1476 C 133.577 -0.585214 6.08291 0
M  V30 1477 C 134.575 0.0347578 6.82991 0
M  V30 1478 O 134.263 0.643147 8.01323 0
M  V30 1479 H 133.995 -0.274974 0.617548 0
M  V30 1480 H 136.549 -0.200788 2.04416 0
M  V30 1481 H 134.779 -2.62998 2.83494 0
M  V30 1482 H 136.468 -2.46907 3.22167 0
M  V30 1483 H 137.234 -0.565728 4.81689 0
M  V30 1484 H 133.113 -1.67526 4.29484 0
M  V30 1485 H 136.657 0.523329 6.95634 0
M  V30 1486 H 132.554 -0.592451 6.42775 0
M  V30 1487 H 133.322 0.540545 8.16713 0
M  V30 1488 N 135.985 -1.50799 -0.457987 0
M  V30 1489 C 137.215 -1.65977 -1.23025 0
M  V30 1490 C 137.623 -0.347918 -1.85974 0
M  V30 1491 O 136.966 0.68148 -1.70592 0
M  V30 1492 C 137.028 -2.70309 -2.3701 0
M  V30 1493 C 136.692 -4.135 -1.94594 0
M  V30 1494 C 137.689 -4.98949 -1.46101 0
M  V30 1495 C 135.374 -4.5949 -2.02915 0
M  V30 1496 C 137.368 -6.28442 -1.06489 0
M  V30 1497 C 135.055 -5.88984 -1.62914 0
M  V30 1498 C 136.053 -6.73286 -1.1478 0
M  V30 1499 O 135.741 -8.00362 -0.75339 0
M  V30 1500 H 135.473 -0.56064 -0.377702 0
M  V30 1501 H 138.027 -1.97857 -0.551537 0
M  V30 1502 H 136.257 -2.337 -3.08093 0
M  V30 1503 H 137.946 -2.74574 -2.98938 0
M  V30 1504 H 138.712 -4.6463 -1.39084 0
M  V30 1505 H 134.591 -3.94009 -2.39328 0
M  V30 1506 H 138.135 -6.94194 -0.688488 0
M  V30 1507 H 134.032 -6.22822 -1.69595 0
M  V30 1508 H 134.8 -8.13744 -0.88108 0
M  V30 1509 N 137.463 0.71206 -1.40597 0
M  V30 1510 C 138.693 1.49894 -1.42181 0
M  V30 1511 C 139.101 1.89189 -0.0208078 0
M  V30 1512 O 138.444 1.56223 0.966436 0
M  V30 1513 C 138.506 2.80215 -2.25211 0
M  V30 1514 C 138.17 2.63221 -3.73582 0
M  V30 1515 C 139.167 2.30249 -4.66135 0
M  V30 1516 C 136.852 2.79376 -4.17438 0
M  V30 1517 C 138.846 2.13645 -6.00529 0
M  V30 1518 C 136.533 2.6239 -5.51901 0
M  V30 1519 C 137.531 2.29573 -6.43262 0
M  V30 1520 O 137.219 2.12719 -7.75246 0
M  V30 1521 H 136.951 0.469031 -0.486812 0
M  V30 1522 H 139.505 0.88564 -1.85326 0
M  V30 1523 H 137.735 3.4389 -1.76852 0
M  V30 1524 H 139.424 3.41947 -2.18694 0
M  V30 1525 H 140.19 2.17398 -4.33547 0
M  V30 1526 H 136.069 3.03906 -3.46644 0
M  V30 1527 H 139.613 1.87953 -6.71803 0
M  V30 1528 H 135.51 2.74826 -5.84073 0
M  V30 1529 H 136.278 2.27611 -7.86216 0
M  V30 1530 N 138.941 1.26152 0.944643 0
M  V30 1531 C 140.19 1.10883 1.68487 0
M  V30 1532 C 140.503 -0.348153 1.92477 0
M  V30 1533 O 141.709 -0.621459 2.64292 0
M  V30 1534 C 140.165 1.93624 3.03377 0
M  V30 1535 C 139.773 3.43875 2.87148 0
M  V30 1536 C 141.517 1.86954 3.81115 0
M  V30 1537 C 139.424 4.18875 4.1749 0
M  V30 1538 H 138.354 0.41135 0.631907 0
M  V30 1539 H 141.005 1.50433 1.05082 0
M  V30 1540 H 139.387 1.46904 3.67743 0
M  V30 1541 H 140.561 3.98338 2.31653 0
M  V30 1542 H 138.876 3.51744 2.22856 0
M  V30 1543 H 141.473 2.40275 4.77673 0
M  V30 1544 H 141.816 0.839518 4.07747 0
M  V30 1545 H 142.349 2.31477 3.23517 0
M  V30 1546 H 139.088 5.22332 3.96043 0
M  V30 1547 H 138.608 3.69193 4.72712 0
M  V30 1548 H 140.287 4.27134 4.85968 0
M  V30 1549 N 140.419 -1.14872 1.07899 0
M  V30 1550 C 141.644 -1.90202 0.826926 0
M  V30 1551 C 142.069 -1.77774 -0.614664 0
M  V30 1552 O 141.427 -1.11431 -1.43013 0
M  V30 1553 C 141.475 -3.38352 1.24702 0
M  V30 1554 O 140.579 -4.10497 0.39575 0
M  V30 1555 H 139.92 -0.591968 0.300782 0
M  V30 1556 H 142.45 -1.45437 1.43907 0
M  V30 1557 H 142.46 -3.89156 1.22563 0
M  V30 1558 H 141.135 -3.46715 2.29698 0
M  V30 1559 H 139.712 -3.69796 0.480117 0
M  V30 1560 N 141.898 -0.863906 -1.31812 0
M  V30 1561 C 142.848 -0.286898 -2.26188 0
M  V30 1562 C 143.832 0.572577 -1.50367 0
M  V30 1563 O 145.024 0.420447 -1.71934 0
M  V30 1564 C 142.153 0.515849 -3.39402 0
M  V30 1565 C 141.239 -0.356531 -4.22599 0
M  V30 1566 N 141.63 -1.44716 -4.84656 0
M  V30 1567 C 139.928 -0.147898 -4.45755 0
M  V30 1568 C 140.629 -1.98462 -5.46798 0
M  V30 1569 N 139.605 -1.28247 -5.28255 0
M  V30 1570 H 143.407 -1.12055 -2.717 0
M  V30 1571 H 140.921 -0.711012 -1.46008 0
M  V30 1572 H 142.918 0.945701 -4.06032 0
M  V30 1573 H 141.578 1.34718 -2.95434 0
M  V30 1574 H 142.589 -1.83008 -4.84488 0
M  V30 1575 H 139.266 0.647973 -4.12441 0
M  V30 1576 H 140.656 -2.89932 -6.06126 0
M  V30 1577 N 143.376 1.44774 -0.622745 0
M  V30 1578 C 144.326 2.2774 0.108889 0
M  V30 1579 C 145.31 1.38189 0.824175 0
M  V30 1580 O 146.502 1.62063 0.711664 0
M  V30 1581 C 143.631 3.25353 1.09546 0
M  V30 1582 C 142.717 4.22392 0.380232 0
M  V30 1583 N 143.108 5.02388 -0.586535 0
M  V30 1584 C 141.406 4.41588 0.625792 0
M  V30 1585 C 142.107 5.72894 -1.00834 0
M  V30 1586 N 141.083 5.42479 -0.348878 0
M  V30 1587 H 144.885 2.86993 -0.63341 0
M  V30 1588 H 142.399 1.5611 -0.447589 0
M  V30 1589 H 144.396 3.83538 1.63414 0
M  V30 1590 H 143.056 2.6766 1.83815 0
M  V30 1591 H 144.067 5.0885 -0.963975 0
M  V30 1592 H 140.744 3.95003 1.352 0
M  V30 1593 H 142.134 6.47158 -1.80656 0
M  V30 1594 N 144.854 0.36279 1.53368 0
M  V30 1595 C 146.1 -0.220702 2.02199 0
M  V30 1596 C 146.455 -1.46649 1.24546 0
M  V30 1597 O 145.748 -1.88737 0.32996 0
M  V30 1598 C 145.942 -0.568417 3.52851 0
M  V30 1599 C 145.771 0.642126 4.45092 0
M  V30 1600 C 144.541 1.15335 4.91961 0
M  V30 1601 C 146.739 1.50649 4.91741 0
M  V30 1602 N 144.721 2.3242 5.68202 0
M  V30 1603 C 146.092 2.52404 5.66297 0
M  V30 1604 C 148.147 1.52969 4.73819 0
M  V30 1605 C 146.85 3.56331 6.24836 0
M  V30 1606 C 148.876 2.55789 5.33222 0
M  V30 1607 C 148.238 3.56268 6.07662 0
M  V30 1608 H 144.337 -0.0435508 0.780786 0
M  V30 1609 H 146.921 0.506704 1.87991 0
M  V30 1610 H 145.092 -1.2649 3.67226 0
M  V30 1611 H 146.824 -1.13676 3.88407 0
M  V30 1612 H 143.579 0.718412 4.68119 0
M  V30 1613 H 144.003 2.91591 6.10986 0
M  V30 1614 H 148.645 0.766418 4.15795 0
M  V30 1615 H 146.363 4.33543 6.81958 0
M  V30 1616 H 149.949 2.58435 5.21251 0
M  V30 1617 H 148.829 4.34524 6.52808 0
M  V30 1618 N 146.332 -1.57332 0.0918853 0
M  V30 1619 C 147.743 -1.81496 -0.437739 0
M  V30 1620 C 148.094 -1.00727 -1.6837 0
M  V30 1621 O 147.219 -0.235694 -2.15113 0
M  V30 1622 C 147.814 -3.29197 -0.800939 0
M  V30 1623 C 146.373 -3.54136 -1.27532 0
M  V30 1624 C 145.52 -2.75979 -0.270392 0
M  V30 1625 H 148.471 -1.55494 0.317366 0
M  V30 1626 H 148.492 -3.42344 -1.66074 0
M  V30 1627 H 148.004 -3.87955 0.106078 0
M  V30 1628 H 146.105 -3.00705 -2.20016 0
M  V30 1629 H 146.218 -4.62792 -1.23938 0
M  V30 1630 H 144.582 -2.43349 -0.751872 0
M  V30 1631 H 145.365 -3.37484 0.629248 0
M  V30 1632 N 147.81 0.181792 -1.56548 0
M  V30 1633 C 149.057 0.900097 -1.81396 0
M  V30 1634 C 149.385 1.82695 -0.667281 0
M  V30 1635 O 148.64 1.92614 0.346146 0
M  V30 1636 C 148.939 1.73728 -3.12335 0
M  V30 1637 C 148.605 0.960255 -4.40556 0
M  V30 1638 C 147.267 0.745766 -4.75386 0
M  V30 1639 C 149.619 0.414477 -5.19549 0
M  V30 1640 C 146.947 -0.0257694 -5.86694 0
M  V30 1641 C 149.299 -0.343916 -6.31664 0
M  V30 1642 C 147.963 -0.569301 -6.65068 0
M  V30 1643 H 147.233 0.329369 -0.663775 0
M  V30 1644 H 149.88 0.165647 -1.90782 0
M  V30 1645 H 148.185 2.54081 -2.98245 0
M  V30 1646 H 149.882 2.29591 -3.28769 0
M  V30 1647 H 146.472 1.13746 -4.13231 0
M  V30 1648 H 150.656 0.567554 -4.93044 0
M  V30 1649 H 145.912 -0.210233 -6.11038 0
M  V30 1650 H 150.086 -0.774133 -6.92084 0
M  V30 1651 H 147.713 -1.16903 -7.51158 0
M  V30 1652 N 149.288 1.51039 0.449983 0
M  V30 1653 C 150.22 1.67617 1.56324 0
M  V30 1654 C 151.233 0.557083 1.52972 0
M  V30 1655 O 152.422 0.830989 1.57977 0
M  V30 1656 C 149.522 1.66402 2.95235 0
M  V30 1657 C 148.695 2.9469 3.23229 0
M  V30 1658 C 147.754 2.85832 4.41799 0
M  V30 1659 O 146.78 3.59785 4.41071 0
M  V30 1660 N 147.982 2.00821 5.44657 0
M  V30 1661 H 150.747 2.63648 1.42512 0
M  V30 1662 H 148.308 1.48767 0.638737 0
M  V30 1663 H 150.3 1.58062 3.72557 0
M  V30 1664 H 148.87 0.780182 3.02708 0
M  V30 1665 H 148.09 3.16996 2.34323 0
M  V30 1666 H 149.378 3.79636 3.38754 0
M  V30 1667 H 148.776 1.40091 5.48079 0
M  V30 1668 H 147.333 1.98368 6.20881 0
M  V30 1669 N 150.766 -0.704594 1.40972 0
M  V30 1670 C 152.182 -1.01406 1.23244 0
M  V30 1671 C 152.382 -2.01169 0.115399 0
M  V30 1672 O 151.438 -2.47021 -0.523147 0
M  V30 1673 C 152.751 -1.54728 2.57836 0
M  V30 1674 C 154.299 -1.66658 2.64942 0
M  V30 1675 C 154.774 -2.23383 3.9983 0
M  V30 1676 N 156.265 -2.30756 4.01629 0
M  V30 1677 C 157 -2.75655 5.02794 0
M  V30 1678 N 156.496 -3.20225 6.14352 0
M  V30 1679 N 158.289 -2.75138 4.90159 0
M  V30 1680 H 150.44 -0.0435285 2.12355 0
M  V30 1681 H 152.703 -0.0818951 0.944456 0
M  V30 1682 H 152.409 -0.888832 3.40283 0
M  V30 1683 H 152.283 -2.53084 2.79693 0
M  V30 1684 H 154.67 -2.31617 1.8286 0
M  V30 1685 H 154.751 -0.668717 2.46904 0
M  V30 1686 H 154.395 -1.59043 4.82357 0
M  V30 1687 H 154.325 -3.23904 4.15203 0
M  V30 1688 H 156.816 -1.99291 3.21079 0
M  V30 1689 H 157.129 -3.53084 6.87424 0
M  V30 1690 H 155.474 -3.18156 6.17901 0
M  V30 1691 H 158.665 -2.39661 4.02095 0
M  V30 1692 H 158.838 -3.09812 5.6914 0
M  V30 1693 N 152.244 -1.26651 -0.937939 0
M  V30 1694 C 153.207 -1.08546 -2.01867 0
M  V30 1695 C 154.207 -0.0327327 -1.60767 0
M  V30 1696 O 155.397 -0.276427 -1.71993 0
M  V30 1697 C 152.529 -0.651711 -3.34613 0
M  V30 1698 H 153.722 -2.04502 -2.1936 0
M  V30 1699 H 151.275 -1.09294 -1.11734 0
M  V30 1700 H 152.01 0.309696 -3.22818 0
M  V30 1701 H 151.795 -1.41189 -3.65798 0
M  V30 1702 H 153.285 -0.546973 -4.14002 0
M  V30 1703 N 153.722 1.14298 -1.08507 0
M  V30 1704 C 154.652 2.21542 -0.737646 0
M  V30 1705 C 155.633 1.67773 0.280377 0
M  V30 1706 O 156.818 1.93616 0.150521 0
M  V30 1707 C 153.948 3.46988 -0.147259 0
M  V30 1708 C 152.902 4.13789 -1.09374 0
M  V30 1709 C 152.228 5.33449 -0.365524 0
M  V30 1710 C 153.528 4.62208 -2.4323 0
M  V30 1711 H 155.222 2.5086 -1.6343 0
M  V30 1712 H 152.768 1.20576 -0.787243 0
M  V30 1713 H 154.721 4.21262 0.107808 0
M  V30 1714 H 153.445 3.17037 0.784538 0
M  V30 1715 H 152.104 3.4147 -1.33393 0
M  V30 1716 H 151.752 4.99759 0.57011 0
M  V30 1717 H 151.452 5.79088 -0.996512 0
M  V30 1718 H 152.976 6.10485 -0.118534 0
M  V30 1719 H 154.39 5.27952 -2.23472 0
M  V30 1720 H 152.787 5.18553 -3.02031 0
M  V30 1721 H 153.857 3.77224 -3.04681 0
M  V30 1722 N 155.201 0.870884 1.31352 0
M  V30 1723 C 156.441 0.488783 1.9847 0
M  V30 1724 C 156.805 -0.941536 1.67329 0
M  V30 1725 O 158.006 -1.42903 2.27667 0
M  V30 1726 C 156.277 0.739688 3.49662 0
M  V30 1727 S 157.836 0.457582 4.36408 0
M  V30 1728 H 154.654 0.18242 0.6872 0
M  V30 1729 H 157.256 1.12711 1.59739 0
M  V30 1730 H 155.96 1.77944 3.69816 0
M  V30 1731 H 155.491 0.0883905 3.93301 0
M  V30 1732 H 157.506 -0.709752 4.91098 0
M  V30 1733 N 156.679 -1.44442 0.630414 0
M  V30 1734 C 157.609 -2.33418 -0.0618083 0
M  V30 1735 C 158.59 -1.48165 -0.835541 0
M  V30 1736 O 159.775 -1.76886 -0.801564 0
M  V30 1737 C 156.905 -3.31222 -1.04449 0
M  V30 1738 C 155.859 -4.26288 -0.382436 0
M  V30 1739 C 155.185 -5.13954 -1.47497 0
M  V30 1740 C 156.485 -5.1744 0.710865 0
M  V30 1741 H 158.179 -2.91548 0.681184 0
M  V30 1742 H 155.725 -1.40191 0.329026 0
M  V30 1743 H 157.678 -3.92351 -1.53748 0
M  V30 1744 H 156.402 -2.71299 -1.81836 0
M  V30 1745 H 155.061 -3.6649 0.0899054 0
M  V30 1746 H 154.709 -4.50385 -2.2397 0
M  V30 1747 H 154.409 -5.7837 -1.03737 0
M  V30 1748 H 155.933 -5.77955 -1.96979 0
M  V30 1749 H 157.347 -5.72509 0.300996 0
M  V30 1750 H 155.744 -5.90455 1.07156 0
M  V30 1751 H 156.814 -4.58496 1.57829 0
M  V30 1752 N 158.157 -0.370918 -1.53173 0
M  V30 1753 C 159.087 0.464847 -2.28826 0
M  V30 1754 C 160.068 1.07936 -1.31468 0
M  V30 1755 O 161.253 1.0956 -1.60344 0
M  V30 1756 C 158.383 1.60196 -3.08147 0
M  V30 1757 C 157.337 1.11443 -4.13237 0
M  V30 1758 C 156.663 2.3422 -4.80672 0
M  V30 1759 C 157.963 0.195384 -5.21934 0
M  V30 1760 H 159.657 -0.166329 -2.98938 0
M  V30 1761 H 157.203 -0.0814359 -1.4377 0
M  V30 1762 H 159.156 2.19332 -3.59822 0
M  V30 1763 H 157.88 2.26045 -2.35735 0
M  V30 1764 H 156.539 0.545727 -3.62515 0
M  V30 1765 H 156.187 2.98537 -4.04827 0
M  V30 1766 H 155.887 2.02269 -5.51689 0
M  V30 1767 H 157.411 2.94032 -5.35143 0
M  V30 1768 H 158.825 0.694375 -5.69079 0
M  V30 1769 H 157.222 -0.0335027 -6.00091 0
M  V30 1770 H 158.292 -0.760961 -4.78892 0
M  V30 1771 N 159.635 1.57281 -0.100228 0
M  V30 1772 C 160.875 1.96419 0.56558 0
M  V30 1773 C 161.239 0.981265 1.65031 0
M  V30 1774 O 162.44 1.26133 2.37369 0
M  V30 1775 C 160.711 3.39996 1.10171 0
M  V30 1776 S 162.27 4.01134 1.77867 0
M  V30 1777 H 159.088 0.68667 0.184406 0
M  V30 1778 H 161.69 1.94662 -0.180851 0
M  V30 1779 H 160.394 4.09296 0.300803 0
M  V30 1780 H 159.925 3.45361 1.88385 0
M  V30 1781 H 161.94 3.90358 3.06326 0
M  V30 1782 N 161.113 -0.173488 1.56642 0
M  V30 1783 C 162.36 -0.890465 1.81871 0
M  V30 1784 C 162.688 -1.82339 0.67696 0
M  V30 1785 O 161.943 -1.92795 -0.335926 0
M  V30 1786 C 162.242 -1.72069 3.13252 0
M  V30 1787 C 161.908 -0.936878 4.41059 0
M  V30 1788 C 160.57 -0.720545 4.75775 0
M  V30 1789 C 162.922 -0.386919 5.19762 0
M  V30 1790 C 160.25 0.0568829 5.86672 0
M  V30 1791 C 162.602 0.37741 6.31473 0
M  V30 1792 C 161.266 0.604563 6.64757 0
M  V30 1793 H 160.536 -0.325844 0.665512 0
M  V30 1794 H 163.183 -0.155527 1.90867 0
M  V30 1795 H 161.488 -2.52496 2.99588 0
M  V30 1796 H 163.185 -2.27844 3.29982 0
M  V30 1797 H 159.775 -1.11553 4.13828 0
M  V30 1798 H 163.959 -0.541398 4.93338 0
M  V30 1799 H 159.215 0.242635 6.10918 0
M  V30 1800 H 163.389 0.810825 6.91664 0
M  V30 1801 H 161.016 1.20885 7.50527 0
M  V30 1802 N 162.591 -1.51276 -0.441967 0
M  V30 1803 C 163.821 -1.67273 -1.21257 0
M  V30 1804 C 164.229 -0.367624 -1.85594 0
M  V30 1805 O 163.572 0.663349 -1.71305 0
M  V30 1806 C 163.634 -2.72807 -2.34129 0
M  V30 1807 C 163.298 -4.1554 -1.90198 0
M  V30 1808 C 164.295 -5.00471 -1.40801 0
M  V30 1809 C 161.98 -4.61616 -1.9803 0
M  V30 1810 C 163.974 -6.29536 -0.998174 0
M  V30 1811 C 161.661 -5.90679 -1.56658 0
M  V30 1812 C 162.659 -6.74466 -1.07633 0
M  V30 1813 O 162.347 -8.01116 -0.668459 0
M  V30 1814 H 162.079 -0.564614 -0.371734 0
M  V30 1815 H 164.633 -1.9843 -0.530521 0
M  V30 1816 H 162.863 -2.36954 -3.05597 0
M  V30 1817 H 164.552 -2.77729 -2.96009 0
M  V30 1818 H 165.318 -4.66079 -1.34148 0
M  V30 1819 H 161.197 -3.96526 -2.35135 0
M  V30 1820 H 164.741 -6.94885 -0.61482 0
M  V30 1821 H 160.638 -6.24586 -1.62979 0
M  V30 1822 H 161.406 -8.14633 -0.794722 0
M  V30 1823 N 164.069 0.697108 -1.41344 0
M  V30 1824 C 164.999 1.82353 -1.45841 0
M  V30 1825 C 165.98 1.67115 -0.317247 0
M  V30 1826 O 167.165 1.86871 -0.528474 0
M  V30 1827 C 164.295 3.20476 -1.33838 0
M  V30 1828 C 163.249 3.50415 -2.4575 0
M  V30 1829 C 162.575 4.87878 -2.18813 0
M  V30 1830 C 163.875 3.49546 -3.88091 0
M  V30 1831 H 165.569 1.78846 -2.40113 0
M  V30 1832 H 163.115 0.859028 -1.15571 0
M  V30 1833 H 165.068 3.98988 -1.35596 0
M  V30 1834 H 163.792 3.24604 -0.360498 0
M  V30 1835 H 162.451 2.74253 -2.43271 0
M  V30 1836 H 162.099 4.8863 -1.19371 0
M  V30 1837 H 161.799 5.08875 -2.93803 0
M  V30 1838 H 163.323 5.68702 -2.22284 0
M  V30 1839 H 164.737 4.18066 -3.92293 0
M  V30 1840 H 163.134 3.82075 -4.62751 0
M  V30 1841 H 164.204 2.48552 -4.16353 0
M  V30 1842 N 165.547 1.27147 0.931209 0
M  V30 1843 C 166.494 1.09568 2.03134 0
M  V30 1844 C 167.464 -0.00222433 1.661 0
M  V30 1845 O 168.649 0.159439 1.90133 0
M  V30 1846 C 165.789 0.745231 3.36957 0
M  V30 1847 C 164.902 1.92041 3.86968 0
M  V30 1848 C 164.037 1.51216 5.09222 0
M  V30 1849 C 163.076 2.65504 5.5152 0
M  V30 1850 N 162.213 2.25291 6.64972 0
M  V30 1851 H 167.053 2.03708 2.17502 0
M  V30 1852 H 164.59 1.01411 1.06556 0
M  V30 1853 H 166.548 0.522878 4.1391 0
M  V30 1854 H 165.178 -0.159202 3.22407 0
M  V30 1855 H 164.23 2.25541 3.06326 0
M  V30 1856 H 165.542 2.77787 4.1429 0
M  V30 1857 H 164.696 1.25084 5.93666 0
M  V30 1858 H 163.435 0.625749 4.83669 0
M  V30 1859 H 162.44 2.92354 4.65628 0
M  V30 1860 H 163.665 3.54761 5.7907 0
M  V30 1861 H 161.611 1.39098 6.41083 0
M  V30 1862 H 161.528 3.04577 6.91931 0
M  V30 1863 H 162.796 2.02398 7.52765 0
M  V30 1864 N 167.025 -1.13721 1.09112 0
M  V30 1865 C 168.255 -1.88499 0.845671 0
M  V30 1866 C 168.663 -1.79218 -0.606432 0
M  V30 1867 O 168.006 -1.1544 -1.42896 0
M  V30 1868 C 168.068 -3.38954 1.19793 0
M  V30 1869 C 167.732 -3.72018 2.65428 0
M  V30 1870 C 168.729 -3.7153 3.63677 0
M  V30 1871 C 166.414 -4.01775 3.01467 0
M  V30 1872 C 168.408 -4.00336 4.95994 0
M  V30 1873 C 166.095 -4.30243 4.33975 0
M  V30 1874 C 167.093 -4.29508 5.31048 0
M  V30 1875 O 166.781 -4.5728 6.61173 0
M  V30 1876 H 166.513 -0.603702 0.304171 0
M  V30 1877 H 169.067 -1.44903 1.45576 0
M  V30 1878 H 167.297 -3.83039 0.530871 0
M  V30 1879 H 168.986 -3.95052 0.932146 0
M  V30 1880 H 169.752 -3.4862 3.37179 0
M  V30 1881 H 165.631 -4.01496 2.26544 0
M  V30 1882 H 169.175 -3.99678 5.71755 0
M  V30 1883 H 165.072 -4.52625 4.60219 0
M  V30 1884 H 165.84 -4.74964 6.66597 0
M  V30 1885 N 168.503 -0.877838 -1.30888 0
M  V30 1886 C 169.433 -0.35534 -2.3078 0
M  V30 1887 C 170.414 0.557994 -1.60687 0
M  V30 1888 O 171.599 0.473355 -1.88343 0
M  V30 1889 C 168.729 0.437221 -3.44537 0
M  V30 1890 C 167.683 -0.383715 -4.26276 0
M  V30 1891 C 167.009 0.535014 -5.32017 0
M  V30 1892 C 168.309 -1.62201 -4.96476 0
M  V30 1893 H 170.003 -1.19007 -2.74732 0
M  V30 1894 H 167.549 -0.573698 -1.32078 0
M  V30 1895 H 169.502 0.813334 -4.13477 0
M  V30 1896 H 168.226 1.30553 -2.99372 0
M  V30 1897 H 166.885 -0.741874 -3.59015 0
M  V30 1898 H 166.533 1.40083 -4.831 0
M  V30 1899 H 166.233 -0.0104211 -5.87599 0
M  V30 1900 H 167.757 0.907799 -6.03814 0
M  V30 1901 H 169.171 -1.31689 -5.5797 0
M  V30 1902 H 167.568 -2.10711 -5.61891 0
M  V30 1903 H 168.638 -2.37044 -4.23011 0
M  V30 1904 N 169.982 1.44106 -0.638065 0
M  V30 1905 C 170.93 2.3248 0.0748149 0
M  V30 1906 C 171.924 1.47746 0.828702 0
M  V30 1907 O 173.13 1.64049 0.740816 0
M  V30 1908 H 169.505 0.750771 0.0429686 0
M  V30 1909 H 171.476 2.90348 -0.688504 0
M  V30 1910 C 170.225 3.31843 1.03805 0
M  V30 1911 H 169.548 3.97059 0.467375 0
M  V30 1912 H 170.988 3.96345 1.50622 0
M  V30 1913 C 169.447 2.61291 2.1267 0
M  V30 1914 O 169.977 2.41702 3.20847 0
M  V30 1915 N 168.183 2.20915 1.88798 0
M  V30 1916 H 167.73 2.37047 1.00829 0
M  V30 1917 H 167.688 1.74038 2.61836 0
M  V30 1918 N 171.46 0.379036 1.52974 0
M  V30 1919 C 172.393 -0.504932 2.22544 0
M  V30 1920 C 173.371 -1.0723 1.22231 0
M  V30 1921 O 174.555 -1.12589 1.51182 0
M  V30 1922 C 171.682 -1.69794 2.93066 0
M  V30 1923 C 170.728 -1.25678 4.07563 0
M  V30 1924 S 171.561 -0.246852 5.34931 0
M  V30 1925 C 172.717 -1.44588 6.08971 0
M  V30 1926 H 172.95 0.0858666 2.97176 0
M  V30 1927 H 170.483 0.163183 1.53535 0
M  V30 1928 H 172.441 -2.38219 3.34308 0
M  V30 1929 H 171.102 -2.26002 2.18133 0
M  V30 1930 H 170.295 -2.14725 4.5597 0
M  V30 1931 H 169.897 -0.651584 3.6828 0
M  V30 1932 H 172.189 -2.37469 6.34519 0
M  V30 1933 H 173.132 -1.00292 7.00962 0
M  V30 1934 H 173.54 -1.65804 5.39601 0
M  V30 1935 N 172.938 -1.57226 0.108567 0
M  V30 1936 C 174.168 -1.9889 -0.559142 0
M  V30 1937 C 174.576 -0.986889 -1.61422 0
M  V30 1938 O 173.919 0.0298705 -1.83676 0
M  V30 1939 C 173.981 -3.36952 -1.25315 0
M  V30 1940 C 173.645 -4.55679 -0.347248 0
M  V30 1941 C 174.642 -5.18281 0.409996 0
M  V30 1942 C 172.327 -5.0162 -0.261367 0
M  V30 1943 C 174.321 -6.25203 1.24096 0
M  V30 1944 C 172.008 -6.08405 0.573238 0
M  V30 1945 C 173.006 -6.70063 1.32304 0
M  V30 1946 O 172.694 -7.74788 2.14381 0
M  V30 1947 H 172.426 -0.658343 -0.153492 0
M  V30 1948 H 174.98 -2.04532 0.188584 0
M  V30 1949 H 173.21 -3.28032 -2.04773 0
M  V30 1950 H 174.899 -3.62974 -1.81673 0
M  V30 1951 H 175.665 -4.8371 0.353457 0
M  V30 1952 H 171.544 -4.53381 -0.834656 0
M  V30 1953 H 175.088 -6.73259 1.82669 0
M  V30 1954 H 170.985 -6.42406 0.631208 0
M  V30 1955 H 171.753 -7.91837 2.07209 0
M  V30 1956 N 174.416 0.165178 -1.56732 0
M  V30 1957 C 175.379 1.18822 -1.95995 0
M  V30 1958 C 176.379 1.3685 -0.84431 0
M  V30 1959 O 177.569 1.34152 -1.11126 0
M  V30 1960 C 174.701 2.5521 -2.26011 0
M  V30 1961 H 175.894 0.851825 -2.87548 0
M  V30 1962 H 173.447 0.407857 -1.50885 0
M  V30 1963 H 174.182 2.93852 -1.37191 0
M  V30 1964 H 173.967 2.43489 -3.07336 0
M  V30 1965 H 175.457 3.28927 -2.57288 0
M  V30 1966 N 175.894 1.51508 0.433938 0
M  V30 1967 C 177.119 1.68443 1.21003 0
M  V30 1968 C 177.544 0.382636 1.84167 0
M  V30 1969 O 176.902 -0.65755 1.68956 0
M  V30 1970 C 176.95 2.80405 2.26727 0
M  V30 1971 O 176.054 2.44245 3.32292 0
M  V30 1972 H 175.395 0.561536 0.354363 0
M  V30 1973 H 177.925 1.9809 0.512024 0
M  V30 1974 H 177.935 3.0459 2.71457 0
M  V30 1975 H 176.61 3.74867 1.80132 0
M  V30 1976 H 175.187 2.30644 2.93015 0
M  V30 1977 N 177.372 -0.689602 1.41712 0
M  V30 1978 C 178.621 -1.44534 1.40686 0
M  V30 1979 C 178.934 -1.95588 0.0213352 0
M  V30 1980 O 180.14 -2.71271 -0.111534 0
M  V30 1981 C 178.596 -2.61387 2.47396 0
M  V30 1982 C 178.204 -2.17094 3.91885 0
M  V30 1983 C 179.948 -3.38986 2.55517 0
M  V30 1984 C 177.855 -3.3094 4.90135 0
M  V30 1985 H 176.785 -0.542925 0.52321 0
M  V30 1986 H 179.436 -0.748054 1.6756 0
M  V30 1987 H 177.818 -3.33412 2.13664 0
M  V30 1988 H 178.992 -1.52318 4.34897 0
M  V30 1989 H 177.307 -1.52473 3.8748 0
M  V30 1990 H 179.904 -4.23747 3.26102 0
M  V30 1991 H 180.247 -3.84578 1.59391 0
M  V30 1992 H 180.78 -2.74021 2.8837 0
M  V30 1993 H 177.519 -2.90355 5.87685 0
M  V30 1994 H 177.039 -3.94546 4.51767 0
M  V30 1995 H 178.718 -3.9663 5.11169 0
M  V30 1996 N 178.85 -1.27639 -0.924453 0
M  V30 1997 C 180.09 -1.15407 -1.68703 0
M  V30 1998 C 180.454 0.294581 -1.89727 0
M  V30 1999 O 181.655 0.539385 -2.63333 0
M  V30 2000 C 179.926 -1.9195 -3.0148 0
M  V30 2001 S 181.485 -1.95969 -3.92609 0
M  V30 2002 H 178.303 -0.411937 -0.579507 0
M  V30 2003 H 180.905 -1.61592 -1.10038 0
M  V30 2004 H 179.609 -2.96387 -2.83871 0
M  V30 2005 H 179.14 -1.46272 -3.65196 0
M  V30 2006 H 181.155 -1.05846 -4.84779 0
M  V30 2007 N 180.328 1.1314 -1.09713 0
M  V30 2008 C 181.575 1.84484 -0.834987 0
M  V30 2009 C 181.903 1.83689 0.639418 0
M  V30 2010 O 181.158 1.2724 1.4869 0
M  V30 2011 C 181.457 3.32167 -1.3191 0
M  V30 2012 C 181.123 3.53139 -2.80363 0
M  V30 2013 C 179.785 3.58571 -3.20905 0
M  V30 2014 C 182.137 3.60866 -3.76065 0
M  V30 2015 C 179.465 3.69267 -4.55916 0
M  V30 2016 C 181.817 3.73089 -5.10869 0
M  V30 2017 C 180.481 3.76775 -5.50996 0
M  V30 2018 H 179.751 0.675073 -0.305544 0
M  V30 2019 H 182.398 1.33554 -1.37243 0
M  V30 2020 H 180.703 3.85469 -0.701517 0
M  V30 2021 H 182.4 3.85821 -1.09284 0
M  V30 2022 H 178.99 3.49569 -2.47991 0
M  V30 2023 H 183.174 3.55946 -3.45855 0
M  V30 2024 H 178.43 3.70388 -4.86438 0
M  V30 2025 H 182.604 3.78011 -5.84877 0
M  V30 2026 H 180.231 3.84815 -6.55608 0
M  V30 2027 N 181.806 0.884767 1.30421 0
M  V30 2028 C 182.736 0.367574 2.30589 0
M  V30 2029 C 183.717 -0.549464 1.60981 0
M  V30 2030 O 184.902 -0.46336 1.88591 0
M  V30 2031 C 182.032 -0.418944 3.44764 0
M  V30 2032 C 180.986 0.406316 4.26067 0
M  V30 2033 C 180.312 -0.506793 5.32293 0
M  V30 2034 C 181.612 1.64832 4.95608 0
M  V30 2035 H 183.306 1.20462 2.74097 0
M  V30 2036 H 180.852 0.580695 1.31772 0
M  V30 2037 H 182.805 -0.791395 4.13902 0
M  V30 2038 H 181.529 -1.28964 3.0006 0
M  V30 2039 H 180.188 0.760903 3.58617 0
M  V30 2040 H 179.836 -1.37519 4.83836 0
M  V30 2041 H 179.536 0.0415828 5.87585 0
M  V30 2042 H 181.06 -0.875764 6.04287 0
M  V30 2043 H 182.474 1.34646 5.57264 0
M  V30 2044 H 180.871 2.13688 5.60765 0
M  V30 2045 H 181.941 2.39284 4.21748 0
M  V30 2046 N 183.284 -1.43765 0.645699 0
M  V30 2047 C 184.512 -2.06253 0.163556 0
M  V30 2048 C 184.927 -1.48352 -1.16778 0
M  V30 2049 O 184.284 -0.611932 -1.71935 0
M  V30 2050 C 184.335 -3.61453 0.0583186 0
M  V30 2051 O 184.056 -4.172 1.33702 0
M  V30 2052 C 185.557 -4.41002 -0.450795 0
M  V30 2053 H 182.777 -0.665413 0.0864077 0
M  V30 2054 H 185.321 -1.84396 0.884222 0
M  V30 2055 H 183.476 -3.82522 -0.612865 0
M  V30 2056 H 183.89 -5.10791 1.19131 0
M  V30 2057 H 185.364 -5.49966 -0.473403 0
M  V30 2058 H 185.841 -4.13488 -1.48068 0
M  V30 2059 H 186.447 -4.24886 0.187637 0
M  V30 2060 N 184.763 -0.387143 -1.52771 0
M  V30 2061 C 186.003 0.195537 -2.03463 0
M  V30 2062 C 186.367 1.44222 -1.26744 0
M  V30 2063 O 187.568 2.10192 -1.67549 0
M  V30 2064 C 185.839 0.459097 -3.54439 0
M  V30 2065 S 187.398 1.01237 -4.26962 0
M  V30 2066 H 184.216 0.0552675 -0.708849 0
M  V30 2067 H 186.818 -0.534992 -1.88037 0
M  V30 2068 H 185.522 -0.455382 -4.07866 0
M  V30 2069 H 185.053 1.21811 -3.74066 0
M  V30 2070 H 187.068 2.29492 -4.39941 0
M  V30 2071 N 186.241 1.57166 -0.116904 0
M  V30 2072 C 187.49 1.94298 0.541407 0
M  V30 2073 C 187.803 1.00236 1.67964 0
M  V30 2074 O 189.009 1.26826 2.40057 0
M  V30 2075 C 187.465 3.45306 1.01449 0
M  V30 2076 C 187.073 4.47899 -0.0951738 0
M  V30 2077 C 188.817 3.91361 1.6443 0
M  V30 2078 C 186.724 5.90083 0.394491 0
M  V30 2079 H 185.654 0.725308 0.206019 0
M  V30 2080 H 188.305 1.82446 -0.196419 0
M  V30 2081 H 186.687 3.52385 1.80667 0
M  V30 2082 H 187.861 4.52486 -0.871374 0
M  V30 2083 H 186.176 4.11583 -0.631505 0
M  V30 2084 H 188.773 4.95004 2.02176 0
M  V30 2085 H 189.116 3.3122 2.52189 0
M  V30 2086 H 189.649 3.87073 0.917559 0
M  V30 2087 H 186.388 6.53974 -0.447004 0
M  V30 2088 H 185.908 5.88921 1.13722 0
M  V30 2089 H 187.587 6.41307 0.856399 0
M  V30 2090 N 187.719 -0.156864 1.56817 0
M  V30 2091 C 188.944 -0.890331 1.87318 0
M  V30 2092 C 189.369 -1.74394 0.704855 0
M  V30 2093 O 188.727 -1.77972 -0.345786 0
M  V30 2094 C 188.775 -1.73102 3.16336 0
M  V30 2095 O 187.879 -2.83422 2.99576 0
M  V30 2096 H 187.22 -0.24857 0.615718 0
M  V30 2097 H 189.75 -0.150649 2.04045 0
M  V30 2098 H 189.76 -2.12803 3.48107 0
M  V30 2099 H 188.435 -1.10412 4.00976 0
M  V30 2100 H 187.012 -2.47199 2.7919 0
M  V30 2101 N 189.197 -1.51736 -0.425897 0
M  V30 2102 C 190.127 -1.76827 -1.52494 0
M  V30 2103 C 191.108 -0.618524 -1.58456 0
M  V30 2104 O 192.293 -0.862416 -1.74 0
M  V30 2105 C 189.423 -1.90374 -2.90474 0
M  V30 2106 C 188.377 -3.0588 -2.99369 0
M  V30 2107 C 187.703 -3.04625 -4.3944 0
M  V30 2108 C 189.003 -4.45644 -2.72394 0
M  V30 2109 H 190.697 -2.68855 -1.31748 0
M  V30 2110 H 188.243 -1.29372 -0.632362 0
M  V30 2111 H 190.196 -2.0651 -3.6733 0
M  V30 2112 H 188.92 -0.95004 -3.12477 0
M  V30 2113 H 187.579 -2.89467 -2.24954 0
M  V30 2114 H 187.227 -2.0701 -4.58428 0
M  V30 2115 H 186.927 -3.82195 -4.46319 0
M  V30 2116 H 188.451 -3.22869 -5.18255 0
M  V30 2117 H 189.865 -4.62348 -3.38979 0
M  V30 2118 H 188.262 -5.25006 -2.9067 0
M  V30 2119 H 189.332 -4.54893 -1.67929 0
M  V30 2120 N 190.675 0.682077 -1.42076 0
M  V30 2121 C 191.607 1.80755 -1.40926 0
M  V30 2122 C 192.62 1.59833 -0.309398 0
M  V30 2123 O 193.809 1.69087 -0.572014 0
M  V30 2124 C 190.909 3.17744 -1.17865 0
M  V30 2125 C 190.082 3.65578 -2.40149 0
M  V30 2126 C 189.141 4.81277 -2.12742 0
M  V30 2127 O 188.167 4.92197 -2.85887 0
M  V30 2128 N 189.369 5.69474 -1.12602 0
M  V30 2129 H 192.134 1.82229 -2.37935 0
M  V30 2130 H 189.695 0.864903 -1.36861 0
M  V30 2131 H 191.687 3.9279 -0.9746 0
M  V30 2132 H 190.257 3.11214 -0.294068 0
M  V30 2133 H 189.477 2.81291 -2.76169 0
M  V30 2134 H 190.765 3.94278 -3.21593 0
M  V30 2135 H 190.163 5.63297 -0.520899 0
M  V30 2136 H 188.72 6.44363 -0.981842 0
M  V30 2137 N 192.153 1.28127 0.917671 0
M  V30 2138 C 193.569 1.05749 1.19538 0
M  V30 2139 C 193.769 -0.202633 2.00479 0
M  V30 2140 O 192.825 -0.905382 2.3571 0
M  V30 2141 C 194.138 2.30273 1.93378 0
M  V30 2142 C 195.686 2.35412 2.06277 0
M  V30 2143 C 196.161 3.59692 2.83524 0
M  V30 2144 N 197.652 3.60309 2.91087 0
M  V30 2145 C 198.387 4.53147 3.51348 0
M  V30 2146 N 197.883 5.563 4.12919 0
M  V30 2147 N 199.676 4.40751 3.48849 0
M  V30 2148 H 191.827 2.09024 0.377184 0
M  V30 2149 H 194.09 0.919798 0.22951 0
M  V30 2150 H 193.796 3.22055 1.41328 0
M  V30 2151 H 193.67 2.36378 2.93947 0
M  V30 2152 H 196.057 1.4413 2.57508 0
M  V30 2153 H 196.138 2.33304 1.04895 0
M  V30 2154 H 195.782 4.51316 2.32973 0
M  V30 2155 H 195.712 3.59054 3.85211 0
M  V30 2156 H 198.203 2.85714 2.47338 0
M  V30 2157 H 198.516 6.2329 4.56869 0
M  V30 2158 H 196.861 5.60131 4.11435 0
M  V30 2159 H 200.052 3.59367 2.99955 0
M  V30 2160 H 200.225 5.13291 3.9552 0
M  V30 2161 N 193.631 -1.12557 1.10312 0
M  V30 2162 C 194.871 -1.8568 0.854543 0
M  V30 2163 C 195.235 -1.82091 -0.608843 0
M  V30 2164 O 196.436 -2.50544 -0.973717 0
M  V30 2165 C 194.707 -3.2942 1.38626 0
M  V30 2166 S 196.266 -4.19931 1.27293 0
M  V30 2167 H 193.084 -0.640427 0.308827 0
M  V30 2168 H 195.686 -1.35599 1.40831 0
M  V30 2169 H 194.39 -3.2959 2.44537 0
M  V30 2170 H 193.921 -3.84566 0.82902 0
M  V30 2171 H 195.936 -4.95668 0.229776 0
M  V30 2172 N 195.109 -0.891671 -1.2995 0
M  V30 2173 C 196.356 -0.513501 -1.95881 0
M  V30 2174 C 196.684 0.938655 -1.70351 0
M  V30 2175 O 195.939 1.67936 -1.00478 0
M  V30 2176 C 196.238 -0.742868 -3.49594 0
M  V30 2177 C 195.904 -2.17114 -3.95186 0
M  V30 2178 C 194.566 -2.56169 -4.07346 0
M  V30 2179 C 196.918 -3.10162 -4.18866 0
M  V30 2180 C 194.246 -3.87469 -4.4055 0
M  V30 2181 C 196.598 -4.41001 -4.53542 0
M  V30 2182 C 195.262 -4.79941 -4.63911 0
M  V30 2183 H 194.532 -0.187903 -0.71678 0
M  V30 2184 H 197.179 -1.1288 -1.54694 0
M  V30 2185 H 195.484 -0.044586 -3.91775 0
M  V30 2186 H 197.181 -0.429767 -3.9869 0
M  V30 2187 H 193.771 -1.85801 -3.86233 0
M  V30 2188 H 197.955 -2.81206 -4.08946 0
M  V30 2189 H 193.211 -4.17371 -4.46779 0
M  V30 2190 H 197.385 -5.13133 -4.70815 0
M  V30 2191 H 195.012 -5.81719 -4.89395 0
M  V30 2192 N 196.587 1.43421 -0.653314 0
M  V30 2193 C 197.834 2.01812 -0.166745 0
M  V30 2194 C 198.162 1.51535 1.21931 0
M  V30 2195 O 197.417 0.698975 1.82792 0
M  V30 2196 C 197.716 3.57176 -0.126623 0
M  V30 2197 C 197.382 4.26798 -1.45444 0
M  V30 2198 C 196.044 4.45534 -1.81805 0
M  V30 2199 C 198.396 4.66225 -2.32989 0
M  V30 2200 C 195.724 5.00961 -3.05377 0
M  V30 2201 C 198.076 5.23021 -3.55853 0
M  V30 2202 C 196.74 5.39973 -3.9241 0
M  V30 2203 H 196.01 0.738484 -0.0610162 0
M  V30 2204 H 198.657 1.71896 -0.84404 0
M  V30 2205 H 196.962 3.86634 0.634123 0
M  V30 2206 H 198.659 4.00112 0.266723 0
M  V30 2207 H 195.249 4.12561 -1.16153 0
M  V30 2208 H 199.433 4.51443 -2.06187 0
M  V30 2209 H 194.689 5.12271 -3.3375 0
M  V30 2210 H 198.863 5.52518 -4.23907 0
M  V30 2211 H 196.49 5.82687 -4.88242 0
M  V30 2212 N 198.065 0.39524 1.52563 0
M  V30 2213 C 198.995 -0.428384 2.29537 0
M  V30 2214 C 199.976 -1.05831 1.33169 0
M  V30 2215 O 201.161 -1.06995 1.62067 0
M  V30 2216 C 198.291 -1.55274 3.10656 0
M  V30 2217 C 197.245 -1.04855 4.14957 0
M  V30 2218 C 196.571 -2.26543 4.84337 0
M  V30 2219 C 197.871 -0.112324 5.22179 0
M  V30 2220 H 199.565 0.213867 2.98635 0
M  V30 2221 H 197.111 0.104298 1.43622 0
M  V30 2222 H 199.064 -2.1358 3.63265 0
M  V30 2223 H 197.788 -2.22266 2.39302 0
M  V30 2224 H 196.447 -0.487985 3.63338 0
M  V30 2225 H 196.095 -2.92059 4.09525 0
M  V30 2226 H 195.795 -1.93466 5.54837 0
M  V30 2227 H 197.319 -2.85481 5.39753 0
M  V30 2228 H 198.733 -0.603752 5.70112 0
M  V30 2229 H 197.13 0.128968 5.99961 0
M  V30 2230 H 198.2 0.837052 4.77621 0
M  V30 2231 N 199.544 -1.57102 0.125237 0
M  V30 2232 C 200.474 -2.18659 -0.819174 0
M  V30 2233 C 201.455 -1.12843 -1.27281 0
M  V30 2234 O 202.64 -1.41104 -1.33429 0
M  V30 2235 C 199.77 -2.79096 -2.06695 0
M  V30 2236 C 198.724 -3.90548 -1.75088 0
M  V30 2237 C 198.05 -4.37821 -3.06948 0
M  V30 2238 C 199.35 -5.12356 -1.01435 0
M  V30 2239 H 201.044 -2.9783 -0.306202 0
M  V30 2240 H 198.59 -1.4326 -0.145839 0
M  V30 2241 H 200.543 -3.2082 -2.73226 0
M  V30 2242 H 199.267 -1.97223 -2.60328 0
M  V30 2243 H 197.926 -3.49409 -1.10944 0
M  V30 2244 H 197.574 -3.52799 -3.58527 0
M  V30 2245 H 197.274 -5.12982 -2.86571 0
M  V30 2246 H 198.798 -4.822 -3.74587 0
M  V30 2247 H 200.212 -5.5106 -1.58132 0
M  V30 2248 H 198.609 -5.9314 -0.911319 0
M  V30 2249 H 199.679 -4.849 -0.00218681 0
M  V30 2250 N 201.022 0.148545 -1.56898 0
M  V30 2251 C 201.969 1.18345 -1.98149 0
M  V30 2252 C 202.939 1.42772 -0.848848 0
M  V30 2253 O 204.124 1.55132 -1.11079 0
M  V30 2254 C 201.264 2.51231 -2.36594 0
M  V30 2255 C 200.377 2.33991 -3.63142 0
M  V30 2256 C 199.512 3.59902 -3.90697 0
M  V30 2257 C 198.551 3.37692 -5.1052 0
M  V30 2258 N 197.688 4.5573 -5.34092 0
M  V30 2259 H 202.528 0.82467 -2.86362 0
M  V30 2260 H 200.065 0.395756 -1.41676 0
M  V30 2261 H 202.023 3.28713 -2.56912 0
M  V30 2262 H 200.653 2.85059 -1.51463 0
M  V30 2263 H 199.705 1.47572 -3.50609 0
M  V30 2264 H 201.017 2.13539 -4.5078 0
M  V30 2265 H 200.171 4.45813 -4.11505 0
M  V30 2266 H 198.91 3.83357 -3.01477 0
M  V30 2267 H 197.915 2.5017 -4.89587 0
M  V30 2268 H 199.14 3.15637 -6.0129 0
M  V30 2269 H 197.086 4.79361 -4.47827 0
M  V30 2270 H 197.003 4.38274 -6.15996 0
M  V30 2271 H 198.271 5.42858 -5.59397 0
M  V30 2272 N 202.5 1.5196 0.417844 0
M  V30 2273 C 203.911 1.57851 0.997 0
M  V30 2274 C 204.262 0.413714 1.91789 0
M  V30 2275 O 203.387 -0.467057 2.113 0
M  V30 2276 C 203.982 2.86085 1.81496 0
M  V30 2277 C 202.541 2.94483 2.34428 0
M  V30 2278 C 201.688 2.52707 1.14169 0
M  V30 2279 H 204.639 1.57455 0.198392 0
M  V30 2280 H 204.66 2.70947 2.67148 0
M  V30 2281 H 204.172 3.70842 1.14446 0
M  V30 2282 H 202.273 2.142 3.04875 0
M  V30 2283 H 202.386 3.98546 2.65891 0
M  V30 2284 H 200.75 2.06353 1.49301 0
M  V30 2285 H 201.533 3.39828 0.486999 0
M  V30 2286 N 203.978 -0.674533 1.42435 0
M  V30 2287 C 205.225 -1.43459 1.42919 0
M  V30 2288 C 205.553 -1.94446 0.0457312 0
M  V30 2289 O 204.808 -1.7132 -0.94593 0
M  V30 2290 C 205.107 -2.64767 2.40069 0
M  V30 2291 C 204.773 -2.3232 3.86443 0
M  V30 2292 C 203.435 -2.23182 4.26314 0
M  V30 2293 C 205.787 -2.05977 4.78773 0
M  V30 2294 C 203.115 -1.85827 5.56494 0
M  V30 2295 C 205.467 -1.70125 6.09295 0
M  V30 2296 C 204.131 -1.59498 6.48164 0
M  V30 2297 H 203.401 -0.524952 0.522978 0
M  V30 2298 H 206.048 -0.769097 1.75377 0
M  V30 2299 H 204.353 -3.36349 2.00939 0
M  V30 2300 H 206.05 -3.22949 2.37707 0
M  V30 2301 H 202.64 -2.40334 3.54877 0
M  V30 2302 H 206.824 -2.11969 4.48757 0
M  V30 2303 H 202.08 -1.76168 5.8547 0
M  V30 2304 H 206.254 -1.48767 6.80324 0
M  V30 2305 H 203.881 -1.30322 7.48946 0
M  V30 2306 N 205.456 -1.28612 -0.910864 0
M  V30 2307 C 206.872 -1.06381 -1.18976 0
M  V30 2308 C 207.072 0.191998 -2.00583 0
M  V30 2309 O 206.128 0.892869 -2.36187 0
M  V30 2310 C 207.441 -2.31295 -1.92154 0
M  V30 2311 C 208.989 -2.36503 -2.05025 0
M  V30 2312 C 209.464 -3.61191 -2.81612 0
M  V30 2313 N 210.955 -3.61847 -2.89172 0
M  V30 2314 C 211.69 -4.55004 -3.4894 0
M  V30 2315 N 211.186 -5.58482 -4.09963 0
M  V30 2316 N 212.979 -4.42594 -3.46506 0
M  V30 2317 H 205.13 -2.09221 -0.366094 0
M  V30 2318 H 207.393 -0.921003 -0.224629 0
M  V30 2319 H 207.099 -3.228 -1.39618 0
M  V30 2320 H 206.973 -2.37934 -2.9269 0
M  V30 2321 H 209.36 -1.45494 -2.5674 0
M  V30 2322 H 209.441 -2.33857 -1.03657 0
M  V30 2323 H 209.085 -4.52545 -2.30576 0
M  V30 2324 H 209.015 -3.61092 -3.83302 0
M  V30 2325 H 211.506 -2.87022 -2.45819 0
M  V30 2326 H 211.819 -6.25704 -4.53557 0
M  V30 2327 H 210.164 -5.62305 -4.08459 0
M  V30 2328 H 213.355 -3.60953 -2.98045 0
M  V30 2329 H 213.528 -5.15381 -3.92793 0
M  V30 2330 N 206.934 1.1197 -1.10907 0
M  V30 2331 C 207.897 2.16031 -0.765707 0
M  V30 2332 C 208.897 1.59393 0.212235 0
M  V30 2333 O 210.087 1.74196 -0.0115441 0
M  V30 2334 C 207.219 3.40632 -0.135053 0
M  V30 2335 H 208.412 2.47919 -1.68748 0
M  V30 2336 H 205.965 1.27061 -0.910226 0
M  V30 2337 H 206.7 3.14348 0.797218 0
M  V30 2338 H 206.485 3.8302 -0.838937 0
M  V30 2339 H 207.975 4.17505 0.0892469 0
M  V30 2340 N 208.412 0.89855 1.29475 0
M  V30 2341 C 209.828 0.594483 1.48115 0
M  V30 2342 C 210.028 -0.86431 1.82022 0
M  V30 2343 O 209.084 -1.64457 1.91599 0
M  V30 2344 C 210.397 1.51932 2.59494 0
M  V30 2345 C 211.945 1.5244 2.7337 0
M  V30 2346 C 212.42 2.43548 3.87877 0
M  V30 2347 N 213.911 2.41589 3.95208 0
M  V30 2348 C 214.646 3.08789 4.83153 0
M  V30 2349 N 214.142 3.85265 5.75798 0
M  V30 2350 N 215.935 2.97952 4.76635 0
M  V30 2351 H 208.086 1.84207 1.05742 0
M  V30 2352 H 210.349 0.789251 0.525154 0
M  V30 2353 H 210.055 2.55865 2.41301 0
M  V30 2354 H 209.929 1.23899 3.56271 0
M  V30 2355 H 212.316 0.492518 2.90961 0
M  V30 2356 H 212.397 1.8451 1.77172 0
M  V30 2357 H 212.041 3.46829 3.71041 0
M  V30 2358 H 211.971 2.08788 4.83441 0
M  V30 2359 H 214.462 1.86025 3.28943 0
M  V30 2360 H 214.775 4.33598 6.39697 0
M  V30 2361 H 213.12 3.89371 5.75687 0
M  V30 2362 H 216.311 2.37723 4.03244 0
M  V30 2363 H 216.484 3.50599 5.44962 0
M  V30 2364 N 209.89 -1.43072 0.660911 0
M  V30 2365 C 211.167 -1.95307 0.107017 0
M  V30 2366 C 211.547 -1.60192 -1.37484 0
M  V30 2367 O 210.895 -0.890949 -2.10415 0
M  V30 2368 C 211.105 -3.47124 0.361402 0
M  V30 2369 C 212.453 -4.23738 0.270455 0
M  V30 2370 O 213.477 -3.54981 0.294382 0
M  V30 2371 O 212.336 -5.46131 0.200737 0
M  V30 2372 H 209.43 -0.826984 -0.00517729 0
M  V30 2373 H 211.976 -1.52972 0.734681 0
M  V30 2374 H 210.748 -3.65837 1.38848 0
M  V30 2375 H 210.371 -3.96475 -0.298953 0
M  V30 2376 N 211.368 -0.403325 -1.52352 0
M  V30 2377 C 212.614 0.167015 -2.02713 0
M  V30 2378 C 212.969 1.43296 -1.28391 0
M  V30 2379 O 212.262 1.87796 -0.379885 0
M  V30 2380 C 212.456 0.474665 -3.54234 0
M  V30 2381 C 212.285 -0.759909 -4.43233 0
M  V30 2382 C 211.055 -1.28338 -4.88731 0
M  V30 2383 C 213.253 -1.63634 -4.87574 0
M  V30 2384 N 211.235 -2.47404 -5.6184 0
M  V30 2385 C 212.606 -2.67329 -5.59406 0
M  V30 2386 C 214.661 -1.65478 -4.69597 0
M  V30 2387 C 213.364 -3.72773 -6.15169 0
M  V30 2388 C 215.39 -2.69837 -5.26253 0
M  V30 2389 C 214.752 -3.72253 -5.98002 0
M  V30 2390 H 210.851 0.0228343 -0.781667 0
M  V30 2391 H 213.435 -0.556368 -1.86581 0
M  V30 2392 H 211.606 1.16709 -3.7045 0
M  V30 2393 H 213.338 1.03338 -3.91284 0
M  V30 2394 H 210.093 -0.842273 -4.6605 0
M  V30 2395 H 210.517 -3.07688 -6.0304 0
M  V30 2396 H 215.159 -0.876389 -4.13617 0
M  V30 2397 H 212.877 -4.51471 -6.70223 0
M  V30 2398 H 216.463 -2.72164 -5.14216 0
M  V30 2399 H 215.343 -4.51679 -6.41058 0
M  V30 2400 N 212.846 1.57033 -0.133567 0
M  V30 2401 C 213.793 2.16074 0.811208 0
M  V30 2402 C 214.763 1.08979 1.2535 0
M  V30 2403 O 215.948 1.36958 1.32843 0
M  V30 2404 C 213.088 2.77595 2.05024 0
M  V30 2405 C 212.201 3.99042 1.65498 0
M  V30 2406 C 211.336 4.48603 2.84479 0
M  V30 2407 C 210.375 5.62547 2.41262 0
M  V30 2408 N 209.512 6.06787 3.53206 0
M  V30 2409 H 214.352 2.96477 0.300906 0
M  V30 2410 H 211.889 1.46462 0.136822 0
M  V30 2411 H 213.847 3.11402 2.77642 0
M  V30 2412 H 212.477 1.99859 2.53488 0
M  V30 2413 H 211.529 3.71302 0.826981 0
M  V30 2414 H 212.841 4.81629 1.29748 0
M  V30 2415 H 211.995 4.84395 3.65303 0
M  V30 2416 H 210.734 3.64995 3.23465 0
M  V30 2417 H 209.739 5.26345 1.58874 0
M  V30 2418 H 210.964 6.47931 2.03377 0
M  V30 2419 H 208.91 5.26117 3.91838 0
M  V30 2420 H 208.827 6.84266 3.21427 0
M  V30 2421 H 210.095 6.4722 4.34427 0
M  V30 2422 N 214.325 -0.140222 1.56975 0
M  V30 2423 C 215.741 -0.493088 1.51792 0
M  V30 2424 C 215.941 -1.83013 0.843116 0
M  V30 2425 O 214.997 -2.49041 0.416493 0
M  V30 2426 C 216.31 -0.497144 2.96562 0
M  V30 2427 C 217.858 -0.582186 3.07538 0
M  V30 2428 C 218.333 -0.616838 4.53827 0
M  V30 2429 N 219.824 -0.678873 4.58198 0
M  V30 2430 C 220.559 -0.726782 5.68775 0
M  V30 2431 N 220.055 -0.733623 6.88905 0
M  V30 2432 N 221.848 -0.768179 5.56826 0
M  V30 2433 H 213.999 0.736108 1.99237 0
M  V30 2434 H 216.262 0.269182 0.90898 0
M  V30 2435 H 215.968 0.417217 3.49217 0
M  V30 2436 H 215.842 -1.33263 3.52875 0
M  V30 2437 H 218.229 -1.48697 2.54899 0
M  V30 2438 H 218.31 0.280581 2.54257 0
M  V30 2439 H 217.954 0.283812 5.07106 0
M  V30 2440 H 217.884 -1.49619 5.04898 0
M  V30 2441 H 220.375 -0.68061 3.7172 0
M  V30 2442 H 220.688 -0.772215 7.68932 0
M  V30 2443 H 219.033 -0.701389 6.91452 0
M  V30 2444 H 222.224 -0.760051 4.61888 0
M  V30 2445 H 222.397 -0.80205 6.43017 0
M  V30 2446 N 215.803 -1.52179 -0.40978 0
M  V30 2447 C 217.219 -1.40968 -0.74835 0
M  V30 2448 C 217.419 -0.513657 -1.94843 0
M  V30 2449 O 216.475 0.0208026 -2.52491 0
M  V30 2450 C 217.788 -2.83483 -1.0029 0
M  V30 2451 C 219.336 -2.92821 -1.10565 0
M  V30 2452 C 219.811 -4.36303 -1.39296 0
M  V30 2453 N 221.302 -4.39535 -1.46162 0
M  V30 2454 C 222.037 -5.47614 -1.70018 0
M  V30 2455 N 221.533 -6.65812 -1.91483 0
M  V30 2456 N 223.326 -5.35129 -1.72027 0
M  V30 2457 H 215.477 -2.0897 0.380186 0
M  V30 2458 H 217.74 -0.94185 0.107805 0
M  V30 2459 H 217.446 -3.51168 -0.193461 0
M  V30 2460 H 217.32 -3.24487 -1.92323 0
M  V30 2461 H 219.707 -2.25318 -1.90568 0
M  V30 2462 H 219.788 -2.55276 -0.16369 0
M  V30 2463 H 219.432 -5.04366 -0.598109 0
M  V30 2464 H 219.362 -4.71385 -2.34743 0
M  V30 2465 H 221.853 -3.54332 -1.31367 0
M  V30 2466 H 222.166 -7.43964 -2.09134 0
M  V30 2467 H 220.511 -6.68879 -1.88749 0
M  V30 2468 H 223.702 -4.41764 -1.54796 0
M  V30 2469 H 223.875 -6.19433 -1.9028 0
M  V30 2470 N 217.281 0.66697 -1.42791 0
M  V30 2471 C 218.511 1.45294 -1.46878 0
M  V30 2472 C 218.919 1.89027 -0.0809861 0
M  V30 2473 O 218.262 1.59219 0.916246 0
M  V30 2474 C 218.324 2.72908 -2.34012 0
M  V30 2475 C 217.988 2.51203 -3.81767 0
M  V30 2476 C 218.985 2.15302 -4.73224 0
M  V30 2477 C 216.67 2.65954 -4.26115 0
M  V30 2478 C 218.664 1.94431 -6.07022 0
M  V30 2479 C 216.351 2.44699 -5.59969 0
M  V30 2480 C 217.349 2.08992 -6.5024 0
M  V30 2481 O 217.037 1.87948 -7.81621 0
M  V30 2482 H 216.769 0.453306 -0.501487 0
M  V30 2483 H 219.323 0.826232 -1.88049 0
M  V30 2484 H 217.553 3.38089 -1.87703 0
M  V30 2485 H 219.242 3.34816 -2.29462 0
M  V30 2486 H 220.008 2.03495 -4.40244 0
M  V30 2487 H 215.887 2.92724 -3.56137 0
M  V30 2488 H 219.431 1.66484 -6.77443 0
M  V30 2489 H 215.328 2.56105 -5.9252 0
M  V30 2490 H 216.096 2.02483 -7.93059 0
M  V30 2491 N 218.759 1.29093 0.90403 0
M  V30 2492 C 220.036 1.075 1.63411 0
M  V30 2493 C 220.416 -0.382346 2.07609 0
M  V30 2494 O 219.764 -1.37031 1.82851 0
M  V30 2495 C 219.974 2.05858 2.81822 0
M  V30 2496 C 221.322 2.36539 3.52611 0
M  V30 2497 O 222.346 2.04019 2.91984 0
M  V30 2498 O 221.205 2.92085 4.61897 0
M  V30 2499 H 218.299 0.411547 0.717327 0
M  V30 2500 H 220.845 1.40449 0.952479 0
M  V30 2501 H 219.617 3.04037 2.46327 0
M  V30 2502 H 219.24 1.73613 3.57693 0
M  V30 2503 N 220.237 -1.11381 1.11499 0
M  V30 2504 C 221.483 -1.83403 0.865512 0
M  V30 2505 C 221.816 -1.84459 -0.607329 0
M  V30 2506 O 221.091 -1.29811 -1.44842 0
M  V30 2507 C 221.374 -3.30552 1.42855 0
M  V30 2508 C 221.227 -3.37886 2.96906 0
M  V30 2509 C 222.546 -4.26643 1.08 0
M  V30 2510 H 219.665 -0.665879 0.31587 0
M  V30 2511 H 222.307 -1.30601 1.37998 0
M  V30 2512 H 220.457 -3.75648 0.990985 0
M  V30 2513 H 222.129 -3.01343 3.49271 0
M  V30 2514 H 220.372 -2.78088 3.32941 0
M  V30 2515 H 221.043 -4.41458 3.31389 0
M  V30 2516 H 223.519 -3.89729 1.45775 0
M  V30 2517 H 222.395 -5.27986 1.50072 0
M  V30 2518 H 222.656 -4.42099 -0.00915037 0
M  V30 2519 N 221.715 -0.905404 -1.28997 0
M  V30 2520 C 222.963 -0.533192 -1.9494 0
M  V30 2521 C 223.284 0.924618 -1.71685 0
M  V30 2522 O 222.554 1.65268 -1.05183 0
M  V30 2523 H 221.134 -0.194194 -0.721317 0
M  V30 2524 H 223.796 -1.15294 -1.57141 0
M  V30 2525 H 222.892 -0.72059 -3.03667 0
M  V30 2526 N 223.193 1.4272 -0.668489 0
M  V30 2527 C 224.442 2.00846 -0.185389 0
M  V30 2528 C 224.755 1.53442 1.21305 0
M  V30 2529 O 225.961 2.03944 1.79218 0
M  V30 2530 C 224.417 3.58805 -0.280591 0
M  V30 2531 C 224.025 4.15198 -1.68268 0
M  V30 2532 C 225.769 4.24255 0.14412 0
M  V30 2533 C 223.676 5.655 -1.73099 0
M  V30 2534 H 222.606 0.751145 -0.0655475 0
M  V30 2535 H 225.257 1.63516 -0.832752 0
M  V30 2536 H 223.639 3.93608 0.434553 0
M  V30 2537 H 224.813 3.91866 -2.42441 0
M  V30 2538 H 223.128 3.62176 -2.05469 0
M  V30 2539 H 225.725 5.34547 0.128086 0
M  V30 2540 H 226.068 3.99277 1.17827 0
M  V30 2541 H 226.601 3.94389 -0.519798 0
M  V30 2542 H 223.34 5.95268 -2.74475 0
M  V30 2543 H 222.86 5.90842 -1.03274 0
M  V30 2544 H 224.539 6.29808 -1.48158 0
M  V30 2545 N 224.671 0.411399 1.52136 0
M  V30 2546 C 225.896 -0.165538 2.06738 0
M  V30 2547 C 226.321 -1.379 1.27926 0
M  V30 2548 O 225.679 -1.78628 0.310114 0
M  V30 2549 C 225.727 -0.492124 3.57226 0
M  V30 2550 O 224.831 -1.58276 3.80818 0
M  V30 2551 H 224.172 -0.0132132 0.663869 0
M  V30 2552 H 226.702 0.585253 1.96051 0
M  V30 2553 H 226.712 -0.750104 4.01045 0
M  V30 2554 H 225.387 0.394922 4.14021 0
M  V30 2555 H 223.964 -1.31677 3.48877 0
M  V30 2556 N 226.149 -1.5696 0.141893 0
M  V30 2557 C 227.112 -2.15316 -0.785587 0
M  V30 2558 C 228.112 -1.09366 -1.1788 0
M  V30 2559 O 229.302 -1.35031 -1.10056 0
M  V30 2560 C 226.434 -2.71211 -2.06537 0
M  V30 2561 H 227.627 -2.98608 -0.278041 0
M  V30 2562 H 225.18 -1.5593 -0.107519 0
M  V30 2563 H 225.915 -1.91571 -2.6167 0
M  V30 2564 H 225.7 -3.4872 -1.79268 0
M  V30 2565 H 227.19 -3.16189 -2.72789 0
M  V30 2566 N 227.627 0.131896 -1.57047 0
M  V30 2567 C 228.59 1.14638 -1.98471 0
M  V30 2568 C 229.59 1.35029 -0.873148 0
M  V30 2569 O 230.78 1.31764 -1.13946 0
M  V30 2570 C 227.912 2.50358 -2.31373 0
M  V30 2571 H 229.105 0.79064 -2.8929 0
M  V30 2572 H 226.658 0.375761 -1.51716 0
M  V30 2573 H 227.393 2.90876 -1.43393 0
M  V30 2574 H 227.178 2.36915 -3.12432 0
M  V30 2575 H 228.668 3.23395 -2.64207 0
M  V30 2576 N 229.106 1.52395 0.401703 0
M  V30 2577 C 230.355 1.66044 1.14509 0
M  V30 2578 C 230.668 0.400216 1.91462 0
M  V30 2579 O 231.874 0.416632 2.68284 0
M  V30 2580 C 230.33 2.93388 2.0845 0
M  V30 2581 C 229.938 4.26545 1.36978 0
M  V30 2582 C 231.682 3.16402 2.83001 0
M  V30 2583 C 229.589 5.45007 2.29611 0
M  V30 2584 H 228.519 0.618562 0.431158 0
M  V30 2585 H 231.17 1.78886 0.40892 0
M  V30 2586 H 229.552 2.74263 2.8565 0
M  V30 2587 H 230.726 4.56179 0.650916 0
M  V30 2588 H 229.041 4.09692 0.74438 0
M  V30 2589 H 231.638 4.02085 3.52465 0
M  V30 2590 H 231.981 2.30943 3.46368 0
M  V30 2591 H 232.514 3.36034 2.12898 0
M  V30 2592 H 229.253 6.32835 1.70879 0
M  V30 2593 H 228.773 5.19702 2.9945 0
M  V30 2594 H 230.452 5.7838 2.89974 0
M  V30 2595 N 230.584 -0.659388 1.43143 0
M  V30 2596 C 231.83 -1.41984 1.45644 0
M  V30 2597 C 232.185 -1.92245 0.0771718 0
M  V30 2598 O 231.478 -1.68976 -0.903205 0
M  V30 2599 C 231.672 -2.62206 2.42864 0
M  V30 2600 C 231.501 -2.23711 3.90107 0
M  V30 2601 C 230.271 -2.12332 4.58523 0
M  V30 2602 C 232.469 -1.84384 4.80112 0
M  V30 2603 N 230.451 -1.67102 5.9072 0
M  V30 2604 C 231.822 -1.5019 6.01534 0
M  V30 2605 C 233.877 -1.71512 4.67427 0
M  V30 2606 C 232.58 -1.04414 7.11681 0
M  V30 2607 C 234.606 -1.27142 5.77572 0
M  V30 2608 C 233.968 -0.938808 6.98116 0
M  V30 2609 H 230.067 -0.515448 0.588079 0
M  V30 2610 H 232.651 -0.759409 1.79279 0
M  V30 2611 H 230.822 -3.25917 2.11265 0
M  V30 2612 H 232.554 -3.28877 2.35843 0
M  V30 2613 H 229.309 -2.31893 4.12944 0
M  V30 2614 H 229.733 -1.46866 6.60878 0
M  V30 2615 H 234.375 -1.95868 3.74694 0
M  V30 2616 H 232.093 -0.788061 8.04248 0
M  V30 2617 H 235.679 -1.17681 5.69774 0
M  V30 2618 H 234.559 -0.6007 7.81896 0
M  V30 2619 N 232.062 -1.29571 -0.897171 0
M  V30 2620 C 233.311 -1.1706 -1.64256 0
M  V30 2621 C 233.624 0.276476 -1.93636 0
M  V30 2622 O 234.83 0.52294 -2.66416 0
M  V30 2623 C 233.286 -2.0475 -2.95982 0
M  V30 2624 C 232.894 -3.54295 -2.74187 0
M  V30 2625 C 234.638 -2.0097 -3.73914 0
M  V30 2626 C 232.545 -4.34081 -4.01656 0
M  V30 2627 H 231.475 -0.43452 -0.616205 0
M  V30 2628 H 234.126 -1.54229 -0.994268 0
M  V30 2629 H 232.508 -1.60452 -3.62038 0
M  V30 2630 H 233.682 -4.06662 -2.1671 0
M  V30 2631 H 231.997 -3.59773 -2.09648 0
M  V30 2632 H 234.594 -2.57838 -4.68427 0
M  V30 2633 H 234.937 -0.990273 -4.0435 0
M  V30 2634 H 235.47 -2.43325 -3.14703 0
M  V30 2635 H 232.209 -5.36671 -3.76384 0
M  V30 2636 H 231.729 -3.86483 -4.58684 0
M  V30 2637 H 233.408 -4.44877 -4.69781 0
M  V30 2638 N 233.54 1.10788 -1.12088 0
M  V30 2639 C 234.786 1.82942 -0.875226 0
M  V30 2640 C 235.119 1.84779 0.597538 0
M  V30 2641 O 234.394 1.30578 1.44152 0
M  V30 2642 C 234.677 3.29789 -1.44606 0
M  V30 2643 C 234.53 3.36307 -2.98693 0
M  V30 2644 C 235.849 4.26064 -1.10261 0
M  V30 2645 H 232.968 0.664195 -0.319397 0
M  V30 2646 H 235.61 1.29867 -1.38689 0
M  V30 2647 H 233.76 3.75118 -1.01089 0
M  V30 2648 H 235.432 2.99487 -3.50864 0
M  V30 2649 H 233.675 2.76318 -3.34411 0
M  V30 2650 H 234.346 4.39694 -3.33726 0
M  V30 2651 H 236.822 3.88951 -1.4784 0
M  V30 2652 H 235.698 5.27183 -1.52869 0
M  V30 2653 H 235.959 4.42098 -0.0142953 0
M  V30 2654 N 235.018 0.912232 1.28515 0
M  V30 2655 C 236.264 0.545405 1.95328 0
M  V30 2656 C 236.597 -0.908313 1.71649 0
M  V30 2657 O 235.872 -1.64575 1.03659 0
M  V30 2658 C 236.155 0.853483 3.4984 0
M  V30 2659 C 236.008 2.35982 3.82926 0
M  V30 2660 C 237.327 0.348589 4.38717 0
M  V30 2661 H 234.446 0.199626 0.709449 0
M  V30 2662 H 237.088 1.1412 1.5191 0
M  V30 2663 H 235.238 0.34643 3.86952 0
M  V30 2664 H 236.91 2.93738 3.55691 0
M  V30 2665 H 235.153 2.81543 3.30024 0
M  V30 2666 H 235.824 2.52593 4.90816 0
M  V30 2667 H 238.3 0.78294 4.08668 0
M  V30 2668 H 237.176 0.593242 5.45685 0
M  V30 2669 H 237.437 -0.751049 4.35674 0
M  V30 2670 N 236.496 -1.42363 0.676048 0
M  V30 2671 C 237.744 -2.01123 0.198437 0
M  V30 2672 C 238.065 -1.53731 -1.19966 0
M  V30 2673 O 237.335 -0.759518 -1.80577 0
M  V30 2674 H 235.915 -0.743678 0.0703721 0
M  V30 2675 H 238.577 -1.74263 0.872837 0
M  V30 2676 H 237.673 -3.11454 0.200686 0
M  V30 2677 N 237.974 -0.419461 -1.51915 0
M  V30 2678 C 239.202 0.152136 -2.0634 0
M  V30 2679 C 239.617 1.37988 -1.28859 0
M  V30 2680 O 238.974 1.79243 -0.343232 0
M  V30 2681 C 239.025 0.492266 -3.58133 0
M  V30 2682 O 238.746 -0.686736 -4.32684 0
M  V30 2683 C 240.247 1.11648 -4.2901 0
M  V30 2684 H 237.467 0.0158325 -0.670813 0
M  V30 2685 H 240.011 -0.593394 -1.95702 0
M  V30 2686 H 238.166 1.18769 -3.68745 0
M  V30 2687 H 238.58 -0.400341 -5.2297 0
M  V30 2688 H 240.054 1.3046 -5.36362 0
M  V30 2689 H 240.531 2.09251 -3.86148 0
M  V30 2690 H 241.137 0.460958 -4.22795 0
M  V30 2691 N 239.452 1.56882 -0.150215 0
M  V30 2692 C 240.415 2.1573 0.774157 0
M  V30 2693 C 241.415 1.0999 1.17298 0
M  V30 2694 O 242.605 1.35613 1.09338 0
M  V30 2695 C 239.737 2.72302 2.05096 0
M  V30 2696 H 240.93 2.98752 0.262201 0
M  V30 2697 H 238.483 1.55985 0.099248 0
M  V30 2698 H 239.218 1.92956 2.6065 0
M  V30 2699 H 239.003 3.49665 1.77416 0
M  V30 2700 H 240.493 3.17632 2.71109 0
M  V30 2701 N 240.93 -0.123565 1.57115 0
M  V30 2702 C 242.17 -0.838097 1.86428 0
M  V30 2703 C 242.534 -1.77266 0.737611 0
M  V30 2704 O 243.735 -2.52842 0.912389 0
M  V30 2705 C 242.006 -1.57219 3.20962 0
M  V30 2706 S 243.565 -2.32893 3.71896 0
M  V30 2707 H 240.383 -0.279811 0.653626 0
M  V30 2708 H 242.985 -0.0967034 1.95261 0
M  V30 2709 H 241.689 -0.877522 4.00909 0
M  V30 2710 H 241.22 -2.35405 3.15195 0
M  V30 2711 H 243.235 -3.5853 3.43032 0
M  V30 2712 N 242.408 -1.52605 -0.393616 0
M  V30 2713 C 243.338 -1.80022 -1.48709 0
M  V30 2714 C 244.319 -0.651995 -1.57108 0
M  V30 2715 O 245.504 -0.89913 -1.72132 0
M  V30 2716 C 242.634 -1.96492 -2.86371 0
M  V30 2717 C 241.588 -3.12161 -2.92813 0
M  V30 2718 C 240.914 -3.13877 -4.3288 0
M  V30 2719 C 242.214 -4.51322 -2.6288 0
M  V30 2720 H 243.908 -2.71589 -1.26015 0
M  V30 2721 H 241.454 -1.30684 -0.604778 0
M  V30 2722 H 243.407 -2.14255 -3.62867 0
M  V30 2723 H 242.131 -1.01611 -3.10391 0
M  V30 2724 H 240.79 -2.94173 -2.18764 0
M  V30 2725 H 240.438 -2.16687 -4.53933 0
M  V30 2726 H 240.138 -3.91576 -4.38112 0
M  V30 2727 H 241.662 -3.33789 -5.1129 0
M  V30 2728 H 243.076 -4.69435 -3.29096 0
M  V30 2729 H 241.473 -5.31053 -2.79468 0
M  V30 2730 H 242.543 -4.58353 -1.58242 0
M  V30 2731 N 243.887 0.651787 -1.4349 0
M  V30 2732 C 245.298 1.233 -1.40193 0
M  V30 2733 C 245.649 1.9591 -0.106727 0
M  V30 2734 O 244.774 2.01316 0.793773 0
M  V30 2735 C 245.369 2.24257 -2.53957 0
M  V30 2736 C 243.928 2.77852 -2.5392 0
M  V30 2737 C 243.075 1.52517 -2.3159 0
M  V30 2738 H 246.026 0.443717 -1.52371 0
M  V30 2739 H 246.047 3.0646 -2.25528 0
M  V30 2740 H 245.559 1.71382 -3.4821 0
M  V30 2741 H 243.66 3.34786 -1.63551 0
M  V30 2742 H 243.773 3.25299 -3.51735 0
M  V30 2743 H 242.137 1.79915 -1.80285 0
M  V30 2744 H 242.92 1.01574 -3.27929 0
M  V30 2745 N 245.365 1.30045 0.890287 0
M  V30 2746 C 246.612 1.18561 1.64163 0
M  V30 2747 C 246.94 -0.260852 1.92743 0
M  V30 2748 O 246.195 -1.20376 1.54299 0
M  V30 2749 C 246.494 1.95409 2.99249 0
M  V30 2750 C 246.16 3.45066 2.90242 0
M  V30 2751 C 244.822 3.85878 2.87492 0
M  V30 2752 C 247.174 4.4039 2.78758 0
M  V30 2753 C 244.502 5.20314 2.7109 0
M  V30 2754 C 246.854 5.74928 2.63894 0
M  V30 2755 C 245.518 6.14986 2.59516 0
M  V30 2756 H 244.788 0.433846 0.600715 0
M  V30 2757 H 247.435 1.61088 1.03552 0
M  V30 2758 H 245.74 1.45501 3.63781 0
M  V30 2759 H 247.437 1.8392 3.56334 0
M  V30 2760 H 244.027 3.12631 2.93189 0
M  V30 2761 H 248.211 4.09806 2.79952 0
M  V30 2762 H 243.467 5.50449 2.66112 0
M  V30 2763 H 247.641 6.48434 2.53981 0
M  V30 2764 H 245.268 7.19104 2.46565 0
M  V30 2765 N 246.843 -1.10192 1.12674 0
M  V30 2766 C 248.254 -1.63707 0.897604 0
M  V30 2767 C 248.605 -1.87812 -0.567546 0
M  V30 2768 O 247.73 -1.62196 -1.43253 0
M  V30 2769 C 248.325 -2.974 1.62292 0
M  V30 2770 C 246.884 -3.47772 1.43986 0
M  V30 2771 C 246.031 -2.22332 1.65722 0
M  V30 2772 H 248.982 -0.936587 1.28116 0
M  V30 2773 H 249.003 -3.64986 1.07541 0
M  V30 2774 H 248.515 -2.79824 2.68924 0
M  V30 2775 H 246.616 -3.70487 0.396206 0
M  V30 2776 H 246.729 -4.25723 2.19765 0
M  V30 2777 H 245.093 -2.30599 1.08149 0
M  V30 2778 H 245.876 -2.07285 2.73657 0
M  V30 2779 N 248.321 -0.919034 -1.28029 0
M  V30 2780 C 249.57 -0.550802 -1.94034 0
M  V30 2781 C 249.883 0.910877 -1.73096 0
M  V30 2782 O 251.089 1.3875 -2.33368 0
M  V30 2783 C 249.545 -0.934249 -3.47563 0
M  V30 2784 C 249.153 -2.41602 -3.7727 0
M  V30 2785 C 250.897 -0.636854 -4.19696 0
M  V30 2786 C 248.804 -2.73932 -5.24133 0
M  V30 2787 H 247.734 -0.202273 -0.726362 0
M  V30 2788 H 250.385 -1.11867 -1.45458 0
M  V30 2789 H 248.767 -0.295115 -3.94899 0
M  V30 2790 H 249.941 -3.10233 -3.40723 0
M  V30 2791 H 248.256 -2.68441 -3.18321 0
M  V30 2792 H 250.853 -0.855005 -5.2782 0
M  V30 2793 H 251.196 0.425575 -4.14119 0
M  V30 2794 H 251.729 -1.23469 -3.78154 0
M  V30 2795 H 248.468 -3.79049 -5.34792 0
M  V30 2796 H 247.988 -2.09942 -5.61858 0
M  V30 2797 H 249.667 -2.61215 -5.91925 0
M  V30 2798 N 249.799 1.42003 -0.683588 0
M  V30 2799 C 250.729 2.33487 -0.024866 0
M  V30 2800 C 251.71 1.51163 0.779975 0
M  V30 2801 O 252.895 1.79739 0.735362 0
M  V30 2802 C 250.025 3.3487 0.920836 0
M  V30 2803 C 248.979 4.27414 0.223958 0
M  V30 2804 C 248.305 5.19074 1.2832 0
M  V30 2805 C 249.605 5.14445 -0.90242 0
M  V30 2806 H 251.299 2.88819 -0.788921 0
M  V30 2807 H 248.845 1.38873 -0.38083 0
M  V30 2808 H 250.798 3.97787 1.39081 0
M  V30 2809 H 249.522 2.77861 1.71642 0
M  V30 2810 H 248.181 3.65904 -0.225864 0
M  V30 2811 H 247.829 4.58387 2.071 0
M  V30 2812 H 247.529 5.81822 0.821995 0
M  V30 2813 H 249.053 5.84867 1.75392 0
M  V30 2814 H 250.467 5.70998 -0.513272 0
M  V30 2815 H 248.864 5.86072 -1.28997 0
M  V30 2816 H 249.934 4.52322 -1.74737 0
M  V30 2817 N 251.277 0.427512 1.51691 0
M  V30 2818 C 252.693 0.0792977 1.59403 0
M  V30 2819 C 252.893 -1.41035 1.43914 0
M  V30 2820 O 251.949 -2.17922 1.27539 0
M  V30 2821 C 253.262 0.590636 2.94842 0
M  V30 2822 C 254.81 0.550215 3.08126 0
M  V30 2823 C 255.285 1.03836 4.46074 0
M  V30 2824 N 256.776 0.995943 4.52366 0
M  V30 2825 C 257.511 1.34463 5.57411 0
M  V30 2826 N 257.007 1.76569 6.69922 0
M  V30 2827 N 258.8 1.26343 5.47717 0
M  V30 2828 H 250.951 1.39687 1.60004 0
M  V30 2829 H 253.214 0.575003 0.753708 0
M  V30 2830 H 252.92 1.63251 3.11516 0
M  V30 2831 H 252.794 0.0102061 3.77199 0
M  V30 2832 H 255.181 -0.482654 2.91126 0
M  V30 2833 H 255.262 1.16693 2.27632 0
M  V30 2834 H 254.906 2.06965 4.63819 0
M  V30 2835 H 254.836 0.398286 5.25092 0
M  V30 2836 H 257.327 0.68661 3.7161 0
M  V30 2837 H 257.64 2.01438 7.46085 0
M  V30 2838 H 255.985 1.80488 6.71155 0
M  V30 2839 H 259.176 0.933209 4.58703 0
M  V30 2840 H 259.349 1.53846 6.29472 0
M  V30 2841 N 252.755 -1.56801 0.158532 0
M  V30 2842 C 253.98 -2.01295 -0.499516 0
M  V30 2843 C 254.405 -1.03799 -1.56867 0
M  V30 2844 O 253.763 -0.0155162 -1.81293 0
M  V30 2845 C 253.811 -3.44469 -1.06647 0
M  V30 2846 O 252.915 -3.50012 -2.18095 0
M  V30 2847 H 252.256 -0.652884 -0.12099 0
M  V30 2848 H 254.786 -2.02958 0.258661 0
M  V30 2849 H 254.796 -3.8351 -1.39227 0
M  V30 2850 H 253.471 -4.14932 -0.283581 0
M  V30 2851 H 252.048 -3.22822 -1.86656 0
M  V30 2852 N 254.233 0.115231 -1.57178 0
M  V30 2853 C 255.461 0.836437 -1.89239 0
M  V30 2854 C 255.876 1.73256 -0.750175 0
M  V30 2855 O 255.233 1.80357 0.278832 0
M  V30 2856 C 255.284 1.66671 -3.20785 0
M  V30 2857 O 255.005 0.806652 -4.3061 0
M  V30 2858 C 256.506 2.49274 -3.66575 0
M  V30 2859 H 253.726 0.240253 -0.626514 0
M  V30 2860 H 256.27 0.0984932 -2.04263 0
M  V30 2861 H 254.425 2.35737 -3.0742 0
M  V30 2862 H 254.839 1.37969 -5.06028 0
M  V30 2863 H 256.313 3.03055 -4.6137 0
M  V30 2864 H 256.79 3.26807 -2.93417 0
M  V30 2865 H 257.396 1.85443 -3.82741 0
M  V30 2866 N 255.711 1.52812 0.385517 0
M  V30 2867 C 256.988 1.5861 1.14465 0
M  V30 2868 C 257.368 0.381402 2.07626 0
M  V30 2869 O 256.716 -0.629999 2.19643 0
M  V30 2870 C 256.926 2.92664 1.90128 0
M  V30 2871 C 258.274 3.46526 2.45367 0
M  V30 2872 O 259.298 2.94562 2.0028 0
M  V30 2873 O 258.157 4.37323 3.27736 0
M  V30 2874 H 255.251 0.639855 0.523941 0
M  V30 2875 H 257.797 1.65149 0.390389 0
M  V30 2876 H 256.569 3.71788 1.22022 0
M  V30 2877 H 256.192 2.89527 2.72507 0
M  V30 2878 N 257.189 -0.644168 1.43834 0
M  V30 2879 C 258.119 -1.76814 1.52509 0
M  V30 2880 C 259.1 -1.65823 0.379052 0
M  V30 2881 O 260.285 -1.84781 0.597466 0
M  V30 2882 C 257.415 -3.15288 1.4564 0
M  V30 2883 C 256.369 -3.41053 2.58586 0
M  V30 2884 C 255.695 -4.79421 2.36769 0
M  V30 2885 C 256.995 -3.34902 4.00797 0
M  V30 2886 H 258.689 -1.69812 2.46586 0
M  V30 2887 H 256.235 -0.815542 1.1868 0
M  V30 2888 H 258.188 -3.93681 1.50311 0
M  V30 2889 H 256.912 -3.23043 0.480725 0
M  V30 2890 H 255.571 -2.65035 2.53282 0
M  V30 2891 H 255.219 -4.83863 1.37424 0
M  V30 2892 H 254.919 -4.9762 3.12487 0
M  V30 2893 H 256.443 -5.6006 2.43238 0
M  V30 2894 H 257.857 -4.03218 4.07539 0
M  V30 2895 H 256.254 -3.64637 4.76613 0
M  V30 2896 H 257.324 -2.32928 4.25291 0
M  V30 2897 N 258.668 -1.30515 -0.883378 0
M  V30 2898 C 259.616 -1.16941 -2.01066 0
M  V30 2899 C 260.61 -0.0809148 -1.69207 0
M  V30 2900 O 261.816 -0.241877 -1.78367 0
M  V30 2901 H 258.191 -0.361705 -0.659298 0
M  V30 2902 H 260.162 -2.12344 -2.09649 0
M  V30 2903 C 258.911 -0.879694 -3.36388 0
M  V30 2904 H 258.234 -1.70936 -3.61415 0
M  V30 2905 H 259.674 -0.82483 -4.159 0
M  V30 2906 C 258.133 0.417409 -3.34304 0
M  V30 2907 O 258.663 1.43843 -3.75063 0
M  V30 2908 N 256.869 0.429141 -2.87414 0
M  V30 2909 H 256.416 -0.402222 -2.5444 0
M  V30 2910 H 256.374 1.29696 -2.86403 0
M  V30 2911 N 260.146 1.09593 -1.13257 0
M  V30 2912 C 261.094 2.18271 -0.803783 0
M  V30 2913 C 262.088 1.68054 0.213148 0
M  V30 2914 O 263.294 1.79862 0.0704699 0
M  V30 2915 H 259.669 0.711949 -0.242143 0
M  V30 2916 H 261.64 2.43235 -1.72856 0
M  V30 2917 C 260.389 3.46536 -0.28424 0
M  V30 2918 H 259.712 3.85545 -1.05807 0
M  V30 2919 H 261.152 4.23899 -0.0925945 0
M  V30 2920 C 259.611 3.22036 0.989684 0
M  V30 2921 O 260.141 3.44509 2.06584 0
M  V30 2922 N 258.347 2.7565 0.920086 0
M  V30 2923 H 257.894 2.57562 0.0442019 0
M  V30 2924 H 257.852 2.59635 1.77306 0
M  V30 2925 N 261.624 0.925811 1.2754 0
M  V30 2926 C 262.572 0.413897 2.28888 0
M  V30 2927 C 263.566 -0.500779 1.61829 0
M  V30 2928 O 264.772 -0.38069 1.75928 0
M  V30 2929 H 261.147 0.115274 0.743112 0
M  V30 2930 H 263.118 1.28151 2.69481 0
M  V30 2931 C 261.867 -0.319792 3.46226 0
M  V30 2932 H 261.19 0.374846 3.98039 0
M  V30 2933 H 262.63 -0.642435 4.19105 0
M  V30 2934 C 261.089 -1.53209 3.00048 0
M  V30 2935 O 261.619 -2.6309 3.03557 0
M  V30 2936 N 259.825 -1.38326 2.55566 0
M  V30 2937 H 259.372 -0.489292 2.5291 0
M  V30 2938 H 259.33 -2.19564 2.25031 0
M  V30 2939 N 263.102 -1.41638 0.69111 0
M  V30 2940 C 264.049 -2.30789 0.0229705 0
M  V30 2941 C 265.019 -1.46863 -0.775911 0
M  V30 2942 O 266.204 -1.75661 -0.74485 0
M  V30 2943 C 263.344 -3.32868 -0.910666 0
M  V30 2944 C 262.457 -4.31875 -0.103874 0
M  V30 2945 C 261.592 -5.21024 -1.03475 0
M  V30 2946 C 260.631 -6.11702 -0.220598 0
M  V30 2947 N 259.768 -6.93349 -1.10504 0
M  V30 2948 H 264.608 -2.87366 0.788978 0
M  V30 2949 H 262.145 -1.41535 0.400794 0
M  V30 2950 H 264.103 -3.90596 -1.46597 0
M  V30 2951 H 262.733 -2.77851 -1.64312 0
M  V30 2952 H 261.785 -3.76131 0.568285 0
M  V30 2953 H 263.097 -4.96003 0.527504 0
M  V30 2954 H 262.251 -5.83565 -1.65943 0
M  V30 2955 H 260.99 -4.57112 -1.69999 0
M  V30 2956 H 259.995 -5.48215 0.417187 0
M  V30 2957 H 261.22 -6.77668 0.440784 0
M  V30 2958 H 259.166 -6.3205 -1.75638 0
M  V30 2959 H 259.083 -7.54146 -0.529125 0
M  V30 2960 H 260.351 -7.60362 -1.71667 0
M  V30 2961 N 264.58 -0.43555 -1.51462 0
M  V30 2962 C 265.805 0.132627 -2.06976 0
M  V30 2963 C 266.23 1.35848 -1.30104 0
M  V30 2964 O 265.588 1.78112 -0.338493 0
M  V30 2965 C 265.636 0.43523 -3.57964 0
M  V30 2966 O 264.74 1.52198 -3.83288 0
M  V30 2967 H 264.081 0.00265 -0.663995 0
M  V30 2968 H 266.611 -0.616369 -1.95095 0
M  V30 2969 H 266.621 0.686206 -4.02188 0
M  V30 2970 H 265.296 -0.460739 -4.1334 0
M  V30 2971 H 263.873 1.2611 -3.50928 0
M  V30 2972 N 266.058 1.56714 -0.166846 0
M  V30 2973 C 267.298 1.98641 0.481763 0
M  V30 2974 C 267.662 1.05038 1.6072 0
M  V30 2975 O 268.863 1.36087 2.31805 0
M  V30 2976 C 267.134 3.44362 0.956517 0
M  V30 2977 S 268.693 4.08317 1.60694 0
M  V30 2978 H 265.511 0.693873 0.155116 0
M  V30 2979 H 268.113 1.93719 -0.263251 0
M  V30 2980 H 266.817 4.10204 0.126936 0
M  V30 2981 H 266.348 3.53041 1.73568 0
M  V30 2982 H 268.363 4.02999 2.89494 0
M  V30 2983 N 267.536 -0.106894 1.57237 0
M  V30 2984 C 268.783 -0.812526 1.85484 0
M  V30 2985 C 269.111 -1.79304 0.753687 0
M  V30 2986 O 268.366 -1.94047 -0.253853 0
M  V30 2987 C 268.665 -1.58628 3.20268 0
M  V30 2988 C 268.331 -0.748967 4.44636 0
M  V30 2989 C 266.993 -0.518104 4.78403 0
M  V30 2990 C 269.345 -0.166122 5.20935 0
M  V30 2991 C 266.673 0.305659 5.85903 0
M  V30 2992 C 269.025 0.644899 6.29304 0
M  V30 2993 C 267.689 0.885965 6.61594 0
M  V30 2994 H 266.959 -0.297324 0.678734 0
M  V30 2995 H 269.606 -0.0744332 1.91355 0
M  V30 2996 H 267.911 -2.39562 3.10028 0
M  V30 2997 H 269.608 -2.13643 3.39349 0
M  V30 2998 H 266.198 -0.939006 4.18187 0
M  V30 2999 H 270.382 -0.33167 4.95191 0
M  V30 3000 H 265.638 0.501528 6.0934 0
M  V30 3001 H 269.812 1.10345 6.87602 0
M  V30 3002 H 267.439 1.52609 7.44725 0
M  V30 3003 N 269.014 -1.53014 -0.377408 0
M  V30 3004 C 269.977 -1.77957 -1.44444 0
M  V30 3005 C 270.977 -0.649763 -1.47087 0
M  V30 3006 O 272.167 -0.917897 -1.48055 0
M  V30 3007 C 269.299 -1.89089 -2.83651 0
M  V30 3008 H 270.492 -2.73243 -1.23606 0
M  V30 3009 H 268.045 -1.43912 -0.609844 0
M  V30 3010 H 268.78 -0.958293 -3.09818 0
M  V30 3011 H 268.565 -2.71254 -2.83132 0
M  V30 3012 H 270.055 -2.1002 -3.60945 0
M  V30 3013 N 270.492 0.636531 -1.44174 0
M  V30 3014 C 271.769 1.39463 -1.37148 0
M  V30 3015 C 272.149 2.11082 -0.027507 0
M  V30 3016 O 271.497 2.05954 0.989716 0
M  V30 3017 C 271.707 2.36552 -2.56601 0
M  V30 3018 C 273.055 3.00048 -3.00427 0
M  V30 3019 O 274.079 2.46878 -2.56767 0
M  V30 3020 O 272.938 3.96488 -3.76111 0
M  V30 3021 H 270.032 0.623903 -0.542839 0
M  V30 3022 H 272.578 0.662039 -1.56253 0
M  V30 3023 H 271.35 1.82692 -3.46034 0
M  V30 3024 H 270.973 3.17236 -2.39681 0
M  V30 3025 N 271.97 1.30982 0.876444 0
M  V30 3026 C 272.9 1.20668 1.99903 0
M  V30 3027 C 273.881 0.095354 1.69833 0
M  V30 3028 O 275.066 0.27885 1.92188 0
M  V30 3029 C 272.196 0.90655 3.3526 0
M  V30 3030 C 271.15 1.97675 3.79617 0
M  V30 3031 C 270.476 1.52943 5.1236 0
M  V30 3032 C 271.776 3.389 3.97422 0
M  V30 3033 H 273.47 2.14586 2.0879 0
M  V30 3034 H 271.016 1.03308 1.00317 0
M  V30 3035 H 272.969 0.821025 4.13324 0
M  V30 3036 H 271.693 -0.0682969 3.26529 0
M  V30 3037 H 270.352 2.05205 3.03787 0
M  V30 3038 H 270 0.54262 5.00065 0
M  V30 3039 H 269.7 2.24532 5.43009 0
M  V30 3040 H 271.224 1.45786 5.92941 0
M  V30 3041 H 272.638 3.34081 4.659 0
M  V30 3042 H 271.035 4.0865 4.3946 0
M  V30 3043 H 272.105 3.80163 3.01006 0
M  V30 3044 N 273.449 -1.08991 1.13837 0
M  V30 3045 C 274.697 -1.80899 0.901098 0
M  V30 3046 C 275.018 -1.86356 -0.574134 0
M  V30 3047 O 274.288 -1.35235 -1.41733 0
M  V30 3048 H 272.868 -0.669966 0.330386 0
M  V30 3049 H 275.53 -1.318 1.43578 0
M  V30 3050 H 274.626 -2.83929 1.29578 0
M  V30 3051 N 274.927 -0.932562 -1.27047 0
M  V30 3052 C 276.157 -0.591173 -1.97961 0
M  V30 3053 C 276.565 0.836219 -1.69717 0
M  V30 3054 O 275.908 1.56801 -0.957036 0
M  V30 3055 C 275.97 -0.743082 -3.51736 0
M  V30 3056 C 275.634 -2.1435 -4.03613 0
M  V30 3057 C 276.631 -3.11815 -4.16014 0
M  V30 3058 C 274.316 -2.46175 -4.37839 0
M  V30 3059 C 276.31 -4.39211 -4.61923 0
M  V30 3060 C 273.997 -3.73806 -4.83438 0
M  V30 3061 C 274.995 -4.70137 -4.95439 0
M  V30 3062 O 274.683 -5.95496 -5.40037 0
M  V30 3063 H 274.415 -0.222375 -0.638377 0
M  V30 3064 H 276.969 -1.25317 -1.62742 0
M  V30 3065 H 275.199 -0.0239739 -3.86693 0
M  V30 3066 H 276.888 -0.40603 -4.03864 0
M  V30 3067 H 277.654 -2.88549 -3.89826 0
M  V30 3068 H 273.533 -1.71936 -4.27737 0
M  V30 3069 H 277.077 -5.14404 -4.71205 0
M  V30 3070 H 272.974 -3.96888 -5.09068 0
M  V30 3071 H 273.742 -5.98554 -5.58279 0
M  V30 3072 N 276.405 1.4127 -0.698611 0
M  V30 3073 C 277.352 2.30773 -0.0352094 0
M  V30 3074 C 278.322 1.47273 0.768111 0
M  V30 3075 O 279.507 1.76053 0.735524 0
M  V30 3076 C 276.647 3.33346 0.893 0
M  V30 3077 C 275.76 4.31924 0.0809695 0
M  V30 3078 C 274.895 5.21566 1.0071 0
M  V30 3079 C 273.934 6.11811 0.188155 0
M  V30 3080 N 273.071 6.93926 1.06825 0
M  V30 3081 H 277.911 2.86943 -0.804207 0
M  V30 3082 H 275.448 1.4132 -0.408294 0
M  V30 3083 H 277.406 3.91368 1.44523 0
M  V30 3084 H 276.036 2.78719 1.62836 0
M  V30 3085 H 275.088 3.75825 -0.588224 0
M  V30 3086 H 276.4 4.95716 -0.553801 0
M  V30 3087 H 275.554 5.84437 1.62845 0
M  V30 3088 H 274.293 4.58008 1.67572 0
M  V30 3089 H 273.298 5.47986 -0.446254 0
M  V30 3090 H 274.523 6.77425 -0.476716 0
M  V30 3091 H 272.469 6.32973 1.72283 0
M  V30 3092 H 272.386 7.54416 0.489123 0
M  V30 3093 H 273.654 7.61262 1.67632 0
M  V30 3094 N 277.883 0.443576 1.51229 0
M  V30 3095 C 278.815 -0.400608 2.25672 0
M  V30 3096 C 279.828 -0.980945 1.29928 0
M  V30 3097 O 281.017 -0.874024 1.55638 0
M  V30 3098 C 278.117 -1.57304 3.00181 0
M  V30 3099 C 277.29 -1.11046 4.23069 0
M  V30 3100 C 276.349 -2.15374 4.80105 0
M  V30 3101 O 275.375 -1.74554 5.41774 0
M  V30 3102 N 276.577 -3.47922 4.64683 0
M  V30 3103 H 279.342 0.23745 2.98758 0
M  V30 3104 H 276.903 0.272809 1.59585 0
M  V30 3105 H 278.895 -2.26733 3.35223 0
M  V30 3106 H 277.465 -2.11632 2.30066 0
M  V30 3107 H 276.685 -0.243019 3.9345 0
M  V30 3108 H 277.973 -0.778888 5.02803 0
M  V30 3109 H 277.371 -3.83815 4.15575 0
M  V30 3110 H 275.928 -4.13228 5.0407 0
M  V30 3111 N 279.361 -1.56624 0.175154 0
M  V30 3112 C 280.294 -2.14 -0.792412 0
M  V30 3113 C 281.272 -1.07114 -1.22333 0
M  V30 3114 O 282.456 -1.35112 -1.31442 0
M  V30 3115 C 279.583 -2.68268 -2.0676 0
M  V30 3116 C 278.629 -3.87562 -1.7804 0
M  V30 3117 S 279.462 -5.27074 -0.946222 0
M  V30 3118 C 280.618 -5.8475 -2.23199 0
M  V30 3119 H 280.851 -2.95736 -0.304588 0
M  V30 3120 H 278.384 -1.54349 -0.0395705 0
M  V30 3121 H 280.342 -3.00182 -2.80002 0
M  V30 3122 H 279.003 -1.86612 -2.52656 0
M  V30 3123 H 278.196 -4.23874 -2.72666 0
M  V30 3124 H 277.798 -3.56555 -1.12891 0
M  V30 3125 H 280.09 -5.97898 -3.18629 0
M  V30 3126 H 281.033 -6.81756 -1.91349 0
M  V30 3127 H 281.441 -5.13198 -2.35134 0
M  V30 3128 N 280.839 0.0985539 -1.57292 0
M  V30 3129 C 281.787 1.1387 -2.02821 0
M  V30 3130 C 282.781 1.41676 -0.928666 0
M  V30 3131 O 283.987 1.41398 -1.11385 0
M  V30 3132 H 280.362 0.384419 -0.646317 0
M  V30 3133 H 282.333 0.728347 -2.89375 0
M  V30 3134 C 281.082 2.45166 -2.46554 0
M  V30 3135 H 280.405 2.24613 -3.3074 0
M  V30 3136 H 281.845 3.16456 -2.8219 0
M  V30 3137 C 280.304 3.09216 -1.33742 0
M  V30 3138 O 280.834 3.96163 -0.66464 0
M  V30 3139 N 279.04 2.69413 -1.08928 0
M  V30 3140 H 278.587 1.98801 -1.63817 0
M  V30 3141 H 278.545 3.12594 -0.336458 0
M  V30 3142 N 282.317 1.53212 0.369288 0
M  V30 3143 C 283.28 1.7872 1.43498 0
M  V30 3144 C 284.28 0.657554 1.46741 0
M  V30 3145 O 285.47 0.925736 1.47566 0
M  V30 3146 C 282.602 1.90591 2.82645 0
M  V30 3147 H 283.795 2.73894 1.22156 0
M  V30 3148 H 281.348 1.44233 0.602203 0
M  V30 3149 H 282.083 0.974709 3.09306 0
M  V30 3150 H 281.868 2.72751 2.8169 0
M  V30 3151 H 283.358 2.11931 3.59826 0
M  V30 3152 N 283.795 -0.628877 1.44509 0
M  V30 3153 C 285.041 -1.39045 1.47629 0
M  V30 3154 C 285.374 -1.93892 0.109343 0
M  V30 3155 O 284.649 -1.7379 -0.87334 0
M  V30 3156 C 284.932 -2.55408 2.53848 0
M  V30 3157 C 284.785 -2.05896 3.99909 0
M  V30 3158 C 286.104 -3.5759 2.56549 0
M  V30 3159 H 283.223 -0.504232 0.537512 0
M  V30 3160 H 285.865 -0.710854 1.76201 0
M  V30 3161 H 284.015 -3.13384 2.29615 0
M  V30 3162 H 285.687 -1.52734 4.35282 0
M  V30 3163 H 283.93 -1.37061 4.11578 0
M  V30 3164 H 284.601 -2.89681 4.69882 0
M  V30 3165 H 287.077 -3.09419 2.78207 0
M  V30 3166 H 285.953 -4.36527 3.32769 0
M  V30 3167 H 286.214 -4.11808 1.60832 0
M  V30 3168 N 285.273 -1.31445 -0.869486 0
M  V30 3169 C 286.236 -1.19094 -1.9583 0
M  V30 3170 C 287.236 -0.117906 -1.60367 0
M  V30 3171 O 288.426 -0.367208 -1.70286 0
M  V30 3172 C 285.558 -0.828165 -3.30688 0
M  V30 3173 H 286.751 -2.15842 -2.08212 0
M  V30 3174 H 284.304 -1.15063 -1.05784 0
M  V30 3175 H 285.039 0.138142 -3.24006 0
M  V30 3176 H 284.824 -1.6038 -3.578 0
M  V30 3177 H 286.314 -0.765658 -4.10521 0
M  V30 3178 N 286.751 1.08385 -1.14413 0
M  V30 3179 C 287.681 2.17321 -0.854044 0
M  V30 3180 C 288.662 1.69024 0.191049 0
M  V30 3181 O 289.847 1.94141 0.0476779 0
M  V30 3182 C 286.977 3.45719 -0.330983 0
M  V30 3183 C 285.931 4.07409 -1.31155 0
M  V30 3184 C 285.257 5.30762 -0.64778 0
M  V30 3185 C 286.557 4.48665 -2.67388 0
M  V30 3186 H 288.251 2.41845 -1.76498 0
M  V30 3187 H 285.797 1.16233 -0.850051 0
M  V30 3188 H 287.75 4.21241 -0.115645 0
M  V30 3189 H 286.474 3.2075 0.615381 0
M  V30 3190 H 285.133 3.33919 -1.51306 0
M  V30 3191 H 284.781 5.02078 0.304398 0
M  V30 3192 H 284.481 5.72992 -1.30207 0
M  V30 3193 H 286.005 6.08998 -0.441972 0
M  V30 3194 H 287.419 5.15364 -2.51143 0
M  V30 3195 H 285.816 5.01814 -3.29093 0
M  V30 3196 H 286.886 3.60543 -3.24248 0
M  V30 3197 N 288.23 0.939286 1.26551 0
M  V30 3198 C 289.476 0.586715 1.94128 0
M  V30 3199 C 289.809 -0.8717 1.73537 0
M  V30 3200 O 289.084 -1.62339 1.07127 0
M  V30 3201 C 289.367 0.927497 3.4795 0
M  V30 3202 C 289.22 2.44052 3.77834 0
M  V30 3203 C 290.539 0.441569 4.37879 0
M  V30 3204 H 287.658 0.21463 0.705055 0
M  V30 3205 H 290.3 1.17316 1.49455 0
M  V30 3206 H 288.45 0.428431 3.8613 0
M  V30 3207 H 290.122 3.01216 3.4938 0
M  V30 3208 H 288.365 2.8848 3.23978 0
M  V30 3209 H 289.036 2.62947 4.85348 0
M  V30 3210 H 291.512 0.869448 4.06915 0
M  V30 3211 H 290.388 0.708856 5.44304 0
M  V30 3212 H 290.649 -0.658467 4.37169 0
M  V30 3213 N 289.708 -1.40897 0.706093 0
M  V30 3214 C 290.956 -2.00657 0.241054 0
M  V30 3215 C 291.277 -1.56241 -1.16678 0
M  V30 3216 O 290.547 -0.79765 -1.78926 0
M  V30 3217 H 289.127 -0.742018 0.0861308 0
M  V30 3218 H 291.789 -1.72372 0.909604 0
M  V30 3219 H 290.885 -3.10958 0.266705 0
M  V30 3220 N 291.186 -0.45159 -1.50991 0
M  V30 3221 C 292.119 0.398179 -2.24699 0
M  V30 3222 C 293.097 1.01276 -1.27208 0
M  V30 3223 O 294.281 1.05247 -1.56382 0
M  V30 3224 C 291.408 1.55618 -3.00833 0
M  V30 3225 C 290.454 1.0609 -4.13095 0
M  V30 3226 S 291.287 -0.00865136 -5.35499 0
M  V30 3227 C 292.443 1.15369 -6.15175 0
M  V30 3228 H 292.676 -0.227555 -2.96428 0
M  V30 3229 H 290.209 -0.236251 -1.52582 0
M  V30 3230 H 292.167 2.21997 -3.45293 0
M  V30 3231 H 290.828 2.15337 -2.28667 0
M  V30 3232 H 290.021 1.92726 -4.65696 0
M  V30 3233 H 289.623 0.47513 -3.7097 0
M  V30 3234 H 291.915 2.06925 -6.45126 0
M  V30 3235 H 292.858 0.667344 -7.04948 0
M  V30 3236 H 293.266 1.3987 -5.46897 0
M  V30 3237 N 292.664 1.56529 -0.183458 0
M  V30 3238 C 293.913 1.96419 0.458511 0
M  V30 3239 C 294.226 1.0727 1.63562 0
M  V30 3240 O 295.432 1.36893 2.34462 0
M  V30 3241 C 293.888 3.49298 0.867122 0
M  V30 3242 C 293.496 4.47092 -0.285057 0
M  V30 3243 C 295.24 3.97983 1.47683 0
M  V30 3244 C 293.147 5.91225 0.143862 0
M  V30 3245 H 292.077 0.733394 0.175071 0
M  V30 3246 H 294.728 1.81448 -0.273624 0
M  V30 3247 H 293.11 3.59731 1.65559 0
M  V30 3248 H 294.284 4.48383 -1.0625 0
M  V30 3249 H 292.599 4.08535 -0.805503 0
M  V30 3250 H 295.196 5.03134 1.80999 0
M  V30 3251 H 295.539 3.41618 2.37914 0
M  V30 3252 H 296.072 3.90617 0.752562 0
M  V30 3253 H 292.811 6.5149 -0.723974 0
M  V30 3254 H 292.331 5.93214 0.886413 0
M  V30 3255 H 294.01 6.44362 0.583628 0
M  V30 3256 N 294.142 -0.090211 1.57342 0
M  V30 3257 C 295.37 -0.806224 1.90546 0
M  V30 3258 C 295.785 -1.72041 0.777644 0
M  V30 3259 O 295.142 -1.80778 -0.250103 0
M  V30 3260 C 295.193 -1.61546 3.23396 0
M  V30 3261 O 294.914 -0.738043 4.31839 0
M  V30 3262 C 296.415 -2.4341 3.70495 0
M  V30 3263 H 293.635 -0.230256 0.630257 0
M  V30 3264 H 296.179 -0.0659843 2.04394 0
M  V30 3265 H 294.334 -2.30816 3.11131 0
M  V30 3266 H 294.748 -1.29901 5.08159 0
M  V30 3267 H 296.222 -2.95676 4.66133 0
M  V30 3268 H 296.699 -3.22098 2.98579 0
M  V30 3269 H 297.305 -1.79331 3.85643 0
M  V30 3270 N 295.62 -1.53406 -0.361157 0
M  V30 3271 C 296.866 -1.70054 -1.10496 0
M  V30 3272 C 297.199 -0.453278 -1.88836 0
M  V30 3273 O 296.474 0.5495 -1.86576 0
M  V30 3274 C 296.757 -2.95317 -2.06058 0
M  V30 3275 C 296.61 -4.3021 -1.31298 0
M  V30 3276 C 297.929 -3.16193 -3.06121 0
M  V30 3277 H 295.048 -0.618799 -0.400321 0
M  V30 3278 H 297.69 -1.86052 -0.385318 0
M  V30 3279 H 295.84 -2.81809 -2.67425 0
M  V30 3280 H 297.512 -4.55538 -0.726807 0
M  V30 3281 H 295.755 -4.29421 -0.614853 0
M  V30 3282 H 296.426 -5.14 -2.01265 0
M  V30 3283 H 298.902 -3.28916 -2.5486 0
M  V30 3284 H 297.778 -4.05266 -3.70204 0
M  V30 3285 H 298.039 -2.31676 -3.76535 0
M  V30 3286 N 297.098 0.621204 -1.44841 0
M  V30 3287 C 298.061 1.71459 -1.521 0
M  V30 3288 C 299.061 1.55696 -0.401933 0
M  V30 3289 O 300.251 1.61011 -0.664925 0
M  V30 3290 C 297.383 3.10624 -1.40447 0
M  V30 3291 H 298.576 1.66394 -2.49506 0
M  V30 3292 H 296.129 0.835745 -1.3208 0
M  V30 3293 H 296.864 3.21277 -0.441737 0
M  V30 3294 H 296.649 3.23473 -2.21602 0
M  V30 3295 H 298.139 3.90293 -1.4853 0
M  V30 3296 N 298.576 1.31904 0.862503 0
M  V30 3297 C 299.486 1.22161 2.00285 0
M  V30 3298 C 300.502 0.136785 1.73462 0
M  V30 3299 O 301.678 0.355994 1.98229 0
M  V30 3300 C 298.743 0.937093 3.33796 0
M  V30 3301 C 297.804 2.10957 3.73893 0
M  V30 3302 C 297.037 1.83853 5.01033 0
M  V30 3303 O 297.26 0.777274 5.65079 0
M  V30 3304 O 296.194 2.69741 5.38074 0
M  V30 3305 H 300.02 2.18008 2.11439 0
M  V30 3306 H 297.605 1.11716 0.991957 0
M  V30 3307 H 299.487 0.794583 4.13841 0
M  V30 3308 H 298.162 0.00871894 3.23699 0
M  V30 3309 H 297.069 2.30752 2.94456 0
M  V30 3310 H 298.402 3.02046 3.88625 0
M  V30 3311 N 300.054 -1.07777 1.14986 0
M  V30 3312 C 300.984 -2.16865 0.865557 0
M  V30 3313 C 301.965 -1.69123 -0.182083 0
M  V30 3314 O 303.15 -1.94164 -0.0373815 0
M  V30 3315 C 300.28 -3.45539 0.349313 0
M  V30 3316 C 299.234 -4.06708 1.33313 0
M  V30 3317 C 298.56 -5.30411 0.675918 0
M  V30 3318 C 299.86 -4.47241 2.69764 0
M  V30 3319 H 301.554 -2.40905 1.77778 0
M  V30 3320 H 299.1 -1.15781 0.856203 0
M  V30 3321 H 301.053 -4.21174 0.137983 0
M  V30 3322 H 299.777 -3.21072 -0.598362 0
M  V30 3323 H 298.436 -3.33112 1.53075 0
M  V30 3324 H 298.084 -5.02232 -0.277767 0
M  V30 3325 H 297.784 -5.72293 1.33244 0
M  V30 3326 H 299.308 -6.08755 0.474262 0
M  V30 3327 H 300.722 -5.14025 2.53873 0
M  V30 3328 H 299.119 -5.00062 3.3175 0
M  V30 3329 H 300.189 -3.58818 3.26156 0
M  V30 3330 N 301.532 -0.945985 -1.26051 0
M  V30 3331 C 302.495 -0.463897 -2.24456 0
M  V30 3332 C 303.495 0.427655 -1.55009 0
M  V30 3333 O 304.685 0.226157 -1.72726 0
M  V30 3334 C 301.817 0.330812 -3.39291 0
M  V30 3335 H 303.01 -1.33357 -2.68619 0
M  V30 3336 H 300.563 -0.728416 -1.38289 0
M  V30 3337 H 301.298 1.21852 -3.00537 0
M  V30 3338 H 301.083 -0.308679 -3.90883 0
M  V30 3339 H 302.573 0.657865 -4.12386 0
M  V30 3340 N 303.011 1.40521 -0.713556 0
M  V30 3341 C 304.259 2.00527 -0.251692 0
M  V30 3342 C 304.58 1.56857 1.15848 0
M  V30 3343 O 303.85 0.807127 1.785 0
M  V30 3344 H 302.43 0.741551 -0.0900646 0
M  V30 3345 H 305.092 1.71887 -0.918733 0
M  V30 3346 H 304.188 3.10813 -0.283192 0
M  V30 3347 N 304.489 0.459591 1.5075 0
M  V30 3348 C 305.736 -0.0993495 2.02256 0
M  V30 3349 C 306.064 -1.40751 1.34237 0
M  V30 3350 O 305.319 -1.90379 0.453228 0
M  V30 3351 C 305.618 -0.342866 3.55752 0
M  V30 3352 C 305.284 0.88218 4.42186 0
M  V30 3353 C 303.946 1.21808 4.65528 0
M  V30 3354 C 306.298 1.69837 4.92752 0
M  V30 3355 C 303.626 2.37045 5.36681 0
M  V30 3356 C 305.978 2.84192 5.65171 0
M  V30 3357 C 304.642 3.1821 5.8677 0
M  V30 3358 H 303.912 -0.0363545 0.740108 0
M  V30 3359 H 306.559 0.611329 1.8148 0
M  V30 3360 H 304.864 -1.13567 3.7498 0
M  V30 3361 H 306.561 -0.789121 3.93159 0
M  V30 3362 H 303.151 0.610467 4.2423 0
M  V30 3363 H 307.335 1.45205 4.74583 0
M  V30 3364 H 302.591 2.63689 5.51614 0
M  V30 3365 H 306.765 3.4779 6.03337 0
M  V30 3366 H 304.392 4.07613 6.41682 0
M  V30 3367 N 305.967 -1.56429 0.191757 0
M  V30 3368 C 307.213 -1.97777 -0.448554 0
M  V30 3369 C 307.546 -1.07847 -1.61501 0
M  V30 3370 O 306.821 -0.129774 -1.94067 0
M  V30 3371 C 307.104 -3.48362 -0.911906 0
M  V30 3372 C 306.957 -4.4907 0.256136 0
M  V30 3373 C 308.276 -4.02561 -1.77857 0
M  V30 3374 H 305.395 -0.719071 -0.161572 0
M  V30 3375 H 308.037 -1.87896 0.282007 0
M  V30 3376 H 306.187 -3.56914 -1.53442 0
M  V30 3377 H 307.859 -4.5256 0.893733 0
M  V30 3378 H 306.102 -4.24181 0.908436 0
M  V30 3379 H 306.773 -5.51889 -0.11053 0
M  V30 3380 H 309.249 -3.96767 -1.25359 0
M  V30 3381 H 308.125 -5.08301 -2.07174 0
M  V30 3382 H 308.386 -3.47616 -2.73158 0
M  V30 3383 N 307.445 0.0818655 -1.57387 0
M  V30 3384 C 308.694 0.781681 -1.85937 0
M  V30 3385 C 309.007 1.79246 -0.782957 0
M  V30 3386 O 310.213 2.54112 -0.955987 0
M  V30 3387 C 308.669 1.44109 -3.29789 0
M  V30 3388 C 308.277 0.469396 -4.45534 0
M  V30 3389 C 310.021 2.12386 -3.67549 0
M  V30 3390 C 307.928 1.13415 -5.80423 0
M  V30 3391 H 306.858 0.295682 -0.693605 0
M  V30 3392 H 309.509 0.0348051 -1.83467 0
M  V30 3393 H 307.891 2.23588 -3.2684 0
M  V30 3394 H 309.065 -0.294856 -4.59856 0
M  V30 3395 H 307.38 -0.108383 -4.16259 0
M  V30 3396 H 309.977 2.62878 -4.65617 0
M  V30 3397 H 310.32 2.91877 -2.96839 0
M  V30 3398 H 310.853 1.39751 -3.72444 0
M  V30 3399 H 307.592 0.379771 -6.54399 0
M  V30 3400 H 307.112 1.8695 -5.69921 0
M  V30 3401 H 308.791 1.65686 -6.25426 0
M  V30 3402 N 308.923 1.53595 0.353017 0
M  V30 3403 C 310.334 1.61937 0.929153 0
M  V30 3404 C 310.685 0.494686 1.89861 0
M  V30 3405 O 309.81 -0.377017 2.1309 0
M  V30 3406 C 310.405 2.93526 1.69199 0
M  V30 3407 C 308.964 3.04161 2.21727 0
M  V30 3408 C 308.111 2.57322 1.03348 0
M  V30 3409 H 311.062 1.58155 0.131431 0
M  V30 3410 H 311.083 2.82034 2.55416 0
M  V30 3411 H 310.595 3.75362 0.986144 0
M  V30 3412 H 308.696 2.26938 2.95516 0
M  V30 3413 H 308.809 4.09465 2.48748 0
M  V30 3414 H 307.173 2.12499 1.40414 0
M  V30 3415 H 307.956 3.41588 0.342428 0
M  V30 3416 N 310.401 -0.613514 1.45168 0
M  V30 3417 C 311.647 -1.37471 1.49096 0
M  V30 3418 C 311.98 -1.93765 0.129901 0
M  V30 3419 O 311.255 -1.74707 -0.854858 0
M  V30 3420 C 311.538 -2.52701 2.56542 0
M  V30 3421 C 311.391 -2.01643 4.0207 0
M  V30 3422 C 312.71 -3.54849 2.60327 0
M  V30 3423 H 309.829 -0.498502 0.54283 0
M  V30 3424 H 312.471 -0.692125 1.76945 0
M  V30 3425 H 310.621 -3.10931 2.32926 0
M  V30 3426 H 312.293 -1.48108 4.36877 0
M  V30 3427 H 310.536 -1.32688 4.13009 0
M  V30 3428 H 311.207 -2.84681 4.72928 0
M  V30 3429 H 313.683 -3.0645 2.81474 0
M  V30 3430 H 312.559 -4.32973 3.37381 0
M  V30 3431 H 312.82 -4.10079 1.6519 0
M  V30 3432 N 311.879 -1.3236 -0.855495 0
M  V30 3433 C 313.128 -1.22226 -1.60448 0
M  V30 3434 C 313.441 0.214733 -1.94418 0
M  V30 3435 O 314.647 0.437917 -2.67945 0
M  V30 3436 C 313.103 -2.14063 -2.89318 0
M  V30 3437 C 312.711 -3.62839 -2.62777 0
M  V30 3438 C 314.455 -2.12764 -3.67331 0
M  V30 3439 C 312.362 -4.4664 -3.87643 0
M  V30 3440 H 311.292 -0.453904 -0.602069 0
M  V30 3441 H 313.943 -1.57314 -0.944698 0
M  V30 3442 H 312.325 -1.71889 -3.5675 0
M  V30 3443 H 313.499 -4.1335 -2.03662 0
M  V30 3444 H 311.814 -3.66261 -1.98096 0
M  V30 3445 H 314.411 -2.72611 -4.59987 0
M  V30 3446 H 314.754 -1.11841 -4.00995 0
M  V30 3447 H 315.287 -2.53214 -3.06802 0
M  V30 3448 H 312.026 -5.48373 -3.5912 0
M  V30 3449 H 311.546 -4.0088 -4.46156 0
M  V30 3450 H 313.225 -4.59597 -4.55389 0
M  V30 3451 N 313.357 1.07166 -1.15556 0
M  V30 3452 C 314.606 1.79181 -0.926132 0
M  V30 3453 C 314.919 1.87768 0.547967 0
M  V30 3454 O 316.125 2.56323 0.895036 0
M  V30 3455 C 314.581 3.22 -1.60761 0
M  V30 3456 C 314.189 3.21607 -3.11886 0
M  V30 3457 C 315.933 3.9861 -1.4598 0
M  V30 3458 C 313.84 4.59092 -3.72812 0
M  V30 3459 H 312.77 0.67154 -0.342856 0
M  V30 3460 H 315.421 1.2027 -1.3859 0
M  V30 3461 H 313.803 3.81115 -1.07553 0
M  V30 3462 H 314.977 2.72127 -3.71865 0
M  V30 3463 H 313.292 2.58495 -3.2645 0
M  V30 3464 H 315.889 5.00225 -1.88888 0
M  V30 3465 H 316.232 4.143 -0.407541 0
M  V30 3466 H 316.765 3.45996 -1.96295 0
M  V30 3467 H 313.504 4.48606 -4.77946 0
M  V30 3468 H 313.024 5.08803 -3.17616 0
M  V30 3469 H 314.703 5.28059 -3.73848 0
M  V30 3470 N 314.835 0.952656 1.25548 0
M  V30 3471 C 316.084 0.602053 1.92505 0
M  V30 3472 C 316.397 -0.864663 1.75451 0
M  V30 3473 O 317.603 -1.32514 2.36965 0
M  V30 3474 C 316.059 1.02607 3.44963 0
M  V30 3475 C 315.667 2.51519 3.70732 0
M  V30 3476 C 317.411 0.747905 4.1786 0
M  V30 3477 C 315.318 2.87732 5.16686 0
M  V30 3478 H 314.248 0.22146 0.720744 0
M  V30 3479 H 316.899 1.15684 1.42441 0
M  V30 3480 H 315.281 0.399712 3.93978 0
M  V30 3481 H 316.455 3.19157 3.32378 0
M  V30 3482 H 314.77 2.76786 3.11092 0
M  V30 3483 H 317.367 0.994647 5.25367 0
M  V30 3484 H 317.71 -0.315629 4.15102 0
M  V30 3485 H 318.243 1.33452 3.74747 0
M  V30 3486 H 314.982 3.93095 5.24554 0
M  V30 3487 H 314.502 2.24765 5.56094 0
M  V30 3488 H 316.181 2.76817 5.84792 0
M  V30 3489 N 316.313 -1.40141 0.720998 0
M  V30 3490 C 317.276 -2.29058 0.0805834 0
M  V30 3491 C 318.276 -1.45632 -0.681758 0
M  V30 3492 O 319.466 -1.6648 -0.512856 0
M  V30 3493 C 316.598 -3.28925 -0.895593 0
M  V30 3494 H 317.791 -2.87191 0.863793 0
M  V30 3495 H 315.344 -1.48553 0.485975 0
M  V30 3496 H 316.079 -2.75822 -1.70566 0
M  V30 3497 H 315.864 -3.90519 -0.351766 0
M  V30 3498 H 317.354 -3.95494 -1.34069 0
M  V30 3499 N 317.792 -0.46758 -1.50504 0
M  V30 3500 C 319.038 0.0808869 -2.03239 0
M  V30 3501 C 319.393 1.37721 -1.34353 0
M  V30 3502 O 318.686 1.86016 -0.459194 0
M  V30 3503 C 318.88 0.323995 -3.55928 0
M  V30 3504 C 318.709 -0.947215 -4.39611 0
M  V30 3505 C 317.479 -1.48951 -4.82848 0
M  V30 3506 C 319.677 -1.84166 -4.80195 0
M  V30 3507 N 317.659 -2.71011 -5.50842 0
M  V30 3508 C 319.03 -2.90815 -5.47564 0
M  V30 3509 C 321.085 -1.85246 -4.62156 0
M  V30 3510 C 319.788 -3.98529 -5.98805 0
M  V30 3511 C 321.814 -2.91914 -5.14335 0
M  V30 3512 C 321.176 -3.97282 -5.81676 0
M  V30 3513 H 317.275 -0.0103394 -0.781932 0
M  V30 3514 H 319.859 -0.635003 -1.84054 0
M  V30 3515 H 318.03 1.00892 -3.75067 0
M  V30 3516 H 319.762 0.866492 -3.95315 0
M  V30 3517 H 316.517 -1.03918 -4.62058 0
M  V30 3518 H 316.941 -3.32988 -5.89447 0
M  V30 3519 H 321.583 -1.05103 -4.09528 0
M  V30 3520 H 319.301 -4.79491 -6.50472 0
M  V30 3521 H 322.887 -2.93729 -5.0221 0
M  V30 3522 H 321.767 -4.78462 -6.21324 0
M  V30 3523 N 319.27 1.56325 -0.20005 0
M  V30 3524 C 320.51 1.99619 0.439519 0
M  V30 3525 C 320.874 1.08423 1.58456 0
M  V30 3526 O 322.075 1.40973 2.28867 0
M  V30 3527 C 320.346 3.46314 0.883258 0
M  V30 3528 S 321.905 4.11634 1.51997 0
M  V30 3529 H 318.723 0.697007 0.140363 0
M  V30 3530 H 321.325 1.93118 -0.304282 0
M  V30 3531 H 320.029 4.10381 0.0398967 0
M  V30 3532 H 319.56 3.56643 1.6604 0
M  V30 3533 H 321.575 4.09049 2.8088 0
M  V30 3534 N 320.748 -0.0735177 1.57428 0
M  V30 3535 C 321.976 -0.785969 1.9139 0
M  V30 3536 C 322.391 -1.71207 0.795847 0
M  V30 3537 O 321.748 -1.81033 -0.230915 0
M  V30 3538 C 321.799 -1.58107 3.25091 0
M  V30 3539 O 321.52 -0.6922 4.32597 0
M  V30 3540 C 323.021 -2.39467 3.73055 0
M  V30 3541 H 320.241 -0.223558 0.632663 0
M  V30 3542 H 322.785 -0.044302 2.04452 0
M  V30 3543 H 320.94 -2.27503 3.13562 0
M  V30 3544 H 321.354 -1.24504 5.09508 0
M  V30 3545 H 322.828 -2.90716 4.69242 0
M  V30 3546 H 323.305 -3.18913 3.01979 0
M  V30 3547 H 323.911 -1.7523 3.87523 0
M  V30 3548 N 322.226 -1.5378 -0.344866 0
M  V30 3549 C 323.472 -1.72158 -1.0832 0
M  V30 3550 C 323.827 -0.478218 -1.86362 0
M  V30 3551 O 323.12 0.529152 -1.84148 0
M  V30 3552 C 323.314 -2.92407 -2.05506 0
M  V30 3553 C 323.143 -4.28318 -1.37017 0
M  V30 3554 C 321.913 -4.92832 -1.11558 0
M  V30 3555 C 324.111 -5.08086 -0.797071 0
M  V30 3556 N 322.093 -6.12619 -0.396358 0
M  V30 3557 C 323.464 -6.1965 -0.208336 0
M  V30 3558 C 325.519 -4.92986 -0.697787 0
M  V30 3559 C 324.222 -7.17763 0.470023 0
M  V30 3560 C 326.248 -5.91391 -0.033171 0
M  V30 3561 C 325.61 -7.02292 0.544599 0
M  V30 3562 H 321.709 -0.683017 -0.380805 0
M  V30 3563 H 324.293 -1.91211 -0.366961 0
M  V30 3564 H 322.464 -2.74857 -2.74423 0
M  V30 3565 H 324.196 -2.9951 -2.72169 0
M  V30 3566 H 320.951 -4.52362 -1.40234 0
M  V30 3567 H 321.375 -6.7698 -0.0515119 0
M  V30 3568 H 326.017 -4.07414 -1.13022 0
M  V30 3569 H 323.735 -8.0291 0.914351 0
M  V30 3570 H 327.321 -5.81784 0.0430009 0
M  V30 3571 H 326.201 -7.77129 1.05073 0
M  V30 3572 N 323.704 0.605807 -1.45491 0
M  V30 3573 C 324.651 1.7164 -1.54299 0
M  V30 3574 C 325.621 1.61486 -0.388761 0
M  V30 3575 O 326.806 1.81039 -0.602445 0
M  V30 3576 C 323.946 3.09953 -1.51734 0
M  V30 3577 C 323.059 3.309 -2.77721 0
M  V30 3578 C 322.194 4.59329 -2.66816 0
M  V30 3579 C 321.233 4.7354 -3.87848 0
M  V30 3580 N 320.37 5.9327 -3.75467 0
M  V30 3581 H 325.21 1.63449 -2.49176 0
M  V30 3582 H 322.747 0.796957 -1.23641 0
M  V30 3583 H 324.705 3.89977 -1.48235 0
M  V30 3584 H 323.335 3.17098 -0.604068 0
M  V30 3585 H 322.387 2.44639 -2.913 0
M  V30 3586 H 323.699 3.37274 -3.67488 0
M  V30 3587 H 322.853 5.4755 -2.61292 0
M  V30 3588 H 321.592 4.55355 -1.74651 0
M  V30 3589 H 320.597 3.83741 -3.93729 0
M  V30 3590 H 321.822 4.79309 -4.81082 0
M  V30 3591 H 319.768 5.90338 -2.86072 0
M  V30 3592 H 319.685 6.00811 -4.5887 0
M  V30 3593 H 320.953 6.83984 -3.73879 0
M  V30 3594 N 325.182 1.32811 0.848464 0
M  V30 3595 C 326.41 1.26739 1.63538 0
M  V30 3596 C 326.825 -0.163484 1.88091 0
M  V30 3597 O 326.182 -1.10258 1.45429 0
M  V30 3598 C 326.233 2.03013 2.99112 0
M  V30 3599 O 325.954 3.40518 2.75643 0
M  V30 3600 C 327.455 2.04038 3.93552 0
M  V30 3601 H 324.675 0.437024 0.509167 0
M  V30 3602 H 327.219 1.75033 1.05753 0
M  V30 3603 H 325.374 1.58426 3.53525 0
M  V30 3604 H 325.788 3.79635 3.61908 0
M  V30 3605 H 327.262 2.61877 4.85926 0
M  V30 3606 H 327.739 1.0282 4.26995 0
M  V30 3607 H 328.345 2.486 3.45077 0
M  V30 3608 N 326.66 -1.06551 1.16123 0
M  V30 3609 C 327.888 -1.83005 0.965237 0
M  V30 3610 C 328.303 -1.82423 -0.486542 0
M  V30 3611 O 327.66 -1.24152 -1.33763 0
M  V30 3612 C 327.711 -3.29733 1.48183 0
M  V30 3613 O 327.432 -3.30416 2.87674 0
M  V30 3614 C 328.933 -4.22926 1.32848 0
M  V30 3615 H 326.153 -0.577118 0.342309 0
M  V30 3616 H 328.697 -1.3445 1.54089 0
M  V30 3617 H 326.852 -3.75609 0.948517 0
M  V30 3618 H 327.266 -4.22149 3.11272 0
M  V30 3619 H 328.74 -5.23916 1.73827 0
M  V30 3620 H 329.217 -4.38346 0.273692 0
M  V30 3621 H 329.823 -3.82894 1.85127 0
M  V30 3622 N 328.138 -0.959301 -1.25041 0
M  V30 3623 C 329.387 -0.612254 -1.92183 0
M  V30 3624 C 329.7 0.855347 -1.75907 0
M  V30 3625 O 330.906 1.31256 -2.37664 0
M  V30 3626 C 329.362 -1.04435 -3.44414 0
M  V30 3627 C 328.97 -2.53482 -3.69393 0
M  V30 3628 C 330.714 -0.770055 -4.17457 0
M  V30 3629 C 328.621 -2.90468 -5.15153 0
M  V30 3630 H 327.551 -0.225279 -0.719559 0
M  V30 3631 H 330.202 -1.16438 -1.41825 0
M  V30 3632 H 328.584 -0.4206 -3.9376 0
M  V30 3633 H 329.758 -3.20916 -3.30681 0
M  V30 3634 H 328.073 -2.78432 -3.0962 0
M  V30 3635 H 330.67 -1.02249 -5.24832 0
M  V30 3636 H 331.013 0.293611 -4.15263 0
M  V30 3637 H 331.546 -1.35437 -3.74034 0
M  V30 3638 H 328.285 -3.95871 -5.22462 0
M  V30 3639 H 327.805 -2.27711 -5.54894 0
M  V30 3640 H 329.484 -2.79914 -5.83315 0
M  V30 3641 N 329.616 1.39756 -0.72842 0
M  V30 3642 C 330.841 2.05472 -0.282159 0
M  V30 3643 C 331.266 1.54549 1.07221 0
M  V30 3644 O 330.624 0.686372 1.67805 0
M  V30 3645 C 330.672 3.59462 -0.286264 0
M  V30 3646 O 329.776 4.05918 0.728298 0
M  V30 3647 H 329.117 0.651226 -0.129618 0
M  V30 3648 H 331.647 1.78915 -0.992499 0
M  V30 3649 H 331.657 4.07798 -0.128373 0
M  V30 3650 H 330.332 3.95889 -1.27456 0
M  V30 3651 H 328.909 3.69012 0.537081 0
M  V30 3652 N 331.094 0.475555 1.50254 0
M  V30 3653 C 332.024 -0.30611 2.31485 0
M  V30 3654 C 333.005 -0.986228 1.38591 0
M  V30 3655 O 334.19 -0.982541 1.67511 0
M  V30 3656 C 331.32 -1.38588 3.1845 0
M  V30 3657 C 330.274 -0.827115 4.19932 0
M  V30 3658 C 329.6 -2.00551 4.95665 0
M  V30 3659 C 330.9 0.16463 5.2204 0
M  V30 3660 H 332.594 0.371866 2.97082 0
M  V30 3661 H 330.14 0.180282 1.42867 0
M  V30 3662 H 332.093 -1.94023 3.74076 0
M  V30 3663 H 330.817 -2.09269 2.50747 0
M  V30 3664 H 329.476 -0.294702 3.65414 0
M  V30 3665 H 329.124 -2.6994 4.2443 0
M  V30 3666 H 328.824 -1.63784 5.64313 0
M  V30 3667 H 330.348 -2.56468 5.54127 0
M  V30 3668 H 331.762 -0.300699 5.72511 0
M  V30 3669 H 330.159 0.446813 5.98434 0
M  V30 3670 H 331.229 1.08905 4.72512 0
M  V30 3671 N 332.573 -1.56217 0.208337 0
M  V30 3672 C 333.989 -1.58919 -0.14729 0
M  V30 3673 C 334.189 -1.22486 -1.59998 0
M  V30 3674 O 333.245 -0.953849 -2.3379 0
M  V30 3675 C 334.558 -3.00236 0.167048 0
M  V30 3676 C 336.106 -3.12813 0.108219 0
M  V30 3677 C 336.581 -4.56284 0.396049 0
M  V30 3678 N 338.072 -4.61912 0.345142 0
M  V30 3679 C 338.807 -5.70837 0.541523 0
M  V30 3680 N 338.303 -6.88178 0.798968 0
M  V30 3681 N 340.096 -5.60091 0.474867 0
M  V30 3682 H 332.247 -1.78177 1.15614 0
M  V30 3683 H 334.51 -0.827555 0.462446 0
M  V30 3684 H 334.216 -3.31499 1.1748 0
M  V30 3685 H 334.09 -3.7354 -0.524184 0
M  V30 3686 H 336.477 -2.81354 -0.890157 0
M  V30 3687 H 336.558 -2.41866 0.832729 0
M  V30 3688 H 336.202 -4.88458 1.3918 0
M  V30 3689 H 336.132 -5.25439 -0.349502 0
M  V30 3690 H 338.623 -3.77589 0.153316 0
M  V30 3691 H 338.936 -7.67095 0.93727 0
M  V30 3692 H 337.281 -6.89953 0.836013 0
M  V30 3693 H 340.472 -4.67297 0.274064 0
M  V30 3694 H 340.645 -6.44917 0.631326 0
M  V30 3695 N 334.051 0.0651679 -1.57465 0
M  V30 3696 C 334.983 1.10359 -2.00882 0
M  V30 3697 C 335.996 1.346 -0.915788 0
M  V30 3698 O 337.185 1.32723 -1.1936 0
M  V30 3699 C 334.285 2.45312 -2.33828 0
M  V30 3700 C 333.458 2.40934 -3.65061 0
M  V30 3701 C 332.517 3.58047 -3.85602 0
M  V30 3702 O 331.543 3.39175 -4.57109 0
M  V30 3703 N 332.745 4.78637 -3.28462 0
M  V30 3704 H 335.51 0.733807 -2.90578 0
M  V30 3705 H 333.071 0.253719 -1.599 0
M  V30 3706 H 335.063 3.22314 -2.44737 0
M  V30 3707 H 333.633 2.74267 -1.49988 0
M  V30 3708 H 332.853 1.49273 -3.64844 0
M  V30 3709 H 334.141 2.35117 -4.51218 0
M  V30 3710 H 333.539 4.96872 -2.70433 0
M  V30 3711 H 332.096 5.53127 -3.44809 0
M  V30 3712 N 335.529 1.53961 0.336706 0
M  V30 3713 C 336.94 1.62914 0.911925 0
M  V30 3714 C 337.291 0.514795 1.89326 0
M  V30 3715 O 336.416 -0.354395 2.13478 0
M  V30 3716 C 337.011 2.95304 1.66076 0
M  V30 3717 C 335.57 3.06496 2.18489 0
M  V30 3718 C 334.717 2.58403 1.00613 0
M  V30 3719 H 337.668 1.58285 0.114649 0
M  V30 3720 H 337.689 2.84727 2.5241 0
M  V30 3721 H 337.201 3.76387 0.946276 0
M  V30 3722 H 335.302 2.3006 2.93092 0
M  V30 3723 H 335.415 4.1208 2.44391 0
M  V30 3724 H 333.779 2.13977 1.38152 0
M  V30 3725 H 334.562 3.41932 0.306179 0
M  V30 3726 N 337.007 -0.598083 1.45811 0
M  V30 3727 C 338.418 -1.18011 1.44673 0
M  V30 3728 C 338.769 -1.95378 0.179364 0
M  V30 3729 O 337.894 -2.04124 -0.718509 0
M  V30 3730 C 338.489 -2.14677 2.62105 0
M  V30 3731 C 337.048 -2.68236 2.64057 0
M  V30 3732 C 336.195 -1.43816 2.37091 0
M  V30 3733 H 339.146 -0.38686 1.53913 0
M  V30 3734 H 339.167 -2.97878 2.36746 0
M  V30 3735 H 338.679 -1.5834 3.5433 0
M  V30 3736 H 336.78 -3.28486 1.75864 0
M  V30 3737 H 336.893 -3.12021 3.63566 0
M  V30 3738 H 335.257 -1.731 1.86838 0
M  V30 3739 H 336.04 -0.893333 3.31473 0
M  V30 3740 N 338.485 -1.33259 -0.841409 0
M  V30 3741 C 339.418 -1.1764 -1.95541 0
M  V30 3742 C 340.396 -0.072501 -1.62438 0
M  V30 3743 O 341.58 -0.23427 -1.87039 0
M  V30 3744 C 338.707 -0.803794 -3.29024 0
M  V30 3745 C 337.753 -1.91482 -3.81099 0
M  V30 3746 S 338.586 -3.52538 -4.03085 0
M  V30 3747 C 339.742 -3.17279 -5.39523 0
M  V30 3748 H 339.975 -2.11941 -2.08491 0
M  V30 3749 H 337.508 -1.18072 -0.9949 0
M  V30 3750 H 339.466 -0.595592 -4.06156 0
M  V30 3751 H 338.127 0.120574 -3.13868 0
M  V30 3752 H 337.32 -1.60742 -4.7768 0
M  V30 3753 H 336.922 -2.07956 -3.10854 0
M  V30 3754 H 339.214 -2.67946 -6.22263 0
M  V30 3755 H 340.157 -4.1293 -5.75234 0
M  V30 3756 H 340.565 -2.53943 -5.04156 0
M  V30 3757 N 339.963 1.05934 -1.16686 0
M  V30 3758 C 340.926 2.11669 -0.879144 0
M  V30 3759 C 341.926 1.60294 0.127445 0
M  V30 3760 O 343.116 1.7389 -0.103865 0
M  V30 3761 C 340.248 3.39438 -0.315425 0
M  V30 3762 H 341.441 2.38626 -1.81653 0
M  V30 3763 H 338.994 1.22058 -0.976299 0
M  V30 3764 H 339.729 3.18132 0.629468 0
M  V30 3765 H 339.514 3.78034 -1.04079 0
M  V30 3766 H 341.004 4.17391 -0.132189 0
M  V30 3767 N 341.441 0.965919 1.2453 0
M  V30 3768 C 342.688 0.626831 1.92554 0
M  V30 3769 C 343.016 -0.837739 1.75534 0
M  V30 3770 O 342.271 -1.61793 1.10098 0
M  V30 3771 C 342.57 0.945428 3.44669 0
M  V30 3772 C 342.236 2.39785 3.81856 0
M  V30 3773 C 340.898 2.79483 3.91718 0
M  V30 3774 C 343.25 3.34055 4.00071 0
M  V30 3775 C 340.578 4.12496 4.1721 0
M  V30 3776 C 342.93 4.66694 4.27059 0
M  V30 3777 C 341.594 5.06172 4.3514 0
M  V30 3778 H 340.864 0.229374 0.704605 0
M  V30 3779 H 343.511 1.21707 1.4785 0
M  V30 3780 H 341.816 0.272926 3.90848 0
M  V30 3781 H 343.513 0.661484 3.95507 0
M  V30 3782 H 340.103 2.08003 3.74743 0
M  V30 3783 H 344.287 3.04571 3.91855 0
M  V30 3784 H 339.543 4.42709 4.21685 0
M  V30 3785 H 343.717 5.3971 4.40097 0
M  V30 3786 H 341.344 6.09262 4.54646 0
M  V30 3787 N 342.919 -1.39368 0.735821 0
M  V30 3788 C 343.851 -2.2913 0.0567723 0
M  V30 3789 C 344.864 -1.46859 -0.702589 0
M  V30 3790 O 346.053 -1.69925 -0.546616 0
M  V30 3791 C 343.153 -3.25492 -0.943823 0
M  V30 3792 C 342.326 -4.36709 -0.24581 0
M  V30 3793 C 341.385 -5.13376 -1.15463 0
M  V30 3794 O 340.411 -5.65683 -0.631803 0
M  V30 3795 N 341.613 -5.24656 -2.48427 0
M  V30 3796 H 344.378 -2.88047 0.827582 0
M  V30 3797 H 341.939 -1.50957 0.585112 0
M  V30 3798 H 343.931 -3.73657 -1.55443 0
M  V30 3799 H 342.501 -2.676 -1.61583 0
M  V30 3800 H 341.721 -3.9041 0.545286 0
M  V30 3801 H 343.009 -5.08244 0.237891 0
M  V30 3802 H 342.407 -4.83679 -2.93379 0
M  V30 3803 H 340.964 -5.76258 -3.04582 0
M  V30 3804 N 344.397 -0.483516 -1.5 0
M  V30 3805 C 345.645 0.067027 -2.01989 0
M  V30 3806 C 345.966 1.3909 -1.36671 0
M  V30 3807 O 345.236 1.88978 -0.516152 0
M  V30 3808 H 343.816 0.0277606 -0.746484 0
M  V30 3809 H 346.478 -0.636773 -1.84204 0
M  V30 3810 H 345.574 0.209484 -3.11396 0
M  V30 3811 N 345.875 1.56104 -0.216619 0
M  V30 3812 C 347.124 1.97348 0.416744 0
M  V30 3813 C 347.437 1.10715 1.6125 0
M  V30 3814 O 348.643 1.41836 2.31506 0
M  V30 3815 C 347.099 3.51059 0.792835 0
M  V30 3816 C 346.707 4.46387 -0.379828 0
M  V30 3817 C 348.451 4.01026 1.39208 0
M  V30 3818 C 346.358 5.91397 0.0184223 0
M  V30 3819 H 345.288 0.736942 0.159475 0
M  V30 3820 H 347.939 1.80827 -0.31205 0
M  V30 3821 H 346.321 3.63162 1.57891 0
M  V30 3822 H 347.495 4.46029 -1.15737 0
M  V30 3823 H 345.81 4.06734 -0.891979 0
M  V30 3824 H 348.407 5.0686 1.70286 0
M  V30 3825 H 348.75 3.46587 2.30614 0
M  V30 3826 H 349.283 3.92125 0.669537 0
M  V30 3827 H 346.022 6.49807 -0.862002 0
M  V30 3828 H 345.542 5.94961 0.760384 0
M  V30 3829 H 347.221 6.45455 0.446818 0
M  V30 3830 N 347.353 -0.0568162 1.57498 0
M  V30 3831 C 348.578 -0.769402 1.92601 0
M  V30 3832 C 349.003 -1.69559 0.814336 0
M  V30 3833 O 348.361 -1.79811 -0.231903 0
M  V30 3834 C 348.409 -1.52634 3.26704 0
M  V30 3835 O 347.513 -2.63797 3.16994 0
M  V30 3836 H 346.854 -0.208909 0.63028 0
M  V30 3837 H 349.384 -0.0205798 2.0459 0
M  V30 3838 H 349.394 -1.90234 3.60936 0
M  V30 3839 H 348.069 -0.846875 4.07186 0
M  V30 3840 H 346.646 -2.28943 2.94346 0
M  V30 3841 N 348.832 -1.54138 -0.328536 0
M  V30 3842 C 349.742 -1.86192 -1.42723 0
M  V30 3843 C 350.758 -0.753382 -1.56844 0
M  V30 3844 O 351.934 -1.04718 -1.72035 0
M  V30 3845 C 348.999 -2.07824 -2.77507 0
M  V30 3846 C 348.06 -3.31641 -2.72603 0
M  V30 3847 C 347.293 -3.52232 -4.00959 0
M  V30 3848 O 347.516 -2.7636 -4.9898 0
M  V30 3849 O 346.45 -4.45699 -4.0452 0
M  V30 3850 H 350.276 -2.79608 -1.18547 0
M  V30 3851 H 347.861 -1.3998 -0.522104 0
M  V30 3852 H 349.743 -2.23411 -3.57303 0
M  V30 3853 H 348.418 -1.17596 -3.01584 0
M  V30 3854 H 347.325 -3.21444 -1.91376 0
M  V30 3855 H 348.658 -4.2191 -2.53481 0
M  V30 3856 N 350.31 0.590341 -1.46126 0
M  V30 3857 C 351.726 0.912917 -1.30912 0
M  V30 3858 C 351.926 1.99616 -0.274893 0
M  V30 3859 O 350.982 2.50397 0.325197 0
M  V30 3860 C 352.295 1.3375 -2.69317 0
M  V30 3861 C 353.843 1.45077 -2.77348 0
M  V30 3862 C 354.318 1.90904 -4.16317 0
M  V30 3863 N 355.809 1.9811 -4.18696 0
M  V30 3864 C 356.544 2.34828 -5.23109 0
M  V30 3865 N 356.04 2.70393 -6.37856 0
M  V30 3866 N 357.833 2.35317 -5.10473 0
M  V30 3867 H 349.984 -0.125358 -2.1203 0
M  V30 3868 H 352.247 0.00658481 -0.947977 0
M  V30 3869 H 351.953 0.615614 -3.4627 0
M  V30 3870 H 351.827 2.30058 -2.9892 0
M  V30 3871 H 354.214 2.16353 -2.00687 0
M  V30 3872 H 354.295 0.4704 -2.51438 0
M  V30 3873 H 353.939 1.20209 -4.9347 0
M  V30 3874 H 353.869 2.89886 -4.39629 0
M  V30 3875 H 356.36 1.73146 -3.359 0
M  V30 3876 H 356.673 2.97341 -7.13308 0
M  V30 3877 H 355.018 2.68048 -6.41229 0
M  V30 3878 H 358.209 2.0695 -4.19868 0
M  V30 3879 H 358.382 2.63605 -5.9196 0
M  V30 3880 N 351.788 1.33704 0.83433 0
M  V30 3881 C 352.72 1.20172 1.9517 0
M  V30 3882 C 353.733 0.131572 1.62267 0
M  V30 3883 O 354.922 0.382406 1.74356 0
M  V30 3884 C 352.022 0.821716 3.28787 0
M  V30 3885 C 351.195 1.98446 3.89792 0
M  V30 3886 C 350.254 1.58469 5.01771 0
M  V30 3887 O 349.28 2.29968 5.20676 0
M  V30 3888 N 350.482 0.492291 5.78409 0
M  V30 3889 H 353.247 2.16429 2.07313 0
M  V30 3890 H 350.808 1.26509 1.0103 0
M  V30 3891 H 352.8 0.536291 4.01131 0
M  V30 3892 H 351.37 -0.0503058 3.1256 0
M  V30 3893 H 350.59 2.43526 3.09982 0
M  V30 3894 H 351.878 2.76236 4.27283 0
M  V30 3895 H 351.276 -0.102349 5.65607 0
M  V30 3896 H 349.833 0.266555 6.51255 0
M  V30 3897 N 353.266 -1.05314 1.17247 0
M  V30 3898 C 354.213 -2.13031 0.888058 0
M  V30 3899 C 355.183 -1.65253 -0.167537 0
M  V30 3900 O 356.368 -1.90775 -0.0305974 0
M  V30 3901 C 353.508 -3.42702 0.406147 0
M  V30 3902 C 352.621 -4.04161 1.52572 0
M  V30 3903 C 351.756 -5.21744 0.997808 0
M  V30 3904 C 350.795 -5.75207 2.09291 0
M  V30 3905 N 349.932 -6.84094 1.57986 0
M  V30 3906 H 354.772 -2.36698 1.81048 0
M  V30 3907 H 352.309 -1.16121 0.903013 0
M  V30 3908 H 354.267 -4.17059 0.108305 0
M  V30 3909 H 352.897 -3.19222 -0.479313 0
M  V30 3910 H 351.949 -3.27253 1.93931 0
M  V30 3911 H 353.261 -4.39881 2.35172 0
M  V30 3912 H 352.415 -6.03168 0.653739 0
M  V30 3913 H 351.154 -4.87495 0.141232 0
M  V30 3914 H 350.159 -4.92414 2.44557 0
M  V30 3915 H 351.384 -6.11505 2.95362 0
M  V30 3916 H 349.33 -6.51745 0.74598 0
M  V30 3917 H 349.247 -7.18811 2.34195 0
M  V30 3918 H 350.515 -7.69172 1.26468 0
M  V30 3919 N 354.744 -0.972509 -1.24016 0
M  V30 3920 C 355.707 -0.511403 -2.23422 0
M  V30 3921 C 356.707 0.394679 -1.55881 0
M  V30 3922 O 357.897 0.189469 -1.73167 0
M  V30 3923 C 355.029 0.258769 -3.39916 0
M  V30 3924 H 356.222 -1.39024 -2.6573 0
M  V30 3925 H 353.775 -0.757585 -1.36713 0
M  V30 3926 H 354.51 1.1545 -3.03054 0
M  V30 3927 H 354.295 -0.391522 -3.9014 0
M  V30 3928 H 355.785 0.570244 -4.13688 0
M  V30 3929 N 356.222 1.38976 -0.743202 0
M  V30 3930 C 357.152 2.33171 -0.123873 0
M  V30 3931 C 358.133 1.54336 0.71516 0
M  V30 3932 O 359.318 1.82696 0.658467 0
M  V30 3933 C 356.448 3.38474 0.777978 0
M  V30 3934 C 355.402 4.27979 0.0424758 0
M  V30 3935 C 354.728 5.2405 1.06189 0
M  V30 3936 C 356.028 5.10155 -1.1198 0
M  V30 3937 H 357.722 2.85213 -0.910709 0
M  V30 3938 H 355.268 1.37133 -0.439388 0
M  V30 3939 H 357.221 4.03328 1.22084 0
M  V30 3940 H 355.945 2.84891 1.59702 0
M  V30 3941 H 354.604 3.64616 -0.380853 0
M  V30 3942 H 354.252 4.66758 1.87472 0
M  V30 3943 H 353.952 5.84785 0.574485 0
M  V30 3944 H 355.476 5.9178 1.50428 0
M  V30 3945 H 356.89 5.68307 -0.75499 0
M  V30 3946 H 355.287 5.80073 -1.53738 0
M  V30 3947 H 356.357 4.44504 -1.93764 0
M  V30 3948 N 357.7 0.491464 1.49741 0
M  V30 3949 C 359.116 0.146835 1.58923 0
M  V30 3950 C 359.316 -1.34804 1.49767 0
M  V30 3951 O 358.372 -2.12317 1.36667 0
M  V30 3952 C 359.685 0.715157 2.92072 0
M  V30 3953 C 361.233 0.680407 3.05515 0
M  V30 3954 C 361.708 1.22663 4.41269 0
M  V30 3955 N 363.199 1.18691 4.47735 0
M  V30 3956 C 363.934 1.57984 5.51207 0
M  V30 3957 N 363.43 2.04824 6.6183 0
M  V30 3958 N 365.223 1.49459 5.41866 0
M  V30 3959 H 357.374 1.46347 1.53936 0
M  V30 3960 H 359.637 0.606453 0.728642 0
M  V30 3961 H 359.343 1.76317 3.04311 0
M  V30 3962 H 359.217 0.17018 3.76816 0
M  V30 3963 H 361.604 -0.358743 2.92911 0
M  V30 3964 H 361.685 1.26242 2.22478 0
M  V30 3965 H 361.329 2.26451 4.54623 0
M  V30 3966 H 361.259 0.620637 5.2293 0
M  V30 3967 H 363.75 0.843605 3.68364 0
M  V30 3968 H 364.063 2.32901 7.3687 0
M  V30 3969 H 362.408 2.08791 6.62896 0
M  V30 3970 H 365.599 1.12692 4.54333 0
M  V30 3971 H 365.772 1.80406 6.22381 0
M  V30 3972 N 359.178 -1.55987 0.224894 0
M  V30 3973 C 360.111 -2.16413 -0.723929 0
M  V30 3974 C 361.089 -1.10952 -1.18863 0
M  V30 3975 O 362.273 -1.39225 -1.27077 0
M  V30 3976 C 359.4 -2.74711 -1.98121 0
M  V30 3977 C 358.446 -3.9303 -1.6562 0
M  V30 3978 S 359.279 -5.29817 -0.778058 0
M  V30 3979 C 360.435 -5.91555 -2.04483 0
M  V30 3980 H 360.668 -2.96555 -0.210347 0
M  V30 3981 H 358.201 -1.54397 0.00955457 0
M  V30 3982 H 360.159 -3.08938 -2.70311 0
M  V30 3983 H 358.82 -1.94555 -2.46591 0
M  V30 3984 H 358.013 -4.32334 -2.59043 0
M  V30 3985 H 357.615 -3.59966 -1.01491 0
M  V30 3986 H 359.907 -6.07732 -2.99446 0
M  V30 3987 H 360.85 -6.87498 -1.69563 0
M  V30 3988 H 361.258 -5.20419 -2.18688 0
M  V30 3989 N 360.656 0.0484629 -1.57525 0
M  V30 3990 C 361.902 0.744226 -1.88651 0
M  V30 3991 C 362.235 1.76029 -0.820212 0
M  V30 3992 O 361.51 1.93782 0.166985 0
M  V30 3993 C 361.793 1.43128 -3.30434 0
M  V30 3994 C 361.646 0.43005 -4.47739 0
M  V30 3995 C 362.965 2.37031 -3.70816 0
M  V30 3996 H 360.084 0.269089 -0.68612 0
M  V30 3997 H 362.726 0.00713532 -1.89999 0
M  V30 3998 H 360.876 2.05956 -3.29415 0
M  V30 3999 H 362.548 -0.194816 -4.60888 0
M  V30 4000 H 360.791 -0.252522 -4.33064 0
M  V30 4001 H 361.462 0.948874 -5.43783 0
M  V30 4002 H 363.938 1.84263 -3.73077 0
M  V30 4003 H 362.814 2.82094 -4.70865 0
M  V30 4004 H 363.075 3.22864 -3.02012 0
M  V30 4005 N 362.134 1.5431 0.320358 0
M  V30 4006 C 363.381 1.72668 1.05792 0
M  V30 4007 C 363.709 0.502084 1.87908 0
M  V30 4008 O 362.964 -0.516149 1.88771 0
M  V30 4009 C 363.263 2.95639 2.00828 0
M  V30 4010 C 362.929 4.30265 1.34843 0
M  V30 4011 C 361.591 4.66865 1.16578 0
M  V30 4012 C 363.943 5.13801 0.875095 0
M  V30 4013 C 361.271 5.84597 0.496336 0
M  V30 4014 C 363.623 6.32219 0.219463 0
M  V30 4015 C 362.287 6.67495 0.0246915 0
M  V30 4016 H 361.557 0.631837 0.387121 0
M  V30 4017 H 364.204 1.88552 0.334735 0
M  V30 4018 H 362.509 2.74456 2.79609 0
M  V30 4019 H 364.206 3.07038 2.57932 0
M  V30 4020 H 360.796 4.01472 1.50061 0
M  V30 4021 H 364.98 4.86039 1.00398 0
M  V30 4022 H 360.236 6.10486 0.334264 0
M  V30 4023 H 364.41 6.96227 -0.155291 0
M  V30 4024 H 362.037 7.5858 -0.496065 0
M  V30 4025 N 363.613 -0.582584 1.46437 0
M  V30 4026 C 364.546 -1.70633 1.51524 0
M  V30 4027 C 365.524 -1.58349 0.369351 0
M  V30 4028 O 366.708 -1.79563 0.573516 0
M  V30 4029 C 363.835 -3.08687 1.39392 0
M  V30 4030 C 362.881 -3.3949 2.58164 0
M  V30 4031 S 363.714 -3.31548 4.20519 0
M  V30 4032 C 364.87 -4.72139 4.10896 0
M  V30 4033 H 365.103 -1.66058 2.46601 0
M  V30 4034 H 362.636 -0.761337 1.34324 0
M  V30 4035 H 364.594 -3.8833 1.33079 0
M  V30 4036 H 363.255 -3.10751 0.457436 0
M  V30 4037 H 362.448 -4.40071 2.45669 0
M  V30 4038 H 362.05 -2.67415 2.61468 0
M  V30 4039 H 364.342 -5.62527 3.77584 0
M  V30 4040 H 365.285 -4.89692 5.11476 0
M  V30 4041 H 365.693 -4.48995 3.42146 0
M  V30 4042 N 365.091 -1.34144 -0.827227 0
M  V30 4043 C 366.331 -1.27603 -1.59677 0
M  V30 4044 C 366.695 0.153035 -1.91389 0
M  V30 4045 O 367.896 0.342566 -2.66608 0
M  V30 4046 C 366.167 -2.13784 -2.86411 0
M  V30 4047 S 367.726 -2.24552 -3.76991 0
M  V30 4048 H 364.544 -0.453789 -0.547354 0
M  V30 4049 H 367.146 -1.69309 -0.977479 0
M  V30 4050 H 365.85 -3.16627 -2.61104 0
M  V30 4051 H 365.381 -1.72959 -3.5334 0
M  V30 4052 H 367.396 -1.41514 -4.75593 0
M  V30 4053 N 366.569 1.04691 -1.17803 0
M  V30 4054 C 367.532 2.10724 -0.901545 0
M  V30 4055 C 368.532 1.6042 0.110437 0
M  V30 4056 O 369.722 1.7377 -0.122303 0
M  V30 4057 C 366.854 3.39084 -0.351409 0
M  V30 4058 H 368.047 2.36686 -1.84174 0
M  V30 4059 H 365.6 1.21015 -0.98919 0
M  V30 4060 H 366.335 3.18782 0.59569 0
M  V30 4061 H 366.12 3.76909 -1.08083 0
M  V30 4062 H 367.61 4.17227 -0.176451 0
M  V30 4063 N 368.047 0.979072 1.23499 0
M  V30 4064 C 369.01 0.523244 2.23147 0
M  V30 4065 C 370.01 -0.386406 1.56088 0
M  V30 4066 O 371.2 -0.180283 1.73265 0
M  V30 4067 C 368.332 -0.240739 3.40049 0
M  V30 4068 H 369.525 1.40432 2.64989 0
M  V30 4069 H 367.078 0.764824 1.36309 0
M  V30 4070 H 367.813 -1.13841 3.03662 0
M  V30 4071 H 367.598 0.412207 3.89927 0
M  V30 4072 H 369.088 -0.548297 4.13985 0
M  V30 4073 N 369.525 -1.3858 0.750561 0
M  V30 4074 C 370.771 -2.00481 0.305825 0
M  V30 4075 C 371.104 -1.5944 -1.10872 0
M  V30 4076 O 370.379 -0.83052 -1.75877 0
M  V30 4077 C 370.662 -3.5758 0.425287 0
M  V30 4078 C 370.515 -4.08594 1.88072 0
M  V30 4079 C 371.834 -4.39719 -0.183122 0
M  V30 4080 H 368.953 -0.728348 0.112598 0
M  V30 4081 H 371.595 -1.64566 0.949638 0
M  V30 4082 H 369.745 -3.88306 -0.122828 0
M  V30 4083 H 371.417 -3.88523 2.48691 0
M  V30 4084 H 369.66 -3.61574 2.39681 0
M  V30 4085 H 370.331 -5.177 1.91548 0
M  V30 4086 H 372.807 -4.15128 0.284303 0
M  V30 4087 H 371.683 -5.48856 -0.0692757 0
M  V30 4088 H 371.944 -4.23434 -1.27106 0
M  V30 4089 N 371.003 -0.499398 -1.49478 0
M  V30 4090 C 372.25 0.0456899 -2.02448 0
M  V30 4091 C 372.578 1.37142 -1.37921 0
M  V30 4092 O 371.833 1.89111 -0.503544 0
M  V30 4093 C 372.132 0.248424 -3.56536 0
M  V30 4094 C 371.798 -0.999107 -4.39692 0
M  V30 4095 C 370.46 -1.34108 -4.62135 0
M  V30 4096 C 372.812 -1.82842 -4.88076 0
M  V30 4097 C 370.14 -2.51191 -5.30208 0
M  V30 4098 C 372.492 -2.99076 -5.57437 0
M  V30 4099 C 371.156 -3.33655 -5.78127 0
M  V30 4100 H 370.426 0.0167191 -0.740811 0
M  V30 4101 H 373.073 -0.65923 -1.79795 0
M  V30 4102 H 371.378 1.03586 -3.77859 0
M  V30 4103 H 373.075 0.684605 -3.95113 0
M  V30 4104 H 369.665 -0.722729 -4.22463 0
M  V30 4105 H 373.849 -1.57737 -4.70566 0
M  V30 4106 H 369.105 -2.78221 -5.44429 0
M  V30 4107 H 373.279 -3.63664 -5.93904 0
M  V30 4108 H 370.906 -4.24483 -6.30649 0
M  V30 4109 N 372.481 1.55866 -0.233164 0
M  V30 4110 C 373.728 1.98603 0.395374 0
M  V30 4111 C 374.056 1.12105 1.58942 0
M  V30 4112 O 373.311 0.168656 1.94972 0
M  V30 4113 C 373.61 3.46856 0.861724 0
M  V30 4114 C 373.276 4.50348 -0.223066 0
M  V30 4115 C 371.938 4.78371 -0.521038 0
M  V30 4116 C 374.29 5.12355 -0.956124 0
M  V30 4117 C 371.618 5.6568 -1.55638 0
M  V30 4118 C 373.97 6.00786 -1.98089 0
M  V30 4119 C 372.634 6.27148 -2.28565 0
M  V30 4120 H 371.904 0.726739 0.144677 0
M  V30 4121 H 374.551 1.88491 -0.338114 0
M  V30 4122 H 372.856 3.5423 1.67418 0
M  V30 4123 H 374.553 3.77302 1.35809 0
M  V30 4124 H 371.143 4.28596 0.0193234 0
M  V30 4125 H 375.327 4.90765 -0.739166 0
M  V30 4126 H 370.583 5.84365 -1.798 0
M  V30 4127 H 374.757 6.4788 -2.55391 0
M  V30 4128 H 372.384 6.94597 -3.08932 0
M  V30 4129 N 373.959 -0.0401083 1.57549 0
M  V30 4130 C 375.208 -0.732108 1.87944 0
M  V30 4131 C 375.521 -1.77107 0.830206 0
M  V30 4132 O 376.727 -2.51488 1.02302 0
M  V30 4133 C 375.183 -1.35315 3.33494 0
M  V30 4134 C 374.791 -0.351105 4.46622 0
M  V30 4135 C 376.535 -2.02566 3.73051 0
M  V30 4136 C 374.442 -0.979859 5.83226 0
M  V30 4137 H 373.372 -0.277188 0.701201 0
M  V30 4138 H 376.023 0.0138501 1.83495 0
M  V30 4139 H 374.405 -2.14844 3.32653 0
M  V30 4140 H 375.579 0.416674 4.58912 0
M  V30 4141 H 373.894 0.218708 4.15825 0
M  V30 4142 H 376.491 -2.50441 4.72423 0
M  V30 4143 H 376.834 -2.83904 3.04474 0
M  V30 4144 H 377.367 -1.29827 3.76018 0
M  V30 4145 H 374.106 -0.206135 6.55176 0
M  V30 4146 H 373.626 -1.71774 5.74677 0
M  V30 4147 H 375.305 -1.49046 6.29599 0
M  V30 4148 N 375.437 -1.54477 -0.31217 0
M  V30 4149 C 376.677 -1.74958 -1.05684 0
M  V30 4150 C 377.041 -0.518414 -1.84869 0
M  V30 4151 O 378.242 -0.600759 -2.62001 0
M  V30 4152 C 376.513 -2.99656 -1.94785 0
M  V30 4153 S 378.072 -3.4109 -2.76049 0
M  V30 4154 H 374.89 -0.615104 -0.356606 0
M  V30 4155 H 377.492 -1.92669 -0.331514 0
M  V30 4156 H 376.196 -3.87397 -1.35468 0
M  V30 4157 H 375.727 -2.845 -2.71704 0
M  V30 4158 H 377.742 -2.97283 -3.97287 0
M  V30 4159 N 376.915 0.57481 -1.46744 0
M  V30 4160 C 378.162 1.33272 -1.52462 0
M  V30 4161 C 378.49 1.93669 -0.179572 0
M  V30 4162 O 377.745 1.7743 0.825664 0
M  V30 4163 C 378.044 2.476 -2.57738 0
M  V30 4164 C 377.71 2.05146 -4.01529 0
M  V30 4165 C 376.372 1.93284 -4.40676 0
M  V30 4166 C 378.724 1.72506 -4.91824 0
M  V30 4167 C 376.052 1.47049 -5.67973 0
M  V30 4168 C 378.404 1.27748 -6.19567 0
M  V30 4169 C 377.068 1.14468 -6.57612 0
M  V30 4170 H 376.338 0.487678 -0.557899 0
M  V30 4171 H 378.985 0.646456 -1.80259 0
M  V30 4172 H 377.29 3.21708 -2.23632 0
M  V30 4173 H 378.987 3.05807 -2.5939 0
M  V30 4174 H 375.577 2.15316 -3.7059 0
M  V30 4175 H 379.761 1.80552 -4.62293 0
M  V30 4176 H 375.017 1.35417 -5.96215 0
M  V30 4177 H 379.191 1.01547 -6.88957 0
M  V30 4178 H 376.818 0.78419 -7.56145 0
M  V30 4179 N 378.394 1.34581 0.820102 0
M  V30 4180 C 379.622 1.3018 1.60813 0
M  V30 4181 C 380.037 -0.123551 1.88395 0
M  V30 4182 O 379.394 -1.07148 1.47735 0
M  V30 4183 C 379.445 2.09312 2.94739 0
M  V30 4184 O 379.166 3.46288 2.68358 0
M  V30 4185 C 380.667 2.1234 3.89136 0
M  V30 4186 H 377.887 0.447726 0.499782 0
M  V30 4187 H 380.431 1.77237 1.02017 0
M  V30 4188 H 378.586 1.65889 3.50085 0
M  V30 4189 H 379 3.87227 3.53774 0
M  V30 4190 H 380.474 2.72126 4.80262 0
M  V30 4191 H 380.951 1.11854 4.24718 0
M  V30 4192 H 381.557 2.55864 3.39726 0
M  V30 4193 N 379.872 -1.04064 1.18357 0
M  V30 4194 C 381.283 -1.58719 0.98312 0
M  V30 4195 C 381.634 -1.90556 -0.467193 0
M  V30 4196 O 380.759 -1.69561 -1.34454 0
M  V30 4197 C 381.354 -2.88379 1.77828 0
M  V30 4198 C 379.913 -3.3965 1.62218 0
M  V30 4199 C 379.06 -2.13235 1.77274 0
M  V30 4200 H 382.011 -0.867359 1.32901 0
M  V30 4201 H 382.032 -3.58773 1.26737 0
M  V30 4202 H 381.544 -2.65176 2.83379 0
M  V30 4203 H 379.645 -3.67866 0.592036 0
M  V30 4204 H 379.758 -4.13475 2.42023 0
M  V30 4205 H 378.122 -2.24542 1.20221 0
M  V30 4206 H 378.905 -1.92487 2.8426 0
M  V30 4207 N 381.35 -0.985608 -1.22978 0
M  V30 4208 C 382.58 -0.674603 -1.95276 0
M  V30 4209 C 382.988 0.763483 -1.73111 0
M  V30 4210 O 382.331 1.52601 -1.02268 0
M  V30 4211 C 382.393 -0.891597 -3.48268 0
M  V30 4212 C 382.057 -2.31275 -3.94158 0
M  V30 4213 C 383.054 -3.29179 -4.02415 0
M  V30 4214 C 380.739 -2.64524 -4.27004 0
M  V30 4215 C 382.733 -4.58407 -4.42879 0
M  V30 4216 C 380.42 -3.93974 -4.67149 0
M  V30 4217 C 381.418 -4.90727 -4.75053 0
M  V30 4218 O 381.106 -6.17865 -5.14294 0
M  V30 4219 H 380.838 -0.249251 -0.628371 0
M  V30 4220 H 383.392 -1.32106 -1.5728 0
M  V30 4221 H 381.622 -0.187962 -3.86243 0
M  V30 4222 H 383.311 -0.576957 -4.01779 0
M  V30 4223 H 384.077 -3.04823 -3.77237 0
M  V30 4224 H 379.956 -1.89923 -4.2006 0
M  V30 4225 H 383.5 -5.33926 -4.48964 0
M  V30 4226 H 379.397 -4.18122 -4.91777 0
M  V30 4227 H 380.165 -6.21694 -5.32389 0
M  V30 4228 N 382.828 1.3818 -0.7579 0
M  V30 4229 C 383.778 2.27741 -0.108674 0
M  V30 4230 C 384.762 1.45415 0.688709 0
M  V30 4231 O 385.954 1.68108 0.553956 0
M  V30 4232 C 383.083 3.34313 0.780367 0
M  V30 4233 C 382.169 4.24093 -0.0240977 0
M  V30 4234 N 382.56 4.9451 -1.06271 0
M  V30 4235 C 380.858 4.45542 0.202049 0
M  V30 4236 C 381.559 5.60675 -1.54979 0
M  V30 4237 N 380.535 5.36684 -0.864348 0
M  V30 4238 H 384.337 2.79649 -0.904071 0
M  V30 4239 H 381.851 1.51133 -0.594346 0
M  V30 4240 H 383.848 3.97368 1.26114 0
M  V30 4241 H 382.508 2.83962 1.57467 0
M  V30 4242 H 383.519 4.97345 -1.44459 0
M  V30 4243 H 380.196 4.06091 0.96935 0
M  V30 4244 H 381.586 6.26992 -2.41517 0
M  V30 4245 N 384.306 0.507319 1.49211 0
M  V30 4246 C 385.555 -0.0368315 2.01666 0
M  V30 4247 C 385.868 -1.37459 1.39156 0
M  V30 4248 O 387.074 -2.00579 1.82976 0
M  V30 4249 C 385.53 -0.116089 3.59713 0
M  V30 4250 C 385.138 1.2154 4.31198 0
M  V30 4251 C 386.882 -0.610268 4.2009 0
M  V30 4252 C 384.789 1.09796 5.81119 0
M  V30 4253 H 383.719 -0.0175376 0.753796 0
M  V30 4254 H 386.37 0.647691 1.71689 0
M  V30 4255 H 384.752 -0.8652 3.86433 0
M  V30 4256 H 385.926 1.9783 4.16173 0
M  V30 4257 H 384.241 1.64352 3.82593 0
M  V30 4258 H 386.838 -0.715742 5.29888 0
M  V30 4259 H 387.181 -1.61064 3.8388 0
M  V30 4260 H 387.714 0.0824916 3.97714 0
M  V30 4261 H 384.453 2.0728 6.21864 0
M  V30 4262 H 383.973 0.376058 5.9862 0
M  V30 4263 H 385.652 0.779281 6.4229 0
M  V30 4264 N 385.784 -1.5574 0.241426 0
M  V30 4265 C 386.732 -2.22538 -0.676718 0
M  V30 4266 C 387.726 -1.21117 -1.18436 0
M  V30 4267 O 388.932 -1.39144 -1.14188 0
M  V30 4268 H 385.307 -0.713776 -0.236701 0
M  V30 4269 H 387.278 -2.98264 -0.0901187 0
M  V30 4270 C 386.027 -2.93439 -1.86518 0
M  V30 4271 H 385.35 -3.7125 -1.4837 0
M  V30 4272 H 386.79 -3.43549 -2.48495 0
M  V30 4273 C 385.249 -1.97008 -2.73294 0
M  V30 4274 O 385.779 -1.49965 -3.72657 0
M  V30 4275 N 383.985 -1.64227 -2.39745 0
M  V30 4276 H 383.532 -2.02677 -1.58996 0
M  V30 4277 H 383.49 -0.999708 -2.98083 0
M  V30 4278 N 387.262 0.0317525 -1.57568 0
M  V30 4279 C 388.509 0.723104 -1.89149 0
M  V30 4280 C 388.837 1.75504 -0.838377 0
M  V30 4281 O 388.092 1.95037 0.160982 0
M  V30 4282 C 388.391 1.43167 -3.27472 0
M  V30 4283 C 388.057 0.535972 -4.47703 0
M  V30 4284 C 386.719 0.289262 -4.8033 0
M  V30 4285 C 389.071 -0.0826125 -5.21135 0
M  V30 4286 C 386.399 -0.584853 -5.83778 0
M  V30 4287 C 388.751 -0.944414 -6.25511 0
M  V30 4288 C 387.415 -1.20061 -6.56614 0
M  V30 4289 H 386.685 0.264602 -0.692146 0
M  V30 4290 H 389.332 -0.0169496 -1.91492 0
M  V30 4291 H 387.637 2.24497 -3.21105 0
M  V30 4292 H 389.334 1.97209 -3.49155 0
M  V30 4293 H 385.924 0.738414 -4.22191 0
M  V30 4294 H 390.108 0.0950302 -4.96209 0
M  V30 4295 H 385.364 -0.79168 -6.06253 0
M  V30 4296 H 389.538 -1.43026 -6.81554 0
M  V30 4297 H 387.165 -1.87967 -7.36595 0
M  V30 4298 N 388.74 1.54641 0.303973 0
M  V30 4299 C 389.989 1.7299 1.03717 0
M  V30 4300 C 390.302 0.521168 1.88529 0
M  V30 4301 O 391.508 0.586408 2.65092 0
M  V30 4302 C 389.964 3.06051 1.89369 0
M  V30 4303 C 389.572 4.34393 1.09574 0
M  V30 4304 C 391.316 3.3376 2.62306 0
M  V30 4305 C 389.223 5.58506 1.94486 0
M  V30 4306 H 388.153 0.64473 0.390947 0
M  V30 4307 H 390.804 1.81124 0.294328 0
M  V30 4308 H 389.186 2.91874 2.67629 0
M  V30 4309 H 390.36 4.59396 0.359485 0
M  V30 4310 H 388.675 4.13597 0.482324 0
M  V30 4311 H 391.272 4.23687 3.26181 0
M  V30 4312 H 391.615 2.52503 3.3098 0
M  V30 4313 H 392.148 3.48894 1.91097 0
M  V30 4314 H 388.887 6.42422 1.30287 0
M  V30 4315 H 388.407 5.37694 2.65792 0
M  V30 4316 H 390.086 5.95651 2.52605 0
M  V30 4317 N 390.218 -0.567019 1.47046 0
M  V30 4318 C 391.465 -1.32462 1.53167 0
M  V30 4319 C 391.793 -1.93571 0.189841 0
M  V30 4320 O 391.048 -1.77865 -0.816243 0
M  V30 4321 C 391.347 -2.4623 2.59047 0
M  V30 4322 C 391.013 -2.03014 4.02612 0
M  V30 4323 C 389.675 -1.90944 4.41694 0
M  V30 4324 C 392.027 -1.69895 4.92732 0
M  V30 4325 C 389.355 -1.44035 5.68745 0
M  V30 4326 C 391.707 -1.2446 6.20236 0
M  V30 4327 C 390.371 -1.10979 6.5821 0
M  V30 4328 H 389.641 -0.484713 0.560477 0
M  V30 4329 H 392.288 -0.636888 1.80599 0
M  V30 4330 H 390.593 -3.20517 2.25335 0
M  V30 4331 H 392.29 -3.04427 2.61008 0
M  V30 4332 H 388.88 -2.13348 3.71726 0
M  V30 4333 H 393.064 -1.78098 4.63244 0
M  V30 4334 H 388.32 -1.32254 5.96925 0
M  V30 4335 H 392.494 -0.978924 6.89485 0
M  V30 4336 H 390.121 -0.744078 7.5655 0
M  V30 4337 N 391.696 -1.35014 -0.812953 0
M  V30 4338 C 392.926 -1.30841 -1.59888 0
M  V30 4339 C 393.334 0.117576 -1.88834 0
M  V30 4340 O 392.677 1.07807 -1.48739 0
M  V30 4341 C 392.739 -2.0412 -2.95931 0
M  V30 4342 C 392.403 -3.53336 -2.89832 0
M  V30 4343 C 393.4 -4.48052 -2.63714 0
M  V30 4344 C 391.085 -3.95894 -3.0915 0
M  V30 4345 C 393.079 -5.833 -2.56982 0
M  V30 4346 C 390.766 -5.31239 -3.0204 0
M  V30 4347 C 391.764 -6.24754 -2.75991 0
M  V30 4348 O 391.452 -7.57617 -2.68833 0
M  V30 4349 H 391.184 -0.451215 -0.50337 0
M  V30 4350 H 393.738 -1.78354 -1.01877 0
M  V30 4351 H 391.968 -1.51235 -3.559 0
M  V30 4352 H 393.657 -1.93107 -3.57022 0
M  V30 4353 H 394.423 -4.16492 -2.48515 0
M  V30 4354 H 390.302 -3.23495 -3.28438 0
M  V30 4355 H 393.846 -6.56263 -2.36569 0
M  V30 4356 H 389.743 -5.62415 -3.16796 0
M  V30 4357 H 390.511 -7.67469 -2.84487 0
M  V30 4358 N 393.175 1.03435 -1.18907 0
M  V30 4359 C 394.403 1.80381 -1.01342 0
M  V30 4360 C 394.818 1.83649 0.438005 0
M  V30 4361 O 394.175 1.27655 1.30424 0
M  V30 4362 C 394.226 3.25689 -1.56873 0
M  V30 4363 O 393.947 3.22673 -2.96334 0
M  V30 4364 C 395.448 4.19255 -1.44014 0
M  V30 4365 H 392.668 0.56784 -0.35749 0
M  V30 4366 H 395.212 1.30317 -1.576 0
M  V30 4367 H 393.367 3.72962 -1.04777 0
M  V30 4368 H 393.781 4.13748 -3.22355 0
M  V30 4369 H 395.255 5.19123 -1.87657 0
M  V30 4370 H 395.732 4.37467 -0.389815 0
M  V30 4371 H 396.338 3.77851 -1.95214 0
M  V30 4372 N 394.653 0.992116 1.22453 0
M  V30 4373 C 395.586 0.486701 2.22949 0
M  V30 4374 C 396.564 -0.45259 1.56174 0
M  V30 4375 O 397.748 -0.378317 1.84665 0
M  V30 4376 C 394.875 -0.294537 3.37417 0
M  V30 4377 C 393.921 0.590628 4.22391 0
M  V30 4378 S 394.754 2.04546 4.94895 0
M  V30 4379 C 395.91 1.27369 6.12803 0
M  V30 4380 H 396.143 1.33828 2.65475 0
M  V30 4381 H 393.676 0.799023 1.32117 0
M  V30 4382 H 395.634 -0.739241 4.03789 0
M  V30 4383 H 394.295 -1.12139 2.934 0
M  V30 4384 H 393.488 -0.0104375 5.03999 0
M  V30 4385 H 393.09 0.972064 3.61147 0
M  V30 4386 H 395.382 0.540943 6.75337 0
M  V30 4387 H 396.325 2.06502 6.7732 0
M  V30 4388 H 396.733 0.787324 5.58983 0
M  V30 4389 N 396.131 -1.37776 0.765217 0
M  V30 4390 C 397.377 -2.00145 0.327072 0
M  V30 4391 C 397.71 -1.60607 -1.09175 0
M  V30 4392 O 396.985 -0.849127 -1.74986 0
M  V30 4393 C 397.268 -3.57109 0.46319 0
M  V30 4394 C 397.121 -4.06576 1.92395 0
M  V30 4395 C 398.44 -4.39888 -0.136473 0
M  V30 4396 H 395.559 -0.727113 0.120316 0
M  V30 4397 H 398.201 -1.63549 0.967039 0
M  V30 4398 H 396.351 -3.88414 -0.0816358 0
M  V30 4399 H 398.023 -3.85864 2.52798 0
M  V30 4400 H 396.266 -3.59011 2.43503 0
M  V30 4401 H 396.937 -5.15639 1.97028 0
M  V30 4402 H 399.413 -4.14803 0.328317 0
M  V30 4403 H 398.289 -5.48899 -0.0110582 0
M  V30 4404 H 398.55 -4.24758 -1.22608 0
M  V30 4405 N 397.609 -0.515225 -1.4894 0
M  V30 4406 C 398.556 0.255567 -2.29381 0
M  V30 4407 C 399.526 0.947387 -1.36432 0
M  V30 4408 O 400.711 0.951288 -1.65394 0
M  V30 4409 C 397.851 1.30551 -3.19453 0
M  V30 4410 C 396.964 0.624029 -4.27469 0
M  V30 4411 C 396.099 1.65563 -5.0474 0
M  V30 4412 C 395.138 0.956802 -6.04576 0
M  V30 4413 N 394.275 1.93326 -6.74959 0
M  V30 4414 H 399.115 -0.436607 -2.94784 0
M  V30 4415 H 396.652 -0.227154 -1.45336 0
M  V30 4416 H 398.61 1.92639 -3.70062 0
M  V30 4417 H 397.24 1.96626 -2.56004 0
M  V30 4418 H 396.292 -0.110459 -3.8024 0
M  V30 4419 H 397.604 0.0746092 -4.98744 0
M  V30 4420 H 396.758 2.35119 -5.59289 0
M  V30 4421 H 395.497 2.23893 -4.3327 0
M  V30 4422 H 394.502 0.247097 -5.49244 0
M  V30 4423 H 395.727 0.379814 -6.78037 0
M  V30 4424 H 393.673 2.50591 -6.06251 0
M  V30 4425 H 393.59 1.43489 -7.42258 0
M  V30 4426 H 394.858 2.62126 -7.34105 0
M  V30 4427 N 399.087 1.5561 -0.249682 0
M  V30 4428 C 399.997 2.25143 0.659375 0
M  V30 4429 C 401.013 1.2685 1.19101 0
M  V30 4430 O 402.189 1.59732 1.22669 0
M  V30 4431 C 399.254 2.93945 1.8384 0
M  V30 4432 C 398.315 4.07655 1.34596 0
M  V30 4433 C 397.548 4.73167 2.46878 0
M  V30 4434 O 397.771 4.37768 3.65671 0
M  V30 4435 O 396.705 5.61623 2.16478 0
M  V30 4436 H 400.531 3.03545 0.0968698 0
M  V30 4437 H 398.116 1.49389 -0.018074 0
M  V30 4438 H 399.998 3.37271 2.52638 0
M  V30 4439 H 398.673 2.18481 2.38847 0
M  V30 4440 H 397.58 3.68839 0.625174 0
M  V30 4441 H 398.913 4.84946 0.841941 0
M  V30 4442 N 400.565 -0.0233959 1.57583 0
M  V30 4443 C 401.793 -0.724682 1.93794 0
M  V30 4444 C 402.208 -1.68588 0.849912 0
M  V30 4445 O 401.565 -1.81676 -0.173204 0
M  V30 4446 C 401.616 -1.47684 3.29957 0
M  V30 4447 O 401.337 -0.554222 4.3458 0
M  V30 4448 C 402.838 -2.27477 3.80485 0
M  V30 4449 H 400.058 -0.203317 0.639455 0
M  V30 4450 H 402.602 0.0207653 2.04489 0
M  V30 4451 H 400.757 -2.17412 3.20641 0
M  V30 4452 H 401.171 -1.08232 5.13212 0
M  V30 4453 H 402.645 -2.7564 4.78254 0
M  V30 4454 H 403.122 -3.09144 3.11972 0
M  V30 4455 H 403.728 -1.62813 3.92902 0
M  V30 4456 N 402.043 -1.548 -0.295768 0
M  V30 4457 C 403.292 -1.73538 -1.02798 0
M  V30 4458 C 403.605 -0.531159 -1.8825 0
M  V30 4459 O 404.811 -0.600458 -2.64777 0
M  V30 4460 C 403.267 -3.07051 -1.87744 0
M  V30 4461 C 402.875 -4.34968 -1.07269 0
M  V30 4462 C 404.619 -3.35146 -2.60533 0
M  V30 4463 C 402.526 -5.5953 -1.91521 0
M  V30 4464 H 401.456 -0.646794 -0.387522 0
M  V30 4465 H 404.107 -1.81278 -0.284718 0
M  V30 4466 H 402.489 -2.93289 -2.66078 0
M  V30 4467 H 403.663 -4.5958 -0.335117 0
M  V30 4468 H 401.978 -4.13847 -0.460384 0
M  V30 4469 H 404.575 -4.2541 -3.23929 0
M  V30 4470 H 404.918 -2.54255 -3.29636 0
M  V30 4471 H 405.451 -3.49902 -1.89244 0
M  V30 4472 H 402.19 -6.43103 -1.26878 0
M  V30 4473 H 401.71 -5.39096 -2.62937 0
M  V30 4474 H 403.389 -5.96982 -2.49442 0
M  V30 4475 N 403.521 0.559213 -1.47345 0
M  V30 4476 C 404.77 1.31281 -1.53128 0
M  V30 4477 C 405.083 1.94602 -0.197344 0
M  V30 4478 O 406.289 2.71173 -0.133154 0
M  V30 4479 C 404.745 2.38051 -2.69925 0
M  V30 4480 C 404.353 1.8093 -4.0984 0
M  V30 4481 C 406.097 3.14604 -2.84999 0
M  V30 4482 C 404.004 2.85468 -5.1794 0
M  V30 4483 H 402.934 0.493614 -0.569966 0
M  V30 4484 H 405.585 0.594155 -1.73615 0
M  V30 4485 H 403.967 3.12822 -2.42814 0
M  V30 4486 H 405.141 1.12544 -4.46845 0
M  V30 4487 H 403.456 1.16967 -3.99634 0
M  V30 4488 H 406.053 3.92666 -3.62929 0
M  V30 4489 H 406.396 3.68665 -1.93369 0
M  V30 4490 H 406.929 2.46945 -3.1187 0
M  V30 4491 H 403.668 2.36264 -6.1144 0
M  V30 4492 H 403.188 3.52269 -4.85455 0
M  V30 4493 H 404.867 3.48996 -5.44803 0
M  V30 4494 N 404.999 1.35443 0.805782 0
M  V30 4495 C 406.224 1.32037 1.59941 0
M  V30 4496 C 406.649 -0.0994215 1.87837 0
M  V30 4497 O 406.007 -1.06648 1.46615 0
M  V30 4498 C 406.055 2.13354 2.90711 0
M  V30 4499 O 405.159 1.5148 3.83572 0
M  V30 4500 H 404.5 0.452666 0.485787 0
M  V30 4501 H 407.03 1.78496 1.00002 0
M  V30 4502 H 407.04 2.25338 3.40128 0
M  V30 4503 H 405.715 3.16572 2.69732 0
M  V30 4504 H 404.292 1.4834 3.42125 0
M  V30 4505 N 406.477 -1.02803 1.19454 0
M  V30 4506 C 407.702 -1.80378 1.02364 0
M  V30 4507 C 408.127 -1.83282 -0.423007 0
M  V30 4508 O 407.485 -1.25945 -1.30413 0
M  V30 4509 C 407.533 -3.23248 1.59821 0
M  V30 4510 O 406.637 -4.04 0.828105 0
M  V30 4511 H 405.978 -0.556799 0.361761 0
M  V30 4512 H 408.508 -1.29385 1.58495 0
M  V30 4513 H 408.518 -3.73994 1.63073 0
M  V30 4514 H 407.193 -3.2045 2.65113 0
M  V30 4515 H 405.77 -3.62635 0.86891 0
M  V30 4516 N 407.956 -0.998596 -1.21925 0
M  V30 4517 C 409.196 -0.685948 -1.92546 0
M  V30 4518 C 409.56 0.768441 -1.75952 0
M  V30 4519 O 410.761 1.19277 -2.40887 0
M  V30 4520 C 409.032 -1.08767 -3.40448 0
M  V30 4521 S 410.591 -0.894251 -4.29591 0
M  V30 4522 H 407.409 -0.250622 -0.665364 0
M  V30 4523 H 410.011 -1.28207 -1.47591 0
M  V30 4524 H 408.715 -2.14242 -3.50041 0
M  V30 4525 H 408.246 -0.48357 -3.90417 0
M  V30 4526 H 410.261 0.212149 -4.95746 0
M  V30 4527 N 409.434 1.37368 -0.772513 0
M  V30 4528 C 410.845 1.8231 -0.402493 0
M  V30 4529 C 411.196 1.6436 1.07146 0
M  V30 4530 O 410.321 1.15514 1.82991 0
M  V30 4531 C 410.916 3.30979 -0.723776 0
M  V30 4532 C 409.475 3.74195 -0.406802 0
M  V30 4533 C 408.622 2.59885 -0.967218 0
M  V30 4534 H 411.573 1.25829 -0.967099 0
M  V30 4535 H 411.594 3.80499 -0.00870832 0
M  V30 4536 H 411.106 3.44011 -1.7966 0
M  V30 4537 H 409.207 3.66732 0.658673 0
M  V30 4538 H 409.32 4.7027 -0.915588 0
M  V30 4539 H 407.684 2.51674 -0.391416 0
M  V30 4540 H 408.467 2.7571 -2.04546 0
M  V30 4541 N 410.912 0.523116 1.48665 0
M  V30 4542 C 412.158 -0.0134963 2.02796 0
M  V30 4543 C 412.491 -1.34582 1.40004 0
M  V30 4544 O 411.766 -1.86756 0.543381 0
M  V30 4545 C 412.049 -0.14276 3.59817 0
M  V30 4546 C 411.902 1.21425 4.331 0
M  V30 4547 C 413.221 -0.872856 4.31357 0
M  V30 4548 H 410.34 -0.00343074 0.736992 0
M  V30 4549 H 412.982 0.678816 1.7746 0
M  V30 4550 H 411.132 -0.732401 3.81534 0
M  V30 4551 H 412.804 1.84447 4.2282 0
M  V30 4552 H 411.047 1.79791 3.94788 0
M  V30 4553 H 411.718 1.07687 5.41394 0
M  V30 4554 H 414.194 -0.372555 4.14429 0
M  V30 4555 H 413.07 -0.932185 5.40927 0
M  V30 4556 H 413.331 -1.92161 3.98154 0
M  V30 4557 N 412.39 -1.55475 0.257931 0
M  V30 4558 C 413.636 -1.99502 -0.364266 0
M  V30 4559 C 413.969 -1.146 -1.56782 0
M  V30 4560 O 413.244 -0.211968 -1.93342 0
M  V30 4561 C 413.527 -3.51917 -0.763333 0
M  V30 4562 C 413.38 -4.4758 0.446371 0
M  V30 4563 C 414.699 -4.09742 -1.60623 0
M  V30 4564 H 411.818 -0.725277 -0.130929 0
M  V30 4565 H 414.46 -1.8653 0.361446 0
M  V30 4566 H 412.61 -3.63101 -1.38166 0
M  V30 4567 H 414.282 -4.48362 1.08487 0
M  V30 4568 H 412.525 -4.19947 1.08753 0
M  V30 4569 H 413.196 -5.51862 0.123645 0
M  V30 4570 H 415.672 -4.01727 -1.08418 0
M  V30 4571 H 414.548 -5.16631 -1.85429 0
M  V30 4572 H 414.809 -3.58889 -2.58169 0
M  V30 4573 N 413.868 0.0150385 -1.57593 0
M  V30 4574 C 415.284 0.370907 -1.5523 0
M  V30 4575 C 415.484 1.75735 -0.985882 0
M  V30 4576 O 414.54 2.44944 -0.613077 0
M  V30 4577 C 415.853 0.259908 -2.99575 0
M  V30 4578 C 417.401 0.335959 -3.11192 0
M  V30 4579 C 417.876 0.254253 -4.57294 0
M  V30 4580 N 419.367 0.312618 -4.62144 0
M  V30 4581 C 420.102 0.272505 -5.72752 0
M  V30 4582 N 419.598 0.183864 -6.92556 0
M  V30 4583 N 421.391 0.323267 -5.6117 0
M  V30 4584 H 413.542 -0.892104 -1.92757 0
M  V30 4585 H 415.805 -0.340563 -0.884715 0
M  V30 4586 H 415.511 -0.693403 -3.44797 0
M  V30 4587 H 415.385 1.048 -3.62349 0
M  V30 4588 H 417.772 1.27971 -2.65909 0
M  V30 4589 H 417.853 -0.481739 -2.51223 0
M  V30 4590 H 417.497 -0.685887 -5.03247 0
M  V30 4591 H 417.427 1.09024 -5.15191 0
M  V30 4592 H 419.918 0.38307 -3.75953 0
M  V30 4593 H 420.231 0.15874 -7.72637 0
M  V30 4594 H 418.576 0.149708 -6.94839 0
M  V30 4595 H 421.767 0.390607 -4.66467 0
M  V30 4596 H 421.94 0.288539 -6.47357 0
M  V30 4597 N 415.346 1.54954 0.287554 0
M  V30 4598 C 416.595 1.74081 1.01877 0
M  V30 4599 C 416.908 0.541135 1.87966 0
M  V30 4600 O 418.114 0.614491 2.64455 0
M  V30 4601 C 416.57 3.08042 1.86113 0
M  V30 4602 C 416.178 4.35531 1.04961 0
M  V30 4603 C 417.922 3.36523 2.58752 0
M  V30 4604 C 415.829 5.60538 1.88551 0
M  V30 4605 H 414.759 0.64884 0.384087 0
M  V30 4606 H 417.41 1.81426 0.275101 0
M  V30 4607 H 415.792 2.94696 2.64519 0
M  V30 4608 H 416.966 4.59751 0.31074 0
M  V30 4609 H 415.281 4.14085 0.43843 0
M  V30 4610 H 417.878 4.27122 3.21668 0
M  V30 4611 H 418.221 2.56 3.28283 0
M  V30 4612 H 418.754 3.50901 1.87386 0
M  V30 4613 H 415.493 6.43767 1.23466 0
M  V30 4614 H 415.013 5.40483 2.60074 0
M  V30 4615 H 416.692 5.98297 2.46273 0
M  V30 4616 N 416.824 -0.551391 1.4764 0
M  V30 4617 C 417.787 -1.64007 1.60107 0
M  V30 4618 C 418.787 -1.53601 0.47576 0
M  V30 4619 O 419.977 -1.57655 0.740988 0
M  V30 4620 C 417.109 -3.03569 1.55108 0
M  V30 4621 H 418.302 -1.543 2.57161 0
M  V30 4622 H 415.855 -0.771776 1.35917 0
M  V30 4623 H 416.59 -3.18804 0.594519 0
M  V30 4624 H 416.375 -3.12532 2.36783 0
M  V30 4625 H 417.865 -3.82762 1.66982 0
M  V30 4626 N 418.302 -1.35869 -0.798587 0
M  V30 4627 C 419.232 -1.32118 -1.92528 0
M  V30 4628 C 420.213 -0.194209 -1.68988 0
M  V30 4629 O 421.398 -0.390426 -1.90235 0
M  V30 4630 C 418.528 -1.10047 -3.29404 0
M  V30 4631 C 417.482 -2.19471 -3.67446 0
M  V30 4632 C 416.808 -1.82555 -5.02571 0
M  V30 4633 C 418.108 -3.61495 -3.76987 0
M  V30 4634 H 419.802 -2.26394 -1.95924 0
M  V30 4635 H 417.348 -1.08981 -0.94123 0
M  V30 4636 H 419.301 -1.06061 -4.07835 0
M  V30 4637 H 418.025 -0.122195 -3.26371 0
M  V30 4638 H 416.684 -2.22568 -2.91306 0
M  V30 4639 H 416.332 -0.833249 -4.9605 0
M  V30 4640 H 416.032 -2.5581 -5.28995 0
M  V30 4641 H 417.556 -1.80108 -5.83432 0
M  V30 4642 H 418.97 -3.60676 -4.4563 0
M  V30 4643 H 417.367 -4.33577 -4.14887 0
M  V30 4644 H 418.437 -3.97065 -2.78329 0
M  V30 4645 N 419.78 1.02168 -1.19998 0
M  V30 4646 C 421.01 1.79036 -1.031 0
M  V30 4647 C 421.418 1.84409 0.423078 0
M  V30 4648 O 420.761 1.29228 1.30559 0
M  V30 4649 C 420.823 3.25185 -1.53281 0
M  V30 4650 C 420.487 3.43431 -3.01503 0
M  V30 4651 C 421.484 3.33063 -3.99206 0
M  V30 4652 C 419.169 3.69412 -3.40353 0
M  V30 4653 C 421.163 3.48413 -5.33748 0
M  V30 4654 C 418.85 3.84406 -4.75053 0
M  V30 4655 C 419.848 3.7391 -5.71559 0
M  V30 4656 O 419.536 3.88452 -7.03818 0
M  V30 4657 H 419.268 0.570043 -0.363355 0
M  V30 4658 H 421.822 1.29524 -1.59414 0
M  V30 4659 H 420.052 3.75756 -0.913483 0
M  V30 4660 H 421.741 3.83671 -1.32481 0
M  V30 4661 H 422.507 3.12934 -3.70537 0
M  V30 4662 H 418.386 3.76671 -2.65782 0
M  V30 4663 H 421.93 3.40137 -6.09059 0
M  V30 4664 H 417.827 4.04035 -5.03415 0
M  V30 4665 H 418.595 4.055 -7.10993 0
M  V30 4666 N 421.258 1.00505 1.21394 0
M  V30 4667 C 422.505 0.687774 1.90462 0
M  V30 4668 C 422.833 -0.78147 1.7811 0
M  V30 4669 O 422.088 -1.58208 1.1519 0
M  V30 4670 C 422.387 1.0546 3.41486 0
M  V30 4671 C 422.053 2.51812 3.74034 0
M  V30 4672 C 420.715 2.91804 3.82628 0
M  V30 4673 C 423.067 3.46614 3.8924 0
M  V30 4674 C 420.395 4.2556 4.03876 0
M  V30 4675 C 422.747 4.80044 4.11995 0
M  V30 4676 C 421.411 5.19759 4.18816 0
M  V30 4677 H 420.681 0.251674 0.696951 0
M  V30 4678 H 423.328 1.26349 1.43903 0
M  V30 4679 H 421.633 0.397133 3.89782 0
M  V30 4680 H 423.33 0.786976 3.93202 0
M  V30 4681 H 419.92 2.1982 3.67936 0
M  V30 4682 H 424.104 3.16883 3.81967 0
M  V30 4683 H 419.36 4.55901 4.07387 0
M  V30 4684 H 423.534 5.53439 4.22704 0
M  V30 4685 H 421.161 6.23418 4.35033 0
M  V30 4686 N 422.737 -1.36956 0.779787 0
M  V30 4687 C 423.687 -2.27539 0.144892 0
M  V30 4688 C 424.671 -1.46493 -0.665488 0
M  V30 4689 O 425.863 -1.68968 -0.527141 0
M  V30 4690 C 422.992 -3.35512 -0.727082 0
M  V30 4691 C 422.078 -4.24001 0.0915642 0
M  V30 4692 N 422.469 -4.92757 1.14125 0
M  V30 4693 C 420.767 -4.45807 -0.131141 0
M  V30 4694 C 421.468 -5.58138 1.6388 0
M  V30 4695 N 420.444 -5.35241 0.94962 0
M  V30 4696 H 424.246 -2.78176 0.948446 0
M  V30 4697 H 421.76 -1.50169 0.618315 0
M  V30 4698 H 423.757 -3.99324 -1.19776 0
M  V30 4699 H 422.417 -2.86431 -1.52929 0
M  V30 4700 H 423.428 -4.94984 1.52353 0
M  V30 4701 H 420.105 -4.07582 -0.904621 0
M  V30 4702 H 421.495 -6.23071 2.51461 0
M  V30 4703 N 424.215 -0.530993 -1.48385 0
M  V30 4704 C 425.626 -0.0907905 -1.86479 0
M  V30 4705 C 425.977 1.33213 -1.44044 0
M  V30 4706 O 425.102 1.99783 -0.831615 0
M  V30 4707 C 425.697 -0.157987 -3.38431 0
M  V30 4708 C 424.256 0.227026 -3.75715 0
M  V30 4709 C 423.403 -0.5173 -2.72432 0
M  V30 4710 H 426.354 -0.742186 -1.40276 0
M  V30 4711 H 426.375 0.630053 -3.75247 0
M  V30 4712 H 425.887 -1.19372 -3.69286 0
M  V30 4713 H 423.988 1.26486 -3.50474 0
M  V30 4714 H 424.101 -0.113288 -4.78966 0
M  V30 4715 H 422.465 0.0365527 -2.54674 0
M  V30 4716 H 423.248 -1.55368 -3.0613 0
M  V30 4717 N 425.693 1.55336 -0.266172 0
M  V30 4718 C 426.94 1.99397 0.353158 0
M  V30 4719 C 427.268 1.15451 1.56529 0
M  V30 4720 O 426.523 0.209974 1.9457 0
M  V30 4721 C 426.822 3.48606 0.787957 0
M  V30 4722 C 426.488 4.49773 -0.318541 0
M  V30 4723 C 425.15 4.77158 -0.62239 0
M  V30 4724 C 427.502 5.10212 -1.06459 0
M  V30 4725 C 424.83 5.62251 -1.67602 0
M  V30 4726 C 427.182 5.96449 -2.10788 0
M  V30 4727 C 425.846 6.22158 -2.41817 0
M  V30 4728 H 425.116 0.729644 0.12923 0
M  V30 4729 H 427.763 1.87732 -0.37802 0
M  V30 4730 H 426.068 3.57701 1.59866 0
M  V30 4731 H 427.765 3.80098 1.27775 0
M  V30 4732 H 424.355 4.2854 -0.0715925 0
M  V30 4733 H 428.539 4.89086 -0.843098 0
M  V30 4734 H 423.795 5.80419 -1.92155 0
M  V30 4735 H 427.969 6.42317 -2.69076 0
M  V30 4736 H 425.596 6.87888 -3.23596 0
M  V30 4737 N 427.171 -0.0066808 1.57599 0
M  V30 4738 C 428.411 -0.697501 1.92131 0
M  V30 4739 C 428.775 -1.71306 0.867071 0
M  V30 4740 O 429.976 -2.45377 1.09743 0
M  V30 4741 C 428.247 -1.32978 3.3174 0
M  V30 4742 S 429.806 -2.04665 3.88146 0
M  V30 4743 H 426.624 -0.230555 0.672581 0
M  V30 4744 H 429.226 0.0484026 1.9544 0
M  V30 4745 H 427.93 -0.57772 4.06313 0
M  V30 4746 H 427.461 -2.11376 3.31789 0
M  V30 4747 H 429.476 -3.32097 3.68682 0
M  V30 4748 N 428.649 -1.55105 -0.279332 0
M  V30 4749 C 429.579 -1.90557 -1.34945 0
M  V30 4750 C 430.56 -0.766738 -1.51839 0
M  V30 4751 O 431.745 -1.02434 -1.64988 0
M  V30 4752 C 428.875 -2.17193 -2.71006 0
M  V30 4753 C 427.829 -3.33021 -2.68851 0
M  V30 4754 C 427.155 -3.45123 -4.08405 0
M  V30 4755 C 428.455 -4.69578 -2.28678 0
M  V30 4756 H 430.149 -2.80188 -1.05522 0
M  V30 4757 H 427.695 -1.34811 -0.506173 0
M  V30 4758 H 429.648 -2.40581 -3.45975 0
M  V30 4759 H 428.372 -1.24355 -3.01999 0
M  V30 4760 H 427.031 -3.0959 -1.9634 0
M  V30 4761 H 426.679 -2.49762 -4.3661 0
M  V30 4762 H 426.379 -4.22995 -4.07859 0
M  V30 4763 H 427.903 -3.70796 -4.85121 0
M  V30 4764 H 429.317 -4.92553 -2.93368 0
M  V30 4765 H 427.714 -5.5032 -2.39306 0
M  V30 4766 H 428.784 -4.68828 -1.23807 0
M  V30 4767 N 430.127 0.543554 -1.4793 0
M  V30 4768 C 431.367 1.31072 -1.56843 0
M  V30 4769 C 431.731 1.90604 -0.231124 0
M  V30 4770 O 432.932 2.68091 -0.195165 0
M  V30 4771 C 431.203 2.38106 -2.66533 0
M  V30 4772 S 432.762 3.24729 -2.95122 0
M  V30 4773 H 429.58 0.446035 -0.553691 0
M  V30 4774 H 432.182 0.620777 -1.85382 0
M  V30 4775 H 430.886 1.92828 -3.62278 0
M  V30 4776 H 430.417 3.11824 -2.39852 0
M  V30 4777 H 432.432 4.37891 -2.3338 0
M  V30 4778 N 431.605 1.3629 0.791371 0
M  V30 4779 C 432.535 1.33137 1.91825 0
M  V30 4780 C 433.516 0.203168 1.68882 0
M  V30 4781 O 434.701 0.400509 1.90025 0
M  V30 4782 C 431.831 1.11793 3.28816 0
M  V30 4783 C 430.785 2.21417 3.66277 0
M  V30 4784 C 430.111 1.85218 5.01596 0
M  V30 4785 C 431.411 3.63489 3.75064 0
M  V30 4786 H 433.105 2.2743 1.9472 0
M  V30 4787 H 430.651 1.09479 0.935437 0
M  V30 4788 H 432.604 1.08222 4.07266 0
M  V30 4789 H 431.328 0.139501 3.26302 0
M  V30 4790 H 429.987 2.2411 2.90121 0
M  V30 4791 H 429.635 0.859544 4.95602 0
M  V30 4792 H 429.335 2.58611 5.27631 0
M  V30 4793 H 430.859 1.832 5.82469 0
M  V30 4794 H 432.273 3.63034 4.43711 0
M  V30 4795 H 430.67 4.35771 4.12582 0
M  V30 4796 H 431.74 3.98536 2.76219 0
M  V30 4797 N 433.083 -1.0153 1.20538 0
M  V30 4798 C 434.046 -2.0826 0.957098 0
M  V30 4799 C 435.046 -1.60657 -0.0678655 0
M  V30 4800 O 436.236 -1.73385 0.168332 0
M  V30 4801 C 433.368 -3.38033 0.441188 0
M  V30 4802 H 434.561 -2.31719 1.90384 0
M  V30 4803 H 432.114 -1.1835 1.02093 0
M  V30 4804 H 432.849 -3.20249 -0.510961 0
M  V30 4805 H 432.634 -3.73911 1.18038 0
M  V30 4806 H 434.124 -4.16613 0.287009 0
M  V30 4807 N 434.561 -1.01147 -1.20859 0
M  V30 4808 C 435.786 -0.716698 -1.94623 0
M  V30 4809 C 436.211 0.715415 -1.73964 0
M  V30 4810 O 435.569 1.49157 -1.03062 0
M  V30 4811 C 435.617 -1.0513 -3.44935 0
M  V30 4812 O 434.721 -0.160131 -4.12089 0
M  V30 4813 H 434.062 -0.266404 -0.608214 0
M  V30 4814 H 436.592 -1.35346 -1.53436 0
M  V30 4815 H 436.602 -1.00086 -3.95533 0
M  V30 4816 H 435.277 -2.09475 -3.59295 0
M  V30 4817 H 433.854 -0.267657 -3.71938 0
M  V30 4818 N 436.039 1.36541 -0.78704 0
M  V30 4819 C 436.969 2.32659 -0.197992 0
M  V30 4820 C 437.95 1.56533 0.665697 0
M  V30 4821 O 439.135 1.84698 0.60001 0
M  V30 4822 C 436.265 3.40778 0.669901 0
M  V30 4823 C 435.219 4.27897 -0.0937039 0
M  V30 4824 C 434.545 5.27163 0.894629 0
M  V30 4825 C 435.845 5.06334 -1.28154 0
M  V30 4826 H 437.539 2.82171 -1.00099 0
M  V30 4827 H 435.085 1.35665 -0.482793 0
M  V30 4828 H 437.038 4.07008 1.09191 0
M  V30 4829 H 435.762 2.89827 1.50558 0
M  V30 4830 H 434.421 3.6322 -0.49666 0
M  V30 4831 H 434.069 4.72486 1.72527 0
M  V30 4832 H 433.769 5.86317 0.388149 0
M  V30 4833 H 435.293 5.96266 1.31525 0
M  V30 4834 H 436.707 5.65617 -0.93541 0
M  V30 4835 H 435.104 5.74888 -1.72115 0
M  V30 4836 H 436.174 4.38114 -2.07807 0
M  V30 4837 N 437.518 0.538854 1.48102 0
M  V30 4838 C 438.758 0.0101209 2.04397 0
M  V30 4839 C 439.122 -1.30741 1.40609 0
M  V30 4840 O 440.323 -1.92272 1.87843 0
M  V30 4841 C 438.594 -0.100232 3.57259 0
M  V30 4842 S 440.153 -0.577746 4.3498 0
M  V30 4843 H 436.971 0.0163171 0.710813 0
M  V30 4844 H 439.573 0.721429 1.81702 0
M  V30 4845 H 438.277 0.863351 4.01216 0
M  V30 4846 H 437.808 -0.835651 3.84422 0
M  V30 4847 H 439.823 -1.84073 4.60794 0
M  V30 4848 N 438.996 -1.55193 0.274407 0
M  V30 4849 C 440.236 -2.01488 -0.343778 0
M  V30 4850 C 440.6 -1.1586 -1.53103 0
M  V30 4851 O 441.801 -1.51732 -2.2188 0
M  V30 4852 C 440.072 -3.50134 -0.717021 0
M  V30 4853 S 441.631 -4.18417 -1.32184 0
M  V30 4854 H 438.449 -0.70291 -0.106948 0
M  V30 4855 H 441.051 -1.91446 0.396075 0
M  V30 4856 H 439.755 -4.10104 0.155947 0
M  V30 4857 H 439.286 -3.64159 -1.48835 0
M  V30 4858 H 441.301 -4.21984 -2.61044 0
M  V30 4859 N 440.474 -0.00167713 -1.576 0
M  V30 4860 C 441.404 0.988091 -2.11563 0
M  V30 4861 C 442.385 1.35736 -1.02517 0
M  V30 4862 O 443.57 1.44082 -1.30208 0
M  V30 4863 C 440.7 2.27941 -2.62031 0
M  V30 4864 C 439.654 2.0517 -3.75619 0
M  V30 4865 C 438.98 3.4033 -4.12407 0
M  V30 4866 C 440.28 1.41294 -5.02825 0
M  V30 4867 H 441.974 0.538771 -2.94513 0
M  V30 4868 H 439.52 0.257712 -1.41675 0
M  V30 4869 H 441.473 2.97539 -2.9841 0
M  V30 4870 H 440.197 2.74989 -1.76205 0
M  V30 4871 H 438.856 1.37998 -3.39635 0
M  V30 4872 H 438.504 3.85085 -3.23603 0
M  V30 4873 H 438.204 3.25909 -4.88935 0
M  V30 4874 H 439.728 4.1124 -4.51347 0
M  V30 4875 H 441.142 2.00851 -5.36965 0
M  V30 4876 H 439.539 1.37356 -5.84169 0
M  V30 4877 H 440.609 0.382362 -4.8339 0
M  V30 4878 N 441.952 1.55251 0.271103 0
M  V30 4879 C 442.882 1.9127 1.33933 0
M  V30 4880 C 443.863 0.77478 1.5143 0
M  V30 4881 O 445.048 1.03307 1.64442 0
M  V30 4882 C 442.178 2.18627 2.69851 0
M  V30 4883 C 441.132 3.34442 2.67081 0
M  V30 4884 C 440.458 3.47284 4.06569 0
M  V30 4885 C 441.758 4.70784 2.26185 0
M  V30 4886 H 443.452 2.80744 1.04035 0
M  V30 4887 H 440.998 1.35077 0.499017 0
M  V30 4888 H 442.951 2.42413 3.44694 0
M  V30 4889 H 441.675 1.25955 3.01335 0
M  V30 4890 H 440.334 3.10627 1.94695 0
M  V30 4891 H 439.982 2.52074 4.35279 0
M  V30 4892 H 439.682 4.25152 4.0561 0
M  V30 4893 H 441.206 3.73363 4.83148 0
M  V30 4894 H 442.62 4.94102 2.90751 0
M  V30 4895 H 441.017 5.51582 2.36384 0
M  V30 4896 H 442.087 4.69478 1.21319 0
M  V30 4897 N 443.43 -0.535701 1.48216 0
M  V30 4898 C 444.707 -1.29683 1.46429 0
M  V30 4899 C 445.087 -2.10391 0.172852 0
M  V30 4900 O 444.435 -2.12282 -0.845488 0
M  V30 4901 C 444.645 -2.18313 2.72287 0
M  V30 4902 C 445.993 -2.78639 3.20383 0
M  V30 4903 O 447.017 -2.28604 2.73164 0
M  V30 4904 O 445.876 -3.69636 4.02531 0
M  V30 4905 H 442.97 -0.585026 0.584529 0
M  V30 4906 H 445.516 -0.552827 1.60443 0
M  V30 4907 H 444.288 -1.58421 3.57797 0
M  V30 4908 H 443.911 -2.99971 2.60966 0
M  V30 4909 N 444.908 -1.36708 -0.784132 0
M  V30 4910 C 446.319 -1.27947 -1.35965 0
M  V30 4911 C 446.67 0.0784013 -1.96043 0
M  V30 4912 O 445.795 0.979989 -1.92938 0
M  V30 4913 C 446.39 -2.31689 -2.47195 0
M  V30 4914 C 444.949 -2.26601 -3.00548 0
M  V30 4915 C 444.096 -2.16184 -1.73666 0
M  V30 4916 H 447.047 -1.4751 -0.585358 0
M  V30 4917 H 447.068 -1.95638 -3.26352 0
M  V30 4918 H 446.58 -3.30506 -2.03439 0
M  V30 4919 H 444.681 -1.31268 -3.48711 0
M  V30 4920 H 444.794 -3.19508 -3.57004 0
M  V30 4921 H 443.158 -1.62524 -1.96107 0
M  V30 4922 H 443.941 -3.16896 -1.32031 0
M  V30 4923 N 446.386 1.0089 -1.21074 0
M  V30 4924 C 447.635 1.74019 -1.01981 0
M  V30 4925 C 447.948 1.90408 0.447665 0
M  V30 4926 O 449.154 2.60707 0.757906 0
M  V30 4927 C 447.61 3.13026 -1.77603 0
M  V30 4928 C 447.218 3.04623 -3.28495 0
M  V30 4929 C 448.962 3.90312 -1.66904 0
M  V30 4930 C 446.869 4.38685 -3.96623 0
M  V30 4931 H 445.799 0.652422 -0.377971 0
M  V30 4932 H 448.45 1.12755 -1.44771 0
M  V30 4933 H 446.832 3.74878 -1.27604 0
M  V30 4934 H 448.006 2.52032 -3.85767 0
M  V30 4935 H 446.321 2.40827 -3.39693 0
M  V30 4936 H 448.918 4.8951 -2.15138 0
M  V30 4937 H 449.261 4.11558 -0.62658 0
M  V30 4938 H 449.794 3.35104 -2.14359 0
M  V30 4939 H 446.533 4.22641 -5.01054 0
M  V30 4940 H 446.053 4.91252 -3.4414 0
M  V30 4941 H 447.732 5.075 -4.01314 0
M  V30 4942 N 447.864 1.01787 1.20321 0
M  V30 4943 C 448.794 0.609625 2.25401 0
M  V30 4944 C 449.775 -0.375951 1.65893 0
M  V30 4945 O 450.96 -0.261101 1.92437 0
M  V30 4946 C 448.09 -0.0515995 3.47262 0
M  V30 4947 C 447.044 0.855095 4.19371 0
M  V30 4948 C 446.37 0.0595757 5.34667 0
M  V30 4949 C 447.67 2.16374 4.75373 0
M  V30 4950 H 449.364 1.48803 2.59804 0
M  V30 4951 H 446.91 0.716934 1.24884 0
M  V30 4952 H 448.863 -0.348764 4.19954 0
M  V30 4953 H 447.587 -0.964726 3.12027 0
M  V30 4954 H 446.246 1.13628 3.48546 0
M  V30 4955 H 445.894 -0.85524 4.95676 0
M  V30 4956 H 445.594 0.663406 5.83843 0
M  V30 4957 H 447.118 -0.231105 6.10162 0
M  V30 4958 H 448.532 1.92885 5.39878 0
M  V30 4959 H 446.929 2.71853 5.34991 0
M  V30 4960 H 447.999 2.82589 3.94045 0
M  V30 4961 N 449.342 -1.36122 0.79427 0
M  V30 4962 C 450.572 -2.03067 0.380437 0
M  V30 4963 C 450.98 -1.60018 -1.00949 0
M  V30 4964 O 450.323 -0.787425 -1.65968 0
M  V30 4965 C 450.385 -3.57587 0.37034 0
M  V30 4966 C 450.049 -4.23855 1.70867 0
M  V30 4967 C 451.046 -4.46404 2.66496 0
M  V30 4968 C 448.731 -4.61229 1.9893 0
M  V30 4969 C 450.725 -5.05412 3.88378 0
M  V30 4970 C 448.412 -5.19953 3.21079 0
M  V30 4971 C 449.41 -5.41985 4.15621 0
M  V30 4972 O 449.098 -5.99475 5.35616 0
M  V30 4973 H 448.83 -0.658168 0.154243 0
M  V30 4974 H 451.384 -1.7498 1.0757 0
M  V30 4975 H 449.614 -3.84814 -0.381444 0
M  V30 4976 H 451.303 -4.05895 -0.0194894 0
M  V30 4977 H 452.069 -4.17921 2.46103 0
M  V30 4978 H 447.948 -4.43402 1.26158 0
M  V30 4979 H 451.492 -5.22524 4.62185 0
M  V30 4980 H 447.389 -5.47862 3.41347 0
M  V30 4981 H 448.157 -6.17937 5.36745 0
M  V30 4982 N 450.82 -0.546701 -1.47814 0
M  V30 4983 C 452.05 -0.0232519 -2.06587 0
M  V30 4984 C 452.458 1.2712 -1.40133 0
M  V30 4985 O 451.801 1.77091 -0.488305 0
M  V30 4986 C 451.863 0.254117 -3.58601 0
M  V30 4987 C 451.527 -0.949331 -4.47031 0
M  V30 4988 C 452.524 -1.85216 -4.85789 0
M  V30 4989 C 450.209 -1.16104 -4.88697 0
M  V30 4990 C 452.203 -2.95047 -5.65001 0
M  V30 4991 C 449.89 -2.26247 -5.67676 0
M  V30 4992 C 450.888 -3.1555 -6.05737 0
M  V30 4993 O 450.576 -4.23784 -6.83127 0
M  V30 4994 H 450.308 -0.0380082 -0.674931 0
M  V30 4995 H 452.862 -0.756631 -1.90956 0
M  V30 4996 H 451.092 1.04168 -3.72406 0
M  V30 4997 H 452.781 0.72167 -3.99433 0
M  V30 4998 H 453.547 -1.70061 -4.54207 0
M  V30 4999 H 449.426 -0.475159 -4.58545 0
M  V30 5000 H 452.97 -3.64778 -5.94628 0
M  V30 5001 H 448.867 -2.41379 -5.98671 0
M  V30 5002 H 449.635 -4.21701 -7.01506 0
M  V30 5003 N 452.299 1.55045 -0.282633 0
M  V30 5004 C 453.546 1.9976 0.33199 0
M  V30 5005 C 453.874 1.17105 1.55295 0
M  V30 5006 O 453.129 0.230599 1.94337 0
M  V30 5007 C 453.428 3.49422 0.750938 0
M  V30 5008 C 453.094 4.4941 -0.366228 0
M  V30 5009 C 451.756 4.76471 -0.672964 0
M  V30 5010 C 454.108 5.09054 -1.11864 0
M  V30 5011 C 451.436 5.60442 -1.73556 0
M  V30 5012 C 453.788 5.9418 -2.17102 0
M  V30 5013 C 452.452 6.19558 -2.48402 0
M  V30 5014 H 451.722 0.730974 0.121484 0
M  V30 5015 H 454.369 1.8732 -0.39791 0
M  V30 5016 H 452.674 3.59377 1.56063 0
M  V30 5017 H 454.371 3.81432 1.23736 0
M  V30 5018 H 450.961 4.2844 -0.117041 0
M  V30 5019 H 455.145 4.88165 -0.894925 0
M  V30 5020 H 450.401 5.78349 -1.983 0
M  V30 5021 H 454.575 6.39427 -2.75873 0
M  V30 5022 H 452.202 6.84417 -3.30874 0
M  V30 5023 N 453.777 0.010035 1.57597 0
M  V30 5024 C 454.71 -1.01234 2.04516 0
M  V30 5025 C 455.688 -1.32886 0.937024 0
M  V30 5026 O 456.872 -1.44879 1.20592 0
M  V30 5027 C 453.999 -2.33738 2.45121 0
M  V30 5028 C 453.045 -2.17679 3.66767 0
M  V30 5029 S 453.878 -1.49343 5.14254 0
M  V30 5030 C 455.034 -2.83256 5.58137 0
M  V30 5031 H 455.267 -0.612866 2.90914 0
M  V30 5032 H 452.8 -0.201124 1.53084 0
M  V30 5033 H 454.758 -3.09922 2.69182 0
M  V30 5034 H 453.419 -2.70823 1.59103 0
M  V30 5035 H 452.612 -3.1559 3.92962 0
M  V30 5036 H 452.214 -1.4964 3.42759 0
M  V30 5037 H 454.506 -3.79538 5.6121 0
M  V30 5038 H 455.449 -2.61749 6.57946 0
M  V30 5039 H 455.857 -2.87627 4.85727 0
M  V30 5040 N 455.255 -1.55392 -0.262866 0
M  V30 5041 C 456.218 -1.88181 -1.30846 0
M  V30 5042 C 457.218 -0.757079 -1.41862 0
M  V30 5043 O 458.408 -1.02519 -1.40838 0
M  V30 5044 C 455.54 -2.09609 -2.68844 0
M  V30 5045 H 456.733 -2.81659 -1.02997 0
M  V30 5046 H 454.286 -1.48039 -0.501414 0
M  V30 5047 H 455.021 -1.18547 -3.01856 0
M  V30 5048 H 454.806 -2.91508 -2.62231 0
M  V30 5049 H 456.296 -2.36215 -3.44372 0
M  V30 5050 N 456.733 0.527833 -1.48498 0
M  V30 5051 C 457.958 1.313 -1.60546 0
M  V30 5052 C 458.383 1.86199 -0.26672 0
M  V30 5053 O 457.741 1.64513 0.761918 0
M  V30 5054 C 457.789 2.43818 -2.65678 0
M  V30 5055 O 456.893 3.46916 -2.22987 0
M  V30 5056 H 456.234 0.388784 -0.538277 0
M  V30 5057 H 458.764 0.634896 -1.945 0
M  V30 5058 H 458.774 2.89973 -2.87018 0
M  V30 5059 H 457.449 2.03222 -3.62869 0
M  V30 5060 H 456.026 3.06864 -2.11869 0
M  V30 5061 N 458.211 1.37122 0.776871 0
M  V30 5062 C 459.121 1.34651 1.9211 0
M  V30 5063 C 460.137 0.246824 1.7224 0
M  V30 5064 O 461.313 0.48134 1.95563 0
M  V30 5065 C 458.378 1.14748 3.2716 0
M  V30 5066 C 457.439 2.34308 3.5972 0
M  V30 5067 C 456.672 2.15345 4.88326 0
M  V30 5068 O 456.895 1.13507 5.58992 0
M  V30 5069 O 455.829 3.03414 5.1983 0
M  V30 5070 H 459.655 2.31013 1.97146 0
M  V30 5071 H 457.24 1.17799 0.918901 0
M  V30 5072 H 459.122 1.05616 4.0795 0
M  V30 5073 H 457.797 0.214562 3.22988 0
M  V30 5074 H 456.704 2.49011 2.79185 0
M  V30 5075 H 458.037 3.26149 3.68629 0
M  V30 5076 N 459.689 -1.00246 1.21608 0
M  V30 5077 C 460.936 -1.74061 1.03485 0
M  V30 5078 C 461.264 -1.89658 -0.431308 0
M  V30 5079 O 460.519 -1.42976 -1.33627 0
M  V30 5080 C 460.818 -3.15448 1.68009 0
M  V30 5081 C 460.484 -3.19792 3.17874 0
M  V30 5082 C 459.146 -3.20685 3.58768 0
M  V30 5083 C 461.498 -3.16835 4.13842 0
M  V30 5084 C 458.826 -3.16309 4.94131 0
M  V30 5085 C 461.178 -3.14001 5.49169 0
M  V30 5086 C 459.842 -3.13204 5.89457 0
M  V30 5087 H 459.112 -0.636934 0.378677 0
M  V30 5088 H 461.759 -1.17473 1.51236 0
M  V30 5089 H 460.064 -3.75284 1.12557 0
M  V30 5090 H 461.761 -3.71285 1.51487 0
M  V30 5091 H 458.351 -3.19842 2.85305 0
M  V30 5092 H 462.535 -3.15303 3.83272 0
M  V30 5093 H 457.791 -3.14032 5.24589 0
M  V30 5094 H 461.965 -3.10667 6.23265 0
M  V30 5095 H 459.592 -3.09568 6.94314 0
M  V30 5096 N 461.167 -1.02423 -1.1978 0
M  V30 5097 C 462.583 -0.740459 -1.41384 0
M  V30 5098 C 462.783 0.676827 -1.89793 0
M  V30 5099 O 461.839 1.4435 -2.0717 0
M  V30 5100 C 463.152 -1.77264 -2.42895 0
M  V30 5101 C 464.7 -1.79165 -2.56649 0
M  V30 5102 C 465.175 -2.8133 -3.6141 0
M  V30 5103 N 466.666 -2.80118 -3.68901 0
M  V30 5104 C 467.401 -3.55824 -4.49641 0
M  V30 5105 N 466.897 -4.41231 -5.34123 0
M  V30 5106 N 468.69 -3.44387 -4.44246 0
M  V30 5107 H 460.841 -1.9391 -0.866764 0
M  V30 5108 H 463.104 -0.838074 -0.443098 0
M  V30 5109 H 462.81 -2.7884 -2.14339 0
M  V30 5110 H 462.684 -1.59108 -3.42001 0
M  V30 5111 H 465.071 -0.782702 -2.84531 0
M  V30 5112 H 465.152 -2.01396 -1.57713 0
M  V30 5113 H 464.796 -3.82394 -3.34271 0
M  V30 5114 H 464.726 -2.56359 -4.59986 0
M  V30 5115 H 467.217 -2.1817 -3.08562 0
M  V30 5116 H 467.53 -4.95747 -5.92836 0
M  V30 5117 H 465.875 -4.45306 -5.33599 0
M  V30 5118 H 469.066 -2.7708 -3.77285 0
M  V30 5119 H 469.239 -4.0364 -5.06931 0
M  V30 5120 N 462.645 1.35699 -0.801477 0
M  V30 5121 C 463.922 1.9324 -0.302937 0
M  V30 5122 C 464.302 1.73209 1.20672 0
M  V30 5123 O 463.65 1.09809 2.00385 0
M  V30 5124 C 463.86 3.41728 -0.708747 0
M  V30 5125 C 465.208 4.18868 -0.695328 0
M  V30 5126 O 466.232 3.5022 -0.649971 0
M  V30 5127 O 465.091 5.41342 -0.749081 0
M  V30 5128 H 462.185 0.82331 -0.0780367 0
M  V30 5129 H 464.731 1.44806 -0.884832 0
M  V30 5130 H 463.503 3.50015 -1.74944 0
M  V30 5131 H 463.126 3.97471 -0.101384 0
M  V30 5132 N 464.123 0.554532 1.47522 0
M  V30 5133 C 465.055 -0.232106 2.28022 0
M  V30 5134 C 466.068 -0.881865 1.36847 0
M  V30 5135 O 467.257 -0.756168 1.61692 0
M  V30 5136 C 464.357 -1.34604 3.11022 0
M  V30 5137 C 463.53 -0.793582 4.30141 0
M  V30 5138 C 462.589 -1.79168 4.94758 0
M  V30 5139 O 461.615 -1.33886 5.5323 0
M  V30 5140 N 462.817 -3.12495 4.89211 0
M  V30 5141 H 465.582 0.458407 2.96173 0
M  V30 5142 H 463.143 0.390433 1.57122 0
M  V30 5143 H 465.135 -2.01243 3.51118 0
M  V30 5144 H 463.705 -1.93983 2.45131 0
M  V30 5145 H 462.925 0.0495025 3.94169 0
M  V30 5146 H 464.213 -0.403776 5.07195 0
M  V30 5147 H 463.611 -3.51931 4.42901 0
M  V30 5148 H 462.168 -3.74698 5.33333 0
M  V30 5149 N 465.601 -1.54893 0.290851 0
M  V30 5150 C 466.531 -2.26103 -0.583084 0
M  V30 5151 C 467.512 -1.25684 -1.14619 0
M  V30 5152 O 468.697 -1.54436 -1.17741 0
M  V30 5153 C 465.827 -2.99409 -1.75987 0
M  V30 5154 C 464.781 -4.0689 -1.32758 0
M  V30 5155 C 464.107 -4.67856 -2.58872 0
M  V30 5156 C 465.407 -5.20215 -0.46624 0
M  V30 5157 H 467.101 -2.99398 0.0108214 0
M  V30 5158 H 464.647 -1.43998 0.00664468 0
M  V30 5159 H 466.6 -3.47943 -2.37727 0
M  V30 5160 H 465.324 -2.23675 -2.37985 0
M  V30 5161 H 463.983 -3.59191 -0.733299 0
M  V30 5162 H 463.631 -3.88772 -3.19163 0
M  V30 5163 H 463.331 -5.40438 -2.30653 0
M  V30 5164 H 464.855 -5.19147 -3.21433 0
M  V30 5165 H 466.269 -5.64704 -0.989047 0
M  V30 5166 H 464.666 -5.99455 -0.27826 0
M  V30 5167 H 465.736 -4.82198 0.511173 0
M  V30 5168 N 467.08 -0.0183926 -1.57589 0
M  V30 5169 C 468.305 0.676634 -1.96052 0
M  V30 5170 C 468.73 1.6548 -0.894307 0
M  V30 5171 O 468.088 1.80712 0.145849 0
M  V30 5172 C 468.136 1.36872 -3.33614 0
M  V30 5173 O 467.24 2.48372 -3.29219 0
M  V30 5174 H 466.581 0.1786 -0.63953 0
M  V30 5175 H 469.111 -0.077056 -2.04455 0
M  V30 5176 H 469.121 1.72797 -3.69601 0
M  V30 5177 H 467.796 0.651636 -4.10763 0
M  V30 5178 H 466.373 2.14639 -3.04934 0
M  V30 5179 N 468.558 1.5553 0.254621 0
M  V30 5180 C 469.974 1.4778 0.602753 0
M  V30 5181 C 470.174 0.707047 1.88688 0
M  V30 5182 O 469.23 0.233288 2.5142 0
M  V30 5183 C 470.543 2.92133 0.712648 0
M  V30 5184 C 472.091 3.02458 0.805488 0
M  V30 5185 C 472.566 4.48102 0.947009 0
M  V30 5186 N 474.057 4.52008 1.01207 0
M  V30 5187 C 474.792 5.61939 1.1407 0
M  V30 5188 N 474.288 6.81697 1.23536 0
M  V30 5189 N 476.081 5.49719 1.17325 0
M  V30 5190 H 468.232 2.04085 -0.588463 0
M  V30 5191 H 470.495 0.926229 -0.202001 0
M  V30 5192 H 470.201 3.51332 -0.160766 0
M  V30 5193 H 470.075 3.42187 1.58707 0
M  V30 5194 H 472.462 2.43344 1.66936 0
M  V30 5195 H 472.543 2.55627 -0.0939266 0
M  V30 5196 H 472.187 5.07824 0.087725 0
M  V30 5197 H 472.117 4.92607 1.86135 0
M  V30 5198 H 474.608 3.65749 0.950577 0
M  V30 5199 H 474.921 7.61228 1.33236 0
M  V30 5200 H 473.266 6.84473 1.20508 0
M  V30 5201 H 476.457 4.55095 1.09573 0
M  V30 5202 H 476.63 6.35432 1.27005 0
M  V30 5203 N 470.036 -0.519951 1.48776 0
M  V30 5204 C 470.986 -1.61995 1.60442 0
M  V30 5205 C 471.97 -1.54155 0.460991 0
M  V30 5206 O 473.162 -1.62006 0.712965 0
M  V30 5207 C 470.291 -3.00683 1.65664 0
M  V30 5208 C 469.377 -3.1359 2.8552 0
M  V30 5209 N 469.768 -2.96441 4.09825 0
M  V30 5210 C 468.066 -3.44662 2.83062 0
M  V30 5211 C 468.767 -3.1303 4.90293 0
M  V30 5212 N 467.743 -3.41058 4.23297 0
M  V30 5213 H 471.545 -1.47362 2.54287 0
M  V30 5214 H 469.059 -0.725649 1.45286 0
M  V30 5215 H 471.056 -3.79712 1.72117 0
M  V30 5216 H 469.716 -3.16401 0.729425 0
M  V30 5217 H 470.727 -2.72999 4.40104 0
M  V30 5218 H 467.404 -3.66675 1.9964 0
M  V30 5219 H 468.794 -3.04424 5.98979 0
M  V30 5220 N 471.514 -1.37532 -0.769588 0
M  V30 5221 C 472.762 -1.32597 -1.5252 0
M  V30 5222 C 473.083 0.0884294 -1.94799 0
M  V30 5223 O 472.353 1.03289 -1.66458 0
M  V30 5224 H 470.933 -0.487846 -0.565699 0
M  V30 5225 H 473.595 -1.72044 -0.915806 0
M  V30 5226 H 472.691 -1.96643 -2.42359 0
M  V30 5227 N 472.992 0.995999 -1.22138 0
M  V30 5228 C 474.217 1.77601 -1.0711 0
M  V30 5229 C 474.642 1.84339 0.374264 0
M  V30 5230 O 474 1.29359 1.27028 0
M  V30 5231 C 474.048 3.18897 -1.68336 0
M  V30 5232 O 473.152 4.01663 -0.934928 0
M  V30 5233 H 472.493 0.547011 -0.376397 0
M  V30 5234 H 475.023 1.25137 -1.6187 0
M  V30 5235 H 475.033 3.69539 -1.72931 0
M  V30 5236 H 473.708 3.13308 -2.73516 0
M  V30 5237 H 472.285 3.60204 -0.964751 0
M  V30 5238 N 474.47 1.03057 1.19235 0
M  V30 5239 C 475.695 0.74757 1.93458 0
M  V30 5240 C 476.12 -0.687648 1.7508 0
M  V30 5241 O 475.478 -1.47499 1.05422 0
M  V30 5242 C 475.526 1.10604 3.43219 0
M  V30 5243 O 474.63 0.225671 4.11782 0
M  V30 5244 H 473.971 0.276047 0.603899 0
M  V30 5245 H 476.501 1.3777 1.51263 0
M  V30 5246 H 476.511 1.06366 3.93891 0
M  V30 5247 H 475.186 2.15165 3.55917 0
M  V30 5248 H 473.763 0.326795 3.71465 0
M  V30 5249 N 475.948 -1.35272 0.808662 0
M  V30 5250 C 477.194 -1.99003 0.390581 0
M  V30 5251 C 477.527 -1.63999 -1.0401 0
M  V30 5252 O 476.802 -0.904368 -1.72196 0
M  V30 5253 C 477.085 -3.55454 0.576566 0
M  V30 5254 C 476.938 -4.00249 2.05233 0
M  V30 5255 C 478.257 -4.401 0.00354277 0
M  V30 5256 H 475.376 -0.722917 0.143388 0
M  V30 5257 H 478.018 -1.6039 1.01858 0
M  V30 5258 H 476.168 -3.88477 0.0419766 0
M  V30 5259 H 477.84 -3.77626 2.64946 0
M  V30 5260 H 476.083 -3.51082 2.54801 0
M  V30 5261 H 476.754 -5.0911 2.13333 0
M  V30 5262 H 479.23 -4.13548 0.460117 0
M  V30 5263 H 478.106 -5.48656 0.163575 0
M  V30 5264 H 478.367 -4.28444 -1.09032 0
M  V30 5265 N 477.426 -0.562348 -1.47226 0
M  V30 5266 C 478.654 -0.0452275 -2.06851 0
M  V30 5267 C 479.069 1.25078 -1.41424 0
M  V30 5268 O 478.426 1.75156 -0.512513 0
M  V30 5269 C 478.477 0.148674 -3.61194 0
M  V30 5270 O 478.198 -1.09602 -4.24169 0
M  V30 5271 C 479.699 0.702488 -4.37699 0
M  V30 5272 H 476.919 -0.0481775 -0.669268 0
M  V30 5273 H 479.463 -0.777223 -1.89155 0
M  V30 5274 H 477.618 0.830817 -3.78386 0
M  V30 5275 H 478.032 -0.896982 -5.16773 0
M  V30 5276 H 479.506 0.78743 -5.46355 0
M  V30 5277 H 479.983 1.71493 -4.04335 0
M  V30 5278 H 480.589 0.0558772 -4.25263 0
M  V30 5279 N 478.904 1.54736 -0.299062 0
M  V30 5280 C 480.32 1.59507 0.0543849 0
M  V30 5281 C 480.52 1.31606 1.52585 0
M  V30 5282 O 479.576 1.08853 2.27832 0
M  V30 5283 C 480.889 2.98751 -0.34181 0
M  V30 5284 C 482.437 3.1165 -0.290414 0
M  V30 5285 C 482.912 4.53199 -0.661402 0
M  V30 5286 N 484.403 4.59114 -0.613863 0
M  V30 5287 C 485.138 5.66709 -0.873417 0
M  V30 5288 N 484.634 6.82349 -1.19884 0
M  V30 5289 N 486.427 5.56369 -0.800608 0
M  V30 5290 H 478.578 1.71133 -1.25806 0
M  V30 5291 H 480.841 0.799186 -0.509908 0
M  V30 5292 H 480.547 3.24085 -1.36608 0
M  V30 5293 H 480.421 3.75961 0.305508 0
M  V30 5294 H 482.808 2.86066 0.724605 0
M  V30 5295 H 482.889 2.366 -0.972327 0
M  V30 5296 H 482.533 4.79513 -1.67422 0
M  V30 5297 H 482.463 5.26583 0.0425612 0
M  V30 5298 H 484.954 3.76053 -0.3732 0
M  V30 5299 H 485.267 7.60326 -1.38291 0
M  V30 5300 H 483.612 6.83906 -1.23685 0
M  V30 5301 H 486.803 4.64904 -0.546045 0
M  V30 5302 H 486.976 6.40139 -1.00626 0
M  V30 5303 N 480.382 0.0267497 1.57577 0
M  V30 5304 C 481.607 -0.666227 1.96408 0
M  V30 5305 C 482.032 -1.65004 0.903071 0
M  V30 5306 O 481.39 -1.80787 -0.136263 0
M  V30 5307 C 481.438 -1.35101 3.34335 0
M  V30 5308 O 480.542 -2.46623 3.30531 0
M  V30 5309 H 479.883 -0.175206 0.640468 0
M  V30 5310 H 482.413 0.0878977 2.04411 0
M  V30 5311 H 482.423 -1.70834 3.70513 0
M  V30 5312 H 481.098 -0.629844 4.11103 0
M  V30 5313 H 479.675 -2.13019 3.06068 0
M  V30 5314 N 481.861 -1.55662 -0.24637 0
M  V30 5315 C 483.277 -1.48098 -0.594907 0
M  V30 5316 C 483.477 -0.717044 -1.8831 0
M  V30 5317 O 482.533 -0.246618 -2.51293 0
M  V30 5318 C 483.846 -2.92507 -0.697146 0
M  V30 5319 C 485.394 -3.02881 -0.789436 0
M  V30 5320 C 485.869 -4.48598 -0.923232 0
M  V30 5321 N 487.36 -4.52538 -0.988088 0
M  V30 5322 C 488.095 -5.62536 -1.11089 0
M  V30 5323 N 487.591 -6.82342 -1.19919 0
M  V30 5324 N 489.384 -5.50334 -1.14408 0
M  V30 5325 H 481.535 -2.0377 0.599278 0
M  V30 5326 H 483.798 -0.925145 0.20691 0
M  V30 5327 H 483.504 -3.51242 0.179396 0
M  V30 5328 H 483.378 -3.43024 -1.5689 0
M  V30 5329 H 485.765 -2.44226 -1.65643 0
M  V30 5330 H 485.846 -2.55574 0.107482 0
M  V30 5331 H 485.49 -5.07864 -0.0607927 0
M  V30 5332 H 485.42 -4.93587 -1.8352 0
M  V30 5333 H 487.911 -3.66248 -0.931167 0
M  V30 5334 H 488.224 -7.61924 -1.29197 0
M  V30 5335 H 486.569 -6.85102 -1.16876 0
M  V30 5336 H 489.76 -4.5567 -1.07158 0
M  V30 5337 H 489.933 -6.36096 -1.23634 0
M  V30 5338 N 483.339 0.512053 -1.4905 0
M  V30 5339 C 484.269 1.62365 -1.67809 0
M  V30 5340 C 485.25 1.61737 -0.526809 0
M  V30 5341 O 486.435 1.78651 -0.761404 0
M  V30 5342 C 483.565 3.00895 -1.73435 0
M  V30 5343 C 482.519 3.16387 -2.88242 0
M  V30 5344 C 481.845 4.56157 -2.78971 0
M  V30 5345 C 483.145 2.97457 -4.29321 0
M  V30 5346 H 484.839 1.46921 -2.60873 0
M  V30 5347 H 482.385 0.705379 -1.2554 0
M  V30 5348 H 484.338 3.78549 -1.85145 0
M  V30 5349 H 483.062 3.17403 -0.769619 0
M  V30 5350 H 481.721 2.41155 -2.76116 0
M  V30 5351 H 481.369 4.69525 -1.8043 0
M  V30 5352 H 481.069 4.67465 -3.5602 0
M  V30 5353 H 482.593 5.35886 -2.92675 0
M  V30 5354 H 484.007 3.64888 -4.42187 0
M  V30 5355 H 482.404 3.20245 -5.07507 0
M  V30 5356 H 483.474 1.93692 -4.44535 0
M  V30 5357 N 484.817 1.37938 0.762283 0
M  V30 5358 C 485.75 1.2884 1.88349 0
M  V30 5359 C 486.728 0.167084 1.61739 0
M  V30 5360 O 487.912 0.34292 1.85355 0
M  V30 5361 C 485.039 0.994257 3.23778 0
M  V30 5362 C 484.085 2.13376 3.69287 0
M  V30 5363 S 484.918 3.75439 3.81845 0
M  V30 5364 C 486.074 3.48195 5.20107 0
M  V30 5365 H 486.307 2.23736 1.95779 0
M  V30 5366 H 483.84 1.23672 0.924368 0
M  V30 5367 H 485.798 0.83138 4.01993 0
M  V30 5368 H 484.459 0.0626251 3.14038 0
M  V30 5369 H 483.652 1.88319 4.67495 0
M  V30 5370 H 483.254 2.25726 2.98201 0
M  V30 5371 H 485.546 3.0377 6.05583 0
M  V30 5372 H 486.489 4.45765 5.50181 0
M  V30 5373 H 486.897 2.82905 4.88493 0
M  V30 5374 N 486.295 -0.989507 1.22664 0
M  V30 5375 C 487.52 -1.77031 1.08051 0
M  V30 5376 C 487.945 -1.84535 -0.364483 0
M  V30 5377 O 487.303 -1.3003 -1.2634 0
M  V30 5378 C 487.351 -3.18 1.70024 0
M  V30 5379 O 486.455 -4.01161 0.956216 0
M  V30 5380 H 485.796 -0.545008 0.379292 0
M  V30 5381 H 488.326 -1.24277 1.62531 0
M  V30 5382 H 488.336 -3.68616 1.74888 0
M  V30 5383 H 487.011 -3.11853 2.75174 0
M  V30 5384 H 485.588 -3.59687 0.98384 0
M  V30 5385 N 487.773 -1.03688 -1.18687 0
M  V30 5386 C 488.72 -0.624624 -2.22187 0
M  V30 5387 C 489.69 0.365636 -1.62026 0
M  V30 5388 O 490.875 0.260481 -1.89014 0
M  V30 5389 C 488.015 0.0101738 -3.45099 0
M  V30 5390 C 487.128 -1.02709 -4.19613 0
M  V30 5391 C 486.263 -0.361213 -5.2997 0
M  V30 5392 C 485.302 -1.38384 -5.96252 0
M  V30 5393 N 484.439 -0.743196 -6.98155 0
M  V30 5394 H 489.279 -1.51176 -2.56807 0
M  V30 5395 H 486.816 -0.75636 -1.26165 0
M  V30 5396 H 488.774 0.395528 -4.15321 0
M  V30 5397 H 487.404 0.860848 -3.1111 0
M  V30 5398 H 486.456 -1.53043 -3.48256 0
M  V30 5399 H 487.768 -1.80398 -4.65036 0
M  V30 5400 H 486.922 0.0785537 -6.06649 0
M  V30 5401 H 485.661 0.447799 -4.8564 0
M  V30 5402 H 484.666 -1.83378 -5.18317 0
M  V30 5403 H 485.891 -2.19448 -6.42666 0
M  V30 5404 H 483.837 0.0455789 -6.55984 0
M  V30 5405 H 483.754 -1.45784 -7.41811 0
M  V30 5406 H 485.022 -0.327698 -7.78811 0
M  V30 5407 N 489.251 1.34841 -0.815825 0
M  V30 5408 C 490.161 2.33425 -0.234462 0
M  V30 5409 C 491.177 1.62295 0.627413 0
M  V30 5410 O 492.353 1.94109 0.536987 0
M  V30 5411 C 489.418 3.41471 0.599849 0
M  V30 5412 C 488.479 4.28362 -0.283596 0
M  V30 5413 C 487.712 5.31248 0.51099 0
M  V30 5414 O 487.935 5.43056 1.7449 0
M  V30 5415 O 486.869 6.01812 -0.10297 0
M  V30 5416 H 490.695 2.84962 -1.05024 0
M  V30 5417 H 488.28 1.37774 -0.577809 0
M  V30 5418 H 490.162 4.07464 1.07475 0
M  V30 5419 H 488.837 2.9219 1.39308 0
M  V30 5420 H 487.744 3.65318 -0.805836 0
M  V30 5421 H 489.077 4.81066 -1.041 0
M  V30 5422 N 490.729 0.570148 1.46925 0
M  V30 5423 C 491.954 0.0542592 2.07329 0
M  V30 5424 C 492.379 -1.23582 1.41806 0
M  V30 5425 O 491.737 -1.74341 0.497479 0
M  V30 5426 C 491.785 -0.111175 3.60429 0
M  V30 5427 O 490.889 -1.17071 3.95434 0
M  V30 5428 H 490.23 0.0571425 0.661537 0
M  V30 5429 H 492.76 0.789516 1.88753 0
M  V30 5430 H 492.77 -0.321315 4.06733 0
M  V30 5431 H 491.445 0.831012 4.07513 0
M  V30 5432 H 490.022 -0.940029 3.60857 0
M  V30 5433 N 492.207 -1.54576 0.307264 0
M  V30 5434 C 493.455 -1.99867 -0.299574 0
M  V30 5435 C 493.776 -1.19714 -1.53927 0
M  V30 5436 O 493.046 -0.29472 -1.9367 0
M  V30 5437 H 491.626 -0.738299 -0.113683 0
M  V30 5438 H 494.288 -1.9032 0.420042 0
M  V30 5439 H 493.384 -3.06901 -0.567283 0
M  V30 5440 N 493.685 -0.035106 -1.57561 0
M  V30 5441 C 494.91 0.655802 -1.96759 0
M  V30 5442 C 495.335 1.64523 -0.911809 0
M  V30 5443 O 494.693 1.80857 0.126673 0
M  V30 5444 C 494.741 1.33326 -3.35047 0
M  V30 5445 O 493.845 2.44866 -3.31835 0
M  V30 5446 H 493.186 0.171807 -0.641388 0
M  V30 5447 H 495.716 -0.0987369 -2.04362 0
M  V30 5448 H 495.726 1.68867 -3.71413 0
M  V30 5449 H 494.401 0.608033 -4.11431 0
M  V30 5450 H 492.978 2.11392 -3.07193 0
M  V30 5451 N 495.163 1.55791 0.238111 0
M  V30 5452 C 496.388 1.8244 0.986432 0
M  V30 5453 C 496.813 0.613314 1.7782 0
M  V30 5454 O 496.171 -0.437767 1.75935 0
M  V30 5455 C 496.219 3.06917 1.893 0
M  V30 5456 O 495.323 2.84449 2.98601 0
M  V30 5457 H 494.664 0.601975 0.280218 0
M  V30 5458 H 497.194 2.02987 0.256437 0
M  V30 5459 H 497.204 3.36583 2.30598 0
M  V30 5460 H 495.879 3.947 1.31091 0
M  V30 5461 H 494.456 2.65972 2.61368 0
M  V30 5462 N 496.642 -0.504142 1.49319 0
M  V30 5463 C 497.575 -1.62361 1.60356 0
M  V30 5464 C 498.553 -1.56169 0.45277 0
M  V30 5465 O 499.737 -1.76271 0.667892 0
M  V30 5466 C 496.864 -3.00864 1.55559 0
M  V30 5467 C 495.91 -3.25328 2.75797 0
M  V30 5468 S 496.743 -3.08791 4.37503 0
M  V30 5469 C 497.899 -4.49695 4.35345 0
M  V30 5470 H 498.132 -1.52753 2.55056 0
M  V30 5471 H 495.665 -0.689065 1.38171 0
M  V30 5472 H 497.623 -3.8073 1.53477 0
M  V30 5473 H 496.284 -3.0789 0.621515 0
M  V30 5474 H 495.477 -4.2643 2.68651 0
M  V30 5475 H 495.079 -2.53179 2.75275 0
M  V30 5476 H 497.371 -5.41721 4.06871 0
M  V30 5477 H 498.314 -4.61891 5.36714 0
M  V30 5478 H 498.722 -4.30227 3.65465 0
M  V30 5479 N 498.12 -1.38341 -0.754957 0
M  V30 5480 C 499.369 -1.33791 -1.5094 0
M  V30 5481 C 499.682 0.0699267 -1.95475 0
M  V30 5482 O 500.888 0.237956 -2.70455 0
M  V30 5483 C 499.344 -2.34934 -2.72643 0
M  V30 5484 C 498.952 -3.81332 -2.35138 0
M  V30 5485 C 500.696 -2.39425 -3.50536 0
M  V30 5486 C 498.603 -4.74164 -3.53444 0
M  V30 5487 H 497.533 -0.497314 -0.566741 0
M  V30 5488 H 500.184 -1.63888 -0.825403 0
M  V30 5489 H 498.566 -1.97878 -3.43017 0
M  V30 5490 H 499.74 -4.27319 -1.7244 0
M  V30 5491 H 498.055 -3.79946 -1.70382 0
M  V30 5492 H 500.652 -3.0598 -4.38498 0
M  V30 5493 H 500.995 -1.41278 -3.91594 0
M  V30 5494 H 501.528 -2.75274 -2.87174 0
M  V30 5495 H 498.267 -5.73501 -3.17453 0
M  V30 5496 H 497.787 -4.3287 -4.15191 0
M  V30 5497 H 499.466 -4.92111 -4.20043 0
M  V30 5498 N 499.598 0.982988 -1.23187 0
M  V30 5499 C 500.846 1.72052 -1.06031 0
M  V30 5500 C 501.167 1.90769 0.404019 0
M  V30 5501 O 500.437 1.47446 1.28982 0
M  V30 5502 H 499.017 0.637499 -0.389363 0
M  V30 5503 H 501.679 1.18338 -1.54862 0
M  V30 5504 H 500.775 2.7111 -1.54615 0
M  V30 5505 O 501.115 1.16872 1.1146 0
M  V30 5506 H 501.806 0.903209 1.71353 0
M  V30 END ATOM
M  V30 BEGIN BOND
M  V30 END BOND
M  V30 END CTAB
M  END
$$$$
