drugbank_target|O00303 Eukaryotic translation initiation factor 3 subunit F (DB04216)
 OpenBabel12092121063D

  0  0  0     0  0            999 V3000
M  V30 BEGIN CTAB
M  V30 COUNTS 5280 5343 0 0 0
M  V30 BEGIN ATOM
M  V30 1 H -0.908 1.98254 -0.117106 0
M  V30 2 N 0 1.576 0 0
M  V30 3 C 0.933 2.03868 1.02534 0
M  V30 4 C 1.911 0.928543 1.3348 0
M  V30 5 O 3.095 1.19667 1.45644 0
M  V30 6 C 0.222 2.43627 2.35294 0
M  V30 7 C -0.732 3.65373 2.2001 0
M  V30 8 S 0.101 5.13292 1.52614 0
M  V30 9 C 1.257 5.56322 2.86805 0
M  V30 10 H 1.49 2.90518 0.631377 0
M  V30 11 H -0.977 1.52953 0.210867 0
M  V30 12 H 0.981 2.67203 3.11629 0
M  V30 13 H -0.358 1.57376 2.7183 0
M  V30 14 H -1.165 3.90944 3.18086 0
M  V30 15 H -1.563 3.418 1.51819 0
M  V30 16 H 0.729 5.58782 3.83104 0
M  V30 17 H 1.672 6.56266 2.65933 0
M  V30 18 H 2.08 4.83886 2.90714 0
M  V30 19 N 1.4781 -0.272755 1.55222 0
M  V30 20 C 2.4411 -1.32041 1.87344 0
M  V30 21 C 3.4411 -1.42342 0.74803 0
M  V30 22 O 4.6311 -1.41488 1.0162 0
M  V30 23 C 1.7631 -2.70173 2.07893 0
M  V30 24 H 2.9561 -1.04789 2.80997 0
M  V30 25 H 0.5091 -0.51083 1.47717 0
M  V30 26 H 1.2441 -3.02605 1.16622 0
M  V30 27 H 1.0291 -2.64082 2.89833 0
M  V30 28 H 2.5191 -3.45869 2.34017 0
M  V30 29 N 2.9562 -1.48159 -0.537278 0
M  V30 30 C 4.1842 -1.59454 -1.31841 0
M  V30 31 C 4.5992 -0.252065 -1.8711 0
M  V30 32 O 3.9562 0.757621 -1.66031 0
M  V30 33 C 4.0072 -2.63546 -2.47439 0
M  V30 34 O 3.7282 -3.92583 -1.94449 0
M  V30 35 C 5.2292 -2.85212 -3.39366 0
M  V30 36 H 2.4492 -0.53785 -0.401196 0
M  V30 37 H 4.9932 -1.93932 -0.648891 0
M  V30 38 H 3.1482 -2.31946 -3.1029 0
M  V30 39 H 3.5622 -4.49629 -2.70063 0
M  V30 40 H 5.0362 -3.61863 -4.16844 0
M  V30 41 H 5.5132 -1.93765 -3.94147 0
M  V30 42 H 6.1192 -3.18086 -2.82314 0
M  V30 43 N 4.4343 0.785586 -1.36625 0
M  V30 44 C 5.8453 1.36101 -1.27803 0
M  V30 45 C 6.1963 1.96035 0.0804875 0
M  V30 46 O 5.3213 1.92834 0.982042 0
M  V30 47 C 5.9163 2.47442 -2.31426 0
M  V30 48 C 4.4753 3.00789 -2.26281 0
M  V30 49 C 3.6223 1.73896 -2.15999 0
M  V30 50 H 6.5733 0.586928 -1.47448 0
M  V30 51 H 6.5943 3.2656 -1.95291 0
M  V30 52 H 6.1063 2.03791 -3.30289 0
M  V30 53 H 4.2073 3.48851 -1.30896 0
M  V30 54 H 4.3203 3.57343 -3.19128 0
M  V30 55 H 2.6843 1.9628 -1.62316 0
M  V30 56 H 3.4673 1.32368 -3.16755 0
M  V30 57 N 5.9124 1.20967 1.01018 0
M  V30 58 C 6.8754 0.965918 2.07853 0
M  V30 59 C 7.8754 -0.0610545 1.60684 0
M  V30 60 O 9.0654 0.175681 1.73312 0
M  V30 61 C 6.1974 0.455513 3.37843 0
M  V30 62 H 7.3904 1.91365 2.3091 0
M  V30 63 H 4.9434 1.02594 1.17916 0
M  V30 64 H 5.6784 -0.497381 3.20463 0
M  V30 65 H 5.4634 1.19622 3.73407 0
M  V30 66 H 6.9534 0.304667 4.16487 0
M  V30 67 N 7.3905 -1.2043 1.01659 0
M  V30 68 C 8.6365 -1.90079 0.706963 0
M  V30 69 C 8.9695 -1.78648 -0.761474 0
M  V30 70 O 8.2445 -1.17069 -1.55323 0
M  V30 71 C 8.5275 -3.41469 1.14327 0
M  V30 72 C 8.3805 -3.61833 2.67201 0
M  V30 73 C 9.6995 -4.34261 0.714529 0
M  V30 74 H 6.8185 -0.690254 0.2583 0
M  V30 75 H 9.4605 -1.41826 1.26433 0
M  V30 76 H 7.6105 -3.82696 0.669056 0
M  V30 77 H 9.2825 -3.2986 3.22475 0
M  V30 78 H 7.5255 -3.05304 3.08175 0
M  V30 79 H 8.1965 -4.67955 2.92783 0
M  V30 80 H 10.6725 -4.00682 1.12221 0
M  V30 81 H 9.5485 -5.38806 1.04784 0
M  V30 82 H 9.8095 -4.40431 -0.383799 0
M  V30 83 N 8.8686 -0.792821 -1.36206 0
M  V30 84 C 10.2796 -0.429513 -1.81692 0
M  V30 85 C 10.6306 1.04695 -1.65932 0
M  V30 86 O 9.7556 1.81256 -1.18218 0
M  V30 87 C 10.3506 -0.772831 -3.29868 0
M  V30 88 C 8.9096 -0.462307 -3.7355 0
M  V30 89 C 8.0566 -1.00569 -2.5842 0
M  V30 90 H 11.0076 -0.985672 -1.24379 0
M  V30 91 H 11.0286 -0.0651928 -3.80444 0
M  V30 92 H 10.5406 -1.84747 -3.41307 0
M  V30 93 H 8.6416 0.604158 -3.67669 0
M  V30 94 H 8.7546 -0.985299 -4.68859 0
M  V30 95 H 7.1186 -0.428734 -2.51066 0
M  V30 96 H 7.9016 -2.08616 -2.72643 0
M  V30 97 N 10.3467 1.47872 -0.545128 0
M  V30 98 C 11.5927 2.02793 -0.0166104 0
M  V30 99 C 11.9257 1.41987 1.32489 0
M  V30 100 O 11.2007 0.571045 1.85928 0
M  V30 101 C 11.4837 3.59989 0.0893294 0
M  V30 102 C 11.3367 4.3125 -1.27841 0
M  V30 103 C 12.6557 4.32606 0.808724 0
M  V30 104 H 9.7747 0.736962 -0.00751035 0
M  V30 105 H 12.4167 1.76433 -0.705085 0
M  V30 106 H 10.5667 3.82579 0.675681 0
M  V30 107 H 12.2387 4.20035 -1.90704 0
M  V30 108 H 10.4817 3.92076 -1.85632 0
M  V30 109 H 11.1527 5.39736 -1.15713 0
M  V30 110 H 13.6287 4.14936 0.310992 0
M  V30 111 H 12.5047 5.42251 0.851782 0
M  V30 112 H 12.7657 4.00963 1.86229 0
M  V30 113 N 11.8248 0.280983 1.55075 0
M  V30 114 C 13.0498 -0.340154 2.04592 0
M  V30 115 C 13.4748 -1.48246 1.15779 0
M  V30 116 O 12.8328 -1.80614 0.15761 0
M  V30 117 C 12.8808 -0.793104 3.5177 0
M  V30 118 O 11.9848 -1.89981 3.66034 0
M  V30 119 H 11.3258 -0.0694289 0.66036 0
M  V30 120 H 13.8558 0.416993 2.00306 0
M  V30 121 H 13.8658 -1.08729 3.93245 0
M  V30 122 H 12.5408 0.0426163 4.15878 0
M  V30 123 H 11.1178 -1.60771 3.36463 0
M  V30 124 N 13.3029 -1.57598 0.00835791 0
M  V30 125 C 14.2659 -2.07884 -0.965242 0
M  V30 126 C 15.2659 -0.989825 -1.26725 0
M  V30 127 O 16.4559 -1.25218 -1.21104 0
M  V30 128 C 13.5879 -2.52731 -2.28779 0
M  V30 129 H 14.7809 -2.95178 -0.530112 0
M  V30 130 H 12.3339 -1.54458 -0.239283 0
M  V30 131 H 13.0689 -1.68705 -2.76964 0
M  V30 132 H 12.8539 -3.32272 -2.08177 0
M  V30 133 H 14.3439 -2.91933 -2.98605 0
M  V30 134 N 14.781 0.264519 -1.55364 0
M  V30 135 C 16.192 0.834936 -1.6699 0
M  V30 136 C 16.543 1.86718 -0.602552 0
M  V30 137 O 15.668 2.14899 0.254425 0
M  V30 138 C 16.263 1.5212 -3.02729 0
M  V30 139 C 14.822 2.03954 -3.16354 0
M  V30 140 C 13.969 0.884498 -2.62815 0
M  V30 141 H 16.92 0.0406869 -1.58648 0
M  V30 142 H 16.941 2.38853 -2.96191 0
M  V30 143 H 16.453 0.769668 -3.80392 0
M  V30 144 H 14.554 2.82041 -2.43482 0
M  V30 145 H 14.667 2.24902 -4.23032 0
M  V30 146 H 13.031 1.2802 -2.20188 0
M  V30 147 H 13.814 0.14634 -3.42988 0
M  V30 148 N 16.2591 1.48442 0.529413 0
M  V30 149 C 17.6701 1.5002 1.11134 0
M  V30 150 C 18.0211 0.27031 1.94329 0
M  V30 151 O 17.1461 -0.622507 2.07253 0
M  V30 152 C 17.7411 2.71834 2.02217 0
M  V30 153 C 16.3001 2.76283 2.55627 0
M  V30 154 C 15.4471 2.43542 1.326 0
M  V30 155 H 18.3981 1.5555 0.314641 0
M  V30 156 H 18.4191 2.50384 2.8651 0
M  V30 157 H 17.9311 3.61331 1.41639 0
M  V30 158 H 16.0321 1.90995 3.19924 0
M  V30 159 H 16.1451 3.77725 2.94721 0
M  V30 160 H 14.5091 1.94709 1.64196 0
M  V30 161 H 15.2921 3.3528 0.737734 0
M  V30 162 N 17.7372 -0.778329 1.37039 0
M  V30 163 C 18.7002 -1.87301 1.32102 0
M  V30 164 C 19.7002 -1.59198 0.226405 0
M  V30 165 O 20.8902 -1.67403 0.481861 0
M  V30 166 C 18.0222 -3.24309 1.05055 0
M  V30 167 H 19.2152 -1.93093 2.29467 0
M  V30 168 H 16.7682 -0.977358 1.21973 0
M  V30 169 H 17.5032 -3.24196 0.0819373 0
M  V30 170 H 17.2882 -3.46098 1.84279 0
M  V30 171 H 18.7782 -4.04382 1.04234 0
M  V30 172 N 19.2153 -1.21501 -1.00376 0
M  V30 173 C 20.4433 -1.059 -1.77744 0
M  V30 174 C 20.8583 0.391125 -1.84704 0
M  V30 175 O 20.2153 1.27133 -1.30933 0
M  V30 176 C 20.2663 -1.65111 -3.21591 0
M  V30 177 O 19.9873 -3.0445 -3.15027 0
M  V30 178 C 21.4883 -1.54637 -4.15454 0
M  V30 179 H 18.7083 -0.371825 -0.558558 0
M  V30 180 H 21.2523 -1.60865 -1.26264 0
M  V30 181 H 19.4073 -1.14235 -3.70175 0
M  V30 182 H 19.8213 -3.3278 -4.0541 0
M  V30 183 H 21.2953 -2.00808 -5.14179 0
M  V30 184 H 21.7723 -0.501022 -4.36333 0
M  V30 185 H 22.3783 -2.04767 -3.72761 0
M  V30 186 N 20.6934 1.19889 -1.02296 0
M  V30 187 C 22.1044 1.71124 -0.746568 0
M  V30 188 C 22.4554 1.81939 0.734335 0
M  V30 189 O 21.5804 1.48639 1.57275 0
M  V30 190 C 22.1754 3.10804 -1.34857 0
M  V30 191 C 20.7344 3.59323 -1.1209 0
M  V30 192 C 19.8814 2.3635 -1.45031 0
M  V30 193 H 22.8324 1.04813 -1.19163 0
M  V30 194 H 22.8534 3.73186 -0.742437 0
M  V30 195 H 22.3654 3.029 -2.42638 0
M  V30 196 H 20.4664 3.7255 -0.0610337 0
M  V30 197 H 20.5794 4.4378 -1.80544 0
M  V30 198 H 18.9434 2.39399 -0.869487 0
M  V30 199 H 19.7264 2.31081 -2.53883 0
M  V30 200 N 22.1715 0.800033 1.35784 0
M  V30 201 C 23.3995 0.389606 2.03199 0
M  V30 202 C 23.8145 -0.997375 1.60306 0
M  V30 203 O 23.1715 -1.64154 0.797481 0
M  V30 204 C 23.2225 0.455855 3.58614 0
M  V30 205 O 22.9435 1.78815 3.99946 0
M  V30 206 C 24.4445 0.0374032 4.43284 0
M  V30 207 H 21.6645 0.159132 0.651857 0
M  V30 208 H 24.2085 1.08183 1.73541 0
M  V30 209 H 22.3635 -0.188057 3.86943 0
M  V30 210 H 22.7775 1.74636 4.94573 0
M  V30 211 H 24.2515 0.134882 5.51835 0
M  V30 212 H 24.7285 -1.01651 4.27275 0
M  V30 213 H 25.3345 0.654215 4.20238 0
M  V30 214 N 23.6496 -1.47581 0.552962 0
M  V30 215 C 25.0606 -1.86324 0.118463 0
M  V30 216 C 25.4116 -1.46006 -1.3106 0
M  V30 217 O 24.5366 -0.861182 -1.98526 0
M  V30 218 C 25.1316 -3.3816 0.20821 0
M  V30 219 C 23.6906 -3.7601 -0.171226 0
M  V30 220 C 22.8376 -2.71634 0.557686 0
M  V30 221 H 25.7886 -1.39159 0.762928 0
M  V30 222 H 25.8096 -3.76141 -0.574278 0
M  V30 223 H 25.3216 -3.67473 1.24841 0
M  V30 224 H 23.4226 -3.52313 -1.21269 0
M  V30 225 H 23.5356 -4.78745 0.184379 0
M  V30 226 H 21.8996 -2.547 0.00125792 0
M  V30 227 H 22.6826 -3.0379 1.59896 0
M  V30 228 N 25.1277 -0.289203 -1.54924 0
M  V30 229 C 26.3737 0.323998 -2.00195 0
M  V30 230 C 26.7067 1.54441 -1.17735 0
M  V30 231 O 25.9817 1.92875 -0.250878 0
M  V30 232 C 26.2647 0.692276 -3.53383 0
M  V30 233 C 26.1177 -0.536457 -4.46589 0
M  V30 234 C 27.4367 1.52335 -4.12895 0
M  V30 235 H 24.5557 0.116289 -0.727768 0
M  V30 236 H 27.1977 -0.398954 -1.85764 0
M  V30 237 H 25.3477 1.30822 -3.65811 0
M  V30 238 H 27.0197 -1.17499 -4.46085 0
M  V30 239 H 25.2627 -1.17192 -4.1767 0
M  V30 240 H 25.9337 -0.234806 -5.515 0
M  V30 241 H 28.4097 1.00302 -4.0383 0
M  V30 242 H 27.2857 1.74982 -5.20262 0
M  V30 243 H 27.5467 2.50886 -3.64018 0
M  V30 244 N 26.6058 1.57591 -0.0167156 0
M  V30 245 C 28.0168 1.79201 0.523834 0
M  V30 246 C 28.3678 0.925796 1.72984 0
M  V30 247 O 27.4928 0.132792 2.15992 0
M  V30 248 C 28.0878 3.25 0.957091 0
M  V30 249 C 26.6468 3.47648 1.44283 0
M  V30 250 C 25.7938 2.74374 0.401757 0
M  V30 251 H 28.7448 1.56831 -0.242816 0
M  V30 252 H 28.7658 3.34031 1.82219 0
M  V30 253 H 28.2778 3.88019 0.0791415 0
M  V30 254 H 26.3788 2.89866 2.34113 0
M  V30 255 H 26.4918 4.56352 1.45877 0
M  V30 256 H 24.8558 2.39485 0.867121 0
M  V30 257 H 25.6388 3.40102 -0.467513 0
M  V30 258 N 28.0839 -0.256276 1.55502 0
M  V30 259 C 29.0469 -1.30047 1.88734 0
M  V30 260 C 30.0469 -1.4154 0.763086 0
M  V30 261 O 31.2369 -1.40403 1.03115 0
M  V30 262 C 28.3689 -2.67953 2.10747 0
M  V30 263 H 29.5619 -1.01802 2.82093 0
M  V30 264 H 27.1149 -0.495134 1.4825 0
M  V30 265 H 27.8499 -3.01351 1.19825 0
M  V30 266 H 27.6349 -2.60993 2.92617 0
M  V30 267 H 29.1249 -3.43368 2.37673 0
M  V30 268 N 29.562 -1.4872 -0.521534 0
M  V30 269 C 30.525 -1.63379 -1.60748 0
M  V30 270 C 31.525 -0.50661 -1.52611 0
M  V30 271 O 32.715 -0.772601 -1.5613 0
M  V30 272 C 29.847 -1.61192 -3.00383 0
M  V30 273 H 31.04 -2.60217 -1.49087 0
M  V30 274 H 28.593 -1.37444 -0.744235 0
M  V30 275 H 29.328 -0.65863 -3.17541 0
M  V30 276 H 29.113 -2.43032 -3.07698 0
M  V30 277 H 30.603 -1.7466 -3.7932 0
M  V30 278 N 31.0401 0.771051 -1.3745 0
M  V30 279 C 32.0031 1.86598 -1.33093 0
M  V30 280 C 33.0031 1.59076 -0.234845 0
M  V30 281 O 34.1931 1.67145 -0.490732 0
M  V30 282 C 31.3251 3.23747 -1.06773 0
M  V30 283 H 32.5181 1.91873 -2.30488 0
M  V30 284 H 30.0711 0.970876 -1.2249 0
M  V30 285 H 30.8061 3.24148 -0.099129 0
M  V30 286 H 30.5911 3.45115 -1.86112 0
M  V30 287 H 32.0811 4.03824 -1.06377 0
M  V30 288 N 32.5182 1.22032 0.997298 0
M  V30 289 C 33.9292 1.0397 1.55071 0
M  V30 290 C 34.2802 -0.398192 1.92117 0
M  V30 291 O 33.4052 -1.28254 1.74298 0
M  V30 292 C 34.0002 1.88109 2.81781 0
M  V30 293 C 32.5592 1.74357 3.33581 0
M  V30 294 C 31.7062 1.84846 2.06706 0
M  V30 295 H 34.6572 1.35941 0.818883 0
M  V30 296 H 34.6782 1.39589 3.53971 0
M  V30 297 H 34.1902 2.92754 2.54787 0
M  V30 298 H 32.2912 0.72427 3.65493 0
M  V30 299 H 32.4042 2.56772 4.04481 0
M  V30 300 H 30.7682 1.28238 2.20062 0
M  V30 301 H 31.5512 2.91014 1.82114 0
M  V30 302 N 33.9963 -1.19345 1.0293 0
M  V30 303 C 34.9593 -2.20793 0.615069 0
M  V30 304 C 35.9593 -1.57553 -0.321533 0
M  V30 305 O 37.1493 -1.73862 -0.108483 0
M  V30 306 C 34.2813 -3.40754 -0.0999222 0
M  V30 307 H 35.4743 -2.58955 1.51269 0
M  V30 308 H 33.0273 -1.3303 0.820534 0
M  V30 309 H 33.7623 -3.0811 -1.01187 0
M  V30 310 H 33.5473 -3.87889 0.57309 0
M  V30 311 H 35.0373 -4.15898 -0.376645 0
M  V30 312 N 35.4744 -0.807222 -1.35358 0
M  V30 313 C 36.6994 -0.399309 -2.0352 0
M  V30 314 C 37.1244 0.981986 -1.60433 0
M  V30 315 O 36.4824 1.63601 -0.781299 0
M  V30 316 C 36.5304 -0.491552 -3.57234 0
M  V30 317 O 35.6344 0.494754 -4.09421 0
M  V30 318 H 34.9754 -0.166682 -0.642739 0
M  V30 319 H 37.5054 -1.09328 -1.72941 0
M  V30 320 H 37.5154 -0.361588 -4.06395 0
M  V30 321 H 36.1904 -1.49907 -3.87944 0
M  V30 322 H 34.7674 0.324977 -3.71481 0
M  V30 323 N 36.9525 1.47285 -0.560781 0
M  V30 324 C 38.1985 2.02764 -0.0381184 0
M  V30 325 C 38.5315 1.43384 1.30976 0
M  V30 326 O 37.8065 0.590733 1.85312 0
M  V30 327 C 38.0895 3.60064 0.0511427 0
M  V30 328 C 37.9425 4.2987 -1.32408 0
M  V30 329 C 39.2615 4.33439 0.762795 0
M  V30 330 H 36.3805 0.736841 -0.0153264 0
M  V30 331 H 39.0225 1.75675 -0.723759 0
M  V30 332 H 37.1725 3.83274 0.635065 0
M  V30 333 H 38.8445 4.17989 -1.95148 0
M  V30 334 H 37.0875 3.90085 -1.8978 0
M  V30 335 H 37.7585 5.38478 -1.21431 0
M  V30 336 H 40.2345 4.15243 0.266965 0
M  V30 337 H 39.1105 5.43124 0.794221 0
M  V30 338 H 39.3715 4.02915 1.81966 0
M  V30 339 N 38.4306 0.297415 1.54768 0
M  V30 340 C 39.8416 -0.195947 1.85669 0
M  V30 341 C 40.1926 -1.53707 1.21937 0
M  V30 342 O 39.3176 -2.10164 0.515754 0
M  V30 343 C 39.9126 -0.362318 3.36857 0
M  V30 344 C 38.4716 -0.799901 3.67802 0
M  V30 345 C 37.6186 0.0938578 2.77141 0
M  V30 346 H 40.5696 0.518538 1.4999 0
M  V30 347 H 40.5906 -1.19745 3.61167 0
M  V30 348 H 40.1026 0.613921 3.83214 0
M  V30 349 H 38.2036 -1.78682 3.26961 0
M  V30 350 H 38.3166 -0.621773 4.75048 0
M  V30 351 H 36.6806 -0.426254 2.51108 0
M  V30 352 H 37.4636 1.06639 3.26318 0
M  V30 353 N 39.9087 -1.5758 0.0250728 0
M  V30 354 C 40.8717 -2.08896 -0.943139 0
M  V30 355 C 41.8717 -1.00321 -1.25668 0
M  V30 356 O 43.0617 -1.26495 -1.19769 0
M  V30 357 C 40.1937 -2.55143 -2.26086 0
M  V30 358 H 41.3867 -2.95723 -0.498775 0
M  V30 359 H 38.9397 -1.54703 -0.222888 0
M  V30 360 H 39.6747 -1.71633 -2.75159 0
M  V30 361 H 39.4597 -3.34461 -2.04641 0
M  V30 362 H 40.9497 -2.95083 -2.95492 0
M  V30 363 N 41.3868 0.248026 -1.55636 0
M  V30 364 C 42.7978 0.817177 -1.67866 0
M  V30 365 C 43.1488 1.86069 -0.622322 0
M  V30 366 O 42.2738 2.15157 0.231618 0
M  V30 367 C 42.8688 1.489 -3.04326 0
M  V30 368 C 41.4278 2.00587 -3.185 0
M  V30 369 C 40.5748 0.856573 -2.63739 0
M  V30 370 H 43.5258 0.0238579 -1.58682 0
M  V30 371 H 43.5468 2.35698 -2.98708 0
M  V30 372 H 43.0588 0.729279 -3.81186 0
M  V30 373 H 41.1598 2.79443 -2.4646 0
M  V30 374 H 41.2728 2.20402 -4.25393 0
M  V30 375 H 39.6368 1.25678 -2.21534 0
M  V30 376 H 40.4198 0.109953 -3.43124 0
M  V30 377 N 42.8649 1.48995 0.513639 0
M  V30 378 C 44.0929 1.61531 1.29288 0
M  V30 379 C 44.5079 0.281801 1.86685 0
M  V30 380 O 43.8649 -0.731111 1.67215 0
M  V30 381 C 43.9159 2.67449 2.43215 0
M  V30 382 O 43.6369 3.95626 1.88179 0
M  V30 383 C 45.1379 2.90575 3.34785 0
M  V30 384 H 42.3579 0.544165 0.392588 0
M  V30 385 H 44.9019 1.9494 0.617956 0
M  V30 386 H 43.0569 2.36853 3.0656 0
M  V30 387 H 43.4709 4.53868 2.62876 0
M  V30 388 H 44.9449 3.68449 4.11035 0
M  V30 389 H 45.4219 2.00011 3.91015 0
M  V30 390 H 46.0279 3.22538 2.77218 0
M  V30 391 N 44.343 -0.763751 1.37857 0
M  V30 392 C 45.754 -1.3405 1.29952 0
M  V30 393 C 46.105 -1.96138 -0.0492898 0
M  V30 394 O 45.23 -1.94372 -0.951239 0
M  V30 395 C 45.825 -2.43729 2.35333 0
M  V30 396 C 44.384 -2.97151 2.31037 0
M  V30 397 C 43.531 -1.70438 2.18738 0
M  V30 398 H 46.482 -0.563396 1.48363 0
M  V30 399 H 46.503 -3.23412 2.00462 0
M  V30 400 H 46.015 -1.9851 3.33489 0
M  V30 401 H 44.116 -3.46724 1.3643 0
M  V30 402 H 44.229 -3.52221 3.24772 0
M  V30 403 H 42.593 -1.93673 1.65418 0
M  V30 404 H 43.376 -1.27312 3.18821 0
M  V30 405 N 45.8211 -1.22559 -0.990812 0
M  V30 406 C 46.7841 -0.998863 -2.0629 0
M  V30 407 C 47.7841 0.0354834 -1.60761 0
M  V30 408 O 48.9741 -0.203231 -1.7301 0
M  V30 409 C 46.1061 -0.509203 -3.37076 0
M  V30 410 H 47.2991 -1.95014 -2.27837 0
M  V30 411 H 44.8521 -1.04456 -1.16269 0
M  V30 412 H 45.5871 0.446335 -3.21214 0
M  V30 413 H 45.3721 -1.25547 -3.71457 0
M  V30 414 H 46.8621 -0.370888 -4.1595 0
M  V30 415 N 47.2992 1.18797 -1.03562 0
M  V30 416 C 48.7102 1.70322 -0.764676 0
M  V30 417 C 49.0612 1.82708 0.714996 0
M  V30 418 O 48.1862 1.50299 1.55689 0
M  V30 419 C 48.7812 3.09356 -1.38145 0
M  V30 420 C 47.3402 3.58114 -1.15895 0
M  V30 421 C 46.4872 2.34798 -1.4753 0
M  V30 422 H 49.4382 1.03543 -1.20268 0
M  V30 423 H 49.4592 3.72378 -0.781977 0
M  V30 424 H 48.9712 3.00309 -2.45837 0
M  V30 425 H 47.0722 3.72464 -0.100544 0
M  V30 426 H 47.1852 4.4184 -1.8524 0
M  V30 427 H 45.5492 2.38464 -0.894829 0
M  V30 428 H 46.3322 2.28375 -2.56319 0
M  V30 429 N 48.7773 0.814389 1.34928 0
M  V30 430 C 49.7403 0.235759 2.27984 0
M  V30 431 C 50.7403 -0.581412 1.49921 0
M  V30 432 O 51.9303 -0.398758 1.69575 0
M  V30 433 C 49.0623 -0.670433 3.34242 0
M  V30 434 H 50.2553 1.05659 2.80671 0
M  V30 435 H 47.8083 0.585614 1.44915 0
M  V30 436 H 48.5433 -1.51466 2.86755 0
M  V30 437 H 48.3283 -0.0860822 3.92005 0
M  V30 438 H 49.8183 -1.06935 4.03676 0
M  V30 439 N 50.2554 -1.46986 0.568584 0
M  V30 440 C 51.2184 -2.28624 -0.162366 0
M  V30 441 C 52.2184 -1.37596 -0.832103 0
M  V30 442 O 53.4084 -1.60115 -0.68622 0
M  V30 443 C 50.5404 -3.17596 -1.23878 0
M  V30 444 H 51.7334 -2.94722 0.554899 0
M  V30 445 H 49.2864 -1.52863 0.325976 0
M  V30 446 H 50.0214 -2.56214 -1.98808 0
M  V30 447 H 49.8064 -3.846 -0.763219 0
M  V30 448 H 51.2964 -3.79078 -1.75185 0
M  V30 449 N 51.7335 -0.305618 -1.54608 0
M  V30 450 C 52.6965 0.555591 -2.22364 0
M  V30 451 C 53.6965 1.05768 -1.21119 0
M  V30 452 O 54.8865 0.952972 -1.45822 0
M  V30 453 C 52.0185 1.76974 -2.91364 0
M  V30 454 H 53.2115 -0.0364572 -2.99878 0
M  V30 455 H 50.7645 -0.0565007 -1.56198 0
M  V30 456 H 51.4995 2.40151 -2.17941 0
M  V30 457 H 51.2845 1.41732 -3.65588 0
M  V30 458 H 52.7745 2.38148 -3.43038 0
M  V30 459 N 53.2116 1.57565 -0.0334293 0
M  V30 460 C 54.6226 1.79746 0.504798 0
M  V30 461 C 54.9736 0.944091 1.71992 0
M  V30 462 O 54.0986 0.155694 2.15839 0
M  V30 463 C 54.6936 3.25997 0.922567 0
M  V30 464 C 53.2526 3.49159 1.40588 0
M  V30 465 C 52.3996 2.74785 0.372633 0
M  V30 466 H 55.3506 1.56565 -0.259436 0
M  V30 467 H 55.3716 3.35945 1.78666 0
M  V30 468 H 54.8836 3.88081 0.0379825 0
M  V30 469 H 52.9846 2.92332 2.31025 0
M  V30 470 H 53.0976 4.57873 1.41028 0
M  V30 471 H 51.4616 2.40391 0.841672 0
M  V30 472 H 52.2446 3.39587 -0.503559 0
M  V30 473 N 54.6897 -0.239769 1.55765 0
M  V30 474 C 55.9357 -0.968234 1.78194 0
M  V30 475 C 56.2687 -1.84701 0.599938 0
M  V30 476 O 55.5437 -1.9031 -0.401524 0
M  V30 477 C 55.8267 -1.8227 3.10564 0
M  V30 478 C 55.6797 -0.971633 4.3918 0
M  V30 479 C 56.9987 -2.80388 3.39221 0
M  V30 480 H 54.1177 -0.350572 0.648281 0
M  V30 481 H 56.7597 -0.238259 1.885 0
M  V30 482 H 54.9097 -2.44507 3.01908 0
M  V30 483 H 56.5817 -0.367408 4.59835 0
M  V30 484 H 54.8247 -0.276276 4.32919 0
M  V30 485 H 55.4957 -1.60346 5.28198 0
M  V30 486 H 57.9717 -2.28287 3.47885 0
M  V30 487 H 56.8477 -3.3729 4.33044 0
M  V30 488 H 57.1087 -3.57212 2.60484 0
M  V30 489 N 56.1678 -1.49265 -0.50573 0
M  V30 490 C 57.5788 -1.51769 -1.08734 0
M  V30 491 C 57.9298 -0.301192 -1.93874 0
M  V30 492 O 57.0548 0.589456 -2.08217 0
M  V30 493 C 57.6498 -2.75017 -1.97867 0
M  V30 494 C 56.2088 -2.80314 -2.51199 0
M  V30 495 C 55.3558 -2.4562 -1.28709 0
M  V30 496 H 58.3068 -1.56031 -0.289855 0
M  V30 497 H 58.3278 -2.5491 -2.82491 0
M  V30 498 H 57.8398 -3.63539 -1.35873 0
M  V30 499 H 55.9408 -1.96061 -3.16845 0
M  V30 500 H 56.0538 -3.82366 -2.88675 0
M  V30 501 H 54.4178 -1.97297 -1.61078 0
M  V30 502 H 55.2008 -3.36411 -0.6843 0
M  V30 503 N 57.6459 0.756429 -1.3826 0
M  V30 504 C 58.6089 1.85176 -1.35065 0
M  V30 505 C 59.6089 1.58818 -0.251703 0
M  V30 506 O 60.7989 1.66615 -0.508433 0
M  V30 507 C 57.9309 3.22596 -1.10201 0
M  V30 508 H 59.1239 1.89417 -2.3251 0
M  V30 509 H 56.6769 0.95783 -1.23512 0
M  V30 510 H 57.4119 3.24025 -0.133504 0
M  V30 511 H 57.1969 3.43122 -1.89762 0
M  V30 512 H 58.6869 4.02673 -1.10654 0
M  V30 513 N 59.124 1.23083 0.984299 0
M  V30 514 C 60.087 1.00979 2.05757 0
M  V30 515 C 61.087 -0.0269573 1.60777 0
M  V30 516 O 62.277 0.212403 1.729 0
M  V30 517 C 59.409 0.527072 3.36801 0
M  V30 518 H 60.602 1.9622 2.26799 0
M  V30 519 H 58.155 1.05072 1.15714 0
M  V30 520 H 58.89 -0.429294 3.21446 0
M  V30 521 H 58.675 1.27515 3.70786 0
M  V30 522 H 60.165 0.392942 4.15747 0
M  V30 523 N 60.6021 -1.18246 1.0419 0
M  V30 524 C 61.5651 -2.20128 0.638452 0
M  V30 525 C 62.5651 -1.57885 -0.304805 0
M  V30 526 O 63.7551 -1.73967 -0.0900369 0
M  V30 527 C 60.8871 -3.4084 -0.0637751 0
M  V30 528 H 62.0801 -2.57336 1.54007 0
M  V30 529 H 59.6331 -1.32152 0.834598 0
M  V30 530 H 60.3681 -3.09166 -0.979136 0
M  V30 531 H 60.1531 -3.8726 0.614198 0
M  V30 532 H 61.6431 -4.16274 -0.332512 0
M  V30 533 N 62.0802 -0.821533 -1.34494 0
M  V30 534 C 63.4912 -0.467956 -1.8074 0
M  V30 535 C 63.8422 1.01151 -1.68116 0
M  V30 536 O 62.9672 1.78707 -1.22036 0
M  V30 537 C 63.5622 -0.842627 -3.28154 0
M  V30 538 C 62.1212 -0.541439 -3.72485 0
M  V30 539 C 61.2682 -1.06028 -2.56229 0
M  V30 540 H 64.2192 -1.01183 -1.22261 0
M  V30 541 H 64.2402 -0.145876 -3.8022 0
M  V30 542 H 63.7522 -1.91945 -3.37311 0
M  V30 543 H 61.8532 0.526034 -3.68868 0
M  V30 544 H 61.9662 -1.08453 -4.66663 0
M  V30 545 H 60.3302 -0.481892 -2.501 0
M  V30 546 H 61.1132 -2.14352 -2.68157 0
M  V30 547 N 63.5583 1.46682 -0.576371 0
M  V30 548 C 64.5213 2.28707 0.150239 0
M  V30 549 C 65.5213 1.38035 0.824794 0
M  V30 550 O 66.7113 1.60476 0.677719 0
M  V30 551 C 63.8433 3.18248 1.22192 0
M  V30 552 H 65.0363 2.94423 -0.570521 0
M  V30 553 H 62.5893 1.52688 -0.334078 0
M  V30 554 H 63.3243 2.57265 1.97447 0
M  V30 555 H 63.1093 3.85 0.742812 0
M  V30 556 H 64.5993 3.80001 1.73172 0
M  V30 557 N 65.0364 0.313813 1.54444 0
M  V30 558 C 66.2614 -0.296681 2.05267 0
M  V30 559 C 66.6864 -1.45757 1.18897 0
M  V30 560 O 66.0444 -1.80239 0.195886 0
M  V30 561 C 66.0924 -0.71831 3.53373 0
M  V30 562 O 65.1964 -1.82175 3.69981 0
M  V30 563 H 64.5374 -0.0554061 0.661684 0
M  V30 564 H 67.0674 0.459387 1.99376 0
M  V30 565 H 67.0774 -1.00364 3.95463 0
M  V30 566 H 65.7524 0.130821 4.15694 0
M  V30 567 H 64.3294 -1.53598 3.39797 0
M  V30 568 N 66.5145 -1.57545 0.0417849 0
M  V30 569 C 67.7395 -1.97035 -0.647455 0
M  V30 570 C 68.1645 -0.918775 -1.64135 0
M  V30 571 O 67.5225 0.119006 -1.80909 0
M  V30 572 C 67.5705 -3.35609 -1.31905 0
M  V30 573 O 66.6745 -3.3287 -2.43457 0
M  V30 574 H 66.0155 -0.64211 -0.169086 0
M  V30 575 H 68.5455 -2.04318 0.107399 0
M  V30 576 H 68.5555 -3.72126 -1.67291 0
M  V30 577 H 67.2305 -4.11685 -0.590586 0
M  V30 578 H 65.8075 -3.08087 -2.10088 0
M  V30 579 N 67.9926 0.231505 -1.5589 0
M  V30 580 C 69.2176 0.978689 -1.82856 0
M  V30 581 C 69.6426 1.77559 -0.620846 0
M  V30 582 O 69.0006 1.76119 0.430305 0
M  V30 583 C 69.0486 1.87997 -3.07716 0
M  V30 584 O 68.1526 2.97393 -2.85712 0
M  V30 585 H 67.4936 0.277663 -0.603158 0
M  V30 586 H 70.0236 0.24783 -2.03093 0
M  V30 587 H 70.0336 2.2917 -3.37558 0
M  V30 588 H 68.7086 1.29417 -3.95252 0
M  V30 589 H 67.2856 2.60238 -2.67078 0
M  V30 590 N 69.4707 1.49531 0.497807 0
M  V30 591 C 70.7477 1.49682 1.25915 0
M  V30 592 C 71.1277 0.226339 2.09883 0
M  V30 593 O 70.4757 -0.791189 2.14365 0
M  V30 594 C 70.6857 2.77755 2.11313 0
M  V30 595 C 72.0337 3.27371 2.70395 0
M  V30 596 O 73.0577 2.78894 2.21578 0
M  V30 597 O 71.9167 4.11808 3.59272 0
M  V30 598 H 69.0107 0.599228 0.56996 0
M  V30 599 H 71.5567 1.61798 0.511816 0
M  V30 600 H 70.3287 3.61713 1.49264 0
M  V30 601 H 69.9517 2.68515 2.93233 0
M  V30 602 N 70.9488 -0.749086 1.3866 0
M  V30 603 C 72.3598 -1.32664 1.31366 0
M  V30 604 C 72.7108 -1.96179 -0.028484 0
M  V30 605 O 71.8358 -1.9537 -0.93057 0
M  V30 606 C 72.4308 -2.41219 2.37905 0
M  V30 607 C 70.9898 -2.94684 2.34176 0
M  V30 608 C 70.1368 -1.68108 2.20533 0
M  V30 609 H 73.0878 -0.547628 1.48952 0
M  V30 610 H 73.1088 -3.21268 2.0388 0
M  V30 611 H 72.6208 -1.94962 3.35576 0
M  V30 612 H 70.7218 -3.45258 1.401 0
M  V30 613 H 70.8348 -3.48757 3.2849 0
M  V30 614 H 69.1988 -1.91907 1.67463 0
M  V30 615 H 69.9818 -1.23923 3.20153 0
M  V30 616 N 72.4269 -1.23603 -0.977757 0
M  V30 617 C 73.3899 -1.02069 -2.05218 0
M  V30 618 C 74.3899 0.0184305 -1.60789 0
M  V30 619 O 75.5799 -0.221569 -1.72785 0
M  V30 620 C 72.7119 -0.544926 -3.36517 0
M  V30 621 H 73.9049 -1.9742 -2.25755 0
M  V30 622 H 71.4579 -1.05684 -1.15155 0
M  V30 623 H 72.1929 0.412241 -3.21669 0
M  V30 624 H 71.9779 -1.2948 -3.70105 0
M  V30 625 H 73.4679 -0.414985 -4.15533 0
M  V30 626 N 73.905 1.17692 -1.04816 0
M  V30 627 C 74.868 2.19787 -0.650117 0
M  V30 628 C 75.868 1.58044 0.296427 0
M  V30 629 O 77.058 1.74012 0.0808097 0
M  V30 630 C 74.19 3.40869 0.0456987 0
M  V30 631 H 75.383 2.56516 -1.5537 0
M  V30 632 H 72.936 1.31708 -0.841594 0
M  V30 633 H 73.671 3.09681 0.962726 0
M  V30 634 H 73.456 3.86928 -0.634727 0
M  V30 635 H 74.946 4.16445 0.310432 0
M  V30 636 N 75.3831 0.828654 1.34056 0
M  V30 637 C 76.3461 0.259927 2.27721 0
M  V30 638 C 77.3461 -0.565478 1.50529 0
M  V30 639 O 78.5361 -0.38075 1.69988 0
M  V30 640 C 75.6681 -0.634944 3.34935 0
M  V30 641 H 76.8611 1.0863 2.79534 0
M  V30 642 H 74.4141 0.600951 1.44285 0
M  V30 643 H 75.1491 -1.48416 2.88346 0
M  V30 644 H 74.9341 -0.0444999 3.92075 0
M  V30 645 H 76.4241 -1.02648 4.04788 0
M  V30 646 N 76.8612 -1.46375 0.584142 0
M  V30 647 C 77.8242 -2.28784 -0.138108 0
M  V30 648 C 78.8242 -1.38471 -0.817462 0
M  V30 649 O 80.0142 -1.60833 -0.669199 0
M  V30 650 C 77.1462 -3.18892 -1.20503 0
M  V30 651 H 78.3392 -2.94117 0.586127 0
M  V30 652 H 75.8922 -1.52509 0.342171 0
M  V30 653 H 76.6272 -2.58309 -1.96079 0
M  V30 654 H 76.4122 -3.85388 -0.722384 0
M  V30 655 H 77.9022 -3.80914 -1.71155 0
M  V30 656 N 78.3393 -0.321999 -1.54275 0
M  V30 657 C 79.3023 0.531975 -2.22941 0
M  V30 658 C 80.3023 1.04478 -1.22234 0
M  V30 659 O 81.4923 0.937452 -1.46825 0
M  V30 660 C 78.6243 1.73874 -2.93224 0
M  V30 661 H 79.8173 -0.0682612 -2.99822 0
M  V30 662 H 77.3703 -0.0730644 -1.56129 0
M  V30 663 H 78.1053 2.37825 -2.20476 0
M  V30 664 H 77.8903 1.37847 -3.6707 0
M  V30 665 H 79.3803 2.34496 -3.45545 0
M  V30 666 N 79.8174 1.5752 -0.0501392 0
M  V30 667 C 80.7804 2.1037 0.909786 0
M  V30 668 C 81.7804 1.02308 1.24056 0
M  V30 669 O 82.9704 1.28385 1.17741 0
M  V30 670 C 80.1024 2.58708 2.21998 0
M  V30 671 H 81.2954 2.96479 0.451665 0
M  V30 672 H 78.8484 1.55038 0.198248 0
M  V30 673 H 79.5834 1.75989 2.72394 0
M  V30 674 H 79.3684 3.37675 1.99295 0
M  V30 675 H 80.8584 2.99747 2.9076 0
M  V30 676 N 81.2955 -0.223234 1.56011 0
M  V30 677 C 82.5235 -0.964812 1.83027 0
M  V30 678 C 82.9385 -1.78013 0.62904 0
M  V30 679 O 82.2955 -1.78008 -0.402414 0
M  V30 680 C 82.3465 -1.88373 3.08542 0
M  V30 681 O 82.0675 -1.10137 4.2403 0
M  V30 682 C 83.5685 -2.73934 3.48533 0
M  V30 683 H 80.7885 -0.282842 0.608475 0
M  V30 684 H 83.3325 -0.238971 2.03099 0
M  V30 685 H 81.4875 -2.56354 2.9045 0
M  V30 686 H 81.9015 -1.72501 4.95322 0
M  V30 687 H 83.3755 -3.34117 4.39397 0
M  V30 688 H 83.8525 -3.46244 2.70207 0
M  V30 689 H 84.4585 -2.11369 3.69057 0
M  V30 690 N 82.7736 -1.49793 -0.48987 0
M  V30 691 C 83.7366 -1.66752 -1.57246 0
M  V30 692 C 84.7366 -0.538867 -1.51502 0
M  V30 693 O 85.9266 -0.805545 -1.54456 0
M  V30 694 C 83.0586 -1.67528 -2.96896 0
M  V30 695 H 84.2516 -2.63321 -1.43534 0
M  V30 696 H 81.8046 -1.38992 -0.714914 0
M  V30 697 H 82.5396 -0.725837 -3.16073 0
M  V30 698 H 82.3246 -2.49504 -3.02473 0
M  V30 699 H 83.8146 -1.82667 -3.7553 0
M  V30 700 N 84.2517 0.741722 -1.39055 0
M  V30 701 C 85.2147 1.83733 -1.37021 0
M  V30 702 C 86.2147 1.58542 -0.268534 0
M  V30 703 O 87.4047 1.66067 -0.526076 0
M  V30 704 C 84.5367 3.2141 -1.13617 0
M  V30 705 H 85.7297 1.86941 -2.34506 0
M  V30 706 H 83.2827 0.944676 -1.24521 0
M  V30 707 H 84.0177 3.23865 -0.167863 0
M  V30 708 H 83.8027 3.4109 -1.93391 0
M  V30 709 H 85.2927 4.01477 -1.14918 0
M  V30 710 N 85.7298 1.2412 0.971189 0
M  V30 711 C 87.1408 1.07236 1.52831 0
M  V30 712 C 87.4918 -0.357352 1.92918 0
M  V30 713 O 86.6168 -1.24528 1.76979 0
M  V30 714 C 87.2118 1.94043 2.77728 0
M  V30 715 C 85.7708 1.81394 3.29808 0
M  V30 716 C 84.9178 1.89189 2.02738 0
M  V30 717 H 87.8688 1.37648 0.789864 0
M  V30 718 H 87.8898 1.47066 3.5093 0
M  V30 719 H 87.4018 2.98093 2.4852 0
M  V30 720 H 85.5028 0.801634 3.63874 0
M  V30 721 H 85.6158 2.65294 3.98944 0
M  V30 722 H 83.9798 1.32877 2.17292 0
M  V30 723 H 84.7628 2.94812 1.759 0
M  V30 724 N 87.2079 -1.17134 1.05439 0
M  V30 725 C 88.4559 -1.87085 0.764429 0
M  V30 726 C 88.7769 -1.81584 -0.710787 0
M  V30 727 O 88.0469 -1.24349 -1.51374 0
M  V30 728 H 86.6269 -0.692627 0.279779 0
M  V30 729 H 89.2889 -1.42087 1.33406 0
M  V30 730 H 88.3849 -2.92759 1.0816 0
M  V30 731 N 88.686 -0.835752 -1.33615 0
M  V30 732 C 89.618 -0.224151 -2.28101 0
M  V30 733 C 90.631 0.593331 -1.51603 0
M  V30 734 O 91.82 0.420911 -1.73466 0
M  V30 735 C 88.92 0.703309 -3.31522 0
M  V30 736 C 88.093 -0.0741528 -4.37337 0
M  V30 737 C 87.152 0.776176 -5.20444 0
M  V30 738 O 86.178 0.216506 -5.68788 0
M  V30 739 N 87.38 2.09401 -5.41416 0
M  V30 740 H 90.145 -1.03598 -2.81225 0
M  V30 741 H 87.706 -0.69392 -1.46275 0
M  V30 742 H 89.698 1.27707 -3.84022 0
M  V30 743 H 88.268 1.41585 -2.78698 0
M  V30 744 H 87.488 -0.82928 -3.85378 0
M  V30 745 H 88.776 -0.608863 -5.05144 0
M  V30 746 H 88.174 2.57229 -5.03835 0
M  V30 747 H 86.731 2.61633 -5.96985 0
M  V30 748 N 90.1641 1.46063 -0.591896 0
M  V30 749 C 91.3921 2.06717 -0.0868936 0
M  V30 750 C 91.8071 1.43916 1.22203 0
M  V30 751 O 91.1641 0.547698 1.74088 0
M  V30 752 C 91.2151 3.6142 0.0758725 0
M  V30 753 O 90.9361 4.21874 -1.18126 0
M  V30 754 C 92.4371 4.39025 0.61416 0
M  V30 755 H 89.6571 0.668162 -0.0616518 0
M  V30 756 H 92.2011 1.8755 -0.815175 0
M  V30 757 H 90.3561 3.79983 0.754413 0
M  V30 758 H 90.7701 5.14861 -1.00092 0
M  V30 759 H 92.2441 5.4783 0.677193 0
M  V30 760 H 92.7211 4.07708 1.63312 0
M  V30 761 H 93.3271 4.2529 -0.0298142 0
M  V30 762 N 91.6422 0.330177 1.54103 0
M  V30 763 C 93.0532 -0.15652 1.86043 0
M  V30 764 C 93.4042 -1.51086 1.2517 0
M  V30 765 O 92.5292 -2.09023 0.560217 0
M  V30 766 C 93.1242 -0.290784 3.3755 0
M  V30 767 C 91.6832 -0.721705 3.69416 0
M  V30 768 C 90.8302 0.152622 2.7688 0
M  V30 769 H 93.7812 0.550237 1.48856 0
M  V30 770 H 93.8022 -1.12058 3.63625 0
M  V30 771 H 93.3142 0.695068 3.81825 0
M  V30 772 H 91.4152 -1.71706 3.30678 0
M  V30 773 H 91.5282 -0.520869 4.7626 0
M  V30 774 H 89.8922 -0.372894 2.51956 0
M  V30 775 H 90.6752 1.13536 3.23982 0
M  V30 776 N 93.1203 -1.57491 0.0584922 0
M  V30 777 C 94.0833 -2.1085 -0.898617 0
M  V30 778 C 95.0833 -1.02964 -1.23511 0
M  V30 779 O 96.2733 -1.29007 -1.17059 0
M  V30 780 C 93.4053 -2.59881 -2.20623 0
M  V30 781 H 94.5983 -2.96715 -0.435936 0
M  V30 782 H 92.1513 -1.55141 -0.190023 0
M  V30 783 H 92.8863 -1.77431 -2.71457 0
M  V30 784 H 92.6713 -3.38727 -1.97501 0
M  V30 785 H 94.1613 -3.01285 -2.89166 0
M  V30 786 N 94.5984 0.214957 -1.56127 0
M  V30 787 C 95.8234 0.95924 -1.83884 0
M  V30 788 C 96.2484 1.7689 -0.639644 0
M  V30 789 O 95.6064 1.76566 0.411601 0
M  V30 790 C 95.6544 1.84723 -3.09693 0
M  V30 791 O 94.7584 2.94346 -2.8885 0
M  V30 792 H 94.0994 0.27125 -0.606069 0
M  V30 793 H 96.6294 0.226276 -2.03345 0
M  V30 794 H 96.6394 2.25576 -3.39969 0
M  V30 795 H 95.3144 1.25218 -3.96602 0
M  V30 796 H 93.8914 2.57391 -2.69823 0
M  V30 797 N 96.0765 1.50051 0.48192 0
M  V30 798 C 97.0395 1.67584 1.5636 0
M  V30 799 C 98.0395 0.546894 1.51214 0
M  V30 800 O 99.2295 0.813725 1.54026 0
M  V30 801 C 96.3615 1.691 2.96003 0
M  V30 802 H 97.5545 2.64078 1.42136 0
M  V30 803 H 95.1075 1.39369 0.707533 0
M  V30 804 H 95.8425 0.742589 3.15684 0
M  V30 805 H 95.6275 2.51105 3.01146 0
M  V30 806 H 97.1175 1.84656 3.74556 0
M  V30 807 N 97.5546 -0.734337 1.39446 0
M  V30 808 C 98.4866 -1.85861 1.34121 0
M  V30 809 C 99.4996 -1.60871 0.249864 0
M  V30 810 O 100.689 -1.71093 0.508865 0
M  V30 811 C 97.7886 -3.21899 1.05991 0
M  V30 812 C 96.9616 -3.74239 2.26415 0
M  V30 813 C 96.0206 -4.88841 1.94733 0
M  V30 814 O 95.0466 -5.02468 2.67422 0
M  V30 815 N 96.2486 -5.73261 0.913884 0
M  V30 816 H 99.0136 -1.90934 2.31007 0
M  V30 817 H 96.5746 -0.915102 1.33557 0
M  V30 818 H 98.5666 -3.96136 0.828147 0
M  V30 819 H 97.1366 -3.12091 0.178361 0
M  V30 820 H 96.3566 -2.91347 2.65539 0
M  V30 821 H 97.6446 -4.05942 3.06738 0
M  V30 822 H 97.0426 -5.64842 0.311476 0
M  V30 823 H 95.5996 -6.47563 0.742015 0
M  V30 824 N 99.0327 -1.24633 -0.964593 0
M  V30 825 C 99.9957 -1.0424 -2.04124 0
M  V30 826 C 100.996 0.00137563 -1.608 0
M  V30 827 O 102.186 -0.239883 -1.7254 0
M  V30 828 C 99.3177 -0.580588 -3.3592 0
M  V30 829 H 100.511 -1.99803 -2.23649 0
M  V30 830 H 98.0637 -1.06899 -1.14027 0
M  V30 831 H 98.7987 0.3781 -3.22088 0
M  V30 832 H 98.5837 -1.33398 -3.6871 0
M  V30 833 H 100.074 -0.459034 -4.15069 0
M  V30 834 N 100.511 1.16574 -1.06058 0
M  V30 835 C 101.922 1.68662 -0.800632 0
M  V30 836 C 102.273 1.84184 0.67608 0
M  V30 837 O 101.398 1.53568 1.52466 0
M  V30 838 C 101.993 3.06356 -1.44676 0
M  V30 839 C 100.552 3.55575 -1.23465 0
M  V30 840 C 99.6988 2.31616 -1.52477 0
M  V30 841 H 102.65 1.00969 -1.22438 0
M  V30 842 H 102.671 3.70636 -0.860788 0
M  V30 843 H 102.183 2.95027 -2.52152 0
M  V30 844 H 100.284 3.72167 -0.179527 0
M  V30 845 H 100.397 4.37812 -1.94571 0
M  V30 846 H 98.7608 2.36512 -0.945209 0
M  V30 847 H 99.5438 2.22887 -2.61106 0
M  V30 848 N 101.989 0.842826 1.3317 0
M  V30 849 C 102.952 0.284065 2.27433 0
M  V30 850 C 103.952 -0.54948 1.5112 0
M  V30 851 O 105.142 -0.362699 1.70382 0
M  V30 852 C 102.274 -0.599384 3.35589 0
M  V30 853 H 103.467 1.11589 2.78366 0
M  V30 854 H 101.02 0.616221 1.4364 0
M  V30 855 H 101.755 -1.45349 2.89904 0
M  V30 856 H 101.54 -0.00291266 3.921 0
M  V30 857 H 103.03 -0.983488 4.05854 0
M  V30 858 N 103.467 -1.45747 0.599634 0
M  V30 859 C 104.399 -2.28628 -0.161879 0
M  V30 860 C 105.412 -1.39494 -0.839367 0
M  V30 861 O 106.601 -1.63941 -0.706089 0
M  V30 862 C 103.701 -3.15014 -1.24976 0
M  V30 863 C 102.874 -4.32378 -0.660935 0
M  V30 864 C 101.933 -5.00033 -1.63869 0
M  V30 865 O 100.959 -5.57085 -1.1681 0
M  V30 866 N 102.161 -4.98589 -2.97303 0
M  V30 867 H 104.926 -2.94624 0.549265 0
M  V30 868 H 102.487 -1.55847 0.438565 0
M  V30 869 H 104.479 -3.5714 -1.9035 0
M  V30 870 H 103.049 -2.5098 -1.86354 0
M  V30 871 H 102.269 -3.9383 0.170688 0
M  V30 872 H 103.557 -5.08197 -0.247619 0
M  V30 873 H 102.955 -4.53514 -3.38145 0
M  V30 874 H 101.512 -5.44603 -3.58121 0
M  V30 875 N 104.945 -0.338344 -1.53925 0
M  V30 876 C 106.173 0.261298 -2.05243 0
M  V30 877 C 106.588 1.44625 -1.21363 0
M  V30 878 O 105.945 1.80811 -0.247736 0
M  V30 879 C 105.996 0.681412 -3.5502 0
M  V30 880 O 105.717 -0.456414 -4.35716 0
M  V30 881 C 107.218 1.34232 -4.22489 0
M  V30 882 H 104.438 0.0513685 -0.669031 0
M  V30 883 H 106.982 -0.488822 -1.98572 0
M  V30 884 H 105.137 1.38148 -3.61931 0
M  V30 885 H 105.551 -0.122564 -5.24357 0
M  V30 886 H 107.025 1.58708 -5.28693 0
M  V30 887 H 107.502 2.29426 -3.74514 0
M  V30 888 H 108.108 0.684424 -4.19757 0
M  V30 889 N 106.423 1.57458 -0.0668435 0
M  V30 890 C 107.834 1.80776 0.466558 0
M  V30 891 C 108.185 0.980361 1.69951 0
M  V30 892 O 107.31 0.201441 2.1546 0
M  V30 893 C 107.905 3.27881 0.85321 0
M  V30 894 C 106.464 3.52062 1.3315 0
M  V30 895 C 105.611 2.75513 0.314264 0
M  V30 896 H 108.562 1.5598 -0.292588 0
M  V30 897 H 108.583 3.39659 1.715 0
M  V30 898 H 108.095 3.88075 -0.0443439 0
M  V30 899 H 106.196 2.97167 2.24772 0
M  V30 900 H 106.309 4.60762 1.31285 0
M  V30 901 H 104.673 2.42123 0.790492 0
M  V30 902 H 105.456 3.38442 -0.575477 0
M  V30 903 N 107.901 -0.206675 1.56239 0
M  V30 904 C 108.864 -1.23976 1.92776 0
M  V30 905 C 109.864 -1.39041 0.807729 0
M  V30 906 O 111.054 -1.37051 1.0753 0
M  V30 907 C 108.186 -2.61112 2.19165 0
M  V30 908 H 109.379 -0.927764 2.85189 0
M  V30 909 H 106.932 -0.447718 1.4975 0
M  V30 910 H 107.667 -2.97386 1.29352 0
M  V30 911 H 107.452 -2.51552 3.00772 0
M  V30 912 H 108.942 -3.35633 2.48476 0
M  V30 913 N 109.379 -1.50304 -0.473955 0
M  V30 914 C 110.79 -1.54042 -1.0549 0
M  V30 915 C 111.141 -0.342248 -1.93192 0
M  V30 916 O 110.266 0.545157 -2.09421 0
M  V30 917 C 110.861 -2.79152 -1.91989 0
M  V30 918 C 109.42 -2.8558 -2.45196 0
M  V30 919 C 108.567 -2.48295 -1.2347 0
M  V30 920 H 111.518 -1.5661 -0.256693 0
M  V30 921 H 111.539 -2.60845 -2.7702 0
M  V30 922 H 111.051 -3.66339 -1.28131 0
M  V30 923 H 109.152 -2.02738 -3.12615 0
M  V30 924 H 109.265 -3.88403 -2.80499 0
M  V30 925 H 107.629 -2.00669 -1.56856 0
M  V30 926 H 108.412 -3.37787 -0.612789 0
M  V30 927 N 110.857 0.726932 -1.39834 0
M  V30 928 C 111.82 1.82269 -1.38962 0
M  V30 929 C 112.82 1.58248 -0.285334 0
M  V30 930 O 114.01 1.65499 -0.54366 0
M  V30 931 C 111.142 3.20186 -1.17019 0
M  V30 932 H 112.335 1.84443 -2.36476 0
M  V30 933 H 109.888 0.931416 -1.25516 0
M  V30 934 H 110.623 3.23669 -0.202204 0
M  V30 935 H 110.408 3.3902 -1.96998 0
M  V30 936 H 111.898 4.00235 -1.1917 0
M  V30 937 N 112.336 1.25143 0.95797 0
M  V30 938 C 113.266 1.07711 2.07173 0
M  V30 939 C 114.247 -0.0128462 1.70095 0
M  V30 940 O 115.432 0.156061 1.93572 0
M  V30 941 C 112.562 0.691503 3.40346 0
M  V30 942 C 111.516 1.73132 3.9142 0
M  V30 943 C 110.842 1.20049 5.21049 0
M  V30 944 C 112.142 3.1294 4.1817 0
M  V30 945 H 113.836 2.00873 2.22014 0
M  V30 946 H 111.382 0.967191 1.06684 0
M  V30 947 H 113.335 0.556505 4.17709 0
M  V30 948 H 112.059 -0.275819 3.25433 0
M  V30 949 H 110.718 1.8547 3.16222 0
M  V30 950 H 110.366 0.223499 5.02503 0
M  V30 951 H 110.066 1.89545 5.56189 0
M  V30 952 H 111.59 1.07782 6.01012 0
M  V30 953 H 113.004 3.03775 4.86203 0
M  V30 954 H 111.401 3.79875 4.64559 0
M  V30 955 H 112.471 3.6025 3.24573 0
M  V30 956 N 113.814 -1.1601 1.06675 0
M  V30 957 C 115.225 -1.68235 0.809565 0
M  V30 958 C 115.576 -1.8454 -0.666303 0
M  V30 959 O 114.701 -1.54374 -1.5165 0
M  V30 960 C 115.296 -3.05585 1.46299 0
M  V30 961 C 113.855 -3.54915 1.25349 0
M  V30 962 C 113.002 -2.30804 1.53703 0
M  V30 963 H 115.953 -1.00318 1.22971 0
M  V30 964 H 115.974 -3.70174 0.880431 0
M  V30 965 H 115.486 -2.93686 2.53713 0
M  V30 966 H 113.587 -3.72067 0.199261 0
M  V30 967 H 113.7 -4.36774 1.9689 0
M  V30 968 H 112.064 -2.36007 0.957739 0
M  V30 969 H 112.847 -2.21499 2.62284 0
M  V30 970 N 115.292 -0.849877 -1.32721 0
M  V30 971 C 116.54 -0.450032 -1.97026 0
M  V30 972 C 116.861 0.996604 -1.67609 0
M  V30 973 O 116.131 1.6958 -0.980786 0
M  V30 974 H 114.711 -0.163426 -0.728904 0
M  V30 975 H 117.373 -1.08526 -1.6189 0
M  V30 976 H 116.469 -0.591146 -3.0645 0
M  V30 977 N 116.77 1.45427 -0.607355 0
M  V30 978 C 118.181 1.85756 -0.187535 0
M  V30 979 C 118.532 1.5077 1.25551 0
M  V30 980 O 117.657 0.93427 1.95193 0
M  V30 981 C 118.252 3.37154 -0.333572 0
M  V30 982 C 116.811 3.76387 0.0315542 0
M  V30 983 C 115.958 2.69377 -0.658117 0
M  V30 984 H 118.909 1.36231 -0.81405 0
M  V30 985 H 118.93 3.78014 0.43428 0
M  V30 986 H 118.442 3.62586 -1.38393 0
M  V30 987 H 116.543 3.56571 1.0811 0
M  V30 988 H 116.656 4.77731 -0.361935 0
M  V30 989 H 115.02 2.5452 -0.0957873 0
M  V30 990 H 115.803 2.97646 -1.7106 0
M  V30 991 N 118.248 0.346503 1.53744 0
M  V30 992 C 119.211 -0.496439 2.23759 0
M  V30 993 C 120.211 -1.0252 1.2388 0
M  V30 994 O 121.401 -0.913974 1.48297 0
M  V30 995 C 118.533 -1.69187 2.95954 0
M  V30 996 H 119.726 0.115952 2.99676 0
M  V30 997 H 117.279 0.0978939 1.55993 0
M  V30 998 H 118.014 -2.34288 2.24231 0
M  V30 999 H 117.799 -1.31989 3.69217 0
M  V30 1000 H 119.289 -2.28969 3.49232 0
M  V30 1001 N 119.726 -1.57421 0.075193 0
M  V30 1002 C 120.656 -2.15942 -0.888324 0
M  V30 1003 C 121.637 -1.08737 -1.30806 0
M  V30 1004 O 122.822 -1.36787 -1.37851 0
M  V30 1005 C 119.952 -2.72379 -2.1547 0
M  V30 1006 C 118.906 -3.8478 -1.87425 0
M  V30 1007 C 118.232 -4.27834 -3.20721 0
M  V30 1008 C 119.532 -5.08869 -1.17684 0
M  V30 1009 H 121.226 -2.96705 -0.400799 0
M  V30 1010 H 118.772 -1.42723 -0.191342 0
M  V30 1011 H 120.725 -3.11965 -2.83295 0
M  V30 1012 H 119.449 -1.88841 -2.6647 0
M  V30 1013 H 118.108 -3.45703 -1.22004 0
M  V30 1014 H 117.756 -3.41214 -3.6957 0
M  V30 1015 H 117.456 -5.03605 -3.02746 0
M  V30 1016 H 118.98 -4.70039 -3.89738 0
M  V30 1017 H 120.394 -5.4575 -1.75584 0
M  V30 1018 H 118.791 -5.8994 -1.09956 0
M  V30 1019 H 119.861 -4.84648 -0.156453 0
M  V30 1020 N 121.204 0.198386 -1.56346 0
M  V30 1021 C 122.615 0.763358 -1.70381 0
M  V30 1022 C 122.966 1.83995 -0.681203 0
M  V30 1023 O 122.091 2.15785 0.16305 0
M  V30 1024 C 122.686 1.39143 -3.08909 0
M  V30 1025 C 121.245 1.90352 -3.2472 0
M  V30 1026 C 120.392 0.772233 -2.6633 0
M  V30 1027 H 123.343 -0.0266377 -1.58678 0
M  V30 1028 H 123.364 2.26076 -3.06055 0
M  V30 1029 H 122.876 0.607638 -3.83314 0
M  V30 1030 H 120.977 2.71461 -2.55225 0
M  V30 1031 H 121.09 2.06757 -4.3219 0
M  V30 1032 H 119.454 1.18566 -2.2542 0
M  V30 1033 H 120.237 0.00073556 -3.433 0
M  V30 1034 N 122.682 1.50554 0.465978 0
M  V30 1035 C 123.93 1.61479 1.21528 0
M  V30 1036 C 124.251 0.319596 1.92363 0
M  V30 1037 O 123.521 -0.663194 1.84333 0
M  V30 1038 H 122.101 0.595055 0.451573 0
M  V30 1039 H 124.763 1.87355 0.53704 0
M  V30 1040 H 123.859 2.42846 1.96042 0
M  V30 1041 N 124.16 -0.719506 1.40217 0
M  V30 1042 C 125.571 -1.29848 1.34151 0
M  V30 1043 C 125.922 -1.96196 0.0131349 0
M  V30 1044 O 125.047 -1.973 -0.88892 0
M  V30 1045 C 125.642 -2.36118 2.42968 0
M  V30 1046 C 124.201 -2.8965 2.40374 0
M  V30 1047 C 123.348 -1.63393 2.24049 0
M  V30 1048 H 126.299 -0.51591 1.5008 0
M  V30 1049 H 126.32 -3.16871 2.10649 0
M  V30 1050 H 125.832 -1.878 3.39636 0
M  V30 1051 H 123.933 -3.42208 1.47392 0
M  V30 1052 H 124.046 -3.4171 3.35814 0
M  V30 1053 H 122.41 -1.88312 1.71495 0
M  V30 1054 H 123.193 -1.17104 3.2271 0
M  V30 1055 N 125.638 -1.25649 -0.95132 0
M  V30 1056 C 126.885 -1.10594 -1.69633 0
M  V30 1057 C 127.213 0.352515 -1.91279 0
M  V30 1058 O 126.468 1.27601 -1.4838 0
M  V30 1059 C 126.767 -1.80909 -3.08231 0
M  V30 1060 C 126.433 -3.30825 -3.06375 0
M  V30 1061 C 125.095 -3.71722 -3.05576 0
M  V30 1062 C 127.447 -4.26589 -2.99452 0
M  V30 1063 C 124.775 -5.06788 -2.95606 0
M  V30 1064 C 127.127 -5.61683 -2.91024 0
M  V30 1065 C 125.791 -6.01904 -2.88562 0
M  V30 1066 H 125.061 -0.404691 -0.620731 0
M  V30 1067 H 127.708 -1.55964 -1.11119 0
M  V30 1068 H 126.013 -1.27979 -3.70309 0
M  V30 1069 H 127.71 -1.6671 -3.64704 0
M  V30 1070 H 124.3 -2.98287 -3.07771 0
M  V30 1071 H 128.484 -3.95982 -2.99185 0
M  V30 1072 H 123.74 -5.37126 -2.92071 0
M  V30 1073 H 127.914 -6.35578 -2.84629 0
M  V30 1074 H 125.541 -7.06521 -2.80593 0
M  V30 1075 N 127.117 1.15442 -1.07289 0
M  V30 1076 C 128.528 1.67803 -0.818475 0
M  V30 1077 C 128.879 1.8489 0.656507 0
M  V30 1078 O 128.004 1.55176 1.50829 0
M  V30 1079 C 128.599 3.04805 -1.47917 0
M  V30 1080 C 127.158 3.54245 -1.27229 0
M  V30 1081 C 126.305 2.29986 -1.54925 0
M  V30 1082 H 129.256 0.996646 -1.23502 0
M  V30 1083 H 129.277 3.69702 -0.90005 0
M  V30 1084 H 128.789 2.92336 -2.55267 0
M  V30 1085 H 126.89 3.71956 -0.21899 0
M  V30 1086 H 127.003 4.35723 -1.99203 0
M  V30 1087 H 125.367 2.35496 -0.970242 0
M  V30 1088 H 126.15 2.20105 -2.63455 0
M  V30 1089 N 128.595 0.856903 1.32268 0
M  V30 1090 C 129.843 0.460474 1.96784 0
M  V30 1091 C 130.164 -0.987701 1.68135 0
M  V30 1092 O 129.434 -1.69058 0.989765 0
M  V30 1093 H 128.014 0.167289 0.728027 0
M  V30 1094 H 130.676 1.09383 1.61312 0
M  V30 1095 H 129.772 0.60739 3.06133 0
M  V30 1096 N 130.073 -1.45103 0.615059 0
M  V30 1097 C 131.321 -2.01784 0.112955 0
M  V30 1098 C 131.642 -1.48504 -1.26378 0
M  V30 1099 O 130.912 -0.682245 -1.83636 0
M  V30 1100 H 129.492 -0.745993 0.0387668 0
M  V30 1101 H 132.154 -1.77808 0.798141 0
M  V30 1102 H 131.25 -3.12025 0.0684069 0
M  V30 1103 N 131.551 -0.354651 -1.53558 0
M  V30 1104 C 132.967 -0.00315426 -1.596 0
M  V30 1105 C 133.167 1.47741 -1.37021 0
M  V30 1106 O 132.223 2.23759 -1.16996 0
M  V30 1107 C 133.536 -0.44929 -2.97325 0
M  V30 1108 C 135.084 -0.402578 -3.104 0
M  V30 1109 C 135.559 -0.824355 -4.5052 0
M  V30 1110 N 137.05 -0.778979 -4.56603 0
M  V30 1111 C 137.785 -1.07715 -5.63192 0
M  V30 1112 N 137.281 -1.44405 -6.77583 0
M  V30 1113 N 139.074 -1.00066 -5.53121 0
M  V30 1114 H 131.225 -1.31893 -1.66487 0
M  V30 1115 H 133.488 -0.538388 -0.780284 0
M  V30 1116 H 133.194 -1.48202 -3.1895 0
M  V30 1117 H 133.068 0.169772 -3.76818 0
M  V30 1118 H 135.455 0.621004 -2.88492 0
M  V30 1119 H 135.536 -1.05699 -2.32941 0
M  V30 1120 H 135.18 -1.846 -4.73165 0
M  V30 1121 H 135.11 -0.147304 -5.26394 0
M  V30 1122 H 137.601 -0.508528 -3.74463 0
M  V30 1123 H 137.914 -1.65612 -7.54846 0
M  V30 1124 H 136.259 -1.4826 -6.79002 0
M  V30 1125 H 139.45 -0.713293 -4.62633 0
M  V30 1126 H 139.623 -1.23638 -6.36096 0
M  V30 1127 N 133.029 1.57378 -0.0835403 0
M  V30 1128 C 134.275 1.94217 0.583733 0
M  V30 1129 C 134.608 0.964653 1.68547 0
M  V30 1130 O 133.883 -0.00422258 1.945 0
M  V30 1131 C 134.166 3.41253 1.14972 0
M  V30 1132 C 134.019 4.49768 0.0538277 0
M  V30 1133 C 135.338 3.89352 2.05166 0
M  V30 1134 H 132.457 0.706233 0.210724 0
M  V30 1135 H 135.099 1.89392 -0.1519 0
M  V30 1136 H 133.249 3.45496 1.77665 0
M  V30 1137 H 134.921 4.57641 -0.579851 0
M  V30 1138 H 133.164 4.29432 -0.614068 0
M  V30 1139 H 133.835 5.49817 0.490452 0
M  V30 1140 H 136.311 3.87189 1.52393 0
M  V30 1141 H 135.187 4.92822 2.41698 0
M  V30 1142 H 135.448 3.27973 2.96456 0
M  V30 1143 N 134.507 -0.190092 1.56449 0
M  V30 1144 C 135.753 -0.911052 1.81184 0
M  V30 1145 C 136.086 -1.82699 0.658396 0
M  V30 1146 O 135.361 -1.91491 -0.340775 0
M  V30 1147 C 135.644 -1.72297 3.16205 0
M  V30 1148 C 135.497 -0.831419 4.42049 0
M  V30 1149 C 136.816 -2.69454 3.47969 0
M  V30 1150 H 133.935 -0.32977 0.659106 0
M  V30 1151 H 136.577 -0.178169 1.89163 0
M  V30 1152 H 134.727 -2.34778 3.09534 0
M  V30 1153 H 136.399 -0.220929 4.60771 0
M  V30 1154 H 134.642 -0.138406 4.33579 0
M  V30 1155 H 135.313 -1.43461 5.33032 0
M  V30 1156 H 137.789 -2.17104 3.54972 0
M  V30 1157 H 136.665 -3.23342 4.43555 0
M  V30 1158 H 136.926 -3.48744 2.71717 0
M  V30 1159 N 135.985 -1.50799 -0.457987 0
M  V30 1160 C 137.401 -1.38515 -0.792819 0
M  V30 1161 C 137.601 -0.451409 -1.96379 0
M  V30 1162 O 136.657 0.10112 -2.52297 0
M  V30 1163 C 137.97 -2.80149 -1.09258 0
M  V30 1164 C 139.518 -2.89156 -1.19825 0
M  V30 1165 C 139.993 -4.31651 -1.53106 0
M  V30 1166 N 141.484 -4.34662 -1.60072 0
M  V30 1167 C 142.219 -5.41928 -1.87354 0
M  V30 1168 N 141.715 -6.59384 -2.12568 0
M  V30 1169 N 143.508 -5.29385 -1.88965 0
M  V30 1170 H 135.659 -2.10073 0.313511 0
M  V30 1171 H 137.922 -0.944803 0.0777862 0
M  V30 1172 H 137.628 -3.50374 -0.305084 0
M  V30 1173 H 137.502 -3.18204 -2.02549 0
M  V30 1174 H 139.889 -2.19141 -1.97639 0
M  V30 1175 H 139.97 -2.54626 -0.244821 0
M  V30 1176 H 139.614 -5.02208 -0.758266 0
M  V30 1177 H 139.544 -4.63678 -2.49621 0
M  V30 1178 H 142.035 -3.49973 -1.42573 0
M  V30 1179 H 142.348 -7.36934 -2.32696 0
M  V30 1180 H 140.693 -6.62535 -2.09933 0
M  V30 1181 H 143.884 -4.36616 -1.68772 0
M  V30 1182 H 144.057 -6.13066 -2.09891 0
M  V30 1183 N 137.463 0.71206 -1.40597 0
M  V30 1184 C 138.393 1.83889 -1.43899 0
M  V30 1185 C 139.374 1.67442 -0.299504 0
M  V30 1186 O 140.559 1.87421 -0.508624 0
M  V30 1187 C 137.689 3.21877 -1.30431 0
M  V30 1188 C 136.643 3.53002 -2.42019 0
M  V30 1189 C 135.969 4.90172 -2.13626 0
M  V30 1190 C 137.269 3.53643 -3.84362 0
M  V30 1191 H 138.963 1.81383 -2.38203 0
M  V30 1192 H 136.509 0.871237 -1.14654 0
M  V30 1193 H 138.462 4.00404 -1.31357 0
M  V30 1194 H 137.186 3.24968 -0.326049 0
M  V30 1195 H 135.845 2.76818 -2.40349 0
M  V30 1196 H 135.493 4.89869 -1.14182 0
M  V30 1197 H 135.193 5.11962 -2.88389 0
M  V30 1198 H 136.717 5.71028 -2.1624 0
M  V30 1199 H 138.131 4.22203 -3.87837 0
M  V30 1200 H 136.528 3.86961 -4.58673 0
M  V30 1201 H 137.598 2.52954 -4.13693 0
M  V30 1202 N 138.941 1.26152 0.944643 0
M  V30 1203 C 139.891 1.04081 2.02857 0
M  V30 1204 C 140.875 -0.0256555 1.6088 0
M  V30 1205 O 142.067 0.190884 1.75968 0
M  V30 1206 C 139.196 0.672118 3.36656 0
M  V30 1207 C 138.282 1.77586 3.85128 0
M  V30 1208 N 138.673 3.01272 4.06287 0
M  V30 1209 C 136.971 1.65867 4.1401 0
M  V30 1210 C 137.672 3.72983 4.46384 0
M  V30 1211 N 136.648 3.00653 4.52889 0
M  V30 1212 H 140.45 1.97968 2.17223 0
M  V30 1213 H 137.964 1.16618 1.13022 0
M  V30 1214 H 139.961 0.495166 4.13949 0
M  V30 1215 H 138.621 -0.259307 3.23663 0
M  V30 1216 H 139.632 3.37213 3.93075 0
M  V30 1217 H 136.309 0.796907 4.09824 0
M  V30 1218 H 137.699 4.792 4.70975 0
M  V30 1219 N 140.419 -1.14872 1.07899 0
M  V30 1220 C 141.83 -1.67367 0.827363 0
M  V30 1221 C 142.181 -1.85236 -0.646693 0
M  V30 1222 O 141.306 -1.55974 -1.50004 0
M  V30 1223 C 141.901 -3.04016 1.49532 0
M  V30 1224 C 140.46 -3.53566 1.29106 0
M  V30 1225 C 139.607 -2.29161 1.56143 0
M  V30 1226 H 142.558 -0.990083 1.24028 0
M  V30 1227 H 142.579 -3.69219 0.919643 0
M  V30 1228 H 142.091 -2.90978 2.56814 0
M  V30 1229 H 140.192 -3.71835 0.238713 0
M  V30 1230 H 140.305 -4.34661 2.01511 0
M  V30 1231 H 138.669 -2.34978 0.982717 0
M  V30 1232 H 139.452 -2.18705 2.64619 0
M  V30 1233 N 141.898 -0.863906 -1.31812 0
M  V30 1234 C 143.144 -0.472535 -1.97218 0
M  V30 1235 C 143.477 0.971394 -1.68159 0
M  V30 1236 O 142.752 1.68309 -0.974798 0
M  V30 1237 C 143.035 -0.723054 -3.52766 0
M  V30 1238 C 142.888 -2.21608 -3.91421 0
M  V30 1239 C 144.207 -0.185522 -4.39709 0
M  V30 1240 H 141.326 -0.173158 -0.71637 0
M  V30 1241 H 143.968 -1.08403 -1.56041 0
M  V30 1242 H 142.118 -0.202577 -3.87971 0
M  V30 1243 H 143.79 -2.80334 -3.66347 0
M  V30 1244 H 142.033 -2.691 -3.40246 0
M  V30 1245 H 142.704 -2.34203 -4.99853 0
M  V30 1246 H 145.18 -0.630726 -4.11292 0
M  V30 1247 H 144.056 -0.390306 -5.47511 0
M  V30 1248 H 144.317 0.912229 -4.32586 0
M  V30 1249 N 143.376 1.44774 -0.622745 0
M  V30 1250 C 144.625 2.01334 -0.121397 0
M  V30 1251 C 144.938 1.49505 1.26125 0
M  V30 1252 O 146.144 1.98139 1.85616 0
M  V30 1253 C 144.6 3.59516 -0.166298 0
M  V30 1254 C 144.208 4.20342 -1.54974 0
M  V30 1255 C 145.952 4.23582 0.279021 0
M  V30 1256 C 143.859 5.70721 -1.55021 0
M  V30 1257 H 142.789 0.752851 -0.0416172 0
M  V30 1258 H 145.44 1.66083 -0.780309 0
M  V30 1259 H 143.822 3.92027 0.559557 0
M  V30 1260 H 144.996 3.99381 -2.29851 0
M  V30 1261 H 143.311 3.68529 -1.93843 0
M  V30 1262 H 145.908 5.33868 0.298083 0
M  V30 1263 H 146.251 3.95327 1.30471 0
M  V30 1264 H 146.784 3.95843 -0.394063 0
M  V30 1265 H 143.523 6.03698 -2.55399 0
M  V30 1266 H 143.043 5.93829 -0.844245 0
M  V30 1267 H 144.722 6.34203 -1.28047 0
M  V30 1268 N 144.854 0.36279 1.53368 0
M  V30 1269 C 145.784 -0.476976 2.28576 0
M  V30 1270 C 146.765 -1.08631 1.30894 0
M  V30 1271 O 147.95 -1.10409 1.59761 0
M  V30 1272 C 145.08 -1.61828 3.07293 0
M  V30 1273 C 144.034 -1.13633 4.1264 0
M  V30 1274 C 143.36 -2.36766 4.79423 0
M  V30 1275 C 144.66 -0.223061 5.21823 0
M  V30 1276 H 146.354 0.150474 2.99022 0
M  V30 1277 H 143.9 0.0738103 1.43811 0
M  V30 1278 H 145.853 -2.21237 3.58653 0
M  V30 1279 H 144.577 -2.27292 2.34533 0
M  V30 1280 H 143.236 -0.564945 3.62221 0
M  V30 1281 H 142.884 -3.0068 4.03238 0
M  V30 1282 H 142.584 -2.05192 5.50609 0
M  V30 1283 H 144.108 -2.96865 5.33576 0
M  V30 1284 H 145.522 -0.724545 5.68703 0
M  V30 1285 H 143.919 0.001678 6.001 0
M  V30 1286 H 144.989 0.735553 4.79289 0
M  V30 1287 N 146.332 -1.57332 0.0918853 0
M  V30 1288 C 147.295 -2.12708 -0.85369 0
M  V30 1289 C 148.295 -1.05561 -1.213 0
M  V30 1290 O 149.485 -1.31461 -1.14296 0
M  V30 1291 C 146.617 -2.64503 -2.15061 0
M  V30 1292 H 147.81 -2.97573 -0.3729 0
M  V30 1293 H 145.363 -1.55509 -0.157072 0
M  V30 1294 H 146.098 -1.83149 -2.67632 0
M  V30 1295 H 145.883 -3.4284 -1.90272 0
M  V30 1296 H 147.373 -3.07351 -2.82711 0
M  V30 1297 N 147.81 0.181792 -1.56548 0
M  V30 1298 C 149.035 0.920019 -1.85877 0
M  V30 1299 C 149.46 1.75494 -0.677021 0
M  V30 1300 O 148.818 1.77399 0.374056 0
M  V30 1301 C 148.866 1.78112 -3.13542 0
M  V30 1302 O 147.97 2.88152 -2.95029 0
M  V30 1303 H 147.311 0.258334 -0.611686 0
M  V30 1304 H 149.841 0.183092 -2.03779 0
M  V30 1305 H 149.851 2.18314 -3.44678 0
M  V30 1306 H 148.526 1.16777 -3.99169 0
M  V30 1307 H 147.103 2.51609 -2.75222 0
M  V30 1308 N 149.288 1.51039 0.449983 0
M  V30 1309 C 150.537 1.62317 1.19733 0
M  V30 1310 C 150.85 0.339101 1.92638 0
M  V30 1311 O 152.056 0.331069 2.69474 0
M  V30 1312 C 150.512 2.86608 2.17678 0
M  V30 1313 C 150.12 4.21972 1.50479 0
M  V30 1314 C 151.864 3.07239 2.92924 0
M  V30 1315 C 149.771 5.37426 2.46834 0
M  V30 1316 H 148.701 0.604532 0.450619 0
M  V30 1317 H 151.352 1.77494 0.465625 0
M  V30 1318 H 149.734 2.65037 2.94231 0
M  V30 1319 H 150.908 4.53878 0.795716 0
M  V30 1320 H 149.223 4.07117 0.874344 0
M  V30 1321 H 151.82 3.90668 3.65079 0
M  V30 1322 H 152.163 2.19807 3.5354 0
M  V30 1323 H 152.696 3.29091 2.23481 0
M  V30 1324 H 149.435 6.27079 1.90926 0
M  V30 1325 H 148.955 5.09912 3.15832 0
M  V30 1326 H 150.634 5.68862 3.08228 0
M  V30 1327 N 150.766 -0.704594 1.40972 0
M  V30 1328 C 152.012 -1.46675 1.40051 0
M  V30 1329 C 152.345 -1.94199 0.00641102 0
M  V30 1330 O 151.62 -1.68916 -0.964235 0
M  V30 1331 C 151.903 -2.68505 2.39952 0
M  V30 1332 C 151.756 -2.26805 3.88432 0
M  V30 1333 C 153.075 -3.70686 2.37233 0
M  V30 1334 H 150.194 -0.532015 0.510028 0
M  V30 1335 H 152.836 -0.803255 1.72185 0
M  V30 1336 H 150.986 -3.25114 2.1268 0
M  V30 1337 H 152.658 -1.75592 4.26574 0
M  V30 1338 H 150.901 -1.58685 4.03734 0
M  V30 1339 H 151.572 -3.14181 4.53866 0
M  V30 1340 H 154.048 -3.23731 2.61415 0
M  V30 1341 H 152.924 -4.53553 3.09162 0
M  V30 1342 H 153.185 -4.19754 1.38777 0
M  V30 1343 N 152.244 -1.26651 -0.937939 0
M  V30 1344 C 153.521 -1.0313 -1.66204 0
M  V30 1345 C 153.901 0.437256 -2.06522 0
M  V30 1346 O 153.249 1.41831 -1.79154 0
M  V30 1347 C 153.459 -1.98314 -2.87181 0
M  V30 1348 C 154.807 -2.27107 -3.58758 0
M  V30 1349 O 155.831 -1.96205 -2.97291 0
M  V30 1350 O 154.69 -2.79736 -4.69479 0
M  V30 1351 H 151.784 -0.392384 -0.727986 0
M  V30 1352 H 154.33 -1.37874 -0.989382 0
M  V30 1353 H 153.102 -2.97399 -2.54302 0
M  V30 1354 H 152.725 -1.64068 -3.6217 0
M  V30 1355 N 153.722 1.14298 -1.08507 0
M  V30 1356 C 154.947 1.8976 -0.837001 0
M  V30 1357 C 155.372 1.78097 0.605228 0
M  V30 1358 O 154.73 1.12188 1.4242 0
M  V30 1359 C 154.778 3.37685 -1.26495 0
M  V30 1360 O 153.882 4.10281 -0.417514 0
M  V30 1361 H 153.223 0.590365 -0.303917 0
M  V30 1362 H 155.753 1.44672 -1.44676 0
M  V30 1363 H 155.763 3.88501 -1.24625 0
M  V30 1364 H 154.438 3.45492 -2.31534 0
M  V30 1365 H 153.015 3.69536 -0.499722 0
M  V30 1366 N 155.201 0.870884 1.31352 0
M  V30 1367 C 156.431 0.496049 2.00557 0
M  V30 1368 C 156.839 -0.916241 1.65534 0
M  V30 1369 O 156.182 -1.61188 0.881134 0
M  V30 1370 C 156.244 0.574418 3.54881 0
M  V30 1371 C 155.908 1.94849 4.1338 0
M  V30 1372 C 156.905 2.91611 4.30417 0
M  V30 1373 C 154.59 2.25005 4.49086 0
M  V30 1374 C 156.584 4.16672 4.82352 0
M  V30 1375 C 154.271 3.50315 5.00722 0
M  V30 1376 C 155.269 4.45964 5.17306 0
M  V30 1377 O 154.957 5.69052 5.67833 0
M  V30 1378 H 154.689 0.191664 0.64826 0
M  V30 1379 H 157.243 1.17409 1.68536 0
M  V30 1380 H 155.473 -0.160549 3.86367 0
M  V30 1381 H 157.162 0.212879 4.05341 0
M  V30 1382 H 157.928 2.69622 4.03149 0
M  V30 1383 H 153.807 1.51332 4.35453 0
M  V30 1384 H 157.351 4.91336 4.95211 0
M  V30 1385 H 153.248 3.72147 5.27424 0
M  V30 1386 H 154.016 5.71236 5.86201 0
M  V30 1387 N 156.679 -1.44442 0.630414 0
M  V30 1388 C 157.589 -2.34476 -0.0761693 0
M  V30 1389 C 158.605 -1.52576 -0.836449 0
M  V30 1390 O 159.781 -1.85307 -0.788874 0
M  V30 1391 C 156.846 -3.30545 -1.04599 0
M  V30 1392 C 155.907 -4.28352 -0.28516 0
M  V30 1393 C 155.14 -5.19831 -1.20878 0
M  V30 1394 O 155.363 -5.15223 -2.44747 0
M  V30 1395 O 154.297 -5.97892 -0.693491 0
M  V30 1396 H 158.123 -2.96345 0.664324 0
M  V30 1397 H 155.708 -1.44203 0.39061 0
M  V30 1398 H 157.59 -3.89681 -1.60396 0
M  V30 1399 H 156.265 -2.7121 -1.76711 0
M  V30 1400 H 155.172 -3.72764 0.315837 0
M  V30 1401 H 156.505 -4.90605 0.395924 0
M  V30 1402 N 158.157 -0.370918 -1.53173 0
M  V30 1403 C 159.573 -0.0200818 -1.59587 0
M  V30 1404 C 159.773 1.46279 -1.38581 0
M  V30 1405 O 158.829 2.22506 -1.19363 0
M  V30 1406 C 160.142 -0.4808 -2.96831 0
M  V30 1407 C 161.69 -0.435477 -3.09956 0
M  V30 1408 C 162.165 -0.872092 -4.4962 0
M  V30 1409 N 163.656 -0.827364 -4.55751 0
M  V30 1410 C 164.391 -1.13683 -5.62018 0
M  V30 1411 N 163.887 -1.51584 -6.76014 0
M  V30 1412 N 165.68 -1.05927 -5.52029 0
M  V30 1413 H 157.831 -1.33652 -1.65079 0
M  V30 1414 H 160.094 -0.546634 -0.774529 0
M  V30 1415 H 159.8 -1.51577 -3.1736 0
M  V30 1416 H 159.674 0.129796 -3.76977 0
M  V30 1417 H 162.061 0.590371 -2.89134 0
M  V30 1418 H 162.142 -1.08164 -2.31806 0
M  V30 1419 H 161.786 -1.89608 -4.71181 0
M  V30 1420 H 161.716 -0.203127 -5.26208 0
M  V30 1421 H 164.207 -0.548216 -3.73902 0
M  V30 1422 H 164.52 -1.73609 -7.53047 0
M  V30 1423 H 162.865 -1.55454 -6.77391 0
M  V30 1424 H 166.056 -0.762321 -4.61851 0
M  V30 1425 H 166.229 -1.30378 -6.34749 0
M  V30 1426 N 159.635 1.57281 -0.100228 0
M  V30 1427 C 161.051 1.57527 0.256416 0
M  V30 1428 C 161.251 1.11173 1.68056 0
M  V30 1429 O 160.307 0.79053 2.39806 0
M  V30 1430 C 161.62 3.00673 0.0401747 0
M  V30 1431 C 163.168 3.12815 0.107528 0
M  V30 1432 C 163.643 4.57929 -0.0807834 0
M  V30 1433 N 165.134 4.63193 -0.0261207 0
M  V30 1434 C 165.869 5.73212 -0.146999 0
M  V30 1435 N 165.365 6.92047 -0.322999 0
M  V30 1436 N 167.158 5.62031 -0.0879044 0
M  V30 1437 H 159.309 1.85718 -1.03065 0
M  V30 1438 H 161.572 0.857446 -0.404339 0
M  V30 1439 H 161.278 3.38804 -0.943649 0
M  V30 1440 H 161.152 3.69042 0.780262 0
M  V30 1441 H 163.539 2.74554 1.08186 0
M  V30 1442 H 163.62 2.47028 -0.664134 0
M  V30 1443 H 163.264 4.96886 -1.05201 0
M  V30 1444 H 163.194 5.21783 0.710635 0
M  V30 1445 H 165.685 3.77748 0.107161 0
M  V30 1446 H 165.998 7.7173 -0.406608 0
M  V30 1447 H 164.343 6.94074 -0.358733 0
M  V30 1448 H 167.534 4.68075 0.048498 0
M  V30 1449 H 167.707 6.47734 -0.185557 0
M  V30 1450 N 161.113 -0.173488 1.56642 0
M  V30 1451 C 162.061 -1.23417 1.97157 0
M  V30 1452 C 163.055 -1.45946 0.860013 0
M  V30 1453 O 164.261 -1.46551 1.04512 0
M  V30 1454 H 160.636 -0.414818 0.62724 0
M  V30 1455 H 162.607 -0.865582 2.8557 0
M  V30 1456 C 161.356 -2.5665 2.34576 0
M  V30 1457 H 160.679 -2.40137 3.19647 0
M  V30 1458 H 162.119 -3.2956 2.6677 0
M  V30 1459 C 160.578 -3.15245 1.18836 0
M  V30 1460 O 161.108 -3.98883 0.474869 0
M  V30 1461 N 159.314 -2.74303 0.959497 0
M  V30 1462 H 158.861 -2.0639 1.54146 0
M  V30 1463 H 158.819 -3.13844 0.186932 0
M  V30 1464 N 162.591 -1.51276 -0.441967 0
M  V30 1465 C 163.501 -1.75092 -1.56141 0
M  V30 1466 C 164.517 -0.634963 -1.62001 0
M  V30 1467 O 165.693 -0.916686 -1.79329 0
M  V30 1468 C 162.758 -1.86666 -2.92158 0
M  V30 1469 C 161.819 -3.10506 -2.96453 0
M  V30 1470 C 161.052 -3.21519 -4.25982 0
M  V30 1471 O 161.275 -2.38586 -5.18105 0
M  V30 1472 O 160.209 -4.14465 -4.36466 0
M  V30 1473 H 164.035 -2.70044 -1.38961 0
M  V30 1474 H 161.62 -1.35722 -0.624499 0
M  V30 1475 H 163.502 -1.96292 -3.72891 0
M  V30 1476 H 162.177 -0.949014 -3.09476 0
M  V30 1477 H 161.084 -3.06363 -2.14692 0
M  V30 1478 H 162.417 -4.01945 -2.84079 0
M  V30 1479 N 164.069 0.697108 -1.41344 0
M  V30 1480 C 165.317 1.45426 -1.40341 0
M  V30 1481 C 165.638 1.94996 -0.0128787 0
M  V30 1482 O 164.908 1.71599 0.945027 0
M  V30 1483 H 163.488 0.539594 -0.516573 0
M  V30 1484 H 166.15 0.825201 -1.76569 0
M  V30 1485 H 165.246 2.31817 -2.08967 0
M  V30 1486 N 165.547 1.27147 0.931209 0
M  V30 1487 C 166.51 1.09615 2.01289 0
M  V30 1488 C 167.51 0.0412581 1.60747 0
M  V30 1489 O 168.7 0.285545 1.71844 0
M  V30 1490 C 165.832 0.669447 3.34262 0
M  V30 1491 H 167.025 2.05662 2.18273 0
M  V30 1492 H 164.578 1.09885 1.11153 0
M  V30 1493 H 165.313 -0.292572 3.22978 0
M  V30 1494 H 165.098 1.43127 3.65044 0
M  V30 1495 H 166.588 0.568921 4.13706 0
M  V30 1496 N 167.025 -1.13721 1.09112 0
M  V30 1497 C 167.988 -2.17222 0.731241 0
M  V30 1498 C 168.988 -1.59035 -0.237566 0
M  V30 1499 O 170.178 -1.74192 -0.0161704 0
M  V30 1500 C 167.31 -3.40804 0.0808443 0
M  V30 1501 H 168.503 -2.50573 1.64783 0
M  V30 1502 H 166.056 -1.28493 0.889897 0
M  V30 1503 H 166.791 -3.1304 -0.847127 0
M  V30 1504 H 166.576 -3.84306 0.777896 0
M  V30 1505 H 168.066 -4.1731 -0.155657 0
M  V30 1506 N 168.503 -0.877838 -1.30888 0
M  V30 1507 C 169.919 -0.570844 -1.49042 0
M  V30 1508 C 170.119 0.893159 -1.80624 0
M  V30 1509 O 169.175 1.67485 -1.88958 0
M  V30 1510 C 170.488 -1.47784 -2.61878 0
M  V30 1511 C 172.036 -1.48071 -2.75761 0
M  V30 1512 C 172.511 -2.37347 -3.91702 0
M  V30 1513 N 174.002 -2.35271 -3.99001 0
M  V30 1514 C 174.737 -3.01063 -4.88004 0
M  V30 1515 N 174.233 -3.76055 -5.81854 0
M  V30 1516 N 176.026 -2.90332 -4.81315 0
M  V30 1517 H 168.177 -1.82502 -1.0866 0
M  V30 1518 H 170.44 -0.780797 -0.537644 0
M  V30 1519 H 170.146 -2.51993 -2.45341 0
M  V30 1520 H 170.02 -1.18215 -3.58197 0
M  V30 1521 H 172.407 -0.446166 -2.91708 0
M  V30 1522 H 172.488 -1.81668 -1.80085 0
M  V30 1523 H 172.132 -3.40883 -3.76512 0
M  V30 1524 H 172.062 -2.01071 -4.86701 0
M  V30 1525 H 174.553 -1.80768 -3.3186 0
M  V30 1526 H 174.866 -4.23366 -6.46514 0
M  V30 1527 H 173.211 -3.80163 -5.81808 0
M  V30 1528 H 176.402 -2.31278 -4.06974 0
M  V30 1529 H 176.575 -3.41885 -5.50471 0
M  V30 1530 N 169.982 1.44106 -0.638065 0
M  V30 1531 C 171.228 2.02277 -0.145546 0
M  V30 1532 C 171.561 1.50125 1.23191 0
M  V30 1533 O 170.836 0.688133 1.8192 0
M  V30 1534 C 171.119 3.59829 -0.139791 0
M  V30 1535 C 170.972 4.22247 -1.55008 0
M  V30 1536 C 172.291 4.36873 0.531966 0
M  V30 1537 H 169.41 0.734992 -0.0543632 0
M  V30 1538 H 172.052 1.71592 -0.815863 0
M  V30 1539 H 170.202 3.86102 0.431007 0
M  V30 1540 H 171.874 4.07057 -2.1703 0
M  V30 1541 H 170.117 3.79476 -2.10191 0
M  V30 1542 H 170.788 5.31284 -1.49804 0
M  V30 1543 H 173.264 4.16074 0.0464781 0
M  V30 1544 H 172.14 5.4657 0.505206 0
M  V30 1545 H 172.401 4.11995 1.60352 0
M  V30 1546 N 171.46 0.379036 1.52974 0
M  V30 1547 C 172.709 -0.207612 2.00629 0
M  V30 1548 C 173.022 -1.48758 1.27006 0
M  V30 1549 O 174.228 -2.15365 1.65318 0
M  V30 1550 C 172.684 -0.42053 3.57435 0
M  V30 1551 C 172.292 0.845587 4.39948 0
M  V30 1552 C 174.036 -0.964102 4.13407 0
M  V30 1553 C 171.943 0.601513 5.88333 0
M  V30 1554 H 170.873 -0.0813591 0.749598 0
M  V30 1555 H 173.524 0.499853 1.76561 0
M  V30 1556 H 171.906 -1.18959 3.7771 0
M  V30 1557 H 173.08 1.61848 4.31442 0
M  V30 1558 H 171.395 1.31336 3.95145 0
M  V30 1559 H 173.992 -1.16225 5.21916 0
M  V30 1560 H 174.335 -1.93019 3.68849 0
M  V30 1561 H 174.868 -0.25487 3.96983 0
M  V30 1562 H 171.607 1.53831 6.37194 0
M  V30 1563 H 171.127 -0.132628 5.99653 0
M  V30 1564 H 172.806 0.232134 6.46583 0
M  V30 1565 N 172.938 -1.57226 0.108567 0
M  V30 1566 C 174.186 -1.94448 -0.550853 0
M  V30 1567 C 174.507 -0.992074 -1.67878 0
M  V30 1568 O 173.777 -0.0465 -1.95845 0
M  V30 1569 H 172.357 -0.717897 -0.206479 0
M  V30 1570 H 175.019 -1.94112 0.175062 0
M  V30 1571 H 174.115 -2.97218 -0.952259 0
M  V30 1572 N 174.416 0.165178 -1.56732 0
M  V30 1573 C 175.644 0.896218 -1.86482 0
M  V30 1574 C 176.059 1.75555 -0.694675 0
M  V30 1575 O 175.416 1.79379 0.33607 0
M  V30 1576 C 175.467 1.76792 -3.1532 0
M  V30 1577 O 175.188 0.943239 -4.27825 0
M  V30 1578 C 176.689 2.6081 -3.58459 0
M  V30 1579 H 173.909 0.260064 -0.618553 0
M  V30 1580 H 176.453 0.163428 -2.03846 0
M  V30 1581 H 174.608 2.45398 -2.99764 0
M  V30 1582 H 175.022 1.53998 -5.01383 0
M  V30 1583 H 176.496 3.17579 -4.51495 0
M  V30 1584 H 176.973 3.35977 -2.82872 0
M  V30 1585 H 177.579 1.97526 -3.76648 0
M  V30 1586 N 175.894 1.51508 0.433938 0
M  V30 1587 C 176.824 1.76016 1.53429 0
M  V30 1588 C 177.805 0.610112 1.58782 0
M  V30 1589 O 178.99 0.853177 1.74455 0
M  V30 1590 C 176.12 1.88831 2.9148 0
M  V30 1591 C 175.074 3.04288 3.00987 0
M  V30 1592 C 174.4 3.0229 4.4105 0
M  V30 1593 C 175.7 4.44193 2.74754 0
M  V30 1594 H 177.394 2.68152 1.33171 0
M  V30 1595 H 174.94 1.29035 0.639214 0
M  V30 1596 H 176.893 2.04559 3.6842 0
M  V30 1597 H 175.617 0.933455 3.12976 0
M  V30 1598 H 174.276 2.8827 2.26486 0
M  V30 1599 H 173.924 2.04576 4.59519 0
M  V30 1600 H 173.624 3.79822 4.4834 0
M  V30 1601 H 175.148 3.20116 5.1996 0
M  V30 1602 H 176.562 4.60544 3.41426 0
M  V30 1603 H 174.959 5.23457 2.9345 0
M  V30 1604 H 176.029 4.53996 1.70339 0
M  V30 1605 N 177.372 -0.689602 1.41712 0
M  V30 1606 C 178.302 -1.81577 1.46806 0
M  V30 1607 C 179.283 -1.66945 0.326105 0
M  V30 1608 O 180.468 -1.86588 0.538377 0
M  V30 1609 C 177.598 -3.19762 1.35535 0
M  V30 1610 C 176.552 -3.49107 2.47605 0
M  V30 1611 C 175.878 -4.86711 2.21397 0
M  V30 1612 C 177.178 -3.47483 3.89939 0
M  V30 1613 H 178.872 -1.7757 2.41058 0
M  V30 1614 H 176.418 -0.852887 1.16025 0
M  V30 1615 H 178.371 -3.98263 1.3771 0
M  V30 1616 H 177.095 -3.24409 0.377708 0
M  V30 1617 H 175.754 -2.72959 2.44722 0
M  V30 1618 H 175.402 -4.8799 1.21961 0
M  V30 1619 H 175.102 -5.0731 2.96497 0
M  V30 1620 H 176.626 -5.67515 2.25297 0
M  V30 1621 H 178.04 -4.1598 3.94505 0
M  V30 1622 H 176.437 -3.79615 4.64771 0
M  V30 1623 H 177.507 -2.46341 4.17665 0
M  V30 1624 N 178.85 -1.27639 -0.924453 0
M  V30 1625 C 180.098 -1.13941 -1.66918 0
M  V30 1626 C 180.419 0.314589 -1.92446 0
M  V30 1627 O 179.689 1.21964 -1.53303 0
M  V30 1628 H 178.269 -0.418678 -0.618642 0
M  V30 1629 H 180.931 -1.60213 -1.10985 0
M  V30 1630 H 180.027 -1.67094 -2.63602 0
M  V30 1631 N 180.328 1.1314 -1.09713 0
M  V30 1632 C 181.556 1.88321 -0.856898 0
M  V30 1633 C 181.971 1.79276 0.592073 0
M  V30 1634 O 181.328 1.16142 1.40774 0
M  V30 1635 C 181.379 3.37812 -1.28706 0
M  V30 1636 O 181.1 3.46627 -2.67921 0
M  V30 1637 C 182.601 4.29952 -1.07964 0
M  V30 1638 H 179.821 0.596094 -0.308079 0
M  V30 1639 H 182.365 1.43205 -1.45988 0
M  V30 1640 H 180.52 3.805 -0.727912 0
M  V30 1641 H 180.934 4.39579 -2.8613 0
M  V30 1642 H 182.408 5.33159 -1.42986 0
M  V30 1643 H 182.885 4.39196 -0.0176577 0
M  V30 1644 H 183.491 3.93036 -1.62489 0
M  V30 1645 N 181.806 0.884767 1.30421 0
M  V30 1646 C 183.052 0.503851 1.96441 0
M  V30 1647 C 183.385 -0.944518 1.69684 0
M  V30 1648 O 182.66 -1.66737 1.00145 0
M  V30 1649 C 182.943 0.779085 3.51571 0
M  V30 1650 C 182.796 2.27807 3.87846 0
M  V30 1651 C 184.115 0.255452 4.39358 0
M  V30 1652 H 181.234 0.184533 0.713524 0
M  V30 1653 H 183.876 1.10872 1.54297 0
M  V30 1654 H 182.026 0.264274 3.876 0
M  V30 1655 H 183.698 2.86127 3.61841 0
M  V30 1656 H 181.941 2.74479 3.35922 0
M  V30 1657 H 182.612 2.42125 4.96064 0
M  V30 1658 H 185.088 0.696079 4.10236 0
M  V30 1659 H 183.964 0.477361 5.4682 0
M  V30 1660 H 184.225 -0.843293 4.33983 0
M  V30 1661 N 183.284 -1.43765 0.645699 0
M  V30 1662 C 184.561 -1.9541 0.0862963 0
M  V30 1663 C 184.941 -1.58725 -1.39175 0
M  V30 1664 O 184.289 -0.868581 -2.11348 0
M  V30 1665 C 184.499 -3.47488 0.324565 0
M  V30 1666 C 185.847 -4.24001 0.225497 0
M  V30 1667 O 186.871 -3.55274 0.256715 0
M  V30 1668 O 185.73 -5.46313 0.142801 0
M  V30 1669 H 182.824 -0.826882 -0.0139483 0
M  V30 1670 H 185.37 -1.53743 0.718415 0
M  V30 1671 H 184.142 -3.67289 1.3496 0
M  V30 1672 H 183.765 -3.96135 -0.340987 0
M  V30 1673 N 184.763 -0.387143 -1.52771 0
M  V30 1674 C 185.71 0.449048 -2.26389 0
M  V30 1675 C 186.68 1.05961 -1.27912 0
M  V30 1676 O 187.865 1.08804 -1.56737 0
M  V30 1677 C 185.005 1.57155 -3.0724 0
M  V30 1678 C 184.118 0.984066 -4.20643 0
M  V30 1679 C 183.253 2.07745 -4.88892 0
M  V30 1680 C 182.292 1.46574 -5.94292 0
M  V30 1681 N 181.429 2.49834 -6.56146 0
M  V30 1682 H 186.269 -0.185205 -2.97424 0
M  V30 1683 H 183.806 -0.103164 -1.46738 0
M  V30 1684 H 185.764 2.23309 -3.52405 0
M  V30 1685 H 184.394 2.17615 -2.38419 0
M  V30 1686 H 183.446 0.212193 -3.79808 0
M  V30 1687 H 184.758 0.497029 -4.96318 0
M  V30 1688 H 183.912 2.81673 -5.3735 0
M  V30 1689 H 182.651 2.59807 -4.12737 0
M  V30 1690 H 181.656 0.711696 -5.45174 0
M  V30 1691 H 182.881 0.953088 -6.72379 0
M  V30 1692 H 180.827 3.0107 -5.82832 0
M  V30 1693 H 180.744 2.05879 -7.27427 0
M  V30 1694 H 182.012 3.23399 -7.09249 0
M  V30 1695 N 186.241 1.57166 -0.116904 0
M  V30 1696 C 187.191 2.11756 0.845178 0
M  V30 1697 C 188.175 1.03783 1.22955 0
M  V30 1698 O 189.367 1.3002 1.20099 0
M  V30 1699 C 186.496 2.71886 2.09602 0
M  V30 1700 C 185.582 3.86937 1.7361 0
M  V30 1701 N 185.973 4.94073 1.08284 0
M  V30 1702 C 184.271 3.97082 2.03082 0
M  V30 1703 C 184.972 5.74477 0.913855 0
M  V30 1704 N 183.948 5.2423 1.43818 0
M  V30 1705 H 187.75 2.91967 0.336523 0
M  V30 1706 H 185.264 1.62174 0.0856332 0
M  V30 1707 H 187.261 3.09338 2.79492 0
M  V30 1708 H 185.921 1.93138 2.61013 0
M  V30 1709 H 186.932 5.12483 0.747067 0
M  V30 1710 H 183.609 3.29372 2.56554 0
M  V30 1711 H 184.999 6.70701 0.40125 0
M  V30 1712 N 187.719 -0.156864 1.56817 0
M  V30 1713 C 188.944 -0.890331 1.87318 0
M  V30 1714 C 189.369 -1.74394 0.704855 0
M  V30 1715 O 188.727 -1.77972 -0.345786 0
M  V30 1716 C 188.775 -1.73102 3.16336 0
M  V30 1717 O 187.879 -2.83422 2.99576 0
M  V30 1718 H 187.22 -0.24857 0.615718 0
M  V30 1719 H 189.75 -0.150649 2.04045 0
M  V30 1720 H 189.76 -2.12803 3.48107 0
M  V30 1721 H 188.435 -1.10412 4.00976 0
M  V30 1722 H 187.012 -2.47199 2.7919 0
M  V30 1723 N 189.197 -1.51736 -0.425897 0
M  V30 1724 C 190.443 -1.65214 -1.1761 0
M  V30 1725 C 190.776 -0.372778 -1.90589 0
M  V30 1726 O 190.051 0.628139 -1.84078 0
M  V30 1727 C 190.334 -2.86312 -2.18398 0
M  V30 1728 C 190.187 -4.24254 -1.49426 0
M  V30 1729 C 191.506 -3.02925 -3.19256 0
M  V30 1730 H 188.625 -0.601263 -0.426206 0
M  V30 1731 H 191.267 -1.8425 -0.463882 0
M  V30 1732 H 189.417 -2.70213 -2.79137 0
M  V30 1733 H 191.089 -4.52046 -0.919362 0
M  V30 1734 H 189.332 -4.26426 -0.796432 0
M  V30 1735 H 190.003 -5.05001 -2.22885 0
M  V30 1736 H 192.479 -3.1781 -2.68581 0
M  V30 1737 H 191.355 -3.89199 -3.8706 0
M  V30 1738 H 191.616 -2.15497 -3.86023 0
M  V30 1739 N 190.675 0.682077 -1.42076 0
M  V30 1740 C 191.585 1.82535 -1.47371 0
M  V30 1741 C 192.601 1.7017 -0.363079 0
M  V30 1742 O 193.777 1.91848 -0.612875 0
M  V30 1743 C 190.842 3.18624 -1.36674 0
M  V30 1744 C 189.903 3.42999 -2.58167 0
M  V30 1745 C 189.136 4.72595 -2.4797 0
M  V30 1746 O 189.359 5.50006 -1.5116 0
M  V30 1747 O 188.293 4.98054 -3.37974 0
M  V30 1748 H 192.119 1.81023 -2.43853 0
M  V30 1749 H 189.704 0.836887 -1.2376 0
M  V30 1750 H 191.586 3.99847 -1.33043 0
M  V30 1751 H 190.261 3.20789 -0.433138 0
M  V30 1752 H 189.168 2.61653 -2.67373 0
M  V30 1753 H 190.501 3.45659 -3.50401 0
M  V30 1754 N 192.153 1.28127 0.917671 0
M  V30 1755 C 193.399 1.15223 1.66888 0
M  V30 1756 C 193.732 -0.299293 1.9188 0
M  V30 1757 O 193.007 -1.21805 1.51637 0
M  V30 1758 C 193.29 1.94706 3.02922 0
M  V30 1759 C 193.143 3.47898 2.85109 0
M  V30 1760 C 194.462 1.75939 4.03402 0
M  V30 1761 H 191.581 0.419946 0.605652 0
M  V30 1762 H 194.223 1.57398 1.06423 0
M  V30 1763 H 192.373 1.58864 3.54534 0
M  V30 1764 H 194.045 3.93624 2.40537 0
M  V30 1765 H 192.288 3.7373 2.20246 0
M  V30 1766 H 192.959 3.98765 3.81694 0
M  V30 1767 H 195.435 2.07209 3.60837 0
M  V30 1768 H 194.311 2.33931 4.96556 0
M  V30 1769 H 194.572 0.709877 4.36364 0
M  V30 1770 N 193.631 -1.12557 1.10312 0
M  V30 1771 C 194.859 -1.87864 0.866873 0
M  V30 1772 C 195.274 -1.79588 -0.582557 0
M  V30 1773 O 194.631 -1.16887 -1.40156 0
M  V30 1774 C 194.682 -3.37125 1.30496 0
M  V30 1775 O 194.403 -3.45201 2.69755 0
M  V30 1776 C 195.904 -4.29373 1.10243 0
M  V30 1777 H 193.124 -0.594452 0.311236 0
M  V30 1778 H 195.668 -1.42429 1.46745 0
M  V30 1779 H 193.823 -3.80109 0.748081 0
M  V30 1780 H 194.237 -4.38056 2.88457 0
M  V30 1781 H 195.711 -5.32394 1.45811 0
M  V30 1782 H 196.188 -4.39181 0.0409492 0
M  V30 1783 H 196.794 -3.92169 1.64571 0
M  V30 1784 N 195.109 -0.891671 -1.2995 0
M  V30 1785 C 196.057 -0.353066 -2.29905 0
M  V30 1786 C 197.051 0.543509 -1.60444 0
M  V30 1787 O 198.257 0.4272 -1.74857 0
M  V30 1788 H 194.632 -0.095531 -0.745907 0
M  V30 1789 H 196.603 -1.20961 -2.72784 0
M  V30 1790 C 195.352 0.411475 -3.45257 0
M  V30 1791 H 194.675 -0.269182 -3.98893 0
M  V30 1792 H 196.115 0.753328 -4.17254 0
M  V30 1793 C 194.574 1.6111 -2.9588 0
M  V30 1794 O 195.104 2.71045 -2.96475 0
M  V30 1795 N 193.31 1.45054 -2.51809 0
M  V30 1796 H 192.857 0.556175 -2.51524 0
M  V30 1797 H 192.815 2.25453 -2.1913 0
M  V30 1798 N 196.587 1.43421 -0.653314 0
M  V30 1799 C 197.827 2.03689 -0.170346 0
M  V30 1800 C 198.191 1.50427 1.19314 0
M  V30 1801 O 199.392 2.0234 1.76952 0
M  V30 1802 C 197.663 3.56946 -0.180183 0
M  V30 1803 S 199.222 4.38171 0.234925 0
M  V30 1804 H 196.04 0.707345 -0.0719976 0
M  V30 1805 H 198.642 1.75486 -0.86167 0
M  V30 1806 H 197.346 3.93212 -1.17526 0
M  V30 1807 H 196.877 3.89791 0.531675 0
M  V30 1808 H 198.892 4.73808 1.47378 0
M  V30 1809 N 198.065 0.39524 1.52563 0
M  V30 1810 C 199.312 -0.185044 2.01653 0
M  V30 1811 C 199.64 -1.46317 1.28146 0
M  V30 1812 O 198.895 -1.9213 0.372074 0
M  V30 1813 C 199.194 -0.493444 3.53977 0
M  V30 1814 C 198.86 0.69384 4.4553 0
M  V30 1815 C 197.522 1.01954 4.70275 0
M  V30 1816 C 199.874 1.48785 4.99512 0
M  V30 1817 C 197.202 2.14069 5.46252 0
M  V30 1818 C 199.554 2.59965 5.76716 0
M  V30 1819 C 198.218 2.93037 5.99738 0
M  V30 1820 H 197.488 -0.0677123 0.7379 0
M  V30 1821 H 200.135 0.533807 1.8391 0
M  V30 1822 H 198.44 -1.29369 3.69825 0
M  V30 1823 H 200.137 -0.955163 3.89458 0
M  V30 1824 H 196.727 0.429987 4.26438 0
M  V30 1825 H 200.911 1.24946 4.80315 0
M  V30 1826 H 196.167 2.40056 5.62302 0
M  V30 1827 H 200.341 3.21887 6.17545 0
M  V30 1828 H 197.968 3.8003 6.58393 0
M  V30 1829 N 199.544 -1.57102 0.125237 0
M  V30 1830 C 200.769 -2.0019 -0.542101 0
M  V30 1831 C 201.194 -1.00449 -1.59034 0
M  V30 1832 O 200.552 0.0229423 -1.81285 0
M  V30 1833 C 200.6 -3.42129 -1.13929 0
M  V30 1834 O 199.704 -3.45307 -2.2547 0
M  V30 1835 H 199.045 -0.650171 -0.134812 0
M  V30 1836 H 201.575 -2.03461 0.215553 0
M  V30 1837 H 201.585 -3.80471 -1.4733 0
M  V30 1838 H 200.26 -4.14237 -0.371531 0
M  V30 1839 H 198.837 -3.1879 -1.93462 0
M  V30 1840 N 201.022 0.148545 -1.56898 0
M  V30 1841 C 202.268 0.862694 -1.83536 0
M  V30 1842 C 202.601 1.80889 -0.706604 0
M  V30 1843 O 201.876 1.92328 0.289885 0
M  V30 1844 C 202.159 1.63853 -3.20662 0
M  V30 1845 C 202.012 0.713925 -4.44098 0
M  V30 1846 C 203.331 2.60133 -3.54991 0
M  V30 1847 H 200.45 0.312179 -0.667618 0
M  V30 1848 H 203.092 0.127953 -1.89569 0
M  V30 1849 H 201.242 2.26489 -3.1565 0
M  V30 1850 H 202.914 0.098686 -4.61194 0
M  V30 1851 H 201.157 0.0234019 -4.33794 0
M  V30 1852 H 201.828 1.29278 -5.36648 0
M  V30 1853 H 204.304 2.07616 -3.60603 0
M  V30 1854 H 203.18 3.11468 -4.51972 0
M  V30 1855 H 203.441 3.41417 -2.80868 0
M  V30 1856 N 202.5 1.5196 0.417844 0
M  V30 1857 C 203.911 1.57851 0.997 0
M  V30 1858 C 204.262 0.413714 1.91789 0
M  V30 1859 O 203.387 -0.467057 2.113 0
M  V30 1860 C 203.982 2.86085 1.81496 0
M  V30 1861 C 202.541 2.94483 2.34428 0
M  V30 1862 C 201.688 2.52707 1.14169 0
M  V30 1863 H 204.639 1.57455 0.198392 0
M  V30 1864 H 204.66 2.70947 2.67148 0
M  V30 1865 H 204.172 3.70842 1.14446 0
M  V30 1866 H 202.273 2.142 3.04875 0
M  V30 1867 H 202.386 3.98546 2.65891 0
M  V30 1868 H 200.75 2.06353 1.49301 0
M  V30 1869 H 201.533 3.39828 0.486999 0
M  V30 1870 N 203.978 -0.674533 1.42435 0
M  V30 1871 C 204.928 -1.7807 1.4239 0
M  V30 1872 C 205.912 -1.58169 0.295202 0
M  V30 1873 O 207.104 -1.68643 0.537449 0
M  V30 1874 C 204.233 -3.16532 1.32901 0
M  V30 1875 C 203.319 -3.42055 2.50717 0
M  V30 1876 N 203.71 -3.38162 3.76139 0
M  V30 1877 C 202.008 -3.72692 2.44983 0
M  V30 1878 C 202.709 -3.63177 4.54398 0
M  V30 1879 N 201.685 -3.83954 3.84812 0
M  V30 1880 H 205.487 -1.73454 2.37257 0
M  V30 1881 H 203.001 -0.875381 1.36788 0
M  V30 1882 H 204.998 -3.958 1.30951 0
M  V30 1883 H 203.658 -3.22345 0.390363 0
M  V30 1884 H 204.669 -3.18057 4.0873 0
M  V30 1885 H 201.346 -3.85749 1.59699 0
M  V30 1886 H 202.736 -3.66125 5.63384 0
M  V30 1887 N 205.456 -1.28612 -0.910864 0
M  V30 1888 C 206.404 -1.1265 -2.03501 0
M  V30 1889 C 207.398 -0.0450054 -1.6934 0
M  V30 1890 O 208.604 -0.203988 -1.7884 0
M  V30 1891 H 204.979 -0.347639 -0.666822 0
M  V30 1892 H 206.95 -2.07849 -2.14106 0
M  V30 1893 C 205.699 -0.808143 -3.38178 0
M  V30 1894 H 205.022 -1.63231 -3.6496 0
M  V30 1895 H 206.462 -0.736426 -4.17556 0
M  V30 1896 C 204.921 0.488226 -3.33344 0
M  V30 1897 O 205.451 1.51766 -3.71927 0
M  V30 1898 N 203.657 0.490009 -2.86439 0
M  V30 1899 H 203.204 -0.348161 -2.55236 0
M  V30 1900 H 203.162 1.35741 -2.83587 0
M  V30 1901 N 206.934 1.1197 -1.10907 0
M  V30 1902 C 207.844 2.21433 -0.774896 0
M  V30 1903 C 208.86 1.72478 0.229657 0
M  V30 1904 O 210.036 2.01288 0.0672008 0
M  V30 1905 C 207.101 3.4602 -0.216986 0
M  V30 1906 C 206.162 4.09791 -1.27944 0
M  V30 1907 C 205.395 5.28431 -0.748055 0
M  V30 1908 O 205.618 5.68823 0.423833 0
M  V30 1909 O 204.552 5.82644 -1.51027 0
M  V30 1910 H 208.378 2.5242 -1.68873 0
M  V30 1911 H 205.963 1.20399 -0.884555 0
M  V30 1912 H 207.845 4.21304 0.090059 0
M  V30 1913 H 206.52 3.16698 0.669633 0
M  V30 1914 H 205.427 3.36265 -1.63941 0
M  V30 1915 H 206.76 4.4328 -2.13925 0
M  V30 1916 N 208.412 0.89855 1.29475 0
M  V30 1917 C 209.637 0.538561 2.00285 0
M  V30 1918 C 210.062 -0.869135 1.66816 0
M  V30 1919 O 209.42 -1.57831 0.892145 0
M  V30 1920 C 209.468 0.736475 3.52999 0
M  V30 1921 O 208.572 -0.211537 4.11857 0
M  V30 1922 H 207.913 0.210563 0.62973 0
M  V30 1923 H 210.443 1.20982 1.64998 0
M  V30 1924 H 210.453 0.640685 4.02938 0
M  V30 1925 H 209.128 1.76276 3.76696 0
M  V30 1926 H 207.705 -0.0682991 3.72837 0
M  V30 1927 N 209.89 -1.43072 0.660911 0
M  V30 1928 C 210.8 -2.34585 -0.0264163 0
M  V30 1929 C 211.816 -1.54316 -0.803898 0
M  V30 1930 O 212.992 -1.86939 -0.749391 0
M  V30 1931 C 210.057 -3.32689 -0.975639 0
M  V30 1932 C 209.118 -4.2886 -0.194236 0
M  V30 1933 C 208.351 -5.22278 -1.09825 0
M  V30 1934 O 208.574 -5.20299 -2.33763 0
M  V30 1935 O 207.508 -5.99228 -0.566513 0
M  V30 1936 H 211.334 -2.94869 0.727034 0
M  V30 1937 H 208.919 -1.43342 0.42111 0
M  V30 1938 H 210.801 -3.92995 -1.52094 0
M  V30 1939 H 209.476 -2.74898 -1.70918 0
M  V30 1940 H 208.383 -3.72011 0.394835 0
M  V30 1941 H 209.716 -4.89655 0.499899 0
M  V30 1942 N 211.368 -0.403325 -1.52352 0
M  V30 1943 C 212.645 0.232611 -1.94212 0
M  V30 1944 C 213.025 1.63133 -1.33981 0
M  V30 1945 O 212.373 2.22659 -0.513344 0
M  V30 1946 C 212.583 0.244811 -3.4814 0
M  V30 1947 C 213.931 0.46698 -4.22024 0
M  V30 1948 O 214.955 0.324419 -3.5472 0
M  V30 1949 O 213.814 0.74747 -5.41364 0
M  V30 1950 H 210.908 0.148223 -0.813609 0
M  V30 1951 H 213.454 -0.458848 -1.63379 0
M  V30 1952 H 212.226 -0.734378 -3.84347 0
M  V30 1953 H 211.849 0.980611 -3.85318 0
M  V30 1954 N 212.846 1.57033 -0.133567 0
M  V30 1955 C 213.756 2.19632 0.824564 0
M  V30 1956 C 214.772 1.17666 1.28182 0
M  V30 1957 O 215.948 1.50193 1.3418 0
M  V30 1958 C 213.013 2.79499 2.05137 0
M  V30 1959 C 212.074 3.96548 1.64464 0
M  V30 1960 C 211.307 4.5355 2.81297 0
M  V30 1961 O 211.53 4.09438 3.97136 0
M  V30 1962 O 210.464 5.44018 2.57542 0
M  V30 1963 H 214.29 3.01991 0.321766 0
M  V30 1964 H 211.875 1.49112 0.0927889 0
M  V30 1965 H 213.757 3.17602 2.7696 0
M  V30 1966 H 212.432 2.00162 2.54395 0
M  V30 1967 H 211.339 3.63186 0.897048 0
M  V30 1968 H 212.672 4.77364 1.19934 0
M  V30 1969 N 214.325 -0.140222 1.56975 0
M  V30 1970 C 215.571 -0.852949 1.83991 0
M  V30 1971 C 215.904 -1.80512 0.716187 0
M  V30 1972 O 215.179 -1.92479 -0.279681 0
M  V30 1973 C 215.462 -1.6215 3.21527 0
M  V30 1974 C 215.315 -0.690363 4.4447 0
M  V30 1975 C 216.634 -2.58247 3.56366 0
M  V30 1976 H 213.753 -0.308634 0.669264 0
M  V30 1977 H 216.395 -0.117898 1.89634 0
M  V30 1978 H 214.545 -2.24812 3.16847 0
M  V30 1979 H 216.217 -0.0742264 4.6124 0
M  V30 1980 H 214.46 -0.000396433 4.338 0
M  V30 1981 H 215.131 -1.2643 5.37326 0
M  V30 1982 H 217.607 -2.05701 3.61699 0
M  V30 1983 H 216.483 -3.09067 4.53617 0
M  V30 1984 H 216.744 -3.39923 2.82674 0
M  V30 1985 N 215.803 -1.52179 -0.40978 0
M  V30 1986 C 216.766 -1.74853 -1.48186 0
M  V30 1987 C 217.766 -0.618417 -1.48433 0
M  V30 1988 O 218.956 -0.886286 -1.49969 0
M  V30 1989 C 216.088 -1.8303 -2.87598 0
M  V30 1990 H 217.281 -2.70559 -1.29374 0
M  V30 1991 H 214.834 -1.42586 -0.640233 0
M  V30 1992 H 215.569 -0.89236 -3.11781 0
M  V30 1993 H 215.354 -2.65187 -2.88822 0
M  V30 1994 H 216.844 -2.02316 -3.65319 0
M  V30 1995 N 217.281 0.66697 -1.42791 0
M  V30 1996 C 218.527 1.4291 -1.43891 0
M  V30 1997 C 218.86 1.94114 -0.0578972 0
M  V30 1998 O 218.135 1.71414 0.91911 0
M  V30 1999 C 218.418 2.62049 -2.46987 0
M  V30 2000 C 218.271 2.16426 -3.94309 0
M  V30 2001 C 219.59 3.64266 -2.46978 0
M  V30 2002 H 216.709 0.518306 -0.523954 0
M  V30 2003 H 219.351 0.757321 -1.74255 0
M  V30 2004 H 217.501 3.19361 -2.21225 0
M  V30 2005 H 219.173 1.64221 -4.31079 0
M  V30 2006 H 217.416 1.47925 -4.078 0
M  V30 2007 H 218.087 3.02038 -4.62036 0
M  V30 2008 H 220.563 3.16686 -2.69906 0
M  V30 2009 H 219.439 4.45196 -3.21079 0
M  V30 2010 H 219.7 4.15927 -1.49857 0
M  V30 2011 N 218.759 1.29093 0.90403 0
M  V30 2012 C 220.036 1.075 1.63411 0
M  V30 2013 C 220.416 -0.382346 2.07609 0
M  V30 2014 O 219.764 -1.37031 1.82851 0
M  V30 2015 C 219.974 2.05858 2.81822 0
M  V30 2016 C 221.322 2.36539 3.52611 0
M  V30 2017 O 222.346 2.04019 2.91984 0
M  V30 2018 O 221.205 2.92085 4.61897 0
M  V30 2019 H 218.299 0.411547 0.717327 0
M  V30 2020 H 220.845 1.40449 0.952479 0
M  V30 2021 H 219.617 3.04037 2.46327 0
M  V30 2022 H 219.24 1.73613 3.57693 0
M  V30 2023 N 220.237 -1.11381 1.11499 0
M  V30 2024 C 221.17 -2.16621 0.71769 0
M  V30 2025 C 222.148 -1.60058 -0.286413 0
M  V30 2026 O 223.332 -1.87613 -0.182689 0
M  V30 2027 C 220.459 -3.38646 0.0607265 0
M  V30 2028 C 219.505 -4.13874 1.03008 0
M  V30 2029 S 220.338 -4.70731 2.55289 0
M  V30 2030 C 221.494 -5.96079 1.90895 0
M  V30 2031 H 221.727 -2.49987 1.60915 0
M  V30 2032 H 219.26 -1.23015 0.933092 0
M  V30 2033 H 221.218 -4.09313 -0.311965 0
M  V30 2034 H 219.879 -3.03537 -0.807702 0
M  V30 2035 H 219.072 -5.01333 0.517853 0
M  V30 2036 H 218.674 -3.4897 1.34522 0
M  V30 2037 H 220.966 -6.65948 1.24577 0
M  V30 2038 H 221.909 -6.51946 2.76354 0
M  V30 2039 H 222.317 -5.47652 1.36885 0
M  V30 2040 N 221.715 -0.905404 -1.28997 0
M  V30 2041 C 222.625 -0.392246 -2.31298 0
M  V30 2042 C 223.641 0.515889 -1.66176 0
M  V30 2043 O 224.817 0.404093 -1.97304 0
M  V30 2044 C 221.882 0.36686 -3.44754 0
M  V30 2045 C 220.943 -0.573485 -4.25452 0
M  V30 2046 C 220.176 0.149488 -5.33491 0
M  V30 2047 O 220.399 1.37255 -5.5364 0
M  V30 2048 O 219.333 -0.510919 -5.99728 0
M  V30 2049 H 223.159 -1.2411 -2.77183 0
M  V30 2050 H 220.744 -0.669926 -1.33538 0
M  V30 2051 H 222.626 0.795907 -4.13816 0
M  V30 2052 H 221.301 1.19169 -3.00966 0
M  V30 2053 H 220.208 -1.05176 -3.59011 0
M  V30 2054 H 221.541 -1.36489 -4.72897 0
M  V30 2055 N 223.193 1.4272 -0.668489 0
M  V30 2056 C 224.44 2.01624 -0.18814 0
M  V30 2057 C 224.768 1.5282 1.20317 0
M  V30 2058 O 224.023 0.718323 1.8204 0
M  V30 2059 C 224.322 3.57021 -0.164499 0
M  V30 2060 C 223.988 4.25232 -1.49962 0
M  V30 2061 C 222.65 4.4358 -1.8652 0
M  V30 2062 C 225.002 4.63727 -2.37921 0
M  V30 2063 C 222.33 4.97694 -3.10674 0
M  V30 2064 C 224.682 5.19218 -3.6138 0
M  V30 2065 C 223.346 5.3578 -3.98115 0
M  V30 2066 H 222.616 0.737795 -0.0688454 0
M  V30 2067 H 225.263 1.70991 -0.862225 0
M  V30 2068 H 223.568 3.87285 0.593079 0
M  V30 2069 H 225.265 4.00372 0.224271 0
M  V30 2070 H 221.855 4.11306 -1.20522 0
M  V30 2071 H 226.039 4.4923 -2.10964 0
M  V30 2072 H 221.295 5.08702 -3.39164 0
M  V30 2073 H 225.469 5.4799 -4.29743 0
M  V30 2074 H 223.096 5.77475 -4.94395 0
M  V30 2075 N 224.671 0.411399 1.52136 0
M  V30 2076 C 225.634 -0.401089 2.25663 0
M  V30 2077 C 226.634 -0.971732 1.28117 0
M  V30 2078 O 227.824 -0.850254 1.52041 0
M  V30 2079 C 224.956 -1.56483 3.02863 0
M  V30 2080 H 226.149 0.24295 2.98914 0
M  V30 2081 H 223.702 0.163968 1.55438 0
M  V30 2082 H 224.437 -2.24567 2.33967 0
M  V30 2083 H 224.222 -1.16211 3.74483 0
M  V30 2084 H 225.712 -2.13951 3.58629 0
M  V30 2085 N 226.149 -1.5696 0.141893 0
M  V30 2086 C 227.096 -2.16501 -0.799737 0
M  V30 2087 C 228.066 -1.09643 -1.24771 0
M  V30 2088 O 229.251 -1.3766 -1.32115 0
M  V30 2089 C 226.391 -2.78679 -2.03549 0
M  V30 2090 C 225.504 -3.99914 -1.6338 0
M  V30 2091 C 224.639 -4.50106 -2.82096 0
M  V30 2092 C 223.678 -5.63819 -2.38275 0
M  V30 2093 N 222.815 -6.08651 -3.49983 0
M  V30 2094 H 227.655 -2.96632 -0.285179 0
M  V30 2095 H 225.192 -1.46533 -0.129053 0
M  V30 2096 H 227.15 -3.1287 -2.75986 0
M  V30 2097 H 225.78 -2.012 -2.52425 0
M  V30 2098 H 224.832 -3.71735 -0.807279 0
M  V30 2099 H 226.144 -4.82311 -1.27192 0
M  V30 2100 H 225.298 -4.86325 -3.62729 0
M  V30 2101 H 224.037 -3.66706 -3.21525 0
M  V30 2102 H 223.042 -5.2718 -1.56081 0
M  V30 2103 H 224.267 -6.49 -1.99938 0
M  V30 2104 H 222.213 -5.28188 -3.89042 0
M  V30 2105 H 222.13 -6.85961 -3.17794 0
M  V30 2106 H 223.398 -6.49515 -4.30988 0
M  V30 2107 N 227.627 0.131896 -1.57047 0
M  V30 2108 C 228.575 1.18146 -2.0036 0
M  V30 2109 C 229.569 1.43614 -0.898406 0
M  V30 2110 O 230.775 1.43729 -1.08361 0
M  V30 2111 H 227.15 0.398042 -0.638018 0
M  V30 2112 H 229.121 0.789564 -2.87765 0
M  V30 2113 C 227.87 2.50341 -2.41298 0
M  V30 2114 H 227.193 2.31578 -3.25902 0
M  V30 2115 H 228.633 3.22371 -2.75414 0
M  V30 2116 C 227.092 3.11984 -1.27153 0
M  V30 2117 O 227.622 3.97484 -0.580459 0
M  V30 2118 N 225.828 2.71662 -1.03189 0
M  V30 2119 H 225.375 2.02231 -1.59564 0
M  V30 2120 H 225.333 3.13238 -0.270077 0
M  V30 2121 N 229.106 1.52395 0.401703 0
M  V30 2122 C 230.039 1.70999 1.51111 0
M  V30 2123 C 231.017 0.55765 1.52738 0
M  V30 2124 O 232.201 0.785912 1.71335 0
M  V30 2125 C 229.328 1.75607 2.8962 0
M  V30 2126 C 228.374 2.97227 3.05873 0
M  V30 2127 S 229.207 4.57439 2.78405 0
M  V30 2128 C 230.363 4.64844 4.19131 0
M  V30 2129 H 230.596 2.6483 1.35102 0
M  V30 2130 H 228.129 1.42527 0.593762 0
M  V30 2131 H 230.087 1.78947 3.69443 0
M  V30 2132 H 228.748 0.828914 3.02965 0
M  V30 2133 H 227.941 2.96955 4.07227 0
M  V30 2134 H 227.543 2.91813 2.33925 0
M  V30 2135 H 229.835 4.42677 5.12877 0
M  V30 2136 H 230.778 5.66807 4.24424 0
M  V30 2137 H 231.186 3.93804 4.04448 0
M  V30 2138 N 230.584 -0.659388 1.43143 0
M  V30 2139 C 231.814 -1.44513 1.47646 0
M  V30 2140 C 232.222 -1.88981 0.0910095 0
M  V30 2141 O 231.565 -1.59702 -0.907789 0
M  V30 2142 C 231.627 -2.71663 2.35456 0
M  V30 2143 C 231.291 -2.49175 3.83094 0
M  V30 2144 C 232.288 -2.1279 4.74359 0
M  V30 2145 C 229.973 -2.63691 4.27519 0
M  V30 2146 C 231.967 -1.9121 6.08044 0
M  V30 2147 C 229.654 -2.41726 5.61259 0
M  V30 2148 C 230.652 -2.0554 6.51339 0
M  V30 2149 O 230.34 -1.838 7.82606 0
M  V30 2150 H 230.072 -0.45064 0.503884 0
M  V30 2151 H 232.626 -0.816248 1.88485 0
M  V30 2152 H 230.856 -3.37089 1.89493 0
M  V30 2153 H 232.545 -3.33595 2.31235 0
M  V30 2154 H 233.311 -2.01157 4.41317 0
M  V30 2155 H 229.19 -2.90832 3.57684 0
M  V30 2156 H 232.734 -1.62889 6.78316 0
M  V30 2157 H 228.631 -2.52959 5.9387 0
M  V30 2158 H 229.399 -1.98275 7.94122 0
M  V30 2159 N 232.062 -1.29571 -0.897171 0
M  V30 2160 C 232.972 -1.16808 -2.03453 0
M  V30 2161 C 233.988 -0.0907471 -1.73763 0
M  V30 2162 O 235.164 -0.303312 -1.99103 0
M  V30 2163 C 232.229 -0.848264 -3.36163 0
M  V30 2164 C 231.29 -2.0097 -3.79354 0
M  V30 2165 C 230.523 -1.70505 -5.05731 0
M  V30 2166 O 230.746 -0.62718 -5.66941 0
M  V30 2167 O 229.68 -2.5538 -5.45036 0
M  V30 2168 H 233.506 -2.12325 -2.17144 0
M  V30 2169 H 231.091 -1.09047 -1.02123 0
M  V30 2170 H 232.973 -0.684581 -4.15802 0
M  V30 2171 H 231.648 0.0771071 -3.23608 0
M  V30 2172 H 230.555 -2.22863 -3.00471 0
M  V30 2173 H 231.888 -2.91636 -3.96496 0
M  V30 2174 N 233.54 1.10788 -1.12088 0
M  V30 2175 C 234.47 2.19083 -0.807755 0
M  V30 2176 C 235.451 1.6858 0.226859 0
M  V30 2177 O 236.636 1.93997 0.0888475 0
M  V30 2178 C 233.766 3.46344 -0.257576 0
M  V30 2179 C 232.72 4.101 -1.22483 0
M  V30 2180 C 232.046 5.32016 -0.535052 0
M  V30 2181 C 233.346 4.54236 -2.57811 0
M  V30 2182 H 235.04 2.45534 -1.71328 0
M  V30 2183 H 232.586 1.1801 -0.825205 0
M  V30 2184 H 234.539 4.21392 -0.0262679 0
M  V30 2185 H 233.263 3.19373 0.683278 0
M  V30 2186 H 231.922 3.37054 -1.44189 0
M  V30 2187 H 231.57 5.01319 0.410827 0
M  V30 2188 H 231.27 5.75625 -1.18024 0
M  V30 2189 H 232.794 6.09799 -0.312695 0
M  V30 2190 H 234.208 5.20575 -2.40155 0
M  V30 2191 H 232.605 5.08682 -3.18375 0
M  V30 2192 H 233.675 3.6734 -3.16528 0
M  V30 2193 N 235.018 0.912232 1.28515 0
M  V30 2194 C 235.968 0.370649 2.24967 0
M  V30 2195 C 236.952 -0.516375 1.52389 0
M  V30 2196 O 238.144 -0.356345 1.73376 0
M  V30 2197 C 235.273 -0.389526 3.41083 0
M  V30 2198 C 234.359 0.51313 4.20984 0
M  V30 2199 N 234.75 1.62604 4.78951 0
M  V30 2200 C 233.048 0.313235 4.44899 0
M  V30 2201 C 233.749 2.18619 5.39055 0
M  V30 2202 N 232.725 1.47765 5.23132 0
M  V30 2203 H 236.527 1.22061 2.67354 0
M  V30 2204 H 234.041 0.764712 1.43269 0
M  V30 2205 H 236.038 -0.794353 4.09262 0
M  V30 2206 H 234.698 -1.2366 3.0023 0
M  V30 2207 H 235.709 2.00864 4.77362 0
M  V30 2208 H 232.386 -0.494452 4.14562 0
M  V30 2209 H 233.776 3.12228 5.94948 0
M  V30 2210 N 236.496 -1.42363 0.676048 0
M  V30 2211 C 237.443 -2.308 -0.00150904 0
M  V30 2212 C 238.413 -1.46032 -0.791444 0
M  V30 2213 O 239.598 -1.74861 -0.76344 0
M  V30 2214 C 236.738 -3.31883 -0.945919 0
M  V30 2215 C 235.851 -4.31741 -0.149675 0
M  V30 2216 C 234.986 -5.19898 -1.08995 0
M  V30 2217 C 234.025 -6.11434 -0.285465 0
M  V30 2218 N 233.162 -6.92138 -1.17851 0
M  V30 2219 H 238.002 -2.88187 0.758455 0
M  V30 2220 H 235.539 -1.41952 0.38576 0
M  V30 2221 H 237.497 -3.89019 -1.50731 0
M  V30 2222 H 236.127 -2.76093 -1.6725 0
M  V30 2223 H 235.179 -3.76713 0.528359 0
M  V30 2224 H 236.491 -4.96534 0.474866 0
M  V30 2225 H 235.645 -5.81772 -1.72123 0
M  V30 2226 H 234.384 -4.55284 -1.74837 0
M  V30 2227 H 233.389 -5.48627 0.359018 0
M  V30 2228 H 234.614 -6.78097 0.368883 0
M  V30 2229 H 232.56 -6.30152 -1.82332 0
M  V30 2230 H 232.477 -7.53542 -0.609082 0
M  V30 2231 H 233.745 -7.58499 -1.79722 0
M  V30 2232 N 237.974 -0.419461 -1.51915 0
M  V30 2233 C 238.921 0.400927 -2.27291 0
M  V30 2234 C 239.891 1.03224 -1.30131 0
M  V30 2235 O 241.076 1.05455 -1.59009 0
M  V30 2236 C 238.216 1.50603 -3.10504 0
M  V30 2237 C 237.329 0.89462 -4.22635 0
M  V30 2238 C 236.464 1.97328 -4.93189 0
M  V30 2239 C 235.503 1.33935 -5.97267 0
M  V30 2240 N 234.64 2.3586 -6.61298 0
M  V30 2241 H 239.48 -0.248251 -2.96964 0
M  V30 2242 H 237.017 -0.134266 -1.46486 0
M  V30 2243 H 238.975 2.15783 -3.57062 0
M  V30 2244 H 237.605 2.12509 -2.42981 0
M  V30 2245 H 236.657 0.131583 -3.80172 0
M  V30 2246 H 237.969 0.391641 -4.9726 0
M  V30 2247 H 237.123 2.70211 -5.43204 0
M  V30 2248 H 235.862 2.50994 -4.18155 0
M  V30 2249 H 234.867 0.595896 -5.46561 0
M  V30 2250 H 236.092 0.810252 -6.74249 0
M  V30 2251 H 234.038 2.88639 -5.89087 0
M  V30 2252 H 233.955 1.90403 -7.3163 0
M  V30 2253 H 235.223 3.08282 -7.15949 0
M  V30 2254 N 239.452 1.56882 -0.150215 0
M  V30 2255 C 240.698 1.96518 0.500834 0
M  V30 2256 C 241.031 1.03527 1.64304 0
M  V30 2257 O 240.306 0.0782751 1.94342 0
M  V30 2258 C 240.589 3.45822 1.00395 0
M  V30 2259 C 240.442 4.49591 -0.136983 0
M  V30 2260 C 241.761 3.97704 1.88467 0
M  V30 2261 H 238.88 0.714535 0.18058 0
M  V30 2262 H 241.522 1.88577 -0.232091 0
M  V30 2263 H 239.672 3.5272 1.62851 0
M  V30 2264 H 241.344 4.5477 -0.77343 0
M  V30 2265 H 239.587 4.26441 -0.795652 0
M  V30 2266 H 240.258 5.51402 0.256815 0
M  V30 2267 H 242.734 3.93304 1.35834 0
M  V30 2268 H 241.61 5.0263 2.20578 0
M  V30 2269 H 241.871 3.40252 2.82279 0
M  V30 2270 N 240.93 -0.123565 1.57115 0
M  V30 2271 C 242.155 -0.850398 1.89164 0
M  V30 2272 C 242.58 -1.7286 0.741688 0
M  V30 2273 O 241.938 -1.78665 -0.307958 0
M  V30 2274 C 241.986 -1.66353 3.19936 0
M  V30 2275 O 241.09 -2.77004 3.0552 0
M  V30 2276 H 240.431 -0.235454 0.620852 0
M  V30 2277 H 242.961 -0.107335 2.04318 0
M  V30 2278 H 242.971 -2.05372 3.52543 0
M  V30 2279 H 241.646 -1.01881 4.03228 0
M  V30 2280 H 240.223 -2.41221 2.84371 0
M  V30 2281 N 242.408 -1.52605 -0.393616 0
M  V30 2282 C 243.819 -1.59417 -0.971761 0
M  V30 2283 C 244.17 -0.444173 -1.91106 0
M  V30 2284 O 243.295 0.433382 -2.12016 0
M  V30 2285 C 243.89 -2.88936 -1.76921 0
M  V30 2286 C 242.449 -2.98175 -2.29714 0
M  V30 2287 C 241.596 -2.54491 -1.10135 0
M  V30 2288 H 244.547 -1.57751 -0.173317 0
M  V30 2289 H 244.568 -2.75163 -2.62804 0
M  V30 2290 H 244.08 -3.72616 -1.08532 0
M  V30 2291 H 242.181 -2.19024 -3.01429 0
M  V30 2292 H 242.294 -4.02726 -2.59517 0
M  V30 2293 H 240.658 -2.08702 -1.45999 0
M  V30 2294 H 241.441 -3.4056 -0.432874 0
M  V30 2295 N 243.887 0.651787 -1.4349 0
M  V30 2296 C 244.835 1.78586 -1.49029 0
M  V30 2297 C 245.829 1.65448 -0.363767 0
M  V30 2298 O 247.035 1.71777 -0.537821 0
M  V30 2299 H 243.41 0.589236 -0.467231 0
M  V30 2300 H 245.381 1.71035 -2.44519 0
M  V30 2301 C 244.13 3.16851 -1.43181 0
M  V30 2302 H 243.453 3.27598 -2.29171 0
M  V30 2303 H 244.893 3.96156 -1.51118 0
M  V30 2304 C 243.352 3.36568 -0.149616 0
M  V30 2305 O 243.882 3.93885 0.788509 0
M  V30 2306 N 242.088 2.90539 -0.0593484 0
M  V30 2307 H 241.635 2.4408 -0.823575 0
M  V30 2308 H 241.593 3.04108 0.797853 0
M  V30 2309 N 245.365 1.30045 0.890287 0
M  V30 2310 C 246.275 1.17885 2.02831 0
M  V30 2311 C 247.291 0.0999609 1.73713 0
M  V30 2312 O 248.467 0.313867 1.98939 0
M  V30 2313 C 245.532 0.866079 3.35708 0
M  V30 2314 C 244.593 2.02979 3.78283 0
M  V30 2315 C 243.826 1.73184 5.0482 0
M  V30 2316 O 244.049 0.657237 5.66601 0
M  V30 2317 O 242.983 2.58267 5.43674 0
M  V30 2318 H 246.809 2.13474 2.16015 0
M  V30 2319 H 244.394 1.09587 1.01543 0
M  V30 2320 H 246.276 0.706623 4.15433 0
M  V30 2321 H 244.951 -0.0599443 3.23644 0
M  V30 2322 H 243.858 2.24454 2.99285 0
M  V30 2323 H 245.191 2.93734 3.94944 0
M  V30 2324 N 246.843 -1.10192 1.12674 0
M  V30 2325 C 247.773 -2.18652 0.819362 0
M  V30 2326 C 248.754 -1.68698 -0.217915 0
M  V30 2327 O 249.939 -1.94041 -0.0785581 0
M  V30 2328 C 247.069 -3.46202 0.27594 0
M  V30 2329 C 246.023 -4.09444 1.24656 0
M  V30 2330 C 245.349 -5.31725 0.563258 0
M  V30 2331 C 246.649 -4.52863 2.60217 0
M  V30 2332 H 248.343 -2.44622 1.72628 0
M  V30 2333 H 245.889 -1.17571 0.831451 0
M  V30 2334 H 247.842 -4.21372 0.0486149 0
M  V30 2335 H 246.566 -3.1973 -0.666331 0
M  V30 2336 H 245.225 -3.36284 1.45974 0
M  V30 2337 H 244.873 -5.0153 -0.384235 0
M  V30 2338 H 244.573 -5.74991 1.21075 0
M  V30 2339 H 246.097 -6.09624 0.34503 0
M  V30 2340 H 247.511 -5.19294 2.42913 0
M  V30 2341 H 245.908 -5.06986 3.21068 0
M  V30 2342 H 246.978 -3.65656 3.18471 0
M  V30 2343 N 248.321 -0.919034 -1.28029 0
M  V30 2344 C 249.57 -0.550802 -1.94034 0
M  V30 2345 C 249.883 0.910877 -1.73096 0
M  V30 2346 O 251.089 1.3875 -2.33368 0
M  V30 2347 C 249.545 -0.934249 -3.47563 0
M  V30 2348 C 249.153 -2.41602 -3.7727 0
M  V30 2349 C 250.897 -0.636854 -4.19696 0
M  V30 2350 C 248.804 -2.73932 -5.24133 0
M  V30 2351 H 247.734 -0.202273 -0.726362 0
M  V30 2352 H 250.385 -1.11867 -1.45458 0
M  V30 2353 H 248.767 -0.295115 -3.94899 0
M  V30 2354 H 249.941 -3.10233 -3.40723 0
M  V30 2355 H 248.256 -2.68441 -3.18321 0
M  V30 2356 H 250.853 -0.855005 -5.2782 0
M  V30 2357 H 251.196 0.425575 -4.14119 0
M  V30 2358 H 251.729 -1.23469 -3.78154 0
M  V30 2359 H 248.468 -3.79049 -5.34792 0
M  V30 2360 H 247.988 -2.09942 -5.61858 0
M  V30 2361 H 249.667 -2.61215 -5.91925 0
M  V30 2362 N 249.799 1.42003 -0.683588 0
M  V30 2363 C 250.729 2.33487 -0.024866 0
M  V30 2364 C 251.71 1.51163 0.779975 0
M  V30 2365 O 252.895 1.79739 0.735362 0
M  V30 2366 C 250.025 3.3487 0.920836 0
M  V30 2367 C 248.979 4.27414 0.223958 0
M  V30 2368 C 248.305 5.19074 1.2832 0
M  V30 2369 C 249.605 5.14445 -0.90242 0
M  V30 2370 H 251.299 2.88819 -0.788921 0
M  V30 2371 H 248.845 1.38873 -0.38083 0
M  V30 2372 H 250.798 3.97787 1.39081 0
M  V30 2373 H 249.522 2.77861 1.71642 0
M  V30 2374 H 248.181 3.65904 -0.225864 0
M  V30 2375 H 247.829 4.58387 2.071 0
M  V30 2376 H 247.529 5.81822 0.821995 0
M  V30 2377 H 249.053 5.84867 1.75392 0
M  V30 2378 H 250.467 5.70998 -0.513272 0
M  V30 2379 H 248.864 5.86072 -1.28997 0
M  V30 2380 H 249.934 4.52322 -1.74737 0
M  V30 2381 N 251.277 0.427512 1.51691 0
M  V30 2382 C 252.525 -0.141948 2.01601 0
M  V30 2383 C 252.846 -1.44067 1.31414 0
M  V30 2384 O 252.116 -1.90763 0.445658 0
M  V30 2385 H 250.696 -0.0554468 0.744939 0
M  V30 2386 H 253.358 0.567968 1.86441 0
M  V30 2387 H 252.454 -0.324913 3.10404 0
M  V30 2388 N 252.755 -1.56801 0.158532 0
M  V30 2389 C 254.001 -1.97559 -0.483957 0
M  V30 2390 C 254.356 -1.04239 -1.61716 0
M  V30 2391 O 253.649 -0.079603 -1.91435 0
M  V30 2392 C 253.843 -3.4235 -1.02623 0
M  V30 2393 C 253.672 -4.49669 0.0528929 0
M  V30 2394 C 252.442 -5.02838 0.498234 0
M  V30 2395 C 254.64 -5.0725 0.848616 0
M  V30 2396 N 252.622 -5.93775 1.559 0
M  V30 2397 C 253.993 -5.94506 1.7596 0
M  V30 2398 C 256.048 -4.89788 0.895121 0
M  V30 2399 C 254.751 -6.66169 2.71314 0
M  V30 2400 C 256.777 -5.62161 1.83654 0
M  V30 2401 C 256.139 -6.49134 2.73503 0
M  V30 2402 H 252.238 -0.768332 -0.145566 0
M  V30 2403 H 254.822 -1.93012 0.255799 0
M  V30 2404 H 252.993 -3.47467 -1.73555 0
M  V30 2405 H 254.725 -3.70145 -1.63629 0
M  V30 2406 H 251.48 -4.73498 0.0983222 0
M  V30 2407 H 251.904 -6.43948 2.08949 0
M  V30 2408 H 256.546 -4.22255 0.21453 0
M  V30 2409 H 254.264 -7.32923 3.40367 0
M  V30 2410 H 257.85 -5.5064 1.87847 0
M  V30 2411 H 256.73 -7.04153 3.45163 0
M  V30 2412 N 254.233 0.115231 -1.57178 0
M  V30 2413 C 255.463 0.835224 -1.88964 0
M  V30 2414 C 255.871 1.73774 -0.74829 0
M  V30 2415 O 255.214 1.81401 0.289739 0
M  V30 2416 C 255.276 1.7178 -3.15804 0
M  V30 2417 C 254.94 0.989198 -4.46166 0
M  V30 2418 C 255.937 0.328263 -5.18863 0
M  V30 2419 C 253.622 0.969256 -4.9286 0
M  V30 2420 C 255.616 -0.342873 -6.36477 0
M  V30 2421 C 253.303 0.294324 -6.10391 0
M  V30 2422 C 254.301 -0.360582 -6.82048 0
M  V30 2423 O 253.989 -1.02474 -7.97342 0
M  V30 2424 H 253.721 0.245197 -0.629964 0
M  V30 2425 H 256.275 0.10303 -2.05141 0
M  V30 2426 H 254.505 2.49173 -2.95719 0
M  V30 2427 H 256.194 2.31255 -3.33581 0
M  V30 2428 H 256.96 0.335263 -4.8384 0
M  V30 2429 H 252.839 1.46844 -4.36987 0
M  V30 2430 H 256.383 -0.854629 -6.92345 0
M  V30 2431 H 252.28 0.285099 -6.4487 0
M  V30 2432 H 253.048 -0.929594 -8.13204 0
M  V30 2433 N 255.711 1.52812 0.385517 0
M  V30 2434 C 256.674 1.77188 1.45386 0
M  V30 2435 C 257.674 0.641953 1.4743 0
M  V30 2436 O 258.864 0.910033 1.4854 0
M  V30 2437 C 255.996 1.87582 2.8465 0
M  V30 2438 H 257.189 2.72583 1.25054 0
M  V30 2439 H 254.742 1.43586 0.617467 0
M  V30 2440 H 255.477 0.941849 3.10322 0
M  V30 2441 H 255.262 2.69748 2.84567 0
M  V30 2442 H 256.752 2.08102 3.62054 0
M  V30 2443 N 257.189 -0.644168 1.43834 0
M  V30 2444 C 258.417 -1.43147 1.49387 0
M  V30 2445 C 258.832 -1.88452 0.114583 0
M  V30 2446 O 258.189 -1.60047 -0.876989 0
M  V30 2447 C 258.24 -2.66046 2.44748 0
M  V30 2448 O 257.961 -2.22633 3.77314 0
M  V30 2449 C 259.462 -3.59311 2.59635 0
M  V30 2450 H 256.682 -0.439447 0.507077 0
M  V30 2451 H 259.226 -0.78895 1.88669 0
M  V30 2452 H 257.381 -3.26418 2.08638 0
M  V30 2453 H 257.795 -3.02216 4.28679 0
M  V30 2454 H 259.269 -4.42187 3.30416 0
M  V30 2455 H 259.746 -4.07259 1.64427 0
M  V30 2456 H 260.352 -3.04816 2.96593 0
M  V30 2457 N 258.668 -1.30515 -0.883378 0
M  V30 2458 C 259.916 -1.19194 -1.63209 0
M  V30 2459 C 260.237 0.253205 -1.93349 0
M  V30 2460 O 259.507 1.17025 -1.57105 0
M  V30 2461 H 258.087 -0.438148 -0.605009 0
M  V30 2462 H 260.749 -1.63663 -1.05832 0
M  V30 2463 H 259.845 -1.75396 -2.58153 0
M  V30 2464 N 260.146 1.09593 -1.13257 0
M  V30 2465 C 261.096 2.14345 -0.777179 0
M  V30 2466 C 262.08 1.59277 0.227966 0
M  V30 2467 O 263.272 1.76971 0.0321413 0
M  V30 2468 C 260.401 3.42439 -0.242991 0
M  V30 2469 C 259.487 4.04419 -1.27694 0
M  V30 2470 N 259.878 4.40979 -2.47732 0
M  V30 2471 C 258.176 4.31596 -1.12432 0
M  V30 2472 C 258.877 4.89784 -3.13826 0
M  V30 2473 N 257.853 4.87133 -2.41252 0
M  V30 2474 H 261.655 2.40415 -1.69049 0
M  V30 2475 H 259.169 1.26803 -1.01463 0
M  V30 2476 H 261.166 4.16889 0.0298496 0
M  V30 2477 H 259.826 3.17824 0.66467 0
M  V30 2478 H 260.837 4.32396 -2.85051 0
M  V30 2479 H 257.514 4.16595 -0.274684 0
M  V30 2480 H 258.904 5.2755 -4.16102 0
M  V30 2481 N 261.624 0.925811 1.2754 0
M  V30 2482 C 262.901 0.483726 1.89524 0
M  V30 2483 C 263.281 -1.03809 1.83812 0
M  V30 2484 O 262.629 -1.89143 1.28207 0
M  V30 2485 C 262.839 1.02769 3.33526 0
M  V30 2486 C 264.187 1.08703 4.10449 0
M  V30 2487 O 265.211 0.977175 3.42534 0
M  V30 2488 O 264.07 1.25599 5.31871 0
M  V30 2489 H 261.164 0.15529 0.812289 0
M  V30 2490 H 263.71 1.01738 1.35822 0
M  V30 2491 H 262.482 2.07155 3.31967 0
M  V30 2492 H 262.105 0.475567 3.94746 0
M  V30 2493 N 263.102 -1.41638 0.69111 0
M  V30 2494 C 264.351 -2.00526 0.217318 0
M  V30 2495 C 264.664 -1.55353 -1.18848 0
M  V30 2496 O 265.87 -2.06769 -1.75951 0
M  V30 2497 C 264.326 -3.58313 0.337639 0
M  V30 2498 C 263.934 -4.12469 1.74852 0
M  V30 2499 C 265.678 -4.24431 -0.0766066 0
M  V30 2500 C 263.585 -5.62675 1.82074 0
M  V30 2501 H 262.515 -0.750008 0.0774893 0
M  V30 2502 H 265.166 -1.6217 0.858661 0
M  V30 2503 H 263.548 -3.9425 -0.371879 0
M  V30 2504 H 264.722 -3.8796 2.48644 0
M  V30 2505 H 263.037 -3.58861 2.11205 0
M  V30 2506 H 265.634 -5.34683 -0.0430284 0
M  V30 2507 H 265.977 -4.01101 -1.1146 0
M  V30 2508 H 266.51 -3.93512 0.582476 0
M  V30 2509 H 263.249 -5.90826 2.83911 0
M  V30 2510 H 262.769 -5.89124 1.12661 0
M  V30 2511 H 264.448 -6.27371 1.58159 0
M  V30 2512 N 264.58 -0.43555 -1.51462 0
M  V30 2513 C 265.808 0.130242 -2.0649 0
M  V30 2514 C 266.223 1.36614 -1.30315 0
M  V30 2515 O 265.58 1.78869 -0.362223 0
M  V30 2516 C 265.631 0.454253 -3.58635 0
M  V30 2517 O 265.352 -0.73259 -4.31931 0
M  V30 2518 C 266.853 1.07091 -4.3017 0
M  V30 2519 H 264.073 0.00871669 -0.670943 0
M  V30 2520 H 266.617 -0.614117 -1.95061 0
M  V30 2521 H 264.772 1.14851 -3.69984 0
M  V30 2522 H 265.186 -0.455787 -5.22516 0
M  V30 2523 H 266.66 1.24764 -5.37716 0
M  V30 2524 H 267.137 2.05144 -3.88346 0
M  V30 2525 H 267.743 0.416089 -4.2326 0
M  V30 2526 N 266.058 1.56714 -0.166846 0
M  V30 2527 C 266.968 2.21331 0.777791 0
M  V30 2528 C 267.984 1.20358 1.25658 0
M  V30 2529 O 269.16 1.53005 1.30964 0
M  V30 2530 C 266.225 2.83787 1.99163 0
M  V30 2531 C 265.286 3.99947 1.56016 0
M  V30 2532 C 264.519 4.59415 2.71613 0
M  V30 2533 O 264.742 4.17769 3.88362 0
M  V30 2534 O 263.676 5.49359 2.45945 0
M  V30 2535 H 267.502 3.02605 0.257636 0
M  V30 2536 H 265.087 1.49275 0.0611393 0
M  V30 2537 H 266.969 3.23405 2.70161 0
M  V30 2538 H 265.644 2.05513 2.50092 0
M  V30 2539 H 264.551 3.65007 0.819809 0
M  V30 2540 H 265.884 4.79801 1.09782 0
M  V30 2541 N 267.536 -0.106894 1.57237 0
M  V30 2542 C 268.486 -1.1366 1.9765 0
M  V30 2543 C 269.47 -1.36416 0.853203 0
M  V30 2544 O 270.662 -1.37305 1.11697 0
M  V30 2545 C 267.791 -2.46 2.39455 0
M  V30 2546 C 266.877 -2.26668 3.58445 0
M  V30 2547 N 267.268 -1.77176 4.73754 0
M  V30 2548 C 265.566 -2.57279 3.64312 0
M  V30 2549 C 266.267 -1.71836 5.5574 0
M  V30 2550 N 265.243 -2.16623 4.98573 0
M  V30 2551 H 269.045 -0.74669 2.84256 0
M  V30 2552 H 266.559 -0.314483 1.59326 0
M  V30 2553 H 268.556 -3.2049 2.6663 0
M  V30 2554 H 267.216 -2.85738 1.54219 0
M  V30 2555 H 268.227 -1.46545 4.96734 0
M  V30 2556 H 264.904 -3.00622 2.89711 0
M  V30 2557 H 266.294 -1.34723 6.58255 0
M  V30 2558 N 269.014 -1.53014 -0.377408 0
M  V30 2559 C 270.239 -1.72818 -1.14668 0
M  V30 2560 C 270.664 -0.450725 -1.8262 0
M  V30 2561 O 270.022 0.59439 -1.7128 0
M  V30 2562 C 270.07 -2.88627 -2.16164 0
M  V30 2563 O 269.174 -2.56409 -3.22998 0
M  V30 2564 H 268.515 -0.574301 -0.333278 0
M  V30 2565 H 271.045 -1.99853 -0.438152 0
M  V30 2566 H 271.055 -3.14455 -2.59966 0
M  V30 2567 H 269.73 -3.81294 -1.66095 0
M  V30 2568 H 268.307 -2.4136 -2.84253 0
M  V30 2569 N 270.492 0.636531 -1.44174 0
M  V30 2570 C 271.738 1.39826 -1.4689 0
M  V30 2571 C 272.071 1.93947 -0.0990585 0
M  V30 2572 O 271.346 1.73325 0.882544 0
M  V30 2573 C 271.629 2.56751 -2.5249 0
M  V30 2574 C 271.482 2.08014 -3.98811 0
M  V30 2575 C 272.801 3.58946 -2.54649 0
M  V30 2576 H 269.92 0.507075 -0.53483 0
M  V30 2577 H 272.562 0.720188 -1.75822 0
M  V30 2578 H 270.712 3.14597 -2.2795 0
M  V30 2579 H 272.384 1.5504 -4.34466 0
M  V30 2580 H 270.627 1.39242 -4.10846 0
M  V30 2581 H 271.298 2.92169 -4.68339 0
M  V30 2582 H 273.774 3.1089 -2.76563 0
M  V30 2583 H 272.65 4.38286 -3.3045 0
M  V30 2584 H 272.911 4.12655 -1.58646 0
M  V30 2585 N 271.97 1.30982 0.876444 0
M  V30 2586 C 272.9 1.20668 1.99903 0
M  V30 2587 C 273.881 0.095354 1.69833 0
M  V30 2588 O 275.066 0.27885 1.92188 0
M  V30 2589 C 272.196 0.90655 3.3526 0
M  V30 2590 C 271.15 1.97675 3.79617 0
M  V30 2591 C 270.476 1.52943 5.1236 0
M  V30 2592 C 271.776 3.389 3.97422 0
M  V30 2593 H 273.47 2.14586 2.0879 0
M  V30 2594 H 271.016 1.03308 1.00317 0
M  V30 2595 H 272.969 0.821025 4.13324 0
M  V30 2596 H 271.693 -0.0682969 3.26529 0
M  V30 2597 H 270.352 2.05205 3.03787 0
M  V30 2598 H 270 0.54262 5.00065 0
M  V30 2599 H 269.7 2.24532 5.43009 0
M  V30 2600 H 271.224 1.45786 5.92941 0
M  V30 2601 H 272.638 3.34081 4.659 0
M  V30 2602 H 271.035 4.0865 4.3946 0
M  V30 2603 H 272.105 3.80163 3.01006 0
M  V30 2604 N 273.449 -1.08991 1.13837 0
M  V30 2605 C 274.698 -1.80631 0.897509 0
M  V30 2606 C 275.011 -1.86872 -0.57777 0
M  V30 2607 O 276.217 -2.54866 -0.935701 0
M  V30 2608 C 274.673 -3.24517 1.55618 0
M  V30 2609 C 274.281 -3.26529 3.0673 0
M  V30 2610 C 276.025 -4.00882 1.3962 0
M  V30 2611 C 273.932 -4.64965 3.65461 0
M  V30 2612 H 272.862 -0.67691 0.332129 0
M  V30 2613 H 275.513 -1.2246 1.3666 0
M  V30 2614 H 273.895 -3.82778 1.01476 0
M  V30 2615 H 275.069 -2.78008 3.67489 0
M  V30 2616 H 273.384 -2.63656 3.22296 0
M  V30 2617 H 275.981 -5.03167 1.80906 0
M  V30 2618 H 276.324 -4.14896 0.341578 0
M  V30 2619 H 276.857 -3.49075 1.90766 0
M  V30 2620 H 273.596 -4.56153 4.70749 0
M  V30 2621 H 273.116 -5.13792 3.09481 0
M  V30 2622 H 274.795 -5.3394 3.654 0
M  V30 2623 N 274.927 -0.932562 -1.27047 0
M  V30 2624 C 275.877 -0.406392 -2.24349 0
M  V30 2625 C 276.861 0.492066 -1.53191 0
M  V30 2626 O 278.053 0.328717 -1.73921 0
M  V30 2627 C 275.182 0.335214 -3.41659 0
M  V30 2628 C 274.268 -0.58004 -4.20115 0
M  V30 2629 N 274.659 -1.70203 -4.76303 0
M  V30 2630 C 272.957 -0.383974 -4.44344 0
M  V30 2631 C 273.658 -2.27167 -5.35509 0
M  V30 2632 N 272.634 -1.56068 -5.20715 0
M  V30 2633 H 276.436 -1.26299 -2.65378 0
M  V30 2634 H 273.95 -0.787408 -1.42034 0
M  V30 2635 H 275.947 0.729142 -4.10474 0
M  V30 2636 H 274.607 1.18868 -3.0216 0
M  V30 2637 H 275.618 -2.08433 -4.74106 0
M  V30 2638 H 272.295 0.428436 -4.15296 0
M  V30 2639 H 273.685 -3.21654 -5.89905 0
M  V30 2640 N 276.405 1.4127 -0.698611 0
M  V30 2641 C 277.315 2.34573 -0.0357891 0
M  V30 2642 C 278.331 1.56393 0.762701 0
M  V30 2643 O 279.507 1.8886 0.699564 0
M  V30 2644 C 276.572 3.35159 0.887089 0
M  V30 2645 C 275.633 4.29225 0.0804634 0
M  V30 2646 C 274.866 5.25006 0.959387 0
M  V30 2647 O 275.089 5.26314 2.19886 0
M  V30 2648 O 274.023 6.00519 0.407439 0
M  V30 2649 H 277.849 2.92838 -0.804957 0
M  V30 2650 H 275.434 1.42175 -0.458966 0
M  V30 2651 H 277.316 3.9689 1.41621 0
M  V30 2652 H 275.991 2.79333 1.6357 0
M  V30 2653 H 274.898 3.70833 -0.493328 0
M  V30 2654 H 276.231 4.88157 -0.629547 0
M  V30 2655 N 277.883 0.443576 1.51229 0
M  V30 2656 C 279.113 -0.119117 2.06256 0
M  V30 2657 C 279.521 -1.36471 1.31043 0
M  V30 2658 O 278.864 -1.80034 0.365151 0
M  V30 2659 C 278.926 -0.500546 3.55998 0
M  V30 2660 C 278.59 0.639125 4.52509 0
M  V30 2661 C 279.587 1.51311 4.97394 0
M  V30 2662 C 277.272 0.821632 4.95535 0
M  V30 2663 C 279.266 2.55425 5.83984 0
M  V30 2664 C 276.953 1.86603 5.81913 0
M  V30 2665 C 277.951 2.73072 6.26036 0
M  V30 2666 O 277.639 3.75718 7.10698 0
M  V30 2667 H 277.371 -0.00857665 0.675946 0
M  V30 2668 H 279.925 0.623288 1.95715 0
M  V30 2669 H 278.155 -1.29575 3.64345 0
M  V30 2670 H 279.844 -0.995116 3.93513 0
M  V30 2671 H 280.61 1.38367 4.64844 0
M  V30 2672 H 276.489 0.158149 4.60729 0
M  V30 2673 H 280.033 3.22949 6.18344 0
M  V30 2674 H 275.93 1.99564 6.13876 0
M  V30 2675 H 276.698 3.72374 7.2889 0
M  V30 2676 N 279.361 -1.56624 0.175154 0
M  V30 2677 C 280.591 -2.01082 -0.474283 0
M  V30 2678 C 280.999 -1.05447 -1.57091 0
M  V30 2679 O 280.342 -0.0480595 -1.83637 0
M  V30 2680 C 280.404 -3.41963 -1.10911 0
M  V30 2681 C 280.068 -4.56742 -0.153666 0
M  V30 2682 C 281.065 -5.16076 0.629448 0
M  V30 2683 C 278.75 -5.02277 -0.0483776 0
M  V30 2684 C 280.744 -6.19377 1.50501 0
M  V30 2685 C 278.431 -6.05427 0.830768 0
M  V30 2686 C 279.429 -6.63849 1.60605 0
M  V30 2687 O 279.117 -7.64998 2.47049 0
M  V30 2688 H 278.849 -0.664261 -0.125432 0
M  V30 2689 H 281.403 -2.03549 0.275163 0
M  V30 2690 H 279.633 -3.36422 -1.90676 0
M  V30 2691 H 281.322 -3.70352 -1.66114 0
M  V30 2692 H 282.088 -4.81776 0.558297 0
M  V30 2693 H 277.967 -4.56513 -0.641611 0
M  V30 2694 H 281.511 -6.64906 2.1106 0
M  V30 2695 H 277.408 -6.39151 0.903107 0
M  V30 2696 H 278.176 -7.82336 2.40607 0
M  V30 2697 N 280.839 0.0985539 -1.57292 0
M  V30 2698 C 282.064 0.820196 -1.90493 0
M  V30 2699 C 282.489 1.71658 -0.769094 0
M  V30 2700 O 281.847 1.79133 0.279495 0
M  V30 2701 C 281.895 1.61242 -3.22542 0
M  V30 2702 O 280.999 2.72108 -3.09888 0
M  V30 2703 H 280.34 0.225547 -0.62452 0
M  V30 2704 H 282.87 0.0748159 -2.04463 0
M  V30 2705 H 282.88 1.99737 -3.55766 0
M  V30 2706 H 281.555 0.954535 -4.04798 0
M  V30 2707 H 280.132 2.36667 -2.88172 0
M  V30 2708 N 282.317 1.53212 0.369288 0
M  V30 2709 C 283.733 1.42902 0.710712 0
M  V30 2710 C 283.933 0.565135 1.93413 0
M  V30 2711 O 282.989 0.0461484 2.52458 0
M  V30 2712 C 284.302 2.86042 0.927382 0
M  V30 2713 C 285.85 2.9565 1.02762 0
M  V30 2714 C 286.325 4.39843 1.27679 0
M  V30 2715 N 287.816 4.43256 1.34457 0
M  V30 2716 C 288.551 5.51929 1.55439 0
M  V30 2717 N 288.047 6.70655 1.73762 0
M  V30 2718 N 289.84 5.39502 1.57779 0
M  V30 2719 H 281.991 2.07888 -0.435457 0
M  V30 2720 H 284.254 0.938661 -0.132739 0
M  V30 2721 H 283.96 3.51557 0.100287 0
M  V30 2722 H 283.834 3.29472 1.83653 0
M  V30 2723 H 286.221 2.30291 1.84527 0
M  V30 2724 H 286.302 2.5562 0.0959504 0
M  V30 2725 H 285.946 5.05774 0.464175 0
M  V30 2726 H 285.876 4.77443 2.22162 0
M  V30 2727 H 288.367 3.5769 1.21926 0
M  V30 2728 H 288.68 7.49248 1.89335 0
M  V30 2729 H 287.025 6.73648 1.70948 0
M  V30 2730 H 290.216 4.45713 1.43029 0
M  V30 2731 H 290.389 6.2426 1.7379 0
M  V30 2732 N 283.795 -0.628877 1.44509 0
M  V30 2733 C 284.705 -1.7694 1.54044 0
M  V30 2734 C 285.721 -1.68705 0.425987 0
M  V30 2735 O 286.897 -1.89442 0.683656 0
M  V30 2736 C 283.962 -3.13332 1.48405 0
M  V30 2737 C 283.023 -3.33181 2.70719 0
M  V30 2738 C 282.256 -4.63067 2.6534 0
M  V30 2739 O 282.479 -5.44017 1.71469 0
M  V30 2740 O 281.413 -4.85167 3.56226 0
M  V30 2741 H 285.239 -1.71848 2.50403 0
M  V30 2742 H 282.824 -0.790378 1.26781 0
M  V30 2743 H 284.706 -3.94634 1.47791 0
M  V30 2744 H 283.381 -3.1896 0.551898 0
M  V30 2745 H 282.288 -2.51549 2.769 0
M  V30 2746 H 283.621 -3.32416 3.62988 0
M  V30 2747 N 285.273 -1.31445 -0.869486 0
M  V30 2748 C 286.236 -1.19094 -1.9583 0
M  V30 2749 C 287.236 -0.117906 -1.60367 0
M  V30 2750 O 288.426 -0.367208 -1.70286 0
M  V30 2751 C 285.558 -0.828165 -3.30688 0
M  V30 2752 H 286.751 -2.15842 -2.08212 0
M  V30 2753 H 284.304 -1.15063 -1.05784 0
M  V30 2754 H 285.039 0.138142 -3.24006 0
M  V30 2755 H 284.824 -1.6038 -3.578 0
M  V30 2756 H 286.314 -0.765658 -4.10521 0
M  V30 2757 N 286.751 1.08385 -1.14413 0
M  V30 2758 C 288.162 1.62258 -0.923535 0
M  V30 2759 C 288.513 1.88691 0.537595 0
M  V30 2760 O 287.638 1.64454 1.40655 0
M  V30 2761 C 288.233 2.94781 -1.67002 0
M  V30 2762 C 286.792 3.45437 -1.495 0
M  V30 2763 C 285.939 2.19668 -1.69238 0
M  V30 2764 H 288.89 0.916086 -1.2959 0
M  V30 2765 H 288.911 3.63229 -1.13334 0
M  V30 2766 H 288.423 2.7551 -2.73342 0
M  V30 2767 H 286.524 3.6981 -0.455097 0
M  V30 2768 H 286.637 4.22173 -2.2651 0
M  V30 2769 H 285.001 2.28849 -1.11804 0
M  V30 2770 H 285.784 2.02905 -2.7692 0
M  V30 2771 N 288.23 0.939286 1.26551 0
M  V30 2772 C 289.178 0.43815 2.28436 0
M  V30 2773 C 290.172 -0.483587 1.62351 0
M  V30 2774 O 291.378 -0.362009 1.76322 0
M  V30 2775 H 287.753 0.123149 0.741848 0
M  V30 2776 H 289.724 1.31002 2.68106 0
M  V30 2777 C 288.473 -0.283052 3.46546 0
M  V30 2778 H 287.796 0.417043 3.97619 0
M  V30 2779 H 289.236 -0.597948 4.19763 0
M  V30 2780 C 287.695 -1.50018 3.01656 0
M  V30 2781 O 288.225 -2.59855 3.0633 0
M  V30 2782 N 286.431 -1.35608 2.57019 0
M  V30 2783 H 285.978 -0.46244 2.53415 0
M  V30 2784 H 285.936 -2.17165 2.27347 0
M  V30 2785 N 289.708 -1.40897 0.706093 0
M  V30 2786 C 291.119 -1.84023 0.315052 0
M  V30 2787 C 291.47 -1.5906 -1.14866 0
M  V30 2788 O 290.595 -1.06651 -1.88293 0
M  V30 2789 C 291.19 -3.34055 0.565038 0
M  V30 2790 C 289.749 -3.7571 0.227806 0
M  V30 2791 C 288.896 -2.64204 0.842122 0
M  V30 2792 H 291.847 -1.303 0.905963 0
M  V30 2793 H 291.868 -3.80107 -0.172843 0
M  V30 2794 H 291.38 -3.52192 1.63042 0
M  V30 2795 H 289.481 -3.63172 -0.832895 0
M  V30 2796 H 289.594 -4.74103 0.690174 0
M  V30 2797 H 287.958 -2.53255 0.270893 0
M  V30 2798 H 288.741 -2.85155 1.91158 0
M  V30 2799 N 291.186 -0.45159 -1.50991 0
M  V30 2800 C 292.435 0.111653 -2.01391 0
M  V30 2801 C 292.748 1.42529 -1.33959 0
M  V30 2802 O 293.954 2.07232 -1.75405 0
M  V30 2803 C 292.41 0.249514 -3.59034 0
M  V30 2804 C 292.018 -1.05453 -4.35412 0
M  V30 2805 C 293.762 0.765762 -4.17536 0
M  V30 2806 C 291.669 -0.881529 -5.84793 0
M  V30 2807 H 290.599 0.0455022 -0.752626 0
M  V30 2808 H 293.25 -0.583524 -1.73975 0
M  V30 2809 H 291.632 1.00803 -3.82955 0
M  V30 2810 H 292.806 -1.82248 -4.23229 0
M  V30 2811 H 291.121 -1.50039 -3.88429 0
M  V30 2812 H 293.718 0.911913 -5.26866 0
M  V30 2813 H 294.061 1.75201 -3.77638 0
M  V30 2814 H 294.594 0.0651744 -3.97747 0
M  V30 2815 H 291.333 -1.84057 -6.29129 0
M  V30 2816 H 290.853 -0.153625 -5.99603 0
M  V30 2817 H 292.532 -0.540363 -6.4474 0
M  V30 2818 N 292.664 1.56529 -0.183458 0
M  V30 2819 C 293.614 2.1515 0.754605 0
M  V30 2820 C 294.598 1.08904 1.18443 0
M  V30 2821 O 295.79 1.34997 1.14476 0
M  V30 2822 C 292.919 2.80531 1.97881 0
M  V30 2823 C 292.005 3.93952 1.57043 0
M  V30 2824 N 292.396 4.98221 0.87231 0
M  V30 2825 C 290.694 4.05338 1.86057 0
M  V30 2826 C 291.395 5.77836 0.669377 0
M  V30 2827 N 290.371 5.29858 1.21454 0
M  V30 2828 H 294.173 2.93132 0.212387 0
M  V30 2829 H 291.687 1.62391 0.0167725 0
M  V30 2830 H 293.684 3.20914 2.6612 0
M  V30 2831 H 292.344 2.04035 2.52586 0
M  V30 2832 H 293.355 5.15191 0.529033 0
M  V30 2833 H 290.032 3.39957 2.42354 0
M  V30 2834 H 291.422 6.71799 0.116422 0
M  V30 2835 N 294.142 -0.090211 1.57342 0
M  V30 2836 C 295.072 -1.10976 2.05443 0
M  V30 2837 C 296.053 -1.41482 0.944284 0
M  V30 2838 O 297.238 -1.51428 1.21586 0
M  V30 2839 C 294.368 -2.42831 2.48295 0
M  V30 2840 C 293.322 -2.26721 3.63018 0
M  V30 2841 C 292.648 -3.63796 3.91863 0
M  V30 2842 C 293.948 -1.7037 4.93732 0
M  V30 2843 H 295.642 -0.709564 2.9087 0
M  V30 2844 H 293.188 -0.339874 1.39932 0
M  V30 2845 H 295.141 -3.14431 2.80555 0
M  V30 2846 H 293.865 -2.84795 1.59873 0
M  V30 2847 H 292.524 -1.57565 3.31012 0
M  V30 2848 H 292.172 -4.03297 3.00601 0
M  V30 2849 H 291.872 -3.53861 4.69101 0
M  V30 2850 H 293.396 -4.36855 4.26603 0
M  V30 2851 H 294.81 -2.31816 5.24342 0
M  V30 2852 H 293.207 -1.71181 5.75167 0
M  V30 2853 H 294.277 -0.663542 4.80339 0
M  V30 2854 N 295.62 -1.53406 -0.361157 0
M  V30 2855 C 296.848 -1.73717 -1.12383 0
M  V30 2856 C 297.263 -0.468161 -1.82904 0
M  V30 2857 O 296.62 0.559198 -1.73722 0
M  V30 2858 C 296.671 -2.90558 -2.15078 0
M  V30 2859 O 296.392 -4.12549 -1.47428 0
M  V30 2860 C 297.893 -3.22777 -3.03858 0
M  V30 2861 H 295.113 -0.580896 -0.335858 0
M  V30 2862 H 297.657 -2.00167 -0.418728 0
M  V30 2863 H 295.812 -2.66489 -2.8118 0
M  V30 2864 H 296.226 -4.78009 -2.15887 0
M  V30 2865 H 297.7 -4.07927 -3.71887 0
M  V30 2866 H 298.177 -2.38329 -3.68912 0
M  V30 2867 H 298.783 -3.48787 -2.43367 0
M  V30 2868 N 297.098 0.621204 -1.44841 0
M  V30 2869 C 298.344 1.3826 -1.48365 0
M  V30 2870 C 298.677 1.93831 -0.119624 0
M  V30 2871 O 297.952 1.74251 0.864111 0
M  V30 2872 C 298.235 2.54058 -2.55199 0
M  V30 2873 C 298.088 2.03772 -4.00995 0
M  V30 2874 C 299.407 3.56225 -2.58442 0
M  V30 2875 H 296.526 0.501374 -0.540179 0
M  V30 2876 H 299.168 0.7015 -1.76576 0
M  V30 2877 H 297.318 3.12162 -2.31274 0
M  V30 2878 H 298.99 1.50423 -4.36086 0
M  V30 2879 H 297.233 1.34876 -4.12299 0
M  V30 2880 H 297.904 2.87185 -4.71411 0
M  V30 2881 H 300.38 3.07939 -2.79844 0
M  V30 2882 H 299.256 4.34756 -3.3508 0
M  V30 2883 H 299.517 4.10949 -1.63013 0
M  V30 2884 N 298.576 1.31904 0.862503 0
M  V30 2885 C 299.853 1.12644 1.59908 0
M  V30 2886 C 300.233 -0.316104 2.0872 0
M  V30 2887 O 299.581 -1.31145 1.87118 0
M  V30 2888 C 299.791 2.1472 2.7513 0
M  V30 2889 C 301.139 2.47637 3.44907 0
M  V30 2890 O 302.163 2.13205 2.85346 0
M  V30 2891 O 301.022 3.06632 4.52371 0
M  V30 2892 H 298.116 0.43416 0.703871 0
M  V30 2893 H 300.662 1.43408 0.907314 0
M  V30 2894 H 299.434 3.1172 2.3653 0
M  V30 2895 H 299.057 1.84905 3.51989 0
M  V30 2896 N 300.054 -1.07777 1.14986 0
M  V30 2897 C 301.282 -1.84018 0.945773 0
M  V30 2898 C 301.697 -1.81897 -0.505863 0
M  V30 2899 O 301.054 -1.22726 -1.35072 0
M  V30 2900 C 301.105 -3.31287 1.44677 0
M  V30 2901 O 300.826 -3.33449 2.84154 0
M  V30 2902 C 302.327 -4.24311 1.28355 0
M  V30 2903 H 299.547 -0.580716 0.336169 0
M  V30 2904 H 302.091 -1.36077 1.52654 0
M  V30 2905 H 300.246 -3.76594 0.908625 0
M  V30 2906 H 300.66 -4.25427 3.06777 0
M  V30 2907 H 302.134 -5.2573 1.68261 0
M  V30 2908 H 302.611 -4.38612 0.227184 0
M  V30 2909 H 303.217 -3.84836 1.81056 0
M  V30 2910 N 301.532 -0.945985 -1.26051 0
M  V30 2911 C 302.757 -0.612525 -1.98149 0
M  V30 2912 C 303.182 0.806623 -1.69927 0
M  V30 2913 O 302.54 1.54411 -0.950108 0
M  V30 2914 C 302.588 -0.866981 -3.50023 0
M  V30 2915 O 301.692 0.0585333 -4.12358 0
M  V30 2916 H 301.033 -0.23379 -0.621481 0
M  V30 2917 H 303.563 -1.27023 -1.60395 0
M  V30 2918 H 303.573 -0.789792 -4.00283 0
M  V30 2919 H 302.248 -1.90135 -3.69894 0
M  V30 2920 H 300.825 -0.0701241 -3.72834 0
M  V30 2921 N 303.011 1.40521 -0.713556 0
M  V30 2922 C 303.941 2.33381 -0.0743864 0
M  V30 2923 C 304.922 1.52784 0.747735 0
M  V30 2924 O 306.107 1.81258 0.697071 0
M  V30 2925 C 303.237 3.36748 0.849598 0
M  V30 2926 C 302.191 4.27793 0.133247 0
M  V30 2927 C 301.517 5.21679 1.17281 0
M  V30 2928 C 302.817 5.12415 -1.01134 0
M  V30 2929 H 304.511 2.87081 -0.850007 0
M  V30 2930 H 302.057 1.38034 -0.410201 0
M  V30 2931 H 304.01 4.00648 1.30612 0
M  V30 2932 H 302.734 2.81439 1.65709 0
M  V30 2933 H 301.393 3.65342 -0.303426 0
M  V30 2934 H 301.041 4.62677 1.9733 0
M  V30 2935 H 300.741 5.83435 0.698397 0
M  V30 2936 H 302.265 5.88456 1.62947 0
M  V30 2937 H 303.679 5.69781 -0.634274 0
M  V30 2938 H 302.076 5.83203 -1.41399 0
M  V30 2939 H 303.146 4.48514 -1.84292 0
M  V30 2940 N 304.489 0.459591 1.5075 0
M  V30 2941 C 305.421 -0.37665 2.26084 0
M  V30 2942 C 306.434 -0.967109 1.30961 0
M  V30 2943 O 307.623 -0.857468 1.56556 0
M  V30 2944 C 304.723 -1.54112 3.01832 0
M  V30 2945 C 303.896 -1.06553 4.24223 0
M  V30 2946 C 302.955 -2.1027 4.82362 0
M  V30 2947 O 301.981 -1.68798 5.43595 0
M  V30 2948 N 303.183 -3.42974 4.68347 0
M  V30 2949 H 305.948 0.269124 2.98489 0
M  V30 2950 H 303.509 0.28972 1.59287 0
M  V30 2951 H 305.501 -2.23165 3.37608 0
M  V30 2952 H 304.071 -2.0918 2.32298 0
M  V30 2953 H 303.291 -0.201274 3.93686 0
M  V30 2954 H 304.579 -0.725516 5.03601 0
M  V30 2955 H 303.977 -3.79385 4.19623 0
M  V30 2956 H 302.534 -4.07858 5.08424 0
M  V30 2957 N 305.967 -1.56429 0.191757 0
M  V30 2958 C 306.915 -2.20273 -0.747174 0
M  V30 2959 C 307.909 -1.17288 -1.22229 0
M  V30 2960 O 309.115 -1.35441 -1.18557 0
M  V30 2961 H 305.49 -0.705885 -0.259289 0
M  V30 2962 H 307.461 -2.97826 -0.184963 0
M  V30 2963 C 306.21 -2.87356 -1.95759 0
M  V30 2964 H 305.533 -3.66341 -1.60106 0
M  V30 2965 H 306.973 -3.3547 -2.59299 0
M  V30 2966 C 305.432 -1.88213 -2.79423 0
M  V30 2967 O 305.962 -1.38033 -3.7724 0
M  V30 2968 N 304.168 -1.56516 -2.44849 0
M  V30 2969 H 303.715 -1.97516 -1.65364 0
M  V30 2970 H 303.673 -0.904369 -3.01112 0
M  V30 2971 N 307.445 0.0818655 -1.57387 0
M  V30 2972 C 308.693 0.781368 -1.86384 0
M  V30 2973 C 309.014 1.78618 -0.782342 0
M  V30 2974 O 308.284 1.94976 0.190061 0
M  V30 2975 H 306.864 0.291562 -0.687751 0
M  V30 2976 H 309.526 0.060348 -1.94807 0
M  V30 2977 H 308.622 1.3038 -2.83562 0
M  V30 2978 N 308.923 1.53595 0.353017 0
M  V30 2979 C 310.339 1.43648 0.695516 0
M  V30 2980 C 310.539 0.585617 1.92802 0
M  V30 2981 O 309.595 0.0729223 2.52395 0
M  V30 2982 C 310.908 2.8701 0.896991 0
M  V30 2983 C 312.456 2.96723 0.996209 0
M  V30 2984 C 312.931 4.41173 1.23007 0
M  V30 2985 N 314.422 4.44657 1.29749 0
M  V30 2986 C 315.157 5.53547 1.49577 0
M  V30 2987 N 314.653 6.72461 1.66639 0
M  V30 2988 N 316.446 5.41145 1.52048 0
M  V30 2989 H 308.597 2.07415 -0.457481 0
M  V30 2990 H 310.86 0.9372 -0.142687 0
M  V30 2991 H 310.566 3.51644 0.0629938 0
M  V30 2992 H 310.44 3.31401 1.80148 0
M  V30 2993 H 312.827 2.32235 1.82074 0
M  V30 2994 H 312.908 2.55707 0.0688331 0
M  V30 2995 H 312.552 5.06238 0.410505 0
M  V30 2996 H 312.482 4.79772 2.17086 0
M  V30 2997 H 314.973 3.58963 1.18126 0
M  V30 2998 H 315.286 7.51214 1.81378 0
M  V30 2999 H 313.631 6.75423 1.63794 0
M  V30 3000 H 316.822 4.47205 1.38294 0
M  V30 3001 H 316.995 6.26068 1.67159 0
M  V30 3002 N 310.401 -0.613514 1.45168 0
M  V30 3003 C 311.334 -1.73809 1.47871 0
M  V30 3004 C 312.312 -1.59097 0.33568 0
M  V30 3005 O 313.496 -1.8074 0.535299 0
M  V30 3006 C 310.623 -3.11574 1.32813 0
M  V30 3007 C 309.669 -3.4489 2.50905 0
M  V30 3008 S 310.502 -3.40393 4.13392 0
M  V30 3009 C 311.658 -4.80749 4.00789 0
M  V30 3010 H 311.891 -1.71252 2.43023 0
M  V30 3011 H 309.424 -0.789658 1.32679 0
M  V30 3012 H 311.382 -3.91065 1.24812 0
M  V30 3013 H 310.043 -3.11652 0.391418 0
M  V30 3014 H 309.236 -4.45183 2.36279 0
M  V30 3015 H 308.838 -2.72901 2.55736 0
M  V30 3016 H 311.13 -5.7041 3.65567 0
M  V30 3017 H 312.073 -5.00431 5.00974 0
M  V30 3018 H 312.481 -4.56151 3.32545 0
M  V30 3019 N 311.879 -1.3236 -0.855495 0
M  V30 3020 C 313.104 -1.2601 -1.64731 0
M  V30 3021 C 313.529 0.169068 -1.87339 0
M  V30 3022 O 312.887 1.12016 -1.42556 0
M  V30 3023 C 312.935 -2.02417 -2.98429 0
M  V30 3024 O 312.039 -1.3714 -3.8893 0
M  V30 3025 H 311.38 -0.434325 -0.502253 0
M  V30 3026 H 313.91 -1.74661 -1.06558 0
M  V30 3027 H 313.92 -2.12559 -3.48257 0
M  V30 3028 H 312.595 -3.06343 -2.81295 0
M  V30 3029 H 311.172 -1.3554 -3.47395 0
M  V30 3030 N 313.357 1.07166 -1.15556 0
M  V30 3031 C 314.606 1.79181 -0.926132 0
M  V30 3032 C 314.919 1.87768 0.547967 0
M  V30 3033 O 316.125 2.56323 0.895036 0
M  V30 3034 C 314.581 3.22 -1.60761 0
M  V30 3035 C 314.189 3.21607 -3.11886 0
M  V30 3036 C 315.933 3.9861 -1.4598 0
M  V30 3037 C 313.84 4.59092 -3.72812 0
M  V30 3038 H 312.77 0.67154 -0.342856 0
M  V30 3039 H 315.421 1.2027 -1.3859 0
M  V30 3040 H 313.803 3.81115 -1.07553 0
M  V30 3041 H 314.977 2.72127 -3.71865 0
M  V30 3042 H 313.292 2.58495 -3.2645 0
M  V30 3043 H 315.889 5.00225 -1.88888 0
M  V30 3044 H 316.232 4.143 -0.407541 0
M  V30 3045 H 316.765 3.45996 -1.96295 0
M  V30 3046 H 313.504 4.48606 -4.77946 0
M  V30 3047 H 313.024 5.08803 -3.17616 0
M  V30 3048 H 314.703 5.28059 -3.73848 0
M  V30 3049 N 314.835 0.952656 1.25548 0
M  V30 3050 C 315.782 0.47008 2.25962 0
M  V30 3051 C 316.752 -0.476384 1.59122 0
M  V30 3052 O 317.937 -0.39007 1.8677 0
M  V30 3053 C 315.077 -0.247881 3.44209 0
M  V30 3054 C 314.19 0.735591 4.25691 0
M  V30 3055 C 313.325 -0.0047306 5.312 0
M  V30 3056 C 312.364 0.969805 6.04368 0
M  V30 3057 N 311.501 0.260486 7.01617 0
M  V30 3058 H 316.341 1.33126 2.66611 0
M  V30 3059 H 313.878 0.66765 1.31076 0
M  V30 3060 H 315.836 -0.680695 4.1161 0
M  V30 3061 H 314.466 -1.07312 3.0444 0
M  V30 3062 H 313.518 1.28689 3.57971 0
M  V30 3063 H 314.83 1.47934 4.76358 0
M  V30 3064 H 313.984 -0.496275 6.04667 0
M  V30 3065 H 312.723 -0.781282 4.81401 0
M  V30 3066 H 311.728 1.47237 5.29718 0
M  V30 3067 H 312.953 1.74655 6.56256 0
M  V30 3068 H 310.899 -0.497364 6.54112 0
M  V30 3069 H 310.816 0.943362 7.50091 0
M  V30 3070 H 312.084 -0.209587 7.79218 0
M  V30 3071 N 316.313 -1.40141 0.720998 0
M  V30 3072 C 317.276 -2.29058 0.0805834 0
M  V30 3073 C 318.276 -1.45632 -0.681758 0
M  V30 3074 O 319.466 -1.6648 -0.512856 0
M  V30 3075 C 316.598 -3.28925 -0.895593 0
M  V30 3076 H 317.791 -2.87191 0.863793 0
M  V30 3077 H 315.344 -1.48553 0.485975 0
M  V30 3078 H 316.079 -2.75822 -1.70566 0
M  V30 3079 H 315.864 -3.90519 -0.351766 0
M  V30 3080 H 317.354 -3.95494 -1.34069 0
M  V30 3081 N 317.792 -0.46758 -1.50504 0
M  V30 3082 C 319.022 0.086288 -2.0642 0
M  V30 3083 C 319.43 1.34369 -1.33197 0
M  V30 3084 O 318.773 1.79431 -0.393747 0
M  V30 3085 C 318.835 0.443846 -3.5675 0
M  V30 3086 C 318.499 -0.711035 -4.51435 0
M  V30 3087 C 319.496 -1.59205 -4.94924 0
M  V30 3088 C 317.181 -0.900363 -4.94165 0
M  V30 3089 C 319.175 -2.64683 -5.79846 0
M  V30 3090 C 316.862 -1.95837 -5.7887 0
M  V30 3091 C 317.86 -2.82997 -6.21612 0
M  V30 3092 O 317.548 -3.86977 -7.0463 0
M  V30 3093 H 317.28 -0.00217814 -0.675996 0
M  V30 3094 H 319.834 -0.654346 -1.94698 0
M  V30 3095 H 318.064 1.23762 -3.6636 0
M  V30 3096 H 319.753 0.932386 -3.95046 0
M  V30 3097 H 320.519 -1.45745 -4.62583 0
M  V30 3098 H 316.398 -0.231427 -4.60419 0
M  V30 3099 H 319.942 -3.32745 -6.13128 0
M  V30 3100 H 315.839 -2.09305 -6.10624 0
M  V30 3101 H 316.607 -3.83923 -7.22873 0
M  V30 3102 N 319.27 1.56325 -0.20005 0
M  V30 3103 C 320.516 1.98012 0.438059 0
M  V30 3104 C 320.849 1.08702 1.60927 0
M  V30 3105 O 320.124 0.140064 1.93995 0
M  V30 3106 C 320.407 3.48841 0.893419 0
M  V30 3107 C 320.26 4.48928 -0.279947 0
M  V30 3108 C 321.579 4.03498 1.75719 0
M  V30 3109 H 318.698 0.719918 0.157757 0
M  V30 3110 H 321.34 1.87743 -0.291968 0
M  V30 3111 H 319.49 3.57723 1.51547 0
M  V30 3112 H 321.162 4.52079 -0.91772 0
M  V30 3113 H 319.405 4.23694 -0.930919 0
M  V30 3114 H 320.076 5.5194 0.0812601 0
M  V30 3115 H 322.552 3.97427 1.23253 0
M  V30 3116 H 321.428 5.09393 2.04476 0
M  V30 3117 H 321.689 3.4906 2.71311 0
M  V30 3118 N 320.748 -0.0735177 1.57428 0
M  V30 3119 C 321.973 -0.789787 1.91774 0
M  V30 3120 C 322.398 -1.70413 0.796306 0
M  V30 3121 O 321.756 -1.79555 -0.250961 0
M  V30 3122 C 321.804 -1.5609 3.25067 0
M  V30 3123 O 320.908 -2.67144 3.14178 0
M  V30 3124 H 320.249 -0.215582 0.628029 0
M  V30 3125 H 322.779 -0.0422781 2.04556 0
M  V30 3126 H 322.789 -1.94052 3.58898 0
M  V30 3127 H 321.464 -0.890015 4.06265 0
M  V30 3128 H 320.041 -2.32052 2.91901 0
M  V30 3129 N 322.226 -1.5378 -0.344866 0
M  V30 3130 C 323.454 -1.74899 -1.10534 0
M  V30 3131 C 323.869 -0.487534 -1.82397 0
M  V30 3132 O 323.226 0.540741 -1.74305 0
M  V30 3133 C 323.277 -2.92822 -2.11984 0
M  V30 3134 O 322.998 -4.14089 -1.43044 0
M  V30 3135 C 324.499 -3.25982 -3.00417 0
M  V30 3136 H 321.719 -0.584426 -0.329678 0
M  V30 3137 H 324.263 -2.006 -0.397474 0
M  V30 3138 H 322.418 -2.69457 -2.78338 0
M  V30 3139 H 322.832 -4.80272 -2.10805 0
M  V30 3140 H 324.306 -4.11848 -3.67539 0
M  V30 3141 H 324.783 -2.42228 -3.66363 0
M  V30 3142 H 325.389 -3.51349 -2.39654 0
M  V30 3143 N 323.704 0.605807 -1.45491 0
M  V30 3144 C 324.634 1.72709 -1.57143 0
M  V30 3145 C 325.615 1.6476 -0.422884 0
M  V30 3146 O 326.8 1.83132 -0.646247 0
M  V30 3147 C 323.93 3.11316 -1.53948 0
M  V30 3148 C 322.884 3.34077 -2.67537 0
M  V30 3149 C 322.21 4.72975 -2.49397 0
M  V30 3150 C 323.51 3.24158 -4.09535 0
M  V30 3151 H 325.204 1.63214 -2.51001 0
M  V30 3152 H 322.75 0.78379 -1.208 0
M  V30 3153 H 324.703 3.89557 -1.60696 0
M  V30 3154 H 323.427 3.21655 -0.566205 0
M  V30 3155 H 322.086 2.58227 -2.6022 0
M  V30 3156 H 321.734 4.8005 -1.50205 0
M  V30 3157 H 321.434 4.8916 -3.25571 0
M  V30 3158 H 322.958 5.53414 -2.58002 0
M  V30 3159 H 324.372 3.92271 -4.18086 0
M  V30 3160 H 322.769 3.51872 -4.86113 0
M  V30 3161 H 323.839 2.2157 -4.31317 0
M  V30 3162 N 325.182 1.32811 0.848464 0
M  V30 3163 C 326.115 1.16601 1.96162 0
M  V30 3164 C 327.093 0.0638855 1.62474 0
M  V30 3165 O 328.277 0.224348 1.8716 0
M  V30 3166 C 325.404 0.786333 3.29446 0
M  V30 3167 C 324.45 1.89459 3.8211 0
M  V30 3168 S 325.283 3.50395 4.04949 0
M  V30 3169 C 326.439 3.14413 5.41198 0
M  V30 3170 H 326.672 2.10832 2.09612 0
M  V30 3171 H 324.205 1.17543 1.00115 0
M  V30 3172 H 326.163 0.574044 4.06466 0
M  V30 3173 H 324.824 -0.137218 3.138 0
M  V30 3174 H 324.017 1.58207 4.78526 0
M  V30 3175 H 323.619 2.06304 3.11953 0
M  V30 3176 H 325.911 2.64642 6.23675 0
M  V30 3177 H 326.854 4.09874 5.77416 0
M  V30 3178 H 327.262 2.51266 5.05495 0
M  V30 3179 N 326.66 -1.06551 1.16123 0
M  V30 3180 C 327.908 -1.78947 0.939267 0
M  V30 3181 C 328.229 -1.87532 -0.534476 0
M  V30 3182 O 327.499 -1.38211 -1.38833 0
M  V30 3183 H 326.079 -0.662807 0.344523 0
M  V30 3184 H 328.741 -1.28725 1.46342 0
M  V30 3185 H 327.837 -2.81117 1.35572 0
M  V30 3186 N 328.138 -0.959301 -1.25041 0
M  V30 3187 C 329.384 -0.617525 -1.9317 0
M  V30 3188 C 329.717 0.843981 -1.74902 0
M  V30 3189 O 328.992 1.60615 -1.09696 0
M  V30 3190 C 329.275 -0.982736 -3.46431 0
M  V30 3191 C 329.128 -2.50032 -3.73904 0
M  V30 3192 C 330.447 -0.511176 -4.37121 0
M  V30 3193 H 327.566 -0.22582 -0.701552 0
M  V30 3194 H 330.208 -1.19679 -1.4757 0
M  V30 3195 H 328.358 -0.489806 -3.854 0
M  V30 3196 H 330.03 -3.06737 -3.44544 0
M  V30 3197 H 328.273 -2.93598 -3.19348 0
M  V30 3198 H 328.944 -2.70635 -4.81103 0
M  V30 3199 H 331.42 -0.934075 -4.0548 0
M  V30 3200 H 330.296 -0.795361 -5.43107 0
M  V30 3201 H 330.557 0.588834 -4.38161 0
M  V30 3202 N 329.616 1.39756 -0.72842 0
M  V30 3203 C 331.027 1.83498 -0.344289 0
M  V30 3204 C 331.378 1.60868 1.12321 0
M  V30 3205 O 330.503 1.09634 1.86573 0
M  V30 3206 C 331.098 3.33114 -0.618112 0
M  V30 3207 C 329.657 3.753 -0.287549 0
M  V30 3208 C 328.804 2.62831 -0.884048 0
M  V30 3209 H 331.755 1.28842 -0.926578 0
M  V30 3210 H 331.776 3.80334 0.112349 0
M  V30 3211 H 331.288 3.49553 -1.68625 0
M  V30 3212 H 329.389 3.64451 0.775012 0
M  V30 3213 H 329.502 4.72945 -0.765512 0
M  V30 3214 H 327.866 2.52792 -0.311149 0
M  V30 3215 H 328.649 2.82078 -1.95671 0
M  V30 3216 N 331.094 0.475555 1.50254 0
M  V30 3217 C 332.342 -0.077738 2.0195 0
M  V30 3218 C 332.663 -1.39813 1.35931 0
M  V30 3219 O 331.933 -1.89249 0.506123 0
M  V30 3220 H 330.513 -0.031719 0.746326 0
M  V30 3221 H 333.175 0.626995 1.84539 0
M  V30 3222 H 332.271 -0.225995 3.11281 0
M  V30 3223 N 332.573 -1.56217 0.208337 0
M  V30 3224 C 333.989 -1.58919 -0.14729 0
M  V30 3225 C 334.189 -1.22486 -1.59998 0
M  V30 3226 O 333.245 -0.953849 -2.3379 0
M  V30 3227 C 334.558 -3.00236 0.167048 0
M  V30 3228 C 336.106 -3.12813 0.108219 0
M  V30 3229 C 336.581 -4.56284 0.396049 0
M  V30 3230 N 338.072 -4.61912 0.345142 0
M  V30 3231 C 338.807 -5.70837 0.541523 0
M  V30 3232 N 338.303 -6.88178 0.798968 0
M  V30 3233 N 340.096 -5.60091 0.474867 0
M  V30 3234 H 332.247 -1.78177 1.15614 0
M  V30 3235 H 334.51 -0.827555 0.462446 0
M  V30 3236 H 334.216 -3.31499 1.1748 0
M  V30 3237 H 334.09 -3.7354 -0.524184 0
M  V30 3238 H 336.477 -2.81354 -0.890157 0
M  V30 3239 H 336.558 -2.41866 0.832729 0
M  V30 3240 H 336.202 -4.88458 1.3918 0
M  V30 3241 H 336.132 -5.25439 -0.349502 0
M  V30 3242 H 338.623 -3.77589 0.153316 0
M  V30 3243 H 338.936 -7.67095 0.93727 0
M  V30 3244 H 337.281 -6.89953 0.836013 0
M  V30 3245 H 340.472 -4.67297 0.274064 0
M  V30 3246 H 340.645 -6.44917 0.631326 0
M  V30 3247 N 334.051 0.0651679 -1.57465 0
M  V30 3248 C 335.279 0.775808 -1.91804 0
M  V30 3249 C 335.694 1.70782 -0.804916 0
M  V30 3250 O 335.051 1.81153 0.221311 0
M  V30 3251 C 335.102 1.56381 -3.25925 0
M  V30 3252 O 334.823 0.669248 -4.32958 0
M  V30 3253 C 336.324 2.37485 -3.7432 0
M  V30 3254 H 333.544 0.2202 -0.63384 0
M  V30 3255 H 336.088 0.0334587 -2.04473 0
M  V30 3256 H 334.243 2.25837 -3.14764 0
M  V30 3257 H 334.657 1.21801 -5.10162 0
M  V30 3258 H 336.131 2.88223 -4.70778 0
M  V30 3259 H 336.608 3.17307 -3.03666 0
M  V30 3260 H 337.214 1.73173 -3.88447 0
M  V30 3261 N 335.529 1.53961 0.336706 0
M  V30 3262 C 336.462 1.77255 1.43722 0
M  V30 3263 C 337.44 0.62193 1.50236 0
M  V30 3264 O 338.624 0.857874 1.67847 0
M  V30 3265 C 335.751 1.87733 2.81912 0
M  V30 3266 C 334.797 3.09933 2.92991 0
M  V30 3267 S 335.63 4.68836 2.58753 0
M  V30 3268 C 336.786 4.82202 3.99039 0
M  V30 3269 H 337.019 2.70322 1.23748 0
M  V30 3270 H 334.552 1.44917 0.532777 0
M  V30 3271 H 336.51 1.94455 3.61521 0
M  V30 3272 H 335.171 0.956666 2.99177 0
M  V30 3273 H 334.364 3.1396 3.94265 0
M  V30 3274 H 333.966 3.01472 2.21338 0
M  V30 3275 H 336.258 4.64032 4.9364 0
M  V30 3276 H 337.201 5.84298 4.00002 0
M  V30 3277 H 337.609 4.10604 3.87382 0
M  V30 3278 N 337.007 -0.598083 1.45811 0
M  V30 3279 C 338.255 -1.35413 1.50026 0
M  V30 3280 C 338.576 -1.94444 0.147177 0
M  V30 3281 O 337.846 -1.77701 -0.824571 0
M  V30 3282 H 336.426 -0.502727 0.552517 0
M  V30 3283 H 339.088 -0.701606 1.81834 0
M  V30 3284 H 338.184 -2.16871 2.2444 0
M  V30 3285 N 338.485 -1.33259 -0.841409 0
M  V30 3286 C 339.731 -1.24757 -1.59886 0
M  V30 3287 C 340.064 0.186913 -1.93298 0
M  V30 3288 O 339.339 1.12757 -1.5848 0
M  V30 3289 C 339.622 -2.12036 -2.91055 0
M  V30 3290 C 339.475 -3.63929 -2.6434 0
M  V30 3291 C 340.794 -1.9916 -3.92458 0
M  V30 3292 H 337.913 -0.454542 -0.580138 0
M  V30 3293 H 340.555 -1.63335 -0.970647 0
M  V30 3294 H 338.705 -1.79265 -3.44669 0
M  V30 3295 H 340.377 -4.06978 -2.17178 0
M  V30 3296 H 338.62 -3.85935 -1.98082 0
M  V30 3297 H 339.291 -4.20341 -3.57796 0
M  V30 3298 H 341.767 -2.27895 -3.48143 0
M  V30 3299 H 340.643 -2.62484 -4.82072 0
M  V30 3300 H 340.904 -0.963082 -4.31482 0
M  V30 3301 N 339.963 1.05934 -1.16686 0
M  V30 3302 C 340.896 2.1295 -0.820225 0
M  V30 3303 C 341.874 1.61242 0.209722 0
M  V30 3304 O 343.058 1.88271 0.0929688 0
M  V30 3305 C 340.185 3.3797 -0.22223 0
M  V30 3306 C 339.231 4.08488 -1.22637 0
M  V30 3307 S 340.064 4.58015 -2.77457 0
M  V30 3308 C 341.22 5.86292 -2.19117 0
M  V30 3309 H 341.453 2.42025 -1.72659 0
M  V30 3310 H 338.986 1.18423 -0.990722 0
M  V30 3311 H 340.944 4.10335 0.116322 0
M  V30 3312 H 339.605 3.07045 0.66196 0
M  V30 3313 H 338.798 4.98291 -0.756455 0
M  V30 3314 H 338.4 3.42154 -1.51019 0
M  V30 3315 H 340.692 6.59246 -1.56209 0
M  V30 3316 H 341.635 6.38019 -3.07144 0
M  V30 3317 H 342.043 5.40497 -1.62858 0
M  V30 3318 N 341.441 0.965919 1.2453 0
M  V30 3319 C 342.688 0.626831 1.92554 0
M  V30 3320 C 343.016 -0.837739 1.75534 0
M  V30 3321 O 342.271 -1.61793 1.10098 0
M  V30 3322 C 342.57 0.945428 3.44669 0
M  V30 3323 C 342.236 2.39785 3.81856 0
M  V30 3324 C 340.898 2.79483 3.91718 0
M  V30 3325 C 343.25 3.34055 4.00071 0
M  V30 3326 C 340.578 4.12496 4.1721 0
M  V30 3327 C 342.93 4.66694 4.27059 0
M  V30 3328 C 341.594 5.06172 4.3514 0
M  V30 3329 H 340.864 0.229374 0.704605 0
M  V30 3330 H 343.511 1.21707 1.4785 0
M  V30 3331 H 341.816 0.272926 3.90848 0
M  V30 3332 H 343.513 0.661484 3.95507 0
M  V30 3333 H 340.103 2.08003 3.74743 0
M  V30 3334 H 344.287 3.04571 3.91855 0
M  V30 3335 H 339.543 4.42709 4.21685 0
M  V30 3336 H 343.717 5.3971 4.40097 0
M  V30 3337 H 341.344 6.09262 4.54646 0
M  V30 3338 N 342.919 -1.39368 0.735821 0
M  V30 3339 C 344.147 -2.04795 0.294393 0
M  V30 3340 C 344.562 -1.55478 -1.07107 0
M  V30 3341 O 343.919 -0.720038 -1.67695 0
M  V30 3342 C 343.97 -3.6035 0.288071 0
M  V30 3343 O 343.691 -4.07852 1.59963 0
M  V30 3344 C 345.192 -4.42976 -0.169422 0
M  V30 3345 H 342.412 -0.658571 0.128551 0
M  V30 3346 H 344.956 -1.78399 0.999701 0
M  V30 3347 H 343.111 -3.85645 -0.368355 0
M  V30 3348 H 343.525 -5.02181 1.51375 0
M  V30 3349 H 344.999 -5.51864 -0.122687 0
M  V30 3350 H 345.476 -4.22068 -1.21472 0
M  V30 3351 H 346.082 -4.22832 0.457469 0
M  V30 3352 N 344.397 -0.483516 -1.5 0
M  V30 3353 C 345.808 -0.0314176 -1.86674 0
M  V30 3354 C 346.159 1.37728 -1.39733 0
M  V30 3355 O 345.284 2.02327 -0.767635 0
M  V30 3356 C 345.879 -0.0502376 -3.38763 0
M  V30 3357 C 344.438 0.346442 -3.74802 0
M  V30 3358 C 343.585 -0.430366 -2.7394 0
M  V30 3359 H 346.536 -0.697182 -1.42566 0
M  V30 3360 H 346.557 0.749116 -3.73053 0
M  V30 3361 H 346.069 -1.07563 -3.72897 0
M  V30 3362 H 344.17 1.37572 -3.46273 0
M  V30 3363 H 344.283 0.0391486 -4.79084 0
M  V30 3364 H 342.647 0.117557 -2.54429 0
M  V30 3365 H 343.43 -1.4555 -3.10918 0
M  V30 3366 N 345.875 1.56104 -0.216619 0
M  V30 3367 C 346.805 2.23063 0.690296 0
M  V30 3368 C 347.786 1.20072 1.20485 0
M  V30 3369 O 348.971 1.48643 1.24976 0
M  V30 3370 C 346.101 2.90672 1.90072 0
M  V30 3371 C 345.055 4.00092 1.5202 0
M  V30 3372 C 344.381 4.54972 2.80899 0
M  V30 3373 C 345.681 5.17398 0.71391 0
M  V30 3374 H 347.375 2.99109 0.132038 0
M  V30 3375 H 344.921 1.43866 0.0620664 0
M  V30 3376 H 346.874 3.36204 2.54057 0
M  V30 3377 H 345.598 2.12066 2.48386 0
M  V30 3378 H 344.257 3.55283 0.903839 0
M  V30 3379 H 343.905 3.73102 3.37348 0
M  V30 3380 H 343.605 5.28817 2.56176 0
M  V30 3381 H 345.129 5.0322 3.45836 0
M  V30 3382 H 346.543 5.59342 1.25735 0
M  V30 3383 H 344.94 5.97444 0.563951 0
M  V30 3384 H 346.01 4.84088 -0.280527 0
M  V30 3385 N 347.353 -0.0568162 1.57498 0
M  V30 3386 C 348.581 -0.765626 1.92213 0
M  V30 3387 C 348.996 -1.70353 0.813961 0
M  V30 3388 O 348.353 -1.81268 -0.211701 0
M  V30 3389 C 348.404 -1.5465 3.2675 0
M  V30 3390 O 348.125 -0.646278 4.33307 0
M  V30 3391 C 349.626 -2.35497 3.75574 0
M  V30 3392 H 346.846 -0.216835 0.634999 0
M  V30 3393 H 349.39 -0.0226146 2.04487 0
M  V30 3394 H 347.545 -2.24165 3.15957 0
M  V30 3395 H 347.959 -1.19093 5.108 0
M  V30 3396 H 349.433 -2.85722 4.72299 0
M  V30 3397 H 349.91 -3.15692 3.05344 0
M  V30 3398 H 350.516 -1.7111 3.8936 0
M  V30 3399 N 348.832 -1.54138 -0.328536 0
M  V30 3400 C 350.078 -1.7236 -1.06865 0
M  V30 3401 C 350.411 -0.493231 -1.87832 0
M  V30 3402 O 349.686 0.5098 -1.877 0
M  V30 3403 C 349.969 -2.99621 -1.99747 0
M  V30 3404 C 349.822 -4.32899 -1.22143 0
M  V30 3405 C 351.141 -3.22615 -2.99345 0
M  V30 3406 H 348.26 -0.627151 -0.387105 0
M  V30 3407 H 350.902 -1.86827 -0.345767 0
M  V30 3408 H 349.052 -2.87418 -2.61387 0
M  V30 3409 H 350.724 -4.56978 -0.630017 0
M  V30 3410 H 348.967 -4.30628 -0.523628 0
M  V30 3411 H 349.638 -5.18154 -1.90318 0
M  V30 3412 H 352.114 -3.34248 -2.47826 0
M  V30 3413 H 350.99 -4.13027 -3.61524 0
M  V30 3414 H 351.251 -2.3961 -3.71536 0
M  V30 3415 N 350.31 0.590341 -1.46126 0
M  V30 3416 C 351.257 1.69994 -1.56111 0
M  V30 3417 C 352.227 1.61065 -0.405867 0
M  V30 3418 O 353.412 1.8039 -0.621613 0
M  V30 3419 C 350.552 3.08326 -1.55013 0
M  V30 3420 C 349.665 3.27936 -2.81215 0
M  V30 3421 C 348.8 4.56473 -2.71673 0
M  V30 3422 C 347.839 4.694 -3.92849 0
M  V30 3423 N 346.976 5.89254 -3.81738 0
M  V30 3424 H 351.816 1.60797 -2.50895 0
M  V30 3425 H 349.353 0.783799 -1.24479 0
M  V30 3426 H 351.311 3.88383 -1.52362 0
M  V30 3427 H 349.941 3.16439 -0.637667 0
M  V30 3428 H 348.993 2.41536 -2.93879 0
M  V30 3429 H 350.305 3.33357 -3.71045 0
M  V30 3430 H 349.459 5.44748 -2.67085 0
M  V30 3431 H 348.198 4.53477 -1.7947 0
M  V30 3432 H 347.203 3.79544 -3.97777 0
M  V30 3433 H 348.428 4.7418 -4.86138 0
M  V30 3434 H 346.374 5.87271 -2.92317 0
M  V30 3435 H 346.291 5.95911 -4.65217 0
M  V30 3436 H 347.559 6.79981 -3.81112 0
M  V30 3437 N 351.788 1.33704 0.83433 0
M  V30 3438 C 353.018 1.28281 1.6195 0
M  V30 3439 C 353.426 -0.147603 1.88623 0
M  V30 3440 O 352.769 -1.1016 1.47005 0
M  V30 3441 C 352.831 1.99386 2.99141 0
M  V30 3442 C 352.495 3.48681 2.95416 0
M  V30 3443 C 353.492 4.438 2.70809 0
M  V30 3444 C 351.177 3.90925 3.15409 0
M  V30 3445 C 353.171 5.79138 2.66229 0
M  V30 3446 C 350.858 5.26366 3.10454 0
M  V30 3447 C 351.856 6.20284 2.85895 0
M  V30 3448 O 351.544 7.53245 2.80852 0
M  V30 3449 H 351.276 0.44315 0.510484 0
M  V30 3450 H 353.83 1.76711 1.04702 0
M  V30 3451 H 352.06 1.45554 3.58261 0
M  V30 3452 H 353.749 1.87403 3.60049 0
M  V30 3453 H 354.515 4.12485 2.5511 0
M  V30 3454 H 350.394 3.18229 3.33543 0
M  V30 3455 H 353.938 6.52416 2.4698 0
M  V30 3456 H 349.835 5.57304 3.25703 0
M  V30 3457 H 350.603 7.62846 2.96661 0
M  V30 3458 N 353.266 -1.05314 1.17247 0
M  V30 3459 C 354.229 -2.112 0.890357 0
M  V30 3460 C 355.229 -1.60359 -0.118943 0
M  V30 3461 O 356.419 -1.73833 0.113086 0
M  V30 3462 C 353.551 -3.39266 0.333422 0
M  V30 3463 H 354.744 -2.37659 1.82916 0
M  V30 3464 H 352.297 -1.21538 0.982758 0
M  V30 3465 H 353.032 -3.18462 -0.612587 0
M  V30 3466 H 352.817 -3.77477 1.06082 0
M  V30 3467 H 354.307 -4.17315 0.154322 0
M  V30 3468 N 354.744 -0.972509 -1.24016 0
M  V30 3469 C 355.974 -0.653853 -1.9598 0
M  V30 3470 C 356.382 0.781801 -1.72292 0
M  V30 3471 O 355.725 1.53677 -1.00644 0
M  V30 3472 C 355.787 -0.854608 -3.49194 0
M  V30 3473 C 355.451 -2.27082 -3.96589 0
M  V30 3474 C 356.448 -3.24892 -4.05883 0
M  V30 3475 C 354.133 -2.5998 -4.29786 0
M  V30 3476 C 356.127 -4.53684 -4.47716 0
M  V30 3477 C 353.814 -3.88997 -4.71301 0
M  V30 3478 C 354.812 -4.85661 -4.80232 0
M  V30 3479 O 354.5 -6.12376 -5.20818 0
M  V30 3480 H 354.232 -0.242572 -0.630979 0
M  V30 3481 H 356.786 -1.30431 -1.58673 0
M  V30 3482 H 355.016 -0.146985 -3.86421 0
M  V30 3483 H 356.705 -0.534311 -4.02368 0
M  V30 3484 H 357.471 -3.00805 -3.80449 0
M  V30 3485 H 353.35 -1.85457 -4.22051 0
M  V30 3486 H 356.894 -5.29135 -4.54601 0
M  V30 3487 H 352.791 -4.12882 -4.96184 0
M  V30 3488 H 353.559 -6.16013 -5.38953 0
M  V30 3489 N 356.222 1.38976 -0.743202 0
M  V30 3490 C 357.452 2.04339 -0.304807 0
M  V30 3491 C 357.86 1.56162 1.06819 0
M  V30 3492 O 357.203 0.725284 1.68776 0
M  V30 3493 C 357.265 3.58716 -0.237369 0
M  V30 3494 C 356.929 4.29905 -1.55018 0
M  V30 3495 C 357.926 4.55987 -2.49744 0
M  V30 3496 C 355.611 4.68294 -1.81675 0
M  V30 3497 C 357.605 5.19478 -3.69353 0
M  V30 3498 C 355.292 5.31512 -3.0156 0
M  V30 3499 C 356.29 5.57037 -3.9522 0
M  V30 3500 O 355.978 6.18941 -5.12998 0
M  V30 3501 H 355.71 0.663439 -0.12971 0
M  V30 3502 H 358.264 1.78852 -1.01001 0
M  V30 3503 H 356.494 3.83133 0.524003 0
M  V30 3504 H 358.183 4.05543 0.170121 0
M  V30 3505 H 358.949 4.26767 -2.30423 0
M  V30 3506 H 354.828 4.47779 -1.09615 0
M  V30 3507 H 358.372 5.39318 -4.42473 0
M  V30 3508 H 354.269 5.60153 -3.20778 0
M  V30 3509 H 355.037 6.37433 -5.13441 0
M  V30 3510 N 357.7 0.491464 1.49741 0
M  V30 3511 C 358.977 -0.118984 1.95238 0
M  V30 3512 C 359.357 -1.55044 1.43264 0
M  V30 3513 O 358.705 -2.19287 0.642287 0
M  V30 3514 C 358.915 -0.0414187 3.48975 0
M  V30 3515 C 360.263 -0.220133 4.24029 0
M  V30 3516 O 361.287 -0.117055 3.56008 0
M  V30 3517 O 360.146 -0.430567 5.44801 0
M  V30 3518 H 357.24 -0.100536 0.820866 0
M  V30 3519 H 359.786 0.553322 1.60426 0
M  V30 3520 H 358.558 0.957214 3.79412 0
M  V30 3521 H 358.181 -0.754292 3.9038 0
M  V30 3522 N 359.178 -1.55987 0.224894 0
M  V30 3523 C 360.406 -2.02784 -0.410665 0
M  V30 3524 C 360.821 -1.10464 -1.53112 0
M  V30 3525 O 360.178 -0.114871 -1.82138 0
M  V30 3526 C 360.229 -3.49087 -0.939165 0
M  V30 3527 O 359.95 -4.37887 0.136614 0
M  V30 3528 C 361.451 -4.11543 -1.64763 0
M  V30 3529 H 358.671 -0.663484 -0.100148 0
M  V30 3530 H 361.215 -2.01614 0.342326 0
M  V30 3531 H 359.37 -3.50861 -1.64242 0
M  V30 3532 H 359.784 -5.23849 -0.261155 0
M  V30 3533 H 361.258 -5.15673 -1.96939 0
M  V30 3534 H 361.735 -3.56736 -2.56195 0
M  V30 3535 H 362.341 -4.13629 -0.989503 0
M  V30 3536 N 360.656 0.0484629 -1.57525 0
M  V30 3537 C 361.566 1.07241 -2.08654 0
M  V30 3538 C 362.582 1.409 -1.02095 0
M  V30 3539 O 363.758 1.50609 -1.33712 0
M  V30 3540 C 360.823 2.36008 -2.5397 0
M  V30 3541 C 359.884 2.09108 -3.7493 0
M  V30 3542 C 359.117 3.31736 -4.18075 0
M  V30 3543 O 359.34 4.41714 -3.60895 0
M  V30 3544 O 358.274 3.18576 -5.10679 0
M  V30 3545 H 362.1 0.667965 -2.96263 0
M  V30 3546 H 359.685 0.26417 -1.47046 0
M  V30 3547 H 361.567 3.11747 -2.83535 0
M  V30 3548 H 360.242 2.75786 -1.69481 0
M  V30 3549 H 359.149 1.31 -3.50414 0
M  V30 3550 H 360.482 1.74198 -4.60343 0
M  V30 3551 N 362.134 1.5431 0.320358 0
M  V30 3552 C 363.55 1.45091 0.664889 0
M  V30 3553 C 363.75 0.626382 1.91517 0
M  V30 3554 O 362.806 0.126443 2.52183 0
M  V30 3555 C 364.119 2.88848 0.83591 0
M  V30 3556 C 365.667 2.9877 0.933046 0
M  V30 3557 C 366.142 4.43683 1.13621 0
M  V30 3558 N 367.633 4.47309 1.20287 0
M  V30 3559 C 368.368 5.56595 1.37801 0
M  V30 3560 N 367.864 6.75844 1.52338 0
M  V30 3561 N 369.657 5.44248 1.40535 0
M  V30 3562 H 361.808 2.06398 -0.501374 0
M  V30 3563 H 364.071 0.933963 -0.162534 0
M  V30 3564 H 363.777 3.51698 -0.0116092 0
M  V30 3565 H 363.651 3.35148 1.73078 0
M  V30 3566 H 366.038 2.36045 1.77107 0
M  V30 3567 H 366.119 2.55796 0.0145782 0
M  V30 3568 H 365.763 5.06995 0.303032 0
M  V30 3569 H 365.693 4.84269 2.0686 0
M  V30 3570 H 368.184 3.61388 1.10485 0
M  V30 3571 H 368.497 7.54892 1.65403 0
M  V30 3572 H 366.842 6.78746 1.4943 0
M  V30 3573 H 370.033 4.50038 1.28777 0
M  V30 3574 H 370.206 6.29473 1.53842 0
M  V30 3575 N 363.613 -0.582584 1.46437 0
M  V30 3576 C 364.862 -1.337 1.5102 0
M  V30 3577 C 365.175 -1.94891 0.166359 0
M  V30 3578 O 366.381 -2.71351 0.0899954 0
M  V30 3579 C 364.837 -2.42315 2.66104 0
M  V30 3580 C 364.445 -1.87427 4.06909 0
M  V30 3581 C 366.189 -3.19099 2.79958 0
M  V30 3582 C 364.096 -2.93672 5.13333 0
M  V30 3583 H 363.026 -0.502619 0.562041 0
M  V30 3584 H 365.677 -0.621701 1.72647 0
M  V30 3585 H 364.059 -3.16645 2.37807 0
M  V30 3586 H 365.233 -1.19639 4.44998 0
M  V30 3587 H 363.548 -1.2331 3.97723 0
M  V30 3588 H 366.145 -3.9839 3.56636 0
M  V30 3589 H 366.488 -3.71695 1.87479 0
M  V30 3590 H 367.021 -2.51875 3.07902 0
M  V30 3591 H 363.76 -2.45962 6.07604 0
M  V30 3592 H 363.28 -3.59948 4.79789 0
M  V30 3593 H 364.959 -3.5762 5.39182 0
M  V30 3594 N 365.091 -1.34144 -0.827227 0
M  V30 3595 C 366.339 -1.26009 -1.58007 0
M  V30 3596 C 366.66 0.170971 -1.94249 0
M  V30 3597 O 365.93 1.10256 -1.61927 0
M  V30 3598 H 364.51 -0.463414 -0.585881 0
M  V30 3599 H 367.172 -1.68005 -0.987951 0
M  V30 3600 H 366.268 -1.86187 -2.50481 0
M  V30 3601 N 366.569 1.04691 -1.17803 0
M  V30 3602 C 367.815 1.78045 -0.970969 0
M  V30 3603 C 368.148 1.87686 0.498751 0
M  V30 3604 O 367.423 1.38035 1.37027 0
M  V30 3605 C 367.706 3.2166 -1.61884 0
M  V30 3606 C 367.559 3.20001 -3.161 0
M  V30 3607 C 368.878 4.1962 -1.3269 0
M  V30 3608 H 365.997 0.64633 -0.354155 0
M  V30 3609 H 368.639 1.22333 -1.45378 0
M  V30 3610 H 366.789 3.69232 -1.20831 0
M  V30 3611 H 368.461 2.80467 -3.66246 0
M  V30 3612 H 366.704 2.58203 -3.48588 0
M  V30 3613 H 367.375 4.21386 -3.56564 0
M  V30 3614 H 369.851 3.80567 -1.68249 0
M  V30 3615 H 368.727 5.18339 -1.80599 0
M  V30 3616 H 368.988 4.414 -0.248622 0
M  V30 3617 N 368.047 0.979072 1.23499 0
M  V30 3618 C 369.324 0.563674 1.87302 0
M  V30 3619 C 369.704 -0.959199 1.88049 0
M  V30 3620 O 369.052 -1.83535 1.36114 0
M  V30 3621 C 369.262 1.16822 3.28867 0
M  V30 3622 C 370.61 1.26014 4.0547 0
M  V30 3623 O 371.634 1.12158 3.38082 0
M  V30 3624 O 370.493 1.48044 5.26066 0
M  V30 3625 H 367.587 0.189602 0.804972 0
M  V30 3626 H 370.133 1.07407 1.31384 0
M  V30 3627 H 368.905 2.21049 3.22883 0
M  V30 3628 H 368.528 0.642564 3.92373 0
M  V30 3629 N 369.525 -1.3858 0.750561 0
M  V30 3630 C 370.455 -2.33102 0.136237 0
M  V30 3631 C 371.436 -1.54713 -0.706965 0
M  V30 3632 O 372.621 -1.83043 -0.648769 0
M  V30 3633 C 369.751 -3.38882 -0.760017 0
M  V30 3634 C 368.705 -4.27995 -0.0197785 0
M  V30 3635 C 368.031 -5.24605 -1.03408 0
M  V30 3636 C 369.331 -5.09554 1.14684 0
M  V30 3637 H 371.025 -2.84726 0.925822 0
M  V30 3638 H 368.571 -1.36898 0.446654 0
M  V30 3639 H 370.524 -4.0397 -1.19943 0
M  V30 3640 H 369.248 -2.85734 -1.58189 0
M  V30 3641 H 367.907 -3.64409 0.400184 0
M  V30 3642 H 367.555 -4.67746 -1.84994 0
M  V30 3643 H 367.255 -5.85081 -0.543464 0
M  V30 3644 H 368.779 -5.9257 -1.47288 0
M  V30 3645 H 370.193 -5.67899 0.785118 0
M  V30 3646 H 368.59 -5.7925 1.56812 0
M  V30 3647 H 369.66 -4.4347 1.96118 0
M  V30 3648 N 371.003 -0.499398 -1.49478 0
M  V30 3649 C 372.252 0.0475259 -2.01644 0
M  V30 3650 C 372.565 1.38195 -1.38425 0
M  V30 3651 O 373.771 2.01547 -1.8191 0
M  V30 3652 C 372.227 0.135164 -3.59646 0
M  V30 3653 C 371.835 -1.19252 -4.31837 0
M  V30 3654 C 373.579 0.632538 -4.19761 0
M  V30 3655 C 371.486 -1.06713 -5.81693 0
M  V30 3656 H 370.416 0.0215349 -0.753692 0
M  V30 3657 H 373.067 -0.638577 -1.7203 0
M  V30 3658 H 371.449 0.885681 -3.85969 0
M  V30 3659 H 372.623 -1.9562 -4.17216 0
M  V30 3660 H 370.938 -1.62321 -3.83459 0
M  V30 3661 H 373.535 0.743833 -5.29501 0
M  V30 3662 H 373.878 1.63098 -3.83021 0
M  V30 3663 H 374.411 -0.0613987 -3.97753 0
M  V30 3664 H 371.15 -2.03979 -6.22955 0
M  V30 3665 H 370.67 -0.344307 -5.98811 0
M  V30 3666 H 372.349 -0.745208 -6.42694 0
M  V30 3667 N 372.481 1.55866 -0.233164 0
M  V30 3668 C 373.414 2.16794 0.712442 0
M  V30 3669 C 374.392 1.1158 1.18273 0
M  V30 3670 O 375.576 1.39897 1.26337 0
M  V30 3671 C 372.703 2.75757 1.96661 0
M  V30 3672 C 371.749 3.93902 1.63533 0
M  V30 3673 S 372.582 5.30223 0.74995 0
M  V30 3674 C 373.738 5.92631 2.01343 0
M  V30 3675 H 373.971 2.96662 0.194617 0
M  V30 3676 H 371.504 1.5439 -0.0177425 0
M  V30 3677 H 373.462 3.10367 2.68668 0
M  V30 3678 H 372.123 1.9586 2.45556 0
M  V30 3679 H 371.316 4.33702 2.56747 0
M  V30 3680 H 370.918 3.60499 0.995804 0
M  V30 3681 H 373.21 6.09312 2.96219 0
M  V30 3682 H 374.153 6.88388 1.65915 0
M  V30 3683 H 374.561 5.21571 2.15925 0
M  V30 3684 N 373.959 -0.0401083 1.57549 0
M  V30 3685 C 374.906 -1.04413 2.05831 0
M  V30 3686 C 375.876 -1.36585 0.945184 0
M  V30 3687 O 377.061 -1.47112 1.21502 0
M  V30 3688 C 374.201 -2.34336 2.53339 0
M  V30 3689 C 373.314 -2.08419 3.78398 0
M  V30 3690 C 372.449 -3.32133 4.14561 0
M  V30 3691 C 371.488 -3.01721 5.3257 0
M  V30 3692 N 370.625 -4.17855 5.64218 0
M  V30 3693 H 375.465 -0.625442 2.91363 0
M  V30 3694 H 373.002 -0.297218 1.44066 0
M  V30 3695 H 374.96 -3.10234 2.78946 0
M  V30 3696 H 373.59 -2.73948 1.7074 0
M  V30 3697 H 372.642 -1.23069 3.59942 0
M  V30 3698 H 373.954 -1.81978 4.64419 0
M  V30 3699 H 373.108 -4.16406 4.41238 0
M  V30 3700 H 371.847 -3.61678 3.2717 0
M  V30 3701 H 370.852 -2.15849 5.05657 0
M  V30 3702 H 372.077 -2.73466 6.21605 0
M  V30 3703 H 370.023 -4.47372 4.79786 0
M  V30 3704 H 369.94 -3.94798 6.44725 0
M  V30 3705 H 371.208 -5.03033 5.95465 0
M  V30 3706 N 375.437 -1.54477 -0.31217 0
M  V30 3707 C 376.665 -1.77205 -1.068 0
M  V30 3708 C 377.08 -0.526114 -1.81321 0
M  V30 3709 O 376.437 0.503647 -1.75413 0
M  V30 3710 C 376.488 -2.97253 -2.05725 0
M  V30 3711 O 376.209 -4.1703 -1.34228 0
M  V30 3712 C 377.71 -3.32281 -2.93435 0
M  V30 3713 H 374.93 -0.591287 -0.317208 0
M  V30 3714 H 377.474 -2.01398 -0.354834 0
M  V30 3715 H 375.629 -2.753 -2.72559 0
M  V30 3716 H 376.043 -4.84636 -2.00571 0
M  V30 3717 H 377.517 -4.19551 -3.58721 0
M  V30 3718 H 377.994 -2.49945 -3.61143 0
M  V30 3719 H 378.6 -3.56353 -2.32147 0
M  V30 3720 N 376.915 0.57481 -1.46744 0
M  V30 3721 C 378.155 1.34369 -1.54027 0
M  V30 3722 C 378.519 1.91051 -0.190642 0
M  V30 3723 O 379.72 2.68444 -0.138255 0
M  V30 3724 C 377.991 2.43706 -2.61423 0
M  V30 3725 S 379.55 3.30915 -2.88167 0
M  V30 3726 H 376.368 0.45768 -0.544105 0
M  V30 3727 H 378.97 0.659959 -1.84024 0
M  V30 3728 H 377.674 2.0047 -3.58106 0
M  V30 3729 H 377.205 3.16842 -2.33184 0
M  V30 3730 H 379.22 4.42742 -2.24039 0
M  V30 3731 N 378.394 1.34581 0.820102 0
M  V30 3732 C 379.641 1.27096 1.57648 0
M  V30 3733 C 379.969 -0.158317 1.93855 0
M  V30 3734 O 379.224 -1.12028 1.60463 0
M  V30 3735 C 379.523 2.10997 2.8847 0
M  V30 3736 C 379.189 3.59966 2.71543 0
M  V30 3737 C 377.851 4.00575 2.66634 0
M  V30 3738 C 380.203 4.54548 2.55021 0
M  V30 3739 C 377.531 5.33953 2.43128 0
M  V30 3740 C 379.883 5.88109 2.33047 0
M  V30 3741 C 378.547 6.27878 2.26552 0
M  V30 3742 H 377.817 0.465078 0.576874 0
M  V30 3743 H 380.464 1.6635 0.948671 0
M  V30 3744 H 378.769 1.6458 3.55557 0
M  V30 3745 H 380.466 2.0255 3.46084 0
M  V30 3746 H 377.056 3.27733 2.76205 0
M  V30 3747 H 381.24 4.24069 2.57835 0
M  V30 3748 H 376.496 5.63781 2.3656 0
M  V30 3749 H 380.67 6.60985 2.19251 0
M  V30 3750 H 378.297 7.31162 2.081 0
M  V30 3751 N 379.872 -1.04064 1.18357 0
M  V30 3752 C 381.097 -1.81454 1.00445 0
M  V30 3753 C 381.522 -1.82823 -0.442423 0
M  V30 3754 O 380.88 -1.24555 -1.31741 0
M  V30 3755 C 380.928 -3.24925 1.56384 0
M  V30 3756 O 380.032 -4.04856 0.785209 0
M  V30 3757 H 379.373 -0.560604 0.355835 0
M  V30 3758 H 381.903 -1.31059 1.57114 0
M  V30 3759 H 381.913 -3.75702 1.59097 0
M  V30 3760 H 380.588 -3.23244 2.61699 0
M  V30 3761 H 379.165 -3.63537 0.830399 0
M  V30 3762 N 381.35 -0.985608 -1.22978 0
M  V30 3763 C 382.761 -0.693593 -1.73338 0
M  V30 3764 C 383.112 0.789935 -1.79595 0
M  V30 3765 O 382.237 1.61771 -1.43733 0
M  V30 3766 C 382.832 -1.25235 -3.14804 0
M  V30 3767 C 381.391 -1.00987 -3.626 0
M  V30 3768 C 380.538 -1.37695 -2.40698 0
M  V30 3769 H 383.489 -1.15884 -1.08428 0
M  V30 3770 H 383.51 -0.627329 -3.75293 0
M  V30 3771 H 383.022 -2.33209 -3.10218 0
M  V30 3772 H 381.123 0.0535565 -3.72562 0
M  V30 3773 H 381.236 -1.66812 -4.49122 0
M  V30 3774 H 379.6 -0.795459 -2.4196 0
M  V30 3775 H 380.383 -2.46657 -2.38779 0
M  V30 3776 N 382.828 1.3818 -0.7579 0
M  V30 3777 C 383.776 2.32277 -0.122482 0
M  V30 3778 C 384.77 1.54238 0.700505 0
M  V30 3779 O 385.976 1.69737 0.599119 0
M  V30 3780 H 382.351 0.751712 -0.0208143 0
M  V30 3781 H 384.322 2.83469 -0.932099 0
M  V30 3782 C 383.071 3.39447 0.753076 0
M  V30 3783 H 382.394 3.99591 0.129184 0
M  V30 3784 H 383.834 4.07684 1.16489 0
M  V30 3785 C 382.293 2.78375 1.8976 0
M  V30 3786 O 382.823 2.68025 2.99208 0
M  V30 3787 N 381.029 2.36121 1.69397 0
M  V30 3788 H 380.576 2.4474 0.803762 0
M  V30 3789 H 380.534 1.95602 2.46145 0
M  V30 3790 N 384.306 0.507319 1.49211 0
M  V30 3791 C 385.722 0.163682 1.58758 0
M  V30 3792 C 385.922 -1.33208 1.51188 0
M  V30 3793 O 384.978 -2.10855 1.38911 0
M  V30 3794 C 386.291 0.746095 2.91297 0
M  V30 3795 C 387.839 0.712773 3.04776 0
M  V30 3796 C 388.314 1.27336 4.39943 0
M  V30 3797 N 389.805 1.23433 4.46451 0
M  V30 3798 C 390.54 1.63821 5.495 0
M  V30 3799 N 390.036 2.11832 6.5962 0
M  V30 3800 N 391.829 1.55198 5.4025 0
M  V30 3801 H 383.98 1.47972 1.52375 0
M  V30 3802 H 386.243 0.614147 0.722168 0
M  V30 3803 H 385.949 1.79534 3.02424 0
M  V30 3804 H 385.823 0.210137 3.76614 0
M  V30 3805 H 388.21 -0.327656 2.93275 0
M  V30 3806 H 388.291 1.28595 2.21127 0
M  V30 3807 H 387.935 2.3126 4.52196 0
M  V30 3808 H 387.865 0.676066 5.22242 0
M  V30 3809 H 390.356 0.882627 3.67448 0
M  V30 3810 H 390.669 2.40703 7.34358 0
M  V30 3811 H 389.014 2.1581 6.60644 0
M  V30 3812 H 392.205 1.17505 4.53112 0
M  V30 3813 H 392.378 1.86997 6.20432 0
M  V30 3814 N 385.784 -1.5574 0.241426 0
M  V30 3815 C 387.03 -1.99104 -0.385406 0
M  V30 3816 C 387.363 -1.1293 -1.57988 0
M  V30 3817 O 386.638 -0.191449 -1.93555 0
M  V30 3818 C 386.921 -3.51087 -0.800616 0
M  V30 3819 C 386.774 -4.48028 0.398874 0
M  V30 3820 C 388.093 -4.08015 -1.64959 0
M  V30 3821 H 385.212 -0.723848 -0.138614 0
M  V30 3822 H 387.854 -1.86903 0.341642 0
M  V30 3823 H 386.004 -3.61615 -1.4201 0
M  V30 3824 H 387.676 -4.49487 1.03726 0
M  V30 3825 H 385.919 -4.21077 1.04293 0
M  V30 3826 H 386.59 -5.51962 0.0651056 0
M  V30 3827 H 389.066 -4.00555 -1.12672 0
M  V30 3828 H 387.942 -5.14635 -1.90898 0
M  V30 3829 H 388.203 -3.56131 -2.61961 0
M  V30 3830 N 387.262 0.0317525 -1.57568 0
M  V30 3831 C 388.511 0.722131 -1.8833 0
M  V30 3832 C 388.824 1.76664 -0.839587 0
M  V30 3833 O 390.03 2.50942 -1.03635 0
M  V30 3834 C 388.486 1.33544 -3.34207 0
M  V30 3835 C 388.094 0.327415 -4.46802 0
M  V30 3836 C 389.838 2.00585 -3.7412 0
M  V30 3837 C 387.745 0.948915 -5.83738 0
M  V30 3838 H 386.675 0.273466 -0.702661 0
M  V30 3839 H 389.326 -0.0235811 -1.83485 0
M  V30 3840 H 387.708 2.13077 -3.33788 0
M  V30 3841 H 388.882 -0.441006 -4.58685 0
M  V30 3842 H 387.197 -0.240758 -4.15703 0
M  V30 3843 H 389.794 2.47932 -4.73744 0
M  V30 3844 H 390.137 2.82285 -3.05975 0
M  V30 3845 H 390.67 1.27831 -3.76702 0
M  V30 3846 H 387.409 0.171387 -6.55276 0
M  V30 3847 H 386.929 1.68724 -5.7558 0
M  V30 3848 H 388.608 1.45705 -6.3038 0
M  V30 3849 N 388.74 1.54641 0.303973 0
M  V30 3850 C 389.988 1.73437 1.0375 0
M  V30 3851 C 390.309 0.521449 1.87899 0
M  V30 3852 O 389.579 -0.46432 1.90318 0
M  V30 3853 H 388.159 0.639518 0.386039 0
M  V30 3854 H 390.821 1.91988 0.335675 0
M  V30 3855 H 389.917 2.62235 1.69231 0
M  V30 3856 N 390.218 -0.567019 1.47046 0
M  V30 3857 C 391.148 -1.68482 1.61667 0
M  V30 3858 C 392.129 -1.6358 0.466418 0
M  V30 3859 O 393.314 -1.81354 0.694574 0
M  V30 3860 C 390.444 -3.07124 1.62148 0
M  V30 3861 C 389.398 -3.26867 2.76301 0
M  V30 3862 C 388.724 -4.66196 2.61849 0
M  V30 3863 C 390.024 -3.13186 4.17986 0
M  V30 3864 H 391.718 -1.56502 2.5524 0
M  V30 3865 H 389.264 -0.751486 1.22836 0
M  V30 3866 H 391.217 -3.8516 1.70968 0
M  V30 3867 H 389.941 -3.2004 0.651287 0
M  V30 3868 H 388.6 -2.51237 2.66975 0
M  V30 3869 H 388.248 -4.75898 1.62879 0
M  V30 3870 H 387.948 -4.80356 3.38425 0
M  V30 3871 H 389.472 -5.46379 2.72584 0
M  V30 3872 H 390.886 -3.81049 4.2834 0
M  V30 3873 H 389.283 -3.3886 4.95272 0
M  V30 3874 H 390.353 -2.10057 4.3704 0
M  V30 3875 N 391.696 -1.35014 -0.812953 0
M  V30 3876 C 392.921 -1.31187 -1.60639 0
M  V30 3877 C 393.346 0.109382 -1.87782 0
M  V30 3878 O 392.704 1.07424 -1.46047 0
M  V30 3879 C 392.752 -2.11809 -2.91838 0
M  V30 3880 O 391.856 -1.49444 -3.8437 0
M  V30 3881 H 391.197 -0.450084 -0.488181 0
M  V30 3882 H 393.727 -1.77963 -1.00947 0
M  V30 3883 H 393.737 -2.23531 -3.41318 0
M  V30 3884 H 392.412 -3.15137 -2.71407 0
M  V30 3885 H 390.989 -1.46524 -3.42907 0
M  V30 3886 N 393.175 1.03435 -1.18907 0
M  V30 3887 C 394.4 1.80919 -1.01406 0
M  V30 3888 C 394.825 1.83055 0.432721 0
M  V30 3889 O 394.183 1.25252 1.31079 0
M  V30 3890 C 394.231 3.24091 -1.58105 0
M  V30 3891 O 393.335 4.04434 -0.806669 0
M  V30 3892 H 392.676 0.558709 -0.358803 0
M  V30 3893 H 395.206 1.30223 -1.57807 0
M  V30 3894 H 395.216 3.74853 -1.61087 0
M  V30 3895 H 393.891 3.21851 -2.6341 0
M  V30 3896 H 392.468 3.63091 -0.849666 0
M  V30 3897 N 394.653 0.992116 1.22453 0
M  V30 3898 C 395.93 0.583508 1.86694 0
M  V30 3899 C 396.31 -0.9392 1.89056 0
M  V30 3900 O 395.658 -1.82081 1.38053 0
M  V30 3901 C 395.868 1.20304 3.2761 0
M  V30 3902 C 397.216 1.30308 4.0411 0
M  V30 3903 O 398.24 1.15737 3.36873 0
M  V30 3904 O 397.099 1.53615 5.24466 0
M  V30 3905 H 394.193 0.198129 0.802916 0
M  V30 3906 H 396.739 1.08794 1.30238 0
M  V30 3907 H 395.511 2.24461 3.2052 0
M  V30 3908 H 395.134 0.684144 3.9167 0
M  V30 3909 N 396.131 -1.37776 0.765217 0
M  V30 3910 C 397.061 -2.32945 0.160953 0
M  V30 3911 C 398.042 -1.55454 -0.690516 0
M  V30 3912 O 399.227 -1.83721 -0.629318 0
M  V30 3913 C 396.357 -3.39669 -0.724031 0
M  V30 3914 C 395.311 -4.27992 0.0256173 0
M  V30 3915 C 394.637 -5.25673 -0.978383 0
M  V30 3916 C 395.937 -5.08309 1.20082 0
M  V30 3917 H 397.631 -2.83728 0.955969 0
M  V30 3918 H 395.177 -1.36416 0.461149 0
M  V30 3919 H 397.13 -4.05219 -1.15652 0
M  V30 3920 H 395.854 -2.87396 -1.5515 0
M  V30 3921 H 394.513 -3.63964 0.438812 0
M  V30 3922 H 394.161 -4.69682 -1.80022 0
M  V30 3923 H 393.861 -5.85625 -0.481378 0
M  V30 3924 H 395.385 -5.94098 -1.40995 0
M  V30 3925 H 396.799 -5.67034 0.845307 0
M  V30 3926 H 395.196 -5.77554 1.62947 0
M  V30 3927 H 396.266 -4.41365 2.00811 0
M  V30 3928 N 397.609 -0.515225 -1.4894 0
M  V30 3929 C 398.541 0.292481 -2.27326 0
M  V30 3930 C 399.554 0.917838 -1.3446 0
M  V30 3931 O 400.743 0.798772 -1.5963 0
M  V30 3932 C 397.843 1.42803 -3.07344 0
M  V30 3933 C 397.016 0.907347 -4.27885 0
M  V30 3934 C 396.075 1.92222 -4.89834 0
M  V30 3935 O 395.101 1.48506 -5.49486 0
M  V30 3936 N 396.303 3.25355 -4.80754 0
M  V30 3937 H 399.068 -0.379721 -2.97285 0
M  V30 3938 H 396.629 -0.348638 -1.58102 0
M  V30 3939 H 398.621 2.10481 -3.45658 0
M  V30 3940 H 397.191 2.00414 -2.39902 0
M  V30 3941 H 396.411 0.0550218 -3.94162 0
M  V30 3942 H 397.699 0.538108 -5.05946 0
M  V30 3943 H 397.097 3.6355 -4.33414 0
M  V30 3944 H 395.654 3.88707 -5.23211 0
M  V30 3945 N 399.087 1.5561 -0.249682 0
M  V30 3946 C 400.019 2.18834 0.681496 0
M  V30 3947 C 401.032 1.16546 1.1367 0
M  V30 3948 O 402.221 1.43397 1.06299 0
M  V30 3949 C 399.321 2.77992 1.9384 0
M  V30 3950 C 398.494 4.05725 1.63419 0
M  V30 3951 C 397.553 4.49174 2.74096 0
M  V30 3952 O 396.579 5.15492 2.41364 0
M  V30 3953 N 397.781 4.17191 4.03649 0
M  V30 3954 H 400.546 2.9937 0.140514 0
M  V30 3955 H 398.107 1.6175 -0.0697541 0
M  V30 3956 H 400.099 3.04015 2.67127 0
M  V30 3957 H 398.669 2.01596 2.38909 0
M  V30 3958 H 397.889 3.87261 0.736358 0
M  V30 3959 H 399.177 4.88999 1.40562 0
M  V30 3960 H 398.575 3.63955 4.33074 0
M  V30 3961 H 397.132 4.48043 4.73393 0
M  V30 3962 N 400.565 -0.0233959 1.57583 0
M  V30 3963 C 401.811 -0.714119 1.89811 0
M  V30 3964 C 402.144 -1.74702 0.848113 0
M  V30 3965 O 401.419 -1.94023 -0.136135 0
M  V30 3966 C 401.702 -1.37853 3.32669 0
M  V30 3967 C 401.555 -0.358764 4.48367 0
M  V30 3968 C 402.874 -2.31101 3.7454 0
M  V30 3969 H 399.993 -0.25814 0.690314 0
M  V30 3970 H 402.635 0.0230927 1.89986 0
M  V30 3971 H 400.785 -2.00689 3.3265 0
M  V30 3972 H 402.457 0.268115 4.6052 0
M  V30 3973 H 400.7 0.321387 4.32608 0
M  V30 3974 H 401.371 -0.862242 5.45224 0
M  V30 3975 H 403.847 -1.78304 3.75961 0
M  V30 3976 H 402.723 -2.74567 4.75294 0
M  V30 3977 H 402.984 -3.18018 3.0711 0
M  V30 3978 N 402.043 -1.548 -0.295768 0
M  V30 3979 C 403.291 -1.73985 -1.02828 0
M  V30 3980 C 403.612 -0.531406 -1.87619 0
M  V30 3981 O 402.882 0.454221 -1.90561 0
M  V30 3982 H 401.462 -0.641556 -0.382642 0
M  V30 3983 H 404.124 -1.92163 -0.325489 0
M  V30 3984 H 403.22 -2.63129 -1.67838 0
M  V30 3985 N 403.521 0.559213 -1.47345 0
M  V30 3986 C 404.769 1.31388 -1.53563 0
M  V30 3987 C 405.09 1.93985 -0.198678 0
M  V30 3988 O 404.36 1.79825 0.777167 0
M  V30 3989 H 402.94 0.487901 -0.565652 0
M  V30 3990 H 405.602 0.65315 -1.8363 0
M  V30 3991 H 404.698 2.10844 -2.30111 0
M  V30 3992 N 404.999 1.35443 0.805782 0
M  V30 3993 C 405.962 1.28301 1.89925 0
M  V30 3994 C 406.962 0.194285 1.59622 0
M  V30 3995 O 408.152 0.448036 1.6834 0
M  V30 3996 C 405.284 0.984997 3.2636 0
M  V30 3997 H 406.477 2.2553 1.97677 0
M  V30 3998 H 404.03 1.19979 1.00173 0
M  V30 3999 H 404.765 0.016603 3.24296 0
M  V30 4000 H 404.55 1.77269 3.4974 0
M  V30 4001 H 406.04 0.960651 4.064 0
M  V30 4002 N 406.477 -1.02803 1.19454 0
M  V30 4003 C 407.702 -1.80378 1.02364 0
M  V30 4004 C 408.127 -1.83282 -0.423007 0
M  V30 4005 O 407.485 -1.25945 -1.30413 0
M  V30 4006 C 407.533 -3.23248 1.59821 0
M  V30 4007 O 406.637 -4.04 0.828105 0
M  V30 4008 H 405.978 -0.556799 0.361761 0
M  V30 4009 H 408.508 -1.29385 1.58495 0
M  V30 4010 H 408.518 -3.73994 1.63073 0
M  V30 4011 H 407.193 -3.2045 2.65113 0
M  V30 4012 H 405.77 -3.62635 0.86891 0
M  V30 4013 N 407.956 -0.998596 -1.21925 0
M  V30 4014 C 408.919 -0.558679 -2.22287 0
M  V30 4015 C 409.919 0.361525 -1.56683 0
M  V30 4016 O 411.109 0.152695 -1.73529 0
M  V30 4017 C 408.241 0.18661 -3.40389 0
M  V30 4018 H 409.434 -1.4463 -2.62721 0
M  V30 4019 H 406.987 -0.786413 -1.35075 0
M  V30 4020 H 407.722 1.08996 -3.05435 0
M  V30 4021 H 407.507 -0.474188 -3.89222 0
M  V30 4022 H 408.997 0.482367 -4.14805 0
M  V30 4023 N 409.434 1.37368 -0.772513 0
M  V30 4024 C 410.85 1.53059 -0.452231 0
M  V30 4025 C 411.05 1.73065 1.03203 0
M  V30 4026 O 410.106 1.75245 1.81784 0
M  V30 4027 C 411.419 2.72659 -1.26797 0
M  V30 4028 C 412.967 2.86521 -1.25995 0
M  V30 4029 C 413.442 4.09105 -2.05905 0
M  V30 4030 N 414.933 4.16219 -2.03263 0
M  V30 4031 C 415.668 5.10107 -2.61875 0
M  V30 4032 N 415.164 6.09547 -3.29278 0
M  V30 4033 N 416.957 5.02596 -2.51701 0
M  V30 4034 H 409.108 1.22634 -1.7342 0
M  V30 4035 H 411.371 0.597206 -0.736239 0
M  V30 4036 H 411.077 2.64343 -2.31982 0
M  V30 4037 H 410.951 3.66363 -0.897672 0
M  V30 4038 H 413.338 2.94308 -0.216081 0
M  V30 4039 H 413.419 1.93774 -1.66989 0
M  V30 4040 H 413.063 4.0208 -3.10313 0
M  V30 4041 H 412.993 5.00968 -1.62292 0
M  V30 4042 H 415.484 3.45012 -1.54192 0
M  V30 4043 H 415.797 6.77718 -3.71374 0
M  V30 4044 H 414.142 6.09824 -3.33377 0
M  V30 4045 H 417.333 4.23855 -1.98657 0
M  V30 4046 H 417.506 5.75582 -2.97673 0
M  V30 4047 N 410.912 0.523116 1.48665 0
M  V30 4048 C 412.161 -0.01544 2.01694 0
M  V30 4049 C 412.474 -1.35975 1.40606 0
M  V30 4050 O 413.68 -1.98627 1.85093 0
M  V30 4051 C 412.136 -0.0779303 3.59816 0
M  V30 4052 C 411.744 1.26107 4.29885 0
M  V30 4053 C 413.488 -0.565678 4.20714 0
M  V30 4054 C 411.395 1.15954 5.79921 0
M  V30 4055 H 410.325 -0.00954163 0.75394 0
M  V30 4056 H 412.976 0.665865 1.70993 0
M  V30 4057 H 411.358 -0.824165 3.87329 0
M  V30 4058 H 412.532 2.02233 4.14051 0
M  V30 4059 H 410.847 1.68401 3.80828 0
M  V30 4060 H 413.444 -0.6595 5.30617 0
M  V30 4061 H 413.787 -1.56984 3.85567 0
M  V30 4062 H 414.32 0.12467 3.97605 0
M  V30 4063 H 411.059 2.13864 6.19631 0
M  V30 4064 H 410.579 0.439529 5.98187 0
M  V30 4065 H 412.258 0.847361 6.41427 0
M  V30 4066 N 412.39 -1.55475 0.257931 0
M  V30 4067 C 413.322 -2.19192 -0.669881 0
M  V30 4068 C 414.335 -1.17148 -1.1305 0
M  V30 4069 O 415.524 -1.43959 -1.05537 0
M  V30 4070 C 412.624 -2.79016 -1.92363 0
M  V30 4071 C 411.797 -4.06586 -1.61265 0
M  V30 4072 C 410.856 -4.50622 -2.7171 0
M  V30 4073 O 409.882 -5.16765 -2.38627 0
M  V30 4074 N 411.084 -4.19325 -4.01431 0
M  V30 4075 H 413.849 -2.99441 -0.124635 0
M  V30 4076 H 411.41 -1.6171 0.0783311 0
M  V30 4077 H 413.402 -3.05427 -2.65511 0
M  V30 4078 H 411.972 -2.0286 -2.37837 0
M  V30 4079 H 411.192 -3.87646 -0.715811 0
M  V30 4080 H 412.48 -4.89737 -1.37967 0
M  V30 4081 H 411.878 -3.66247 -4.31138 0
M  V30 4082 H 410.435 -4.50547 -4.7101 0
M  V30 4083 N 413.868 0.0150385 -1.57593 0
M  V30 4084 C 415.145 0.7392 -1.81094 0
M  V30 4085 C 415.525 1.92817 -0.859344 0
M  V30 4086 O 414.873 2.28301 0.095362 0
M  V30 4087 C 415.083 1.15907 -3.29191 0
M  V30 4088 C 416.431 1.56918 -3.9454 0
M  V30 4089 O 417.455 1.25328 -3.33424 0
M  V30 4090 O 416.314 2.15604 -5.02173 0
M  V30 4091 H 413.408 0.358631 -0.745193 0
M  V30 4092 H 415.954 -0.00926156 -1.69697 0
M  V30 4093 H 414.726 0.310921 -3.90063 0
M  V30 4094 H 414.349 1.96711 -3.45529 0
M  V30 4095 N 415.346 1.54954 0.287554 0
M  V30 4096 C 416.309 1.86076 1.33823 0
M  V30 4097 C 417.309 0.734414 1.43049 0
M  V30 4098 O 418.499 1.00266 1.42452 0
M  V30 4099 C 415.631 2.05305 2.72144 0
M  V30 4100 H 416.824 2.79984 1.07465 0
M  V30 4101 H 414.377 1.47223 0.524902 0
M  V30 4102 H 415.112 1.1373 3.03704 0
M  V30 4103 H 414.897 2.873 2.66836 0
M  V30 4104 H 416.387 2.30706 3.48087 0
M  V30 4105 N 416.824 -0.551391 1.4764 0
M  V30 4106 C 417.754 -1.66757 1.63445 0
M  V30 4107 C 418.735 -1.63077 0.483742 0
M  V30 4108 O 419.92 -1.80607 0.71377 0
M  V30 4109 C 417.05 -3.05387 1.65396 0
M  V30 4110 C 416.004 -3.23918 2.79752 0
M  V30 4111 C 415.33 -4.63393 2.66779 0
M  V30 4112 C 416.63 -3.08735 4.21284 0
M  V30 4113 H 418.324 -1.53786 2.56886 0
M  V30 4114 H 415.87 -0.738415 1.23626 0
M  V30 4115 H 417.823 -3.83325 1.75043 0
M  V30 4116 H 416.547 -3.19332 0.685195 0
M  V30 4117 H 415.206 -2.48391 2.69625 0
M  V30 4118 H 414.854 -4.74144 1.67918 0
M  V30 4119 H 414.554 -4.7674 3.43501 0
M  V30 4120 H 416.078 -5.43458 2.78364 0
M  V30 4121 H 417.492 -3.76484 4.32357 0
M  V30 4122 H 415.889 -3.33588 4.98838 0
M  V30 4123 H 416.959 -2.0541 4.39243 0
M  V30 4124 N 418.302 -1.35869 -0.798587 0
M  V30 4125 C 419.527 -1.32883 -1.59238 0
M  V30 4126 C 419.952 0.0894587 -1.87887 0
M  V30 4127 O 419.31 1.05869 -1.47178 0
M  V30 4128 C 419.358 -2.14892 -2.89575 0
M  V30 4129 O 418.462 -1.53512 -3.82763 0
M  V30 4130 H 417.803 -0.455236 -0.48338 0
M  V30 4131 H 420.333 -1.79024 -0.990539 0
M  V30 4132 H 420.343 -2.27139 -3.38928 0
M  V30 4133 H 419.018 -3.17998 -2.68049 0
M  V30 4134 H 417.595 -1.50153 -3.41334 0
M  V30 4135 N 419.78 1.02168 -1.19998 0
M  V30 4136 C 421.008 1.79296 -1.03249 0
M  V30 4137 C 421.423 1.84103 0.418502 0
M  V30 4138 O 420.78 1.29031 1.29063 0
M  V30 4139 C 420.831 3.24007 -1.60319 0
M  V30 4140 O 420.552 3.19512 -2.99739 0
M  V30 4141 C 422.053 4.17704 -1.48453 0
M  V30 4142 H 419.273 0.564016 -0.363493 0
M  V30 4143 H 421.817 1.28639 -1.58973 0
M  V30 4144 H 419.972 3.7183 -1.08727 0
M  V30 4145 H 420.386 4.10306 -3.26725 0
M  V30 4146 H 421.86 5.17104 -1.93153 0
M  V30 4147 H 422.337 4.37029 -0.436193 0
M  V30 4148 H 422.943 3.7576 -1.99211 0
M  V30 4149 N 421.258 1.00505 1.21394 0
M  V30 4150 C 422.504 0.688793 1.90745 0
M  V30 4151 C 422.837 -0.778486 1.77914 0
M  V30 4152 O 422.112 -1.56433 1.15581 0
M  V30 4153 C 422.395 1.11063 3.42545 0
M  V30 4154 C 422.248 2.63737 3.64367 0
M  V30 4155 C 423.567 0.673059 4.34923 0
M  V30 4156 H 420.686 0.251702 0.692687 0
M  V30 4157 H 423.328 1.25074 1.43026 0
M  V30 4158 H 421.478 0.632508 3.83317 0
M  V30 4159 H 423.15 3.19313 3.32922 0
M  V30 4160 H 421.393 3.05248 3.08231 0
M  V30 4161 H 422.064 2.88305 4.70727 0
M  V30 4162 H 424.54 1.08392 4.01734 0
M  V30 4163 H 423.416 0.996383 5.39781 0
M  V30 4164 H 423.677 -0.425808 4.40045 0
M  V30 4165 N 422.737 -1.36956 0.779787 0
M  V30 4166 C 423.667 -2.32761 0.185651 0
M  V30 4167 C 424.648 -1.56177 -0.673989 0
M  V30 4168 O 425.833 -1.84378 -0.609797 0
M  V30 4169 C 422.963 -3.40418 -0.687964 0
M  V30 4170 C 421.917 -4.27941 0.0710102 0
M  V30 4171 C 421.243 -5.26681 -0.922573 0
M  V30 4172 C 422.543 -5.07006 1.25467 0
M  V30 4173 H 424.237 -2.82698 0.986008 0
M  V30 4174 H 421.783 -1.3592 0.475592 0
M  V30 4175 H 423.736 -4.06423 -1.11348 0
M  V30 4176 H 422.46 -2.89025 -1.52093 0
M  V30 4177 H 421.119 -3.63478 0.47739 0
M  V30 4178 H 420.767 -4.71565 -1.7503 0
M  V30 4179 H 420.467 -5.86103 -0.419237 0
M  V30 4180 H 421.991 -5.9556 -1.34686 0
M  V30 4181 H 423.405 -5.66105 0.905401 0
M  V30 4182 H 421.802 -5.75793 1.69063 0
M  V30 4183 H 422.872 -4.3921 2.05481 0
M  V30 4184 N 424.215 -0.530993 -1.48385 0
M  V30 4185 C 425.147 0.268353 -2.27624 0
M  V30 4186 C 426.16 0.903525 -1.35426 0
M  V30 4187 O 427.349 0.781796 -1.60469 0
M  V30 4188 C 424.449 1.39535 -3.08842 0
M  V30 4189 C 423.622 0.861913 -4.28824 0
M  V30 4190 C 422.681 1.87016 -4.91845 0
M  V30 4191 O 421.707 1.4267 -5.5103 0
M  V30 4192 N 422.909 3.20238 -4.84178 0
M  V30 4193 H 425.674 -0.41123 -2.96865 0
M  V30 4194 H 423.235 -0.365387 -1.57723 0
M  V30 4195 H 425.227 2.06803 -3.47871 0
M  V30 4196 H 423.797 1.97859 -2.42014 0
M  V30 4197 H 423.017 0.0132126 -3.94198 0
M  V30 4198 H 424.305 0.484415 -5.06489 0
M  V30 4199 H 423.703 3.58932 -4.37246 0
M  V30 4200 H 422.26 3.83136 -5.27305 0
M  V30 4201 N 425.693 1.55336 -0.266172 0
M  V30 4202 C 426.923 2.03506 0.356239 0
M  V30 4203 C 427.331 1.14426 1.50676 0
M  V30 4204 O 426.674 0.155043 1.83045 0
M  V30 4205 C 426.736 3.47848 0.90785 0
M  V30 4206 C 426.4 4.56861 -0.112888 0
M  V30 4207 C 427.397 5.11528 -0.929264 0
M  V30 4208 C 425.082 5.01704 -0.244546 0
M  V30 4209 C 427.076 6.09549 -1.86357 0
M  V30 4210 C 424.763 5.99553 -1.18234 0
M  V30 4211 C 425.761 6.53356 -1.99036 0
M  V30 4212 O 425.449 7.49293 -2.91231 0
M  V30 4213 H 425.181 0.670444 0.08649 0
M  V30 4214 H 427.735 2.01598 -0.39337 0
M  V30 4215 H 425.965 3.46967 1.70737 0
M  V30 4216 H 427.654 3.79407 1.44239 0
M  V30 4217 H 428.42 4.77701 -0.838237 0
M  V30 4218 H 424.299 4.59477 0.374359 0
M  V30 4219 H 427.843 6.51469 -2.49467 0
M  V30 4220 H 423.74 6.32799 -1.27421 0
M  V30 4221 H 424.508 7.66978 -2.8581 0
M  V30 4222 N 427.171 -0.0066808 1.57599 0
M  V30 4223 C 428.134 -0.985035 2.06953 0
M  V30 4224 C 429.134 -1.27663 0.977687 0
M  V30 4225 O 430.324 -1.22293 1.24057 0
M  V30 4226 C 427.456 -2.3118 2.50536 0
M  V30 4227 H 428.649 -0.558255 2.94658 0
M  V30 4228 H 426.202 -0.254011 1.54222 0
M  V30 4229 H 426.937 -2.78561 1.66054 0
M  V30 4230 H 426.722 -2.11338 3.3027 0
M  V30 4231 H 428.212 -3.01377 2.8907 0
M  V30 4232 N 428.649 -1.55105 -0.279332 0
M  V30 4233 C 429.559 -1.90638 -1.36727 0
M  V30 4234 C 430.575 -0.802899 -1.54368 0
M  V30 4235 O 431.751 -1.10138 -1.68616 0
M  V30 4236 C 428.816 -2.16547 -2.70755 0
M  V30 4237 C 427.877 -3.40146 -2.61915 0
M  V30 4238 C 427.11 -3.6481 -3.8955 0
M  V30 4239 O 427.333 -2.92095 -4.89935 0
M  V30 4240 O 426.267 -4.58343 -3.90135 0
M  V30 4241 H 430.093 -2.83237 -1.09591 0
M  V30 4242 H 427.678 -1.4157 -0.477306 0
M  V30 4243 H 429.56 -2.34665 -3.50014 0
M  V30 4244 H 428.235 -1.27131 -2.9769 0
M  V30 4245 H 427.142 -3.2737 -1.81052 0
M  V30 4246 H 428.475 -4.29761 -2.3993 0
M  V30 4247 N 430.127 0.543554 -1.4793 0
M  V30 4248 C 431.404 1.30458 -1.4574 0
M  V30 4249 C 431.784 2.1048 -0.161692 0
M  V30 4250 O 431.132 2.11831 0.856734 0
M  V30 4251 C 431.342 2.19754 -2.71126 0
M  V30 4252 C 432.69 2.80334 -3.18901 0
M  V30 4253 O 433.714 2.30049 -2.71948 0
M  V30 4254 O 432.573 3.71766 -4.00565 0
M  V30 4255 H 429.667 0.588117 -0.581418 0
M  V30 4256 H 432.213 0.561328 -1.60147 0
M  V30 4257 H 430.985 1.60316 -3.56952 0
M  V30 4258 H 430.608 3.01351 -2.59371 0
M  V30 4259 N 431.605 1.3629 0.791371 0
M  V30 4260 C 432.851 1.30605 1.55146 0
M  V30 4261 C 433.184 -0.115042 1.93859 0
M  V30 4262 O 432.459 -1.06798 1.62556 0
M  V30 4263 C 432.742 2.22692 2.82985 0
M  V30 4264 C 432.595 3.73489 2.50651 0
M  V30 4265 C 433.914 2.13588 3.84796 0
M  V30 4266 H 431.033 0.475761 0.562868 0
M  V30 4267 H 433.675 1.66825 0.909358 0
M  V30 4268 H 431.825 1.91933 3.37778 0
M  V30 4269 H 433.497 4.14758 2.01924 0
M  V30 4270 H 431.74 3.93021 1.83622 0
M  V30 4271 H 432.411 4.3333 3.41949 0
M  V30 4272 H 434.887 2.40659 3.39445 0
M  V30 4273 H 433.763 2.80195 4.71998 0
M  V30 4274 H 434.024 1.12256 4.27611 0
M  V30 4275 N 433.083 -1.0153 1.20538 0
M  V30 4276 C 434.013 -2.11972 0.979295 0
M  V30 4277 C 434.994 -1.6985 -0.0921787 0
M  V30 4278 O 436.179 -1.94089 0.0655932 0
M  V30 4279 C 433.309 -3.43201 0.531984 0
M  V30 4280 C 432.263 -3.9907 1.54685 0
M  V30 4281 C 431.589 -5.26082 0.956127 0
M  V30 4282 C 432.889 -4.32313 2.93092 0
M  V30 4283 H 434.583 -2.31143 1.90298 0
M  V30 4284 H 432.129 -1.11079 0.916372 0
M  V30 4285 H 434.082 -4.1985 0.361044 0
M  V30 4286 H 432.806 -3.23792 -0.427327 0
M  V30 4287 H 431.465 -3.2453 1.70517 0
M  V30 4288 H 431.113 -5.02999 -0.0111538 0
M  V30 4289 H 430.813 -5.64426 1.63393 0
M  V30 4290 H 432.337 -6.05386 0.796284 0
M  V30 4291 H 433.751 -4.99845 2.80763 0
M  V30 4292 H 432.148 -4.81774 3.57791 0
M  V30 4293 H 433.218 -3.41025 3.44717 0
M  V30 4294 N 434.561 -1.01147 -1.20859 0
M  V30 4295 C 435.786 -0.716698 -1.94623 0
M  V30 4296 C 436.211 0.715415 -1.73964 0
M  V30 4297 O 435.569 1.49157 -1.03062 0
M  V30 4298 C 435.617 -1.0513 -3.44935 0
M  V30 4299 O 434.721 -0.160131 -4.12089 0
M  V30 4300 H 434.062 -0.266404 -0.608214 0
M  V30 4301 H 436.592 -1.35346 -1.53436 0
M  V30 4302 H 436.602 -1.00086 -3.95533 0
M  V30 4303 H 435.277 -2.09475 -3.59295 0
M  V30 4304 H 433.854 -0.267657 -3.71938 0
M  V30 4305 N 436.039 1.36541 -0.78704 0
M  V30 4306 C 437.287 1.98911 -0.357633 0
M  V30 4307 C 437.608 1.62778 1.07371 0
M  V30 4308 O 436.878 0.900612 1.73971 0
M  V30 4309 H 435.458 0.735734 -0.129246 0
M  V30 4310 H 438.12 1.66776 -1.00855 0
M  V30 4311 H 437.216 3.08874 -0.447549 0
M  V30 4312 N 437.518 0.538854 1.48102 0
M  V30 4313 C 438.465 -0.219042 2.29758 0
M  V30 4314 C 439.435 -0.925562 1.37922 0
M  V30 4315 O 440.62 -0.924855 1.66886 0
M  V30 4316 C 437.76 -1.25452 3.2149 0
M  V30 4317 C 436.873 -0.555943 4.28408 0
M  V30 4318 C 436.008 -1.57512 5.0731 0
M  V30 4319 C 435.047 -0.860498 6.06021 0
M  V30 4320 N 434.184 -1.82564 6.77949 0
M  V30 4321 H 439.024 0.483449 2.94052 0
M  V30 4322 H 436.561 0.250247 1.44956 0
M  V30 4323 H 438.519 -1.86727 3.7308 0
M  V30 4324 H 437.149 -1.92528 2.591 0
M  V30 4325 H 436.201 0.170938 3.80016 0
M  V30 4326 H 437.513 0.00474616 4.988 0
M  V30 4327 H 436.667 -2.26191 5.62959 0
M  V30 4328 H 435.406 -2.16972 4.36778 0
M  V30 4329 H 434.411 -0.159686 5.49568 0
M  V30 4330 H 435.636 -0.271897 6.78555 0
M  V30 4331 H 433.582 -2.40915 6.10161 0
M  V30 4332 H 433.499 -1.31662 7.44447 0
M  V30 4333 H 434.767 -2.50414 7.38182 0
M  V30 4334 N 438.996 -1.55193 0.274407 0
M  V30 4335 C 440.242 -1.99877 -0.343086 0
M  V30 4336 C 440.575 -1.16256 -1.55558 0
M  V30 4337 O 439.85 -0.232462 -1.93106 0
M  V30 4338 C 440.133 -3.52706 -0.725965 0
M  V30 4339 C 439.986 -4.47081 0.493818 0
M  V30 4340 C 441.305 -4.11422 -1.56268 0
M  V30 4341 H 438.424 -0.726625 -0.123229 0
M  V30 4342 H 441.066 -1.86136 0.38121 0
M  V30 4343 H 439.216 -3.64546 -1.34307 0
M  V30 4344 H 440.888 -4.47186 1.13237 0
M  V30 4345 H 439.131 -4.1877 1.13201 0
M  V30 4346 H 439.802 -5.51699 0.18217 0
M  V30 4347 H 442.278 -4.02855 -1.04151 0
M  V30 4348 H 441.154 -5.18568 -1.79939 0
M  V30 4349 H 441.415 -3.61607 -2.54348 0
M  V30 4350 N 440.474 -0.00167713 -1.576 0
M  V30 4351 C 441.699 0.69739 -1.95323 0
M  V30 4352 C 442.124 1.6642 -0.876706 0
M  V30 4353 O 441.482 1.80548 0.165007 0
M  V30 4354 C 441.53 1.40403 -3.32144 0
M  V30 4355 O 440.634 2.5185 -3.26566 0
M  V30 4356 H 439.975 0.185373 -0.637599 0
M  V30 4357 H 442.505 -0.0553665 -2.04525 0
M  V30 4358 H 442.515 1.76707 -3.67748 0
M  V30 4359 H 441.19 0.695167 -4.10049 0
M  V30 4360 H 439.767 2.17861 -3.0264 0
M  V30 4361 N 441.952 1.55251 0.271103 0
M  V30 4362 C 442.915 1.87484 1.31842 0
M  V30 4363 C 443.915 0.749545 1.42262 0
M  V30 4364 O 445.105 1.01771 1.4138 0
M  V30 4365 C 442.237 2.0818 2.69951 0
M  V30 4366 H 443.43 2.81108 1.0449 0
M  V30 4367 H 440.983 1.47771 0.509258 0
M  V30 4368 H 441.718 1.16944 3.02481 0
M  V30 4369 H 441.503 2.90114 2.63774 0
M  V30 4370 H 442.993 2.34385 3.4562 0
M  V30 4371 N 443.43 -0.535701 1.48216 0
M  V30 4372 C 444.707 -1.29683 1.46429 0
M  V30 4373 C 445.087 -2.10391 0.172852 0
M  V30 4374 O 444.435 -2.12282 -0.845488 0
M  V30 4375 C 444.645 -2.18313 2.72287 0
M  V30 4376 C 445.993 -2.78639 3.20383 0
M  V30 4377 O 447.017 -2.28604 2.73164 0
M  V30 4378 O 445.876 -3.69636 4.02531 0
M  V30 4379 H 442.97 -0.585026 0.584529 0
M  V30 4380 H 445.516 -0.552827 1.60443 0
M  V30 4381 H 444.288 -1.58421 3.57797 0
M  V30 4382 H 443.911 -2.99971 2.60966 0
M  V30 4383 N 444.908 -1.36708 -0.784132 0
M  V30 4384 C 445.856 -1.31533 -1.91838 0
M  V30 4385 C 446.85 -0.206205 -1.6814 0
M  V30 4386 O 448.056 -0.373519 -1.76082 0
M  V30 4387 H 444.431 -0.409613 -0.630651 0
M  V30 4388 H 446.402 -2.2731 -1.9332 0
M  V30 4389 C 445.151 -1.12679 -3.28936 0
M  V30 4390 H 444.474 -1.97274 -3.4774 0
M  V30 4391 H 445.914 -1.13106 -4.08636 0
M  V30 4392 C 444.373 0.168281 -3.36479 0
M  V30 4393 O 444.903 1.15625 -3.84699 0
M  V30 4394 N 443.109 0.214762 -2.89805 0
M  V30 4395 H 442.656 -0.589852 -2.50756 0
M  V30 4396 H 442.614 1.08094 -2.95234 0
M  V30 4397 N 446.386 1.0089 -1.21074 0
M  V30 4398 C 447.614 1.78191 -1.05145 0
M  V30 4399 C 448.029 1.84537 0.398952 0
M  V30 4400 O 447.386 1.30393 1.27687 0
M  V30 4401 C 447.437 3.22288 -1.63746 0
M  V30 4402 O 447.158 3.16315 -3.03111 0
M  V30 4403 C 448.659 4.16106 -1.52875 0
M  V30 4404 H 445.879 0.560129 -0.369454 0
M  V30 4405 H 448.423 1.26945 -1.60328 0
M  V30 4406 H 446.578 3.70655 -1.12664 0
M  V30 4407 H 446.992 4.06817 -3.31059 0
M  V30 4408 H 448.466 5.15026 -1.98626 0
M  V30 4409 H 448.943 4.36541 -0.482521 0
M  V30 4410 H 449.549 3.73625 -2.03185 0
M  V30 4411 N 447.864 1.01787 1.20321 0
M  V30 4412 C 449.11 0.708985 1.90003 0
M  V30 4413 C 449.443 -0.759572 1.78729 0
M  V30 4414 O 448.718 -1.55198 1.17234 0
M  V30 4415 C 449.001 1.1469 3.41348 0
M  V30 4416 C 448.854 2.67586 3.61549 0
M  V30 4417 C 450.173 0.71915 4.34185 0
M  V30 4418 H 447.292 0.259034 0.689978 0
M  V30 4419 H 449.934 1.26584 1.41692 0
M  V30 4420 H 448.084 0.673128 3.82624 0
M  V30 4421 H 449.756 3.22826 3.29517 0
M  V30 4422 H 447.999 3.085 3.04976 0
M  V30 4423 H 448.67 2.93281 4.67643 0
M  V30 4424 H 451.146 1.12647 4.00562 0
M  V30 4425 H 450.022 1.05358 5.38694 0
M  V30 4426 H 450.283 -0.379111 4.40472 0
M  V30 4427 N 449.342 -1.36122 0.79427 0
M  V30 4428 C 450.59 -1.98718 0.368177 0
M  V30 4429 C 450.911 -1.63345 -1.06506 0
M  V30 4430 O 450.181 -0.909825 -1.73491 0
M  V30 4431 H 448.761 -0.735038 0.133146 0
M  V30 4432 H 451.423 -1.66239 1.01739 0
M  V30 4433 H 450.519 -3.08633 0.463923 0
M  V30 4434 N 450.82 -0.546701 -1.47814 0
M  V30 4435 C 452.236 -0.205717 -1.58269 0
M  V30 4436 C 452.436 1.29153 -1.54667 0
M  V30 4437 O 451.492 2.07098 -1.44453 0
M  V30 4438 C 452.805 -0.823065 -2.89216 0
M  V30 4439 C 454.353 -0.793328 -3.02779 0
M  V30 4440 C 454.828 -1.38955 -4.36412 0
M  V30 4441 N 456.319 -1.35227 -4.43021 0
M  V30 4442 C 457.054 -1.78333 -5.44963 0
M  V30 4443 N 456.55 -2.29246 -6.53772 0
M  V30 4444 N 458.343 -1.69467 -5.35945 0
M  V30 4445 H 450.494 -1.5196 -1.48398 0
M  V30 4446 H 452.757 -0.633078 -0.705632 0
M  V30 4447 H 452.463 -1.8749 -2.97558 0
M  V30 4448 H 452.337 -0.309915 -3.75925 0
M  V30 4449 H 454.724 0.249784 -2.94041 0
M  V30 4450 H 454.805 -1.34412 -2.17639 0
M  V30 4451 H 454.449 -2.43168 -4.45906 0
M  V30 4452 H 454.379 -0.814291 -5.20266 0
M  V30 4453 H 456.87 -0.979739 -3.64979 0
M  V30 4454 H 457.183 -2.60089 -7.27718 0
M  V30 4455 H 455.528 -2.3325 -6.5469 0
M  V30 4456 H 458.719 -1.29477 -4.49837 0
M  V30 4457 H 458.892 -2.03381 -6.15256 0
M  V30 4458 N 452.299 1.55045 -0.282633 0
M  V30 4459 C 453.546 1.9976 0.33199 0
M  V30 4460 C 453.874 1.17105 1.55295 0
M  V30 4461 O 453.129 0.230599 1.94337 0
M  V30 4462 C 453.428 3.49422 0.750938 0
M  V30 4463 C 453.094 4.4941 -0.366228 0
M  V30 4464 C 451.756 4.76471 -0.672964 0
M  V30 4465 C 454.108 5.09054 -1.11864 0
M  V30 4466 C 451.436 5.60442 -1.73556 0
M  V30 4467 C 453.788 5.9418 -2.17102 0
M  V30 4468 C 452.452 6.19558 -2.48402 0
M  V30 4469 H 451.722 0.730974 0.121484 0
M  V30 4470 H 454.369 1.8732 -0.39791 0
M  V30 4471 H 452.674 3.59377 1.56063 0
M  V30 4472 H 454.371 3.81432 1.23736 0
M  V30 4473 H 450.961 4.2844 -0.117041 0
M  V30 4474 H 455.145 4.88165 -0.894925 0
M  V30 4475 H 450.401 5.78349 -1.983 0
M  V30 4476 H 454.575 6.39427 -2.75873 0
M  V30 4477 H 452.202 6.84417 -3.30874 0
M  V30 4478 N 453.777 0.010035 1.57597 0
M  V30 4479 C 454.707 -0.976857 2.12084 0
M  V30 4480 C 455.688 -1.35191 1.03235 0
M  V30 4481 O 456.873 -1.43389 1.3097 0
M  V30 4482 C 454.003 -2.26548 2.63236 0
M  V30 4483 C 452.957 -2.03175 3.76701 0
M  V30 4484 C 452.283 -3.38138 4.14206 0
M  V30 4485 C 453.583 -1.38625 5.03568 0
M  V30 4486 H 455.277 -0.523145 2.94794 0
M  V30 4487 H 452.823 -0.250195 1.4181 0
M  V30 4488 H 454.776 -2.95952 2.99984 0
M  V30 4489 H 453.5 -2.74051 1.77661 0
M  V30 4490 H 452.159 -1.36195 3.40362 0
M  V30 4491 H 451.807 -3.83363 3.25641 0
M  V30 4492 H 451.507 -3.23312 4.90656 0
M  V30 4493 H 453.031 -4.08841 4.53521 0
M  V30 4494 H 454.445 -1.98 5.38023 0
M  V30 4495 H 452.842 -1.34256 5.84889 0
M  V30 4496 H 453.912 -0.356722 4.83586 0
M  V30 4497 N 455.255 -1.55392 -0.262866 0
M  V30 4498 C 456.188 -1.8391 -1.35101 0
M  V30 4499 C 457.166 -0.692901 -1.47097 0
M  V30 4500 O 458.35 -0.936979 -1.63563 0
M  V30 4501 C 455.477 -2.00969 -2.72634 0
M  V30 4502 C 454.523 -3.23559 -2.7787 0
M  V30 4503 S 455.356 -4.80647 -2.3609 0
M  V30 4504 C 456.512 -5.00692 -3.75578 0
M  V30 4505 H 456.745 -2.75918 -1.1071 0
M  V30 4506 H 454.278 -1.47294 -0.463029 0
M  V30 4507 H 456.236 -2.11482 -3.51832 0
M  V30 4508 H 454.897 -1.09832 -2.94272 0
M  V30 4509 H 454.09 -3.32413 -3.78837 0
M  V30 4510 H 453.692 -3.11689 -2.06702 0
M  V30 4511 H 455.984 -4.87055 -4.70939 0
M  V30 4512 H 456.927 -6.02717 -3.71669 0
M  V30 4513 H 457.335 -4.28619 -3.6735 0
M  V30 4514 N 456.733 0.527833 -1.48498 0
M  V30 4515 C 457.958 1.313 -1.60546 0
M  V30 4516 C 458.383 1.86199 -0.26672 0
M  V30 4517 O 457.741 1.64513 0.761918 0
M  V30 4518 C 457.789 2.43818 -2.65678 0
M  V30 4519 O 456.893 3.46916 -2.22987 0
M  V30 4520 H 456.234 0.388784 -0.538277 0
M  V30 4521 H 458.764 0.634896 -1.945 0
M  V30 4522 H 458.774 2.89973 -2.87018 0
M  V30 4523 H 457.449 2.03222 -3.62869 0
M  V30 4524 H 456.026 3.06864 -2.11869 0
M  V30 4525 N 458.211 1.37122 0.776871 0
M  V30 4526 C 459.141 1.35164 1.90402 0
M  V30 4527 C 460.122 0.221069 1.68657 0
M  V30 4528 O 461.307 0.420642 1.8959 0
M  V30 4529 C 458.437 1.15274 3.27611 0
M  V30 4530 C 457.391 2.25289 3.63908 0
M  V30 4531 C 456.717 1.90527 4.99603 0
M  V30 4532 C 458.017 3.67446 3.71188 0
M  V30 4533 H 459.711 2.29482 1.92297 0
M  V30 4534 H 457.257 1.10465 0.923773 0
M  V30 4535 H 459.21 1.12536 4.06096 0
M  V30 4536 H 457.934 0.174102 3.26136 0
M  V30 4537 H 456.593 2.27174 2.87728 0
M  V30 4538 H 456.241 0.91206 4.94662 0
M  V30 4539 H 455.941 2.64193 5.24858 0
M  V30 4540 H 457.465 1.89367 5.80493 0
M  V30 4541 H 458.879 3.67719 4.39836 0
M  V30 4542 H 457.276 4.40123 4.07936 0
M  V30 4543 H 458.346 4.01443 2.71977 0
M  V30 4544 N 459.689 -1.00246 1.21608 0
M  V30 4545 C 460.935 -1.74319 1.03638 0
M  V30 4546 C 461.268 -1.89408 -0.428749 0
M  V30 4547 O 460.543 -1.43026 -1.3181 0
M  V30 4548 C 460.826 -3.15431 1.73711 0
M  V30 4549 C 460.679 -3.08049 3.27759 0
M  V30 4550 C 461.998 -4.14407 1.48173 0
M  V30 4551 H 459.117 -0.632741 0.377899 0
M  V30 4552 H 461.759 -1.16853 1.49818 0
M  V30 4553 H 459.909 -3.64493 1.34452 0
M  V30 4554 H 461.581 -2.66681 3.76403 0
M  V30 4555 H 459.824 -2.45088 3.57931 0
M  V30 4556 H 460.495 -4.07862 3.71958 0
M  V30 4557 H 462.971 -3.74061 1.82258 0
M  V30 4558 H 461.847 -5.11279 1.99713 0
M  V30 4559 H 462.108 -4.40174 0.412273 0
M  V30 4560 N 461.167 -1.02423 -1.1978 0
M  V30 4561 C 462.115 -0.594474 -2.24875 0
M  V30 4562 C 463.109 0.370598 -1.65296 0
M  V30 4563 O 464.315 0.239684 -1.78397 0
M  V30 4564 H 460.69 -0.173961 -0.731602 0
M  V30 4565 H 462.661 -1.4916 -2.58445 0
M  V30 4566 C 461.41 0.0436512 -3.47673 0
M  V30 4567 H 460.733 -0.689963 -3.93801 0
M  V30 4568 H 462.173 0.307362 -4.22884 0
M  V30 4569 C 460.632 1.28881 -3.11274 0
M  V30 4570 O 461.162 2.38135 -3.23503 0
M  V30 4571 N 459.368 1.1758 -2.6575 0
M  V30 4572 H 458.915 0.286769 -2.55999 0
M  V30 4573 H 458.873 2.00988 -2.41767 0
M  V30 4574 N 462.645 1.35699 -0.801477 0
M  V30 4575 C 463.577 2.28598 -0.166028 0
M  V30 4576 C 464.59 1.50044 0.631721 0
M  V30 4577 O 465.779 1.72339 0.464921 0
M  V30 4578 C 462.879 3.29625 0.787451 0
M  V30 4579 C 462.052 4.37384 0.037171 0
M  V30 4580 C 461.111 5.183 0.908375 0
M  V30 4581 O 460.137 5.68053 0.361189 0
M  V30 4582 N 461.339 5.35912 2.23112 0
M  V30 4583 H 464.104 2.83771 -0.964071 0
M  V30 4584 H 461.665 1.47994 -0.656469 0
M  V30 4585 H 463.657 3.80648 1.37439 0
M  V30 4586 H 462.227 2.75004 1.48632 0
M  V30 4587 H 461.447 3.87364 -0.730935 0
M  V30 4588 H 462.735 5.0653 -0.480109 0
M  V30 4589 H 462.133 4.97125 2.69968 0
M  V30 4590 H 460.69 5.90133 2.76741 0
M  V30 4591 N 464.123 0.554532 1.47522 0
M  V30 4592 C 465.369 0.0295227 2.02779 0
M  V30 4593 C 465.702 -1.31582 1.42828 0
M  V30 4594 O 464.977 -1.85561 0.582872 0
M  V30 4595 C 465.26 -0.0664057 3.60039 0
M  V30 4596 C 465.113 1.30585 4.30427 0
M  V30 4597 C 466.432 -0.781162 4.33112 0
M  V30 4598 H 463.551 0.0122027 0.736899 0
M  V30 4599 H 466.193 0.716305 1.7598 0
M  V30 4600 H 464.343 -0.651307 3.83002 0
M  V30 4601 H 466.015 1.93374 4.18813 0
M  V30 4602 H 464.258 1.88125 3.90886 0
M  V30 4603 H 464.929 1.19147 5.38988 0
M  V30 4604 H 467.405 -0.284565 4.15126 0
M  V30 4605 H 466.281 -0.817237 5.42782 0
M  V30 4606 H 466.542 -1.83672 4.0214 0
M  V30 4607 N 465.601 -1.54893 0.290851 0
M  V30 4608 C 467.012 -1.85584 -0.203816 0
M  V30 4609 C 467.363 -1.21285 -1.54222 0
M  V30 4610 O 466.488 -0.506841 -2.10381 0
M  V30 4611 C 467.083 -3.367 -0.376595 0
M  V30 4612 C 465.642 -3.6746 -0.815485 0
M  V30 4613 C 464.789 -2.77178 0.0821087 0
M  V30 4614 H 467.74 -1.50208 0.512175 0
M  V30 4615 H 467.761 -3.60656 -1.21275 0
M  V30 4616 H 467.273 -3.8347 0.59767 0
M  V30 4617 H 465.374 -3.26201 -1.80066 0
M  V30 4618 H 465.487 -4.7478 -0.641905 0
M  V30 4619 H 463.851 -2.50925 -0.436895 0
M  V30 4620 H 464.634 -3.26767 1.05254 0
M  V30 4621 N 467.08 -0.0183926 -1.57589 0
M  V30 4622 C 468.027 0.967022 -2.09565 0
M  V30 4623 C 468.997 1.32983 -0.995225 0
M  V30 4624 O 470.182 1.42501 -1.26878 0
M  V30 4625 C 467.322 2.24772 -2.61861 0
M  V30 4626 C 466.435 1.94232 -3.85873 0
M  V30 4627 C 465.57 3.16518 -4.26603 0
M  V30 4628 C 464.609 2.81748 -5.43401 0
M  V30 4629 N 463.746 3.96626 -5.79338 0
M  V30 4630 H 468.586 0.516874 -2.93483 0
M  V30 4631 H 466.123 0.243544 -1.4507 0
M  V30 4632 H 468.081 2.99667 -2.90268 0
M  V30 4633 H 466.711 2.67423 -1.8079 0
M  V30 4634 H 465.763 1.09625 -3.64262 0
M  V30 4635 H 467.075 1.64616 -4.70853 0
M  V30 4636 H 466.229 3.99743 -4.56389 0
M  V30 4637 H 464.968 3.49286 -3.40368 0
M  V30 4638 H 463.973 1.96933 -5.1332 0
M  V30 4639 H 465.198 2.50207 -6.31327 0
M  V30 4640 H 463.144 4.29257 -4.96059 0
M  V30 4641 H 463.061 3.70598 -6.58933 0
M  V30 4642 H 464.329 4.80586 -6.13724 0
M  V30 4643 N 468.558 1.5553 0.254621 0
M  V30 4644 C 469.807 1.76202 0.981612 0
M  V30 4645 C 470.12 0.580883 1.86776 0
M  V30 4646 O 471.326 0.670448 2.63092 0
M  V30 4647 C 469.782 3.11921 1.79537 0
M  V30 4648 C 469.39 4.37659 0.956991 0
M  V30 4649 C 471.134 3.41936 2.51555 0
M  V30 4650 C 469.041 5.64411 1.76619 0
M  V30 4651 H 467.971 0.656841 0.370237 0
M  V30 4652 H 470.622 1.81969 0.236556 0
M  V30 4653 H 469.004 3.00241 2.58208 0
M  V30 4654 H 470.178 4.60307 0.21315 0
M  V30 4655 H 468.493 4.14922 0.350497 0
M  V30 4656 H 471.09 4.33849 3.12536 0
M  V30 4657 H 471.433 2.62905 3.22779 0
M  V30 4658 H 471.966 3.54797 1.799 0
M  V30 4659 H 468.705 6.46241 1.09783 0
M  V30 4660 H 468.225 5.45877 2.48551 0
M  V30 4661 H 469.904 6.03386 2.33527 0
M  V30 4662 N 470.036 -0.519951 1.48776 0
M  V30 4663 C 471.282 -1.27711 1.57536 0
M  V30 4664 C 471.615 -1.92547 0.252866 0
M  V30 4665 O 470.89 -1.7979 -0.742021 0
M  V30 4666 C 471.173 -2.35875 2.72094 0
M  V30 4667 C 471.026 -1.75664 4.1408 0
M  V30 4668 C 472.345 -3.37575 2.82367 0
M  V30 4669 H 469.464 -0.462971 0.573434 0
M  V30 4670 H 472.106 -0.578194 1.80989 0
M  V30 4671 H 470.256 -2.95488 2.52228 0
M  V30 4672 H 471.928 -1.20025 4.45412 0
M  V30 4673 H 470.171 -1.06154 4.20611 0
M  V30 4674 H 470.842 -2.54029 4.90075 0
M  V30 4675 H 473.318 -2.87929 3.00393 0
M  V30 4676 H 472.194 -4.1064 3.64233 0
M  V30 4677 H 472.455 -3.98743 1.90936 0
M  V30 4678 N 471.514 -1.37532 -0.769588 0
M  V30 4679 C 472.925 -1.29382 -1.346 0
M  V30 4680 C 473.276 0.0576039 -1.96115 0
M  V30 4681 O 472.401 0.95947 -1.93967 0
M  V30 4682 C 472.996 -2.34298 -2.44724 0
M  V30 4683 C 471.555 -2.29776 -2.98128 0
M  V30 4684 C 470.702 -2.18013 -1.71364 0
M  V30 4685 H 473.653 -1.48123 -0.56968 0
M  V30 4686 H 473.674 -1.99089 -3.24259 0
M  V30 4687 H 473.186 -3.32645 -1.99922 0
M  V30 4688 H 471.287 -1.34959 -3.47299 0
M  V30 4689 H 471.4 -3.23276 -3.53595 0
M  V30 4690 H 469.764 -1.64595 -1.94372 0
M  V30 4691 H 470.547 -3.18278 -1.28662 0
M  V30 4692 N 472.992 0.995999 -1.22138 0
M  V30 4693 C 474.269 1.70834 -0.952642 0
M  V30 4694 C 474.649 2.04257 0.533119 0
M  V30 4695 O 473.997 1.72343 1.50034 0
M  V30 4696 C 474.207 2.96119 -1.84701 0
M  V30 4697 C 475.555 3.68962 -2.10124 0
M  V30 4698 O 476.579 3.0612 -1.82124 0
M  V30 4699 O 475.438 4.82017 -2.57531 0
M  V30 4700 H 472.532 0.745498 -0.357997 0
M  V30 4701 H 475.078 1.05262 -1.33109 0
M  V30 4702 H 473.85 2.67898 -2.85213 0
M  V30 4703 H 473.473 3.6943 -1.46995 0
M  V30 4704 N 474.47 1.03057 1.19235 0
M  V30 4705 C 475.747 0.642608 1.84743 0
M  V30 4706 C 476.127 -0.878577 1.91948 0
M  V30 4707 O 475.475 -1.77597 1.43776 0
M  V30 4708 C 475.685 1.30665 3.23616 0
M  V30 4709 C 477.033 1.43098 3.9976 0
M  V30 4710 O 478.057 1.26396 3.3302 0
M  V30 4711 O 476.916 1.70223 5.19313 0
M  V30 4712 H 474.01 0.223573 0.796206 0
M  V30 4713 H 476.556 1.12883 1.26711 0
M  V30 4714 H 475.328 2.34544 3.13217 0
M  V30 4715 H 474.951 0.808405 3.89295 0
M  V30 4716 N 475.948 -1.35272 0.808662 0
M  V30 4717 C 477.195 -1.98709 0.390003 0
M  V30 4718 C 477.523 -1.64148 -1.04335 0
M  V30 4719 O 476.778 -0.897797 -1.73891 0
M  V30 4720 C 477.077 -3.53556 0.522798 0
M  V30 4721 C 476.743 -4.0799 1.91977 0
M  V30 4722 C 475.405 -4.22568 2.30195 0
M  V30 4723 C 477.757 -4.37442 2.83361 0
M  V30 4724 C 475.085 -4.63918 3.59162 0
M  V30 4725 C 477.437 -4.80232 4.11776 0
M  V30 4726 C 476.101 -4.93016 4.49991 0
M  V30 4727 H 475.371 -0.727127 0.142712 0
M  V30 4728 H 478.018 -1.6145 1.02985 0
M  V30 4729 H 476.323 -3.91287 -0.200494 0
M  V30 4730 H 478.02 -4.00598 0.179608 0
M  V30 4731 H 474.61 -3.97096 1.61284 0
M  V30 4732 H 478.794 -4.25731 2.55083 0
M  V30 4733 H 474.05 -4.72005 3.88615 0
M  V30 4734 H 478.224 -5.01982 4.82687 0
M  V30 4735 H 475.851 -5.24814 5.49976 0
M  V30 4736 N 477.426 -0.562348 -1.47226 0
M  V30 4737 C 478.336 0.185466 -2.33866 0
M  V30 4738 C 479.352 0.906713 -1.48508 0
M  V30 4739 O 480.528 0.874458 -1.81425 0
M  V30 4740 C 477.593 1.19904 -3.25306 0
M  V30 4741 C 476.654 0.484669 -4.26555 0
M  V30 4742 C 475.887 1.44996 -5.13626 0
M  V30 4743 O 476.11 2.68515 -5.03245 0
M  V30 4744 O 475.044 0.971642 -5.94006 0
M  V30 4745 H 478.87 -0.525361 -2.99121 0
M  V30 4746 H 476.455 -0.322916 -1.45868 0
M  V30 4747 H 478.337 1.78399 -3.81774 0
M  V30 4748 H 477.012 1.8917 -2.62672 0
M  V30 4749 H 475.919 -0.141605 -3.73832 0
M  V30 4750 H 477.252 -0.166634 -4.91918 0
M  V30 4751 N 478.904 1.54736 -0.299062 0
M  V30 4752 C 480.132 2.04512 0.313447 0
M  V30 4753 C 480.547 1.17643 1.47667 0
M  V30 4754 O 479.904 0.20164 1.81383 0
M  V30 4755 C 479.955 3.53171 0.771542 0
M  V30 4756 O 479.676 4.36736 -0.345379 0
M  V30 4757 C 481.177 4.18936 1.4494 0
M  V30 4758 H 478.397 0.667507 0.0683784 0
M  V30 4759 H 480.941 1.99752 -0.438129 0
M  V30 4760 H 479.096 3.58298 1.47314 0
M  V30 4761 H 479.51 5.24499 0.0109219 0
M  V30 4762 H 480.984 5.24482 1.72111 0
M  V30 4763 H 481.461 3.68554 2.38883 0
M  V30 4764 H 482.067 4.17879 0.791028 0
M  V30 4765 N 480.382 0.0267497 1.57577 0
M  V30 4766 C 481.315 -0.99059 2.05579 0
M  V30 4767 C 482.293 -1.31884 0.951065 0
M  V30 4768 O 483.477 -1.43592 1.22121 0
M  V30 4769 C 480.604 -2.31125 2.47586 0
M  V30 4770 C 479.65 -2.13777 3.69055 0
M  V30 4771 S 480.483 -1.4388 5.15809 0
M  V30 4772 C 481.639 -2.77321 5.6111 0
M  V30 4773 H 481.872 -0.581976 2.91548 0
M  V30 4774 H 479.405 -0.184876 1.53289 0
M  V30 4775 H 481.363 -3.07049 2.72454 0
M  V30 4776 H 480.024 -2.6912 1.61967 0
M  V30 4777 H 479.217 -3.11405 3.96287 0
M  V30 4778 H 478.819 -1.45996 3.44327 0
M  V30 4779 H 481.111 -3.73565 5.65204 0
M  V30 4780 H 482.054 -2.54756 6.60685 0
M  V30 4781 H 482.462 -2.82459 4.88751 0
M  V30 4782 N 481.861 -1.55662 -0.24637 0
M  V30 4783 C 482.791 -1.93377 -1.30873 0
M  V30 4784 C 483.772 -0.798773 -1.50179 0
M  V30 4785 O 484.957 -1.0591 -1.62778 0
M  V30 4786 C 482.087 -2.22893 -2.66338 0
M  V30 4787 C 481.041 -3.38649 -2.61727 0
M  V30 4788 C 480.367 -3.53708 -4.00992 0
M  V30 4789 C 481.667 -4.74323 -2.18666 0
M  V30 4790 H 483.361 -2.82363 -0.995552 0
M  V30 4791 H 480.907 -1.35854 -0.477464 0
M  V30 4792 H 482.86 -2.47866 -3.40794 0
M  V30 4793 H 481.584 -1.30733 -2.99293 0
M  V30 4794 H 480.243 -3.13685 -1.89729 0
M  V30 4795 H 479.891 -2.58967 -4.31214 0
M  V30 4796 H 479.591 -4.31551 -3.98795 0
M  V30 4797 H 481.115 -3.81003 -4.77147 0
M  V30 4798 H 482.529 -4.98665 -2.82854 0
M  V30 4799 H 480.926 -5.55273 -2.27579 0
M  V30 4800 H 481.996 -4.71349 -1.13834 0
M  V30 4801 N 483.339 0.512053 -1.4905 0
M  V30 4802 C 484.287 1.63568 -1.65373 0
M  V30 4803 C 485.281 1.61228 -0.519806 0
M  V30 4804 O 486.487 1.65869 -0.699101 0
M  V30 4805 H 482.862 0.542019 -0.521267 0
M  V30 4806 H 484.833 1.4695 -2.59708 0
M  V30 4807 C 483.582 3.01761 -1.7273 0
M  V30 4808 H 482.905 3.04263 -2.59353 0
M  V30 4809 H 484.345 3.79948 -1.8819 0
M  V30 4810 C 482.804 3.33609 -0.46973 0
M  V30 4811 O 483.334 3.99607 0.409492 0
M  V30 4812 N 481.54 2.88651 -0.336003 0
M  V30 4813 H 481.087 2.35119 -1.05247 0
M  V30 4814 H 481.045 3.10328 0.504363 0
M  V30 4815 N 484.817 1.37938 0.762283 0
M  V30 4816 C 486.042 1.37059 1.55659 0
M  V30 4817 C 486.467 -0.0396123 1.88058 0
M  V30 4818 O 485.825 -1.01929 1.49934 0
M  V30 4819 C 485.873 2.22494 2.83776 0
M  V30 4820 O 484.977 1.63607 3.78559 0
M  V30 4821 H 484.318 0.467892 0.47114 0
M  V30 4822 H 486.848 1.81587 0.942725 0
M  V30 4823 H 486.858 2.36045 3.32786 0
M  V30 4824 H 485.533 3.24993 2.59524 0
M  V30 4825 H 484.11 1.5915 3.37233 0
M  V30 4826 N 486.295 -0.989507 1.22664 0
M  V30 4827 C 487.243 -2.10148 0.997035 0
M  V30 4828 C 488.237 -1.6929 -0.0609783 0
M  V30 4829 O 489.443 -1.79766 0.0917523 0
M  V30 4830 H 485.818 -0.687256 0.305259 0
M  V30 4831 H 487.789 -2.26685 1.94053 0
M  V30 4832 C 486.538 -3.4257 0.595085 0
M  V30 4833 H 485.861 -3.74453 1.40089 0
M  V30 4834 H 487.301 -4.21344 0.473869 0
M  V30 4835 C 485.76 -3.29638 -0.695725 0
M  V30 4836 O 486.29 -3.61709 -1.74727 0
M  V30 4837 N 484.496 -2.82814 -0.668173 0
M  V30 4838 H 484.043 -2.56914 0.18787 0
M  V30 4839 H 484.001 -2.74544 -1.5321 0
M  V30 4840 N 487.773 -1.03688 -1.18687 0
M  V30 4841 C 489.022 -0.733235 -1.879 0
M  V30 4842 C 489.335 0.741745 -1.8099 0
M  V30 4843 O 490.541 1.15875 -2.4553 0
M  V30 4844 C 488.997 -1.26127 -3.37076 0
M  V30 4845 C 488.605 -2.76461 -3.52524 0
M  V30 4846 C 490.349 -1.03398 -4.11715 0
M  V30 4847 C 488.256 -3.22642 -4.95637 0
M  V30 4848 H 487.186 -0.270584 -0.703776 0
M  V30 4849 H 489.837 -1.25222 -1.34133 0
M  V30 4850 H 488.219 -0.670165 -3.90288 0
M  V30 4851 H 489.393 -3.41296 -3.09602 0
M  V30 4852 H 487.708 -2.97559 -2.91286 0
M  V30 4853 H 490.305 -1.3542 -5.17267 0
M  V30 4854 H 490.648 0.0289246 -4.1629 0
M  V30 4855 H 491.181 -1.5895 -3.64664 0
M  V30 4856 H 487.92 -4.28296 -4.96228 0
M  V30 4857 H 487.44 -2.62539 -5.39289 0
M  V30 4858 H 489.119 -3.16444 -5.64333 0
M  V30 4859 N 489.251 1.34841 -0.815825 0
M  V30 4860 C 490.199 2.31549 -0.220888 0
M  V30 4861 C 491.193 1.5707 0.634457 0
M  V30 4862 O 492.399 1.72125 0.526589 0
M  V30 4863 H 488.774 0.750153 -0.0526782 0
M  V30 4864 H 490.745 2.7926 -1.05149 0
M  V30 4865 C 489.494 3.42335 0.608427 0
M  V30 4866 H 488.817 3.9978 -0.0404121 0
M  V30 4867 H 490.257 4.12258 0.990931 0
M  V30 4868 C 488.716 2.86173 1.77782 0
M  V30 4869 O 489.246 2.80474 2.87571 0
M  V30 4870 N 487.452 2.43093 1.59229 0
M  V30 4871 H 486.999 2.47928 0.699237 0
M  V30 4872 H 486.957 2.05866 2.37627 0
M  V30 4873 N 490.729 0.570148 1.46925 0
M  V30 4874 C 492.006 -0.0153259 1.95594 0
M  V30 4875 C 492.386 -1.47232 1.51281 0
M  V30 4876 O 491.734 -2.15574 0.757624 0
M  V30 4877 C 491.944 0.143624 3.48704 0
M  V30 4878 C 493.292 0.00494484 4.246 0
M  V30 4879 O 494.316 0.0718214 3.56128 0
M  V30 4880 O 493.175 -0.141175 5.46318 0
M  V30 4881 H 490.269 -0.0568819 0.825041 0
M  V30 4882 H 492.815 0.637583 1.57267 0
M  V30 4883 H 491.587 1.15699 3.73804 0
M  V30 4884 H 491.21 -0.5463 3.93829 0
M  V30 4885 N 492.207 -1.54576 0.307264 0
M  V30 4886 C 493.137 -2.26708 -0.55907 0
M  V30 4887 C 494.118 -1.26893 -1.1328 0
M  V30 4888 O 495.303 -1.55677 -1.16097 0
M  V30 4889 C 492.433 -3.01259 -1.72801 0
M  V30 4890 C 491.387 -4.08275 -1.28435 0
M  V30 4891 C 490.713 -4.70575 -2.53895 0
M  V30 4892 C 492.013 -5.2068 -0.411038 0
M  V30 4893 H 493.707 -2.9937 0.042576 0
M  V30 4894 H 491.253 -1.43983 0.0219173 0
M  V30 4895 H 493.206 -3.50444 -2.34023 0
M  V30 4896 H 491.93 -2.26187 -2.356 0
M  V30 4897 H 490.589 -3.59949 -0.695161 0
M  V30 4898 H 490.237 -3.92136 -3.15021 0
M  V30 4899 H 489.937 -5.42854 -2.24908 0
M  V30 4900 H 491.461 -5.22527 -3.15908 0
M  V30 4901 H 492.875 -5.65721 -0.929097 0
M  V30 4902 H 491.272 -5.99716 -0.214664 0
M  V30 4903 H 492.342 -4.81629 0.562287 0
M  V30 4904 N 493.685 -0.035106 -1.57561 0
M  V30 4905 C 494.615 0.942993 -2.13612 0
M  V30 4906 C 495.596 1.33531 -1.05373 0
M  V30 4907 O 496.781 1.41287 -1.33235 0
M  V30 4908 C 493.911 2.22332 -2.66807 0
M  V30 4909 C 492.865 1.97156 -3.79886 0
M  V30 4910 C 492.191 3.31506 -4.19533 0
M  V30 4911 C 493.491 1.30596 -5.05709 0
M  V30 4912 H 495.185 0.476179 -2.95589 0
M  V30 4913 H 492.731 0.227602 -1.4219 0
M  V30 4914 H 494.684 2.91142 -3.04654 0
M  V30 4915 H 493.408 2.7119 -1.81999 0
M  V30 4916 H 492.067 1.30763 -3.42486 0
M  V30 4917 H 491.715 3.78134 -3.31698 0
M  V30 4918 H 491.415 3.15465 -4.95738 0
M  V30 4919 H 492.939 4.01574 -4.59968 0
M  V30 4920 H 494.353 1.89416 -5.41105 0
M  V30 4921 H 492.75 1.24934 -5.86951 0
M  V30 4922 H 493.82 0.279742 -4.84092 0
M  V30 4923 N 495.163 1.55791 0.238111 0
M  V30 4924 C 496.096 1.86036 1.32158 0
M  V30 4925 C 497.074 0.716216 1.45976 0
M  V30 4926 O 498.258 0.962882 1.62052 0
M  V30 4927 C 495.385 2.05281 2.69402 0
M  V30 4928 C 494.431 3.27939 2.72687 0
M  V30 4929 S 495.264 4.84342 2.28413 0
M  V30 4930 C 496.42 5.06604 3.67565 0
M  V30 4931 H 496.653 2.77644 1.06306 0
M  V30 4932 H 494.186 1.48012 0.439537 0
M  V30 4933 H 496.144 2.17053 3.48423 0
M  V30 4934 H 494.805 1.14499 2.92487 0
M  V30 4935 H 493.998 3.38398 3.73501 0
M  V30 4936 H 493.6 3.14938 2.01717 0
M  V30 4937 H 495.892 4.94486 4.6313 0
M  V30 4938 H 496.835 6.08554 3.62033 0
M  V30 4939 H 497.243 4.34409 3.60485 0
M  V30 4940 N 496.642 -0.504142 1.49319 0
M  V30 4941 C 497.888 -1.26033 1.58882 0
M  V30 4942 C 498.221 -1.92268 0.273274 0
M  V30 4943 O 497.496 -1.80567 -0.72291 0
M  V30 4944 C 497.779 -2.32976 2.7458 0
M  V30 4945 C 497.632 -1.71263 4.1592 0
M  V30 4946 C 498.951 -3.34561 2.85932 0
M  V30 4947 H 496.07 -0.456863 0.578312 0
M  V30 4948 H 498.712 -0.558965 1.81592 0
M  V30 4949 H 496.862 -2.92796 2.55348 0
M  V30 4950 H 498.534 -1.15294 4.4666 0
M  V30 4951 H 496.777 -1.01686 4.21714 0
M  V30 4952 H 497.448 -2.48816 4.92742 0
M  V30 4953 H 499.924 -2.84727 3.0343 0
M  V30 4954 H 498.8 -4.06754 3.68568 0
M  V30 4955 H 499.061 -3.96695 1.95154 0
M  V30 4956 N 498.12 -1.38341 -0.754957 0
M  V30 4957 C 499.348 -1.37704 -1.54419 0
M  V30 4958 C 499.763 0.0335243 -1.8877 0
M  V30 4959 O 499.12 0.999773 -1.52679 0
M  V30 4960 C 499.171 -2.23136 -2.84416 0
M  V30 4961 O 498.892 -3.58697 -2.51531 0
M  V30 4962 C 500.393 -2.30664 -3.78562 0
M  V30 4963 H 497.613 -0.471061 -0.477852 0
M  V30 4964 H 500.157 -1.81902 -0.934446 0
M  V30 4965 H 498.312 -1.82403 -3.41772 0
M  V30 4966 H 498.726 -4.03665 -3.34896 0
M  V30 4967 H 500.2 -2.9473 -4.66732 0
M  V30 4968 H 500.677 -1.3199 -4.18898 0
M  V30 4969 H 501.283 -2.71781 -3.27131 0
M  V30 4970 N 499.598 0.982988 -1.23187 0
M  V30 4971 C 500.828 1.75666 -1.08743 0
M  V30 4972 C 501.236 1.85662 0.364195 0
M  V30 4973 O 500.579 1.33317 1.26382 0
M  V30 4974 C 500.641 3.20144 -1.63549 0
M  V30 4975 C 500.305 3.33665 -3.12277 0
M  V30 4976 C 501.302 3.20194 -4.096 0
M  V30 4977 C 498.987 3.58397 -3.51933 0
M  V30 4978 C 500.981 3.31256 -5.44563 0
M  V30 4979 C 498.668 3.69098 -4.87042 0
M  V30 4980 C 499.666 3.55537 -5.83166 0
M  V30 4981 O 499.354 3.65864 -7.1582 0
M  V30 4982 H 499.086 0.558194 -0.381307 0
M  V30 4983 H 501.64 1.24387 -1.63454 0
M  V30 4984 H 499.87 3.72659 -1.03256 0
M  V30 4985 H 501.559 3.79262 -1.4462 0
M  V30 4986 H 502.325 3.00987 -3.80305 0
M  V30 4987 H 498.204 3.68025 -2.77631 0
M  V30 4988 H 501.748 3.20588 -6.19572 0
M  V30 4989 H 497.645 3.87814 -5.16014 0
M  V30 4990 H 498.413 3.82675 -7.23534 0
M  V30 4991 N 501.076 1.04316 1.18135 0
M  V30 4992 C 502.006 0.657299 2.24058 0
M  V30 4993 C 502.987 -0.340678 1.66654 0
M  V30 4994 O 504.172 -0.220223 1.92947 0
M  V30 4995 C 501.302 0.0220715 3.47293 0
M  V30 4996 C 500.256 0.943857 4.17463 0
M  V30 4997 C 499.582 0.172973 5.3442 0
M  V30 4998 C 500.882 2.26409 4.70677 0
M  V30 4999 H 502.576 1.5428 2.56589 0
M  V30 5000 H 500.122 0.743263 1.23335 0
M  V30 5001 H 502.075 -0.259607 4.206 0
M  V30 5002 H 500.799 -0.898323 3.14003 0
M  V30 5003 H 499.458 1.20996 3.46057 0
M  V30 5004 H 499.106 -0.749907 4.97379 0
M  V30 5005 H 498.806 0.787098 5.82304 0
M  V30 5006 H 500.33 -0.101628 6.10515 0
M  V30 5007 H 501.744 2.04294 5.35665 0
M  V30 5008 H 500.141 2.8314 5.29105 0
M  V30 5009 H 501.211 2.90883 3.87962 0
M  V30 5010 N 502.554 -1.34406 0.822964 0
M  V30 5011 C 503.517 -2.2783 0.250271 0
M  V30 5012 C 504.517 -1.50288 -0.571854 0
M  V30 5013 O 505.707 -1.69825 -0.387952 0
M  V30 5014 C 502.839 -3.34663 -0.649137 0
M  V30 5015 H 504.032 -2.79992 1.07444 0
M  V30 5016 H 501.585 -1.44539 0.594829 0
M  V30 5017 H 502.32 -2.87714 -1.49637 0
M  V30 5018 H 502.105 -3.92052 -0.0611199 0
M  V30 5019 H 503.595 -4.04349 -1.04363 0
M  V30 5020 N 504.032 -0.577932 -1.46621 0
M  V30 5021 C 504.98 0.170882 -2.31971 0
M  V30 5022 C 505.974 0.889086 -1.44193 0
M  V30 5023 O 507.18 0.808017 -1.60845 0
M  V30 5024 H 503.555 0.0739763 -0.748353 0
M  V30 5025 H 505.526 -0.567856 -2.92947 0
M  V30 5026 C 504.275 1.17438 -3.27267 0
M  V30 5027 H 503.598 0.63116 -3.94787 0
M  V30 5028 H 505.038 1.66882 -3.89778 0
M  V30 5029 C 503.497 2.23292 -2.52274 0
M  V30 5030 O 504.027 3.30567 -2.28229 0
M  V30 5031 N 502.233 1.97772 -2.12919 0
M  V30 5032 H 501.78 1.10545 -2.32675 0
M  V30 5033 H 501.738 2.68809 -1.63062 0
M  V30 5034 N 505.51 1.54411 -0.315457 0
M  V30 5035 C 506.44 2.27002 0.547039 0
M  V30 5036 C 507.421 1.27492 1.12605 0
M  V30 5037 O 508.606 1.5629 1.15269 0
M  V30 5038 C 505.736 3.02171 1.71201 0
M  V30 5039 C 504.69 4.0895 1.26268 0
M  V30 5040 C 504.016 4.71915 2.51396 0
M  V30 5041 C 505.316 5.20891 0.383419 0
M  V30 5042 H 507.01 2.99343 -0.0584517 0
M  V30 5043 H 504.556 1.4397 -0.0295527 0
M  V30 5044 H 506.509 3.51681 2.32161 0
M  V30 5045 H 505.233 2.27433 2.34397 0
M  V30 5046 H 503.892 3.60312 0.676062 0
M  V30 5047 H 503.54 3.93801 3.12937 0
M  V30 5048 H 503.24 5.44039 2.22026 0
M  V30 5049 H 504.764 5.24195 3.13133 0
M  V30 5050 H 506.178 5.66206 0.899082 0
M  V30 5051 H 504.575 5.99821 0.182857 0
M  V30 5052 H 505.645 4.81324 -0.587821 0
M  V30 5053 N 506.988 0.0434614 1.5754 0
M  V30 5054 C 508.216 -0.641835 1.96693 0
M  V30 5055 C 508.631 -1.64832 0.920652 0
M  V30 5056 O 507.988 -1.82247 -0.095993 0
M  V30 5057 C 508.039 -1.33557 3.35924 0
M  V30 5058 O 507.76 -0.369403 4.3654 0
M  V30 5059 C 509.261 -2.11135 3.89791 0
M  V30 5060 H 506.481 -0.176013 0.647503 0
M  V30 5061 H 509.025 0.107478 2.04217 0
M  V30 5062 H 507.18 -2.03617 3.29574 0
M  V30 5063 H 507.594 -0.863674 5.1734 0
M  V30 5064 H 509.068 -2.55107 4.89514 0
M  V30 5065 H 509.545 -2.95634 3.24803 0
M  V30 5066 H 510.151 -1.46002 3.99454 0
M  V30 5067 N 508.466 -1.55915 -0.229846 0
M  V30 5068 C 509.398 -1.88209 -1.30805 0
M  V30 5069 C 510.411 -0.769672 -1.43457 0
M  V30 5070 O 511.6 -1.04792 -1.44502 0
M  V30 5071 C 508.7 -2.06829 -2.68468 0
M  V30 5072 C 507.873 -3.37798 -2.77869 0
M  V30 5073 C 506.932 -3.45952 -3.96489 0
M  V30 5074 O 505.958 -4.19043 -3.85216 0
M  V30 5075 N 507.16 -2.76488 -5.10426 0
M  V30 5076 H 509.925 -2.81286 -1.03431 0
M  V30 5077 H 507.486 -1.5636 -0.41991 0
M  V30 5078 H 509.478 -2.09608 -3.46189 0
M  V30 5079 H 508.048 -1.20416 -2.88477 0
M  V30 5080 H 507.268 -3.4719 -1.86689 0
M  V30 5081 H 508.556 -4.24091 -2.81113 0
M  V30 5082 H 507.954 -2.16868 -5.2248 0
M  V30 5083 H 506.511 -2.84938 -5.8622 0
M  V30 5084 N 509.944 0.496216 -1.49584 0
M  V30 5085 C 511.169 1.27865 -1.63295 0
M  V30 5086 C 511.594 1.85592 -0.306156 0
M  V30 5087 O 510.952 1.66092 0.726851 0
M  V30 5088 C 511 2.38128 -2.7079 0
M  V30 5089 O 510.104 3.42108 -2.30296 0
M  V30 5090 H 509.445 0.377279 -0.546403 0
M  V30 5091 H 511.975 0.593497 -1.95803 0
M  V30 5092 H 511.985 2.8382 -2.93104 0
M  V30 5093 H 510.66 1.95479 -3.67098 0
M  V30 5094 H 509.237 3.02301 -2.18331 0
M  V30 5095 N 511.423 1.38739 0.74761 0
M  V30 5096 C 512.355 1.32341 1.87132 0
M  V30 5097 C 513.368 0.234502 1.61102 0
M  V30 5098 O 514.557 0.492516 1.71571 0
M  V30 5099 C 511.657 1.02915 3.22896 0
M  V30 5100 C 510.83 2.22834 3.76383 0
M  V30 5101 C 509.889 1.90059 4.90677 0
M  V30 5102 O 508.915 2.62615 5.04997 0
M  V30 5103 N 510.117 0.859141 5.74107 0
M  V30 5104 H 512.882 2.29175 1.93129 0
M  V30 5105 H 510.443 1.32678 0.927805 0
M  V30 5106 H 512.435 0.79031 3.96908 0
M  V30 5107 H 511.005 0.148572 3.12247 0
M  V30 5108 H 510.225 2.62747 2.93867 0
M  V30 5109 H 511.513 3.02851 4.08851 0
M  V30 5110 H 510.911 0.257564 5.65113 0
M  V30 5111 H 509.468 0.680189 6.48241 0
M  V30 5112 N 512.901 -0.976442 1.23707 0
M  V30 5113 C 514.15 -1.71254 1.06559 0
M  V30 5114 C 514.463 -1.91528 -0.397024 0
M  V30 5115 O 515.669 -2.62625 -0.688518 0
M  V30 5116 C 514.125 -3.08207 1.8584 0
M  V30 5117 C 513.733 -2.95806 3.36456 0
M  V30 5118 C 515.477 -3.85749 1.77194 0
M  V30 5119 C 513.384 -4.28015 4.08114 0
M  V30 5120 H 512.314 -0.642171 0.395136 0
M  V30 5121 H 514.965 -1.08877 1.4771 0
M  V30 5122 H 513.347 -3.71363 1.37498 0
M  V30 5123 H 514.521 -2.41716 3.92314 0
M  V30 5124 H 512.836 -2.31736 3.45959 0
M  V30 5125 H 515.433 -4.83633 2.28041 0
M  V30 5126 H 515.776 -4.09752 0.735477 0
M  V30 5127 H 516.309 -3.29303 2.23169 0
M  V30 5128 H 513.048 -4.09208 5.12083 0
M  V30 5129 H 512.568 -4.81955 3.57043 0
M  V30 5130 H 514.247 -4.96681 4.14629 0
M  V30 5131 N 514.379 -1.04941 -1.1758 0
M  V30 5132 C 515.342 -0.652456 -2.19717 0
M  V30 5133 C 516.342 0.294745 -1.58076 0
M  V30 5134 O 517.532 0.0789579 -1.74021 0
M  V30 5135 C 514.664 0.0420712 -3.40874 0
M  V30 5136 H 515.857 -1.55642 -2.5635 0
M  V30 5137 H 513.41 -0.842995 -1.31618 0
M  V30 5138 H 514.145 0.95943 -3.09783 0
M  V30 5139 H 513.93 -0.638844 -3.86861 0
M  V30 5140 H 515.42 0.306 -4.16477 0
M  V30 5141 N 515.857 1.33968 -0.830081 0
M  V30 5142 C 516.787 2.31911 -0.271911 0
M  V30 5143 C 517.768 1.58571 0.61556 0
M  V30 5144 O 518.953 1.86514 0.540946 0
M  V30 5145 C 516.083 3.42737 0.561146 0
M  V30 5146 C 515.037 4.27383 -0.229789 0
M  V30 5147 C 514.363 5.29742 0.726463 0
M  V30 5148 C 515.663 5.02 -1.44197 0
M  V30 5149 H 517.357 2.78844 -1.09025 0
M  V30 5150 H 514.903 1.34061 -0.52571 0
M  V30 5151 H 516.856 4.10276 0.961867 0
M  V30 5152 H 515.58 2.94471 1.41261 0
M  V30 5153 H 514.239 3.61456 -0.611964 0
M  V30 5154 H 513.887 4.77736 1.57408 0
M  V30 5155 H 513.587 5.87255 0.20142 0
M  V30 5156 H 515.111 6.00149 1.12489 0
M  V30 5157 H 516.525 5.62355 -1.11488 0
M  V30 5158 H 514.922 5.69122 -1.90317 0
M  V30 5159 H 515.992 4.31281 -2.2164 0
M  V30 5160 N 517.335 0.585699 1.46312 0
M  V30 5161 C 518.283 -0.158577 2.32059 0
M  V30 5162 C 519.277 -0.881427 1.44662 0
M  V30 5163 O 520.483 -0.799476 1.61271 0
M  V30 5164 H 516.858 -0.0700066 0.748734 0
M  V30 5165 H 518.829 0.583383 2.92642 0
M  V30 5166 C 517.578 -1.15701 3.27885 0
M  V30 5167 H 516.901 -0.610215 3.95116 0
M  V30 5168 H 518.341 -1.64812 3.90657 0
M  V30 5169 C 516.8 -2.21951 2.53455 0
M  V30 5170 O 517.33 -3.29352 2.29978 0
M  V30 5171 N 515.536 -1.9664 2.13965 0
M  V30 5172 H 515.083 -1.09309 2.33258 0
M  V30 5173 H 515.041 -2.6794 1.64485 0
M  V30 5174 N 518.813 -1.54241 0.323641 0
M  V30 5175 C 519.723 -2.28033 -0.551205 0
M  V30 5176 C 520.739 -1.32388 -1.12913 0
M  V30 5177 O 521.915 -1.65403 -1.14908 0
M  V30 5178 C 518.98 -3.02382 -1.69606 0
M  V30 5179 C 518.041 -4.13612 -1.14993 0
M  V30 5180 C 517.274 -4.84407 -2.24022 0
M  V30 5181 O 517.497 -4.54716 -3.44368 0
M  V30 5182 O 516.431 -5.71312 -1.89436 0
M  V30 5183 H 520.257 -3.03662 0.048066 0
M  V30 5184 H 517.842 -1.49133 0.0893289 0
M  V30 5185 H 519.724 -3.48941 -2.36259 0
M  V30 5186 H 518.399 -2.29628 -2.28151 0
M  V30 5187 H 517.306 -3.71402 -0.448484 0
M  V30 5188 H 518.639 -4.8841 -0.609608 0
M  V30 5189 N 520.291 -0.0518155 -1.57515 0
M  V30 5190 C 521.238 0.922352 -2.11569 0
M  V30 5191 C 522.208 1.30842 -1.02321 0
M  V30 5192 O 523.393 1.39778 -1.29872 0
M  V30 5193 C 520.533 2.19167 -2.6657 0
M  V30 5194 C 519.646 1.86003 -3.89906 0
M  V30 5195 C 518.781 3.07398 -4.33221 0
M  V30 5196 C 517.82 2.70158 -5.49255 0
M  V30 5197 N 516.957 3.84248 -5.8762 0
M  V30 5198 H 521.797 0.454506 -2.94514 0
M  V30 5199 H 519.334 0.212718 -1.45554 0
M  V30 5200 H 521.292 2.93443 -2.96559 0
M  V30 5201 H 519.922 2.63528 -1.86421 0
M  V30 5202 H 518.974 1.01874 -3.66505 0
M  V30 5203 H 520.286 1.54592 -4.74239 0
M  V30 5204 H 519.44 3.89972 -4.64765 0
M  V30 5205 H 518.179 3.41988 -3.477 0
M  V30 5206 H 517.184 1.86001 -5.17382 0
M  V30 5207 H 518.409 2.36759 -6.36492 0
M  V30 5208 H 516.355 4.18638 -5.05053 0
M  V30 5209 H 516.272 3.56538 -6.66646 0
M  V30 5210 H 517.54 4.6746 -6.2378 0
M  V30 5211 N 521.769 1.56035 0.221574 0
M  V30 5212 C 522.699 1.95434 1.2778 0
M  V30 5213 C 523.68 0.822564 1.48889 0
M  V30 5214 O 524.865 1.08486 1.61072 0
M  V30 5215 C 521.995 2.27102 2.62759 0
M  V30 5216 C 520.949 3.4277 2.56306 0
M  V30 5217 C 520.275 3.60043 3.95314 0
M  V30 5218 C 521.575 4.77742 2.11093 0
M  V30 5219 H 523.269 2.83912 0.950504 0
M  V30 5220 H 520.815 1.36596 0.455791 0
M  V30 5221 H 522.768 2.53256 3.36807 0
M  V30 5222 H 521.492 1.35478 2.97176 0
M  V30 5223 H 520.151 3.16664 1.84715 0
M  V30 5224 H 519.799 2.65794 4.27039 0
M  V30 5225 H 519.499 4.37841 3.91879 0
M  V30 5226 H 521.023 3.88545 4.71025 0
M  V30 5227 H 522.437 5.03102 2.74885 0
M  V30 5228 H 520.834 5.58823 2.18716 0
M  V30 5229 H 521.904 4.731 1.06321 0
M  V30 5230 N 523.247 -0.488276 1.49845 0
M  V30 5231 C 524.493 -1.24341 1.6021 0
M  V30 5232 C 524.826 -1.91967 0.293651 0
M  V30 5233 O 524.101 -1.81323 -0.703718 0
M  V30 5234 C 524.384 -2.3005 2.77036 0
M  V30 5235 C 524.237 -1.66842 4.17713 0
M  V30 5236 C 525.556 -3.31509 2.89464 0
M  V30 5237 H 522.675 -0.450704 0.583125 0
M  V30 5238 H 525.317 -0.539673 1.82174 0
M  V30 5239 H 523.467 -2.90071 2.58439 0
M  V30 5240 H 525.139 -1.1055 4.47858 0
M  V30 5241 H 523.382 -0.972079 4.22768 0
M  V30 5242 H 524.053 -2.43576 4.95353 0
M  V30 5243 H 526.529 -2.81493 3.06433 0
M  V30 5244 H 525.405 -4.02822 3.72861 0
M  V30 5245 H 525.666 -3.94603 1.99351 0
M  V30 5246 N 524.725 -1.39134 -0.740242 0
M  V30 5247 C 525.673 -1.3757 -1.87556 0
M  V30 5248 C 526.667 -0.259593 -1.67399 0
M  V30 5249 O 527.873 -0.429349 -1.74804 0
M  V30 5250 H 524.248 -0.42947 -0.6173 0
M  V30 5251 H 526.219 -2.33345 -1.85991 0
M  V30 5252 C 524.968 -1.23087 -3.25184 0
M  V30 5253 H 524.291 -2.08237 -3.41288 0
M  V30 5254 H 525.731 -1.26049 -4.0483 0
M  V30 5255 C 524.19 0.0611471 -3.36845 0
M  V30 5256 O 524.72 1.03328 -3.88183 0
M  V30 5257 N 522.926 0.122454 -2.90342 0
M  V30 5258 H 522.473 -0.669329 -2.48752 0
M  V30 5259 H 522.431 0.986463 -2.98523 0
M  V30 5260 N 526.204 0.969867 -1.24223 0
M  V30 5261 C 527.134 2.08191 -1.05729 0
M  V30 5262 C 528.115 1.70075 0.0290765 0
M  V30 5263 O 529.3 1.93712 -0.137583 0
M  V30 5264 C 526.43 3.40991 -0.658995 0
M  V30 5265 C 525.384 3.93054 -1.69389 0
M  V30 5266 C 524.71 5.22171 -1.15072 0
M  V30 5267 C 526.01 4.21137 -3.08935 0
M  V30 5268 H 527.704 2.23921 -1.98746 0
M  V30 5269 H 525.25 1.07602 -0.956967 0
M  V30 5270 H 527.203 4.18221 -0.51662 0
M  V30 5271 H 525.927 3.25155 0.30686 0
M  V30 5272 H 524.586 3.17977 -1.82444 0
M  V30 5273 H 524.234 5.02694 -0.175539 0
M  V30 5274 H 523.934 5.57973 -1.84229 0
M  V30 5275 H 525.458 6.02013 -1.02042 0
M  V30 5276 H 526.872 4.8908 -2.99121 0
M  V30 5277 H 525.269 4.68163 -3.75425 0
M  V30 5278 H 526.339 3.27996 -3.57137 0
M  V30 5279 O 527.721 1.18047 1.10214 0
M  V30 5280 H 528.412 0.921332 1.70385 0
M  V30 END ATOM
M  V30 BEGIN BOND
M  V30 END BOND
M  V30 END CTAB
M  END
$$$$
