drugbank_target|O00483 Cytochrome c oxidase subunit NDUFA4 (DB00157)
 OpenBabel12092119253D

  0  0  0     0  0            999 V3000
M  V30 BEGIN CTAB
M  V30 COUNTS 1333 1353 0 0 0
M  V30 BEGIN ATOM
M  V30 1 H -0.908 1.98254 -0.117106 0
M  V30 2 N 0 1.576 0 0
M  V30 3 C 0.933 2.03868 1.02534 0
M  V30 4 C 1.911 0.928543 1.3348 0
M  V30 5 O 3.095 1.19667 1.45644 0
M  V30 6 C 0.222 2.43627 2.35294 0
M  V30 7 C -0.732 3.65373 2.2001 0
M  V30 8 S 0.101 5.13292 1.52614 0
M  V30 9 C 1.257 5.56322 2.86805 0
M  V30 10 H 1.49 2.90518 0.631377 0
M  V30 11 H -0.977 1.52953 0.210867 0
M  V30 12 H 0.981 2.67203 3.11629 0
M  V30 13 H -0.358 1.57376 2.7183 0
M  V30 14 H -1.165 3.90944 3.18086 0
M  V30 15 H -1.563 3.418 1.51819 0
M  V30 16 H 0.729 5.58782 3.83104 0
M  V30 17 H 1.672 6.56266 2.65933 0
M  V30 18 H 2.08 4.83886 2.90714 0
M  V30 19 N 1.4781 -0.272755 1.55222 0
M  V30 20 C 2.4081 -1.34136 1.91127 0
M  V30 21 C 3.3891 -1.51513 0.773168 0
M  V30 22 O 4.5741 -1.64552 1.03132 0
M  V30 23 C 1.7041 -2.70083 2.1834 0
M  V30 24 C 0.6581 -2.67437 3.34158 0
M  V30 25 C -0.0159 -4.06938 3.46851 0
M  V30 26 C 1.2841 -2.26686 4.70543 0
M  V30 27 H 2.9781 -1.04333 2.80633 0
M  V30 28 H 0.5241 -0.500454 1.35024 0
M  V30 29 H 2.4771 -3.44952 2.42046 0
M  V30 30 H 1.2011 -3.01469 1.25634 0
M  V30 31 H -0.1399 -1.95026 3.1042 0
M  V30 32 H -0.4919 -4.35547 2.51611 0
M  V30 33 H -0.7919 -4.06062 4.2472 0
M  V30 34 H 0.7321 -4.83545 3.72849 0
M  V30 35 H 2.1461 -2.91277 4.93792 0
M  V30 36 H 0.5431 -2.36971 5.5133 0
M  V30 37 H 1.6131 -1.21818 4.69349 0
M  V30 38 N 2.9562 -1.48159 -0.537278 0
M  V30 39 C 4.3722 -1.34118 -0.865129 0
M  V30 40 C 4.5722 -0.346678 -1.98495 0
M  V30 41 O 3.6282 0.234715 -2.51407 0
M  V30 42 C 4.9412 -2.73963 -1.23954 0
M  V30 43 C 6.4892 -2.82397 -1.34984 0
M  V30 44 C 6.9642 -4.22928 -1.75772 0
M  V30 45 N 8.4552 -4.25566 -1.82887 0
M  V30 46 C 9.1902 -5.31235 -2.15817 0
M  V30 47 N 8.6862 -6.47189 -2.47222 0
M  V30 48 N 10.4792 -5.18624 -2.16761 0
M  V30 49 H 2.6302 -2.1144 0.201715 0
M  V30 50 H 4.8932 -0.947598 0.0275949 0
M  V30 51 H 4.5992 -3.48264 -0.490381 0
M  V30 52 H 4.4732 -3.0702 -2.19132 0
M  V30 53 H 6.8602 -2.08356 -2.08978 0
M  V30 54 H 6.9412 -2.5297 -0.379448 0
M  V30 55 H 6.5852 -4.97482 -1.02341 0
M  V30 56 H 6.5152 -4.49794 -2.73848 0
M  V30 57 H 9.0062 -3.41924 -1.60924 0
M  V30 58 H 9.3192 -7.23564 -2.71433 0
M  V30 59 H 7.6642 -6.50476 -2.44757 0
M  V30 60 H 10.8552 -4.27056 -1.91679 0
M  V30 61 H 11.0282 -6.01078 -2.42093 0
M  V30 62 N 4.4343 0.785586 -1.36625 0
M  V30 63 C 5.3663 1.90711 -1.2713 0
M  V30 64 C 6.3793 1.61688 -0.189986 0
M  V30 65 O 7.5683 1.72864 -0.445014 0
M  V30 66 C 4.6683 3.25611 -0.939713 0
M  V30 67 C 3.8413 3.82385 -2.12369 0
M  V30 68 C 2.9003 4.95732 -1.76456 0
M  V30 69 O 1.9263 5.12047 -2.48589 0
M  V30 70 N 3.1283 5.76258 -0.700492 0
M  V30 71 H 5.8933 1.99376 -2.23762 0
M  V30 72 H 3.4543 0.964041 -1.30069 0
M  V30 73 H 5.4463 3.98937 -0.680554 0
M  V30 74 H 4.0163 3.12538 -0.0624074 0
M  V30 75 H 3.2363 3.01001 -2.54543 0
M  V30 76 H 4.5243 4.17047 -2.9146 0
M  V30 77 H 3.9223 5.65609 -0.101624 0
M  V30 78 H 2.4793 6.4987 -0.501165 0
M  V30 79 N 5.9124 1.20967 1.01018 0
M  V30 80 C 7.1614 1.01796 1.74128 0
M  V30 81 C 7.4744 -0.449691 1.90361 0
M  V30 82 O 8.6804 -0.76068 2.60626 0
M  V30 83 C 7.1364 1.7727 3.13215 0
M  V30 84 C 6.7444 3.28171 3.04972 0
M  V30 85 C 8.4884 1.66489 3.90489 0
M  V30 86 C 6.3954 3.96156 4.39107 0
M  V30 87 H 5.3254 0.377276 0.652824 0
M  V30 88 H 7.9764 1.44651 1.12909 0
M  V30 89 H 6.3584 1.27205 3.75013 0
M  V30 90 H 7.5324 3.85499 2.52443 0
M  V30 91 H 5.8474 3.39437 2.41188 0
M  V30 92 H 8.4444 2.14617 4.89738 0
M  V30 93 H 8.7874 0.6222 4.11624 0
M  V30 94 H 9.3204 2.14003 3.35332 0
M  V30 95 H 6.0594 5.00604 4.23174 0
M  V30 96 H 5.5794 3.43617 4.91617 0
M  V30 97 H 7.2584 4.00774 5.07926 0
M  V30 98 N 7.3905 -1.2043 1.01659 0
M  V30 99 C 8.6395 -1.89118 0.701237 0
M  V30 100 C 8.9525 -1.79705 -0.772358 0
M  V30 101 O 10.1585 -2.43528 -1.20026 0
M  V30 102 C 8.6145 -3.39168 1.20388 0
M  V30 103 C 8.2225 -3.57166 2.70438 0
M  V30 104 C 9.9665 -4.1341 0.963953 0
M  V30 105 C 7.8735 -5.01042 3.14183 0
M  V30 106 H 6.8035 -0.708267 0.2586 0
M  V30 107 H 9.4545 -1.36239 1.22927 0
M  V30 108 H 7.8365 -3.91369 0.603824 0
M  V30 109 H 9.0105 -3.15351 3.35992 0
M  V30 110 H 7.3255 -2.96294 2.92572 0
M  V30 111 H 9.9225 -5.19491 1.26621 0
M  V30 112 H 10.2655 -4.16181 -0.099578 0
M  V30 113 H 10.7985 -3.67309 1.52738 0
M  V30 114 H 7.5375 -5.03426 4.19812 0
M  V30 115 H 7.0575 -5.43668 2.53348 0
M  V30 116 H 8.7365 -5.69623 3.0682 0
M  V30 117 N 8.8686 -0.792821 -1.36206 0
M  V30 118 C 10.1166 -0.366062 -1.98757 0
M  V30 119 C 10.4376 1.0668 -1.63231 0
M  V30 120 O 9.7076 1.73587 -0.907978 0
M  V30 121 H 8.2876 -0.132364 -0.735179 0
M  V30 122 H 10.9496 -1.01562 -1.66347 0
M  V30 123 H 10.0456 -0.460638 -3.08682 0
M  V30 124 N 10.3467 1.47872 -0.545128 0
M  V30 125 C 11.2787 2.27869 0.246621 0
M  V30 126 C 12.2917 1.36282 0.890561 0
M  V30 127 O 13.4807 1.61207 0.766449 0
M  V30 128 C 10.5807 3.10159 1.36582 0
M  V30 129 C 9.7537 4.29627 0.820954 0
M  V30 130 C 8.8127 4.93607 1.82314 0
M  V30 131 O 7.8387 5.52366 1.37406 0
M  V30 132 N 9.0407 4.87211 3.15603 0
M  V30 133 H 11.8057 2.96459 -0.439539 0
M  V30 134 H 9.3667 1.57367 -0.380421 0
M  V30 135 H 11.3587 3.49829 2.03474 0
M  V30 136 H 9.9287 2.43891 1.9554 0
M  V30 137 H 9.1487 3.94192 -0.0244032 0
M  V30 138 H 10.4367 5.06928 0.436063 0
M  V30 139 H 9.8347 4.40651 3.54744 0
M  V30 140 H 8.3917 5.30937 3.78087 0
M  V30 141 N 11.8248 0.280983 1.55075 0
M  V30 142 C 12.7878 -0.590896 2.21452 0
M  V30 143 C 13.7878 -1.07682 1.19421 0
M  V30 144 O 14.9778 -0.97605 1.44288 0
M  V30 145 C 12.1098 -1.81587 2.88511 0
M  V30 146 H 13.3028 -0.0112554 2.99898 0
M  V30 147 H 10.8558 0.0316438 1.56268 0
M  V30 148 H 11.5908 -2.43587 2.14093 0
M  V30 149 H 11.3758 -1.4753 3.63287 0
M  V30 150 H 12.8658 -2.43575 3.39206 0
M  V30 151 N 13.3029 -1.57598 0.00835791 0
M  V30 152 C 14.2499 -2.08945 -0.980346 0
M  V30 153 C 15.2199 -0.986738 -1.33614 0
M  V30 154 O 16.4049 -1.25968 -1.43306 0
M  V30 155 C 13.5449 -2.60425 -2.26435 0
M  V30 156 C 12.6579 -3.84628 -1.96685 0
M  V30 157 C 11.7929 -4.24579 -3.19228 0
M  V30 158 C 10.8319 -5.41596 -2.85202 0
M  V30 159 N 9.9689 -5.768 -4.00307 0
M  V30 160 H 14.8089 -2.93148 -0.535551 0
M  V30 161 H 12.3459 -1.44912 -0.252776 0
M  V30 162 H 14.3039 -2.88354 -3.01509 0
M  V30 163 H 12.9339 -1.79083 -2.68568 0
M  V30 164 H 11.9859 -3.63556 -1.11942 0
M  V30 165 H 13.2979 -4.69796 -1.67611 0
M  V30 166 H 12.4519 -4.53834 -4.02641 0
M  V30 167 H 11.1909 -3.38137 -3.51447 0
M  V30 168 H 10.1959 -5.12056 -2.00198 0
M  V30 169 H 11.4209 -6.29721 -2.54222 0
M  V30 170 H 9.3669 -4.93316 -4.32407 0
M  V30 171 H 9.2839 -6.5656 -3.74786 0
M  V30 172 H 10.5519 -6.10652 -4.84484 0
M  V30 173 N 14.781 0.264519 -1.55364 0
M  V30 174 C 15.728 1.32717 -1.88825 0
M  V30 175 C 16.698 1.48675 -0.740605 0
M  V30 176 O 17.883 1.62945 -0.992657 0
M  V30 177 C 15.023 2.68089 -2.17307 0
M  V30 178 C 14.136 2.60284 -3.44785 0
M  V30 179 C 13.271 3.87892 -3.62924 0
M  V30 180 C 12.31 3.74631 -4.84064 0
M  V30 181 N 11.447 4.94092 -4.98816 0
M  V30 182 H 16.287 1.03481 -2.79456 0
M  V30 183 H 13.824 0.499757 -1.3835 0
M  V30 184 H 15.782 3.46864 -2.31821 0
M  V30 185 H 14.412 2.95509 -1.299 0
M  V30 186 H 13.464 1.73173 -3.38697 0
M  V30 187 H 14.776 2.46388 -4.33698 0
M  V30 188 H 13.93 4.75109 -3.77302 0
M  V30 189 H 12.669 4.04664 -2.7221 0
M  V30 190 H 11.674 2.85797 -4.69681 0
M  V30 191 H 12.899 3.5937 -5.76221 0
M  V30 192 H 10.845 5.11259 -4.11036 0
M  V30 193 H 10.762 4.8276 -5.81789 0
M  V30 194 H 12.03 5.82857 -5.17588 0
M  V30 195 N 16.2591 1.48442 0.529413 0
M  V30 196 C 17.2091 1.59407 1.63014 0
M  V30 197 C 18.1931 0.451166 1.54445 0
M  V30 198 O 19.3851 0.702635 1.62456 0
M  V30 199 C 16.5141 1.63746 3.01732 0
M  V30 200 C 15.6001 2.83518 3.15402 0
M  V30 201 N 15.9911 4.07929 2.99045 0
M  V30 202 C 14.2891 2.80862 3.46457 0
M  V30 203 C 14.9901 4.8829 3.16146 0
M  V30 204 N 13.9661 4.21117 3.43746 0
M  V30 205 H 17.7681 2.53343 1.48978 0
M  V30 206 H 15.2821 1.44821 0.734885 0
M  V30 207 H 17.2791 1.69695 3.80801 0
M  V30 208 H 15.9391 0.709264 3.16859 0
M  V30 209 H 16.9501 4.38357 2.75796 0
M  V30 210 H 13.6271 1.97301 3.67938 0
M  V30 211 H 15.0171 5.97028 3.08232 0
M  V30 212 N 17.7372 -0.778329 1.37039 0
M  V30 213 C 19.1482 -1.35421 1.28523 0
M  V30 214 C 19.4992 -1.96075 -0.0700901 0
M  V30 215 O 18.6242 -1.93352 -0.971801 0
M  V30 216 C 19.2192 -2.46211 2.32735 0
M  V30 217 C 17.7782 -2.99585 2.27873 0
M  V30 218 C 16.9252 -1.72748 2.16918 0
M  V30 219 H 19.8762 -0.5791 1.47757 0
M  V30 220 H 19.8972 -3.2552 1.9702 0
M  V30 221 H 19.4092 -2.02036 3.31365 0
M  V30 222 H 17.5102 -3.48152 1.32745 0
M  V30 223 H 17.6232 -3.55646 3.21018 0
M  V30 224 H 15.9872 -1.95416 1.63354 0
M  V30 225 H 16.7702 -1.30686 3.17452 0
M  V30 226 N 19.2153 -1.21501 -1.00376 0
M  V30 227 C 20.4403 -1.05977 -1.78279 0
M  V30 228 C 20.8653 0.385994 -1.84097 0
M  V30 229 O 20.2233 1.27849 -1.28547 0
M  V30 230 C 20.2713 -1.66302 -3.19963 0
M  V30 231 O 19.3753 -0.909333 -4.0225 0
M  V30 232 H 18.7163 -0.372906 -0.549397 0
M  V30 233 H 21.2463 -1.6107 -1.26165 0
M  V30 234 H 21.2563 -1.70574 -3.70632 0
M  V30 235 H 19.9313 -2.71515 -3.15043 0
M  V30 236 H 18.5083 -0.941795 -3.60811 0
M  V30 237 N 20.6934 1.19889 -1.02296 0
M  V30 238 C 21.6234 2.25141 -0.619174 0
M  V30 239 C 22.6044 1.66051 0.368915 0
M  V30 240 O 23.7894 1.92546 0.252941 0
M  V30 241 C 20.9194 3.4728 0.0368783 0
M  V30 242 C 19.8734 4.19005 -0.872865 0
M  V30 243 C 19.1994 5.34637 -0.0822402 0
M  V30 244 C 20.4994 4.74452 -2.18387 0
M  V30 245 H 22.1934 2.59171 -1.49903 0
M  V30 246 H 19.7394 1.24579 -0.722222 0
M  V30 247 H 21.6924 4.20098 0.330958 0
M  V30 248 H 20.4164 3.12433 0.95149 0
M  V30 249 H 19.0754 3.48061 -1.15105 0
M  V30 250 H 18.7234 4.96034 0.83422 0
M  V30 251 H 18.4234 5.83557 -0.688149 0
M  V30 252 H 19.9474 6.10255 0.205238 0
M  V30 253 H 21.3614 5.39055 -1.95172 0
M  V30 254 H 19.7584 5.33834 -2.74119 0
M  V30 255 H 20.8284 3.92844 -2.84257 0
M  V30 256 N 22.1715 0.800033 1.35784 0
M  V30 257 C 23.4205 0.37387 1.98205 0
M  V30 258 C 23.7335 -1.06302 1.64193 0
M  V30 259 O 24.9395 -1.59198 2.19928 0
M  V30 260 C 23.3955 0.617532 3.54562 0
M  V30 261 C 23.0035 2.06654 3.9749 0
M  V30 262 C 24.7475 0.256401 4.23725 0
M  V30 263 C 22.6545 2.2563 5.46667 0
M  V30 264 H 21.5845 0.136055 0.741623 0
M  V30 265 H 24.2355 0.983166 1.54939 0
M  V30 266 H 22.6175 -0.0616248 3.95952 0
M  V30 267 H 23.7915 2.78296 3.67271 0
M  V30 268 H 22.1065 2.38691 3.41197 0
M  V30 269 H 24.7035 0.376318 5.33374 0
M  V30 270 H 25.0465 -0.796692 4.08606 0
M  V30 271 H 25.5795 0.889214 3.87734 0
M  V30 272 H 22.3185 3.2936 5.66747 0
M  V30 273 H 21.8385 1.58504 5.78478 0
M  V30 274 H 23.5175 2.06861 6.1304 0
M  V30 275 N 23.6496 -1.47581 0.552962 0
M  V30 276 C 25.0606 -1.86324 0.118463 0
M  V30 277 C 25.4116 -1.46006 -1.3106 0
M  V30 278 O 24.5366 -0.861182 -1.98526 0
M  V30 279 C 25.1316 -3.3816 0.20821 0
M  V30 280 C 23.6906 -3.7601 -0.171226 0
M  V30 281 C 22.8376 -2.71634 0.557686 0
M  V30 282 H 25.7886 -1.39159 0.762928 0
M  V30 283 H 25.8096 -3.76141 -0.574278 0
M  V30 284 H 25.3216 -3.67473 1.24841 0
M  V30 285 H 23.4226 -3.52313 -1.21269 0
M  V30 286 H 23.5356 -4.78745 0.184379 0
M  V30 287 H 21.8996 -2.547 0.00125792 0
M  V30 288 H 22.6826 -3.0379 1.59896 0
M  V30 289 N 25.1277 -0.289203 -1.54924 0
M  V30 290 C 26.0577 0.58549 -2.2604 0
M  V30 291 C 27.0387 1.14753 -1.25562 0
M  V30 292 O 28.2237 1.17906 -1.54311 0
M  V30 293 C 25.3537 1.76305 -2.99222 0
M  V30 294 C 24.3077 1.33191 -4.06748 0
M  V30 295 C 23.6337 2.5937 -4.6758 0
M  V30 296 C 24.9337 0.471775 -5.20165 0
M  V30 297 H 26.6277 -0.00763532 -2.99399 0
M  V30 298 H 24.1737 -0.00511229 -1.43999 0
M  V30 299 H 26.1267 2.38097 -3.47689 0
M  V30 300 H 24.8507 2.38223 -2.23422 0
M  V30 301 H 23.5097 0.737121 -3.59113 0
M  V30 302 H 23.1577 3.19576 -3.88433 0
M  V30 303 H 22.8577 2.31228 -5.40192 0
M  V30 304 H 24.3817 3.21985 -5.18804 0
M  V30 305 H 25.7957 0.995056 -5.64599 0
M  V30 306 H 24.1927 0.284639 -5.99425 0
M  V30 307 H 25.2627 -0.506041 -4.82252 0
M  V30 308 N 26.6058 1.57591 -0.0167156 0
M  V30 309 C 27.8528 1.91283 0.664597 0
M  V30 310 C 28.1808 0.891949 1.72842 0
M  V30 311 O 27.4358 -0.100931 1.9544 0
M  V30 312 C 27.7348 3.3172 1.33029 0
M  V30 313 C 27.4008 4.4914 0.398047 0
M  V30 314 C 26.0628 4.80992 0.141421 0
M  V30 315 C 28.4148 5.20634 -0.242825 0
M  V30 316 C 25.7428 5.81703 -0.764092 0
M  V30 317 C 28.0948 6.22311 -1.13632 0
M  V30 318 C 26.7588 6.52611 -1.40196 0
M  V30 319 H 26.0288 0.699956 0.243193 0
M  V30 320 H 28.6758 1.9135 -0.0758267 0
M  V30 321 H 26.9808 3.27856 2.14517 0
M  V30 322 H 28.6778 3.55055 1.86379 0
M  V30 323 H 25.2678 4.24262 0.608238 0
M  V30 324 H 29.4518 4.96267 -0.0576019 0
M  V30 325 H 24.7078 6.03532 -0.977732 0
M  V30 326 H 28.8818 6.76834 -1.63917 0
M  V30 327 H 26.5088 7.30467 -2.10529 0
M  V30 328 N 28.0839 -0.256276 1.55502 0
M  V30 329 C 29.3299 -0.987079 1.77157 0
M  V30 330 C 29.6629 -1.85327 0.580315 0
M  V30 331 O 28.9379 -1.89874 -0.421686 0
M  V30 332 C 29.2209 -1.85553 3.08613 0
M  V30 333 C 29.0739 -1.01816 4.38125 0
M  V30 334 C 30.3929 -2.8397 3.36228 0
M  V30 335 H 27.5119 -0.357428 0.644526 0
M  V30 336 H 30.1539 -0.258239 1.88237 0
M  V30 337 H 28.3039 -2.47695 2.99298 0
M  V30 338 H 29.9759 -0.416159 4.59419 0
M  V30 339 H 28.2189 -0.322178 4.32602 0
M  V30 340 H 28.8899 -1.65939 5.26468 0
M  V30 341 H 31.3659 -2.31964 3.45445 0
M  V30 342 H 30.2419 -3.41864 4.29442 0
M  V30 343 H 30.5029 -3.59955 2.56681 0
M  V30 344 N 29.562 -1.4872 -0.521534 0
M  V30 345 C 30.809 -1.57168 -1.27689 0
M  V30 346 C 31.137 -0.249275 -1.92896 0
M  V30 347 O 30.392 0.761162 -1.80291 0
M  V30 348 C 30.691 -2.66497 -2.38148 0
M  V30 349 C 30.357 -4.08664 -1.90538 0
M  V30 350 C 29.019 -4.47357 -1.77271 0
M  V30 351 C 31.371 -4.97724 -1.54663 0
M  V30 352 C 28.699 -5.72905 -1.26478 0
M  V30 353 C 31.051 -6.2377 -1.05329 0
M  V30 354 C 29.715 -6.61311 -0.906861 0
M  V30 355 H 28.985 -0.575117 -0.467249 0
M  V30 356 H 31.632 -1.82472 -0.581051 0
M  V30 357 H 29.937 -2.35085 -3.13437 0
M  V30 358 H 31.634 -2.70246 -2.96257 0
M  V30 359 H 28.224 -3.78111 -2.01816 0
M  V30 360 H 32.408 -4.68501 -1.63768 0
M  V30 361 H 27.664 -6.00709 -1.13835 0
M  V30 362 H 31.838 -6.9217 -0.76644 0
M  V30 363 H 29.465 -7.5848 -0.511083 0
M  V30 364 N 31.0401 0.771051 -1.3745 0
M  V30 365 C 32.2891 1.52491 -1.3202 0
M  V30 366 C 32.6021 1.9538 0.0927347 0
M  V30 367 O 33.8081 2.70159 0.269503 0
M  V30 368 C 32.2641 2.75366 -2.31736 0
M  V30 369 C 31.8721 2.39573 -3.78562 0
M  V30 370 C 33.6161 3.53307 -2.35318 0
M  V30 371 C 31.5231 3.58954 -4.70007 0
M  V30 372 H 30.4531 0.572506 -0.490666 0
M  V30 373 H 33.1041 0.844474 -1.62914 0
M  V30 374 H 31.4861 3.45303 -1.93861 0
M  V30 375 H 32.6601 1.77415 -4.25277 0
M  V30 376 H 30.9751 1.74805 -3.77932 0
M  V30 377 H 33.5721 4.42039 -3.00842 0
M  V30 378 H 33.9151 3.93217 -1.36698 0
M  V30 379 H 34.4481 2.90367 -2.71904 0
M  V30 380 H 31.1871 3.24125 -5.69757 0
M  V30 381 H 30.7071 4.20214 -4.27996 0
M  V30 382 H 32.3861 4.25758 -4.87175 0
M  V30 383 N 32.5182 1.22032 0.997298 0
M  V30 384 C 33.7662 1.04016 1.73278 0
M  V30 385 C 34.0872 -0.426255 1.90284 0
M  V30 386 O 33.3572 -1.30694 1.45931 0
M  V30 387 H 31.9372 0.381897 0.642 0
M  V30 388 H 34.5992 1.5347 1.20137 0
M  V30 389 H 33.6952 1.51441 2.72896 0
M  V30 390 N 33.9963 -1.19345 1.0293 0
M  V30 391 C 35.2243 -1.92997 0.745644 0
M  V30 392 C 35.6393 -1.75519 -0.695589 0
M  V30 393 O 34.9963 -1.07737 -1.47306 0
M  V30 394 C 35.0473 -3.44741 1.08792 0
M  V30 395 O 34.7683 -3.61658 2.47256 0
M  V30 396 C 36.2693 -4.35515 0.827129 0
M  V30 397 H 33.4893 -0.613042 0.272801 0
M  V30 398 H 36.0333 -1.51473 1.3739 0
M  V30 399 H 34.1883 -3.84097 0.504832 0
M  V30 400 H 34.6023 -4.55514 2.60015 0
M  V30 401 H 36.0763 -5.40589 1.11658 0
M  V30 402 H 36.5533 -4.38552 -0.238436 0
M  V30 403 H 37.1593 -4.01841 1.39297 0
M  V30 404 N 35.4744 -0.807222 -1.35358 0
M  V30 405 C 36.7224 -0.387122 -1.98358 0
M  V30 406 C 37.0434 1.04942 -1.64354 0
M  V30 407 O 36.3134 1.72615 -0.926339 0
M  V30 408 H 34.8934 -0.140154 -0.733734 0
M  V30 409 H 37.5554 -1.0332 -1.6526 0
M  V30 410 H 36.6514 -0.493352 -3.08176 0
M  V30 411 N 36.9525 1.47285 -0.560781 0
M  V30 412 C 37.9155 2.28535 0.174488 0
M  V30 413 C 38.9155 1.37153 0.839388 0
M  V30 414 O 40.1055 1.59748 0.694702 0
M  V30 415 C 37.2375 3.16934 1.25561 0
M  V30 416 H 38.4305 2.95012 -0.539262 0
M  V30 417 H 35.9835 1.53034 -0.317865 0
M  V30 418 H 36.7185 2.55157 2.00164 0
M  V30 419 H 36.5035 3.8419 0.783604 0
M  V30 420 H 37.9935 3.78143 1.77193 0
M  V30 421 N 38.4306 0.297415 1.54768 0
M  V30 422 C 39.6586 -0.315623 2.04478 0
M  V30 423 C 40.0736 -1.47792 1.17486 0
M  V30 424 O 39.4306 -1.81404 0.19971 0
M  V30 425 C 39.4816 -0.7753 3.53088 0
M  V30 426 O 39.2026 0.340732 4.36773 0
M  V30 427 C 40.7036 -1.45386 4.18781 0
M  V30 428 H 37.9236 -0.0690887 0.667434 0
M  V30 429 H 40.4676 0.436003 1.99798 0
M  V30 430 H 38.6226 -1.47696 3.58141 0
M  V30 431 H 39.0366 -0.0165035 5.24497 0
M  V30 432 H 40.5106 -1.72669 5.24299 0
M  V30 433 H 40.9876 -2.39275 3.68299 0
M  V30 434 H 41.5936 -0.795475 4.17795 0
M  V30 435 N 39.9087 -1.5758 0.0250728 0
M  V30 436 C 41.1567 -1.91255 -0.653151 0
M  V30 437 C 41.4777 -0.901691 -1.729 0
M  V30 438 O 40.7477 0.0573785 -1.95816 0
M  V30 439 H 39.3277 -0.705942 -0.244243 0
M  V30 440 H 41.9897 -1.94767 0.0719209 0
M  V30 441 H 41.0857 -2.91752 -1.10847 0
M  V30 442 N 41.3868 0.248026 -1.55636 0
M  V30 443 C 42.3498 1.29044 -1.89421 0
M  V30 444 C 43.3498 1.41134 -0.770581 0
M  V30 445 O 44.5398 1.39854 -1.03858 0
M  V30 446 C 41.6718 2.66831 -2.12165 0
M  V30 447 H 42.8648 1.00305 -2.82629 0
M  V30 448 H 40.4178 0.487265 -1.48511 0
M  V30 449 H 41.1528 3.00711 -1.21422 0
M  V30 450 H 40.9378 2.59438 -2.93997 0
M  V30 451 H 42.4278 3.42103 -2.3949 0
M  V30 452 N 42.8649 1.48995 0.513639 0
M  V30 453 C 44.0929 1.61531 1.29288 0
M  V30 454 C 44.5079 0.281801 1.86685 0
M  V30 455 O 43.8649 -0.731111 1.67215 0
M  V30 456 C 43.9159 2.67449 2.43215 0
M  V30 457 O 43.6369 3.95626 1.88179 0
M  V30 458 C 45.1379 2.90575 3.34785 0
M  V30 459 H 42.3579 0.544165 0.392588 0
M  V30 460 H 44.9019 1.9494 0.617956 0
M  V30 461 H 43.0569 2.36853 3.0656 0
M  V30 462 H 43.4709 4.53868 2.62876 0
M  V30 463 H 44.9449 3.68449 4.11035 0
M  V30 464 H 45.4219 2.00011 3.91015 0
M  V30 465 H 46.0279 3.22538 2.77218 0
M  V30 466 N 44.343 -0.763751 1.37857 0
M  V30 467 C 45.273 -1.89103 1.36975 0
M  V30 468 C 46.254 -1.68439 0.237152 0
M  V30 469 O 47.439 -1.8918 0.438713 0
M  V30 470 C 44.569 -3.26496 1.18395 0
M  V30 471 C 43.523 -3.61741 2.28751 0
M  V30 472 C 42.849 -4.97762 1.95286 0
M  V30 473 C 44.149 -3.67665 3.70972 0
M  V30 474 H 45.843 -1.90099 2.31307 0
M  V30 475 H 43.389 -0.91319 1.11341 0
M  V30 476 H 45.342 -4.05003 1.16406 0
M  V30 477 H 44.066 -3.25955 0.205215 0
M  V30 478 H 42.725 -2.85547 2.29909 0
M  V30 479 H 42.373 -4.93769 0.959221 0
M  V30 480 H 42.073 -5.22313 2.69189 0
M  V30 481 H 43.597 -5.7866 1.94898 0
M  V30 482 H 45.011 -4.36307 3.719 0
M  V30 483 H 43.408 -4.03718 4.43995 0
M  V30 484 H 44.478 -2.68134 4.0402 0
M  V30 485 N 45.8211 -1.22559 -0.990812 0
M  V30 486 C 47.0511 -1.07623 -1.76355 0
M  V30 487 C 47.4591 0.37601 -1.85426 0
M  V30 488 O 46.8021 1.27228 -1.32509 0
M  V30 489 C 46.8641 -1.61507 -3.21179 0
M  V30 490 C 46.5281 -3.10146 -3.35646 0
M  V30 491 C 47.5251 -4.07553 -3.22796 0
M  V30 492 C 45.2101 -3.49644 -3.60631 0
M  V30 493 C 47.2041 -5.42442 -3.34716 0
M  V30 494 C 44.8911 -4.84682 -3.72192 0
M  V30 495 C 45.8891 -5.8089 -3.59243 0
M  V30 496 O 45.5771 -7.13476 -3.70415 0
M  V30 497 H 45.3091 -0.377745 -0.560611 0
M  V30 498 H 47.8631 -1.62658 -1.25425 0
M  V30 499 H 46.0931 -1.00881 -3.73309 0
M  V30 500 H 47.7821 -1.42202 -3.80175 0
M  V30 501 H 48.5481 -3.78381 -3.03403 0
M  V30 502 H 44.4271 -2.75282 -3.69785 0
M  V30 503 H 47.9711 -6.17518 -3.24526 0
M  V30 504 H 43.8681 -5.13534 -3.91092 0
M  V30 505 H 44.6361 -7.21083 -3.87275 0
M  V30 506 N 47.2992 1.18797 -1.03562 0
M  V30 507 C 48.2292 2.24472 -0.643019 0
M  V30 508 C 49.2102 1.66433 0.351283 0
M  V30 509 O 50.3952 1.92803 0.232505 0
M  V30 510 C 47.5252 3.473 4.24935e-05 0
M  V30 511 C 46.4792 4.18055 -0.917257 0
M  V30 512 C 45.8052 5.34519 -0.138941 0
M  V30 513 C 47.1052 4.72109 -2.23407 0
M  V30 514 H 48.7992 2.57566 -1.52643 0
M  V30 515 H 46.3452 1.23806 -0.735394 0
M  V30 516 H 48.2982 4.20426 0.286383 0
M  V30 517 H 47.0222 3.13424 0.918299 0
M  V30 518 H 45.6812 3.46821 -1.1879 0
M  V30 519 H 45.3292 4.96891 0.781562 0
M  V30 520 H 45.0292 5.82794 -0.750005 0
M  V30 521 H 46.5532 6.10438 0.1405 0
M  V30 522 H 47.9672 5.36955 -2.00879 0
M  V30 523 H 46.3642 5.30897 -2.79765 0
M  V30 524 H 47.4342 3.89807 -2.88407 0
M  V30 525 N 48.7773 0.814389 1.34928 0
M  V30 526 C 49.7073 0.244827 2.32213 0
M  V30 527 C 50.6883 -0.634024 1.57842 0
M  V30 528 O 51.8733 -0.562676 1.8587 0
M  V30 529 C 49.0033 -0.601106 3.42058 0
M  V30 530 C 47.9573 0.179896 4.27622 0
M  V30 531 C 47.2833 -0.788237 5.28858 0
M  V30 532 C 48.5833 1.38329 5.03649 0
M  V30 533 H 50.2773 1.05763 2.80097 0
M  V30 534 H 47.8233 0.510029 1.34665 0
M  V30 535 H 49.7763 -1.00968 4.09125 0
M  V30 536 H 48.5003 -1.44688 2.92802 0
M  V30 537 H 47.1593 0.569739 3.62146 0
M  V30 538 H 46.8073 -1.62973 4.75866 0
M  V30 539 H 46.5073 -0.269942 5.8698 0
M  V30 540 H 48.0313 -1.19485 5.98795 0
M  V30 541 H 49.4453 1.04918 5.63618 0
M  V30 542 H 47.8423 1.83662 5.71304 0
M  V30 543 H 48.9123 2.16592 4.33839 0
M  V30 544 N 50.2554 -1.46986 0.568584 0
M  V30 545 C 51.6714 -1.57946 0.229189 0
M  V30 546 C 51.8714 -1.56567 -1.26843 0
M  V30 547 O 50.9274 -1.47511 -2.04931 0
M  V30 548 C 52.2404 -2.87963 0.865909 0
M  V30 549 C 53.7884 -3.01568 0.838188 0
M  V30 550 C 54.2634 -4.34301 1.45419 0
M  V30 551 N 55.7544 -4.40965 1.41788 0
M  V30 552 C 56.4894 -5.42256 1.86403 0
M  V30 553 N 55.9854 -6.50297 2.38926 0
M  V30 554 N 57.7784 -5.3337 1.77405 0
M  V30 555 H 49.9294 -1.46126 1.54146 0
M  V30 556 H 52.1924 -0.696156 0.643484 0
M  V30 557 H 51.8984 -2.94742 1.91886 0
M  V30 558 H 51.7724 -3.75423 0.365687 0
M  V30 559 H 54.1594 -2.94379 -0.206106 0
M  V30 560 H 54.2404 -2.1562 1.37629 0
M  V30 561 H 53.8844 -4.42247 2.49761 0
M  V30 562 H 53.8144 -5.19 0.891435 0
M  V30 563 H 56.3054 -3.63484 1.03381 0
M  V30 564 H 56.6184 -7.23777 2.70863 0
M  V30 565 H 54.9634 -6.51155 2.42944 0
M  V30 566 H 58.1544 -4.47865 1.3614 0
M  V30 567 H 58.3274 -6.12169 2.12492 0
M  V30 568 N 51.7335 -0.305618 -1.54608 0
M  V30 569 C 52.6635 0.561482 -2.26649 0
M  V30 570 C 53.6445 1.13415 -1.26772 0
M  V30 571 O 54.8295 1.16262 -1.55553 0
M  V30 572 C 51.9595 1.73122 -3.01075 0
M  V30 573 C 50.9135 1.2887 -4.08138 0
M  V30 574 C 50.2395 2.54396 -4.70305 0
M  V30 575 C 51.5395 0.416578 -5.20636 0
M  V30 576 H 53.2335 -0.0393902 -2.99374 0
M  V30 577 H 50.7795 -0.020385 -1.43986 0
M  V30 578 H 52.7325 2.34396 -3.50195 0
M  V30 579 H 51.4565 2.3584 -2.25936 0
M  V30 580 H 50.1155 0.698991 -3.59875 0
M  V30 581 H 49.7635 3.15439 -3.918 0
M  V30 582 H 49.4635 2.25486 -5.42614 0
M  V30 583 H 50.9875 3.16464 -5.2219 0
M  V30 584 H 52.4015 0.935116 -5.65622 0
M  V30 585 H 50.7985 0.221046 -5.99693 0
M  V30 586 H 51.8685 -0.557162 -4.81688 0
M  V30 587 N 53.2116 1.57565 -0.0334293 0
M  V30 588 C 54.1746 2.09393 0.932048 0
M  V30 589 C 55.1746 1.00986 1.25134 0
M  V30 590 O 56.3646 1.27129 1.19096 0
M  V30 591 C 53.4966 2.56338 2.2473 0
M  V30 592 H 54.6896 2.95984 0.483085 0
M  V30 593 H 52.2426 1.54819 0.21468 0
M  V30 594 H 52.9776 1.7309 2.74245 0
M  V30 595 H 52.7626 3.35542 2.02865 0
M  V30 596 H 54.2526 2.96646 2.93923 0
M  V30 597 N 54.6897 -0.239769 1.55765 0
M  V30 598 C 55.6197 -1.30052 1.9393 0
M  V30 599 C 56.6007 -1.49839 0.805132 0
M  V30 600 O 57.7857 -1.62328 1.06599 0
M  V30 601 C 54.9157 -2.65391 2.2402 0
M  V30 602 C 53.8697 -2.60289 3.39755 0
M  V30 603 C 53.1957 -3.99489 3.55405 0
M  V30 604 C 54.4957 -2.16654 4.75246 0
M  V30 605 H 56.1897 -0.983573 2.82783 0
M  V30 606 H 53.7357 -0.471701 1.36055 0
M  V30 607 H 55.6887 -3.3974 2.49308 0
M  V30 608 H 54.4127 -2.98736 1.32 0
M  V30 609 H 53.0717 -1.88398 3.14487 0
M  V30 610 H 52.7197 -4.30112 2.60793 0
M  V30 611 H 52.4197 -3.96962 4.33238 0
M  V30 612 H 53.9437 -4.75528 3.83022 0
M  V30 613 H 55.3577 -2.80737 4.99859 0
M  V30 614 H 53.7547 -2.25223 5.56232 0
M  V30 615 H 54.8247 -1.11835 4.71827 0
M  V30 616 N 56.1678 -1.49265 -0.50573 0
M  V30 617 C 57.4148 -1.58513 -1.26015 0
M  V30 618 C 57.7428 -0.26972 -1.92621 0
M  V30 619 O 56.9978 0.741997 -1.81088 0
M  V30 620 C 57.2968 -2.69008 -2.35308 0
M  V30 621 C 56.9628 -4.10662 -1.86192 0
M  V30 622 C 55.6248 -4.49212 -1.72516 0
M  V30 623 C 57.9768 -4.99336 -1.49375 0
M  V30 624 C 55.3048 -5.74214 -1.20394 0
M  V30 625 C 57.6568 -6.24852 -0.987072 0
M  V30 626 C 56.3208 -6.62236 -0.836669 0
M  V30 627 H 55.5908 -0.580041 -0.461122 0
M  V30 628 H 58.2378 -1.83078 -0.561665 0
M  V30 629 H 56.5428 -2.38396 -3.10926 0
M  V30 630 H 58.2398 -2.73373 -2.93374 0
M  V30 631 H 54.8298 -3.8023 -1.97795 0
M  V30 632 H 59.0138 -4.70212 -1.5879 0
M  V30 633 H 54.2698 -6.01883 -1.07458 0
M  V30 634 H 58.4438 -6.92944 -0.692983 0
M  V30 635 H 56.0708 -7.58979 -0.430607 0
M  V30 636 N 57.6459 0.756429 -1.3826 0
M  V30 637 C 58.5939 1.89149 -1.35372 0
M  V30 638 C 59.5879 1.67691 -0.24004 0
M  V30 639 O 60.7939 1.75294 -0.408919 0
M  V30 640 H 57.1689 0.622271 -0.422236 0
M  V30 641 H 59.1399 1.88701 -2.31159 0
M  V30 642 C 57.8889 3.26599 -1.19284 0
M  V30 643 H 57.2119 3.43695 -2.0424 0
M  V30 644 H 58.6519 4.06274 -1.21316 0
M  V30 645 C 57.1109 3.3675 0.100454 0
M  V30 646 O 57.6409 3.86951 1.07851 0
M  V30 647 N 55.8469 2.90179 0.15633 0
M  V30 648 H 55.3939 2.49517 -0.640253 0
M  V30 649 H 55.3519 2.97352 1.02123 0
M  V30 650 N 59.124 1.23083 0.984299 0
M  V30 651 C 60.535 1.05609 1.5396 0
M  V30 652 C 60.886 -0.377793 1.92528 0
M  V30 653 O 60.011 -1.26398 1.75649 0
M  V30 654 C 60.606 1.91087 2.7977 0
M  V30 655 C 59.165 1.77885 3.31713 0
M  V30 656 C 58.312 1.87028 2.04733 0
M  V30 657 H 61.263 1.36802 0.804419 0
M  V30 658 H 61.284 1.43336 3.5247 0
M  V30 659 H 60.796 2.9544 2.51668 0
M  V30 660 H 58.897 0.762995 3.64704 0
M  V30 661 H 59.01 2.61047 4.01735 0
M  V30 662 H 57.374 1.30565 2.18689 0
M  V30 663 H 58.157 2.92929 1.79017 0
M  V30 664 N 60.6021 -1.18246 1.0419 0
M  V30 665 C 61.8791 -1.84121 0.660208 0
M  V30 666 C 62.2591 -1.92778 -0.860221 0
M  V30 667 O 61.6071 -1.45464 -1.76217 0
M  V30 668 C 61.8171 -3.22355 1.33747 0
M  V30 669 C 63.1651 -3.98376 1.46906 0
M  V30 670 O 64.1891 -3.31799 1.29568 0
M  V30 671 O 63.0481 -5.17665 1.75171 0
M  V30 672 H 60.1421 -0.794036 0.231161 0
M  V30 673 H 62.6881 -1.25628 1.14087 0
M  V30 674 H 61.4601 -3.10964 2.37522 0
M  V30 675 H 61.0831 -3.88506 0.845515 0
M  V30 676 N 62.0802 -0.821533 -1.34494 0
M  V30 677 C 63.3262 -0.409552 -1.98622 0
M  V30 678 C 63.6592 1.0244 -1.64984 0
M  V30 679 O 62.9342 1.71325 -0.920758 0
M  V30 680 C 63.2172 -0.610458 -3.54888 0
M  V30 681 C 63.0702 -2.09043 -3.98273 0
M  V30 682 C 64.3892 -0.0455379 -4.40076 0
M  V30 683 H 61.5082 -0.15028 -0.721516 0
M  V30 684 H 64.1502 -1.03384 -1.59411 0
M  V30 685 H 62.3002 -0.079044 -3.8842 0
M  V30 686 H 63.9722 -2.68537 -3.75081 0
M  V30 687 H 62.2152 -2.58139 -3.48635 0
M  V30 688 H 62.8862 -2.18182 -5.07051 0
M  V30 689 H 65.3622 -0.499557 -4.1309 0
M  V30 690 H 64.2382 -0.215922 -5.48475 0
M  V30 691 H 64.4992 1.04939 -4.29465 0
M  V30 692 N 63.5583 1.46682 -0.576371 0
M  V30 693 C 64.7983 2.04306 -0.0621356 0
M  V30 694 C 65.1623 1.4389 1.2712 0
M  V30 695 O 66.3633 1.92675 1.87429 0
M  V30 696 C 64.6343 3.57399 0.00927922 0
M  V30 697 S 66.1933 4.36309 0.466859 0
M  V30 698 H 63.0113 0.710167 -0.0344016 0
M  V30 699 H 65.6133 1.79807 -0.767437 0
M  V30 700 H 64.3173 3.98889 -0.965178 0
M  V30 701 H 63.8483 3.86424 0.737547 0
M  V30 702 H 65.8633 4.6533 1.72287 0
M  V30 703 N 65.0364 0.313813 1.54444 0
M  V30 704 C 66.2824 -0.284918 2.01395 0
M  V30 705 C 66.6374 -1.50537 1.19818 0
M  V30 706 O 65.9304 -1.89692 0.269748 0
M  V30 707 C 66.1244 -0.680386 3.50864 0
M  V30 708 C 65.9534 0.500198 4.4691 0
M  V30 709 C 64.7234 0.996248 4.95382 0
M  V30 710 C 66.9214 1.34928 4.96285 0
M  V30 711 N 64.9034 2.14226 5.75309 0
M  V30 712 C 66.2744 2.3426 5.7404 0
M  V30 713 C 68.3294 1.37818 4.78446 0
M  V30 714 C 67.0324 3.36272 6.35856 0
M  V30 715 C 69.0584 2.38695 5.4109 0
M  V30 716 C 68.4204 3.36755 6.18688 0
M  V30 717 H 64.5194 -0.0683689 0.779006 0
M  V30 718 H 67.1034 0.44664 1.89508 0
M  V30 719 H 65.2744 -1.38109 3.63016 0
M  V30 720 H 67.0064 -1.25975 3.84594 0
M  V30 721 H 63.7614 0.56912 4.70168 0
M  V30 722 H 64.1854 2.72005 6.19953 0
M  V30 723 H 68.8274 0.633747 4.18023 0
M  V30 724 H 66.5454 4.11627 6.95405 0
M  V30 725 H 70.1314 2.41721 5.29209 0
M  V30 726 H 69.0114 4.13535 6.66302 0
M  V30 727 N 66.5145 -1.57545 0.0417849 0
M  V30 728 C 67.7915 -1.83642 -0.673433 0
M  V30 729 C 68.1715 -0.928298 -1.89594 0
M  V30 730 O 67.5195 0.0129955 -2.28496 0
M  V30 731 C 67.7295 -3.33155 -1.03964 0
M  V30 732 C 69.0775 -3.99941 -1.42592 0
M  V30 733 O 70.1015 -3.37725 -1.13226 0
M  V30 734 O 68.9605 -5.09619 -1.9736 0
M  V30 735 H 66.0545 -0.757638 -0.331533 0
M  V30 736 H 68.6005 -1.69554 0.070433 0
M  V30 737 H 67.3725 -3.9093 -0.170098 0
M  V30 738 H 66.9955 -3.52396 -1.84126 0
M  V30 739 N 67.9926 0.231505 -1.5589 0
M  V30 740 C 69.4086 0.580748 -1.48659 0
M  V30 741 C 69.6086 1.87617 -0.73498 0
M  V30 742 O 68.6646 2.51046 -0.270586 0
M  V30 743 C 69.9776 0.669202 -2.93159 0
M  V30 744 C 71.5256 0.760499 -3.03621 0
M  V30 745 C 72.0006 0.880383 -4.49459 0
M  V30 746 N 73.4916 0.944861 -4.53461 0
M  V30 747 C 74.2266 1.05716 -5.63571 0
M  V30 748 N 73.7226 1.13403 -6.83456 0
M  V30 749 N 75.5156 1.09152 -5.514 0
M  V30 750 H 67.6666 -0.618695 -2.03189 0
M  V30 751 H 69.9296 -0.215728 -0.923128 0
M  V30 752 H 69.6356 -0.212904 -3.51055 0
M  V30 753 H 69.5096 1.5361 -3.44505 0
M  V30 754 H 71.8966 1.63305 -2.45796 0
M  V30 755 H 71.9776 -0.131864 -2.5546 0
M  V30 756 H 71.6216 0.0123284 -5.07899 0
M  V30 757 H 71.5516 1.78802 -4.95316 0
M  V30 758 H 74.0426 0.896176 -3.6712 0
M  V30 759 H 74.3556 1.21921 -7.63122 0
M  V30 760 H 72.7006 1.10333 -6.86186 0
M  V30 761 H 75.8916 1.02805 -4.56671 0
M  V30 762 H 76.0646 1.17558 -6.37247 0
M  V30 763 N 69.4707 1.49531 0.497807 0
M  V30 764 C 70.4187 1.66926 1.61983 0
M  V30 765 C 71.4127 0.535167 1.60724 0
M  V30 766 O 72.6187 0.714896 1.65195 0
M  V30 767 H 68.9937 0.526415 0.537021 0
M  V30 768 H 70.9647 2.61098 1.44465 0
M  V30 769 C 69.7137 1.75602 3.00099 0
M  V30 770 H 69.0367 2.62244 3.01775 0
M  V30 771 H 70.4767 1.91807 3.78135 0
M  V30 772 C 68.9357 0.501543 3.33146 0
M  V30 773 O 69.4657 -0.371342 3.9998 0
M  V30 774 N 67.6717 0.363531 2.88317 0
M  V30 775 H 67.2187 1.07485 2.34104 0
M  V30 776 H 67.1767 -0.474728 3.10795 0
M  V30 777 N 70.9488 -0.749086 1.3866 0
M  V30 778 C 71.8968 -1.88428 1.36373 0
M  V30 779 C 72.8908 -1.67561 0.248929 0
M  V30 780 O 74.0968 -1.75074 0.41821 0
M  V30 781 H 70.4718 -0.620023 0.42553 0
M  V30 782 H 72.4428 -1.87473 2.32156 0
M  V30 783 C 71.1918 -3.25961 1.21014 0
M  V30 784 H 70.5148 -3.42607 2.06059 0
M  V30 785 H 71.9548 -4.05625 1.23469 0
M  V30 786 C 70.4138 -3.36799 -0.0825941 0
M  V30 787 O 70.9438 -3.87517 -1.05797 0
M  V30 788 N 69.1498 -2.90258 -0.140939 0
M  V30 789 H 68.6968 -2.49174 0.653477 0
M  V30 790 H 68.6548 -2.97889 -1.00545 0
M  V30 791 N 72.4269 -1.23603 -0.977757 0
M  V30 792 C 73.8379 -1.06424 -1.53398 0
M  V30 793 C 74.1889 0.367578 -1.92726 0
M  V30 794 O 73.3139 1.25465 -1.76316 0
M  V30 795 C 73.9089 -1.92568 -2.78753 0
M  V30 796 C 72.4679 -1.79642 -3.30765 0
M  V30 797 C 71.6149 -1.88111 -2.03739 0
M  V30 798 H 74.5659 -1.37227 -0.797152 0
M  V30 799 H 74.5869 -1.45203 -3.51705 0
M  V30 800 H 74.0989 -2.96771 -2.50098 0
M  V30 801 H 72.1999 -0.782325 -3.64294 0
M  V30 802 H 72.3129 -2.63174 -4.00345 0
M  V30 803 H 70.6769 -1.31723 -2.17994 0
M  V30 804 H 71.4599 -2.93875 -1.77461 0
M  V30 805 N 73.905 1.17692 -1.04816 0
M  V30 806 C 74.815 2.25229 -0.65643 0
M  V30 807 C 75.831 1.71018 0.320761 0
M  V30 808 O 77.007 2.00649 0.173805 0
M  V30 809 C 74.072 3.46684 -0.0332629 0
M  V30 810 C 73.133 4.15997 -1.06042 0
M  V30 811 C 72.366 5.31654 -0.466893 0
M  V30 812 O 72.589 5.65777 0.724758 0
M  V30 813 O 71.523 5.89831 -1.1993 0
M  V30 814 H 75.349 2.61016 -1.55255 0
M  V30 815 H 72.934 1.24919 -0.81949 0
M  V30 816 H 74.816 4.20234 0.313256 0
M  V30 817 H 73.491 3.12703 0.836566 0
M  V30 818 H 72.398 3.44482 -1.45886 0
M  V30 819 H 73.731 4.53996 -1.90127 0
M  V30 820 N 75.3831 0.828654 1.34056 0
M  V30 821 C 76.7941 0.477534 1.8049 0
M  V30 822 C 77.1451 -1.00258 1.6865 0
M  V30 823 O 76.2701 -1.78057 1.22982 0
M  V30 824 C 76.8651 0.860018 3.27703 0
M  V30 825 C 75.4241 0.561185 3.72193 0
M  V30 826 C 74.5711 1.07385 2.55663 0
M  V30 827 H 77.5221 1.0183 1.21722 0
M  V30 828 H 77.5431 0.166038 3.80138 0
M  V30 829 H 77.0551 1.93731 3.36288 0
M  V30 830 H 75.1561 -0.506465 3.69142 0
M  V30 831 H 75.2691 1.10926 4.66082 0
M  V30 832 H 73.6331 0.495149 2.49841 0
M  V30 833 H 74.4161 2.15771 2.67016 0
M  V30 834 N 76.8612 -1.46375 0.584142 0
M  V30 835 C 78.1072 -2.03248 0.0787103 0
M  V30 836 C 78.4622 -1.44737 -1.26763 0
M  V30 837 O 77.7552 -0.603625 -1.81843 0
M  V30 838 C 77.9492 -3.57373 -0.0439342 0
M  V30 839 C 77.7782 -4.30831 1.28897 0
M  V30 840 C 76.5482 -4.69683 1.8635 0
M  V30 841 C 78.7462 -4.64278 2.21248 0
M  V30 842 N 76.7282 -5.27898 3.13365 0
M  V30 843 C 78.0992 -5.23078 3.32851 0
M  V30 844 C 80.1542 -4.46209 2.20911 0
M  V30 845 C 78.8572 -5.65715 4.44251 0
M  V30 846 C 80.8832 -4.89864 3.31341 0
M  V30 847 C 80.2452 -5.48736 4.41665 0
M  V30 848 H 76.3442 -0.778714 0.0716144 0
M  V30 849 H 78.9282 -1.78509 0.777355 0
M  V30 850 H 77.0992 -3.81823 -0.711749 0
M  V30 851 H 78.8312 -4.00892 -0.553881 0
M  V30 852 H 75.5862 -4.52488 1.39826 0
M  V30 853 H 76.0102 -5.61525 3.78178 0
M  V30 854 H 80.6522 -4.00027 1.36888 0
M  V30 855 H 78.3702 -6.10875 5.29015 0
M  V30 856 H 81.9562 -4.77634 3.322 0
M  V30 857 H 80.8362 -5.81898 5.25704 0
M  V30 858 N 78.3393 -0.321999 -1.54275 0
M  V30 859 C 79.2873 0.560206 -2.25753 0
M  V30 860 C 80.2813 1.11984 -1.27106 0
M  V30 861 O 81.4873 1.06806 -1.44888 0
M  V30 862 H 77.8623 0.199304 -0.725108 0
M  V30 863 H 79.8333 -0.0649365 -2.98329 0
M  V30 864 C 78.5823 1.71023 -3.02731 0
M  V30 865 H 77.9053 1.28885 -3.78456 0
M  V30 866 H 79.3453 2.30314 -3.55993 0
M  V30 867 C 77.8043 2.62692 -2.10938 0
M  V30 868 O 78.3343 3.64364 -1.6912 0
M  V30 869 N 76.5403 2.30891 -1.76459 0
M  V30 870 H 76.0873 1.48253 -2.10663 0
M  V30 871 H 76.0453 2.92487 -1.1532 0
M  V30 872 N 79.8174 1.5752 -0.0501392 0
M  V30 873 C 80.7644 2.1147 0.924603 0
M  V30 874 C 81.7344 1.02182 1.30951 0
M  V30 875 O 82.9194 1.29723 1.39916 0
M  V30 876 C 80.0594 2.66337 2.19451 0
M  V30 877 C 79.1724 3.89708 1.86418 0
M  V30 878 C 78.3074 4.32893 3.07859 0
M  V30 879 C 77.3464 5.48967 2.70742 0
M  V30 880 N 76.4834 5.87211 3.84874 0
M  V30 881 H 81.3234 2.94465 0.457639 0
M  V30 882 H 78.8604 1.45531 0.214266 0
M  V30 883 H 80.8184 2.96247 2.93758 0
M  V30 884 H 79.4484 1.86141 2.63726 0
M  V30 885 H 78.5004 3.66396 1.02264 0
M  V30 886 H 79.8124 4.74074 1.55096 0
M  V30 887 H 78.9664 4.6435 3.90466 0
M  V30 888 H 77.7054 3.47336 3.42358 0
M  V30 889 H 76.7104 5.17183 1.86551 0
M  V30 890 H 77.9354 6.3624 2.37436 0
M  V30 891 H 75.8814 5.04607 4.19175 0
M  V30 892 H 75.7984 6.66266 3.57247 0
M  V30 893 H 77.0664 6.23282 4.68123 0
M  V30 894 N 81.2955 -0.223234 1.56011 0
M  V30 895 C 82.2255 -1.27988 1.95298 0
M  V30 896 C 83.2065 -1.48976 0.820979 0
M  V30 897 O 84.3915 -1.61188 1.08315 0
M  V30 898 C 81.5215 -2.63 2.26822 0
M  V30 899 C 80.4755 -2.56671 3.42497 0
M  V30 900 C 79.8015 -3.95697 3.59622 0
M  V30 901 C 81.1015 -2.11601 4.77517 0
M  V30 902 H 82.7955 -0.953525 2.8381 0
M  V30 903 H 80.3415 -0.457244 1.36548 0
M  V30 904 H 82.2945 -3.37077 2.52898 0
M  V30 905 H 81.0185 -2.9732 1.35161 0
M  V30 906 H 79.6775 -1.85051 3.16467 0
M  V30 907 H 79.3255 -4.27322 2.6534 0
M  V30 908 H 79.0255 -3.92345 4.37424 0
M  V30 909 H 80.5495 -4.71438 3.88044 0
M  V30 910 H 81.9635 -2.7542 5.02809 0
M  V30 911 H 80.3605 -2.19311 5.5859 0
M  V30 912 H 81.4305 -1.06824 4.72987 0
M  V30 913 N 82.7736 -1.49793 -0.48987 0
M  V30 914 C 84.0216 -1.59525 -1.24081 0
M  V30 915 C 84.3426 -0.288953 -1.92847 0
M  V30 916 O 83.6126 0.692436 -1.83254 0
M  V30 917 H 82.1926 -0.587796 -0.460983 0
M  V30 918 H 84.8546 -1.86477 -0.566778 0
M  V30 919 H 83.9506 -2.39696 -1.99881 0
M  V30 920 N 84.2517 0.741722 -1.39055 0
M  V30 921 C 85.6627 1.31966 -1.32068 0
M  V30 922 C 86.0137 1.96192 0.0180797 0
M  V30 923 O 85.1387 1.95861 0.920196 0
M  V30 924 C 85.7337 2.39954 -2.39181 0
M  V30 925 C 84.2927 2.93438 -2.35735 0
M  V30 926 C 83.4397 1.66936 -2.21422 0
M  V30 927 H 86.3907 0.539721 -1.4924 0
M  V30 928 H 86.4117 3.20182 -2.05581 0
M  V30 929 H 85.9237 1.9318 -3.36605 0
M  V30 930 H 84.0247 3.4451 -1.41929 0
M  V30 931 H 84.1377 3.4701 -3.30335 0
M  V30 932 H 82.5017 1.91016 -1.68478 0
M  V30 933 H 83.2847 1.22224 -3.20806 0
M  V30 934 N 85.7298 1.2412 0.971189 0
M  V30 935 C 86.6778 1.02812 2.08644 0
M  V30 936 C 87.6718 -0.0358403 1.69362 0
M  V30 937 O 88.8778 0.118429 1.7961 0
M  V30 938 H 85.2528 0.315428 0.682649 0
M  V30 939 H 87.2238 1.97397 2.23779 0
M  V30 940 C 85.9728 0.645874 3.41649 0
M  V30 941 H 85.2958 1.45632 3.72332 0
M  V30 942 H 86.7358 0.536366 4.20594 0
M  V30 943 C 85.1948 -0.646713 3.30635 0
M  V30 944 O 85.7248 -1.69338 3.64263 0
M  V30 945 N 83.9308 -0.626115 2.83775 0
M  V30 946 H 83.4778 0.225988 2.56607 0
M  V30 947 H 83.4358 -1.49117 2.76788 0
M  V30 948 N 87.2079 -1.17134 1.05439 0
M  V30 949 C 88.4849 -1.83411 0.679699 0
M  V30 950 C 88.8649 -1.9368 -0.839726 0
M  V30 951 O 88.2129 -1.47325 -1.74664 0
M  V30 952 C 88.4229 -3.20918 1.37159 0
M  V30 953 C 89.7709 -3.96796 1.51123 0
M  V30 954 O 90.7949 -3.30406 1.3308 0
M  V30 955 O 89.6539 -5.15778 1.80651 0
M  V30 956 H 86.7479 -0.79154 0.239569 0
M  V30 957 H 89.2939 -1.24411 1.15413 0
M  V30 958 H 88.0659 -3.08428 2.40807 0
M  V30 959 H 87.6889 -3.87587 0.886674 0
M  V30 960 N 88.686 -0.835752 -1.33615 0
M  V30 961 C 89.618 -0.224151 -2.28101 0
M  V30 962 C 90.631 0.593331 -1.51603 0
M  V30 963 O 91.82 0.420911 -1.73466 0
M  V30 964 C 88.92 0.703309 -3.31522 0
M  V30 965 C 88.093 -0.0741528 -4.37337 0
M  V30 966 C 87.152 0.776176 -5.20444 0
M  V30 967 O 86.178 0.216506 -5.68788 0
M  V30 968 N 87.38 2.09401 -5.41416 0
M  V30 969 H 90.145 -1.03598 -2.81225 0
M  V30 970 H 87.706 -0.69392 -1.46275 0
M  V30 971 H 89.698 1.27707 -3.84022 0
M  V30 972 H 88.268 1.41585 -2.78698 0
M  V30 973 H 87.488 -0.82928 -3.85378 0
M  V30 974 H 88.776 -0.608863 -5.05144 0
M  V30 975 H 88.174 2.57229 -5.03835 0
M  V30 976 H 86.731 2.61633 -5.96985 0
M  V30 977 N 90.1641 1.46063 -0.591896 0
M  V30 978 C 91.3941 2.06418 -0.0867676 0
M  V30 979 C 91.8021 1.43975 1.22751 0
M  V30 980 O 91.1451 0.542531 1.75506 0
M  V30 981 C 91.2071 3.59213 0.143725 0
M  V30 982 C 90.8711 4.439 -1.08635 0
M  V30 983 C 91.8681 4.79864 -2.00067 0
M  V30 984 C 89.5531 4.84896 -1.31077 0
M  V30 985 C 91.5471 5.55661 -3.12282 0
M  V30 986 C 89.2341 5.6045 -2.43596 0
M  V30 987 C 90.2321 5.95747 -3.34027 0
M  V30 988 O 89.9201 6.69772 -4.4459 0
M  V30 989 H 89.6521 0.673443 -0.0587447 0
M  V30 990 H 92.2061 1.88539 -0.814994 0
M  V30 991 H 90.4361 3.75433 0.926668 0
M  V30 992 H 92.1251 4.01463 0.5985 0
M  V30 993 H 92.8911 4.48763 -1.83947 0
M  V30 994 H 88.7701 4.56867 -0.61594 0
M  V30 995 H 92.3141 5.8313 -3.82891 0
M  V30 996 H 88.2111 5.90965 -2.59674 0
M  V30 997 H 88.9791 6.88207 -4.43073 0
M  V30 998 N 91.6422 0.330177 1.54103 0
M  V30 999 C 92.5892 -0.532762 2.24567 0
M  V30 1000 C 93.5592 -1.10635 1.23892 0
M  V30 1001 O 94.7442 -1.14546 1.5259 0
M  V30 1002 C 91.8842 -1.6845 3.01195 0
M  V30 1003 C 90.9972 -1.13951 4.167 0
M  V30 1004 C 90.1322 -2.25746 4.80845 0
M  V30 1005 C 89.1712 -1.6853 5.88442 0
M  V30 1006 N 88.3082 -2.74014 6.46421 0
M  V30 1007 H 93.1482 0.0746905 2.97906 0
M  V30 1008 H 90.6852 0.048632 1.4702 0
M  V30 1009 H 92.6432 -2.36234 3.43874 0
M  V30 1010 H 91.2732 -2.26314 2.30178 0
M  V30 1011 H 90.3252 -0.35301 3.78758 0
M  V30 1012 H 91.6372 -0.680892 4.94131 0
M  V30 1013 H 90.7912 -3.01422 5.26526 0
M  V30 1014 H 89.5302 -2.74947 4.0281 0
M  V30 1015 H 88.5352 -0.913543 5.42157 0
M  V30 1016 H 89.7602 -1.20198 6.68378 0
M  V30 1017 H 87.7062 -3.22494 5.71256 0
M  V30 1018 H 87.6232 -2.32735 7.19285 0
M  V30 1019 H 88.8912 -3.49499 6.96757 0
M  V30 1020 N 93.1203 -1.57491 0.0584922 0
M  V30 1021 C 94.3673 -1.92978 -0.613648 0
M  V30 1022 C 94.6953 -0.937461 -1.70417 0
M  V30 1023 O 93.9503 0.049078 -1.95638 0
M  V30 1024 C 94.2493 -3.3513 -1.24188 0
M  V30 1025 C 93.9153 -4.50037 -0.278826 0
M  V30 1026 C 92.5773 -4.81198 -0.0138447 0
M  V30 1027 C 94.9293 -5.19807 0.380777 0
M  V30 1028 C 92.2573 -5.79473 0.918052 0
M  V30 1029 C 94.6093 -6.19079 1.30091 0
M  V30 1030 C 93.2733 -6.48665 1.57449 0
M  V30 1031 H 92.5433 -0.706157 -0.22455 0
M  V30 1032 H 95.1903 -1.91082 0.126533 0
M  V30 1033 H 93.4953 -3.33429 -2.05749 0
M  V30 1034 H 95.1923 -3.59871 -1.769 0
M  V30 1035 H 91.7823 -4.25726 -0.495539 0
M  V30 1036 H 95.9663 -4.95939 0.189158 0
M  V30 1037 H 91.2223 -6.00727 1.1374 0
M  V30 1038 H 95.3963 -6.7225 1.81804 0
M  V30 1039 H 93.0233 -7.24628 2.29822 0
M  V30 1040 N 94.5984 0.214957 -1.56127 0
M  V30 1041 C 95.8284 0.953707 -1.8327 0
M  V30 1042 C 96.2364 1.78181 -0.636262 0
M  V30 1043 O 95.5794 1.79191 0.404516 0
M  V30 1044 C 95.6414 1.91516 -3.0424 0
M  V30 1045 C 95.3054 1.27094 -4.38972 0
M  V30 1046 C 96.3024 0.657575 -5.15725 0
M  V30 1047 C 93.9874 1.28073 -4.85698 0
M  V30 1048 C 95.9814 0.0625968 -6.37369 0
M  V30 1049 C 93.6684 0.681914 -6.07283 0
M  V30 1050 C 94.6664 0.0739046 -6.8296 0
M  V30 1051 O 94.3544 -0.515582 -8.02245 0
M  V30 1052 H 94.0864 0.284764 -0.613095 0
M  V30 1053 H 96.6404 0.233283 -2.04071 0
M  V30 1054 H 94.8704 2.67475 -2.79274 0
M  V30 1055 H 96.5594 2.52001 -3.18198 0
M  V30 1056 H 97.3254 0.642288 -4.80728 0
M  V30 1057 H 93.2044 1.74337 -4.26764 0
M  V30 1058 H 96.7484 -0.412593 -6.96379 0
M  V30 1059 H 92.6454 0.694636 -6.41752 0
M  V30 1060 H 93.4134 -0.410544 -8.1747 0
M  V30 1061 N 96.0765 1.50051 0.48192 0
M  V30 1062 C 97.3015 1.64508 1.26301 0
M  V30 1063 C 97.7265 0.323851 1.85291 0
M  V30 1064 O 97.0845 -0.710969 1.66778 0
M  V30 1065 C 97.1325 2.7305 2.35533 0
M  V30 1066 O 96.2365 2.3355 3.39895 0
M  V30 1067 H 95.5775 0.549978 0.372048 0
M  V30 1068 H 98.1075 1.9636 0.574786 0
M  V30 1069 H 98.1175 2.95799 2.8101 0
M  V30 1070 H 96.7925 3.68946 1.91967 0
M  V30 1071 H 95.3695 2.21205 3.00204 0
M  V30 1072 N 97.5546 -0.734337 1.39446 0
M  V30 1073 C 98.8006 -1.49613 1.36908 0
M  V30 1074 C 99.1336 -1.94169 -0.0347829 0
M  V30 1075 O 98.4086 -1.66833 -0.999847 0
M  V30 1076 C 98.6916 -2.73534 2.34203 0
M  V30 1077 C 98.5446 -2.34993 3.83534 0
M  V30 1078 C 99.8636 -3.75635 2.29317 0
M  V30 1079 H 96.9826 -0.542714 0.498629 0
M  V30 1080 H 99.6246 -0.839597 1.70443 0
M  V30 1081 H 97.7746 -3.29553 2.05736 0
M  V30 1082 H 99.4466 -1.84601 4.22753 0
M  V30 1083 H 97.6896 -1.67213 4.00278 0
M  V30 1084 H 98.3606 -3.23738 4.47099 0
M  V30 1085 H 100.837 -3.29203 2.54489 0
M  V30 1086 H 99.7126 -4.60008 2.99472 0
M  V30 1087 H 99.9736 -4.22603 1.29842 0
M  V30 1088 N 99.0327 -1.24633 -0.964593 0
M  V30 1089 C 99.9807 -1.03917 -2.08096 0
M  V30 1090 C 100.975 0.0268581 -1.69379 0
M  V30 1091 O 102.181 -0.127952 -1.79545 0
M  V30 1092 H 98.5557 -0.319044 -0.680966 0
M  V30 1093 H 100.527 -1.98581 -2.22729 0
M  V30 1094 C 99.2757 -0.663983 -3.41301 0
M  V30 1095 H 98.5987 -1.47605 -3.71555 0
M  V30 1096 H 100.039 -0.558663 -4.20303 0
M  V30 1097 C 98.4977 0.629169 -3.30973 0
M  V30 1098 O 99.0277 1.67404 -3.65156 0
M  V30 1099 N 97.2337 0.611057 -2.84103 0
M  V30 1100 H 96.7807 -0.239593 -2.56483 0
M  V30 1101 H 96.7387 1.47647 -2.77575 0
M  V30 1102 N 100.511 1.16574 -1.06058 0
M  V30 1103 C 101.757 1.87324 -0.777022 0
M  V30 1104 C 102.09 1.81351 0.694645 0
M  V30 1105 O 101.365 1.22753 1.50871 0
M  V30 1106 C 101.648 3.36991 -1.26922 0
M  V30 1107 C 101.501 3.51667 -2.80447 0
M  V30 1108 C 102.82 4.3131 -0.87521 0
M  V30 1109 H 99.9388 0.680191 -0.28374 0
M  V30 1110 H 102.581 1.37036 -1.3161 0
M  V30 1111 H 100.731 3.79949 -0.81063 0
M  V30 1112 H 102.403 3.17664 -3.34495 0
M  V30 1113 H 100.646 2.93656 -3.19294 0
M  V30 1114 H 101.317 4.56766 -3.0995 0
M  V30 1115 H 103.793 3.9624 -1.27014 0
M  V30 1116 H 102.669 5.34545 -1.2471 0
M  V30 1117 H 102.93 4.41552 0.220071 0
M  V30 1118 N 101.989 0.842826 1.3317 0
M  V30 1119 C 103.266 0.362216 1.92217 0
M  V30 1120 C 103.646 -1.15289 1.76838 0
M  V30 1121 O 102.994 -1.96914 1.15919 0
M  V30 1122 C 103.204 0.813495 3.39387 0
M  V30 1123 C 104.552 0.823804 4.16532 0
M  V30 1124 O 105.576 0.757358 3.48055 0
M  V30 1125 O 104.435 0.915193 5.38782 0
M  V30 1126 H 101.529 0.103317 0.820521 0
M  V30 1127 H 104.075 0.928942 1.42017 0
M  V30 1128 H 102.847 1.85624 3.4447 0
M  V30 1129 H 102.47 0.223561 3.96971 0
M  V30 1130 N 103.467 -1.45747 0.599634 0
M  V30 1131 C 104.697 -2.06369 0.0977132 0
M  V30 1132 C 105.105 -1.44624 -1.21985 0
M  V30 1133 O 104.448 -0.551831 -1.75216 0
M  V30 1134 C 104.51 -3.59284 -0.124673 0
M  V30 1135 C 104.174 -4.43318 1.10987 0
M  V30 1136 C 105.171 -4.78796 2.02609 0
M  V30 1137 C 102.856 -4.84194 1.33647 0
M  V30 1138 C 104.85 -5.53997 3.15224 0
M  V30 1139 C 102.537 -5.5915 2.46565 0
M  V30 1140 C 103.535 -5.93968 3.37182 0
M  V30 1141 O 103.223 -6.67405 4.48136 0
M  V30 1142 H 102.955 -0.673122 0.0623153 0
M  V30 1143 H 105.509 -1.88104 0.824981 0
M  V30 1144 H 103.739 -3.75919 -0.906745 0
M  V30 1145 H 105.428 -4.01775 -0.577201 0
M  V30 1146 H 106.194 -4.47781 1.86325 0
M  V30 1147 H 102.073 -4.56534 0.64016 0
M  V30 1148 H 105.617 -5.81091 3.85978 0
M  V30 1149 H 101.514 -5.89579 2.62805 0
M  V30 1150 H 102.282 -6.85847 4.46717 0
M  V30 1151 N 104.945 -0.338344 -1.53925 0
M  V30 1152 C 106.17 0.263987 -2.05713 0
M  V30 1153 C 106.595 1.43847 -1.21201 0
M  V30 1154 O 105.953 1.79904 -0.224535 0
M  V30 1155 C 106.001 0.662 -3.54471 0
M  V30 1156 O 105.105 1.76265 -3.72833 0
M  V30 1157 H 104.446 0.0448722 -0.662482 0
M  V30 1158 H 106.976 -0.491048 -1.9862 0
M  V30 1159 H 106.986 0.940594 -3.9701 0
M  V30 1160 H 105.661 -0.196937 -4.15433 0
M  V30 1161 H 104.238 1.48173 -3.42198 0
M  V30 1162 N 106.423 1.57458 -0.0668435 0
M  V30 1163 C 107.37 2.12439 0.902122 0
M  V30 1164 C 108.34 1.03565 1.2986 0
M  V30 1165 O 109.525 1.312 1.38532 0
M  V30 1166 C 106.665 2.6865 2.16614 0
M  V30 1167 C 105.778 3.91663 1.82274 0
M  V30 1168 C 104.913 4.36134 3.0325 0
M  V30 1169 C 103.952 5.51808 2.64904 0
M  V30 1170 N 103.089 5.9126 3.78624 0
M  V30 1171 H 107.929 2.94934 0.426382 0
M  V30 1172 H 105.466 1.4575 0.198819 0
M  V30 1173 H 107.424 2.99346 2.90599 0
M  V30 1174 H 106.054 1.88928 2.61737 0
M  V30 1175 H 105.106 3.6746 0.983719 0
M  V30 1176 H 106.418 4.75693 1.50059 0
M  V30 1177 H 105.572 4.68465 3.85519 0
M  V30 1178 H 104.311 3.50948 3.38655 0
M  V30 1179 H 103.316 5.19133 1.81055 0
M  V30 1180 H 104.541 6.38722 2.30675 0
M  V30 1181 H 102.487 5.09024 4.138 0
M  V30 1182 H 102.404 6.70018 3.5016 0
M  V30 1183 H 103.672 6.28212 4.61486 0
M  V30 1184 N 107.901 -0.206675 1.56239 0
M  V30 1185 C 108.831 -1.25909 1.96645 0
M  V30 1186 C 109.812 -1.48097 0.836734 0
M  V30 1187 O 110.997 -1.6003 1.10019 0
M  V30 1188 C 108.127 -2.6058 2.29599 0
M  V30 1189 C 107.081 -2.53024 3.452 0
M  V30 1190 C 106.407 -3.91861 3.63798 0
M  V30 1191 C 107.707 -2.06524 4.79734 0
M  V30 1192 H 109.401 -0.923369 2.84806 0
M  V30 1193 H 106.947 -0.442735 1.37025 0
M  V30 1194 H 108.9 -3.34375 2.56459 0
M  V30 1195 H 107.624 -2.95869 1.38307 0
M  V30 1196 H 106.283 -1.81684 3.18412 0
M  V30 1197 H 105.931 -4.24483 2.69857 0
M  V30 1198 H 105.631 -3.87683 4.4156 0
M  V30 1199 H 107.155 -4.67296 3.93022 0
M  V30 1200 H 108.569 -2.70072 5.05702 0
M  V30 1201 H 106.966 -2.13374 5.60885 0
M  V30 1202 H 108.036 -1.01802 4.74093 0
M  V30 1203 N 109.379 -1.50304 -0.473955 0
M  V30 1204 C 110.326 -1.68959 -1.57231 0
M  V30 1205 C 111.296 -0.530899 -1.57387 0
M  V30 1206 O 112.481 -0.761133 -1.74961 0
M  V30 1207 C 109.621 -1.7871 -2.95223 0
M  V30 1208 C 108.734 -3.06061 -3.04878 0
M  V30 1209 C 107.869 -3.06626 -4.33767 0
M  V30 1210 C 106.908 -4.28443 -4.37154 0
M  V30 1211 N 106.045 -4.26763 -5.5751 0
M  V30 1212 H 110.885 -2.6273 -1.40631 0
M  V30 1213 H 108.422 -1.30241 -0.683789 0
M  V30 1214 H 110.38 -1.82344 -3.75242 0
M  V30 1215 H 109.01 -0.883806 -3.10465 0
M  V30 1216 H 108.062 -3.11911 -2.17751 0
M  V30 1217 H 109.374 -3.96039 -3.0324 0
M  V30 1218 H 108.528 -3.08973 -5.22131 0
M  V30 1219 H 107.267 -2.14473 -4.3801 0
M  V30 1220 H 106.272 -4.2631 -3.47188 0
M  V30 1221 H 107.497 -5.2182 -4.34605 0
M  V30 1222 H 105.443 -3.37462 -5.62544 0
M  V30 1223 H 105.36 -5.10507 -5.57601 0
M  V30 1224 H 106.628 -4.33253 -6.48006 0
M  V30 1225 N 110.857 0.726932 -1.39834 0
M  V30 1226 C 111.804 1.841 -1.39197 0
M  V30 1227 C 112.774 1.642 -0.250502 0
M  V30 1228 O 113.959 1.85494 -0.446846 0
M  V30 1229 C 111.099 3.21697 -1.24919 0
M  V30 1230 C 110.212 3.53247 -2.48678 0
M  V30 1231 C 109.347 4.80289 -2.26928 0
M  V30 1232 C 108.386 5.04707 -3.4632 0
M  V30 1233 N 107.523 6.22956 -3.23836 0
M  V30 1234 H 112.363 1.83979 -2.34427 0
M  V30 1235 H 109.9 0.898876 -1.16442 0
M  V30 1236 H 111.858 4.01137 -1.1465 0
M  V30 1237 H 110.488 3.21076 -0.333153 0
M  V30 1238 H 109.54 2.68447 -2.69519 0
M  V30 1239 H 110.852 3.67205 -3.37582 0
M  V30 1240 H 110.006 5.67725 -2.13947 0
M  V30 1241 H 108.745 4.68519 -1.35431 0
M  V30 1242 H 107.75 4.1573 -3.5979 0
M  V30 1243 H 108.975 5.18357 -4.38729 0
M  V30 1244 H 106.921 6.12459 -2.35011 0
M  V30 1245 H 106.838 6.37539 -4.063 0
M  V30 1246 H 108.106 7.1321 -3.14566 0
M  V30 1247 N 112.336 1.25143 0.95797 0
M  V30 1248 C 113.246 1.06968 2.08794 0
M  V30 1249 C 114.262 0.00773911 1.73998 0
M  V30 1250 O 115.438 0.207972 2.00323 0
M  V30 1251 C 112.503 0.68691 3.39827 0
M  V30 1252 C 111.564 1.82641 3.88511 0
M  V30 1253 C 110.797 1.46181 5.1329 0
M  V30 1254 O 111.02 0.355971 5.69288 0
M  V30 1255 O 109.954 2.29085 5.566 0
M  V30 1256 H 113.78 2.01723 2.27027 0
M  V30 1257 H 111.365 1.04051 1.07209 0
M  V30 1258 H 113.247 0.485417 4.18595 0
M  V30 1259 H 111.922 -0.231417 3.22872 0
M  V30 1260 H 110.829 2.08274 3.10762 0
M  V30 1261 H 112.162 2.72386 4.09959 0
M  V30 1262 N 113.814 -1.1601 1.06675 0
M  V30 1263 C 115.23 -1.38622 0.790948 0
M  V30 1264 C 115.43 -1.92109 -0.607965 0
M  V30 1265 O 114.486 -2.12239 -1.36787 0
M  V30 1266 C 115.799 -2.36347 1.85905 0
M  V30 1267 C 117.347 -2.50023 1.88301 0
M  V30 1268 C 117.822 -3.51033 2.94176 0
M  V30 1269 N 119.313 -3.58563 2.93235 0
M  V30 1270 C 120.048 -4.36521 3.71803 0
M  V30 1271 N 119.544 -5.17869 4.602 0
M  V30 1272 N 121.337 -4.31541 3.60178 0
M  V30 1273 H 113.488 -0.796294 1.96908 0
M  V30 1274 H 115.751 -0.412597 0.853503 0
M  V30 1275 H 115.457 -2.04147 2.86386 0
M  V30 1276 H 115.331 -3.36042 1.71334 0
M  V30 1277 H 117.718 -2.81524 0.884769 0
M  V30 1278 H 117.799 -1.5035 2.06951 0
M  V30 1279 H 117.443 -3.20268 3.94196 0
M  V30 1280 H 117.373 -4.50445 2.72776 0
M  V30 1281 H 119.864 -3.00496 2.29152 0
M  V30 1282 H 120.177 -5.74578 5.16797 0
M  V30 1283 H 118.522 -5.17199 4.64253 0
M  V30 1284 H 121.713 -3.67051 2.90502 0
M  V30 1285 H 121.886 -4.9205 4.21653 0
M  V30 1286 N 115.292 -0.849877 -1.32721 0
M  V30 1287 C 116.703 -0.506188 -1.79707 0
M  V30 1288 C 117.054 0.975627 -1.70223 0
M  V30 1289 O 116.179 1.76078 -1.25799 0
M  V30 1290 C 116.774 -0.912044 -3.26293 0
M  V30 1291 C 115.333 -0.620326 -3.71253 0
M  V30 1292 C 114.48 -1.11439 -2.53922 0
M  V30 1293 H 117.431 -1.03754 -1.20087 0
M  V30 1294 H 117.452 -0.226493 -3.79825 0
M  V30 1295 H 116.964 -1.99057 -3.33164 0
M  V30 1296 H 115.065 0.447674 -3.69901 0
M  V30 1297 H 115.178 -1.18327 -4.64258 0
M  V30 1298 H 113.542 -0.534834 -2.49021 0
M  V30 1299 H 114.325 -2.19992 -2.6355 0
M  V30 1300 N 116.77 1.45427 -0.607355 0
M  V30 1301 C 118.047 1.9557 -0.0344566 0
M  V30 1302 C 118.427 1.54979 1.43334 0
M  V30 1303 O 117.775 0.812241 2.13576 0
M  V30 1304 C 117.985 3.48226 -0.232321 0
M  V30 1305 C 119.333 4.2445 -0.113001 0
M  V30 1306 O 120.357 3.55829 -0.162431 0
M  V30 1307 O 119.216 5.465 0.00209442 0
M  V30 1308 H 116.31 0.826222 0.0358667 0
M  V30 1309 H 118.856 1.55594 -0.6774 0
M  V30 1310 H 117.628 3.70739 -1.25174 0
M  V30 1311 H 117.251 3.95092 0.445896 0
M  V30 1312 N 118.248 0.346503 1.53744 0
M  V30 1313 C 119.495 -0.249104 2.00962 0
M  V30 1314 C 119.823 -1.5032 1.23426 0
M  V30 1315 O 119.078 -1.93217 0.310761 0
M  V30 1316 C 119.377 -0.605809 3.52228 0
M  V30 1317 C 119.043 0.551747 4.47512 0
M  V30 1318 C 117.705 0.86941 4.73281 0
M  V30 1319 C 120.057 1.32818 5.03993 0
M  V30 1320 C 117.385 1.96582 5.52786 0
M  V30 1321 C 119.737 2.41486 5.84694 0
M  V30 1322 C 118.401 2.73808 6.08757 0
M  V30 1323 H 117.671 -0.0911538 0.735372 0
M  V30 1324 H 120.318 0.475027 1.85515 0
M  V30 1325 H 118.623 -1.4107 3.65522 0
M  V30 1326 H 120.32 -1.07858 3.86222 0
M  V30 1327 H 116.91 0.294102 4.2759 0
M  V30 1328 H 121.094 1.09602 4.84047 0
M  V30 1329 H 116.35 2.22045 5.69654 0
M  V30 1330 H 120.524 3.02078 6.27473 0
M  V30 1331 H 118.151 3.58892 6.7015 0
M  V30 1332 O 119.765 -1.60064 0.214914 0
M  V30 1333 H 120.456 -1.90195 -0.366829 0
M  V30 END ATOM
M  V30 BEGIN BOND
M  V30 END BOND
M  V30 END CTAB
M  END
$$$$
