drugbank_target|O00444 Serine/threonine-protein kinase PLK4 (DB12010)
 OpenBabel12092121183D

  0  0  0     0  0            999 V3000
M  V30 BEGIN CTAB
M  V30 COUNTS 15199 15371 0 0 0
M  V30 BEGIN ATOM
M  V30 1 H -0.908 1.98254 -0.117106 0
M  V30 2 N 0 1.576 0 0
M  V30 3 C 0.933 2.03868 1.02534 0
M  V30 4 C 1.911 0.928543 1.3348 0
M  V30 5 O 3.095 1.19667 1.45644 0
M  V30 6 C 0.222 2.43627 2.35294 0
M  V30 7 C -0.732 3.65373 2.2001 0
M  V30 8 S 0.101 5.13292 1.52614 0
M  V30 9 C 1.257 5.56322 2.86805 0
M  V30 10 H 1.49 2.90518 0.631377 0
M  V30 11 H -0.977 1.52953 0.210867 0
M  V30 12 H 0.981 2.67203 3.11629 0
M  V30 13 H -0.358 1.57376 2.7183 0
M  V30 14 H -1.165 3.90944 3.18086 0
M  V30 15 H -1.563 3.418 1.51819 0
M  V30 16 H 0.729 5.58782 3.83104 0
M  V30 17 H 1.672 6.56266 2.65933 0
M  V30 18 H 2.08 4.83886 2.90714 0
M  V30 19 N 1.4781 -0.272755 1.55222 0
M  V30 20 C 2.4411 -1.32041 1.87344 0
M  V30 21 C 3.4411 -1.42342 0.74803 0
M  V30 22 O 4.6311 -1.41488 1.0162 0
M  V30 23 C 1.7631 -2.70173 2.07893 0
M  V30 24 H 2.9561 -1.04789 2.80997 0
M  V30 25 H 0.5091 -0.51083 1.47717 0
M  V30 26 H 1.2441 -3.02605 1.16622 0
M  V30 27 H 1.0291 -2.64082 2.89833 0
M  V30 28 H 2.5191 -3.45869 2.34017 0
M  V30 29 N 2.9562 -1.48159 -0.537278 0
M  V30 30 C 4.1842 -1.59454 -1.31841 0
M  V30 31 C 4.5992 -0.252065 -1.8711 0
M  V30 32 O 3.9562 0.757621 -1.66031 0
M  V30 33 C 4.0072 -2.63546 -2.47439 0
M  V30 34 O 3.7282 -3.92583 -1.94449 0
M  V30 35 C 5.2292 -2.85212 -3.39366 0
M  V30 36 H 2.4492 -0.53785 -0.401196 0
M  V30 37 H 4.9932 -1.93932 -0.648891 0
M  V30 38 H 3.1482 -2.31946 -3.1029 0
M  V30 39 H 3.5622 -4.49629 -2.70063 0
M  V30 40 H 5.0362 -3.61863 -4.16844 0
M  V30 41 H 5.5132 -1.93765 -3.94147 0
M  V30 42 H 6.1192 -3.18086 -2.82314 0
M  V30 43 N 4.4343 0.785586 -1.36625 0
M  V30 44 C 5.6743 1.55678 -1.32453 0
M  V30 45 C 6.0383 1.91769 0.0941089 0
M  V30 46 O 7.2393 2.67536 0.26042 0
M  V30 47 C 5.5103 2.79701 -2.22491 0
M  V30 48 S 7.0693 3.69907 -2.36038 0
M  V30 49 H 3.8873 0.533141 -0.470405 0
M  V30 50 H 6.4893 0.924953 -1.72235 0
M  V30 51 H 5.1933 2.51244 -3.24507 0
M  V30 52 H 4.7243 3.47854 -1.83742 0
M  V30 53 H 6.7393 4.71016 -1.56072 0
M  V30 54 N 5.9124 1.20967 1.01018 0
M  V30 55 C 7.1614 1.01796 1.74128 0
M  V30 56 C 7.4744 -0.449691 1.90361 0
M  V30 57 O 8.6804 -0.76068 2.60626 0
M  V30 58 C 7.1364 1.7727 3.13215 0
M  V30 59 C 6.7444 3.28171 3.04972 0
M  V30 60 C 8.4884 1.66489 3.90489 0
M  V30 61 C 6.3954 3.96156 4.39107 0
M  V30 62 H 5.3254 0.377276 0.652824 0
M  V30 63 H 7.9764 1.44651 1.12909 0
M  V30 64 H 6.3584 1.27205 3.75013 0
M  V30 65 H 7.5324 3.85499 2.52443 0
M  V30 66 H 5.8474 3.39437 2.41188 0
M  V30 67 H 8.4444 2.14617 4.89738 0
M  V30 68 H 8.7874 0.6222 4.11624 0
M  V30 69 H 9.3204 2.14003 3.35332 0
M  V30 70 H 6.0594 5.00604 4.23174 0
M  V30 71 H 5.5794 3.43617 4.91617 0
M  V30 72 H 7.2584 4.00774 5.07926 0
M  V30 73 N 7.3905 -1.2043 1.01659 0
M  V30 74 C 8.6385 -1.89423 0.704522 0
M  V30 75 C 8.9595 -1.79231 -0.768197 0
M  V30 76 O 8.2295 -1.1947 -1.55254 0
M  V30 77 H 6.8095 -0.701178 0.257602 0
M  V30 78 H 9.4715 -1.4626 1.28818 0
M  V30 79 H 8.5675 -2.96052 0.987916 0
M  V30 80 N 8.8686 -0.792821 -1.36206 0
M  V30 81 C 9.7786 -0.194808 -2.3379 0
M  V30 82 C 10.7946 0.654869 -1.61206 0
M  V30 83 O 11.9706 0.569856 -1.9317 0
M  V30 84 C 9.0356 0.657721 -3.40404 0
M  V30 85 C 8.0966 -0.210849 -4.28782 0
M  V30 86 C 7.3296 0.601086 -5.30304 0
M  V30 87 O 7.5526 1.83682 -5.40016 0
M  V30 88 O 6.4866 -0.000808277 -6.019 0
M  V30 89 H 10.3126 -1.00172 -2.86704 0
M  V30 90 H 7.8976 -0.554341 -1.38735 0
M  V30 91 H 9.7796 1.14375 -4.05581 0
M  V30 92 H 8.4546 1.44247 -2.89784 0
M  V30 93 H 7.3616 -0.743714 -3.66633 0
M  V30 94 H 8.6946 -0.959195 -4.82763 0
M  V30 95 N 10.3467 1.47872 -0.545128 0
M  V30 96 C 11.2937 2.29849 0.2093 0
M  V30 97 C 12.2637 1.38313 0.919707 0
M  V30 98 O 13.4487 1.67277 0.917772 0
M  V30 99 C 10.5887 3.22019 1.24088 0
M  V30 100 C 9.7017 4.2864 0.537778 0
M  V30 101 C 8.8367 5.07973 1.5536 0
M  V30 102 C 7.8757 6.06381 0.8348 0
M  V30 103 N 7.0127 6.78717 1.79688 0
M  V30 104 H 11.8527 2.93845 -0.49591 0
M  V30 105 H 9.3897 1.44848 -0.256389 0
M  V30 106 H 11.3477 3.73868 1.85144 0
M  V30 107 H 9.9777 2.59914 1.91428 0
M  V30 108 H 9.0297 3.7994 -0.187046 0
M  V30 109 H 10.3417 4.98793 -0.0258907 0
M  V30 110 H 9.4957 5.63912 2.23803 0
M  V30 111 H 8.2347 4.37693 2.15118 0
M  V30 112 H 7.2397 5.49631 0.136388 0
M  V30 113 H 8.4647 6.78665 0.24313 0
M  V30 114 H 6.4107 6.11177 2.38326 0
M  V30 115 H 6.3277 7.44998 1.28505 0
M  V30 116 H 7.5957 7.39237 2.47282 0
M  V30 117 N 11.8248 0.280983 1.55075 0
M  V30 118 C 13.0738 -0.334784 1.98902 0
M  V30 119 C 13.3868 -1.56534 1.17288 0
M  V30 120 O 14.5928 -2.25443 1.51287 0
M  V30 121 C 13.0488 -0.646994 3.54037 0
M  V30 122 C 12.6568 0.564085 4.44435 0
M  V30 123 C 14.4008 -1.22506 4.06439 0
M  V30 124 C 12.3078 0.226137 5.90967 0
M  V30 125 H 11.2378 -0.128866 0.742906 0
M  V30 126 H 13.8888 0.386556 1.79382 0
M  V30 127 H 12.2708 -1.42739 3.6938 0
M  V30 128 H 13.4448 1.34082 4.40861 0
M  V30 129 H 11.7598 1.0594 4.02698 0
M  V30 130 H 14.3568 -1.49182 5.13468 0
M  V30 131 H 14.6998 -2.16085 3.55827 0
M  V30 132 H 15.2328 -0.50682 3.94558 0
M  V30 133 H 11.9718 1.12996 6.45687 0
M  V30 134 H 11.4918 -0.513717 5.97596 0
M  V30 135 H 13.1708 -0.179539 6.46751 0
M  V30 136 N 13.3029 -1.57598 0.00835791 0
M  V30 137 C 14.2129 -2.12385 -0.996487 0
M  V30 138 C 15.2289 -1.07108 -1.37127 0
M  V30 139 O 16.4049 -1.39055 -1.4569 0
M  V30 140 C 13.4699 -2.62314 -2.26699 0
M  V30 141 C 12.5309 -3.82225 -1.95456 0
M  V30 142 C 11.7639 -4.29763 -3.16449 0
M  V30 143 O 11.9869 -3.76584 -4.28416 0
M  V30 144 O 10.9209 -5.21832 -2.99958 0
M  V30 145 H 14.7469 -2.98479 -0.560725 0
M  V30 146 H 12.3319 -1.47903 -0.210987 0
M  V30 147 H 14.2139 -2.94589 -3.01322 0
M  V30 148 H 12.8889 -1.79313 -2.69497 0
M  V30 149 H 11.7959 -3.54909 -1.18282 0
M  V30 150 H 13.1289 -4.66324 -1.57489 0
M  V30 151 N 14.781 0.264519 -1.55364 0
M  V30 152 C 16.058 1.01677 -1.67096 0
M  V30 153 C 16.438 2.03996 -0.543015 0
M  V30 154 O 15.786 2.23907 0.45585 0
M  V30 155 C 15.996 1.66596 -3.0667 0
M  V30 156 C 17.344 2.17442 -3.64697 0
M  V30 157 O 18.368 1.76568 -3.09358 0
M  V30 158 O 17.227 2.92439 -4.61673 0
M  V30 159 H 14.321 0.472161 -0.678965 0
M  V30 160 H 16.867 0.259703 -1.67701 0
M  V30 161 H 15.639 0.924962 -3.80211 0
M  V30 162 H 15.262 2.48968 -3.10001 0
M  V30 163 N 16.2591 1.48442 0.529413 0
M  V30 164 C 17.5061 1.56488 1.28521 0
M  V30 165 C 17.8341 0.239042 1.93025 0
M  V30 166 O 17.0891 -0.770713 1.79885 0
M  V30 167 C 17.3881 2.6523 2.39558 0
M  V30 168 C 17.0541 4.07648 1.92702 0
M  V30 169 C 15.7161 4.46411 1.79641 0
M  V30 170 C 18.0681 4.96896 1.573 0
M  V30 171 C 15.3961 5.72226 1.29514 0
M  V30 172 C 17.7481 6.23202 1.08636 0
M  V30 173 C 16.4121 6.60821 0.941919 0
M  V30 174 H 15.6821 0.572631 0.470292 0
M  V30 175 H 18.3291 1.82161 0.59072 0
M  V30 176 H 16.6341 2.33419 3.14679 0
M  V30 177 H 18.3311 2.68671 2.97686 0
M  V30 178 H 14.9211 3.77036 2.03819 0
M  V30 179 H 19.1051 4.67626 1.66251 0
M  V30 180 H 14.3611 6.00097 1.17019 0
M  V30 181 H 18.5351 6.91753 0.803136 0
M  V30 182 H 16.1621 7.58198 0.5513 0
M  V30 183 N 17.7372 -0.778329 1.37039 0
M  V30 184 C 18.6842 -1.89139 1.32269 0
M  V30 185 C 19.6542 -1.65017 0.189387 0
M  V30 186 O 20.8392 -1.87024 0.377693 0
M  V30 187 C 17.9792 -3.26112 1.12894 0
M  V30 188 C 17.0922 -3.62233 2.35396 0
M  V30 189 C 16.2272 -4.8838 2.08946 0
M  V30 190 C 15.2662 -5.17212 3.2735 0
M  V30 191 N 14.4032 -6.34546 3.00492 0
M  V30 192 H 19.2432 -1.92552 2.27437 0
M  V30 193 H 16.7802 -0.941473 1.13025 0
M  V30 194 H 18.7382 -4.05116 0.996835 0
M  V30 195 H 17.3682 -3.22091 0.213758 0
M  V30 196 H 16.4202 -2.78265 2.5937 0
M  V30 197 H 17.7322 -3.79481 3.23721 0
M  V30 198 H 16.8862 -5.75274 1.92729 0
M  V30 199 H 15.6252 -4.73222 1.17949 0
M  V30 200 H 14.6302 -4.28796 3.44113 0
M  V30 201 H 15.8552 -5.34283 4.19188 0
M  V30 202 H 13.8012 -6.20759 2.12118 0
M  V30 203 H 13.7182 -6.52179 3.82358 0
M  V30 204 H 14.9862 -7.24394 2.87879 0
M  V30 205 N 19.2153 -1.21501 -1.00376 0
M  V30 206 C 20.4613 -1.03452 -1.74429 0
M  V30 207 C 20.7943 0.430764 -1.89362 0
M  V30 208 O 20.0693 1.31962 -1.42886 0
M  V30 209 C 20.3523 -1.73375 -3.15615 0
M  V30 210 C 20.2053 -3.27431 -3.08397 0
M  V30 211 C 21.5243 -1.47732 -4.14564 0
M  V30 212 H 18.6433 -0.377226 -0.633143 0
M  V30 213 H 21.2853 -1.49693 -1.17013 0
M  V30 214 H 19.4353 -1.34064 -3.64636 0
M  V30 215 H 21.1073 -3.76119 -2.67081 0
M  V30 216 H 19.3503 -3.5767 -2.45468 0
M  V30 217 H 20.0213 -3.71524 -4.08258 0
M  V30 218 H 22.4973 -1.8186 -3.74254 0
M  V30 219 H 21.3733 -1.99169 -5.11491 0
M  V30 220 H 21.6343 -0.407589 -4.40217 0
M  V30 221 N 20.6934 1.19889 -1.02296 0
M  V30 222 C 21.9414 1.89046 -0.714558 0
M  V30 223 C 22.2624 1.79636 0.758681 0
M  V30 224 O 21.5324 1.20292 1.54618 0
M  V30 225 H 20.1124 0.699802 -0.261317 0
M  V30 226 H 22.7744 1.45574 -1.29592 0
M  V30 227 H 21.8704 2.95524 -1.0036 0
M  V30 228 N 22.1715 0.800033 1.35784 0
M  V30 229 C 23.1195 0.193851 2.31791 0
M  V30 230 C 24.1135 -0.652744 1.56319 0
M  V30 231 O 25.3195 -0.546641 1.71499 0
M  V30 232 H 21.6945 0.04392 0.750716 0
M  V30 233 H 23.6655 1.01883 2.80468 0
M  V30 234 C 22.4145 -0.648338 3.41602 0
M  V30 235 H 21.7375 -0.00624665 3.998 0
M  V30 236 H 23.1775 -1.03898 4.11073 0
M  V30 237 C 21.6365 -1.8111 2.84079 0
M  V30 238 O 22.1665 -2.90825 2.77099 0
M  V30 239 N 20.3725 -1.62056 2.41218 0
M  V30 240 H 19.9195 -0.728123 2.47095 0
M  V30 241 H 19.8775 -2.40013 2.03079 0
M  V30 242 N 23.6496 -1.47581 0.552962 0
M  V30 243 C 24.5796 -2.32762 -0.185451 0
M  V30 244 C 25.5606 -1.43527 -0.912905 0
M  V30 245 O 26.7456 -1.72388 -0.894201 0
M  V30 246 C 23.8756 -3.25219 -1.21859 0
M  V30 247 C 22.8296 -4.23661 -0.607864 0
M  V30 248 C 22.1556 -5.05413 -1.74533 0
M  V30 249 C 23.4556 -5.20481 0.435582 0
M  V30 250 H 25.1496 -2.94749 0.525684 0
M  V30 251 H 22.6956 -1.41738 0.254251 0
M  V30 252 H 24.6486 -3.8365 -1.7433 0
M  V30 253 H 23.3726 -2.61279 -1.95961 0
M  V30 254 H 22.0316 -3.66451 -0.104489 0
M  V30 255 H 21.6796 -4.3788 -2.47529 0
M  V30 256 H 21.3796 -5.72059 -1.34249 0
M  V30 257 H 22.9036 -5.66701 -2.27338 0
M  V30 258 H 24.3176 -5.733 -0.00290157 0
M  V30 259 H 22.7146 -5.95305 0.757067 0
M  V30 260 H 23.7846 -4.66217 1.33303 0
M  V30 261 N 25.1277 -0.289203 -1.54924 0
M  V30 262 C 26.0577 0.58549 -2.2604 0
M  V30 263 C 27.0387 1.14753 -1.25562 0
M  V30 264 O 28.2237 1.17906 -1.54311 0
M  V30 265 C 25.3537 1.76305 -2.99222 0
M  V30 266 C 24.3077 1.33191 -4.06748 0
M  V30 267 C 23.6337 2.5937 -4.6758 0
M  V30 268 C 24.9337 0.471775 -5.20165 0
M  V30 269 H 26.6277 -0.00763532 -2.99399 0
M  V30 270 H 24.1737 -0.00511229 -1.43999 0
M  V30 271 H 26.1267 2.38097 -3.47689 0
M  V30 272 H 24.8507 2.38223 -2.23422 0
M  V30 273 H 23.5097 0.737121 -3.59113 0
M  V30 274 H 23.1577 3.19576 -3.88433 0
M  V30 275 H 22.8577 2.31228 -5.40192 0
M  V30 276 H 24.3817 3.21985 -5.18804 0
M  V30 277 H 25.7957 0.995056 -5.64599 0
M  V30 278 H 24.1927 0.284639 -5.99425 0
M  V30 279 H 25.2627 -0.506041 -4.82252 0
M  V30 280 N 26.6058 1.57591 -0.0167156 0
M  V30 281 C 27.8538 1.90906 0.663285 0
M  V30 282 C 28.1748 0.892509 1.73376 0
M  V30 283 O 27.4448 -0.0677623 1.95783 0
M  V30 284 H 26.0248 0.704637 0.247983 0
M  V30 285 H 28.6868 1.94803 -0.0615909 0
M  V30 286 H 27.7828 2.9116 1.12393 0
M  V30 287 N 28.0839 -0.256276 1.55502 0
M  V30 288 C 29.0309 -1.31714 1.89526 0
M  V30 289 C 30.0009 -1.4828 0.748479 0
M  V30 290 O 31.1859 -1.62416 1.00128 0
M  V30 291 C 28.3259 -2.66933 2.18725 0
M  V30 292 C 27.4389 -2.58452 3.4616 0
M  V30 293 C 26.5739 -3.85961 3.64976 0
M  V30 294 C 25.6129 -3.72059 4.86044 0
M  V30 295 N 24.7499 -4.9144 5.01429 0
M  V30 296 H 29.5899 -1.01998 2.80001 0
M  V30 297 H 27.1269 -0.492413 1.38613 0
M  V30 298 H 29.0849 -3.4563 2.33657 0
M  V30 299 H 27.7149 -2.94816 1.31466 0
M  V30 300 H 26.7669 -1.71374 3.3961 0
M  V30 301 H 28.0789 -2.44085 4.34999 0
M  V30 302 H 27.2329 -4.73101 3.79816 0
M  V30 303 H 25.9719 -4.03215 2.74353 0
M  V30 304 H 24.9769 -2.83302 4.7119 0
M  V30 305 H 26.2019 -3.56309 5.78118 0
M  V30 306 H 24.1479 -5.09072 4.13741 0
M  V30 307 H 24.0649 -4.79668 5.84341 0
M  V30 308 H 25.3329 -5.80104 5.20672 0
M  V30 309 N 29.562 -1.4872 -0.521534 0
M  V30 310 C 30.81 -1.56857 -1.27437 0
M  V30 311 C 31.131 -0.247982 -1.93417 0
M  V30 312 O 30.401 0.731151 -1.81744 0
M  V30 313 H 28.981 -0.577885 -0.473347 0
M  V30 314 H 31.643 -1.85233 -0.606205 0
M  V30 315 H 30.739 -2.35402 -2.0492 0
M  V30 316 N 31.0401 0.771051 -1.3745 0
M  V30 317 C 32.2651 1.56529 -1.36065 0
M  V30 318 C 32.6901 1.88029 0.0515859 0
M  V30 319 O 32.0481 1.49282 1.02882 0
M  V30 320 C 32.0961 2.85187 -2.20683 0
M  V30 321 O 31.2001 3.79593 -1.61193 0
M  V30 322 H 30.5411 0.47411 -0.464883 0
M  V30 323 H 33.0711 0.954269 -1.80983 0
M  V30 324 H 33.0811 3.34283 -2.33921 0
M  V30 325 H 31.7561 2.61588 -3.23334 0
M  V30 326 H 30.3331 3.38239 -1.56999 0
M  V30 327 N 32.5182 1.22032 0.997298 0
M  V30 328 C 33.7652 1.04222 1.73621 0
M  V30 329 C 34.0932 -0.423264 1.89839 0
M  V30 330 O 33.3482 -1.3302 1.43542 0
M  V30 331 C 33.6472 1.69345 3.14733 0
M  V30 332 C 33.3132 3.19226 3.18442 0
M  V30 333 C 31.9752 3.60124 3.19161 0
M  V30 334 C 34.3272 4.15181 3.15078 0
M  V30 335 C 31.6552 4.95467 3.14212 0
M  V30 336 C 34.0072 5.50495 3.1167 0
M  V30 337 C 32.6712 5.90779 3.10703 0
M  V30 338 H 31.9412 0.381374 0.635323 0
M  V30 339 H 34.5882 1.51732 1.16831 0
M  V30 340 H 32.8932 1.14147 3.74803 0
M  V30 341 H 34.5902 1.53059 3.7064 0
M  V30 342 H 31.1802 2.86659 3.18629 0
M  V30 343 H 35.3642 3.84605 3.13676 0
M  V30 344 H 30.6202 5.25916 3.11805 0
M  V30 345 H 34.7942 6.24576 3.08022 0
M  V30 346 H 32.4212 6.9562 3.06622 0
M  V30 347 N 33.9963 -1.19345 1.0293 0
M  V30 348 C 34.9593 -2.20793 0.615069 0
M  V30 349 C 35.9593 -1.57553 -0.321533 0
M  V30 350 O 37.1493 -1.73862 -0.108483 0
M  V30 351 C 34.2813 -3.40754 -0.0999222 0
M  V30 352 H 35.4743 -2.58955 1.51269 0
M  V30 353 H 33.0273 -1.3303 0.820534 0
M  V30 354 H 33.7623 -3.0811 -1.01187 0
M  V30 355 H 33.5473 -3.87889 0.57309 0
M  V30 356 H 35.0373 -4.15898 -0.376645 0
M  V30 357 N 35.4744 -0.807222 -1.35358 0
M  V30 358 C 36.7224 -0.387122 -1.98358 0
M  V30 359 C 37.0434 1.04942 -1.64354 0
M  V30 360 O 36.3134 1.72615 -0.926339 0
M  V30 361 H 34.8934 -0.140154 -0.733734 0
M  V30 362 H 37.5554 -1.0332 -1.6526 0
M  V30 363 H 36.6514 -0.493352 -3.08176 0
M  V30 364 N 36.9525 1.47285 -0.560781 0
M  V30 365 C 38.1985 2.02764 -0.0381184 0
M  V30 366 C 38.5315 1.43384 1.30976 0
M  V30 367 O 37.8065 0.590733 1.85312 0
M  V30 368 C 38.0895 3.60064 0.0511427 0
M  V30 369 C 37.9425 4.2987 -1.32408 0
M  V30 370 C 39.2615 4.33439 0.762795 0
M  V30 371 H 36.3805 0.736841 -0.0153264 0
M  V30 372 H 39.0225 1.75675 -0.723759 0
M  V30 373 H 37.1725 3.83274 0.635065 0
M  V30 374 H 38.8445 4.17989 -1.95148 0
M  V30 375 H 37.0875 3.90085 -1.8978 0
M  V30 376 H 37.7585 5.38478 -1.21431 0
M  V30 377 H 40.2345 4.15243 0.266965 0
M  V30 378 H 39.1105 5.43124 0.794221 0
M  V30 379 H 39.3715 4.02915 1.81966 0
M  V30 380 N 38.4306 0.297415 1.54768 0
M  V30 381 C 39.6606 -0.315165 2.04182 0
M  V30 382 C 40.0686 -1.4834 1.17439 0
M  V30 383 O 39.4116 -1.82695 0.191891 0
M  V30 384 C 39.4736 -0.837583 3.49607 0
M  V30 385 C 39.1376 0.204912 4.5654 0
M  V30 386 C 40.1346 1.03214 5.09552 0
M  V30 387 C 37.8196 0.345578 5.0111 0
M  V30 388 C 39.8136 1.986 6.05671 0
M  V30 389 C 37.5006 1.30289 5.97049 0
M  V30 390 C 38.4986 2.12159 6.49213 0
M  V30 391 O 38.1866 3.06268 7.43273 0
M  V30 392 H 37.9186 -0.0729646 0.672051 0
M  V30 393 H 40.4726 0.433907 2.00765 0
M  V30 394 H 38.7026 -1.63712 3.50336 0
M  V30 395 H 40.3916 -1.36566 3.82236 0
M  V30 396 H 41.1576 0.934312 4.75916 0
M  V30 397 H 37.0366 -0.28171 4.60138 0
M  V30 398 H 40.5806 2.62542 6.46311 0
M  V30 399 H 36.4776 1.40145 6.30103 0
M  V30 400 H 37.2456 3.01205 7.61064 0
M  V30 401 N 39.9087 -1.5758 0.0250728 0
M  V30 402 C 41.3247 -1.56124 -0.331282 0
M  V30 403 C 41.5247 -1.03029 -1.73169 0
M  V30 404 O 40.5807 -0.675215 -2.43305 0
M  V30 405 C 41.8937 -3.00139 -0.183584 0
M  V30 406 C 43.4417 -3.11946 -0.256654 0
M  V30 407 C 43.9167 -4.57793 -0.137792 0
M  V30 408 N 45.4077 -4.6279 -0.194904 0
M  V30 409 C 46.1427 -5.7326 -0.126655 0
M  V30 410 N 45.6387 -6.928 -0.00755288 0
M  V30 411 N 47.4317 -5.61811 -0.180348 0
M  V30 412 H 39.5827 -1.90424 0.94087 0
M  V30 413 H 41.8457 -0.875761 0.362968 0
M  V30 414 H 41.5517 -3.4292 0.780927 0
M  V30 415 H 41.4257 -3.64899 -0.955448 0
M  V30 416 H 43.8127 -2.69079 -1.21162 0
M  V30 417 H 43.8937 -2.49915 0.545517 0
M  V30 418 H 43.5377 -5.01339 0.813739 0
M  V30 419 H 43.4677 -5.17798 -0.958775 0
M  V30 420 H 45.9587 -3.76807 -0.287267 0
M  V30 421 H 46.2717 -7.72791 0.0379428 0
M  V30 422 H 44.6167 -6.94995 0.0271731 0
M  V30 423 H 47.8077 -4.6731 -0.271767 0
M  V30 424 H 47.9807 -6.47882 -0.123697 0
M  V30 425 N 41.3868 0.248026 -1.55636 0
M  V30 426 C 42.3498 1.29044 -1.89421 0
M  V30 427 C 43.3498 1.41134 -0.770581 0
M  V30 428 O 44.5398 1.39854 -1.03858 0
M  V30 429 C 41.6718 2.66831 -2.12165 0
M  V30 430 H 42.8648 1.00305 -2.82629 0
M  V30 431 H 40.4178 0.487265 -1.48511 0
M  V30 432 H 41.1528 3.00711 -1.21422 0
M  V30 433 H 40.9378 2.59438 -2.93997 0
M  V30 434 H 42.4278 3.42103 -2.3949 0
M  V30 435 N 42.8649 1.48995 0.513639 0
M  V30 436 C 43.7749 1.67443 1.64317 0
M  V30 437 C 44.7909 0.556947 1.64846 0
M  V30 438 O 45.9669 0.830082 1.83498 0
M  V30 439 C 43.0319 1.72515 3.00732 0
M  V30 440 C 42.0929 2.96009 3.1093 0
M  V30 441 C 41.3259 3.00829 4.40837 0
M  V30 442 O 41.5489 2.13594 5.28898 0
M  V30 443 O 40.4829 3.93168 4.55744 0
M  V30 444 H 44.3089 2.63106 1.51687 0
M  V30 445 H 41.8939 1.32588 0.688543 0
M  V30 446 H 43.7759 1.78277 3.81831 0
M  V30 447 H 42.4509 0.800278 3.13651 0
M  V30 448 H 41.3579 2.9577 2.29065 0
M  V30 449 H 42.6909 3.87934 3.02933 0
M  V30 450 N 44.343 -0.763751 1.37857 0
M  V30 451 C 45.568 -1.55805 1.36893 0
M  V30 452 C 45.993 -1.88054 -0.0416135 0
M  V30 453 O 45.351 -1.49825 -1.02089 0
M  V30 454 C 45.399 -2.84012 2.22192 0
M  V30 455 O 44.503 -3.78732 1.63204 0
M  V30 456 H 43.844 -0.471638 0.46739 0
M  V30 457 H 46.374 -0.944657 1.81487 0
M  V30 458 H 46.384 -3.33037 2.35691 0
M  V30 459 H 45.059 -2.59869 3.24716 0
M  V30 460 H 43.636 -3.37402 1.58791 0
M  V30 461 N 45.8211 -1.22559 -0.990812 0
M  V30 462 C 47.0701 -1.04553 -1.72486 0
M  V30 463 C 47.3831 0.419349 -1.91052 0
M  V30 464 O 48.5891 0.719121 -2.61803 0
M  V30 465 C 47.0451 -1.82231 -3.10355 0
M  V30 466 C 46.6531 -3.32981 -2.99713 0
M  V30 467 C 48.3971 -1.7268 -3.87791 0
M  V30 468 C 46.3041 -4.03091 -4.32748 0
M  V30 469 H 45.2341 -0.387614 -0.646739 0
M  V30 470 H 47.8851 -1.46429 -1.10593 0
M  V30 471 H 46.2671 -1.33155 -3.72942 0
M  V30 472 H 47.4411 -3.89466 -2.46278 0
M  V30 473 H 45.7561 -3.43231 -2.35758 0
M  V30 474 H 48.3531 -2.22381 -4.86262 0
M  V30 475 H 48.6961 -0.687607 -4.10582 0
M  V30 476 H 49.2291 -2.1931 -3.31885 0
M  V30 477 H 45.9681 -5.07273 -4.15156 0
M  V30 478 H 45.4881 -3.51394 -4.86089 0
M  V30 479 H 47.1671 -4.08804 -5.01486 0
M  V30 480 N 47.2992 1.18797 -1.03562 0
M  V30 481 C 48.2492 2.20161 -0.592724 0
M  V30 482 C 49.2332 1.56772 0.362133 0
M  V30 483 O 50.4252 1.76062 0.182009 0
M  V30 484 C 47.5542 3.43266 0.0481024 0
M  V30 485 C 46.6402 4.13786 -0.9296 0
M  V30 486 N 47.0312 4.60388 -2.09467 0
M  V30 487 C 45.3292 4.39572 -0.754499 0
M  V30 488 C 46.0302 5.14619 -2.71187 0
M  V30 489 N 45.0062 5.05826 -1.991 0
M  V30 490 H 48.8082 2.53877 -1.48066 0
M  V30 491 H 46.3222 1.34946 -0.903514 0
M  V30 492 H 48.3192 4.15136 0.383058 0
M  V30 493 H 46.9792 3.11048 0.931636 0
M  V30 494 H 47.9902 4.54999 -2.47379 0
M  V30 495 H 44.6672 4.17425 0.0793713 0
M  V30 496 H 46.0572 5.60917 -3.69895 0
M  V30 497 N 48.7773 0.814389 1.34928 0
M  V30 498 C 50.0053 0.411136 2.02774 0
M  V30 499 C 50.4203 -0.980316 1.61354 0
M  V30 500 O 49.7773 -1.63299 0.814847 0
M  V30 501 C 49.8283 0.493865 3.58111 0
M  V30 502 O 49.5493 1.83047 3.98027 0
M  V30 503 C 51.0503 0.0844174 4.4322 0
M  V30 504 H 48.2703 0.166037 0.650133 0
M  V30 505 H 50.8143 1.10018 1.72384 0
M  V30 506 H 48.9693 -0.147006 3.87121 0
M  V30 507 H 49.3833 1.79872 4.92693 0
M  V30 508 H 50.8573 0.193404 5.51661 0
M  V30 509 H 51.3343 -0.97113 4.28329 0
M  V30 510 H 51.9403 0.69875 4.19521 0
M  V30 511 N 50.2554 -1.46986 0.568584 0
M  V30 512 C 51.5034 -2.02041 0.0487022 0
M  V30 513 C 51.8244 -1.44408 -1.31039 0
M  V30 514 O 51.0944 -0.623477 -1.85714 0
M  V30 515 H 49.6744 -0.746849 0.015014 0
M  V30 516 H 52.3364 -1.80257 0.741168 0
M  V30 517 H 51.4324 -3.12085 -0.0308961 0
M  V30 518 N 51.7335 -0.305618 -1.54608 0
M  V30 519 C 52.6635 0.561482 -2.26649 0
M  V30 520 C 53.6445 1.13415 -1.26772 0
M  V30 521 O 54.8295 1.16262 -1.55553 0
M  V30 522 C 51.9595 1.73122 -3.01075 0
M  V30 523 C 50.9135 1.2887 -4.08138 0
M  V30 524 C 50.2395 2.54396 -4.70305 0
M  V30 525 C 51.5395 0.416578 -5.20636 0
M  V30 526 H 53.2335 -0.0393902 -2.99374 0
M  V30 527 H 50.7795 -0.020385 -1.43986 0
M  V30 528 H 52.7325 2.34396 -3.50195 0
M  V30 529 H 51.4565 2.3584 -2.25936 0
M  V30 530 H 50.1155 0.698991 -3.59875 0
M  V30 531 H 49.7635 3.15439 -3.918 0
M  V30 532 H 49.4635 2.25486 -5.42614 0
M  V30 533 H 50.9875 3.16464 -5.2219 0
M  V30 534 H 52.4015 0.935116 -5.65622 0
M  V30 535 H 50.7985 0.221046 -5.99693 0
M  V30 536 H 51.8685 -0.557162 -4.81688 0
M  V30 537 N 53.2116 1.57565 -0.0334293 0
M  V30 538 C 54.1216 2.13943 0.962572 0
M  V30 539 C 55.1376 1.09276 1.35406 0
M  V30 540 O 56.3136 1.41355 1.4346 0
M  V30 541 C 53.3786 2.65887 2.22497 0
M  V30 542 C 52.4396 3.85286 1.8935 0
M  V30 543 C 51.6726 4.34743 3.09571 0
M  V30 544 O 51.8956 3.83352 4.22371 0
M  V30 545 O 50.8296 5.26538 2.91618 0
M  V30 546 H 54.6556 2.99333 0.513169 0
M  V30 547 H 52.2406 1.4822 0.18743 0
M  V30 548 H 54.1226 2.99346 2.96598 0
M  V30 549 H 52.7976 1.83578 2.6661 0
M  V30 550 H 51.7046 3.56746 1.1262 0
M  V30 551 H 53.0376 4.68771 1.5005 0
M  V30 552 N 54.6897 -0.239769 1.55765 0
M  V30 553 C 55.9357 -0.968234 1.78194 0
M  V30 554 C 56.2687 -1.84701 0.599938 0
M  V30 555 O 55.5437 -1.9031 -0.401524 0
M  V30 556 C 55.8267 -1.8227 3.10564 0
M  V30 557 C 55.6797 -0.971633 4.3918 0
M  V30 558 C 56.9987 -2.80388 3.39221 0
M  V30 559 H 54.1177 -0.350572 0.648281 0
M  V30 560 H 56.7597 -0.238259 1.885 0
M  V30 561 H 54.9097 -2.44507 3.01908 0
M  V30 562 H 56.5817 -0.367408 4.59835 0
M  V30 563 H 54.8247 -0.276276 4.32919 0
M  V30 564 H 55.4957 -1.60346 5.28198 0
M  V30 565 H 57.9717 -2.28287 3.47885 0
M  V30 566 H 56.8477 -3.3729 4.33044 0
M  V30 567 H 57.1087 -3.57212 2.60484 0
M  V30 568 N 56.1678 -1.49265 -0.50573 0
M  V30 569 C 57.1308 -1.65075 -1.59006 0
M  V30 570 C 58.1308 -0.522768 -1.52065 0
M  V30 571 O 59.3208 -0.789117 -1.55302 0
M  V30 572 C 56.4528 -1.64369 -2.98656 0
M  V30 573 H 57.6458 -2.61784 -1.46319 0
M  V30 574 H 55.1988 -1.38226 -0.729616 0
M  V30 575 H 55.9338 -0.692272 -3.16825 0
M  V30 576 H 55.7188 -2.46282 -3.05103 0
M  V30 577 H 57.2088 -1.78674 -3.77446 0
M  V30 578 N 57.6459 0.756429 -1.3826 0
M  V30 579 C 58.8949 1.51082 -1.3363 0
M  V30 580 C 59.2079 1.95467 0.0720068 0
M  V30 581 O 60.4139 2.7043 0.240834 0
M  V30 582 C 58.8699 2.72893 -2.34644 0
M  V30 583 C 58.4779 2.35544 -3.81081 0
M  V30 584 C 60.2219 3.50791 -2.39052 0
M  V30 585 C 58.1289 3.53948 -4.73787 0
M  V30 586 H 57.0589 0.56727 -0.49671 0
M  V30 587 H 59.7099 0.827147 -1.638 0
M  V30 588 H 58.0919 3.43227 -1.97513 0
M  V30 589 H 59.2659 1.72894 -4.27135 0
M  V30 590 H 57.5809 1.70786 -3.79764 0
M  V30 591 H 60.1779 4.38823 -3.05513 0
M  V30 592 H 60.5209 3.91745 -1.40861 0
M  V30 593 H 61.0539 2.87467 -2.74968 0
M  V30 594 H 57.7929 3.18064 -5.73163 0
M  V30 595 H 57.3129 4.15651 -4.32428 0
M  V30 596 H 58.9919 4.20566 -4.91663 0
M  V30 597 N 59.124 1.23083 0.984299 0
M  V30 598 C 60.071 1.00854 2.07598 0
M  V30 599 C 61.041 -0.0726709 1.65941 0
M  V30 600 O 62.226 0.0786535 1.90638 0
M  V30 601 C 59.366 0.601645 3.39815 0
M  V30 602 C 58.479 1.75456 3.94765 0
M  V30 603 C 57.614 1.29482 5.15177 0
M  V30 604 C 56.653 2.41873 5.62284 0
M  V30 605 N 55.79 1.96885 6.73929 0
M  V30 606 H 60.63 1.943 2.25946 0
M  V30 607 H 58.167 0.968001 1.10762 0
M  V30 608 H 60.125 0.346854 4.15756 0
M  V30 609 H 58.755 -0.295803 3.21442 0
M  V30 610 H 57.807 2.12346 3.15616 0
M  V30 611 H 59.119 2.59965 4.25699 0
M  V30 612 H 58.273 0.997923 5.98437 0
M  V30 613 H 57.012 0.420046 4.85888 0
M  V30 614 H 56.017 2.72342 4.77608 0
M  V30 615 H 57.242 3.29881 5.93595 0
M  V30 616 H 55.188 1.11782 6.46406 0
M  V30 617 H 55.105 2.74956 7.04227 0
M  V30 618 H 56.373 1.70289 7.60672 0
M  V30 619 N 60.6021 -1.18246 1.0419 0
M  V30 620 C 61.5351 -2.20746 0.578474 0
M  V30 621 C 62.5131 -1.57912 -0.387624 0
M  V30 622 O 63.6971 -1.86071 -0.301634 0
M  V30 623 C 60.8241 -3.38346 -0.154762 0
M  V30 624 C 59.8701 -4.19587 0.764782 0
M  V30 625 S 60.7031 -4.86014 2.24835 0
M  V30 626 C 61.8591 -6.07012 1.526 0
M  V30 627 H 62.0921 -2.59715 1.44691 0
M  V30 628 H 59.6251 -1.287 0.85297 0
M  V30 629 H 61.5831 -4.065 -0.571641 0
M  V30 630 H 60.2441 -2.97786 -0.999105 0
M  V30 631 H 59.4371 -5.03611 0.197976 0
M  V30 632 H 59.0391 -3.56818 1.12057 0
M  V30 633 H 61.3311 -6.72523 0.819733 0
M  V30 634 H 62.2741 -6.68202 2.34333 0
M  V30 635 H 62.6821 -5.55249 1.01779 0
M  V30 636 N 62.0802 -0.821533 -1.34494 0
M  V30 637 C 63.3292 -0.405355 -1.97585 0
M  V30 638 C 63.6422 1.03677 -1.65863 0
M  V30 639 O 64.8482 1.55679 -2.22433 0
M  V30 640 C 63.3042 -0.673861 -3.53535 0
M  V30 641 C 62.9122 -2.12951 -3.94152 0
M  V30 642 C 64.6562 -0.32378 -4.23263 0
M  V30 643 C 62.5632 -2.34298 -5.43009 0
M  V30 644 H 61.4932 -0.147836 -0.739365 0
M  V30 645 H 64.1442 -1.00769 -1.53355 0
M  V30 646 H 62.5262 -0.00137554 -3.96 0
M  V30 647 H 63.7002 -2.84104 -3.62797 0
M  V30 648 H 62.0152 -2.44089 -3.37356 0
M  V30 649 H 64.6122 -0.461126 -5.32708 0
M  V30 650 H 64.9552 0.731586 -4.09821 0
M  V30 651 H 65.4882 -0.950786 -3.8627 0
M  V30 652 H 62.2272 -3.38335 -5.61435 0
M  V30 653 H 61.7472 -1.67687 -5.75883 0
M  V30 654 H 63.4262 -2.16588 -6.09671 0
M  V30 655 N 63.5583 1.46682 -0.576371 0
M  V30 656 C 64.8353 1.95599 0.00703437 0
M  V30 657 C 65.2153 1.51904 1.46589 0
M  V30 658 O 64.5633 0.766755 2.15251 0
M  V30 659 C 64.7733 3.4864 -0.158404 0
M  V30 660 C 66.1213 4.24594 -0.0229439 0
M  V30 661 O 67.1453 3.56094 -0.0869173 0
M  V30 662 O 66.0043 5.46373 0.118015 0
M  V30 663 H 63.0983 0.825275 0.053384 0
M  V30 664 H 65.6443 1.56996 -0.644244 0
M  V30 665 H 64.4163 3.7331 -1.17282 0
M  V30 666 H 64.0393 3.94057 0.5296 0
M  V30 667 N 65.0364 0.313813 1.54444 0
M  V30 668 C 65.9834 -0.55655 2.23989 0
M  V30 669 C 66.9534 -1.11943 1.22711 0
M  V30 670 O 68.1384 -1.16158 1.51367 0
M  V30 671 C 65.2784 -1.71635 2.99392 0
M  V30 672 C 64.3914 -1.18364 4.15468 0
M  V30 673 C 63.5264 -2.30834 4.78424 0
M  V30 674 C 62.5654 -1.74762 5.86622 0
M  V30 675 N 61.7024 -2.80855 6.43479 0
M  V30 676 H 66.5424 0.0430893 2.97969 0
M  V30 677 H 64.0794 0.0330359 1.47063 0
M  V30 678 H 66.0374 -2.39868 3.41349 0
M  V30 679 H 64.6674 -2.28742 2.27765 0
M  V30 680 H 63.7194 -0.393163 3.78363 0
M  V30 681 H 65.0314 -0.733262 4.93381 0
M  V30 682 H 64.1854 -3.0699 5.23299 0
M  V30 683 H 62.9244 -2.79204 3.99871 0
M  V30 684 H 61.9294 -0.970995 5.41158 0
M  V30 685 H 63.1544 -1.2728 6.67066 0
M  V30 686 H 61.1004 -3.28535 5.67804 0
M  V30 687 H 61.0174 -2.40351 7.16776 0
M  V30 688 H 62.2854 -3.5687 6.93011 0
M  V30 689 N 66.5145 -1.57545 0.0417849 0
M  V30 690 C 67.4615 -2.10977 -0.935805 0
M  V30 691 C 68.4315 -1.01486 -1.31491 0
M  V30 692 O 69.6165 -1.2898 -1.40602 0
M  V30 693 C 66.7565 -2.65169 -2.2086 0
M  V30 694 C 65.8695 -3.88714 -1.88482 0
M  V30 695 C 65.0045 -4.31254 -3.1015 0
M  V30 696 C 64.0435 -5.47524 -2.7365 0
M  V30 697 N 63.1805 -5.85162 -3.87982 0
M  V30 698 H 68.0205 -2.94218 -0.473249 0
M  V30 699 H 65.5575 -1.45415 -0.221981 0
M  V30 700 H 67.5155 -2.94685 -2.95325 0
M  V30 701 H 66.1455 -1.8474 -2.64709 0
M  V30 702 H 65.1975 -3.65849 -1.04205 0
M  V30 703 H 66.5095 -4.73245 -1.57608 0
M  V30 704 H 65.6635 -4.62273 -3.92923 0
M  V30 705 H 64.4025 -3.45516 -3.44195 0
M  V30 706 H 63.4075 -5.16187 -1.89291 0
M  V30 707 H 64.6325 -6.34971 -2.40807 0
M  V30 708 H 62.5785 -5.02377 -4.21846 0
M  V30 709 H 62.4955 -6.64362 -3.60775 0
M  V30 710 H 63.7635 -6.20791 -4.71422 0
M  V30 711 N 67.9926 0.231505 -1.5589 0
M  V30 712 C 68.9556 1.27028 -1.90779 0
M  V30 713 C 69.9556 1.40308 -0.785507 0
M  V30 714 O 71.1456 1.38744 -1.05336 0
M  V30 715 C 68.2776 2.64566 -2.14983 0
M  V30 716 H 69.4706 0.973017 -2.83677 0
M  V30 717 H 67.0236 0.471486 -1.49019 0
M  V30 718 H 67.7586 2.99406 -1.24604 0
M  V30 719 H 67.5436 2.56305 -2.96732 0
M  V30 720 H 69.0336 3.39543 -2.43105 0
M  V30 721 N 69.4707 1.49531 0.497807 0
M  V30 722 C 70.4037 1.61043 1.6168 0
M  V30 723 C 71.3817 0.459386 1.55976 0
M  V30 724 O 72.5657 0.675358 1.75986 0
M  V30 725 C 69.6927 1.56833 3.00202 0
M  V30 726 C 68.7387 2.77173 3.24156 0
M  V30 727 S 69.5717 4.38808 3.06933 0
M  V30 728 C 70.7277 4.37248 4.47845 0
M  V30 729 H 70.9607 2.55702 1.51671 0
M  V30 730 H 68.4937 1.38462 0.683201 0
M  V30 731 H 70.4517 1.55089 3.80076 0
M  V30 732 H 69.1127 0.634561 3.07623 0
M  V30 733 H 68.3057 2.70456 4.25288 0
M  V30 734 H 67.9077 2.76346 2.5201 0
M  V30 735 H 70.1997 4.09164 5.39992 0
M  V30 736 H 71.1427 5.38668 4.59612 0
M  V30 737 H 71.5507 3.67286 4.28674 0
M  V30 738 N 70.9488 -0.749086 1.3866 0
M  V30 739 C 72.1788 -1.53611 1.38157 0
M  V30 740 C 72.5868 -1.89177 -0.0293595 0
M  V30 741 O 71.9298 -1.53606 -1.00752 0
M  V30 742 C 71.9918 -2.86087 2.17702 0
M  V30 743 C 71.6558 -2.73034 3.66472 0
M  V30 744 C 72.6528 -2.42526 4.59866 0
M  V30 745 C 70.3378 -2.90345 4.09884 0
M  V30 746 C 72.3318 -2.29492 5.94653 0
M  V30 747 C 70.0188 -2.7693 5.4475 0
M  V30 748 C 71.0168 -2.46547 6.36949 0
M  V30 749 O 70.7048 -2.33199 7.69333 0
M  V30 750 H 70.4368 -0.481773 0.474205 0
M  V30 751 H 72.9908 -0.934465 1.82912 0
M  V30 752 H 71.2208 -3.48458 1.67672 0
M  V30 753 H 72.9098 -3.47625 2.09551 0
M  V30 754 H 73.6758 -2.28816 4.27631 0
M  V30 755 H 69.5548 -3.1299 3.38464 0
M  V30 756 H 73.0988 -2.05698 6.66584 0
M  V30 757 H 68.9958 -2.90215 5.76581 0
M  V30 758 H 69.7638 -2.48376 7.79905 0
M  V30 759 N 72.4269 -1.23603 -0.977757 0
M  V30 760 C 73.3739 -1.01954 -2.07061 0
M  V30 761 C 74.3439 0.0638697 -1.65977 0
M  V30 762 O 75.5289 -0.0887624 -1.90593 0
M  V30 763 C 72.6689 -0.619658 -3.39491 0
M  V30 764 C 71.7819 -1.77547 -3.93829 0
M  V30 765 C 70.9169 -1.32212 -5.14484 0
M  V30 766 C 69.9559 -2.44852 -5.60994 0
M  V30 767 N 69.0929 -2.00456 -6.72876 0
M  V30 768 H 73.9329 -1.95495 -2.24913 0
M  V30 769 H 71.4699 -0.973861 -1.10247 0
M  V30 770 H 73.4279 -0.368898 -4.15566 0
M  V30 771 H 72.0579 0.278752 -3.21594 0
M  V30 772 H 71.1099 -2.14016 -3.14486 0
M  V30 773 H 72.4219 -2.62219 -4.24314 0
M  V30 774 H 71.5759 -1.02965 -5.97899 0
M  V30 775 H 70.3149 -0.445808 -4.85658 0
M  V30 776 H 69.3199 -2.74871 -4.76157 0
M  V30 777 H 70.5449 -3.33024 -5.91837 0
M  V30 778 H 68.4909 -1.15208 -6.45804 0
M  V30 779 H 68.4079 -2.78687 -7.02759 0
M  V30 780 H 69.6759 -1.7432 -7.59758 0
M  V30 781 N 73.905 1.17692 -1.04816 0
M  V30 782 C 74.868 2.19787 -0.650117 0
M  V30 783 C 75.868 1.58044 0.296427 0
M  V30 784 O 77.058 1.74012 0.0808097 0
M  V30 785 C 74.19 3.40869 0.0456987 0
M  V30 786 H 75.383 2.56516 -1.5537 0
M  V30 787 H 72.936 1.31708 -0.841594 0
M  V30 788 H 73.671 3.09681 0.962726 0
M  V30 789 H 73.456 3.86928 -0.634727 0
M  V30 790 H 74.946 4.16445 0.310432 0
M  V30 791 N 75.3831 0.828654 1.34056 0
M  V30 792 C 76.6311 0.41863 1.97717 0
M  V30 793 C 76.9521 -1.02314 1.66002 0
M  V30 794 O 76.2221 -1.71119 0.953683 0
M  V30 795 H 74.8021 0.151809 0.731412 0
M  V30 796 H 77.4641 1.05936 1.63596 0
M  V30 797 H 76.5601 0.542318 3.07352 0
M  V30 798 N 76.8612 -1.46375 0.584142 0
M  V30 799 C 77.7942 -2.27351 -0.196676 0
M  V30 800 C 78.7722 -1.35715 -0.895561 0
M  V30 801 O 79.9562 -1.65126 -0.90916 0
M  V30 802 C 77.0832 -3.13486 -1.28235 0
M  V30 803 C 76.1292 -4.20896 -0.689145 0
M  V30 804 S 76.9622 -5.33299 0.48507 0
M  V30 805 C 78.1182 -6.23 -0.601767 0
M  V30 806 H 78.3512 -2.93228 0.490395 0
M  V30 807 H 75.8842 -1.49875 0.371071 0
M  V30 808 H 77.8422 -3.63676 -1.90395 0
M  V30 809 H 76.5032 -2.4692 -1.94138 0
M  V30 810 H 75.6962 -4.80997 -1.50527 0
M  V30 811 H 75.2982 -3.73726 -0.143181 0
M  V30 812 H 77.5902 -6.60979 -1.48705 0
M  V30 813 H 78.5332 -7.0809 -0.0374799 0
M  V30 814 H 78.9412 -5.57173 -0.906557 0
M  V30 815 N 78.3393 -0.321999 -1.54275 0
M  V30 816 C 79.5853 0.281461 -2.00837 0
M  V30 817 C 79.9183 1.51909 -1.20985 0
M  V30 818 O 79.1933 1.923 -0.291733 0
M  V30 819 C 79.4763 0.617162 -3.54772 0
M  V30 820 C 79.3293 -0.631064 -4.45351 0
M  V30 821 C 80.6483 1.43542 -4.16033 0
M  V30 822 H 77.7673 0.100826 -0.730071 0
M  V30 823 H 80.4093 -0.438268 -1.84876 0
M  V30 824 H 78.5593 1.23034 -3.68504 0
M  V30 825 H 80.2313 -1.26934 -4.43492 0
M  V30 826 H 78.4743 -1.26025 -4.15091 0
M  V30 827 H 79.1453 -0.351735 -5.50878 0
M  V30 828 H 81.6213 0.917134 -4.05867 0
M  V30 829 H 80.4973 1.63907 -5.23856 0
M  V30 830 H 80.7583 2.43108 -3.69257 0
M  V30 831 N 79.8174 1.5752 -0.0501392 0
M  V30 832 C 80.7494 2.08413 0.95376 0
M  V30 833 C 81.7624 1.01175 1.27544 0
M  V30 834 O 82.9514 1.28744 1.23641 0
M  V30 835 C 80.0514 2.51138 2.27559 0
M  V30 836 C 79.2244 3.817 2.13598 0
M  V30 837 C 78.2834 4.10749 3.28895 0
M  V30 838 O 77.3094 4.80685 3.04845 0
M  V30 839 N 78.5114 3.62579 4.5334 0
M  V30 840 H 81.2764 2.95165 0.519383 0
M  V30 841 H 78.8374 1.61327 0.136127 0
M  V30 842 H 80.8294 2.67648 3.03557 0
M  V30 843 H 79.3994 1.6964 2.62567 0
M  V30 844 H 78.6194 3.74782 1.22197 0
M  V30 845 H 79.9074 4.67201 2.01496 0
M  V30 846 H 79.3054 3.06039 4.75769 0
M  V30 847 H 77.8624 3.84329 5.26436 0
M  V30 848 N 81.2955 -0.223234 1.56011 0
M  V30 849 C 82.7115 -0.572856 1.48965 0
M  V30 850 C 82.9115 -1.87225 0.74492 0
M  V30 851 O 81.9675 -2.50899 0.283896 0
M  V30 852 C 83.2805 -0.653646 2.9351 0
M  V30 853 C 84.8285 -0.744386 3.0402 0
M  V30 854 C 85.3035 -0.856535 4.49919 0
M  V30 855 N 86.7945 -0.9208 4.53955 0
M  V30 856 C 87.5295 -1.02726 5.64123 0
M  V30 857 N 87.0255 -1.09777 6.84047 0
M  V30 858 N 88.8185 -1.06226 5.51971 0
M  V30 859 H 80.9695 0.629462 2.02858 0
M  V30 860 H 83.2325 0.220621 0.921971 0
M  V30 861 H 82.9385 0.231518 3.50937 0
M  V30 862 H 82.8125 -1.51781 3.45315 0
M  V30 863 H 85.1995 -1.61999 2.46658 0
M  V30 864 H 85.2805 0.14541 2.55386 0
M  V30 865 H 84.9245 0.0146069 5.07898 0
M  V30 866 H 84.8545 -1.76172 4.96257 0
M  V30 867 H 87.3455 -0.876694 3.6759 0
M  V30 868 H 87.6585 -1.17872 7.63758 0
M  V30 869 H 86.0035 -1.06693 6.86762 0
M  V30 870 H 89.1945 -1.00382 4.5721 0
M  V30 871 H 89.3675 -1.14177 6.37862 0
M  V30 872 N 82.7736 -1.49793 -0.48987 0
M  V30 873 C 84.0196 -1.60078 -1.24511 0
M  V30 874 C 84.3526 -0.291608 -1.91998 0
M  V30 875 O 83.6276 0.705647 -1.81248 0
M  V30 876 C 83.9106 -2.76791 -2.30345 0
M  V30 877 C 83.7636 -4.17535 -1.67286 0
M  V30 878 C 85.0826 -2.89111 -3.31817 0
M  V30 879 H 82.2016 -0.582645 -0.451324 0
M  V30 880 H 84.8436 -1.82117 -0.541612 0
M  V30 881 H 82.9936 -2.5813 -2.90346 0
M  V30 882 H 84.6656 -4.4774 -1.11026 0
M  V30 883 H 82.9086 -4.22665 -0.976577 0
M  V30 884 H 83.5796 -4.95094 -2.44103 0
M  V30 885 H 86.0556 -3.06133 -2.81819 0
M  V30 886 H 84.9316 -3.72433 -4.03219 0
M  V30 887 H 85.1926 -1.9893 -3.94815 0
M  V30 888 N 84.2517 0.741722 -1.39055 0
M  V30 889 C 85.1837 1.8657 -1.33133 0
M  V30 890 C 86.1967 1.61001 -0.241329 0
M  V30 891 O 87.3857 1.7136 -0.499784 0
M  V30 892 C 84.4857 3.22457 -1.04283 0
M  V30 893 C 83.6587 3.75435 -2.24427 0
M  V30 894 C 82.7177 4.89867 -1.92138 0
M  V30 895 O 81.7437 5.03879 -2.64754 0
M  V30 896 N 82.9457 5.73738 -0.88347 0
M  V30 897 H 85.7107 1.92156 -2.29991 0
M  V30 898 H 83.2717 0.922172 -1.3307 0
M  V30 899 H 85.2637 3.9657 -0.807128 0
M  V30 900 H 83.8337 3.12181 -0.161807 0
M  V30 901 H 83.0537 2.92751 -2.6399 0
M  V30 902 H 84.3417 4.07563 -3.04581 0
M  V30 903 H 83.7397 5.64999 -0.281517 0
M  V30 904 H 82.2967 6.47947 -0.707662 0
M  V30 905 N 85.7298 1.2412 0.971189 0
M  V30 906 C 86.6778 1.02812 2.08644 0
M  V30 907 C 87.6718 -0.0358403 1.69362 0
M  V30 908 O 88.8778 0.118429 1.7961 0
M  V30 909 H 85.2528 0.315428 0.682649 0
M  V30 910 H 87.2238 1.97397 2.23779 0
M  V30 911 C 85.9728 0.645874 3.41649 0
M  V30 912 H 85.2958 1.45632 3.72332 0
M  V30 913 H 86.7358 0.536366 4.20594 0
M  V30 914 C 85.1948 -0.646713 3.30635 0
M  V30 915 O 85.7248 -1.69338 3.64263 0
M  V30 916 N 83.9308 -0.626115 2.83775 0
M  V30 917 H 83.4778 0.225988 2.56607 0
M  V30 918 H 83.4358 -1.49117 2.76788 0
M  V30 919 N 87.2079 -1.17134 1.05439 0
M  V30 920 C 88.1179 -2.24878 0.668365 0
M  V30 921 C 89.1339 -1.71186 -0.311687 0
M  V30 922 O 90.3099 -2.00738 -0.163161 0
M  V30 923 C 87.3749 -3.46662 0.051648 0
M  V30 924 C 86.4359 -4.15429 1.08246 0
M  V30 925 C 85.6689 -5.31399 0.495082 0
M  V30 926 O 85.8919 -5.66153 -0.694743 0
M  V30 927 O 84.8259 -5.89187 1.23056 0
M  V30 928 H 88.6519 -2.60189 1.56637 0
M  V30 929 H 86.2369 -1.24482 0.826104 0
M  V30 930 H 88.1189 -4.20394 -0.290966 0
M  V30 931 H 86.7939 -3.13142 -0.819971 0
M  V30 932 H 85.7009 -3.43704 1.47711 0
M  V30 933 H 87.0339 -4.52982 1.92532 0
M  V30 934 N 88.686 -0.835752 -1.33615 0
M  V30 935 C 89.932 -0.430596 -1.98176 0
M  V30 936 C 90.265 1.00684 -1.66061 0
M  V30 937 O 89.54 1.70339 -0.938877 0
M  V30 938 C 89.823 -0.648065 -3.5422 0
M  V30 939 C 89.676 -2.13255 -3.96033 0
M  V30 940 C 90.995 -0.0922113 -4.40003 0
M  V30 941 H 88.114 -0.157924 -0.719881 0
M  V30 942 H 90.756 -1.05069 -1.58305 0
M  V30 943 H 88.906 -0.120237 -3.88314 0
M  V30 944 H 90.578 -2.725 -3.72211 0
M  V30 945 H 88.821 -2.61823 -3.45878 0
M  V30 946 H 89.492 -2.23547 -5.04708 0
M  V30 947 H 91.968 -0.543343 -4.12537 0
M  V30 948 H 90.844 -0.274083 -5.48215 0
M  V30 949 H 91.105 1.00378 -4.30554 0
M  V30 950 N 90.1641 1.46063 -0.591896 0
M  V30 951 C 91.1111 2.30399 0.136069 0
M  V30 952 C 92.0811 1.41169 0.875238 0
M  V30 953 O 93.2661 1.70112 0.86409 0
M  V30 954 C 90.4061 3.25804 1.13781 0
M  V30 955 C 89.5191 4.30134 0.401137 0
M  V30 956 C 88.6541 5.12659 1.39121 0
M  V30 957 C 87.6931 6.0873 0.641462 0
M  V30 958 N 86.8301 6.8409 1.58004 0
M  V30 959 H 91.6701 2.92118 -0.589144 0
M  V30 960 H 89.2071 1.43959 -0.302342 0
M  V30 961 H 91.1651 3.79569 1.73156 0
M  V30 962 H 89.7951 2.65872 1.83062 0
M  V30 963 H 88.8471 3.79152 -0.307826 0
M  V30 964 H 90.1591 4.98458 -0.184565 0
M  V30 965 H 89.3131 5.70747 2.05749 0
M  V30 966 H 88.0521 4.44316 2.01084 0
M  V30 967 H 87.0571 5.49786 -0.0385419 0
M  V30 968 H 88.2821 6.79095 0.0270945 0
M  V30 969 H 86.2281 6.18449 2.18761 0
M  V30 970 H 86.1451 7.48709 1.04738 0
M  V30 971 H 87.4131 7.4673 2.23639 0
M  V30 972 N 91.6422 0.330177 1.54103 0
M  V30 973 C 92.8912 -0.271336 1.99867 0
M  V30 974 C 93.2042 -1.52723 1.22209 0
M  V30 975 O 94.4102 -2.20515 1.58383 0
M  V30 976 C 92.8662 -0.534032 3.55916 0
M  V30 977 C 92.4742 0.705193 4.42415 0
M  V30 978 C 94.2182 -1.09514 4.1013 0
M  V30 979 C 92.1252 0.414035 5.89949 0
M  V30 980 H 91.0552 -0.105166 0.74663 0
M  V30 981 H 93.7062 0.443429 1.78062 0
M  V30 982 H 92.0882 -1.30915 3.73734 0
M  V30 983 H 93.2622 1.4804 4.36372 0
M  V30 984 H 91.5772 1.18698 3.99124 0
M  V30 985 H 94.1742 -1.3277 5.17954 0
M  V30 986 H 94.5172 -2.04656 3.62521 0
M  V30 987 H 95.0502 -0.381038 3.95971 0
M  V30 988 H 91.7892 1.33481 6.41766 0
M  V30 989 H 91.3092 -0.323336 5.98928 0
M  V30 990 H 92.9882 0.0263105 6.46995 0
M  V30 991 N 93.1203 -1.57491 0.0584922 0
M  V30 992 C 94.0703 -2.08474 -0.923188 0
M  V30 993 C 95.0543 -0.991479 -1.26722 0
M  V30 994 O 96.2463 -1.25473 -1.24842 0
M  V30 995 C 93.3753 -2.6392 -2.19548 0
M  V30 996 C 92.4613 -3.80227 -1.87852 0
M  V30 997 N 92.8523 -4.89714 -1.26546 0
M  V30 998 C 91.1503 -3.89271 -2.17679 0
M  V30 999 C 91.8513 -5.70689 -1.12644 0
M  V30 1000 N 90.8273 -5.18531 -1.63176 0
M  V30 1001 H 94.6293 -2.90517 -0.444653 0
M  V30 1002 H 92.1433 -1.61745 -0.145764 0
M  V30 1003 H 94.1403 -2.98752 -2.9078 0
M  V30 1004 H 92.8003 -1.83318 -2.68001 0
M  V30 1005 H 93.8113 -5.09358 -0.936757 0
M  V30 1006 H 90.4883 -3.19623 -2.68602 0
M  V30 1007 H 91.8783 -6.6875 -0.6499 0
M  V30 1008 N 94.5984 0.214957 -1.56127 0
M  V30 1009 C 95.8384 0.945364 -1.81224 0
M  V30 1010 C 96.2024 1.81265 -0.633005 0
M  V30 1011 O 97.4034 2.57731 -0.763423 0
M  V30 1012 C 95.6744 1.75665 -3.1125 0
M  V30 1013 S 97.2334 2.54179 -3.57685 0
M  V30 1014 H 94.0514 0.317443 -0.6362 0
M  V30 1015 H 96.6534 0.210381 -1.94365 0
M  V30 1016 H 95.3574 1.10977 -3.9511 0
M  V30 1017 H 94.8884 2.53381 -3.00934 0
M  V30 1018 H 96.9034 3.7792 -3.21545 0
M  V30 1019 N 96.0765 1.50051 0.48192 0
M  V30 1020 C 97.0085 1.64263 1.59844 0
M  V30 1021 C 98.0215 0.52451 1.54119 0
M  V30 1022 O 99.2105 0.797293 1.59704 0
M  V30 1023 C 96.3105 1.60102 2.98698 0
M  V30 1024 C 95.4835 2.87767 3.29407 0
M  V30 1025 C 94.5425 2.76397 4.47762 0
M  V30 1026 O 93.5685 3.50348 4.48603 0
M  V30 1027 N 94.7705 1.89222 5.48794 0
M  V30 1028 H 97.5355 2.60566 1.48073 0
M  V30 1029 H 95.0965 1.47379 0.670149 0
M  V30 1030 H 97.0885 1.50123 3.75826 0
M  V30 1031 H 95.6585 0.715798 3.04294 0
M  V30 1032 H 94.8785 3.11954 2.40994 0
M  V30 1033 H 96.1665 3.72365 3.4673 0
M  V30 1034 H 95.5645 1.28434 5.50928 0
M  V30 1035 H 94.1215 1.85154 6.24949 0
M  V30 1036 N 97.5546 -0.734337 1.39446 0
M  V30 1037 C 98.4846 -1.86155 1.40955 0
M  V30 1038 C 99.4656 -1.67898 0.272827 0
M  V30 1039 O 100.651 -1.88207 0.478743 0
M  V30 1040 C 97.7806 -3.23912 1.25294 0
M  V30 1041 C 96.7346 -3.56808 2.36373 0
M  V30 1042 C 96.0606 -4.93508 2.058 0
M  V30 1043 C 97.3606 -3.59713 3.78687 0
M  V30 1044 H 99.0546 -1.8515 2.35287 0
M  V30 1045 H 96.6006 -0.889367 1.13253 0
M  V30 1046 H 98.5536 -4.02443 1.2497 0
M  V30 1047 H 97.2776 -3.25446 0.274308 0
M  V30 1048 H 95.9366 -2.80606 2.35914 0
M  V30 1049 H 95.5846 -4.91623 1.06374 0
M  V30 1050 H 95.2846 -5.16486 2.80208 0
M  V30 1051 H 96.8086 -5.74396 2.07128 0
M  V30 1052 H 98.2226 -4.2832 3.81071 0
M  V30 1053 H 96.6196 -3.94209 4.52459 0
M  V30 1054 H 97.6896 -2.59504 4.09617 0
M  V30 1055 N 99.0327 -1.24633 -0.964593 0
M  V30 1056 C 99.9797 -1.04144 -2.05968 0
M  V30 1057 C 100.95 0.046262 -1.66036 0
M  V30 1058 O 102.135 -0.108972 -1.90489 0
M  V30 1059 C 99.2747 -0.65563 -3.38815 0
M  V30 1060 C 98.3877 -1.81714 -3.91923 0
M  V30 1061 C 97.5227 -1.37662 -5.13052 0
M  V30 1062 C 96.5617 -2.50788 -5.58365 0
M  V30 1063 N 95.6987 -2.07582 -6.70712 0
M  V30 1064 H 100.539 -1.9787 -2.22827 0
M  V30 1065 H 98.0757 -0.9855 -1.09208 0
M  V30 1066 H 100.034 -0.412954 -4.15151 0
M  V30 1067 H 98.6637 0.244627 -3.21872 0
M  V30 1068 H 97.7157 -2.1734 -3.12198 0
M  V30 1069 H 99.0277 -2.66705 -4.21509 0
M  V30 1070 H 98.1817 -1.093 -5.96773 0
M  V30 1071 H 96.9207 -0.497293 -4.85158 0
M  V30 1072 H 95.9257 -2.79906 -4.73215 0
M  V30 1073 H 97.1507 -3.39283 -5.88272 0
M  V30 1074 H 95.0967 -1.22051 -6.44546 0
M  V30 1075 H 95.0137 -2.86125 -6.99763 0
M  V30 1076 H 96.2817 -1.82369 -7.57867 0
M  V30 1077 N 100.511 1.16574 -1.06058 0
M  V30 1078 C 101.461 2.18854 -0.63929 0
M  V30 1079 C 102.445 1.57505 0.328798 0
M  V30 1080 O 103.637 1.76408 0.144623 0
M  V30 1081 C 100.766 3.43291 -0.0247203 0
M  V30 1082 C 99.8518 4.11722 -1.01716 0
M  V30 1083 N 100.243 4.55841 -2.19186 0
M  V30 1084 C 98.5408 4.37872 -0.847569 0
M  V30 1085 C 99.2418 5.08751 -2.82042 0
M  V30 1086 N 98.2178 5.01489 -2.09784 0
M  V30 1087 H 102.02 2.5068 -1.53417 0
M  V30 1088 H 99.5338 1.32999 -0.931935 0
M  V30 1089 H 101.531 4.15856 0.294915 0
M  V30 1090 H 100.191 3.12954 0.865448 0
M  V30 1091 H 101.202 4.49649 -2.56975 0
M  V30 1092 H 97.8788 4.17499 -0.00918848 0
M  V30 1093 H 99.2688 5.52944 -3.81709 0
M  V30 1094 N 101.989 0.842826 1.3317 0
M  V30 1095 C 103.4 0.496651 1.79973 0
M  V30 1096 C 103.751 -0.984641 1.69703 0
M  V30 1097 O 102.876 -1.76743 1.24863 0
M  V30 1098 C 103.471 0.894727 3.26772 0
M  V30 1099 C 102.03 0.600629 3.71577 0
M  V30 1100 C 101.177 1.10091 2.5451 0
M  V30 1101 H 104.128 1.03116 1.20635 0
M  V30 1102 H 104.149 0.206347 3.7994 0
M  V30 1103 H 103.661 1.97287 3.34215 0
M  V30 1104 H 101.762 -0.467284 3.69658 0
M  V30 1105 H 101.875 1.15863 4.64879 0
M  V30 1106 H 100.239 0.52162 2.49301 0
M  V30 1107 H 101.022 2.18591 2.64713 0
M  V30 1108 N 103.467 -1.45747 0.599634 0
M  V30 1109 C 104.692 -2.07178 0.0960198 0
M  V30 1110 C 105.117 -1.44268 -1.207 0
M  V30 1111 O 104.475 -0.532503 -1.73303 0
M  V30 1112 C 104.523 -3.60579 -0.0385348 0
M  V30 1113 O 103.627 -3.97713 -1.0908 0
M  V30 1114 H 102.968 -0.660251 0.0704593 0
M  V30 1115 H 105.498 -1.87124 0.827385 0
M  V30 1116 H 105.508 -4.07298 -0.239304 0
M  V30 1117 H 104.183 -4.05756 0.912947 0
M  V30 1118 H 102.76 -3.62678 -0.867135 0
M  V30 1119 N 104.945 -0.338344 -1.53925 0
M  V30 1120 C 106.194 0.260732 -2.00008 0
M  V30 1121 C 106.507 1.52073 -1.23017 0
M  V30 1122 O 107.713 2.19672 -1.5955 0
M  V30 1123 C 106.169 0.51515 -3.56194 0
M  V30 1124 C 105.777 -0.728645 -4.42035 0
M  V30 1125 C 107.521 1.07337 -4.10706 0
M  V30 1126 C 105.428 -0.445315 -5.89721 0
M  V30 1127 H 104.358 0.101205 -0.747177 0
M  V30 1128 H 107.009 -0.452866 -1.77824 0
M  V30 1129 H 105.391 1.28932 -3.74423 0
M  V30 1130 H 106.565 -1.50352 -4.35581 0
M  V30 1131 H 104.88 -1.20813 -3.98489 0
M  V30 1132 H 107.477 1.30022 -5.18651 0
M  V30 1133 H 107.82 2.0273 -3.63602 0
M  V30 1134 H 108.353 0.360034 -3.96167 0
M  V30 1135 H 105.092 -1.36883 -6.41049 0
M  V30 1136 H 104.612 0.291569 -5.99091 0
M  V30 1137 H 106.291 -0.0606218 -6.46972 0
M  V30 1138 N 106.423 1.57458 -0.0668435 0
M  V30 1139 C 107.353 2.15468 0.899764 0
M  V30 1140 C 108.334 1.08042 1.31381 0
M  V30 1141 O 109.519 1.36054 1.38574 0
M  V30 1142 C 106.649 2.71232 2.16911 0
M  V30 1143 C 105.603 3.83781 1.89463 0
M  V30 1144 C 104.929 4.26127 3.22986 0
M  V30 1145 C 106.229 5.08238 1.20381 0
M  V30 1146 H 107.923 2.96488 0.416529 0
M  V30 1147 H 105.469 1.4262 0.198908 0
M  V30 1148 H 107.422 3.10458 2.84945 0
M  V30 1149 H 106.146 1.87426 2.67468 0
M  V30 1150 H 104.805 3.45051 1.23836 0
M  V30 1151 H 104.453 3.39249 3.71374 0
M  V30 1152 H 104.153 5.01993 3.05413 0
M  V30 1153 H 105.677 4.67966 3.92225 0
M  V30 1154 H 107.091 5.44811 1.78475 0
M  V30 1155 H 105.488 5.89349 1.13083 0
M  V30 1156 H 106.558 4.84558 0.182153 0
M  V30 1157 N 107.901 -0.206675 1.56239 0
M  V30 1158 C 108.811 -1.27686 1.96808 0
M  V30 1159 C 109.827 -1.50455 0.874035 0
M  V30 1160 O 111.003 -1.63295 1.17884 0
M  V30 1161 C 108.068 -2.60358 2.28942 0
M  V30 1162 C 107.129 -2.45762 3.51994 0
M  V30 1163 C 106.362 -3.72108 3.82585 0
M  V30 1164 O 106.585 -4.75776 3.14631 0
M  V30 1165 O 105.519 -3.6833 4.76043 0
M  V30 1166 H 109.345 -0.962593 2.88041 0
M  V30 1167 H 106.93 -0.410746 1.43643 0
M  V30 1168 H 108.812 -3.38687 2.50737 0
M  V30 1169 H 107.487 -2.91435 1.4088 0
M  V30 1170 H 106.394 -1.65584 3.35459 0
M  V30 1171 H 107.727 -2.19621 4.40486 0
M  V30 1172 N 109.379 -1.50304 -0.473955 0
M  V30 1173 C 110.309 -1.71886 -1.58042 0
M  V30 1174 C 111.29 -0.567799 -1.60344 0
M  V30 1175 O 112.475 -0.806623 -1.76656 0
M  V30 1176 C 109.605 -1.81036 -2.96384 0
M  V30 1177 C 108.559 -2.962 -3.08949 0
M  V30 1178 C 107.885 -2.9049 -4.48909 0
M  V30 1179 C 109.185 -4.36752 -2.86434 0
M  V30 1180 H 110.879 -2.64527 -1.40234 0
M  V30 1181 H 108.425 -1.27295 -0.673201 0
M  V30 1182 H 110.378 -1.94719 -3.73714 0
M  V30 1183 H 109.102 -0.850147 -3.15341 0
M  V30 1184 H 107.761 -2.82164 -2.3405 0
M  V30 1185 H 107.409 -1.92321 -4.64781 0
M  V30 1186 H 107.109 -3.67802 -4.58253 0
M  V30 1187 H 108.633 -3.06218 -5.28264 0
M  V30 1188 H 110.047 -4.5133 -3.53517 0
M  V30 1189 H 108.444 -5.15493 -3.07225 0
M  V30 1190 H 109.514 -4.49321 -1.82316 0
M  V30 1191 N 110.857 0.726932 -1.39834 0
M  V30 1192 C 112.087 1.51393 -1.40583 0
M  V30 1193 C 112.495 1.892 -0.000740625 0
M  V30 1194 O 111.838 1.55189 0.982951 0
M  V30 1195 C 111.9 2.82588 -2.22226 0
M  V30 1196 C 111.564 2.67169 -3.70769 0
M  V30 1197 C 112.561 2.3518 -4.63666 0
M  V30 1198 C 110.246 2.83788 -4.14451 0
M  V30 1199 C 112.24 2.20002 -5.98229 0
M  V30 1200 C 109.927 2.68229 -5.49087 0
M  V30 1201 C 110.925 2.36382 -6.4079 0
M  V30 1202 O 110.613 2.2093 -7.72946 0
M  V30 1203 H 110.345 0.474168 -0.48181 0
M  V30 1204 H 112.899 0.905247 -1.84376 0
M  V30 1205 H 111.129 3.45746 -1.73195 0
M  V30 1206 H 112.818 3.44247 -2.15055 0
M  V30 1207 H 113.584 2.21984 -4.31217 0
M  V30 1208 H 109.463 3.07566 -3.43401 0
M  V30 1209 H 113.007 1.95067 -6.69772 0
M  V30 1210 H 108.904 2.81006 -5.81125 0
M  V30 1211 H 109.672 2.35937 -7.83757 0
M  V30 1212 N 112.336 1.25143 0.95797 0
M  V30 1213 C 113.284 1.05019 2.07542 0
M  V30 1214 C 114.278 -0.0178751 1.69391 0
M  V30 1215 O 115.484 0.137472 1.79474 0
M  V30 1216 H 111.859 0.32265 0.679265 0
M  V30 1217 H 113.83 1.99759 2.21673 0
M  V30 1218 C 112.579 0.682074 3.40944 0
M  V30 1219 H 111.902 1.49573 3.70767 0
M  V30 1220 H 113.342 0.580945 4.20001 0
M  V30 1221 C 111.801 -0.611608 3.31302 0
M  V30 1222 O 112.331 -1.65465 3.66038 0
M  V30 1223 N 110.537 -0.595982 2.84423 0
M  V30 1224 H 110.084 0.253192 2.56353 0
M  V30 1225 H 110.042 -1.46173 2.78354 0
M  V30 1226 N 113.814 -1.1601 1.06675 0
M  V30 1227 C 115.044 -1.90251 0.805497 0
M  V30 1228 C 115.452 -1.77891 -0.64431 0
M  V30 1229 O 114.795 -1.12383 -1.45313 0
M  V30 1230 C 114.857 -3.41419 1.12576 0
M  V30 1231 C 114.521 -3.77564 2.57477 0
M  V30 1232 C 115.518 -3.79161 3.55715 0
M  V30 1233 C 113.203 -4.08079 2.92877 0
M  V30 1234 C 115.197 -4.10767 4.8739 0
M  V30 1235 C 112.884 -4.39351 4.24751 0
M  V30 1236 C 113.882 -4.40675 5.21818 0
M  V30 1237 O 113.57 -4.71202 6.51325 0
M  V30 1238 H 113.302 -0.610018 0.291297 0
M  V30 1239 H 115.856 -1.47958 1.4247 0
M  V30 1240 H 114.086 -3.84079 0.449503 0
M  V30 1241 H 115.775 -3.9694 0.84814 0
M  V30 1242 H 116.541 -3.55693 3.29708 0
M  V30 1243 H 112.42 -4.06211 2.17976 0
M  V30 1244 H 115.964 -4.11715 5.63148 0
M  V30 1245 H 111.861 -4.62285 4.50514 0
M  V30 1246 H 112.629 -4.88996 6.56373 0
M  V30 1247 N 115.292 -0.849877 -1.32721 0
M  V30 1248 C 116.539 -0.450923 -1.97416 0
M  V30 1249 C 116.867 0.992376 -1.67279 0
M  V30 1250 O 116.122 1.71048 -0.950845 0
M  V30 1251 C 116.421 -0.631272 -3.51781 0
M  V30 1252 C 116.087 -2.04432 -4.01894 0
M  V30 1253 C 114.749 -2.4308 -4.1529 0
M  V30 1254 C 117.101 -2.96679 -4.28522 0
M  V30 1255 C 114.429 -3.73257 -4.52654 0
M  V30 1256 C 116.781 -4.26349 -4.67343 0
M  V30 1257 C 115.445 -4.64939 -4.78945 0
M  V30 1258 H 114.715 -0.165004 -0.722395 0
M  V30 1259 H 117.362 -1.07901 -1.58207 0
M  V30 1260 H 115.667 0.0800767 -3.91718 0
M  V30 1261 H 117.364 -0.302709 -3.99856 0
M  V30 1262 H 113.954 -1.73419 -3.91949 0
M  V30 1263 H 118.138 -2.68054 -4.17685 0
M  V30 1264 H 113.394 -4.02946 -4.59831 0
M  V30 1265 H 117.568 -4.97895 -4.86902 0
M  V30 1266 H 115.195 -5.65855 -5.07654 0
M  V30 1267 N 116.77 1.45427 -0.607355 0
M  V30 1268 C 117.68 2.34325 0.113463 0
M  V30 1269 C 118.696 1.51226 0.860617 0
M  V30 1270 O 119.872 1.84029 0.818255 0
M  V30 1271 C 116.937 3.28839 1.09844 0
M  V30 1272 C 115.998 4.27844 0.353271 0
M  V30 1273 C 115.231 5.17842 1.29133 0
M  V30 1274 O 115.454 5.11264 2.52913 0
M  V30 1275 O 114.388 5.96713 0.788523 0
M  V30 1276 H 118.214 2.97364 -0.617094 0
M  V30 1277 H 115.799 1.44807 -0.367619 0
M  V30 1278 H 117.681 3.8708 1.66575 0
M  V30 1279 H 116.356 2.68365 1.81003 0
M  V30 1280 H 115.263 3.7322 -0.256494 0
M  V30 1281 H 116.596 4.91173 -0.317822 0
M  V30 1282 N 118.248 0.346503 1.53744 0
M  V30 1283 C 119.525 -0.304532 1.93215 0
M  V30 1284 C 119.905 -1.67993 1.27834 0
M  V30 1285 O 119.253 -2.24411 0.430352 0
M  V30 1286 C 119.463 -0.373852 3.46992 0
M  V30 1287 C 120.811 -0.62329 4.2 0
M  V30 1288 O 121.835 -0.455847 3.53271 0
M  V30 1289 O 120.694 -0.947879 5.38217 0
M  V30 1290 H 117.788 -0.178318 0.807547 0
M  V30 1291 H 120.334 0.397895 1.64969 0
M  V30 1292 H 119.106 0.591224 3.86808 0
M  V30 1293 H 118.729 -1.12294 3.81413 0
M  V30 1294 N 119.726 -1.57421 0.075193 0
M  V30 1295 C 120.951 -1.98364 -0.605515 0
M  V30 1296 C 121.376 -0.953383 -1.62149 0
M  V30 1297 O 120.734 0.0806053 -1.81121 0
M  V30 1298 C 120.782 -3.38332 -1.24756 0
M  V30 1299 O 119.886 -3.37959 -2.36342 0
M  V30 1300 H 119.227 -0.645553 -0.155428 0
M  V30 1301 H 121.757 -2.04044 0.150714 0
M  V30 1302 H 121.767 -3.75591 -1.5936 0
M  V30 1303 H 120.442 -4.12846 -0.503129 0
M  V30 1304 H 119.019 -3.12474 -2.03506 0
M  V30 1305 N 121.204 0.198386 -1.56346 0
M  V30 1306 C 122.152 1.26538 -1.95169 0
M  V30 1307 C 123.146 1.47295 -0.836685 0
M  V30 1308 O 124.352 1.48195 -1.02167 0
M  V30 1309 H 120.727 0.424744 -0.620561 0
M  V30 1310 H 122.698 0.910904 -2.84157 0
M  V30 1311 C 121.447 2.6035 -2.30463 0
M  V30 1312 H 120.77 2.45192 -3.15786 0
M  V30 1313 H 122.21 3.33762 -2.61494 0
M  V30 1314 C 120.669 3.17096 -1.13806 0
M  V30 1315 O 121.199 3.99588 -0.41135 0
M  V30 1316 N 119.405 2.75795 -0.915736 0
M  V30 1317 H 118.952 2.08816 -1.50843 0
M  V30 1318 H 118.91 3.14101 -0.136979 0
M  V30 1319 N 122.682 1.50554 0.465978 0
M  V30 1320 C 123.912 1.65323 1.23903 0
M  V30 1321 C 124.32 0.338051 1.86155 0
M  V30 1322 O 123.663 -0.690518 1.70228 0
M  V30 1323 C 123.725 2.69048 2.3844 0
M  V30 1324 C 123.389 4.12462 1.96784 0
M  V30 1325 C 124.386 4.98168 1.48745 0
M  V30 1326 C 122.071 4.58407 2.05349 0
M  V30 1327 C 124.065 6.27868 1.0982 0
M  V30 1328 C 121.752 5.88112 1.66035 0
M  V30 1329 C 122.75 6.72668 1.18349 0
M  V30 1330 O 122.438 7.99951 0.795825 0
M  V30 1331 H 122.17 0.558629 0.38067 0
M  V30 1332 H 124.724 1.97561 0.562022 0
M  V30 1333 H 122.954 2.32062 3.09328 0
M  V30 1334 H 124.643 2.72985 3.0039 0
M  V30 1335 H 125.409 4.63885 1.41546 0
M  V30 1336 H 121.288 3.92735 2.41414 0
M  V30 1337 H 124.832 6.93819 0.725293 0
M  V30 1338 H 120.729 6.21914 1.72895 0
M  V30 1339 H 121.497 8.13265 0.924222 0
M  V30 1340 N 124.16 -0.719506 1.40217 0
M  V30 1341 C 125.406 -1.48152 1.38488 0
M  V30 1342 C 125.739 -1.94195 -0.0141867 0
M  V30 1343 O 125.014 -1.67884 -0.982096 0
M  V30 1344 C 125.297 -2.71035 2.37091 0
M  V30 1345 C 125.15 -2.30912 3.86005 0
M  V30 1346 C 126.469 -3.73182 2.33288 0
M  V30 1347 H 123.588 -0.537395 0.504357 0
M  V30 1348 H 126.23 -0.821472 1.71324 0
M  V30 1349 H 124.38 -3.27352 2.0922 0
M  V30 1350 H 126.052 -1.80107 4.24687 0
M  V30 1351 H 124.295 -1.62958 4.02029 0
M  V30 1352 H 124.966 -3.18978 4.50508 0
M  V30 1353 H 127.442 -3.26485 2.57966 0
M  V30 1354 H 126.318 -4.56806 3.04334 0
M  V30 1355 H 126.579 -4.21202 1.34317 0
M  V30 1356 N 125.638 -1.25649 -0.95132 0
M  V30 1357 C 126.868 -1.13179 -1.72841 0
M  V30 1358 C 127.276 0.316827 -1.86528 0
M  V30 1359 O 126.619 1.22948 -1.3649 0
M  V30 1360 C 126.681 -1.71644 -3.15878 0
M  V30 1361 C 126.345 -3.20667 -3.25609 0
M  V30 1362 C 127.342 -4.17616 -3.09666 0
M  V30 1363 C 125.027 -3.6094 -3.49324 0
M  V30 1364 C 127.021 -5.52817 -3.17289 0
M  V30 1365 C 124.708 -4.96278 -3.56584 0
M  V30 1366 C 125.706 -5.92025 -3.40581 0
M  V30 1367 O 125.394 -7.24899 -3.47528 0
M  V30 1368 H 125.126 -0.395389 -0.54831 0
M  V30 1369 H 127.68 -1.66566 -1.20187 0
M  V30 1370 H 125.91 -1.12707 -3.69911 0
M  V30 1371 H 127.599 -1.54225 -3.75459 0
M  V30 1372 H 128.365 -3.87842 -2.91211 0
M  V30 1373 H 124.244 -2.86907 -3.6084 0
M  V30 1374 H 127.788 -6.2753 -3.04716 0
M  V30 1375 H 123.685 -5.25716 -3.74556 0
M  V30 1376 H 124.453 -7.33039 -3.64138 0
M  V30 1377 N 127.117 1.15442 -1.07289 0
M  V30 1378 C 128.047 2.22312 -0.714107 0
M  V30 1379 C 129.028 1.67467 0.298155 0
M  V30 1380 O 130.213 1.93445 0.171048 0
M  V30 1381 C 127.343 3.47124 -0.110448 0
M  V30 1382 C 126.297 4.14926 -1.04979 0
M  V30 1383 C 125.623 5.33807 -0.308924 0
M  V30 1384 C 126.923 4.64762 -2.38314 0
M  V30 1385 H 128.617 2.5258 -1.6076 0
M  V30 1386 H 126.163 1.21404 -0.77441 0
M  V30 1387 H 128.116 4.21124 0.152482 0
M  V30 1388 H 126.84 3.16187 0.81812 0
M  V30 1389 H 125.499 3.42866 -1.29764 0
M  V30 1390 H 125.147 4.99126 0.623084 0
M  V30 1391 H 124.847 5.80113 -0.935036 0
M  V30 1392 H 126.371 6.10576 -0.0537771 0
M  V30 1393 H 127.785 5.30292 -2.1786 0
M  V30 1394 H 126.182 5.21728 -2.96514 0
M  V30 1395 H 127.252 3.80434 -3.00663 0
M  V30 1396 N 128.595 0.856903 1.32268 0
M  V30 1397 C 129.841 0.462069 1.97466 0
M  V30 1398 C 130.174 -0.980298 1.67642 0
M  V30 1399 O 129.449 -1.68824 0.965858 0
M  V30 1400 C 129.732 0.704336 3.53145 0
M  V30 1401 C 129.585 2.19529 3.9259 0
M  V30 1402 C 130.904 0.1622 4.39801 0
M  V30 1403 H 128.023 0.169357 0.717278 0
M  V30 1404 H 130.665 1.07574 1.56614 0
M  V30 1405 H 128.815 0.181999 3.88073 0
M  V30 1406 H 130.487 2.78387 3.67829 0
M  V30 1407 H 128.73 2.67292 3.41668 0
M  V30 1408 H 129.401 2.31549 5.01088 0
M  V30 1409 H 131.877 0.608905 4.11621 0
M  V30 1410 H 130.753 0.361265 5.4771 0
M  V30 1411 H 131.014 -0.935158 4.32096 0
M  V30 1412 N 130.073 -1.45103 0.615059 0
M  V30 1413 C 131.003 -2.33339 -0.0865619 0
M  V30 1414 C 131.984 -1.4727 -0.851209 0
M  V30 1415 O 133.169 -1.76026 -0.820281 0
M  V30 1416 C 130.299 -3.30095 -1.07956 0
M  V30 1417 C 129.253 -4.25858 -0.427628 0
M  V30 1418 C 128.579 -5.12361 -1.5294 0
M  V30 1419 C 129.879 -5.18165 0.655944 0
M  V30 1420 H 131.573 -2.92254 0.650224 0
M  V30 1421 H 129.119 -1.40532 0.314138 0
M  V30 1422 H 131.072 -3.90698 -1.57901 0
M  V30 1423 H 129.796 -2.69355 -1.84703 0
M  V30 1424 H 128.455 -3.66564 0.0510292 0
M  V30 1425 H 128.103 -4.47984 -2.28734 0
M  V30 1426 H 127.803 -5.77238 -1.09865 0
M  V30 1427 H 129.327 -5.75833 -2.03098 0
M  V30 1428 H 130.741 -5.72796 0.240257 0
M  V30 1429 H 129.138 -5.91559 1.00888 0
M  V30 1430 H 130.208 -4.60144 1.52957 0
M  V30 1431 N 131.551 -0.354651 -1.53558 0
M  V30 1432 C 132.461 0.50515 -2.29097 0
M  V30 1433 C 133.477 1.10223 -1.34636 0
M  V30 1434 O 134.653 1.11553 -1.67684 0
M  V30 1435 C 131.718 1.63479 -3.05738 0
M  V30 1436 C 130.779 1.06636 -4.15845 0
M  V30 1437 C 130.012 2.14217 -4.88822 0
M  V30 1438 O 130.235 3.35137 -4.61562 0
M  V30 1439 O 129.169 1.77887 -5.75013 0
M  V30 1440 H 132.995 -0.109237 -3.03503 0
M  V30 1441 H 130.58 -0.119357 -1.48922 0
M  V30 1442 H 132.462 2.2918 -3.5363 0
M  V30 1443 H 131.137 2.23478 -2.34178 0
M  V30 1444 H 130.044 0.373565 -3.7223 0
M  V30 1445 H 131.377 0.511081 -4.89539 0
M  V30 1446 N 133.029 1.57378 -0.0835403 0
M  V30 1447 C 133.962 2.09016 0.915833 0
M  V30 1448 C 134.94 0.997993 1.2837 0
M  V30 1449 O 136.124 1.27219 1.39096 0
M  V30 1450 C 133.251 2.55757 2.22049 0
M  V30 1451 C 132.297 3.76522 2.00333 0
M  V30 1452 S 133.13 5.20661 1.25191 0
M  V30 1453 C 134.286 5.70743 2.56912 0
M  V30 1454 H 134.519 2.93457 0.476492 0
M  V30 1455 H 132.052 1.53856 0.129493 0
M  V30 1456 H 134.01 2.83346 2.97027 0
M  V30 1457 H 132.671 1.71564 2.63106 0
M  V30 1458 H 131.864 4.07256 2.96916 0
M  V30 1459 H 131.466 3.49367 1.33488 0
M  V30 1460 H 133.758 5.78304 3.52946 0
M  V30 1461 H 134.701 6.6944 2.30772 0
M  V30 1462 H 135.109 4.98616 2.64655 0
M  V30 1463 N 134.507 -0.190092 1.56449 0
M  V30 1464 C 135.747 -0.916414 1.82705 0
M  V30 1465 C 136.111 -1.80235 0.661763 0
M  V30 1466 O 137.312 -2.56484 0.80433 0
M  V30 1467 C 135.583 -1.70691 3.14005 0
M  V30 1468 S 137.142 -2.48457 3.61683 0
M  V30 1469 H 133.96 -0.307281 0.64117 0
M  V30 1470 H 136.562 -0.179433 1.94675 0
M  V30 1471 H 135.266 -1.04677 3.96826 0
M  V30 1472 H 134.797 -2.48562 3.04927 0
M  V30 1473 H 136.812 -3.72756 3.27517 0
M  V30 1474 N 135.985 -1.50799 -0.457987 0
M  V30 1475 C 136.935 -1.67003 -1.55222 0
M  V30 1476 C 137.919 -0.52434 -1.52117 0
M  V30 1477 O 139.111 -0.779345 -1.58919 0
M  V30 1478 C 136.24 -1.77956 -2.93576 0
M  V30 1479 C 135.326 -2.98243 -3.01516 0
M  V30 1480 N 135.717 -4.21732 -2.79241 0
M  V30 1481 C 134.015 -2.97072 -3.32662 0
M  V30 1482 C 134.716 -5.02817 -2.92489 0
M  V30 1483 N 133.692 -4.37038 -3.23262 0
M  V30 1484 H 137.494 -2.60163 -1.36721 0
M  V30 1485 H 135.008 -1.48163 -0.664952 0
M  V30 1486 H 137.005 -1.87671 -3.72271 0
M  V30 1487 H 135.665 -0.859634 -3.13114 0
M  V30 1488 H 136.676 -4.51016 -2.54567 0
M  V30 1489 H 133.353 -2.14631 -3.58106 0
M  V30 1490 H 134.743 -6.11054 -2.79396 0
M  V30 1491 N 137.463 0.71206 -1.40597 0
M  V30 1492 C 138.411 1.84746 -1.41321 0
M  V30 1493 C 139.405 1.66842 -0.293268 0
M  V30 1494 O 140.611 1.73904 -0.464481 0
M  V30 1495 H 136.986 0.608522 -0.441819 0
M  V30 1496 H 138.957 1.81252 -2.37045 0
M  V30 1497 C 137.706 3.22638 -1.29614 0
M  V30 1498 H 137.029 3.37023 -2.15071 0
M  V30 1499 H 138.469 4.02209 -1.3418 0
M  V30 1500 C 136.928 3.36899 -0.00673121 0
M  V30 1501 O 137.458 3.90186 0.954859 0
M  V30 1502 N 135.664 2.9053 0.0639327 0
M  V30 1503 H 135.211 2.47353 -0.719311 0
M  V30 1504 H 135.169 3.0045 0.926118 0
M  V30 1505 N 138.941 1.26152 0.944643 0
M  V30 1506 C 140.189 1.11271 1.6871 0
M  V30 1507 C 140.51 -0.345166 1.91921 0
M  V30 1508 O 139.78 -1.24387 1.51343 0
M  V30 1509 H 138.36 0.408783 0.625224 0
M  V30 1510 H 141.022 1.58427 1.1352 0
M  V30 1511 H 140.118 1.62879 2.66227 0
M  V30 1512 N 140.419 -1.14872 1.07899 0
M  V30 1513 C 141.329 -2.2341 0.715915 0
M  V30 1514 C 142.345 -1.71808 -0.275306 0
M  V30 1515 O 143.521 -2.01039 -0.120545 0
M  V30 1516 C 140.586 -3.46474 0.125168 0
M  V30 1517 C 139.647 -4.13039 1.17034 0
M  V30 1518 C 138.88 -5.30229 0.607688 0
M  V30 1519 O 139.103 -5.675 -0.574497 0
M  V30 1520 O 138.037 -5.86444 1.35526 0
M  V30 1521 H 141.863 -2.56808 1.62121 0
M  V30 1522 H 139.448 -1.22702 0.852322 0
M  V30 1523 H 141.33 -4.20917 -0.201729 0
M  V30 1524 H 140.005 -3.14811 -0.753364 0
M  V30 1525 H 138.912 -3.40493 1.54968 0
M  V30 1526 H 140.245 -4.48796 2.02097 0
M  V30 1527 N 141.898 -0.863906 -1.31812 0
M  V30 1528 C 142.831 -0.259963 -2.26714 0
M  V30 1529 C 143.809 0.607392 -1.50829 0
M  V30 1530 O 144.993 0.562155 -1.79922 0
M  V30 1531 C 142.12 0.632456 -3.32743 0
M  V30 1532 C 141.166 -0.162743 -4.26189 0
M  V30 1533 S 141.999 -1.53726 -5.12961 0
M  V30 1534 C 143.155 -0.650803 -6.22507 0
M  V30 1535 H 143.388 -1.06445 -2.77591 0
M  V30 1536 H 140.921 -0.662071 -1.39485 0
M  V30 1537 H 142.879 1.14167 -3.94305 0
M  V30 1538 H 141.54 1.41083 -2.80632 0
M  V30 1539 H 140.733 0.517366 -5.01338 0
M  V30 1540 H 140.335 -0.60385 -3.69093 0
M  V30 1541 H 142.627 0.141134 -6.77353 0
M  V30 1542 H 143.57 -1.37322 -6.94657 0
M  V30 1543 H 143.978 -0.221041 -5.64067 0
M  V30 1544 N 143.376 1.44774 -0.622745 0
M  V30 1545 C 144.324 2.32387 0.0994683 0
M  V30 1546 C 145.318 1.46859 0.844326 0
M  V30 1547 O 146.524 1.63254 0.758174 0
M  V30 1548 H 142.899 0.750273 0.0509291 0
M  V30 1549 H 144.87 2.91062 -0.65767 0
M  V30 1550 C 143.619 3.30723 1.07319 0
M  V30 1551 H 142.942 3.96541 0.509462 0
M  V30 1552 H 144.382 3.94725 1.54817 0
M  V30 1553 C 142.841 2.59021 2.15429 0
M  V30 1554 O 143.371 2.38286 3.23393 0
M  V30 1555 N 141.577 2.189 1.91131 0
M  V30 1556 H 141.124 2.35964 1.03337 0
M  V30 1557 H 141.082 1.71251 2.63668 0
M  V30 1558 N 144.854 0.36279 1.53368 0
M  V30 1559 C 146.27 0.0116182 1.59596 0
M  V30 1560 C 146.47 -1.47012 1.37803 0
M  V30 1561 O 145.526 -2.23136 1.18181 0
M  V30 1562 C 146.839 0.465052 2.97082 0
M  V30 1563 C 148.387 0.419033 3.10182 0
M  V30 1564 C 148.862 0.848235 4.50077 0
M  V30 1565 N 150.353 0.803183 4.56183 0
M  V30 1566 C 151.088 1.107 5.62613 0
M  V30 1567 N 150.584 1.47996 6.76808 0
M  V30 1568 N 152.377 1.02998 5.52583 0
M  V30 1569 H 144.528 1.32775 1.65785 0
M  V30 1570 H 146.791 0.542518 0.777417 0
M  V30 1571 H 146.497 1.49892 3.18159 0
M  V30 1572 H 146.371 -0.149786 3.76902 0
M  V30 1573 H 148.758 -0.605696 2.88817 0
M  V30 1574 H 148.839 1.06933 2.32377 0
M  V30 1575 H 148.483 1.87107 4.7218 0
M  V30 1576 H 148.413 0.175218 5.26308 0
M  V30 1577 H 150.904 0.52838 3.74188 0
M  V30 1578 H 151.217 1.69613 7.53957 0
M  V30 1579 H 149.562 1.51859 6.78206 0
M  V30 1580 H 152.753 0.737817 4.62249 0
M  V30 1581 H 152.926 1.2701 6.35431 0
M  V30 1582 N 146.332 -1.57332 0.0918853 0
M  V30 1583 C 147.562 -1.98286 -0.580205 0
M  V30 1584 C 147.97 -0.969713 -1.6246 0
M  V30 1585 O 147.313 0.0493501 -1.83634 0
M  V30 1586 C 147.375 -3.35603 -1.28882 0
M  V30 1587 C 147.039 -4.55285 -0.395559 0
M  V30 1588 C 148.036 -5.18687 0.355002 0
M  V30 1589 C 145.721 -5.01314 -0.314556 0
M  V30 1590 C 147.715 -6.26484 1.17458 0
M  V30 1591 C 145.402 -6.08979 0.508677 0
M  V30 1592 C 146.4 -6.71429 1.2519 0
M  V30 1593 O 146.088 -7.77018 2.06151 0
M  V30 1594 H 145.82 -0.656678 -0.160466 0
M  V30 1595 H 148.374 -2.04721 0.16688 0
M  V30 1596 H 146.604 -3.25842 -2.08241 0
M  V30 1597 H 148.293 -3.61026 -1.85512 0
M  V30 1598 H 149.059 -4.84058 0.302134 0
M  V30 1599 H 144.938 -4.5247 -0.882697 0
M  V30 1600 H 148.482 -6.75159 1.75518 0
M  V30 1601 H 144.379 -6.4304 0.563037 0
M  V30 1602 H 145.147 -7.93991 1.98799 0
M  V30 1603 N 147.81 0.181792 -1.56548 0
M  V30 1604 C 148.74 1.22765 -1.98623 0
M  V30 1605 C 149.721 1.46747 -0.860189 0
M  V30 1606 O 150.906 1.58259 -1.12551 0
M  V30 1607 C 148.036 2.56894 -2.33715 0
M  V30 1608 C 146.99 2.475 -3.49182 0
M  V30 1609 C 146.316 3.86023 -3.69986 0
M  V30 1610 C 147.616 1.98866 -4.82959 0
M  V30 1611 H 149.31 0.877942 -2.86239 0
M  V30 1612 H 146.856 0.42088 -1.37712 0
M  V30 1613 H 148.809 3.30253 -2.61746 0
M  V30 1614 H 147.533 2.93632 -1.42997 0
M  V30 1615 H 146.192 1.76596 -3.21262 0
M  V30 1616 H 145.84 4.20136 -2.76576 0
M  V30 1617 H 145.54 3.80609 -4.47672 0
M  V30 1618 H 147.064 4.60984 -4.00407 0
M  V30 1619 H 148.478 2.61992 -5.09934 0
M  V30 1620 H 146.875 2.04424 -5.64208 0
M  V30 1621 H 147.945 0.942465 -4.75653 0
M  V30 1622 N 149.288 1.51039 0.449983 0
M  V30 1623 C 150.235 1.71439 1.54523 0
M  V30 1624 C 151.205 0.555871 1.56522 0
M  V30 1625 O 152.39 0.788871 1.73728 0
M  V30 1626 C 149.53 1.83384 2.92343 0
M  V30 1627 C 148.643 3.10873 2.9997 0
M  V30 1628 C 147.778 3.13488 4.28834 0
M  V30 1629 C 146.817 4.35343 4.30282 0
M  V30 1630 N 145.954 4.35579 5.5065 0
M  V30 1631 H 150.794 2.64934 1.36433 0
M  V30 1632 H 148.331 1.31312 0.662982 0
M  V30 1633 H 150.289 1.88291 3.72293 0
M  V30 1634 H 148.919 0.933086 3.0902 0
M  V30 1635 H 147.971 3.15336 2.12761 0
M  V30 1636 H 149.283 4.00814 2.96901 0
M  V30 1637 H 148.437 3.17241 5.17149 0
M  V30 1638 H 147.176 2.21414 4.34543 0
M  V30 1639 H 146.181 4.3178 3.40362 0
M  V30 1640 H 147.406 5.28668 4.26248 0
M  V30 1641 H 145.352 3.46369 5.57104 0
M  V30 1642 H 145.269 5.19313 5.49409 0
M  V30 1643 H 146.537 4.43507 6.41032 0
M  V30 1644 N 150.766 -0.704594 1.40972 0
M  V30 1645 C 151.714 -1.83994 1.42299 0
M  V30 1646 C 152.708 -1.66684 0.302111 0
M  V30 1647 O 153.914 -1.73655 0.473697 0
M  V30 1648 H 150.289 -0.606171 0.44504 0
M  V30 1649 H 152.26 -1.79992 2.38003 0
M  V30 1650 C 151.009 -3.21946 1.31323 0
M  V30 1651 H 150.332 -3.35878 2.16855 0
M  V30 1652 H 151.772 -4.01491 1.36311 0
M  V30 1653 C 150.231 -3.36891 0.0245977 0
M  V30 1654 O 150.761 -3.90687 -0.934153 0
M  V30 1655 N 148.967 -2.90559 -0.0485243 0
M  V30 1656 H 148.514 -2.46968 0.732419 0
M  V30 1657 H 148.472 -3.00937 -0.910171 0
M  V30 1658 N 152.244 -1.26651 -0.937939 0
M  V30 1659 C 153.66 -1.03834 -1.21205 0
M  V30 1660 C 153.86 0.234502 -2.00131 0
M  V30 1661 O 152.916 0.942767 -2.3424 0
M  V30 1662 C 154.229 -2.27167 -1.97017 0
M  V30 1663 C 155.777 -2.32101 -2.09996 0
M  V30 1664 C 156.252 -3.55136 -2.8921 0
M  V30 1665 N 157.743 -3.55632 -2.96783 0
M  V30 1666 C 158.478 -4.475 -3.58512 0
M  V30 1667 N 157.974 -5.4966 -4.21717 0
M  V30 1668 N 159.767 -4.35145 -3.55816 0
M  V30 1669 H 151.918 -2.08398 -0.410391 0
M  V30 1670 H 154.181 -0.916031 -0.244114 0
M  V30 1671 H 153.887 -3.19765 -1.46434 0
M  V30 1672 H 153.761 -2.31672 -2.97671 0
M  V30 1673 H 156.148 -1.40015 -2.59769 0
M  V30 1674 H 156.229 -2.31605 -1.08594 0
M  V30 1675 H 155.873 -4.47553 -2.40123 0
M  V30 1676 H 155.803 -3.5288 -3.90875 0
M  V30 1677 H 158.294 -2.81743 -2.51852 0
M  V30 1678 H 158.607 -6.15943 -4.66727 0
M  V30 1679 H 156.952 -5.53514 -4.20294 0
M  V30 1680 H 160.143 -3.5455 -3.05634 0
M  V30 1681 H 160.316 -5.06934 -4.03636 0
M  V30 1682 N 153.722 1.14298 -1.08507 0
M  V30 1683 C 154.968 1.85633 -0.816581 0
M  V30 1684 C 155.301 1.82784 0.656021 0
M  V30 1685 O 154.576 1.25926 1.48233 0
M  V30 1686 C 154.859 3.34223 -1.34041 0
M  V30 1687 C 154.712 3.45639 -2.87843 0
M  V30 1688 C 156.031 4.29356 -0.9665 0
M  V30 1689 H 153.15 0.67402 -0.298104 0
M  V30 1690 H 155.792 1.34214 -1.34487 0
M  V30 1691 H 153.942 3.78144 -0.89104 0
M  V30 1692 H 155.614 3.10498 -3.41158 0
M  V30 1693 H 153.857 2.86817 -3.25451 0
M  V30 1694 H 154.528 4.50089 -3.19569 0
M  V30 1695 H 157.004 3.93457 -1.35391 0
M  V30 1696 H 155.88 5.3178 -1.3602 0
M  V30 1697 H 156.141 4.41919 0.126362 0
M  V30 1698 N 155.201 0.870884 1.31352 0
M  V30 1699 C 156.148 0.325425 2.28494 0
M  V30 1700 C 157.118 -0.576615 1.5577 0
M  V30 1701 O 158.303 -0.508059 1.83911 0
M  V30 1702 C 155.443 -0.466283 3.41935 0
M  V30 1703 C 154.556 0.463378 4.29508 0
M  V30 1704 C 153.691 -0.342544 5.30094 0
M  V30 1705 C 152.73 0.583486 6.09313 0
M  V30 1706 N 151.867 -0.186244 7.01853 0
M  V30 1707 H 156.707 1.15901 2.74538 0
M  V30 1708 H 154.244 0.58294 1.35056 0
M  V30 1709 H 156.202 -0.941085 4.06447 0
M  V30 1710 H 154.832 -1.26456 2.97 0
M  V30 1711 H 153.884 1.05663 3.65431 0
M  V30 1712 H 155.196 1.1734 4.84802 0
M  V30 1713 H 154.35 -0.879816 6.00287 0
M  V30 1714 H 153.089 -1.08585 4.75458 0
M  V30 1715 H 152.094 1.13251 5.3801 0
M  V30 1716 H 153.319 1.32566 6.66035 0
M  V30 1717 H 151.265 -0.912348 6.49625 0
M  V30 1718 H 151.182 0.464422 7.54572 0
M  V30 1719 H 152.45 -0.704716 7.76308 0
M  V30 1720 N 156.679 -1.44442 0.630414 0
M  V30 1721 C 158.09 -1.85434 0.217063 0
M  V30 1722 C 158.441 -1.52748 -1.23136 0
M  V30 1723 O 157.566 -0.965205 -1.93682 0
M  V30 1724 C 158.161 -3.36581 0.387168 0
M  V30 1725 C 156.72 -3.76389 0.0283297 0
M  V30 1726 C 155.867 -2.68296 0.700889 0
M  V30 1727 H 158.818 -1.34919 0.83562 0
M  V30 1728 H 158.839 -3.78657 -0.374086 0
M  V30 1729 H 158.351 -3.60339 1.44144 0
M  V30 1730 H 156.452 -3.58246 -1.02423 0
M  V30 1731 H 156.565 -4.77095 0.437892 0
M  V30 1732 H 154.929 -2.54335 0.136267 0
M  V30 1733 H 155.712 -2.94887 1.75774 0
M  V30 1734 N 158.157 -0.370918 -1.53173 0
M  V30 1735 C 159.404 0.217102 -2.01333 0
M  V30 1736 C 159.732 1.48338 -1.25802 0
M  V30 1737 O 158.987 1.92698 -0.34146 0
M  V30 1738 C 159.286 0.549696 -3.53147 0
M  V30 1739 C 158.952 -0.622872 -4.46577 0
M  V30 1740 C 157.614 -0.944595 -4.71838 0
M  V30 1741 C 159.966 -1.40819 -5.01816 0
M  V30 1742 C 157.294 -2.05351 -5.49589 0
M  V30 1743 C 159.646 -2.50757 -5.80778 0
M  V30 1744 C 158.31 -2.83458 -6.04324 0
M  V30 1745 H 157.58 0.0794431 -0.736729 0
M  V30 1746 H 160.227 -0.504481 -1.84736 0
M  V30 1747 H 158.532 1.35237 -3.6772 0
M  V30 1748 H 160.229 1.017 -3.87889 0
M  V30 1749 H 156.819 -0.36209 -4.27068 0
M  V30 1750 H 161.003 -1.17289 -4.82242 0
M  V30 1751 H 156.259 -2.3108 -5.6605 0
M  V30 1752 H 160.433 -3.12022 -6.22588 0
M  V30 1753 H 158.06 -3.69508 -6.64355 0
M  V30 1754 N 159.635 1.57281 -0.100228 0
M  V30 1755 C 160.86 1.99302 0.573881 0
M  V30 1756 C 161.285 0.979059 1.60611 0
M  V30 1757 O 160.643 -0.0517803 1.81226 0
M  V30 1758 C 160.691 3.40274 1.19358 0
M  V30 1759 O 159.795 3.41676 2.30935 0
M  V30 1760 H 159.136 0.647944 0.145138 0
M  V30 1761 H 161.666 2.03779 -0.183156 0
M  V30 1762 H 161.676 3.78078 1.53365 0
M  V30 1763 H 160.351 4.13594 0.437385 0
M  V30 1764 H 158.928 3.15672 1.98509 0
M  V30 1765 N 161.113 -0.173488 1.56642 0
M  V30 1766 C 162.023 -1.23482 1.99473 0
M  V30 1767 C 163.039 -1.48567 0.905752 0
M  V30 1768 O 164.215 -1.60758 1.21321 0
M  V30 1769 C 161.28 -2.55444 2.34413 0
M  V30 1770 C 160.341 -2.38241 3.57127 0
M  V30 1771 C 159.574 -3.63909 3.90392 0
M  V30 1772 O 159.797 -4.68996 3.24653 0
M  V30 1773 O 158.731 -3.58149 4.83749 0
M  V30 1774 H 162.557 -0.901279 2.90018 0
M  V30 1775 H 160.142 -0.380185 1.44482 0
M  V30 1776 H 162.024 -3.33292 2.57865 0
M  V30 1777 H 160.699 -2.88382 1.4703 0
M  V30 1778 H 159.606 -1.58431 3.38896 0
M  V30 1779 H 160.939 -2.10228 4.45045 0
M  V30 1780 N 162.591 -1.51276 -0.441967 0
M  V30 1781 C 163.539 -1.72823 -1.55676 0
M  V30 1782 C 164.533 -0.59445 -1.58627 0
M  V30 1783 O 165.739 -0.775715 -1.62427 0
M  V30 1784 H 162.114 -0.545983 -0.517113 0
M  V30 1785 H 164.085 -2.6628 -1.34675 0
M  V30 1786 C 162.834 -1.86619 -2.93375 0
M  V30 1787 H 162.157 -2.73264 -2.91834 0
M  V30 1788 H 163.597 -2.05709 -3.70756 0
M  V30 1789 C 162.056 -0.624842 -3.31055 0
M  V30 1790 O 162.586 0.222636 -4.01083 0
M  V30 1791 N 160.792 -0.470288 -2.86769 0
M  V30 1792 H 160.339 -1.161 -2.29953 0
M  V30 1793 H 160.297 0.359051 -3.12343 0
M  V30 1794 N 164.069 0.697108 -1.41344 0
M  V30 1795 C 164.979 1.84088 -1.45427 0
M  V30 1796 C 165.995 1.70545 -0.34501 0
M  V30 1797 O 167.171 1.92488 -0.592492 0
M  V30 1798 C 164.236 3.20056 -1.33286 0
M  V30 1799 C 163.297 3.45718 -2.54514 0
M  V30 1800 C 162.53 4.75199 -2.42944 0
M  V30 1801 O 162.753 5.51579 -1.45318 0
M  V30 1802 O 161.687 5.0161 -3.32672 0
M  V30 1803 H 165.513 1.836 -2.41919 0
M  V30 1804 H 163.098 0.849966 -1.22866 0
M  V30 1805 H 164.98 4.01236 -1.28794 0
M  V30 1806 H 163.655 3.2123 -0.39909 0
M  V30 1807 H 162.562 2.64474 -2.64583 0
M  V30 1808 H 163.895 3.49356 -3.46715 0
M  V30 1809 N 165.547 1.27147 0.931209 0
M  V30 1810 C 166.51 1.09615 2.01289 0
M  V30 1811 C 167.51 0.0412581 1.60747 0
M  V30 1812 O 168.7 0.285545 1.71844 0
M  V30 1813 C 165.832 0.669447 3.34262 0
M  V30 1814 H 167.025 2.05662 2.18273 0
M  V30 1815 H 164.578 1.09885 1.11153 0
M  V30 1816 H 165.313 -0.292572 3.22978 0
M  V30 1817 H 165.098 1.43127 3.65044 0
M  V30 1818 H 166.588 0.568921 4.13706 0
M  V30 1819 N 167.025 -1.13721 1.09112 0
M  V30 1820 C 168.441 -1.36914 0.820174 0
M  V30 1821 C 168.641 -1.93356 -0.567079 0
M  V30 1822 O 167.697 -2.15093 -1.32255 0
M  V30 1823 C 169.01 -2.3235 1.90877 0
M  V30 1824 C 170.558 -2.45973 1.93562 0
M  V30 1825 C 171.033 -3.44714 3.01556 0
M  V30 1826 N 172.524 -3.52263 3.00775 0
M  V30 1827 C 173.259 -4.28536 3.80978 0
M  V30 1828 N 172.755 -5.07991 4.71081 0
M  V30 1829 N 174.548 -4.23804 3.69251 0
M  V30 1830 H 166.699 -0.754348 1.98553 0
M  V30 1831 H 168.962 -0.3944 0.862063 0
M  V30 1832 H 168.668 -1.98027 2.90651 0
M  V30 1833 H 168.542 -3.32332 1.78424 0
M  V30 1834 H 170.929 -2.79584 0.944286 0
M  V30 1835 H 171.01 -1.45926 2.10093 0
M  V30 1836 H 170.654 -3.11835 4.00901 0
M  V30 1837 H 170.584 -4.44558 2.82269 0
M  V30 1838 H 173.075 -2.95567 2.35475 0
M  V30 1839 H 173.388 -5.63487 5.28869 0
M  V30 1840 H 171.733 -5.07235 4.75119 0
M  V30 1841 H 174.924 -3.60806 2.98222 0
M  V30 1842 H 175.097 -4.82995 4.31995 0
M  V30 1843 N 168.503 -0.877838 -1.30888 0
M  V30 1844 C 169.453 -0.310872 -2.25871 0
M  V30 1845 C 170.437 0.556596 -1.50966 0
M  V30 1846 O 171.629 0.402187 -1.7237 0
M  V30 1847 C 168.758 0.479821 -3.3993 0
M  V30 1848 C 167.844 -0.401333 -4.22197 0
M  V30 1849 N 168.235 -1.49848 -4.83093 0
M  V30 1850 C 166.533 -0.195167 -4.45573 0
M  V30 1851 C 167.234 -2.0425 -5.44662 0
M  V30 1852 N 166.21 -1.33843 -5.26865 0
M  V30 1853 H 170.012 -1.1493 -2.70496 0
M  V30 1854 H 167.526 -0.726458 -1.45246 0
M  V30 1855 H 169.523 0.902582 -4.07012 0
M  V30 1856 H 168.183 1.31577 -2.96846 0
M  V30 1857 H 169.194 -1.88137 -4.82519 0
M  V30 1858 H 165.871 0.604192 -4.13105 0
M  V30 1859 H 167.261 -2.96345 -6.03017 0
M  V30 1860 N 169.982 1.44106 -0.638065 0
M  V30 1861 C 171.229 2.01978 -0.14533 0
M  V30 1862 C 171.557 1.50234 1.23532 0
M  V30 1863 O 170.812 0.679548 1.83523 0
M  V30 1864 C 171.111 3.5729 -0.0887327 0
M  V30 1865 C 170.777 4.28317 -1.40909 0
M  V30 1866 C 169.439 4.47437 -1.77069 0
M  V30 1867 C 171.791 4.6867 -2.28031 0
M  V30 1868 C 169.119 5.04171 -3.00047 0
M  V30 1869 C 171.471 5.26766 -3.50286 0
M  V30 1870 C 170.135 5.44104 -3.86661 0
M  V30 1871 H 169.405 0.739089 -0.0531801 0
M  V30 1872 H 172.052 1.72781 -0.825761 0
M  V30 1873 H 170.357 3.8594 0.675095 0
M  V30 1874 H 172.054 3.99807 0.309145 0
M  V30 1875 H 168.644 4.1377 -1.1177 0
M  V30 1876 H 172.828 4.53604 -2.01388 0
M  V30 1877 H 168.084 5.15782 -3.28298 0
M  V30 1878 H 172.258 5.56983 -4.18023 0
M  V30 1879 H 169.885 5.87832 -4.82034 0
M  V30 1880 N 171.46 0.379036 1.52974 0
M  V30 1881 C 172.393 -0.504932 2.22544 0
M  V30 1882 C 173.371 -1.0723 1.22231 0
M  V30 1883 O 174.555 -1.12589 1.51182 0
M  V30 1884 C 171.682 -1.69794 2.93066 0
M  V30 1885 C 170.728 -1.25678 4.07563 0
M  V30 1886 S 171.561 -0.246852 5.34931 0
M  V30 1887 C 172.717 -1.44588 6.08971 0
M  V30 1888 H 172.95 0.0858666 2.97176 0
M  V30 1889 H 170.483 0.163183 1.53535 0
M  V30 1890 H 172.441 -2.38219 3.34308 0
M  V30 1891 H 171.102 -2.26002 2.18133 0
M  V30 1892 H 170.295 -2.14725 4.5597 0
M  V30 1893 H 169.897 -0.651584 3.6828 0
M  V30 1894 H 172.189 -2.37469 6.34519 0
M  V30 1895 H 173.132 -1.00292 7.00962 0
M  V30 1896 H 173.54 -1.65804 5.39601 0
M  V30 1897 N 172.938 -1.57226 0.108567 0
M  V30 1898 C 173.888 -2.11305 -0.856396 0
M  V30 1899 C 174.872 -1.03129 -1.23504 0
M  V30 1900 O 176.064 -1.29381 -1.20787 0
M  V30 1901 C 173.193 -2.70771 -2.11041 0
M  V30 1902 C 172.279 -3.86011 -1.7566 0
M  V30 1903 N 172.67 -4.93492 -1.10902 0
M  V30 1904 C 170.968 -3.95999 -2.05185 0
M  V30 1905 C 171.669 -5.73984 -0.944308 0
M  V30 1906 N 170.645 -5.2346 -1.46596 0
M  V30 1907 H 174.447 -2.91784 -0.352002 0
M  V30 1908 H 171.961 -1.62126 -0.0942324 0
M  V30 1909 H 173.958 -3.07851 -2.81128 0
M  V30 1910 H 172.618 -1.91751 -2.62034 0
M  V30 1911 H 173.629 -5.1208 -0.774235 0
M  V30 1912 H 170.306 -3.28007 -2.58298 0
M  V30 1913 H 171.696 -6.70479 -0.436813 0
M  V30 1914 N 174.416 0.165178 -1.56732 0
M  V30 1915 C 175.348 1.22911 -1.93457 0
M  V30 1916 C 176.361 1.40152 -0.828333 0
M  V30 1917 O 177.55 1.40046 -1.10677 0
M  V30 1918 C 174.65 2.59686 -2.17753 0
M  V30 1919 C 173.823 2.63663 -3.48999 0
M  V30 1920 C 172.882 3.81845 -3.62051 0
M  V30 1921 O 171.908 3.67559 -4.34613 0
M  V30 1922 N 173.11 4.98557 -2.97357 0
M  V30 1923 H 175.875 0.917118 -2.85323 0
M  V30 1924 H 173.436 0.354895 -1.57962 0
M  V30 1925 H 175.428 3.37225 -2.23743 0
M  V30 1926 H 173.998 2.83251 -1.32242 0
M  V30 1927 H 173.218 1.72173 -3.54612 0
M  V30 1928 H 174.506 2.63336 -4.35352 0
M  V30 1929 H 173.904 5.13065 -2.38287 0
M  V30 1930 H 172.461 5.73936 -3.08934 0
M  V30 1931 N 175.894 1.51508 0.433938 0
M  V30 1932 C 177.143 1.63578 1.18005 0
M  V30 1933 C 177.456 0.359514 1.92268 0
M  V30 1934 O 178.662 0.359632 2.69108 0
M  V30 1935 C 177.118 2.88901 2.14626 0
M  V30 1936 C 176.726 4.23544 1.45995 0
M  V30 1937 C 178.47 3.10328 2.89649 0
M  V30 1938 C 176.377 5.40014 2.4112 0
M  V30 1939 H 175.307 0.609277 0.444182 0
M  V30 1940 H 177.958 1.77978 0.446773 0
M  V30 1941 H 176.34 2.68142 2.91403 0
M  V30 1942 H 177.514 4.54696 0.747532 0
M  V30 1943 H 175.829 4.08021 0.831115 0
M  V30 1944 H 178.426 3.94518 3.60915 0
M  V30 1945 H 178.769 2.23544 3.51189 0
M  V30 1946 H 179.302 3.31443 2.19978 0
M  V30 1947 H 176.041 6.29068 1.84264 0
M  V30 1948 H 175.561 5.13233 3.10406 0
M  V30 1949 H 177.24 5.72099 3.02177 0
M  V30 1950 N 177.372 -0.689602 1.41712 0
M  V30 1951 C 178.621 -1.44534 1.40686 0
M  V30 1952 C 178.934 -1.95588 0.0213352 0
M  V30 1953 O 180.14 -2.71271 -0.111534 0
M  V30 1954 C 178.596 -2.61387 2.47396 0
M  V30 1955 C 178.204 -2.17094 3.91885 0
M  V30 1956 C 179.948 -3.38986 2.55517 0
M  V30 1957 C 177.855 -3.3094 4.90135 0
M  V30 1958 H 176.785 -0.542925 0.52321 0
M  V30 1959 H 179.436 -0.748054 1.6756 0
M  V30 1960 H 177.818 -3.33412 2.13664 0
M  V30 1961 H 178.992 -1.52318 4.34897 0
M  V30 1962 H 177.307 -1.52473 3.8748 0
M  V30 1963 H 179.904 -4.23747 3.26102 0
M  V30 1964 H 180.247 -3.84578 1.59391 0
M  V30 1965 H 180.78 -2.74021 2.8837 0
M  V30 1966 H 177.519 -2.90355 5.87685 0
M  V30 1967 H 177.039 -3.94546 4.51767 0
M  V30 1968 H 178.718 -3.9663 5.11169 0
M  V30 1969 N 178.85 -1.27639 -0.924453 0
M  V30 1970 C 180.078 -1.16989 -1.70649 0
M  V30 1971 C 180.493 0.272869 -1.86818 0
M  V30 1972 O 179.85 1.18549 -1.38753 0
M  V30 1973 C 179.901 -1.85229 -3.10439 0
M  V30 1974 O 179.622 -3.23868 -2.95028 0
M  V30 1975 C 181.123 -1.80746 -4.04779 0
M  V30 1976 H 178.343 -0.406595 -0.53378 0
M  V30 1977 H 180.887 -1.68569 -1.15778 0
M  V30 1978 H 179.042 -1.37545 -3.6216 0
M  V30 1979 H 179.456 -3.57889 -3.83426 0
M  V30 1980 H 180.93 -2.33101 -5.00368 0
M  V30 1981 H 181.407 -0.777499 -4.32263 0
M  V30 1982 H 182.013 -2.28059 -3.58984 0
M  V30 1983 N 180.328 1.1314 -1.09713 0
M  V30 1984 C 181.576 1.84119 -0.833338 0
M  V30 1985 C 181.897 1.84097 0.642904 0
M  V30 1986 O 181.167 1.29881 1.46655 0
M  V30 1987 H 179.747 0.681766 -0.305293 0
M  V30 1988 H 182.409 1.37038 -1.38588 0
M  V30 1989 H 181.505 2.88543 -1.18951 0
M  V30 1990 N 181.806 0.884767 1.30421 0
M  V30 1991 C 182.739 0.295999 2.26272 0
M  V30 1992 C 183.717 -0.58332 1.51777 0
M  V30 1993 O 184.901 -0.53346 1.80794 0
M  V30 1994 C 182.028 -0.57944 3.33707 0
M  V30 1995 C 181.074 0.230525 4.25877 0
M  V30 1996 S 181.907 1.61867 5.1045 0
M  V30 1997 C 183.063 0.749756 6.21393 0
M  V30 1998 H 183.296 1.10848 2.75862 0
M  V30 1999 H 180.829 0.684178 1.38414 0
M  V30 2000 H 182.787 -1.07879 3.96071 0
M  V30 2001 H 181.448 -1.36601 2.82841 0
M  V30 2002 H 180.641 -0.437542 5.02097 0
M  V30 2003 H 180.243 0.662493 3.68086 0
M  V30 2004 H 182.535 -0.0333547 6.77492 0
M  V30 2005 H 183.478 1.48356 6.92384 0
M  V30 2006 H 183.886 0.310751 5.63644 0
M  V30 2007 N 183.284 -1.43765 0.645699 0
M  V30 2008 C 184.214 -2.33471 -0.0370477 0
M  V30 2009 C 185.195 -1.49042 -0.819779 0
M  V30 2010 O 186.38 -1.77726 -0.782758 0
M  V30 2011 C 183.51 -3.32311 -1.0093 0
M  V30 2012 C 182.464 -4.2667 -0.337201 0
M  V30 2013 C 181.79 -5.1549 -1.42037 0
M  V30 2014 C 183.09 -5.16657 0.765706 0
M  V30 2015 H 184.784 -2.90809 0.712069 0
M  V30 2016 H 182.33 -1.39834 0.343876 0
M  V30 2017 H 184.283 -3.9396 -1.49578 0
M  V30 2018 H 183.007 -2.73213 -1.78948 0
M  V30 2019 H 181.666 -3.66374 0.128771 0
M  V30 2020 H 181.314 -4.52735 -2.1918 0
M  V30 2021 H 181.014 -5.79438 -0.975966 0
M  V30 2022 H 182.538 -5.80012 -1.90838 0
M  V30 2023 H 183.952 -5.72158 0.361702 0
M  V30 2024 H 182.349 -5.89286 1.13413 0
M  V30 2025 H 183.419 -4.56796 1.62683 0
M  V30 2026 N 184.763 -0.387143 -1.52771 0
M  V30 2027 C 185.993 0.195585 -2.05672 0
M  V30 2028 C 186.401 1.41241 -1.25887 0
M  V30 2029 O 185.744 1.81265 -0.298081 0
M  V30 2030 C 185.806 0.632327 -3.53895 0
M  V30 2031 C 185.47 -0.470739 -4.54569 0
M  V30 2032 C 186.467 -1.32746 -5.02667 0
M  V30 2033 C 184.152 -0.637151 -4.98243 0
M  V30 2034 C 186.146 -2.33574 -5.93061 0
M  V30 2035 C 183.833 -1.64877 -5.88438 0
M  V30 2036 C 184.831 -2.49649 -6.35739 0
M  V30 2037 O 184.519 -3.49082 -7.24153 0
M  V30 2038 H 184.251 0.033658 -0.675162 0
M  V30 2039 H 186.805 -0.550221 -1.97893 0
M  V30 2040 H 185.035 1.43008 -3.59285 0
M  V30 2041 H 186.724 1.14048 -3.89548 0
M  V30 2042 H 187.49 -1.21019 -4.69659 0
M  V30 2043 H 183.369 0.0129567 -4.60998 0
M  V30 2044 H 186.913 -2.99777 -6.29904 0
M  V30 2045 H 182.81 -1.76643 -6.2086 0
M  V30 2046 H 183.578 -3.45065 -7.42208 0
M  V30 2047 N 186.241 1.57166 -0.116904 0
M  V30 2048 C 187.171 2.18222 0.830759 0
M  V30 2049 C 188.152 1.12167 1.27877 0
M  V30 2050 O 189.337 1.40394 1.34176 0
M  V30 2051 C 186.467 2.77996 2.08172 0
M  V30 2052 C 185.421 3.89614 1.77157 0
M  V30 2053 C 184.747 4.36187 3.09265 0
M  V30 2054 C 186.047 5.1181 1.04151 0
M  V30 2055 H 187.741 2.97664 0.321992 0
M  V30 2056 H 185.287 1.4318 0.153434 0
M  V30 2057 H 187.24 3.19366 2.74924 0
M  V30 2058 H 185.964 1.9584 2.6137 0
M  V30 2059 H 184.623 3.48816 1.12796 0
M  V30 2060 H 184.271 3.50893 3.60393 0
M  V30 2061 H 183.971 5.11455 2.89288 0
M  V30 2062 H 185.495 4.80207 3.77139 0
M  V30 2063 H 186.909 5.50214 1.61052 0
M  V30 2064 H 185.306 5.92648 0.942762 0
M  V30 2065 H 186.376 4.84892 0.0279022 0
M  V30 2066 N 187.719 -0.156864 1.56817 0
M  V30 2067 C 188.669 -1.19891 1.93934 0
M  V30 2068 C 189.653 -1.39061 0.809372 0
M  V30 2069 O 190.845 -1.40789 1.07273 0
M  V30 2070 C 187.974 -2.53493 2.31508 0
M  V30 2071 C 187.06 -2.37957 3.51052 0
M  V30 2072 N 187.451 -1.92158 4.67877 0
M  V30 2073 C 185.749 -2.68739 3.55943 0
M  V30 2074 C 186.45 -1.8943 5.49992 0
M  V30 2075 N 185.426 -2.32375 4.91429 0
M  V30 2076 H 189.228 -0.836746 2.81737 0
M  V30 2077 H 186.742 -0.365012 1.58245 0
M  V30 2078 H 188.739 -3.28811 2.56299 0
M  V30 2079 H 187.399 -2.905 1.45051 0
M  V30 2080 H 188.41 -1.62274 4.91821 0
M  V30 2081 H 185.087 -3.09687 2.80001 0
M  V30 2082 H 186.477 -1.55596 6.53636 0
M  V30 2083 N 189.197 -1.51736 -0.425897 0
M  V30 2084 C 190.422 -1.69082 -1.20108 0
M  V30 2085 C 190.847 -0.392398 -1.83962 0
M  V30 2086 O 190.205 0.64858 -1.69302 0
M  V30 2087 C 190.253 -2.81604 -2.25237 0
M  V30 2088 O 189.357 -2.46004 -3.30992 0
M  V30 2089 H 188.698 -0.563408 -0.35138 0
M  V30 2090 H 191.228 -1.98358 -0.501512 0
M  V30 2091 H 191.238 -3.06025 -2.69838 0
M  V30 2092 H 189.913 -3.75817 -1.78142 0
M  V30 2093 H 188.49 -2.32195 -2.91787 0
M  V30 2094 N 190.675 0.682077 -1.42076 0
M  V30 2095 C 191.625 1.78823 -1.41444 0
M  V30 2096 C 192.609 1.58323 -0.28681 0
M  V30 2097 O 193.801 1.68926 -0.528498 0
M  V30 2098 C 190.93 3.17232 -1.3122 0
M  V30 2099 C 190.016 3.4338 -2.489 0
M  V30 2100 N 190.407 3.40152 -3.7434 0
M  V30 2101 C 188.705 3.73986 -2.43003 0
M  V30 2102 C 189.406 3.65581 -4.52466 0
M  V30 2103 N 188.382 3.85989 -3.8277 0
M  V30 2104 H 192.184 1.7471 -2.36334 0
M  V30 2105 H 189.698 0.882622 -1.36321 0
M  V30 2106 H 191.695 3.96489 -1.2885 0
M  V30 2107 H 190.355 3.22547 -0.373263 0
M  V30 2108 H 191.366 3.20221 -4.07037 0
M  V30 2109 H 188.043 3.86591 -1.57651 0
M  V30 2110 H 189.433 3.69108 -5.61435 0
M  V30 2111 N 192.153 1.28127 0.917671 0
M  V30 2112 C 193.401 1.14825 1.66312 0
M  V30 2113 C 193.722 -0.304379 1.9261 0
M  V30 2114 O 192.992 -1.21149 1.53947 0
M  V30 2115 H 191.572 0.421953 0.616413 0
M  V30 2116 H 194.234 1.608 1.10134 0
M  V30 2117 H 193.33 1.68489 2.62712 0
M  V30 2118 N 193.631 -1.12557 1.10312 0
M  V30 2119 C 194.88 -1.83395 0.839588 0
M  V30 2120 C 195.193 -1.84939 -0.636929 0
M  V30 2121 O 196.399 -2.51761 -1.01631 0
M  V30 2122 C 194.855 -3.29303 1.45215 0
M  V30 2123 C 194.463 -3.36122 2.96186 0
M  V30 2124 C 196.207 -4.05121 1.26796 0
M  V30 2125 C 194.114 -4.76357 3.50483 0
M  V30 2126 H 193.044 -0.687133 0.310425 0
M  V30 2127 H 195.695 -1.26746 1.32694 0
M  V30 2128 H 194.077 -3.85812 0.892469 0
M  V30 2129 H 195.251 -2.89559 3.58458 0
M  V30 2130 H 193.566 -2.73776 3.13745 0
M  V30 2131 H 196.163 -5.08668 1.64806 0
M  V30 2132 H 196.506 -4.15773 0.209409 0
M  V30 2133 H 197.039 -3.54967 1.79563 0
M  V30 2134 H 193.778 -4.70899 4.55998 0
M  V30 2135 H 193.298 -5.23377 2.92978 0
M  V30 2136 H 194.977 -5.45294 3.48228 0
M  V30 2137 N 195.109 -0.891671 -1.2995 0
M  V30 2138 C 196.039 -0.379797 -2.30391 0
M  V30 2139 C 197.02 0.540919 -1.6127 0
M  V30 2140 O 198.205 0.453352 -1.88834 0
M  V30 2141 C 195.335 0.400654 -3.44981 0
M  V30 2142 C 194.289 -0.428905 -4.25846 0
M  V30 2143 C 193.615 0.478557 -5.32554 0
M  V30 2144 C 194.915 -1.67458 -4.94727 0
M  V30 2145 H 196.609 -1.21914 -2.73454 0
M  V30 2146 H 194.155 -0.587675 -1.31462 0
M  V30 2147 H 196.108 0.769434 -4.14316 0
M  V30 2148 H 194.832 1.27371 -3.0074 0
M  V30 2149 H 193.491 -0.779911 -3.58208 0
M  V30 2150 H 193.139 1.34951 -4.84559 0
M  V30 2151 H 192.839 -0.0727433 -5.87555 0
M  V30 2152 H 194.363 0.843705 -6.04743 0
M  V30 2153 H 195.777 -1.376 -5.56542 0
M  V30 2154 H 194.174 -2.16659 -5.59624 0
M  V30 2155 H 195.244 -2.41518 -4.20473 0
M  V30 2156 N 196.587 1.43421 -0.653314 0
M  V30 2157 C 197.537 2.2792 0.060558 0
M  V30 2158 C 198.521 1.39906 0.794677 0
M  V30 2159 O 199.713 1.63536 0.677128 0
M  V30 2160 C 196.842 3.27603 1.0262 0
M  V30 2161 C 195.928 4.23104 0.290551 0
M  V30 2162 N 196.319 5.01031 -0.692967 0
M  V30 2163 C 194.617 4.42816 0.531984 0
M  V30 2164 C 195.318 5.70626 -1.12963 0
M  V30 2165 N 194.294 5.41617 -0.463867 0
M  V30 2166 H 198.096 2.85585 -0.694143 0
M  V30 2167 H 195.61 1.55126 -0.480602 0
M  V30 2168 H 197.607 3.86918 1.55242 0
M  V30 2169 H 196.267 2.71499 1.78096 0
M  V30 2170 H 197.278 5.0669 -1.07169 0
M  V30 2171 H 193.955 3.97782 1.26791 0
M  V30 2172 H 195.345 6.4318 -1.94343 0
M  V30 2173 N 198.065 0.39524 1.52563 0
M  V30 2174 C 199.481 0.0454682 1.59535 0
M  V30 2175 C 199.681 -1.44056 1.4089 0
M  V30 2176 O 198.737 -2.20579 1.22888 0
M  V30 2177 C 200.05 0.527963 2.96029 0
M  V30 2178 C 201.598 0.484733 3.09224 0
M  V30 2179 C 202.073 0.943512 4.48176 0
M  V30 2180 N 203.564 0.899765 4.54377 0
M  V30 2181 C 204.299 1.22609 5.60138 0
M  V30 2182 N 203.795 1.62319 6.73516 0
M  V30 2183 N 205.588 1.14696 5.50274 0
M  V30 2184 H 197.739 1.36261 1.62931 0
M  V30 2185 H 200.002 0.558887 0.765735 0
M  V30 2186 H 199.708 1.56607 3.14908 0
M  V30 2187 H 199.582 -0.0698056 3.77135 0
M  V30 2188 H 201.969 -0.544298 2.90037 0
M  V30 2189 H 202.05 1.11838 2.30056 0
M  V30 2190 H 201.694 1.9708 4.68104 0
M  V30 2191 H 201.624 0.286817 5.25818 0
M  V30 2192 H 204.115 0.607632 3.72983 0
M  V30 2193 H 204.428 1.85567 7.5019 0
M  V30 2194 H 202.773 1.66211 6.74833 0
M  V30 2195 H 205.964 0.835701 4.6058 0
M  V30 2196 H 206.137 1.40459 6.32594 0
M  V30 2197 N 199.544 -1.57102 0.125237 0
M  V30 2198 C 200.821 -1.86953 -0.575142 0
M  V30 2199 C 201.201 -1.02749 -1.84407 0
M  V30 2200 O 200.549 -0.108144 -2.28244 0
M  V30 2201 C 200.759 -3.38198 -0.861583 0
M  V30 2202 C 202.107 -4.06937 -1.21192 0
M  V30 2203 O 203.131 -3.43252 -0.951645 0
M  V30 2204 O 201.99 -5.19364 -1.70068 0
M  V30 2205 H 199.084 -0.774147 -0.290906 0
M  V30 2206 H 201.63 -1.68942 0.160211 0
M  V30 2207 H 200.402 -3.91282 0.0373647 0
M  V30 2208 H 200.025 -3.61661 -1.65188 0
M  V30 2209 N 201.022 0.148545 -1.56898 0
M  V30 2210 C 201.952 1.18524 -2.01182 0
M  V30 2211 C 202.933 1.4489 -0.891123 0
M  V30 2212 O 204.118 1.55836 -1.15882 0
M  V30 2213 C 201.248 2.51879 -2.39112 0
M  V30 2214 C 200.202 2.40038 -3.54353 0
M  V30 2215 C 199.528 3.78089 -3.78091 0
M  V30 2216 C 200.828 1.88577 -4.87069 0
M  V30 2217 H 202.522 0.817029 -2.88036 0
M  V30 2218 H 200.068 0.391575 -1.38574 0
M  V30 2219 H 202.021 3.24627 -2.68692 0
M  V30 2220 H 200.745 2.90532 -1.49193 0
M  V30 2221 H 199.404 1.69742 -3.24936 0
M  V30 2222 H 199.052 4.14175 -2.85426 0
M  V30 2223 H 198.752 3.71028 -4.55645 0
M  V30 2224 H 200.276 4.52387 -4.10095 0
M  V30 2225 H 201.69 2.51117 -5.15377 0
M  V30 2226 H 200.087 1.9241 -5.68417 0
M  V30 2227 H 201.157 0.84136 -4.77545 0
M  V30 2228 N 202.5 1.5196 0.417844 0
M  V30 2229 C 203.728 1.69426 1.18753 0
M  V30 2230 C 204.143 0.399955 1.84515 0
M  V30 2231 O 203.5 -0.623288 1.71527 0
M  V30 2232 C 203.551 2.82375 2.25714 0
M  V30 2233 O 203.272 4.06793 1.62638 0
M  V30 2234 C 204.773 3.11277 3.15628 0
M  V30 2235 H 201.993 0.568031 0.357186 0
M  V30 2236 H 204.537 1.98475 0.49273 0
M  V30 2237 H 202.692 2.5587 2.90877 0
M  V30 2238 H 203.106 4.69667 2.3348 0
M  V30 2239 H 204.58 3.93843 3.86771 0
M  V30 2240 H 205.057 2.24473 3.77503 0
M  V30 2241 H 205.663 3.39515 2.56144 0
M  V30 2242 N 203.978 -0.674533 1.42435 0
M  V30 2243 C 204.908 -1.80009 1.48724 0
M  V30 2244 C 205.889 -1.6659 0.343793 0
M  V30 2245 O 207.074 -1.86007 0.558137 0
M  V30 2246 C 204.204 -3.18306 1.38919 0
M  V30 2247 C 203.158 -3.46461 2.51294 0
M  V30 2248 C 202.484 -4.84335 2.26547 0
M  V30 2249 C 203.784 -3.43328 3.93603 0
M  V30 2250 H 205.478 -1.75004 2.42928 0
M  V30 2251 H 203.024 -0.840533 1.16923 0
M  V30 2252 H 204.977 -3.9678 1.41927 0
M  V30 2253 H 203.701 -3.2399 0.412094 0
M  V30 2254 H 202.36 -2.70348 2.47604 0
M  V30 2255 H 202.008 -4.86669 1.2713 0
M  V30 2256 H 201.708 -5.04136 3.01861 0
M  V30 2257 H 203.232 -5.65094 2.31304 0
M  V30 2258 H 204.646 -4.11772 3.98894 0
M  V30 2259 H 203.043 -3.74664 4.68771 0
M  V30 2260 H 204.113 -2.41897 4.20255 0
M  V30 2261 N 205.456 -1.28612 -0.910864 0
M  V30 2262 C 206.681 -1.1891 -1.69927 0
M  V30 2263 C 207.106 0.248372 -1.86453 0
M  V30 2264 O 206.464 1.17961 -1.37676 0
M  V30 2265 C 206.512 -1.89578 -3.06745 0
M  V30 2266 O 205.616 -1.20521 -3.94396 0
M  V30 2267 H 204.957 -0.412632 -0.520222 0
M  V30 2268 H 207.487 -1.69985 -1.1387 0
M  V30 2269 H 207.497 -1.97597 -3.56958 0
M  V30 2270 H 206.172 -2.94136 -2.94035 0
M  V30 2271 H 204.749 -1.20684 -3.52831 0
M  V30 2272 N 206.934 1.1197 -1.10907 0
M  V30 2273 C 207.882 2.19927 -0.757303 0
M  V30 2274 C 208.876 1.67564 0.248747 0
M  V30 2275 O 210.082 1.79672 0.108605 0
M  V30 2276 H 206.457 0.716925 -0.226987 0
M  V30 2277 H 208.428 2.46847 -1.67658 0
M  V30 2278 C 207.177 3.47061 -0.210671 0
M  V30 2279 H 206.5 3.87703 -0.976049 0
M  V30 2280 H 207.94 4.24 -0.0026584 0
M  V30 2281 C 206.399 3.19864 1.05777 0
M  V30 2282 O 206.929 3.40049 2.13845 0
M  V30 2283 N 205.135 2.73636 0.978349 0
M  V30 2284 H 204.682 2.5741 0.0988246 0
M  V30 2285 H 204.64 2.55815 1.82773 0
M  V30 2286 N 208.412 0.89855 1.29475 0
M  V30 2287 C 209.342 0.39201 2.30186 0
M  V30 2288 C 210.323 -0.532359 1.61555 0
M  V30 2289 O 211.508 -0.443331 1.89072 0
M  V30 2290 C 208.638 -0.382353 3.45189 0
M  V30 2291 C 207.592 0.451483 4.25612 0
M  V30 2292 C 206.918 -0.450307 5.328 0
M  V30 2293 C 208.218 1.70079 4.93832 0
M  V30 2294 H 209.912 1.23362 2.72804 0
M  V30 2295 H 207.458 0.594638 1.31149 0
M  V30 2296 H 209.411 -0.747451 4.14718 0
M  V30 2297 H 208.135 -1.25774 3.01411 0
M  V30 2298 H 206.794 0.798897 3.57789 0
M  V30 2299 H 206.442 -1.32379 4.85268 0
M  V30 2300 H 206.142 0.103902 5.87508 0
M  V30 2301 H 207.666 -0.811623 6.05182 0
M  V30 2302 H 209.08 1.40549 5.55805 0
M  V30 2303 H 207.477 2.19623 5.58467 0
M  V30 2304 H 208.547 2.43744 4.19186 0
M  V30 2305 N 209.89 -1.43072 0.660911 0
M  V30 2306 C 210.82 -2.33497 -0.0122829 0
M  V30 2307 C 211.801 -1.49903 -0.803925 0
M  V30 2308 O 212.986 -1.78546 -0.763864 0
M  V30 2309 C 210.116 -3.33363 -0.973994 0
M  V30 2310 C 209.07 -4.27003 -0.291928 0
M  V30 2311 C 208.396 -5.16967 -1.36562 0
M  V30 2312 C 209.696 -5.15816 0.820462 0
M  V30 2313 H 211.39 -2.90038 0.742873 0
M  V30 2314 H 208.936 -1.39461 0.358688 0
M  V30 2315 H 210.889 -3.95524 -1.45392 0
M  V30 2316 H 209.613 -2.75095 -1.7604 0
M  V30 2317 H 208.272 -3.66217 0.167623 0
M  V30 2318 H 207.92 -4.55034 -2.14366 0
M  V30 2319 H 207.62 -5.80441 -0.914454 0
M  V30 2320 H 209.144 -5.82003 -1.84675 0
M  V30 2321 H 210.558 -5.71742 0.422366 0
M  V30 2322 H 208.955 -5.8805 1.19656 0
M  V30 2323 H 210.025 -4.55045 1.67518 0
M  V30 2324 N 211.368 -0.403325 -1.52352 0
M  V30 2325 C 212.298 0.416205 -2.29761 0
M  V30 2326 C 213.279 1.05123 -1.33728 0
M  V30 2327 O 214.464 1.06134 -1.62632 0
M  V30 2328 C 211.594 1.53624 -3.11475 0
M  V30 2329 C 210.548 1.02653 -4.15507 0
M  V30 2330 C 209.874 2.23971 -4.85532 0
M  V30 2331 C 211.174 0.08463 -5.22231 0
M  V30 2332 H 212.868 -0.229701 -2.98518 0
M  V30 2333 H 210.414 -0.111913 -1.43564 0
M  V30 2334 H 212.367 2.1165 -3.64393 0
M  V30 2335 H 211.091 2.20994 -2.40477 0
M  V30 2336 H 209.75 0.46871 -3.63591 0
M  V30 2337 H 209.398 2.89883 -4.11068 0
M  V30 2338 H 209.098 1.90521 -5.55856 0
M  V30 2339 H 210.622 2.82614 -5.41259 0
M  V30 2340 H 212.036 0.573509 -5.70424 0
M  V30 2341 H 210.433 -0.160783 -5.99885 0
M  V30 2342 H 211.503 -0.86237 -4.7717 0
M  V30 2343 N 212.846 1.57033 -0.133567 0
M  V30 2344 C 214.074 2.00044 0.528195 0
M  V30 2345 C 214.489 1.01349 1.59291 0
M  V30 2346 O 213.846 0.00848369 1.82498 0
M  V30 2347 C 213.897 3.43018 1.1411 0
M  V30 2348 O 213.618 4.37939 0.11892 0
M  V30 2349 C 215.119 4.01237 1.88477 0
M  V30 2350 H 212.339 0.656517 0.138661 0
M  V30 2351 H 214.883 2.03267 -0.224196 0
M  V30 2352 H 213.038 3.40688 1.84418 0
M  V30 2353 H 213.452 5.21436 0.56613 0
M  V30 2354 H 214.926 5.03314 2.26669 0
M  V30 2355 H 215.403 3.41193 2.76558 0
M  V30 2356 H 216.009 4.07156 1.22898 0
M  V30 2357 N 214.325 -0.140222 1.56975 0
M  V30 2358 C 215.741 -0.493088 1.51792 0
M  V30 2359 C 215.941 -1.83013 0.843116 0
M  V30 2360 O 214.997 -2.49041 0.416493 0
M  V30 2361 C 216.31 -0.497144 2.96562 0
M  V30 2362 C 217.858 -0.582186 3.07538 0
M  V30 2363 C 218.333 -0.616838 4.53827 0
M  V30 2364 N 219.824 -0.678873 4.58198 0
M  V30 2365 C 220.559 -0.726782 5.68775 0
M  V30 2366 N 220.055 -0.733623 6.88905 0
M  V30 2367 N 221.848 -0.768179 5.56826 0
M  V30 2368 H 213.999 0.736108 1.99237 0
M  V30 2369 H 216.262 0.269182 0.90898 0
M  V30 2370 H 215.968 0.417217 3.49217 0
M  V30 2371 H 215.842 -1.33263 3.52875 0
M  V30 2372 H 218.229 -1.48697 2.54899 0
M  V30 2373 H 218.31 0.280581 2.54257 0
M  V30 2374 H 217.954 0.283812 5.07106 0
M  V30 2375 H 217.884 -1.49619 5.04898 0
M  V30 2376 H 220.375 -0.68061 3.7172 0
M  V30 2377 H 220.688 -0.772215 7.68932 0
M  V30 2378 H 219.033 -0.701389 6.91452 0
M  V30 2379 H 222.224 -0.760051 4.61888 0
M  V30 2380 H 222.397 -0.80205 6.43017 0
M  V30 2381 N 215.803 -1.52179 -0.40978 0
M  V30 2382 C 216.751 -1.76086 -1.51975 0
M  V30 2383 C 217.745 -0.627964 -1.57331 0
M  V30 2384 O 218.951 -0.809993 -1.60745 0
M  V30 2385 H 215.326 -0.556829 -0.505416 0
M  V30 2386 H 217.297 -2.69077 -1.28996 0
M  V30 2387 C 216.046 -1.92799 -2.8935 0
M  V30 2388 H 215.369 -2.79392 -2.85972 0
M  V30 2389 H 216.809 -2.13527 -3.66309 0
M  V30 2390 C 215.268 -0.694923 -3.29655 0
M  V30 2391 O 215.798 0.13751 -4.01465 0
M  V30 2392 N 214.004 -0.53101 -2.85707 0
M  V30 2393 H 213.551 -1.20952 -2.27439 0
M  V30 2394 H 213.509 0.292718 -3.13034 0
M  V30 2395 N 217.281 0.66697 -1.42791 0
M  V30 2396 C 218.214 1.79177 -1.41318 0
M  V30 2397 C 219.192 1.60234 -0.276401 0
M  V30 2398 O 220.376 1.82602 -0.46785 0
M  V30 2399 C 217.503 3.16289 -1.21157 0
M  V30 2400 C 216.549 3.53964 -2.37932 0
M  V30 2401 S 217.382 3.55501 -4.00474 0
M  V30 2402 C 218.538 4.95292 -3.8267 0
M  V30 2403 H 218.771 1.80153 -2.365 0
M  V30 2404 H 216.304 0.838357 -1.29657 0
M  V30 2405 H 218.262 3.95428 -1.10212 0
M  V30 2406 H 216.923 3.1289 -0.275481 0
M  V30 2407 H 216.116 4.53646 -2.19594 0
M  V30 2408 H 215.718 2.82204 -2.45432 0
M  V30 2409 H 218.01 5.83584 -3.44145 0
M  V30 2410 H 218.953 5.18679 -4.82055 0
M  V30 2411 H 219.361 4.68179 -3.15386 0
M  V30 2412 N 218.759 1.29093 0.90403 0
M  V30 2413 C 219.707 1.13727 2.02901 0
M  V30 2414 C 220.701 0.0539853 1.69314 0
M  V30 2415 O 221.907 0.213469 1.7873 0
M  V30 2416 H 218.282 0.35117 0.664969 0
M  V30 2417 H 220.253 2.08982 2.13001 0
M  V30 2418 C 219.002 0.826066 3.37745 0
M  V30 2419 H 218.325 1.65164 3.64089 0
M  V30 2420 H 219.765 0.758559 4.17159 0
M  V30 2421 C 218.224 -0.470541 3.33598 0
M  V30 2422 O 218.754 -1.49792 3.72727 0
M  V30 2423 N 216.96 -0.474812 2.86695 0
M  V30 2424 H 216.507 0.361692 2.55048 0
M  V30 2425 H 216.465 -1.34236 2.84303 0
M  V30 2426 N 220.237 -1.11381 1.11499 0
M  V30 2427 C 221.486 -1.82494 0.858993 0
M  V30 2428 C 221.799 -1.85605 -0.617278 0
M  V30 2429 O 223.005 -2.52824 -0.989552 0
M  V30 2430 C 221.461 -3.27745 1.48699 0
M  V30 2431 C 221.069 -3.32961 2.99735 0
M  V30 2432 C 222.813 -4.03754 1.31085 0
M  V30 2433 C 220.72 -4.72612 3.55516 0
M  V30 2434 H 219.65 -0.683802 0.317696 0
M  V30 2435 H 222.301 -1.25331 1.34031 0
M  V30 2436 H 220.683 -3.84844 0.933339 0
M  V30 2437 H 221.857 -2.85741 3.61509 0
M  V30 2438 H 220.172 -2.70433 3.16631 0
M  V30 2439 H 222.769 -5.06891 1.70192 0
M  V30 2440 H 223.112 -4.15527 0.253496 0
M  V30 2441 H 223.645 -3.53043 1.83318 0
M  V30 2442 H 220.384 -4.66036 4.60967 0
M  V30 2443 H 219.904 -5.2024 2.98513 0
M  V30 2444 H 221.583 -5.4157 3.53992 0
M  V30 2445 N 221.715 -0.905404 -1.28997 0
M  V30 2446 C 222.662 -0.385892 -2.27551 0
M  V30 2447 C 223.632 0.535113 -1.57244 0
M  V30 2448 O 224.817 0.459119 -1.85194 0
M  V30 2449 C 221.957 0.375461 -3.43051 0
M  V30 2450 C 221.07 -0.577092 -4.28128 0
M  V30 2451 C 220.205 0.201879 -5.30816 0
M  V30 2452 C 219.244 -0.744829 -6.07551 0
M  V30 2453 N 218.381 9.42587e-05 -7.021 0
M  V30 2454 H 223.221 -1.23139 -2.71368 0
M  V30 2455 H 220.758 -0.618542 -1.33463 0
M  V30 2456 H 222.716 0.832992 -4.088 0
M  V30 2457 H 221.346 1.18537 -3.00248 0
M  V30 2458 H 220.398 -1.15315 -3.62501 0
M  V30 2459 H 221.71 -1.30152 -4.8152 0
M  V30 2460 H 220.864 0.720351 -6.02408 0
M  V30 2461 H 219.603 0.959413 -4.7817 0
M  V30 2462 H 218.608 -1.27475 -5.34818 0
M  V30 2463 H 219.833 -1.50178 -6.62286 0
M  V30 2464 H 217.779 0.739791 -6.51815 0
M  V30 2465 H 217.696 -0.664321 -7.53076 0
M  V30 2466 H 218.964 0.498644 -7.77903 0
M  V30 2467 N 223.193 1.4272 -0.668489 0
M  V30 2468 C 224.442 2.00846 -0.185389 0
M  V30 2469 C 224.755 1.53442 1.21305 0
M  V30 2470 O 225.961 2.03944 1.79218 0
M  V30 2471 C 224.417 3.58805 -0.280591 0
M  V30 2472 C 224.025 4.15198 -1.68268 0
M  V30 2473 C 225.769 4.24255 0.14412 0
M  V30 2474 C 223.676 5.655 -1.73099 0
M  V30 2475 H 222.606 0.751145 -0.0655475 0
M  V30 2476 H 225.257 1.63516 -0.832752 0
M  V30 2477 H 223.639 3.93608 0.434553 0
M  V30 2478 H 224.813 3.91866 -2.42441 0
M  V30 2479 H 223.128 3.62176 -2.05469 0
M  V30 2480 H 225.725 5.34547 0.128086 0
M  V30 2481 H 226.068 3.99277 1.17827 0
M  V30 2482 H 226.601 3.94389 -0.519798 0
M  V30 2483 H 223.34 5.95268 -2.74475 0
M  V30 2484 H 222.86 5.90842 -1.03274 0
M  V30 2485 H 224.539 6.29808 -1.48158 0
M  V30 2486 N 224.671 0.411399 1.52136 0
M  V30 2487 C 225.634 -0.401089 2.25663 0
M  V30 2488 C 226.634 -0.971732 1.28117 0
M  V30 2489 O 227.824 -0.850254 1.52041 0
M  V30 2490 C 224.956 -1.56483 3.02863 0
M  V30 2491 H 226.149 0.24295 2.98914 0
M  V30 2492 H 223.702 0.163968 1.55438 0
M  V30 2493 H 224.437 -2.24567 2.33967 0
M  V30 2494 H 224.222 -1.16211 3.74483 0
M  V30 2495 H 225.712 -2.13951 3.58629 0
M  V30 2496 N 226.149 -1.5696 0.141893 0
M  V30 2497 C 227.426 -1.87553 -0.555281 0
M  V30 2498 C 227.806 -1.04699 -1.83306 0
M  V30 2499 O 227.154 -0.132346 -2.28116 0
M  V30 2500 C 227.364 -3.39093 -0.825664 0
M  V30 2501 C 228.712 -4.08199 -1.16869 0
M  V30 2502 O 229.736 -3.44242 -0.915185 0
M  V30 2503 O 228.595 -5.21139 -1.6455 0
M  V30 2504 H 225.689 -0.777188 -0.282679 0
M  V30 2505 H 228.235 -1.68763 0.17812 0
M  V30 2506 H 227.007 -3.91221 0.0788633 0
M  V30 2507 H 226.63 -3.63393 -1.61343 0
M  V30 2508 N 227.627 0.131896 -1.57047 0
M  V30 2509 C 228.874 0.841932 -1.84168 0
M  V30 2510 C 229.202 1.8048 -0.725066 0
M  V30 2511 O 228.457 1.93618 0.284692 0
M  V30 2512 C 228.756 1.63703 -3.17704 0
M  V30 2513 C 228.422 0.81961 -4.43388 0
M  V30 2514 C 227.084 0.594148 -4.77518 0
M  V30 2515 C 229.436 0.248977 -5.20605 0
M  V30 2516 C 226.764 -0.212409 -5.86315 0
M  V30 2517 C 229.116 -0.544701 -6.30251 0
M  V30 2518 C 227.78 -0.780599 -6.6292 0
M  V30 2519 H 227.05 0.308085 -0.673917 0
M  V30 2520 H 229.697 0.104867 -1.91213 0
M  V30 2521 H 228.002 2.44464 -3.06177 0
M  V30 2522 H 229.699 2.19015 -3.35907 0
M  V30 2523 H 226.289 1.00542 -4.16641 0
M  V30 2524 H 230.473 0.410408 -4.946 0
M  V30 2525 H 225.729 -0.404524 -6.1006 0
M  V30 2526 H 229.903 -0.993922 -6.89271 0
M  V30 2527 H 227.53 -1.40742 -7.47058 0
M  V30 2528 N 229.106 1.52395 0.401703 0
M  V30 2529 C 230.354 1.66488 1.14569 0
M  V30 2530 C 230.675 0.400897 1.90835 0
M  V30 2531 O 229.945 -0.584415 1.8698 0
M  V30 2532 H 228.525 0.613672 0.425929 0
M  V30 2533 H 231.187 1.89464 0.457093 0
M  V30 2534 H 230.283 2.50942 1.85566 0
M  V30 2535 N 230.584 -0.659388 1.43143 0
M  V30 2536 C 231.514 -1.78422 1.50625 0
M  V30 2537 C 232.495 -1.66216 0.361443 0
M  V30 2538 O 233.68 -1.85404 0.577834 0
M  V30 2539 C 230.81 -3.16815 1.42287 0
M  V30 2540 C 229.764 -3.43777 2.54954 0
M  V30 2541 C 229.09 -4.81905 2.31671 0
M  V30 2542 C 230.39 -3.39134 3.97222 0
M  V30 2543 H 232.084 -1.72417 2.44771 0
M  V30 2544 H 229.63 -0.828084 1.17808 0
M  V30 2545 H 231.583 -3.95253 1.46127 0
M  V30 2546 H 230.307 -3.23534 0.446435 0
M  V30 2547 H 228.966 -2.67707 2.50457 0
M  V30 2548 H 228.614 -4.85294 1.32284 0
M  V30 2549 H 228.314 -5.00906 3.07192 0
M  V30 2550 H 229.838 -5.62609 2.37284 0
M  V30 2551 H 231.252 -4.07518 4.03239 0
M  V30 2552 H 229.649 -3.69671 4.72719 0
M  V30 2553 H 230.719 -2.37426 4.22797 0
M  V30 2554 N 232.062 -1.29571 -0.897171 0
M  V30 2555 C 233.025 -1.14913 -1.98312 0
M  V30 2556 C 234.025 -0.0838629 -1.60581 0
M  V30 2557 O 235.215 -0.331006 -1.71026 0
M  V30 2558 C 232.347 -0.757835 -3.3237 0
M  V30 2559 H 233.54 -2.11377 -2.12743 0
M  V30 2560 H 231.093 -1.12793 -1.08201 0
M  V30 2561 H 231.828 0.206837 -3.2364 0
M  V30 2562 H 231.613 -1.52755 -3.61121 0
M  V30 2563 H 233.103 -0.678408 -4.12053 0
M  V30 2564 N 233.54 1.10788 -1.12088 0
M  V30 2565 C 234.768 1.86461 -0.896651 0
M  V30 2566 C 235.183 1.80492 0.553912 0
M  V30 2567 O 234.54 1.19102 1.38278 0
M  V30 2568 C 234.591 3.35006 -1.35843 0
M  V30 2569 O 234.312 3.40866 -2.75213 0
M  V30 2570 C 235.813 4.27565 -1.1706 0
M  V30 2571 H 233.033 0.589425 -0.320654 0
M  V30 2572 H 235.577 1.40076 -1.48993 0
M  V30 2573 H 233.732 3.7887 -0.808458 0
M  V30 2574 H 234.146 4.33411 -2.9539 0
M  V30 2575 H 235.62 5.30007 -1.54263 0
M  V30 2576 H 236.097 4.3906 -0.110814 0
M  V30 2577 H 236.703 3.89501 -1.70789 0
M  V30 2578 N 235.018 0.912232 1.28515 0
M  V30 2579 C 235.95 0.35676 2.26406 0
M  V30 2580 C 236.963 -0.503933 1.54804 0
M  V30 2581 O 238.152 -0.319059 1.75625 0
M  V30 2582 C 235.252 -0.508825 3.35058 0
M  V30 2583 C 234.425 0.329007 4.36161 0
M  V30 2584 C 233.484 -0.471422 5.24084 0
M  V30 2585 O 232.51 0.115482 5.69083 0
M  V30 2586 N 233.712 -1.77479 5.52704 0
M  V30 2587 H 236.477 1.19818 2.74707 0
M  V30 2588 H 234.038 0.778022 1.4198 0
M  V30 2589 H 236.03 -1.051 3.90815 0
M  V30 2590 H 234.6 -1.25095 2.86478 0
M  V30 2591 H 233.82 1.05256 3.79888 0
M  V30 2592 H 235.108 0.90234 5.00735 0
M  V30 2593 H 234.506 -2.27417 5.17975 0
M  V30 2594 H 233.063 -2.26382 6.11224 0
M  V30 2595 N 236.496 -1.42363 0.676048 0
M  V30 2596 C 237.426 -2.33497 0.0124832 0
M  V30 2597 C 238.407 -1.50748 -0.787981 0
M  V30 2598 O 239.592 -1.79346 -0.744884 0
M  V30 2599 C 236.722 -3.34377 -0.938582 0
M  V30 2600 C 235.676 -4.27289 -0.246622 0
M  V30 2601 C 235.002 -5.18386 -1.31071 0
M  V30 2602 C 236.302 -5.14916 0.875125 0
M  V30 2603 H 237.996 -2.89233 0.773593 0
M  V30 2604 H 235.542 -1.39073 0.37346 0
M  V30 2605 H 237.495 -3.97044 -1.41188 0
M  V30 2606 H 236.219 -2.76947 -1.73113 0
M  V30 2607 H 234.878 -3.66018 0.206456 0
M  V30 2608 H 234.526 -4.57282 -2.09528 0
M  V30 2609 H 234.226 -5.81378 -0.852839 0
M  V30 2610 H 235.75 -5.83929 -1.78492 0
M  V30 2611 H 237.164 -5.71262 0.482983 0
M  V30 2612 H 235.561 -5.86747 1.25887 0
M  V30 2613 H 236.631 -4.53242 1.72335 0
M  V30 2614 N 237.974 -0.419461 -1.51915 0
M  V30 2615 C 238.921 0.400927 -2.27291 0
M  V30 2616 C 239.891 1.03224 -1.30131 0
M  V30 2617 O 241.076 1.05455 -1.59009 0
M  V30 2618 C 238.216 1.50603 -3.10504 0
M  V30 2619 C 237.329 0.89462 -4.22635 0
M  V30 2620 C 236.464 1.97328 -4.93189 0
M  V30 2621 C 235.503 1.33935 -5.97267 0
M  V30 2622 N 234.64 2.3586 -6.61298 0
M  V30 2623 H 239.48 -0.248251 -2.96964 0
M  V30 2624 H 237.017 -0.134266 -1.46486 0
M  V30 2625 H 238.975 2.15783 -3.57062 0
M  V30 2626 H 237.605 2.12509 -2.42981 0
M  V30 2627 H 236.657 0.131583 -3.80172 0
M  V30 2628 H 237.969 0.391641 -4.9726 0
M  V30 2629 H 237.123 2.70211 -5.43204 0
M  V30 2630 H 235.862 2.50994 -4.18155 0
M  V30 2631 H 234.867 0.595896 -5.46561 0
M  V30 2632 H 236.092 0.810252 -6.74249 0
M  V30 2633 H 234.038 2.88639 -5.89087 0
M  V30 2634 H 233.955 1.90403 -7.3163 0
M  V30 2635 H 235.223 3.08282 -7.15949 0
M  V30 2636 N 239.452 1.56882 -0.150215 0
M  V30 2637 C 240.385 2.12712 0.826358 0
M  V30 2638 C 241.363 1.05154 1.24022 0
M  V30 2639 O 242.547 1.33004 1.33575 0
M  V30 2640 C 239.674 2.64945 2.11002 0
M  V30 2641 C 238.72 3.8468 1.84183 0
M  V30 2642 S 239.553 5.25502 1.02995 0
M  V30 2643 C 240.709 5.81125 2.32474 0
M  V30 2644 H 240.942 2.95214 0.351598 0
M  V30 2645 H 238.475 1.54267 0.0641211 0
M  V30 2646 H 240.433 2.95689 2.84742 0
M  V30 2647 H 239.094 1.82568 2.55593 0
M  V30 2648 H 238.287 4.19482 2.79375 0
M  V30 2649 H 237.889 3.54714 1.1855 0
M  V30 2650 H 240.181 5.92753 3.281 0
M  V30 2651 H 241.124 6.78625 2.02171 0
M  V30 2652 H 241.532 5.09392 2.43269 0
M  V30 2653 N 240.93 -0.123565 1.57115 0
M  V30 2654 C 242.341 -0.681198 1.73829 0
M  V30 2655 C 242.692 -1.80535 0.768214 0
M  V30 2656 O 241.817 -2.16317 -0.0599103 0
M  V30 2657 C 242.412 -1.24246 3.15196 0
M  V30 2658 C 240.971 -1.74643 3.33432 0
M  V30 2659 C 240.118 -0.644284 2.69711 0
M  V30 2660 H 243.069 0.102315 1.5837 0
M  V30 2661 H 243.09 -2.11216 3.16493 0
M  V30 2662 H 242.602 -0.424062 3.85776 0
M  V30 2663 H 240.703 -2.58974 2.67886 0
M  V30 2664 H 240.816 -1.85902 4.41562 0
M  V30 2665 H 239.18 -1.07676 2.3082 0
M  V30 2666 H 239.963 0.163058 3.42913 0
M  V30 2667 N 242.408 -1.52605 -0.393616 0
M  V30 2668 C 243.358 -1.73436 -1.48 0
M  V30 2669 C 244.342 -0.588386 -1.49756 0
M  V30 2670 O 245.534 -0.846047 -1.5547 0
M  V30 2671 C 242.663 -1.90247 -2.85764 0
M  V30 2672 C 241.749 -3.10763 -2.88595 0
M  V30 2673 N 242.14 -4.33196 -2.61103 0
M  V30 2674 C 240.438 -3.10914 -3.19763 0
M  V30 2675 C 241.139 -5.1477 -2.70899 0
M  V30 2676 N 240.115 -4.50356 -3.04435 0
M  V30 2677 H 243.917 -2.65727 -1.25563 0
M  V30 2678 H 241.431 -1.5085 -0.601513 0
M  V30 2679 H 243.428 -2.03291 -3.63976 0
M  V30 2680 H 242.088 -0.991663 -3.09186 0
M  V30 2681 H 243.099 -4.61408 -2.35209 0
M  V30 2682 H 239.776 -2.29626 -3.4868 0
M  V30 2683 H 241.166 -6.22355 -2.53227 0
M  V30 2684 N 243.887 0.651787 -1.4349 0
M  V30 2685 C 244.797 1.79368 -1.5121 0
M  V30 2686 C 245.813 1.69361 -0.399093 0
M  V30 2687 O 246.989 1.90505 -0.653431 0
M  V30 2688 C 244.054 3.15653 -1.43401 0
M  V30 2689 C 243.115 3.37446 -2.65384 0
M  V30 2690 C 242.348 4.67229 -2.57939 0
M  V30 2691 O 242.571 5.46676 -1.62792 0
M  V30 2692 O 241.505 4.90773 -3.48462 0
M  V30 2693 H 245.331 1.7581 -2.47638 0
M  V30 2694 H 242.916 0.810447 -1.25507 0
M  V30 2695 H 244.798 3.96935 -1.41494 0
M  V30 2696 H 243.473 3.19798 -0.501085 0
M  V30 2697 H 242.38 2.55923 -2.72863 0
M  V30 2698 H 243.713 3.38148 -3.57654 0
M  V30 2699 N 245.365 1.30045 0.890287 0
M  V30 2700 C 246.312 1.15976 1.99545 0
M  V30 2701 C 247.282 0.0506202 1.66023 0
M  V30 2702 O 248.467 0.219847 1.89529 0
M  V30 2703 C 245.607 0.852054 3.34416 0
M  V30 2704 C 244.72 2.04255 3.80662 0
M  V30 2705 C 243.855 1.6734 5.04154 0
M  V30 2706 C 242.894 2.82916 5.42794 0
M  V30 2707 N 242.031 2.46333 6.57468 0
M  V30 2708 H 246.871 2.10524 2.10911 0
M  V30 2709 H 244.408 1.04749 1.03276 0
M  V30 2710 H 246.366 0.654296 4.12037 0
M  V30 2711 H 244.996 -0.0565502 3.2275 0
M  V30 2712 H 244.048 2.35172 2.98995 0
M  V30 2713 H 245.36 2.90826 4.05242 0
M  V30 2714 H 244.514 1.43908 5.89386 0
M  V30 2715 H 243.253 0.779308 4.81433 0
M  V30 2716 H 242.258 3.0702 4.56091 0
M  V30 2717 H 243.483 3.73004 5.6749 0
M  V30 2718 H 241.429 1.59423 6.36334 0
M  V30 2719 H 241.346 3.26436 6.81891 0
M  V30 2720 H 242.614 2.26244 7.45945 0
M  V30 2721 N 246.843 -1.10192 1.12674 0
M  V30 2722 C 247.793 -2.14754 0.765801 0
M  V30 2723 C 248.777 -1.59154 -0.236409 0
M  V30 2724 O 249.969 -1.76951 -0.0415261 0
M  V30 2725 C 247.098 -3.42563 0.224827 0
M  V30 2726 C 246.184 -4.05091 1.25548 0
M  V30 2727 N 246.575 -4.42287 2.4539 0
M  V30 2728 C 244.873 -4.32186 1.10142 0
M  V30 2729 C 245.574 -4.91441 3.11224 0
M  V30 2730 N 244.55 -4.88405 2.38666 0
M  V30 2731 H 248.352 -2.41309 1.67772 0
M  V30 2732 H 245.866 -1.27339 1.00789 0
M  V30 2733 H 247.863 -4.16868 -0.0519578 0
M  V30 2734 H 246.523 -3.17467 -0.681515 0
M  V30 2735 H 247.534 -4.33902 2.82754 0
M  V30 2736 H 244.211 -4.16735 0.252587 0
M  V30 2737 H 245.601 -5.29749 4.13298 0
M  V30 2738 N 248.321 -0.919034 -1.28029 0
M  V30 2739 C 249.551 -0.570143 -1.98577 0
M  V30 2740 C 249.959 0.854172 -1.68821 0
M  V30 2741 O 249.302 1.57807 -0.940351 0
M  V30 2742 C 249.364 -0.705734 -3.52505 0
M  V30 2743 C 249.028 -2.10057 -4.05863 0
M  V30 2744 C 250.025 -3.07385 -4.19298 0
M  V30 2745 C 247.71 -2.41517 -4.40426 0
M  V30 2746 C 249.704 -4.34287 -4.66555 0
M  V30 2747 C 247.391 -3.68657 -4.87376 0
M  V30 2748 C 248.389 -4.64856 -5.00398 0
M  V30 2749 O 248.077 -5.89735 -5.46322 0
M  V30 2750 H 247.809 -0.215592 -0.6407 0
M  V30 2751 H 250.363 -1.23583 -1.64062 0
M  V30 2752 H 248.593 0.0170414 -3.86696 0
M  V30 2753 H 250.282 -0.363172 -4.04272 0
M  V30 2754 H 251.048 -2.84398 -3.92865 0
M  V30 2755 H 246.927 -1.67389 -4.29537 0
M  V30 2756 H 250.471 -5.09377 -4.76635 0
M  V30 2757 H 246.368 -3.91466 -5.13249 0
M  V30 2758 H 247.136 -5.92599 -5.64596 0
M  V30 2759 N 249.799 1.42003 -0.683588 0
M  V30 2760 C 251.027 2.05746 -0.218182 0
M  V30 2761 C 251.442 1.51396 1.12804 0
M  V30 2762 O 250.799 0.657303 1.70252 0
M  V30 2763 C 250.85 3.61171 -0.154131 0
M  V30 2764 O 250.571 4.13508 -1.44716 0
M  V30 2765 C 252.072 4.42042 0.333713 0
M  V30 2766 H 249.292 0.662888 -0.10402 0
M  V30 2767 H 251.836 1.81987 -0.9328 0
M  V30 2768 H 249.991 3.84012 0.511231 0
M  V30 2769 H 250.405 5.07453 -1.32632 0
M  V30 2770 H 251.879 5.51028 0.327423 0
M  V30 2771 H 252.356 4.17269 1.37053 0
M  V30 2772 H 252.962 4.24239 -0.300222 0
M  V30 2773 N 251.277 0.427512 1.51691 0
M  V30 2774 C 252.207 -0.3796 2.30394 0
M  V30 2775 C 253.188 -1.02982 1.35384 0
M  V30 2776 O 254.373 -1.03534 1.643 0
M  V30 2777 C 251.503 -1.48649 3.1388 0
M  V30 2778 C 250.457 -0.960294 4.17088 0
M  V30 2779 C 249.783 -2.16219 4.89033 0
M  V30 2780 C 251.083 -0.00153679 5.223 0
M  V30 2781 H 252.777 0.277164 2.98114 0
M  V30 2782 H 250.323 0.134739 1.43368 0
M  V30 2783 H 252.276 -2.05826 3.67714 0
M  V30 2784 H 251 -2.1714 2.43962 0
M  V30 2785 H 249.659 -0.410806 3.64291 0
M  V30 2786 H 249.307 -2.83307 4.15628 0
M  V30 2787 H 249.007 -1.81654 5.58816 0
M  V30 2788 H 250.531 -2.73968 5.45687 0
M  V30 2789 H 251.945 -0.482687 5.71264 0
M  V30 2790 H 250.342 0.256199 5.99553 0
M  V30 2791 H 251.412 0.938174 4.75738 0
M  V30 2792 N 252.755 -1.56801 0.158532 0
M  V30 2793 C 253.995 -1.98383 -0.49229 0
M  V30 2794 C 254.359 -1.04184 -1.61275 0
M  V30 2795 O 255.56 -1.34856 -2.32524 0
M  V30 2796 C 253.831 -3.4385 -0.974766 0
M  V30 2797 S 255.39 -4.07459 -1.62857 0
M  V30 2798 H 252.208 -0.693041 -0.158794 0
M  V30 2799 H 254.81 -1.93856 0.252974 0
M  V30 2800 H 253.514 -4.10131 -0.148688 0
M  V30 2801 H 253.045 -3.52115 -1.75438 0
M  V30 2802 H 255.06 -4.01458 -2.91627 0
M  V30 2803 N 254.233 0.115231 -1.57178 0
M  V30 2804 C 255.481 0.820727 -1.84685 0
M  V30 2805 C 255.802 1.80237 -0.744279 0
M  V30 2806 O 255.072 1.94529 0.231375 0
M  V30 2807 H 253.652 0.306084 -0.681411 0
M  V30 2808 H 256.314 0.101656 -1.94635 0
M  V30 2809 H 255.41 1.36366 -2.80733 0
M  V30 2810 N 255.711 1.52812 0.385517 0
M  V30 2811 C 256.939 1.71907 1.15133 0
M  V30 2812 C 257.354 0.439004 1.83625 0
M  V30 2813 O 256.711 -0.586765 1.7281 0
M  V30 2814 C 256.762 2.87099 2.19673 0
M  V30 2815 O 256.483 4.10151 1.53973 0
M  V30 2816 C 257.984 3.17902 3.08955 0
M  V30 2817 H 255.204 0.575479 0.345057 0
M  V30 2818 H 257.748 1.99476 0.45052 0
M  V30 2819 H 255.903 2.61982 2.85384 0
M  V30 2820 H 256.317 4.74514 2.23465 0
M  V30 2821 H 257.791 4.01959 3.7833 0
M  V30 2822 H 258.268 2.3243 3.72657 0
M  V30 2823 H 258.874 3.44871 2.48885 0
M  V30 2824 N 257.189 -0.644168 1.43834 0
M  V30 2825 C 258.6 -1.22554 1.40845 0
M  V30 2826 C 258.951 -1.9585 0.117115 0
M  V30 2827 O 258.076 -2.01734 -0.783086 0
M  V30 2828 C 258.671 -2.22907 2.55143 0
M  V30 2829 C 257.23 -2.76501 2.5539 0
M  V30 2830 C 256.377 -1.51287 2.32396 0
M  V30 2831 H 259.328 -0.43563 1.52604 0
M  V30 2832 H 259.349 -3.05259 2.2715 0
M  V30 2833 H 258.861 -1.69533 3.49114 0
M  V30 2834 H 256.962 -3.33914 1.65324 0
M  V30 2835 H 257.075 -3.23429 3.53455 0
M  V30 2836 H 255.439 -1.78957 1.81236 0
M  V30 2837 H 256.222 -0.998336 3.28463 0
M  V30 2838 N 258.668 -1.30515 -0.883378 0
M  V30 2839 C 259.616 -1.16941 -2.01066 0
M  V30 2840 C 260.61 -0.0809148 -1.69207 0
M  V30 2841 O 261.816 -0.241877 -1.78367 0
M  V30 2842 H 258.191 -0.361705 -0.659298 0
M  V30 2843 H 260.162 -2.12344 -2.09649 0
M  V30 2844 C 258.911 -0.879694 -3.36388 0
M  V30 2845 H 258.234 -1.70936 -3.61415 0
M  V30 2846 H 259.674 -0.82483 -4.159 0
M  V30 2847 C 258.133 0.417409 -3.34304 0
M  V30 2848 O 258.663 1.43843 -3.75063 0
M  V30 2849 N 256.869 0.429141 -2.87414 0
M  V30 2850 H 256.416 -0.402222 -2.5444 0
M  V30 2851 H 256.374 1.29696 -2.86403 0
M  V30 2852 N 260.146 1.09593 -1.13257 0
M  V30 2853 C 261.376 1.85231 -0.915049 0
M  V30 2854 C 261.784 1.81345 0.539498 0
M  V30 2855 O 261.127 1.20664 1.38513 0
M  V30 2856 C 261.189 3.34275 -1.3229 0
M  V30 2857 C 260.853 3.6191 -2.79052 0
M  V30 2858 C 261.85 3.57777 -3.77216 0
M  V30 2859 C 259.535 3.90309 -3.16171 0
M  V30 2860 C 261.529 3.81652 -5.1051 0
M  V30 2861 C 259.216 4.13839 -4.49644 0
M  V30 2862 C 260.214 4.09502 -5.46623 0
M  V30 2863 O 259.902 4.32426 -6.77689 0
M  V30 2864 H 259.634 0.591997 -0.326367 0
M  V30 2865 H 262.188 1.394 -1.50854 0
M  V30 2866 H 260.418 3.80805 -0.672667 0
M  V30 2867 H 262.107 3.9132 -1.07812 0
M  V30 2868 H 262.873 3.35865 -3.49885 0
M  V30 2869 H 258.752 3.92811 -2.41289 0
M  V30 2870 H 262.296 3.78182 -5.86195 0
M  V30 2871 H 258.193 4.35232 -4.767 0
M  V30 2872 H 258.961 4.49896 -6.83766 0
M  V30 2873 N 261.624 0.925811 1.2754 0
M  V30 2874 C 262.873 0.561084 1.93739 0
M  V30 2875 C 263.186 -0.901685 1.73577 0
M  V30 2876 O 264.392 -1.37511 2.34101 0
M  V30 2877 C 262.848 0.952668 3.47062 0
M  V30 2878 C 262.456 2.43599 3.75983 0
M  V30 2879 C 264.2 0.659103 4.19352 0
M  V30 2880 C 262.107 2.76707 5.22673 0
M  V30 2881 H 261.037 0.206122 0.725279 0
M  V30 2882 H 263.688 1.12637 1.44863 0
M  V30 2883 H 262.07 0.316053 3.94737 0
M  V30 2884 H 263.244 3.12035 3.39073 0
M  V30 2885 H 261.559 2.70125 3.16893 0
M  V30 2886 H 264.156 0.882985 5.27359 0
M  V30 2887 H 264.499 -0.403607 4.14339 0
M  V30 2888 H 265.032 1.25473 3.77494 0
M  V30 2889 H 261.771 3.8188 5.32774 0
M  V30 2890 H 261.291 2.12919 5.60737 0
M  V30 2891 H 262.97 2.6435 5.90532 0
M  V30 2892 N 263.102 -1.41638 0.69111 0
M  V30 2893 C 264.327 -2.06148 0.227583 0
M  V30 2894 C 264.752 -1.51652 -1.11281 0
M  V30 2895 O 264.11 -0.64164 -1.69566 0
M  V30 2896 C 264.158 -3.60095 0.190858 0
M  V30 2897 O 263.262 -4.03845 -0.835664 0
M  V30 2898 H 262.603 -0.654434 0.112306 0
M  V30 2899 H 265.133 -1.81484 0.944714 0
M  V30 2900 H 265.143 -4.07995 0.020207 0
M  V30 2901 H 263.818 -3.99129 1.16915 0
M  V30 2902 H 262.395 -3.67458 -0.63473 0
M  V30 2903 N 264.58 -0.43555 -1.51462 0
M  V30 2904 C 265.991 0.0279871 -1.86679 0
M  V30 2905 C 266.342 1.42104 -1.35281 0
M  V30 2906 O 265.467 2.04667 -0.702878 0
M  V30 2907 C 266.062 0.0575626 -3.38751 0
M  V30 2908 C 264.621 0.465507 -3.7351 0
M  V30 2909 C 263.768 -0.342996 -2.75171 0
M  V30 2910 H 266.719 -0.651473 -1.44712 0
M  V30 2911 H 266.74 0.867421 -3.70481 0
M  V30 2912 H 266.252 -0.956448 -3.7613 0
M  V30 2913 H 264.353 1.48519 -3.41721 0
M  V30 2914 H 264.466 0.191546 -4.78717 0
M  V30 2915 H 262.83 0.198442 -2.53926 0
M  V30 2916 H 263.613 -1.35585 -3.15391 0
M  V30 2917 N 266.058 1.56714 -0.166846 0
M  V30 2918 C 266.968 2.21331 0.777791 0
M  V30 2919 C 267.984 1.20358 1.25658 0
M  V30 2920 O 269.16 1.53005 1.30964 0
M  V30 2921 C 266.225 2.83787 1.99163 0
M  V30 2922 C 265.286 3.99947 1.56016 0
M  V30 2923 C 264.519 4.59415 2.71613 0
M  V30 2924 O 264.742 4.17769 3.88362 0
M  V30 2925 O 263.676 5.49359 2.45945 0
M  V30 2926 H 267.502 3.02605 0.257636 0
M  V30 2927 H 265.087 1.49275 0.0611393 0
M  V30 2928 H 266.969 3.23405 2.70161 0
M  V30 2929 H 265.644 2.05513 2.50092 0
M  V30 2930 H 264.551 3.65007 0.819809 0
M  V30 2931 H 265.884 4.79801 1.09782 0
M  V30 2932 N 267.536 -0.106894 1.57237 0
M  V30 2933 C 268.785 -0.811163 1.8467 0
M  V30 2934 C 269.098 -1.80469 0.754342 0
M  V30 2935 O 270.304 -2.55601 0.915439 0
M  V30 2936 C 268.76 -1.49337 3.27454 0
M  V30 2937 C 268.368 -0.540217 4.44731 0
M  V30 2938 C 270.112 -2.18206 3.64124 0
M  V30 2939 C 268.019 -1.22634 5.78545 0
M  V30 2940 H 266.949 -0.306679 0.688813 0
M  V30 2941 H 269.6 -0.0639887 1.83388 0
M  V30 2942 H 267.982 -2.2876 3.23241 0
M  V30 2943 H 269.156 0.221659 4.60267 0
M  V30 2944 H 267.471 0.042146 4.16379 0
M  V30 2945 H 270.068 -2.70253 4.61376 0
M  V30 2946 H 270.411 -2.96562 2.92158 0
M  V30 2947 H 270.944 -1.45658 3.70174 0
M  V30 2948 H 267.683 -0.483832 6.53712 0
M  V30 2949 H 267.203 -1.95993 5.66874 0
M  V30 2950 H 268.882 -1.75615 6.2271 0
M  V30 2951 N 269.014 -1.53014 -0.377408 0
M  V30 2952 C 269.977 -1.77957 -1.44444 0
M  V30 2953 C 270.977 -0.649763 -1.47087 0
M  V30 2954 O 272.167 -0.917897 -1.48055 0
M  V30 2955 C 269.299 -1.89089 -2.83651 0
M  V30 2956 H 270.492 -2.73243 -1.23606 0
M  V30 2957 H 268.045 -1.43912 -0.609844 0
M  V30 2958 H 268.78 -0.958293 -3.09818 0
M  V30 2959 H 268.565 -2.71254 -2.83132 0
M  V30 2960 H 270.055 -2.1002 -3.60945 0
M  V30 2961 N 270.492 0.636531 -1.44174 0
M  V30 2962 C 271.72 1.42353 -1.50144 0
M  V30 2963 C 272.135 1.88389 -0.124575 0
M  V30 2964 O 271.492 1.6051 0.868489 0
M  V30 2965 C 271.543 2.64744 -2.46156 0
M  V30 2966 O 271.264 2.20629 -3.7849 0
M  V30 2967 C 272.765 3.57929 -2.61537 0
M  V30 2968 H 269.985 0.436752 -0.5094 0
M  V30 2969 H 272.529 0.778933 -1.89084 0
M  V30 2970 H 270.684 3.25307 -2.10366 0
M  V30 2971 H 271.098 2.99938 -4.30276 0
M  V30 2972 H 272.572 4.40428 -3.32757 0
M  V30 2973 H 273.049 4.06382 -1.66585 0
M  V30 2974 H 273.655 3.03238 -2.98206 0
M  V30 2975 N 271.97 1.30982 0.876444 0
M  V30 2976 C 273.386 1.09498 1.16113 0
M  V30 2977 C 273.586 -0.13875 2.01022 0
M  V30 2978 O 272.642 -0.829935 2.38471 0
M  V30 2979 C 273.955 2.36308 1.85954 0
M  V30 2980 C 275.503 2.41856 1.98683 0
M  V30 2981 C 275.978 3.6853 2.71937 0
M  V30 2982 N 277.469 3.69387 2.79477 0
M  V30 2983 C 278.204 4.64096 3.36753 0
M  V30 2984 N 277.7 5.69155 3.95012 0
M  V30 2985 N 279.493 4.51626 3.3465 0
M  V30 2986 H 271.644 2.10118 0.310494 0
M  V30 2987 H 273.907 0.926634 0.200131 0
M  V30 2988 H 273.613 3.26388 1.31011 0
M  V30 2989 H 273.487 2.4561 2.86278 0
M  V30 2990 H 275.874 1.52249 2.52793 0
M  V30 2991 H 275.955 2.36523 0.9742 0
M  V30 2992 H 275.599 4.58499 2.18496 0
M  V30 2993 H 275.529 3.71127 3.73593 0
M  V30 2994 H 278.02 2.93438 2.38123 0
M  V30 2995 H 278.333 6.3751 4.36808 0
M  V30 2996 H 276.678 5.72937 3.93406 0
M  V30 2997 H 279.869 3.68728 2.8837 0
M  V30 2998 H 280.042 5.25614 3.7899 0
M  V30 2999 N 273.449 -1.08991 1.13837 0
M  V30 3000 C 274.674 -1.85551 0.926585 0
M  V30 3001 C 275.099 -1.80782 -0.519566 0
M  V30 3002 O 274.457 -1.18855 -1.36906 0
M  V30 3003 C 274.505 -3.31266 1.42462 0
M  V30 3004 O 273.609 -4.07822 0.612789 0
M  V30 3005 H 272.95 -0.575192 0.331738 0
M  V30 3006 H 275.48 -1.37604 1.51414 0
M  V30 3007 H 275.49 -3.82112 1.43019 0
M  V30 3008 H 274.165 -3.34052 2.47754 0
M  V30 3009 H 272.742 -3.66731 0.675463 0
M  V30 3010 N 274.927 -0.932562 -1.27047 0
M  V30 3011 C 275.89 -0.440064 -2.24936 0
M  V30 3012 C 276.89 0.444071 -1.54547 0
M  V30 3013 O 278.08 0.244465 -1.72476 0
M  V30 3014 C 275.212 0.36678 -3.38921 0
M  V30 3015 H 276.405 -1.305 -2.70018 0
M  V30 3016 H 273.958 -0.713707 -1.39054 0
M  V30 3017 H 274.693 1.25033 -2.99228 0
M  V30 3018 H 274.478 -0.267204 -3.91188 0
M  V30 3019 H 275.968 0.701567 -4.11665 0
M  V30 3020 N 276.405 1.4127 -0.698611 0
M  V30 3021 C 277.355 2.27997 -0.0119836 0
M  V30 3022 C 278.339 1.42363 0.749765 0
M  V30 3023 O 279.531 1.65607 0.624758 0
M  V30 3024 C 276.66 3.30702 0.921458 0
M  V30 3025 C 275.746 4.23814 0.155796 0
M  V30 3026 N 276.137 4.98572 -0.852015 0
M  V30 3027 C 274.435 4.44284 0.390836 0
M  V30 3028 C 275.136 5.66744 -1.3106 0
M  V30 3029 N 274.112 5.39867 -0.635944 0
M  V30 3030 H 277.914 2.83232 -0.784649 0
M  V30 3031 H 275.428 1.53518 -0.529711 0
M  V30 3032 H 277.425 3.91661 1.42854 0
M  V30 3033 H 276.085 2.77028 1.69369 0
M  V30 3034 H 277.096 5.03024 -1.23235 0
M  V30 3035 H 273.773 4.01614 1.14071 0
M  V30 3036 H 275.163 6.36672 -2.14707 0
M  V30 3037 N 277.883 0.443576 1.51229 0
M  V30 3038 C 279.131 -0.120557 2.0174 0
M  V30 3039 C 279.452 -1.42665 1.32935 0
M  V30 3040 O 278.722 -1.9028 0.465866 0
M  V30 3041 H 277.302 -0.0475426 0.745486 0
M  V30 3042 H 279.964 0.587711 1.85828 0
M  V30 3043 H 279.06 -0.291972 3.10731 0
M  V30 3044 N 279.361 -1.56624 0.175154 0
M  V30 3045 C 280.291 -2.21155 -0.749195 0
M  V30 3046 C 281.272 -1.16836 -1.23626 0
M  V30 3047 O 282.457 -1.45277 -1.28873 0
M  V30 3048 C 279.587 -2.8553 -1.97711 0
M  V30 3049 C 278.541 -3.95921 -1.62575 0
M  V30 3050 C 277.867 -4.47365 -2.92864 0
M  V30 3051 C 279.167 -5.15323 -0.850838 0
M  V30 3052 H 280.861 -2.98653 -0.211295 0
M  V30 3053 H 278.407 -1.43651 -0.100188 0
M  V30 3054 H 280.36 -3.2935 -2.62881 0
M  V30 3055 H 279.084 -2.05406 -2.53921 0
M  V30 3056 H 277.743 -3.52762 -0.997719 0
M  V30 3057 H 277.391 -3.64027 -3.47122 0
M  V30 3058 H 277.091 -5.21839 -2.70106 0
M  V30 3059 H 278.615 -4.93873 -3.59056 0
M  V30 3060 H 280.029 -5.55812 -1.40521 0
M  V30 3061 H 278.426 -5.95739 -0.722154 0
M  V30 3062 H 279.496 -4.84661 0.152082 0
M  V30 3063 N 280.839 0.0985539 -1.57292 0
M  V30 3064 C 281.749 1.13824 -2.05137 0
M  V30 3065 C 282.765 1.44076 -0.975604 0
M  V30 3066 O 283.941 1.54786 -1.28853 0
M  V30 3067 C 281.006 2.43969 -2.46333 0
M  V30 3068 C 280.067 2.2093 -3.68087 0
M  V30 3069 C 279.3 3.44869 -4.0731 0
M  V30 3070 O 279.523 4.52972 -3.46659 0
M  V30 3071 O 278.457 3.34661 -5.00285 0
M  V30 3072 H 282.283 0.761881 -2.93988 0
M  V30 3073 H 279.868 0.310818 -1.46131 0
M  V30 3074 H 281.75 3.20609 -2.73473 0
M  V30 3075 H 280.425 2.81038 -1.60621 0
M  V30 3076 H 279.332 1.42081 -3.46069 0
M  V30 3077 H 280.665 1.88755 -4.54568 0
M  V30 3078 N 282.317 1.53212 0.369288 0
M  V30 3079 C 283.542 1.73423 1.1375 0
M  V30 3080 C 283.967 0.460404 1.82378 0
M  V30 3081 O 283.325 -0.585298 1.71592 0
M  V30 3082 C 283.373 2.89769 2.1463 0
M  V30 3083 O 282.477 2.58119 3.21634 0
M  V30 3084 H 281.818 0.576061 0.330227 0
M  V30 3085 H 284.348 2.00083 0.427547 0
M  V30 3086 H 284.358 3.15829 2.58294 0
M  V30 3087 H 283.033 3.8217 1.64071 0
M  V30 3088 H 281.61 2.42864 2.82969 0
M  V30 3089 N 283.795 -0.628877 1.44509 0
M  V30 3090 C 285.072 -1.38733 1.37886 0
M  V30 3091 C 285.452 -2.11065 0.0387008 0
M  V30 3092 O 284.8 -2.06476 -0.97878 0
M  V30 3093 C 285.01 -2.35188 2.57852 0
M  V30 3094 C 286.358 -2.9845 3.02014 0
M  V30 3095 O 287.382 -2.45513 2.58073 0
M  V30 3096 O 286.241 -3.94487 3.78209 0
M  V30 3097 H 283.335 -0.621015 0.54614 0
M  V30 3098 H 285.881 -0.653744 1.56602 0
M  V30 3099 H 284.653 -1.80855 3.46998 0
M  V30 3100 H 284.276 -3.1596 2.4136 0
M  V30 3101 N 285.273 -1.31445 -0.869486 0
M  V30 3102 C 286.519 -1.21337 -1.62496 0
M  V30 3103 C 286.852 0.227872 -1.92858 0
M  V30 3104 O 286.127 1.16094 -1.56053 0
M  V30 3105 C 286.41 -2.05814 -2.95487 0
M  V30 3106 C 286.263 -3.5824 -2.72 0
M  V30 3107 C 287.582 -1.9079 -3.96594 0
M  V30 3108 H 284.701 -0.442135 -0.589649 0
M  V30 3109 H 287.343 -1.6124 -1.00507 0
M  V30 3110 H 285.493 -1.71913 -3.48394 0
M  V30 3111 H 287.165 -4.0228 -2.25762 0
M  V30 3112 H 285.408 -3.81647 -2.06224 0
M  V30 3113 H 286.079 -4.12657 -3.66631 0
M  V30 3114 H 288.555 -2.20459 -3.52898 0
M  V30 3115 H 287.431 -2.52199 -4.87531 0
M  V30 3116 H 287.692 -0.871341 -4.33428 0
M  V30 3117 N 286.751 1.08385 -1.14413 0
M  V30 3118 C 287.997 1.81212 -0.923793 0
M  V30 3119 C 288.352 1.84555 0.543814 0
M  V30 3120 O 287.645 1.31056 1.39767 0
M  V30 3121 C 287.839 3.26273 -1.45879 0
M  V30 3122 C 287.668 3.37063 -2.97689 0
M  V30 3123 C 286.438 3.4824 -3.66138 0
M  V30 3124 C 288.636 3.28698 -3.95553 0
M  V30 3125 N 286.618 3.47824 -5.05858 0
M  V30 3126 C 287.989 3.35276 -5.21527 0
M  V30 3127 C 290.044 3.12437 -3.8767 0
M  V30 3128 C 288.747 3.27267 -6.40538 0
M  V30 3129 C 290.773 3.05757 -5.06228 0
M  V30 3130 C 290.135 3.12938 -6.3107 0
M  V30 3131 H 286.234 0.6769 -0.391574 0
M  V30 3132 H 288.818 1.29455 -1.45429 0
M  V30 3133 H 286.989 3.76474 -0.95507 0
M  V30 3134 H 288.721 3.87165 -1.17835 0
M  V30 3135 H 285.476 3.52141 -3.16692 0
M  V30 3136 H 285.9 3.51171 -5.78798 0
M  V30 3137 H 290.542 3.05747 -2.92025 0
M  V30 3138 H 288.26 3.32718 -7.36427 0
M  V30 3139 H 291.846 2.94295 -5.01878 0
M  V30 3140 H 290.726 3.078 -7.21269 0
M  V30 3141 N 288.23 0.939286 1.26551 0
M  V30 3142 C 289.455 0.602008 1.98471 0
M  V30 3143 C 289.88 -0.815624 1.69497 0
M  V30 3144 O 289.238 -1.54912 0.941905 0
M  V30 3145 C 289.286 0.848407 3.50477 0
M  V30 3146 O 288.39 -0.0804009 4.12322 0
M  V30 3147 H 287.731 0.23049 0.622712 0
M  V30 3148 H 290.261 1.2617 1.61066 0
M  V30 3149 H 290.271 0.768553 4.00696 0
M  V30 3150 H 288.946 1.88171 3.70897 0
M  V30 3151 H 287.523 0.0503508 3.72866 0
M  V30 3152 N 289.708 -1.40897 0.706093 0
M  V30 3153 C 290.638 -2.33418 0.0620085 0
M  V30 3154 C 291.619 -1.52385 -0.755827 0
M  V30 3155 O 292.804 -1.80886 -0.706674 0
M  V30 3156 C 289.934 -3.36293 -0.867445 0
M  V30 3157 C 288.888 -4.27716 -0.155932 0
M  V30 3158 C 288.214 -5.2105 -1.20046 0
M  V30 3159 C 289.514 -5.12944 0.984149 0
M  V30 3160 H 291.208 -2.87527 0.83477 0
M  V30 3161 H 288.754 -1.38249 0.402875 0
M  V30 3162 H 290.707 -3.99949 -1.32735 0
M  V30 3163 H 289.431 -2.80556 -1.67199 0
M  V30 3164 H 288.09 -3.65498 0.284047 0
M  V30 3165 H 287.738 -4.61624 -1.99781 0
M  V30 3166 H 287.438 -5.83056 -0.729328 0
M  V30 3167 H 288.962 -5.87584 -1.66066 0
M  V30 3168 H 290.376 -5.70109 0.604048 0
M  V30 3169 H 288.773 -5.83945 1.38304 0
M  V30 3170 H 289.843 -4.49485 1.81911 0
M  V30 3171 N 291.186 -0.45159 -1.50991 0
M  V30 3172 C 292.434 0.109857 -2.01801 0
M  V30 3173 C 292.755 1.41958 -1.3369 0
M  V30 3174 O 292.025 1.9003 -0.475951 0
M  V30 3175 H 290.605 0.0435884 -0.745727 0
M  V30 3176 H 293.267 -0.597557 -1.85514 0
M  V30 3177 H 292.363 0.275489 -3.10882 0
M  V30 3178 N 292.664 1.56529 -0.183458 0
M  V30 3179 C 293.904 1.99141 0.460667 0
M  V30 3180 C 294.268 1.06736 1.59597 0
M  V30 3181 O 295.469 1.38538 2.30349 0
M  V30 3182 C 293.74 3.45358 0.919939 0
M  V30 3183 S 295.299 4.09999 1.56354 0
M  V30 3184 H 292.117 0.695479 0.147748 0
M  V30 3185 H 294.719 1.93429 -0.283782 0
M  V30 3186 H 293.423 4.10315 0.0834208 0
M  V30 3187 H 292.954 3.54862 1.69814 0
M  V30 3188 H 294.969 4.06046 2.85203 0
M  V30 3189 N 294.142 -0.090211 1.57342 0
M  V30 3190 C 295.075 -1.14035 1.97664 0
M  V30 3191 C 296.053 -1.38576 0.850616 0
M  V30 3192 O 297.237 -1.52255 1.11134 0
M  V30 3193 C 294.364 -2.48854 2.2976 0
M  V30 3194 C 293.41 -2.40564 3.52181 0
M  V30 3195 S 294.243 -1.81745 5.03715 0
M  V30 3196 C 295.399 -3.18178 5.38993 0
M  V30 3197 H 295.632 -0.796636 2.86428 0
M  V30 3198 H 293.165 -0.298072 1.51496 0
M  V30 3199 H 295.123 -3.26413 2.48927 0
M  V30 3200 H 293.784 -2.80393 1.41558 0
M  V30 3201 H 292.977 -3.39942 3.72096 0
M  V30 3202 H 292.579 -1.71135 3.32549 0
M  V30 3203 H 294.871 -4.14461 5.35937 0
M  V30 3204 H 295.814 -3.03062 6.39968 0
M  V30 3205 H 296.222 -3.17935 4.66452 0
M  V30 3206 N 295.62 -1.53406 -0.361157 0
M  V30 3207 C 296.867 -1.69802 -1.10333 0
M  V30 3208 C 297.195 -0.452087 -1.89173 0
M  V30 3209 O 296.45 0.566017 -1.87336 0
M  V30 3210 C 296.749 -2.90211 -2.08596 0
M  V30 3211 C 296.415 -4.26539 -1.46203 0
M  V30 3212 C 295.077 -4.6361 -1.28915 0
M  V30 3213 C 297.429 -5.113 -1.01101 0
M  V30 3214 C 294.757 -5.83075 -0.651157 0
M  V30 3215 C 297.109 -6.31415 -0.387007 0
M  V30 3216 C 295.773 -6.67195 -0.201657 0
M  V30 3217 H 295.043 -0.621351 -0.403737 0
M  V30 3218 H 297.69 -1.87598 -0.384609 0
M  V30 3219 H 295.995 -2.66946 -2.86788 0
M  V30 3220 H 297.692 -3.00091 -2.65982 0
M  V30 3221 H 294.282 -3.97352 -1.60653 0
M  V30 3222 H 298.466 -4.83206 -1.13249 0
M  V30 3223 H 293.722 -6.09385 -0.496006 0
M  V30 3224 H 297.896 -6.96394 -0.0293563 0
M  V30 3225 H 295.523 -7.59628 0.294766 0
M  V30 3226 N 297.098 0.621204 -1.44841 0
M  V30 3227 C 298.328 1.40548 -1.51426 0
M  V30 3228 C 298.736 1.88673 -0.141083 0
M  V30 3229 O 298.079 1.62053 0.865128 0
M  V30 3230 C 298.141 2.65325 -2.42576 0
M  V30 3231 C 297.805 2.3893 -3.89566 0
M  V30 3232 C 298.802 2.00138 -4.79834 0
M  V30 3233 C 296.487 2.52263 -4.3436 0
M  V30 3234 C 298.481 1.75021 -6.129 0
M  V30 3235 C 296.168 2.2676 -5.67471 0
M  V30 3236 C 297.166 1.88199 -6.56559 0
M  V30 3237 O 296.854 1.62986 -7.87204 0
M  V30 3238 H 296.586 0.437122 -0.515655 0
M  V30 3239 H 299.14 0.765987 -1.90583 0
M  V30 3240 H 297.37 3.31947 -1.98364 0
M  V30 3241 H 299.059 3.27347 -2.39998 0
M  V30 3242 H 299.825 1.89386 -4.46495 0
M  V30 3243 H 295.704 2.81246 -3.65269 0
M  V30 3244 H 299.248 1.44848 -6.82396 0
M  V30 3245 H 295.145 2.37125 -6.00368 0
M  V30 3246 H 295.913 1.7715 -7.991 0
M  V30 3247 N 298.576 1.31904 0.862503 0
M  V30 3248 C 299.804 1.24998 1.64873 0
M  V30 3249 C 300.219 -0.183425 1.87907 0
M  V30 3250 O 299.576 -1.11794 1.44251 0
M  V30 3251 C 299.627 1.99829 3.01248 0
M  V30 3252 O 299.348 3.37575 2.79239 0
M  V30 3253 C 300.849 1.99852 3.95694 0
M  V30 3254 H 298.069 0.431599 0.513773 0
M  V30 3255 H 300.613 1.73901 1.07604 0
M  V30 3256 H 298.768 1.54668 3.55185 0
M  V30 3257 H 299.182 3.75776 3.65914 0
M  V30 3258 H 300.656 2.56709 4.88676 0
M  V30 3259 H 301.133 0.982852 4.28062 0
M  V30 3260 H 301.739 2.44926 3.47694 0
M  V30 3261 N 300.054 -1.07777 1.14986 0
M  V30 3262 C 300.984 -2.16865 0.865557 0
M  V30 3263 C 301.965 -1.69123 -0.182083 0
M  V30 3264 O 303.15 -1.94164 -0.0373815 0
M  V30 3265 C 300.28 -3.45539 0.349313 0
M  V30 3266 C 299.234 -4.06708 1.33313 0
M  V30 3267 C 298.56 -5.30411 0.675918 0
M  V30 3268 C 299.86 -4.47241 2.69764 0
M  V30 3269 H 301.554 -2.40905 1.77778 0
M  V30 3270 H 299.1 -1.15781 0.856203 0
M  V30 3271 H 301.053 -4.21174 0.137983 0
M  V30 3272 H 299.777 -3.21072 -0.598362 0
M  V30 3273 H 298.436 -3.33112 1.53075 0
M  V30 3274 H 298.084 -5.02232 -0.277767 0
M  V30 3275 H 297.784 -5.72293 1.33244 0
M  V30 3276 H 299.308 -6.08755 0.474262 0
M  V30 3277 H 300.722 -5.14025 2.53873 0
M  V30 3278 H 299.119 -5.00062 3.3175 0
M  V30 3279 H 300.189 -3.58818 3.26156 0
M  V30 3280 N 301.532 -0.945985 -1.26051 0
M  V30 3281 C 302.462 -0.477172 -2.28572 0
M  V30 3282 C 303.443 0.472032 -1.63419 0
M  V30 3283 O 304.628 0.372853 -1.90587 0
M  V30 3284 C 301.758 0.253975 -3.4637 0
M  V30 3285 C 300.712 -0.609135 -4.23643 0
M  V30 3286 C 300.038 0.252252 -5.34105 0
M  V30 3287 C 301.338 -1.8829 -4.8718 0
M  V30 3288 H 303.032 -1.33402 -2.68038 0
M  V30 3289 H 300.578 -0.642904 -1.28852 0
M  V30 3290 H 302.531 0.593016 -4.17207 0
M  V30 3291 H 301.255 1.145 -3.05871 0
M  V30 3292 H 299.914 -0.931138 -3.54578 0
M  V30 3293 H 299.562 1.14278 -4.89846 0
M  V30 3294 H 299.262 -0.32188 -5.86718 0
M  V30 3295 H 300.786 0.586454 -6.07777 0
M  V30 3296 H 302.2 -1.61081 -5.50205 0
M  V30 3297 H 300.597 -2.40199 -5.49931 0
M  V30 3298 H 301.667 -2.59134 -4.09851 0
M  V30 3299 N 303.011 1.40521 -0.713556 0
M  V30 3300 C 304.26 2.00155 -0.249192 0
M  V30 3301 C 304.573 1.57224 1.16362 0
M  V30 3302 O 305.779 2.09542 1.72639 0
M  V30 3303 C 304.235 3.5773 -0.3946 0
M  V30 3304 C 303.843 4.09635 -1.81392 0
M  V30 3305 C 305.587 4.24499 0.00907364 0
M  V30 3306 C 303.494 5.59707 -1.91003 0
M  V30 3307 H 302.424 0.74868 -0.0894114 0
M  V30 3308 H 305.075 1.60784 -0.884352 0
M  V30 3309 H 303.457 3.94792 0.30911 0
M  V30 3310 H 304.631 3.83955 -2.54785 0
M  V30 3311 H 302.946 3.55456 -2.16888 0
M  V30 3312 H 305.543 5.34683 -0.0420404 0
M  V30 3313 H 305.886 4.02824 1.05065 0
M  V30 3314 H 306.419 3.92536 -0.645007 0
M  V30 3315 H 303.158 5.86234 -2.93275 0
M  V30 3316 H 302.678 5.87258 -1.22019 0
M  V30 3317 H 304.357 6.24776 -1.6812 0
M  V30 3318 N 304.489 0.459591 1.5075 0
M  V30 3319 C 305.737 -0.0991532 2.01857 0
M  V30 3320 C 306.058 -1.41247 1.34441 0
M  V30 3321 O 305.328 -1.89775 0.486022 0
M  V30 3322 H 303.908 -0.039633 0.745948 0
M  V30 3323 H 306.57 0.607387 1.85194 0
M  V30 3324 H 305.666 -0.258998 3.11023 0
M  V30 3325 N 305.967 -1.56429 0.191757 0
M  V30 3326 C 307.383 -1.58754 -0.164137 0
M  V30 3327 C 307.583 -1.20782 -1.61288 0
M  V30 3328 O 306.639 -0.928999 -2.34789 0
M  V30 3329 C 307.952 -3.00396 0.135195 0
M  V30 3330 C 309.5 -3.1291 0.0750351 0
M  V30 3331 C 309.975 -4.56679 0.347632 0
M  V30 3332 N 311.466 -4.62252 0.296131 0
M  V30 3333 C 312.201 -5.71379 0.480948 0
M  V30 3334 N 311.697 -6.88986 0.725933 0
M  V30 3335 N 313.49 -5.60563 0.415435 0
M  V30 3336 H 305.641 -1.79393 1.13718 0
M  V30 3337 H 307.904 -0.832414 0.453643 0
M  V30 3338 H 307.61 -3.32726 1.13958 0
M  V30 3339 H 307.484 -3.72963 -0.563773 0
M  V30 3340 H 309.871 -2.80394 -0.919948 0
M  V30 3341 H 309.952 -2.42736 0.807029 0
M  V30 3342 H 309.596 -4.89907 1.33992 0
M  V30 3343 H 309.526 -5.25039 -0.405212 0
M  V30 3344 H 312.017 -3.7773 0.113259 0
M  V30 3345 H 312.33 -7.68046 0.855857 0
M  V30 3346 H 310.675 -6.90801 0.762788 0
M  V30 3347 H 313.866 -4.67561 0.224486 0
M  V30 3348 H 314.039 -6.45551 0.562889 0
M  V30 3349 N 307.445 0.0818655 -1.57387 0
M  V30 3350 C 308.856 0.634871 -1.75574 0
M  V30 3351 C 309.207 1.78435 -0.815809 0
M  V30 3352 O 308.332 2.164 0.0025366 0
M  V30 3353 C 308.927 1.15845 -3.18379 0
M  V30 3354 C 307.486 1.65741 -3.37945 0
M  V30 3355 C 306.633 0.572549 -2.71325 0
M  V30 3356 H 309.584 -0.144268 -1.58043 0
M  V30 3357 H 309.605 2.02751 -3.21982 0
M  V30 3358 H 309.117 0.321631 -3.86765 0
M  V30 3359 H 307.218 2.51781 -2.74658 0
M  V30 3360 H 307.331 1.74129 -4.46336 0
M  V30 3361 H 305.695 1.01518 -2.33594 0
M  V30 3362 H 306.478 -0.253918 -3.4236 0
M  V30 3363 N 308.923 1.53595 0.353017 0
M  V30 3364 C 310.334 1.61937 0.929153 0
M  V30 3365 C 310.685 0.494686 1.89861 0
M  V30 3366 O 309.81 -0.377017 2.1309 0
M  V30 3367 C 310.405 2.93526 1.69199 0
M  V30 3368 C 308.964 3.04161 2.21727 0
M  V30 3369 C 308.111 2.57322 1.03348 0
M  V30 3370 H 311.062 1.58155 0.131431 0
M  V30 3371 H 311.083 2.82034 2.55416 0
M  V30 3372 H 310.595 3.75362 0.986144 0
M  V30 3373 H 308.696 2.26938 2.95516 0
M  V30 3374 H 308.809 4.09465 2.48748 0
M  V30 3375 H 307.173 2.12499 1.40414 0
M  V30 3376 H 307.956 3.41588 0.342428 0
M  V30 3377 N 310.401 -0.613514 1.45168 0
M  V30 3378 C 311.648 -1.37268 1.48875 0
M  V30 3379 C 311.976 -1.94077 0.128161 0
M  V30 3380 O 311.231 -1.75178 -0.872416 0
M  V30 3381 C 311.53 -2.54347 2.51083 0
M  V30 3382 C 311.196 -2.1572 3.95949 0
M  V30 3383 C 309.858 -2.04899 4.35396 0
M  V30 3384 C 312.21 -1.85485 4.87078 0
M  V30 3385 C 309.538 -1.62057 5.63875 0
M  V30 3386 C 311.89 -1.4413 6.15962 0
M  V30 3387 C 310.554 -1.31863 6.54346 0
M  V30 3388 H 309.824 -0.502299 0.544773 0
M  V30 3389 H 312.471 -0.694021 1.78481 0
M  V30 3390 H 310.776 -3.27524 2.15024 0
M  V30 3391 H 312.473 -3.12577 2.51191 0
M  V30 3392 H 309.063 -2.25066 3.64751 0
M  V30 3393 H 313.247 -1.92745 4.57343 0
M  V30 3394 H 308.503 -1.51177 5.92415 0
M  V30 3395 H 312.677 -1.19778 6.86022 0
M  V30 3396 H 310.304 -0.984392 7.538 0
M  V30 3397 N 311.879 -1.3236 -0.855495 0
M  V30 3398 C 313.156 -1.13491 -1.59309 0
M  V30 3399 C 313.536 0.30503 -2.08885 0
M  V30 3400 O 312.884 1.30151 -1.87811 0
M  V30 3401 C 313.094 -2.16176 -2.73987 0
M  V30 3402 C 314.442 -2.49463 -3.43589 0
M  V30 3403 O 315.466 -2.14715 -2.84211 0
M  V30 3404 O 314.325 -3.09027 -4.50738 0
M  V30 3405 H 311.419 -0.437887 -0.701559 0
M  V30 3406 H 313.965 -1.43887 -0.899696 0
M  V30 3407 H 312.737 -3.1297 -2.34873 0
M  V30 3408 H 312.36 -1.86769 -3.51003 0
M  V30 3409 N 313.357 1.07166 -1.15556 0
M  V30 3410 C 314.585 1.83514 -0.955519 0
M  V30 3411 C 315 1.82163 0.49621 0
M  V30 3412 O 314.357 1.23441 1.34419 0
M  V30 3413 C 314.408 3.30515 -1.46432 0
M  V30 3414 O 314.129 3.31937 -2.85918 0
M  V30 3415 C 315.63 4.23625 -1.30603 0
M  V30 3416 H 312.85 0.578926 -0.339244 0
M  V30 3417 H 315.394 1.35265 -1.53374 0
M  V30 3418 H 313.549 3.76106 -0.928584 0
M  V30 3419 H 313.963 4.23794 -3.09029 0
M  V30 3420 H 315.437 5.24831 -1.71047 0
M  V30 3421 H 315.914 4.38485 -0.250441 0
M  V30 3422 H 316.52 3.83871 -1.83094 0
M  V30 3423 N 314.835 0.952656 1.25548 0
M  V30 3424 C 316.112 0.523818 1.88456 0
M  V30 3425 C 316.492 -0.998871 1.85973 0
M  V30 3426 O 315.84 -1.86381 1.3219 0
M  V30 3427 C 316.05 1.0982 3.31271 0
M  V30 3428 C 317.398 1.17385 4.08051 0
M  V30 3429 O 318.422 1.04961 3.40384 0
M  V30 3430 O 317.281 1.36852 5.29088 0
M  V30 3431 H 314.375 0.172485 0.808813 0
M  V30 3432 H 316.921 1.04596 1.33633 0
M  V30 3433 H 315.693 2.1415 3.27499 0
M  V30 3434 H 315.316 0.559191 3.93648 0
M  V30 3435 N 316.313 -1.40141 0.720998 0
M  V30 3436 C 317.541 -2.05096 0.272656 0
M  V30 3437 C 317.956 -1.54334 -1.0875 0
M  V30 3438 O 317.313 -0.702211 -1.6845 0
M  V30 3439 C 317.364 -3.60636 0.249835 0
M  V30 3440 O 317.085 -4.09526 1.55629 0
M  V30 3441 C 318.586 -4.42772 -0.216396 0
M  V30 3442 H 315.806 -0.659897 0.121558 0
M  V30 3443 H 318.35 -1.79449 0.980723 0
M  V30 3444 H 316.505 -3.85232 -0.409237 0
M  V30 3445 H 316.919 -5.03758 1.4604 0
M  V30 3446 H 318.393 -5.51702 -0.181212 0
M  V30 3447 H 318.87 -4.20756 -1.25941 0
M  V30 3448 H 319.476 -4.23294 0.412596 0
M  V30 3449 N 317.792 -0.46758 -1.50504 0
M  V30 3450 C 319.038 0.0887532 -2.02606 0
M  V30 3451 C 319.371 1.39686 -1.34913 0
M  V30 3452 O 318.646 1.88644 -0.473694 0
M  V30 3453 C 318.929 0.276206 -3.59039 0
M  V30 3454 C 318.782 -1.05267 -4.37309 0
M  V30 3455 C 320.101 1.03235 -4.27821 0
M  V30 3456 H 317.22 0.0307814 -0.736357 0
M  V30 3457 H 319.862 -0.612485 -1.79857 0
M  V30 3458 H 318.012 0.8735 -3.78553 0
M  V30 3459 H 319.684 -1.68628 -4.29374 0
M  V30 3460 H 317.927 -1.65015 -4.01189 0
M  V30 3461 H 318.598 -0.875197 -5.45018 0
M  V30 3462 H 321.074 0.526111 -4.12761 0
M  V30 3463 H 319.95 1.1323 -5.37094 0
M  V30 3464 H 320.211 2.06806 -3.90748 0
M  V30 3465 N 319.27 1.56325 -0.20005 0
M  V30 3466 C 320.217 2.1932 0.718833 0
M  V30 3467 C 321.187 1.14198 1.20615 0
M  V30 3468 O 322.372 1.42469 1.26914 0
M  V30 3469 C 319.512 2.86041 1.93066 0
M  V30 3470 C 318.625 4.05702 1.48425 0
M  V30 3471 C 317.76 4.60266 2.65196 0
M  V30 3472 C 316.799 5.72273 2.17185 0
M  V30 3473 N 315.936 6.21221 3.27152 0
M  V30 3474 H 320.776 2.97486 0.17489 0
M  V30 3475 H 318.313 1.46911 0.0745794 0
M  V30 3476 H 320.271 3.22897 2.64184 0
M  V30 3477 H 318.901 2.1043 2.44783 0
M  V30 3478 H 317.953 3.74475 0.668755 0
M  V30 3479 H 319.265 4.86699 1.09204 0
M  V30 3480 H 318.419 4.99453 3.4443 0
M  V30 3481 H 317.158 3.78386 3.07693 0
M  V30 3482 H 316.163 5.3261 1.36407 0
M  V30 3483 H 317.388 6.55974 1.75713 0
M  V30 3484 H 315.334 5.42263 3.69171 0
M  V30 3485 H 315.251 6.97284 2.92116 0
M  V30 3486 H 316.519 6.65063 4.06585 0
M  V30 3487 N 320.748 -0.0735177 1.57428 0
M  V30 3488 C 321.696 -1.10628 2.04607 0
M  V30 3489 C 322.69 -1.40181 0.951088 0
M  V30 3490 O 323.896 -1.39608 1.1362 0
M  V30 3491 H 320.271 -0.374088 0.652351 0
M  V30 3492 H 322.242 -0.682218 2.90497 0
M  V30 3493 C 320.991 -2.41212 2.50423 0
M  V30 3494 H 320.314 -2.19322 3.34272 0
M  V30 3495 H 321.754 -3.11927 2.87189 0
M  V30 3496 C 320.213 -3.0705 1.38644 0
M  V30 3497 O 320.743 -3.95056 0.727582 0
M  V30 3498 N 318.949 -2.67645 1.132 0
M  V30 3499 H 318.496 -1.96169 1.66959 0
M  V30 3500 H 318.454 -3.1202 0.386147 0
M  V30 3501 N 322.226 -1.5378 -0.344866 0
M  V30 3502 C 323.454 -1.74899 -1.10534 0
M  V30 3503 C 323.869 -0.487534 -1.82397 0
M  V30 3504 O 323.226 0.540741 -1.74305 0
M  V30 3505 C 323.277 -2.92822 -2.11984 0
M  V30 3506 O 322.998 -4.14089 -1.43044 0
M  V30 3507 C 324.499 -3.25982 -3.00417 0
M  V30 3508 H 321.719 -0.584426 -0.329678 0
M  V30 3509 H 324.263 -2.006 -0.397474 0
M  V30 3510 H 322.418 -2.69457 -2.78338 0
M  V30 3511 H 322.832 -4.80272 -2.10805 0
M  V30 3512 H 324.306 -4.11848 -3.67539 0
M  V30 3513 H 324.783 -2.42228 -3.66363 0
M  V30 3514 H 325.389 -3.51349 -2.39654 0
M  V30 3515 N 323.704 0.605807 -1.45491 0
M  V30 3516 C 324.634 1.72709 -1.57143 0
M  V30 3517 C 325.615 1.6476 -0.422884 0
M  V30 3518 O 326.8 1.83132 -0.646247 0
M  V30 3519 C 323.93 3.11316 -1.53948 0
M  V30 3520 C 322.884 3.34077 -2.67537 0
M  V30 3521 C 322.21 4.72975 -2.49397 0
M  V30 3522 C 323.51 3.24158 -4.09535 0
M  V30 3523 H 325.204 1.63214 -2.51001 0
M  V30 3524 H 322.75 0.78379 -1.208 0
M  V30 3525 H 324.703 3.89557 -1.60696 0
M  V30 3526 H 323.427 3.21655 -0.566205 0
M  V30 3527 H 322.086 2.58227 -2.6022 0
M  V30 3528 H 321.734 4.8005 -1.50205 0
M  V30 3529 H 321.434 4.8916 -3.25571 0
M  V30 3530 H 322.958 5.53414 -2.58002 0
M  V30 3531 H 324.372 3.92271 -4.18086 0
M  V30 3532 H 322.769 3.51872 -4.86113 0
M  V30 3533 H 323.839 2.2157 -4.31317 0
M  V30 3534 N 325.182 1.32811 0.848464 0
M  V30 3535 C 326.13 1.22231 1.97895 0
M  V30 3536 C 327.124 0.125749 1.68933 0
M  V30 3537 O 328.33 0.289083 1.77663 0
M  V30 3538 H 324.705 0.379058 0.649476 0
M  V30 3539 H 326.676 2.17828 2.03945 0
M  V30 3540 C 325.425 0.968572 3.33937 0
M  V30 3541 H 324.748 1.80458 3.56756 0
M  V30 3542 H 326.188 0.934808 4.13567 0
M  V30 3543 C 324.647 -0.328628 3.35293 0
M  V30 3544 O 325.177 -1.33848 3.78745 0
M  V30 3545 N 323.383 -0.352788 2.88451 0
M  V30 3546 H 322.93 0.469541 2.53285 0
M  V30 3547 H 322.888 -1.22057 2.89741 0
M  V30 3548 N 326.66 -1.06551 1.16123 0
M  V30 3549 C 327.607 -2.13961 0.865414 0
M  V30 3550 C 328.577 -1.65066 -0.185055 0
M  V30 3551 O 329.762 -1.90732 -0.05083 0
M  V30 3552 C 326.902 -3.43113 0.369776 0
M  V30 3553 C 326.015 -4.05756 1.48276 0
M  V30 3554 C 325.15 -5.22773 0.942414 0
M  V30 3555 C 324.189 -5.77395 2.03179 0
M  V30 3556 N 323.326 -6.85731 1.50721 0
M  V30 3557 H 328.166 -2.38605 1.78527 0
M  V30 3558 H 325.703 -1.17072 0.890646 0
M  V30 3559 H 327.661 -4.17151 0.0640643 0
M  V30 3560 H 326.291 -3.18695 -0.513143 0
M  V30 3561 H 325.343 -3.29292 1.9045 0
M  V30 3562 H 326.655 -4.42351 2.30493 0
M  V30 3563 H 325.809 -6.03827 0.589729 0
M  V30 3564 H 324.548 -4.87618 0.0895191 0
M  V30 3565 H 323.553 -4.94981 2.3932 0
M  V30 3566 H 324.778 -6.14603 2.8886 0
M  V30 3567 H 322.724 -6.52499 0.676811 0
M  V30 3568 H 322.641 -7.21254 2.26557 0
M  V30 3569 H 323.909 -7.7047 1.18303 0
M  V30 3570 N 328.138 -0.959301 -1.25041 0
M  V30 3571 C 329.384 -0.617525 -1.9317 0
M  V30 3572 C 329.717 0.843981 -1.74902 0
M  V30 3573 O 328.992 1.60615 -1.09696 0
M  V30 3574 C 329.275 -0.982736 -3.46431 0
M  V30 3575 C 329.128 -2.50032 -3.73904 0
M  V30 3576 C 330.447 -0.511176 -4.37121 0
M  V30 3577 H 327.566 -0.22582 -0.701552 0
M  V30 3578 H 330.208 -1.19679 -1.4757 0
M  V30 3579 H 328.358 -0.489806 -3.854 0
M  V30 3580 H 330.03 -3.06737 -3.44544 0
M  V30 3581 H 328.273 -2.93598 -3.19348 0
M  V30 3582 H 328.944 -2.70635 -4.81103 0
M  V30 3583 H 331.42 -0.934075 -4.0548 0
M  V30 3584 H 330.296 -0.795361 -5.43107 0
M  V30 3585 H 330.557 0.588834 -4.38161 0
M  V30 3586 N 329.616 1.39756 -0.72842 0
M  V30 3587 C 330.862 2.00942 -0.273892 0
M  V30 3588 C 331.195 1.57656 1.13394 0
M  V30 3589 O 330.47 0.802434 1.77176 0
M  V30 3590 C 330.753 3.58211 -0.368346 0
M  V30 3591 C 330.606 4.11534 -1.81548 0
M  V30 3592 C 331.925 4.39372 0.253054 0
M  V30 3593 H 329.044 0.730047 -0.100996 0
M  V30 3594 H 331.686 1.66056 -0.923337 0
M  V30 3595 H 329.836 3.88061 0.184588 0
M  V30 3596 H 331.508 3.92431 -2.42478 0
M  V30 3597 H 329.751 3.65341 -2.33898 0
M  V30 3598 H 330.422 5.20682 -1.83288 0
M  V30 3599 H 332.898 4.15527 -0.218224 0
M  V30 3600 H 331.774 5.48677 0.156585 0
M  V30 3601 H 332.035 4.21358 1.33826 0
M  V30 3602 N 331.094 0.475555 1.50254 0
M  V30 3603 C 332.024 -0.30611 2.31485 0
M  V30 3604 C 333.005 -0.986228 1.38591 0
M  V30 3605 O 334.19 -0.982541 1.67511 0
M  V30 3606 C 331.32 -1.38588 3.1845 0
M  V30 3607 C 330.274 -0.827115 4.19932 0
M  V30 3608 C 329.6 -2.00551 4.95665 0
M  V30 3609 C 330.9 0.16463 5.2204 0
M  V30 3610 H 332.594 0.371866 2.97082 0
M  V30 3611 H 330.14 0.180282 1.42867 0
M  V30 3612 H 332.093 -1.94023 3.74076 0
M  V30 3613 H 330.817 -2.09269 2.50747 0
M  V30 3614 H 329.476 -0.294702 3.65414 0
M  V30 3615 H 329.124 -2.6994 4.2443 0
M  V30 3616 H 328.824 -1.63784 5.64313 0
M  V30 3617 H 330.348 -2.56468 5.54127 0
M  V30 3618 H 331.762 -0.300699 5.72511 0
M  V30 3619 H 330.159 0.446813 5.98434 0
M  V30 3620 H 331.229 1.08905 4.72512 0
M  V30 3621 N 332.573 -1.56217 0.208337 0
M  V30 3622 C 333.536 -2.18455 -0.693557 0
M  V30 3623 C 334.536 -1.14268 -1.13135 0
M  V30 3624 O 335.726 -1.39577 -1.0423 0
M  V30 3625 C 332.858 -2.79727 -1.94848 0
M  V30 3626 H 334.051 -2.99519 -0.15114 0
M  V30 3627 H 331.604 -1.56245 -0.041287 0
M  V30 3628 H 332.339 -2.02497 -2.53309 0
M  V30 3629 H 332.124 -3.56009 -1.64316 0
M  V30 3630 H 333.614 -3.27475 -2.59133 0
M  V30 3631 N 334.051 0.0651679 -1.57465 0
M  V30 3632 C 335.328 0.79644 -1.78651 0
M  V30 3633 C 335.708 1.95454 -0.797566 0
M  V30 3634 O 335.056 2.27882 0.167946 0
M  V30 3635 C 335.266 1.26322 -3.25337 0
M  V30 3636 C 336.614 1.6939 -3.89348 0
M  V30 3637 O 337.638 1.35872 -3.29268 0
M  V30 3638 O 336.497 2.31471 -4.95059 0
M  V30 3639 H 333.591 0.382157 -0.733407 0
M  V30 3640 H 336.137 0.0447311 -1.69641 0
M  V30 3641 H 334.909 0.434859 -3.88876 0
M  V30 3642 H 334.532 2.07604 -3.39096 0
M  V30 3643 N 335.529 1.53961 0.336706 0
M  V30 3644 C 336.759 1.75229 1.09446 0
M  V30 3645 C 337.167 0.494602 1.82621 0
M  V30 3646 O 336.51 -0.543764 1.75468 0
M  V30 3647 C 336.572 2.88288 2.1478 0
M  V30 3648 C 336.236 4.27656 1.6112 0
M  V30 3649 C 337.233 5.08981 1.0599 0
M  V30 3650 C 334.918 4.74161 1.6576 0
M  V30 3651 C 336.912 6.34916 0.562129 0
M  V30 3652 C 334.599 6.00067 1.15595 0
M  V30 3653 C 335.597 6.80278 0.609147 0
M  V30 3654 O 335.285 8.03818 0.114999 0
M  V30 3655 H 335.017 0.588881 0.331956 0
M  V30 3656 H 337.571 2.01614 0.392566 0
M  V30 3657 H 335.801 2.57443 2.88548 0
M  V30 3658 H 337.49 2.97461 2.76174 0
M  V30 3659 H 338.256 4.74213 1.01722 0
M  V30 3660 H 334.135 4.11781 2.07261 0
M  V30 3661 H 337.679 6.9747 0.134668 0
M  V30 3662 H 333.576 6.3433 1.19566 0
M  V30 3663 H 334.344 8.18172 0.231651 0
M  V30 3664 N 337.007 -0.598083 1.45811 0
M  V30 3665 C 337.917 -1.73632 1.57763 0
M  V30 3666 C 338.933 -1.67763 0.461676 0
M  V30 3667 O 340.109 -1.87949 0.723685 0
M  V30 3668 C 337.174 -3.10114 1.55018 0
M  V30 3669 C 336.235 -3.27364 2.77726 0
M  V30 3670 C 335.468 -4.57334 2.75102 0
M  V30 3671 O 335.691 -5.40258 1.8297 0
M  V30 3672 O 334.625 -4.77502 3.66437 0
M  V30 3673 H 338.451 -1.66498 2.53992 0
M  V30 3674 H 336.036 -0.763308 1.28429 0
M  V30 3675 H 337.918 -3.9141 1.56129 0
M  V30 3676 H 336.593 -3.17718 0.619431 0
M  V30 3677 H 335.5 -2.45619 2.82174 0
M  V30 3678 H 336.833 -3.24641 3.69958 0
M  V30 3679 N 338.485 -1.33259 -0.841409 0
M  V30 3680 C 339.418 -1.1764 -1.95541 0
M  V30 3681 C 340.396 -0.072501 -1.62438 0
M  V30 3682 O 341.58 -0.23427 -1.87039 0
M  V30 3683 C 338.707 -0.803794 -3.29024 0
M  V30 3684 C 337.753 -1.91482 -3.81099 0
M  V30 3685 S 338.586 -3.52538 -4.03085 0
M  V30 3686 C 339.742 -3.17279 -5.39523 0
M  V30 3687 H 339.975 -2.11941 -2.08491 0
M  V30 3688 H 337.508 -1.18072 -0.9949 0
M  V30 3689 H 339.466 -0.595592 -4.06156 0
M  V30 3690 H 338.127 0.120574 -3.13868 0
M  V30 3691 H 337.32 -1.60742 -4.7768 0
M  V30 3692 H 336.922 -2.07956 -3.10854 0
M  V30 3693 H 339.214 -2.67946 -6.22263 0
M  V30 3694 H 340.157 -4.1293 -5.75234 0
M  V30 3695 H 340.565 -2.53943 -5.04156 0
M  V30 3696 N 339.963 1.05934 -1.16686 0
M  V30 3697 C 341.374 1.60263 -0.957745 0
M  V30 3698 C 341.725 1.89789 0.49745 0
M  V30 3699 O 340.85 1.67401 1.37135 0
M  V30 3700 C 341.445 2.91172 -1.73218 0
M  V30 3701 C 340.004 3.42188 -1.56794 0
M  V30 3702 C 339.151 2.16028 -1.73859 0
M  V30 3703 H 342.102 0.888392 -1.31504 0
M  V30 3704 H 342.123 3.60744 -1.21014 0
M  V30 3705 H 341.635 2.6965 -2.79124 0
M  V30 3706 H 339.736 3.68762 -0.533437 0
M  V30 3707 H 339.849 4.17273 -2.35414 0
M  V30 3708 H 338.213 2.26426 -1.16633 0
M  V30 3709 H 338.996 1.96985 -2.81161 0
M  V30 3710 N 341.441 0.965919 1.2453 0
M  V30 3711 C 342.666 0.643971 1.97149 0
M  V30 3712 C 343.091 -0.779487 1.71189 0
M  V30 3713 O 342.449 -1.5288 0.974553 0
M  V30 3714 C 342.497 0.922557 3.48599 0
M  V30 3715 O 341.601 0.00707672 4.12399 0
M  V30 3716 H 340.942 0.243647 0.617683 0
M  V30 3717 H 343.472 1.29558 1.58353 0
M  V30 3718 H 343.482 0.853373 3.98976 0
M  V30 3719 H 342.157 1.95996 3.66822 0
M  V30 3720 H 340.734 0.12943 3.72675 0
M  V30 3721 N 342.919 -1.39368 0.735821 0
M  V30 3722 C 344.166 -2.00497 0.284123 0
M  V30 3723 C 344.494 -1.58387 -1.12889 0
M  V30 3724 O 343.749 -0.804359 -1.78406 0
M  V30 3725 C 344.048 -3.5583 0.334651 0
M  V30 3726 C 343.714 -4.17593 1.7008 0
M  V30 3727 C 342.376 -4.34176 2.07472 0
M  V30 3728 C 344.728 -4.51848 2.59775 0
M  V30 3729 C 342.056 -4.82304 3.34065 0
M  V30 3730 C 344.408 -5.01384 3.85741 0
M  V30 3731 C 343.072 -5.16175 4.23225 0
M  V30 3732 H 342.342 -0.73367 0.103968 0
M  V30 3733 H 344.989 -1.66683 0.942825 0
M  V30 3734 H 343.294 -3.89674 -0.407625 0
M  V30 3735 H 344.991 -4.00986 -0.0329927 0
M  V30 3736 H 341.581 -4.05087 1.40008 0
M  V30 3737 H 345.765 -4.38653 2.32157 0
M  V30 3738 H 341.021 -4.91941 3.63049 0
M  V30 3739 H 345.195 -5.26863 4.55399 0
M  V30 3740 H 342.822 -5.5323 5.21384 0
M  V30 3741 N 344.397 -0.483516 -1.5 0
M  V30 3742 C 345.327 0.293829 -2.31644 0
M  V30 3743 C 346.308 0.978864 -1.39112 0
M  V30 3744 O 347.493 0.973644 -1.68029 0
M  V30 3745 C 344.623 1.36897 -3.19181 0
M  V30 3746 C 343.577 0.804833 -4.20365 0
M  V30 3747 C 342.903 1.9792 -4.96721 0
M  V30 3748 C 344.203 -0.192313 -5.21946 0
M  V30 3749 H 345.897 -0.387616 -2.9688 0
M  V30 3750 H 343.443 -0.187856 -1.42769 0
M  V30 3751 H 345.396 1.92037 -3.751 0
M  V30 3752 H 344.12 2.07936 -2.51853 0
M  V30 3753 H 342.779 0.275319 -3.65565 0
M  V30 3754 H 342.427 2.67686 -4.25856 0
M  V30 3755 H 342.127 1.60789 -5.65173 0
M  V30 3756 H 343.651 2.53526 -5.55479 0
M  V30 3757 H 345.065 0.270333 -5.72662 0
M  V30 3758 H 343.462 -0.478543 -5.98189 0
M  V30 3759 H 344.532 -1.11409 -4.71928 0
M  V30 3760 N 345.875 1.56104 -0.216619 0
M  V30 3761 C 347.1 2.0301 0.424462 0
M  V30 3762 C 347.525 1.0955 1.52907 0
M  V30 3763 O 346.883 0.0827914 1.81111 0
M  V30 3764 C 346.931 3.4819 0.937883 0
M  V30 3765 O 346.035 3.57865 2.04955 0
M  V30 3766 H 345.376 0.656925 0.0966755 0
M  V30 3767 H 347.906 2.01859 -0.33381 0
M  V30 3768 H 347.916 3.88413 1.24897 0
M  V30 3769 H 346.591 4.15699 0.129387 0
M  V30 3770 H 345.168 3.29527 1.74546 0
M  V30 3771 N 347.353 -0.0568162 1.57498 0
M  V30 3772 C 348.602 -0.752001 1.87157 0
M  V30 3773 C 348.915 -1.77978 0.811375 0
M  V30 3774 O 350.121 -2.52559 0.996293 0
M  V30 3775 C 348.577 -1.38844 3.3204 0
M  V30 3776 C 348.185 -0.398456 4.46225 0
M  V30 3777 C 349.929 -2.06512 3.70882 0
M  V30 3778 C 347.836 -1.04166 5.82154 0
M  V30 3779 H 346.766 -0.28461 0.698222 0
M  V30 3780 H 349.417 -0.00561272 1.83499 0
M  V30 3781 H 347.799 -2.1836 3.30356 0
M  V30 3782 H 348.973 0.367977 4.59328 0
M  V30 3783 H 347.288 0.174592 4.16034 0
M  V30 3784 H 349.885 -2.55437 4.6974 0
M  V30 3785 H 350.228 -2.87117 3.01445 0
M  V30 3786 H 350.761 -1.33808 3.7462 0
M  V30 3787 H 347.5 -0.275614 6.5492 0
M  V30 3788 H 347.02 -1.7786 5.72823 0
M  V30 3789 H 348.699 -1.55715 6.27982 0
M  V30 3790 N 348.832 -1.54138 -0.328536 0
M  V30 3791 C 349.742 -1.86192 -1.42723 0
M  V30 3792 C 350.758 -0.753382 -1.56844 0
M  V30 3793 O 351.934 -1.04718 -1.72035 0
M  V30 3794 C 348.999 -2.07824 -2.77507 0
M  V30 3795 C 348.06 -3.31641 -2.72603 0
M  V30 3796 C 347.293 -3.52232 -4.00959 0
M  V30 3797 O 347.516 -2.7636 -4.9898 0
M  V30 3798 O 346.45 -4.45699 -4.0452 0
M  V30 3799 H 350.276 -2.79608 -1.18547 0
M  V30 3800 H 347.861 -1.3998 -0.522104 0
M  V30 3801 H 349.743 -2.23411 -3.57303 0
M  V30 3802 H 348.418 -1.17596 -3.01584 0
M  V30 3803 H 347.325 -3.21444 -1.91376 0
M  V30 3804 H 348.658 -4.2191 -2.53481 0
M  V30 3805 N 350.31 0.590341 -1.46126 0
M  V30 3806 C 351.273 1.68194 -1.55703 0
M  V30 3807 C 352.273 1.54808 -0.434868 0
M  V30 3808 O 353.463 1.59564 -0.698928 0
M  V30 3809 C 350.595 3.07575 -1.47005 0
M  V30 3810 H 351.788 1.61064 -2.52979 0
M  V30 3811 H 349.341 0.807541 -1.33823 0
M  V30 3812 H 350.076 3.20268 -0.509785 0
M  V30 3813 H 349.861 3.187 -2.28414 0
M  V30 3814 H 351.351 3.87055 -1.56776 0
M  V30 3815 N 351.788 1.33704 0.83433 0
M  V30 3816 C 352.735 1.24335 1.94447 0
M  V30 3817 C 353.705 0.120991 1.65659 0
M  V30 3818 O 354.89 0.300035 1.88426 0
M  V30 3819 C 352.03 0.993124 3.30501 0
M  V30 3820 C 351.143 2.20217 3.71657 0
M  V30 3821 C 350.278 1.88572 4.96602 0
M  V30 3822 C 349.317 3.05683 5.30306 0
M  V30 3823 N 348.454 2.73997 6.46429 0
M  V30 3824 H 353.294 2.1928 2.01792 0
M  V30 3825 H 350.831 1.09035 0.987404 0
M  V30 3826 H 352.789 0.828467 4.08892 0
M  V30 3827 H 351.419 0.0803902 3.227 0
M  V30 3828 H 350.471 2.47642 2.88752 0
M  V30 3829 H 351.783 3.07752 3.92543 0
M  V30 3830 H 350.937 1.68776 5.82752 0
M  V30 3831 H 349.676 0.982799 4.77695 0
M  V30 3832 H 348.681 3.26088 4.42659 0
M  V30 3833 H 349.906 3.96737 5.51159 0
M  V30 3834 H 347.852 1.86268 6.28999 0
M  V30 3835 H 347.769 3.55064 6.67432 0
M  V30 3836 H 349.037 2.57679 7.35678 0
M  V30 3837 N 353.266 -1.05314 1.17247 0
M  V30 3838 C 354.543 -1.75184 0.87005 0
M  V30 3839 C 354.923 -2.01481 -0.629965 0
M  V30 3840 O 354.271 -1.64988 -1.58086 0
M  V30 3841 C 354.481 -3.04594 1.70363 0
M  V30 3842 C 355.829 -3.78567 1.92281 0
M  V30 3843 O 356.853 -3.14461 1.67311 0
M  V30 3844 O 355.712 -4.93755 2.3424 0
M  V30 3845 H 352.806 -0.761729 0.322021 0
M  V30 3846 H 355.352 -1.11493 1.27935 0
M  V30 3847 H 354.124 -2.81201 2.72106 0
M  V30 3848 H 353.747 -3.76022 1.29202 0
M  V30 3849 N 354.744 -0.972509 -1.24016 0
M  V30 3850 C 355.674 -0.525548 -2.27509 0
M  V30 3851 C 356.655 0.437262 -1.64384 0
M  V30 3852 O 357.84 0.332343 -1.91335 0
M  V30 3853 C 354.97 0.180448 -3.46831 0
M  V30 3854 C 353.924 -0.698859 -4.22256 0
M  V30 3855 C 353.25 0.138903 -5.3452 0
M  V30 3856 C 354.55 -1.98582 -4.83076 0
M  V30 3857 H 356.244 -1.39058 -2.65148 0
M  V30 3858 H 353.79 -0.67009 -1.27459 0
M  V30 3859 H 355.743 0.504387 -4.18371 0
M  V30 3860 H 354.467 1.07987 -3.08231 0
M  V30 3861 H 353.126 -1.00614 -3.52523 0
M  V30 3862 H 352.774 1.03862 -4.9216 0
M  V30 3863 H 352.474 -0.446259 -5.85903 0
M  V30 3864 H 353.998 0.457404 -6.08884 0
M  V30 3865 H 355.412 -1.72715 -5.46665 0
M  V30 3866 H 353.809 -2.5181 -5.44713 0
M  V30 3867 H 354.879 -2.67769 -4.04262 0
M  V30 3868 N 356.222 1.38976 -0.743202 0
M  V30 3869 C 357.471 1.99581 -0.291592 0
M  V30 3870 C 357.784 1.59656 1.13001 0
M  V30 3871 O 358.99 2.13157 1.68156 0
M  V30 3872 C 357.446 3.56813 -0.470391 0
M  V30 3873 C 357.054 4.05695 -1.90041 0
M  V30 3874 C 358.798 4.24423 -0.0809709 0
M  V30 3875 C 356.705 5.5553 -2.02832 0
M  V30 3876 H 355.635 0.746615 -0.105272 0
M  V30 3877 H 358.286 1.58872 -0.918258 0
M  V30 3878 H 356.668 3.95359 0.225299 0
M  V30 3879 H 357.842 3.78464 -2.62872 0
M  V30 3880 H 356.157 3.50775 -2.24379 0
M  V30 3881 H 358.754 5.34474 -0.155445 0
M  V30 3882 H 359.097 4.04962 0.96497 0
M  V30 3883 H 359.63 3.9108 -0.728124 0
M  V30 3884 H 356.369 5.79881 -3.05643 0
M  V30 3885 H 355.889 5.84537 -1.34448 0
M  V30 3886 H 357.568 6.21069 -1.81335 0
M  V30 3887 N 357.7 0.491464 1.49741 0
M  V30 3888 C 358.65 -0.311086 2.25868 0
M  V30 3889 C 359.634 -0.943857 1.30308 0
M  V30 3890 O 360.826 -0.853035 1.55088 0
M  V30 3891 C 357.955 -1.38059 3.14316 0
M  V30 3892 C 357.041 -0.754541 4.17334 0
M  V30 3893 N 357.432 0.137216 5.05614 0
M  V30 3894 C 355.73 -1.01621 4.34269 0
M  V30 3895 C 356.431 0.494614 5.79593 0
M  V30 3896 N 355.407 -0.135169 5.43432 0
M  V30 3897 H 359.209 0.37555 2.91491 0
M  V30 3898 H 356.723 0.306917 1.59473 0
M  V30 3899 H 358.72 -1.96891 3.67477 0
M  V30 3900 H 357.38 -2.06901 2.50244 0
M  V30 3901 H 358.391 0.50741 5.15408 0
M  V30 3902 H 355.068 -1.69808 3.81407 0
M  V30 3903 H 356.458 1.2236 6.60665 0
M  V30 3904 N 359.178 -1.55987 0.224894 0
M  V30 3905 C 360.11 -2.17722 -0.716224 0
M  V30 3906 C 361.123 -1.14723 -1.15509 0
M  V30 3907 O 362.312 -1.41688 -1.08567 0
M  V30 3908 C 359.412 -2.74873 -1.98238 0
M  V30 3909 C 358.585 -4.03074 -1.69853 0
M  V30 3910 C 357.644 -4.44757 -2.81208 0
M  V30 3911 O 356.67 -5.11587 -2.49534 0
M  V30 3912 N 357.872 -4.10716 -4.10235 0
M  V30 3913 H 360.637 -2.99109 -0.188123 0
M  V30 3914 H 358.198 -1.6184 0.0440123 0
M  V30 3915 H 360.19 -2.99727 -2.7193 0
M  V30 3916 H 358.76 -1.9777 -2.42086 0
M  V30 3917 H 357.98 -3.86041 -0.797875 0
M  V30 3918 H 359.268 -4.86701 -1.48324 0
M  V30 3919 H 358.666 -3.57019 -4.38809 0
M  V30 3920 H 357.223 -4.40455 -4.80461 0
M  V30 3921 N 360.656 0.0484629 -1.57525 0
M  V30 3922 C 361.586 1.0549 -2.08313 0
M  V30 3923 C 362.567 1.38929 -0.981463 0
M  V30 3924 O 363.752 1.48151 -1.25558 0
M  V30 3925 C 360.882 2.36162 -2.54646 0
M  V30 3926 C 359.836 2.17016 -3.68901 0
M  V30 3927 C 359.162 3.53278 -4.01371 0
M  V30 3928 C 360.462 1.57219 -4.98076 0
M  V30 3929 H 362.156 0.632195 -2.92649 0
M  V30 3930 H 359.702 0.302654 -1.40784 0
M  V30 3931 H 361.655 3.06882 -2.88793 0
M  V30 3932 H 360.379 2.80456 -1.67368 0
M  V30 3933 H 359.038 1.48733 -3.35073 0
M  V30 3934 H 358.686 3.95185 -3.11188 0
M  V30 3935 H 358.386 3.41299 -4.78318 0
M  V30 3936 H 359.91 4.25391 -4.38035 0
M  V30 3937 H 361.324 2.17832 -5.30304 0
M  V30 3938 H 359.721 1.55871 -5.79503 0
M  V30 3939 H 360.791 0.535956 -4.81929 0
M  V30 3940 N 362.134 1.5431 0.320358 0
M  V30 3941 C 363.064 1.86912 1.3995 0
M  V30 3942 C 364.045 0.726211 1.53819 0
M  V30 3943 O 365.23 0.980233 1.67646 0
M  V30 3944 C 362.36 2.09932 2.7667 0
M  V30 3945 C 361.314 3.25776 2.77586 0
M  V30 3946 C 360.64 3.34173 4.17412 0
M  V30 3947 C 361.94 4.6335 2.41048 0
M  V30 3948 H 363.634 2.77292 1.12914 0
M  V30 3949 H 361.18 1.33421 0.541738 0
M  V30 3950 H 363.133 2.31324 3.52232 0
M  V30 3951 H 361.857 1.16304 3.0519 0
M  V30 3952 H 360.516 3.04276 2.04479 0
M  V30 3953 H 360.164 2.38098 4.43078 0
M  V30 3954 H 359.864 4.12033 4.18931 0
M  V30 3955 H 361.388 3.57803 4.94782 0
M  V30 3956 H 362.802 4.84602 3.06324 0
M  V30 3957 H 361.199 5.43782 2.53813 0
M  V30 3958 H 362.269 4.65381 1.36193 0
M  V30 3959 N 363.613 -0.582584 1.46437 0
M  V30 3960 C 365.029 -0.905962 1.31394 0
M  V30 3961 C 365.229 -1.99468 0.285476 0
M  V30 3962 O 364.285 -2.50566 -0.311914 0
M  V30 3963 C 365.598 -1.3232 2.70022 0
M  V30 3964 C 367.146 -1.43604 2.78113 0
M  V30 3965 C 367.621 -1.88694 4.17323 0
M  V30 3966 N 369.112 -1.95887 4.19741 0
M  V30 3967 C 369.847 -2.32051 5.24347 0
M  V30 3968 N 369.343 -2.67006 6.39281 0
M  V30 3969 N 371.136 -2.32606 5.11713 0
M  V30 3970 H 363.287 0.1366 2.1196 0
M  V30 3971 H 365.55 -0.00155736 0.947999 0
M  V30 3972 H 365.256 -0.597242 3.46592 0
M  V30 3973 H 365.13 -2.28469 3.00136 0
M  V30 3974 H 367.517 -2.15286 2.01832 0
M  V30 3975 H 367.598 -0.457059 2.51684 0
M  V30 3976 H 367.242 -1.1759 4.941 0
M  V30 3977 H 367.172 -2.8755 4.4116 0
M  V30 3978 H 369.663 -1.71362 3.36814 0
M  V30 3979 H 369.976 -2.93554 7.14875 0
M  V30 3980 H 368.321 -2.64644 6.42642 0
M  V30 3981 H 371.512 -2.04721 4.2096 0
M  V30 3982 H 371.685 -2.60462 5.93349 0
M  V30 3983 N 365.091 -1.34144 -0.827227 0
M  V30 3984 C 366.507 -1.13732 -1.11969 0
M  V30 3985 C 366.707 0.0640463 -2.01398 0
M  V30 3986 O 365.763 0.740856 -2.41387 0
M  V30 3987 C 367.076 -2.43047 -1.77055 0
M  V30 3988 C 368.624 -2.49063 -1.89569 0
M  V30 3989 C 369.099 -3.78369 -2.58072 0
M  V30 3990 N 370.59 -3.79505 -2.65575 0
M  V30 3991 C 371.325 -4.76274 -3.19297 0
M  V30 3992 N 370.821 -5.83424 -3.73616 0
M  V30 3993 N 372.614 -4.63735 -3.17658 0
M  V30 3994 H 364.765 -2.11126 -0.232296 0
M  V30 3995 H 367.028 -0.933424 -0.165602 0
M  V30 3996 H 366.734 -3.31025 -1.18807 0
M  V30 3997 H 366.608 -2.56066 -2.76966 0
M  V30 3998 H 368.995 -1.61527 -2.46968 0
M  V30 3999 H 369.076 -2.39975 -0.885745 0
M  V30 4000 H 368.72 -4.66293 -2.01329 0
M  V30 4001 H 368.65 -3.84737 -3.59562 0
M  V30 4002 H 371.141 -3.02074 -2.27068 0
M  V30 4003 H 371.454 -6.53282 -4.12846 0
M  V30 4004 H 369.799 -5.87143 -3.71871 0
M  V30 4005 H 372.99 -3.79177 -2.74486 0
M  V30 4006 H 373.163 -5.39318 -3.59221 0
M  V30 4007 N 366.569 1.04691 -1.17803 0
M  V30 4008 C 367.517 2.14665 -0.895635 0
M  V30 4009 C 368.511 1.68806 0.141679 0
M  V30 4010 O 369.717 1.79999 -0.00587914 0
M  V30 4011 H 366.092 0.701038 -0.272121 0
M  V30 4012 H 368.063 2.35685 -1.83017 0
M  V30 4013 C 366.812 3.45019 -0.430962 0
M  V30 4014 H 366.135 3.8071 -1.22064 0
M  V30 4015 H 367.575 4.23125 -0.272301 0
M  V30 4016 C 366.034 3.25943 0.852207 0
M  V30 4017 O 366.564 3.5296 1.91786 0
M  V30 4018 N 364.77 2.79304 0.802346 0
M  V30 4019 H 364.317 2.57518 -0.0650788 0
M  V30 4020 H 364.275 2.66921 1.66134 0
M  V30 4021 N 368.047 0.979072 1.23499 0
M  V30 4022 C 369.458 0.684391 1.73704 0
M  V30 4023 C 369.809 -0.799448 1.79174 0
M  V30 4024 O 368.934 -1.62531 1.42873 0
M  V30 4025 C 369.529 1.23564 3.15464 0
M  V30 4026 C 368.088 0.99063 3.6313 0
M  V30 4027 C 367.235 1.36416 2.41425 0
M  V30 4028 H 370.186 1.15307 1.09041 0
M  V30 4029 H 370.207 0.607417 3.7562 0
M  V30 4030 H 369.719 2.31561 3.1145 0
M  V30 4031 H 367.82 -0.0733136 3.72528 0
M  V30 4032 H 367.933 1.64427 4.5 0
M  V30 4033 H 366.297 0.782616 2.42378 0
M  V30 4034 H 367.08 2.45387 2.40083 0
M  V30 4035 N 369.525 -1.3858 0.750561 0
M  V30 4036 C 370.488 -2.28836 0.129152 0
M  V30 4037 C 371.488 -1.47045 -0.650714 0
M  V30 4038 O 372.678 -1.6753 -0.477428 0
M  V30 4039 C 369.81 -3.30751 -0.825622 0
M  V30 4040 H 371.003 -2.85294 0.924516 0
M  V30 4041 H 368.556 -1.47489 0.517376 0
M  V30 4042 H 369.291 -2.79378 -1.64677 0
M  V30 4043 H 369.076 -3.91177 -0.268852 0
M  V30 4044 H 370.566 -3.98249 -1.2565 0
M  V30 4045 N 371.003 -0.499398 -1.49478 0
M  V30 4046 C 372.28 0.108629 -1.95298 0
M  V30 4047 C 372.66 1.54282 -1.44084 0
M  V30 4048 O 372.008 2.18944 -0.653908 0
M  V30 4049 C 372.218 0.0229111 -3.48992 0
M  V30 4050 C 373.566 0.197643 -4.2414 0
M  V30 4051 O 374.59 0.0981735 -3.56065 0
M  V30 4052 O 373.449 0.401669 -5.45022 0
M  V30 4053 H 370.543 0.096181 -0.821388 0
M  V30 4054 H 373.089 -0.561822 -1.6013 0
M  V30 4055 H 371.861 -0.977321 -3.78899 0
M  V30 4056 H 371.484 0.733579 -3.90774 0
M  V30 4057 N 372.481 1.55866 -0.233164 0
M  V30 4058 C 373.897 1.59133 0.121988 0
M  V30 4059 C 374.097 1.25016 1.58029 0
M  V30 4060 O 373.153 0.990922 2.32243 0
M  V30 4061 C 374.466 2.99932 -0.214792 0
M  V30 4062 C 376.014 3.12601 -0.157971 0
M  V30 4063 C 376.489 4.55597 -0.46859 0
M  V30 4064 N 377.98 4.61305 -0.418585 0
M  V30 4065 C 378.715 5.69903 -0.63227 0
M  V30 4066 N 378.211 6.86819 -0.90835 0
M  V30 4067 N 380.004 5.59264 -0.563913 0
M  V30 4068 H 372.155 1.76315 -1.18434 0
M  V30 4069 H 374.418 0.820093 -0.475553 0
M  V30 4070 H 374.124 3.29588 -1.22739 0
M  V30 4071 H 373.998 3.74327 0.464691 0
M  V30 4072 H 376.385 2.82735 0.845283 0
M  V30 4073 H 376.466 2.40511 -0.871102 0
M  V30 4074 H 376.11 4.86182 -1.46934 0
M  V30 4075 H 376.04 5.25928 0.265865 0
M  V30 4076 H 378.531 3.77297 -0.213368 0
M  V30 4077 H 378.844 7.65507 -1.05919 0
M  V30 4078 H 377.189 6.88536 -0.945673 0
M  V30 4079 H 380.38 4.66802 -0.348372 0
M  V30 4080 H 380.553 6.43831 -0.733847 0
M  V30 4081 N 373.959 -0.0401083 1.57549 0
M  V30 4082 C 374.889 -1.04384 2.08869 0
M  V30 4083 C 375.87 -1.38407 0.988817 0
M  V30 4084 O 377.055 -1.47483 1.26342 0
M  V30 4085 C 374.185 -2.34808 2.55895 0
M  V30 4086 C 373.139 -2.15057 3.70047 0
M  V30 4087 C 372.465 -3.51145 4.03239 0
M  V30 4088 C 373.765 -1.54576 4.98902 0
M  V30 4089 H 375.459 -0.616666 2.92981 0
M  V30 4090 H 373.005 -0.295184 1.40942 0
M  V30 4091 H 374.958 -3.05346 2.90417 0
M  V30 4092 H 373.682 -2.79565 1.68853 0
M  V30 4093 H 372.341 -1.46954 3.35857 0
M  V30 4094 H 371.989 -3.93529 3.13279 0
M  V30 4095 H 371.689 -3.38758 4.80122 0
M  V30 4096 H 373.213 -4.23062 4.40285 0
M  V30 4097 H 374.627 -2.15017 5.31451 0
M  V30 4098 H 373.024 -1.52796 5.80322 0
M  V30 4099 H 374.094 -0.51039 4.82206 0
M  V30 4100 N 375.437 -1.54477 -0.31217 0
M  V30 4101 C 376.662 -1.77526 -1.07235 0
M  V30 4102 C 377.087 -0.527775 -1.80544 0
M  V30 4103 O 376.445 0.52121 -1.73646 0
M  V30 4104 C 376.493 -2.97535 -2.03728 0
M  V30 4105 O 375.597 -2.69878 -3.11833 0
M  V30 4106 H 374.938 -0.58792 -0.30862 0
M  V30 4107 H 377.468 -2.01532 -0.352993 0
M  V30 4108 H 377.478 -3.25198 -2.46395 0
M  V30 4109 H 376.153 -3.87996 -1.49774 0
M  V30 4110 H 374.73 -2.53199 -2.7376 0
M  V30 4111 N 376.915 0.57481 -1.46744 0
M  V30 4112 C 377.845 1.69337 -1.60771 0
M  V30 4113 C 378.826 1.63825 -0.457736 0
M  V30 4114 O 380.011 1.8172 -0.684947 0
M  V30 4115 C 377.141 3.0798 -1.60517 0
M  V30 4116 C 376.095 3.28327 -2.74564 0
M  V30 4117 C 375.421 4.67578 -2.59373 0
M  V30 4118 C 376.721 3.15398 -4.16319 0
M  V30 4119 H 378.415 1.57853 -2.54407 0
M  V30 4120 H 375.961 0.75799 -1.22436 0
M  V30 4121 H 377.914 3.86061 -1.68923 0
M  V30 4122 H 376.638 3.20381 -0.634305 0
M  V30 4123 H 375.297 2.52649 -2.65639 0
M  V30 4124 H 374.945 4.76755 -1.60353 0
M  V30 4125 H 374.645 4.82144 -3.35873 0
M  V30 4126 H 376.169 5.47817 -2.69682 0
M  V30 4127 H 377.583 3.83315 -4.26313 0
M  V30 4128 H 375.98 3.41482 -4.93468 0
M  V30 4129 H 377.05 2.12372 -4.3592 0
M  V30 4130 N 378.394 1.34581 0.820102 0
M  V30 4131 C 379.619 1.30333 1.61332 0
M  V30 4132 C 380.044 -0.119339 1.87721 0
M  V30 4133 O 379.402 -1.08197 1.45475 0
M  V30 4134 C 379.45 2.10258 2.92957 0
M  V30 4135 O 378.554 1.47404 3.85157 0
M  V30 4136 H 377.895 0.447488 0.490561 0
M  V30 4137 H 380.425 1.77425 1.01889 0
M  V30 4138 H 380.435 2.21718 3.42498 0
M  V30 4139 H 379.11 3.13693 2.73074 0
M  V30 4140 H 377.687 1.44703 3.43679 0
M  V30 4141 N 379.872 -1.04064 1.18357 0
M  V30 4142 C 381.097 -1.81454 1.00445 0
M  V30 4143 C 381.522 -1.82823 -0.442423 0
M  V30 4144 O 380.88 -1.24555 -1.31741 0
M  V30 4145 C 380.928 -3.24925 1.56384 0
M  V30 4146 O 380.032 -4.04856 0.785209 0
M  V30 4147 H 379.373 -0.560604 0.355835 0
M  V30 4148 H 381.903 -1.31059 1.57114 0
M  V30 4149 H 381.913 -3.75702 1.59097 0
M  V30 4150 H 380.588 -3.23244 2.61699 0
M  V30 4151 H 379.165 -3.63537 0.830399 0
M  V30 4152 N 381.35 -0.985608 -1.22978 0
M  V30 4153 C 382.596 -0.65836 -1.91816 0
M  V30 4154 C 382.929 0.806692 -1.76653 0
M  V30 4155 O 382.204 1.58252 -1.13078 0
M  V30 4156 C 382.487 -1.056 -3.44268 0
M  V30 4157 C 382.34 -2.57906 -3.68516 0
M  V30 4158 C 383.659 -0.603781 -4.35939 0
M  V30 4159 H 380.778 -0.24065 -0.696604 0
M  V30 4160 H 383.42 -1.22783 -1.44998 0
M  V30 4161 H 381.57 -0.571445 -3.84274 0
M  V30 4162 H 383.242 -3.13976 -3.3796 0
M  V30 4163 H 381.485 -3.00305 -3.13048 0
M  V30 4164 H 382.156 -2.80779 -4.75255 0
M  V30 4165 H 384.632 -1.01987 -4.03408 0
M  V30 4166 H 383.508 -0.910383 -5.41298 0
M  V30 4167 H 383.769 0.495761 -4.39312 0
M  V30 4168 N 382.828 1.3818 -0.7579 0
M  V30 4169 C 383.758 2.33027 -0.148597 0
M  V30 4170 C 384.739 1.55085 0.69875 0
M  V30 4171 O 385.924 1.83384 0.639053 0
M  V30 4172 C 383.054 3.3928 0.742034 0
M  V30 4173 C 382.008 4.28 -0.00291946 0
M  V30 4174 C 381.334 5.25146 1.00625 0
M  V30 4175 C 382.634 5.08938 -1.17385 0
M  V30 4176 H 384.328 2.84231 -0.940909 0
M  V30 4177 H 381.874 1.36659 -0.453908 0
M  V30 4178 H 383.827 4.046 1.17799 0
M  V30 4179 H 382.551 2.86569 1.56671 0
M  V30 4180 H 381.21 3.64192 -0.419504 0
M  V30 4181 H 380.858 4.68721 1.8251 0
M  V30 4182 H 380.558 5.85361 0.512428 0
M  V30 4183 H 382.082 5.93342 1.44143 0
M  V30 4184 H 383.496 5.67474 -0.815224 0
M  V30 4185 H 381.893 5.7841 -1.59882 0
M  V30 4186 H 382.963 4.42424 -1.98468 0
M  V30 4187 N 384.306 0.507319 1.49211 0
M  V30 4188 C 385.583 -0.0982702 1.95353 0
M  V30 4189 C 385.963 -1.53516 1.449 0
M  V30 4190 O 385.311 -2.18594 0.66551 0
M  V30 4191 C 385.521 -0.00440283 3.49 0
M  V30 4192 C 386.869 -0.175147 4.24239 0
M  V30 4193 O 387.893 -0.0792891 3.56112 0
M  V30 4194 O 386.752 -0.37276 5.45227 0
M  V30 4195 H 383.846 -0.0918236 0.821887 0
M  V30 4196 H 386.392 0.570307 1.5983 0
M  V30 4197 H 385.164 0.997402 3.78375 0
M  V30 4198 H 384.787 -0.712845 3.91158 0
M  V30 4199 N 385.784 -1.5574 0.241426 0
M  V30 4200 C 386.734 -2.17803 -0.674233 0
M  V30 4201 C 387.718 -1.13225 -1.14319 0
M  V30 4202 O 388.91 -1.39153 -1.09387 0
M  V30 4203 C 386.039 -2.87682 -1.87333 0
M  V30 4204 C 385.125 -3.99509 -1.42313 0
M  V30 4205 N 385.516 -5.01115 -0.686798 0
M  V30 4206 C 383.814 -4.11964 -1.70885 0
M  V30 4207 C 384.515 -5.79922 -0.454456 0
M  V30 4208 N 383.491 -5.34001 -1.01705 0
M  V30 4209 H 387.293 -2.93718 -0.103447 0
M  V30 4210 H 384.807 -1.62342 0.0435095 0
M  V30 4211 H 386.804 -3.3057 -2.54026 0
M  V30 4212 H 385.464 -2.13269 -2.4484 0
M  V30 4213 H 386.475 -5.16799 -0.337459 0
M  V30 4214 H 383.152 -3.48718 -2.2957 0
M  V30 4215 H 384.542 -6.71768 0.132992 0
M  V30 4216 N 387.262 0.0317525 -1.57568 0
M  V30 4217 C 388.673 0.578692 -1.77505 0
M  V30 4218 C 389.024 1.75749 -0.872164 0
M  V30 4219 O 388.149 2.16298 -0.0663106 0
M  V30 4220 C 388.744 1.05658 -3.21904 0
M  V30 4221 C 387.303 1.54906 -3.43047 0
M  V30 4222 C 386.45 0.485939 -2.73009 0
M  V30 4223 H 389.401 -0.194475 -1.57504 0
M  V30 4224 H 389.422 1.92404 -3.28269 0
M  V30 4225 H 388.934 0.198422 -3.87592 0
M  V30 4226 H 387.035 2.42915 -2.82529 0
M  V30 4227 H 387.148 1.59841 -4.5165 0
M  V30 4228 H 385.512 0.940354 -2.36705 0
M  V30 4229 H 386.295 -0.362709 -3.41379 0
M  V30 4230 N 388.74 1.54641 0.303973 0
M  V30 4231 C 389.987 1.7378 1.03955 0
M  V30 4232 C 390.315 0.521986 1.87365 0
M  V30 4233 O 389.57 -0.496099 1.89308 0
M  V30 4234 C 389.869 2.97753 1.97681 0
M  V30 4235 C 389.535 4.31671 1.30271 0
M  V30 4236 C 388.197 4.68075 1.11619 0
M  V30 4237 C 390.549 5.147 0.82055 0
M  V30 4238 C 387.877 5.8509 0.434304 0
M  V30 4239 C 390.229 6.32416 0.152395 0
M  V30 4240 C 388.893 6.67484 -0.0461067 0
M  V30 4241 H 388.163 0.635908 0.380398 0
M  V30 4242 H 390.81 1.88896 0.314718 0
M  V30 4243 H 389.115 2.77406 2.76682 0
M  V30 4244 H 390.812 3.09756 2.54661 0
M  V30 4245 H 387.402 4.03041 1.45795 0
M  V30 4246 H 391.586 4.87077 0.952374 0
M  V30 4247 H 386.842 6.10806 0.269495 0
M  V30 4248 H 391.016 6.96023 -0.229126 0
M  V30 4249 H 388.643 7.58011 -0.576494 0
M  V30 4250 N 390.218 -0.567019 1.47046 0
M  V30 4251 C 391.151 -1.69016 1.53326 0
M  V30 4252 C 392.129 -1.57949 0.386126 0
M  V30 4253 O 393.313 -1.78945 0.592529 0
M  V30 4254 C 390.44 -3.07191 1.42658 0
M  V30 4255 C 389.486 -3.36733 2.6175 0
M  V30 4256 S 390.319 -3.27069 4.24012 0
M  V30 4257 C 391.475 -4.67755 4.1588 0
M  V30 4258 H 391.708 -1.63434 2.48348 0
M  V30 4259 H 389.241 -0.747048 1.35124 0
M  V30 4260 H 391.199 -3.86897 1.37191 0
M  V30 4261 H 389.86 -3.10249 0.490369 0
M  V30 4262 H 389.053 -4.37441 2.50323 0
M  V30 4263 H 388.655 -2.64627 2.64289 0
M  V30 4264 H 390.947 -5.58491 3.83529 0
M  V30 4265 H 391.89 -4.84239 5.16641 0
M  V30 4266 H 392.298 -4.45341 3.46889 0
M  V30 4267 N 391.696 -1.35014 -0.812953 0
M  V30 4268 C 392.921 -1.31187 -1.60639 0
M  V30 4269 C 393.346 0.109382 -1.87782 0
M  V30 4270 O 392.704 1.07424 -1.46047 0
M  V30 4271 C 392.752 -2.11809 -2.91838 0
M  V30 4272 O 391.856 -1.49444 -3.8437 0
M  V30 4273 H 391.197 -0.450084 -0.488181 0
M  V30 4274 H 393.727 -1.77963 -1.00947 0
M  V30 4275 H 393.737 -2.23531 -3.41318 0
M  V30 4276 H 392.412 -3.15137 -2.71407 0
M  V30 4277 H 390.989 -1.46524 -3.42907 0
M  V30 4278 N 393.175 1.03435 -1.18907 0
M  V30 4279 C 394.591 1.28973 -0.940111 0
M  V30 4280 C 394.791 1.97676 0.390691 0
M  V30 4281 O 393.847 2.26127 1.12352 0
M  V30 4282 C 395.16 2.14221 -2.11021 0
M  V30 4283 C 396.708 2.27547 -2.14922 0
M  V30 4284 C 397.183 3.16164 -3.31367 0
M  V30 4285 N 398.674 3.23752 -3.31269 0
M  V30 4286 C 399.409 3.92495 -4.18014 0
M  V30 4287 N 398.905 4.63515 -5.14904 0
M  V30 4288 N 400.698 3.88838 -4.05908 0
M  V30 4289 H 392.849 0.57252 -2.04538 0
M  V30 4290 H 395.112 0.315184 -0.894071 0
M  V30 4291 H 394.818 1.71054 -3.073 0
M  V30 4292 H 394.692 3.14919 -2.0762 0
M  V30 4293 H 397.079 2.69947 -1.19217 0
M  V30 4294 H 397.16 1.26418 -2.22378 0
M  V30 4295 H 396.804 2.74474 -4.27348 0
M  V30 4296 H 396.734 4.17339 -3.21148 0
M  V30 4297 H 399.225 2.73167 -2.61129 0
M  V30 4298 H 399.538 5.13583 -5.77453 0
M  V30 4299 H 397.883 4.62398 -5.18857 0
M  V30 4300 H 401.074 3.32491 -3.29495 0
M  V30 4301 H 401.247 4.4214 -4.73726 0
M  V30 4302 N 394.653 0.992116 1.22453 0
M  V30 4303 C 395.601 0.534644 2.26372 0
M  V30 4304 C 396.595 -0.414293 1.64256 0
M  V30 4305 O 397.801 -0.286899 1.77699 0
M  V30 4306 H 394.176 0.154502 0.735957 0
M  V30 4307 H 396.147 1.42256 2.62309 0
M  V30 4308 C 394.896 -0.135815 3.47435 0
M  V30 4309 H 394.219 0.585311 3.95492 0
M  V30 4310 H 395.659 -0.419374 4.21921 0
M  V30 4311 C 394.118 -1.37089 3.07747 0
M  V30 4312 O 394.648 -2.46629 3.17076 0
M  V30 4313 N 392.854 -1.24585 2.62539 0
M  V30 4314 H 392.401 -0.354542 2.55149 0
M  V30 4315 H 392.359 -2.07327 2.36353 0
M  V30 4316 N 396.131 -1.37776 0.765217 0
M  V30 4317 C 397.356 -2.04651 0.336537 0
M  V30 4318 C 397.781 -1.57337 -1.03086 0
M  V30 4319 O 397.139 -0.730621 -1.65927 0
M  V30 4320 C 397.187 -3.58577 0.381468 0
M  V30 4321 O 396.291 -4.07706 -0.62042 0
M  V30 4322 H 395.632 -0.64756 0.146838 0
M  V30 4323 H 398.162 -1.76221 1.03959 0
M  V30 4324 H 398.172 -4.07314 0.236448 0
M  V30 4325 H 396.847 -3.9237 1.37907 0
M  V30 4326 H 395.424 -3.70306 -0.439056 0
M  V30 4327 N 397.609 -0.515225 -1.4894 0
M  V30 4328 C 398.834 0.022727 -2.07388 0
M  V30 4329 C 399.259 1.2876 -1.37122 0
M  V30 4330 O 398.617 1.76067 -0.432431 0
M  V30 4331 C 398.665 0.244869 -3.59768 0
M  V30 4332 O 397.769 1.31667 -3.90817 0
M  V30 4333 H 397.11 -0.0325506 -0.663202 0
M  V30 4334 H 399.64 -0.718918 -1.91553 0
M  V30 4335 H 399.65 0.47205 -4.0526 0
M  V30 4336 H 398.325 -0.679194 -4.10317 0
M  V30 4337 H 396.902 1.07331 -3.5712 0
M  V30 4338 N 399.087 1.5561 -0.249682 0
M  V30 4339 C 400.315 2.03411 0.378352 0
M  V30 4340 C 400.73 1.12886 1.51335 0
M  V30 4341 O 400.087 0.143833 1.81932 0
M  V30 4342 C 400.138 3.50537 0.88351 0
M  V30 4343 O 399.859 4.37614 -0.20626 0
M  V30 4344 C 401.36 4.14113 1.58195 0
M  V30 4345 H 398.58 0.664994 0.08958 0
M  V30 4346 H 401.124 2.01044 -0.374357 0
M  V30 4347 H 399.279 3.5343 1.58639 0
M  V30 4348 H 399.693 5.24199 0.177782 0
M  V30 4349 H 401.167 5.18741 1.8871 0
M  V30 4350 H 401.644 3.60767 2.50487 0
M  V30 4351 H 402.25 4.15151 0.923573 0
M  V30 4352 N 400.565 -0.0233959 1.57583 0
M  V30 4353 C 401.512 -1.02224 2.06927 0
M  V30 4354 C 402.482 -1.35575 0.959617 0
M  V30 4355 O 403.667 -1.45815 1.23055 0
M  V30 4356 C 400.807 -2.31636 2.5581 0
M  V30 4357 C 399.92 -2.04394 3.80588 0
M  V30 4358 C 399.055 -3.27717 4.18061 0
M  V30 4359 C 398.094 -2.96056 5.3574 0
M  V30 4360 N 397.231 -4.11847 5.68618 0
M  V30 4361 H 402.071 -0.594504 2.9201 0
M  V30 4362 H 399.608 -0.281921 1.44373 0
M  V30 4363 H 401.566 -3.07258 2.82221 0
M  V30 4364 H 400.196 -2.72122 1.73636 0
M  V30 4365 H 399.248 -1.19244 3.61227 0
M  V30 4366 H 400.56 -1.77042 4.66323 0
M  V30 4367 H 399.714 -4.11702 4.4563 0
M  V30 4368 H 398.453 -3.58188 3.30988 0
M  V30 4369 H 397.458 -2.10474 5.07918 0
M  V30 4370 H 398.683 -2.66857 6.24471 0
M  V30 4371 H 396.629 -4.42258 4.84504 0
M  V30 4372 H 396.546 -3.87938 6.48876 0
M  V30 4373 H 397.814 -4.96689 6.00766 0
M  V30 4374 N 402.043 -1.548 -0.295768 0
M  V30 4375 C 403.268 -1.78653 -1.05346 0
M  V30 4376 C 403.693 -0.546894 -1.79974 0
M  V30 4377 O 403.051 0.502763 -1.7419 0
M  V30 4378 C 403.099 -2.99679 -2.00561 0
M  V30 4379 O 402.203 -2.7317 -3.08953 0
M  V30 4380 H 401.544 -0.59116 -0.302367 0
M  V30 4381 H 404.074 -2.01895 -0.331598 0
M  V30 4382 H 404.084 -3.27793 -2.42932 0
M  V30 4383 H 402.759 -3.89562 -1.4565 0
M  V30 4384 H 401.336 -2.56089 -2.71059 0
M  V30 4385 N 403.521 0.559213 -1.47345 0
M  V30 4386 C 404.468 1.66645 -1.59682 0
M  V30 4387 C 405.438 1.60168 -0.43994 0
M  V30 4388 O 406.623 1.79031 -0.659736 0
M  V30 4389 C 403.763 3.04969 -1.61518 0
M  V30 4390 C 402.876 3.21897 -2.88108 0
M  V30 4391 C 402.011 4.50608 -2.81294 0
M  V30 4392 C 401.05 4.60961 -4.02717 0
M  V30 4393 N 400.187 5.81024 -3.94151 0
M  V30 4394 H 405.027 1.55439 -2.54249 0
M  V30 4395 H 402.564 0.757219 -1.26113 0
M  V30 4396 H 404.522 3.85064 -1.60566 0
M  V30 4397 H 403.152 3.15015 -0.704645 0
M  V30 4398 H 402.204 2.35248 -2.98936 0
M  V30 4399 H 403.516 3.25412 -3.78032 0
M  V30 4400 H 402.67 5.3896 -2.7858 0
M  V30 4401 H 401.409 4.49568 -1.89049 0
M  V30 4402 H 400.414 3.71021 -4.05738 0
M  V30 4403 H 401.639 4.63761 -4.96087 0
M  V30 4404 H 399.585 5.80938 -3.04708 0
M  V30 4405 H 399.502 5.85909 -4.77752 0
M  V30 4406 H 400.77 6.71744 -3.9545 0
M  V30 4407 N 404.999 1.35443 0.805782 0
M  V30 4408 C 406.276 1.19325 1.54987 0
M  V30 4409 C 406.656 -0.227294 2.09873 0
M  V30 4410 O 406.004 -1.2309 1.92512 0
M  V30 4411 C 406.214 2.26196 2.65775 0
M  V30 4412 C 407.562 2.62043 3.34094 0
M  V30 4413 O 408.586 2.25115 2.76046 0
M  V30 4414 O 407.445 3.25542 4.38958 0
M  V30 4415 H 404.539 0.463623 0.684823 0
M  V30 4416 H 407.085 1.47127 0.845674 0
M  V30 4417 H 405.857 3.21471 2.23096 0
M  V30 4418 H 405.48 1.99667 3.43829 0
M  V30 4419 N 406.477 -1.02803 1.19454 0
M  V30 4420 C 407.407 -2.12999 0.956758 0
M  V30 4421 C 408.388 -1.69743 -0.110188 0
M  V30 4422 O 409.573 -1.94148 0.0450038 0
M  V30 4423 C 406.703 -3.43746 0.495553 0
M  V30 4424 C 405.657 -4.00688 1.50443 0
M  V30 4425 C 404.983 -5.27067 0.900275 0
M  V30 4426 C 406.283 -4.35397 2.8849 0
M  V30 4427 H 407.977 -2.33148 1.87836 0
M  V30 4428 H 405.523 -1.12045 0.904539 0
M  V30 4429 H 407.476 -4.2021 0.316493 0
M  V30 4430 H 406.2 -3.23321 -0.461646 0
M  V30 4431 H 404.859 -3.2632 1.67065 0
M  V30 4432 H 404.507 -5.02959 -0.064503 0
M  V30 4433 H 404.207 -5.66127 1.57397 0
M  V30 4434 H 405.731 -6.06196 0.73203 0
M  V30 4435 H 407.145 -5.02795 2.75446 0
M  V30 4436 H 405.542 -4.85541 3.52661 0
M  V30 4437 H 406.612 -3.44662 3.41081 0
M  V30 4438 N 407.956 -0.998596 -1.21925 0
M  V30 4439 C 409.204 -0.676325 -1.90448 0
M  V30 4440 C 409.525 0.794719 -1.78071 0
M  V30 4441 O 408.795 1.5701 -1.17152 0
M  V30 4442 H 407.375 -0.247165 -0.704925 0
M  V30 4443 H 410.037 -1.26633 -1.48156 0
M  V30 4444 H 409.133 -0.943858 -2.97486 0
M  V30 4445 N 409.434 1.37368 -0.772513 0
M  V30 4446 C 410.662 2.03942 -0.348588 0
M  V30 4447 C 411.077 1.58264 1.02947 0
M  V30 4448 O 410.434 0.764246 1.65727 0
M  V30 4449 C 410.485 3.5946 -0.38351 0
M  V30 4450 O 410.206 4.03468 -1.70721 0
M  V30 4451 C 411.707 4.4327 0.0519152 0
M  V30 4452 H 408.927 0.654931 -0.145966 0
M  V30 4453 H 411.471 1.75686 -1.04665 0
M  V30 4454 H 409.626 3.86486 0.265978 0
M  V30 4455 H 410.04 4.97991 -1.64636 0
M  V30 4456 H 411.514 5.51995 -0.0236733 0
M  V30 4457 H 411.991 4.2514 1.10238 0
M  V30 4458 H 412.597 4.21471 -0.569415 0
M  V30 4459 N 410.912 0.523116 1.48665 0
M  V30 4460 C 412.158 -0.0134963 2.02796 0
M  V30 4461 C 412.491 -1.34582 1.40004 0
M  V30 4462 O 411.766 -1.86756 0.543381 0
M  V30 4463 C 412.049 -0.14276 3.59817 0
M  V30 4464 C 411.902 1.21425 4.331 0
M  V30 4465 C 413.221 -0.872856 4.31357 0
M  V30 4466 H 410.34 -0.00343074 0.736992 0
M  V30 4467 H 412.982 0.678816 1.7746 0
M  V30 4468 H 411.132 -0.732401 3.81534 0
M  V30 4469 H 412.804 1.84447 4.2282 0
M  V30 4470 H 411.047 1.79791 3.94788 0
M  V30 4471 H 411.718 1.07687 5.41394 0
M  V30 4472 H 414.194 -0.372555 4.14429 0
M  V30 4473 H 413.07 -0.932185 5.40927 0
M  V30 4474 H 413.331 -1.92161 3.98154 0
M  V30 4475 N 412.39 -1.55475 0.257931 0
M  V30 4476 C 413.3 -2.2549 -0.647425 0
M  V30 4477 C 414.316 -1.2748 -1.18427 0
M  V30 4478 O 415.492 -1.6038 -1.2182 0
M  V30 4479 C 412.557 -2.94916 -1.82278 0
M  V30 4480 C 411.618 -4.08363 -1.32432 0
M  V30 4481 C 410.851 -4.74469 -2.44366 0
M  V30 4482 O 411.074 -4.39701 -3.63344 0
M  V30 4483 O 410.008 -5.62763 -2.13497 0
M  V30 4484 H 413.834 -3.03593 -0.0807707 0
M  V30 4485 H 411.419 -1.49377 0.0259962 0
M  V30 4486 H 413.301 -3.38606 -2.50846 0
M  V30 4487 H 411.976 -2.19744 -2.37685 0
M  V30 4488 H 410.883 -3.69166 -0.605605 0
M  V30 4489 H 412.216 -4.85385 -0.816211 0
M  V30 4490 N 413.868 0.0150385 -1.57593 0
M  V30 4491 C 415.145 0.7392 -1.81094 0
M  V30 4492 C 415.525 1.92817 -0.859344 0
M  V30 4493 O 414.873 2.28301 0.095362 0
M  V30 4494 C 415.083 1.15907 -3.29191 0
M  V30 4495 C 416.431 1.56918 -3.9454 0
M  V30 4496 O 417.455 1.25328 -3.33424 0
M  V30 4497 O 416.314 2.15604 -5.02173 0
M  V30 4498 H 413.408 0.358631 -0.745193 0
M  V30 4499 H 415.954 -0.00926156 -1.69697 0
M  V30 4500 H 414.726 0.310921 -3.90063 0
M  V30 4501 H 414.349 1.96711 -3.45529 0
M  V30 4502 N 415.346 1.54954 0.287554 0
M  V30 4503 C 416.571 1.79209 1.04397 0
M  V30 4504 C 416.996 0.556431 1.79682 0
M  V30 4505 O 416.354 -0.493518 1.74454 0
M  V30 4506 C 416.402 3.00739 1.98969 0
M  V30 4507 O 415.506 2.74805 3.075 0
M  V30 4508 H 414.847 0.592755 0.299227 0
M  V30 4509 H 417.377 2.02068 0.320886 0
M  V30 4510 H 417.387 3.29077 2.4119 0
M  V30 4511 H 416.062 3.90329 1.43582 0
M  V30 4512 H 414.639 2.57523 2.69697 0
M  V30 4513 N 416.824 -0.551391 1.4764 0
M  V30 4514 C 418.073 -1.30467 1.53822 0
M  V30 4515 C 418.386 -1.94495 0.207661 0
M  V30 4516 O 419.592 -2.71099 0.147533 0
M  V30 4517 C 418.048 -2.36616 2.71184 0
M  V30 4518 C 417.656 -1.78754 4.10793 0
M  V30 4519 C 419.4 -3.13088 2.86663 0
M  V30 4520 C 417.307 -2.82717 5.19447 0
M  V30 4521 H 416.237 -0.490584 0.572576 0
M  V30 4522 H 418.888 -0.58494 1.73927 0
M  V30 4523 H 417.27 -3.11529 2.4447 0
M  V30 4524 H 418.444 -1.10173 4.47435 0
M  V30 4525 H 416.759 -1.14846 4.00249 0
M  V30 4526 H 419.356 -3.90736 3.65007 0
M  V30 4527 H 419.699 -3.67635 1.95321 0
M  V30 4528 H 420.232 -2.45288 3.13175 0
M  V30 4529 H 416.971 -2.33018 6.12685 0
M  V30 4530 H 416.491 -3.4969 4.87316 0
M  V30 4531 H 418.17 -3.46102 5.46646 0
M  V30 4532 N 418.302 -1.35869 -0.798587 0
M  V30 4533 C 419.579 -1.20145 -1.54352 0
M  V30 4534 C 419.959 0.216161 -2.0999 0
M  V30 4535 O 419.307 1.22068 -1.93162 0
M  V30 4536 C 419.517 -2.27602 -2.64572 0
M  V30 4537 C 420.865 -2.63811 -3.32699 0
M  V30 4538 O 421.889 -2.26576 -2.74849 0
M  V30 4539 O 420.748 -3.27866 -4.37226 0
M  V30 4540 H 417.842 -0.467248 -0.682355 0
M  V30 4541 H 420.388 -1.47574 -0.837859 0
M  V30 4542 H 419.16 -3.2265 -2.21388 0
M  V30 4543 H 418.783 -2.01488 -3.42766 0
M  V30 4544 N 419.78 1.02168 -1.19998 0
M  V30 4545 C 421.005 1.79833 -1.03319 0
M  V30 4546 C 421.43 1.83504 0.413281 0
M  V30 4547 O 420.788 1.26635 1.29743 0
M  V30 4548 C 420.836 3.22396 -1.61533 0
M  V30 4549 O 419.94 4.03555 -0.849519 0
M  V30 4550 H 419.281 0.554872 -0.364709 0
M  V30 4551 H 421.811 1.28542 -1.59179 0
M  V30 4552 H 421.821 3.73124 -1.65054 0
M  V30 4553 H 420.496 3.19039 -2.66809 0
M  V30 4554 H 419.073 3.62169 -0.888129 0
M  V30 4555 N 421.258 1.00505 1.21394 0
M  V30 4556 C 422.506 0.686415 1.90086 0
M  V30 4557 C 422.827 -0.785264 1.7849 0
M  V30 4558 O 422.097 -1.56387 1.17983 0
M  V30 4559 H 420.677 0.2509 0.703604 0
M  V30 4560 H 423.339 1.27417 1.47482 0
M  V30 4561 H 422.435 0.959621 2.96981 0
M  V30 4562 N 422.737 -1.36956 0.779787 0
M  V30 4563 C 423.687 -2.27539 0.144892 0
M  V30 4564 C 424.671 -1.46493 -0.665488 0
M  V30 4565 O 425.863 -1.68968 -0.527141 0
M  V30 4566 C 422.992 -3.35512 -0.727082 0
M  V30 4567 C 422.078 -4.24001 0.0915642 0
M  V30 4568 N 422.469 -4.92757 1.14125 0
M  V30 4569 C 420.767 -4.45807 -0.131141 0
M  V30 4570 C 421.468 -5.58138 1.6388 0
M  V30 4571 N 420.444 -5.35241 0.94962 0
M  V30 4572 H 424.246 -2.78176 0.948446 0
M  V30 4573 H 421.76 -1.50169 0.618315 0
M  V30 4574 H 423.757 -3.99324 -1.19776 0
M  V30 4575 H 422.417 -2.86431 -1.52929 0
M  V30 4576 H 423.428 -4.94984 1.52353 0
M  V30 4577 H 420.105 -4.07582 -0.904621 0
M  V30 4578 H 421.495 -6.23071 2.51461 0
M  V30 4579 N 424.215 -0.530993 -1.48385 0
M  V30 4580 C 425.178 0.220497 -2.28137 0
M  V30 4581 C 426.178 0.866851 -1.35434 0
M  V30 4582 O 427.368 0.726746 -1.58316 0
M  V30 4583 C 424.5 1.31921 -3.1434 0
M  V30 4584 H 425.693 -0.479714 -2.96038 0
M  V30 4585 H 423.246 -0.286968 -1.53643 0
M  V30 4586 H 423.981 2.05264 -2.51072 0
M  V30 4587 H 423.766 0.86085 -3.82533 0
M  V30 4588 H 425.256 1.84776 -3.74497 0
M  V30 4589 N 425.693 1.55336 -0.266172 0
M  V30 4590 C 426.921 2.03801 0.356756 0
M  V30 4591 C 427.336 1.14485 1.50129 0
M  V30 4592 O 426.693 0.163121 1.8177 0
M  V30 4593 C 426.744 3.51455 0.846281 0
M  V30 4594 O 426.465 4.37371 -0.252663 0
M  V30 4595 C 427.966 4.15767 1.53794 0
M  V30 4596 H 425.186 0.665906 0.0825218 0
M  V30 4597 H 427.73 2.00636 -0.39566 0
M  V30 4598 H 425.885 3.55092 1.54881 0
M  V30 4599 H 426.299 5.24358 0.122173 0
M  V30 4600 H 427.773 5.20714 1.83198 0
M  V30 4601 H 428.25 3.63404 2.46646 0
M  V30 4602 H 428.856 4.16107 0.879488 0
M  V30 4603 N 427.171 -0.0066808 1.57599 0
M  V30 4604 C 428.42 -0.692078 1.89455 0
M  V30 4605 C 428.733 -1.75306 0.867586 0
M  V30 4606 O 429.939 -2.49262 1.07614 0
M  V30 4607 C 428.395 -1.2821 3.36289 0
M  V30 4608 C 428.003 -0.256291 4.47266 0
M  V30 4609 C 429.747 -1.94608 3.77264 0
M  V30 4610 C 427.654 -0.855927 5.85173 0
M  V30 4611 H 426.584 -0.262252 0.706923 0
M  V30 4612 H 429.235 0.052769 1.83424 0
M  V30 4613 H 427.617 -2.0774 3.37135 0
M  V30 4614 H 428.791 0.513923 4.57925 0
M  V30 4615 H 427.106 0.306862 4.15268 0
M  V30 4616 H 429.703 -2.40364 4.77629 0
M  V30 4617 H 430.046 -2.77382 3.10427 0
M  V30 4618 H 430.579 -1.21822 3.78688 0
M  V30 4619 H 427.318 -0.0671161 6.55466 0
M  V30 4620 H 426.838 -1.59546 5.78191 0
M  V30 4621 H 428.517 -1.35658 6.32618 0
M  V30 4622 N 428.649 -1.55105 -0.279332 0
M  V30 4623 C 429.874 -1.7976 -1.03446 0
M  V30 4624 C 430.299 -0.565952 -1.79384 0
M  V30 4625 O 429.657 0.484259 -1.74713 0
M  V30 4626 C 429.705 -3.0179 -1.97371 0
M  V30 4627 O 428.809 -2.76432 -3.06038 0
M  V30 4628 H 428.15 -0.594334 -0.29608 0
M  V30 4629 H 430.68 -2.02235 -0.310165 0
M  V30 4630 H 430.69 -3.30351 -2.39441 0
M  V30 4631 H 429.365 -3.91085 -1.4151 0
M  V30 4632 H 427.942 -2.58949 -2.68328 0
M  V30 4633 N 430.127 0.543554 -1.4793 0
M  V30 4634 C 431.355 1.32516 -1.58894 0
M  V30 4635 C 431.77 1.87215 -0.244131 0
M  V30 4636 O 431.127 1.65709 0.764652 0
M  V30 4637 C 431.178 2.48554 -2.62494 0
M  V30 4638 O 430.899 1.96112 -3.91755 0
M  V30 4639 C 432.4 3.40572 -2.8377 0
M  V30 4640 H 429.62 0.403472 -0.536145 0
M  V30 4641 H 432.164 0.657106 -1.93655 0
M  V30 4642 H 430.319 3.1127 -2.30629 0
M  V30 4643 H 430.733 2.71967 -4.4848 0
M  V30 4644 H 432.207 4.18375 -3.60093 0
M  V30 4645 H 432.684 3.94965 -1.92092 0
M  V30 4646 H 433.29 2.8366 -3.16887 0
M  V30 4647 N 431.605 1.3629 0.791371 0
M  V30 4648 C 432.568 1.30309 1.88553 0
M  V30 4649 C 433.568 0.211204 1.59407 0
M  V30 4650 O 434.758 0.465865 1.67855 0
M  V30 4651 C 431.89 1.01956 3.25297 0
M  V30 4652 H 433.083 2.27614 1.95273 0
M  V30 4653 H 430.636 1.21035 0.988953 0
M  V30 4654 H 431.371 0.050998 3.2426 0
M  V30 4655 H 431.156 1.80968 3.4784 0
M  V30 4656 H 432.646 1.0037 4.05359 0
M  V30 4657 N 433.083 -1.0153 1.20538 0
M  V30 4658 C 434.332 -1.74558 1.01057 0
M  V30 4659 C 434.645 -1.90168 -0.457756 0
M  V30 4660 O 435.851 -2.60301 -0.771722 0
M  V30 4661 C 434.307 -3.13963 1.75941 0
M  V30 4662 C 433.915 -3.06361 3.26875 0
M  V30 4663 C 435.659 -3.91191 1.64832 0
M  V30 4664 C 433.566 -4.40782 3.94291 0
M  V30 4665 H 432.496 -0.654417 0.374505 0
M  V30 4666 H 435.147 -1.13521 1.44171 0
M  V30 4667 H 433.529 -3.75549 1.25614 0
M  V30 4668 H 434.703 -2.54074 3.84425 0
M  V30 4669 H 433.018 -2.42625 3.38411 0
M  V30 4670 H 435.615 -4.90644 2.12539 0
M  V30 4671 H 435.958 -4.11884 0.604745 0
M  V30 4672 H 436.491 -3.36236 2.12579 0
M  V30 4673 H 433.23 -4.25292 4.98805 0
M  V30 4674 H 432.75 -4.9307 3.41529 0
M  V30 4675 H 434.429 -5.09621 3.98617 0
M  V30 4676 N 434.561 -1.01147 -1.20859 0
M  V30 4677 C 435.789 -0.716911 -1.94082 0
M  V30 4678 C 436.204 0.721568 -1.74467 0
M  V30 4679 O 435.561 1.48889 -1.05539 0
M  V30 4680 C 435.612 -1.03662 -3.46318 0
M  V30 4681 O 435.333 -2.4186 -3.65288 0
M  V30 4682 C 436.834 -0.762386 -4.36695 0
M  V30 4683 H 434.054 -0.26367 -0.617024 0
M  V30 4684 H 436.598 -1.35127 -1.53496 0
M  V30 4685 H 434.753 -0.447757 -3.84804 0
M  V30 4686 H 435.167 -2.53224 -4.59323 0
M  V30 4687 H 436.641 -1.03621 -5.42187 0
M  V30 4688 H 437.118 0.303514 -4.3815 0
M  V30 4689 H 437.724 -1.33316 -4.03865 0
M  V30 4690 N 436.039 1.36541 -0.78704 0
M  V30 4691 C 437.002 2.28413 -0.189778 0
M  V30 4692 C 438.002 1.48719 0.611499 0
M  V30 4693 O 439.192 1.68737 0.432842 0
M  V30 4694 C 436.324 3.32824 0.737638 0
M  V30 4695 H 437.517 2.82743 -0.999831 0
M  V30 4696 H 435.07 1.46065 -0.556298 0
M  V30 4697 H 435.805 2.83646 1.57212 0
M  V30 4698 H 435.59 3.91752 0.165044 0
M  V30 4699 H 437.08 4.0144 1.15047 0
M  V30 4700 N 437.518 0.538854 1.48102 0
M  V30 4701 C 438.743 0.0102694 2.07397 0
M  V30 4702 C 439.168 -1.26562 1.39153 0
M  V30 4703 O 438.526 -1.75357 0.460387 0
M  V30 4704 C 438.574 -0.187602 3.60112 0
M  V30 4705 O 437.678 -1.25432 3.92862 0
M  V30 4706 H 437.019 0.0430975 0.6626 0
M  V30 4707 H 439.549 0.749301 1.90385 0
M  V30 4708 H 439.559 -0.407517 4.0596 0
M  V30 4709 H 438.234 0.744386 4.09184 0
M  V30 4710 H 436.811 -1.01636 3.58782 0
M  V30 4711 N 438.996 -1.55193 0.274407 0
M  V30 4712 C 440.221 -2.04446 -0.348824 0
M  V30 4713 C 440.646 -1.15149 -1.48735 0
M  V30 4714 O 440.004 -0.149952 -1.80679 0
M  V30 4715 C 440.052 -3.51431 -0.808009 0
M  V30 4716 O 439.156 -3.65225 -1.91531 0
M  V30 4717 H 438.497 -0.66006 -0.0722276 0
M  V30 4718 H 441.027 -2.00481 0.408498 0
M  V30 4719 H 441.037 -3.92781 -1.10395 0
M  V30 4720 H 439.712 -4.15892 0.0249865 0
M  V30 4721 H 438.289 -3.35778 -1.62196 0
M  V30 4722 N 440.474 -0.00167713 -1.576 0
M  V30 4723 C 441.699 0.69739 -1.95323 0
M  V30 4724 C 442.124 1.6642 -0.876706 0
M  V30 4725 O 441.482 1.80548 0.165007 0
M  V30 4726 C 441.53 1.40403 -3.32144 0
M  V30 4727 O 440.634 2.5185 -3.26566 0
M  V30 4728 H 439.975 0.185373 -0.637599 0
M  V30 4729 H 442.505 -0.0553665 -2.04525 0
M  V30 4730 H 442.515 1.76707 -3.67748 0
M  V30 4731 H 441.19 0.695167 -4.10049 0
M  V30 4732 H 439.767 2.17861 -3.0264 0
M  V30 4733 N 441.952 1.55251 0.271103 0
M  V30 4734 C 443.18 1.79974 1.02064 0
M  V30 4735 C 443.595 0.574003 1.79863 0
M  V30 4736 O 442.952 -0.456962 1.76686 0
M  V30 4737 C 443.003 3.02603 1.97772 0
M  V30 4738 O 442.724 4.20443 1.23124 0
M  V30 4739 C 444.225 3.39944 2.84522 0
M  V30 4740 H 441.445 0.599489 0.301419 0
M  V30 4741 H 443.989 2.02268 0.301313 0
M  V30 4742 H 442.144 2.8243 2.65165 0
M  V30 4743 H 442.558 4.89783 1.87651 0
M  V30 4744 H 444.032 4.28915 3.47471 0
M  V30 4745 H 444.509 2.59432 3.54389 0
M  V30 4746 H 445.115 3.62383 2.22618 0
M  V30 4747 N 443.43 -0.535701 1.48216 0
M  V30 4748 C 444.655 -1.32149 1.59848 0
M  V30 4749 C 445.08 -1.86338 0.256842 0
M  V30 4750 O 444.438 -1.64107 -0.770632 0
M  V30 4751 C 444.486 -2.45224 2.64381 0
M  V30 4752 O 443.59 -3.48093 2.21144 0
M  V30 4753 H 442.931 -0.391634 0.536208 0
M  V30 4754 H 445.461 -0.645202 1.94161 0
M  V30 4755 H 445.471 -2.91491 2.85476 0
M  V30 4756 H 444.146 -2.05143 3.61786 0
M  V30 4757 H 442.723 -3.07984 2.10239 0
M  V30 4758 N 444.908 -1.36708 -0.784132 0
M  V30 4759 C 446.157 -1.30559 -1.53744 0
M  V30 4760 C 446.47 0.111374 -1.95283 0
M  V30 4761 O 447.676 0.29527 -2.6989 0
M  V30 4762 C 446.132 -2.29098 -2.77565 0
M  V30 4763 C 445.74 -3.76258 -2.43174 0
M  V30 4764 C 447.484 -2.31936 -3.55536 0
M  V30 4765 C 445.391 -4.6656 -3.63422 0
M  V30 4766 H 444.321 -0.48518 -0.577162 0
M  V30 4767 H 446.972 -1.62101 -0.859981 0
M  V30 4768 H 445.354 -1.90557 -3.47137 0
M  V30 4769 H 446.528 -4.23565 -1.81465 0
M  V30 4770 H 444.843 -3.76246 -1.78403 0
M  V30 4771 H 447.44 -2.9661 -4.44889 0
M  V30 4772 H 447.783 -1.3294 -3.94503 0
M  V30 4773 H 448.316 -2.6912 -2.92949 0
M  V30 4774 H 445.055 -5.66638 -3.29547 0
M  V30 4775 H 444.575 -4.23966 -4.24279 0
M  V30 4776 H 446.254 -4.8309 -4.30387 0
M  V30 4777 N 446.386 1.0089 -1.21074 0
M  V30 4778 C 447.611 1.78727 -1.05221 0
M  V30 4779 C 448.036 1.83932 0.393795 0
M  V30 4780 O 447.394 1.28004 1.28393 0
M  V30 4781 C 447.442 3.20665 -1.64944 0
M  V30 4782 O 446.546 4.02632 -0.892273 0
M  V30 4783 H 445.887 0.550973 -0.370574 0
M  V30 4784 H 448.417 1.26847 -1.60534 0
M  V30 4785 H 448.427 3.71352 -1.69002 0
M  V30 4786 H 447.102 3.16191 -2.70177 0
M  V30 4787 H 445.679 3.61207 -0.926492 0
M  V30 4788 N 447.864 1.01787 1.20321 0
M  V30 4789 C 449.112 0.706538 1.89347 0
M  V30 4790 C 449.433 -0.766289 1.79313 0
M  V30 4791 O 448.703 -1.55126 1.19635 0
M  V30 4792 H 447.283 0.258348 0.700903 0
M  V30 4793 H 449.945 1.28974 1.46122 0
M  V30 4794 H 449.041 0.991066 2.95946 0
M  V30 4795 N 449.342 -1.36122 0.79427 0
M  V30 4796 C 450.567 -2.03891 0.379871 0
M  V30 4797 C 450.992 -1.59488 -0.997251 0
M  V30 4798 O 450.35 -0.765652 -1.64339 0
M  V30 4799 C 450.398 -3.57687 0.457442 0
M  V30 4800 O 449.502 -4.08931 -0.5338 0
M  V30 4801 H 448.843 -0.6443 0.160541 0
M  V30 4802 H 451.373 -1.73976 1.07673 0
M  V30 4803 H 451.383 -4.06721 0.322792 0
M  V30 4804 H 450.058 -3.89357 1.46199 0
M  V30 4805 H 448.635 -3.71154 -0.360409 0
M  V30 4806 N 450.82 -0.546701 -1.47814 0
M  V30 4807 C 451.75 0.195317 -2.32682 0
M  V30 4808 C 452.731 0.918981 -1.43139 0
M  V30 4809 O 453.916 0.901501 -1.72008 0
M  V30 4810 C 451.046 1.23237 -3.247 0
M  V30 4811 C 450 0.625818 -4.234 0
M  V30 4812 C 449.326 1.76674 -5.04669 0
M  V30 4813 C 450.626 -0.413515 -5.2066 0
M  V30 4814 H 452.32 -0.513184 -2.94969 0
M  V30 4815 H 449.866 -0.248241 -1.41844 0
M  V30 4816 H 451.819 1.75955 -3.82907 0
M  V30 4817 H 450.543 1.97067 -2.60446 0
M  V30 4818 H 449.202 0.120023 -3.66403 0
M  V30 4819 H 448.85 2.49383 -4.36826 0
M  V30 4820 H 448.55 1.36673 -5.71484 0
M  V30 4821 H 450.074 2.29738 -5.65732 0
M  V30 4822 H 451.488 0.0272042 -5.73294 0
M  V30 4823 H 449.885 -0.731825 -5.95621 0
M  V30 4824 H 450.955 -1.31325 -4.66778 0
M  V30 4825 N 452.299 1.55045 -0.282633 0
M  V30 4826 C 453.546 1.9976 0.33199 0
M  V30 4827 C 453.874 1.17105 1.55295 0
M  V30 4828 O 453.129 0.230599 1.94337 0
M  V30 4829 C 453.428 3.49422 0.750938 0
M  V30 4830 C 453.094 4.4941 -0.366228 0
M  V30 4831 C 451.756 4.76471 -0.672964 0
M  V30 4832 C 454.108 5.09054 -1.11864 0
M  V30 4833 C 451.436 5.60442 -1.73556 0
M  V30 4834 C 453.788 5.9418 -2.17102 0
M  V30 4835 C 452.452 6.19558 -2.48402 0
M  V30 4836 H 451.722 0.730974 0.121484 0
M  V30 4837 H 454.369 1.8732 -0.39791 0
M  V30 4838 H 452.674 3.59377 1.56063 0
M  V30 4839 H 454.371 3.81432 1.23736 0
M  V30 4840 H 450.961 4.2844 -0.117041 0
M  V30 4841 H 455.145 4.88165 -0.894925 0
M  V30 4842 H 450.401 5.78349 -1.983 0
M  V30 4843 H 454.575 6.39427 -2.75873 0
M  V30 4844 H 452.202 6.84417 -3.30874 0
M  V30 4845 N 453.777 0.010035 1.57597 0
M  V30 4846 C 455.054 -0.710296 1.82248 0
M  V30 4847 C 455.434 -1.91426 0.889911 0
M  V30 4848 O 454.782 -2.28424 -0.0590292 0
M  V30 4849 C 454.992 -1.10655 3.30993 0
M  V30 4850 C 456.34 -1.50621 3.96987 0
M  V30 4851 O 457.364 -1.20007 3.35375 0
M  V30 4852 O 456.223 -2.07587 5.05539 0
M  V30 4853 H 453.317 -0.34673 0.750804 0
M  V30 4854 H 455.863 0.0362578 1.69661 0
M  V30 4855 H 454.635 -0.248826 3.90508 0
M  V30 4856 H 454.258 -1.91189 3.48615 0
M  V30 4857 N 455.255 -1.55392 -0.262866 0
M  V30 4858 C 456.202 -1.88966 -1.32516 0
M  V30 4859 C 457.172 -0.742187 -1.48596 0
M  V30 4860 O 458.357 -0.99439 -1.62839 0
M  V30 4861 C 455.497 -2.17592 -2.67858 0
M  V30 4862 C 454.61 -3.45061 -2.59917 0
M  V30 4863 C 453.745 -3.63336 -3.87505 0
M  V30 4864 C 452.784 -4.84462 -3.74116 0
M  V30 4865 N 451.921 -4.99342 -4.93561 0
M  V30 4866 H 456.761 -2.79566 -1.03184 0
M  V30 4867 H 454.298 -1.38404 -0.498285 0
M  V30 4868 H 456.256 -2.3219 -3.46617 0
M  V30 4869 H 454.886 -1.30215 -2.95371 0
M  V30 4870 H 453.938 -3.38881 -1.72812 0
M  V30 4871 H 455.25 -4.3396 -2.45926 0
M  V30 4872 H 454.404 -3.77807 -4.74707 0
M  V30 4873 H 453.143 -2.72641 -4.04374 0
M  V30 4874 H 452.148 -4.69985 -2.85297 0
M  V30 4875 H 453.373 -5.76603 -3.58757 0
M  V30 4876 H 451.319 -4.1158 -5.10821 0
M  V30 4877 H 451.236 -5.82303 -4.82141 0
M  V30 4878 H 452.504 -5.18208 -5.82306 0
M  V30 4879 N 456.733 0.527833 -1.48498 0
M  V30 4880 C 458.149 0.856571 -1.34666 0
M  V30 4881 C 458.349 1.98271 -0.35931 0
M  V30 4882 O 457.405 2.51551 0.218703 0
M  V30 4883 C 458.718 1.22207 -2.74747 0
M  V30 4884 C 460.266 1.33183 -2.83251 0
M  V30 4885 C 460.741 1.73075 -4.24039 0
M  V30 4886 N 462.232 1.80174 -4.26722 0
M  V30 4887 C 462.967 2.1243 -5.32598 0
M  V30 4888 N 462.463 2.43096 -6.4875 0
M  V30 4889 N 464.256 2.13454 -5.19994 0
M  V30 4890 H 456.407 -0.215174 -2.11307 0
M  V30 4891 H 458.67 -0.0336281 -0.947403 0
M  V30 4892 H 458.376 0.468195 -3.4857 0
M  V30 4893 H 458.25 2.17173 -3.08409 0
M  V30 4894 H 460.637 2.07647 -2.09683 0
M  V30 4895 H 460.718 0.363333 -2.53206 0
M  V30 4896 H 460.362 0.991712 -4.98124 0
M  V30 4897 H 460.292 2.70979 -4.51529 0
M  V30 4898 H 462.783 1.58744 -3.42942 0
M  V30 4899 H 463.096 2.6682 -7.25277 0
M  V30 4900 H 461.441 2.40611 -6.52021 0
M  V30 4901 H 464.632 1.88956 -4.28268 0
M  V30 4902 H 464.805 2.38261 -6.02608 0
M  V30 4903 N 458.211 1.37122 0.776871 0
M  V30 4904 C 459.627 1.1781 1.07671 0
M  V30 4905 C 459.827 0.0107454 2.01497 0
M  V30 4906 O 458.883 -0.650756 2.4397 0
M  V30 4907 C 460.196 2.49451 1.67913 0
M  V30 4908 C 461.744 2.55927 1.80195 0
M  V30 4909 C 462.219 3.87686 2.43851 0
M  V30 4910 N 463.71 3.891 2.51307 0
M  V30 4911 C 464.445 4.87797 3.014 0
M  V30 4912 N 463.941 5.96888 3.51705 0
M  V30 4913 N 465.734 4.75205 3.00227 0
M  V30 4914 H 457.885 2.11843 0.153778 0
M  V30 4915 H 460.148 0.938927 0.130844 0
M  V30 4916 H 459.854 3.35207 1.06439 0
M  V30 4917 H 459.728 2.66169 2.67271 0
M  V30 4918 H 462.115 1.70582 2.40803 0
M  V30 4919 H 462.196 2.43097 0.796069 0
M  V30 4920 H 461.84 4.73444 1.83884 0
M  V30 4921 H 461.77 3.97817 3.45035 0
M  V30 4922 H 464.261 3.10293 2.157 0
M  V30 4923 H 464.574 6.68155 3.88316 0
M  V30 4924 H 462.919 6.0054 3.49824 0
M  V30 4925 H 466.11 3.89103 2.60224 0
M  V30 4926 H 466.283 5.52279 3.38957 0
M  V30 4927 N 459.689 -1.00246 1.21608 0
M  V30 4928 C 460.619 -2.10921 1.00172 0
M  V30 4929 C 461.6 -1.69938 -0.0741587 0
M  V30 4930 O 462.785 -1.94009 0.0861753 0
M  V30 4931 C 459.915 -3.42618 0.568355 0
M  V30 4932 C 458.869 -3.97407 1.58909 0
M  V30 4933 C 458.195 -5.25038 1.01187 0
M  V30 4934 C 459.495 -4.2918 2.97661 0
M  V30 4935 H 461.189 -2.29112 1.92739 0
M  V30 4936 H 458.735 -1.10101 0.928102 0
M  V30 4937 H 460.688 -4.19444 0.405555 0
M  V30 4938 H 459.412 -3.24227 -0.392961 0
M  V30 4939 H 458.071 -3.22703 1.73949 0
M  V30 4940 H 457.719 -5.02982 0.0421965 0
M  V30 4941 H 457.419 -5.62661 1.6937 0
M  V30 4942 H 458.943 -6.04507 0.860448 0
M  V30 4943 H 460.357 -4.96839 2.86049 0
M  V30 4944 H 458.754 -4.77952 3.6288 0
M  V30 4945 H 459.824 -3.3735 3.48315 0
M  V30 4946 N 461.167 -1.02423 -1.1978 0
M  V30 4947 C 462.097 -0.62157 -2.25075 0
M  V30 4948 C 463.078 0.367148 -1.6609 0
M  V30 4949 O 464.263 0.250892 -1.92573 0
M  V30 4950 C 461.393 0.0331826 -3.47284 0
M  V30 4951 C 460.347 -0.877323 -4.18912 0
M  V30 4952 C 459.673 -0.0879296 -5.34628 0
M  V30 4953 C 460.973 -2.18892 -4.74219 0
M  V30 4954 H 462.667 -1.50179 -2.59011 0
M  V30 4955 H 460.213 -0.723547 -1.24502 0
M  V30 4956 H 462.166 0.326488 -4.20133 0
M  V30 4957 H 460.89 0.948164 -3.12534 0
M  V30 4958 H 459.549 -1.15475 -3.47938 0
M  V30 4959 H 459.197 0.828941 -4.96123 0
M  V30 4960 H 458.897 -0.694359 -5.83483 0
M  V30 4961 H 460.421 0.198743 -6.10276 0
M  V30 4962 H 461.835 -1.95746 -5.38847 0
M  V30 4963 H 460.232 -2.74686 -5.33542 0
M  V30 4964 H 461.302 -2.84674 -3.92541 0
M  V30 4965 N 462.645 1.35699 -0.801477 0
M  V30 4966 C 463.894 1.98165 -0.375979 0
M  V30 4967 C 464.207 1.64306 1.06127 0
M  V30 4968 O 465.413 2.20097 1.58964 0
M  V30 4969 C 463.869 3.54497 -0.621305 0
M  V30 4970 C 463.477 3.9727 -2.07076 0
M  V30 4971 C 465.221 4.23697 -0.26091 0
M  V30 4972 C 463.128 5.46427 -2.26211 0
M  V30 4973 H 462.058 0.741478 -0.136844 0
M  V30 4974 H 464.709 1.54834 -0.984814 0
M  V30 4975 H 463.091 3.95958 0.0574112 0
M  V30 4976 H 464.265 3.66974 -2.78687 0
M  V30 4977 H 462.58 3.40943 -2.39054 0
M  V30 4978 H 465.177 5.33334 -0.381994 0
M  V30 4979 H 465.52 4.0869 0.792344 0
M  V30 4980 H 466.053 3.87639 -0.893339 0
M  V30 4981 H 462.792 5.66396 -3.29963 0
M  V30 4982 H 462.312 5.78309 -1.59119 0
M  V30 4983 H 463.991 6.12819 -2.07513 0
M  V30 4984 N 464.123 0.554532 1.47522 0
M  V30 4985 C 465.371 0.0294208 2.02079 0
M  V30 4986 C 465.692 -1.32411 1.43151 0
M  V30 4987 O 464.962 -1.863 0.605728 0
M  V30 4988 H 463.542 0.00788672 0.746958 0
M  V30 4989 H 466.204 0.723934 1.80956 0
M  V30 4990 H 465.3 -0.0606745 3.12041 0
M  V30 4991 N 465.601 -1.54893 0.290851 0
M  V30 4992 C 466.533 -2.20564 -0.623236 0
M  V30 4993 C 467.546 -1.19519 -1.1054 0
M  V30 4994 O 468.735 -1.46165 -1.02459 0
M  V30 4995 C 465.835 -2.83033 -1.86401 0
M  V30 4996 C 465.008 -4.09916 -1.52604 0
M  V30 4997 C 464.067 -4.56284 -2.62091 0
M  V30 4998 O 463.093 -5.2171 -2.27612 0
M  V30 4999 N 464.295 -4.27746 -3.92446 0
M  V30 5000 H 467.06 -2.99638 -0.0610915 0
M  V30 5001 H 464.621 -1.61508 0.112615 0
M  V30 5002 H 466.613 -3.1099 -2.58973 0
M  V30 5003 H 465.183 -2.0786 -2.33481 0
M  V30 5004 H 464.403 -3.89078 -0.633424 0
M  V30 5005 H 465.691 -4.92554 -1.27547 0
M  V30 5006 H 465.089 -3.7531 -4.23272 0
M  V30 5007 H 463.646 -4.60437 -4.61347 0
M  V30 5008 N 467.08 -0.0183926 -1.57589 0
M  V30 5009 C 468.491 0.521927 -1.79256 0
M  V30 5010 C 468.842 1.72885 -0.927636 0
M  V30 5011 O 467.967 2.15978 -0.135091 0
M  V30 5012 C 468.562 0.953632 -3.25102 0
M  V30 5013 C 467.121 1.43913 -3.47801 0
M  V30 5014 C 466.268 0.398837 -2.74417 0
M  V30 5015 H 469.219 -0.244485 -1.56805 0
M  V30 5016 H 469.24 1.81863 -3.34224 0
M  V30 5017 H 468.752 0.0750123 -3.88028 0
M  V30 5018 H 466.853 2.33804 -2.90115 0
M  V30 5019 H 466.966 1.45391 -4.56507 0
M  V30 5020 H 465.33 0.864572 -2.39577 0
M  V30 5021 H 466.113 -0.471132 -3.40052 0
M  V30 5022 N 468.558 1.5553 0.254621 0
M  V30 5023 C 469.488 1.9268 1.31897 0
M  V30 5024 C 470.469 0.790797 1.506 0
M  V30 5025 O 471.654 1.05045 1.63337 0
M  V30 5026 C 468.784 2.21477 2.67517 0
M  V30 5027 C 467.738 3.37256 2.63519 0
M  V30 5028 C 467.064 3.51576 4.02862 0
M  V30 5029 C 468.364 4.73157 2.21179 0
M  V30 5030 H 470.058 2.81832 1.01051 0
M  V30 5031 H 467.604 1.35599 0.484662 0
M  V30 5032 H 469.557 2.46055 3.42104 0
M  V30 5033 H 468.281 1.29144 2.99982 0
M  V30 5034 H 466.94 3.12675 1.9139 0
M  V30 5035 H 466.588 2.56676 4.32581 0
M  V30 5036 H 466.288 4.2943 4.01078 0
M  V30 5037 H 467.812 3.78467 4.79161 0
M  V30 5038 H 469.226 4.97158 2.85494 0
M  V30 5039 H 467.623 5.54058 2.30521 0
M  V30 5040 H 468.693 4.70739 1.16332 0
M  V30 5041 N 470.036 -0.519951 1.48776 0
M  V30 5042 C 471.447 -1.10177 1.50725 0
M  V30 5043 C 471.798 -1.94153 0.282678 0
M  V30 5044 O 470.923 -2.07645 -0.609298 0
M  V30 5045 C 471.518 -2.00482 2.73116 0
M  V30 5046 C 470.077 -2.53862 2.77905 0
M  V30 5047 C 469.224 -1.31047 2.44381 0
M  V30 5048 H 472.175 -0.30473 1.55747 0
M  V30 5049 H 472.196 -2.8491 2.52203 0
M  V30 5050 H 471.708 -1.39335 3.62225 0
M  V30 5051 H 469.809 -3.18702 1.93029 0
M  V30 5052 H 469.922 -2.9231 3.79594 0
M  V30 5053 H 468.286 -1.62953 1.95751 0
M  V30 5054 H 469.069 -0.71637 3.35743 0
M  V30 5055 N 471.514 -1.37532 -0.769588 0
M  V30 5056 C 472.462 -1.33561 -1.90432 0
M  V30 5057 C 473.456 -0.224027 -1.67912 0
M  V30 5058 O 474.662 -0.392174 -1.75676 0
M  V30 5059 H 471.037 -0.416279 -0.626271 0
M  V30 5060 H 473.008 -2.29348 -1.90899 0
M  V30 5061 C 471.757 -1.16162 -3.27722 0
M  V30 5062 H 471.08 -2.00951 -3.45628 0
M  V30 5063 H 472.52 -1.17434 -4.07413 0
M  V30 5064 C 470.979 0.132583 -3.36639 0
M  V30 5065 O 471.509 1.11539 -3.85904 0
M  V30 5066 N 469.715 0.184013 -2.90017 0
M  V30 5067 H 469.262 -0.616415 -2.50116 0
M  V30 5068 H 469.22 1.04956 -2.96364 0
M  V30 5069 N 472.992 0.995999 -1.22138 0
M  V30 5070 C 473.939 2.08551 -0.988687 0
M  V30 5071 C 474.909 1.65864 0.0885021 0
M  V30 5072 O 476.094 1.90704 -0.0604589 0
M  V30 5073 C 473.234 3.40374 -0.569191 0
M  V30 5074 C 472.347 3.96421 -1.71681 0
M  V30 5075 C 471.482 5.1639 -1.2456 0
M  V30 5076 C 470.521 5.64567 -2.36497 0
M  V30 5077 N 469.658 6.75777 -1.90445 0
M  V30 5078 H 474.498 2.2779 -1.92135 0
M  V30 5079 H 472.035 1.1168 -0.957388 0
M  V30 5080 H 473.993 4.16068 -0.307166 0
M  V30 5081 H 472.623 3.21145 0.326462 0
M  V30 5082 H 471.675 3.17628 -2.09324 0
M  V30 5083 H 472.987 4.2816 -2.55891 0
M  V30 5084 H 472.141 5.99362 -0.940774 0
M  V30 5085 H 470.88 4.86266 -0.373662 0
M  V30 5086 H 469.885 4.80185 -2.67772 0
M  V30 5087 H 471.11 5.96716 -3.24202 0
M  V30 5088 H 469.056 6.47443 -1.05609 0
M  V30 5089 H 468.973 7.06818 -2.68223 0
M  V30 5090 H 470.241 7.62262 -1.63022 0
M  V30 5091 N 474.47 1.03057 1.19235 0
M  V30 5092 C 475.403 0.557384 2.21288 0
M  V30 5093 C 476.381 -0.402675 1.57535 0
M  V30 5094 O 477.565 -0.319376 1.85775 0
M  V30 5095 C 474.692 -0.187041 3.38183 0
M  V30 5096 C 473.738 0.72471 4.20298 0
M  V30 5097 S 474.571 2.20187 4.88137 0
M  V30 5098 C 475.727 1.46801 6.08441 0
M  V30 5099 H 475.96 1.42207 2.61083 0
M  V30 5100 H 473.493 0.840651 1.29508 0
M  V30 5101 H 475.451 -0.610405 4.05936 0
M  V30 5102 H 474.112 -1.02748 2.96819 0
M  V30 5103 H 473.305 0.149911 5.03777 0
M  V30 5104 H 472.907 1.08647 3.57871 0
M  V30 5105 H 475.199 0.755522 6.73274 0
M  V30 5106 H 476.142 2.27946 6.70407 0
M  V30 5107 H 476.55 0.964762 5.56195 0
M  V30 5108 N 475.948 -1.35272 0.808662 0
M  V30 5109 C 477.176 -2.02946 0.402537 0
M  V30 5110 C 477.591 -1.60937 -0.987147 0
M  V30 5111 O 476.948 -0.807917 -1.63643 0
M  V30 5112 C 476.999 -3.58317 0.47868 0
M  V30 5113 O 476.72 -3.98799 1.81358 0
M  V30 5114 C 478.221 -4.43251 0.0656281 0
M  V30 5115 H 475.441 -0.650831 0.163279 0
M  V30 5116 H 477.985 -1.72849 1.09286 0
M  V30 5117 H 476.14 -3.87055 -0.163415 0
M  V30 5118 H 476.554 -4.93451 1.77781 0
M  V30 5119 H 478.028 -5.51738 0.170017 0
M  V30 5120 H 478.505 -4.27913 -0.989278 0
M  V30 5121 H 479.111 -4.19813 0.68096 0
M  V30 5122 N 477.426 -0.562348 -1.47226 0
M  V30 5123 C 478.672 -0.0402761 -2.0276 0
M  V30 5124 C 479.005 1.30823 -1.43523 0
M  V30 5125 O 478.28 1.85249 -0.592705 0
M  V30 5126 C 478.563 0.047311 -3.60069 0
M  V30 5127 C 478.416 -1.32865 -4.29729 0
M  V30 5128 C 479.735 0.758182 -4.3352 0
M  V30 5129 H 476.854 -0.0161105 -0.736824 0
M  V30 5130 H 479.496 -0.725628 -1.75598 0
M  V30 5131 H 477.646 0.630986 -3.83342 0
M  V30 5132 H 479.318 -1.95593 -4.17781 0
M  V30 5133 H 477.561 -1.90195 -3.89882 0
M  V30 5134 H 478.232 -1.22004 -5.38349 0
M  V30 5135 H 480.708 0.262546 -4.15271 0
M  V30 5136 H 479.584 0.78844 -5.43208 0
M  V30 5137 H 479.845 1.81537 -4.03109 0
M  V30 5138 N 478.904 1.54736 -0.299062 0
M  V30 5139 C 480.151 2.00101 0.310784 0
M  V30 5140 C 480.479 1.18746 1.54045 0
M  V30 5141 O 479.734 0.251198 1.94081 0
M  V30 5142 C 480.033 3.50199 0.713835 0
M  V30 5143 C 479.699 4.48997 -0.413873 0
M  V30 5144 C 478.361 4.7573 -0.723462 0
M  V30 5145 C 480.713 5.07839 -1.17257 0
M  V30 5146 C 478.041 5.5857 -1.79491 0
M  V30 5147 C 480.393 5.91844 -2.23392 0
M  V30 5148 C 479.057 6.16889 -2.54959 0
M  V30 5149 H 478.327 0.732221 0.113724 0
M  V30 5150 H 480.974 1.86888 -0.417756 0
M  V30 5151 H 479.279 3.61012 1.52243 0
M  V30 5152 H 480.976 3.82723 1.19684 0
M  V30 5153 H 477.566 4.28292 -0.162476 0
M  V30 5154 H 481.75 4.87188 -0.946651 0
M  V30 5155 H 477.006 5.76213 -2.04423 0
M  V30 5156 H 481.18 6.36465 -2.8264 0
M  V30 5157 H 478.807 6.80869 -3.38114 0
M  V30 5158 N 480.382 0.0267497 1.57577 0
M  V30 5159 C 481.793 -0.512413 1.79531 0
M  V30 5160 C 482.144 -1.72391 0.936791 0
M  V30 5161 O 481.269 -2.15903 0.146543 0
M  V30 5162 C 481.864 -0.936378 3.25603 0
M  V30 5163 C 480.423 -1.42067 3.4856 0
M  V30 5164 C 479.57 -0.384278 2.74624 0
M  V30 5165 H 482.521 0.252797 1.56674 0
M  V30 5166 H 482.542 -1.80088 3.35184 0
M  V30 5167 H 482.054 -0.0544332 3.88062 0
M  V30 5168 H 480.155 -2.32262 2.9135 0
M  V30 5169 H 480.268 -1.42968 4.57271 0
M  V30 5170 H 478.632 -0.851855 2.40032 0
M  V30 5171 H 479.415 0.489159 3.39797 0
M  V30 5172 N 481.861 -1.55662 -0.24637 0
M  V30 5173 C 482.808 -1.90361 -1.30504 0
M  V30 5174 C 483.778 -0.757905 -1.47801 0
M  V30 5175 O 484.963 -1.01161 -1.61775 0
M  V30 5176 C 482.103 -2.2042 -2.65535 0
M  V30 5177 C 481.216 -3.47799 -2.56242 0
M  V30 5178 C 480.351 -3.67426 -3.8363 0
M  V30 5179 C 479.39 -4.88403 -3.68956 0
M  V30 5180 N 478.527 -5.04548 -4.88237 0
M  V30 5181 H 483.367 -2.80645 -1.00213 0
M  V30 5182 H 480.904 -1.38924 -0.483577 0
M  V30 5183 H 482.862 -2.35853 -3.44135 0
M  V30 5184 H 481.492 -1.3334 -2.93973 0
M  V30 5185 H 480.544 -3.40694 -1.69208 0
M  V30 5186 H 481.856 -4.36544 -2.4131 0
M  V30 5187 H 481.01 -3.82821 -4.70673 0
M  V30 5188 H 479.749 -2.76914 -4.01459 0
M  V30 5189 H 478.754 -4.72984 -2.80296 0
M  V30 5190 H 479.979 -5.80375 -3.52621 0
M  V30 5191 H 477.925 -4.16974 -5.06427 0
M  V30 5192 H 477.842 -5.87384 -4.75937 0
M  V30 5193 H 479.11 -5.24355 -5.76777 0
M  V30 5194 N 483.339 0.512053 -1.4905 0
M  V30 5195 C 484.287 1.63568 -1.65373 0
M  V30 5196 C 485.281 1.61228 -0.519806 0
M  V30 5197 O 486.487 1.65869 -0.699101 0
M  V30 5198 H 482.862 0.542019 -0.521267 0
M  V30 5199 H 484.833 1.4695 -2.59708 0
M  V30 5200 C 483.582 3.01761 -1.7273 0
M  V30 5201 H 482.905 3.04263 -2.59353 0
M  V30 5202 H 484.345 3.79948 -1.8819 0
M  V30 5203 C 482.804 3.33609 -0.46973 0
M  V30 5204 O 483.334 3.99607 0.409492 0
M  V30 5205 N 481.54 2.88651 -0.336003 0
M  V30 5206 H 481.087 2.35119 -1.05247 0
M  V30 5207 H 481.045 3.10328 0.504363 0
M  V30 5208 N 484.817 1.37938 0.762283 0
M  V30 5209 C 485.764 1.34467 1.87583 0
M  V30 5210 C 486.734 0.208633 1.64785 0
M  V30 5211 O 487.919 0.399494 1.86571 0
M  V30 5212 C 485.059 1.16692 3.24772 0
M  V30 5213 C 484.172 2.39608 3.59461 0
M  V30 5214 C 483.307 2.14631 4.85908 0
M  V30 5215 C 482.346 3.33364 5.13357 0
M  V30 5216 N 481.483 3.07877 6.30996 0
M  V30 5217 H 486.323 2.29669 1.89885 0
M  V30 5218 H 483.86 1.14116 0.928219 0
M  V30 5219 H 485.818 1.04405 4.03925 0
M  V30 5220 H 484.448 0.251333 3.2182 0
M  V30 5221 H 483.5 2.626 2.75219 0
M  V30 5222 H 484.812 3.28128 3.75678 0
M  V30 5223 H 483.966 1.99429 5.72986 0
M  V30 5224 H 482.705 1.23463 4.71814 0
M  V30 5225 H 481.71 3.49094 4.24751 0
M  V30 5226 H 482.935 4.25395 5.29354 0
M  V30 5227 H 480.881 2.19348 6.18241 0
M  V30 5228 H 480.798 3.89944 6.47673 0
M  V30 5229 H 482.066 2.96313 7.20985 0
M  V30 5230 N 486.295 -0.989507 1.22664 0
M  V30 5231 C 487.52 -1.77031 1.08051 0
M  V30 5232 C 487.945 -1.84535 -0.364483 0
M  V30 5233 O 487.303 -1.3003 -1.2634 0
M  V30 5234 C 487.351 -3.18 1.70024 0
M  V30 5235 O 486.455 -4.01161 0.956216 0
M  V30 5236 H 485.796 -0.545008 0.379292 0
M  V30 5237 H 488.326 -1.24277 1.62531 0
M  V30 5238 H 488.336 -3.68616 1.74888 0
M  V30 5239 H 487.011 -3.11853 2.75174 0
M  V30 5240 H 485.588 -3.59687 0.98384 0
M  V30 5241 N 487.773 -1.03688 -1.18687 0
M  V30 5242 C 488.998 -0.757819 -1.93059 0
M  V30 5243 C 489.423 0.678353 -1.75442 0
M  V30 5244 O 488.781 1.46938 -1.06203 0
M  V30 5245 C 488.829 -1.12423 -3.42627 0
M  V30 5246 O 487.933 -0.247505 -4.11657 0
M  V30 5247 H 487.274 -0.279245 -0.602427 0
M  V30 5248 H 489.804 -1.3857 -1.5053 0
M  V30 5249 H 489.814 -1.08454 -3.93322 0
M  V30 5250 H 488.489 -2.17049 -3.54771 0
M  V30 5251 H 487.066 -0.34649 -3.71287 0
M  V30 5252 N 489.251 1.34841 -0.815825 0
M  V30 5253 C 490.479 2.0273 -0.413294 0
M  V30 5254 C 490.894 1.61459 0.978599 0
M  V30 5255 O 490.251 0.816584 1.63212 0
M  V30 5256 C 490.302 3.58058 -0.497676 0
M  V30 5257 O 490.023 3.97832 -1.8347 0
M  V30 5258 C 491.524 4.4321 -0.0891339 0
M  V30 5259 H 488.744 0.649956 -0.166728 0
M  V30 5260 H 491.288 1.72267 -1.10201 0
M  V30 5261 H 489.443 3.87136 0.142886 0
M  V30 5262 H 489.857 4.92501 -1.80396 0
M  V30 5263 H 491.331 5.5164 -0.199274 0
M  V30 5264 H 491.808 4.28432 0.966571 0
M  V30 5265 H 492.414 4.19446 -0.703214 0
M  V30 5266 N 490.729 0.570148 1.46925 0
M  V30 5267 C 492.006 -0.0153259 1.95594 0
M  V30 5268 C 492.386 -1.47232 1.51281 0
M  V30 5269 O 491.734 -2.15574 0.757624 0
M  V30 5270 C 491.944 0.143624 3.48704 0
M  V30 5271 C 493.292 0.00494484 4.246 0
M  V30 5272 O 494.316 0.0718214 3.56128 0
M  V30 5273 O 493.175 -0.141175 5.46318 0
M  V30 5274 H 490.269 -0.0568819 0.825041 0
M  V30 5275 H 492.815 0.637583 1.57267 0
M  V30 5276 H 491.587 1.15699 3.73804 0
M  V30 5277 H 491.21 -0.5463 3.93829 0
M  V30 5278 N 492.207 -1.54576 0.307264 0
M  V30 5279 C 493.454 -2.00263 -0.300167 0
M  V30 5280 C 493.782 -1.19561 -1.53413 0
M  V30 5281 O 493.037 -0.261487 -1.93945 0
M  V30 5282 C 493.336 -3.50572 -0.695253 0
M  V30 5283 C 493.002 -4.48771 0.437679 0
M  V30 5284 C 491.664 -4.7534 0.748681 0
M  V30 5285 C 494.016 -5.0721 1.19949 0
M  V30 5286 C 491.344 -5.5761 1.8245 0
M  V30 5287 C 493.696 -5.90651 2.26527 0
M  V30 5288 C 492.36 -6.15528 2.58227 0
M  V30 5289 H 491.63 -0.732814 -0.109839 0
M  V30 5290 H 494.277 -1.86664 0.427661 0
M  V30 5291 H 492.582 -3.61814 -1.50326 0
M  V30 5292 H 494.279 -3.83352 -1.17653 0
M  V30 5293 H 490.869 -4.282 0.185187 0
M  V30 5294 H 495.053 -4.86679 0.972474 0
M  V30 5295 H 490.309 -5.75121 2.07476 0
M  V30 5296 H 494.483 -6.34957 2.86011 0
M  V30 5297 H 492.11 -6.79066 3.4172 0
M  V30 5298 N 493.685 -0.035106 -1.57561 0
M  V30 5299 C 494.91 0.655802 -1.96759 0
M  V30 5300 C 495.335 1.64523 -0.911809 0
M  V30 5301 O 494.693 1.80857 0.126673 0
M  V30 5302 C 494.741 1.33326 -3.35047 0
M  V30 5303 O 493.845 2.44866 -3.31835 0
M  V30 5304 H 493.186 0.171807 -0.641388 0
M  V30 5305 H 495.716 -0.0987369 -2.04362 0
M  V30 5306 H 495.726 1.68867 -3.71413 0
M  V30 5307 H 494.401 0.608033 -4.11431 0
M  V30 5308 H 492.978 2.11392 -3.07193 0
M  V30 5309 N 495.163 1.55791 0.238111 0
M  V30 5310 C 496.388 1.8244 0.986432 0
M  V30 5311 C 496.813 0.613314 1.7782 0
M  V30 5312 O 496.171 -0.437767 1.75935 0
M  V30 5313 C 496.219 3.06917 1.893 0
M  V30 5314 O 495.323 2.84449 2.98601 0
M  V30 5315 H 494.664 0.601975 0.280218 0
M  V30 5316 H 497.194 2.02987 0.256437 0
M  V30 5317 H 497.204 3.36583 2.30598 0
M  V30 5318 H 495.879 3.947 1.31091 0
M  V30 5319 H 494.456 2.65972 2.61368 0
M  V30 5320 N 496.642 -0.504142 1.49319 0
M  V30 5321 C 497.867 -1.28729 1.62615 0
M  V30 5322 C 498.292 -1.85752 0.296309 0
M  V30 5323 O 497.65 -1.65704 -0.735649 0
M  V30 5324 C 497.698 -2.39561 2.69524 0
M  V30 5325 O 496.802 -3.43324 2.28478 0
M  V30 5326 H 496.143 -0.380172 0.544395 0
M  V30 5327 H 498.673 -0.603872 1.95485 0
M  V30 5328 H 498.683 -2.8537 2.91595 0
M  V30 5329 H 497.358 -1.97423 3.66056 0
M  V30 5330 H 495.935 -3.03455 2.16725 0
M  V30 5331 N 498.12 -1.38341 -0.754957 0
M  V30 5332 C 499.368 -1.34208 -1.51105 0
M  V30 5333 C 499.689 0.0677634 -1.94882 0
M  V30 5334 O 498.959 1.01517 -1.67544 0
M  V30 5335 H 497.539 -0.493819 -0.560493 0
M  V30 5336 H 500.201 -1.73005 -0.897507 0
M  V30 5337 H 499.297 -1.99203 -2.4026 0
M  V30 5338 N 499.598 0.982988 -1.23187 0
M  V30 5339 C 500.875 1.69814 -0.970707 0
M  V30 5340 C 501.255 2.04811 0.511424 0
M  V30 5341 O 500.603 1.73924 1.48198 0
M  V30 5342 C 500.813 2.94143 -1.87831 0
M  V30 5343 C 502.161 3.66712 -2.14026 0
M  V30 5344 O 503.185 3.04171 -1.8536 0
M  V30 5345 O 502.044 4.79258 -2.62629 0
M  V30 5346 H 499.138 0.741659 -0.365884 0
M  V30 5347 H 501.684 1.03844 -1.34218 0
M  V30 5348 H 500.456 2.64858 -2.88038 0
M  V30 5349 H 500.079 3.6785 -1.50905 0
M  V30 5350 N 501.076 1.04316 1.18135 0
M  V30 5351 C 502.324 0.746542 1.87806 0
M  V30 5352 C 502.645 -0.728082 1.80898 0
M  V30 5353 O 501.915 -1.52554 1.22899 0
M  V30 5354 H 500.495 0.273157 0.695265 0
M  V30 5355 H 503.157 1.32044 1.43354 0
M  V30 5356 H 502.253 1.05362 2.93778 0
M  V30 5357 N 502.554 -1.34406 0.822964 0
M  V30 5358 C 503.502 -2.31428 0.233165 0
M  V30 5359 C 504.496 -1.57404 -0.626118 0
M  V30 5360 O 505.702 -1.72402 -0.517453 0
M  V30 5361 H 502.077 -0.749863 0.0566557 0
M  V30 5362 H 504.048 -2.78699 1.06628 0
M  V30 5363 C 502.797 -3.42653 -0.590264 0
M  V30 5364 H 502.12 -3.99753 0.0616129 0
M  V30 5365 H 503.56 -4.12778 -0.969054 0
M  V30 5366 C 502.019 -2.87112 -1.76262 0
M  V30 5367 O 502.549 -2.81995 -2.8608 0
M  V30 5368 N 500.755 -2.43934 -1.57938 0
M  V30 5369 H 500.302 -2.48296 -0.686078 0
M  V30 5370 H 500.26 -2.07123 -2.36532 0
M  V30 5371 N 504.032 -0.577932 -1.46621 0
M  V30 5372 C 505.257 -0.0652536 -2.07297 0
M  V30 5373 C 505.682 1.22828 -1.4246 0
M  V30 5374 O 505.04 1.74075 -0.506718 0
M  V30 5375 C 505.088 0.0920589 -3.60482 0
M  V30 5376 O 504.192 1.14972 -3.96049 0
M  V30 5377 H 503.533 -0.06065 -0.661224 0
M  V30 5378 H 506.063 -0.799515 -1.88332 0
M  V30 5379 H 506.073 0.299741 -4.06897 0
M  V30 5380 H 504.748 -0.852612 -4.07067 0
M  V30 5381 H 503.325 0.920879 -3.61351 0
M  V30 5382 N 505.51 1.54411 -0.315457 0
M  V30 5383 C 506.757 2.00419 0.289543 0
M  V30 5384 C 507.085 1.20373 1.52776 0
M  V30 5385 O 506.34 0.271769 1.93804 0
M  V30 5386 C 506.639 3.50936 0.676652 0
M  V30 5387 C 506.305 4.48532 -0.461472 0
M  V30 5388 C 504.967 4.74936 -0.773879 0
M  V30 5389 C 507.319 5.06567 -1.22637 0
M  V30 5390 C 504.647 5.56634 -1.85405 0
M  V30 5391 C 506.999 5.89441 -2.29657 0
M  V30 5392 C 505.663 6.1415 -2.61488 0
M  V30 5393 H 504.933 0.733386 0.105951 0
M  V30 5394 H 507.58 1.86434 -0.437554 0
M  V30 5395 H 505.885 3.62606 1.48405 0
M  V30 5396 H 507.582 3.83971 1.15618 0
M  V30 5397 H 504.172 4.28096 -0.207893 0
M  V30 5398 H 508.356 4.86157 -0.998271 0
M  V30 5399 H 503.612 5.74012 -2.10523 0
M  V30 5400 H 507.786 6.33432 -2.89374 0
M  V30 5401 H 505.413 6.77245 -3.45317 0
M  V30 5402 N 506.988 0.0434614 1.5754 0
M  V30 5403 C 508.218 -0.640905 1.96408 0
M  V30 5404 C 508.626 -1.65365 0.919297 0
M  V30 5405 O 507.969 -1.83395 -0.105795 0
M  V30 5406 C 508.031 -1.39141 3.31482 0
M  V30 5407 C 507.695 -0.535375 4.53853 0
M  V30 5408 C 508.692 0.195335 5.19533 0
M  V30 5409 C 506.377 -0.468564 5.0011 0
M  V30 5410 C 508.371 0.981377 6.298 0
M  V30 5411 C 506.058 0.321171 6.10255 0
M  V30 5412 C 507.056 1.04484 6.74961 0
M  V30 5413 O 506.744 1.8216 7.8299 0
M  V30 5414 H 506.476 -0.180584 0.651433 0
M  V30 5415 H 509.03 0.103848 2.05137 0
M  V30 5416 H 507.26 -2.18162 3.19284 0
M  V30 5417 H 508.949 -1.96526 3.55151 0
M  V30 5418 H 509.715 0.15314 4.84758 0
M  V30 5419 H 505.594 -1.02142 4.49542 0
M  V30 5420 H 509.138 1.54674 6.80237 0
M  V30 5421 H 505.035 0.365032 6.44467 0
M  V30 5422 H 505.803 1.74289 7.99728 0
M  V30 5423 N 508.466 -1.55915 -0.229846 0
M  V30 5424 C 509.694 -1.82617 -0.972562 0
M  V30 5425 C 510.109 -0.621488 -1.78278 0
M  V30 5426 O 509.466 0.409956 -1.77836 0
M  V30 5427 C 509.517 -3.0774 -1.89679 0
M  V30 5428 O 509.238 -4.23559 -1.11934 0
M  V30 5429 C 510.739 -3.47368 -2.75409 0
M  V30 5430 H 507.959 -0.60727 -0.285419 0
M  V30 5431 H 510.503 -2.02996 -0.247579 0
M  V30 5432 H 508.658 -2.89361 -2.57583 0
M  V30 5433 H 509.072 -4.94586 -1.74599 0
M  V30 5434 H 510.546 -4.37977 -3.35977 0
M  V30 5435 H 511.023 -2.68737 -3.47386 0
M  V30 5436 H 511.629 -3.68158 -2.12931 0
M  V30 5437 N 509.944 0.496216 -1.49584 0
M  V30 5438 C 510.876 1.61404 -1.62731 0
M  V30 5439 C 511.889 1.54613 -0.50978 0
M  V30 5440 O 513.078 1.60458 -0.782017 0
M  V30 5441 C 510.178 3.00212 -1.57245 0
M  V30 5442 C 509.351 3.32138 -2.84611 0
M  V30 5443 C 508.41 4.5038 -2.72112 0
M  V30 5444 O 507.436 4.51926 -3.46051 0
M  V30 5445 N 508.638 5.50575 -1.83977 0
M  V30 5446 H 511.403 1.50552 -2.59141 0
M  V30 5447 H 508.964 0.684182 -1.46733 0
M  V30 5448 H 510.956 3.77241 -1.4653 0
M  V30 5449 H 509.526 3.04964 -0.686729 0
M  V30 5450 H 508.746 2.4396 -3.09641 0
M  V30 5451 H 510.034 3.50268 -3.69039 0
M  V30 5452 H 509.432 5.52128 -1.23171 0
M  V30 5453 H 507.989 6.26687 -1.79182 0
M  V30 5454 N 511.423 1.38739 0.74761 0
M  V30 5455 C 512.669 1.3648 1.50814 0
M  V30 5456 C 513.024 -0.0431982 1.92351 0
M  V30 5457 O 512.317 -1.0071 1.62997 0
M  V30 5458 C 512.511 2.25992 2.7688 0
M  V30 5459 C 512.34 3.75354 2.47668 0
M  V30 5460 C 511.11 4.44348 2.40589 0
M  V30 5461 C 513.308 4.67642 2.14046 0
M  V30 5462 N 511.29 5.79114 2.03715 0
M  V30 5463 C 512.661 5.90965 1.87512 0
M  V30 5464 C 514.716 4.55787 2.00407 0
M  V30 5465 C 513.419 7.03759 1.48714 0
M  V30 5466 C 515.445 5.68491 1.63011 0
M  V30 5467 C 514.807 6.90879 1.37353 0
M  V30 5468 H 510.906 0.554695 0.551214 0
M  V30 5469 H 513.49 1.7418 0.870033 0
M  V30 5470 H 511.661 1.9047 3.3849 0
M  V30 5471 H 513.393 2.14815 3.42982 0
M  V30 5472 H 510.148 3.97634 2.57262 0
M  V30 5473 H 510.572 6.504 1.87906 0
M  V30 5474 H 515.214 3.61712 2.18916 0
M  V30 5475 H 512.932 7.97746 1.28945 0
M  V30 5476 H 516.518 5.613 1.53081 0
M  V30 5477 H 515.398 7.76609 1.08848 0
M  V30 5478 N 512.901 -0.976442 1.23707 0
M  V30 5479 C 514.149 -1.71487 1.06942 0
M  V30 5480 C 514.47 -1.9098 -0.393897 0
M  V30 5481 O 513.74 -1.48128 -1.28198 0
M  V30 5482 H 512.32 -0.635425 0.392739 0
M  V30 5483 H 514.982 -1.17515 1.55487 0
M  V30 5484 H 514.078 -2.70286 1.56051 0
M  V30 5485 N 514.379 -1.04941 -1.1758 0
M  V30 5486 C 515.327 -0.64204 -2.23563 0
M  V30 5487 C 516.321 0.335453 -1.66045 0
M  V30 5488 O 517.527 0.20179 -1.78865 0
M  V30 5489 H 513.902 -0.18944 -0.727748 0
M  V30 5490 H 515.873 -1.54609 -2.55223 0
M  V30 5491 C 514.622 -0.0301051 -3.47687 0
M  V30 5492 H 513.945 -0.773339 -3.92249 0
M  V30 5493 H 515.385 0.217592 -4.23441 0
M  V30 5494 C 513.844 1.2225 -3.13937 0
M  V30 5495 O 514.374 2.3122 -3.28482 0
M  V30 5496 N 512.58 1.11917 -2.68185 0
M  V30 5497 H 512.127 0.232403 -2.5655 0
M  V30 5498 H 512.085 1.95814 -2.45976 0
M  V30 5499 N 515.857 1.33968 -0.830081 0
M  V30 5500 C 516.789 2.28194 -0.21448 0
M  V30 5501 C 517.802 1.5135 0.599752 0
M  V30 5502 O 518.991 1.73286 0.42826 0
M  V30 5503 C 516.091 3.31221 0.717356 0
M  V30 5504 C 515.264 4.37365 -0.055613 0
M  V30 5505 C 514.323 5.2011 0.798231 0
M  V30 5506 O 513.349 5.68691 0.240616 0
M  V30 5507 N 514.551 5.40523 2.11695 0
M  V30 5508 H 517.316 2.81662 -1.02405 0
M  V30 5509 H 514.877 1.46568 -0.687713 0
M  V30 5510 H 516.869 3.83477 1.29334 0
M  V30 5511 H 515.439 2.78095 1.42765 0
M  V30 5512 H 514.659 3.85727 -0.812936 0
M  V30 5513 H 515.947 5.05397 -0.587444 0
M  V30 5514 H 515.345 5.0274 2.59363 0
M  V30 5515 H 513.902 5.95871 2.64162 0
M  V30 5516 N 517.335 0.585699 1.46312 0
M  V30 5517 C 518.245 -0.148236 2.34131 0
M  V30 5518 C 519.261 -0.882972 1.49932 0
M  V30 5519 O 520.437 -0.845484 1.82794 0
M  V30 5520 C 517.502 -1.14714 3.27172 0
M  V30 5521 C 516.563 -0.416746 4.27272 0
M  V30 5522 C 515.796 -1.36806 5.15868 0
M  V30 5523 O 516.019 -2.60475 5.07454 0
M  V30 5524 O 514.953 -0.877018 5.95476 0
M  V30 5525 H 518.779 0.572882 2.98248 0
M  V30 5526 H 516.364 0.346082 1.45336 0
M  V30 5527 H 518.246 -1.72303 3.84564 0
M  V30 5528 H 516.921 -1.84967 2.65648 0
M  V30 5529 H 515.828 0.201061 3.73559 0
M  V30 5530 H 517.161 0.244872 4.9159 0
M  V30 5531 N 518.813 -1.54241 0.323641 0
M  V30 5532 C 520.041 -2.04985 -0.280871 0
M  V30 5533 C 520.456 -1.19978 -1.45777 0
M  V30 5534 O 519.813 -0.230471 -1.81039 0
M  V30 5535 C 519.864 -3.54353 -0.715258 0
M  V30 5536 O 519.585 -4.36132 0.414817 0
M  V30 5537 C 521.086 -4.21189 -1.38257 0
M  V30 5538 H 518.306 -0.66851 -0.0577502 0
M  V30 5539 H 520.85 -1.99029 0.469852 0
M  V30 5540 H 519.005 -3.60596 -1.41596 0
M  V30 5541 H 519.419 -5.2445 0.0725227 0
M  V30 5542 H 520.893 -5.27154 -1.63745 0
M  V30 5543 H 521.37 -3.72307 -2.32989 0
M  V30 5544 H 521.976 -4.19085 -0.724447 0
M  V30 5545 N 520.291 -0.0518155 -1.57515 0
M  V30 5546 C 521.516 0.634896 -1.97443 0
M  V30 5547 C 521.941 1.63546 -0.929207 0
M  V30 5548 O 521.299 1.80981 0.107484 0
M  V30 5549 C 521.347 1.29765 -3.36442 0
M  V30 5550 O 520.451 2.41333 -3.34413 0
M  V30 5551 H 519.792 0.164994 -0.643174 0
M  V30 5552 H 522.322 -0.120407 -2.04245 0
M  V30 5553 H 522.332 1.64918 -3.73184 0
M  V30 5554 H 521.007 0.564361 -4.12053 0
M  V30 5555 H 519.584 2.08122 -3.09418 0
M  V30 5556 N 521.769 1.56035 0.221574 0
M  V30 5557 C 522.717 1.93269 1.29421 0
M  V30 5558 C 523.711 0.814727 1.48521 0
M  V30 5559 O 524.917 0.999559 1.49696 0
M  V30 5560 H 521.292 0.614188 0.43391 0
M  V30 5561 H 523.263 2.82773 0.952987 0
M  V30 5562 C 522.012 2.26573 2.63742 0
M  V30 5563 H 521.335 3.12112 2.49853 0
M  V30 5564 H 522.775 2.5651 3.37607 0
M  V30 5565 C 521.234 1.09086 3.1875 0
M  V30 5566 O 521.764 0.351985 4.00155 0
M  V30 5567 N 519.97 0.874693 2.77124 0
M  V30 5568 H 519.517 1.47726 2.11033 0
M  V30 5569 H 519.475 0.0903349 3.1427 0
M  V30 5570 N 523.247 -0.488276 1.49845 0
M  V30 5571 C 524.472 -1.26997 1.63971 0
M  V30 5572 C 524.897 -1.85427 0.315994 0
M  V30 5573 O 524.255 -1.66475 -0.718032 0
M  V30 5574 C 524.303 -2.36689 2.72049 0
M  V30 5575 O 523.407 -3.40882 2.32107 0
M  V30 5576 H 522.748 -0.374376 0.548396 0
M  V30 5577 H 525.278 -0.583104 1.96115 0
M  V30 5578 H 525.288 -2.82262 2.94605 0
M  V30 5579 H 523.963 -1.93529 3.68129 0
M  V30 5580 H 522.54 -3.01139 2.19931 0
M  V30 5581 N 524.725 -1.39134 -0.740242 0
M  V30 5582 C 525.973 -1.35803 -1.49673 0
M  V30 5583 C 526.294 0.0470897 -1.94943 0
M  V30 5584 O 525.564 0.997347 -1.68611 0
M  V30 5585 H 524.144 -0.499736 -0.555224 0
M  V30 5586 H 526.806 -1.73947 -0.879107 0
M  V30 5587 H 525.902 -2.0174 -2.38133 0
M  V30 5588 N 526.204 0.969867 -1.24223 0
M  V30 5589 C 527.62 1.23809 -1.00716 0
M  V30 5590 C 527.82 1.99469 0.285358 0
M  V30 5591 O 526.876 2.31764 1.00207 0
M  V30 5592 C 528.189 2.02734 -2.2208 0
M  V30 5593 C 529.737 2.15834 -2.26681 0
M  V30 5594 C 530.212 2.98154 -3.47661 0
M  V30 5595 N 531.703 3.05737 -3.47964 0
M  V30 5596 C 532.438 3.69785 -4.38231 0
M  V30 5597 N 531.934 4.35569 -5.3875 0
M  V30 5598 N 533.727 3.66775 -4.25949 0
M  V30 5599 H 525.878 0.463294 -2.07286 0
M  V30 5600 H 528.141 0.267348 -0.909521 0
M  V30 5601 H 527.847 1.54524 -3.15935 0
M  V30 5602 H 527.721 3.0347 -2.24021 0
M  V30 5603 H 530.108 2.63248 -1.33359 0
M  V30 5604 H 530.189 1.14453 -2.28767 0
M  V30 5605 H 529.833 2.51435 -4.41297 0
M  V30 5606 H 529.763 3.99729 -3.42818 0
M  V30 5607 H 532.254 2.58941 -2.75242 0
M  V30 5608 H 532.567 4.82251 -6.03866 0
M  V30 5609 H 530.912 4.34244 -5.42639 0
M  V30 5610 H 534.103 3.14558 -3.46657 0
M  V30 5611 H 534.276 4.16407 -4.96497 0
M  V30 5612 N 527.682 1.05563 1.17022 0
M  V30 5613 C 528.93 0.76642 1.87004 0
M  V30 5614 C 529.251 -0.708854 1.8166 0
M  V30 5615 O 528.521 -1.51242 1.2451 0
M  V30 5616 H 527.101 0.280516 0.692329 0
M  V30 5617 H 529.763 1.33557 1.41945 0
M  V30 5618 H 528.859 1.08472 2.92644 0
M  V30 5619 N 529.16 -1.33526 0.837174 0
M  V30 5620 C 530.576 -1.50727 0.524743 0
M  V30 5621 C 530.776 -1.77792 -0.948279 0
M  V30 5622 O 529.832 -1.83719 -1.73216 0
M  V30 5623 C 531.145 -2.66299 1.39661 0
M  V30 5624 C 532.693 -2.80183 1.39521 0
M  V30 5625 C 533.168 -3.98815 2.25189 0
M  V30 5626 N 534.659 -4.06047 2.2289 0
M  V30 5627 C 535.394 -4.97032 2.85915 0
M  V30 5628 N 534.89 -5.93143 3.57985 0
M  V30 5629 N 536.683 -4.90015 2.75394 0
M  V30 5630 H 528.834 -1.1422 1.79074 0
M  V30 5631 H 531.097 -0.561399 0.763894 0
M  V30 5632 H 530.803 -2.52974 2.4433 0
M  V30 5633 H 530.677 -3.61663 1.07145 0
M  V30 5634 H 533.064 -2.92942 0.356253 0
M  V30 5635 H 533.145 -1.85586 1.76044 0
M  V30 5636 H 532.789 -3.86817 3.29143 0
M  V30 5637 H 532.719 -4.92654 1.86009 0
M  V30 5638 H 535.21 -3.37262 1.70478 0
M  V30 5639 H 535.523 -6.59227 4.03286 0
M  V30 5640 H 533.868 -5.93223 3.62093 0
M  V30 5641 H 537.059 -4.13894 2.18654 0
M  V30 5642 H 537.232 -5.60724 3.24796 0
M  V30 5643 N 530.638 -0.59345 -1.46 0
M  V30 5644 C 531.884 -0.0832754 -2.02629 0
M  V30 5645 C 532.217 1.27749 -1.46266 0
M  V30 5646 O 531.492 1.8395 -0.631866 0
M  V30 5647 C 531.775 -0.0290756 -3.60088 0
M  V30 5648 C 531.628 -1.41951 -4.26814 0
M  V30 5649 C 532.947 0.666055 -4.35031 0
M  V30 5650 H 530.066 -0.031736 -0.736316 0
M  V30 5651 H 532.708 -0.762711 -1.74019 0
M  V30 5652 H 530.858 0.549532 -3.84594 0
M  V30 5653 H 532.53 -2.04411 -4.13538 0
M  V30 5654 H 530.773 -1.98422 -3.8576 0
M  V30 5655 H 531.444 -1.33395 -5.3564 0
M  V30 5656 H 533.92 0.174401 -4.15734 0
M  V30 5657 H 532.796 0.673041 -5.44758 0
M  V30 5658 H 533.057 1.72946 -4.06869 0
M  V30 5659 N 532.116 1.54067 -0.331816 0
M  V30 5660 C 533.365 1.99895 0.269209 0
M  V30 5661 C 533.678 1.22371 1.52593 0
M  V30 5662 O 534.884 1.58618 2.20347 0
M  V30 5663 C 533.34 3.55972 0.530244 0
M  V30 5664 C 532.948 4.4234 -0.709901 0
M  V30 5665 C 534.692 4.10247 1.09077 0
M  V30 5666 C 532.599 5.89905 -0.420312 0
M  V30 5667 H 531.529 0.746741 0.104371 0
M  V30 5668 H 534.18 1.78014 -0.445324 0
M  V30 5669 H 532.562 3.73873 1.30518 0
M  V30 5670 H 533.736 4.36215 -1.48504 0
M  V30 5671 H 532.051 3.98997 -1.19123 0
M  V30 5672 H 534.648 5.18095 1.32219 0
M  V30 5673 H 534.991 3.62739 2.0427 0
M  V30 5674 H 535.524 3.96011 0.376824 0
M  V30 5675 H 532.263 6.41623 -1.34164 0
M  V30 5676 H 531.783 5.98962 0.316962 0
M  V30 5677 H 533.462 6.46991 -0.0331956 0
M  V30 5678 N 533.594 0.0601682 1.57485 0
M  V30 5679 C 534.526 -0.94047 2.09016 0
M  V30 5680 C 535.539 -1.26897 1.01985 0
M  V30 5681 O 536.728 -1.22819 1.29529 0
M  V30 5682 C 533.828 -2.25955 2.52582 0
M  V30 5683 C 533.001 -2.11163 3.83052 0
M  V30 5684 C 532.06 -3.26273 4.12835 0
M  V30 5685 O 531.086 -3.01779 4.82616 0
M  V30 5686 N 532.288 -4.51022 3.65458 0
M  V30 5687 H 535.053 -0.500578 2.9549 0
M  V30 5688 H 532.614 -0.125852 1.6141 0
M  V30 5689 H 534.606 -3.01846 2.69575 0
M  V30 5690 H 533.176 -2.61481 1.71308 0
M  V30 5691 H 532.396 -1.19808 3.75552 0
M  V30 5692 H 533.684 -1.98517 4.68475 0
M  V30 5693 H 533.082 -4.73811 3.09062 0
M  V30 5694 H 531.639 -5.23978 3.87673 0
M  V30 5695 N 535.072 -1.5615 -0.213296 0
M  V30 5696 C 536.349 -1.70349 -0.961281 0
M  V30 5697 C 536.729 -0.609791 -2.02101 0
M  V30 5698 O 536.077 0.381987 -2.25285 0
M  V30 5699 C 536.287 -3.11982 -1.56424 0
M  V30 5700 C 537.635 -3.71649 -2.05334 0
M  V30 5701 O 538.659 -3.14995 -1.66302 0
M  V30 5702 O 537.518 -4.71038 -2.77102 0
M  V30 5703 H 534.612 -0.694121 -0.449582 0
M  V30 5704 H 537.158 -1.68464 -0.204426 0
M  V30 5705 H 535.93 -3.83046 -0.799457 0
M  V30 5706 H 535.553 -3.18019 -2.38641 0
M  V30 5707 N 536.55 0.480323 -1.50102 0
M  V30 5708 C 537.513 1.56181 -1.6775 0
M  V30 5709 C 538.513 1.51156 -0.548503 0
M  V30 5710 O 539.703 1.5394 -0.815363 0
M  V30 5711 C 536.835 2.95823 -1.69415 0
M  V30 5712 H 538.028 1.41855 -2.6423 0
M  V30 5713 H 535.581 0.70605 -1.39444 0
M  V30 5714 H 536.316 3.15604 -0.745948 0
M  V30 5715 H 536.101 3.00878 -2.51425 0
M  V30 5716 H 537.591 3.74359 -1.85054 0
M  V30 5717 N 538.028 1.39524 0.732853 0
M  V30 5718 C 538.938 1.40695 1.87729 0
M  V30 5719 C 539.954 0.301496 1.71368 0
M  V30 5720 O 541.13 0.543313 1.93933 0
M  V30 5721 C 538.195 1.25098 3.23344 0
M  V30 5722 C 537.256 2.45634 3.52083 0
M  V30 5723 C 536.489 2.30772 4.81228 0
M  V30 5724 O 536.712 1.31233 5.55098 0
M  V30 5725 O 535.646 3.19799 5.09914 0
M  V30 5726 H 539.472 2.37168 1.89697 0
M  V30 5727 H 537.057 1.20663 0.880959 0
M  V30 5728 H 538.939 1.18541 4.04383 0
M  V30 5729 H 537.614 0.317209 3.22142 0
M  V30 5730 H 536.521 2.57767 2.71122 0
M  V30 5731 H 537.854 3.37712 3.58066 0
M  V30 5732 N 539.506 -0.963266 1.24736 0
M  V30 5733 C 540.416 -2.09246 1.06082 0
M  V30 5734 C 541.432 -1.74 0.000363101 0
M  V30 5735 O 542.608 -2.0041 0.199479 0
M  V30 5736 C 539.673 -3.40115 0.672498 0
M  V30 5737 C 538.734 -3.89282 1.80993 0
M  V30 5738 C 537.967 -5.13905 1.44004 0
M  V30 5739 O 538.19 -5.69434 0.331835 0
M  V30 5740 O 537.124 -5.57566 2.26723 0
M  V30 5741 H 540.95 -2.27881 2.00759 0
M  V30 5742 H 538.535 -1.07649 1.03595 0
M  V30 5743 H 540.417 -4.18797 0.467668 0
M  V30 5744 H 539.092 -3.22771 -0.245102 0
M  V30 5745 H 537.999 -3.11642 2.06955 0
M  V30 5746 H 539.332 -4.1111 2.70646 0
M  V30 5747 N 540.985 -1.06182 -1.16461 0
M  V30 5748 C 542.401 -0.785065 -1.38956 0
M  V30 5749 C 542.601 0.616103 -1.9185 0
M  V30 5750 O 541.657 1.37686 -2.11657 0
M  V30 5751 C 542.97 -1.84902 -2.37132 0
M  V30 5752 C 544.518 -1.8724 -2.50819 0
M  V30 5753 C 544.993 -2.92686 -3.52277 0
M  V30 5754 N 546.484 -2.91712 -3.59803 0
M  V30 5755 C 547.219 -3.69949 -4.38093 0
M  V30 5756 N 546.715 -4.58 -5.19815 0
M  V30 5757 N 548.508 -3.58346 -4.33064 0
M  V30 5758 H 540.659 -1.96569 -0.804634 0
M  V30 5759 H 542.922 -0.851747 -0.416211 0
M  V30 5760 H 542.628 -2.85518 -2.0536 0
M  V30 5761 H 542.502 -1.69908 -3.36766 0
M  V30 5762 H 544.889 -0.872827 -2.81897 0
M  V30 5763 H 544.97 -2.06311 -1.51226 0
M  V30 5764 H 544.614 -3.92835 -3.21937 0
M  V30 5765 H 544.544 -2.70864 -4.51598 0
M  V30 5766 H 547.035 -2.27876 -3.01464 0
M  V30 5767 H 547.348 -5.14357 -5.76764 0
M  V30 5768 H 545.693 -4.62056 -5.19162 0
M  V30 5769 H 548.884 -2.88943 -3.68279 0
M  V30 5770 H 549.057 -4.19563 -4.93833 0
M  V30 5771 N 542.463 1.3308 -0.844243 0
M  V30 5772 C 543.874 1.7992 -0.498566 0
M  V30 5773 C 544.225 1.69808 0.982834 0
M  V30 5774 O 543.35 1.25051 1.7661 0
M  V30 5775 C 543.945 3.26677 -0.898204 0
M  V30 5776 C 542.504 3.71513 -0.604583 0
M  V30 5777 C 541.651 2.54393 -1.10362 0
M  V30 5778 H 544.602 1.20526 -1.03244 0
M  V30 5779 H 544.623 3.79918 -0.21039 0
M  V30 5780 H 544.135 3.34004 -1.97643 0
M  V30 5781 H 542.236 3.69708 0.46335 0
M  V30 5782 H 542.349 4.64755 -1.16358 0
M  V30 5783 H 540.713 2.49246 -0.524273 0
M  V30 5784 H 541.496 2.6448 -2.18873 0
M  V30 5785 N 543.941 0.601185 1.45683 0
M  V30 5786 C 544.891 -0.142686 2.27553 0
M  V30 5787 C 545.875 -0.844598 1.3695 0
M  V30 5788 O 547.067 -0.735644 1.60988 0
M  V30 5789 C 544.196 -1.14364 3.23691 0
M  V30 5790 C 543.282 -0.442894 4.21781 0
M  V30 5791 N 543.673 0.51189 5.03203 0
M  V30 5792 C 541.971 -0.691277 4.4061 0
M  V30 5793 C 542.672 0.92318 5.74328 0
M  V30 5794 N 541.648 0.268308 5.42937 0
M  V30 5795 H 545.45 0.590736 2.87902 0
M  V30 5796 H 542.964 0.424365 1.56757 0
M  V30 5797 H 544.961 -1.6909 3.8107 0
M  V30 5798 H 543.621 -1.87768 2.64902 0
M  V30 5799 H 544.632 0.888329 5.10225 0
M  V30 5800 H 541.309 -1.41049 3.92952 0
M  V30 5801 H 542.699 1.71029 6.49768 0
M  V30 5802 N 545.419 -1.53889 0.339982 0
M  V30 5803 C 546.644 -2.05741 -0.261798 0
M  V30 5804 C 547.069 -1.21354 -1.43718 0
M  V30 5805 O 546.427 -0.22645 -1.7988 0
M  V30 5806 C 546.475 -3.54542 -0.658228 0
M  V30 5807 O 545.579 -3.7302 -1.75869 0
M  V30 5808 H 544.92 -0.662529 -0.0441672 0
M  V30 5809 H 547.45 -1.98568 0.493161 0
M  V30 5810 H 547.46 -3.9711 -0.936368 0
M  V30 5811 H 546.135 -4.15412 0.201358 0
M  V30 5812 H 544.712 -3.42355 -1.47809 0
M  V30 5813 N 546.897 -0.0685191 -1.57451 0
M  V30 5814 C 548.313 0.288101 -1.56978 0
M  V30 5815 C 548.513 1.70262 -1.07765 0
M  V30 5816 O 547.569 2.4135 -0.742054 0
M  V30 5817 C 548.882 0.100745 -3.00531 0
M  V30 5818 C 550.43 0.170531 -3.12535 0
M  V30 5819 C 550.905 0.0114944 -4.57999 0
M  V30 5820 N 552.396 0.0672065 -4.63151 0
M  V30 5821 C 553.131 -0.0314813 -5.73391 0
M  V30 5822 N 552.627 -0.183503 -6.92557 0
M  V30 5823 N 554.42 0.0253489 -5.62094 0
M  V30 5824 H 546.571 -0.993026 -1.87757 0
M  V30 5825 H 548.834 -0.386981 -0.865419 0
M  V30 5826 H 548.54 -0.875197 -3.40636 0
M  V30 5827 H 548.414 0.854457 -3.67395 0
M  V30 5828 H 550.801 1.13696 -2.72318 0
M  V30 5829 H 550.882 -0.614229 -2.48316 0
M  V30 5830 H 550.526 -0.951684 -4.98904 0
M  V30 5831 H 550.456 0.815617 -5.20245 0
M  V30 5832 H 552.947 0.183246 -3.77455 0
M  V30 5833 H 553.26 -0.251041 -7.72392 0
M  V30 5834 H 551.605 -0.218822 -6.94655 0
M  V30 5835 H 554.796 0.142794 -4.67882 0
M  V30 5836 H 554.969 -0.0550166 -6.47977 0
M  V30 5837 N 548.375 1.56261 0.205012 0
M  V30 5838 C 549.605 1.83874 0.942018 0
M  V30 5839 C 550.013 0.647595 1.77772 0
M  V30 5840 O 549.356 -0.393098 1.79445 0
M  V30 5841 C 549.418 3.05453 1.89575 0
M  V30 5842 C 549.082 4.39772 1.24296 0
M  V30 5843 C 550.079 5.16133 0.624724 0
M  V30 5844 C 547.764 4.86504 1.24978 0
M  V30 5845 C 549.758 6.37396 0.0220117 0
M  V30 5846 C 547.445 6.07705 0.643232 0
M  V30 5847 C 548.443 6.82993 0.0304164 0
M  V30 5848 O 548.131 8.019 -0.566654 0
M  V30 5849 H 547.863 0.614896 0.280854 0
M  V30 5850 H 550.417 2.04215 0.220285 0
M  V30 5851 H 548.647 2.80972 2.65691 0
M  V30 5852 H 550.336 3.19797 2.4997 0
M  V30 5853 H 551.102 4.81127 0.611666 0
M  V30 5854 H 546.981 4.27865 1.71616 0
M  V30 5855 H 550.525 6.96102 -0.456926 0
M  V30 5856 H 546.422 6.42181 0.653759 0
M  V30 5857 H 547.19 8.17192 -0.462588 0
M  V30 5858 N 549.853 -0.472356 1.50355 0
M  V30 5859 C 550.783 -1.57859 1.72055 0
M  V30 5860 C 551.764 -1.60283 0.569505 0
M  V30 5861 O 552.949 -1.7657 0.808503 0
M  V30 5862 C 550.079 -2.96191 1.81351 0
M  V30 5863 C 549.033 -3.08633 2.96529 0
M  V30 5864 C 548.359 -4.486 2.90968 0
M  V30 5865 C 549.659 -2.85969 4.37057 0
M  V30 5866 H 551.353 -1.39953 2.64676 0
M  V30 5867 H 548.899 -0.671846 1.27367 0
M  V30 5868 H 550.852 -3.73507 1.95117 0
M  V30 5869 H 549.576 -3.15251 0.853502 0
M  V30 5870 H 548.235 -2.33749 2.82413 0
M  V30 5871 H 547.883 -4.64577 1.92815 0
M  V30 5872 H 547.583 -4.57861 3.68289 0
M  V30 5873 H 549.107 -5.27938 3.0678 0
M  V30 5874 H 550.521 -3.53036 4.51706 0
M  V30 5875 H 548.918 -3.06677 5.15819 0
M  V30 5876 H 549.988 -1.81838 4.49514 0
M  V30 5877 N 551.331 -1.39911 -0.725443 0
M  V30 5878 C 552.747 -1.21725 -1.03224 0
M  V30 5879 C 552.947 -0.0855224 -2.01318 0
M  V30 5880 O 552.003 0.55976 -2.46217 0
M  V30 5881 C 553.316 -2.55511 -1.58539 0
M  V30 5882 C 554.864 -2.62439 -1.70572 0
M  V30 5883 C 555.339 -3.9647 -2.29294 0
M  V30 5884 N 556.83 -3.98159 -2.36692 0
M  V30 5885 C 557.565 -4.98647 -2.83088 0
M  V30 5886 N 557.061 -6.0953 -3.2931 0
M  V30 5887 N 558.854 -4.8602 -2.82384 0
M  V30 5888 H 551.005 -2.12267 -0.075048 0
M  V30 5889 H 553.268 -0.943136 -0.0959066 0
M  V30 5890 H 552.974 -3.38926 -0.939249 0
M  V30 5891 H 552.848 -2.75905 -2.57208 0
M  V30 5892 H 555.235 -1.79401 -2.34306 0
M  V30 5893 H 555.316 -2.45885 -0.705297 0
M  V30 5894 H 554.96 -4.79942 -1.66186 0
M  V30 5895 H 554.89 -4.10349 -3.30032 0
M  V30 5896 H 557.381 -3.18085 -2.04035 0
M  V30 5897 H 557.694 -6.82106 -3.6325 0
M  V30 5898 H 556.039 -6.1311 -3.27294 0
M  V30 5899 H 559.23 -3.98493 -2.45603 0
M  V30 5900 H 559.403 -5.64478 -3.18226 0
M  V30 5901 N 552.809 0.956637 -1.25245 0
M  V30 5902 C 554.225 1.22733 -1.02023 0
M  V30 5903 C 554.425 1.99761 0.264186 0
M  V30 5904 O 553.481 2.32814 0.977436 0
M  V30 5905 C 554.794 2.00367 -2.24217 0
M  V30 5906 C 556.342 2.13418 -2.28958 0
M  V30 5907 C 556.817 2.9445 -3.50803 0
M  V30 5908 N 558.308 3.02029 -3.51187 0
M  V30 5909 C 559.043 3.65116 -4.42129 0
M  V30 5910 N 558.539 4.2983 -5.43339 0
M  V30 5911 N 560.332 3.62237 -4.29815 0
M  V30 5912 H 552.483 0.441282 -2.07765 0
M  V30 5913 H 554.746 0.257686 -0.912306 0
M  V30 5914 H 554.452 1.51165 -3.17556 0
M  V30 5915 H 554.326 3.01077 -2.27228 0
M  V30 5916 H 556.713 2.61819 -1.36143 0
M  V30 5917 H 556.794 1.1202 -2.29968 0
M  V30 5918 H 556.438 2.46741 -4.43939 0
M  V30 5919 H 556.368 3.9607 -3.47039 0
M  V30 5920 H 558.859 2.56007 -2.77973 0
M  V30 5921 H 559.172 4.75819 -6.08947 0
M  V30 5922 H 557.517 4.28465 -5.47214 0
M  V30 5923 H 560.708 3.10863 -3.49974 0
M  V30 5924 H 560.881 4.11117 -5.00886 0
M  V30 5925 N 554.287 1.06798 1.15896 0
M  V30 5926 C 555.25 0.687328 2.18651 0
M  V30 5927 C 556.25 -0.269559 1.58524 0
M  V30 5928 O 557.44 -0.0512627 1.74125 0
M  V30 5929 C 554.572 0.0121642 3.40898 0
M  V30 5930 H 555.765 1.59701 2.53842 0
M  V30 5931 H 553.318 0.863828 1.3026 0
M  V30 5932 H 554.053 -0.910025 3.1127 0
M  V30 5933 H 553.838 0.700309 3.85795 0
M  V30 5934 H 555.328 -0.239703 4.16911 0
M  V30 5935 N 555.766 -1.3263 0.851289 0
M  V30 5936 C 556.996 -2.01271 0.466222 0
M  V30 5937 C 557.404 -1.64156 -0.940714 0
M  V30 5938 O 556.747 -0.857109 -1.62479 0
M  V30 5939 C 556.809 -3.55695 0.521672 0
M  V30 5940 C 556.473 -4.16227 1.88691 0
M  V30 5941 C 557.47 -4.34699 2.85189 0
M  V30 5942 C 555.155 -4.52377 2.18313 0
M  V30 5943 C 557.149 -4.88484 4.09465 0
M  V30 5944 C 554.836 -5.05868 3.42843 0
M  V30 5945 C 555.834 -5.23869 4.38235 0
M  V30 5946 O 555.522 -5.76218 5.6056 0
M  V30 5947 H 555.254 -0.651034 0.18202 0
M  V30 5948 H 557.808 -1.7026 1.14894 0
M  V30 5949 H 556.038 -3.86086 -0.217888 0
M  V30 5950 H 557.727 -4.05613 0.152682 0
M  V30 5951 H 558.493 -4.07107 2.63607 0
M  V30 5952 H 554.372 -4.37652 1.44851 0
M  V30 5953 H 557.916 -5.02451 4.83931 0
M  V30 5954 H 553.813 -5.32891 3.64277 0
M  V30 5955 H 554.581 -5.94616 5.62471 0
M  V30 5956 N 557.244 -0.608902 -1.45362 0
M  V30 5957 C 558.469 -0.10921 -2.07112 0
M  V30 5958 C 558.894 1.19779 -1.45033 0
M  V30 5959 O 558.252 1.72961 -0.543527 0
M  V30 5960 C 558.3 0.0155745 -3.60597 0
M  V30 5961 O 557.404 1.06546 -3.98399 0
M  V30 5962 H 556.745 -0.0746619 -0.659789 0
M  V30 5963 H 559.275 -0.839283 -1.86594 0
M  V30 5964 H 559.285 0.213364 -4.07442 0
M  V30 5965 H 557.96 -0.938765 -4.05167 0
M  V30 5966 H 556.537 0.844024 -3.63223 0
M  V30 5967 N 558.722 1.53707 -0.348139 0
M  V30 5968 C 559.947 2.05877 0.250883 0
M  V30 5969 C 560.372 1.22115 1.43072 0
M  V30 5970 O 559.73 0.235986 1.79758 0
M  V30 5971 C 559.778 3.54886 0.639416 0
M  V30 5972 O 558.882 3.73948 1.73888 0
M  V30 5973 H 558.223 0.662754 0.040653 0
M  V30 5974 H 560.753 1.98303 -0.503685 0
M  V30 5975 H 560.763 3.97601 0.915295 0
M  V30 5976 H 559.438 4.153 -0.223386 0
M  V30 5977 H 558.015 3.43134 1.45991 0
M  V30 5978 N 560.2 0.0768682 1.57412 0
M  V30 5979 C 561.477 -0.632359 1.85096 0
M  V30 5980 C 561.857 -1.87479 0.9703 0
M  V30 5981 O 561.205 -2.28469 0.0379062 0
M  V30 5982 C 561.415 -0.965174 3.35388 0
M  V30 5983 C 562.763 -1.33648 4.03018 0
M  V30 5984 O 563.787 -1.05675 3.40164 0
M  V30 5985 O 562.646 -1.85959 5.13889 0
M  V30 5986 H 559.74 -0.314574 0.764835 0
M  V30 5987 H 562.286 0.108184 1.69355 0
M  V30 5988 H 561.058 -0.0829745 3.91212 0
M  V30 5989 H 560.681 -1.76231 3.5641 0
M  V30 5990 N 561.678 -1.56367 -0.196722 0
M  V30 5991 C 563.094 -1.49916 -0.54749 0
M  V30 5992 C 563.294 -0.77659 -1.85934 0
M  V30 5993 O 562.35 -0.32644 -2.50381 0
M  V30 5994 C 563.663 -2.94577 -0.603734 0
M  V30 5995 C 565.211 -3.05239 -0.692677 0
M  V30 5996 C 565.686 -4.51308 -0.780046 0
M  V30 5997 N 567.177 -4.55453 -0.843616 0
M  V30 5998 C 567.912 -5.65786 -0.931358 0
M  V30 5999 N 567.408 -6.85812 -0.981503 0
M  V30 6000 N 569.201 -5.53695 -0.968421 0
M  V30 6001 H 561.352 -2.01761 0.663803 0
M  V30 6002 H 563.615 -0.918094 0.236238 0
M  V30 6003 H 563.321 -3.50494 0.29105 0
M  V30 6004 H 563.195 -3.47841 -1.45898 0
M  V30 6005 H 565.582 -2.49372 -1.57789 0
M  V30 6006 H 565.663 -2.55103 0.188736 0
M  V30 6007 H 565.307 -5.078 0.100811 0
M  V30 6008 H 565.237 -4.99176 -1.67724 0
M  V30 6009 H 567.728 -3.69025 -0.814176 0
M  V30 6010 H 568.041 -7.65648 -1.04892 0
M  V30 6011 H 566.386 -6.88474 -0.950208 0
M  V30 6012 H 569.577 -4.58848 -0.926072 0
M  V30 6013 H 569.75 -6.39708 -1.03334 0
M  V30 6014 N 563.156 0.464375 -1.50603 0
M  V30 6015 C 564.381 1.24372 -1.65971 0
M  V30 6016 C 564.806 1.84901 -0.345453 0
M  V30 6017 O 564.164 1.67596 0.691457 0
M  V30 6018 C 564.212 2.32331 -2.7578 0
M  V30 6019 O 563.316 3.37146 -2.375 0
M  V30 6020 H 562.657 0.365604 -0.554283 0
M  V30 6021 H 565.187 0.55183 -1.97018 0
M  V30 6022 H 565.197 2.77539 -2.99059 0
M  V30 6023 H 563.872 1.87648 -3.71162 0
M  V30 6024 H 562.449 2.97602 -2.24694 0
M  V30 6025 N 564.634 1.40294 0.718013 0
M  V30 6026 C 565.882 1.38167 1.47494 0
M  V30 6027 C 566.203 -0.01607 1.94993 0
M  V30 6028 O 565.473 -0.970396 1.70177 0
M  V30 6029 H 564.053 0.508505 0.547203 0
M  V30 6030 H 566.715 1.75324 0.851322 0
M  V30 6031 H 565.811 2.05503 2.34894 0
M  V30 6032 N 566.112 -0.949982 1.2575 0
M  V30 6033 C 567.34 -1.72972 1.13527 0
M  V30 6034 C 567.755 -1.8623 -0.310453 0
M  V30 6035 O 567.112 -1.36336 -1.2132 0
M  V30 6036 C 567.163 -3.14108 1.78936 0
M  V30 6037 O 566.884 -3.01493 3.17858 0
M  V30 6038 C 568.385 -4.08338 1.72554 0
M  V30 6039 H 565.605 -0.541864 0.395758 0
M  V30 6040 H 568.149 -1.19151 1.66202 0
M  V30 6041 H 566.304 -3.64858 1.30221 0
M  V30 6042 H 566.718 -3.90559 3.50092 0
M  V30 6043 H 568.192 -5.04963 2.22973 0
M  V30 6044 H 568.669 -4.33742 0.690251 0
M  V30 6045 H 569.275 -3.63506 2.2078 0
M  V30 6046 N 567.59 -1.07411 -1.15328 0
M  V30 6047 C 568.815 -0.818856 -1.90551 0
M  V30 6048 C 569.24 0.622194 -1.77512 0
M  V30 6049 O 568.598 1.43484 -1.10824 0
M  V30 6050 C 568.646 -1.23267 -3.38877 0
M  V30 6051 O 567.75 -0.378345 -4.10661 0
M  V30 6052 H 567.091 -0.29827 -0.593238 0
M  V30 6053 H 569.621 -1.43289 -1.46046 0
M  V30 6054 H 569.631 -1.20912 -3.89672 0
M  V30 6055 H 568.306 -2.28226 -3.47686 0
M  V30 6056 H 566.883 -0.464437 -3.69996 0
M  V30 6057 N 569.068 1.32177 -0.85831 0
M  V30 6058 C 570.016 2.30729 -0.294442 0
M  V30 6059 C 571.01 1.59009 0.584165 0
M  V30 6060 O 572.216 1.73713 0.471562 0
M  V30 6061 H 568.591 0.748097 -0.0765171 0
M  V30 6062 H 570.562 2.75774 -1.1398 0
M  V30 6063 C 569.311 3.44098 0.499208 0
M  V30 6064 H 568.634 3.99449 -0.167579 0
M  V30 6065 H 570.074 4.15202 0.859273 0
M  V30 6066 C 568.533 2.91684 1.68588 0
M  V30 6067 O 569.063 2.89481 2.78503 0
M  V30 6068 N 567.269 2.48036 1.51415 0
M  V30 6069 H 566.816 2.50027 0.620006 0
M  V30 6070 H 566.774 2.13322 2.30957 0
M  V30 6071 N 570.547 0.616602 1.45037 0
M  V30 6072 C 571.772 0.120192 2.07051 0
M  V30 6073 C 572.197 -1.19008 1.45666 0
M  V30 6074 O 571.555 -1.7267 0.552692 0
M  V30 6075 C 571.603 0.00354901 3.606 0
M  V30 6076 O 570.707 -1.04431 3.98958 0
M  V30 6077 H 570.048 0.0781599 0.659384 0
M  V30 6078 H 572.578 0.849167 1.86146 0
M  V30 6079 H 572.588 -0.191754 4.07549 0
M  V30 6080 H 571.263 0.960239 4.04663 0
M  V30 6081 H 569.84 -0.824749 3.63665 0
M  V30 6082 N 572.025 -1.5352 0.356285 0
M  V30 6083 C 572.957 -2.23009 -0.529127 0
M  V30 6084 C 573.97 -1.241 -1.05371 0
M  V30 6085 O 575.159 -1.50379 -0.961679 0
M  V30 6086 C 572.259 -2.90685 -1.74229 0
M  V30 6087 C 571.432 -4.16019 -1.35081 0
M  V30 6088 C 570.491 -4.66989 -2.42502 0
M  V30 6089 O 569.517 -5.30895 -2.05279 0
M  V30 6090 N 570.719 -4.44006 -3.7395 0
M  V30 6091 H 573.484 -2.99627 0.0660501 0
M  V30 6092 H 571.045 -1.60885 0.181014 0
M  V30 6093 H 573.037 -3.21695 -2.4555 0
M  V30 6094 H 571.607 -2.17575 -2.24454 0
M  V30 6095 H 570.827 -3.91414 -0.467833 0
M  V30 6096 H 572.115 -4.9752 -1.06542 0
M  V30 6097 H 571.513 -3.92924 -4.06973 0
M  V30 6098 H 570.07 -4.7959 -4.41403 0
M  V30 6099 N 573.503 -0.0852151 -1.57369 0
M  V30 6100 C 574.728 0.592872 -1.98746 0
M  V30 6101 C 575.153 1.61538 -0.963689 0
M  V30 6102 O 574.511 1.81168 0.069071 0
M  V30 6103 C 574.559 1.22599 -3.39119 0
M  V30 6104 O 573.663 2.34185 -3.39457 0
M  V30 6105 H 573.004 0.151314 -0.646529 0
M  V30 6106 H 575.534 -0.163703 -2.03944 0
M  V30 6107 H 575.544 1.56965 -3.76598 0
M  V30 6108 H 574.219 0.476831 -4.13158 0
M  V30 6109 H 572.796 2.01512 -3.13763 0
M  V30 6110 N 574.981 1.5647 0.188427 0
M  V30 6111 C 575.913 1.91611 1.25769 0
M  V30 6112 C 576.926 0.807436 1.41366 0
M  V30 6113 O 578.115 1.08586 1.41673 0
M  V30 6114 C 575.215 2.13874 2.6289 0
M  V30 6115 C 574.388 3.45047 2.68815 0
M  V30 6116 C 573.447 3.56342 3.87178 0
M  V30 6117 O 572.473 4.29109 3.73971 0
M  V30 6118 N 573.675 2.89924 5.02916 0
M  V30 6119 H 576.44 2.8393 0.959373 0
M  V30 6120 H 574.001 1.57418 0.378306 0
M  V30 6121 H 575.993 2.18713 3.4051 0
M  V30 6122 H 574.563 1.28022 2.85183 0
M  V30 6123 H 573.783 3.52017 1.77419 0
M  V30 6124 H 575.071 4.31395 2.6977 0
M  V30 6125 H 574.469 2.30644 5.16546 0
M  V30 6126 H 573.026 3.0038 5.78459 0
M  V30 6127 N 576.459 -0.456382 1.50847 0
M  V30 6128 C 577.422 -1.53493 1.70213 0
M  V30 6129 C 578.422 -1.50264 0.572481 0
M  V30 6130 O 579.612 -1.52623 0.839751 0
M  V30 6131 C 576.744 -2.93091 1.741 0
M  V30 6132 H 577.937 -1.37633 2.66453 0
M  V30 6133 H 575.49 -0.683776 1.4055 0
M  V30 6134 H 576.225 -3.14378 0.796063 0
M  V30 6135 H 576.01 -2.9684 2.5618 0
M  V30 6136 H 577.5 -3.71368 1.90987 0
M  V30 6137 N 577.937 -1.40673 -0.710563 0
M  V30 6138 C 578.884 -1.41336 -1.82463 0
M  V30 6139 C 579.854 -0.269648 -1.63897 0
M  V30 6140 O 581.039 -0.468463 -1.8496 0
M  V30 6141 C 578.179 -1.28665 -3.20218 0
M  V30 6142 C 577.292 -2.52784 -3.5032 0
M  V30 6143 C 576.427 -2.32517 -4.77608 0
M  V30 6144 C 575.466 -3.52187 -5.0063 0
M  V30 6145 N 574.603 -3.31084 -6.19135 0
M  V30 6146 H 579.443 -2.36558 -1.8123 0
M  V30 6147 H 576.98 -1.17483 -0.885226 0
M  V30 6148 H 578.938 -1.19324 -3.99772 0
M  V30 6149 H 577.568 -0.370602 -3.20666 0
M  V30 6150 H 576.62 -2.72634 -2.65283 0
M  V30 6151 H 577.932 -3.41845 -3.63241 0
M  V30 6152 H 577.086 -2.20558 -5.65189 0
M  V30 6153 H 575.825 -1.40889 -4.66906 0
M  V30 6154 H 574.83 -3.64617 -4.11502 0
M  V30 6155 H 576.055 -4.44749 -5.13201 0
M  V30 6156 H 574.001 -2.42143 -6.09674 0
M  V30 6157 H 573.918 -4.13713 -6.32754 0
M  V30 6158 H 575.186 -3.22868 -7.0949 0
M  V30 6159 N 579.415 0.9433 -1.26252 0
M  V30 6160 C 580.643 1.72367 -1.14443 0
M  V30 6161 C 581.058 1.86392 0.300572 0
M  V30 6162 O 580.415 1.36978 1.20596 0
M  V30 6163 C 580.466 3.13155 -1.806 0
M  V30 6164 O 580.187 2.99803 -3.19452 0
M  V30 6165 C 581.688 4.07417 -1.74717 0
M  V30 6166 H 578.908 0.539758 -0.398626 0
M  V30 6167 H 581.452 1.18268 -1.66832 0
M  V30 6168 H 579.607 3.64162 -1.32154 0
M  V30 6169 H 580.021 3.88697 -3.52158 0
M  V30 6170 H 581.495 5.03773 -2.25647 0
M  V30 6171 H 581.972 4.3337 -0.713244 0
M  V30 6172 H 582.578 3.6233 -2.22704 0
M  V30 6173 N 580.893 1.08022 1.14757 0
M  V30 6174 C 582.123 0.827646 1.89298 0
M  V30 6175 C 582.531 -0.623506 1.78631 0
M  V30 6176 O 581.874 -1.43991 1.14071 0
M  V30 6177 C 581.936 1.16553 3.40082 0
M  V30 6178 C 581.6 2.61866 3.74533 0
M  V30 6179 C 582.597 3.60116 3.74984 0
M  V30 6180 C 580.282 2.97619 4.04633 0
M  V30 6181 C 582.276 4.92151 4.05051 0
M  V30 6182 C 579.963 4.2985 4.34364 0
M  V30 6183 C 580.961 5.26926 4.34555 0
M  V30 6184 O 580.649 6.5678 4.63568 0
M  V30 6185 H 580.381 0.298396 0.606577 0
M  V30 6186 H 582.935 1.44187 1.46285 0
M  V30 6187 H 581.165 0.494296 3.83528 0
M  V30 6188 H 582.854 0.894407 3.95923 0
M  V30 6189 H 583.62 3.33837 3.51821 0
M  V30 6190 H 579.499 2.22702 4.03639 0
M  V30 6191 H 583.043 5.67915 4.05115 0
M  V30 6192 H 578.94 4.55879 4.56995 0
M  V30 6193 H 579.708 6.62035 4.81303 0
M  V30 6194 N 582.371 -1.3172 0.865308 0
M  V30 6195 C 583.599 -2.01057 0.488251 0
M  V30 6196 C 584.014 -1.64979 -0.918 0
M  V30 6197 O 583.371 -0.876597 -1.60069 0
M  V30 6198 C 583.422 -3.55964 0.630224 0
M  V30 6199 O 583.143 -3.90749 1.98109 0
M  V30 6200 C 584.644 -4.42574 0.253567 0
M  V30 6201 H 581.864 -0.64332 0.190736 0
M  V30 6202 H 584.408 -1.68058 1.16519 0
M  V30 6203 H 582.563 -3.874 0.000895422 0
M  V30 6204 H 582.977 -4.85467 1.9855 0
M  V30 6205 H 584.451 -5.50521 0.403875 0
M  V30 6206 H 584.928 -4.31724 -0.806895 0
M  V30 6207 H 585.534 -4.16547 0.858404 0
M  V30 6208 N 583.85 -0.624285 -1.44708 0
M  V30 6209 C 584.783 0.133905 -2.27807 0
M  V30 6210 C 585.76 0.857794 -1.38133 0
M  V30 6211 O 586.945 0.863277 -1.6757 0
M  V30 6212 C 584.072 1.19541 -3.16903 0
M  V30 6213 C 583.118 0.572813 -4.22636 0
M  V30 6214 S 583.951 -0.631953 -5.31758 0
M  V30 6215 C 585.106 0.429733 -6.24423 0
M  V30 6216 H 585.34 -0.571072 -2.91764 0
M  V30 6217 H 582.873 -0.412261 -1.48794 0
M  V30 6218 H 584.831 1.80293 -3.68788 0
M  V30 6219 H 583.492 1.87255 -2.5218 0
M  V30 6220 H 582.685 1.37205 -4.84965 0
M  V30 6221 H 582.287 0.0400641 -3.73979 0
M  V30 6222 H 584.579 1.30421 -6.64828 0
M  V30 6223 H 585.522 -0.157804 -7.07924 0
M  V30 6224 H 585.93 0.75256 -5.59461 0
M  V30 6225 N 585.328 1.53329 -0.364422 0
M  V30 6226 C 586.238 2.29414 0.490552 0
M  V30 6227 C 587.254 1.35335 1.09363 0
M  V30 6228 O 588.43 1.68391 1.10483 0
M  V30 6229 C 585.495 3.06772 1.61529 0
M  V30 6230 C 584.556 4.16516 1.03986 0
M  V30 6231 C 583.789 4.90176 2.111 0
M  V30 6232 O 584.012 4.63687 3.32191 0
M  V30 6233 O 582.946 5.76134 1.74222 0
M  V30 6234 H 586.772 3.03428 -0.12856 0
M  V30 6235 H 584.357 1.48843 -0.128837 0
M  V30 6236 H 586.239 3.55082 2.26924 0
M  V30 6237 H 584.914 2.35596 2.21983 0
M  V30 6238 H 583.821 3.7246 0.349856 0
M  V30 6239 H 585.154 4.89855 0.4799 0
M  V30 6240 N 586.806 0.0935595 1.57322 0
M  V30 6241 C 588.222 -0.263091 1.57417 0
M  V30 6242 C 588.422 -1.68526 1.1046 0
M  V30 6243 O 587.478 -2.40139 0.780357 0
M  V30 6244 C 588.791 -0.0529201 3.00653 0
M  V30 6245 C 590.339 -0.120788 3.12767 0
M  V30 6246 C 590.814 0.0613707 4.57959 0
M  V30 6247 N 592.305 0.00648534 4.632 0
M  V30 6248 C 593.04 0.122699 5.73269 0
M  V30 6249 N 592.536 0.29366 6.92177 0
M  V30 6250 N 594.329 0.0640787 5.62063 0
M  V30 6251 H 586.48 1.02277 1.86154 0
M  V30 6252 H 588.743 0.4007 0.859153 0
M  V30 6253 H 588.449 0.929279 3.39201 0
M  V30 6254 H 588.323 -0.795899 3.68708 0
M  V30 6255 H 590.71 -1.09349 2.74093 0
M  V30 6256 H 590.791 0.653656 2.47307 0
M  V30 6257 H 590.435 1.03093 4.97327 0
M  V30 6258 H 590.365 -0.732748 5.21477 0
M  V30 6259 H 592.856 -0.123173 3.77699 0
M  V30 6260 H 593.169 0.37389 7.71895 0
M  V30 6261 H 591.514 0.329307 6.94219 0
M  V30 6262 H 594.705 -0.0683396 4.6805 0
M  V30 6263 H 594.878 0.158097 6.47807 0
M  V30 6264 N 588.284 -1.56567 -0.180126 0
M  V30 6265 C 589.524 -1.83285 -0.904761 0
M  V30 6266 C 589.888 -0.673226 -1.7981 0
M  V30 6267 O 591.089 -0.820645 -2.55967 0
M  V30 6268 C 589.36 -3.15086 -1.68688 0
M  V30 6269 S 590.919 -3.63258 -2.46149 0
M  V30 6270 H 587.737 -0.643114 -0.303193 0
M  V30 6271 H 590.339 -1.94785 -0.167034 0
M  V30 6272 H 589.043 -3.97484 -1.02148 0
M  V30 6273 H 588.574 -3.06504 -2.46615 0
M  V30 6274 H 590.589 -3.29884 -3.70663 0
M  V30 6275 N 589.762 0.448376 -1.51087 0
M  V30 6276 C 590.712 1.54156 -1.67988 0
M  V30 6277 C 591.696 1.5178 -0.534015 0
M  V30 6278 O 592.888 1.58419 -0.789448 0
M  V30 6279 C 590.017 2.92437 -1.79822 0
M  V30 6280 C 589.103 2.99611 -3.00157 0
M  V30 6281 N 589.494 2.7655 -4.23502 0
M  V30 6282 C 587.792 3.30764 -2.99184 0
M  V30 6283 C 588.493 2.89281 -5.0467 0
M  V30 6284 N 587.469 3.20473 -4.39088 0
M  V30 6285 H 591.271 1.35061 -2.61028 0
M  V30 6286 H 588.785 0.655504 -1.48583 0
M  V30 6287 H 590.782 3.71068 -1.90037 0
M  V30 6288 H 589.442 3.1256 -0.879554 0
M  V30 6289 H 590.453 2.5169 -4.52628 0
M  V30 6290 H 587.13 3.56732 -2.16907 0
M  V30 6291 H 588.52 2.75499 -6.12821 0
M  V30 6292 N 591.24 1.41047 0.703093 0
M  V30 6293 C 592.465 1.43537 1.49706 0
M  V30 6294 C 592.89 0.0401853 1.88057 0
M  V30 6295 O 592.248 -0.954785 1.54122 0
M  V30 6296 C 592.296 2.3433 2.74084 0
M  V30 6297 O 591.4 1.79515 3.71279 0
M  V30 6298 H 590.741 0.487454 0.450871 0
M  V30 6299 H 593.271 1.85422 0.86486 0
M  V30 6300 H 593.281 2.49947 3.22476 0
M  V30 6301 H 591.956 3.35708 2.45506 0
M  V30 6302 H 590.533 1.7331 3.30179 0
M  V30 6303 N 592.718 -0.936591 1.26751 0
M  V30 6304 C 593.681 -2.01752 1.08761 0
M  V30 6305 C 594.681 -1.60763 0.0344435 0
M  V30 6306 O 595.871 -1.71963 0.278258 0
M  V30 6307 C 593.003 -3.34543 0.655271 0
M  V30 6308 H 594.196 -2.19143 2.04735 0
M  V30 6309 H 591.749 -1.11618 1.09413 0
M  V30 6310 H 592.484 -3.22851 -0.30626 0
M  V30 6311 H 592.269 -3.65647 1.41578 0
M  V30 6312 H 593.759 -4.13944 0.551378 0
M  V30 6313 N 594.196 -1.08629 -1.14182 0
M  V30 6314 C 595.106 -0.730126 -2.22949 0
M  V30 6315 C 596.122 0.26436 -1.7198 0
M  V30 6316 O 597.298 0.107742 -2.01112 0
M  V30 6317 C 594.363 -0.147227 -3.46387 0
M  V30 6318 C 593.424 -1.19662 -4.12286 0
M  V30 6319 C 592.657 -0.641437 -5.29831 0
M  V30 6320 O 592.88 0.538351 -5.67854 0
M  V30 6321 O 591.814 -1.39257 -5.85569 0
M  V30 6322 H 595.64 -1.63753 -2.55771 0
M  V30 6323 H 593.225 -0.860118 -1.22157 0
M  V30 6324 H 595.107 0.174923 -4.21037 0
M  V30 6325 H 593.782 0.733304 -3.15285 0
M  V30 6326 H 592.689 -1.57133 -3.395 0
M  V30 6327 H 594.022 -2.0495 -4.475 0
M  V30 6328 N 595.674 1.31259 -0.872281 0
M  V30 6329 C 596.607 2.26544 -0.274394 0
M  V30 6330 C 597.585 1.51213 0.597776 0
M  V30 6331 O 598.769 1.80277 0.550687 0
M  V30 6332 C 595.896 3.33139 0.611256 0
M  V30 6333 C 594.942 4.26077 -0.189876 0
M  V30 6334 S 595.775 5.11971 -1.56989 0
M  V30 6335 C 596.931 6.2208 -0.690427 0
M  V30 6336 H 597.164 2.76908 -1.0821 0
M  V30 6337 H 594.697 1.3906 -0.670939 0
M  V30 6338 H 596.655 3.95024 1.11654 0
M  V30 6339 H 595.316 2.81525 1.39294 0
M  V30 6340 H 594.509 5.01657 0.485433 0
M  V30 6341 H 594.111 3.68701 -0.627339 0
M  V30 6342 H 596.403 6.77429 0.098001 0
M  V30 6343 H 597.346 6.93768 -1.41742 0
M  V30 6344 H 597.754 5.63915 -0.256953 0
M  V30 6345 N 597.152 0.631951 1.44375 0
M  V30 6346 C 598.082 -0.0593243 2.33425 0
M  V30 6347 C 599.063 -0.833964 1.48253 0
M  V30 6348 O 600.248 -0.799682 1.76971 0
M  V30 6349 C 597.378 -1.04096 3.31333 0
M  V30 6350 C 596.332 -0.377899 4.26328 0
M  V30 6351 C 595.658 -1.4695 5.14111 0
M  V30 6352 C 596.958 0.716371 5.17364 0
M  V30 6353 H 598.652 0.684287 2.91475 0
M  V30 6354 H 596.198 0.330518 1.40156 0
M  V30 6355 H 598.151 -1.53331 3.92514 0
M  V30 6356 H 596.875 -1.81547 2.71493 0
M  V30 6357 H 595.534 0.0938054 3.6648 0
M  V30 6358 H 595.182 -2.2349 4.50623 0
M  V30 6359 H 594.882 -1.03121 5.78481 0
M  V30 6360 H 596.406 -1.96363 5.78164 0
M  V30 6361 H 597.82 0.307089 5.72477 0
M  V30 6362 H 596.217 1.07784 5.90341 0
M  V30 6363 H 597.287 1.58316 4.58327 0
M  V30 6364 N 598.631 -1.53133 0.372548 0
M  V30 6365 C 599.856 -2.0625 -0.218098 0
M  V30 6366 C 600.281 -1.24375 -1.41111 0
M  V30 6367 O 599.639 -0.264554 -1.79359 0
M  V30 6368 C 599.687 -3.55858 -0.582876 0
M  V30 6369 O 598.791 -3.76667 -1.67917 0
M  V30 6370 H 598.132 -0.663317 -0.030104 0
M  V30 6371 H 600.662 -1.97477 0.535169 0
M  V30 6372 H 600.672 -3.99007 -0.851925 0
M  V30 6373 H 599.347 -4.14892 0.289428 0
M  V30 6374 H 597.924 -3.45413 -1.40513 0
M  V30 6375 N 600.109 -0.101901 -1.5727 0
M  V30 6376 C 601.355 0.561027 -1.94885 0
M  V30 6377 C 601.688 1.6741 -0.984258 0
M  V30 6378 O 600.963 1.94491 -0.0184767 0
M  V30 6379 C 601.246 1.10982 -3.42571 0
M  V30 6380 C 601.099 0.00133418 -4.498 0
M  V30 6381 C 602.418 2.00608 -3.9172 0
M  V30 6382 H 599.537 0.202467 -0.708644 0
M  V30 6383 H 602.179 -0.173992 -1.89202 0
M  V30 6384 H 600.329 1.73621 -3.47546 0
M  V30 6385 H 602.001 -0.63322 -4.56933 0
M  V30 6386 H 600.244 -0.664143 -4.28686 0
M  V30 6387 H 600.915 0.426253 -5.50352 0
M  V30 6388 H 603.391 1.47864 -3.88941 0
M  V30 6389 H 602.267 2.3593 -4.95609 0
M  V30 6390 H 602.528 2.92608 -3.3141 0
M  V30 6391 N 601.587 1.56661 0.17182 0
M  V30 6392 C 602.812 1.86459 0.908165 0
M  V30 6393 C 603.237 0.688181 1.75059 0
M  V30 6394 O 602.595 -0.362753 1.77634 0
M  V30 6395 C 602.643 3.14669 1.76112 0
M  V30 6396 O 601.747 2.96858 2.86268 0
M  V30 6397 H 601.088 0.613318 0.254434 0
M  V30 6398 H 603.618 2.03892 0.170113 0
M  V30 6399 H 603.628 3.46061 2.16115 0
M  V30 6400 H 602.303 3.99905 1.14233 0
M  V30 6401 H 600.88 2.76819 2.49852 0
M  V30 6402 N 603.065 -0.440357 1.51323 0
M  V30 6403 C 604.012 -1.53429 1.72419 0
M  V30 6404 C 604.982 -1.56165 0.565826 0
M  V30 6405 O 606.167 -1.73222 0.799917 0
M  V30 6406 C 603.307 -2.91169 1.85242 0
M  V30 6407 C 602.42 -2.97985 3.12777 0
M  V30 6408 C 601.555 -4.26829 3.16212 0
M  V30 6409 C 600.594 -4.27501 4.38074 0
M  V30 6410 N 599.731 -5.47866 4.39076 0
M  V30 6411 H 604.571 -1.34743 2.65797 0
M  V30 6412 H 602.108 -0.654608 1.31732 0
M  V30 6413 H 604.066 -3.71087 1.90658 0
M  V30 6414 H 602.696 -3.0842 0.952744 0
M  V30 6415 H 601.748 -2.10749 3.16685 0
M  V30 6416 H 603.06 -2.94342 4.02696 0
M  V30 6417 H 602.214 -5.15118 3.20527 0
M  V30 6418 H 600.953 -4.33124 2.24176 0
M  V30 6419 H 599.958 -3.37606 4.33938 0
M  V30 6420 H 601.183 -4.22873 5.31371 0
M  V30 6421 H 599.129 -5.54887 3.49909 0
M  V30 6422 H 599.046 -5.46091 5.22801 0
M  V30 6423 H 600.314 -6.38195 4.4758 0
M  V30 6424 N 604.543 -1.41418 -0.695603 0
M  V30 6425 C 605.959 -1.23887 -1.00619 0
M  V30 6426 C 606.159 -0.128206 -2.01092 0
M  V30 6427 O 605.215 0.507408 -2.47349 0
M  V30 6428 C 606.528 -2.58816 -1.53083 0
M  V30 6429 C 608.076 -2.65998 -1.64967 0
M  V30 6430 C 608.551 -4.01244 -2.20833 0
M  V30 6431 N 610.042 -4.0309 -2.28194 0
M  V30 6432 C 610.777 -5.04539 -2.72448 0
M  V30 6433 N 610.273 -6.16378 -3.16306 0
M  V30 6434 N 612.066 -4.91901 -2.72011 0
M  V30 6435 H 604.217 -2.12379 -0.0300061 0
M  V30 6436 H 606.48 -0.944958 -0.0758797 0
M  V30 6437 H 606.186 -3.40842 -0.867147 0
M  V30 6438 H 606.06 -2.81299 -2.51298 0
M  V30 6439 H 608.447 -1.84331 -2.30448 0
M  V30 6440 H 608.528 -2.47325 -0.652982 0
M  V30 6441 H 608.172 -4.83359 -1.55968 0
M  V30 6442 H 608.102 -4.17257 -3.21254 0
M  V30 6443 H 610.593 -3.22341 -1.97242 0
M  V30 6444 H 610.906 -6.89658 -3.487 0
M  V30 6445 H 609.251 -6.19914 -3.14215 0
M  V30 6446 H 612.442 -4.03613 -2.37095 0
M  V30 6447 H 612.615 -5.71102 -3.06181 0
M  V30 6448 N 606.021 0.929856 -1.27246 0
M  V30 6449 C 607.246 1.71674 -1.16374 0
M  V30 6450 C 607.671 1.86064 0.276024 0
M  V30 6451 O 607.029 1.3591 1.19992 0
M  V30 6452 C 607.077 3.09526 -1.85003 0
M  V30 6453 O 606.181 3.96142 -1.14653 0
M  V30 6454 H 605.522 0.52629 -0.404863 0
M  V30 6455 H 608.052 1.16381 -1.68276 0
M  V30 6456 H 608.062 3.59852 -1.92276 0
M  V30 6457 H 606.737 2.98369 -2.89739 0
M  V30 6458 H 605.314 3.54584 -1.15433 0
M  V30 6459 N 607.499 1.09233 1.13605 0
M  V30 6460 C 608.747 0.825525 1.84471 0
M  V30 6461 C 609.068 -0.650702 1.83823 0
M  V30 6462 O 608.338 -1.47204 1.29259 0
M  V30 6463 H 606.918 0.3024 0.683054 0
M  V30 6464 H 609.58 1.38006 1.37624 0
M  V30 6465 H 608.676 1.17727 2.89045 0
M  V30 6466 N 608.977 -1.30795 0.87923 0
M  V30 6467 C 610.225 -1.95974 0.493809 0
M  V30 6468 C 610.546 -1.69787 -0.959021 0
M  V30 6469 O 609.816 -1.01832 -1.67353 0
M  V30 6470 H 608.396 -0.725083 0.179622 0
M  V30 6471 H 611.058 -1.59432 1.12105 0
M  V30 6472 H 610.154 -3.05058 0.659263 0
M  V30 6473 N 610.455 -0.639598 -1.44038 0
M  V30 6474 C 611.703 -0.147188 -2.01563 0
M  V30 6475 C 612.024 1.2384 -1.50628 0
M  V30 6476 O 611.294 1.82452 -0.713316 0
M  V30 6477 H 609.874 -0.0514231 -0.745228 0
M  V30 6478 H 612.536 -0.828205 -1.76428 0
M  V30 6479 H 611.632 -0.121358 -3.11864 0
M  V30 6480 N 611.933 1.52934 -0.380664 0
M  V30 6481 C 612.843 2.29921 0.466192 0
M  V30 6482 C 613.859 1.36488 1.07922 0
M  V30 6483 O 615.035 1.69553 1.0869 0
M  V30 6484 C 612.1 3.08468 1.58266 0
M  V30 6485 C 611.161 4.17595 0.995627 0
M  V30 6486 C 610.394 4.92387 2.05889 0
M  V30 6487 O 610.617 4.67184 3.27254 0
M  V30 6488 O 609.551 5.77949 1.68102 0
M  V30 6489 H 613.377 3.03274 -0.160735 0
M  V30 6490 H 610.962 1.48698 -0.144617 0
M  V30 6491 H 612.844 3.57469 2.23145 0
M  V30 6492 H 611.519 2.37937 2.19471 0
M  V30 6493 H 610.426 3.72811 0.310332 0
M  V30 6494 H 611.759 4.90336 0.427918 0
M  V30 6495 N 613.412 0.11024 1.57214 0
M  V30 6496 C 614.36 -0.860586 2.16094 0
M  V30 6497 C 615.354 -1.28156 1.1078 0
M  V30 6498 O 616.56 -1.25433 1.29099 0
M  V30 6499 H 612.935 -0.295606 0.691463 0
M  V30 6500 H 614.906 -0.33942 2.96463 0
M  V30 6501 C 613.655 -2.10421 2.768 0
M  V30 6502 H 612.978 -1.7892 3.5753 0
M  V30 6503 H 614.418 -2.76375 3.21547 0
M  V30 6504 C 612.877 -2.88823 1.73444 0
M  V30 6505 O 613.407 -3.839 1.18251 0
M  V30 6506 N 611.613 -2.52649 1.43586 0
M  V30 6507 H 611.16 -1.754 1.8866 0
M  V30 6508 H 611.118 -3.05403 0.746735 0
M  V30 6509 N 614.89 -1.56749 -0.16351 0
M  V30 6510 C 615.8 -2.00255 -1.2221 0
M  V30 6511 C 616.816 -0.915194 -1.47987 0
M  V30 6512 O 617.992 -1.22342 -1.59982 0
M  V30 6513 C 615.057 -2.36035 -2.53946 0
M  V30 6514 C 614.118 -3.58637 -2.35962 0
M  V30 6515 C 613.351 -3.92701 -3.61416 0
M  V30 6516 O 613.574 -3.27632 -4.66919 0
M  V30 6517 O 612.508 -4.86019 -3.55062 0
M  V30 6518 H 616.334 -2.90586 -0.882794 0
M  V30 6519 H 613.919 -1.44721 -0.370978 0
M  V30 6520 H 615.801 -2.59982 -3.31643 0
M  V30 6521 H 614.476 -1.48863 -2.8744 0
M  V30 6522 H 613.383 -3.39898 -1.5627 0
M  V30 6523 H 614.716 -4.46374 -2.0739 0
M  V30 6524 N 616.368 0.432326 -1.51554 0
M  V30 6525 C 617.278 1.55023 -1.76082 0
M  V30 6526 C 618.294 1.61593 -0.645265 0
M  V30 6527 O 619.47 1.78742 -0.928086 0
M  V30 6528 C 616.535 2.90964 -1.88523 0
M  V30 6529 C 615.596 2.9447 -3.12388 0
M  V30 6530 C 614.829 4.23926 -3.24225 0
M  V30 6531 O 615.052 5.16576 -2.4188 0
M  V30 6532 O 613.986 4.33818 -4.17235 0
M  V30 6533 H 617.812 1.37238 -2.70923 0
M  V30 6534 H 615.397 0.615845 -1.36117 0
M  V30 6535 H 617.279 3.71633 -1.98662 0
M  V30 6536 H 615.954 3.08865 -0.9687 0
M  V30 6537 H 614.861 2.12737 -3.07723 0
M  V30 6538 H 616.194 2.81514 -4.03746 0
M  V30 6539 N 617.846 1.41785 0.688094 0
M  V30 6540 C 619.262 1.24419 0.999608 0
M  V30 6541 C 619.462 0.138868 2.01021 0
M  V30 6542 O 618.518 -0.494283 2.47615 0
M  V30 6543 C 619.831 2.59625 1.51709 0
M  V30 6544 C 621.379 2.66869 1.63554 0
M  V30 6545 C 621.854 4.0241 2.18702 0
M  V30 6546 N 623.345 4.04295 2.26053 0
M  V30 6547 C 624.08 5.05977 2.69768 0
M  V30 6548 N 623.576 6.18047 3.13033 0
M  V30 6549 N 625.369 4.93336 2.69398 0
M  V30 6550 H 617.52 2.12392 0.0187427 0
M  V30 6551 H 619.783 0.945347 0.0708673 0
M  V30 6552 H 619.489 3.41297 0.849059 0
M  V30 6553 H 619.363 2.82628 2.49803 0
M  V30 6554 H 621.75 1.8555 2.29467 0
M  V30 6555 H 621.831 2.47668 0.639857 0
M  V30 6556 H 621.475 4.8418 1.53402 0
M  V30 6557 H 621.405 4.18955 3.19037 0
M  V30 6558 H 623.896 3.23383 1.9553 0
M  V30 6559 H 624.209 6.91498 3.45038 0
M  V30 6560 H 622.554 6.21572 3.10923 0
M  V30 6561 H 625.745 4.04865 2.34952 0
M  V30 6562 H 625.918 5.72717 3.03148 0
M  V30 6563 N 619.324 -0.923095 1.27737 0
M  V30 6564 C 620.554 -1.70277 1.17001 0
M  V30 6565 C 620.962 -1.87188 -0.275199 0
M  V30 6566 O 620.305 -1.39195 -1.19877 0
M  V30 6567 C 620.367 -3.11976 1.78637 0
M  V30 6568 C 620.031 -3.18386 3.27841 0
M  V30 6569 C 621.028 -3.00287 4.2441 0
M  V30 6570 C 618.713 -3.41198 3.68632 0
M  V30 6571 C 620.707 -3.04896 5.59747 0
M  V30 6572 C 618.394 -3.4544 5.04097 0
M  V30 6573 C 619.392 -3.27309 5.99465 0
M  V30 6574 O 619.08 -3.31295 7.32461 0
M  V30 6575 H 618.812 -0.539366 0.407505 0
M  V30 6576 H 621.366 -1.16446 1.69202 0
M  V30 6577 H 619.596 -3.67308 1.20919 0
M  V30 6578 H 621.285 -3.7193 1.6255 0
M  V30 6579 H 622.051 -2.825 3.94232 0
M  V30 6580 H 617.93 -3.54359 2.94873 0
M  V30 6581 H 621.474 -2.90662 6.34162 0
M  V30 6582 H 617.371 -3.62753 5.33929 0
M  V30 6583 H 618.139 -3.47719 7.40968 0
M  V30 6584 N 620.802 -1.09834 -1.13024 0
M  V30 6585 C 622.027 -0.85909 -1.88771 0
M  V30 6586 C 622.452 0.584402 -1.78791 0
M  V30 6587 O 621.81 1.41101 -1.13842 0
M  V30 6588 C 621.858 -1.30427 -3.36186 0
M  V30 6589 O 620.962 -0.465368 -4.09766 0
M  V30 6590 H 620.303 -0.310786 -0.586778 0
M  V30 6591 H 622.833 -1.46355 -1.42973 0
M  V30 6592 H 622.843 -1.2915 -3.8702 0
M  V30 6593 H 621.518 -2.3555 -3.42767 0
M  V30 6594 H 620.095 -0.542814 -3.68928 0
M  V30 6595 N 622.28 1.30327 -0.886154 0
M  V30 6596 C 623.691 1.78243 -0.555554 0
M  V30 6597 C 624.042 1.72849 0.928314 0
M  V30 6598 O 623.167 1.30607 1.72542 0
M  V30 6599 C 623.762 3.23654 -1.00168 0
M  V30 6600 C 622.321 3.69401 -0.722471 0
M  V30 6601 C 621.468 2.50753 -1.18399 0
M  V30 6602 H 624.419 1.1718 -1.07026 0
M  V30 6603 H 624.44 3.79056 -0.331152 0
M  V30 6604 H 623.952 3.27548 -2.08169 0
M  V30 6605 H 622.053 3.70995 0.345496 0
M  V30 6606 H 622.166 4.60818 -1.31085 0
M  V30 6607 H 620.53 2.47452 -0.603303 0
M  V30 6608 H 621.313 2.57383 -2.27176 0
M  V30 6609 N 623.758 0.647228 1.43697 0
M  V30 6610 C 624.986 0.16575 2.06235 0
M  V30 6611 C 625.401 -1.1662 1.48476 0
M  V30 6612 O 624.758 -1.7187 0.613762 0
M  V30 6613 C 624.809 0.0621651 3.61447 0
M  V30 6614 O 624.53 1.34146 4.17057 0
M  V30 6615 C 626.031 -0.446102 4.4105 0
M  V30 6616 H 623.251 0.0871158 0.665321 0
M  V30 6617 H 625.795 0.886183 1.84301 0
M  V30 6618 H 623.95 -0.608794 3.82587 0
M  V30 6619 H 624.364 1.19675 5.10664 0
M  V30 6620 H 625.838 -0.46755 5.50016 0
M  V30 6621 H 626.315 -1.47627 4.13646 0
M  V30 6622 H 626.921 0.192159 4.24866 0
M  V30 6623 N 625.236 -1.5273 0.388769 0
M  V30 6624 C 626.513 -1.93981 -0.251133 0
M  V30 6625 C 626.893 -1.32418 -1.64404 0
M  V30 6626 O 626.241 -0.492074 -2.23139 0
M  V30 6627 C 626.451 -3.47891 -0.27802 0
M  V30 6628 C 627.799 -4.21559 -0.507229 0
M  V30 6629 O 628.823 -3.54394 -0.358252 0
M  V30 6630 O 627.682 -5.40626 -0.799094 0
M  V30 6631 H 624.776 -0.812157 -0.15598 0
M  V30 6632 H 627.322 -1.63809 0.443237 0
M  V30 6633 H 626.094 -3.8503 0.697669 0
M  V30 6634 H 625.717 -3.84364 -1.01733 0
M  V30 6635 N 626.714 -0.118576 -1.57153 0
M  V30 6636 C 627.662 0.849114 -2.16547 0
M  V30 6637 C 628.656 1.27567 -1.11458 0
M  V30 6638 O 629.862 1.24746 -1.29763 0
M  V30 6639 H 626.237 0.291935 -0.693021 0
M  V30 6640 H 628.208 0.323693 -2.96639 0
M  V30 6641 C 626.957 2.08951 -2.77912 0
M  V30 6642 H 626.28 1.77021 -3.58474 0
M  V30 6643 H 627.72 2.74666 -3.23008 0
M  V30 6644 C 626.179 2.87899 -1.74974 0
M  V30 6645 O 626.709 3.83268 -1.20285 0
M  V30 6646 N 624.915 2.51884 -1.44924 0
M  V30 6647 H 624.462 1.74397 -1.89587 0
M  V30 6648 H 624.42 3.05003 -0.762921 0
M  V30 6649 N 628.193 1.56834 0.155195 0
M  V30 6650 C 629.141 1.98584 1.21107 0
M  V30 6651 C 630.135 0.876987 1.44932 0
M  V30 6652 O 631.341 1.06215 1.45322 0
M  V30 6653 H 627.716 0.632039 0.407469 0
M  V30 6654 H 629.687 2.86561 0.832195 0
M  V30 6655 C 628.436 2.37555 2.53895 0
M  V30 6656 H 627.759 3.22428 2.3639 0
M  V30 6657 H 629.199 2.70598 3.26424 0
M  V30 6658 C 627.658 1.22507 3.13837 0
M  V30 6659 O 628.188 0.521388 3.98302 0
M  V30 6660 N 626.394 0.991444 2.73164 0
M  V30 6661 H 625.941 1.56544 2.04577 0
M  V30 6662 H 625.899 0.223546 3.13604 0
M  V30 6663 N 629.671 -0.424282 1.51781 0
M  V30 6664 C 630.634 -1.49848 1.73431 0
M  V30 6665 C 631.634 -1.49016 0.604225 0
M  V30 6666 O 632.824 -1.50808 0.871935 0
M  V30 6667 C 629.956 -2.89332 1.80277 0
M  V30 6668 H 631.149 -1.3195 2.69312 0
M  V30 6669 H 628.702 -0.653809 1.41968 0
M  V30 6670 H 629.437 -3.12618 0.862568 0
M  V30 6671 H 629.222 -2.9134 2.62419 0
M  V30 6672 H 630.712 -3.67233 1.98821 0
M  V30 6673 N 631.149 -1.42148 -0.680565 0
M  V30 6674 C 632.097 -1.45401 -1.81552 0
M  V30 6675 C 633.091 -0.33036 -1.66147 0
M  V30 6676 O 634.297 -0.503103 -1.72826 0
M  V30 6677 H 630.672 -0.455265 -0.59853 0
M  V30 6678 H 632.643 -2.41024 -1.75926 0
M  V30 6679 C 631.392 -1.36769 -3.19671 0
M  V30 6680 H 630.715 -2.22525 -3.32149 0
M  V30 6681 H 632.155 -1.43106 -3.9912 0
M  V30 6682 C 630.614 -0.0817752 -3.36801 0
M  V30 6683 O 631.144 0.867707 -3.92216 0
M  V30 6684 N 629.35 -0.000799811 -2.906 0
M  V30 6685 H 628.897 -0.774231 -2.4569 0
M  V30 6686 H 628.855 0.858961 -3.02439 0
M  V30 6687 N 632.627 0.916307 -1.28225 0
M  V30 6688 C 633.876 1.65975 -1.14608 0
M  V30 6689 C 634.189 1.93204 0.305191 0
M  V30 6690 O 635.395 2.65611 0.562432 0
M  V30 6691 C 633.851 2.98989 -2.00333 0
M  V30 6692 C 633.459 2.79417 -3.50186 0
M  V30 6693 C 635.203 3.76856 -1.95397 0
M  V30 6694 C 633.11 4.08056 -4.28071 0
M  V30 6695 H 632.04 0.622587 -0.425324 0
M  V30 6696 H 634.691 1.01705 -1.52736 0
M  V30 6697 H 633.073 3.6438 -1.5506 0
M  V30 6698 H 634.247 2.22723 -4.034 0
M  V30 6699 H 632.562 2.14966 -3.56621 0
M  V30 6700 H 635.159 4.72203 -2.50856 0
M  V30 6701 H 635.502 4.05776 -0.930137 0
M  V30 6702 H 636.035 3.1828 -2.38626 0
M  V30 6703 H 632.774 3.8431 -5.31024 0
M  V30 6704 H 632.294 4.64371 -3.79631 0
M  V30 6705 H 633.973 4.76333 -4.37854 0
M  V30 6706 N 634.105 1.10431 1.1244 0
M  V30 6707 C 635.352 0.846717 1.83948 0
M  V30 6708 C 635.68 -0.627709 1.84093 0
M  V30 6709 O 634.935 -1.47876 1.28184 0
M  V30 6710 C 635.234 1.34022 3.3132 0
M  V30 6711 C 634.9 2.82606 3.51347 0
M  V30 6712 C 633.562 3.23182 3.56521 0
M  V30 6713 C 635.914 3.78356 3.58464 0
M  V30 6714 C 633.242 4.58258 3.66356 0
M  V30 6715 C 635.594 5.13234 3.69829 0
M  V30 6716 C 634.258 5.53384 3.73259 0
M  V30 6717 H 633.528 0.309836 0.673114 0
M  V30 6718 H 636.175 1.38091 1.32677 0
M  V30 6719 H 634.48 0.726047 3.85014 0
M  V30 6720 H 636.177 1.11739 3.85118 0
M  V30 6721 H 632.767 2.50212 3.47983 0
M  V30 6722 H 636.951 3.48115 3.53737 0
M  V30 6723 H 632.207 4.88787 3.67284 0
M  V30 6724 H 636.381 5.87272 3.74279 0
M  V30 6725 H 634.008 6.58045 3.80633 0
M  V30 6726 N 635.583 -1.29855 0.893053 0
M  V30 6727 C 636.531 -2.29867 0.355512 0
M  V30 6728 C 637.525 -1.60502 -0.541801 0
M  V30 6729 O 638.731 -1.74902 -0.425339 0
M  V30 6730 H 635.106 -0.745805 0.0963247 0
M  V30 6731 H 637.077 -2.72655 1.21252 0
M  V30 6732 C 635.826 -3.453 -0.407801 0
M  V30 6733 H 635.149 -3.98864 0.273426 0
M  V30 6734 H 636.589 -4.17334 -0.748887 0
M  V30 6735 C 635.048 -2.96051 -1.60795 0
M  V30 6736 O 635.578 -2.96763 -2.7073 0
M  V30 6737 N 633.784 -2.51963 -1.44786 0
M  V30 6738 H 633.331 -2.51583 -0.553498 0
M  V30 6739 H 633.289 -2.1937 -2.2522 0
M  V30 6740 N 637.061 -0.65484 -1.43351 0
M  V30 6741 C 638.308 -0.168892 -2.01794 0
M  V30 6742 C 638.636 1.2177 -1.51665 0
M  V30 6743 O 637.891 1.82717 -0.70092 0
M  V30 6744 C 638.19 -0.130424 -3.57162 0
M  V30 6745 C 637.856 -1.45898 -4.26643 0
M  V30 6746 C 636.518 -1.82279 -4.4534 0
M  V30 6747 C 638.87 -2.33485 -4.65976 0
M  V30 6748 C 636.198 -3.0591 -5.00635 0
M  V30 6749 C 638.55 -3.5641 -5.22642 0
M  V30 6750 C 637.214 -3.92985 -5.39555 0
M  V30 6751 H 636.484 -0.061802 -0.738418 0
M  V30 6752 H 639.131 -0.845869 -1.71806 0
M  V30 6753 H 637.436 0.630008 -3.86702 0
M  V30 6754 H 639.133 0.262465 -4.0014 0
M  V30 6755 H 635.723 -1.16591 -4.12437 0
M  V30 6756 H 639.907 -2.06668 -4.51223 0
M  V30 6757 H 635.163 -3.34295 -5.11915 0
M  V30 6758 H 639.337 -4.24495 -5.52066 0
M  V30 6759 H 636.964 -4.88862 -5.82167 0
M  V30 6760 N 638.539 1.52521 -0.396863 0
M  V30 6761 C 639.786 2.01672 0.182898 0
M  V30 6762 C 640.114 1.28302 1.46181 0
M  V30 6763 O 639.369 0.374118 1.92091 0
M  V30 6764 C 639.668 3.5403 0.489677 0
M  V30 6765 C 639.334 4.45456 -0.698581 0
M  V30 6766 C 637.996 4.70166 -1.02454 0
M  V30 6767 C 640.348 4.99354 -1.49316 0
M  V30 6768 C 637.676 5.46024 -2.1465 0
M  V30 6769 C 640.028 5.76439 -2.60579 0
M  V30 6770 C 638.692 5.99426 -2.93675 0
M  V30 6771 H 637.962 0.737971 0.066927 0
M  V30 6772 H 640.609 1.83853 -0.535764 0
M  V30 6773 H 638.914 3.69963 1.28976 0
M  V30 6774 H 640.611 3.8956 0.951018 0
M  V30 6775 H 637.201 4.26392 -0.434525 0
M  V30 6776 H 641.385 4.80182 -1.25457 0
M  V30 6777 H 636.641 5.62046 -2.40654 0
M  V30 6778 H 640.815 6.17202 -3.22544 0
M  V30 6779 H 638.442 6.57988 -3.80731 0
M  V30 6780 N 640.017 0.126909 1.57088 0
M  V30 6781 C 640.964 -0.82036 2.15728 0
M  V30 6782 C 641.934 -1.25811 1.08447 0
M  V30 6783 O 643.119 -1.33422 1.36393 0
M  V30 6784 C 640.259 -2.06199 2.76724 0
M  V30 6785 C 639.372 -1.67188 3.98337 0
M  V30 6786 C 638.507 -2.86378 4.47393 0
M  V30 6787 C 637.546 -2.43644 5.61519 0
M  V30 6788 N 636.683 -3.55775 6.05284 0
M  V30 6789 H 641.523 -0.313472 2.96347 0
M  V30 6790 H 639.06 -0.14303 1.46403 0
M  V30 6791 H 641.018 -2.78959 3.10222 0
M  V30 6792 H 639.648 -2.54333 1.98782 0
M  V30 6793 H 638.7 -0.842714 3.70948 0
M  V30 6794 H 640.012 -1.31789 4.81075 0
M  V30 6795 H 639.166 -3.67353 4.82842 0
M  V30 6796 H 637.905 -3.25009 3.63621 0
M  V30 6797 H 636.91 -1.61104 5.25667 0
M  V30 6798 H 638.135 -2.06122 6.47063 0
M  V30 6799 H 636.081 -3.94065 5.24451 0
M  V30 6800 H 635.998 -3.24325 6.82898 0
M  V30 6801 H 637.266 -4.37166 6.45373 0
M  V30 6802 N 641.495 -1.56914 -0.146875 0
M  V30 6803 C 642.405 -2.0154 -1.20079 0
M  V30 6804 C 643.421 -0.930838 -1.47008 0
M  V30 6805 O 644.597 -1.24032 -1.58676 0
M  V30 6806 C 641.662 -2.38715 -2.51428 0
M  V30 6807 C 640.723 -3.6112 -2.32145 0
M  V30 6808 C 639.956 -3.96512 -3.57231 0
M  V30 6809 O 640.179 -3.32566 -4.63418 0
M  V30 6810 O 639.113 -4.89758 -3.49887 0
M  V30 6811 H 642.939 -2.91506 -0.851924 0
M  V30 6812 H 640.524 -1.45106 -0.355607 0
M  V30 6813 H 642.406 -2.63485 -3.28867 0
M  V30 6814 H 641.081 -1.51903 -2.85845 0
M  V30 6815 H 639.988 -3.41536 -1.52656 0
M  V30 6816 H 641.321 -4.48549 -2.02644 0
M  V30 6817 N 642.974 0.416227 -1.52004 0
M  V30 6818 C 643.921 1.50666 -1.74838 0
M  V30 6819 C 644.891 1.55245 -0.590599 0
M  V30 6820 O 646.076 1.71928 -0.827374 0
M  V30 6821 C 643.216 2.88185 -1.89851 0
M  V30 6822 C 642.329 2.92971 -3.17478 0
M  V30 6823 C 641.464 4.21745 -3.22962 0
M  V30 6824 C 640.503 4.20478 -4.4482 0
M  V30 6825 N 639.64 5.40811 -4.47736 0
M  V30 6826 H 644.48 1.30498 -2.67907 0
M  V30 6827 H 642.017 0.633568 -1.32757 0
M  V30 6828 H 643.975 3.68007 -1.96537 0
M  V30 6829 H 642.605 3.06865 -1.00169 0
M  V30 6830 H 641.657 2.05684 -3.19997 0
M  V30 6831 H 642.969 2.87899 -4.07328 0
M  V30 6832 H 642.123 5.09954 -3.28682 0
M  V30 6833 H 640.862 4.29503 -2.31038 0
M  V30 6834 H 639.867 3.30659 -4.39254 0
M  V30 6835 H 641.092 4.14366 -5.38031 0
M  V30 6836 H 639.038 5.4925 -3.58692 0
M  V30 6837 H 638.955 5.37705 -5.31422 0
M  V30 6838 H 640.223 6.30993 -4.57676 0
M  V30 6839 N 644.452 1.42507 0.673017 0
M  V30 6840 C 645.68 1.46473 1.46128 0
M  V30 6841 C 646.095 0.0765912 1.88645 0
M  V30 6842 O 645.452 -0.909057 1.58248 0
M  V30 6843 C 645.503 2.39339 2.70923 0
M  V30 6844 O 645.224 3.72752 2.3019 0
M  V30 6845 C 646.725 2.52343 3.64469 0
M  V30 6846 H 643.945 0.49812 0.449575 0
M  V30 6847 H 646.489 1.87041 0.826802 0
M  V30 6848 H 644.644 2.02019 3.30556 0
M  V30 6849 H 645.058 4.22503 3.10791 0
M  V30 6850 H 646.532 3.2144 4.48754 0
M  V30 6851 H 647.009 1.56189 4.1049 0
M  V30 6852 H 647.615 2.90392 3.10729 0
M  V30 6853 N 645.93 -0.909495 1.28709 0
M  V30 6854 C 647.155 -1.69801 1.1909 0
M  V30 6855 C 647.58 -1.86479 -0.246388 0
M  V30 6856 O 646.938 -1.37802 -1.17815 0
M  V30 6857 C 646.986 -3.06543 1.89904 0
M  V30 6858 O 646.09 -3.94268 1.2094 0
M  V30 6859 H 645.431 -0.519783 0.413185 0
M  V30 6860 H 647.961 -1.13689 1.70106 0
M  V30 6861 H 647.971 -3.56748 1.97977 0
M  V30 6862 H 646.646 -2.93722 2.94449 0
M  V30 6863 H 645.223 -3.52702 1.2106 0
M  V30 6864 N 647.408 -1.11026 -1.11852 0
M  V30 6865 C 648.633 -0.879064 -1.87849 0
M  V30 6866 C 649.058 0.565406 -1.79401 0
M  V30 6867 O 648.416 1.39886 -1.15333 0
M  V30 6868 C 648.464 -1.33985 -3.34784 0
M  V30 6869 O 647.568 -0.508803 -4.09249 0
M  V30 6870 H 646.909 -0.316992 -0.583448 0
M  V30 6871 H 649.439 -1.47863 -1.41413 0
M  V30 6872 H 649.449 -1.33248 -3.85628 0
M  V30 6873 H 648.124 -2.39172 -3.40249 0
M  V30 6874 H 646.701 -0.581913 -3.68332 0
M  V30 6875 N 648.886 1.2938 -0.899927 0
M  V30 6876 C 650.111 2.00228 -0.540692 0
M  V30 6877 C 650.536 1.66909 0.867359 0
M  V30 6878 O 649.894 0.893824 1.57735 0
M  V30 6879 C 649.942 3.52921 -0.740232 0
M  V30 6880 O 649.046 4.11879 0.207154 0
M  V30 6881 H 648.387 0.629505 -0.211233 0
M  V30 6882 H 650.917 1.6487 -1.21158 0
M  V30 6883 H 650.927 4.0287 -0.644973 0
M  V30 6884 H 649.602 3.76508 -1.76677 0
M  V30 6885 H 648.179 3.72845 0.0643315 0
M  V30 6886 N 650.364 0.662433 1.43002 0
M  V30 6887 C 651.589 0.186003 2.06564 0
M  V30 6888 C 652.014 -1.14314 1.49379 0
M  V30 6889 O 651.372 -1.70824 0.607346 0
M  V30 6890 C 651.42 0.118269 3.60406 0
M  V30 6891 O 650.524 -0.916859 4.02079 0
M  V30 6892 H 649.865 0.0990981 0.656563 0
M  V30 6893 H 652.395 0.907958 1.8335 0
M  V30 6894 H 652.405 -0.0619981 4.07953 0
M  V30 6895 H 651.08 1.08849 4.01403 0
M  V30 6896 H 649.657 -0.708635 3.66105 0
M  V30 6897 N 651.842 -1.52309 0.404946 0
M  V30 6898 C 653.09 -2.01368 -0.17186 0
M  V30 6899 C 653.411 -1.29261 -1.46002 0
M  V30 6900 O 652.681 -0.41729 -1.91404 0
M  V30 6901 H 651.261 -0.744034 -0.0664993 0
M  V30 6902 H 653.923 -1.87263 0.540228 0
M  V30 6903 H 653.019 -3.09888 -0.370957 0
M  V30 6904 N 653.32 -0.135238 -1.57019 0
M  V30 6905 C 654.545 0.529343 -2.00531 0
M  V30 6906 C 654.97 1.58391 -1.01459 0
M  V30 6907 O 654.328 1.81296 0.0113986 0
M  V30 6908 C 654.376 1.11748 -3.42848 0
M  V30 6909 O 653.48 2.23267 -3.46736 0
M  V30 6910 H 652.821 0.130669 -0.651016 0
M  V30 6911 H 655.351 -0.228503 -2.0332 0
M  V30 6912 H 655.361 1.44905 -3.81401 0
M  V30 6913 H 654.036 0.345147 -4.14465 0
M  V30 6914 H 652.613 1.91428 -3.20015 0
M  V30 6915 N 654.798 1.5699 0.138552 0
M  V30 6916 C 656.045 1.83809 0.849732 0
M  V30 6917 C 656.373 0.717409 1.80786 0
M  V30 6918 O 655.628 -0.292897 1.93496 0
M  V30 6919 C 655.927 3.17007 1.65049 0
M  V30 6920 C 655.593 4.43037 0.838398 0
M  V30 6921 C 654.255 4.77262 0.614385 0
M  V30 6922 C 656.607 5.20495 0.271044 0
M  V30 6923 C 653.935 5.864 -0.187552 0
M  V30 6924 C 656.287 6.30476 -0.517979 0
M  V30 6925 C 654.951 6.63245 -0.75249 0
M  V30 6926 H 654.221 0.672605 0.310939 0
M  V30 6927 H 656.868 1.91166 0.112971 0
M  V30 6928 H 655.173 3.05138 2.4576 0
M  V30 6929 H 656.87 3.34975 2.20437 0
M  V30 6930 H 653.46 4.16211 1.02307 0
M  V30 6931 H 657.644 4.94422 0.431371 0
M  V30 6932 H 652.9 6.10226 -0.378659 0
M  V30 6933 H 657.074 6.89686 -0.964694 0
M  V30 6934 H 654.701 7.47648 -1.37573 0
M  V30 6935 N 656.276 -0.40816 1.52223 0
M  V30 6936 C 657.186 -1.52202 1.78526 0
M  V30 6937 C 658.202 -1.60546 0.670892 0
M  V30 6938 O 659.378 -1.77242 0.956404 0
M  V30 6939 C 656.443 -2.87928 1.93128 0
M  V30 6940 C 655.504 -2.89463 3.17033 0
M  V30 6941 C 654.737 -4.18715 3.30929 0
M  V30 6942 O 654.96 -5.12662 2.50067 0
M  V30 6943 O 653.894 -4.27125 4.24084 0
M  V30 6944 H 657.72 -1.32911 2.73072 0
M  V30 6945 H 655.305 -0.594112 1.37079 0
M  V30 6946 H 657.187 -3.68426 2.04549 0
M  V30 6947 H 655.862 -3.07285 1.01772 0
M  V30 6948 H 654.769 -2.07815 3.11069 0
M  V30 6949 H 656.102 -2.75055 4.08174 0
M  V30 6950 N 657.755 -1.42862 -0.66545 0
M  V30 6951 C 659.171 -1.25993 -0.979687 0
M  V30 6952 C 659.371 -0.170831 -2.00775 0
M  V30 6953 O 658.427 0.454827 -2.4837 0
M  V30 6954 C 659.74 -2.62005 -1.47559 0
M  V30 6955 C 661.288 -2.69437 -1.59288 0
M  V30 6956 C 661.763 -4.05838 -2.12272 0
M  V30 6957 N 663.254 -4.0784 -2.19592 0
M  V30 6958 C 663.989 -5.10205 -2.61684 0
M  V30 6959 N 663.485 -6.22949 -3.03161 0
M  V30 6960 N 665.278 -4.9756 -2.61516 0
M  V30 6961 H 657.429 -2.12395 0.0150493 0
M  V30 6962 H 659.692 -0.946355 -0.0558187 0
M  V30 6963 H 659.398 -3.42605 -0.794654 0
M  V30 6964 H 659.272 -2.86566 -2.45275 0
M  V30 6965 H 661.659 -1.89178 -2.26486 0
M  V30 6966 H 661.74 -2.48655 -0.600374 0
M  V30 6967 H 661.384 -4.86559 -1.4568 0
M  V30 6968 H 661.314 -4.23977 -3.12331 0
M  V30 6969 H 663.805 -3.26452 -1.90361 0
M  V30 6970 H 664.118 -6.96899 -3.33993 0
M  V30 6971 H 662.463 -6.2644 -3.00995 0
M  V30 6972 H 665.654 -4.08551 -2.28481 0
M  V30 6973 H 665.827 -5.77468 -2.93999 0
M  V30 6974 N 659.233 0.902656 -1.29189 0
M  V30 6975 C 660.644 1.46809 -1.15343 0
M  V30 6976 C 660.995 1.94568 0.252517 0
M  V30 6977 O 660.12 1.83454 1.14777 0
M  V30 6978 C 660.715 2.66829 -2.08776 0
M  V30 6979 C 659.274 3.19518 -1.98961 0
M  V30 6980 C 658.421 1.92212 -1.99874 0
M  V30 6981 H 661.372 0.714282 -1.41717 0
M  V30 6982 H 661.393 3.42465 -1.65826 0
M  V30 6983 H 660.905 2.32039 -3.11094 0
M  V30 6984 H 659.006 3.59008 -0.99721 0
M  V30 6985 H 659.119 3.84016 -2.86477 0
M  V30 6986 H 657.483 2.0979 -1.44431 0
M  V30 6987 H 658.266 1.59702 -3.03891 0
M  V30 6988 N 660.711 1.11618 1.11262 0
M  V30 6989 C 661.988 0.777876 1.79467 0
M  V30 6990 C 662.368 -0.733774 1.97937 0
M  V30 6991 O 661.716 -1.66443 1.56554 0
M  V30 6992 C 661.926 1.5431 3.13032 0
M  V30 6993 C 663.274 1.72357 3.88044 0
M  V30 6994 O 664.298 1.5075 3.22727 0
M  V30 6995 O 663.157 2.08276 5.05256 0
M  V30 6996 H 660.251 0.282018 0.777428 0
M  V30 6997 H 662.797 1.21971 1.17988 0
M  V30 6998 H 661.569 2.57132 2.94956 0
M  V30 6999 H 661.192 1.09495 3.82226 0
M  V30 7000 N 662.189 -1.289 0.906776 0
M  V30 7001 C 663.137 -2.29477 0.379873 0
M  V30 7002 C 664.131 -1.61068 -0.524747 0
M  V30 7003 O 665.337 -1.75344 -0.406765 0
M  V30 7004 H 661.712 -0.744742 0.10423 0
M  V30 7005 H 663.683 -2.71353 1.24137 0
M  V30 7006 C 662.432 -3.45713 -0.371154 0
M  V30 7007 H 661.755 -3.98551 0.315716 0
M  V30 7008 H 663.195 -4.18105 -0.704581 0
M  V30 7009 C 661.654 -2.9774 -1.57646 0
M  V30 7010 O 662.184 -2.99618 -2.67567 0
M  V30 7011 N 660.39 -2.53485 -1.42105 0
M  V30 7012 H 659.937 -2.52156 -0.526783 0
M  V30 7013 H 659.895 -2.21747 -2.22881 0
M  V30 7014 N 663.667 -0.670007 -1.42649 0
M  V30 7015 C 664.615 0.0230106 -2.32589 0
M  V30 7016 C 665.609 0.795585 -1.49555 0
M  V30 7017 O 666.815 0.70409 -1.65658 0
M  V30 7018 H 663.19 0.0262342 -0.751542 0
M  V30 7019 H 665.161 -0.753009 -2.88743 0
M  V30 7020 C 663.91 0.963872 -3.34073 0
M  V30 7021 H 663.233 0.378813 -3.98001 0
M  V30 7022 H 664.673 1.41755 -3.99602 0
M  V30 7023 C 663.132 2.06797 -2.65964 0
M  V30 7024 O 663.662 3.15383 -2.48789 0
M  V30 7025 N 661.868 1.83831 -2.25066 0
M  V30 7026 H 661.415 0.955235 -2.39234 0
M  V30 7027 H 661.373 2.57895 -1.79827 0
M  V30 7028 N 665.145 1.52092 -0.413018 0
M  V30 7029 C 666.077 2.24819 0.445994 0
M  V30 7030 C 667.09 1.27925 1.00692 0
M  V30 7031 O 668.279 1.53845 0.905204 0
M  V30 7032 C 665.379 2.96951 1.6332 0
M  V30 7033 C 664.552 4.20746 1.19548 0
M  V30 7034 C 663.611 4.75668 2.25003 0
M  V30 7035 O 662.637 5.38148 1.85434 0
M  V30 7036 N 663.839 4.57579 3.57214 0
M  V30 7037 H 666.604 2.99176 -0.177209 0
M  V30 7038 H 664.165 1.60102 -0.240601 0
M  V30 7039 H 666.157 3.30586 2.33441 0
M  V30 7040 H 664.727 2.25756 2.16225 0
M  V30 7041 H 663.947 3.92881 0.32224 0
M  V30 7042 H 665.235 5.01132 0.880033 0
M  V30 7043 H 664.633 4.07758 3.92109 0
M  V30 7044 H 663.19 4.95642 4.23299 0
M  V30 7045 N 666.623 0.143563 1.56945 0
M  V30 7046 C 667.586 -0.783295 2.154 0
M  V30 7047 C 668.586 -1.17763 1.09492 0
M  V30 7048 O 669.776 -1.09912 1.35148 0
M  V30 7049 C 666.908 -2.06248 2.7143 0
M  V30 7050 H 668.101 -0.274863 2.98638 0
M  V30 7051 H 665.654 -0.105859 1.55941 0
M  V30 7052 H 666.389 -2.61466 1.91849 0
M  V30 7053 H 666.174 -1.78897 3.4891 0
M  V30 7054 H 667.664 -2.72453 3.16479 0
M  V30 7055 N 668.101 -1.57061 -0.130224 0
M  V30 7056 C 669.031 -2.02552 -1.16168 0
M  V30 7057 C 670.012 -0.907971 -1.4384 0
M  V30 7058 O 671.197 -1.17693 -1.54473 0
M  V30 7059 C 668.327 -2.42035 -2.49071 0
M  V30 7060 C 667.281 -3.5713 -2.35886 0
M  V30 7061 C 666.607 -3.82478 -3.7365 0
M  V30 7062 C 667.907 -4.89236 -1.8288 0
M  V30 7063 H 669.601 -2.8897 -0.783359 0
M  V30 7064 H 667.147 -1.39021 -0.375376 0
M  V30 7065 H 669.1 -2.72462 -3.21469 0
M  V30 7066 H 667.824 -1.52573 -2.88771 0
M  V30 7067 H 666.483 -3.26895 -1.65938 0
M  V30 7068 H 666.131 -2.9024 -4.10816 0
M  V30 7069 H 665.831 -4.59944 -3.65685 0
M  V30 7070 H 667.355 -4.15347 -4.47571 0
M  V30 7071 H 668.769 -5.18272 -2.45085 0
M  V30 7072 H 667.166 -5.70624 -1.85763 0
M  V30 7073 H 668.236 -4.78494 -0.785571 0
M  V30 7074 N 669.579 0.400081 -1.52437 0
M  V30 7075 C 670.804 1.17221 -1.71096 0
M  V30 7076 C 671.229 1.83269 -0.423565 0
M  V30 7077 O 670.587 1.70378 0.619751 0
M  V30 7078 C 670.635 2.20425 -2.85386 0
M  V30 7079 O 669.739 3.26769 -2.51586 0
M  V30 7080 H 669.08 0.341766 -0.569291 0
M  V30 7081 H 671.61 0.467772 -1.99181 0
M  V30 7082 H 671.62 2.64605 -3.10561 0
M  V30 7083 H 670.295 1.71737 -3.78786 0
M  V30 7084 H 668.872 2.87804 -2.37114 0
M  V30 7085 N 671.057 1.43213 0.657864 0
M  V30 7086 C 672.005 1.48271 1.79216 0
M  V30 7087 C 672.999 0.35675 1.65601 0
M  V30 7088 O 674.205 0.530535 1.72004 0
M  V30 7089 H 670.58 0.464729 0.591211 0
M  V30 7090 H 672.551 2.43792 1.7207 0
M  V30 7091 C 671.3 1.41837 3.17455 0
M  V30 7092 H 670.623 2.27781 3.28567 0
M  V30 7093 H 672.063 1.49438 3.96793 0
M  V30 7094 C 670.522 0.135347 3.36628 0
M  V30 7095 O 671.052 -0.805199 3.93547 0
M  V30 7096 N 669.258 0.0470316 2.90562 0
M  V30 7097 H 668.805 0.813221 2.44427 0
M  V30 7098 H 668.763 -0.810737 3.03767 0
M  V30 7099 N 672.536 -0.895792 1.29666 0
M  V30 7100 C 673.486 -1.98736 1.1175 0
M  V30 7101 C 674.47 -1.6086 0.0357834 0
M  V30 7102 O 675.662 -1.75111 0.257926 0
M  V30 7103 C 672.791 -3.33845 0.800156 0
M  V30 7104 C 671.877 -3.78068 1.9216 0
M  V30 7105 N 672.268 -3.94489 3.16563 0
M  V30 7106 C 670.566 -4.07376 1.81552 0
M  V30 7107 C 671.267 -4.31819 3.89753 0
M  V30 7108 N 670.243 -4.41081 3.17724 0
M  V30 7109 H 674.045 -2.09507 2.06117 0
M  V30 7110 H 671.559 -1.08488 1.20848 0
M  V30 7111 H 673.556 -4.11757 0.652841 0
M  V30 7112 H 672.216 -3.24417 -0.135551 0
M  V30 7113 H 673.227 -3.79914 3.51974 0
M  V30 7114 H 669.904 -4.06483 0.952787 0
M  V30 7115 H 671.294 -4.52337 4.96831 0
M  V30 7116 N 674.014 -1.12206 -1.10668 0
M  V30 7117 C 674.944 -0.810086 -2.18997 0
M  V30 7118 C 675.925 0.225065 -1.68604 0
M  V30 7119 O 677.11 0.086783 -1.94006 0
M  V30 7120 C 674.24 -0.261262 -3.46316 0
M  V30 7121 C 673.194 -1.2292 -4.09969 0
M  V30 7122 C 672.52 -0.540713 -5.31959 0
M  V30 7123 C 673.82 -2.58295 -4.53962 0
M  V30 7124 H 675.514 -1.7159 -2.45352 0
M  V30 7125 H 673.06 -0.82646 -1.17922 0
M  V30 7126 H 675.013 -0.0307522 -4.21389 0
M  V30 7127 H 673.737 0.679879 -3.19445 0
M  V30 7128 H 672.396 -1.44548 -3.369 0
M  V30 7129 H 672.044 0.405492 -5.01363 0
M  V30 7130 H 671.744 -1.18637 -5.75499 0
M  V30 7131 H 673.268 -0.319184 -6.09765 0
M  V30 7132 H 674.682 -2.40709 -5.20319 0
M  V30 7133 H 673.079 -3.18916 -5.08343 0
M  V30 7134 H 674.149 -3.16918 -3.67002 0
M  V30 7135 N 675.492 1.28418 -0.913599 0
M  V30 7136 C 676.732 1.96756 -0.553771 0
M  V30 7137 C 677.096 1.70334 0.886013 0
M  V30 7138 O 678.297 2.32242 1.35341 0
M  V30 7139 C 676.568 3.47041 -0.854249 0
M  V30 7140 S 678.127 4.34667 -0.600816 0
M  V30 7141 H 674.945 0.680831 -0.204915 0
M  V30 7142 H 677.547 1.55947 -1.17902 0
M  V30 7143 H 676.251 3.63766 -1.90007 0
M  V30 7144 H 675.782 3.92797 -0.217651 0
M  V30 7145 H 677.797 4.93166 0.547906 0
M  V30 7146 N 676.97 0.677563 1.42291 0
M  V30 7147 C 678.381 0.277912 1.8462 0
M  V30 7148 C 678.732 -1.18048 1.56714 0
M  V30 7149 O 677.857 -1.90404 1.02836 0
M  V30 7150 C 678.452 0.497619 3.35126 0
M  V30 7151 C 677.011 0.152063 3.76093 0
M  V30 7152 C 676.158 0.78872 2.65847 0
M  V30 7153 H 679.109 0.879527 1.32098 0
M  V30 7154 H 679.13 -0.24939 3.79682 0
M  V30 7155 H 678.642 1.55913 3.55405 0
M  V30 7156 H 676.743 -0.905896 3.6142 0
M  V30 7157 H 676.856 0.594514 4.75397 0
M  V30 7158 H 675.22 0.219813 2.5375 0
M  V30 7159 H 676.003 1.85374 2.88949 0
M  V30 7160 N 678.448 -1.51871 0.421078 0
M  V30 7161 C 679.696 -2.01539 -0.150492 0
M  V30 7162 C 680.017 -1.30803 -1.44623 0
M  V30 7163 O 679.287 -0.437568 -1.90951 0
M  V30 7164 H 677.867 -0.744698 -0.0586041 0
M  V30 7165 H 680.529 -1.8668 0.560059 0
M  V30 7166 H 679.625 -3.10264 -0.338068 0
M  V30 7167 N 679.926 -0.151884 -1.56866 0
M  V30 7168 C 680.873 0.785936 -2.17006 0
M  V30 7169 C 681.843 1.2407 -1.10435 0
M  V30 7170 O 683.028 1.31235 -1.38499 0
M  V30 7171 C 680.168 2.01771 -2.79969 0
M  V30 7172 C 679.281 1.6083 -4.00946 0
M  V30 7173 C 678.416 2.79224 -4.51893 0
M  V30 7174 C 677.455 2.3468 -5.65324 0
M  V30 7175 N 676.592 3.461 -6.10867 0
M  V30 7176 H 681.432 0.266286 -2.96808 0
M  V30 7177 H 678.969 0.11972 -1.46612 0
M  V30 7178 H 680.927 2.73989 -3.14621 0
M  V30 7179 H 679.557 2.51139 -2.02803 0
M  V30 7180 H 678.609 0.783592 -3.72242 0
M  V30 7181 H 679.921 1.24119 -4.83111 0
M  V30 7182 H 679.075 3.59625 -4.88625 0
M  V30 7183 H 677.814 3.19183 -3.68746 0
M  V30 7184 H 676.819 1.52721 -5.28163 0
M  V30 7185 H 678.044 1.95801 -6.5026 0
M  V30 7186 H 675.99 3.85671 -5.30654 0
M  V30 7187 H 675.907 3.1342 -6.87971 0
M  V30 7188 H 677.175 4.26844 -6.52246 0
M  V30 7189 N 681.404 1.57128 0.121893 0
M  V30 7190 C 682.632 1.88883 0.844451 0
M  V30 7191 C 683.047 0.742824 1.73573 0
M  V30 7192 O 682.404 -0.286475 1.80238 0
M  V30 7193 C 682.455 3.20076 1.68029 0
M  V30 7194 O 682.176 4.30264 0.824898 0
M  V30 7195 C 683.677 3.65515 2.50826 0
M  V30 7196 H 680.897 0.62549 0.242907 0
M  V30 7197 H 683.441 2.04219 0.107151 0
M  V30 7198 H 681.596 3.06418 2.37038 0
M  V30 7199 H 682.01 5.05439 1.40113 0
M  V30 7200 H 683.484 4.60081 3.05008 0
M  V30 7201 H 683.961 2.92029 3.28048 0
M  V30 7202 H 684.567 3.81952 1.87064 0
M  V30 7203 N 682.882 -0.391992 1.52647 0
M  V30 7204 C 684.293 -0.970064 1.5952 0
M  V30 7205 C 684.644 -1.91059 0.446207 0
M  V30 7206 O 683.769 -2.12062 -0.431125 0
M  V30 7207 C 684.364 -1.76614 2.89125 0
M  V30 7208 C 682.923 -2.29396 2.9842 0
M  V30 7209 C 682.07 -1.09864 2.54608 0
M  V30 7210 H 685.021 -0.171638 1.57769 0
M  V30 7211 H 685.042 -2.62511 2.75442 0
M  V30 7212 H 684.554 -1.08135 3.72731 0
M  V30 7213 H 682.655 -3.01196 2.19344 0
M  V30 7214 H 682.768 -2.59088 4.03002 0
M  V30 7215 H 681.132 -1.45777 2.08857 0
M  V30 7216 H 681.915 -0.429249 3.40606 0
M  V30 7217 N 684.36 -1.4356 -0.65026 0
M  V30 7218 C 685.607 -1.45333 -1.41012 0
M  V30 7219 C 685.935 -0.0787282 -1.94341 0
M  V30 7220 O 685.19 0.916715 -1.72901 0
M  V30 7221 C 685.489 -2.44528 -2.60654 0
M  V30 7222 C 685.155 -3.90331 -2.25727 0
M  V30 7223 C 683.817 -4.3004 -2.15914 0
M  V30 7224 C 686.169 -4.822 -1.97821 0
M  V30 7225 C 683.497 -5.59568 -1.76354 0
M  V30 7226 C 685.849 -6.12095 -1.59759 0
M  V30 7227 C 684.513 -6.50778 -1.48473 0
M  V30 7228 H 683.783 -0.531813 -0.516 0
M  V30 7229 H 686.43 -1.76657 -0.739219 0
M  V30 7230 H 684.735 -2.06619 -3.3289 0
M  V30 7231 H 686.432 -2.43155 -3.18868 0
M  V30 7232 H 683.022 -3.58905 -2.34276 0
M  V30 7233 H 687.206 -4.5229 -2.04322 0
M  V30 7234 H 682.462 -5.88376 -1.66205 0
M  V30 7235 H 686.636 -6.82751 -1.37198 0
M  V30 7236 H 684.263 -7.5105 -1.17591 0
M  V30 7237 N 685.838 0.888903 -1.30139 0
M  V30 7238 C 687.249 1.45578 -1.16893 0
M  V30 7239 C 687.6 1.94825 0.231866 0
M  V30 7240 O 686.725 1.84661 1.12824 0
M  V30 7241 C 687.32 2.646 -2.11595 0
M  V30 7242 C 685.879 3.17389 -2.02339 0
M  V30 7243 C 685.026 1.90081 -2.01902 0
M  V30 7244 H 687.977 0.69921 -1.42467 0
M  V30 7245 H 687.998 3.40687 -1.69449 0
M  V30 7246 H 687.51 2.28726 -3.13538 0
M  V30 7247 H 685.611 3.5793 -1.03523 0
M  V30 7248 H 685.724 3.80955 -2.90534 0
M  V30 7249 H 684.088 2.08246 -1.46648 0
M  V30 7250 H 684.871 1.5647 -3.05568 0
M  V30 7251 N 687.317 1.12792 1.10072 0
M  V30 7252 C 688.564 0.885545 1.82111 0
M  V30 7253 C 688.892 -0.588519 1.85383 0
M  V30 7254 O 688.147 -1.45124 1.31292 0
M  V30 7255 C 688.446 1.4102 3.28403 0
M  V30 7256 C 688.112 2.89995 3.45273 0
M  V30 7257 C 686.774 3.30671 3.49585 0
M  V30 7258 C 689.126 3.85874 3.50358 0
M  V30 7259 C 686.454 4.65925 3.56553 0
M  V30 7260 C 688.806 5.20963 3.58859 0
M  V30 7261 C 687.47 5.61177 3.61437 0
M  V30 7262 H 686.74 0.324044 0.666391 0
M  V30 7263 H 689.387 1.40874 1.29718 0
M  V30 7264 H 687.692 0.807551 3.83387 0
M  V30 7265 H 689.389 1.19882 3.82661 0
M  V30 7266 H 685.979 2.57537 3.42597 0
M  V30 7267 H 690.163 3.5554 3.46273 0
M  V30 7268 H 685.419 4.96468 3.56833 0
M  V30 7269 H 689.593 5.95079 3.61738 0
M  V30 7270 H 687.22 6.6597 3.66589 0
M  V30 7271 N 688.795 -1.27931 0.920396 0
M  V30 7272 C 689.758 -2.25345 0.41858 0
M  V30 7273 C 690.758 -1.54116 -0.458798 0
M  V30 7274 O 691.948 -1.72235 -0.260912 0
M  V30 7275 C 689.08 -3.38556 -0.399104 0
M  V30 7276 H 690.273 -2.71251 1.27918 0
M  V30 7277 H 687.826 -1.39728 0.700406 0
M  V30 7278 H 688.561 -2.98021 -1.27882 0
M  V30 7279 H 688.346 -3.91426 0.229863 0
M  V30 7280 H 689.836 -4.10976 -0.740817 0
M  V30 7281 N 690.273 -0.685099 -1.4193 0
M  V30 7282 C 691.55 -0.140152 -1.95097 0
M  V30 7283 C 691.93 1.34745 -1.62502 0
M  V30 7284 O 691.278 2.08872 -0.926534 0
M  V30 7285 C 691.488 -0.420268 -3.4646 0
M  V30 7286 C 692.836 -0.342338 -4.23218 0
M  V30 7287 O 693.86 -0.354592 -3.54431 0
M  V30 7288 O 692.719 -0.293404 -5.45712 0
M  V30 7289 H 689.813 -0.00885998 -0.826953 0
M  V30 7290 H 692.359 -0.760539 -1.51703 0
M  V30 7291 H 691.131 -1.45037 -3.63428 0
M  V30 7292 H 690.754 0.231616 -3.96925 0
M  V30 7293 N 691.751 1.51645 -0.429126 0
M  V30 7294 C 693.162 1.86665 0.0359003 0
M  V30 7295 C 693.513 1.34677 1.42676 0
M  V30 7296 O 692.638 0.694195 2.04963 0
M  V30 7297 C 693.233 3.38724 0.0719221 0
M  V30 7298 C 691.792 3.7331 0.481336 0
M  V30 7299 C 690.939 2.75313 -0.331329 0
M  V30 7300 H 693.89 1.44987 -0.645333 0
M  V30 7301 H 693.911 3.7011 0.883118 0
M  V30 7302 H 693.423 3.76532 -0.940495 0
M  V30 7303 H 691.524 3.41088 1.49966 0
M  V30 7304 H 691.637 4.78631 0.211837 0
M  V30 7305 H 690.001 2.53839 0.209204 0
M  V30 7306 H 690.784 3.15963 -1.34247 0
M  V30 7307 N 693.229 0.160201 1.56784 0
M  V30 7308 C 694.457 -0.494165 2.00912 0
M  V30 7309 C 694.872 -1.57548 1.04038 0
M  V30 7310 O 694.229 -1.82457 0.0394581 0
M  V30 7311 C 694.28 -1.08271 3.44905 0
M  V30 7312 O 694.001 -0.0445704 4.38077 0
M  V30 7313 C 695.502 -1.8164 4.04378 0
M  V30 7314 H 692.722 -0.127498 0.658776 0
M  V30 7315 H 695.266 0.258665 2.02858 0
M  V30 7316 H 693.421 -1.78609 3.4377 0
M  V30 7317 H 693.835 -0.477544 5.22322 0
M  V30 7318 H 695.309 -2.18094 5.07089 0
M  V30 7319 H 695.786 -2.70727 3.45838 0
M  V30 7320 H 696.392 -1.15969 4.09184 0
M  V30 7321 N 694.707 -1.5719 -0.113559 0
M  V30 7322 C 696.118 -1.74259 -0.670116 0
M  V30 7323 C 696.469 -0.779694 -1.80042 0
M  V30 7324 O 695.594 0.0461353 -2.16351 0
M  V30 7325 C 696.189 -3.15981 -1.22236 0
M  V30 7326 C 694.748 -3.34537 -1.72516 0
M  V30 7327 C 693.895 -2.70116 -0.627098 0
M  V30 7328 H 696.846 -1.58301 0.112396 0
M  V30 7329 H 696.867 -3.17832 -2.09197 0
M  V30 7330 H 696.379 -3.86038 -0.39949 0
M  V30 7331 H 694.48 -2.6953 -2.57263 0
M  V30 7332 H 694.593 -4.42737 -1.83086 0
M  V30 7333 H 692.957 -2.31501 -1.06204 0
M  V30 7334 H 693.74 -3.42802 0.184889 0
M  V30 7335 N 696.185 0.383891 -1.52853 0
M  V30 7336 C 697.117 1.48889 -1.74255 0
M  V30 7337 C 698.13 1.50405 -0.623063 0
M  V30 7338 O 699.319 1.54215 -0.898887 0
M  V30 7339 C 696.419 2.87721 -1.79081 0
M  V30 7340 C 695.592 3.10111 -3.08464 0
M  V30 7341 C 694.651 4.28954 -3.0477 0
M  V30 7342 O 693.677 4.25012 -3.78621 0
M  V30 7343 N 694.879 5.35411 -2.24311 0
M  V30 7344 H 697.644 1.30915 -2.69595 0
M  V30 7345 H 695.205 0.573454 -1.51404 0
M  V30 7346 H 697.197 3.65333 -1.7411 0
M  V30 7347 H 695.767 2.99029 -0.911052 0
M  V30 7348 H 694.987 2.20319 -3.26884 0
M  V30 7349 H 696.275 3.21928 -3.94005 0
M  V30 7350 H 695.673 5.41471 -1.63787 0
M  V30 7351 H 694.23 6.1167 -2.25175 0
M  V30 7352 N 697.663 1.43903 0.642637 0
M  V30 7353 C 698.891 1.4954 1.42988 0
M  V30 7354 C 699.306 0.116588 1.8844 0
M  V30 7355 O 698.663 -0.875285 1.60141 0
M  V30 7356 C 698.714 2.45031 2.65785 0
M  V30 7357 O 698.435 3.77551 2.22232 0
M  V30 7358 C 699.936 2.60017 3.59035 0
M  V30 7359 H 697.156 0.507544 0.438907 0
M  V30 7360 H 699.7 1.88752 0.786942 0
M  V30 7361 H 697.855 2.08985 3.26196 0
M  V30 7362 H 698.269 4.29001 3.01759 0
M  V30 7363 H 699.743 3.30887 4.41835 0
M  V30 7364 H 700.22 1.64861 4.07084 0
M  V30 7365 H 700.826 2.96918 3.045 0
M  V30 7366 N 699.141 -0.881989 1.30609 0
M  V30 7367 C 700.051 -2.02076 1.19174 0
M  V30 7368 C 701.067 -1.73645 0.11102 0
M  V30 7369 O 702.243 -1.98735 0.326528 0
M  V30 7370 C 699.308 -3.3515 0.887438 0
M  V30 7371 C 698.369 -3.76983 2.05383 0
M  V30 7372 C 697.602 -5.03707 1.76395 0
M  V30 7373 O 697.825 -5.66171 0.693302 0
M  V30 7374 O 696.759 -5.42019 2.61723 0
M  V30 7375 H 700.585 -2.14652 2.14845 0
M  V30 7376 H 698.17 -1.00843 1.10232 0
M  V30 7377 H 700.052 -4.14975 0.73306 0
M  V30 7378 H 698.727 -3.23676 -0.0393354 0
M  V30 7379 H 697.634 -2.97849 2.26355 0
M  V30 7380 H 698.967 -3.93066 2.96243 0
M  V30 7381 N 700.619 -1.13374 -1.09472 0
M  V30 7382 C 701.847 -0.918351 -1.85402 0
M  V30 7383 C 702.262 0.53281 -1.81126 0
M  V30 7384 O 701.619 1.36879 -1.20708 0
M  V30 7385 C 701.67 -1.39743 -3.33398 0
M  V30 7386 O 701.391 -2.79172 -3.37631 0
M  V30 7387 C 702.892 -1.22042 -4.2617 0
M  V30 7388 H 700.112 -0.327511 -0.585643 0
M  V30 7389 H 702.656 -1.50617 -1.38328 0
M  V30 7390 H 700.811 -0.852619 -3.77901 0
M  V30 7391 H 701.225 -3.00428 -4.29934 0
M  V30 7392 H 702.699 -1.60438 -5.2817 0
M  V30 7393 H 703.176 -0.162047 -4.38901 0
M  V30 7394 H 703.782 -1.75323 -3.87482 0
M  V30 7395 N 702.098 1.27442 -0.927168 0
M  V30 7396 C 703.344 1.94679 -0.568164 0
M  V30 7397 C 703.677 1.72697 0.888219 0
M  V30 7398 O 702.952 1.05573 1.63354 0
M  V30 7399 C 703.235 3.4882 -0.894253 0
M  V30 7400 C 703.088 3.80146 -2.40435 0
M  V30 7401 C 704.407 4.38281 -0.399766 0
M  V30 7402 H 701.526 0.707071 -0.207892 0
M  V30 7403 H 704.168 1.50568 -1.15885 0
M  V30 7404 H 702.318 3.86522 -0.391566 0
M  V30 7405 H 703.99 3.52238 -2.97869 0
M  V30 7406 H 702.233 3.26716 -2.85375 0
M  V30 7407 H 702.904 4.87835 -2.58304 0
M  V30 7408 H 705.38 4.07726 -0.83058 0
M  V30 7409 H 704.256 5.44955 -0.656885 0
M  V30 7410 H 704.517 4.36521 0.700153 0
M  V30 7411 N 703.576 0.692616 1.41565 0
M  V30 7412 C 704.508 -0.0137132 2.29196 0
M  V30 7413 C 705.521 -0.747417 1.44629 0
M  V30 7414 O 706.71 -0.598611 1.68163 0
M  V30 7415 C 703.81 -1.04347 3.22436 0
M  V30 7416 C 702.983 -0.379985 4.35746 0
M  V30 7417 C 702.042 -1.31195 5.09583 0
M  V30 7418 O 701.068 -0.805455 5.63472 0
M  V30 7419 N 702.27 -2.64443 5.16769 0
M  V30 7420 H 705.035 0.738614 2.90456 0
M  V30 7421 H 702.596 0.538415 1.52685 0
M  V30 7422 H 704.588 -1.6686 3.687 0
M  V30 7423 H 703.158 -1.69736 2.62504 0
M  V30 7424 H 702.378 0.424975 3.91903 0
M  V30 7425 H 703.666 0.0814904 5.08735 0
M  V30 7426 H 703.064 -3.08114 4.74428 0
M  V30 7427 H 701.621 -3.22159 5.66619 0
M  V30 7428 N 705.054 -1.51416 0.437162 0
M  V30 7429 C 705.986 -2.255 -0.410171 0
M  V30 7430 C 706.999 -1.29511 -0.986444 0
M  V30 7431 O 708.188 -1.55266 -0.880614 0
M  V30 7432 C 705.288 -2.99511 -1.58575 0
M  V30 7433 C 704.461 -4.22595 -1.12839 0
M  V30 7434 C 703.52 -4.79187 -2.17407 0
M  V30 7435 O 702.546 -5.4103 -1.76849 0
M  V30 7436 N 703.748 -4.63204 -3.49889 0
M  V30 7437 H 706.513 -2.98856 0.224783 0
M  V30 7438 H 704.074 -1.59699 0.266041 0
M  V30 7439 H 706.066 -3.34258 -2.28152 0
M  V30 7440 H 704.636 -2.29167 -2.12606 0
M  V30 7441 H 703.856 -3.93344 -0.259695 0
M  V30 7442 H 705.144 -5.02468 -0.800196 0
M  V30 7443 H 704.542 -4.13945 -3.85573 0
M  V30 7444 H 703.099 -5.02313 -4.15361 0
M  V30 7445 N 706.532 -0.168513 -1.56696 0
M  V30 7446 C 707.778 0.471368 -1.97863 0
M  V30 7447 C 708.133 1.61049 -1.05267 0
M  V30 7448 O 707.426 1.9138 -0.0917908 0
M  V30 7449 C 707.62 1.00441 -3.42996 0
M  V30 7450 C 707.449 -0.081524 -4.49626 0
M  V30 7451 C 706.219 -0.530242 -5.0251 0
M  V30 7452 C 708.417 -0.880897 -5.067 0
M  V30 7453 N 706.399 -1.59678 -5.9277 0
M  V30 7454 C 707.77 -1.79742 -5.93374 0
M  V30 7455 C 709.825 -0.92629 -4.89208 0
M  V30 7456 C 708.528 -2.7555 -6.64428 0
M  V30 7457 C 710.554 -1.8723 -5.6098 0
M  V30 7458 C 709.916 -2.77631 -6.4738 0
M  V30 7459 H 706.015 0.140671 -0.769244 0
M  V30 7460 H 708.599 -0.268084 -1.92846 0
M  V30 7461 H 706.77 1.71339 -3.48565 0
M  V30 7462 H 708.502 1.61269 -3.7118 0
M  V30 7463 H 705.257 -0.12847 -4.73426 0
M  V30 7464 H 705.681 -2.13045 -6.42605 0
M  V30 7465 H 710.323 -0.241412 -4.2211 0
M  V30 7466 H 708.041 -3.45027 -7.30741 0
M  V30 7467 H 711.627 -1.91349 -5.49433 0
M  V30 7468 H 710.507 -3.4964 -7.01941 0
M  V30 7469 N 708.01 1.57248 0.105221 0
M  V30 7470 C 709.257 1.8557 0.810552 0
M  V30 7471 C 709.585 0.755595 1.79223 0
M  V30 7472 O 708.84 -0.251788 1.94073 0
M  V30 7473 C 709.139 3.20437 1.58287 0
M  V30 7474 C 708.805 4.44716 0.744235 0
M  V30 7475 C 707.467 4.78458 0.513013 0
M  V30 7476 C 709.819 5.20953 0.160578 0
M  V30 7477 C 707.147 5.8587 -0.311894 0
M  V30 7478 C 709.499 6.29235 -0.651596 0
M  V30 7479 C 708.163 6.615 -0.893005 0
M  V30 7480 H 707.433 0.67905 0.296602 0
M  V30 7481 H 710.08 1.91363 0.0723968 0
M  V30 7482 H 708.385 3.10283 2.39232 0
M  V30 7483 H 710.082 3.39576 2.13282 0
M  V30 7484 H 706.672 4.18287 0.934555 0
M  V30 7485 H 710.856 4.95226 0.3264 0
M  V30 7486 H 706.112 6.09286 -0.508012 0
M  V30 7487 H 710.286 6.87484 -1.11077 0
M  V30 7488 H 707.913 7.44562 -1.53401 0
M  V30 7489 N 709.488 -0.375779 1.53054 0
M  V30 7490 C 710.736 -1.11727 1.68409 0
M  V30 7491 C 711.057 -1.90127 0.43323 0
M  V30 7492 O 710.327 -1.87945 -0.552595 0
M  V30 7493 H 708.907 -0.415451 0.620813 0
M  V30 7494 H 711.569 -0.424869 1.90213 0
M  V30 7495 H 710.665 -1.8128 2.54055 0
M  V30 7496 N 710.966 -1.44241 -0.634997 0
M  V30 7497 C 711.914 -1.51103 -1.76835 0
M  V30 7498 C 712.908 -0.383051 -1.65012 0
M  V30 7499 O 714.114 -0.557832 -1.71138 0
M  V30 7500 H 710.489 -0.474076 -0.583743 0
M  V30 7501 H 712.46 -2.46499 -1.68169 0
M  V30 7502 C 711.209 -1.4687 -3.15158 0
M  V30 7503 H 710.532 -2.32979 -3.24901 0
M  V30 7504 H 711.972 -1.55731 -3.94365 0
M  V30 7505 C 710.431 -0.188884 -3.3637 0
M  V30 7506 O 710.961 0.742487 -3.94778 0
M  V30 7507 N 709.167 -0.0932516 -2.9045 0
M  V30 7508 H 708.714 -0.852004 -2.43102 0
M  V30 7509 H 708.672 0.762308 -3.05018 0
M  V30 7510 N 712.444 0.87505 -1.31075 0
M  V30 7511 C 713.374 1.99775 -1.20881 0
M  V30 7512 C 714.355 1.69822 -0.0971612 0
M  V30 7513 O 715.54 1.92158 -0.280895 0
M  V30 7514 C 712.67 3.35163 -0.910118 0
M  V30 7515 C 711.624 3.79406 -1.98078 0
M  V30 7516 C 710.95 5.12197 -1.53488 0
M  V30 7517 C 712.25 3.97061 -3.39323 0
M  V30 7518 H 713.944 2.08562 -2.14808 0
M  V30 7519 H 711.49 1.00207 -1.03415 0
M  V30 7520 H 713.443 4.13237 -0.825423 0
M  V30 7521 H 712.167 3.26536 0.064822 0
M  V30 7522 H 710.826 3.03568 -2.05528 0
M  V30 7523 H 710.474 5.00007 -0.547941 0
M  V30 7524 H 710.174 5.4277 -2.2511 0
M  V30 7525 H 711.698 5.92785 -1.46417 0
M  V30 7526 H 713.112 4.65545 -3.34576 0
M  V30 7527 H 711.509 4.39025 -4.09118 0
M  V30 7528 H 712.579 3.00601 -3.80483 0
M  V30 7529 N 713.922 1.13953 1.08869 0
M  V30 7530 C 714.854 0.779906 2.15523 0
M  V30 7531 C 715.867 -0.20102 1.61554 0
M  V30 7532 O 717.056 0.0200049 1.78489 0
M  V30 7533 C 714.156 0.136226 3.38626 0
M  V30 7534 C 713.329 1.15069 4.21993 0
M  V30 7535 C 712.388 0.531645 5.23507 0
M  V30 7536 O 711.414 1.19327 5.56552 0
M  V30 7537 N 712.616 -0.693734 5.7634 0
M  V30 7538 H 715.381 1.69769 2.46979 0
M  V30 7539 H 712.942 1.03331 1.24637 0
M  V30 7540 H 714.934 -0.290295 4.03658 0
M  V30 7541 H 713.504 -0.684603 3.05011 0
M  V30 7542 H 712.724 1.75431 3.53012 0
M  V30 7543 H 714.012 1.83614 4.74514 0
M  V30 7544 H 713.41 -1.24994 5.51718 0
M  V30 7545 H 711.967 -1.06283 6.43076 0
M  V30 7546 N 715.4 -1.26948 0.933913 0
M  V30 7547 C 716.649 -1.93378 0.573409 0
M  V30 7548 C 716.962 -1.74148 -0.890614 0
M  V30 7549 O 718.168 -2.34971 -1.36017 0
M  V30 7550 C 716.624 -3.46449 0.974747 0
M  V30 7551 C 716.232 -3.74425 2.45988 0
M  V30 7552 C 717.976 -4.18924 0.685791 0
M  V30 7553 C 715.883 -5.209 2.8003 0
M  V30 7554 H 714.813 -0.723952 0.210736 0
M  V30 7555 H 717.464 -1.44143 1.13557 0
M  V30 7556 H 715.846 -3.94528 0.341181 0
M  V30 7557 H 717.02 -3.37079 3.14188 0
M  V30 7558 H 715.335 -3.15167 2.72138 0
M  V30 7559 H 717.932 -5.26786 0.916546 0
M  V30 7560 H 718.275 -4.14587 -0.377217 0
M  V30 7561 H 718.808 -3.76687 1.27874 0
M  V30 7562 H 715.547 -5.30332 3.85264 0
M  V30 7563 H 715.067 -5.59369 2.16485 0
M  V30 7564 H 716.746 -5.88837 2.68105 0
M  V30 7565 N 716.879 -0.700114 -1.41195 0
M  V30 7566 C 717.827 -0.0263301 -2.32585 0
M  V30 7567 C 718.821 0.763683 -1.51209 0
M  V30 7568 O 720.027 0.668793 -1.67114 0
M  V30 7569 H 716.402 0.0102869 -0.75193 0
M  V30 7570 H 718.373 -0.814087 -2.8708 0
M  V30 7571 C 717.122 0.892793 -3.36042 0
M  V30 7572 H 716.445 0.294306 -3.98715 0
M  V30 7573 H 717.885 1.33247 -4.02518 0
M  V30 7574 C 716.344 2.01109 -2.7029 0
M  V30 7575 O 716.874 3.10035 -2.55423 0
M  V30 7576 N 715.08 1.79015 -2.28915 0
M  V30 7577 H 714.627 0.904275 -2.41207 0
M  V30 7578 H 714.585 2.54022 -1.85257 0
M  V30 7579 N 718.357 1.51182 -0.445186 0
M  V30 7580 C 719.32 2.26501 0.350722 0
M  V30 7581 C 720.32 1.3025 0.942952 0
M  V30 7582 O 721.51 1.53897 0.816175 0
M  V30 7583 C 718.642 3.06274 1.49697 0
M  V30 7584 H 719.835 2.98299 -0.309474 0
M  V30 7585 H 717.388 1.55034 -0.198551 0
M  V30 7586 H 718.123 2.38911 2.19299 0
M  V30 7587 H 717.908 3.76979 1.0784 0
M  V30 7588 H 719.398 3.63306 2.05909 0
M  V30 7589 N 719.835 0.176821 1.56605 0
M  V30 7590 C 720.785 -0.763718 2.14829 0
M  V30 7591 C 721.769 -1.18903 1.08401 0
M  V30 7592 O 722.961 -1.15048 1.3451 0
M  V30 7593 C 720.09 -1.99069 2.7969 0
M  V30 7594 C 719.176 -1.58711 3.93283 0
M  V30 7595 N 719.567 -0.893423 4.97847 0
M  V30 7596 C 717.865 -1.87774 4.04545 0
M  V30 7597 C 718.566 -0.693866 5.77547 0
M  V30 7598 N 717.542 -1.23699 5.29339 0
M  V30 7599 H 721.344 -0.224811 2.93039 0
M  V30 7600 H 718.858 -0.0236563 1.62383 0
M  V30 7601 H 720.855 -2.67478 3.19783 0
M  V30 7602 H 719.515 -2.53449 2.02962 0
M  V30 7603 H 720.526 -0.550868 5.14962 0
M  V30 7604 H 717.203 -2.43793 3.38927 0
M  V30 7605 H 718.593 -0.144899 6.71744 0
M  V30 7606 N 721.313 -1.57302 -0.09688 0
M  V30 7607 C 722.243 -2.0497 -1.11846 0
M  V30 7608 C 723.224 -0.938278 -1.41882 0
M  V30 7609 O 724.409 -1.20943 -1.51942 0
M  V30 7610 C 721.539 -2.47264 -2.43881 0
M  V30 7611 C 720.493 -3.62053 -2.28257 0
M  V30 7612 C 719.819 -3.90318 -3.65453 0
M  V30 7613 C 721.119 -4.93005 -1.72461 0
M  V30 7614 H 722.813 -2.90567 -0.721888 0
M  V30 7615 H 720.359 -1.39786 -0.345803 0
M  V30 7616 H 722.312 -2.7922 -3.15617 0
M  V30 7617 H 721.036 -1.58664 -2.8547 0
M  V30 7618 H 719.695 -3.30341 -1.58967 0
M  V30 7619 H 719.343 -2.98889 -4.04567 0
M  V30 7620 H 719.043 -4.67597 -3.55846 0
M  V30 7621 H 720.567 -4.24747 -4.3866 0
M  V30 7622 H 721.981 -5.23354 -2.34036 0
M  V30 7623 H 720.378 -5.74436 -1.73618 0
M  V30 7624 H 721.448 -4.80053 -0.683898 0
M  V30 7625 N 722.791 0.367657 -1.53252 0
M  V30 7626 C 724.207 0.709191 -1.42978 0
M  V30 7627 C 724.407 1.93352 -0.567193 0
M  V30 7628 O 723.463 2.52453 -0.0488349 0
M  V30 7629 C 724.776 0.924338 -2.86141 0
M  V30 7630 C 726.324 1.02448 -2.95759 0
M  V30 7631 C 726.799 1.27211 -4.39979 0
M  V30 7632 N 728.29 1.33986 -4.43398 0
M  V30 7633 C 729.025 1.54852 -5.52095 0
M  V30 7634 N 728.521 1.73049 -6.7084 0
M  V30 7635 N 730.314 1.57205 -5.39669 0
M  V30 7636 H 722.465 -0.437669 -2.07842 0
M  V30 7637 H 724.728 -0.133737 -0.938519 0
M  V30 7638 H 724.434 0.0965455 -3.51567 0
M  V30 7639 H 724.308 1.83302 -3.29667 0
M  V30 7640 H 726.695 1.84282 -2.30487 0
M  V30 7641 H 726.776 0.0932301 -2.5563 0
M  V30 7642 H 726.42 0.458792 -5.05824 0
M  V30 7643 H 726.35 2.21654 -4.77679 0
M  V30 7644 H 728.841 1.21545 -3.5782 0
M  V30 7645 H 729.154 1.88538 -7.49449 0
M  V30 7646 H 727.499 1.70231 -6.7383 0
M  V30 7647 H 730.69 1.42555 -4.45865 0
M  V30 7648 H 730.863 1.73126 -6.24445 0
M  V30 7649 N 724.269 1.44576 0.627338 0
M  V30 7650 C 725.216 1.51734 1.73912 0
M  V30 7651 C 726.186 0.364745 1.62046 0
M  V30 7652 O 727.371 0.575503 1.81914 0
M  V30 7653 C 724.511 1.47116 3.12171 0
M  V30 7654 C 723.624 2.72778 3.34986 0
M  V30 7655 C 722.759 2.59968 4.63239 0
M  V30 7656 C 721.798 3.80776 4.79245 0
M  V30 7657 N 720.935 3.66618 5.98778 0
M  V30 7658 H 725.775 2.46722 1.6713 0
M  V30 7659 H 723.312 1.22444 0.815224 0
M  V30 7660 H 725.27 1.42429 3.92135 0
M  V30 7661 H 723.9 0.556928 3.17959 0
M  V30 7662 H 722.952 2.87637 2.48936 0
M  V30 7663 H 724.264 3.62441 3.42692 0
M  V30 7664 H 723.418 2.53135 5.51369 0
M  V30 7665 H 722.157 1.67872 4.57898 0
M  V30 7666 H 721.162 3.87989 3.89544 0
M  V30 7667 H 722.387 4.73913 4.86398 0
M  V30 7668 H 720.333 2.77277 5.9452 0
M  V30 7669 H 720.25 4.499 6.07557 0
M  V30 7670 H 721.518 3.63684 6.89459 0
M  V30 7671 N 725.747 -0.868086 1.31537 0
M  V30 7672 C 726.975 -1.65402 1.24298 0
M  V30 7673 C 727.39 -1.87827 -0.191389 0
M  V30 7674 O 726.747 -1.43776 -1.12404 0
M  V30 7675 C 726.798 -3.02093 1.9855 0
M  V30 7676 O 726.519 -2.80668 3.36388 0
M  V30 7677 C 728.02 -3.96538 1.98173 0
M  V30 7678 H 725.24 -0.515598 0.429417 0
M  V30 7679 H 727.784 -1.0834 1.73444 0
M  V30 7680 H 725.939 -3.55838 1.53161 0
M  V30 7681 H 726.353 -3.67504 3.74221 0
M  V30 7682 H 727.827 -4.8976 2.54635 0
M  V30 7683 H 728.304 -4.28474 0.964697 0
M  V30 7684 H 728.91 -3.48729 2.4345 0
M  V30 7685 N 727.225 -1.14528 -1.08264 0
M  V30 7686 C 728.453 -0.937964 -1.84418 0
M  V30 7687 C 728.868 0.51357 -1.81681 0
M  V30 7688 O 728.225 1.35591 -1.22153 0
M  V30 7689 C 728.276 -1.43272 -3.31897 0
M  V30 7690 O 727.997 -2.82738 -3.34651 0
M  V30 7691 C 729.498 -1.26555 -4.24851 0
M  V30 7692 H 726.718 -0.333704 -0.582136 0
M  V30 7693 H 729.262 -1.52076 -1.36723 0
M  V30 7694 H 727.417 -0.892653 -3.76975 0
M  V30 7695 H 727.831 -3.04971 -4.26724 0
M  V30 7696 H 729.305 -1.66031 -5.26439 0
M  V30 7697 H 729.782 -0.208589 -4.38704 0
M  V30 7698 H 730.388 -1.79423 -3.856 0
M  V30 7699 N 728.703 1.26451 -0.940633 0
M  V30 7700 C 729.613 2.30128 -0.455881 0
M  V30 7701 C 730.629 1.67536 0.469867 0
M  V30 7702 O 731.805 1.98344 0.349529 0
M  V30 7703 C 728.87 3.45634 0.271648 0
M  V30 7704 C 727.931 4.23709 -0.690594 0
M  V30 7705 C 727.164 5.337 0.00231047 0
M  V30 7706 O 727.387 5.57215 1.21935 0
M  V30 7707 O 726.321 5.98091 -0.676111 0
M  V30 7708 H 730.147 2.73655 -1.31707 0
M  V30 7709 H 727.732 1.3164 -0.706497 0
M  V30 7710 H 729.614 4.15853 0.681486 0
M  V30 7711 H 728.289 3.04138 1.10824 0
M  V30 7712 H 727.196 3.55974 -1.15037 0
M  V30 7713 H 728.529 4.68953 -1.49478 0
M  V30 7714 N 730.181 0.707592 1.40822 0
M  V30 7715 C 731.411 0.252706 2.05049 0
M  V30 7716 C 731.819 -1.10758 1.53393 0
M  V30 7717 O 731.162 -1.70567 0.682097 0
M  V30 7718 C 731.224 0.146001 3.59203 0
M  V30 7719 C 730.888 1.44027 4.33711 0
M  V30 7720 C 731.885 2.38058 4.62195 0
M  V30 7721 C 729.57 1.69698 4.72766 0
M  V30 7722 C 731.564 3.56013 5.28709 0
M  V30 7723 C 729.251 2.87936 5.39014 0
M  V30 7724 C 730.249 3.80915 5.66915 0
M  V30 7725 O 729.937 4.9708 6.31796 0
M  V30 7726 H 729.669 0.112784 0.666525 0
M  V30 7727 H 732.223 0.96417 1.81364 0
M  V30 7728 H 730.453 -0.621338 3.81676 0
M  V30 7729 H 732.142 -0.273275 4.04979 0
M  V30 7730 H 732.908 2.19487 4.32493 0
M  V30 7731 H 728.787 0.981835 4.50423 0
M  V30 7732 H 732.331 4.28604 5.50404 0
M  V30 7733 H 728.228 3.06419 5.68135 0
M  V30 7734 H 728.996 4.97053 6.50293 0
M  V30 7735 N 731.66 -1.50943 0.453197 0
M  V30 7736 C 732.937 -1.94872 -0.168633 0
M  V30 7737 C 733.317 -1.39272 -1.5864 0
M  V30 7738 O 732.665 -0.586272 -2.20851 0
M  V30 7739 C 732.875 -3.48757 -0.130217 0
M  V30 7740 C 734.223 -4.23331 -0.327975 0
M  V30 7741 O 735.247 -3.55594 -0.207619 0
M  V30 7742 O 734.106 -5.43529 -0.569077 0
M  V30 7743 H 731.2 -0.818042 -0.121394 0
M  V30 7744 H 733.746 -1.61782 0.512316 0
M  V30 7745 H 732.518 -3.81725 0.860346 0
M  V30 7746 H 732.141 -3.88333 -0.853397 0
M  V30 7747 N 733.138 -0.185124 -1.56509 0
M  V30 7748 C 734.363 0.465278 -2.02114 0
M  V30 7749 C 734.788 1.55083 -1.06447 0
M  V30 7750 O 734.146 1.81241 -0.0462852 0
M  V30 7751 C 734.194 1.00784 -3.46229 0
M  V30 7752 O 733.298 2.12123 -3.53663 0
M  V30 7753 H 732.639 0.109891 -0.654843 0
M  V30 7754 H 735.169 -0.293072 -2.0249 0
M  V30 7755 H 735.179 1.32697 -3.85818 0
M  V30 7756 H 733.854 0.213113 -4.15354 0
M  V30 7757 H 732.431 1.8115 -3.25943 0
M  V30 7758 N 734.616 1.57351 0.0885366 0
M  V30 7759 C 735.865 1.85604 0.789556 0
M  V30 7760 C 736.178 0.775352 1.79576 0
M  V30 7761 O 737.384 0.945206 2.54515 0
M  V30 7762 C 735.84 3.29175 1.45506 0
M  V30 7763 C 735.448 4.45331 0.488278 0
M  V30 7764 C 737.192 3.66646 2.13942 0
M  V30 7765 C 735.099 5.79937 1.15874 0
M  V30 7766 H 734.029 0.692346 0.298619 0
M  V30 7767 H 736.68 1.83451 0.0425821 0
M  V30 7768 H 735.062 3.25889 2.24972 0
M  V30 7769 H 736.236 4.59977 -0.275359 0
M  V30 7770 H 734.551 4.16301 -0.0907363 0
M  V30 7771 H 737.148 4.64498 2.6485 0
M  V30 7772 H 737.491 2.956 2.93132 0
M  V30 7773 H 738.024 3.71848 1.41328 0
M  V30 7774 H 734.763 6.54232 0.407508 0
M  V30 7775 H 734.283 5.69123 1.89364 0
M  V30 7776 H 735.962 6.24718 1.68336 0
M  V30 7777 N 736.094 -0.359525 1.53444 0
M  V30 7778 C 737.319 -1.12644 1.74144 0
M  V30 7779 C 737.744 -1.82082 0.472007 0
M  V30 7780 O 737.102 -1.71962 -0.57436 0
M  V30 7781 C 737.15 -2.12781 2.9113 0
M  V30 7782 O 736.254 -3.19984 2.60162 0
M  V30 7783 H 735.595 -0.326553 0.578152 0
M  V30 7784 H 738.125 -0.414798 2.00351 0
M  V30 7785 H 738.135 -2.56278 3.17467 0
M  V30 7786 H 736.81 -1.61634 3.83207 0
M  V30 7787 H 735.387 -2.81417 2.44661 0
M  V30 7788 N 737.572 -1.44907 -0.619662 0
M  V30 7789 C 738.983 -1.42905 -1.20146 0
M  V30 7790 C 739.334 -0.150341 -1.95623 0
M  V30 7791 O 738.459 0.748732 -2.03034 0
M  V30 7792 C 739.054 -2.58889 -2.18545 0
M  V30 7793 C 737.613 -2.60046 -2.72127 0
M  V30 7794 C 736.76 -2.3493 -1.4732 0
M  V30 7795 H 739.711 -1.53321 -0.409666 0
M  V30 7796 H 739.732 -2.32298 -3.0136 0
M  V30 7797 H 739.244 -3.51941 -1.63583 0
M  V30 7798 H 737.345 -1.70968 -3.3106 0
M  V30 7799 H 737.458 -3.58893 -3.17384 0
M  V30 7800 H 735.822 -1.84248 -1.75855 0
M  V30 7801 H 736.605 -3.3011 -0.942442 0
M  V30 7802 N 739.05 0.861098 -1.31996 0
M  V30 7803 C 739.998 1.99052 -1.20337 0
M  V30 7804 C 740.992 1.69045 -0.109623 0
M  V30 7805 O 742.198 1.77931 -0.272117 0
M  V30 7806 H 738.573 0.653064 -0.372843 0
M  V30 7807 H 740.544 2.06015 -2.15872 0
M  V30 7808 C 739.293 3.34846 -0.936663 0
M  V30 7809 H 738.616 3.58462 -1.77045 0
M  V30 7810 H 740.056 4.1444 -0.895302 0
M  V30 7811 C 738.515 3.34965 0.360607 0
M  V30 7812 O 739.045 3.7745 1.37456 0
M  V30 7813 N 737.251 2.88101 0.380296 0
M  V30 7814 H 736.798 2.53721 -0.445351 0
M  V30 7815 H 736.756 2.88563 1.24816 0
M  V30 7816 N 740.528 1.15101 1.07655 0
M  V30 7817 C 741.944 0.893004 1.32279 0
M  V30 7818 C 742.144 -0.461701 1.96139 0
M  V30 7819 O 741.2 -1.20431 2.21929 0
M  V30 7820 C 742.513 2.03161 2.21689 0
M  V30 7821 C 744.061 2.06579 2.35147 0
M  V30 7822 C 744.536 3.19754 3.27905 0
M  V30 7823 N 746.027 3.19382 3.35484 0
M  V30 7824 C 746.762 4.03592 4.07309 0
M  V30 7825 N 746.258 4.97859 4.81776 0
M  V30 7826 N 748.051 3.91626 4.03219 0
M  V30 7827 H 740.202 2.02341 0.645886 0
M  V30 7828 H 742.465 0.882127 0.347211 0
M  V30 7829 H 742.171 3.00934 1.82021 0
M  V30 7830 H 742.045 1.96132 3.22199 0
M  V30 7831 H 744.432 1.09408 2.74069 0
M  V30 7832 H 744.513 2.17676 1.34353 0
M  V30 7833 H 744.157 4.17175 2.89702 0
M  V30 7834 H 744.087 3.05893 4.28645 0
M  V30 7835 H 746.578 2.51112 2.82403 0
M  V30 7836 H 746.891 5.58563 5.34067 0
M  V30 7837 H 745.236 5.0185 4.80803 0
M  V30 7838 H 748.427 3.17295 3.44154 0
M  V30 7839 H 748.6 4.57479 4.5893 0
M  V30 7840 N 742.006 -1.2595 0.947325 0
M  V30 7841 C 743.283 -1.88676 0.515824 0
M  V30 7842 C 743.663 -1.85547 -1.00675 0
M  V30 7843 O 743.011 -1.31399 -1.8694 0
M  V30 7844 C 743.221 -3.31734 1.08415 0
M  V30 7845 C 744.569 -4.08545 1.15654 0
M  V30 7846 O 745.593 -3.40826 1.03517 0
M  V30 7847 O 744.452 -5.29663 1.34608 0
M  V30 7848 H 741.546 -0.809537 0.169055 0
M  V30 7849 H 744.092 -1.34075 1.04029 0
M  V30 7850 H 742.864 -3.28404 2.1276 0
M  V30 7851 H 742.487 -3.93882 0.542499 0
M  V30 7852 N 743.484 -0.715051 -1.40445 0
M  V30 7853 C 744.731 -0.254328 -2.00897 0
M  V30 7854 C 745.059 1.15228 -1.56693 0
M  V30 7855 O 744.314 1.7958 -0.777786 0
M  V30 7856 C 744.613 -0.281791 -3.56287 0
M  V30 7857 C 744.279 -1.63862 -4.20071 0
M  V30 7858 C 742.941 -2.01003 -4.37208 0
M  V30 7859 C 745.293 -2.53039 -4.55654 0
M  V30 7860 C 742.621 -3.26869 -4.8721 0
M  V30 7861 C 744.973 -3.78256 -5.07055 0
M  V30 7862 C 743.637 -4.15515 -5.22401 0
M  V30 7863 H 742.907 -0.0930652 -0.735133 0
M  V30 7864 H 745.554 -0.917977 -1.68064 0
M  V30 7865 H 743.859 0.465428 -3.89026 0
M  V30 7866 H 745.556 0.0925158 -4.00893 0
M  V30 7867 H 742.146 -1.33979 -4.07121 0
M  V30 7868 H 746.33 -2.2562 -4.42051 0
M  V30 7869 H 741.586 -3.55706 -4.97276 0
M  V30 7870 H 745.76 -4.47528 -5.33565 0
M  V30 7871 H 743.387 -5.13114 -5.60909 0
M  V30 7872 N 744.962 1.50701 -0.461195 0
M  V30 7873 C 745.894 2.26124 0.374244 0
M  V30 7874 C 746.907 1.31064 0.965715 0
M  V30 7875 O 748.096 1.56647 0.855801 0
M  V30 7876 C 745.196 3.01996 1.5379 0
M  V30 7877 C 744.369 4.24336 1.06101 0
M  V30 7878 C 743.428 4.82585 2.09756 0
M  V30 7879 O 742.454 5.43775 1.68219 0
M  V30 7880 N 743.656 4.68712 3.42475 0
M  V30 7881 H 746.421 2.9846 -0.2723 0
M  V30 7882 H 743.982 1.59256 -0.291415 0
M  V30 7883 H 745.974 3.37846 2.22806 0
M  V30 7884 H 744.544 2.32521 2.08933 0
M  V30 7885 H 743.764 3.93707 0.197085 0
M  V30 7886 H 745.052 5.03678 0.720156 0
M  V30 7887 H 744.45 4.20026 3.78938 0
M  V30 7888 H 743.007 5.08858 4.07317 0
M  V30 7889 N 746.441 0.193421 1.56409 0
M  V30 7890 C 747.689 -0.444908 1.97142 0
M  V30 7891 C 748.01 -1.62268 1.08139 0
M  V30 7892 O 747.28 -1.95307 0.152326 0
M  V30 7893 H 745.86 -0.16736 0.728011 0
M  V30 7894 H 748.522 0.279763 1.92882 0
M  V30 7895 H 747.618 -0.790159 3.01932 0
M  V30 7896 N 747.919 -1.57396 -0.0801906 0
M  V30 7897 C 748.869 -1.9955 -1.10289 0
M  V30 7898 C 749.853 -0.876234 -1.34948 0
M  V30 7899 O 751.045 -1.14012 -1.35389 0
M  V30 7900 C 748.174 -2.43596 -2.419 0
M  V30 7901 C 747.26 -3.6224 -2.20551 0
M  V30 7902 N 747.651 -4.76693 -1.69109 0
M  V30 7903 C 745.949 -3.68627 -2.51059 0
M  V30 7904 C 746.65 -5.58577 -1.62379 0
M  V30 7905 N 745.626 -5.02178 -2.0813 0
M  V30 7906 H 749.428 -2.85483 -0.698335 0
M  V30 7907 H 746.942 -1.59837 -0.287395 0
M  V30 7908 H 748.939 -2.72031 -3.15919 0
M  V30 7909 H 747.599 -1.59047 -2.8308 0
M  V30 7910 H 748.61 -4.9915 -1.38092 0
M  V30 7911 H 745.287 -2.94772 -2.95661 0
M  V30 7912 H 746.677 -6.60447 -1.2353 0
M  V30 7913 N 749.397 0.351382 -1.53633 0
M  V30 7914 C 750.808 0.927429 -1.62036 0
M  V30 7915 C 751.159 1.89809 -0.496706 0
M  V30 7916 O 750.284 2.1313 0.374749 0
M  V30 7917 C 750.879 1.68886 -2.93706 0
M  V30 7918 C 749.438 2.21404 -3.04397 0
M  V30 7919 C 748.585 1.03075 -2.57431 0
M  V30 7920 H 751.536 0.129748 -1.58169 0
M  V30 7921 H 751.557 2.55116 -2.82305 0
M  V30 7922 H 751.069 0.982149 -3.75467 0
M  V30 7923 H 749.17 2.95274 -2.27253 0
M  V30 7924 H 749.283 2.48312 -4.09729 0
M  V30 7925 H 747.647 1.40188 -2.12649 0
M  V30 7926 H 748.43 0.338793 -3.41624 0
M  V30 7927 N 750.875 1.45233 0.611969 0
M  V30 7928 C 752.152 1.39495 1.37115 0
M  V30 7929 C 752.532 0.0633303 2.11005 0
M  V30 7930 O 751.88 -0.954617 2.07604 0
M  V30 7931 C 752.09 2.60579 2.32163 0
M  V30 7932 C 753.438 3.05477 2.94905 0
M  V30 7933 O 754.462 2.60921 2.42485 0
M  V30 7934 O 753.321 3.82787 3.90047 0
M  V30 7935 H 750.415 0.55335 0.614599 0
M  V30 7936 H 752.961 1.57355 0.635423 0
M  V30 7937 H 751.733 3.49085 1.76793 0
M  V30 7938 H 751.356 2.45031 3.13122 0
M  V30 7939 N 752.353 -0.854086 1.3245 0
M  V30 7940 C 753.283 -1.97827 1.24044 0
M  V30 7941 C 754.264 -1.69646 0.124166 0
M  V30 7942 O 755.449 -1.91687 0.31143 0
M  V30 7943 C 752.579 -3.33673 0.963324 0
M  V30 7944 C 751.533 -3.76207 2.04089 0
M  V30 7945 C 750.859 -5.0969 1.61618 0
M  V30 7946 C 752.159 -3.91612 3.45597 0
M  V30 7947 H 753.853 -2.05118 2.18099 0
M  V30 7948 H 751.399 -0.985489 1.04996 0
M  V30 7949 H 753.352 -4.11871 0.891061 0
M  V30 7950 H 752.076 -3.26597 -0.0128649 0
M  V30 7951 H 750.735 -3.0026 2.10332 0
M  V30 7952 H 750.383 -4.99072 0.627418 0
M  V30 7953 H 750.083 -5.3912 2.33717 0
M  V30 7954 H 751.607 -5.90381 1.55829 0
M  V30 7955 H 753.021 -4.60163 3.4194 0
M  V30 7956 H 751.418 -4.3246 4.16051 0
M  V30 7957 H 752.488 -2.9451 3.85217 0
M  V30 7958 N 753.831 -1.1567 -1.07043 0
M  V30 7959 C 754.763 -0.814095 -2.14255 0
M  V30 7960 C 755.776 0.175293 -1.61854 0
M  V30 7961 O 756.965 -0.0483984 -1.78434 0
M  V30 7962 C 754.065 -0.190082 -3.38367 0
M  V30 7963 C 753.238 -1.21768 -4.20109 0
M  V30 7964 C 752.297 -0.614863 -5.22595 0
M  V30 7965 O 751.323 -1.28167 -5.54583 0
M  V30 7966 N 752.525 0.601955 -5.77371 0
M  V30 7967 H 755.29 -1.73677 -2.44247 0
M  V30 7968 H 752.851 -1.05301 -1.22977 0
M  V30 7969 H 754.843 0.22604 -4.04068 0
M  V30 7970 H 753.413 0.635992 -3.06062 0
M  V30 7971 H 752.633 -1.81025 -3.50177 0
M  V30 7972 H 753.921 -1.9114 -4.71533 0
M  V30 7973 H 753.319 1.162 -5.53637 0
M  V30 7974 H 751.876 0.96039 -6.44686 0
M  V30 7975 N 755.309 1.25446 -0.953992 0
M  V30 7976 C 756.256 2.25912 -0.472485 0
M  V30 7977 C 757.226 1.59173 0.47469 0
M  V30 7978 O 758.411 1.86812 0.388082 0
M  V30 7979 C 755.551 3.44235 0.244218 0
M  V30 7980 C 754.664 4.25613 -0.740121 0
M  V30 7981 C 753.799 5.312 -0.000922267 0
M  V30 7982 C 752.838 6.04265 -0.976236 0
M  V30 7983 N 751.975 7.01589 -0.267952 0
M  V30 7984 H 756.815 2.66469 -1.3341 0
M  V30 7985 H 754.352 1.31005 -0.669045 0
M  V30 7986 H 756.31 4.11682 0.676314 0
M  V30 7987 H 754.94 3.04554 1.06988 0
M  V30 7988 H 753.992 3.57834 -1.2907 0
M  V30 7989 H 755.304 4.762 -1.48441 0
M  V30 7990 H 754.458 6.04719 0.48984 0
M  V30 7991 H 753.197 4.81484 0.776159 0
M  V30 7992 H 752.202 5.29561 -1.478 0
M  V30 7993 H 753.427 6.5607 -1.75354 0
M  V30 7994 H 751.373 6.54164 0.490403 0
M  V30 7995 H 751.29 7.4999 -0.951344 0
M  V30 7996 H 752.558 7.7924 0.201294 0
M  V30 7997 N 756.787 0.722489 1.40064 0
M  V30 7998 C 758.064 0.191829 1.94657 0
M  V30 7999 C 758.444 -1.30389 1.66018 0
M  V30 8000 O 757.792 -2.06342 0.981588 0
M  V30 8001 C 758.002 0.511978 3.45224 0
M  V30 8002 C 759.35 0.454426 4.22161 0
M  V30 8003 O 760.374 0.448438 3.53366 0
M  V30 8004 O 759.233 0.437986 5.44742 0
M  V30 8005 H 756.327 0.0307821 0.826427 0
M  V30 8006 H 758.873 0.800493 1.49634 0
M  V30 8007 H 757.645 1.54622 3.59455 0
M  V30 8008 H 757.268 -0.126296 3.97399 0
M  V30 8009 N 758.265 -1.50454 0.469181 0
M  V30 8010 C 759.493 -2.06729 -0.0842134 0
M  V30 8011 C 759.908 -1.33326 -1.33677 0
M  V30 8012 O 759.265 -0.401977 -1.78018 0
M  V30 8013 C 759.316 -3.59557 -0.374253 0
M  V30 8014 O 759.037 -4.30192 0.828622 0
M  V30 8015 C 760.538 -4.32449 -0.974824 0
M  V30 8016 H 757.758 -0.670971 0.006231 0
M  V30 8017 H 760.302 -1.93645 0.657415 0
M  V30 8018 H 758.457 -3.7245 -1.06581 0
M  V30 8019 H 758.871 -5.21371 0.572066 0
M  V30 8020 H 760.345 -5.40361 -1.12755 0
M  V30 8021 H 760.822 -3.92819 -1.96442 0
M  V30 8022 H 761.428 -4.24082 -0.321703 0
M  V30 8023 N 759.743 -0.201713 -1.56304 0
M  V30 8024 C 760.968 0.443815 -2.02596 0
M  V30 8025 C 761.393 1.53945 -1.08086 0
M  V30 8026 O 760.751 1.81182 -0.0655056 0
M  V30 8027 C 760.799 0.971066 -3.47279 0
M  V30 8028 O 759.903 2.0836 -3.55893 0
M  V30 8029 H 759.244 0.10294 -0.655972 0
M  V30 8030 H 761.774 -0.314533 -2.02168 0
M  V30 8031 H 761.784 1.28598 -3.87204 0
M  V30 8032 H 760.459 0.169048 -4.15556 0
M  V30 8033 H 759.036 1.77683 -3.27846 0
M  V30 8034 N 761.222 1.57436 0.0718424 0
M  V30 8035 C 762.169 2.03686 1.08539 0
M  V30 8036 C 763.139 0.917474 1.38462 0
M  V30 8037 O 764.324 1.18513 1.4953 0
M  V30 8038 C 761.464 2.48566 2.39393 0
M  V30 8039 C 760.577 3.74122 2.16001 0
M  V30 8040 C 759.712 4.07786 3.40418 0
M  V30 8041 C 758.751 5.26383 3.1239 0
M  V30 8042 N 757.888 5.55685 4.29138 0
M  V30 8043 H 762.728 2.90043 0.684018 0
M  V30 8044 H 760.265 1.43438 0.326183 0
M  V30 8045 H 762.223 2.72639 3.15791 0
M  V30 8046 H 760.853 1.65186 2.77333 0
M  V30 8047 H 759.905 3.57389 1.30296 0
M  V30 8048 H 761.217 4.60659 1.91298 0
M  V30 8049 H 760.371 4.32759 4.25211 0
M  V30 8050 H 759.11 3.19817 3.68197 0
M  V30 8051 H 758.115 5.01206 2.25993 0
M  V30 8052 H 759.34 6.1597 2.85934 0
M  V30 8053 H 757.286 4.70675 4.56948 0
M  V30 8054 H 757.203 6.3664 4.07708 0
M  V30 8055 H 758.471 5.85209 5.14928 0
M  V30 8056 N 762.7 -0.34323 1.53817 0
M  V30 8057 C 763.648 -1.44176 1.82527 0
M  V30 8058 C 764.642 -1.54452 0.695772 0
M  V30 8059 O 765.848 -1.57072 0.879114 0
M  V30 8060 H 762.223 -0.480729 0.578277 0
M  V30 8061 H 764.194 -1.17176 2.74431 0
M  V30 8062 C 762.943 -2.80695 2.05197 0
M  V30 8063 H 762.266 -2.73554 2.91561 0
M  V30 8064 H 763.706 -3.56679 2.29251 0
M  V30 8065 C 762.165 -3.26322 0.837589 0
M  V30 8066 O 762.695 -4.01683 0.0371631 0
M  V30 8067 N 760.901 -2.83128 0.654724 0
M  V30 8068 H 760.448 -2.21965 1.30725 0
M  V30 8069 H 760.406 -3.14011 -0.156345 0
M  V30 8070 N 764.178 -1.45556 -0.604258 0
M  V30 8071 C 765.141 -1.54091 -1.69672 0
M  V30 8072 C 766.141 -0.420076 -1.55216 0
M  V30 8073 O 767.331 -0.683671 -1.60224 0
M  V30 8074 C 764.463 -1.44063 -3.08964 0
M  V30 8075 H 765.656 -2.51431 -1.6347 0
M  V30 8076 H 763.209 -1.33046 -0.820273 0
M  V30 8077 H 763.944 -0.479201 -3.2074 0
M  V30 8078 H 763.729 -2.25362 -3.20865 0
M  V30 8079 H 765.219 -1.53075 -3.88533 0
M  V30 8080 N 765.656 0.84705 -1.32902 0
M  V30 8081 C 766.902 1.60389 -1.25088 0
M  V30 8082 C 767.257 1.91521 0.183723 0
M  V30 8083 O 766.55 1.55197 1.12359 0
M  V30 8084 C 766.744 2.92663 -2.05142 0
M  V30 8085 C 766.573 2.74449 -3.56241 0
M  V30 8086 C 765.343 2.72434 -4.25567 0
M  V30 8087 C 767.541 2.47666 -4.5074 0
M  V30 8088 N 765.523 2.45512 -5.62669 0
M  V30 8089 C 766.894 2.30219 -5.75673 0
M  V30 8090 C 768.949 2.33196 -4.39914 0
M  V30 8091 C 767.652 1.99772 -6.91002 0
M  V30 8092 C 769.678 2.0414 -5.5505 0
M  V30 8093 C 769.04 1.875 -6.78987 0
M  V30 8094 H 765.139 0.590296 -0.512908 0
M  V30 8095 H 767.723 0.995058 -1.67352 0
M  V30 8096 H 765.894 3.51511 -1.65211 0
M  V30 8097 H 767.626 3.5777 -1.89163 0
M  V30 8098 H 764.381 2.85647 -3.7776 0
M  V30 8099 H 764.805 2.34958 -6.3492 0
M  V30 8100 H 769.447 2.44777 -3.44738 0
M  V30 8101 H 767.165 1.86928 -7.86183 0
M  V30 8102 H 770.751 1.93711 -5.48605 0
M  V30 8103 H 769.631 1.65339 -7.66572 0
M  V30 8104 N 767.134 1.16236 1.06428 0
M  V30 8105 C 768.362 0.967184 1.82902 0
M  V30 8106 C 768.777 -0.484601 1.82475 0
M  V30 8107 O 768.134 -1.33631 1.24294 0
M  V30 8108 C 768.185 1.48534 3.29576 0
M  V30 8109 O 767.906 2.88026 3.3011 0
M  V30 8110 C 769.407 1.33298 4.22784 0
M  V30 8111 H 766.627 0.342923 0.576754 0
M  V30 8112 H 769.171 1.54232 1.34286 0
M  V30 8113 H 767.326 0.952513 3.75508 0
M  V30 8114 H 767.74 3.11721 4.21818 0
M  V30 8115 H 769.214 1.74385 5.23731 0
M  V30 8116 H 769.691 0.278356 4.38317 0
M  V30 8117 H 770.297 1.85535 3.82697 0
M  V30 8118 N 768.612 -1.24939 0.960631 0
M  V30 8119 C 769.889 -1.88118 0.535807 0
M  V30 8120 C 770.269 -1.86605 -0.987009 0
M  V30 8121 O 769.617 -1.33375 -1.85536 0
M  V30 8122 C 769.827 -3.30565 1.11927 0
M  V30 8123 C 771.175 -4.07296 1.19981 0
M  V30 8124 O 772.199 -3.39709 1.07126 0
M  V30 8125 O 771.058 -5.28206 1.40218 0
M  V30 8126 H 768.152 -0.807698 0.177631 0
M  V30 8127 H 770.698 -1.32964 1.05445 0
M  V30 8128 H 769.47 -3.26128 2.16231 0
M  V30 8129 H 769.093 -3.93284 0.584245 0
M  V30 8130 N 770.09 -0.729906 -1.39679 0
M  V30 8131 C 771.318 -0.285709 -2.04918 0
M  V30 8132 C 771.733 1.07765 -1.55023 0
M  V30 8133 O 771.09 1.67999 -0.712923 0
M  V30 8134 C 771.141 -0.272793 -3.60469 0
M  V30 8135 O 770.862 -1.58233 -4.08527 0
M  V30 8136 C 772.363 0.188199 -4.429 0
M  V30 8137 H 769.583 -0.125758 -0.65911 0
M  V30 8138 H 772.127 -0.992129 -1.78821 0
M  V30 8139 H 770.282 0.384699 -3.85485 0
M  V30 8140 H 770.696 -1.49245 -5.02818 0
M  V30 8141 H 772.17 0.14608 -5.51807 0
M  V30 8142 H 772.647 1.2326 -4.21549 0
M  V30 8143 H 773.253 -0.439541 -4.23023 0
M  V30 8144 N 771.568 1.50203 -0.477153 0
M  V30 8145 C 772.515 2.28656 0.31386 0
M  V30 8146 C 773.485 1.33977 0.981802 0
M  V30 8147 O 774.67 1.62919 0.993072 0
M  V30 8148 C 771.81 3.16027 1.38639 0
M  V30 8149 C 770.923 4.25743 0.732615 0
M  V30 8150 C 770.058 5.00363 1.78355 0
M  V30 8151 C 769.097 6.01945 1.11035 0
M  V30 8152 N 768.234 6.6982 2.10441 0
M  V30 8153 H 773.074 2.958 -0.361445 0
M  V30 8154 H 770.611 1.45867 -0.190093 0
M  V30 8155 H 772.569 3.6504 2.01994 0
M  V30 8156 H 771.199 2.50917 2.03077 0
M  V30 8157 H 770.251 3.80398 -0.0136546 0
M  V30 8158 H 771.563 4.98393 0.201513 0
M  V30 8159 H 770.717 5.53124 2.49276 0
M  V30 8160 H 769.456 4.27432 2.34847 0
M  V30 8161 H 768.461 5.48438 0.386797 0
M  V30 8162 H 769.686 6.76851 0.552248 0
M  V30 8163 H 767.632 5.99677 2.65939 0
M  V30 8164 H 767.549 7.38366 1.62332 0
M  V30 8165 H 768.817 7.27196 2.80724 0
M  V30 8166 N 773.046 0.209999 1.56195 0
M  V30 8167 C 774.292 -0.425442 1.98287 0
M  V30 8168 C 774.625 -1.60232 1.09724 0
M  V30 8169 O 773.9 -1.93902 0.152414 0
M  V30 8170 C 774.183 -0.871189 3.49403 0
M  V30 8171 C 774.036 0.308527 4.48741 0
M  V30 8172 C 775.355 -1.73146 4.04609 0
M  V30 8173 H 772.474 -0.153169 0.720908 0
M  V30 8174 H 775.116 0.303916 1.87554 0
M  V30 8175 H 773.266 -1.49266 3.58681 0
M  V30 8176 H 774.938 0.946487 4.51486 0
M  V30 8177 H 773.181 0.957878 4.23092 0
M  V30 8178 H 773.852 -0.0461143 5.51981 0
M  V30 8179 H 776.328 -1.2072 3.98203 0
M  V30 8180 H 775.204 -2.01228 5.10684 0
M  V30 8181 H 775.465 -2.69083 3.5078 0
M  V30 8182 N 774.524 -1.57472 -0.0634922 0
M  V30 8183 C 775.471 -2.04258 -1.07457 0
M  V30 8184 C 776.441 -0.924804 -1.37973 0
M  V30 8185 O 777.626 -1.19305 -1.48899 0
M  V30 8186 C 774.766 -2.49832 -2.38071 0
M  V30 8187 C 773.879 -3.75263 -2.14014 0
M  V30 8188 C 773.014 -4.09585 -3.38251 0
M  V30 8189 C 772.053 -5.28032 -3.09594 0
M  V30 8190 N 771.19 -5.57953 -4.26185 0
M  V30 8191 H 776.03 -2.90402 -0.668626 0
M  V30 8192 H 773.567 -1.43609 -0.318572 0
M  V30 8193 H 775.525 -2.7431 -3.14341 0
M  V30 8194 H 774.155 -1.66654 -2.76453 0
M  V30 8195 H 773.207 -3.58075 -1.28399 0
M  V30 8196 H 774.519 -4.61667 -1.88852 0
M  V30 8197 H 773.673 -4.35008 -4.2291 0
M  V30 8198 H 772.412 -3.21765 -3.66495 0
M  V30 8199 H 771.417 -5.02397 -2.23332 0
M  V30 8200 H 772.642 -6.17477 -2.82663 0
M  V30 8201 H 770.588 -4.73092 -4.54445 0
M  V30 8202 H 770.505 -6.38793 -4.04326 0
M  V30 8203 H 771.773 -5.87931 -5.11817 0
M  V30 8204 N 776.003 0.335068 -1.53997 0
M  V30 8205 C 776.95 1.41187 -1.82579 0
M  V30 8206 C 777.92 1.51897 -0.672061 0
M  V30 8207 O 779.105 1.673 -0.917346 0
M  V30 8208 C 776.245 2.77717 -2.0486 0
M  V30 8209 C 775.358 2.7573 -3.32561 0
M  V30 8210 C 774.493 4.04032 -3.44864 0
M  V30 8211 C 773.532 3.96308 -4.66483 0
M  V30 8212 N 772.669 5.16317 -4.75774 0
M  V30 8213 H 777.509 1.16113 -2.74448 0
M  V30 8214 H 775.046 0.562305 -1.35928 0
M  V30 8215 H 777.004 3.57071 -2.15768 0
M  V30 8216 H 775.634 3.01124 -1.16294 0
M  V30 8217 H 774.686 1.88432 -3.3045 0
M  V30 8218 H 775.998 2.65902 -4.22016 0
M  V30 8219 H 775.152 4.91814 -3.55251 0
M  V30 8220 H 773.891 4.16652 -2.53481 0
M  V30 8221 H 772.896 3.06911 -4.56164 0
M  V30 8222 H 774.121 3.85263 -5.5924 0
M  V30 8223 H 772.067 5.29464 -3.87303 0
M  V30 8224 H 771.984 5.08779 -5.59178 0
M  V30 8225 H 773.252 6.05846 -4.9048 0
M  V30 8226 N 777.481 1.45874 0.596531 0
M  V30 8227 C 778.429 1.55739 1.72766 0
M  V30 8228 C 779.423 0.426666 1.63939 0
M  V30 8229 O 780.629 0.60301 1.69599 0
M  V30 8230 H 777.004 0.489386 0.570968 0
M  V30 8231 H 778.975 2.50871 1.61575 0
M  V30 8232 C 777.724 1.55174 3.11153 0
M  V30 8233 H 777.047 2.41511 3.1861 0
M  V30 8234 H 778.487 1.66133 3.90097 0
M  V30 8235 C 776.946 0.278001 3.35751 0
M  V30 8236 O 777.476 -0.637557 3.96608 0
M  V30 8237 N 775.682 0.170227 2.90101 0
M  V30 8238 H 775.229 0.916159 2.40758 0
M  V30 8239 H 775.187 -0.68117 3.06932 0
M  V30 8240 N 778.959 -0.83999 1.33349 0
M  V30 8241 C 780.184 -1.63249 1.27924 0
M  V30 8242 C 780.609 -1.87523 -0.147193 0
M  V30 8243 O 779.967 -1.43853 -1.10345 0
M  V30 8244 C 780.015 -2.96046 2.05886 0
M  V30 8245 O 779.119 -3.87303 1.4167 0
M  V30 8246 H 778.46 -0.49715 0.440157 0
M  V30 8247 H 780.99 -1.04512 1.75893 0
M  V30 8248 H 781 -3.45752 2.16609 0
M  V30 8249 H 779.675 -2.77701 3.09605 0
M  V30 8250 H 778.252 -3.45789 1.39585 0
M  V30 8251 N 780.437 -1.16799 -1.0581 0
M  V30 8252 C 781.714 -0.862616 -1.75551 0
M  V30 8253 C 782.094 0.6385 -2.01212 0
M  V30 8254 O 781.442 1.58784 -1.64317 0
M  V30 8255 C 781.652 -1.6907 -3.05314 0
M  V30 8256 C 783 -1.90675 -3.79379 0
M  V30 8257 O 784.024 -1.65976 -3.15167 0
M  V30 8258 O 782.883 -2.32145 -4.94743 0
M  V30 8259 H 779.977 -0.318789 -0.763088 0
M  V30 8260 H 782.523 -1.27461 -1.12034 0
M  V30 8261 H 781.295 -2.70912 -2.82352 0
M  V30 8262 H 780.918 -1.27606 -3.76567 0
M  V30 8263 N 781.915 1.24427 -0.967243 0
M  V30 8264 C 782.878 2.23637 -0.501927 0
M  V30 8265 C 783.878 1.55712 0.401283 0
M  V30 8266 O 785.068 1.73085 0.196808 0
M  V30 8267 C 782.2 3.39804 0.273176 0
M  V30 8268 H 783.393 2.66317 -1.37897 0
M  V30 8269 H 780.946 1.37033 -0.751783 0
M  V30 8270 H 781.681 3.02562 1.16733 0
M  V30 8271 H 781.466 3.90303 -0.37498 0
M  V30 8272 H 782.956 4.13443 0.587776 0
M  V30 8273 N 783.393 0.737304 1.3929 0
M  V30 8274 C 784.618 0.295237 2.05288 0
M  V30 8275 C 785.043 -1.06235 1.55228 0
M  V30 8276 O 784.401 -1.67365 0.697043 0
M  V30 8277 C 784.449 0.309146 3.59272 0
M  V30 8278 O 783.553 -0.702437 4.06374 0
M  V30 8279 H 782.894 0.133762 0.650387 0
M  V30 8280 H 785.424 1.00387 1.78279 0
M  V30 8281 H 785.434 0.154336 4.07708 0
M  V30 8282 H 784.109 1.29974 3.95069 0
M  V30 8283 H 782.686 -0.513574 3.69346 0
M  V30 8284 N 784.871 -1.49948 0.485112 0
M  V30 8285 C 786.148 -1.95186 -0.12726 0
M  V30 8286 C 786.528 -1.42605 -1.5565 0
M  V30 8287 O 785.876 -0.632986 -2.19558 0
M  V30 8288 C 786.086 -3.48955 -0.0562117 0
M  V30 8289 C 787.434 -4.23932 -0.238106 0
M  V30 8290 O 788.458 -3.55955 -0.132145 0
M  V30 8291 O 787.317 -5.44614 -0.453658 0
M  V30 8292 H 784.411 -0.820433 -0.104014 0
M  V30 8293 H 786.957 -1.60659 0.546517 0
M  V30 8294 H 785.729 -3.79814 0.941122 0
M  V30 8295 H 785.352 -3.90056 -0.770834 0
M  V30 8296 N 786.349 -0.21828 -1.56081 0
M  V30 8297 C 787.297 0.709679 -2.21509 0
M  V30 8298 C 788.291 1.20221 -1.19346 0
M  V30 8299 O 789.497 1.16241 -1.37433 0
M  V30 8300 H 785.872 0.247271 -0.710184 0
M  V30 8301 H 787.843 0.134386 -2.98097 0
M  V30 8302 C 786.592 1.90853 -2.90638 0
M  V30 8303 H 785.915 1.53865 -3.69006 0
M  V30 8304 H 787.355 2.53568 -3.39822 0
M  V30 8305 C 785.814 2.76189 -1.92929 0
M  V30 8306 O 786.344 3.74842 -1.44416 0
M  V30 8307 N 784.55 2.42157 -1.6065 0
M  V30 8308 H 784.097 1.61987 -2.00294 0
M  V30 8309 H 784.055 2.99534 -0.955347 0
M  V30 8310 N 787.827 1.57504 0.0551401 0
M  V30 8311 C 788.79 2.03826 1.04821 0
M  V30 8312 C 789.79 0.937968 1.30609 0
M  V30 8313 O 790.98 1.20237 1.2605 0
M  V30 8314 C 788.112 2.43309 2.38775 0
M  V30 8315 H 789.305 2.92802 0.6486 0
M  V30 8316 H 786.858 1.53368 0.301315 0
M  V30 8317 H 787.593 1.5741 2.83536 0
M  V30 8318 H 787.378 3.23615 2.21395 0
M  V30 8319 H 788.868 2.79666 3.10124 0
M  V30 8320 N 789.305 -0.326896 1.54172 0
M  V30 8321 C 790.255 -1.40319 1.79707 0
M  V30 8322 C 791.239 -1.47056 0.652938 0
M  V30 8323 O 792.431 -1.51645 0.91284 0
M  V30 8324 C 789.56 -2.77222 2.02491 0
M  V30 8325 C 788.646 -2.74811 3.23016 0
M  V30 8326 N 789.037 -2.42022 4.44138 0
M  V30 8327 C 787.335 -3.05943 3.24522 0
M  V30 8328 C 788.036 -2.48263 5.26061 0
M  V30 8329 N 787.012 -2.84567 4.63166 0
M  V30 8330 H 790.814 -1.13892 2.70935 0
M  V30 8331 H 788.328 -0.53536 1.53322 0
M  V30 8332 H 790.325 -3.54793 2.18923 0
M  V30 8333 H 788.985 -3.04582 1.12515 0
M  V30 8334 H 789.996 -2.14926 4.71197 0
M  V30 8335 H 786.673 -3.38367 2.44569 0
M  V30 8336 H 788.063 -2.2593 6.32776 0
M  V30 8337 N 790.784 -1.46188 -0.588786 0
M  V30 8338 C 792.009 -1.5498 -1.37826 0
M  V30 8339 C 792.434 -0.189498 -1.87143 0
M  V30 8340 O 791.792 0.829293 -1.61222 0
M  V30 8341 C 791.84 -2.55369 -2.54596 0
M  V30 8342 O 790.944 -2.08452 -3.55839 0
M  V30 8343 H 790.285 -0.521741 -0.41071 0
M  V30 8344 H 792.815 -1.91708 -0.714779 0
M  V30 8345 H 792.825 -2.74782 -3.01594 0
M  V30 8346 H 791.5 -3.54155 -2.18052 0
M  V30 8347 H 790.077 -1.98999 -3.15363 0
M  V30 8348 N 792.262 0.832906 -1.33792 0
M  V30 8349 C 793.508 1.59089 -1.25772 0
M  V30 8350 C 793.841 1.93414 0.174601 0
M  V30 8351 O 793.116 1.59195 1.11746 0
M  V30 8352 C 793.399 2.89699 -2.13885 0
M  V30 8353 C 793.252 2.62017 -3.65605 0
M  V30 8354 C 794.571 3.91182 -2.01654 0
M  V30 8355 H 791.69 0.577232 -0.458227 0
M  V30 8356 H 794.332 0.960227 -1.6395 0
M  V30 8357 H 792.482 3.4352 -1.81456 0
M  V30 8358 H 794.154 2.14582 -4.08353 0
M  V30 8359 H 792.397 1.95621 -3.87189 0
M  V30 8360 H 793.068 3.55112 -4.2261 0
M  V30 8361 H 795.544 3.46684 -2.30107 0
M  V30 8362 H 794.42 4.80391 -2.65548 0
M  V30 8363 H 794.681 4.30861 -0.990536 0
M  V30 8364 N 793.74 1.17359 1.05189 0
M  V30 8365 C 794.687 0.890325 2.12936 0
M  V30 8366 C 795.657 -0.165779 1.65271 0
M  V30 8367 O 796.842 -0.0285672 1.90779 0
M  V30 8368 C 793.982 0.409793 3.42658 0
M  V30 8369 C 793.095 1.53002 4.03998 0
M  V30 8370 C 792.23 1.00336 5.21638 0
M  V30 8371 C 791.269 2.09903 5.74984 0
M  V30 8372 N 790.406 1.58714 6.83926 0
M  V30 8373 H 795.246 1.81299 2.36505 0
M  V30 8374 H 792.783 0.904249 1.16025 0
M  V30 8375 H 794.741 0.112743 4.17048 0
M  V30 8376 H 793.371 -0.475915 3.19272 0
M  V30 8377 H 792.423 1.9428 3.27047 0
M  V30 8378 H 793.735 2.3564 4.39631 0
M  V30 8379 H 792.889 0.660158 6.03098 0
M  V30 8380 H 791.628 0.14642 4.8748 0
M  V30 8381 H 790.633 2.45081 4.92154 0
M  V30 8382 H 791.858 2.96013 6.1119 0
M  V30 8383 H 789.804 0.752915 6.51665 0
M  V30 8384 H 789.721 2.34959 7.18561 0
M  V30 8385 H 790.989 1.27287 7.69037 0
M  V30 8386 N 795.218 -1.23913 0.973828 0
M  V30 8387 C 796.15 -2.24397 0.466763 0
M  V30 8388 C 797.163 -1.57078 -0.427828 0
M  V30 8389 O 798.352 -1.76973 -0.233019 0
M  V30 8390 C 795.452 -3.37141 -0.344798 0
M  V30 8391 C 794.625 -4.34037 0.541349 0
M  V30 8392 C 793.684 -5.2576 -0.215243 0
M  V30 8393 O 792.71 -5.67842 0.39291 0
M  V30 8394 N 793.912 -5.60702 -1.5031 0
M  V30 8395 H 796.677 -2.68536 1.33074 0
M  V30 8396 H 794.238 -1.38017 0.846346 0
M  V30 8397 H 796.23 -3.95476 -0.859133 0
M  V30 8398 H 794.8 -2.92239 -1.10974 0
M  V30 8399 H 794.02 -3.74302 1.23659 0
M  V30 8400 H 795.308 -4.95738 1.1455 0
M  V30 8401 H 794.706 -5.28451 -2.01882 0
M  V30 8402 H 793.263 -6.21538 -1.96301 0
M  V30 8403 N 796.696 -0.74468 -1.38897 0
M  V30 8404 C 797.628 -0.0713608 -2.29089 0
M  V30 8405 C 798.641 0.693224 -1.47303 0
M  V30 8406 O 799.83 0.535785 -1.70269 0
M  V30 8407 C 796.93 0.923078 -3.26087 0
M  V30 8408 C 796.103 0.217998 -4.36856 0
M  V30 8409 C 795.162 1.12192 -5.14101 0
M  V30 8410 O 794.188 0.595771 -5.66073 0
M  V30 8411 N 795.39 2.45082 -5.26227 0
M  V30 8412 H 798.155 -0.845906 -2.87514 0
M  V30 8413 H 795.716 -0.594712 -1.50581 0
M  V30 8414 H 797.708 1.53061 -3.74639 0
M  V30 8415 H 796.278 1.59876 -2.68623 0
M  V30 8416 H 795.498 -0.570134 -3.90055 0
M  V30 8417 H 796.786 -0.270248 -5.08082 0
M  V30 8418 H 796.184 2.90294 -4.85537 0
M  V30 8419 H 794.741 3.00907 -5.78185 0
M  V30 8420 N 798.174 1.49689 -0.493057 0
M  V30 8421 C 799.122 2.30613 0.303383 0
M  V30 8422 C 800.116 1.38867 0.970165 0
M  V30 8423 O 801.322 1.55956 0.898761 0
M  V30 8424 H 797.697 0.742891 0.116691 0
M  V30 8425 H 799.668 2.95717 -0.39924 0
M  V30 8426 C 798.417 3.20008 1.35978 0
M  V30 8427 H 797.74 3.90526 0.856103 0
M  V30 8428 H 799.18 3.79586 1.88919 0
M  V30 8429 C 797.639 2.39079 2.37367 0
M  V30 8430 O 798.169 2.08933 3.43089 0
M  V30 8431 N 796.375 2.0125 2.09635 0
M  V30 8432 H 795.922 2.25966 1.23682 0
M  V30 8433 H 795.88 1.47408 2.77702 0
M  V30 8434 N 799.652 0.226554 1.55963 0
M  V30 8435 C 800.88 -0.408507 2.02827 0
M  V30 8436 C 801.295 -1.52994 1.10627 0
M  V30 8437 O 800.652 -1.82126 0.116809 0
M  V30 8438 C 800.703 -0.93545 3.49187 0
M  V30 8439 O 800.424 0.141273 4.37872 0
M  V30 8440 C 801.925 -1.64325 4.11719 0
M  V30 8441 H 799.145 -0.099442 0.66359 0
M  V30 8442 H 801.689 0.344471 2.01578 0
M  V30 8443 H 799.844 -1.63868 3.51036 0
M  V30 8444 H 800.258 -0.25558 5.23877 0
M  V30 8445 H 801.732 -1.9639 5.15883 0
M  V30 8446 H 802.209 -2.55815 3.57009 0
M  V30 8447 H 802.815 -0.9851 4.13734 0
M  V30 8448 N 801.13 -1.57531 -0.0467866 0
M  V30 8449 C 802.063 -2.00734 -1.08541 0
M  V30 8450 C 803.041 -0.888508 -1.36177 0
M  V30 8451 O 804.225 -1.1529 -1.49132 0
M  V30 8452 C 801.352 -2.36535 -2.42423 0
M  V30 8453 C 800.398 -3.58681 -2.3076 0
M  V30 8454 S 801.231 -5.08536 -1.67785 0
M  V30 8455 C 802.387 -5.47562 -3.03194 0
M  V30 8456 H 802.62 -2.88516 -0.717345 0
M  V30 8457 H 800.153 -1.5226 -0.256181 0
M  V30 8458 H 802.111 -2.57834 -3.19424 0
M  V30 8459 H 800.772 -1.49236 -2.76382 0
M  V30 8460 H 799.965 -3.81329 -3.29552 0
M  V30 8461 H 799.567 -3.37142 -1.61899 0
M  V30 8462 H 801.859 -5.47163 -3.99524 0
M  V30 8463 H 802.802 -6.48082 -2.85299 0
M  V30 8464 H 803.21 -4.75042 -3.04951 0
M  V30 8465 N 802.608 0.318715 -1.54344 0
M  V30 8466 C 803.555 1.39242 -1.84066 0
M  V30 8467 C 804.525 1.51175 -0.688134 0
M  V30 8468 O 805.71 1.66318 -0.935039 0
M  V30 8469 C 802.85 2.75528 -2.07794 0
M  V30 8470 C 801.963 2.72187 -3.35467 0
M  V30 8471 C 801.098 4.00352 -3.4913 0
M  V30 8472 C 800.137 3.91338 -4.7066 0
M  V30 8473 N 799.274 5.11242 -4.81224 0
M  V30 8474 H 804.114 1.13196 -2.75664 0
M  V30 8475 H 801.651 0.547857 -1.36517 0
M  V30 8476 H 803.609 3.54763 -2.19543 0
M  V30 8477 H 802.239 2.99873 -1.19482 0
M  V30 8478 H 801.291 1.84917 -3.3243 0
M  V30 8479 H 802.603 2.61411 -4.24812 0
M  V30 8480 H 801.757 4.88019 -3.60448 0
M  V30 8481 H 800.496 4.1394 -2.57886 0
M  V30 8482 H 799.501 3.02055 -4.59394 0
M  V30 8483 H 800.726 3.7931 -5.63294 0
M  V30 8484 H 798.672 5.25327 -3.92897 0
M  V30 8485 H 798.589 5.0282 -5.64543 0
M  V30 8486 H 799.857 6.0061 -4.96879 0
M  V30 8487 N 804.086 1.46499 0.581025 0
M  V30 8488 C 805.316 1.55244 1.36319 0
M  V30 8489 C 805.724 0.193059 1.88212 0
M  V30 8490 O 805.067 -0.820109 1.64377 0
M  V30 8491 C 805.129 2.498 2.58535 0
M  V30 8492 C 804.793 3.96007 2.28096 0
M  V30 8493 C 805.79 4.85171 1.8683 0
M  V30 8494 C 803.475 4.41152 2.40189 0
M  V30 8495 C 805.469 6.17493 1.58053 0
M  V30 8496 C 803.156 5.73508 2.11024 0
M  V30 8497 C 804.154 6.615 1.70021 0
M  V30 8498 O 803.842 7.914 1.41215 0
M  V30 8499 H 803.574 0.527513 0.422736 0
M  V30 8500 H 806.128 1.92623 0.713139 0
M  V30 8501 H 804.358 2.07443 3.2635 0
M  V30 8502 H 806.047 2.48934 3.20604 0
M  V30 8503 H 806.813 4.51548 1.77001 0
M  V30 8504 H 802.692 3.72886 2.71066 0
M  V30 8505 H 806.236 6.86131 1.25974 0
M  V30 8506 H 802.133 6.06679 2.20478 0
M  V30 8507 H 802.901 8.03681 1.55046 0
M  V30 8508 N 805.565 -0.825799 1.34232 0
M  V30 8509 C 806.498 -1.94155 1.19914 0
M  V30 8510 C 807.476 -1.62343 0.0914533 0
M  V30 8511 O 808.66 -1.86752 0.256082 0
M  V30 8512 C 805.787 -3.28064 0.842138 0
M  V30 8513 C 804.833 -3.78839 1.95917 0
M  V30 8514 S 805.666 -3.98943 3.57218 0
M  V30 8515 C 806.822 -5.35783 3.23554 0
M  V30 8516 H 807.055 -2.06003 2.14359 0
M  V30 8517 H 804.588 -0.981053 1.19225 0
M  V30 8518 H 806.546 -4.05434 0.642952 0
M  V30 8519 H 805.207 -3.13988 -0.0839363 0
M  V30 8520 H 804.4 -4.75771 1.66306 0
M  V30 8521 H 804.002 -3.08406 2.11569 0
M  V30 8522 H 806.294 -6.19094 2.7519 0
M  V30 8523 H 807.237 -5.70376 4.19615 0
M  V30 8524 H 807.645 -5.01158 2.5981 0
M  V30 8525 N 807.043 -1.17915 -1.04565 0
M  V30 8526 C 808.271 -0.99616 -1.8134 0
M  V30 8527 C 808.686 0.455509 -1.83223 0
M  V30 8528 O 808.043 1.31636 -1.26405 0
M  V30 8529 C 808.094 -1.53758 -3.27171 0
M  V30 8530 O 807.815 -2.93241 -3.25486 0
M  V30 8531 C 809.316 -1.40007 -4.2061 0
M  V30 8532 H 806.536 -0.352055 -0.571225 0
M  V30 8533 H 809.08 -1.56349 -1.31815 0
M  V30 8534 H 807.235 -1.01213 -3.73945 0
M  V30 8535 H 807.649 -3.18392 -4.16805 0
M  V30 8536 H 809.123 -1.82695 -5.2089 0
M  V30 8537 H 809.6 -0.348054 -4.37819 0
M  V30 8538 H 810.206 -1.916 -3.79697 0
M  V30 8539 N 808.521 1.23394 -0.980386 0
M  V30 8540 C 809.484 2.23092 -0.525619 0
M  V30 8541 C 810.484 1.56129 0.384745 0
M  V30 8542 O 811.674 1.73284 0.178439 0
M  V30 8543 C 808.806 3.40074 0.23712 0
M  V30 8544 H 809.999 2.64839 -1.40714 0
M  V30 8545 H 807.552 1.36227 -0.766275 0
M  V30 8546 H 808.287 3.03783 1.13518 0
M  V30 8547 H 808.072 3.89883 -0.416356 0
M  V30 8548 H 809.562 4.14043 0.543892 0
M  V30 8549 N 809.999 0.752036 1.385 0
M  V30 8550 C 810.929 0.138718 2.33088 0
M  V30 8551 C 811.91 -0.705318 1.54788 0
M  V30 8552 O 813.095 -0.646821 1.83112 0
M  V30 8553 C 810.225 -0.75641 3.38963 0
M  V30 8554 C 809.179 -0.0152239 4.27997 0
M  V30 8555 C 808.505 -1.0285 5.24715 0
M  V30 8556 C 809.805 1.15226 5.09431 0
M  V30 8557 H 811.499 0.928852 2.84627 0
M  V30 8558 H 809.045 0.448111 1.3685 0
M  V30 8559 H 810.998 -1.19513 4.04097 0
M  V30 8560 H 809.722 -1.57885 2.85902 0
M  V30 8561 H 808.381 0.404061 3.64366 0
M  V30 8562 H 808.029 -1.84496 4.67943 0
M  V30 8563 H 807.729 -0.537238 5.85139 0
M  V30 8564 H 809.253 -1.46657 5.92726 0
M  V30 8565 H 810.667 0.791161 5.67815 0
M  V30 8566 H 809.064 1.57428 5.79082 0
M  V30 8567 H 810.134 1.9659 4.43261 0
M  V30 8568 N 811.477 -1.49425 0.500989 0
M  V30 8569 C 812.427 -2.26061 -0.296698 0
M  V30 8570 C 813.411 -1.30906 -0.935541 0
M  V30 8571 O 814.603 -1.55628 -0.843142 0
M  V30 8572 C 811.732 -3.15189 -1.36055 0
M  V30 8573 C 810.818 -4.17806 -0.727952 0
M  V30 8574 N 811.209 -5.05516 0.169408 0
M  V30 8575 C 809.507 -4.34907 -0.988535 0
M  V30 8576 C 810.208 -5.79267 0.531509 0
M  V30 8577 N 809.184 -5.43507 -0.100564 0
M  V30 8578 H 812.986 -2.91246 0.394103 0
M  V30 8579 H 810.5 -1.59275 0.317065 0
M  V30 8580 H 812.497 -3.68724 -1.94547 0
M  V30 8581 H 811.157 -2.51556 -2.05303 0
M  V30 8582 H 812.168 -5.15075 0.540218 0
M  V30 8583 H 808.845 -3.82481 -1.67376 0
M  V30 8584 H 810.235 -6.59872 1.26564 0
M  V30 8585 N 812.955 -0.234822 -1.55841 0
M  V30 8586 C 814.18 0.400741 -2.03492 0
M  V30 8587 C 814.605 1.51618 -1.11327 0
M  V30 8588 O 813.963 1.81002 -0.103922 0
M  V30 8589 C 814.011 0.897184 -3.49261 0
M  V30 8590 O 813.115 2.00764 -3.60233 0
M  V30 8591 H 812.456 0.0890023 -0.658008 0
M  V30 8592 H 814.986 -0.357345 -2.01455 0
M  V30 8593 H 814.996 1.20356 -3.89844 0
M  V30 8594 H 813.671 0.0808639 -4.15821 0
M  V30 8595 H 812.248 1.70689 -3.31541 0
M  V30 8596 N 814.433 1.57553 0.0384317 0
M  V30 8597 C 815.38 2.05942 1.04194 0
M  V30 8598 C 816.35 0.946637 1.36484 0
M  V30 8599 O 817.535 1.21658 1.46983 0
M  V30 8600 C 814.675 2.53588 2.34066 0
M  V30 8601 C 813.788 3.7862 2.08017 0
M  V30 8602 C 812.923 4.14915 3.31692 0
M  V30 8603 C 811.962 5.32891 3.01155 0
M  V30 8604 N 811.099 5.64662 4.17254 0
M  V30 8605 H 815.939 2.91429 0.622341 0
M  V30 8606 H 813.476 1.44098 0.295684 0
M  V30 8607 H 815.434 2.79276 3.09937 0
M  V30 8608 H 814.064 1.71031 2.73767 0
M  V30 8609 H 813.116 3.60073 1.22686 0
M  V30 8610 H 814.428 4.64613 1.81484 0
M  V30 8611 H 813.582 4.41681 4.15936 0
M  V30 8612 H 812.321 3.27555 3.6133 0
M  V30 8613 H 811.326 5.05887 2.15311 0
M  V30 8614 H 812.551 6.21896 2.72804 0
M  V30 8615 H 810.497 4.80261 4.46861 0
M  V30 8616 H 810.414 6.45145 3.94112 0
M  V30 8617 H 811.682 5.96 5.02399 0
M  V30 8618 N 815.911 -0.310526 1.54511 0
M  V30 8619 C 817.322 -0.884142 1.64438 0
M  V30 8620 C 817.673 -1.88425 0.546855 0
M  V30 8621 O 816.798 -2.14049 -0.31811 0
M  V30 8622 C 817.393 -1.6104 2.9808 0
M  V30 8623 C 815.952 -2.13255 3.1016 0
M  V30 8624 C 815.099 -0.96213 2.60074 0
M  V30 8625 H 818.05 -0.0877666 1.58457 0
M  V30 8626 H 818.071 -2.47541 2.8897 0
M  V30 8627 H 817.583 -0.882255 3.77939 0
M  V30 8628 H 815.684 -2.89145 2.35002 0
M  V30 8629 H 815.797 -2.37361 4.16169 0
M  V30 8630 H 814.161 -1.34501 2.16291 0
M  V30 8631 H 814.944 -0.248098 3.42402 0
M  V30 8632 N 817.389 -1.46805 -0.573248 0
M  V30 8633 C 818.299 -1.60687 -1.70929 0
M  V30 8634 C 819.315 -0.490084 -1.66956 0
M  V30 8635 O 820.491 -0.755482 -1.86693 0
M  V30 8636 C 817.556 -1.60259 -3.07438 0
M  V30 8637 C 816.617 -2.83242 -3.22603 0
M  V30 8638 C 815.85 -2.82825 -4.52599 0
M  V30 8639 O 816.073 -1.92113 -5.37074 0
M  V30 8640 O 815.007 -3.74489 -4.71213 0
M  V30 8641 H 818.833 -2.56782 -1.62163 0
M  V30 8642 H 816.418 -1.29706 -0.741399 0
M  V30 8643 H 818.3 -1.6275 -3.88704 0
M  V30 8644 H 816.975 -0.673268 -3.16621 0
M  V30 8645 H 815.882 -2.86302 -2.40794 0
M  V30 8646 H 817.215 -3.75415 -3.18315 0
M  V30 8647 N 818.867 0.818669 -1.34668 0
M  V30 8648 C 820.116 1.57017 -1.26604 0
M  V30 8649 C 820.429 1.94936 0.161036 0
M  V30 8650 O 821.635 2.69051 0.36386 0
M  V30 8651 C 820.091 2.83305 -2.2196 0
M  V30 8652 C 819.699 2.52671 -3.69948 0
M  V30 8653 C 821.443 3.61324 -2.22813 0
M  V30 8654 C 819.35 3.75178 -4.5716 0
M  V30 8655 H 818.28 0.589323 -0.470335 0
M  V30 8656 H 820.931 0.900956 -1.59859 0
M  V30 8657 H 819.313 3.51874 -1.81661 0
M  V30 8658 H 820.487 1.92186 -4.18809 0
M  V30 8659 H 818.802 1.8792 -3.71584 0
M  V30 8660 H 821.399 4.52294 -2.85192 0
M  V30 8661 H 821.742 3.97759 -1.22857 0
M  V30 8662 H 822.275 2.99703 -2.61578 0
M  V30 8663 H 819.014 3.43861 -5.58068 0
M  V30 8664 H 818.534 4.34931 -4.13031 0
M  V30 8665 H 820.213 4.42542 -4.71981 0
M  V30 8666 N 820.346 1.18468 1.03938 0
M  V30 8667 C 821.595 0.975193 1.76558 0
M  V30 8668 C 821.908 -0.495978 1.89207 0
M  V30 8669 O 823.114 -0.824009 2.58694 0
M  V30 8670 C 821.57 1.69579 3.17444 0
M  V30 8671 C 821.178 3.20636 3.12884 0
M  V30 8672 C 822.922 1.56917 3.94433 0
M  V30 8673 C 820.829 3.8533 4.48636 0
M  V30 8674 H 819.759 0.361244 0.66183 0
M  V30 8675 H 822.41 1.41854 1.16403 0
M  V30 8676 H 820.792 1.18022 3.78004 0
M  V30 8677 H 821.966 3.79228 2.61768 0
M  V30 8678 H 820.281 3.33454 2.49394 0
M  V30 8679 H 822.878 2.02611 4.94826 0
M  V30 8680 H 823.221 0.521638 4.13019 0
M  V30 8681 H 823.754 2.05762 3.40451 0
M  V30 8682 H 820.493 4.90136 4.35255 0
M  V30 8683 H 820.013 3.31526 4.99851 0
M  V30 8684 H 821.692 3.88269 5.17549 0
M  V30 8685 N 821.824 -1.22873 0.986916 0
M  V30 8686 C 822.756 -2.23889 0.490537 0
M  V30 8687 C 823.769 -1.57523 -0.411144 0
M  V30 8688 O 824.958 -1.7721 -0.214236 0
M  V30 8689 C 822.058 -3.37488 -0.30902 0
M  V30 8690 C 821.231 -4.33438 0.587354 0
M  V30 8691 C 820.29 -5.25958 -0.159467 0
M  V30 8692 O 819.316 -5.67394 0.453115 0
M  V30 8693 N 820.518 -5.62265 -1.44355 0
M  V30 8694 H 823.283 -2.67109 1.35914 0
M  V30 8695 H 820.844 -1.37111 0.860937 0
M  V30 8696 H 822.836 -3.96365 -0.817139 0
M  V30 8697 H 821.406 -2.934 -1.07868 0
M  V30 8698 H 820.626 -3.72969 1.27622 0
M  V30 8699 H 821.914 -4.94495 1.19801 0
M  V30 8700 H 821.312 -5.30562 -1.96266 0
M  V30 8701 H 819.869 -6.23585 -1.89698 0
M  V30 8702 N 823.302 -0.75937 -1.38099 0
M  V30 8703 C 824.234 -0.0956547 -2.29 0
M  V30 8704 C 825.247 0.677561 -1.4803 0
M  V30 8705 O 826.436 0.517696 -1.70828 0
M  V30 8706 C 823.536 0.88844 -3.27047 0
M  V30 8707 C 822.709 0.171652 -4.37063 0
M  V30 8708 C 821.768 1.06733 -5.15262 0
M  V30 8709 O 820.794 0.535698 -5.66674 0
M  V30 8710 N 821.996 2.39486 -5.28797 0
M  V30 8711 H 824.761 -0.876354 -2.86601 0
M  V30 8712 H 822.322 -0.61065 -1.49942 0
M  V30 8713 H 824.314 1.49079 -3.76241 0
M  V30 8714 H 822.884 1.57018 -2.70304 0
M  V30 8715 H 822.104 -0.611473 -3.89429 0
M  V30 8716 H 823.392 -0.324121 -5.07767 0
M  V30 8717 H 822.79 2.85127 -4.88589 0
M  V30 8718 H 821.347 2.94758 -5.81344 0
M  V30 8719 N 824.78 1.49157 -0.508906 0
M  V30 8720 C 825.69 2.33045 0.269656 0
M  V30 8721 C 826.706 1.45143 0.959662 0
M  V30 8722 O 827.882 1.78155 0.939295 0
M  V30 8723 C 824.947 3.20772 1.31554 0
M  V30 8724 C 824.008 4.24531 0.638131 0
M  V30 8725 C 823.241 5.08065 1.63418 0
M  V30 8726 O 823.464 4.93238 2.86483 0
M  V30 8727 O 822.398 5.90117 1.18516 0
M  V30 8728 H 826.224 3.00821 -0.417183 0
M  V30 8729 H 823.809 1.46938 -0.270119 0
M  V30 8730 H 825.691 3.75095 1.92047 0
M  V30 8731 H 824.366 2.55681 1.98516 0
M  V30 8732 H 823.273 3.74099 -0.00674357 0
M  V30 8733 H 824.606 4.92199 0.0108155 0
M  V30 8734 N 826.258 0.243083 1.55714 0
M  V30 8735 C 827.498 -0.384303 2.00755 0
M  V30 8736 C 827.862 -1.55406 1.12752 0
M  V30 8737 O 829.063 -2.24892 1.47231 0
M  V30 8738 C 827.334 -0.787419 3.48618 0
M  V30 8739 S 828.893 -1.40587 4.15669 0
M  V30 8740 H 825.711 -0.121088 0.700613 0
M  V30 8741 H 828.313 0.357423 1.92205 0
M  V30 8742 H 827.017 0.0732892 4.10335 0
M  V30 8743 H 826.548 -1.56142 3.61086 0
M  V30 8744 H 828.563 -2.69493 4.16639 0
M  V30 8745 N 827.736 -1.57571 -0.0300757 0
M  V30 8746 C 828.982 -1.89506 -0.722159 0
M  V30 8747 C 829.315 -0.840699 -1.7506 0
M  V30 8748 O 828.59 0.144358 -1.93964 0
M  V30 8749 C 828.873 -3.32081 -1.39262 0
M  V30 8750 C 828.726 -4.48211 -0.377768 0
M  V30 8751 C 830.045 -3.73557 -2.32687 0
M  V30 8752 H 827.164 -0.689213 -0.261064 0
M  V30 8753 H 829.806 -1.89994 0.0150388 0
M  V30 8754 H 827.956 -3.31796 -2.02098 0
M  V30 8755 H 829.628 -4.6063 0.248591 0
M  V30 8756 H 827.871 -4.3274 0.303045 0
M  V30 8757 H 828.542 -5.44854 -0.885347 0
M  V30 8758 H 831.018 -3.75202 -1.79896 0
M  V30 8759 H 829.894 -4.74125 -2.7658 0
M  V30 8760 H 830.155 -3.05759 -3.19317 0
M  V30 8761 N 829.214 0.302327 -1.54673 0
M  V30 8762 C 830.461 1.0377 -1.73891 0
M  V30 8763 C 830.789 1.87309 -0.523979 0
M  V30 8764 O 830.044 1.8936 0.494084 0
M  V30 8765 C 830.343 1.97365 -2.97963 0
M  V30 8766 C 830.009 1.29812 -4.3181 0
M  V30 8767 C 828.671 1.11121 -4.68194 0
M  V30 8768 C 831.023 0.815073 -5.14787 0
M  V30 8769 C 828.351 0.428077 -5.85136 0
M  V30 8770 C 830.703 0.145665 -6.32432 0
M  V30 8771 C 829.367 -0.0532098 -6.67479 0
M  V30 8772 H 828.637 0.379721 -0.636312 0
M  V30 8773 H 831.284 0.312708 -1.8893 0
M  V30 8774 H 829.589 2.76387 -2.777 0
M  V30 8775 H 831.286 2.54331 -3.10027 0
M  V30 8776 H 827.876 1.45366 -4.03196 0
M  V30 8777 H 832.06 0.947191 -4.87178 0
M  V30 8778 H 827.316 0.262995 -6.10834 0
M  V30 8779 H 831.49 -0.236533 -6.95998 0
M  V30 8780 H 829.117 -0.58456 -7.57949 0
M  V30 8781 N 830.692 1.47107 0.565454 0
M  V30 8782 C 831.94 1.53005 1.32038 0
M  V30 8783 C 832.261 0.190453 1.94068 0
M  V30 8784 O 831.531 -0.784783 1.79494 0
M  V30 8785 H 830.111 0.563578 0.490294 0
M  V30 8786 H 832.773 1.83351 0.660928 0
M  V30 8787 H 831.869 2.29215 2.11818 0
M  V30 8788 N 832.17 -0.811516 1.35101 0
M  V30 8789 C 833.395 -1.60499 1.31358 0
M  V30 8790 C 833.82 -1.87793 -0.107383 0
M  V30 8791 O 833.178 -1.46161 -1.07268 0
M  V30 8792 C 833.226 -2.91612 2.12119 0
M  V30 8793 O 832.33 -3.84211 1.49853 0
M  V30 8794 H 831.671 -0.487702 0.450603 0
M  V30 8795 H 834.201 -1.00758 1.7807 0
M  V30 8796 H 834.211 -3.4108 2.23894 0
M  V30 8797 H 832.886 -2.71071 3.15426 0
M  V30 8798 H 831.463 -3.42751 1.46889 0
M  V30 8799 N 833.648 -1.19017 -1.03309 0
M  V30 8800 C 834.925 -0.899659 -1.73682 0
M  V30 8801 C 835.305 0.595677 -2.02521 0
M  V30 8802 O 834.653 1.55263 -1.67648 0
M  V30 8803 C 834.863 -1.75508 -3.01659 0
M  V30 8804 C 836.211 -1.98679 -3.75249 0
M  V30 8805 O 837.235 -1.72624 -3.11576 0
M  V30 8806 O 836.094 -2.42587 -4.89708 0
M  V30 8807 H 833.188 -0.334903 -0.756154 0
M  V30 8808 H 835.734 -1.29809 -1.09305 0
M  V30 8809 H 834.506 -2.7684 -2.76542 0
M  V30 8810 H 834.129 -1.35565 -3.73775 0
M  V30 8811 N 835.127 1.22348 -0.993418 0
M  V30 8812 C 836.538 1.72893 -0.704616 0
M  V30 8813 C 836.889 1.80095 0.778483 0
M  V30 8814 O 836.014 1.4476 1.60853 0
M  V30 8815 C 836.609 3.14 -1.27237 0
M  V30 8816 C 835.168 3.61949 -1.03294 0
M  V30 8817 C 834.315 2.39816 -1.39225 0
M  V30 8818 H 837.266 1.07688 -1.16572 0
M  V30 8819 H 837.287 3.74886 -0.651212 0
M  V30 8820 H 836.799 3.08727 -2.3518 0
M  V30 8821 H 834.9 3.72588 0.0298329 0
M  V30 8822 H 835.013 4.48051 -1.69668 0
M  V30 8823 H 833.377 2.41448 -0.810849 0
M  V30 8824 H 834.16 2.37203 -2.48172 0
M  V30 8825 N 836.605 0.766683 1.37694 0
M  V30 8826 C 837.535 0.163432 2.32927 0
M  V30 8827 C 838.516 -0.688861 1.55527 0
M  V30 8828 O 839.701 -0.627363 1.83787 0
M  V30 8829 C 836.831 -0.720416 3.39746 0
M  V30 8830 C 835.785 0.0301718 4.27989 0
M  V30 8831 C 835.111 -0.972788 5.25776 0
M  V30 8832 C 836.411 1.20623 5.0818 0
M  V30 8833 H 838.105 0.958988 2.83626 0
M  V30 8834 H 835.651 0.462601 1.36367 0
M  V30 8835 H 837.604 -1.15221 4.05342 0
M  V30 8836 H 836.328 -1.54844 2.8756 0
M  V30 8837 H 834.987 0.442685 3.63917 0
M  V30 8838 H 834.635 -1.79522 4.69873 0
M  V30 8839 H 834.335 -0.475145 5.85676 0
M  V30 8840 H 835.859 -1.40362 5.94248 0
M  V30 8841 H 837.273 0.851341 5.66944 0
M  V30 8842 H 835.67 1.63561 5.7738 0
M  V30 8843 H 836.74 2.01281 4.41151 0
M  V30 8844 N 838.083 -1.48885 0.516809 0
M  V30 8845 C 839.308 -2.0739 -0.0205201 0
M  V30 8846 C 839.733 -1.37259 -1.28614 0
M  V30 8847 O 839.091 -0.434304 -1.76021 0
M  V30 8848 C 839.139 -3.59793 -0.24104 0
M  V30 8849 O 838.243 -3.90957 -1.31251 0
M  V30 8850 H 837.584 -0.663167 0.0332564 0
M  V30 8851 H 840.114 -1.91477 0.720956 0
M  V30 8852 H 840.124 -4.0531 -0.467737 0
M  V30 8853 H 838.799 -4.10244 0.68356 0
M  V30 8854 H 837.376 -3.57234 -1.06951 0
M  V30 8855 N 839.561 -0.251338 -1.55583 0
M  V30 8856 C 840.471 0.656978 -2.25213 0
M  V30 8857 C 841.487 1.18966 -1.26977 0
M  V30 8858 O 842.663 1.22499 -1.59862 0
M  V30 8859 C 839.728 1.83527 -2.94141 0
M  V30 8860 C 838.789 1.34162 -4.07798 0
M  V30 8861 C 838.022 2.46375 -4.73429 0
M  V30 8862 O 838.245 3.65205 -4.38157 0
M  V30 8863 O 837.179 2.15881 -5.61853 0
M  V30 8864 H 841.005 0.0936395 -3.03556 0
M  V30 8865 H 838.59 -0.0196638 -1.49387 0
M  V30 8866 H 840.472 2.52279 -3.3754 0
M  V30 8867 H 839.147 2.38614 -2.18735 0
M  V30 8868 H 838.054 0.621249 -3.68906 0
M  V30 8869 H 839.387 0.836779 -4.85035 0
M  V30 8870 N 841.039 1.57585 0.0217189 0
M  V30 8871 C 841.971 2.03849 1.04777 0
M  V30 8872 C 842.984 0.952558 1.32023 0
M  V30 8873 O 844.173 1.22974 1.29381 0
M  V30 8874 C 841.273 2.40504 2.3877 0
M  V30 8875 C 840.446 3.71566 2.30775 0
M  V30 8876 C 839.505 3.95329 3.47277 0
M  V30 8877 O 838.531 4.66289 3.26441 0
M  V30 8878 N 839.733 3.41536 4.69397 0
M  V30 8879 H 842.498 2.92491 0.653395 0
M  V30 8880 H 840.059 1.60538 0.209527 0
M  V30 8881 H 842.051 2.53532 3.15442 0
M  V30 8882 H 840.621 1.57494 2.70027 0
M  V30 8883 H 839.841 3.68822 1.39155 0
M  V30 8884 H 841.129 4.5753 2.22584 0
M  V30 8885 H 840.527 2.84033 4.89226 0
M  V30 8886 H 839.084 3.59932 5.43408 0
M  V30 8887 N 842.517 -0.29412 1.54831 0
M  V30 8888 C 843.742 -1.05156 1.78765 0
M  V30 8889 C 844.167 -1.79916 0.548809 0
M  V30 8890 O 843.525 -1.74243 -0.500909 0
M  V30 8891 C 843.573 -2.00242 2.99893 0
M  V30 8892 O 842.677 -3.08662 2.73499 0
M  V30 8893 H 842.018 -0.301737 0.591482 0
M  V30 8894 H 844.548 -0.329449 2.0193 0
M  V30 8895 H 844.558 -2.42583 3.28051 0
M  V30 8896 H 843.233 -1.45235 3.89717 0
M  V30 8897 H 841.81 -2.70786 2.56377 0
M  V30 8898 N 843.995 -1.47404 -0.557645 0
M  V30 8899 C 844.942 -1.59859 -1.66475 0
M  V30 8900 C 845.912 -0.441644 -1.60121 0
M  V30 8901 O 847.097 -0.661641 -1.78961 0
M  V30 8902 C 844.237 -1.61843 -3.04797 0
M  V30 8903 C 843.35 -2.8845 -3.2159 0
M  V30 8904 C 842.485 -2.81773 -4.50308 0
M  V30 8905 C 841.524 -4.03208 -4.60532 0
M  V30 8906 N 840.661 -3.94769 -5.80604 0
M  V30 8907 H 845.501 -2.54415 -1.55168 0
M  V30 8908 H 843.038 -1.26194 -0.755876 0
M  V30 8909 H 844.996 -1.60976 -3.84893 0
M  V30 8910 H 843.626 -0.707997 -3.1494 0
M  V30 8911 H 842.678 -2.99186 -2.34929 0
M  V30 8912 H 843.99 -3.78379 -3.25009 0
M  V30 8913 H 843.144 -2.79153 -5.38663 0
M  V30 8914 H 841.883 -1.89527 -4.49367 0
M  V30 8915 H 840.888 -4.06133 -3.70589 0
M  V30 8916 H 842.113 -4.9658 -4.63233 0
M  V30 8917 H 840.059 -3.05326 -5.80613 0
M  V30 8918 H 839.976 -4.78375 -5.854 0
M  V30 8919 H 841.244 -3.96165 -6.71322 0
M  V30 8920 N 845.473 0.80434 -1.35529 0
M  V30 8921 C 846.701 1.59283 -1.32048 0
M  V30 8922 C 847.116 1.88527 0.101556 0
M  V30 8923 O 846.473 1.48975 1.05417 0
M  V30 8924 C 846.524 2.92276 -2.12737 0
M  V30 8925 O 846.245 2.64299 -3.49396 0
M  V30 8926 C 847.746 3.86631 -2.16867 0
M  V30 8927 H 844.966 0.494523 -0.453528 0
M  V30 8928 H 847.51 0.999415 -1.78415 0
M  V30 8929 H 845.665 3.48125 -1.69964 0
M  V30 8930 H 846.079 3.4923 -3.91329 0
M  V30 8931 H 847.553 4.77053 -2.77712 0
M  V30 8932 H 848.03 4.23384 -1.16803 0
M  V30 8933 H 848.636 3.36717 -2.59811 0
M  V30 8934 N 846.951 1.19563 1.02676 0
M  V30 8935 C 848.367 0.948304 1.28372 0
M  V30 8936 C 848.567 -0.378096 1.97921 0
M  V30 8937 O 847.623 -1.1091 2.26838 0
M  V30 8938 C 848.936 2.12381 2.12873 0
M  V30 8939 C 850.484 2.16366 2.26174 0
M  V30 8940 C 850.959 3.33374 3.14048 0
M  V30 8941 N 852.45 3.33323 3.21636 0
M  V30 8942 C 853.185 4.20504 3.89825 0
M  V30 8943 N 852.681 5.17845 4.60227 0
M  V30 8944 N 854.474 4.08375 3.86246 0
M  V30 8945 H 846.625 2.04899 0.559485 0
M  V30 8946 H 848.888 0.89606 0.309484 0
M  V30 8947 H 848.594 3.08383 1.69094 0
M  V30 8948 H 848.468 2.09621 3.1359 0
M  V30 8949 H 850.855 1.20933 2.69182 0
M  V30 8950 H 850.936 2.23179 1.25 0
M  V30 8951 H 850.58 4.29087 2.71747 0
M  V30 8952 H 850.51 3.23798 4.15286 0
M  V30 8953 H 853.001 2.62863 2.71498 0
M  V30 8954 H 853.314 5.80712 5.09896 0
M  V30 8955 H 851.659 5.21791 4.59085 0
M  V30 8956 H 854.85 3.31606 3.30386 0
M  V30 8957 H 855.023 4.76532 4.39114 0
M  V30 8958 N 848.429 -1.21819 0.999893 0
M  V30 8959 C 849.677 -1.90375 0.678351 0
M  V30 8960 C 849.998 -1.78155 -0.792824 0
M  V30 8961 O 849.268 -1.17319 -1.56885 0
M  V30 8962 H 847.848 -0.704661 0.247915 0
M  V30 8963 H 850.51 -1.48021 1.2679 0
M  V30 8964 H 849.606 -2.97385 0.947023 0
M  V30 8965 N 849.908 -0.773975 -1.37286 0
M  V30 8966 C 850.841 -0.108019 -2.27944 0
M  V30 8967 C 851.819 0.706737 -1.46438 0
M  V30 8968 O 853.003 0.681025 -1.75768 0
M  V30 8969 C 850.13 0.853199 -3.27778 0
M  V30 8970 C 849.176 0.122164 -4.26325 0
M  V30 8971 S 850.009 -1.19136 -5.22079 0
M  V30 8972 C 851.165 -0.233737 -6.25463 0
M  V30 8973 H 851.398 -0.876743 -2.84078 0
M  V30 8974 H 848.931 -0.567468 -1.43594 0
M  V30 8975 H 850.889 1.40238 -3.85803 0
M  V30 8976 H 849.55 1.59505 -2.70586 0
M  V30 8977 H 848.743 0.850926 -4.96765 0
M  V30 8978 H 848.345 -0.356079 -3.72301 0
M  V30 8979 H 850.637 0.59305 -6.74899 0
M  V30 8980 H 851.58 -0.906373 -7.02275 0
M  V30 8981 H 851.988 0.156048 -5.64284 0
M  V30 8982 N 851.386 1.48609 -0.524698 0
M  V30 8983 C 852.296 2.33318 0.244923 0
M  V30 8984 C 853.312 1.46153 0.944214 0
M  V30 8985 O 854.488 1.79141 0.920347 0
M  V30 8986 C 851.553 3.22149 1.28144 0
M  V30 8987 C 850.614 4.25184 0.593068 0
M  V30 8988 C 849.847 5.0977 1.5802 0
M  V30 8989 O 850.07 4.96249 2.81235 0
M  V30 8990 O 849.004 5.9134 1.1225 0
M  V30 8991 H 852.83 3.00362 -0.449066 0
M  V30 8992 H 850.415 1.46643 -0.285689 0
M  V30 8993 H 852.297 3.77111 1.88057 0
M  V30 8994 H 850.972 2.57772 1.95793 0
M  V30 8995 H 849.879 3.74071 -0.0464214 0
M  V30 8996 H 851.212 4.92183 -0.0413893 0
M  V30 8997 N 852.864 0.259585 1.55447 0
M  V30 8998 C 854.275 -0.241165 1.85136 0
M  V30 8999 C 854.626 -1.56634 1.18153 0
M  V30 9000 O 853.751 -2.11359 0.464351 0
M  V30 9001 C 854.346 -0.444355 3.35873 0
M  V30 9002 C 852.905 -0.889354 3.65742 0
M  V30 9003 C 852.052 0.0262474 2.77288 0
M  V30 9004 H 855.003 0.481808 1.51209 0
M  V30 9005 H 855.024 -1.28517 3.58139 0
M  V30 9006 H 854.536 0.520289 3.84597 0
M  V30 9007 H 852.637 -1.86602 3.22507 0
M  V30 9008 H 852.75 -0.737432 4.73391 0
M  V30 9009 H 851.114 -0.487361 2.49994 0
M  V30 9010 H 851.897 0.986494 3.28821 0
M  V30 9011 N 854.342 -1.57594 -0.0133615 0
M  V30 9012 C 855.753 -1.78168 -0.557937 0
M  V30 9013 C 856.104 -0.892616 -1.74719 0
M  V30 9014 O 855.229 -0.0915491 -2.16206 0
M  V30 9015 C 855.824 -3.23115 -1.01894 0
M  V30 9016 C 854.383 -3.44831 -1.50892 0
M  V30 9017 C 853.53 -2.73558 -0.454044 0
M  V30 9018 H 856.481 -1.57266 0.212843 0
M  V30 9019 H 856.502 -3.30493 -1.8856 0
M  V30 9020 H 856.014 -3.87798 -0.153175 0
M  V30 9021 H 854.115 -2.85345 -2.39602 0
M  V30 9022 H 854.228 -4.53485 -1.54559 0
M  V30 9023 H 852.592 -2.37787 -0.912666 0
M  V30 9024 H 853.375 -3.40932 0.402524 0
M  V30 9025 N 855.82 0.285905 -1.54985 0
M  V30 9026 C 857.066 1.01669 -1.76168 0
M  V30 9027 C 857.421 1.84401 -0.549019 0
M  V30 9028 O 856.714 1.86034 0.458463 0
M  V30 9029 C 856.908 1.94193 -3.0004 0
M  V30 9030 C 856.737 1.20565 -4.33237 0
M  V30 9031 C 855.507 0.92661 -4.96731 0
M  V30 9032 C 857.705 0.602514 -5.10759 0
M  V30 9033 N 855.687 0.162185 -6.13686 0
M  V30 9034 C 857.058 -0.0283843 -6.19994 0
M  V30 9035 C 859.113 0.509067 -4.95291 0
M  V30 9036 C 857.816 -0.743706 -7.15445 0
M  V30 9037 C 859.842 -0.192633 -5.91086 0
M  V30 9038 C 859.204 -0.812321 -6.997 0
M  V30 9039 H 855.303 0.354451 -0.697057 0
M  V30 9040 H 857.887 0.293693 -1.92472 0
M  V30 9041 H 856.058 2.6373 -2.85133 0
M  V30 9042 H 857.79 2.60536 -3.09682 0
M  V30 9043 H 854.545 1.22861 -4.57386 0
M  V30 9044 H 854.969 -0.206982 -6.76684 0
M  V30 9045 H 859.611 0.973856 -4.11432 0
M  V30 9046 H 857.329 -1.22022 -7.98834 0
M  V30 9047 H 860.915 -0.265082 -5.81196 0
M  V30 9048 H 859.795 -1.34665 -7.72551 0
M  V30 9049 N 857.298 1.47698 0.54982 0
M  V30 9050 C 858.546 1.54397 1.30407 0
M  V30 9051 C 858.867 0.211026 1.93855 0
M  V30 9052 O 858.137 -0.765701 1.80316 0
M  V30 9053 H 856.717 0.568747 0.484289 0
M  V30 9054 H 859.379 1.84042 0.641444 0
M  V30 9055 H 858.475 2.31449 2.09375 0
M  V30 9056 N 858.776 -0.797141 1.35954 0
M  V30 9057 C 860.006 -1.5835 1.32698 0
M  V30 9058 C 860.414 -1.88959 -0.0955298 0
M  V30 9059 O 859.757 -1.49987 -1.06064 0
M  V30 9060 C 859.819 -2.93529 2.0756 0
M  V30 9061 C 859.483 -2.85688 3.56695 0
M  V30 9062 C 860.48 -2.58467 4.51099 0
M  V30 9063 C 858.165 -3.04508 3.99475 0
M  V30 9064 C 860.159 -2.50157 5.8626 0
M  V30 9065 C 857.846 -2.9582 5.34728 0
M  V30 9066 C 858.844 -2.68681 6.27933 0
M  V30 9067 O 858.532 -2.59973 7.60703 0
M  V30 9068 H 858.264 -0.49807 0.457059 0
M  V30 9069 H 860.818 -0.997889 1.79531 0
M  V30 9070 H 859.048 -3.54111 1.55378 0
M  V30 9071 H 860.737 -3.54744 1.9726 0
M  V30 9072 H 861.503 -2.43638 4.19363 0
M  V30 9073 H 857.382 -3.24641 3.27306 0
M  V30 9074 H 860.926 -2.28894 6.58979 0
M  V30 9075 H 856.823 -3.10211 5.66074 0
M  V30 9076 H 857.591 -2.75511 7.70737 0
M  V30 9077 N 860.254 -1.20106 -1.0204 0
M  V30 9078 C 861.186 -0.904236 -2.10609 0
M  V30 9079 C 862.199 0.106487 -1.62451 0
M  V30 9080 O 863.388 -0.124035 -1.78069 0
M  V30 9081 C 860.488 -0.333423 -3.37256 0
M  V30 9082 C 859.661 -1.39476 -4.14566 0
M  V30 9083 C 858.72 -0.835961 -5.19517 0
M  V30 9084 O 857.746 -1.51573 -5.48648 0
M  V30 9085 N 858.948 0.356531 -5.79404 0
M  V30 9086 H 861.713 -1.8388 -2.36661 0
M  V30 9087 H 859.274 -1.10422 -1.184 0
M  V30 9088 H 861.266 0.0544571 -4.04663 0
M  V30 9089 H 859.836 0.505608 -3.08484 0
M  V30 9090 H 859.056 -1.95714 -3.42184 0
M  V30 9091 H 860.344 -2.10967 -4.63001 0
M  V30 9092 H 859.742 0.926143 -5.58067 0
M  V30 9093 H 858.299 0.686093 -6.48179 0
M  V30 9094 N 861.732 1.21287 -1.00634 0
M  V30 9095 C 862.68 2.25733 -0.561026 0
M  V30 9096 C 863.674 1.64728 0.395095 0
M  V30 9097 O 864.88 1.78022 0.266141 0
M  V30 9098 H 861.255 0.734104 -0.163081 0
M  V30 9099 H 863.226 2.60631 -1.45307 0
M  V30 9100 C 861.975 3.47569 0.0952587 0
M  V30 9101 H 861.298 3.94782 -0.631427 0
M  V30 9102 H 862.738 4.22382 0.370105 0
M  V30 9103 C 861.197 3.09326 1.33488 0
M  V30 9104 O 861.727 3.19933 2.42912 0
M  V30 9105 N 859.933 2.63976 1.21512 0
M  V30 9106 H 859.48 2.55545 0.324741 0
M  V30 9107 H 859.438 2.38757 2.04555 0
M  V30 9108 N 863.21 0.781244 1.36873 0
M  V30 9109 C 864.626 0.461968 1.52768 0
M  V30 9110 C 864.826 -1.02099 1.73719 0
M  V30 9111 O 863.882 -1.80665 1.76399 0
M  V30 9112 C 865.195 1.2853 2.71846 0
M  V30 9113 C 866.743 1.27817 2.85713 0
M  V30 9114 C 867.218 2.08506 4.07786 0
M  V30 9115 N 868.709 2.05909 4.14917 0
M  V30 9116 C 869.444 2.65118 5.08429 0
M  V30 9117 N 868.94 3.33152 6.07438 0
M  V30 9118 N 870.733 2.54896 5.00983 0
M  V30 9119 H 862.884 1.74198 1.21527 0
M  V30 9120 H 865.147 0.740027 0.592506 0
M  V30 9121 H 864.853 2.3366 2.62861 0
M  V30 9122 H 864.727 0.920981 3.65784 0
M  V30 9123 H 867.114 0.234817 2.94164 0
M  V30 9124 H 867.195 1.68219 1.92707 0
M  V30 9125 H 866.839 3.12867 4.00096 0
M  V30 9126 H 866.769 1.65479 4.99924 0
M  V30 9127 H 869.26 1.56386 3.44023 0
M  V30 9128 H 869.573 3.75681 6.75339 0
M  V30 9129 H 867.918 3.37253 6.07689 0
M  V30 9130 H 871.109 2.01352 4.22581 0
M  V30 9131 H 871.282 3.01332 5.73675 0
M  V30 9132 N 864.689 -1.48329 0.532571 0
M  V30 9133 C 865.917 -2.069 0.00354299 0
M  V30 9134 C 866.332 -1.38876 -1.27902 0
M  V30 9135 O 865.689 -0.477119 -1.76153 0
M  V30 9136 C 865.74 -3.60821 -0.221416 0
M  V30 9137 O 865.461 -4.26291 1.01034 0
M  V30 9138 C 866.962 -4.36194 -0.790531 0
M  V30 9139 H 864.182 -0.670103 0.0346836 0
M  V30 9140 H 866.726 -1.90682 0.738955 0
M  V30 9141 H 864.881 -3.76636 -0.906884 0
M  V30 9142 H 865.295 -5.18475 0.792683 0
M  V30 9143 H 866.769 -5.44657 -0.897347 0
M  V30 9144 H 867.246 -4.00798 -1.79605 0
M  V30 9145 H 867.852 -4.25064 -0.141546 0
M  V30 9146 N 866.167 -0.267825 -1.55308 0
M  V30 9147 C 867.097 0.616585 -2.25212 0
M  V30 9148 C 868.078 1.16472 -1.23969 0
M  V30 9149 O 869.263 1.20021 -1.52672 0
M  V30 9150 C 866.393 1.80412 -2.96764 0
M  V30 9151 C 865.347 1.38784 -4.04874 0
M  V30 9152 C 864.673 2.65789 -4.63961 0
M  V30 9153 C 865.973 0.543415 -5.19465 0
M  V30 9154 H 867.667 0.0336257 -2.99381 0
M  V30 9155 H 865.213 0.0147328 -1.43992 0
M  V30 9156 H 867.166 2.42866 -3.44375 0
M  V30 9157 H 865.89 2.4128 -2.20118 0
M  V30 9158 H 864.549 0.786541 -3.58063 0
M  V30 9159 H 864.197 3.24899 -3.83992 0
M  V30 9160 H 863.897 2.38651 -5.36954 0
M  V30 9161 H 865.421 3.29104 -5.14318 0
M  V30 9162 H 866.835 1.07277 -5.63174 0
M  V30 9163 H 865.232 0.367219 -5.98975 0
M  V30 9164 H 866.302 -0.439534 -4.82904 0
M  V30 9165 N 867.645 1.57599 0.00500368 0
M  V30 9166 C 869.061 1.55463 0.361015 0
M  V30 9167 C 869.261 0.997051 1.75103 0
M  V30 9168 O 868.317 0.628661 2.44549 0
M  V30 9169 C 869.63 2.99734 0.240828 0
M  V30 9170 C 871.178 3.11399 0.316138 0
M  V30 9171 C 871.653 4.57446 0.22513 0
M  V30 9172 N 873.144 4.62334 0.283186 0
M  V30 9173 C 873.879 5.72914 0.23603 0
M  V30 9174 N 873.375 6.92659 0.139762 0
M  V30 9175 N 875.168 5.61364 0.287529 0
M  V30 9176 H 867.319 1.92185 -0.904359 0
M  V30 9177 H 869.582 0.882529 -0.34619 0
M  V30 9178 H 869.288 3.44348 -0.715343 0
M  V30 9179 H 869.162 3.63009 1.02491 0
M  V30 9180 H 871.549 2.66718 1.26275 0
M  V30 9181 H 871.63 2.50911 -0.497725 0
M  V30 9182 H 871.274 5.02801 -0.717917 0
M  V30 9183 H 871.204 5.15874 1.05742 0
M  V30 9184 H 873.695 3.7619 0.359123 0
M  V30 9185 H 874.008 7.72722 0.10954 0
M  V30 9186 H 872.353 6.9492 0.105462 0
M  V30 9187 H 875.544 4.66707 0.360897 0
M  V30 9188 H 875.717 6.47528 0.247313 0
M  V30 9189 N 869.123 -0.277682 1.55134 0
M  V30 9190 C 870.348 -1.03254 1.7987 0
M  V30 9191 C 870.773 -1.79324 0.567861 0
M  V30 9192 O 870.131 -1.74764 -0.4824 0
M  V30 9193 C 870.179 -1.9705 3.02 0
M  V30 9194 O 869.283 -3.05744 2.76757 0
M  V30 9195 H 868.624 -0.295447 0.594649 0
M  V30 9196 H 871.154 -0.308013 2.02268 0
M  V30 9197 H 871.164 -2.3909 3.30606 0
M  V30 9198 H 869.839 -1.41094 3.91236 0
M  V30 9199 H 868.416 -2.68052 2.59235 0
M  V30 9200 N 870.601 -1.47988 -0.541979 0
M  V30 9201 C 871.85 -1.5465 -1.29485 0
M  V30 9202 C 872.163 -0.220041 -1.94358 0
M  V30 9203 O 873.369 -0.164792 -2.70999 0
M  V30 9204 C 871.825 -2.72685 -2.34885 0
M  V30 9205 C 871.433 -4.11923 -1.76134 0
M  V30 9206 C 873.177 -2.88651 -3.11257 0
M  V30 9207 C 871.084 -5.21237 -2.79404 0
M  V30 9208 H 870.014 -0.575688 -0.486928 0
M  V30 9209 H 872.665 -1.74296 -0.573853 0
M  V30 9210 H 871.047 -2.46448 -3.09966 0
M  V30 9211 H 872.221 -4.48128 -1.07322 0
M  V30 9212 H 870.536 -4.00972 -1.12295 0
M  V30 9213 H 873.133 -3.67487 -3.88404 0
M  V30 9214 H 873.476 -1.97658 -3.66384 0
M  V30 9215 H 874.009 -3.14731 -2.43288 0
M  V30 9216 H 870.748 -6.14156 -2.29113 0
M  V30 9217 H 870.268 -4.89533 -3.4658 0
M  V30 9218 H 871.947 -5.48839 -3.42615 0
M  V30 9219 N 872.079 0.78992 -1.36375 0
M  V30 9220 C 873.307 1.57873 -1.3373 0
M  V30 9221 C 873.722 1.88624 0.0815544 0
M  V30 9222 O 873.079 1.50085 1.03831 0
M  V30 9223 C 873.13 2.90003 -2.15825 0
M  V30 9224 O 872.851 2.60578 -3.5218 0
M  V30 9225 C 874.352 3.84309 -2.20955 0
M  V30 9226 H 871.572 0.489685 -0.458748 0
M  V30 9227 H 874.116 0.980436 -1.79465 0
M  V30 9228 H 872.271 3.46303 -1.73646 0
M  V30 9229 H 872.685 3.4506 -3.95011 0
M  V30 9230 H 874.159 4.74081 -2.82756 0
M  V30 9231 H 874.636 4.22121 -1.21287 0
M  V30 9232 H 875.242 3.33942 -2.63368 0
M  V30 9233 N 873.557 1.20646 1.01402 0
M  V30 9234 C 874.782 1.04462 1.79172 0
M  V30 9235 C 875.207 -0.401588 1.83763 0
M  V30 9236 O 874.565 -1.28934 1.27459 0
M  V30 9237 C 874.613 1.63583 3.21361 0
M  V30 9238 O 873.717 0.875198 4.03006 0
M  V30 9239 H 873.058 0.368235 0.552539 0
M  V30 9240 H 875.588 1.59994 1.27526 0
M  V30 9241 H 875.598 1.67426 3.72065 0
M  V30 9242 H 874.273 2.68835 3.17334 0
M  V30 9243 H 872.85 0.911172 3.61597 0
M  V30 9244 N 875.035 -1.20752 1.01276 0
M  V30 9245 C 876.446 -1.7175 0.732033 0
M  V30 9246 C 876.797 -1.8131 -0.749733 0
M  V30 9247 O 875.922 -1.47301 -1.58529 0
M  V30 9248 C 876.517 -3.11936 1.32217 0
M  V30 9249 C 875.076 -3.6026 1.09039 0
M  V30 9250 C 874.223 -2.37571 1.43022 0
M  V30 9251 H 877.174 -1.0582 1.1827 0
M  V30 9252 H 877.195 -3.73802 0.710771 0
M  V30 9253 H 876.707 -3.04946 2.40061 0
M  V30 9254 H 874.808 -3.72588 0.0294464 0
M  V30 9255 H 874.921 -4.45295 1.76775 0
M  V30 9256 H 873.285 -2.40128 0.849159 0
M  V30 9257 H 874.068 -2.33225 2.51915 0
M  V30 9258 N 876.513 -0.788492 -1.36457 0
M  V30 9259 C 877.443 -0.200468 -2.32638 0
M  V30 9260 C 878.424 0.664031 -1.56603 0
M  V30 9261 O 879.609 0.598045 -1.84762 0
M  V30 9262 C 876.739 0.666274 -3.40849 0
M  V30 9263 C 875.693 -0.0982574 -4.27887 0
M  V30 9264 C 875.019 0.889018 -5.27258 0
M  V30 9265 C 876.319 -1.28692 -5.06197 0
M  V30 9266 H 878.013 -1.00399 -2.82065 0
M  V30 9267 H 875.559 -0.484237 -1.35614 0
M  V30 9268 H 877.512 1.08757 -4.07124 0
M  V30 9269 H 876.236 1.50249 -2.89987 0
M  V30 9270 H 874.895 -0.500525 -3.63167 0
M  V30 9271 H 874.543 1.72024 -4.7267 0
M  V30 9272 H 874.243 0.381909 -5.86358 0
M  V30 9273 H 875.767 1.30891 -5.96406 0
M  V30 9274 H 877.181 -0.941429 -5.65517 0
M  V30 9275 H 875.578 -1.72726 -5.74705 0
M  V30 9276 H 876.648 -2.08273 -4.37893 0
M  V30 9277 N 877.991 1.48044 -0.54043 0
M  V30 9278 C 879.237 2.02797 -0.0101718 0
M  V30 9279 C 879.57 1.41565 1.32939 0
M  V30 9280 O 878.845 0.565139 1.86109 0
M  V30 9281 C 879.128 3.59959 0.100758 0
M  V30 9282 C 878.981 4.31654 -1.26471 0
M  V30 9283 C 880.3 4.32347 0.822455 0
M  V30 9284 H 877.419 0.736982 -0.00517052 0
M  V30 9285 H 880.061 1.76656 -0.69948 0
M  V30 9286 H 878.211 3.82363 0.687824 0
M  V30 9287 H 879.883 4.20639 -1.89369 0
M  V30 9288 H 878.126 3.92663 -1.84386 0
M  V30 9289 H 878.797 5.401 -1.13998 0
M  V30 9290 H 881.273 4.14835 0.324164 0
M  V30 9291 H 880.149 5.41978 0.868993 0
M  V30 9292 H 880.41 4.00369 1.87501 0
M  V30 9293 N 879.47 0.276058 1.55163 0
M  V30 9294 C 880.433 -0.597924 2.21263 0
M  V30 9295 C 881.433 -1.0806 1.19078 0
M  V30 9296 O 882.623 -0.980626 1.43977 0
M  V30 9297 C 879.755 -1.82503 2.87933 0
M  V30 9298 H 880.948 -0.0207769 2.99893 0
M  V30 9299 H 878.501 0.0266823 1.56277 0
M  V30 9300 H 879.236 -2.44266 2.13318 0
M  V30 9301 H 879.021 -1.48683 3.62816 0
M  V30 9302 H 880.511 -2.44651 3.38431 0
M  V30 9303 N 880.948 -1.576 0.00335426 0
M  V30 9304 C 881.898 -2.05116 -0.995562 0
M  V30 9305 C 882.882 -0.946535 -1.30113 0
M  V30 9306 O 884.074 -1.21028 -1.29156 0
M  V30 9307 C 881.203 -2.56077 -2.28648 0
M  V30 9308 C 880.289 -3.73422 -2.0104 0
M  V30 9309 N 880.68 -4.84986 -1.43603 0
M  V30 9310 C 878.978 -3.81416 -2.31166 0
M  V30 9311 C 879.679 -5.66399 -1.32542 0
M  V30 9312 N 878.655 -5.12505 -1.81218 0
M  V30 9313 H 882.457 -2.88783 -0.546025 0
M  V30 9314 H 879.971 -1.61135 -0.202265 0
M  V30 9315 H 881.968 -2.88395 -3.01055 0
M  V30 9316 H 880.628 -1.73829 -2.74251 0
M  V30 9317 H 881.639 -5.05768 -1.11439 0
M  V30 9318 H 878.316 -3.1003 -2.7962 0
M  V30 9319 H 879.706 -6.66066 -0.88348 0
M  V30 9320 N 882.426 0.269451 -1.5528 0
M  V30 9321 C 883.842 0.616827 -1.47199 0
M  V30 9322 C 884.042 1.89354 -0.68901 0
M  V30 9323 O 883.098 2.51631 -0.209287 0
M  V30 9324 C 884.411 0.740492 -2.9144 0
M  V30 9325 C 885.959 0.834312 -3.01676 0
M  V30 9326 C 886.434 0.989725 -4.47178 0
M  V30 9327 N 887.925 1.05516 -4.51022 0
M  V30 9328 C 888.66 1.19427 -5.60825 0
M  V30 9329 N 888.156 1.30035 -6.80487 0
M  V30 9330 N 889.949 1.22566 -5.48575 0
M  V30 9331 H 882.1 -0.568962 -2.04638 0
M  V30 9332 H 884.363 -0.193153 -0.928114 0
M  V30 9333 H 884.069 -0.127234 -3.5147 0
M  V30 9334 H 883.943 1.61965 -3.40657 0
M  V30 9335 H 886.33 1.6925 -2.4174 0
M  V30 9336 H 886.411 -0.0695298 -2.55705 0
M  V30 9337 H 886.055 0.136179 -5.07717 0
M  V30 9338 H 885.985 1.90827 -4.90808 0
M  V30 9339 H 888.476 0.985434 -3.64825 0
M  V30 9340 H 888.789 1.40494 -7.59922 0
M  V30 9341 H 887.134 1.27033 -6.83292 0
M  V30 9342 H 890.325 1.13911 -4.54029 0
M  V30 9343 H 890.498 1.33063 -6.34191 0
M  V30 9344 N 883.904 1.48273 0.534124 0
M  V30 9345 C 884.834 1.6538 1.64839 0
M  V30 9346 C 885.815 0.502741 1.62501 0
M  V30 9347 O 887 0.734799 1.79762 0
M  V30 9348 C 884.13 1.68949 3.03436 0
M  V30 9349 C 883.084 2.83513 3.20631 0
M  V30 9350 C 882.41 2.72169 4.60248 0
M  V30 9351 C 883.71 4.24858 3.03797 0
M  V30 9352 H 885.404 2.58663 1.50777 0
M  V30 9353 H 882.95 1.24479 0.723937 0
M  V30 9354 H 884.903 1.79505 3.81256 0
M  V30 9355 H 883.627 0.722415 3.1851 0
M  V30 9356 H 882.286 2.72505 2.45227 0
M  V30 9357 H 881.934 1.7344 4.72152 0
M  V30 9358 H 881.634 3.49042 4.72698 0
M  V30 9359 H 883.158 2.84687 5.40172 0
M  V30 9360 H 884.572 4.36721 3.71413 0
M  V30 9361 H 882.969 5.02697 3.27743 0
M  V30 9362 H 884.039 4.41611 2.0027 0
M  V30 9363 N 885.382 -0.782676 1.36792 0
M  V30 9364 C 886.329 -1.89558 1.31667 0
M  V30 9365 C 887.299 -1.65076 0.184147 0
M  V30 9366 O 888.484 -1.87143 0.371753 0
M  V30 9367 C 885.624 -3.26469 1.11858 0
M  V30 9368 C 884.737 -3.62978 2.34245 0
M  V30 9369 C 883.872 -4.89041 2.07394 0
M  V30 9370 C 882.911 -5.18249 3.25706 0
M  V30 9371 N 882.048 -6.35497 2.98476 0
M  V30 9372 H 886.888 -1.93274 2.26824 0
M  V30 9373 H 884.425 -0.945057 1.12726 0
M  V30 9374 H 886.383 -4.05431 0.983968 0
M  V30 9375 H 885.013 -3.22158 0.203531 0
M  V30 9376 H 884.065 -2.79087 2.58485 0
M  V30 9377 H 885.377 -3.80507 3.22514 0
M  V30 9378 H 884.531 -5.75883 1.90901 0
M  V30 9379 H 883.27 -4.73594 1.16446 0
M  V30 9380 H 882.275 -4.29887 3.4275 0
M  V30 9381 H 883.5 -5.35611 4.1749 0
M  V30 9382 H 881.446 -6.21429 2.10146 0
M  V30 9383 H 881.363 -6.5339 3.80286 0
M  V30 9384 H 882.631 -7.25304 2.85577 0
M  V30 9385 N 886.86 -1.21182 -1.00761 0
M  V30 9386 C 888.271 -1.02652 -1.55947 0
M  V30 9387 C 888.622 0.414466 -1.91772 0
M  V30 9388 O 887.747 1.29727 -1.73204 0
M  V30 9389 C 888.342 -1.85713 -2.83366 0
M  V30 9390 C 886.901 -1.71523 -3.35048 0
M  V30 9391 C 886.048 -1.83087 -2.08265 0
M  V30 9392 H 888.999 -1.35242 -0.830379 0
M  V30 9393 H 889.02 -1.36583 -3.55141 0
M  V30 9394 H 888.532 -2.90584 -2.5726 0
M  V30 9395 H 886.633 -0.693257 -3.66094 0
M  V30 9396 H 886.746 -2.53333 -4.06644 0
M  V30 9397 H 885.11 -1.26367 -2.21141 0
M  V30 9398 H 885.893 -2.8946 -1.84575 0
M  V30 9399 N 888.338 1.20213 -1.01915 0
M  V30 9400 C 889.587 1.88968 -0.705261 0
M  V30 9401 C 889.9 1.79869 0.768531 0
M  V30 9402 O 891.106 2.43783 1.19508 0
M  V30 9403 C 889.562 3.38911 -1.21109 0
M  V30 9404 C 889.17 3.5659 -2.71197 0
M  V30 9405 C 890.914 4.13204 -0.97275 0
M  V30 9406 C 888.821 5.00372 -3.15248 0
M  V30 9407 H 887.751 0.707715 -0.260107 0
M  V30 9408 H 890.402 1.35977 -1.23217 0
M  V30 9409 H 888.784 3.9124 -0.612152 0
M  V30 9410 H 889.958 3.14635 -3.36662 0
M  V30 9411 H 888.273 2.95671 -2.93202 0
M  V30 9412 H 890.87 5.19221 -1.27726 0
M  V30 9413 H 891.213 4.16201 0.09072 0
M  V30 9414 H 891.746 3.66983 -1.5352 0
M  V30 9415 H 888.485 5.02532 -4.20882 0
M  V30 9416 H 888.005 5.43127 -2.54505 0
M  V30 9417 H 889.684 5.68969 -3.08032 0
M  V30 9418 N 889.816 0.795718 1.36037 0
M  V30 9419 C 891.232 0.478145 1.52269 0
M  V30 9420 C 891.432 -1.0025 1.74792 0
M  V30 9421 O 890.488 -1.78783 1.78305 0
M  V30 9422 C 891.801 1.31406 2.70468 0
M  V30 9423 C 893.349 1.3084 2.84341 0
M  V30 9424 C 893.824 2.12819 4.05551 0
M  V30 9425 N 895.315 2.10298 4.12709 0
M  V30 9426 C 896.05 2.70495 5.05589 0
M  V30 9427 N 895.546 3.39576 6.03871 0
M  V30 9428 N 897.339 2.60195 4.98252 0
M  V30 9429 H 889.49 1.75477 1.19673 0
M  V30 9430 H 891.753 0.74627 0.584624 0
M  V30 9431 H 891.459 2.36435 2.60368 0
M  V30 9432 H 891.333 0.959726 3.64786 0
M  V30 9433 H 893.72 0.266003 2.93899 0
M  V30 9434 H 893.801 1.70254 1.90912 0
M  V30 9435 H 893.445 3.17093 3.96755 0
M  V30 9436 H 893.375 1.70772 4.98141 0
M  V30 9437 H 895.866 1.60026 3.42345 0
M  V30 9438 H 896.179 3.82823 6.71317 0
M  V30 9439 H 894.524 3.43679 6.04077 0
M  V30 9440 H 897.715 2.05823 4.20422 0
M  V30 9441 H 897.888 3.074 5.70447 0
M  V30 9442 N 891.294 -1.47756 0.548274 0
M  V30 9443 C 892.226 -2.27921 -0.24177 0
M  V30 9444 C 893.239 -1.36471 -0.887658 0
M  V30 9445 O 894.428 -1.6137 -0.763016 0
M  V30 9446 C 891.528 -3.10449 -1.35922 0
M  V30 9447 C 890.701 -4.298 -0.811808 0
M  V30 9448 C 889.76 -4.93994 -1.81264 0
M  V30 9449 O 888.786 -5.52657 -1.3623 0
M  V30 9450 N 889.988 -4.87882 -3.14566 0
M  V30 9451 H 892.753 -2.96365 0.445848 0
M  V30 9452 H 890.314 -1.57286 0.383769 0
M  V30 9453 H 892.306 -3.50261 -2.02729 0
M  V30 9454 H 890.876 -2.44306 -1.95021 0
M  V30 9455 H 890.096 -3.94186 0.0327929 0
M  V30 9456 H 891.384 -5.0702 -0.425272 0
M  V30 9457 H 890.782 -4.41405 -3.53805 0
M  V30 9458 H 889.339 -5.3174 -3.76956 0
M  V30 9459 N 892.772 -0.284283 -1.55015 0
M  V30 9460 C 893.719 0.599194 -2.22886 0
M  V30 9461 C 894.689 1.14264 -1.20553 0
M  V30 9462 O 895.874 1.19025 -1.49123 0
M  V30 9463 C 893.014 1.77317 -2.96062 0
M  V30 9464 C 892.127 1.26271 -4.13134 0
M  V30 9465 C 891.262 2.39922 -4.73931 0
M  V30 9466 C 890.301 1.85925 -5.8318 0
M  V30 9467 N 889.438 2.93084 -6.38002 0
M  V30 9468 H 894.278 0.0137816 -2.97997 0
M  V30 9469 H 891.815 -0.00496503 -1.47099 0
M  V30 9470 H 893.773 2.46339 -3.36709 0
M  V30 9471 H 892.403 2.33047 -2.23358 0
M  V30 9472 H 891.455 0.465296 -3.77544 0
M  V30 9473 H 892.767 0.827284 -4.91892 0
M  V30 9474 H 891.921 3.1692 -5.17346 0
M  V30 9475 H 890.66 2.86784 -3.9447 0
M  V30 9476 H 889.665 1.07409 -5.39206 0
M  V30 9477 H 890.89 1.39987 -6.64515 0
M  V30 9478 H 888.836 3.3931 -5.61431 0
M  V30 9479 H 888.753 2.53986 -7.12058 0
M  V30 9480 H 890.021 3.7003 -6.86075 0
M  V30 9481 N 894.251 1.57596 -0.0117121 0
M  V30 9482 C 895.479 1.9536 0.681334 0
M  V30 9483 C 895.894 0.887255 1.66653 0
M  V30 9484 O 895.251 -0.132692 1.82017 0
M  V30 9485 C 895.302 3.33165 1.40298 0
M  V30 9486 O 895.023 4.35707 0.45728 0
M  V30 9487 C 896.524 3.85458 2.18946 0
M  V30 9488 H 893.744 0.643826 0.189023 0
M  V30 9489 H 896.288 2.04392 -0.066311 0
M  V30 9490 H 894.443 3.25404 2.10216 0
M  V30 9491 H 894.857 5.15495 0.96773 0
M  V30 9492 H 896.331 4.84275 2.64918 0
M  V30 9493 H 896.808 3.18781 3.02118 0
M  V30 9494 H 897.414 3.96431 1.5402 0
M  V30 9495 N 895.729 -0.261212 1.5542 0
M  V30 9496 C 896.676 -1.32315 1.89107 0
M  V30 9497 C 897.646 -1.48517 0.743767 0
M  V30 9498 O 898.831 -1.62733 0.996123 0
M  V30 9499 C 895.971 -2.67626 2.17877 0
M  V30 9500 C 895.084 -2.59549 3.45338 0
M  V30 9501 C 894.219 -3.87118 3.63748 0
M  V30 9502 C 893.258 -3.736 4.8486 0
M  V30 9503 N 892.395 -4.93029 4.99867 0
M  V30 9504 H 897.235 -1.02886 2.79675 0
M  V30 9505 H 894.772 -0.496812 1.38456 0
M  V30 9506 H 896.73 -3.4637 2.32559 0
M  V30 9507 H 895.36 -2.95232 1.30529 0
M  V30 9508 H 894.412 -1.72452 3.39064 0
M  V30 9509 H 895.724 -2.45465 4.34222 0
M  V30 9510 H 894.878 -4.74305 3.78312 0
M  V30 9511 H 893.617 -4.04084 2.73071 0
M  V30 9512 H 892.622 -2.84797 4.70288 0
M  V30 9513 H 893.847 -3.58143 5.76984 0
M  V30 9514 H 891.793 -5.10383 4.12123 0
M  V30 9515 H 891.71 -4.81521 5.82815 0
M  V30 9516 H 892.978 -5.81754 5.18828 0
M  V30 9517 N 897.207 -1.48554 -0.526253 0
M  V30 9518 C 898.154 -1.63354 -1.63046 0
M  V30 9519 C 899.124 -0.475509 -1.59148 0
M  V30 9520 O 900.309 -0.699453 -1.77517 0
M  V30 9521 C 897.449 -1.68271 -3.01295 0
M  V30 9522 C 896.562 -2.95207 -3.15399 0
M  V30 9523 C 895.697 -2.91262 -4.4423 0
M  V30 9524 C 894.736 -4.12886 -4.51876 0
M  V30 9525 N 893.873 -4.06996 -5.721 0
M  V30 9526 H 898.713 -2.57649 -1.49737 0
M  V30 9527 H 896.25 -1.27769 -0.728938 0
M  V30 9528 H 898.208 -1.69104 -3.81392 0
M  V30 9529 H 896.838 -0.774641 -3.13367 0
M  V30 9530 H 895.89 -3.04102 -2.2853 0
M  V30 9531 H 897.202 -3.85187 -3.1691 0
M  V30 9532 H 896.356 -2.90516 -5.32621 0
M  V30 9533 H 895.095 -1.99016 -4.45246 0
M  V30 9534 H 894.1 -4.13902 -3.61891 0
M  V30 9535 H 895.325 -5.06294 -4.52596 0
M  V30 9536 H 893.271 -3.17573 -5.74006 0
M  V30 9537 H 893.188 -4.90685 -5.75121 0
M  V30 9538 H 894.456 -4.10315 -6.62768 0
M  V30 9539 N 898.685 0.775411 -1.37205 0
M  V30 9540 C 899.648 1.8702 -1.325 0
M  V30 9541 C 900.648 1.5915 -0.229793 0
M  V30 9542 O 901.838 1.673 -0.485423 0
M  V30 9543 C 898.97 3.24085 -1.05745 0
M  V30 9544 H 900.163 1.92604 -2.29878 0
M  V30 9545 H 897.716 0.97476 -1.22181 0
M  V30 9546 H 898.451 3.24178 -0.0888371 0
M  V30 9547 H 898.236 3.45705 -1.85016 0
M  V30 9548 H 899.726 4.0416 -1.05094 0
M  V30 9549 N 900.163 1.21714 1.00117 0
M  V30 9550 C 901.409 1.03823 1.74208 0
M  V30 9551 C 901.742 -0.426733 1.89454 0
M  V30 9552 O 901.017 -1.31658 1.43166 0
M  V30 9553 C 901.3 1.74047 3.15246 0
M  V30 9554 C 901.153 3.28087 3.077 0
M  V30 9555 C 902.472 1.48614 4.14249 0
M  V30 9556 H 899.591 0.378573 0.632338 0
M  V30 9557 H 902.233 1.49942 1.16694 0
M  V30 9558 H 900.383 1.3484 3.64349 0
M  V30 9559 H 902.055 3.76686 2.6628 0
M  V30 9560 H 900.298 3.58191 2.44707 0
M  V30 9561 H 900.969 3.72392 4.07466 0
M  V30 9562 H 903.445 1.82656 3.73866 0
M  V30 9563 H 902.321 2.00257 5.11066 0
M  V30 9564 H 902.582 0.416957 4.40129 0
M  V30 9565 N 901.641 -1.19671 1.02551 0
M  V30 9566 C 902.887 -1.89548 0.721069 0
M  V30 9567 C 903.22 -1.79209 -0.748176 0
M  V30 9568 O 902.495 -1.1822 -1.54448 0
M  V30 9569 C 902.778 -3.4061 1.16861 0
M  V30 9570 C 902.631 -3.59838 2.69883 0
M  V30 9571 C 903.95 -4.33718 0.746782 0
M  V30 9572 H 901.069 -0.688315 0.263422 0
M  V30 9573 H 903.711 -1.40883 1.27483 0
M  V30 9574 H 901.861 -3.82188 0.697477 0
M  V30 9575 H 903.533 -3.27454 3.24917 0
M  V30 9576 H 901.776 -3.03005 3.10435 0
M  V30 9577 H 902.447 -4.65766 2.96253 0
M  V30 9578 H 904.923 -3.99837 1.15195 0
M  V30 9579 H 903.799 -5.38012 1.08786 0
M  V30 9580 H 904.06 -4.40704 -0.351057 0
M  V30 9581 N 903.119 -0.802921 -1.35613 0
M  V30 9582 C 904.344 -0.392846 -2.03645 0
M  V30 9583 C 904.769 0.987075 -1.6012 0
M  V30 9584 O 904.127 1.63849 -0.776101 0
M  V30 9585 C 904.175 -0.480208 -3.57388 0
M  V30 9586 O 903.279 0.507751 -4.09262 0
M  V30 9587 H 902.62 -0.16464 -0.643265 0
M  V30 9588 H 905.15 -1.08779 -1.73287 0
M  V30 9589 H 905.16 -0.348683 -4.06507 0
M  V30 9590 H 903.835 -1.48675 -3.88418 0
M  V30 9591 H 902.412 0.336769 -3.71376 0
M  V30 9592 N 904.597 1.47463 -0.556102 0
M  V30 9593 C 905.846 2.01678 -0.029492 0
M  V30 9594 C 906.159 1.436 1.32809 0
M  V30 9595 O 907.365 1.89472 1.94455 0
M  V30 9596 C 905.821 3.599 -0.00223937 0
M  V30 9597 C 905.429 4.26969 -1.35651 0
M  V30 9598 C 907.173 4.2187 0.471822 0
M  V30 9599 C 905.08 5.77194 -1.28843 0
M  V30 9600 H 904.01 0.753965 -0.00725504 0
M  V30 9601 H 906.661 1.69467 -0.703789 0
M  V30 9602 H 905.043 3.89068 0.737682 0
M  V30 9603 H 906.217 4.09444 -2.11406 0
M  V30 9604 H 904.532 3.76983 -1.76842 0
M  V30 9605 H 907.129 5.31955 0.541139 0
M  V30 9606 H 907.472 3.88968 1.48356 0
M  V30 9607 H 908.005 3.97228 -0.213207 0
M  V30 9608 H 904.744 6.14713 -2.27613 0
M  V30 9609 H 904.264 5.9706 -0.572668 0
M  V30 9610 H 905.943 6.3938 -0.990031 0
M  V30 9611 N 906.075 0.2925 1.54862 0
M  V30 9612 C 907.005 -0.580677 2.26165 0
M  V30 9613 C 907.986 -1.14485 1.25806 0
M  V30 9614 O 909.171 -1.17577 1.54562 0
M  V30 9615 C 906.301 -1.75668 2.99596 0
M  V30 9616 C 905.255 -1.32325 4.07031 0
M  V30 9617 C 904.581 -2.58374 4.68131 0
M  V30 9618 C 905.881 -0.460703 5.20264 0
M  V30 9619 H 907.575 0.0140075 2.99397 0
M  V30 9620 H 905.121 0.00817706 1.43998 0
M  V30 9621 H 907.074 -2.37356 3.48195 0
M  V30 9622 H 905.798 -2.37747 2.23928 0
M  V30 9623 H 904.457 -0.729477 3.59269 0
M  V30 9624 H 904.105 -3.18749 3.89112 0
M  V30 9625 H 903.805 -2.30078 5.40683 0
M  V30 9626 H 905.329 -3.2088 5.19489 0
M  V30 9627 H 906.743 -0.983037 5.64809 0
M  V30 9628 H 905.14 -0.271881 5.99484 0
M  V30 9629 H 906.21 0.516304 4.82143 0
M  V30 9630 N 907.553 -1.57587 0.0200696 0
M  V30 9631 C 908.83 -1.82696 -0.698677 0
M  V30 9632 C 909.21 -0.902082 -1.90855 0
M  V30 9633 O 908.558 0.0444834 -2.28457 0
M  V30 9634 C 908.768 -3.31691 -1.08546 0
M  V30 9635 C 910.116 -3.97938 -1.4809 0
M  V30 9636 O 911.14 -3.36133 -1.17869 0
M  V30 9637 O 909.999 -5.06851 -2.04364 0
M  V30 9638 H 907.093 -0.752997 -0.341942 0
M  V30 9639 H 909.639 -1.69635 0.04706 0
M  V30 9640 H 908.411 -3.90659 -0.223956 0
M  V30 9641 H 908.034 -3.49825 -1.88965 0
M  V30 9642 N 909.032 0.252966 -1.55557 0
M  V30 9643 C 910.257 1.0038 -1.8149 0
M  V30 9644 C 910.682 1.78397 -0.596318 0
M  V30 9645 O 910.04 1.7551 0.454535 0
M  V30 9646 C 910.088 1.9222 -3.05096 0
M  V30 9647 O 909.192 3.01302 -2.81587 0
M  V30 9648 H 908.533 0.285949 -0.599274 0
M  V30 9649 H 911.063 0.275795 -2.02733 0
M  V30 9650 H 911.073 2.338 -3.34368 0
M  V30 9651 H 909.748 1.34852 -3.93431 0
M  V30 9652 H 908.325 2.63894 -2.63466 0
M  V30 9653 N 910.51 1.48831 0.518367 0
M  V30 9654 C 911.42 1.6692 1.64848 0
M  V30 9655 C 912.436 0.551711 1.65022 0
M  V30 9656 O 913.612 0.824251 1.83761 0
M  V30 9657 C 910.677 1.71559 3.01278 0
M  V30 9658 C 909.738 2.9502 3.11868 0
M  V30 9659 C 908.971 2.99428 4.4179 0
M  V30 9660 O 909.194 2.11914 5.29574 0
M  V30 9661 O 908.128 3.91719 4.5699 0
M  V30 9662 H 911.954 2.62623 1.52521 0
M  V30 9663 H 909.539 1.32368 0.692749 0
M  V30 9664 H 911.421 1.77064 3.82396 0
M  V30 9665 H 910.096 0.790316 3.13904 0
M  V30 9666 H 909.003 2.95042 2.30003 0
M  V30 9667 H 910.336 3.8697 3.04163 0
M  V30 9668 N 911.988 -0.768124 1.37614 0
M  V30 9669 C 912.898 -1.91249 1.35871 0
M  V30 9670 C 913.914 -1.7208 0.257786 0
M  V30 9671 O 915.09 -1.95253 0.493782 0
M  V30 9672 C 912.155 -3.26423 1.16829 0
M  V30 9673 C 911.216 -3.5822 2.36594 0
M  V30 9674 C 910.449 -4.86945 2.1845 0
M  V30 9675 O 910.672 -5.58258 1.17064 0
M  V30 9676 O 909.606 -5.17888 3.06718 0
M  V30 9677 H 913.432 -1.95671 2.32264 0
M  V30 9678 H 911.017 -0.911382 1.18382 0
M  V30 9679 H 912.899 -4.07269 1.08212 0
M  V30 9680 H 911.574 -3.22845 0.235123 0
M  V30 9681 H 910.481 -2.77594 2.50783 0
M  V30 9682 H 911.814 -3.66545 3.2849 0
M  V30 9683 N 913.466 -1.22244 -0.994698 0
M  V30 9684 C 914.712 -1.04746 -1.73655 0
M  V30 9685 C 915.045 0.41668 -1.89677 0
M  V30 9686 O 914.32 1.30897 -1.43862 0
M  V30 9687 C 914.603 -1.75716 -3.14318 0
M  V30 9688 C 914.456 -3.29714 -3.05955 0
M  V30 9689 C 915.775 -1.50809 -4.13455 0
M  V30 9690 H 912.894 -0.381921 -0.630322 0
M  V30 9691 H 915.536 -1.50559 -1.15897 0
M  V30 9692 H 913.686 -1.3677 -3.63629 0
M  V30 9693 H 915.358 -3.78093 -2.64279 0
M  V30 9694 H 913.601 -3.59484 -2.42804 0
M  V30 9695 H 914.272 -3.74547 -4.05485 0
M  V30 9696 H 916.748 -1.84636 -3.72892 0
M  V30 9697 H 915.624 -2.02964 -5.09997 0
M  V30 9698 H 915.885 -0.440292 -4.39902 0
M  V30 9699 N 914.944 1.19125 -1.03184 0
M  V30 9700 C 916.184 1.90582 -0.738785 0
M  V30 9701 C 916.548 1.78004 0.719627 0
M  V30 9702 O 917.749 2.44084 1.12589 0
M  V30 9703 C 916.02 3.37319 -1.18114 0
M  V30 9704 S 917.579 4.26962 -1.01238 0
M  V30 9705 H 914.397 0.6582 -0.268875 0
M  V30 9706 H 916.999 1.43999 -1.32229 0
M  V30 9707 H 915.703 3.43999 -2.23814 0
M  V30 9708 H 915.234 3.88935 -0.591051 0
M  V30 9709 H 917.249 4.96143 0.0753558 0
M  V30 9710 N 916.422 0.810101 1.35185 0
M  V30 9711 C 917.668 0.392698 1.98962 0
M  V30 9712 C 918.001 -1.03835 1.64109 0
M  V30 9713 O 917.276 -1.721 0.9062 0
M  V30 9714 C 917.559 0.580349 3.55393 0
M  V30 9715 C 917.412 2.05658 4.00031 0
M  V30 9716 C 918.731 0.00822618 4.40099 0
M  V30 9717 H 915.85 0.144157 0.722764 0
M  V30 9718 H 918.492 1.02029 1.60281 0
M  V30 9719 H 916.642 0.0461106 3.88473 0
M  V30 9720 H 918.314 2.65348 3.77344 0
M  V30 9721 H 916.557 2.55174 3.50811 0
M  V30 9722 H 917.228 2.13875 5.08883 0
M  V30 9723 H 919.704 0.464517 4.13499 0
M  V30 9724 H 918.58 0.169414 5.48638 0
M  V30 9725 H 918.841 -1.08576 4.2856 0
M  V30 9726 N 917.9 -1.47166 0.563914 0
M  V30 9727 C 918.81 -2.33885 -0.182977 0
M  V30 9728 C 919.826 -1.48605 -0.905132 0
M  V30 9729 O 921.002 -1.81518 -0.872527 0
M  V30 9730 C 918.067 -3.25433 -1.19558 0
M  V30 9731 C 917.128 -4.26607 -0.480129 0
M  V30 9732 C 916.361 -5.1378 -1.44449 0
M  V30 9733 O 916.584 -5.03531 -2.67979 0
M  V30 9734 O 915.518 -5.94109 -0.965321 0
M  V30 9735 H 919.344 -2.99065 0.528544 0
M  V30 9736 H 916.929 -1.45834 0.324468 0
M  V30 9737 H 918.811 -3.81964 -1.77993 0
M  V30 9738 H 917.486 -2.62873 -1.8889 0
M  V30 9739 H 916.393 -3.73817 0.145583 0
M  V30 9740 H 917.726 -4.919 0.171868 0
M  V30 9741 N 919.378 -0.300708 -1.54705 0
M  V30 9742 C 920.308 0.568675 -2.26469 0
M  V30 9743 C 921.289 1.13817 -1.26411 0
M  V30 9744 O 922.474 1.16756 -1.55183 0
M  V30 9745 C 919.604 1.74077 -3.00524 0
M  V30 9746 C 918.558 1.30165 -4.07727 0
M  V30 9747 C 917.884 2.55888 -4.69495 0
M  V30 9748 C 919.184 0.433106 -5.20501 0
M  V30 9749 H 920.878 -0.0298851 -2.99385 0
M  V30 9750 H 918.424 -0.0158135 -1.43991 0
M  V30 9751 H 920.377 2.35506 -3.49449 0
M  V30 9752 H 919.101 2.36556 -2.25186 0
M  V30 9753 H 917.76 0.710414 -3.59651 0
M  V30 9754 H 917.408 3.16681 -3.90797 0
M  V30 9755 H 917.108 2.27207 -5.41895 0
M  V30 9756 H 918.632 3.18121 -5.21183 0
M  V30 9757 H 920.046 0.95307 -5.65322 0
M  V30 9758 H 918.443 0.240085 -5.9962 0
M  V30 9759 H 919.513 -0.541866 -4.81863 0
M  V30 9760 N 920.856 1.57574 -0.0284266 0
M  V30 9761 C 922.102 1.92056 0.651327 0
M  V30 9762 C 922.435 0.905092 1.71819 0
M  V30 9763 O 921.71 -0.0722703 1.94366 0
M  V30 9764 C 921.993 3.37021 1.26841 0
M  V30 9765 C 921.846 4.49304 0.211157 0
M  V30 9766 C 923.165 3.81936 2.18662 0
M  V30 9767 H 920.284 0.698428 0.235304 0
M  V30 9768 H 922.926 1.89807 -0.0855435 0
M  V30 9769 H 921.076 3.39068 1.89644 0
M  V30 9770 H 922.748 4.5939 -0.419379 0
M  V30 9771 H 920.991 4.31317 -0.463445 0
M  V30 9772 H 921.662 5.47764 0.682518 0
M  V30 9773 H 924.138 3.8162 1.65847 0
M  V30 9774 H 923.014 4.84064 2.58792 0
M  V30 9775 H 923.275 3.174 3.07749 0
M  V30 9776 N 922.334 -0.244713 1.55689 0
M  V30 9777 C 923.281 -1.30301 1.905 0
M  V30 9778 C 924.251 -1.4772 0.759478 0
M  V30 9779 O 925.436 -1.61667 1.01333 0
M  V30 9780 C 922.576 -2.653 2.20703 0
M  V30 9781 C 921.689 -2.55872 3.48071 0
M  V30 9782 C 920.824 -3.83238 3.67834 0
M  V30 9783 C 919.863 -3.68436 4.88796 0
M  V30 9784 N 919 -4.877 5.05068 0
M  V30 9785 H 923.84 -0.999143 2.80751 0
M  V30 9786 H 921.377 -0.482099 1.38976 0
M  V30 9787 H 923.335 -3.43884 2.36219 0
M  V30 9788 H 921.965 -2.93831 1.33653 0
M  V30 9789 H 921.017 -1.68846 3.40874 0
M  V30 9790 H 922.329 -2.40845 4.36801 0
M  V30 9791 H 921.483 -4.70266 3.83321 0
M  V30 9792 H 920.222 -4.01165 2.77341 0
M  V30 9793 H 919.227 -2.79793 4.73282 0
M  V30 9794 H 920.452 -3.52003 5.8075 0
M  V30 9795 H 918.398 -5.05983 4.17513 0
M  V30 9796 H 918.315 -4.75312 5.8789 0
M  V30 9797 H 919.583 -5.76219 5.24969 0
M  V30 9798 N 923.813 -1.49104 -0.510467 0
M  V30 9799 C 924.723 -1.67792 -1.6396 0
M  V30 9800 C 925.739 -0.560454 -1.64727 0
M  V30 9801 O 926.915 -0.833985 -1.83321 0
M  V30 9802 C 923.98 -1.73154 -3.00364 0
M  V30 9803 C 923.041 -2.9667 -3.10299 0
M  V30 9804 C 922.274 -3.01767 -4.40196 0
M  V30 9805 O 922.497 -2.1472 -5.28443 0
M  V30 9806 O 921.431 -3.94137 -4.54906 0
M  V30 9807 H 925.257 -2.63428 -1.51126 0
M  V30 9808 H 922.842 -1.32734 -0.685719 0
M  V30 9809 H 924.724 -1.79089 -3.81451 0
M  V30 9810 H 923.399 -0.806952 -3.1348 0
M  V30 9811 H 922.306 -2.96257 -2.28435 0
M  V30 9812 H 923.639 -3.88578 -3.02106 0
M  V30 9813 N 925.291 0.760815 -1.38019 0
M  V30 9814 C 926.521 1.54776 -1.3685 0
M  V30 9815 C 926.929 1.89146 0.0453971 0
M  V30 9816 O 926.272 1.52746 1.0205 0
M  V30 9817 C 926.334 2.87923 -2.15269 0
M  V30 9818 C 925.998 2.76131 -3.64144 0
M  V30 9819 C 926.995 2.46417 -4.57794 0
M  V30 9820 C 924.68 2.9381 -4.07408 0
M  V30 9821 C 926.674 2.34525 -5.92686 0
M  V30 9822 C 924.361 2.81539 -5.42383 0
M  V30 9823 C 925.359 2.51938 -6.34836 0
M  V30 9824 O 925.047 2.39713 -7.67329 0
M  V30 9825 H 924.779 0.485776 -0.470104 0
M  V30 9826 H 927.333 0.949939 -1.82113 0
M  V30 9827 H 925.563 3.49867 -1.64712 0
M  V30 9828 H 927.252 3.49389 -2.06596 0
M  V30 9829 H 928.018 2.32433 -4.25676 0
M  V30 9830 H 923.897 3.15849 -3.35799 0
M  V30 9831 H 927.441 2.11342 -6.64816 0
M  V30 9832 H 923.338 2.95093 -5.741 0
M  V30 9833 H 924.106 2.5498 -7.77771 0
M  V30 9834 N 926.769 1.22769 0.988202 0
M  V30 9835 C 927.732 1.00325 2.06076 0
M  V30 9836 C 928.732 -0.0320618 1.60768 0
M  V30 9837 O 929.922 0.206912 1.72967 0
M  V30 9838 C 927.054 0.516376 3.36966 0
M  V30 9839 H 928.247 1.95499 2.27421 0
M  V30 9840 H 925.8 1.04704 1.16047 0
M  V30 9841 H 926.535 -0.439498 3.21308 0
M  V30 9842 H 926.32 1.26337 3.71189 0
M  V30 9843 H 927.81 0.37974 4.1587 0
M  V30 9844 N 928.247 -1.18576 1.03814 0
M  V30 9845 C 929.472 -1.92978 0.759873 0
M  V30 9846 C 929.897 -1.75514 -0.676486 0
M  V30 9847 O 929.255 -1.06359 -1.46824 0
M  V30 9848 C 929.303 -3.42507 1.12788 0
M  V30 9849 O 928.407 -4.1163 0.251886 0
M  V30 9850 H 927.748 -0.602129 0.279886 0
M  V30 9851 H 930.278 -1.50383 1.3873 0
M  V30 9852 H 930.288 -3.93206 1.08872 0
M  V30 9853 H 928.963 -3.5454 2.17427 0
M  V30 9854 H 927.54 -3.7125 0.350441 0
M  V30 9855 N 929.725 -0.817259 -1.34754 0
M  V30 9856 C 930.657 -0.192695 -2.28389 0
M  V30 9857 C 931.67 0.614167 -1.50771 0
M  V30 9858 O 932.859 0.444776 -1.7287 0
M  V30 9859 C 929.959 0.748929 -3.30521 0
M  V30 9860 C 929.132 -0.0138762 -4.37398 0
M  V30 9861 C 928.191 0.847825 -5.19325 0
M  V30 9862 O 927.217 0.29487 -5.68436 0
M  V30 9863 N 928.419 2.16843 -5.38479 0
M  V30 9864 H 931.184 -0.997122 -2.82626 0
M  V30 9865 H 928.745 -0.673696 -1.47217 0
M  V30 9866 H 930.737 1.32987 -3.82226 0
M  V30 9867 H 929.307 1.45412 -2.7672 0
M  V30 9868 H 928.527 -0.776093 -3.86485 0
M  V30 9869 H 929.815 -0.539191 -5.05935 0
M  V30 9870 H 929.213 2.64148 -5.00242 0
M  V30 9871 H 927.77 2.69835 -5.93323 0
M  V30 9872 N 931.203 1.46865 -0.571711 0
M  V30 9873 C 932.113 2.33979 0.170571 0
M  V30 9874 C 933.129 1.49083 0.897239 0
M  V30 9875 O 934.305 1.81979 0.862888 0
M  V30 9876 C 931.37 3.26063 1.17831 0
M  V30 9877 C 930.431 4.26855 0.457499 0
M  V30 9878 C 929.664 5.14539 1.41722 0
M  V30 9879 O 929.887 5.04945 2.65305 0
M  V30 9880 O 928.821 5.94612 0.9338 0
M  V30 9881 H 932.647 2.98781 -0.544396 0
M  V30 9882 H 930.232 1.4566 -0.332198 0
M  V30 9883 H 932.114 3.82903 1.75965 0
M  V30 9884 H 930.789 2.63871 1.87493 0
M  V30 9885 H 929.696 3.73734 -0.165406 0
M  V30 9886 H 931.029 4.91802 -0.197953 0
M  V30 9887 N 932.681 0.308908 1.54543 0
M  V30 9888 C 933.911 -0.299983 2.04411 0
M  V30 9889 C 934.319 -1.47463 1.18538 0
M  V30 9890 O 933.662 -1.82547 0.205463 0
M  V30 9891 C 933.724 -0.811579 3.50219 0
M  V30 9892 C 933.388 0.238834 4.56375 0
M  V30 9893 C 934.385 1.06997 5.08771 0
M  V30 9894 C 932.07 0.382808 5.00839 0
M  V30 9895 C 934.064 2.03096 6.04178 0
M  V30 9896 C 931.751 1.34723 5.96065 0
M  V30 9897 C 932.749 2.16978 6.47618 0
M  V30 9898 O 932.437 3.11783 7.40977 0
M  V30 9899 H 932.169 -0.0679682 0.672574 0
M  V30 9900 H 934.723 0.448815 2.00437 0
M  V30 9901 H 932.953 -1.61104 3.51543 0
M  V30 9902 H 934.642 -1.33721 3.83241 0
M  V30 9903 H 935.408 0.969654 4.75208 0
M  V30 9904 H 931.287 -0.247507 4.60335 0
M  V30 9905 H 934.831 2.67338 6.44342 0
M  V30 9906 H 930.728 1.44824 6.29044 0
M  V30 9907 H 931.496 3.06853 7.58804 0
M  V30 9908 N 934.159 -1.57557 0.0367827 0
M  V30 9909 C 935.405 -1.92399 -0.641133 0
M  V30 9910 C 935.738 -0.914191 -1.71336 0
M  V30 9911 O 935.013 0.0619616 -1.94401 0
M  V30 9912 C 935.296 -3.37689 -1.25052 0
M  V30 9913 C 935.149 -4.4941 -0.187326 0
M  V30 9914 C 936.468 -3.8309 -2.16634 0
M  V30 9915 H 933.587 -0.699666 -0.231597 0
M  V30 9916 H 936.229 -1.89759 0.0956083 0
M  V30 9917 H 934.379 -3.40069 -1.87843 0
M  V30 9918 H 936.051 -4.59161 0.443736 0
M  V30 9919 H 934.294 -4.31065 0.486313 0
M  V30 9920 H 934.965 -5.48119 -0.653459 0
M  V30 9921 H 937.441 -3.82494 -1.63821 0
M  V30 9922 H 936.317 -4.85429 -2.56222 0
M  V30 9923 H 936.578 -3.19028 -3.06062 0
M  V30 9924 N 935.637 0.236453 -1.55816 0
M  V30 9925 C 936.584 1.29289 -1.91188 0
M  V30 9926 C 937.554 1.47315 -0.767301 0
M  V30 9927 O 938.739 1.61128 -1.02189 0
M  V30 9928 C 935.879 2.64126 -2.22107 0
M  V30 9929 C 934.992 2.54022 -3.49423 0
M  V30 9930 C 934.127 3.81282 -3.69861 0
M  V30 9931 C 933.166 3.65839 -4.90743 0
M  V30 9932 N 932.303 4.85014 -5.07647 0
M  V30 9933 H 937.143 0.98424 -2.81277 0
M  V30 9934 H 934.68 0.474722 -1.39229 0
M  V30 9935 H 936.638 3.42626 -2.3804 0
M  V30 9936 H 935.268 2.93118 -1.35209 0
M  V30 9937 H 934.32 1.67036 -3.41765 0
M  V30 9938 H 935.632 2.38525 -4.38072 0
M  V30 9939 H 934.786 4.68226 -3.8581 0
M  V30 9940 H 933.525 3.99688 -2.79465 0
M  V30 9941 H 932.53 2.77279 -4.74759 0
M  V30 9942 H 933.755 3.48918 -5.82609 0
M  V30 9943 H 931.701 5.03762 -4.20191 0
M  V30 9944 H 931.618 4.72188 -5.90402 0
M  V30 9945 H 932.886 5.73427 -5.28017 0
M  V30 9946 N 937.115 1.49373 0.502552 0
M  V30 9947 C 938.025 1.68659 1.63068 0
M  V30 9948 C 939.041 0.569182 1.64427 0
M  V30 9949 O 940.217 0.843695 1.82876 0
M  V30 9950 C 937.282 1.74745 2.99441 0
M  V30 9951 C 936.343 2.98311 3.08721 0
M  V30 9952 C 935.576 3.04097 4.38589 0
M  V30 9953 O 935.799 2.17519 5.27297 0
M  V30 9954 O 934.733 3.96544 4.52809 0
M  V30 9955 H 938.559 2.64226 1.49727 0
M  V30 9956 H 936.144 1.33096 0.67867 0
M  V30 9957 H 938.026 1.8111 3.80496 0
M  V30 9958 H 936.701 0.823565 3.13048 0
M  V30 9959 H 935.608 2.97465 2.2686 0
M  V30 9960 H 936.941 3.90174 3.00041 0
M  V30 9961 N 938.594 -0.753485 1.38421 0
M  V30 9962 C 939.84 -1.51485 1.34834 0
M  V30 9963 C 940.173 -1.94102 -0.0615381 0
M  V30 9964 O 939.448 -1.65439 -1.02274 0
M  V30 9965 C 939.731 -2.76736 2.30411 0
M  V30 9966 C 939.584 -2.40256 3.80259 0
M  V30 9967 C 940.903 -3.7876 2.24119 0
M  V30 9968 H 938.022 -0.549534 0.491102 0
M  V30 9969 H 940.664 -0.863006 1.6927 0
M  V30 9970 H 938.814 -3.32357 2.01175 0
M  V30 9971 H 940.486 -1.90409 4.20169 0
M  V30 9972 H 938.729 -1.72714 3.97935 0
M  V30 9973 H 939.4 -3.29869 4.42595 0
M  V30 9974 H 941.876 -3.32679 2.49928 0
M  V30 9975 H 940.752 -4.64092 2.93104 0
M  V30 9976 H 941.013 -4.24352 1.24006 0
M  V30 9977 N 940.072 -1.23292 -0.981677 0
M  V30 9978 C 941.002 -1.03738 -2.09191 0
M  V30 9979 C 941.983 0.0453041 -1.7004 0
M  V30 9980 O 943.168 -0.119092 -1.93834 0
M  V30 9981 C 940.298 -0.626426 -3.41604 0
M  V30 9982 C 939.252 -1.65631 -3.94652 0
M  V30 9983 C 938.578 -1.10084 -5.23245 0
M  V30 9984 C 939.878 -3.04903 -4.24066 0
M  V30 9985 H 941.572 -1.966 -2.25807 0
M  V30 9986 H 939.118 -0.946656 -1.0851 0
M  V30 9987 H 941.071 -0.476689 -4.18695 0
M  V30 9988 H 939.795 0.337873 -3.24848 0
M  V30 9989 H 938.454 -1.79402 -3.19704 0
M  V30 9990 H 938.102 -0.127562 -5.02838 0
M  V30 9991 H 937.802 -1.78896 -5.59705 0
M  V30 9992 H 939.326 -0.962928 -6.02959 0
M  V30 9993 H 940.74 -2.94441 -4.91912 0
M  V30 9994 H 939.137 -3.70941 -4.71724 0
M  V30 9995 H 940.207 -3.53991 -3.31389 0
M  V30 9996 N 941.55 1.18024 -1.04442 0
M  V30 9997 C 942.482 2.21294 -0.596799 0
M  V30 9998 C 943.495 1.59305 0.33552 0
M  V30 9999 O 944.684 1.7803 0.129443 0
M  V30 10000 C 941.784 3.38578 0.147648 0
M  V30 10001 C 940.957 4.30143 -0.793484 0
M  V30 10002 C 940.016 5.2612 -0.0916561 0
M  V30 10003 O 939.042 5.64586 -0.72331 0
M  V30 10004 N 940.244 5.68512 1.17364 0
M  V30 10005 H 943.009 2.6032 -1.48504 0
M  V30 10006 H 940.57 1.32847 -0.925374 0
M  V30 10007 H 942.562 3.99812 0.627098 0
M  V30 10008 H 941.132 2.98212 0.937466 0
M  V30 10009 H 940.352 3.66456 -1.45272 0
M  V30 10010 H 941.64 4.88216 -1.43258 0
M  V30 10011 H 941.038 5.39322 1.70729 0
M  V30 10012 H 939.595 6.31925 1.5973 0
M  V30 10013 N 943.028 0.824394 1.34319 0
M  V30 10014 C 944.277 0.40956 1.97498 0
M  V30 10015 C 944.59 -1.03323 1.66083 0
M  V30 10016 O 945.796 -1.55205 2.22764 0
M  V30 10017 C 944.252 0.681384 3.53391 0
M  V30 10018 C 943.86 2.1379 3.93698 0
M  V30 10019 C 945.604 0.332788 4.23194 0
M  V30 10020 C 943.511 2.35453 5.42509 0
M  V30 10021 H 942.441 0.149409 0.739049 0
M  V30 10022 H 945.092 1.01095 1.5314 0
M  V30 10023 H 943.474 0.00980375 3.95999 0
M  V30 10024 H 944.648 2.84876 3.62191 0
M  V30 10025 H 942.963 2.44807 3.36836 0
M  V30 10026 H 945.56 0.472463 5.32609 0
M  V30 10027 H 945.903 -0.722862 4.09976 0
M  V30 10028 H 946.436 0.959005 3.86067 0
M  V30 10029 H 943.175 3.39529 5.60714 0
M  V30 10030 H 942.695 1.68912 5.75525 0
M  V30 10031 H 944.374 2.17885 6.09209 0
M  V30 10032 N 944.506 -1.46559 0.579492 0
M  V30 10033 C 945.731 -2.0729 0.0674595 0
M  V30 10034 C 946.156 -1.4259 -1.22677 0
M  V30 10035 O 945.514 -0.50857 -1.74021 0
M  V30 10036 C 945.562 -3.60492 -0.0882227 0
M  V30 10037 O 944.666 -3.96172 -1.14551 0
M  V30 10038 H 944.007 -0.661159 0.0613536 0
M  V30 10039 H 946.537 -1.88247 0.801519 0
M  V30 10040 H 946.547 -4.06929 -0.295411 0
M  V30 10041 H 945.222 -4.06976 0.856943 0
M  V30 10042 H 943.799 -3.61448 -0.917033 0
M  V30 10043 N 945.984 -0.3171 -1.54377 0
M  V30 10044 C 947.209 0.292311 -2.0533 0
M  V30 10045 C 947.634 1.45503 -1.19207 0
M  V30 10046 O 946.992 1.80197 -0.199721 0
M  V30 10047 C 947.04 0.710787 -3.53525 0
M  V30 10048 O 946.144 1.81387 -3.70368 0
M  V30 10049 H 945.485 0.0539976 -0.661801 0
M  V30 10050 H 948.015 -0.463629 -1.99278 0
M  V30 10051 H 948.025 0.995216 -3.95676 0
M  V30 10052 H 946.7 -0.139668 -4.15665 0
M  V30 10053 H 945.277 1.52875 -3.40123 0
M  V30 10054 N 947.462 1.57535 -0.0451378 0
M  V30 10055 C 948.739 1.83785 0.669523 0
M  V30 10056 C 949.119 0.932331 1.89396 0
M  V30 10057 O 948.467 -0.00813229 2.28499 0
M  V30 10058 C 948.677 3.33376 1.03255 0
M  V30 10059 C 950.025 4.00243 1.41741 0
M  V30 10060 O 951.049 3.37965 1.12507 0
M  V30 10061 O 949.908 5.10038 1.96275 0
M  V30 10062 H 947.002 0.758342 0.329919 0
M  V30 10063 H 949.548 1.69538 -0.0740415 0
M  V30 10064 H 948.32 3.90965 0.161777 0
M  V30 10065 H 947.943 3.52787 1.83376 0
M  V30 10066 N 948.94 -0.228186 1.55939 0
M  V30 10067 C 950.188 -0.951668 1.78291 0
M  V30 10068 C 950.509 -1.85132 0.612474 0
M  V30 10069 O 949.779 -1.92356 -0.370942 0
M  V30 10070 H 948.359 -0.354388 0.657585 0
M  V30 10071 H 951.021 -0.241635 1.93396 0
M  V30 10072 H 950.117 -1.56239 2.70177 0
M  V30 10073 N 950.418 -1.49637 -0.494624 0
M  V30 10074 C 951.366 -1.6727 -1.61627 0
M  V30 10075 C 952.36 -0.538587 -1.6061 0
M  V30 10076 O 953.566 -0.718411 -1.65042 0
M  V30 10077 H 949.941 -0.527557 -0.535899 0
M  V30 10078 H 951.912 -2.61405 -1.43909 0
M  V30 10079 C 950.661 -1.7624 -2.99725 0
M  V30 10080 H 949.984 -2.62886 -3.01216 0
M  V30 10081 H 951.424 -1.92611 -3.77726 0
M  V30 10082 C 949.883 -0.508632 -3.33038 0
M  V30 10083 O 950.413 0.362828 -4.00058 0
M  V30 10084 N 948.619 -0.369667 -2.88239 0
M  V30 10085 H 948.166 -1.07984 -2.33875 0
M  V30 10086 H 948.124 0.468112 -3.10896 0
M  V30 10087 N 951.896 0.746133 -1.38819 0
M  V30 10088 C 953.124 1.53539 -1.38685 0
M  V30 10089 C 953.539 1.88788 0.0215039 0
M  V30 10090 O 952.896 1.53312 0.990031 0
M  V30 10091 C 952.947 2.8299 -2.24942 0
M  V30 10092 O 952.668 2.49242 -3.60292 0
M  V30 10093 C 954.169 3.77085 -2.3307 0
M  V30 10094 H 951.389 0.474842 -0.474095 0
M  V30 10095 H 953.933 0.922844 -1.82493 0
M  V30 10096 H 952.088 3.40603 -1.84576 0
M  V30 10097 H 952.502 3.32319 -4.05789 0
M  V30 10098 H 953.976 4.64845 -2.97696 0
M  V30 10099 H 954.453 4.18049 -1.34655 0
M  V30 10100 H 955.059 3.25394 -2.73859 0
M  V30 10101 N 953.375 1.23811 0.975125 0
M  V30 10102 C 954.624 1.06741 1.71141 0
M  V30 10103 C 954.937 -0.394986 1.9157 0
M  V30 10104 O 956.143 -0.685723 2.62698 0
M  V30 10105 C 954.599 1.86168 3.08009 0
M  V30 10106 C 954.207 3.36771 2.95448 0
M  V30 10107 C 955.951 1.77604 3.85561 0
M  V30 10108 C 953.858 4.0857 4.2758 0
M  V30 10109 H 952.788 0.395819 0.64175 0
M  V30 10110 H 955.439 1.47825 1.0872 0
M  V30 10111 H 953.821 1.37893 3.71216 0
M  V30 10112 H 954.995 3.92571 2.41298 0
M  V30 10113 H 953.31 3.46205 2.31368 0
M  V30 10114 H 955.907 2.28556 4.83391 0
M  V30 10115 H 956.25 0.739837 4.09673 0
M  V30 10116 H 956.783 2.23519 3.29065 0
M  V30 10117 H 953.522 5.12518 4.08663 0
M  V30 10118 H 953.042 3.57556 4.81574 0
M  V30 10119 H 954.721 4.15157 4.9624 0
M  V30 10120 N 954.853 -1.17469 1.05066 0
M  V30 10121 C 956.081 -1.9162 0.780334 0
M  V30 10122 C 956.496 -1.76745 -0.663817 0
M  V30 10123 O 955.853 -1.10377 -1.45338 0
M  V30 10124 C 955.904 -3.42723 1.14992 0
M  V30 10125 O 955.625 -3.57139 2.53739 0
M  V30 10126 C 957.126 -4.33952 0.905549 0
M  V30 10127 H 954.346 -0.608022 0.283814 0
M  V30 10128 H 956.89 -1.4897 1.401 0
M  V30 10129 H 955.045 -3.83124 0.57403 0
M  V30 10130 H 955.459 -4.5075 2.68189 0
M  V30 10131 H 956.933 -5.38487 1.21391 0
M  V30 10132 H 957.41 -4.38911 -0.159295 0
M  V30 10133 H 958.016 -3.99263 1.46522 0
M  V30 10134 N 956.331 -0.831506 -1.3388 0
M  V30 10135 C 957.58 -0.420028 -1.97278 0
M  V30 10136 C 957.893 1.02441 -1.66629 0
M  V30 10137 O 959.099 1.54021 -2.23584 0
M  V30 10138 C 957.555 -0.700116 -3.53025 0
M  V30 10139 C 957.163 -2.15874 -3.92559 0
M  V30 10140 C 958.907 -0.355226 -4.23011 0
M  V30 10141 C 956.814 -2.38327 -5.41252 0
M  V30 10142 H 955.744 -0.153326 -0.738246 0
M  V30 10143 H 958.395 -1.01906 -1.52602 0
M  V30 10144 H 956.777 -0.0308044 -3.95988 0
M  V30 10145 H 957.951 -2.86792 -3.60675 0
M  V30 10146 H 956.266 -2.4659 -3.35533 0
M  V30 10147 H 958.863 -0.500701 -5.32351 0
M  V30 10148 H 959.206 0.70111 -4.10354 0
M  V30 10149 H 959.739 -0.979466 -3.85553 0
M  V30 10150 H 956.478 -3.42498 -5.58906 0
M  V30 10151 H 955.998 -1.71962 -5.74621 0
M  V30 10152 H 957.677 -2.21113 -6.08045 0
M  V30 10153 N 957.809 1.4625 -0.587256 0
M  V30 10154 C 959.039 2.06444 -0.0802135 0
M  V30 10155 C 959.447 1.43585 1.23207 0
M  V30 10156 O 958.79 0.536956 1.75677 0
M  V30 10157 C 958.852 3.59165 0.155129 0
M  V30 10158 C 958.516 4.44243 -1.07225 0
M  V30 10159 C 959.513 4.80497 -1.98542 0
M  V30 10160 C 957.198 4.8531 -1.29537 0
M  V30 10161 C 959.192 5.56649 -3.10516 0
M  V30 10162 C 956.879 5.61221 -2.41815 0
M  V30 10163 C 957.877 5.96805 -3.32134 0
M  V30 10164 O 957.565 6.71181 -4.42461 0
M  V30 10165 H 957.297 0.673626 -0.0566063 0
M  V30 10166 H 959.851 1.88797 -0.809004 0
M  V30 10167 H 958.081 3.75137 0.938583 0
M  V30 10168 H 959.77 4.01271 0.611243 0
M  V30 10169 H 960.536 4.49345 -1.82522 0
M  V30 10170 H 956.415 4.5706 -0.601431 0
M  V30 10171 H 959.959 5.84343 -3.81037 0
M  V30 10172 H 955.856 5.91786 -2.57797 0
M  V30 10173 H 956.624 6.8961 -4.40886 0
M  V30 10174 N 959.287 0.325282 1.54207 0
M  V30 10175 C 960.517 -0.278285 2.04717 0
M  V30 10176 C 960.925 -1.46198 1.20095 0
M  V30 10177 O 960.268 -1.82319 0.224813 0
M  V30 10178 C 960.33 -0.774387 3.51061 0
M  V30 10179 C 959.994 0.287225 4.56096 0
M  V30 10180 C 960.991 1.12388 5.07607 0
M  V30 10181 C 958.676 0.435908 5.00405 0
M  V30 10182 C 960.67 2.09492 6.0199 0
M  V30 10183 C 958.357 1.41037 5.94602 0
M  V30 10184 C 959.355 2.23834 6.45281 0
M  V30 10185 O 959.043 3.19625 7.37628 0
M  V30 10186 H 958.775 -0.0608309 0.673257 0
M  V30 10187 H 961.329 0.470049 1.99949 0
M  V30 10188 H 959.559 -1.57366 3.53232 0
M  V30 10189 H 961.248 -1.29649 3.84637 0
M  V30 10190 H 962.014 1.02 4.74153 0
M  V30 10191 H 957.893 -0.198668 4.60572 0
M  V30 10192 H 961.437 2.74157 6.4147 0
M  V30 10193 H 957.334 1.51487 6.27473 0
M  V30 10194 H 958.102 3.14884 7.55507 0
M  V30 10195 N 960.765 -1.57509 0.0534917 0
M  V30 10196 C 962.176 -1.80374 -0.481867 0
M  V30 10197 C 962.527 -0.965917 -1.70776 0
M  V30 10198 O 961.652 -0.183167 -2.15623 0
M  V30 10199 C 962.247 -3.27146 -0.880978 0
M  V30 10200 C 960.806 -3.50921 -1.3613 0
M  V30 10201 C 959.953 -2.75237 -0.337611 0
M  V30 10202 H 962.904 -1.56222 0.279353 0
M  V30 10203 H 962.925 -3.38193 -1.74373 0
M  V30 10204 H 962.437 -3.88098 0.011441 0
M  V30 10205 H 960.538 -2.95251 -2.27283 0
M  V30 10206 H 960.651 -4.59632 -1.35186 0
M  V30 10207 H 959.015 -2.41444 -0.810991 0
M  V30 10208 H 959.798 -3.38918 0.546763 0
M  V30 10209 N 962.243 0.219913 -1.56058 0
M  V30 10210 C 963.191 1.29215 -1.93407 0
M  V30 10211 C 964.185 1.48434 -0.816307 0
M  V30 10212 O 965.391 1.49589 -1.00115 0
M  V30 10213 H 961.766 0.433256 -0.614649 0
M  V30 10214 H 963.737 0.949977 -2.82875 0
M  V30 10215 C 962.486 2.63501 -2.26854 0
M  V30 10216 H 961.809 2.4952 -3.12377 0
M  V30 10217 H 963.249 3.37334 -2.56869 0
M  V30 10218 C 961.708 3.18634 -1.09425 0
M  V30 10219 O 962.238 4.00117 -0.356243 0
M  V30 10220 N 960.444 2.7703 -0.877642 0
M  V30 10221 H 959.991 2.10875 -1.47951 0
M  V30 10222 H 959.949 3.1426 -0.0936792 0
M  V30 10223 N 963.721 1.49897 0.486681 0
M  V30 10224 C 964.969 1.59789 1.23742 0
M  V30 10225 C 965.29 0.293056 1.92785 0
M  V30 10226 O 964.56 -0.688534 1.83401 0
M  V30 10227 H 963.14 0.588775 0.459731 0
M  V30 10228 H 965.802 1.86597 0.562808 0
M  V30 10229 H 964.898 2.40121 1.9937 0
M  V30 10230 N 965.199 -0.738761 1.39212 0
M  V30 10231 C 966.447 -1.49529 1.35962 0
M  V30 10232 C 966.768 -1.94948 -0.0450152 0
M  V30 10233 O 966.038 -1.68717 -0.995552 0
M  V30 10234 H 964.618 -0.554692 0.500326 0
M  V30 10235 H 967.28 -0.877255 1.74041 0
M  V30 10236 H 966.376 -2.37919 2.01993 0
M  V30 10237 N 966.677 -1.24326 -0.968545 0
M  V30 10238 C 968.093 -1.00847 -1.23701 0
M  V30 10239 C 968.293 0.283235 -1.99499 0
M  V30 10240 O 967.349 0.999607 -2.31871 0
M  V30 10241 C 968.662 -2.22295 -2.02498 0
M  V30 10242 C 970.21 -2.26911 -2.15593 0
M  V30 10243 C 970.685 -3.47978 -2.97784 0
M  V30 10244 N 972.176 -3.48289 -3.05367 0
M  V30 10245 C 972.911 -4.38625 -3.69318 0
M  V30 10246 N 972.407 -5.39213 -4.34995 0
M  V30 10247 N 974.2 -4.26339 -3.66322 0
M  V30 10248 H 966.351 -2.07335 -0.461087 0
M  V30 10249 H 968.614 -0.909805 -0.26638 0
M  V30 10250 H 968.32 -3.161 -1.54188 0
M  V30 10251 H 968.194 -2.24344 -3.03232 0
M  V30 10252 H 970.581 -1.33639 -2.63106 0
M  V30 10253 H 970.662 -2.28888 -1.14209 0
M  V30 10254 H 970.306 -4.41564 -2.50965 0
M  V30 10255 H 970.236 -3.43244 -3.99364 0
M  V30 10256 H 972.727 -2.75517 -2.58648 0
M  V30 10257 H 973.04 -6.04378 -4.81608 0
M  V30 10258 H 971.385 -5.43101 -4.33667 0
M  V30 10259 H 974.576 -3.46991 -3.14189 0
M  V30 10260 H 974.749 -4.9694 -4.15878 0
M  V30 10261 N 968.156 1.1691 -1.05688 0
M  V30 10262 C 969.404 1.86922 -0.768409 0
M  V30 10263 C 969.725 1.81735 0.706921 0
M  V30 10264 O 968.995 1.24671 1.51109 0
M  V30 10265 H 967.575 0.69203 -0.281253 0
M  V30 10266 H 970.237 1.41803 -1.33708 0
M  V30 10267 H 969.333 2.92528 -1.08783 0
M  V30 10268 N 969.634 0.838594 1.33437 0
M  V30 10269 C 970.881 0.434169 1.97791 0
M  V30 10270 C 971.209 -1.00652 1.66431 0
M  V30 10271 O 970.464 -1.71848 0.936309 0
M  V30 10272 C 970.763 0.601425 3.52303 0
M  V30 10273 C 970.429 2.01017 4.03612 0
M  V30 10274 C 969.091 2.39551 4.17336 0
M  V30 10275 C 971.443 2.93035 4.31022 0
M  V30 10276 C 968.771 3.69406 4.55802 0
M  V30 10277 C 971.123 4.22372 4.7094 0
M  V30 10278 C 969.787 4.60862 4.82869 0
M  V30 10279 H 969.057 0.158874 0.723768 0
M  V30 10280 H 971.704 1.06556 1.59116 0
M  V30 10281 H 970.009 -0.113284 3.91636 0
M  V30 10282 H 971.706 0.268798 4.00098 0
M  V30 10283 H 968.296 1.7009 3.93405 0
M  V30 10284 H 972.48 2.64503 4.19943 0
M  V30 10285 H 967.736 3.99033 4.63231 0
M  V30 10286 H 971.91 4.93749 4.91106 0
M  V30 10287 H 969.537 5.6153 5.12433 0
M  V30 10288 N 971.112 -1.45937 0.595003 0
M  V30 10289 C 972.523 -1.85908 0.171779 0
M  V30 10290 C 972.874 -1.497 -1.26824 0
M  V30 10291 O 971.999 -0.917688 -1.95978 0
M  V30 10292 C 972.594 -3.37425 0.304976 0
M  V30 10293 C 971.153 -3.76346 -0.0634635 0
M  V30 10294 C 970.3 -2.69926 0.635255 0
M  V30 10295 H 973.251 -1.36916 0.802471 0
M  V30 10296 H 973.272 -3.77632 -0.466313 0
M  V30 10297 H 972.784 -3.63747 1.35314 0
M  V30 10298 H 970.885 -3.55642 -1.11129 0
M  V30 10299 H 970.998 -4.78021 0.321419 0
M  V30 10300 H 969.362 -2.54592 0.0742054 0
M  V30 10301 H 970.145 -2.99086 1.68531 0
M  V30 10302 N 972.59 -0.333456 -1.54032 0
M  V30 10303 C 973.52 0.52051 -2.27625 0
M  V30 10304 C 974.501 1.1111 -1.28797 0
M  V30 10305 O 975.686 1.13438 -1.57625 0
M  V30 10306 C 972.816 1.67663 -3.04149 0
M  V30 10307 C 971.77 1.21487 -4.10396 0
M  V30 10308 C 971.096 2.45872 -4.74817 0
M  V30 10309 C 972.396 0.322603 -5.21303 0
M  V30 10310 H 974.09 -0.0933823 -2.99254 0
M  V30 10311 H 971.636 -0.0463526 -1.43925 0
M  V30 10312 H 973.589 2.28041 -3.54366 0
M  V30 10313 H 972.313 2.31727 -2.30153 0
M  V30 10314 H 970.972 0.633966 -3.61077 0
M  V30 10315 H 970.62 3.0832 -3.97426 0
M  V30 10316 H 970.32 2.15662 -5.46593 0
M  V30 10317 H 971.844 3.06994 -5.27814 0
M  V30 10318 H 973.258 0.832942 -5.67217 0
M  V30 10319 H 971.655 0.112843 -5.99994 0
M  V30 10320 H 972.725 -0.643954 -4.80605 0
M  V30 10321 N 974.068 1.57479 -0.061844 0
M  V30 10322 C 975.031 2.1104 0.894127 0
M  V30 10323 C 976.031 1.03227 1.23292 0
M  V30 10324 O 977.221 1.29256 1.16784 0
M  V30 10325 C 974.353 2.6035 2.20069 0
M  V30 10326 H 975.546 2.96807 0.429619 0
M  V30 10327 H 973.099 1.55181 0.18672 0
M  V30 10328 H 973.834 1.78008 2.71079 0
M  V30 10329 H 973.619 3.39146 1.9678 0
M  V30 10330 H 975.109 3.019 2.88525 0
M  V30 10331 N 975.546 -0.211634 1.56173 0
M  V30 10332 C 976.823 -0.959467 1.70451 0
M  V30 10333 C 977.203 -2.02036 0.611942 0
M  V30 10334 O 976.551 -2.25325 -0.37959 0
M  V30 10335 C 976.761 -1.56092 3.12148 0
M  V30 10336 C 978.109 -2.04939 3.71867 0
M  V30 10337 O 979.133 -1.65966 3.15172 0
M  V30 10338 O 977.992 -2.766 4.71333 0
M  V30 10339 H 975.086 -0.448844 0.6946 0
M  V30 10340 H 977.632 -0.202633 1.68486 0
M  V30 10341 H 976.404 -0.79538 3.83131 0
M  V30 10342 H 976.027 -2.38303 3.18273 0
M  V30 10343 N 977.024 -1.50153 -0.478725 0
M  V30 10344 C 978.44 -1.3741 -0.811833 0
M  V30 10345 C 978.64 -0.424303 -1.96982 0
M  V30 10346 O 977.696 0.13588 -2.52134 0
M  V30 10347 C 979.009 -2.78616 -1.13108 0
M  V30 10348 C 980.557 -2.87477 -1.23798 0
M  V30 10349 C 981.032 -4.295 -1.5904 0
M  V30 10350 N 982.523 -4.32415 -1.66047 0
M  V30 10351 C 983.258 -5.39295 -1.94805 0
M  V30 10352 N 982.754 -6.56392 -2.21635 0
M  V30 10353 N 984.547 -5.26731 -1.96243 0
M  V30 10354 H 976.698 -2.10486 0.284531 0
M  V30 10355 H 978.961 -0.945786 0.0647585 0
M  V30 10356 H 978.667 -3.49921 -0.35334 0
M  V30 10357 H 978.541 -3.15382 -2.06915 0
M  V30 10358 H 980.928 -2.16396 -2.00641 0
M  V30 10359 H 981.009 -2.54264 -0.279888 0
M  V30 10360 H 980.653 -5.01115 -0.827404 0
M  V30 10361 H 980.583 -4.60194 -2.55987 0
M  V30 10362 H 983.074 -3.47975 -1.47383 0
M  V30 10363 H 983.387 -7.33658 -2.4283 0
M  V30 10364 H 981.732 -6.59579 -2.19043 0
M  V30 10365 H 984.923 -4.34249 -1.74773 0
M  V30 10366 H 985.096 -6.10115 -2.1832 0
M  V30 10367 N 978.502 0.731368 -1.39602 0
M  V30 10368 C 979.913 1.30981 -1.33045 0
M  V30 10369 C 980.264 1.962 0.00349918 0
M  V30 10370 O 979.389 1.96539 0.905615 0
M  V30 10371 C 979.984 2.3817 -2.40958 0
M  V30 10372 C 978.543 2.91678 -2.3791 0
M  V30 10373 C 977.69 1.65286 -2.22656 0
M  V30 10374 H 980.641 0.528615 -1.49637 0
M  V30 10375 H 980.662 3.18645 -2.07955 0
M  V30 10376 H 980.174 1.90673 -3.38032 0
M  V30 10377 H 978.275 3.43446 -1.44485 0
M  V30 10378 H 978.388 3.44545 -3.32904 0
M  V30 10379 H 976.752 1.89759 -1.69893 0
M  V30 10380 H 977.535 1.19836 -3.21705 0
M  V30 10381 N 979.98 1.24838 0.961938 0
M  V30 10382 C 981.391 1.08369 1.5203 0
M  V30 10383 C 981.742 -0.343005 1.93178 0
M  V30 10384 O 980.867 -1.2321 1.779 0
M  V30 10385 C 981.462 1.96102 2.76278 0
M  V30 10386 C 980.021 1.8384 3.28451 0
M  V30 10387 C 979.168 1.9069 2.01327 0
M  V30 10388 H 982.119 1.38231 0.779613 0
M  V30 10389 H 982.14 1.4967 3.49827 0
M  V30 10390 H 981.652 2.99931 2.46298 0
M  V30 10391 H 979.753 0.828653 3.63269 0
M  V30 10392 H 979.866 2.68251 3.96961 0
M  V30 10393 H 978.23 1.34488 2.16299 0
M  V30 10394 H 979.013 2.96111 1.73705 0
M  V30 10395 N 981.458 -1.16348 1.06306 0
M  V30 10396 C 982.683 -1.91323 0.800636 0
M  V30 10397 C 983.108 -1.7691 -0.639105 0
M  V30 10398 O 982.466 -1.0945 -1.44535 0
M  V30 10399 C 982.514 -3.40038 1.20027 0
M  V30 10400 O 981.618 -4.11003 0.339142 0
M  V30 10401 H 980.959 -0.596057 0.292595 0
M  V30 10402 H 983.489 -1.47406 1.41889 0
M  V30 10403 H 983.499 -3.90808 1.17188 0
M  V30 10404 H 982.174 -3.49848 2.24898 0
M  V30 10405 H 980.751 -3.70423 0.42911 0
M  V30 10406 N 982.937 -0.845659 -1.3299 0
M  V30 10407 C 984.348 -0.50048 -1.79867 0
M  V30 10408 C 984.699 0.981027 -1.69913 0
M  V30 10409 O 983.824 1.76477 -1.25239 0
M  V30 10410 C 984.419 -0.901679 -3.26581 0
M  V30 10411 C 982.978 -0.608536 -3.71448 0
M  V30 10412 C 982.125 -1.10632 -2.54275 0
M  V30 10413 H 985.076 -1.03372 -1.20416 0
M  V30 10414 H 985.097 -0.214433 -3.79895 0
M  V30 10415 H 984.609 -1.97998 -3.33794 0
M  V30 10416 H 982.71 0.459416 -3.69757 0
M  V30 10417 H 982.823 -1.16853 -4.64631 0
M  V30 10418 H 981.187 -0.526925 -2.4919 0
M  V30 10419 H 981.97 -2.19154 -2.64247 0
M  V30 10420 N 984.415 1.45619 -0.602734 0
M  V30 10421 C 985.643 2.06647 -0.102253 0
M  V30 10422 C 986.058 1.4482 1.21131 0
M  V30 10423 O 985.415 0.560621 1.73676 0
M  V30 10424 C 985.466 3.61467 0.0490113 0
M  V30 10425 O 985.187 4.20985 -1.21257 0
M  V30 10426 C 986.688 4.39469 0.581517 0
M  V30 10427 H 983.908 0.667685 -0.0666155 0
M  V30 10428 H 986.452 1.86939 -0.829091 0
M  V30 10429 H 984.607 3.80534 0.726153 0
M  V30 10430 H 985.021 5.14103 -1.03915 0
M  V30 10431 H 986.495 5.48318 0.636462 0
M  V30 10432 H 986.972 4.0891 1.60277 0
M  V30 10433 H 987.578 4.25256 -0.061419 0
M  V30 10434 N 985.893 0.34162 1.53853 0
M  V30 10435 C 987.17 -0.310664 1.93117 0
M  V30 10436 C 987.55 -1.68398 1.273 0
M  V30 10437 O 986.898 -2.24546 0.423225 0
M  V30 10438 C 987.108 -0.384867 3.46871 0
M  V30 10439 C 988.456 -0.636621 4.198 0
M  V30 10440 O 989.48 -0.467061 3.53125 0
M  V30 10441 O 988.339 -0.964962 5.37913 0
M  V30 10442 H 985.433 -0.180881 0.806977 0
M  V30 10443 H 987.979 0.392656 1.65095 0
M  V30 10444 H 986.751 0.57894 3.86994 0
M  V30 10445 H 986.374 -1.13505 3.81054 0
M  V30 10446 N 987.371 -1.57444 0.0701946 0
M  V30 10447 C 988.319 -2.13834 -0.915302 0
M  V30 10448 C 989.313 -1.07483 -1.30934 0
M  V30 10449 O 990.519 -1.25865 -1.28678 0
M  V30 10450 H 986.894 -0.683716 -0.313108 0
M  V30 10451 H 988.865 -2.95503 -0.414758 0
M  V30 10452 C 987.614 -2.71355 -2.17398 0
M  V30 10453 H 986.937 -3.52861 -1.87961 0
M  V30 10454 H 988.377 -3.1441 -2.84469 0
M  V30 10455 C 986.836 -1.66038 -2.93143 0
M  V30 10456 O 987.366 -1.08443 -3.86786 0
M  V30 10457 N 985.572 -1.3711 -2.56221 0
M  V30 10458 H 985.119 -1.84135 -1.80145 0
M  V30 10459 H 985.077 -0.66877 -3.07205 0
M  V30 10460 N 988.849 0.203349 -1.56283 0
M  V30 10461 C 990.098 0.92315 -1.79334 0
M  V30 10462 C 990.411 1.84765 -0.641977 0
M  V30 10463 O 991.617 2.60745 -0.756584 0
M  V30 10464 C 990.073 1.69184 -3.17655 0
M  V30 10465 C 989.681 0.812581 -4.40569 0
M  V30 10466 C 991.425 2.40177 -3.50022 0
M  V30 10467 C 989.332 1.57967 -5.69913 0
M  V30 10468 H 988.262 0.348442 -0.668659 0
M  V30 10469 H 990.913 0.1766 -1.82648 0
M  V30 10470 H 989.295 2.48197 -3.08568 0
M  V30 10471 H 990.469 0.0616956 -4.60759 0
M  V30 10472 H 988.784 0.21389 -4.1585 0
M  V30 10473 H 991.381 2.98103 -4.4389 0
M  V30 10474 H 991.724 3.13961 -2.73376 0
M  V30 10475 H 992.257 1.68138 -3.6052 0
M  V30 10476 H 988.996 0.884767 -6.49501 0
M  V30 10477 H 988.516 2.3047 -5.53754 0
M  V30 10478 H 990.195 2.13562 -6.10737 0
M  V30 10479 N 990.327 1.50405 0.470755 0
M  V30 10480 C 991.552 1.65442 1.25075 0
M  V30 10481 C 991.977 0.337612 1.85045 0
M  V30 10482 O 991.335 -0.698555 1.67302 0
M  V30 10483 C 991.383 2.74793 2.33498 0
M  V30 10484 O 990.487 2.36069 3.3815 0
M  V30 10485 H 989.828 0.552728 0.367951 0
M  V30 10486 H 992.358 1.96782 0.560177 0
M  V30 10487 H 992.368 2.97879 2.78804 0
M  V30 10488 H 991.043 3.70363 1.8922 0
M  V30 10489 H 989.62 2.2343 2.98552 0
M  V30 10490 N 991.805 -0.723954 1.39988 0
M  V30 10491 C 993.221 -1.03095 1.21834 0
M  V30 10492 C 993.421 -2.01309 0.0876647 0
M  V30 10493 O 992.477 -2.46277 -0.55714 0
M  V30 10494 C 993.79 -1.58267 2.5568 0
M  V30 10495 C 995.338 -1.70293 2.6262 0
M  V30 10496 C 995.813 -2.28872 3.96713 0
M  V30 10497 N 997.304 -2.36269 3.98411 0
M  V30 10498 C 998.039 -2.82557 4.98948 0
M  V30 10499 N 997.535 -3.28661 6.0988 0
M  V30 10500 N 999.328 -2.81866 4.86321 0
M  V30 10501 H 991.479 -0.0727891 2.12275 0
M  V30 10502 H 993.742 -0.0949029 0.943238 0
M  V30 10503 H 993.448 -0.935642 3.39026 0
M  V30 10504 H 993.322 -2.56914 2.76179 0
M  V30 10505 H 995.709 -2.34115 1.7965 0
M  V30 10506 H 995.79 -0.70268 2.45959 0
M  V30 10507 H 995.434 -1.65675 4.80119 0
M  V30 10508 H 995.364 -3.29595 4.107 0
M  V30 10509 H 997.855 -2.03697 3.18302 0
M  V30 10510 H 998.168 -3.62524 6.82493 0
M  V30 10511 H 996.513 -3.26641 6.13458 0
M  V30 10512 H 999.704 -2.45179 3.98754 0
M  V30 10513 H 999.877 -3.17626 5.64817 0
M  V30 10514 N 993.283 -1.25346 -0.955304 0
M  V30 10515 C 994.513 -1.12629 -1.732 0
M  V30 10516 C 994.921 0.322748 -1.86427 0
M  V30 10517 O 994.264 1.23381 -1.36099 0
M  V30 10518 C 994.326 -1.7064 -3.16421 0
M  V30 10519 C 993.99 -3.19632 -3.26626 0
M  V30 10520 C 994.987 -4.1663 -3.10991 0
M  V30 10521 C 992.672 -3.59829 -3.50468 0
M  V30 10522 C 994.666 -5.51806 -3.19043 0
M  V30 10523 C 992.353 -4.95143 -3.58157 0
M  V30 10524 C 993.351 -5.90941 -3.42459 0
M  V30 10525 O 993.039 -7.23792 -3.49828 0
M  V30 10526 H 992.771 -0.393646 -0.549562 0
M  V30 10527 H 995.325 -1.66184 -1.20715 0
M  V30 10528 H 993.555 -1.11532 -3.70267 0
M  V30 10529 H 995.244 -1.53032 -3.75947 0
M  V30 10530 H 996.01 -3.86915 -2.92441 0
M  V30 10531 H 991.889 -2.8576 -3.61749 0
M  V30 10532 H 995.433 -6.26559 -3.06707 0
M  V30 10533 H 991.33 -5.24525 -3.76224 0
M  V30 10534 H 992.098 -7.31879 -3.66463 0
M  V30 10535 N 994.761 1.15782 -1.06922 0
M  V30 10536 C 995.986 1.90896 -0.810771 0
M  V30 10537 C 996.411 1.77246 0.629714 0
M  V30 10538 O 995.769 1.10215 1.43953 0
M  V30 10539 C 995.817 3.39397 -1.21829 0
M  V30 10540 O 994.921 4.10818 -0.360934 0
M  V30 10541 H 994.262 0.594497 -0.295752 0
M  V30 10542 H 996.792 1.46652 -1.42669 0
M  V30 10543 H 996.802 3.90181 -1.19259 0
M  V30 10544 H 995.477 3.4865 -2.2675 0
M  V30 10545 H 994.054 3.7019 -0.448748 0
M  V30 10546 N 996.239 0.8527 1.3254 0
M  V30 10547 C 997.486 0.455123 1.97319 0
M  V30 10548 C 997.814 -0.988814 1.67489 0
M  V30 10549 O 997.069 -1.70845 0.954483 0
M  V30 10550 C 997.368 0.638757 3.51646 0
M  V30 10551 C 997.034 2.05287 4.01458 0
M  V30 10552 C 995.696 2.43963 4.14771 0
M  V30 10553 C 998.048 2.9759 4.27889 0
M  V30 10554 C 995.376 3.7422 4.51859 0
M  V30 10555 C 997.728 4.27343 4.66434 0
M  V30 10556 C 996.392 4.65957 4.77954 0
M  V30 10557 H 995.662 0.166541 0.722042 0
M  V30 10558 H 998.309 1.08238 1.57977 0
M  V30 10559 H 996.614 -0.0717394 3.91734 0
M  V30 10560 H 998.311 0.311219 3.9979 0
M  V30 10561 H 994.901 1.74253 3.91579 0
M  V30 10562 H 999.085 2.68942 4.17114 0
M  V30 10563 H 994.341 4.03923 4.58973 0
M  V30 10564 H 998.515 4.9893 4.85841 0
M  V30 10565 H 996.142 5.66934 5.06449 0
M  V30 10566 N 997.718 -1.45297 0.610449 0
M  V30 10567 C 998.995 -1.95562 0.0386189 0
M  V30 10568 C 999.375 -1.55284 -1.43004 0
M  V30 10569 O 998.723 -0.816785 -2.13403 0
M  V30 10570 C 998.933 -3.48176 0.239731 0
M  V30 10571 C 1000.28 -4.24425 0.122035 0
M  V30 10572 O 1001.3 -3.55794 0.170003 0
M  V30 10573 O 1000.16 -5.46499 0.00953695 0
M  V30 10574 H 997.258 -0.826296 -0.0341081 0
M  V30 10575 H 999.804 -1.55449 0.68071 0
M  V30 10576 H 998.576 -3.70471 1.25963 0
M  V30 10577 H 998.199 -3.95186 -0.437486 0
M  V30 10578 N 999.196 -0.349774 -1.5367 0
M  V30 10579 C 1000.14 0.519396 -2.26727 0
M  V30 10580 C 1001.14 1.09673 -1.29105 0
M  V30 10581 O 1002.34 1.04176 -1.46791 0
M  V30 10582 H 998.719 0.186192 -0.728585 0
M  V30 10583 H 1000.69 -0.118736 -2.98164 0
M  V30 10584 C 999.439 1.65535 -3.05767 0
M  V30 10585 H 998.762 1.22038 -3.80719 0
M  V30 10586 H 1000.2 2.23856 -3.6009 0
M  V30 10587 C 998.661 2.58844 -2.15642 0
M  V30 10588 O 999.191 3.61254 -1.75665 0
M  V30 10589 N 997.397 2.27671 -1.80595 0
M  V30 10590 H 996.944 1.44429 -2.13302 0
M  V30 10591 H 996.902 2.90359 -1.20577 0
M  V30 10592 N 1000.67 1.57404 -0.0785433 0
M  V30 10593 C 1001.6 2.16131 0.883726 0
M  V30 10594 C 1002.58 1.09015 1.30575 0
M  V30 10595 O 1003.77 1.3708 1.37559 0
M  V30 10596 C 1000.9 2.72836 2.1489 0
M  V30 10597 C 999.854 3.85178 1.86605 0
M  V30 10598 C 999.18 4.28516 3.1981 0
M  V30 10599 C 1000.48 5.09118 1.16601 0
M  V30 10600 H 1002.17 2.9679 0.394484 0
M  V30 10601 H 999.72 1.42763 0.188304 0
M  V30 10602 H 1001.67 3.12567 2.8263 0
M  V30 10603 H 1000.4 1.89408 2.66068 0
M  V30 10604 H 999.056 3.45962 1.21268 0
M  V30 10605 H 998.704 3.42 3.68843 0
M  V30 10606 H 998.404 5.04249 3.01674 0
M  V30 10607 H 999.928 4.70868 3.88737 0
M  V30 10608 H 1001.34 5.46123 1.74422 0
M  V30 10609 H 999.739 5.90173 1.087 0
M  V30 10610 H 1000.81 4.8468 0.146138 0
M  V30 10611 N 1002.15 -0.195058 1.56388 0
M  V30 10612 C 1003.56 -0.75973 1.70543 0
M  V30 10613 C 1003.91 -1.83849 0.685118 0
M  V30 10614 O 1003.04 -2.15819 -0.158457 0
M  V30 10615 C 1003.63 -1.38485 3.09204 0
M  V30 10616 C 1002.19 -1.89661 3.25124 0
M  V30 10617 C 1001.34 -0.766563 2.66494 0
M  V30 10618 H 1004.29 0.0300148 1.58672 0
M  V30 10619 H 1004.31 -2.25424 3.06536 0
M  V30 10620 H 1003.82 -0.599479 3.83442 0
M  V30 10621 H 1001.92 -2.70917 2.55802 0
M  V30 10622 H 1002.04 -2.05837 4.32629 0
M  V30 10623 H 1000.4 -1.18086 2.25672 0
M  V30 10624 H 1001.18 0.00657102 3.43299 0
M  V30 10625 N 1003.63 -1.50653 -0.462772 0
M  V30 10626 C 1004.54 -1.72923 -1.58539 0
M  V30 10627 C 1005.56 -0.612577 -1.6286 0
M  V30 10628 O 1006.73 -0.891885 -1.80575 0
M  V30 10629 C 1003.8 -1.82623 -2.94703 0
M  V30 10630 C 1002.86 -3.06392 -3.00704 0
M  V30 10631 C 1002.09 -3.15618 -4.30373 0
M  V30 10632 O 1002.31 -2.31423 -5.21344 0
M  V30 10633 O 1001.25 -4.0841 -4.42136 0
M  V30 10634 H 1005.07 -2.68103 -1.42669 0
M  V30 10635 H 1002.66 -1.34848 -0.643144 0
M  V30 10636 H 1004.54 -1.91134 -3.7556 0
M  V30 10637 H 1003.22 -0.906275 -3.10754 0
M  V30 10638 H 1002.12 -3.03375 -2.18894 0
M  V30 10639 H 1003.46 -3.97992 -2.89591 0
M  V30 10640 N 1005.11 0.71652 -1.4037 0
M  V30 10641 C 1006.06 1.8306 -1.40562 0
M  V30 10642 C 1007.03 1.64009 -0.262697 0
M  V30 10643 O 1008.21 1.85157 -0.460619 0
M  V30 10644 C 1005.35 3.2076 -1.27307 0
M  V30 10645 C 1004.46 3.51389 -2.51296 0
M  V30 10646 C 1003.6 4.78589 -2.30491 0
M  V30 10647 C 1002.64 5.02119 -3.50061 0
M  V30 10648 N 1001.77 6.20533 -3.28457 0
M  V30 10649 H 1006.61 1.82231 -2.35788 0
M  V30 10650 H 1004.15 0.890198 -1.17106 0
M  V30 10651 H 1006.11 4.00274 -1.17628 0
M  V30 10652 H 1004.74 3.2082 -0.357005 0
M  V30 10653 H 1003.79 2.66436 -2.71507 0
M  V30 10654 H 1005.1 3.64686 -3.40302 0
M  V30 10655 H 1004.26 5.66119 -2.1816 0
M  V30 10656 H 1003 4.67499 -1.38909 0
M  V30 10657 H 1002 4.13044 -3.6287 0
M  V30 10658 H 1003.23 5.15082 -4.42569 0
M  V30 10659 H 1001.17 6.10695 -2.39556 0
M  V30 10660 H 1001.09 6.34502 -4.11027 0
M  V30 10661 H 1002.36 7.10853 -3.19857 0
M  V30 10662 N 1006.59 1.25851 0.948643 0
M  V30 10663 C 1007.82 1.13546 1.726 0
M  V30 10664 C 1008.22 -0.312857 1.86595 0
M  V30 10665 O 1007.57 -1.22657 1.36751 0
M  V30 10666 C 1007.63 1.72315 3.15512 0
M  V30 10667 C 1007.29 3.2136 3.24926 0
M  V30 10668 C 1008.29 4.18274 3.08777 0
M  V30 10669 C 1005.98 3.61683 3.48555 0
M  V30 10670 C 1007.97 5.53491 3.16112 0
M  V30 10671 C 1005.66 4.97035 3.55526 0
M  V30 10672 C 1006.65 5.92749 3.3932 0
M  V30 10673 O 1006.34 7.25637 3.45985 0
M  V30 10674 H 1006.07 0.396555 0.547467 0
M  V30 10675 H 1008.63 1.66822 1.19832 0
M  V30 10676 H 1006.86 1.13494 3.6967 0
M  V30 10677 H 1008.55 1.55024 3.7513 0
M  V30 10678 H 1009.31 3.88461 2.90385 0
M  V30 10679 H 1005.19 2.87674 3.60229 0
M  V30 10680 H 1008.74 6.28177 3.0338 0
M  V30 10681 H 1004.63 5.26512 3.73437 0
M  V30 10682 H 1005.4 7.33812 3.62577 0
M  V30 10683 N 1008.06 -1.15214 1.07534 0
M  V30 10684 C 1009.31 -1.86548 0.810651 0
M  V30 10685 C 1009.67 -1.80863 -0.656236 0
M  V30 10686 O 1008.96 -1.22216 -1.47559 0
M  V30 10687 C 1009.15 -3.34623 1.25547 0
M  V30 10688 C 1008.98 -3.54725 2.76406 0
M  V30 10689 C 1007.75 -3.70089 3.44038 0
M  V30 10690 C 1009.95 -3.52392 3.74599 0
M  V30 10691 N 1007.93 -3.78262 4.8352 0
M  V30 10692 C 1009.3 -3.66701 4.9993 0
M  V30 10693 C 1011.36 -3.35677 3.6773 0
M  V30 10694 C 1010.06 -3.66023 6.19209 0
M  V30 10695 C 1012.09 -3.36298 4.86475 0
M  V30 10696 C 1011.45 -3.51139 6.1064 0
M  V30 10697 H 1007.55 -0.699691 0.349223 0
M  V30 10698 H 1010.13 -1.3815 1.37196 0
M  V30 10699 H 1008.3 -3.81633 0.721837 0
M  V30 10700 H 1010.03 -3.93677 0.938126 0
M  V30 10701 H 1006.79 -3.70943 2.94446 0
M  V30 10702 H 1007.21 -3.86087 5.56117 0
M  V30 10703 H 1011.86 -3.2312 2.72678 0
M  V30 10704 H 1009.57 -3.77358 7.14581 0
M  V30 10705 H 1013.16 -3.2459 4.82838 0
M  V30 10706 H 1012.04 -3.51555 7.00984 0
M  V30 10707 N 1009.54 -0.859717 -1.32086 0
M  V30 10708 C 1010.96 -0.55025 -1.49815 0
M  V30 10709 C 1011.16 0.917966 -1.79376 0
M  V30 10710 O 1010.21 1.70073 -1.86632 0
M  V30 10711 C 1011.53 -1.44161 -2.6389 0
M  V30 10712 C 1013.08 -1.44257 -2.77775 0
M  V30 10713 C 1013.55 -2.31926 -3.94936 0
M  V30 10714 N 1015.04 -2.2975 -4.02206 0
M  V30 10715 C 1015.78 -2.9431 -4.92107 0
M  V30 10716 N 1015.27 -3.68001 -5.86981 0
M  V30 10717 N 1017.07 -2.83671 -4.8527 0
M  V30 10718 H 1009.22 -1.80987 -1.11164 0
M  V30 10719 H 1011.48 -0.773313 -0.548353 0
M  V30 10720 H 1011.19 -2.48588 -2.4879 0
M  V30 10721 H 1011.06 -1.13268 -3.59792 0
M  V30 10722 H 1013.45 -0.405923 -2.92295 0
M  V30 10723 H 1013.53 -1.79169 -1.82571 0
M  V30 10724 H 1013.17 -3.35661 -3.81174 0
M  V30 10725 H 1013.1 -1.94344 -4.89426 0
M  V30 10726 H 1015.59 -1.76177 -3.3432 0
M  V30 10727 H 1015.91 -4.14417 -6.52287 0
M  V30 10728 H 1014.25 -3.72109 -5.86992 0
M  V30 10729 H 1017.44 -2.25647 -4.10123 0
M  V30 10730 H 1017.61 -3.34267 -5.5513 0
M  V30 10731 N 1011.02 1.44971 -0.618145 0
M  V30 10732 C 1011.97 2.30606 0.09449 0
M  V30 10733 C 1012.94 1.42725 0.849633 0
M  V30 10734 O 1014.12 1.71643 0.833266 0
M  V30 10735 C 1011.26 3.27803 1.07886 0
M  V30 10736 C 1010.38 4.30787 0.323488 0
M  V30 10737 C 1009.51 5.15085 1.29851 0
M  V30 10738 C 1008.55 6.09788 0.531561 0
M  V30 10739 N 1007.69 6.86829 1.4564 0
M  V30 10740 H 1012.53 2.91008 -0.641738 0
M  V30 10741 H 1010.06 1.43391 -0.328259 0
M  V30 10742 H 1012.02 3.82631 1.66281 0
M  V30 10743 H 1010.65 2.69131 1.78237 0
M  V30 10744 H 1009.7 3.78536 -0.376164 0
M  V30 10745 H 1011.02 4.98044 -0.274443 0
M  V30 10746 H 1010.17 5.74365 1.95421 0
M  V30 10747 H 1008.91 4.4787 1.93037 0
M  V30 10748 H 1007.91 5.49628 -0.137702 0
M  V30 10749 H 1009.14 6.79033 -0.0953993 0
M  V30 10750 H 1007.08 6.22295 2.07571 0
M  V30 10751 H 1007 7.50477 0.912167 0
M  V30 10752 H 1008.27 7.50642 2.10134 0
M  V30 10753 N 1012.5 0.357919 1.53482 0
M  V30 10754 C 1013.73 -0.234799 2.05261 0
M  V30 10755 C 1014.14 -1.43618 1.23169 0
M  V30 10756 O 1013.48 -1.81801 0.263435 0
M  V30 10757 C 1013.54 -0.699748 3.52624 0
M  V30 10758 C 1013.21 0.383905 4.55385 0
M  V30 10759 C 1014.2 1.23129 5.05109 0
M  V30 10760 C 1011.89 0.541953 4.99368 0
M  V30 10761 C 1013.88 2.22214 5.97411 0
M  V30 10762 C 1011.57 1.53618 5.91477 0
M  V30 10763 C 1012.57 2.37471 6.40388 0
M  V30 10764 O 1012.25 3.35199 7.30682 0
M  V30 10765 H 1011.99 -0.0465364 0.674396 0
M  V30 10766 H 1014.54 0.512355 1.98907 0
M  V30 10767 H 1012.77 -1.49838 3.5649 0
M  V30 10768 H 1014.46 -1.21461 3.87301 0
M  V30 10769 H 1015.23 1.12035 4.71883 0
M  V30 10770 H 1011.1 -0.100929 4.6089 0
M  V30 10771 H 1014.65 2.87702 6.35511 0
M  V30 10772 H 1010.55 1.64763 6.24118 0
M  V30 10773 H 1011.31 3.30838 7.48658 0
M  V30 10774 N 1013.98 -1.5736 0.0868897 0
M  V30 10775 C 1014.91 -2.10582 -0.904858 0
M  V30 10776 C 1015.92 -1.04124 -1.25148 0
M  V30 10777 O 1017.11 -1.31595 -1.20603 0
M  V30 10778 C 1014.21 -2.56381 -2.21635 0
M  V30 10779 C 1013.38 -3.86581 -2.04631 0
M  V30 10780 C 1012.44 -4.18313 -3.19219 0
M  V30 10781 O 1011.47 -4.87669 -2.93544 0
M  V30 10782 N 1012.67 -3.73061 -4.44754 0
M  V30 10783 H 1015.44 -2.96297 -0.450352 0
M  V30 10784 H 1013 -1.616 -0.0984376 0
M  V30 10785 H 1014.99 -2.7466 -2.97227 0
M  V30 10786 H 1013.56 -1.75721 -2.58536 0
M  V30 10787 H 1012.78 -3.77532 -1.13417 0
M  V30 10788 H 1014.07 -4.71777 -1.90537 0
M  V30 10789 H 1013.46 -3.1706 -4.68497 0
M  V30 10790 H 1012.02 -3.96511 -5.17322 0
M  V30 10791 N 1015.45 0.186762 -1.56489 0
M  V30 10792 C 1016.68 0.920495 -1.84961 0
M  V30 10793 C 1017.09 1.77004 -0.668297 0
M  V30 10794 O 1016.44 1.79891 0.37213 0
M  V30 10795 C 1016.5 1.85997 -3.07645 0
M  V30 10796 C 1016.16 1.19156 -4.41193 0
M  V30 10797 C 1017.16 0.564446 -5.16827 0
M  V30 10798 C 1014.84 1.19292 -4.87929 0
M  V30 10799 C 1016.84 -0.0523768 -6.37378 0
M  V30 10800 C 1014.52 0.572266 -6.08415 0
M  V30 10801 C 1015.52 -0.049294 -6.82982 0
M  V30 10802 O 1015.21 -0.660201 -8.01184 0
M  V30 10803 H 1014.94 0.273659 -0.618132 0
M  V30 10804 H 1017.5 0.196437 -2.04459 0
M  V30 10805 H 1015.73 2.62394 -2.84053 0
M  V30 10806 H 1017.42 2.46221 -3.22692 0
M  V30 10807 H 1018.18 0.555474 -4.81809 0
M  V30 10808 H 1014.06 1.66611 -4.29839 0
M  V30 10809 H 1017.6 -0.538133 -6.95521 0
M  V30 10810 H 1013.5 0.578769 -6.429 0
M  V30 10811 H 1014.27 -0.557926 -8.16596 0
M  V30 10812 N 1016.93 1.50896 0.454776 0
M  V30 10813 C 1017.9 1.70377 1.53312 0
M  V30 10814 C 1018.9 0.57408 1.50203 0
M  V30 10815 O 1020.09 0.841374 1.52534 0
M  V30 10816 C 1017.22 1.74411 2.92905 0
M  V30 10817 H 1018.41 2.66599 1.37349 0
M  V30 10818 H 1015.96 1.40622 0.68228 0
M  V30 10819 H 1016.7 0.799408 3.14293 0
M  V30 10820 H 1016.48 2.56496 2.96568 0
M  V30 10821 H 1017.97 1.91382 3.71164 0
M  V30 10822 N 1018.41 -0.709066 1.40748 0
M  V30 10823 C 1019.64 -1.50313 1.42901 0
M  V30 10824 C 1020.06 -1.88072 0.032213 0
M  V30 10825 O 1019.42 -1.53716 -0.96131 0
M  V30 10826 C 1019.47 -2.75074 2.33166 0
M  V30 10827 O 1018.57 -3.72036 1.7794 0
M  V30 10828 H 1017.91 -0.452934 0.485538 0
M  V30 10829 H 1020.44 -0.872712 1.85054 0
M  V30 10830 H 1020.45 -3.23532 2.48578 0
M  V30 10831 H 1019.13 -2.46927 3.34664 0
M  V30 10832 H 1017.7 -3.30911 1.71908 0
M  V30 10833 N 1019.89 -1.26353 -0.941956 0
M  V30 10834 C 1021.31 -1.03448 -1.21534 0
M  V30 10835 C 1021.51 0.240855 -2.00055 0
M  V30 10836 O 1020.56 0.950199 -2.33939 0
M  V30 10837 C 1021.87 -2.2654 -1.97737 0
M  V30 10838 C 1023.42 -2.31433 -2.10731 0
M  V30 10839 C 1023.9 -3.54216 -2.90336 0
M  V30 10840 N 1025.39 -3.54688 -2.9791 0
M  V30 10841 C 1026.12 -4.4636 -3.59931 0
M  V30 10842 N 1025.62 -5.48319 -4.2346 0
M  V30 10843 N 1027.41 -4.34013 -3.57196 0
M  V30 10844 H 1019.56 -2.08266 -0.417005 0
M  V30 10845 H 1021.83 -0.915251 -0.247021 0
M  V30 10846 H 1021.53 -3.19299 -1.47449 0
M  V30 10847 H 1021.41 -2.30726 -2.98405 0
M  V30 10848 H 1023.79 -1.3919 -2.60212 0
M  V30 10849 H 1023.87 -2.31259 -1.09329 0
M  V30 10850 H 1023.52 -4.46788 -2.41543 0
M  V30 10851 H 1023.45 -3.51637 -3.91993 0
M  V30 10852 H 1025.94 -2.80942 -2.52745 0
M  V30 10853 H 1026.25 -6.14458 -4.6868 0
M  V30 10854 H 1024.6 -5.52177 -4.22049 0
M  V30 10855 H 1027.79 -3.53578 -3.06758 0
M  V30 10856 H 1027.96 -5.0565 -4.05244 0
M  V30 10857 N 1021.37 1.14642 -1.08144 0
M  V30 10858 C 1022.61 1.85617 -0.809484 0
M  V30 10859 C 1022.94 1.8279 0.664672 0
M  V30 10860 O 1022.2 1.25178 1.50429 0
M  V30 10861 C 1022.5 3.33953 -1.2732 0
M  V30 10862 C 1022.16 3.56969 -2.7547 0
M  V30 10863 C 1020.82 3.6296 -3.15933 0
M  V30 10864 C 1023.18 3.66014 -3.71057 0
M  V30 10865 C 1020.5 3.75515 -4.50783 0
M  V30 10866 C 1022.86 3.80094 -5.05679 0
M  V30 10867 C 1021.52 3.84333 -5.45751 0
M  V30 10868 H 1020.79 0.67922 -0.296211 0
M  V30 10869 H 1023.44 1.35433 -1.35389 0
M  V30 10870 H 1021.74 3.86399 -0.648329 0
M  V30 10871 H 1023.44 3.87291 -1.03957 0
M  V30 10872 H 1020.03 3.52953 -2.4315 0
M  V30 10873 H 1024.21 3.60679 -3.40917 0
M  V30 10874 H 1019.47 3.77057 -4.81288 0
M  V30 10875 H 1023.64 3.86035 -5.79612 0
M  V30 10876 H 1021.27 3.93814 -6.50242 0
M  V30 10877 N 1022.85 0.866709 1.31628 0
M  V30 10878 C 1024.09 0.476731 1.97117 0
M  V30 10879 C 1024.42 -0.967813 1.68366 0
M  V30 10880 O 1023.7 -1.68101 0.978377 0
M  V30 10881 C 1023.98 0.730561 3.52611 0
M  V30 10882 C 1023.84 2.2244 3.90948 0
M  V30 10883 C 1025.15 0.19488 4.39668 0
M  V30 10884 H 1022.27 0.174682 0.715999 0
M  V30 10885 H 1024.92 1.08735 1.5581 0
M  V30 10886 H 1023.07 0.210834 3.87927 0
M  V30 10887 H 1024.74 2.81113 3.6575 0
M  V30 10888 H 1022.98 2.69824 3.39673 0
M  V30 10889 H 1023.65 2.35266 4.99353 0
M  V30 10890 H 1026.13 0.639478 4.11157 0
M  V30 10891 H 1025 0.401958 5.47426 0
M  V30 10892 H 1025.26 -0.90302 4.32779 0
M  V30 10893 N 1024.32 -1.44642 0.625825 0
M  V30 10894 C 1025.26 -2.28882 -0.120614 0
M  V30 10895 C 1026.27 -1.40985 -0.81407 0
M  V30 10896 O 1027.46 -1.65188 -0.676404 0
M  V30 10897 C 1024.56 -3.17217 -1.19274 0
M  V30 10898 C 1023.73 -4.33499 -0.582839 0
M  V30 10899 C 1022.79 -5.02908 -1.54823 0
M  V30 10900 O 1021.82 -5.59102 -1.06743 0
M  V30 10901 N 1023.02 -5.0387 -2.88262 0
M  V30 10902 H 1025.78 -2.93585 0.602318 0
M  V30 10903 H 1023.34 -1.5503 0.466604 0
M  V30 10904 H 1025.34 -3.60515 -1.83878 0
M  V30 10905 H 1023.91 -2.54301 -1.81797 0
M  V30 10906 H 1023.13 -3.93458 0.241696 0
M  V30 10907 H 1024.41 -5.08561 -0.155914 0
M  V30 10908 H 1023.81 -4.59539 -3.2991 0
M  V30 10909 H 1022.37 -5.50974 -3.4824 0
M  V30 10910 N 1025.8 -0.366053 -1.5329 0
M  V30 10911 C 1026.73 0.47211 -2.28677 0
M  V30 10912 C 1027.71 1.08353 -1.31125 0
M  V30 10913 O 1028.9 1.10069 -1.59995 0
M  V30 10914 C 1026.03 1.61174 -3.07637 0
M  V30 10915 C 1024.98 1.12755 -4.12881 0
M  V30 10916 C 1024.31 2.35745 -4.79925 0
M  V30 10917 C 1025.61 0.211954 -5.2187 0
M  V30 10918 H 1027.3 -0.156838 -2.98989 0
M  V30 10919 H 1024.85 -0.0768709 -1.43795 0
M  V30 10920 H 1026.8 2.20473 -3.59123 0
M  V30 10921 H 1025.52 2.26793 -2.35016 0
M  V30 10922 H 1024.18 0.557234 -3.6234 0
M  V30 10923 H 1023.83 2.99821 -4.03877 0
M  V30 10924 H 1023.53 2.04019 -5.51044 0
M  V30 10925 H 1025.06 2.95729 -5.34207 0
M  V30 10926 H 1026.47 0.71244 -5.68856 0
M  V30 10927 H 1024.87 -0.0144501 -6.00098 0
M  V30 10928 H 1025.94 -0.745753 -4.79131 0
M  V30 10929 N 1027.28 1.57312 -0.0952337 0
M  V30 10930 C 1028.53 1.94646 0.569284 0
M  V30 10931 C 1028.86 0.977152 1.67825 0
M  V30 10932 O 1028.13 0.0102318 1.94497 0
M  V30 10933 C 1028.42 3.42098 1.12433 0
M  V30 10934 C 1028.27 4.49795 0.0204016 0
M  V30 10935 C 1029.59 3.90866 2.02266 0
M  V30 10936 H 1026.71 0.707779 0.205469 0
M  V30 10937 H 1029.35 1.89274 -0.16597 0
M  V30 10938 H 1027.5 3.46807 1.75092 0
M  V30 10939 H 1029.17 4.57198 -0.613845 0
M  V30 10940 H 1027.41 4.28964 -0.645965 0
M  V30 10941 H 1028.09 5.50166 0.449579 0
M  V30 10942 H 1030.56 3.88311 1.49512 0
M  V30 10943 H 1029.44 4.94604 2.38029 0
M  V30 10944 H 1029.7 3.30167 2.9401 0
M  V30 10945 N 1028.76 -0.17846 1.56586 0
M  V30 10946 C 1030.17 -0.529957 1.50544 0
M  V30 10947 C 1030.37 -1.85015 0.798237 0
M  V30 10948 O 1029.43 -2.49983 0.355639 0
M  V30 10949 C 1030.74 -0.569314 2.95261 0
M  V30 10950 C 1032.29 -0.657008 3.06027 0
M  V30 10951 C 1032.77 -0.727323 4.52188 0
M  V30 10952 N 1034.26 -0.790406 4.56406 0
M  V30 10953 C 1034.99 -0.865265 5.66834 0
M  V30 10954 N 1034.49 -0.901398 6.86911 0
M  V30 10955 N 1036.28 -0.903736 5.54787 0
M  V30 10956 H 1028.43 0.687304 2.00972 0
M  V30 10957 H 1030.69 0.246936 0.915274 0
M  V30 10958 H 1030.4 0.331934 3.5013 0
M  V30 10959 H 1030.27 -1.41828 3.4952 0
M  V30 10960 H 1032.66 -1.54868 2.51197 0
M  V30 10961 H 1032.74 0.218495 2.54865 0
M  V30 10962 H 1032.39 0.160067 5.07648 0
M  V30 10963 H 1032.32 -1.61887 5.01099 0
M  V30 10964 H 1034.81 -0.771054 3.6995 0
M  V30 10965 H 1035.12 -0.959494 7.6682 0
M  V30 10966 H 1033.47 -0.869795 6.89536 0
M  V30 10967 H 1036.66 -0.872459 4.59898 0
M  V30 10968 H 1036.83 -0.958615 6.4087 0
M  V30 10969 N 1030.24 -1.51135 -0.446768 0
M  V30 10970 C 1031.46 -1.67411 -1.22427 0
M  V30 10971 C 1031.89 -0.367009 -1.84485 0
M  V30 10972 O 1031.24 0.67185 -1.68392 0
M  V30 10973 C 1031.29 -2.78473 -2.29096 0
M  V30 10974 O 1030.4 -2.41419 -3.34351 0
M  V30 10975 H 1029.74 -0.558512 -0.359111 0
M  V30 10976 H 1032.27 -1.97648 -0.5288 0
M  V30 10977 H 1032.28 -3.02277 -2.7403 0
M  V30 10978 H 1030.95 -3.73326 -1.83304 0
M  V30 10979 H 1029.53 -2.28152 -2.9496 0
M  V30 10980 N 1031.71 0.701592 -1.41122 0
M  V30 10981 C 1032.66 1.81559 -1.42495 0
M  V30 10982 C 1033.63 1.63722 -0.280078 0
M  V30 10983 O 1034.82 1.84658 -0.480231 0
M  V30 10984 C 1031.96 3.19392 -1.30702 0
M  V30 10985 C 1031.07 3.48704 -2.55009 0
M  V30 10986 C 1030.2 4.76118 -2.35554 0
M  V30 10987 C 1029.24 4.98378 -3.55367 0
M  V30 10988 N 1028.38 6.17014 -3.3502 0
M  V30 10989 H 1033.22 1.7972 -2.37707 0
M  V30 10990 H 1030.76 0.877727 -1.18044 0
M  V30 10991 H 1032.71 3.99004 -1.21867 0
M  V30 10992 H 1031.34 3.20423 -0.391012 0
M  V30 10993 H 1030.4 2.63542 -2.74317 0
M  V30 10994 H 1031.71 3.61057 -3.44151 0
M  V30 10995 H 1030.86 5.63774 -2.24152 0
M  V30 10996 H 1029.6 4.66 -1.43859 0
M  V30 10997 H 1028.61 4.09172 -3.6723 0
M  V30 10998 H 1029.83 5.10359 -4.48007 0
M  V30 10999 H 1027.78 6.0812 -2.4602 0
M  V30 11000 H 1027.69 6.30107 -4.17733 0
M  V30 11001 H 1028.96 7.0742 -3.27379 0
M  V30 11002 N 1033.19 1.2685 0.935242 0
M  V30 11003 C 1034.42 1.15645 1.72165 0
M  V30 11004 C 1034.84 -0.283909 1.85945 0
M  V30 11005 O 1034.2 -1.20567 1.354 0
M  V30 11006 C 1034.25 1.83689 3.10307 0
M  V30 11007 O 1033.35 1.12972 3.96625 0
M  V30 11008 H 1032.69 0.402629 0.528002 0
M  V30 11009 H 1035.22 1.67781 1.17093 0
M  V30 11010 H 1035.23 1.90749 3.60664 0
M  V30 11011 H 1033.91 2.88472 2.99595 0
M  V30 11012 H 1032.48 1.13929 3.5507 0
M  V30 11013 N 1034.67 -1.14067 1.0875 0
M  V30 11014 C 1036.08 -1.66747 0.839778 0
M  V30 11015 C 1036.43 -1.85711 -0.632909 0
M  V30 11016 O 1035.56 -1.57084 -1.48841 0
M  V30 11017 C 1036.15 -3.02896 1.51787 0
M  V30 11018 C 1034.71 -3.52596 1.3173 0
M  V30 11019 C 1033.86 -2.27994 1.57841 0
M  V30 11020 H 1036.81 -0.980838 1.24761 0
M  V30 11021 H 1036.83 -3.68526 0.947057 0
M  V30 11022 H 1036.34 -2.89062 2.58969 0
M  V30 11023 H 1034.44 -3.71647 0.266339 0
M  V30 11024 H 1034.56 -4.33151 2.04736 0
M  V30 11025 H 1032.92 -2.34241 1.00015 0
M  V30 11026 H 1033.7 -2.16732 2.66237 0
M  V30 11027 N 1036.15 -0.873678 -1.31166 0
M  V30 11028 C 1037.1 -0.330288 -2.28424 0
M  V30 11029 C 1038.07 0.573299 -1.55893 0
M  V30 11030 O 1039.25 0.504143 -1.84019 0
M  V30 11031 C 1036.39 0.459004 -3.42034 0
M  V30 11032 C 1035.5 -0.472519 -4.29408 0
M  V30 11033 C 1034.64 0.331261 -5.30166 0
M  V30 11034 C 1033.68 -0.596453 -6.09187 0
M  V30 11035 N 1032.81 0.171305 -7.01891 0
M  V30 11036 H 1037.65 -1.16485 -2.7429 0
M  V30 11037 H 1035.19 -0.585813 -1.34932 0
M  V30 11038 H 1037.15 0.932432 -4.06647 0
M  V30 11039 H 1035.78 1.25824 -2.97268 0
M  V30 11040 H 1034.83 -1.06441 -3.65205 0
M  V30 11041 H 1036.14 -1.18372 -4.84551 0
M  V30 11042 H 1035.3 0.867038 -6.00473 0
M  V30 11043 H 1034.04 1.07573 -4.75688 0
M  V30 11044 H 1033.04 -1.14395 -5.37767 0
M  V30 11045 H 1034.27 -1.33983 -6.65752 0
M  V30 11046 H 1032.21 0.89852 -6.49817 0
M  V30 11047 H 1032.13 -0.480481 -7.54472 0
M  V30 11048 H 1033.4 0.688192 -7.76456 0
M  V30 11049 N 1037.63 1.44308 -0.633487 0
M  V30 11050 C 1038.88 2.01239 -0.136356 0
M  V30 11051 C 1039.19 1.50438 1.25011 0
M  V30 11052 O 1040.39 1.99513 1.84138 0
M  V30 11053 C 1038.85 3.59382 -0.193011 0
M  V30 11054 C 1038.46 4.19178 -1.58093 0
M  V30 11055 C 1040.2 4.23778 0.247534 0
M  V30 11056 C 1038.11 5.69553 -1.59258 0
M  V30 11057 H 1037.04 0.752521 -0.0472109 0
M  V30 11058 H 1039.69 1.65498 -0.79263 0
M  V30 11059 H 1038.07 3.92432 0.530408 0
M  V30 11060 H 1039.25 3.97662 -2.32813 0
M  V30 11061 H 1037.56 3.67079 -1.96576 0
M  V30 11062 H 1040.16 5.34075 0.258401 0
M  V30 11063 H 1040.5 3.96285 1.27529 0
M  V30 11064 H 1041.03 3.9554 -0.423469 0
M  V30 11065 H 1037.77 6.01784 -2.59878 0
M  V30 11066 H 1037.29 5.93185 -0.888352 0
M  V30 11067 H 1038.97 6.33234 -1.32756 0
M  V30 11068 N 1039.1 0.374177 1.53094 0
M  V30 11069 C 1040.33 -0.213325 2.05797 0
M  V30 11070 C 1040.75 -1.41753 1.24706 0
M  V30 11071 O 1040.1 -1.80183 0.289868 0
M  V30 11072 C 1040.16 -0.598367 3.56513 0
M  V30 11073 O 1039.88 0.557983 4.34532 0
M  V30 11074 C 1041.38 -1.24334 4.25507 0
M  V30 11075 H 1038.6 -0.0357398 0.670048 0
M  V30 11076 H 1041.14 0.535035 1.97377 0
M  V30 11077 H 1039.3 -1.29663 3.65056 0
M  V30 11078 H 1039.71 0.244911 5.23928 0
M  V30 11079 H 1041.18 -1.46325 5.32253 0
M  V30 11080 H 1041.66 -2.20622 3.79766 0
M  V30 11081 H 1042.27 -0.586269 4.2124 0
M  V30 11082 N 1040.58 -1.57259 0.103575 0
M  V30 11083 C 1041.81 -1.98711 -0.565454 0
M  V30 11084 C 1042.22 -0.981759 -1.61735 0
M  V30 11085 O 1041.56 0.0357019 -1.83665 0
M  V30 11086 C 1041.63 -3.36552 -1.26384 0
M  V30 11087 C 1041.29 -4.55566 -0.361714 0
M  V30 11088 C 1042.29 -5.18408 0.393539 0
M  V30 11089 C 1039.97 -5.01534 -0.277292 0
M  V30 11090 C 1041.97 -6.25594 1.2211 0
M  V30 11091 C 1039.65 -6.08584 0.553919 0
M  V30 11092 C 1040.65 -6.7048 1.30176 0
M  V30 11093 O 1040.34 -7.75464 2.1192 0
M  V30 11094 H 1040.07 -0.657853 -0.155582 0
M  V30 11095 H 1042.62 -2.04591 0.182089 0
M  V30 11096 H 1040.85 -3.2738 -2.05813 0
M  V30 11097 H 1042.54 -3.62395 -1.82824 0
M  V30 11098 H 1043.31 -4.8382 0.338098 0
M  V30 11099 H 1039.19 -4.53114 -0.849047 0
M  V30 11100 H 1042.73 -6.73836 1.80531 0
M  V30 11101 H 1038.63 -6.42604 0.610809 0
M  V30 11102 H 1039.4 -7.92491 2.04694 0
M  V30 11103 N 1042.06 0.170153 -1.56679 0
M  V30 11104 C 1043.31 0.886592 -1.8206 0
M  V30 11105 C 1043.64 1.82194 -0.680839 0
M  V30 11106 O 1042.89 1.92866 0.331822 0
M  V30 11107 C 1043.19 1.71402 -3.13618 0
M  V30 11108 C 1042.86 0.927489 -4.41258 0
M  V30 11109 C 1041.52 0.710417 -4.75927 0
M  V30 11110 C 1043.87 0.375855 -5.19843 0
M  V30 11111 C 1041.2 -0.0693691 -5.86659 0
M  V30 11112 C 1043.55 -0.390849 -6.31391 0
M  V30 11113 C 1042.21 -0.61871 -6.64626 0
M  V30 11114 H 1041.48 0.324427 -0.666204 0
M  V30 11115 H 1044.13 0.151464 -1.909 0
M  V30 11116 H 1042.44 2.51858 -3.00125 0
M  V30 11117 H 1044.13 2.27141 -3.30466 0
M  V30 11118 H 1040.72 1.10672 -4.14065 0
M  V30 11119 H 1044.91 0.530897 -4.93452 0
M  V30 11120 H 1040.16 -0.255637 -6.10865 0
M  V30 11121 H 1044.34 -0.825544 -6.9149 0
M  V30 11122 H 1041.96 -1.22482 -7.50268 0
M  V30 11123 N 1043.54 1.5137 0.438746 0
M  V30 11124 C 1044.77 1.67774 1.21077 0
M  V30 11125 C 1045.18 0.374489 1.85049 0
M  V30 11126 O 1044.54 -0.646867 1.70651 0
M  V30 11127 C 1044.59 2.79238 2.29584 0
M  V30 11128 O 1044.31 4.04513 1.68228 0
M  V30 11129 C 1045.81 3.06898 3.19888 0
M  V30 11130 H 1043.03 0.563054 0.364981 0
M  V30 11131 H 1045.58 1.97777 0.520035 0
M  V30 11132 H 1043.73 2.51837 2.94375 0
M  V30 11133 H 1044.14 4.66405 2.3993 0
M  V30 11134 H 1045.62 3.88476 3.92162 0
M  V30 11135 H 1046.1 2.19249 3.80561 0
M  V30 11136 H 1046.7 3.35952 2.60799 0
M  V30 11137 N 1045.02 -0.694098 1.41492 0
M  V30 11138 C 1046.43 -1.00487 1.23994 0
M  V30 11139 C 1046.63 -2.01078 0.130346 0
M  V30 11140 O 1045.69 -2.47403 -0.504775 0
M  V30 11141 C 1047 -1.52808 2.58979 0
M  V30 11142 C 1048.55 -1.64684 2.66173 0
M  V30 11143 C 1049.02 -2.20406 4.01479 0
M  V30 11144 N 1050.52 -2.27765 4.03333 0
M  V30 11145 C 1051.25 -2.7191 5.04829 0
M  V30 11146 N 1050.75 -3.1565 6.16714 0
M  V30 11147 N 1052.54 -2.71487 4.9219 0
M  V30 11148 H 1044.69 -0.027746 2.12382 0
M  V30 11149 H 1046.95 -0.0748741 0.945039 0
M  V30 11150 H 1046.66 -0.863519 3.40934 0
M  V30 11151 H 1046.53 -2.50998 2.81566 0
M  V30 11152 H 1048.92 -2.30251 1.84576 0
M  V30 11153 H 1049 -0.65035 2.47395 0
M  V30 11154 H 1048.65 -1.55454 4.83525 0
M  V30 11155 H 1048.58 -3.2081 4.17599 0
M  V30 11156 H 1051.07 -1.96899 3.22551 0
M  V30 11157 H 1051.38 -3.47966 6.90029 0
M  V30 11158 H 1049.72 -3.13555 6.20248 0
M  V30 11159 H 1052.92 -2.36666 4.03865 0
M  V30 11160 H 1053.09 -3.05573 5.71427 0
M  V30 11161 N 1046.49 -1.27344 -0.928501 0
M  V30 11162 C 1047.72 -1.16278 -1.70772 0
M  V30 11163 C 1048.13 0.283131 -1.8707 0
M  V30 11164 O 1047.48 1.20466 -1.38685 0
M  V30 11165 C 1047.54 -1.77313 -3.1273 0
M  V30 11166 C 1047.2 -3.26488 -3.19773 0
M  V30 11167 C 1048.2 -4.23133 -3.02083 0
M  V30 11168 C 1045.88 -3.67182 -3.42757 0
M  V30 11169 C 1047.88 -5.5845 -3.07267 0
M  V30 11170 C 1045.56 -5.02629 -3.47574 0
M  V30 11171 C 1046.56 -5.98072 -3.29847 0
M  V30 11172 O 1046.25 -7.3105 -3.34397 0
M  V30 11173 H 1045.98 -0.405215 -0.541089 0
M  V30 11174 H 1048.54 -1.68707 -1.17163 0
M  V30 11175 H 1046.77 -1.19361 -3.67818 0
M  V30 11176 H 1048.46 -1.60972 -3.72616 0
M  V30 11177 H 1049.22 -3.93031 -2.84168 0
M  V30 11178 H 1045.1 -2.93369 -3.55606 0
M  V30 11179 H 1048.64 -6.32924 -2.93348 0
M  V30 11180 H 1044.54 -5.32387 -3.65013 0
M  V30 11181 H 1045.31 -7.39488 -3.50857 0
M  V30 11182 N 1047.97 1.13488 -1.09353 0
M  V30 11183 C 1048.94 2.17066 -0.735863 0
M  V30 11184 C 1049.94 1.59086 0.234181 0
M  V30 11185 O 1051.13 1.74196 0.012463 0
M  V30 11186 C 1048.26 3.40786 -0.0880975 0
M  V30 11187 H 1049.45 2.50221 -1.65316 0
M  V30 11188 H 1047 1.28304 -0.89263 0
M  V30 11189 H 1047.74 3.1322 0.840462 0
M  V30 11190 H 1047.52 3.8414 -0.786073 0
M  V30 11191 H 1049.01 4.17342 0.146775 0
M  V30 11192 N 1049.45 0.880621 1.30701 0
M  V30 11193 C 1050.4 0.342397 2.28246 0
M  V30 11194 C 1051.37 -0.565023 1.56194 0
M  V30 11195 O 1052.55 -0.494377 1.84284 0
M  V30 11196 C 1049.69 -0.440859 3.42272 0
M  V30 11197 C 1048.81 0.495284 4.29151 0
M  V30 11198 C 1047.94 -0.303141 5.30334 0
M  V30 11199 C 1046.98 0.628751 6.08862 0
M  V30 11200 N 1046.12 -0.13408 7.01972 0
M  V30 11201 H 1050.96 1.17938 2.73669 0
M  V30 11202 H 1048.49 0.59296 1.34619 0
M  V30 11203 H 1050.45 -0.910854 4.07135 0
M  V30 11204 H 1049.08 -1.24245 2.97931 0
M  V30 11205 H 1048.13 1.08376 3.64635 0
M  V30 11206 H 1049.45 1.2094 4.83916 0
M  V30 11207 H 1048.6 -0.835181 6.00924 0
M  V30 11208 H 1047.34 -1.05049 4.76252 0
M  V30 11209 H 1046.34 1.17246 5.37153 0
M  V30 11210 H 1047.57 1.37512 6.65032 0
M  V30 11211 H 1045.52 -0.864046 6.50285 0
M  V30 11212 H 1045.43 0.520486 7.54206 0
M  V30 11213 H 1046.7 -0.647005 7.7681 0
M  V30 11214 N 1050.93 -1.4397 0.641131 0
M  V30 11215 C 1052.17 -2.03826 0.153071 0
M  V30 11216 C 1052.53 -1.4941 -1.20585 0
M  V30 11217 O 1053.73 -2.00832 -1.78661 0
M  V30 11218 C 1052.01 -3.57085 0.149914 0
M  V30 11219 S 1053.56 -4.37956 -0.272065 0
M  V30 11220 H 1050.38 -0.70793 0.0659981 0
M  V30 11221 H 1052.98 -1.76211 0.846761 0
M  V30 11222 H 1051.69 -3.94194 1.14188 0
M  V30 11223 H 1051.22 -3.89326 -0.564703 0
M  V30 11224 H 1053.23 -4.72542 -1.5139 0
M  V30 11225 N 1052.41 -0.382291 -1.52893 0
M  V30 11226 C 1053.66 0.203342 -2.00672 0
M  V30 11227 C 1053.97 1.48487 -1.27322 0
M  V30 11228 O 1055.18 2.15013 -1.65776 0
M  V30 11229 C 1053.63 0.412922 -3.57523 0
M  V30 11230 C 1053.24 -0.854949 -4.39767 0
M  V30 11231 C 1054.98 0.955301 -4.13611 0
M  V30 11232 C 1052.89 -0.614033 -5.88204 0
M  V30 11233 H 1051.82 0.0797635 -0.749769 0
M  V30 11234 H 1054.47 -0.50361 -1.76454 0
M  V30 11235 H 1052.85 1.18155 -3.77962 0
M  V30 11236 H 1054.03 -1.62765 -4.31096 0
M  V30 11237 H 1052.34 -1.32176 -3.94865 0
M  V30 11238 H 1054.94 1.15114 -5.22162 0
M  V30 11239 H 1055.28 1.92233 -3.69259 0
M  V30 11240 H 1055.82 0.24642 -3.97036 0
M  V30 11241 H 1052.55 -1.55187 -6.36865 0
M  V30 11242 H 1052.07 0.119865 -5.9968 0
M  V30 11243 H 1053.75 -0.245895 -6.46533 0
M  V30 11244 N 1053.89 1.57202 -0.111913 0
M  V30 11245 C 1054.82 2.17957 0.837683 0
M  V30 11246 C 1055.8 1.1176 1.28233 0
M  V30 11247 O 1056.98 1.39967 1.34621 0
M  V30 11248 C 1054.11 2.77333 2.09054 0
M  V30 11249 C 1053.07 3.8905 1.78393 0
M  V30 11250 C 1052.39 4.35203 3.10649 0
M  V30 11251 C 1053.69 5.11477 1.05775 0
M  V30 11252 H 1055.39 2.9756 0.331441 0
M  V30 11253 H 1052.93 1.43131 0.157979 0
M  V30 11254 H 1054.88 3.18492 2.75936 0
M  V30 11255 H 1053.61 1.95009 2.6199 0
M  V30 11256 H 1052.27 3.48456 1.13903 0
M  V30 11257 H 1051.92 3.49747 3.61506 0
M  V30 11258 H 1051.62 5.10534 2.9091 0
M  V30 11259 H 1053.14 4.79007 3.78661 0
M  V30 11260 H 1054.55 5.497 1.62798 0
M  V30 11261 H 1052.95 5.92346 0.961573 0
M  V30 11262 H 1054.02 4.84881 0.043297 0
M  V30 11263 N 1055.36 -0.161842 1.56767 0
M  V30 11264 C 1056.3 -1.22927 1.9226 0
M  V30 11265 C 1057.27 -1.42309 0.786562 0
M  V30 11266 O 1058.46 -1.57163 1.04078 0
M  V30 11267 C 1055.59 -2.59069 2.18177 0
M  V30 11268 C 1054.63 -2.56368 3.40849 0
M  V30 11269 S 1055.46 -2.04518 4.94907 0
M  V30 11270 C 1056.62 -3.42418 5.23928 0
M  V30 11271 H 1056.85 -0.926377 2.82499 0
M  V30 11272 H 1054.39 -0.366822 1.49979 0
M  V30 11273 H 1056.34 -3.37421 2.33789 0
M  V30 11274 H 1055.01 -2.86554 1.28629 0
M  V30 11275 H 1054.2 -3.56551 3.56213 0
M  V30 11276 H 1053.8 -1.86116 3.24402 0
M  V30 11277 H 1056.09 -4.38461 5.16486 0
M  V30 11278 H 1057.04 -3.3192 6.25487 0
M  V30 11279 H 1057.44 -3.38868 4.51474 0
M  V30 11280 N 1056.84 -1.516 -0.430713 0
M  V30 11281 C 1057.75 -1.76247 -1.54836 0
M  V30 11282 C 1058.77 -0.646985 -1.61524 0
M  V30 11283 O 1059.94 -0.929987 -1.78643 0
M  V30 11284 C 1057.01 -1.88833 -2.90763 0
M  V30 11285 C 1056.07 -3.12701 -2.94137 0
M  V30 11286 C 1055.3 -3.24676 -4.23581 0
M  V30 11287 O 1055.53 -2.42429 -5.16318 0
M  V30 11288 O 1054.46 -4.17697 -4.33374 0
M  V30 11289 H 1058.29 -2.71069 -1.3695 0
M  V30 11290 H 1055.87 -1.36182 -0.614396 0
M  V30 11291 H 1057.75 -1.99057 -3.71422 0
M  V30 11292 H 1056.43 -0.971987 -3.08762 0
M  V30 11293 H 1055.33 -3.0795 -2.1241 0
M  V30 11294 H 1056.67 -4.04045 -2.81084 0
M  V30 11295 N 1058.32 0.686584 -1.41858 0
M  V30 11296 C 1059.27 1.82167 -1.4463 0
M  V30 11297 C 1060.26 1.66286 -0.323313 0
M  V30 11298 O 1061.47 1.73038 -0.495773 0
M  V30 11299 H 1057.84 0.600454 -0.452724 0
M  V30 11300 H 1059.81 1.76947 -2.40276 0
M  V30 11301 C 1058.56 3.20248 -1.35412 0
M  V30 11302 H 1057.89 3.33089 -2.21115 0
M  V30 11303 H 1059.33 3.99723 -1.41413 0
M  V30 11304 C 1057.78 3.36832 -0.0674972 0
M  V30 11305 O 1058.31 3.91845 0.884325 0
M  V30 11306 N 1056.52 2.90598 0.011519 0
M  V30 11307 H 1056.07 2.46016 -0.76381 0
M  V30 11308 H 1056.03 3.02072 0.871774 0
M  V30 11309 N 1059.8 1.27835 0.921735 0
M  V30 11310 C 1061.02 1.17465 1.70929 0
M  V30 11311 C 1061.45 -0.264171 1.86236 0
M  V30 11312 O 1060.81 -1.19124 1.36671 0
M  V30 11313 C 1060.85 1.8697 3.08342 0
M  V30 11314 O 1059.96 1.17173 3.95404 0
M  V30 11315 H 1059.3 0.408206 0.523702 0
M  V30 11316 H 1061.83 1.69013 1.15307 0
M  V30 11317 H 1061.84 1.94564 3.58621 0
M  V30 11318 H 1060.51 2.91633 2.96518 0
M  V30 11319 H 1059.09 1.17688 3.53842 0
M  V30 11320 N 1061.28 -1.12907 1.09954 0
M  V30 11321 C 1062.69 -1.65847 0.857417 0
M  V30 11322 C 1063.04 -1.86372 -0.613176 0
M  V30 11323 O 1062.16 -1.58654 -1.47166 0
M  V30 11324 C 1062.76 -3.01269 1.54991 0
M  V30 11325 C 1061.32 -3.51179 1.35462 0
M  V30 11326 C 1060.46 -2.26307 1.60251 0
M  V30 11327 H 1063.41 -0.96755 1.25794 0
M  V30 11328 H 1063.44 -3.675 0.986091 0
M  V30 11329 H 1062.95 -2.86299 2.6202 0
M  V30 11330 H 1061.05 -3.71343 0.305742 0
M  V30 11331 H 1061.16 -4.30955 2.09318 0
M  V30 11332 H 1059.53 -2.33167 1.02494 0
M  V30 11333 H 1060.31 -2.13896 2.68521 0
M  V30 11334 N 1062.75 -0.88754 -1.30232 0
M  V30 11335 C 1064 -0.506277 -1.95656 0
M  V30 11336 C 1064.32 0.948191 -1.70395 0
M  V30 11337 O 1063.59 1.66701 -1.02895 0
M  V30 11338 H 1062.17 -0.184235 -0.723924 0
M  V30 11339 H 1064.83 -1.13118 -1.58715 0
M  V30 11340 H 1063.93 -0.678673 -3.04632 0
M  V30 11341 N 1064.23 1.43628 -0.648757 0
M  V30 11342 C 1065.2 2.29172 0.0360713 0
M  V30 11343 C 1066.2 1.41974 0.754976 0
M  V30 11344 O 1067.39 1.63654 0.5969 0
M  V30 11345 C 1064.52 3.23942 1.0618 0
M  V30 11346 H 1065.71 2.91214 -0.716544 0
M  V30 11347 H 1063.26 1.50833 -0.409759 0
M  V30 11348 H 1064 2.66786 1.8438 0
M  V30 11349 H 1063.78 3.88223 0.550016 0
M  V30 11350 H 1065.27 3.8816 1.54019 0
M  V30 11351 N 1065.71 0.390394 1.52688 0
M  V30 11352 C 1066.99 -0.249068 1.94008 0
M  V30 11353 C 1067.37 -1.64263 1.32593 0
M  V30 11354 O 1066.72 -2.23086 0.494448 0
M  V30 11355 C 1066.93 -0.274318 3.4792 0
M  V30 11356 C 1068.27 -0.502743 4.21613 0
M  V30 11357 O 1069.3 -0.35448 3.54432 0
M  V30 11358 O 1068.16 -0.79334 5.40711 0
M  V30 11359 H 1065.25 -0.155116 0.812323 0
M  V30 11360 H 1067.8 0.44498 1.63762 0
M  V30 11361 H 1066.57 0.701766 3.84956 0
M  V30 11362 H 1066.19 -1.01324 3.84473 0
M  V30 11363 N 1067.19 -1.57141 0.120249 0
M  V30 11364 C 1068.44 -1.95238 -0.537449 0
M  V30 11365 C 1068.76 -1.00361 -1.66607 0
M  V30 11366 O 1068.02 -0.0277306 -1.9568 0
M  V30 11367 C 1068.32 -3.39745 -1.10941 0
M  V30 11368 C 1067.98 -4.50785 -0.102012 0
M  V30 11369 C 1066.65 -4.80882 0.174994 0
M  V30 11370 C 1069 -5.17913 0.584462 0
M  V30 11371 C 1066.33 -5.75424 1.14474 0
M  V30 11372 C 1068.68 -6.13497 1.54284 0
M  V30 11373 C 1067.34 -6.41987 1.82782 0
M  V30 11374 H 1066.61 -0.714425 -0.196666 0
M  V30 11375 H 1069.26 -1.90438 0.201418 0
M  V30 11376 H 1067.56 -3.41246 -1.92506 0
M  V30 11377 H 1069.26 -3.66536 -1.62642 0
M  V30 11378 H 1065.85 -4.27342 -0.328097 0
M  V30 11379 H 1070.03 -4.94815 0.383625 0
M  V30 11380 H 1065.29 -5.95801 1.37226 0
M  V30 11381 H 1069.46 -6.64598 2.08044 0
M  V30 11382 H 1067.09 -7.15052 2.5808 0
M  V30 11383 N 1068.67 0.153526 -1.5685 0
M  V30 11384 C 1069.58 1.20932 -2.01029 0
M  V30 11385 C 1070.59 1.47401 -0.924598 0
M  V30 11386 O 1071.77 1.592 -1.23359 0
M  V30 11387 C 1068.83 2.52438 -2.37647 0
M  V30 11388 C 1067.89 2.33673 -3.60132 0
M  V30 11389 C 1067.13 3.58909 -3.94994 0
M  V30 11390 O 1067.35 4.64823 -3.30599 0
M  V30 11391 O 1066.28 3.5196 -4.8827 0
M  V30 11392 H 1070.11 0.864273 -2.91143 0
M  V30 11393 H 1067.7 0.361755 -1.44954 0
M  V30 11394 H 1069.58 3.29981 -2.62088 0
M  V30 11395 H 1068.25 2.86486 -1.5069 0
M  V30 11396 H 1067.16 1.54102 -3.40886 0
M  V30 11397 H 1068.49 2.04544 -4.47686 0
M  V30 11398 N 1070.14 1.51827 0.422667 0
M  V30 11399 C 1071.39 1.65464 1.17258 0
M  V30 11400 C 1071.72 0.376834 1.90509 0
M  V30 11401 O 1071 -0.624219 1.84211 0
M  V30 11402 C 1071.28 2.86776 2.17788 0
M  V30 11403 C 1071.13 4.24571 1.48523 0
M  V30 11404 C 1072.45 3.03603 3.18611 0
M  V30 11405 H 1069.57 0.602169 0.424925 0
M  V30 11406 H 1072.21 1.84349 0.45996 0
M  V30 11407 H 1070.36 2.70806 2.78561 0
M  V30 11408 H 1072.04 4.5224 0.909739 0
M  V30 11409 H 1070.28 4.26595 0.787354 0
M  V30 11410 H 1070.95 5.05475 2.2181 0
M  V30 11411 H 1073.43 3.18381 2.67904 0
M  V30 11412 H 1072.3 3.90022 3.8623 0
M  V30 11413 H 1072.56 2.16318 3.85563 0
M  V30 11414 N 1071.62 -0.679052 1.4222 0
M  V30 11415 C 1072.87 -1.43978 1.43673 0
M  V30 11416 C 1073.22 -1.92333 0.0506711 0
M  V30 11417 O 1072.52 -1.67715 -0.926406 0
M  V30 11418 C 1072.71 -2.65528 2.39227 0
M  V30 11419 C 1072.54 -2.29065 3.86987 0
M  V30 11420 C 1071.31 -2.1863 4.55553 0
M  V30 11421 C 1073.51 -1.90983 4.77525 0
M  V30 11422 N 1071.49 -1.75227 5.88361 0
M  V30 11423 C 1072.86 -1.58465 5.99407 0
M  V30 11424 C 1074.92 -1.77938 4.65019 0
M  V30 11425 C 1073.62 -1.14212 7.10175 0
M  V30 11426 C 1075.64 -1.35089 5.75765 0
M  V30 11427 C 1075.01 -1.03493 6.96756 0
M  V30 11428 H 1071.11 -0.523503 0.58092 0
M  V30 11429 H 1073.69 -0.784043 1.78216 0
M  V30 11430 H 1071.86 -3.28797 2.06753 0
M  V30 11431 H 1073.59 -3.32096 2.31288 0
M  V30 11432 H 1070.35 -2.37562 4.09709 0
M  V30 11433 H 1070.77 -1.5596 6.58791 0
M  V30 11434 H 1075.41 -2.01013 3.71959 0
M  V30 11435 H 1073.13 -0.89882 8.03086 0
M  V30 11436 H 1076.72 -1.25522 5.68098 0
M  V30 11437 H 1075.6 -0.708396 7.80994 0
M  V30 11438 N 1073.1 -1.28322 -0.914942 0
M  V30 11439 C 1074.35 -1.15407 -1.66396 0
M  V30 11440 C 1074.68 0.297587 -1.9221 0
M  V30 11441 O 1073.93 1.23299 -1.51973 0
M  V30 11442 C 1074.23 -1.89663 -3.02924 0
M  V30 11443 C 1073.9 -3.39464 -2.96774 0
M  V30 11444 C 1072.56 -3.80321 -2.94804 0
M  V30 11445 C 1074.91 -4.3499 -2.87111 0
M  V30 11446 C 1072.24 -5.15046 -2.8097 0
M  V30 11447 C 1074.59 -5.69788 -2.74818 0
M  V30 11448 C 1073.25 -6.09921 -2.71205 0
M  V30 11449 H 1072.52 -0.422303 -0.608885 0
M  V30 11450 H 1075.17 -1.59082 -1.06607 0
M  V30 11451 H 1073.48 -1.38533 -3.66491 0
M  V30 11452 H 1075.17 -1.77087 -3.59779 0
M  V30 11453 H 1071.76 -3.06979 -2.99101 0
M  V30 11454 H 1075.95 -4.04389 -2.87721 0
M  V30 11455 H 1071.2 -5.45271 -2.76568 0
M  V30 11456 H 1075.38 -6.43469 -2.66309 0
M  V30 11457 H 1073 -7.14267 -2.60243 0
M  V30 11458 N 1074.58 1.12322 -1.10551 0
M  V30 11459 C 1075.81 1.87407 -0.869607 0
M  V30 11460 C 1076.22 1.79976 0.58356 0
M  V30 11461 O 1075.56 1.1725 1.41415 0
M  V30 11462 C 1075.62 3.37401 -1.24099 0
M  V30 11463 C 1075.29 3.68607 -2.70144 0
M  V30 11464 C 1076.28 3.66869 -3.68379 0
M  V30 11465 C 1073.97 3.97903 -3.06559 0
M  V30 11466 C 1075.96 3.93987 -5.01052 0
M  V30 11467 C 1073.65 4.24681 -4.39419 0
M  V30 11468 C 1074.65 4.2271 -5.36475 0
M  V30 11469 O 1074.33 4.48823 -6.66943 0
M  V30 11470 H 1074.07 0.59978 -0.311834 0
M  V30 11471 H 1076.62 1.43037 -1.4741 0
M  V30 11472 H 1074.85 3.82332 -0.579606 0
M  V30 11473 H 1076.54 3.93833 -0.982378 0
M  V30 11474 H 1077.31 3.44297 -3.41591 0
M  V30 11475 H 1073.18 3.98578 -2.31638 0
M  V30 11476 H 1076.73 3.92364 -5.76798 0
M  V30 11477 H 1072.63 4.46727 -4.65945 0
M  V30 11478 H 1073.39 4.66436 -6.72592 0
M  V30 11479 N 1076.06 0.894434 1.2976 0
M  V30 11480 C 1077.33 0.437365 1.90648 0
M  V30 11481 C 1077.71 -1.08261 1.81226 0
M  V30 11482 O 1077.06 -1.92213 1.23557 0
M  V30 11483 C 1077.27 0.946047 3.35933 0
M  V30 11484 C 1078.62 0.986621 4.12978 0
M  V30 11485 O 1079.64 0.893356 3.44815 0
M  V30 11486 O 1078.5 1.12591 5.34776 0
M  V30 11487 H 1075.6 0.135436 0.815835 0
M  V30 11488 H 1078.14 0.983955 1.38262 0
M  V30 11489 H 1076.91 1.98998 3.3692 0
M  V30 11490 H 1076.54 0.379164 3.95788 0
M  V30 11491 N 1077.53 -1.43282 0.656365 0
M  V30 11492 C 1078.78 -2.01378 0.170702 0
M  V30 11493 C 1079.1 -1.52063 -1.22073 0
M  V30 11494 O 1078.37 -0.73456 -1.81607 0
M  V30 11495 H 1076.95 -0.744577 0.0601168 0
M  V30 11496 H 1079.62 -1.75449 0.848739 0
M  V30 11497 H 1078.71 -3.11701 0.157745 0
M  V30 11498 N 1079.01 -0.398486 -1.52479 0
M  V30 11499 C 1080.26 0.181019 -2.0199 0
M  V30 11500 C 1080.59 1.45691 -1.28405 0
M  V30 11501 O 1079.87 1.90607 -0.387207 0
M  V30 11502 C 1080.15 0.439587 -3.57407 0
M  V30 11503 C 1080 -0.85223 -4.41653 0
M  V30 11504 C 1081.32 1.2263 -4.2267 0
M  V30 11505 H 1078.44 0.0643164 -0.734188 0
M  V30 11506 H 1081.08 -0.52986 -1.82462 0
M  V30 11507 H 1079.23 1.04516 -3.74177 0
M  V30 11508 H 1080.91 -1.48879 -4.36615 0
M  V30 11509 H 1079.15 -1.46555 -4.08294 0
M  V30 11510 H 1079.82 -0.625839 -5.48441 0
M  V30 11511 H 1082.3 0.713722 -4.09933 0
M  V30 11512 H 1081.17 1.37596 -5.31374 0
M  V30 11513 H 1081.43 2.24403 -3.80914 0
M  V30 11514 N 1080.49 1.57075 -0.12858 0
M  V30 11515 C 1081.44 2.15816 0.818064 0
M  V30 11516 C 1082.41 1.08581 1.25696 0
M  V30 11517 O 1083.59 1.36535 1.33277 0
M  V30 11518 C 1080.73 2.76943 2.05905 0
M  V30 11519 C 1079.85 3.98514 1.66764 0
M  V30 11520 C 1078.98 4.47698 2.85902 0
M  V30 11521 C 1078.02 5.61778 2.43047 0
M  V30 11522 N 1077.16 6.05662 3.5513 0
M  V30 11523 H 1082 2.9638 0.310318 0
M  V30 11524 H 1079.53 1.46418 0.141472 0
M  V30 11525 H 1081.49 3.10519 2.78629 0
M  V30 11526 H 1080.12 1.99053 2.54122 0
M  V30 11527 H 1079.17 3.71038 0.838766 0
M  V30 11528 H 1080.49 4.81215 1.31277 0
M  V30 11529 H 1079.64 4.83233 3.66839 0
M  V30 11530 H 1078.38 3.63967 3.24622 0
M  V30 11531 H 1077.38 5.25838 1.60544 0
M  V30 11532 H 1078.61 6.47282 2.05433 0
M  V30 11533 H 1076.56 5.2487 3.93506 0
M  V30 11534 H 1076.47 6.83242 3.23598 0
M  V30 11535 H 1077.74 6.45838 4.36479 0
M  V30 11536 N 1081.97 -0.145205 1.5693 0
M  V30 11537 C 1083.22 -0.855955 1.82637 0
M  V30 11538 C 1083.53 -1.82255 0.710109 0
M  V30 11539 O 1084.74 -2.57758 0.852837 0
M  V30 11540 C 1083.19 -1.57278 3.23715 0
M  V30 11541 C 1082.8 -0.648507 4.43281 0
M  V30 11542 C 1084.55 -2.27021 3.58695 0
M  V30 11543 C 1082.45 -1.36706 5.75383 0
M  V30 11544 H 1081.38 -0.323385 0.68113 0
M  V30 11545 H 1084.03 -0.10869 1.83178 0
M  V30 11546 H 1082.42 -2.36574 3.17567 0
M  V30 11547 H 1083.59 0.109355 4.6067 0
M  V30 11548 H 1081.9 -0.0594029 4.16358 0
M  V30 11549 H 1084.5 -2.81423 4.54648 0
M  V30 11550 H 1084.84 -3.03598 2.8484 0
M  V30 11551 H 1085.38 -1.54642 3.66512 0
M  V30 11552 H 1082.12 -0.6431 6.52338 0
M  V30 11553 H 1081.64 -2.09759 5.61926 0
M  V30 11554 H 1083.32 -1.90748 6.18243 0
M  V30 11555 N 1083.45 -1.52049 -0.414609 0
M  V30 11556 C 1084.4 -1.7138 -1.50376 0
M  V30 11557 C 1085.38 -0.567692 -1.50553 0
M  V30 11558 O 1086.57 -0.824541 -1.56622 0
M  V30 11559 C 1083.7 -1.86291 -2.88358 0
M  V30 11560 C 1082.79 -3.06757 -2.9285 0
M  V30 11561 N 1083.18 -4.29557 -2.67048 0
M  V30 11562 C 1081.48 -3.06478 -3.24018 0
M  V30 11563 C 1082.18 -5.10988 -2.77968 0
M  V30 11564 N 1081.15 -4.46117 -3.10613 0
M  V30 11565 H 1084.96 -2.63972 -1.29213 0
M  V30 11566 H 1082.47 -1.50006 -0.622244 0
M  V30 11567 H 1084.47 -1.98256 -3.66743 0
M  V30 11568 H 1083.13 -0.948959 -3.10524 0
M  V30 11569 H 1084.14 -4.58122 -2.41546 0
M  V30 11570 H 1080.82 -2.24799 -3.51812 0
M  V30 11571 H 1082.21 -6.18806 -2.6178 0
M  V30 11572 N 1084.93 0.6715 -1.42579 0
M  V30 11573 C 1085.87 1.78496 -1.46314 0
M  V30 11574 C 1086.84 1.63091 -0.314743 0
M  V30 11575 O 1088.03 1.83597 -0.519292 0
M  V30 11576 C 1085.17 3.16548 -1.37447 0
M  V30 11577 C 1084.28 3.43216 -2.62348 0
M  V30 11578 C 1083.42 4.71014 -2.456 0
M  V30 11579 C 1082.45 4.90728 -3.65859 0
M  V30 11580 N 1081.59 6.09769 -3.48032 0
M  V30 11581 H 1086.43 1.74638 -2.41466 0
M  V30 11582 H 1083.97 0.852491 -1.19879 0
M  V30 11583 H 1085.93 3.96329 -1.30303 0
M  V30 11584 H 1084.56 3.19522 -0.458891 0
M  V30 11585 H 1083.61 2.57664 -2.79846 0
M  V30 11586 H 1084.92 3.53675 -3.51732 0
M  V30 11587 H 1084.07 5.58892 -2.3606 0
M  V30 11588 H 1082.81 4.62843 -1.53712 0
M  V30 11589 H 1081.82 4.01291 -3.75827 0
M  V30 11590 H 1083.04 5.00741 -4.58732 0
M  V30 11591 H 1080.99 6.02765 -2.58864 0
M  V30 11592 H 1080.91 6.21104 -4.31005 0
M  V30 11593 H 1082.17 7.00317 -3.42311 0
M  V30 11594 N 1086.4 1.28806 0.908124 0
M  V30 11595 C 1087.63 1.19153 1.69146 0
M  V30 11596 C 1088.05 -0.249056 1.8715 0
M  V30 11597 O 1087.4 -1.16772 1.40251 0
M  V30 11598 C 1087.45 1.89167 3.08055 0
M  V30 11599 O 1087.18 3.27599 2.90879 0
M  V30 11600 C 1088.68 1.85886 4.02444 0
M  V30 11601 H 1085.9 0.413359 0.528559 0
M  V30 11602 H 1088.44 1.7003 1.13622 0
M  V30 11603 H 1086.6 1.42146 3.60379 0
M  V30 11604 H 1087.01 3.62743 3.78837 0
M  V30 11605 H 1088.48 2.39454 4.97359 0
M  V30 11606 H 1088.96 0.832483 4.31238 0
M  V30 11607 H 1089.57 2.32612 3.5605 0
M  V30 11608 N 1087.88 -1.11734 1.11145 0
M  V30 11609 C 1088.79 -2.21267 0.779607 0
M  V30 11610 C 1089.81 -1.72526 -0.225986 0
M  V30 11611 O 1090.98 -2.01302 -0.0629166 0
M  V30 11612 C 1088.05 -3.45973 0.22435 0
M  V30 11613 C 1087.11 -4.09518 1.28816 0
M  V30 11614 C 1086.34 -5.28271 0.7593 0
M  V30 11615 O 1086.57 -5.68912 -0.411725 0
M  V30 11616 O 1085.5 -5.82322 1.52266 0
M  V30 11617 H 1089.33 -2.5206 1.6941 0
M  V30 11618 H 1086.91 -1.20211 0.887115 0
M  V30 11619 H 1088.79 -4.21322 -0.0810921 0
M  V30 11620 H 1087.47 -3.1684 -0.662891 0
M  V30 11621 H 1086.37 -3.35915 1.64657 0
M  V30 11622 H 1087.71 -4.42824 2.14868 0
M  V30 11623 N 1089.36 -0.901303 -1.29284 0
M  V30 11624 C 1090.64 -0.44747 -1.90413 0
M  V30 11625 C 1091.02 1.07298 -1.81797 0
M  V30 11626 O 1090.36 1.91555 -1.24574 0
M  V30 11627 C 1090.57 -0.963849 -3.35427 0
M  V30 11628 C 1091.92 -1.00851 -4.12449 0
M  V30 11629 O 1092.95 -0.91163 -3.44337 0
M  V30 11630 O 1091.81 -1.15426 -5.34171 0
M  V30 11631 H 1088.9 -0.13976 -0.815105 0
M  V30 11632 H 1091.45 -0.991274 -1.37738 0
M  V30 11633 H 1090.22 -2.00782 -3.3586 0
M  V30 11634 H 1089.84 -0.400149 -3.95581 0
M  V30 11635 N 1090.84 1.42931 -0.663954 0
M  V30 11636 C 1092.08 2.01683 -0.181738 0
M  V30 11637 C 1092.41 1.52437 1.20802 0
M  V30 11638 O 1091.67 0.71254 1.82267 0
M  V30 11639 C 1091.97 3.57072 -0.153163 0
M  V30 11640 C 1091.63 4.25706 -1.48612 0
M  V30 11641 C 1090.29 4.4417 -1.85111 0
M  V30 11642 C 1092.65 4.6448 -2.36448 0
M  V30 11643 C 1089.97 4.98677 -3.09092 0
M  V30 11644 C 1092.33 5.20362 -3.5973 0
M  V30 11645 C 1090.99 5.37041 -3.96412 0
M  V30 11646 H 1090.26 0.73801 -0.0665026 0
M  V30 11647 H 1092.91 1.71264 -0.856791 0
M  V30 11648 H 1091.21 3.87095 0.605372 0
M  V30 11649 H 1092.91 4.00299 0.236981 0
M  V30 11650 H 1089.5 4.11686 -1.19215 0
M  V30 11651 H 1093.68 4.49898 -2.09537 0
M  V30 11652 H 1088.94 5.09776 -3.37547 0
M  V30 11653 H 1093.11 5.49352 -4.28001 0
M  V30 11654 H 1090.74 5.79042 -4.92559 0
M  V30 11655 N 1092.32 0.406567 1.52266 0
M  V30 11656 C 1093.56 -0.171391 2.00971 0
M  V30 11657 C 1093.88 -1.46443 1.29668 0
M  V30 11658 O 1095.08 -2.12348 1.69176 0
M  V30 11659 C 1093.54 -0.35599 3.58135 0
M  V30 11660 C 1093.15 0.924803 4.38351 0
M  V30 11661 C 1094.89 -0.889378 4.15079 0
M  V30 11662 C 1092.8 0.707534 5.87152 0
M  V30 11663 H 1091.73 -0.0678253 0.750943 0
M  V30 11664 H 1094.38 0.531619 1.7563 0
M  V30 11665 H 1092.76 -1.12127 3.79794 0
M  V30 11666 H 1093.94 1.69603 4.28452 0
M  V30 11667 H 1092.25 1.38442 3.92712 0
M  V30 11668 H 1094.85 -1.06792 5.23927 0
M  V30 11669 H 1095.19 -1.86334 3.7227 0
M  V30 11670 H 1095.72 -0.183224 3.97378 0
M  V30 11671 H 1092.46 1.65299 6.34316 0
M  V30 11672 H 1091.98 -0.024446 5.99795 0
M  V30 11673 H 1093.66 0.348721 6.4606 0
M  V30 11674 N 1093.79 -1.57004 0.136909 0
M  V30 11675 C 1094.73 -2.13355 -0.837405 0
M  V30 11676 C 1095.74 -1.08053 -1.21772 0
M  V30 11677 O 1096.93 -1.35365 -1.16355 0
M  V30 11678 C 1094.03 -2.63302 -2.13366 0
M  V30 11679 C 1093.2 -3.92896 -1.92228 0
M  V30 11680 C 1092.26 -4.28257 -3.05749 0
M  V30 11681 O 1091.29 -4.96761 -2.7788 0
M  V30 11682 N 1092.49 -3.87021 -4.3266 0
M  V30 11683 H 1095.25 -2.9758 -0.35586 0
M  V30 11684 H 1092.81 -1.61832 -0.0469758 0
M  V30 11685 H 1094.81 -2.83977 -2.88339 0
M  V30 11686 H 1093.38 -1.83858 -2.52814 0
M  V30 11687 H 1092.6 -3.80949 -1.01349 0
M  V30 11688 H 1093.88 -4.776 -1.75431 0
M  V30 11689 H 1093.28 -3.31804 -4.58173 0
M  V30 11690 H 1091.84 -4.12768 -5.04446 0
M  V30 11691 N 1095.27 0.136881 -1.57004 0
M  V30 11692 C 1096.52 0.849031 -1.84172 0
M  V30 11693 C 1096.85 1.80359 -0.720027 0
M  V30 11694 O 1096.13 1.92538 0.275584 0
M  V30 11695 C 1096.41 1.61465 -3.21871 0
M  V30 11696 C 1096.26 0.680902 -4.44616 0
M  V30 11697 C 1097.58 2.57488 -3.56914 0
M  V30 11698 H 1094.7 0.307209 -0.669919 0
M  V30 11699 H 1097.34 0.113862 -1.89659 0
M  V30 11700 H 1095.49 2.24137 -3.17325 0
M  V30 11701 H 1097.16 0.0644094 -4.61255 0
M  V30 11702 H 1095.41 -0.00883629 -4.33799 0
M  V30 11703 H 1096.08 1.25286 -5.37594 0
M  V30 11704 H 1098.55 2.0493 -3.62136 0
M  V30 11705 H 1097.43 3.08101 -4.54274 0
M  V30 11706 H 1097.69 3.39321 -2.83397 0
M  V30 11707 N 1096.75 1.52266 0.40654 0
M  V30 11708 C 1098 1.6568 1.15035 0
M  V30 11709 C 1098.31 0.394135 1.91588 0
M  V30 11710 O 1099.52 0.408113 2.68415 0
M  V30 11711 C 1097.97 2.92725 2.0938 0
M  V30 11712 C 1097.58 4.26108 1.38332 0
M  V30 11713 C 1099.33 3.15502 2.84004 0
M  V30 11714 C 1097.23 5.44275 2.3134 0
M  V30 11715 H 1096.16 0.61719 0.43312 0
M  V30 11716 H 1098.81 1.78755 0.414598 0
M  V30 11717 H 1097.2 2.73355 2.86519 0
M  V30 11718 H 1098.37 4.55971 0.665396 0
M  V30 11719 H 1096.69 4.09454 0.757384 0
M  V30 11720 H 1099.28 4.00964 3.5374 0
M  V30 11721 H 1099.63 2.29842 3.471 0
M  V30 11722 H 1100.16 3.35357 2.13964 0
M  V30 11723 H 1096.9 6.3229 1.72887 0
M  V30 11724 H 1096.42 5.18749 3.01098 0
M  V30 11725 H 1098.1 5.77457 2.91809 0
M  V30 11726 N 1098.23 -0.663929 1.42933 0
M  V30 11727 C 1099.14 -1.80643 1.49683 0
M  V30 11728 C 1100.15 -1.69694 0.38472 0
M  V30 11729 O 1101.33 -1.91052 0.637256 0
M  V30 11730 C 1098.4 -3.16858 1.4072 0
M  V30 11731 C 1097.46 -3.39684 2.62514 0
M  V30 11732 C 1096.69 -4.69399 2.53969 0
M  V30 11733 O 1096.91 -5.48037 1.58152 0
M  V30 11734 O 1095.85 -4.93709 3.44289 0
M  V30 11735 H 1099.67 -1.77903 2.46138 0
M  V30 11736 H 1097.26 -0.821059 1.24816 0
M  V30 11737 H 1099.14 -3.9812 1.38124 0
M  V30 11738 H 1097.81 -3.20211 0.473954 0
M  V30 11739 H 1096.72 -2.58227 2.70684 0
M  V30 11740 H 1098.05 -3.41169 3.54774 0
M  V30 11741 N 1099.71 -1.29285 -0.901281 0
M  V30 11742 C 1100.65 -1.1428 -2.00521 0
M  V30 11743 C 1101.62 -0.0365428 -1.6606 0
M  V30 11744 O 1102.81 -0.203771 -1.89709 0
M  V30 11745 C 1099.95 -0.823671 -3.35126 0
M  V30 11746 C 1099.06 -2.01021 -3.8238 0
M  V30 11747 C 1098.2 -1.6306 -5.05554 0
M  V30 11748 C 1097.24 -2.78304 -5.45173 0
M  V30 11749 N 1096.37 -2.4075 -6.59533 0
M  V30 11750 H 1101.21 -2.08729 -2.12688 0
M  V30 11751 H 1098.75 -1.0387 -1.04161 0
M  V30 11752 H 1100.71 -0.61934 -4.12577 0
M  V30 11753 H 1099.34 0.0839113 -3.22691 0
M  V30 11754 H 1098.39 -2.32629 -3.00978 0
M  V30 11755 H 1099.7 -2.8738 -4.07694 0
M  V30 11756 H 1098.86 -1.38906 -5.90584 0
M  V30 11757 H 1097.59 -0.738464 -4.82077 0
M  V30 11758 H 1096.6 -3.03142 -4.58678 0
M  V30 11759 H 1097.82 -3.68179 -5.70632 0
M  V30 11760 H 1095.77 -1.54022 -6.37662 0
M  V30 11761 H 1095.69 -3.20643 -6.84634 0
M  V30 11762 H 1096.96 -2.19912 -7.47836 0
M  V30 11763 N 1101.18 1.11143 -1.11736 0
M  V30 11764 C 1102.41 1.86745 -0.890727 0
M  V30 11765 C 1102.83 1.80315 0.55964 0
M  V30 11766 O 1102.18 1.18663 1.38656 0
M  V30 11767 C 1102.24 3.35436 -1.34779 0
M  V30 11768 O 1101.96 3.41738 -2.74129 0
M  V30 11769 C 1103.46 4.27935 -1.15702 0
M  V30 11770 H 1100.68 0.59044 -0.318781 0
M  V30 11771 H 1103.22 1.40549 -1.48547 0
M  V30 11772 H 1101.38 3.79125 -0.796425 0
M  V30 11773 H 1101.79 4.34347 -2.94012 0
M  V30 11774 H 1103.26 5.30494 -1.52579 0
M  V30 11775 H 1103.74 4.39093 -0.0968735 0
M  V30 11776 H 1104.35 3.90042 -1.69551 0
M  V30 11777 N 1102.66 0.908147 1.28804 0
M  V30 11778 C 1103.91 0.53734 1.94826 0
M  V30 11779 C 1104.23 -0.920962 1.71882 0
M  V30 11780 O 1103.5 -1.65043 1.05534 0
M  V30 11781 H 1102.08 0.195729 0.720902 0
M  V30 11782 H 1104.74 1.15628 1.56895 0
M  V30 11783 H 1103.84 0.727052 3.03513 0
M  V30 11784 N 1104.14 -1.42577 0.671525 0
M  V30 11785 C 1105.09 -2.30798 -0.00883676 0
M  V30 11786 C 1106.06 -1.4578 -0.796076 0
M  V30 11787 O 1107.24 -1.74617 -0.768987 0
M  V30 11788 C 1104.38 -3.31581 -0.956452 0
M  V30 11789 C 1103.5 -4.31691 -0.163381 0
M  V30 11790 C 1102.63 -5.19549 -1.10645 0
M  V30 11791 C 1101.67 -6.1134 -0.304876 0
M  V30 11792 N 1100.81 -6.91761 -1.20048 0
M  V30 11793 H 1105.65 -2.88426 0.749301 0
M  V30 11794 H 1103.18 -1.42074 0.381251 0
M  V30 11795 H 1105.14 -3.88539 -1.51966 0
M  V30 11796 H 1103.77 -2.75561 -1.68126 0
M  V30 11797 H 1102.82 -3.76879 0.516396 0
M  V30 11798 H 1104.14 -4.96683 0.459099 0
M  V30 11799 H 1103.29 -5.81223 -1.73969 0
M  V30 11800 H 1102.03 -4.54726 -1.76282 0
M  V30 11801 H 1101.03 -5.48738 0.341597 0
M  V30 11802 H 1102.26 -6.78211 0.347352 0
M  V30 11803 H 1100.2 -6.2957 -1.84331 0
M  V30 11804 H 1100.12 -7.53345 -0.633003 0
M  V30 11805 H 1101.39 -7.57924 -1.82129 0
M  V30 11806 N 1105.62 -0.414636 -1.52048 0
M  V30 11807 C 1106.84 0.161137 -2.06773 0
M  V30 11808 C 1107.27 1.37628 -1.2822 0
M  V30 11809 O 1106.63 1.78562 -0.313915 0
M  V30 11810 C 1106.67 0.48452 -3.5733 0
M  V30 11811 O 1105.78 1.57466 -3.81154 0
M  V30 11812 H 1105.12 0.0118003 -0.663895 0
M  V30 11813 H 1107.65 -0.589424 -1.95926 0
M  V30 11814 H 1107.66 0.741567 -4.01204 0
M  V30 11815 H 1106.33 -0.403733 -4.13936 0
M  V30 11816 H 1104.91 1.30935 -3.49157 0
M  V30 11817 N 1107.1 1.56929 -0.145233 0
M  V30 11818 C 1108.33 2.00141 0.51257 0
M  V30 11819 C 1108.73 1.0243 1.59075 0
M  V30 11820 O 1108.08 0.0130063 1.83695 0
M  V30 11821 C 1108.14 3.39785 1.17417 0
M  V30 11822 C 1107.8 4.56365 0.240801 0
M  V30 11823 C 1108.8 5.17183 -0.530847 0
M  V30 11824 C 1106.49 5.02093 0.144221 0
M  V30 11825 C 1108.48 6.22136 -1.38654 0
M  V30 11826 C 1106.17 6.06902 -0.71508 0
M  V30 11827 C 1107.16 6.66793 -1.47907 0
M  V30 11828 O 1106.85 7.69573 -2.32405 0
M  V30 11829 H 1106.58 0.661747 0.138085 0
M  V30 11830 H 1109.14 2.04037 -0.236269 0
M  V30 11831 H 1107.37 3.32722 1.97061 0
M  V30 11832 H 1109.06 3.67115 1.73152 0
M  V30 11833 H 1109.82 4.82754 -0.466256 0
M  V30 11834 H 1105.7 4.55206 0.728613 0
M  V30 11835 H 1109.25 6.68812 -1.98333 0
M  V30 11836 H 1105.14 6.40758 -0.78097 0
M  V30 11837 H 1105.91 7.86786 -2.25634 0
M  V30 11838 N 1108.58 -0.128553 1.57075 0
M  V30 11839 C 1109.8 -0.85245 1.88523 0
M  V30 11840 C 1110.22 -1.73886 0.735459 0
M  V30 11841 O 1109.58 -1.80114 -0.294113 0
M  V30 11842 C 1109.63 -1.69384 3.19361 0
M  V30 11843 O 1109.35 -0.84313 4.2991 0
M  V30 11844 C 1110.85 -2.52373 3.64449 0
M  V30 11845 H 1108.07 -0.245556 0.624454 0
M  V30 11846 H 1110.61 -0.115807 2.04172 0
M  V30 11847 H 1108.77 -2.38335 3.0541 0
M  V30 11848 H 1109.18 -1.42255 5.0484 0
M  V30 11849 H 1110.66 -3.06955 4.58784 0
M  V30 11850 H 1111.13 -3.29283 2.90636 0
M  V30 11851 H 1111.74 -1.88681 3.81155 0
M  V30 11852 N 1110.05 -1.5248 -0.398459 0
M  V30 11853 C 1110.98 -1.79549 -1.49279 0
M  V30 11854 C 1111.96 -0.647004 -1.57315 0
M  V30 11855 O 1113.15 -0.893661 -1.72416 0
M  V30 11856 C 1110.28 -1.95582 -2.86993 0
M  V30 11857 C 1109.23 -3.1123 -2.93803 0
M  V30 11858 C 1108.56 -3.12501 -4.33874 0
M  V30 11859 C 1109.86 -4.50485 -2.64312 0
M  V30 11860 H 1111.55 -2.71187 -1.26877 0
M  V30 11861 H 1109.1 -1.30492 -0.608924 0
M  V30 11862 H 1111.05 -2.13102 -3.63546 0
M  V30 11863 H 1109.78 -1.00625 -3.10712 0
M  V30 11864 H 1108.44 -2.93477 -2.19697 0
M  V30 11865 H 1108.08 -2.15245 -4.54619 0
M  V30 11866 H 1107.78 -3.90183 -4.39353 0
M  V30 11867 H 1109.31 -3.32164 -5.12347 0
M  V30 11868 H 1110.72 -4.68387 -3.30585 0
M  V30 11869 H 1109.12 -5.30163 -2.81153 0
M  V30 11870 H 1110.19 -4.57848 -1.59696 0
M  V30 11871 N 1111.53 0.65634 -1.43283 0
M  V30 11872 C 1112.48 1.76934 -1.48199 0
M  V30 11873 C 1113.45 1.62748 -0.332023 0
M  V30 11874 O 1114.63 1.83036 -0.538735 0
M  V30 11875 C 1111.77 3.15072 -1.40797 0
M  V30 11876 C 1110.89 3.40414 -2.65974 0
M  V30 11877 C 1110.02 4.68383 -2.50582 0
M  V30 11878 C 1109.06 4.8682 -3.71043 0
M  V30 11879 N 1108.2 6.06043 -3.5448 0
M  V30 11880 H 1113.04 1.72067 -2.43304 0
M  V30 11881 H 1110.57 0.839728 -1.20777 0
M  V30 11882 H 1112.53 3.94925 -1.345 0
M  V30 11883 H 1111.16 3.19017 -0.492754 0
M  V30 11884 H 1110.21 2.54681 -2.82563 0
M  V30 11885 H 1111.53 3.49925 -3.55463 0
M  V30 11886 H 1110.68 5.56357 -2.41975 0
M  V30 11887 H 1109.42 4.61187 -1.58612 0
M  V30 11888 H 1108.42 3.97282 -3.80062 0
M  V30 11889 H 1109.65 4.95847 -4.64017 0
M  V30 11890 H 1107.6 5.99985 -2.65242 0
M  V30 11891 H 1107.51 6.16498 -4.37568 0
M  V30 11892 H 1108.78 6.96647 -3.49719 0
M  V30 11893 N 1113.01 1.29761 0.894412 0
M  V30 11894 C 1114.23 1.21064 1.68399 0
M  V30 11895 C 1114.66 -0.224608 1.86754 0
M  V30 11896 O 1114.02 -1.16199 1.39167 0
M  V30 11897 C 1114.07 1.93468 3.04306 0
M  V30 11898 O 1113.17 1.25533 3.9283 0
M  V30 11899 H 1112.51 0.419223 0.514925 0
M  V30 11900 H 1115.04 1.71421 1.11696 0
M  V30 11901 H 1115.05 2.02127 3.54413 0
M  V30 11902 H 1113.73 2.97857 2.90265 0
M  V30 11903 H 1112.3 1.25168 3.51266 0
M  V30 11904 N 1114.49 -1.10549 1.12324 0
M  V30 11905 C 1115.4 -2.20428 0.803032 0
M  V30 11906 C 1116.41 -1.72756 -0.207674 0
M  V30 11907 O 1117.59 -2.01357 -0.0415623 0
M  V30 11908 C 1114.65 -3.45716 0.261032 0
M  V30 11909 C 1113.72 -4.08129 1.33152 0
M  V30 11910 C 1112.95 -5.27436 0.815288 0
M  V30 11911 O 1113.17 -5.69317 -0.351361 0
M  V30 11912 O 1112.11 -5.80674 1.58434 0
M  V30 11913 H 1115.93 -2.50249 1.72073 0
M  V30 11914 H 1113.52 -1.19263 0.899815 0
M  V30 11915 H 1115.4 -4.21384 -0.0364007 0
M  V30 11916 H 1114.07 -3.17525 -0.629249 0
M  V30 11917 H 1112.98 -3.3415 1.6821 0
M  V30 11918 H 1114.31 -4.4052 2.19552 0
M  V30 11919 N 1115.97 -0.914965 -1.28321 0
M  V30 11920 C 1117.19 -0.564023 -1.99583 0
M  V30 11921 C 1117.62 0.847821 -1.6791 0
M  V30 11922 O 1116.97 1.56682 -0.912171 0
M  V30 11923 C 1117.02 -0.781368 -3.52033 0
M  V30 11924 O 1116.13 0.159072 -4.12093 0
M  V30 11925 H 1115.47 -0.218565 -0.626997 0
M  V30 11926 H 1118 -1.23074 -1.63444 0
M  V30 11927 H 1118.01 -0.691946 -4.0209 0
M  V30 11928 H 1116.68 -1.81059 -3.7442 0
M  V30 11929 H 1115.26 0.0208145 -3.72894 0
M  V30 11930 N 1117.44 1.42219 -0.679077 0
M  V30 11931 C 1118.35 2.346 -0.00345919 0
M  V30 11932 C 1119.37 1.55327 0.784181 0
M  V30 11933 O 1120.55 1.87878 0.725524 0
M  V30 11934 C 1117.61 3.33905 0.933194 0
M  V30 11935 C 1116.67 4.29073 0.139607 0
M  V30 11936 C 1115.9 5.23634 1.03165 0
M  V30 11937 O 1116.13 5.23234 2.27119 0
M  V30 11938 O 1115.06 5.99901 0.490159 0
M  V30 11939 H 1118.89 2.9392 -0.764525 0
M  V30 11940 H 1116.47 1.42794 -0.439329 0
M  V30 11941 H 1118.35 3.949 1.47077 0
M  V30 11942 H 1117.03 2.77052 1.67404 0
M  V30 11943 H 1115.94 3.71478 -0.442177 0
M  V30 11944 H 1117.27 4.88979 -0.562214 0
M  V30 11945 N 1118.92 0.422693 1.51826 0
M  V30 11946 C 1120.17 -0.148861 2.02253 0
M  V30 11947 C 1120.5 -1.43629 1.30707 0
M  V30 11948 O 1119.78 -1.89967 0.417482 0
M  V30 11949 C 1120.06 -0.382672 3.58061 0
M  V30 11950 C 1119.91 0.922386 4.40241 0
M  V30 11951 C 1121.23 -1.1589 4.24567 0
M  V30 11952 H 1118.35 -0.0526279 0.735119 0
M  V30 11953 H 1120.99 0.558821 1.81596 0
M  V30 11954 H 1119.14 -0.985495 3.75793 0
M  V30 11955 H 1120.81 1.55806 4.34191 0
M  V30 11956 H 1119.06 1.53032 4.05911 0
M  V30 11957 H 1119.73 0.713012 5.47376 0
M  V30 11958 H 1122.2 -0.648415 4.11017 0
M  V30 11959 H 1121.08 -1.29125 5.33496 0
M  V30 11960 H 1121.34 -2.18315 3.84436 0
M  V30 11961 N 1120.4 -1.5685 0.153553 0
M  V30 11962 C 1121.35 -2.18385 -0.800667 0
M  V30 11963 C 1122.34 -1.14272 -1.25053 0
M  V30 11964 O 1123.55 -1.32509 -1.21825 0
M  V30 11965 H 1119.92 -0.699352 -0.276425 0
M  V30 11966 H 1121.89 -2.97287 -0.257535 0
M  V30 11967 C 1120.64 -2.82497 -2.02708 0
M  V30 11968 H 1119.97 -3.62328 -1.68992 0
M  V30 11969 H 1121.41 -3.29047 -2.67403 0
M  V30 11970 C 1119.86 -1.81343 -2.8393 0
M  V30 11971 O 1120.39 -1.28793 -3.80493 0
M  V30 11972 N 1118.6 -1.50499 -2.48593 0
M  V30 11973 H 1118.15 -1.93425 -1.70131 0
M  V30 11974 H 1118.11 -0.830672 -3.03228 0
M  V30 11975 N 1121.88 0.120221 -1.57141 0
M  V30 11976 C 1123.1 0.84637 -1.89344 0
M  V30 11977 C 1123.53 1.72702 -0.745365 0
M  V30 11978 O 1122.89 1.7873 0.304155 0
M  V30 11979 C 1122.93 1.65671 -3.20289 0
M  V30 11980 O 1122.04 2.76353 -3.06109 0
M  V30 11981 H 1121.38 0.234132 -0.621352 0
M  V30 11982 H 1123.91 0.102986 -2.04341 0
M  V30 11983 H 1123.92 2.04621 -3.52979 0
M  V30 11984 H 1122.59 1.01023 -4.03444 0
M  V30 11985 H 1121.17 2.40615 -2.84884 0
M  V30 11986 N 1123.36 1.52689 0.390367 0
M  V30 11987 C 1124.29 1.80338 1.48325 0
M  V30 11988 C 1125.27 0.655338 1.56969 0
M  V30 11989 O 1126.45 0.902792 1.7194 0
M  V30 11990 C 1123.58 1.97101 2.85952 0
M  V30 11991 C 1122.54 3.12783 2.92148 0
M  V30 11992 C 1121.86 3.14798 4.32211 0
M  V30 11993 C 1123.16 4.5188 2.61919 0
M  V30 11994 H 1124.86 2.71857 1.25437 0
M  V30 11995 H 1122.4 1.30813 0.601995 0
M  V30 11996 H 1124.36 2.15027 3.62411 0
M  V30 11997 H 1123.08 1.02271 3.10174 0
M  V30 11998 H 1121.74 2.94638 2.18137 0
M  V30 11999 H 1121.39 2.17653 4.53471 0
M  V30 12000 H 1121.09 3.92507 4.37278 0
M  V30 12001 H 1122.61 3.34877 5.10578 0
M  V30 12002 H 1124.02 4.70134 3.28096 0
M  V30 12003 H 1122.42 5.31647 2.78337 0
M  V30 12004 H 1123.49 4.58689 1.57266 0
M  V30 12005 N 1124.83 -0.648732 1.43629 0
M  V30 12006 C 1125.78 -1.76145 1.49136 0
M  V30 12007 C 1126.75 -1.62569 0.340649 0
M  V30 12008 O 1127.94 -1.82748 0.548435 0
M  V30 12009 C 1125.08 -3.14321 1.42466 0
M  V30 12010 C 1124.19 -3.38999 2.67776 0
M  V30 12011 C 1123.32 -4.67047 2.53062 0
M  V30 12012 C 1122.36 -4.84845 3.7362 0
M  V30 12013 N 1121.5 -6.04155 3.57689 0
M  V30 12014 H 1126.34 -1.70774 2.44213 0
M  V30 12015 H 1123.88 -0.833311 1.2122 0
M  V30 12016 H 1125.84 -3.94206 1.36592 0
M  V30 12017 H 1124.47 -3.18751 0.509666 0
M  V30 12018 H 1123.52 -2.53179 2.83909 0
M  V30 12019 H 1124.83 -3.48035 3.57314 0
M  V30 12020 H 1123.98 -5.55066 2.44922 0
M  V30 12021 H 1122.72 -4.60339 1.61056 0
M  V30 12022 H 1121.73 -3.95261 3.82163 0
M  V30 12023 H 1122.95 -4.9338 4.6664 0
M  V30 12024 H 1120.9 -5.9857 2.6842 0
M  V30 12025 H 1120.82 -6.14169 4.40832 0
M  V30 12026 H 1122.08 -6.94782 3.53409 0
M  V30 12027 N 1126.31 -1.30234 -0.887518 0
M  V30 12028 C 1127.22 -1.18316 -2.02579 0
M  V30 12029 C 1128.24 -0.103658 -1.73691 0
M  V30 12030 O 1129.41 -0.3181 -1.98872 0
M  V30 12031 C 1126.48 -0.873222 -3.35523 0
M  V30 12032 C 1125.54 -2.03783 -3.7785 0
M  V30 12033 C 1124.77 -1.74258 -5.0445 0
M  V30 12034 O 1125 -0.669295 -5.6646 0
M  V30 12035 O 1123.93 -2.59423 -5.43124 0
M  V30 12036 H 1127.76 -2.13933 -2.15561 0
M  V30 12037 H 1125.34 -1.09803 -1.0131 0
M  V30 12038 H 1127.22 -0.715463 -4.15282 0
M  V30 12039 H 1125.9 0.053056 -3.23657 0
M  V30 12040 H 1124.81 -2.2509 -2.98806 0
M  V30 12041 H 1126.14 -2.94574 -3.94318 0
M  V30 12042 N 1127.79 1.09952 -1.12909 0
M  V30 12043 C 1128.7 2.19999 -0.81471 0
M  V30 12044 C 1129.72 1.72864 0.19851 0
M  V30 12045 O 1130.89 2.01376 0.0308832 0
M  V30 12046 C 1127.96 3.45573 -0.279363 0
M  V30 12047 C 1127.02 4.07417 -1.35314 0
M  V30 12048 C 1126.25 5.26996 -0.843247 0
M  V30 12049 O 1126.47 5.69495 0.321164 0
M  V30 12050 O 1125.41 5.79826 -1.61511 0
M  V30 12051 H 1129.23 2.49333 -1.73398 0
M  V30 12052 H 1126.82 1.18784 -0.906128 0
M  V30 12053 H 1128.7 4.21398 0.0140531 0
M  V30 12054 H 1127.38 3.17854 0.612401 0
M  V30 12055 H 1126.28 3.33253 -1.6998 0
M  V30 12056 H 1127.62 4.39349 -2.21885 0
M  V30 12057 N 1129.27 0.921757 1.27833 0
M  V30 12058 C 1130.52 0.55493 1.93916 0
M  V30 12059 C 1130.83 -0.907191 1.7329 0
M  V30 12060 O 1132.04 -1.38253 2.33663 0
M  V30 12061 C 1130.49 0.941644 3.47363 0
M  V30 12062 C 1130.1 2.42404 3.76755 0
M  V30 12063 C 1131.84 0.645785 4.19559 0
M  V30 12064 C 1129.75 2.75046 5.23549 0
M  V30 12065 H 1128.68 0.203818 0.72593 0
M  V30 12066 H 1131.33 1.12176 1.4522 0
M  V30 12067 H 1129.71 0.303519 3.94835 0
M  V30 12068 H 1130.89 3.10957 3.40062 0
M  V30 12069 H 1129.2 2.69118 3.17749 0
M  V30 12070 H 1131.8 0.866237 5.27637 0
M  V30 12071 H 1132.14 -0.41676 4.14209 0
M  V30 12072 H 1132.68 1.24274 3.7789 0
M  V30 12073 H 1129.42 3.80186 5.33984 0
M  V30 12074 H 1128.94 2.11138 5.6141 0
M  V30 12075 H 1130.61 2.62474 5.91368 0
M  V30 12076 N 1130.75 -1.41857 0.686609 0
M  V30 12077 C 1131.69 -2.30795 0.015643 0
M  V30 12078 C 1132.66 -1.46616 -0.780569 0
M  V30 12079 O 1133.85 -1.75423 -0.750424 0
M  V30 12080 C 1130.99 -3.32577 -0.921229 0
M  V30 12081 C 1130.1 -4.3184 -0.117585 0
M  V30 12082 C 1129.24 -5.20693 -1.05128 0
M  V30 12083 C 1128.28 -6.11629 -0.240018 0
M  V30 12084 N 1127.41 -6.92995 -1.12704 0
M  V30 12085 H 1132.25 -2.87615 0.77985 0
M  V30 12086 H 1129.79 -1.41661 0.396298 0
M  V30 12087 H 1131.75 -3.90129 -1.47836 0
M  V30 12088 H 1130.38 -2.77328 -1.65193 0
M  V30 12089 H 1129.43 -3.7631 0.55634 0
M  V30 12090 H 1130.74 -4.96168 0.511753 0
M  V30 12091 H 1129.9 -5.83035 -1.67795 0
M  V30 12092 H 1128.63 -4.5657 -1.71449 0
M  V30 12093 H 1127.64 -5.48345 0.399779 0
M  V30 12094 H 1128.86 -6.77805 0.419266 0
M  V30 12095 H 1126.81 -6.31489 -1.77644 0
M  V30 12096 H 1126.73 -7.53974 -0.553065 0
M  V30 12097 H 1128 -7.59813 -1.7408 0
M  V30 12098 N 1132.22 -0.430739 -1.51599 0
M  V30 12099 C 1133.16 0.429107 -2.24129 0
M  V30 12100 C 1134.14 1.03019 -1.25801 0
M  V30 12101 O 1135.32 1.07392 -1.54917 0
M  V30 12102 C 1132.45 1.59749 -2.9866 0
M  V30 12103 C 1131.49 1.11773 -4.11593 0
M  V30 12104 S 1132.33 0.0651468 -5.3546 0
M  V30 12105 C 1133.48 1.23835 -6.13527 0
M  V30 12106 H 1133.71 -0.186683 -2.96713 0
M  V30 12107 H 1131.25 -0.215201 -1.52893 0
M  V30 12108 H 1133.21 2.26735 -3.42201 0
M  V30 12109 H 1131.87 2.18468 -2.25678 0
M  V30 12110 H 1131.06 1.99125 -4.62996 0
M  V30 12111 H 1130.66 0.526209 -3.7028 0
M  V30 12112 H 1132.95 2.15796 -6.42214 0
M  V30 12113 H 1133.9 0.76443 -7.03962 0
M  V30 12114 H 1134.3 1.47393 -5.44918 0
M  V30 12115 N 1133.7 1.56767 -0.161869 0
M  V30 12116 C 1134.93 2.00673 0.491314 0
M  V30 12117 C 1135.34 1.04111 1.5798 0
M  V30 12118 O 1134.68 0.0324889 1.83671 0
M  V30 12119 C 1134.75 3.41011 1.13806 0
M  V30 12120 C 1134.41 4.56595 0.192384 0
M  V30 12121 C 1135.41 5.16591 -0.585671 0
M  V30 12122 C 1133.09 5.02218 0.0909594 0
M  V30 12123 C 1135.09 6.20631 -1.45245 0
M  V30 12124 C 1132.77 6.06109 -0.77941 0
M  V30 12125 C 1133.77 6.65187 -1.54971 0
M  V30 12126 O 1133.46 7.67065 -2.40555 0
M  V30 12127 H 1133.19 0.663174 0.131059 0
M  V30 12128 H 1135.74 2.03775 -0.257896 0
M  V30 12129 H 1133.97 3.34793 1.93521 0
M  V30 12130 H 1135.66 3.68931 1.69248 0
M  V30 12131 H 1136.43 4.82232 -0.517432 0
M  V30 12132 H 1132.31 4.55953 0.680292 0
M  V30 12133 H 1135.85 6.66671 -2.05415 0
M  V30 12134 H 1131.75 6.39894 -0.848887 0
M  V30 12135 H 1132.52 7.84348 -2.33966 0
M  V30 12136 N 1135.18 -0.111886 1.57202 0
M  V30 12137 C 1136.11 -1.16749 1.96074 0
M  V30 12138 C 1137.09 -1.39735 0.831438 0
M  V30 12139 O 1138.28 -1.53772 1.09025 0
M  V30 12140 C 1135.4 -2.51996 2.26308 0
M  V30 12141 C 1134.45 -2.45394 3.48832 0
M  V30 12142 S 1135.28 -1.8867 5.01163 0
M  V30 12143 C 1136.44 -3.25576 5.34557 0
M  V30 12144 H 1136.67 -0.836033 2.85303 0
M  V30 12145 H 1134.2 -0.318922 1.5107 0
M  V30 12146 H 1136.16 -3.29813 2.44405 0
M  V30 12147 H 1134.82 -2.82317 1.3768 0
M  V30 12148 H 1134.02 -3.45038 3.67376 0
M  V30 12149 H 1133.62 -1.75702 3.30159 0
M  V30 12150 H 1135.91 -4.21807 5.30174 0
M  V30 12151 H 1136.85 -3.11853 6.35731 0
M  V30 12152 H 1137.26 -3.24333 4.62026 0
M  V30 12153 N 1136.66 -1.52894 -0.382264 0
M  V30 12154 C 1137.94 -1.58853 -1.14127 0
M  V30 12155 C 1138.32 -0.38582 -2.07544 0
M  V30 12156 O 1137.66 0.625323 -2.19777 0
M  V30 12157 C 1137.87 -2.93068 -1.89504 0
M  V30 12158 C 1139.22 -3.47048 -2.44629 0
M  V30 12159 O 1140.25 -2.94987 -1.99652 0
M  V30 12160 O 1139.1 -4.3802 -3.26804 0
M  V30 12161 H 1136.2 -0.640969 -0.522578 0
M  V30 12162 H 1138.74 -1.65231 -0.386873 0
M  V30 12163 H 1137.52 -3.72047 -1.2123 0
M  V30 12164 H 1137.14 -2.90106 -2.7189 0
M  V30 12165 N 1138.14 0.641106 -1.43971 0
M  V30 12166 C 1139.09 1.74699 -1.46507 0
M  V30 12167 C 1140.07 1.57437 -0.332037 0
M  V30 12168 O 1141.26 1.67343 -0.576663 0
M  V30 12169 C 1138.39 3.13344 -1.40252 0
M  V30 12170 C 1137.48 3.3611 -2.58632 0
M  V30 12171 N 1137.87 3.29291 -3.83929 0
M  V30 12172 C 1136.17 3.66873 -2.53615 0
M  V30 12173 C 1136.87 3.52472 -4.62751 0
M  V30 12174 N 1135.84 3.74868 -3.93668 0
M  V30 12175 H 1139.65 1.67869 -2.41241 0
M  V30 12176 H 1137.16 0.843217 -1.38793 0
M  V30 12177 H 1139.16 3.92636 -1.40153 0
M  V30 12178 H 1137.82 3.21346 -0.46549 0
M  V30 12179 H 1138.83 3.08431 -4.16041 0
M  V30 12180 H 1135.51 3.81917 -1.68659 0
M  V30 12181 H 1136.9 3.52876 -5.71776 0
M  V30 12182 N 1139.62 1.30703 0.880598 0
M  V30 12183 C 1140.58 1.17429 1.96832 0
M  V30 12184 C 1141.58 0.104305 1.60461 0
M  V30 12185 O 1142.77 0.352758 1.70591 0
M  V30 12186 C 1139.9 0.800099 3.31378 0
M  V30 12187 H 1141.09 2.14069 2.10034 0
M  V30 12188 H 1138.65 1.14162 1.06755 0
M  V30 12189 H 1139.38 -0.165606 3.23877 0
M  V30 12190 H 1139.17 1.57341 3.59146 0
M  V30 12191 H 1140.66 0.730826 4.11155 0
M  V30 12192 N 1141.09 -1.09351 1.1349 0
M  V30 12193 C 1142.04 -2.18099 0.808426 0
M  V30 12194 C 1143.04 -1.68099 -0.209571 0
M  V30 12195 O 1144.24 -1.79877 -0.0666417 0
M  V30 12196 H 1140.62 -0.711432 0.243658 0
M  V30 12197 H 1142.59 -2.42867 1.73373 0
M  V30 12198 C 1141.34 -3.46475 0.291615 0
M  V30 12199 H 1140.66 -3.85319 1.06627 0
M  V30 12200 H 1142.1 -4.23878 0.101616 0
M  V30 12201 C 1140.56 -3.22245 -0.982827 0
M  V30 12202 O 1141.09 -3.44947 -2.0585 0
M  V30 12203 N 1139.29 -2.75845 -0.914218 0
M  V30 12204 H 1138.84 -2.57571 -0.03872 0
M  V30 12205 H 1138.8 -2.60011 -1.76753 0
M  V30 12206 N 1142.57 -0.928524 -1.27343 0
M  V30 12207 C 1143.48 -0.433901 -2.30553 0
M  V30 12208 C 1144.5 0.485832 -1.6708 0
M  V30 12209 O 1145.67 0.36844 -1.98001 0
M  V30 12210 C 1142.74 0.304617 -3.45359 0
M  V30 12211 C 1141.8 -0.650131 -4.24349 0
M  V30 12212 C 1141.03 0.0532372 -5.33673 0
M  V30 12213 O 1141.26 1.27246 -5.56026 0
M  V30 12214 O 1140.19 -0.619009 -5.98709 0
M  V30 12215 H 1144.02 -1.2909 -2.74899 0
M  V30 12216 H 1141.6 -0.693903 -1.32308 0
M  V30 12217 H 1143.48 0.721137 -4.15184 0
M  V30 12218 H 1142.16 1.13721 -3.03066 0
M  V30 12219 H 1141.06 -1.11635 -3.57055 0
M  V30 12220 H 1142.4 -1.44996 -4.70358 0
M  V30 12221 N 1144.05 1.41491 -0.694123 0
M  V30 12222 C 1145.3 2.00854 -0.224033 0
M  V30 12223 C 1145.62 1.55246 1.17999 0
M  V30 12224 O 1144.89 0.782452 1.79595 0
M  V30 12225 H 1143.47 0.742721 -0.0798368 0
M  V30 12226 H 1146.13 1.73137 -0.894958 0
M  V30 12227 H 1145.23 3.11173 -0.240332 0
M  V30 12228 N 1145.53 0.438773 1.51369 0
M  V30 12229 C 1146.48 -0.389921 2.24641 0
M  V30 12230 C 1147.46 -0.988871 1.26926 0
M  V30 12231 O 1148.65 -0.906774 1.52009 0
M  V30 12232 C 1145.78 -1.48972 3.09293 0
M  V30 12233 C 1144.87 -0.900093 4.14438 0
M  V30 12234 N 1145.26 -0.0397688 5.05784 0
M  V30 12235 C 1143.56 -1.16752 4.30447 0
M  V30 12236 C 1144.26 0.291527 5.80969 0
M  V30 12237 N 1143.23 -0.325219 5.42626 0
M  V30 12238 H 1147.04 0.273335 2.92626 0
M  V30 12239 H 1144.55 0.250934 1.6045 0
M  V30 12240 H 1146.55 -2.09627 3.60364 0
M  V30 12241 H 1145.21 -2.1553 2.42852 0
M  V30 12242 H 1146.22 0.326771 5.16868 0
M  V30 12243 H 1142.9 -1.83049 3.75232 0
M  V30 12244 H 1144.29 0.991699 6.64541 0
M  V30 12245 N 1147.01 -1.56678 0.170181 0
M  V30 12246 C 1148.42 -1.58512 -0.185999 0
M  V30 12247 C 1148.62 -1.18548 -1.62937 0
M  V30 12248 O 1147.68 -0.896554 -2.36047 0
M  V30 12249 C 1148.99 -3.00554 0.0937842 0
M  V30 12250 C 1150.54 -3.12984 0.0319057 0
M  V30 12251 C 1151.01 -4.57115 0.284664 0
M  V30 12252 N 1152.5 -4.62617 0.2324 0
M  V30 12253 C 1153.24 -5.71988 0.40216 0
M  V30 12254 N 1152.74 -6.89921 0.630915 0
M  V30 12255 N 1154.53 -5.61082 0.338144 0
M  V30 12256 H 1146.68 -1.80944 1.11235 0
M  V30 12257 H 1148.94 -0.838586 0.442128 0
M  V30 12258 H 1148.65 -3.34265 1.09362 0
M  V30 12259 H 1148.52 -3.72151 -0.615118 0
M  V30 12260 H 1150.91 -2.791 -0.958502 0
M  V30 12261 H 1150.99 -2.43825 0.773501 0
M  V30 12262 H 1150.63 -4.91707 1.27227 0
M  V30 12263 H 1150.56 -5.2443 -0.477529 0
M  V30 12264 H 1153.06 -3.7785 0.0611933 0
M  V30 12265 H 1153.37 -7.69153 0.749931 0
M  V30 12266 H 1151.71 -6.91787 0.667516 0
M  V30 12267 H 1154.9 -4.67826 0.16003 0
M  V30 12268 H 1155.08 -6.46265 0.473872 0
M  V30 12269 N 1148.48 0.103547 -1.57259 0
M  V30 12270 C 1149.73 0.807231 -1.84842 0
M  V30 12271 C 1150.05 1.80308 -0.758181 0
M  V30 12272 O 1151.25 2.55406 -0.920877 0
M  V30 12273 C 1149.71 1.4864 -3.27771 0
M  V30 12274 C 1149.32 0.53075 -4.44845 0
M  V30 12275 C 1151.06 2.17431 -3.64587 0
M  V30 12276 C 1148.97 1.21403 -5.78805 0
M  V30 12277 H 1147.9 0.305212 -0.689465 0
M  V30 12278 H 1150.55 0.0600855 -1.83402 0
M  V30 12279 H 1148.93 2.28071 -3.23728 0
M  V30 12280 H 1150.1 -0.231455 -4.60218 0
M  V30 12281 H 1148.42 -0.0510078 -4.16369 0
M  V30 12282 H 1151.02 2.6927 -4.6195 0
M  V30 12283 H 1151.36 2.9594 -2.92789 0
M  V30 12284 H 1151.89 1.4487 -3.70483 0
M  V30 12285 H 1148.63 0.469918 -6.53813 0
M  V30 12286 H 1148.15 1.94787 -5.6729 0
M  V30 12287 H 1149.83 1.74289 -6.23083 0
M  V30 12288 N 1149.96 1.53094 0.37415 0
M  V30 12289 C 1151.2 1.70558 1.12647 0
M  V30 12290 C 1151.57 0.443515 1.86807 0
M  V30 12291 O 1152.77 0.49472 2.64208 0
M  V30 12292 C 1151.04 2.91565 2.06699 0
M  V30 12293 S 1152.6 3.29692 2.89567 0
M  V30 12294 H 1149.41 0.600238 0.381097 0
M  V30 12295 H 1152.02 1.91177 0.408865 0
M  V30 12296 H 1150.72 3.81625 1.50965 0
M  V30 12297 H 1150.25 2.73323 2.82945 0
M  V30 12298 H 1152.27 2.81036 4.08942 0
M  V30 12299 N 1151.44 -0.633461 1.44309 0
M  V30 12300 C 1152.37 -1.75676 1.53819 0
M  V30 12301 C 1153.35 -1.65537 0.391365 0
M  V30 12302 O 1154.54 -1.84332 0.611181 0
M  V30 12303 C 1151.67 -3.14197 1.47979 0
M  V30 12304 C 1150.62 -3.39122 2.61113 0
M  V30 12305 C 1149.95 -4.77648 2.40325 0
M  V30 12306 C 1151.25 -3.31914 4.03274 0
M  V30 12307 H 1152.94 -1.67974 2.47841 0
M  V30 12308 H 1150.49 -0.8067 1.19283 0
M  V30 12309 H 1152.44 -3.92553 1.53233 0
M  V30 12310 H 1151.16 -3.22677 0.504718 0
M  V30 12311 H 1149.82 -2.63145 2.55245 0
M  V30 12312 H 1149.47 -4.82829 1.41016 0
M  V30 12313 H 1149.17 -4.95284 3.16177 0
M  V30 12314 H 1150.69 -5.58237 2.47394 0
M  V30 12315 H 1152.11 -4.00178 4.10524 0
M  V30 12316 H 1150.5 -3.61085 4.7931 0
M  V30 12317 H 1151.57 -2.29761 4.2701 0
M  V30 12318 N 1152.92 -1.31168 -0.873655 0
M  V30 12319 C 1153.88 -1.18471 -1.96207 0
M  V30 12320 C 1154.88 -0.112814 -1.60404 0
M  V30 12321 O 1156.07 -0.3618 -1.70401 0
M  V30 12322 C 1153.2 -0.817662 -3.30949 0
M  V30 12323 H 1154.4 -2.1518 -2.08896 0
M  V30 12324 H 1151.95 -1.14727 -1.06149 0
M  V30 12325 H 1152.68 0.148428 -3.2396 0
M  V30 12326 H 1152.47 -1.59244 -3.58307 0
M  V30 12327 H 1153.96 -0.75262 -4.10762 0
M  V30 12328 N 1154.4 1.08748 -1.14068 0
M  V30 12329 C 1155.33 2.17591 -0.84714 0
M  V30 12330 C 1156.31 1.68962 0.196415 0
M  V30 12331 O 1157.49 1.94125 0.0538415 0
M  V30 12332 C 1154.62 3.45823 -0.320005 0
M  V30 12333 C 1153.58 4.07824 -1.2986 0
M  V30 12334 C 1152.9 5.30965 -0.630925 0
M  V30 12335 C 1154.2 4.49512 -2.65963 0
M  V30 12336 H 1155.9 2.42404 -1.75729 0
M  V30 12337 H 1153.44 1.16502 -0.846356 0
M  V30 12338 H 1155.4 4.21276 -0.102271 0
M  V30 12339 H 1154.12 3.20553 0.625561 0
M  V30 12340 H 1152.78 3.34398 -1.50245 0
M  V30 12341 H 1152.43 5.01979 0.320337 0
M  V30 12342 H 1152.13 5.73402 -1.28388 0
M  V30 12343 H 1153.65 6.09136 -0.422635 0
M  V30 12344 H 1155.06 5.16159 -2.49506 0
M  V30 12345 H 1153.46 5.02857 -3.27498 0
M  V30 12346 H 1154.53 3.6157 -3.23102 0
M  V30 12347 N 1155.87 0.935264 1.26849 0
M  V30 12348 C 1156.78 0.446122 2.30319 0
M  V30 12349 C 1157.8 -0.476965 1.67335 0
M  V30 12350 O 1158.98 -0.357934 1.98194 0
M  V30 12351 C 1156.04 -0.286297 3.45516 0
M  V30 12352 C 1155.1 0.672626 4.23998 0
M  V30 12353 C 1154.34 -0.0249345 5.33694 0
M  V30 12354 O 1154.56 -1.24296 5.56693 0
M  V30 12355 O 1153.49 0.650752 5.98372 0
M  V30 12356 H 1157.32 1.30546 2.74211 0
M  V30 12357 H 1154.9 0.70091 1.31938 0
M  V30 12358 H 1156.79 -0.699109 4.1556 0
M  V30 12359 H 1155.46 -1.12112 3.03665 0
M  V30 12360 H 1154.37 1.13527 3.56458 0
M  V30 12361 H 1155.7 1.47489 4.69583 0
M  V30 12362 N 1157.35 -1.41121 0.701616 0
M  V30 12363 C 1158.58 -2.05973 0.242896 0
M  V30 12364 C 1159 -1.52474 -1.10151 0
M  V30 12365 O 1158.36 -0.654224 -1.69085 0
M  V30 12366 C 1158.41 -3.59943 0.217614 0
M  V30 12367 O 1157.51 -4.04454 -0.805629 0
M  V30 12368 H 1156.85 -0.653581 0.117166 0
M  V30 12369 H 1159.38 -1.80777 0.958175 0
M  V30 12370 H 1159.39 -4.07969 0.0505267 0
M  V30 12371 H 1158.07 -3.98249 1.19877 0
M  V30 12372 H 1156.65 -3.6792 -0.607404 0
M  V30 12373 N 1158.83 -0.446794 -1.51134 0
M  V30 12374 C 1160.08 0.118047 -2.01354 0
M  V30 12375 C 1160.39 1.42953 -1.33505 0
M  V30 12376 O 1161.6 2.07788 -1.74747 0
M  V30 12377 C 1160.05 0.260912 -3.58953 0
M  V30 12378 C 1159.66 -1.0407 -4.35745 0
M  V30 12379 C 1161.41 0.779014 -4.17291 0
M  V30 12380 C 1159.31 -0.862958 -5.8507 0
M  V30 12381 H 1158.24 0.0478915 -0.752478 0
M  V30 12382 H 1160.89 -0.577997 -1.74159 0
M  V30 12383 H 1159.28 1.02018 -3.82633 0
M  V30 12384 H 1160.45 -1.80903 -4.23805 0
M  V30 12385 H 1158.77 -1.48805 -3.88904 0
M  V30 12386 H 1161.36 0.928636 -5.26574 0
M  V30 12387 H 1161.71 1.76399 -3.7708 0
M  V30 12388 H 1162.24 0.0778022 -3.97724 0
M  V30 12389 H 1158.98 -1.82059 -6.2971 0
M  V30 12390 H 1158.5 -0.134588 -5.99649 0
M  V30 12391 H 1160.18 -0.51989 -6.44908 0
M  V30 12392 N 1160.31 1.56586 -0.178487 0
M  V30 12393 C 1161.56 1.96273 0.464745 0
M  V30 12394 C 1161.87 1.0675 1.63902 0
M  V30 12395 O 1163.08 1.36148 2.34896 0
M  V30 12396 C 1161.53 3.49021 0.878207 0
M  V30 12397 C 1161.14 4.4718 -0.270861 0
M  V30 12398 C 1162.88 3.97512 1.48946 0
M  V30 12399 C 1160.79 5.91176 0.162632 0
M  V30 12400 H 1159.72 0.732834 0.177398 0
M  V30 12401 H 1162.37 1.81534 -0.267861 0
M  V30 12402 H 1160.75 3.59203 1.667 0
M  V30 12403 H 1161.93 4.48718 -1.04826 0
M  V30 12404 H 1160.24 4.08788 -0.792529 0
M  V30 12405 H 1162.84 5.02556 1.82595 0
M  V30 12406 H 1163.18 3.40861 2.38997 0
M  V30 12407 H 1163.72 3.90376 0.76496 0
M  V30 12408 H 1160.46 6.51716 -0.703286 0
M  V30 12409 H 1159.98 5.9293 0.905243 0
M  V30 12410 H 1161.65 6.44174 0.604084 0
M  V30 12411 N 1161.79 -0.095206 1.57312 0
M  V30 12412 C 1163.01 -0.81614 1.90667 0
M  V30 12413 C 1163.44 -1.71494 0.772746 0
M  V30 12414 O 1162.79 -1.79192 -0.275682 0
M  V30 12415 C 1162.84 -1.60555 3.22885 0
M  V30 12416 O 1161.95 -2.71448 3.10467 0
M  V30 12417 H 1161.29 -0.224217 0.624998 0
M  V30 12418 H 1163.82 -0.070464 2.04479 0
M  V30 12419 H 1163.83 -1.98979 3.5619 0
M  V30 12420 H 1162.5 -0.945918 4.05 0
M  V30 12421 H 1161.08 -2.36053 2.88675 0
M  V30 12422 N 1163.26 -1.53291 -0.366026 0
M  V30 12423 C 1164.17 -1.82656 -1.47221 0
M  V30 12424 C 1165.19 -0.71491 -1.58635 0
M  V30 12425 O 1166.37 -1.00492 -1.74538 0
M  V30 12426 C 1163.43 -2.00995 -2.82492 0
M  V30 12427 C 1162.49 -3.24895 -2.8061 0
M  V30 12428 C 1161.73 -3.4235 -4.09429 0
M  V30 12429 O 1161.95 -2.6411 -5.05571 0
M  V30 12430 O 1160.88 -4.35702 -4.15268 0
M  V30 12431 H 1164.71 -2.76634 -1.2533 0
M  V30 12432 H 1162.29 -1.38665 -0.556084 0
M  V30 12433 H 1164.18 -2.14632 -3.62645 0
M  V30 12434 H 1162.85 -1.10207 -3.04362 0
M  V30 12435 H 1161.76 -3.16682 -1.99157 0
M  V30 12436 H 1163.09 -4.15604 -2.63694 0
M  V30 12437 N 1164.74 0.6258 -1.44643 0
M  V30 12438 C 1165.65 1.76611 -1.5442 0
M  V30 12439 C 1166.67 1.68614 -0.429576 0
M  V30 12440 O 1167.84 1.89296 -0.687686 0
M  V30 12441 C 1164.91 3.13015 -1.49071 0
M  V30 12442 C 1163.97 3.32604 -2.71428 0
M  V30 12443 C 1163.2 4.62501 -2.66325 0
M  V30 12444 O 1163.43 5.43651 -1.72626 0
M  V30 12445 O 1162.36 4.84408 -3.57258 0
M  V30 12446 H 1166.19 1.71315 -2.50769 0
M  V30 12447 H 1163.77 0.787677 -1.26949 0
M  V30 12448 H 1165.65 3.94318 -1.48631 0
M  V30 12449 H 1164.33 3.18842 -0.558686 0
M  V30 12450 H 1163.24 2.50959 -2.77435 0
M  V30 12451 H 1164.57 3.31642 -3.63695 0
M  V30 12452 N 1166.22 1.31629 0.866686 0
M  V30 12453 C 1167.13 1.21524 2.00671 0
M  V30 12454 C 1168.15 0.131277 1.73504 0
M  V30 12455 O 1169.32 0.349699 1.98341 0
M  V30 12456 C 1166.39 0.926491 3.34091 0
M  V30 12457 C 1165.45 2.09769 3.7456 0
M  V30 12458 C 1164.68 1.82262 5.01614 0
M  V30 12459 O 1164.9 0.759329 5.65323 0
M  V30 12460 O 1163.84 2.68031 5.38928 0
M  V30 12461 H 1167.66 2.17335 2.1213 0
M  V30 12462 H 1165.25 1.11401 0.995499 0
M  V30 12463 H 1167.13 0.78144 4.14091 0
M  V30 12464 H 1165.81 -0.00155829 3.237 0
M  V30 12465 H 1164.71 2.29816 2.95187 0
M  V30 12466 H 1166.05 3.0081 3.89582 0
M  V30 12467 N 1167.7 -1.08142 1.14644 0
M  V30 12468 C 1169.12 -1.32656 0.887388 0
M  V30 12469 C 1169.32 -1.95942 -0.470012 0
M  V30 12470 O 1168.37 -2.21417 -1.21371 0
M  V30 12471 C 1169.68 -2.22549 2.02219 0
M  V30 12472 C 1171.23 -2.36021 2.0558 0
M  V30 12473 C 1171.71 -3.29257 3.18361 0
M  V30 12474 N 1173.2 -3.36835 3.17957 0
M  V30 12475 C 1173.93 -4.09017 4.01862 0
M  V30 12476 N 1173.43 -4.83882 4.95812 0
M  V30 12477 N 1175.22 -4.04875 3.89913 0
M  V30 12478 H 1167.37 -0.654457 2.02066 0
M  V30 12479 H 1169.64 -0.350947 0.880648 0
M  V30 12480 H 1169.34 -1.83296 3.00159 0
M  V30 12481 H 1169.22 -3.23027 1.94765 0
M  V30 12482 H 1171.6 -2.74531 1.08245 0
M  V30 12483 H 1171.68 -1.35275 2.17105 0
M  V30 12484 H 1171.33 -2.91468 4.15944 0
M  V30 12485 H 1171.26 -4.29938 3.04074 0
M  V30 12486 H 1173.75 -2.83465 2.49912 0
M  V30 12487 H 1174.06 -5.3643 5.56294 0
M  V30 12488 H 1172.41 -4.82926 4.99808 0
M  V30 12489 H 1175.6 -3.45496 3.15833 0
M  V30 12490 H 1175.77 -4.60866 4.55529 0
M  V30 12491 N 1169.18 -0.941978 -1.26351 0
M  V30 12492 C 1170.12 -0.450906 -2.26353 0
M  V30 12493 C 1171.09 0.489857 -1.58712 0
M  V30 12494 O 1172.28 0.40589 -1.86433 0
M  V30 12495 C 1169.42 0.277054 -3.43986 0
M  V30 12496 C 1168.53 -0.699474 -4.263 0
M  V30 12497 C 1167.67 0.0497661 -5.31177 0
M  V30 12498 C 1166.71 -0.918531 -6.05169 0
M  V30 12499 N 1165.84 -0.200993 -7.01812 0
M  V30 12500 H 1170.68 -1.30861 -2.6773 0
M  V30 12501 H 1168.22 -0.656514 -1.31637 0
M  V30 12502 H 1170.18 0.715567 -4.11018 0
M  V30 12503 H 1168.81 1.09889 -3.0352 0
M  V30 12504 H 1167.86 -1.2565 -3.59049 0
M  V30 12505 H 1169.17 -1.4389 -4.77595 0
M  V30 12506 H 1168.33 0.547521 -6.04224 0
M  V30 12507 H 1167.07 0.822068 -4.80722 0
M  V30 12508 H 1166.07 -1.4274 -5.30947 0
M  V30 12509 H 1167.3 -1.69085 -6.57713 0
M  V30 12510 H 1165.24 0.552803 -6.53667 0
M  V30 12511 H 1165.16 -0.879735 -7.50864 0
M  V30 12512 H 1166.43 0.275642 -7.79012 0
M  V30 12513 N 1170.66 1.40747 -0.709091 0
M  V30 12514 C 1171.88 2.05319 -0.255258 0
M  V30 12515 C 1172.3 1.53406 1.10054 0
M  V30 12516 O 1171.66 0.687905 1.69039 0
M  V30 12517 C 1171.71 3.60835 -0.219251 0
M  V30 12518 O 1171.43 4.1083 -1.52151 0
M  V30 12519 C 1172.93 4.42572 0.253927 0
M  V30 12520 H 1170.15 0.660904 -0.115959 0
M  V30 12521 H 1172.69 1.80274 -0.965474 0
M  V30 12522 H 1170.85 3.84872 0.441882 0
M  V30 12523 H 1171.26 5.04979 -1.41764 0
M  V30 12524 H 1172.74 5.51529 0.22798 0
M  V30 12525 H 1173.21 4.19673 1.29504 0
M  V30 12526 H 1173.82 4.23629 -0.376694 0
M  V30 12527 N 1172.13 0.454803 1.50895 0
M  V30 12528 C 1173.55 0.108037 1.59234 0
M  V30 12529 C 1173.75 -1.38416 1.46435 0
M  V30 12530 O 1172.81 -2.15586 1.31449 0
M  V30 12531 C 1174.12 0.643721 2.93729 0
M  V30 12532 C 1175.67 0.605703 3.07083 0
M  V30 12533 C 1176.14 1.11865 4.44128 0
M  V30 12534 N 1177.63 1.07738 4.50496 0
M  V30 12535 C 1178.37 1.44495 5.54895 0
M  V30 12536 N 1177.86 1.88624 6.66628 0
M  V30 12537 N 1179.66 1.36201 5.45349 0
M  V30 12538 H 1171.81 1.4255 1.57459 0
M  V30 12539 H 1174.07 0.588504 0.743214 0
M  V30 12540 H 1173.78 1.68844 3.0852 0
M  V30 12541 H 1173.65 0.0782404 3.77119 0
M  V30 12542 H 1176.04 -0.430065 2.91949 0
M  V30 12543 H 1176.12 1.2078 2.2549 0
M  V30 12544 H 1175.76 2.15297 4.6001 0
M  V30 12545 H 1175.69 0.492933 5.24288 0
M  V30 12546 H 1178.18 0.753526 3.70311 0
M  V30 12547 H 1178.5 2.14863 7.4233 0
M  V30 12548 H 1176.84 1.92564 6.6779 0
M  V30 12549 H 1180.03 1.01579 4.56946 0
M  V30 12550 H 1180.21 1.65175 6.26595 0
M  V30 12551 N 1173.61 -1.56489 0.186789 0
M  V30 12552 C 1174.84 -2.02163 -0.463126 0
M  V30 12553 C 1175.26 -1.06612 -1.54969 0
M  V30 12554 O 1174.62 -0.0482139 -1.81236 0
M  V30 12555 C 1174.67 -3.46337 -1.00416 0
M  V30 12556 O 1173.77 -3.53889 -2.11747 0
M  V30 12557 H 1173.11 -0.65496 -0.109194 0
M  V30 12558 H 1175.64 -2.02459 0.295227 0
M  V30 12559 H 1175.65 -3.85959 -1.32287 0
M  V30 12560 H 1174.33 -4.15376 -0.208693 0
M  V30 12561 H 1172.9 -3.26136 -1.80803 0
M  V30 12562 N 1175.09 0.086862 -1.5736 0
M  V30 12563 C 1176.05 1.08906 -2.01673 0
M  V30 12564 C 1177.05 1.32473 -0.911463 0
M  V30 12565 O 1178.24 1.28447 -1.17673 0
M  V30 12566 C 1175.37 2.43629 -2.38449 0
M  V30 12567 H 1176.57 0.707461 -2.91436 0
M  V30 12568 H 1174.12 0.332154 -1.5273 0
M  V30 12569 H 1174.86 2.8665 -1.51665 0
M  V30 12570 H 1174.64 2.2787 -3.19089 0
M  V30 12571 H 1176.13 3.15695 -2.73361 0
M  V30 12572 N 1176.57 1.53483 0.357892 0
M  V30 12573 C 1177.98 1.61641 0.934289 0
M  V30 12574 C 1178.33 0.488655 1.90017 0
M  V30 12575 O 1177.45 -0.38378 2.1297 0
M  V30 12576 C 1178.05 2.92987 1.7013 0
M  V30 12577 C 1176.61 3.03456 2.22692 0
M  V30 12578 C 1175.76 2.56992 1.04165 0
M  V30 12579 H 1178.71 1.58112 0.136452 0
M  V30 12580 H 1178.73 2.81221 2.5631 0
M  V30 12581 H 1178.24 3.75047 0.998056 0
M  V30 12582 H 1176.34 2.25999 2.96235 0
M  V30 12583 H 1176.45 4.08673 2.50046 0
M  V30 12584 H 1174.82 2.12052 1.41088 0
M  V30 12585 H 1175.6 3.41477 0.353272 0
M  V30 12586 N 1178.05 -0.61812 1.44973 0
M  V30 12587 C 1179.29 -1.3774 1.48439 0
M  V30 12588 C 1179.62 -1.94117 0.121999 0
M  V30 12589 O 1178.88 -1.749 -0.877974 0
M  V30 12590 C 1179.17 -2.55143 2.50274 0
M  V30 12591 C 1178.84 -2.16976 3.95262 0
M  V30 12592 C 1177.5 -2.06281 4.34743 0
M  V30 12593 C 1179.85 -1.8703 4.86486 0
M  V30 12594 C 1177.18 -1.63846 5.63357 0
M  V30 12595 C 1179.53 -1.46085 6.15501 0
M  V30 12596 C 1178.2 -1.3394 6.53924 0
M  V30 12597 H 1177.47 -0.504026 0.543175 0
M  V30 12598 H 1180.12 -0.699685 1.7826 0
M  V30 12599 H 1178.42 -3.28205 2.13983 0
M  V30 12600 H 1180.12 -3.13373 2.50197 0
M  V30 12601 H 1176.71 -2.26223 3.64034 0
M  V30 12602 H 1180.89 -1.94196 4.56729 0
M  V30 12603 H 1176.15 -1.53058 5.91932 0
M  V30 12604 H 1180.32 -1.21956 6.85638 0
M  V30 12605 H 1177.95 -1.00832 7.53483 0
M  V30 12606 N 1179.52 -1.32087 -0.859693 0
M  V30 12607 C 1180.77 -1.2236 -1.61351 0
M  V30 12608 C 1181.1 0.215796 -1.93299 0
M  V30 12609 O 1180.35 1.16742 -1.57066 0
M  V30 12610 C 1180.65 -2.0234 -2.94607 0
M  V30 12611 C 1180.32 -3.51746 -2.82109 0
M  V30 12612 C 1178.98 -3.92482 -2.78408 0
M  V30 12613 C 1181.33 -4.46776 -2.68403 0
M  V30 12614 C 1178.66 -5.265 -2.58873 0
M  V30 12615 C 1181.01 -5.80931 -2.50404 0
M  V30 12616 C 1179.68 -6.20875 -2.45092 0
M  V30 12617 H 1178.95 -0.447748 -0.590426 0
M  V30 12618 H 1181.59 -1.63461 -0.997637 0
M  V30 12619 H 1179.9 -1.53952 -3.60286 0
M  V30 12620 H 1181.6 -1.92187 -3.51945 0
M  V30 12621 H 1178.19 -3.19389 -2.85812 0
M  V30 12622 H 1182.37 -4.16228 -2.70311 0
M  V30 12623 H 1177.63 -5.5651 -2.53192 0
M  V30 12624 H 1181.8 -6.54185 -2.38777 0
M  V30 12625 H 1179.43 -7.24662 -2.29714 0
M  V30 12626 N 1181 1.07532 -1.15215 0
M  V30 12627 C 1182.41 1.61567 -0.935568 0
M  V30 12628 C 1182.76 1.89085 0.523557 0
M  V30 12629 O 1181.89 1.65495 1.39429 0
M  V30 12630 C 1182.48 2.93531 -1.69189 0
M  V30 12631 C 1181.04 3.44316 -1.52063 0
M  V30 12632 C 1180.19 2.18404 -1.70866 0
M  V30 12633 H 1183.14 0.906431 -1.30267 0
M  V30 12634 H 1183.16 3.62377 -1.16031 0
M  V30 12635 H 1182.67 2.73471 -2.75381 0
M  V30 12636 H 1180.77 3.69462 -0.482567 0
M  V30 12637 H 1180.89 4.20478 -2.29642 0
M  V30 12638 H 1179.25 2.28012 -1.13502 0
M  V30 12639 H 1180.03 2.00841 -2.7842 0
M  V30 12640 N 1182.48 0.948665 1.2585 0
M  V30 12641 C 1183.73 0.595938 1.92695 0
M  V30 12642 C 1184.04 -0.870229 1.75175 0
M  V30 12643 O 1185.25 -1.33266 2.36543 0
M  V30 12644 C 1183.7 1.01511 3.45288 0
M  V30 12645 C 1183.31 2.50341 3.71528 0
M  V30 12646 C 1185.06 0.734635 4.18095 0
M  V30 12647 C 1182.96 2.8609 5.17597 0
M  V30 12648 H 1181.89 0.219171 0.721443 0
M  V30 12649 H 1184.54 1.15231 1.42807 0
M  V30 12650 H 1182.93 0.387201 3.94102 0
M  V30 12651 H 1184.1 3.18101 3.3339 0
M  V30 12652 H 1182.42 2.75797 3.11969 0
M  V30 12653 H 1185.01 0.977962 5.25681 0
M  V30 12654 H 1185.36 -0.328807 4.14999 0
M  V30 12655 H 1185.89 1.32262 3.75169 0
M  V30 12656 H 1182.63 3.91427 5.25799 0
M  V30 12657 H 1182.15 2.22999 5.56805 0
M  V30 12658 H 1183.83 2.74959 5.85668 0
M  V30 12659 N 1183.96 -1.40369 0.716545 0
M  V30 12660 C 1185.21 -2.00101 0.253452 0
M  V30 12661 C 1185.52 -1.57471 -1.16027 0
M  V30 12662 O 1186.73 -2.09909 -1.72193 0
M  V30 12663 C 1185.18 -3.57645 0.402213 0
M  V30 12664 C 1184.79 -4.09248 1.82264 0
M  V30 12665 C 1186.53 -4.245 -3.88526e-05 0
M  V30 12666 C 1184.44 -5.59299 1.92193 0
M  V30 12667 H 1183.37 -0.748488 0.0910047 0
M  V30 12668 H 1186.02 -1.60595 0.887772 0
M  V30 12669 H 1184.4 -3.94857 -0.300706 0
M  V30 12670 H 1185.58 -3.83412 2.55601 0
M  V30 12671 H 1183.89 -3.54993 2.17644 0
M  V30 12672 H 1186.49 -5.34673 0.0534202 0
M  V30 12673 H 1186.83 -4.03046 -1.04208 0
M  V30 12674 H 1187.37 -3.92398 0.65336 0
M  V30 12675 H 1184.11 -5.85608 2.94522 0
M  V30 12676 H 1183.63 -5.86997 1.23268 0
M  V30 12677 H 1185.3 -6.24416 1.6945 0
M  V30 12678 N 1185.44 -0.462799 -1.50652 0
M  V30 12679 C 1186.69 0.0966838 -2.01468 0
M  V30 12680 C 1187 1.41529 -1.35014 0
M  V30 12681 O 1188.2 2.05923 -1.76941 0
M  V30 12682 C 1186.66 0.222826 -3.5921 0
M  V30 12683 C 1186.27 -1.08686 -4.34616 0
M  V30 12684 C 1188.01 0.734711 -4.18094 0
M  V30 12685 C 1185.92 -0.924964 -5.84122 0
M  V30 12686 H 1184.85 0.0399078 -0.752943 0
M  V30 12687 H 1187.5 -0.596437 -1.73536 0
M  V30 12688 H 1185.88 0.979539 -3.83694 0
M  V30 12689 H 1187.06 -1.85388 -4.21862 0
M  V30 12690 H 1185.37 -1.52922 -3.87303 0
M  V30 12691 H 1187.97 0.872734 -5.2753 0
M  V30 12692 H 1188.31 1.72389 -3.7893 0
M  V30 12693 H 1188.84 0.0356139 -3.97784 0
M  V30 12694 H 1185.58 -1.88727 -6.27744 0
M  V30 12695 H 1185.1 -0.198181 -5.99473 0
M  V30 12696 H 1186.78 -0.588262 -6.4432 0
M  V30 12697 N 1186.91 1.56388 -0.195085 0
M  V30 12698 C 1188.16 1.97189 0.44281 0
M  V30 12699 C 1188.48 1.08312 1.62153 0
M  V30 12700 O 1187.75 0.154404 1.95291 0
M  V30 12701 H 1186.33 0.728188 0.166585 0
M  V30 12702 H 1189 1.92852 -0.281815 0
M  V30 12703 H 1188.09 3.02016 0.786945 0
M  V30 12704 N 1188.39 -0.0785156 1.57404 0
M  V30 12705 C 1189.81 -0.433143 1.5361 0
M  V30 12706 C 1190.01 -1.79564 0.914283 0
M  V30 12707 O 1189.06 -2.47215 0.513899 0
M  V30 12708 C 1190.38 -0.380387 2.98284 0
M  V30 12709 C 1191.93 -0.461056 3.09586 0
M  V30 12710 C 1192.4 -0.438276 4.55898 0
M  V30 12711 N 1193.89 -0.498548 4.60509 0
M  V30 12712 C 1194.63 -0.503028 5.71189 0
M  V30 12713 N 1194.12 -0.462724 6.91253 0
M  V30 12714 N 1195.92 -0.549083 5.59412 0
M  V30 12715 H 1188.07 0.813724 1.96195 0
M  V30 12716 H 1190.33 0.304644 0.897717 0
M  V30 12717 H 1190.04 0.553932 3.4731 0
M  V30 12718 H 1189.91 -1.19313 3.57833 0
M  V30 12719 H 1192.3 -1.3858 2.60537 0
M  V30 12720 H 1192.38 0.380138 2.5296 0
M  V30 12721 H 1192.02 0.482588 5.05602 0
M  V30 12722 H 1191.95 -1.29691 5.1038 0
M  V30 12723 H 1194.44 -0.534219 3.74105 0
M  V30 12724 H 1194.76 -0.469883 7.7137 0
M  V30 12725 H 1193.1 -0.429515 6.93672 0
M  V30 12726 H 1196.29 -0.578215 4.64515 0
M  V30 12727 H 1196.46 -0.549105 6.45669 0
M  V30 12728 N 1189.87 -1.5367 -0.349747 0
M  V30 12729 C 1190.82 -1.81223 -1.42922 0
M  V30 12730 C 1191.79 -0.657536 -1.52531 0
M  V30 12731 O 1192.97 -0.90134 -1.68168 0
M  V30 12732 C 1190.11 -2.022 -2.79659 0
M  V30 12733 C 1189.23 -3.29915 -2.78891 0
M  V30 12734 C 1188.36 -3.40993 -4.07305 0
M  V30 12735 C 1187.4 -4.6268 -4.00741 0
M  V30 12736 N 1186.54 -4.70826 -5.20833 0
M  V30 12737 H 1191.38 -2.73328 -1.18727 0
M  V30 12738 H 1188.91 -1.35386 -0.57525 0
M  V30 12739 H 1190.87 -2.12351 -3.59114 0
M  V30 12740 H 1189.5 -1.13416 -3.0222 0
M  V30 12741 H 1188.55 -3.28637 -1.91577 0
M  V30 12742 H 1189.87 -4.19459 -2.69917 0
M  V30 12743 H 1189.02 -3.50542 -4.95182 0
M  V30 12744 H 1187.76 -2.49493 -4.19052 0
M  V30 12745 H 1186.76 -4.53215 -3.11249 0
M  V30 12746 H 1187.99 -5.55538 -3.90582 0
M  V30 12747 H 1185.93 -3.82233 -5.33136 0
M  V30 12748 H 1185.85 -5.54297 -5.14092 0
M  V30 12749 H 1187.12 -4.84677 -6.10499 0
M  V30 12750 N 1191.35 0.610423 -1.45298 0
M  V30 12751 C 1192.76 1.19234 -1.43667 0
M  V30 12752 C 1193.11 1.95523 -0.162794 0
M  V30 12753 O 1192.24 2.03507 0.735789 0
M  V30 12754 C 1192.83 2.16892 -2.60276 0
M  V30 12755 C 1191.39 2.70465 -2.61774 0
M  V30 12756 C 1190.54 1.45821 -2.35863 0
M  V30 12757 H 1193.49 0.399895 -1.53579 0
M  V30 12758 H 1193.51 2.99875 -2.34212 0
M  V30 12759 H 1193.02 1.61339 -3.52975 0
M  V30 12760 H 1191.12 3.29965 -1.73072 0
M  V30 12761 H 1191.23 3.15092 -3.60907 0
M  V30 12762 H 1189.6 1.74678 -1.85364 0
M  V30 12763 H 1190.38 0.921403 -3.30704 0
M  V30 12764 N 1192.83 1.32541 0.852676 0
M  V30 12765 C 1194.07 1.22971 1.60383 0
M  V30 12766 C 1194.4 -0.208009 1.93887 0
M  V30 12767 O 1193.67 -1.13326 1.59794 0
M  V30 12768 H 1192.25 0.452149 0.594618 0
M  V30 12769 H 1194.91 1.66089 1.01983 0
M  V30 12770 H 1194 1.81373 2.53989 0
M  V30 12771 N 1194.3 -1.0692 1.15784 0
M  V30 12772 C 1195.53 -1.83849 0.959903 0
M  V30 12773 C 1195.95 -1.8169 -0.486873 0
M  V30 12774 O 1195.31 -1.21305 -1.34739 0
M  V30 12775 C 1195.36 -3.28642 1.48414 0
M  V30 12776 O 1194.46 -4.0665 0.686249 0
M  V30 12777 H 1193.81 -0.569115 0.342059 0
M  V30 12778 H 1196.34 -1.34851 1.53871 0
M  V30 12779 H 1196.35 -3.7947 1.49888 0
M  V30 12780 H 1195.02 -3.29529 2.53739 0
M  V30 12781 H 1193.6 -3.65453 0.741501 0
M  V30 12782 N 1195.78 -0.955326 -1.25345 0
M  V30 12783 C 1197.01 -0.627693 -1.97149 0
M  V30 12784 C 1197.43 0.800349 -1.70997 0
M  V30 12785 O 1196.78 1.53545 -0.986417 0
M  V30 12786 C 1196.83 -0.877675 -3.50684 0
M  V30 12787 O 1196.55 -2.24957 -3.75934 0
M  V30 12788 C 1198.06 -0.562524 -4.39716 0
M  V30 12789 H 1195.28 -0.235269 -0.628402 0
M  V30 12790 H 1197.82 -1.27989 -1.59496 0
M  V30 12791 H 1195.97 -0.271878 -3.86445 0
M  V30 12792 H 1196.39 -2.32022 -4.70389 0
M  V30 12793 H 1197.86 -0.787972 -5.46347 0
M  V30 12794 H 1198.34 0.50293 -4.36311 0
M  V30 12795 H 1198.95 -1.14767 -4.09522 0
M  V30 12796 N 1197.26 1.39987 -0.723979 0
M  V30 12797 C 1198.49 2.0556 -0.275634 0
M  V30 12798 C 1198.91 1.54207 1.07711 0
M  V30 12799 O 1198.27 0.681041 1.68022 0
M  V30 12800 C 1198.32 3.59551 -0.27485 0
M  V30 12801 O 1197.42 4.05685 0.741182 0
M  V30 12802 H 1196.76 0.651634 -0.12755 0
M  V30 12803 H 1199.29 1.79229 -0.986814 0
M  V30 12804 H 1199.3 4.07837 -0.115425 0
M  V30 12805 H 1197.98 3.96291 -1.26198 0
M  V30 12806 H 1196.55 3.6884 0.548795 0
M  V30 12807 N 1198.74 0.470782 1.50404 0
M  V30 12808 C 1199.96 -0.084284 2.07229 0
M  V30 12809 C 1200.39 -1.32774 1.33239 0
M  V30 12810 O 1199.75 -1.77274 0.379971 0
M  V30 12811 C 1199.8 -0.351565 3.58882 0
M  V30 12812 O 1198.9 -1.43211 3.86736 0
M  V30 12813 H 1198.24 0.0128479 0.663876 0
M  V30 12814 H 1200.77 0.661735 1.93603 0
M  V30 12815 H 1200.78 -0.592151 4.0368 0
M  V30 12816 H 1199.46 0.557084 4.12152 0
M  V30 12817 H 1198.03 -1.17886 3.53776 0
M  V30 12818 N 1200.22 -1.56282 0.203376 0
M  V30 12819 C 1201.63 -1.84146 -0.307752 0
M  V30 12820 C 1201.98 -1.12429 -1.60792 0
M  V30 12821 O 1201.1 -0.387852 -2.12896 0
M  V30 12822 C 1201.7 -3.34053 -0.565152 0
M  V30 12823 C 1200.26 -3.62298 -1.02063 0
M  V30 12824 C 1199.41 -2.77202 -0.0737343 0
M  V30 12825 H 1202.36 -1.52848 0.426983 0
M  V30 12826 H 1202.38 -3.53273 -1.41345 0
M  V30 12827 H 1201.89 -3.86222 0.381301 0
M  V30 12828 H 1199.99 -3.1557 -1.98107 0
M  V30 12829 H 1200.1 -4.70424 -0.907614 0
M  V30 12830 H 1198.47 -2.48074 -0.577169 0
M  V30 12831 H 1199.25 -3.32164 0.86731 0
M  V30 12832 N 1201.7 0.070167 -1.57444 0
M  V30 12833 C 1202.64 1.08322 -2.03801 0
M  V30 12834 C 1203.61 1.38364 -0.918946 0
M  V30 12835 O 1204.8 1.49404 -1.18672 0
M  V30 12836 C 1201.94 2.39128 -2.48821 0
M  V30 12837 C 1201.05 2.15603 -3.74352 0
M  V30 12838 C 1200.19 3.39984 -4.08148 0
M  V30 12839 C 1199.22 3.1183 -5.26715 0
M  V30 12840 N 1198.36 4.28546 -5.56141 0
M  V30 12841 H 1203.2 0.680931 -2.90116 0
M  V30 12842 H 1200.74 0.324657 -1.43473 0
M  V30 12843 H 1202.7 3.15501 -2.72975 0
M  V30 12844 H 1201.33 2.77157 -1.65481 0
M  V30 12845 H 1200.38 1.29915 -3.57528 0
M  V30 12846 H 1201.69 1.90808 -4.60862 0
M  V30 12847 H 1200.84 4.2475 -4.33211 0
M  V30 12848 H 1199.58 3.67856 -3.20208 0
M  V30 12849 H 1198.59 2.2546 -5.01446 0
M  V30 12850 H 1199.81 2.85278 -6.16273 0
M  V30 12851 H 1197.76 4.56447 -4.71161 0
M  V30 12852 H 1197.68 4.0703 -6.37073 0
M  V30 12853 H 1198.94 5.14305 -5.85757 0
M  V30 12854 N 1203.17 1.53854 0.341593 0
M  V30 12855 C 1204.14 1.8128 1.40251 0
M  V30 12856 C 1205.14 0.683915 1.45531 0
M  V30 12857 O 1206.33 0.952202 1.45872 0
M  V30 12858 C 1203.46 1.95658 2.79161 0
M  V30 12859 H 1204.65 2.76053 1.17195 0
M  V30 12860 H 1202.2 1.45296 0.57609 0
M  V30 12861 H 1202.94 1.03034 3.07497 0
M  V30 12862 H 1202.72 2.77788 2.76724 0
M  V30 12863 H 1204.21 2.18387 3.55945 0
M  V30 12864 N 1204.65 -0.602709 1.4562 0
M  V30 12865 C 1205.58 -1.72374 1.5751 0
M  V30 12866 C 1206.56 -1.64669 0.426389 0
M  V30 12867 O 1207.75 -1.82994 0.650143 0
M  V30 12868 C 1204.88 -3.10987 1.5461 0
M  V30 12869 C 1203.83 -3.33507 2.68248 0
M  V30 12870 C 1203.16 -4.72443 2.50403 0
M  V30 12871 C 1204.46 -3.23285 4.10224 0
M  V30 12872 H 1206.15 -1.62679 2.51348 0
M  V30 12873 H 1203.7 -0.781217 1.20967 0
M  V30 12874 H 1205.65 -3.89214 1.61525 0
M  V30 12875 H 1204.37 -3.21533 0.573049 0
M  V30 12876 H 1203.03 -2.57672 2.60769 0
M  V30 12877 H 1202.68 -4.79729 1.51226 0
M  V30 12878 H 1202.38 -4.88466 3.26611 0
M  V30 12879 H 1203.91 -5.52864 2.59179 0
M  V30 12880 H 1205.32 -3.91381 4.1892 0
M  V30 12881 H 1203.72 -3.50837 4.86861 0
M  V30 12882 H 1204.79 -2.20652 4.31788 0
M  V30 12883 N 1206.13 -1.32992 -0.845635 0
M  V30 12884 C 1207.35 -1.27231 -1.6379 0
M  V30 12885 C 1207.78 0.155141 -1.87459 0
M  V30 12886 O 1207.14 1.10953 -1.43384 0
M  V30 12887 C 1207.19 -2.04629 -2.96916 0
M  V30 12888 O 1206.29 -1.40027 -3.879 0
M  V30 12889 H 1205.63 -0.438045 -0.499011 0
M  V30 12890 H 1208.16 -1.75448 -1.05257 0
M  V30 12891 H 1208.17 -2.15141 -3.46667 0
M  V30 12892 H 1206.85 -3.08425 -2.79011 0
M  V30 12893 H 1205.42 -1.38118 -3.46378 0
M  V30 12894 N 1207.61 1.06304 -1.1635 0
M  V30 12895 C 1209.02 1.60566 -0.952652 0
M  V30 12896 C 1209.37 1.8963 0.503473 0
M  V30 12897 O 1208.49 1.66964 1.37666 0
M  V30 12898 C 1209.09 2.9172 -1.72292 0
M  V30 12899 C 1207.65 3.42684 -1.55707 0
M  V30 12900 C 1206.8 2.16579 -1.73172 0
M  V30 12901 H 1209.75 0.892563 -1.31221 0
M  V30 12902 H 1209.77 3.61126 -1.19868 0
M  V30 12903 H 1209.28 2.70535 -2.78267 0
M  V30 12904 H 1207.38 3.68929 -0.521726 0
M  V30 12905 H 1207.49 4.18018 -2.34088 0
M  V30 12906 H 1205.86 2.26795 -1.15914 0
M  V30 12907 H 1206.64 1.97877 -2.80535 0
M  V30 12908 N 1209.09 0.96196 1.24836 0
M  V30 12909 C 1210.5 0.660388 1.7463 0
M  V30 12910 C 1210.85 -0.824064 1.78055 0
M  V30 12911 O 1209.97 -1.64485 1.40619 0
M  V30 12912 C 1210.57 1.19205 3.17137 0
M  V30 12913 C 1209.13 0.940493 3.64461 0
M  V30 12914 C 1208.27 1.33076 2.43282 0
M  V30 12915 H 1211.22 1.13794 1.1062 0
M  V30 12916 H 1211.25 0.555595 3.76422 0
M  V30 12917 H 1210.76 2.27247 3.14612 0
M  V30 12918 H 1208.86 -0.124645 3.72391 0
M  V30 12919 H 1208.97 1.5821 4.52224 0
M  V30 12920 H 1207.34 0.749139 2.43434 0
M  V30 12921 H 1208.12 2.42055 2.43442 0
M  V30 12922 N 1210.56 -1.39601 0.731392 0
M  V30 12923 C 1211.97 -1.83424 0.348194 0
M  V30 12924 C 1212.33 -1.61106 -1.11979 0
M  V30 12925 O 1211.45 -1.1003 -1.86339 0
M  V30 12926 C 1212.05 -3.32982 0.6252 0
M  V30 12927 C 1210.6 -3.75238 0.295536 0
M  V30 12928 C 1209.75 -2.62642 0.88964 0
M  V30 12929 H 1212.7 -1.28644 0.929318 0
M  V30 12930 H 1212.72 -3.80357 -0.104254 0
M  V30 12931 H 1212.24 -3.49193 1.69368 0
M  V30 12932 H 1210.34 -3.64615 -0.767254 0
M  V30 12933 H 1210.45 -4.72781 0.775576 0
M  V30 12934 H 1208.81 -2.52726 0.316529 0
M  V30 12935 H 1209.6 -2.81661 1.96271 0
M  V30 12936 N 1212.04 -0.478751 -1.50152 0
M  V30 12937 C 1213.27 0.0732929 -2.0727 0
M  V30 12938 C 1213.69 1.32066 -1.33941 0
M  V30 12939 O 1213.05 1.7707 -0.389367 0
M  V30 12940 C 1213.1 0.332528 -3.59064 0
M  V30 12941 O 1212.2 1.41158 -3.8749 0
M  V30 12942 H 1211.54 -0.0163684 -0.663798 0
M  V30 12943 H 1214.07 -0.671993 -1.9325 0
M  V30 12944 H 1214.08 0.570735 -4.03988 0
M  V30 12945 H 1212.76 -0.578934 -4.11851 0
M  V30 12946 H 1211.34 1.16008 -3.54396 0
M  V30 12947 N 1213.52 1.56172 -0.211661 0
M  V30 12948 C 1214.77 1.98332 0.423332 0
M  V30 12949 C 1215.1 1.09895 1.60115 0
M  V30 12950 O 1214.37 0.154477 1.93886 0
M  V30 12951 C 1214.66 3.49495 0.86747 0
M  V30 12952 C 1214.51 4.48708 -0.313302 0
M  V30 12953 C 1215.83 4.04793 1.72716 0
M  V30 12954 H 1212.95 0.72107 0.152402 0
M  V30 12955 H 1215.59 1.87521 -0.305912 0
M  V30 12956 H 1213.74 3.58839 1.48885 0
M  V30 12957 H 1215.41 4.51385 -0.951291 0
M  V30 12958 H 1213.66 4.2299 -0.96238 0
M  V30 12959 H 1214.33 5.51985 0.0402402 0
M  V30 12960 H 1216.8 3.98332 1.20296 0
M  V30 12961 H 1215.68 5.10898 2.00684 0
M  V30 12962 H 1215.94 3.51067 2.68709 0
M  V30 12963 N 1215 -0.0618163 1.57479 0
M  V30 12964 C 1216.28 -0.792636 1.7882 0
M  V30 12965 C 1216.66 -1.95283 0.801724 0
M  V30 12966 O 1216 -2.27917 -0.163095 0
M  V30 12967 C 1216.21 -1.25629 3.25605 0
M  V30 12968 C 1217.56 -1.68561 3.89708 0
M  V30 12969 O 1218.59 -1.35171 3.29556 0
M  V30 12970 O 1217.44 -2.30417 4.95551 0
M  V30 12971 H 1214.54 -0.380595 0.734218 0
M  V30 12972 H 1217.08 -0.0411205 1.6965 0
M  V30 12973 H 1215.86 -0.426582 3.88968 0
M  V30 12974 H 1215.48 -2.06882 3.39537 0
M  V30 12975 N 1216.48 -1.54033 -0.333429 0
M  V30 12976 C 1217.7 -1.76031 -1.09672 0
M  V30 12977 C 1218.13 -0.502844 -1.81254 0
M  V30 12978 O 1217.48 0.54509 -1.72912 0
M  V30 12979 C 1217.53 -2.947 -2.07809 0
M  V30 12980 O 1216.64 -2.65555 -3.15522 0
M  V30 12981 H 1215.98 -0.583611 -0.316692 0
M  V30 12982 H 1218.51 -2.01026 -0.380732 0
M  V30 12983 H 1218.52 -3.21771 -2.50853 0
M  V30 12984 H 1217.19 -3.85895 -1.55106 0
M  V30 12985 H 1215.77 -2.49403 -2.77223 0
M  V30 12986 N 1217.95 0.594978 -1.45938 0
M  V30 12987 C 1218.9 1.726 -1.55923 0
M  V30 12988 C 1219.9 1.63893 -0.428411 0
M  V30 12989 O 1221.1 1.69535 -0.604815 0
M  V30 12990 H 1217.48 0.570447 -0.489994 0
M  V30 12991 H 1219.45 1.61308 -2.51043 0
M  V30 12992 C 1218.2 3.10988 -1.55505 0
M  V30 12993 H 1217.52 3.18353 -2.4185 0
M  V30 12994 H 1218.96 3.8992 -1.66548 0
M  V30 12995 C 1217.42 3.35721 -0.281573 0
M  V30 12996 O 1217.95 3.96676 0.633336 0
M  V30 12997 N 1216.16 2.90083 -0.173314 0
M  V30 12998 H 1215.7 2.4066 -0.91872 0
M  V30 12999 H 1215.66 3.07005 0.677903 0
M  V30 13000 N 1219.43 1.33438 0.838571 0
M  V30 13001 C 1220.66 1.27766 1.62356 0
M  V30 13002 C 1221.07 -0.15359 1.88576 0
M  V30 13003 O 1220.41 -1.10626 1.46654 0
M  V30 13004 C 1220.48 1.98435 2.99773 0
M  V30 13005 C 1220.14 3.47741 2.96522 0
M  V30 13006 C 1221.14 4.42938 2.72217 0
M  V30 13007 C 1218.82 3.89922 3.16648 0
M  V30 13008 C 1220.82 5.7829 2.68066 0
M  V30 13009 C 1218.5 5.25378 3.12123 0
M  V30 13010 C 1219.5 6.19374 2.87863 0
M  V30 13011 O 1219.19 7.52349 2.83242 0
M  V30 13012 H 1218.92 0.441527 0.511889 0
M  V30 13013 H 1221.47 1.76377 1.05262 0
M  V30 13014 H 1219.7 1.44415 3.58721 0
M  V30 13015 H 1221.39 1.86258 3.60642 0
M  V30 13016 H 1222.16 4.11673 2.56418 0
M  V30 13017 H 1218.04 3.17169 3.34552 0
M  V30 13018 H 1221.58 6.51629 2.4905 0
M  V30 13019 H 1217.48 5.56267 3.27471 0
M  V30 13020 H 1218.25 7.61901 2.99082 0
M  V30 13021 N 1220.91 -1.05686 1.16912 0
M  V30 13022 C 1222.32 -1.60059 0.961153 0
M  V30 13023 C 1222.67 -1.89894 -0.493409 0
M  V30 13024 O 1221.8 -1.67692 -1.36778 0
M  V30 13025 C 1222.39 -2.90803 1.73837 0
M  V30 13026 C 1220.95 -3.41854 1.57522 0
M  V30 13027 C 1220.1 -2.15658 1.74319 0
M  V30 13028 H 1223.05 -0.885592 1.31693 0
M  V30 13029 H 1223.07 -3.60485 1.21781 0
M  V30 13030 H 1222.58 -2.69056 2.79697 0
M  V30 13031 H 1220.68 -3.68647 0.541284 0
M  V30 13032 H 1220.8 -4.16771 2.36302 0
M  V30 13033 H 1219.16 -2.26177 1.17115 0
M  V30 13034 H 1219.94 -1.96386 2.8158 0
M  V30 13035 N 1222.39 -0.968567 -1.24324 0
M  V30 13036 C 1223.62 -0.648568 -1.96472 0
M  V30 13037 C 1224.03 0.782168 -1.71836 0
M  V30 13038 O 1223.39 1.5249 -1.00265 0
M  V30 13039 C 1223.44 -0.91482 -3.49733 0
M  V30 13040 O 1223.16 -2.28931 -3.73527 0
M  V30 13041 C 1224.66 -0.609131 -4.39095 0
M  V30 13042 H 1221.88 -0.241921 -0.625872 0
M  V30 13043 H 1224.43 -1.29673 -1.5813 0
M  V30 13044 H 1222.58 -0.31285 -3.86135 0
M  V30 13045 H 1222.99 -2.36998 -4.67902 0
M  V30 13046 H 1224.47 -0.845875 -5.4548 0
M  V30 13047 H 1224.95 0.456625 -4.3682 0
M  V30 13048 H 1225.55 -1.19105 -4.08282 0
M  V30 13049 N 1223.87 1.39211 -0.738786 0
M  V30 13050 C 1225.28 1.54116 -0.414773 0
M  V30 13051 C 1225.48 1.70497 1.07392 0
M  V30 13052 O 1224.54 1.7076 1.86003 0
M  V30 13053 C 1225.85 2.7567 -1.2011 0
M  V30 13054 C 1227.4 2.89508 -1.1897 0
M  V30 13055 C 1227.87 4.14005 -1.95868 0
M  V30 13056 N 1229.37 4.21052 -1.93053 0
M  V30 13057 C 1230.1 5.16341 -2.49358 0
M  V30 13058 N 1229.6 6.17396 -3.14316 0
M  V30 13059 N 1231.39 5.08585 -2.3937 0
M  V30 13060 H 1223.54 1.26827 -1.70378 0
M  V30 13061 H 1225.8 0.614983 -0.721457 0
M  V30 13062 H 1225.51 2.69922 -2.25467 0
M  V30 13063 H 1225.38 3.68443 -0.808065 0
M  V30 13064 H 1227.77 2.94747 -0.144248 0
M  V30 13065 H 1227.85 1.97788 -1.62214 0
M  V30 13066 H 1227.5 4.09527 -3.00416 0
M  V30 13067 H 1227.43 5.04776 -1.50028 0
M  V30 13068 H 1229.92 3.48669 -1.45733 0
M  V30 13069 H 1230.23 6.86572 -3.54737 0
M  V30 13070 H 1228.57 6.17772 -3.18407 0
M  V30 13071 H 1231.77 4.28573 -1.88262 0
M  V30 13072 H 1231.94 5.8267 -2.83549 0
M  V30 13073 N 1225.34 0.486708 1.49896 0
M  V30 13074 C 1226.25 -0.304222 2.32619 0
M  V30 13075 C 1227.27 -0.981103 1.43702 0
M  V30 13076 O 1228.45 -0.965639 1.76741 0
M  V30 13077 C 1225.51 -1.36301 3.18783 0
M  V30 13078 C 1224.57 -0.701082 4.23537 0
M  V30 13079 C 1223.81 -1.70943 5.05583 0
M  V30 13080 O 1224.03 -2.93773 4.88931 0
M  V30 13081 O 1222.96 -1.27263 5.88292 0
M  V30 13082 H 1226.79 0.37248 3.01407 0
M  V30 13083 H 1224.37 0.248277 1.47323 0
M  V30 13084 H 1226.26 -1.97594 3.72202 0
M  V30 13085 H 1224.93 -2.0229 2.52706 0
M  V30 13086 H 1223.84 -0.0487926 3.74068 0
M  V30 13087 H 1225.17 -0.0838817 4.92129 0
M  V30 13088 N 1226.82 -1.56058 0.219941 0
M  V30 13089 C 1228.24 -1.59024 -0.135476 0
M  V30 13090 C 1228.44 -1.23672 -1.59083 0
M  V30 13091 O 1227.5 -0.971197 -2.33075 0
M  V30 13092 C 1228.81 -3.00103 0.189356 0
M  V30 13093 C 1230.36 -3.12724 0.131463 0
M  V30 13094 C 1230.83 -4.55977 0.429947 0
M  V30 13095 N 1232.32 -4.61643 0.37946 0
M  V30 13096 C 1233.06 -5.70419 0.58393 0
M  V30 13097 N 1232.55 -6.87565 0.850088 0
M  V30 13098 N 1234.35 -5.59722 0.516477 0
M  V30 13099 H 1226.5 -1.77313 1.16935 0
M  V30 13100 H 1228.76 -0.824096 0.468583 0
M  V30 13101 H 1228.47 -3.30616 1.19941 0
M  V30 13102 H 1228.34 -3.73919 -0.49641 0
M  V30 13103 H 1230.73 -2.82008 -0.869223 0
M  V30 13104 H 1230.81 -2.41241 0.85068 0
M  V30 13105 H 1230.45 -4.8741 1.42806 0
M  V30 13106 H 1230.38 -5.25684 -0.310444 0
M  V30 13107 H 1232.87 -3.77465 0.181373 0
M  V30 13108 H 1233.19 -7.66378 0.994251 0
M  V30 13109 H 1231.53 -6.89313 0.887265 0
M  V30 13110 H 1234.72 -4.6708 0.308784 0
M  V30 13111 H 1234.9 -6.4443 0.679236 0
M  V30 13112 N 1228.3 0.053464 -1.57509 0
M  V30 13113 C 1229.26 1.04604 -2.03938 0
M  V30 13114 C 1230.26 1.30509 -0.939357 0
M  V30 13115 O 1231.45 1.25922 -1.20371 0
M  V30 13116 C 1228.59 2.38516 -2.43563 0
M  V30 13117 H 1229.78 0.645484 -2.92871 0
M  V30 13118 H 1227.33 0.299683 -1.534 0
M  V30 13119 H 1228.07 2.83368 -1.57712 0
M  V30 13120 H 1227.85 2.2105 -3.23851 0
M  V30 13121 H 1229.34 3.09826 -2.79996 0
M  V30 13122 N 1229.78 1.54207 0.325255 0
M  V30 13123 C 1231 1.7661 1.08736 0
M  V30 13124 C 1231.43 0.512449 1.80985 0
M  V30 13125 O 1230.79 -0.535913 1.73198 0
M  V30 13126 C 1230.84 2.95797 2.06243 0
M  V30 13127 O 1229.94 2.67225 3.14109 0
M  V30 13128 H 1229.28 0.585282 0.313593 0
M  V30 13129 H 1231.81 2.01225 0.370066 0
M  V30 13130 H 1231.82 3.23097 2.49143 0
M  V30 13131 H 1230.5 3.86712 1.53058 0
M  V30 13132 H 1229.07 2.50869 2.75897 0
M  V30 13133 N 1231.26 -0.58723 1.46251 0
M  V30 13134 C 1232.5 -1.3456 1.51327 0
M  V30 13135 C 1232.83 -1.93815 0.163146 0
M  V30 13136 O 1232.09 -1.76723 -0.840677 0
M  V30 13137 C 1232.39 -2.49776 2.5563 0
M  V30 13138 C 1232.05 -2.08543 3.99776 0
M  V30 13139 C 1230.71 -1.97013 4.39021 0
M  V30 13140 C 1233.07 -1.76669 4.90344 0
M  V30 13141 C 1230.39 -1.5186 5.66706 0
M  V30 13142 C 1232.75 -1.32996 6.18462 0
M  V30 13143 C 1231.41 -1.20039 6.56618 0
M  V30 13144 H 1230.68 -0.492391 0.553744 0
M  V30 13145 H 1233.33 -0.661715 1.79704 0
M  V30 13146 H 1231.63 -3.23592 2.20897 0
M  V30 13147 H 1233.33 -3.07995 2.56788 0
M  V30 13148 H 1229.92 -2.18451 3.68751 0
M  V30 13149 H 1234.1 -1.84465 4.60746 0
M  V30 13150 H 1229.36 -1.40467 5.95045 0
M  V30 13151 H 1233.53 -1.07385 6.88071 0
M  V30 13152 H 1231.16 -0.848268 7.55452 0
M  V30 13153 N 1232.74 -1.33881 -0.831482 0
M  V30 13154 C 1233.68 -1.24741 -1.96322 0
M  V30 13155 C 1234.68 -0.147251 -1.68759 0
M  V30 13156 O 1235.88 -0.311684 -1.77281 0
M  V30 13157 H 1232.26 -0.387298 -0.644596 0
M  V30 13158 H 1234.23 -2.20407 -2.01155 0
M  V30 13159 C 1232.98 -1.01102 -3.32677 0
M  V30 13160 H 1232.3 -1.84986 -3.54429 0
M  V30 13161 H 1233.74 -0.987398 -4.12343 0
M  V30 13162 C 1232.2 0.285903 -3.35685 0
M  V30 13163 O 1232.73 1.29014 -3.80419 0
M  V30 13164 N 1230.94 0.316026 -2.88877 0
M  V30 13165 H 1230.48 -0.501758 -2.52666 0
M  V30 13166 H 1230.44 1.18357 -2.91271 0
M  V30 13167 N 1234.21 1.05064 -1.1747 0
M  V30 13168 C 1235.63 1.30256 -0.922248 0
M  V30 13169 C 1235.83 1.97119 0.417896 0
M  V30 13170 O 1234.89 2.24557 1.15457 0
M  V30 13171 C 1236.2 2.17109 -2.08049 0
M  V30 13172 C 1237.75 2.30487 -2.11766 0
M  V30 13173 C 1238.22 3.20701 -3.26979 0
M  V30 13174 N 1239.71 3.28287 -3.26775 0
M  V30 13175 C 1240.45 3.98218 -4.12565 0
M  V30 13176 N 1239.94 4.70567 -5.08467 0
M  V30 13177 N 1241.74 3.94395 -4.00511 0
M  V30 13178 H 1233.89 0.600653 -2.0373 0
M  V30 13179 H 1236.15 0.327475 -0.889643 0
M  V30 13180 H 1235.86 1.75273 -3.04914 0
M  V30 13181 H 1235.73 3.1775 -2.03261 0
M  V30 13182 H 1238.12 2.71564 -1.15486 0
M  V30 13183 H 1238.2 1.29471 -2.20615 0
M  V30 13184 H 1237.84 2.80337 -4.23525 0
M  V30 13185 H 1237.77 4.21725 -3.15366 0
M  V30 13186 H 1240.26 2.76739 -2.5734 0
M  V30 13187 H 1240.58 5.21492 -5.70321 0
M  V30 13188 H 1238.92 4.69505 -5.12436 0
M  V30 13189 H 1242.11 3.37 -3.24882 0
M  V30 13190 H 1242.29 4.48626 -4.67588 0
M  V30 13191 N 1235.69 0.975146 1.23809 0
M  V30 13192 C 1236.62 0.45593 2.23599 0
M  V30 13193 C 1237.6 -0.474069 1.55536 0
M  V30 13194 O 1238.79 -0.40373 1.84126 0
M  V30 13195 C 1235.91 -0.341008 3.36979 0
M  V30 13196 C 1234.96 0.532362 4.23164 0
M  V30 13197 S 1235.79 1.97706 4.97667 0
M  V30 13198 C 1236.95 1.18912 6.145 0
M  V30 13199 H 1237.18 1.30157 2.67295 0
M  V30 13200 H 1234.71 0.78074 1.33206 0
M  V30 13201 H 1236.67 -0.794817 4.02732 0
M  V30 13202 H 1235.33 -1.16171 2.91827 0
M  V30 13203 H 1234.53 -0.0798928 5.03937 0
M  V30 13204 H 1234.13 0.922202 3.62452 0
M  V30 13205 H 1236.42 0.447823 6.76018 0
M  V30 13206 H 1237.36 1.97148 6.80102 0
M  V30 13207 H 1237.77 0.710216 5.60014 0
M  V30 13208 N 1237.17 -1.38817 0.746158 0
M  V30 13209 C 1238.42 -2.00577 0.299458 0
M  V30 13210 C 1238.75 -1.59087 -1.11378 0
M  V30 13211 O 1238.02 -0.824932 -1.7614 0
M  V30 13212 C 1238.31 -3.57713 0.413932 0
M  V30 13213 C 1238.16 -4.09189 1.86774 0
M  V30 13214 C 1239.48 -4.39659 -0.197082 0
M  V30 13215 H 1236.6 -0.728702 0.110285 0
M  V30 13216 H 1239.24 -1.64866 0.944408 0
M  V30 13217 H 1237.39 -3.88265 -0.135155 0
M  V30 13218 H 1239.06 -3.89311 2.47456 0
M  V30 13219 H 1237.3 -3.62333 2.38532 0
M  V30 13220 H 1237.98 -5.18305 1.89904 0
M  V30 13221 H 1240.45 -4.15216 0.271121 0
M  V30 13222 H 1239.33 -5.48832 -0.0867011 0
M  V30 13223 H 1239.59 -4.23028 -1.2845 0
M  V30 13224 N 1238.65 -0.49465 -1.49636 0
M  V30 13225 C 1239.58 0.33366 -2.25748 0
M  V30 13226 C 1240.56 0.97591 -1.30057 0
M  V30 13227 O 1241.74 1.00725 -1.59332 0
M  V30 13228 C 1238.87 1.46938 -3.05167 0
M  V30 13229 C 1237.92 0.942149 -4.15964 0
M  V30 13230 S 1238.75 -0.162019 -5.35255 0
M  V30 13231 C 1239.9 0.977022 -6.18227 0
M  V30 13232 H 1240.14 -0.312361 -2.95655 0
M  V30 13233 H 1237.67 -0.279854 -1.51843 0
M  V30 13234 H 1239.63 2.12017 -3.5151 0
M  V30 13235 H 1238.29 2.087 -2.34741 0
M  V30 13236 H 1237.48 1.79309 -4.71025 0
M  V30 13237 H 1237.08 0.368687 -3.72178 0
M  V30 13238 H 1239.38 1.88363 -6.50788 0
M  V30 13239 H 1240.32 0.465168 -7.0657 0
M  V30 13240 H 1240.73 1.24149 -5.50679 0
M  V30 13241 N 1240.13 1.55939 -0.228214 0
M  V30 13242 C 1241.08 2.17223 0.692674 0
M  V30 13243 C 1242.06 1.12252 1.15275 0
M  V30 13244 O 1243.25 1.3822 1.10563 0
M  V30 13245 C 1240.38 2.86084 1.89766 0
M  V30 13246 C 1239.47 3.98288 1.45695 0
M  V30 13247 N 1239.86 5.00515 0.729258 0
M  V30 13248 C 1238.16 4.105 1.74372 0
M  V30 13249 C 1238.86 5.79516 0.503606 0
M  V30 13250 N 1237.83 5.33119 1.06229 0
M  V30 13251 H 1241.63 2.9362 0.128345 0
M  V30 13252 H 1239.15 1.62373 -0.0297445 0
M  V30 13253 H 1241.15 3.28404 2.5682 0
M  V30 13254 H 1239.81 2.11185 2.46639 0
M  V30 13255 H 1240.82 5.16495 0.381261 0
M  V30 13256 H 1237.49 3.46759 2.32518 0
M  V30 13257 H 1238.88 6.71857 -0.0760344 0
M  V30 13258 N 1241.6 -0.0451101 1.57535 0
M  V30 13259 C 1242.83 -0.755068 1.93167 0
M  V30 13260 C 1243.25 -1.68949 0.826915 0
M  V30 13261 O 1242.61 -1.79978 -0.218534 0
M  V30 13262 C 1242.66 -1.50201 3.27829 0
M  V30 13263 O 1241.76 -2.61434 3.18945 0
M  V30 13264 H 1241.11 -0.204219 0.631815 0
M  V30 13265 H 1243.64 -0.00537504 2.04599 0
M  V30 13266 H 1243.65 -1.87547 3.6234 0
M  V30 13267 H 1242.32 -0.816591 4.07805 0
M  V30 13268 H 1240.9 -2.26749 2.96039 0
M  V30 13269 N 1243.08 -1.54377 -0.317073 0
M  V30 13270 C 1244.05 -1.83488 -1.37349 0
M  V30 13271 C 1245.05 -0.706981 -1.44424 0
M  V30 13272 O 1246.24 -0.975289 -1.44339 0
M  V30 13273 C 1243.37 -2.00074 -2.76013 0
M  V30 13274 H 1244.56 -2.77883 -1.12789 0
M  V30 13275 H 1242.11 -1.46194 -0.552902 0
M  V30 13276 H 1242.85 -1.07913 -3.05819 0
M  V30 13277 H 1242.63 -2.82155 -2.7227 0
M  V30 13278 H 1244.12 -2.24022 -3.52426 0
M  V30 13279 N 1244.56 0.579466 -1.4656 0
M  V30 13280 C 1245.52 1.67033 -1.56948 0
M  V30 13281 C 1246.52 1.54481 -0.446361 0
M  V30 13282 O 1247.71 1.5904 -0.710767 0
M  V30 13283 C 1244.85 3.06474 -1.49286 0
M  V30 13284 H 1246.04 1.59179 -2.54169 0
M  V30 13285 H 1243.59 0.797573 -1.34419 0
M  V30 13286 H 1244.33 3.1988 -0.533572 0
M  V30 13287 H 1244.11 3.16993 -2.30776 0
M  V30 13288 H 1245.6 3.85879 -1.59648 0
M  V30 13289 N 1246.04 1.3432 0.824371 0
M  V30 13290 C 1247.26 1.2982 1.61745 0
M  V30 13291 C 1247.69 -0.125298 1.87682 0
M  V30 13292 O 1247.05 -1.08658 1.45131 0
M  V30 13293 C 1247.09 2.09327 2.93623 0
M  V30 13294 O 1246.2 1.4618 3.85623 0
M  V30 13295 H 1245.54 0.445929 0.491979 0
M  V30 13296 H 1248.07 1.77101 1.02452 0
M  V30 13297 H 1248.08 2.20629 3.43201 0
M  V30 13298 H 1246.75 3.12825 2.74069 0
M  V30 13299 H 1245.33 1.43611 3.44137 0
M  V30 13300 N 1247.52 -1.0444 1.18026 0
M  V30 13301 C 1248.93 -1.5903 0.978076 0
M  V30 13302 C 1249.28 -1.90407 -0.473241 0
M  V30 13303 O 1248.4 -1.69133 -1.34992 0
M  V30 13304 C 1249 -2.88942 1.76912 0
M  V30 13305 C 1247.56 -3.40164 1.61139 0
M  V30 13306 C 1246.7 -2.13797 1.76596 0
M  V30 13307 H 1249.66 -0.871574 1.32625 0
M  V30 13308 H 1249.68 -3.59173 1.25598 0
M  V30 13309 H 1249.19 -2.66074 2.82535 0
M  V30 13310 H 1247.29 -3.68053 0.580353 0
M  V30 13311 H 1247.4 -4.14241 2.40709 0
M  V30 13312 H 1245.77 -2.24922 1.19507 0
M  V30 13313 H 1246.55 -1.93389 2.83647 0
M  V30 13314 N 1248.99 -0.981699 -1.2329 0
M  V30 13315 C 1250.22 -0.66937 -1.95773 0
M  V30 13316 C 1250.64 0.763898 -1.72656 0
M  V30 13317 O 1249.99 1.51418 -1.01876 0
M  V30 13318 C 1250.05 -0.951863 -3.48743 0
M  V30 13319 O 1249.77 -2.3288 -3.71078 0
M  V30 13320 C 1251.27 -0.655668 -4.38424 0
M  V30 13321 H 1248.49 -0.248545 -0.623271 0
M  V30 13322 H 1251.03 -1.31343 -1.56746 0
M  V30 13323 H 1249.19 -0.353787 -3.85781 0
M  V30 13324 H 1249.6 -2.41948 -4.65362 0
M  V30 13325 H 1251.07 -0.903683 -5.44553 0
M  V30 13326 H 1251.55 0.410269 -4.3728 0
M  V30 13327 H 1252.16 -1.23428 -4.06996 0
M  V30 13328 N 1250.47 1.3842 -0.753509 0
M  V30 13329 C 1251.4 2.29039 -0.0859463 0
M  V30 13330 C 1252.42 1.47742 0.68383 0
M  V30 13331 O 1253.61 1.70607 0.524933 0
M  V30 13332 C 1250.71 3.26668 0.902296 0
M  V30 13333 C 1249.88 4.36986 0.190178 0
M  V30 13334 C 1248.94 5.14805 1.08916 0
M  V30 13335 O 1247.96 5.66441 0.559715 0
M  V30 13336 N 1249.17 5.27777 2.41726 0
M  V30 13337 H 1251.93 2.8697 -0.864196 0
M  V30 13338 H 1249.49 1.502 -0.604288 0
M  V30 13339 H 1251.48 3.75606 1.50672 0
M  V30 13340 H 1250.05 2.69636 1.58163 0
M  V30 13341 H 1249.27 3.89684 -0.594959 0
M  V30 13342 H 1250.56 5.07899 -0.302594 0
M  V30 13343 H 1249.96 4.87376 2.87196 0
M  V30 13344 H 1248.52 5.8009 2.97219 0
M  V30 13345 N 1251.95 0.502579 1.49372 0
M  V30 13346 C 1252.91 -0.263993 2.27675 0
M  V30 13347 C 1253.91 -0.892538 1.33755 0
M  V30 13348 O 1255.1 -0.756826 1.56901 0
M  V30 13349 C 1252.24 -1.37895 3.11765 0
M  V30 13350 H 1253.43 0.423132 2.969 0
M  V30 13351 H 1250.98 0.257595 1.54163 0
M  V30 13352 H 1251.72 -2.10018 2.47109 0
M  V30 13353 H 1251.5 -0.933694 3.80821 0
M  V30 13354 H 1252.99 -1.91889 3.70902 0
M  V30 13355 N 1253.43 -1.55816 0.23648 0
M  V30 13356 C 1254.84 -1.84757 -0.268622 0
M  V30 13357 C 1255.19 -1.15815 -1.58371 0
M  V30 13358 O 1254.32 -0.432923 -2.12025 0
M  V30 13359 C 1254.91 -3.35177 -0.494167 0
M  V30 13360 C 1253.47 -3.64382 -0.943551 0
M  V30 13361 C 1252.62 -2.77296 -0.0149191 0
M  V30 13362 H 1255.57 -1.51908 0.459308 0
M  V30 13363 H 1255.59 -3.56192 -1.3382 0
M  V30 13364 H 1255.1 -3.85327 0.463138 0
M  V30 13365 H 1253.2 -3.19701 -1.91369 0
M  V30 13366 H 1253.31 -4.72244 -0.807626 0
M  V30 13367 H 1251.68 -2.49243 -0.524419 0
M  V30 13368 H 1252.46 -3.30249 0.937571 0
M  V30 13369 N 1254.91 0.036755 -1.57557 0
M  V30 13370 C 1256.16 0.728107 -1.881 0
M  V30 13371 C 1256.47 1.7693 -0.833974 0
M  V30 13372 O 1257.67 2.5127 -1.02837 0
M  V30 13373 C 1256.13 1.34604 -3.33781 0
M  V30 13374 C 1255.74 0.341599 -4.46696 0
M  V30 13375 C 1257.48 2.01772 -3.73481 0
M  V30 13376 C 1255.39 0.967444 -5.83433 0
M  V30 13377 H 1254.32 0.275695 -0.701789 0
M  V30 13378 H 1256.97 -0.0177555 -1.83491 0
M  V30 13379 H 1255.35 2.14135 -3.3311 0
M  V30 13380 H 1256.53 -0.426441 -4.58823 0
M  V30 13381 H 1254.84 -0.227558 -4.15778 0
M  V30 13382 H 1257.44 2.49435 -4.72955 0
M  V30 13383 H 1257.78 2.83255 -3.05077 0
M  V30 13384 H 1258.31 1.29026 -3.76294 0
M  V30 13385 H 1255.05 0.19219 -6.55218 0
M  V30 13386 H 1254.57 1.70551 -5.75041 0
M  V30 13387 H 1256.25 1.47705 -6.29914 0
M  V30 13388 N 1256.39 1.54543 0.308881 0
M  V30 13389 C 1257.32 1.87947 1.38557 0
M  V30 13390 C 1258.3 0.737622 1.53275 0
M  V30 13391 O 1259.48 0.992664 1.66913 0
M  V30 13392 C 1256.61 2.11982 2.75102 0
M  V30 13393 C 1255.57 3.2783 2.75158 0
M  V30 13394 C 1254.89 3.37266 4.14917 0
M  V30 13395 C 1256.19 4.65129 2.37598 0
M  V30 13396 H 1257.89 2.78123 1.1085 0
M  V30 13397 H 1255.43 1.3382 0.531808 0
M  V30 13398 H 1257.38 2.33935 3.50503 0
M  V30 13399 H 1256.11 1.18569 3.04317 0
M  V30 13400 H 1254.77 3.05787 2.02212 0
M  V30 13401 H 1254.42 2.41384 4.41296 0
M  V30 13402 H 1254.12 4.15135 4.15857 0
M  V30 13403 H 1255.64 3.61471 4.92109 0
M  V30 13404 H 1257.05 4.86865 3.02714 0
M  V30 13405 H 1255.45 5.45653 2.49765 0
M  V30 13406 H 1256.52 4.6638 1.32731 0
M  V30 13407 N 1257.86 -0.571685 1.46866 0
M  V30 13408 C 1258.81 -1.70098 1.58649 0
M  V30 13409 C 1259.81 -1.63191 0.45443 0
M  V30 13410 O 1261.01 -1.68551 0.63171 0
M  V30 13411 H 1257.39 -0.56258 0.499007 0
M  V30 13412 H 1259.36 -1.57293 2.53577 0
M  V30 13413 C 1258.11 -3.08475 1.60433 0
M  V30 13414 H 1257.43 -3.14465 2.46884 0
M  V30 13415 H 1258.87 -3.87221 1.7273 0
M  V30 13416 C 1257.33 -3.35231 0.334948 0
M  V30 13417 O 1257.86 -3.97633 -0.570149 0
M  V30 13418 N 1256.06 -2.8977 0.219441 0
M  V30 13419 H 1255.61 -2.39168 0.956891 0
M  V30 13420 H 1255.57 -3.08044 -0.628975 0
M  V30 13421 N 1259.34 -1.34755 -0.817236 0
M  V30 13422 C 1260.75 -1.24594 -1.39044 0
M  V30 13423 C 1261.1 0.126184 -1.95794 0
M  V30 13424 O 1260.23 1.02675 -1.90491 0
M  V30 13425 C 1260.82 -2.25592 -2.52772 0
M  V30 13426 C 1259.38 -2.19204 -3.05984 0
M  V30 13427 C 1258.53 -2.11884 -1.78886 0
M  V30 13428 H 1261.48 -1.46039 -0.621155 0
M  V30 13429 H 1261.5 -1.87622 -3.31026 0
M  V30 13430 H 1261.01 -3.25447 -2.11438 0
M  V30 13431 H 1259.11 -1.22725 -3.51809 0
M  V30 13432 H 1259.23 -3.10707 -3.64689 0
M  V30 13433 H 1257.59 -1.57694 -2.00012 0
M  V30 13434 H 1258.37 -3.13582 -1.39719 0
M  V30 13435 N 1260.82 1.03812 -1.18578 0
M  V30 13436 C 1262.04 1.8124 -1.00831 0
M  V30 13437 C 1262.47 1.82917 0.43853 0
M  V30 13438 O 1261.83 1.24835 1.31476 0
M  V30 13439 C 1261.88 3.24592 -1.57075 0
M  V30 13440 O 1260.98 4.04688 -0.793824 0
M  V30 13441 H 1260.32 0.559846 -0.357028 0
M  V30 13442 H 1262.85 1.30724 -1.57393 0
M  V30 13443 H 1262.86 3.75363 -1.59896 0
M  V30 13444 H 1261.54 3.22686 -2.62387 0
M  V30 13445 H 1260.11 3.63359 -0.838134 0
M  V30 13446 N 1262.3 0.988223 1.22768 0
M  V30 13447 C 1263.23 0.47962 2.23103 0
M  V30 13448 C 1264.21 -0.457546 1.5603 0
M  V30 13449 O 1265.39 -0.384178 1.84544 0
M  V30 13450 C 1262.52 -0.305248 3.37322 0
M  V30 13451 C 1261.57 0.577215 4.22576 0
M  V30 13452 S 1262.4 2.02974 4.95542 0
M  V30 13453 C 1263.55 1.25423 6.13205 0
M  V30 13454 H 1263.79 1.32985 2.65899 0
M  V30 13455 H 1261.32 0.794824 1.3237 0
M  V30 13456 H 1263.28 -0.752057 4.03552 0
M  V30 13457 H 1261.94 -1.1307 2.93043 0
M  V30 13458 H 1261.13 -0.0264391 5.03993 0
M  V30 13459 H 1260.73 0.960593 3.61453 0
M  V30 13460 H 1263.03 0.519499 6.75505 0
M  V30 13461 H 1263.97 2.04351 6.77972 0
M  V30 13462 H 1264.38 0.769573 5.5923 0
M  V30 13463 N 1263.78 -1.38018 0.760839 0
M  V30 13464 C 1265.02 -2.00248 0.320716 0
M  V30 13465 C 1265.35 -1.60259 -1.09684 0
M  V30 13466 O 1264.63 -0.843567 -1.75255 0
M  V30 13467 C 1264.91 -3.57254 0.451849 0
M  V30 13468 C 1264.77 -4.07185 1.91103 0
M  V30 13469 C 1266.08 -4.39843 -0.150439 0
M  V30 13470 H 1263.2 -0.727491 0.118007 0
M  V30 13471 H 1265.85 -1.63855 0.961842 0
M  V30 13472 H 1264 -3.88386 -0.0939672 0
M  V30 13473 H 1265.67 -3.86665 2.51571 0
M  V30 13474 H 1263.91 -3.59782 2.42362 0
M  V30 13475 H 1264.58 -5.16262 1.9539 0
M  V30 13476 H 1267.06 -4.14905 0.315145 0
M  V30 13477 H 1265.93 -5.48893 -0.0284853 0
M  V30 13478 H 1266.19 -4.24367 -1.23956 0
M  V30 13479 N 1265.25 -0.510493 -1.49103 0
M  V30 13480 C 1266.48 0.0271718 -2.06882 0
M  V30 13481 C 1266.9 1.2995 -1.36962 0
M  V30 13482 O 1266.25 1.76842 -0.450916 0
M  V30 13483 C 1266.3 0.274956 -3.60453 0
M  V30 13484 O 1266.03 -0.946941 -4.27744 0
M  V30 13485 C 1267.53 0.855197 -4.34973 0
M  V30 13486 H 1264.75 -0.024732 -0.670544 0
M  V30 13487 H 1267.29 -0.710567 -1.91758 0
M  V30 13488 H 1265.45 0.962696 -3.75248 0
M  V30 13489 H 1265.86 -0.715627 -5.19595 0
M  V30 13490 H 1267.33 0.978103 -5.43265 0
M  V30 13491 H 1267.81 1.85535 -3.98087 0
M  V30 13492 H 1268.42 0.204632 -4.24807 0
M  V30 13493 N 1266.73 1.55688 -0.24474 0
M  V30 13494 C 1267.68 2.22682 0.67198 0
M  V30 13495 C 1268.67 1.21369 1.18178 0
M  V30 13496 O 1269.88 1.39387 1.13892 0
M  V30 13497 H 1266.25 0.714279 0.235181 0
M  V30 13498 H 1268.23 2.98282 0.0837704 0
M  V30 13499 C 1266.97 2.93835 1.85893 0
M  V30 13500 H 1266.3 3.71565 1.4758 0
M  V30 13501 H 1267.74 3.44077 2.47764 0
M  V30 13502 C 1266.2 1.97589 2.72874 0
M  V30 13503 O 1266.73 1.50758 3.72337 0
M  V30 13504 N 1264.93 1.64737 2.39395 0
M  V30 13505 H 1264.48 2.03015 1.58564 0
M  V30 13506 H 1264.44 1.00605 2.97869 0
M  V30 13507 N 1268.21 -0.0283989 1.57574 0
M  V30 13508 C 1269.12 -1.04575 2.10003 0
M  V30 13509 C 1270.14 -1.39588 1.03881 0
M  V30 13510 O 1271.31 -1.48894 1.35619 0
M  V30 13511 C 1268.38 -2.32755 2.56955 0
M  V30 13512 C 1267.44 -2.04317 3.77562 0
M  V30 13513 C 1266.67 -3.26385 4.22266 0
M  V30 13514 O 1266.89 -4.37082 3.66491 0
M  V30 13515 O 1265.83 -3.12046 5.14695 0
M  V30 13516 H 1269.65 -0.630183 2.9709 0
M  V30 13517 H 1267.24 -0.245423 1.4737 0
M  V30 13518 H 1269.12 -3.08111 2.87482 0
M  V30 13519 H 1267.8 -2.73605 1.72979 0
M  V30 13520 H 1266.7 -1.26527 3.52054 0
M  V30 13521 H 1268.04 -1.68321 4.62524 0
M  V30 13522 N 1269.69 -1.54705 -0.300681 0
M  V30 13523 C 1270.94 -1.73658 -1.0338 0
M  V30 13524 C 1271.26 -0.525447 -1.87787 0
M  V30 13525 O 1270.53 0.460269 -1.90416 0
M  V30 13526 H 1269.11 -0.640338 -0.384677 0
M  V30 13527 H 1271.77 -1.92059 -0.331588 0
M  V30 13528 H 1270.86 -2.62595 -1.68672 0
M  V30 13529 N 1271.17 0.563888 -1.47167 0
M  V30 13530 C 1272.1 1.68137 -1.62025 0
M  V30 13531 C 1273.08 1.63481 -0.469899 0
M  V30 13532 O 1274.26 1.81206 -0.698432 0
M  V30 13533 C 1271.39 3.06779 -1.62801 0
M  V30 13534 C 1270.35 3.26278 -2.76996 0
M  V30 13535 C 1269.67 4.65638 -2.62841 0
M  V30 13536 C 1270.97 3.12295 -4.18651 0
M  V30 13537 H 1272.67 1.55958 -2.55573 0
M  V30 13538 H 1270.21 0.74887 -1.22996 0
M  V30 13539 H 1272.17 3.84795 -1.71787 0
M  V30 13540 H 1270.89 3.19901 -0.658097 0
M  V30 13541 H 1269.55 2.50668 -2.67509 0
M  V30 13542 H 1269.2 4.75551 -1.63892 0
M  V30 13543 H 1268.9 4.79635 -3.39447 0
M  V30 13544 H 1270.42 5.45798 -2.73746 0
M  V30 13545 H 1271.83 3.80136 -4.2915 0
M  V30 13546 H 1270.23 3.37805 -4.95992 0
M  V30 13547 H 1271.3 2.09126 -4.37486 0
M  V30 13548 N 1272.64 1.35187 0.810078 0
M  V30 13549 C 1273.89 1.28011 1.56389 0
M  V30 13550 C 1274.21 -0.14622 1.94451 0
M  V30 13551 O 1273.48 -1.08185 1.63318 0
M  V30 13552 H 1272.06 0.470837 0.579932 0
M  V30 13553 H 1274.73 1.69249 0.966476 0
M  V30 13554 H 1273.82 1.89362 2.4809 0
M  V30 13555 N 1274.12 -1.03182 1.19127 0
M  V30 13556 C 1275.05 -2.13301 0.94999 0
M  V30 13557 C 1276.03 -1.69707 -0.115577 0
M  V30 13558 O 1277.22 -1.94161 0.0388395 0
M  V30 13559 C 1274.35 -3.43902 0.484637 0
M  V30 13560 C 1273.3 -4.01164 1.4917 0
M  V30 13561 C 1272.63 -5.2735 0.883537 0
M  V30 13562 C 1273.93 -4.36311 2.87107 0
M  V30 13563 H 1275.62 -2.33743 1.87095 0
M  V30 13564 H 1273.17 -1.12332 0.900977 0
M  V30 13565 H 1275.12 -4.20308 0.30315 0
M  V30 13566 H 1273.85 -3.23173 -0.471909 0
M  V30 13567 H 1272.5 -3.26849 1.66028 0
M  V30 13568 H 1272.15 -5.02936 -0.0804712 0
M  V30 13569 H 1271.85 -5.66624 1.55599 0
M  V30 13570 H 1273.38 -6.06425 0.71278 0
M  V30 13571 H 1274.79 -5.03666 2.73848 0
M  V30 13572 H 1273.19 -4.86659 3.51117 0
M  V30 13573 H 1274.26 -3.45743 3.39985 0
M  V30 13574 N 1275.6 -0.99472 -1.22242 0
M  V30 13575 C 1276.83 -0.690097 -1.95052 0
M  V30 13576 C 1277.24 0.745543 -1.73456 0
M  V30 13577 O 1276.6 1.50329 -1.03477 0
M  V30 13578 C 1276.65 -0.988798 -3.47714 0
M  V30 13579 O 1276.37 -2.36803 -3.68587 0
M  V30 13580 C 1277.87 -0.702132 -4.37704 0
M  V30 13581 H 1275.09 -0.255142 -0.620599 0
M  V30 13582 H 1277.64 -1.32998 -1.55344 0
M  V30 13583 H 1275.79 -0.394684 -3.85384 0
M  V30 13584 H 1276.21 -2.4687 -4.62769 0
M  V30 13585 H 1277.68 -0.961389 -5.43564 0
M  V30 13586 H 1278.16 0.363866 -4.3769 0
M  V30 13587 H 1278.76 -1.27738 -4.05664 0
M  V30 13588 N 1277.08 1.37613 -0.768148 0
M  V30 13589 C 1278.31 2.04052 -0.342111 0
M  V30 13590 C 1278.72 1.57936 1.03449 0
M  V30 13591 O 1278.08 0.758981 1.65969 0
M  V30 13592 C 1278.13 3.5958 -0.372096 0
M  V30 13593 O 1277.85 4.04008 -1.69439 0
M  V30 13594 C 1279.35 4.43251 0.0659884 0
M  V30 13595 H 1276.57 0.655391 -0.143886 0
M  V30 13596 H 1279.12 1.76017 -1.04107 0
M  V30 13597 H 1277.27 3.86399 0.278248 0
M  V30 13598 H 1277.68 4.98511 -1.63054 0
M  V30 13599 H 1279.16 5.52 -0.00614775 0
M  V30 13600 H 1279.64 4.24788 1.11588 0
M  V30 13601 H 1280.24 4.2165 -0.55603 0
M  V30 13602 N 1278.56 0.518393 1.4883 0
M  V30 13603 C 1279.78 -0.0162 2.06894 0
M  V30 13604 C 1280.2 -1.29222 1.37649 0
M  V30 13605 O 1279.56 -1.766 0.460288 0
M  V30 13606 C 1279.61 -0.255836 3.60594 0
M  V30 13607 O 1279.33 0.969612 4.27235 0
M  V30 13608 C 1280.83 -0.832117 4.3542 0
M  V30 13609 H 1278.05 0.0282877 0.670403 0
M  V30 13610 H 1280.59 0.720726 1.91379 0
M  V30 13611 H 1278.75 -0.942782 3.75753 0
M  V30 13612 H 1279.16 0.743172 5.19208 0
M  V30 13613 H 1280.64 -0.949279 5.43776 0
M  V30 13614 H 1281.11 -1.83421 3.99066 0
M  V30 13615 H 1281.72 -0.1821 4.2491 0
M  V30 13616 N 1280.03 -1.55556 0.252993 0
M  V30 13617 C 1281 -2.20351 -0.630705 0
M  V30 13618 C 1282 -1.17461 -1.09816 0
M  V30 13619 O 1283.19 -1.42505 -1.00189 0
M  V30 13620 C 1280.32 -2.85192 -1.86757 0
M  V30 13621 H 1281.51 -2.99829 -0.0652939 0
M  V30 13622 H 1279.07 -1.563 0.00347982 0
M  V30 13623 H 1279.8 -2.09669 -2.47406 0
M  V30 13624 H 1279.59 -3.60569 -1.54053 0
M  V30 13625 H 1281.08 -3.34762 -2.49648 0
M  V30 13626 N 1281.51 0.0200419 -1.57587 0
M  V30 13627 C 1282.74 0.724241 -1.94344 0
M  V30 13628 C 1283.16 1.67612 -0.853688 0
M  V30 13629 O 1282.52 1.80303 0.189873 0
M  V30 13630 C 1282.57 1.44967 -3.30177 0
M  V30 13631 O 1281.67 2.56326 -3.23064 0
M  V30 13632 H 1281.01 0.194142 -0.634984 0
M  V30 13633 H 1283.54 -0.0271756 -2.04582 0
M  V30 13634 H 1283.55 1.81758 -3.65278 0
M  V30 13635 H 1282.23 0.75161 -4.09052 0
M  V30 13636 H 1280.81 2.22011 -2.99609 0
M  V30 13637 N 1282.99 1.54862 0.292472 0
M  V30 13638 C 1284.24 1.74203 1.02458 0
M  V30 13639 C 1284.56 0.535398 1.87506 0
M  V30 13640 O 1283.83 -0.450164 1.90658 0
M  V30 13641 H 1282.41 0.642369 0.381276 0
M  V30 13642 H 1285.07 1.92232 0.321398 0
M  V30 13643 H 1284.17 2.63486 1.67277 0
M  V30 13644 N 1284.47 -0.556076 1.47464 0
M  V30 13645 C 1285.7 -1.33858 1.57764 0
M  V30 13646 C 1286.11 -1.87415 0.22825 0
M  V30 13647 O 1285.47 -1.65054 -0.778674 0
M  V30 13648 C 1285.52 -2.5077 2.60378 0
M  V30 13649 O 1285.24 -1.99426 3.90078 0
M  V30 13650 C 1286.74 -3.42965 2.80873 0
M  V30 13651 H 1283.96 -0.408003 0.532705 0
M  V30 13652 H 1286.51 -0.673501 1.93091 0
M  V30 13653 H 1284.66 -3.13214 2.27982 0
M  V30 13654 H 1285.07 -2.75759 4.46158 0
M  V30 13655 H 1286.55 -4.21412 3.56533 0
M  V30 13656 H 1287.03 -3.96579 1.88737 0
M  V30 13657 H 1287.63 -2.86336 3.14471 0
M  V30 13658 N 1285.95 -1.35615 -0.802897 0
M  V30 13659 C 1287.22 -1.19655 -1.54732 0
M  V30 13660 C 1287.6 0.222827 -2.09921 0
M  V30 13661 O 1286.95 1.2268 -1.92774 0
M  V30 13662 C 1287.16 -2.26761 -2.65293 0
M  V30 13663 C 1288.51 -2.62754 -3.33535 0
M  V30 13664 O 1289.53 -2.25702 -2.75567 0
M  V30 13665 O 1288.39 -3.26476 -4.38264 0
M  V30 13666 H 1285.49 -0.465079 -0.683835 0
M  V30 13667 H 1288.03 -1.47307 -0.84254 0
M  V30 13668 H 1286.81 -3.21946 -2.22411 0
M  V30 13669 H 1286.43 -2.00399 -3.43404 0
M  V30 13670 N 1287.43 1.02549 -1.19673 0
M  V30 13671 C 1288.67 1.75408 -0.995732 0
M  V30 13672 C 1288.99 1.89773 0.473863 0
M  V30 13673 O 1290.19 2.59638 0.793762 0
M  V30 13674 C 1288.65 3.15444 -1.73273 0
M  V30 13675 C 1288.26 3.09121 -3.24266 0
M  V30 13676 C 1290 3.92575 -1.61509 0
M  V30 13677 C 1287.91 4.44109 -3.9054 0
M  V30 13678 H 1286.84 0.657569 -0.368944 0
M  V30 13679 H 1289.49 1.14739 -1.43203 0
M  V30 13680 H 1287.87 3.76601 -1.22425 0
M  V30 13681 H 1289.05 2.57325 -3.82257 0
M  V30 13682 H 1287.36 2.45485 -3.36342 0
M  V30 13683 H 1289.96 4.92428 -2.08372 0
M  V30 13684 H 1290.3 4.12382 -0.569804 0
M  V30 13685 H 1290.83 3.38027 -2.09721 0
M  V30 13686 H 1287.57 4.29506 -4.95182 0
M  V30 13687 H 1287.09 4.95947 -3.37337 0
M  V30 13688 H 1288.77 5.12982 -3.94282 0
M  V30 13689 N 1288.9 1.00119 1.21713 0
M  V30 13690 C 1290.13 0.700172 1.95224 0
M  V30 13691 C 1290.55 -0.730138 1.73351 0
M  V30 13692 O 1289.91 -1.50026 1.01794 0
M  V30 13693 C 1289.96 1.02202 3.45814 0
M  V30 13694 O 1289.06 0.125188 4.1221 0
M  V30 13695 H 1288.4 0.261238 0.610451 0
M  V30 13696 H 1290.93 1.34041 1.54578 0
M  V30 13697 H 1290.94 0.967293 3.96368 0
M  V30 13698 H 1289.62 2.06422 3.61058 0
M  V30 13699 H 1288.2 0.236114 3.72152 0
M  V30 13700 N 1290.38 -1.37203 0.775435 0
M  V30 13701 C 1291.61 -2.04396 0.351737 0
M  V30 13702 C 1292.03 -1.58099 -1.01913 0
M  V30 13703 O 1291.39 -0.742932 -1.65379 0
M  V30 13704 C 1291.44 -3.58283 0.408105 0
M  V30 13705 O 1290.54 -4.08156 -0.590104 0
M  V30 13706 H 1289.88 -0.646451 0.151647 0
M  V30 13707 H 1292.41 -1.75443 1.05265 0
M  V30 13708 H 1292.42 -4.07127 0.266711 0
M  V30 13709 H 1291.1 -3.91335 1.40819 0
M  V30 13710 H 1289.67 -3.70622 -0.411524 0
M  V30 13711 N 1291.86 -0.526279 -1.48553 0
M  V30 13712 C 1292.81 0.251938 -2.31232 0
M  V30 13713 C 1293.8 0.938991 -1.40994 0
M  V30 13714 O 1295.01 0.863798 -1.57919 0
M  V30 13715 H 1291.38 0.100114 -0.745306 0
M  V30 13716 H 1293.35 -0.465013 -2.94754 0
M  V30 13717 C 1292.1 1.28816 -3.22958 0
M  V30 13718 H 1291.43 0.768899 -3.92337 0
M  V30 13719 H 1292.87 1.80417 -3.837 0
M  V30 13720 C 1291.32 2.31982 -2.44307 0
M  V30 13721 O 1291.85 3.3835 -2.16523 0
M  V30 13722 N 1290.06 2.051 -2.05869 0
M  V30 13723 H 1289.61 1.18618 -2.28665 0
M  V30 13724 H 1289.57 2.74349 -1.53557 0
M  V30 13725 N 1293.34 1.5542 -0.261239 0
M  V30 13726 C 1294.56 2.04142 0.366144 0
M  V30 13727 C 1294.99 1.13884 1.49706 0
M  V30 13728 O 1294.35 0.134629 1.80799 0
M  V30 13729 C 1294.39 3.50733 0.837774 0
M  V30 13730 O 1293.5 3.63588 1.94621 0
M  V30 13731 H 1292.84 0.659424 0.077821 0
M  V30 13732 H 1295.37 2.0082 -0.391487 0
M  V30 13733 H 1295.38 3.91831 1.13721 0
M  V30 13734 H 1294.05 4.15899 0.0102742 0
M  V30 13735 H 1292.63 3.34391 1.65037 0
M  V30 13736 N 1294.82 -0.0116844 1.57596 0
M  V30 13737 C 1295.75 -1.00599 2.10718 0
M  V30 13738 C 1296.73 -1.36601 1.01362 0
M  V30 13739 O 1297.91 -1.4518 1.28982 0
M  V30 13740 C 1295.04 -2.30155 2.60089 0
M  V30 13741 C 1294 -2.08347 3.73866 0
M  V30 13742 C 1293.32 -3.43814 4.09507 0
M  V30 13743 C 1294.62 -1.45552 5.01609 0
M  V30 13744 H 1296.32 -0.563721 2.94045 0
M  V30 13745 H 1293.86 -0.269714 1.41452 0
M  V30 13746 H 1295.81 -3.00058 2.95877 0
M  V30 13747 H 1294.54 -2.76473 1.73868 0
M  V30 13748 H 1293.2 -1.40872 3.38453 0
M  V30 13749 H 1292.85 -3.87814 3.20326 0
M  V30 13750 H 1292.55 -3.30043 4.86154 0
M  V30 13751 H 1294.07 -4.15052 4.47844 0
M  V30 13752 H 1295.48 -2.05396 5.35243 0
M  V30 13753 H 1293.88 -1.42304 5.82983 0
M  V30 13754 H 1294.95 -0.423331 4.83049 0
M  V30 13755 N 1296.29 -1.55015 -0.284256 0
M  V30 13756 C 1297.24 -1.87122 -1.35107 0
M  V30 13757 C 1298.21 -0.721638 -1.49605 0
M  V30 13758 O 1299.4 -0.971855 -1.64194 0
M  V30 13759 C 1296.54 -2.1388 -2.70831 0
M  V30 13760 C 1295.65 -3.41447 -2.64647 0
M  V30 13761 C 1294.78 -3.57961 -3.92476 0
M  V30 13762 C 1293.82 -4.79261 -3.80757 0
M  V30 13763 N 1292.96 -4.92492 -5.00395 0
M  V30 13764 H 1297.8 -2.78117 -1.07027 0
M  V30 13765 H 1295.34 -1.37704 -0.517311 0
M  V30 13766 H 1297.29 -2.27391 -3.49784 0
M  V30 13767 H 1295.92 -1.26132 -2.97137 0
M  V30 13768 H 1294.98 -3.36467 -1.77466 0
M  V30 13769 H 1296.29 -4.3053 -2.51884 0
M  V30 13770 H 1295.44 -3.71229 -4.79868 0
M  V30 13771 H 1294.18 -2.67042 -4.08093 0
M  V30 13772 H 1293.19 -4.66008 -2.91747 0
M  V30 13773 H 1294.41 -5.71604 -3.66669 0
M  V30 13774 H 1292.36 -4.04501 -5.16445 0
M  V30 13775 H 1292.27 -5.75603 -4.9012 0
M  V30 13776 H 1293.54 -5.10134 -5.89392 0
M  V30 13777 N 1297.77 0.548248 -1.47757 0
M  V30 13778 C 1299.05 1.3092 -1.45325 0
M  V30 13779 C 1299.43 2.1053 -0.155008 0
M  V30 13780 O 1298.78 2.11558 0.863455 0
M  V30 13781 C 1298.99 2.20614 -2.70426 0
M  V30 13782 C 1300.33 2.81345 -3.18009 0
M  V30 13783 O 1301.36 2.30911 -2.71216 0
M  V30 13784 O 1300.22 3.73036 -3.99383 0
M  V30 13785 H 1297.31 0.58996 -0.579548 0
M  V30 13786 H 1299.86 0.56641 -1.59968 0
M  V30 13787 H 1298.63 1.61449 -3.56441 0
M  V30 13788 H 1298.25 3.02173 -2.58413 0
M  V30 13789 N 1299.25 1.36039 0.795694 0
M  V30 13790 C 1300.49 1.31295 1.56656 0
M  V30 13791 C 1300.85 -0.108324 1.91694 0
M  V30 13792 O 1302.05 -0.280248 2.67335 0
M  V30 13793 C 1300.33 2.20411 2.81343 0
M  V30 13794 S 1301.88 2.33289 3.71647 0
M  V30 13795 H 1298.7 0.46644 0.536614 0
M  V30 13796 H 1301.3 1.71544 0.937697 0
M  V30 13797 H 1300.01 3.22635 2.53643 0
M  V30 13798 H 1299.54 1.81158 3.49207 0
M  V30 13799 H 1301.55 1.52575 4.7216 0
M  V30 13800 N 1300.73 -1.01913 1.20215 0
M  V30 13801 C 1301.66 -2.12282 0.97256 0
M  V30 13802 C 1302.64 -1.6982 -0.0975709 0
M  V30 13803 O 1303.82 -1.94109 0.0594307 0
M  V30 13804 C 1300.95 -3.43369 0.521085 0
M  V30 13805 C 1299.91 -3.99559 1.53417 0
M  V30 13806 C 1299.23 -5.26383 0.93942 0
M  V30 13807 C 1300.53 -4.33241 2.91718 0
M  V30 13808 H 1302.23 -2.31746 1.89563 0
M  V30 13809 H 1299.77 -1.1137 0.912841 0
M  V30 13810 H 1301.73 -4.19963 0.347713 0
M  V30 13811 H 1300.45 -3.23655 -0.437605 0
M  V30 13812 H 1299.11 -3.25069 1.69486 0
M  V30 13813 H 1298.76 -5.02993 -0.0271236 0
M  V30 13814 H 1298.46 -5.64942 1.616 0
M  V30 13815 H 1299.98 -6.05635 0.777059 0
M  V30 13816 H 1301.4 -5.00734 2.79175 0
M  V30 13817 H 1299.79 -4.82907 3.56259 0
M  V30 13818 H 1300.86 -3.42118 3.43633 0
M  V30 13819 N 1302.21 -1.00763 -1.2118 0
M  V30 13820 C 1303.62 -0.724746 -1.72059 0
M  V30 13821 C 1303.97 0.757413 -1.80991 0
M  V30 13822 O 1303.09 1.59152 -1.46627 0
M  V30 13823 C 1303.69 -1.30893 -3.12494 0
M  V30 13824 C 1302.25 -1.07511 -3.60719 0
M  V30 13825 C 1301.39 -1.42014 -2.38175 0
M  V30 13826 H 1304.35 -1.17821 -1.0632 0
M  V30 13827 H 1304.37 -0.694919 -3.741 0
M  V30 13828 H 1303.88 -2.38767 -3.05961 0
M  V30 13829 H 1301.98 -0.0136518 -3.72597 0
M  V30 13830 H 1302.09 -1.74885 -4.4604 0
M  V30 13831 H 1300.46 -0.838972 -2.40486 0
M  V30 13832 H 1301.24 -2.50924 -2.34291 0
M  V30 13833 N 1303.68 1.3679 -0.7827 0
M  V30 13834 C 1304.63 2.30139 -0.174595 0
M  V30 13835 C 1305.6 1.51645 0.677714 0
M  V30 13836 O 1306.79 1.80176 0.627796 0
M  V30 13837 C 1303.93 3.38133 0.689936 0
M  V30 13838 C 1303.04 4.31624 -0.180179 0
M  V30 13839 C 1302.17 5.26698 0.69009 0
M  V30 13840 C 1301.21 6.1183 -0.181891 0
M  V30 13841 N 1300.35 6.99113 0.646977 0
M  V30 13842 H 1305.19 2.81559 -0.97613 0
M  V30 13843 H 1302.73 1.38595 -0.492944 0
M  V30 13844 H 1304.69 3.99386 1.2061 0
M  V30 13845 H 1303.32 2.88049 1.45696 0
M  V30 13846 H 1302.37 3.71583 -0.81425 0
M  V30 13847 H 1303.68 4.91464 -0.852337 0
M  V30 13848 H 1302.83 5.93209 1.27232 0
M  V30 13849 H 1301.57 4.67297 1.3959 0
M  V30 13850 H 1300.58 5.44288 -0.776572 0
M  V30 13851 H 1301.8 6.73306 -0.885195 0
M  V30 13852 H 1299.75 6.42227 1.3372 0
M  V30 13853 H 1299.67 7.55993 0.0323547 0
M  V30 13854 H 1300.93 7.7 1.21325 0
M  V30 13855 N 1305.16 0.53415 1.48272 0
M  V30 13856 C 1306.39 0.00368464 2.074 0
M  V30 13857 C 1306.81 -1.27003 1.38751 0
M  V30 13858 O 1306.17 -1.75502 0.454817 0
M  V30 13859 C 1306.22 -0.199034 3.6005 0
M  V30 13860 O 1305.32 -1.26679 3.92462 0
M  V30 13861 H 1304.66 0.0409936 0.662733 0
M  V30 13862 H 1307.19 0.743253 1.90622 0
M  V30 13863 H 1307.2 -0.420404 4.05828 0
M  V30 13864 H 1305.88 0.731391 4.09418 0
M  V30 13865 H 1304.46 -1.02775 3.58457 0
M  V30 13866 N 1306.64 -1.55279 0.269478 0
M  V30 13867 C 1307.6 -2.21008 -0.607299 0
M  V30 13868 C 1308.6 -1.18619 -1.08564 0
M  V30 13869 O 1309.79 -1.4356 -0.986721 0
M  V30 13870 C 1306.93 -2.87157 -1.83721 0
M  V30 13871 H 1308.12 -2.99881 -0.0334894 0
M  V30 13872 H 1305.67 -1.56287 0.0200573 0
M  V30 13873 H 1306.41 -2.12281 -2.45168 0
M  V30 13874 H 1306.19 -3.62183 -1.5022 0
M  V30 13875 H 1307.68 -3.37391 -2.46083 0
M  V30 13876 N 1308.12 0.00332656 -1.576 0
M  V30 13877 C 1309.05 1.02391 -2.05058 0
M  V30 13878 C 1310.06 1.30903 -0.967901 0
M  V30 13879 O 1311.25 1.27937 -1.24476 0
M  V30 13880 C 1308.35 2.35947 -2.43274 0
M  V30 13881 C 1307.53 2.26423 -3.74234 0
M  V30 13882 C 1306.58 3.4264 -3.99355 0
M  V30 13883 O 1305.61 3.20977 -4.70067 0
M  V30 13884 N 1306.81 4.65379 -3.46991 0
M  V30 13885 H 1309.58 0.619216 -2.93233 0
M  V30 13886 H 1307.14 0.190777 -1.60772 0
M  V30 13887 H 1309.13 3.12462 -2.57196 0
M  V30 13888 H 1307.7 2.6817 -1.60635 0
M  V30 13889 H 1306.92 1.34841 -3.70421 0
M  V30 13890 H 1308.21 2.17229 -4.60097 0
M  V30 13891 H 1307.61 4.85878 -2.89723 0
M  V30 13892 H 1306.16 5.39171 -3.66249 0
M  V30 13893 N 1309.6 1.55164 0.276031 0
M  V30 13894 C 1310.53 1.90844 1.34539 0
M  V30 13895 C 1311.51 0.769968 1.51676 0
M  V30 13896 O 1312.69 1.02785 1.64769 0
M  V30 13897 C 1309.82 2.17769 2.70543 0
M  V30 13898 C 1308.78 3.33592 2.68142 0
M  V30 13899 C 1308.1 3.45991 4.07669 0
M  V30 13900 C 1309.4 4.70064 2.27678 0
M  V30 13901 H 1311.1 2.80412 1.04926 0
M  V30 13902 H 1308.64 1.34918 0.503303 0
M  V30 13903 H 1310.6 2.41317 3.45462 0
M  V30 13904 H 1309.32 1.24997 3.01734 0
M  V30 13905 H 1307.98 3.10007 1.95681 0
M  V30 13906 H 1307.63 2.50691 4.36077 0
M  V30 13907 H 1307.33 4.23862 4.06958 0
M  V30 13908 H 1308.85 3.71828 4.84331 0
M  V30 13909 H 1310.26 4.93176 2.92319 0
M  V30 13910 H 1308.66 5.50829 2.38134 0
M  V30 13911 H 1309.73 4.69091 1.22808 0
M  V30 13912 N 1311.07 -0.540404 1.48045 0
M  V30 13913 C 1312 -1.65538 1.6468 0
M  V30 13914 C 1312.99 -1.62713 0.495847 0
M  V30 13915 O 1314.17 -1.80072 0.727172 0
M  V30 13916 C 1311.3 -3.0415 1.67661 0
M  V30 13917 C 1310.25 -3.2183 2.82152 0
M  V30 13918 C 1309.58 -4.61397 2.70216 0
M  V30 13919 C 1310.88 -3.05596 4.23567 0
M  V30 13920 H 1312.57 -1.51873 2.58021 0
M  V30 13921 H 1310.12 -0.729208 1.24171 0
M  V30 13922 H 1312.07 -3.82013 1.77887 0
M  V30 13923 H 1310.8 -3.18814 0.708907 0
M  V30 13924 H 1309.46 -2.4638 2.71463 0
M  V30 13925 H 1309.1 -4.72883 1.71437 0
M  V30 13926 H 1308.8 -4.74174 3.47035 0
M  V30 13927 H 1310.33 -5.41374 2.82395 0
M  V30 13928 H 1311.74 -3.73261 4.35143 0
M  V30 13929 H 1310.14 -3.29871 5.01303 0
M  V30 13930 H 1311.21 -2.0214 4.40758 0
M  V30 13931 N 1312.55 -1.36459 -0.788468 0
M  V30 13932 C 1313.5 -1.30863 -1.90115 0
M  V30 13933 C 1314.47 -0.177148 -1.65153 0
M  V30 13934 O 1315.65 -0.363817 -1.87299 0
M  V30 13935 C 1312.79 -1.10473 -3.2694 0
M  V30 13936 C 1311.91 -2.32704 -3.63968 0
M  V30 13937 C 1311.04 -2.05319 -4.89916 0
M  V30 13938 C 1310.08 -3.23506 -5.19625 0
M  V30 13939 N 1309.22 -2.9578 -6.36756 0
M  V30 13940 H 1314.06 -2.26003 -1.94233 0
M  V30 13941 H 1311.6 -1.12324 -0.949827 0
M  V30 13942 H 1313.55 -0.966773 -4.05844 0
M  V30 13943 H 1312.18 -0.189873 -3.22241 0
M  V30 13944 H 1311.24 -2.573 -2.8018 0
M  V30 13945 H 1312.55 -3.20899 -3.81871 0
M  V30 13946 H 1311.7 -1.88459 -5.76687 0
M  V30 13947 H 1310.44 -1.14437 -4.74084 0
M  V30 13948 H 1309.45 -3.40924 -4.31336 0
M  V30 13949 H 1310.67 -4.15216 -5.37376 0
M  V30 13950 H 1308.62 -2.0751 -6.22315 0
M  V30 13951 H 1308.53 -3.77513 -6.54996 0
M  V30 13952 H 1309.8 -2.825 -7.26508 0
M  V30 13953 N 1314.03 1.01274 -1.20754 0
M  V30 13954 C 1315.26 1.7906 -1.04653 0
M  V30 13955 C 1315.68 1.83806 0.399632 0
M  V30 13956 O 1315.04 1.27596 1.28798 0
M  V30 13957 C 1315.09 3.21187 -1.63925 0
M  V30 13958 O 1314.19 4.02913 -0.879486 0
M  V30 13959 H 1313.53 0.552147 -0.368823 0
M  V30 13960 H 1316.06 1.27356 -1.6013 0
M  V30 13961 H 1316.07 3.71887 -1.67822 0
M  V30 13962 H 1314.75 3.17048 -2.69172 0
M  V30 13963 H 1313.32 3.61499 -0.915019 0
M  V30 13964 N 1315.51 1.01404 1.20644 0
M  V30 13965 C 1316.76 0.702949 1.90227 0
M  V30 13966 C 1317.09 -0.765243 1.78487 0
M  V30 13967 O 1316.36 -1.55569 1.16741 0
M  V30 13968 C 1316.65 1.13606 3.4171 0
M  V30 13969 C 1316.5 2.66437 3.62397 0
M  V30 13970 C 1317.82 0.705361 4.34411 0
M  V30 13971 H 1314.94 0.256842 0.690797 0
M  V30 13972 H 1317.58 1.26133 1.42093 0
M  V30 13973 H 1315.73 0.660977 3.82836 0
M  V30 13974 H 1317.4 3.21778 3.3054 0
M  V30 13975 H 1315.64 3.0753 3.05954 0
M  V30 13976 H 1316.32 2.91795 4.68572 0
M  V30 13977 H 1318.79 1.11375 4.00918 0
M  V30 13978 H 1317.67 1.03647 5.39026 0
M  V30 13979 H 1317.93 -0.393094 4.40349 0
M  V30 13980 N 1316.99 -1.36373 0.789944 0
M  V30 13981 C 1318.23 -1.99227 0.362582 0
M  V30 13982 C 1318.56 -1.62694 -1.06587 0
M  V30 13983 O 1317.82 -0.873748 -1.75112 0
M  V30 13984 C 1318.12 -3.54243 0.474025 0
M  V30 13985 C 1317.78 -4.10597 1.86336 0
M  V30 13986 C 1316.44 -4.257 2.24349 0
M  V30 13987 C 1318.8 -4.41306 2.77306 0
M  V30 13988 C 1316.12 -4.68824 3.52734 0
M  V30 13989 C 1318.48 -4.85861 4.05119 0
M  V30 13990 C 1317.14 -4.9917 4.43154 0
M  V30 13991 H 1316.41 -0.729025 0.132678 0
M  V30 13992 H 1319.06 -1.62854 1.00751 0
M  V30 13993 H 1317.36 -3.90973 -0.254399 0
M  V30 13994 H 1319.06 -4.00807 0.124384 0
M  V30 13995 H 1315.65 -3.99281 1.55797 0
M  V30 13996 H 1319.83 -4.29205 2.49191 0
M  V30 13997 H 1315.09 -4.77315 3.82073 0
M  V30 13998 H 1319.26 -5.08587 4.75723 0
M  V30 13999 H 1316.89 -5.32344 5.42692 0
M  V30 14000 N 1318.47 -0.542005 -1.47987 0
M  V30 14001 C 1319.71 -0.0123299 -2.02796 0
M  V30 14002 C 1320.04 1.32789 -1.41707 0
M  V30 14003 O 1319.32 1.86048 -0.567119 0
M  V30 14004 C 1319.6 0.0969277 -3.5997 0
M  V30 14005 C 1319.46 -1.26931 -4.31519 0
M  V30 14006 C 1320.77 0.817854 -4.32434 0
M  V30 14007 H 1317.89 -0.00595479 -0.736976 0
M  V30 14008 H 1320.54 -0.70136 -1.76581 0
M  V30 14009 H 1318.69 0.683755 -3.82436 0
M  V30 14010 H 1320.36 -1.89817 -4.20437 0
M  V30 14011 H 1318.6 -1.84804 -3.92467 0
M  V30 14012 H 1319.27 -1.14573 -5.39979 0
M  V30 14013 H 1321.75 0.319749 -4.1487 0
M  V30 14014 H 1320.62 0.863225 -5.4207 0
M  V30 14015 H 1320.88 1.87075 -4.00569 0
M  V30 14016 N 1319.94 1.55134 -0.277709 0
M  V30 14017 C 1320.89 2.2263 0.608637 0
M  V30 14018 C 1321.86 1.20067 1.14774 0
M  V30 14019 O 1323.05 1.48617 1.19657 0
M  V30 14020 C 1320.19 2.95308 1.78571 0
M  V30 14021 C 1319.3 4.12595 1.28021 0
M  V30 14022 C 1318.43 4.7291 2.41929 0
M  V30 14023 C 1317.47 5.82386 1.88395 0
M  V30 14024 N 1316.61 6.36754 2.95786 0
M  V30 14025 H 1321.45 2.97988 0.0264138 0
M  V30 14026 H 1318.99 1.471 0.00127068 0
M  V30 14027 H 1320.94 3.35662 2.47764 0
M  V30 14028 H 1319.57 2.22368 2.33992 0
M  V30 14029 H 1318.63 3.77343 0.481297 0
M  V30 14030 H 1319.94 4.91537 0.848128 0
M  V30 14031 H 1319.09 5.15997 3.1911 0
M  V30 14032 H 1317.83 3.93251 2.88453 0
M  V30 14033 H 1316.84 5.38746 1.09694 0
M  V30 14034 H 1318.06 6.63916 1.42803 0
M  V30 14035 H 1316.01 5.59987 3.41687 0
M  V30 14036 H 1315.92 7.10975 2.57002 0
M  V30 14037 H 1317.19 6.845 3.72935 0
M  V30 14038 N 1321.42 0.00503138 1.57599 0
M  V30 14039 C 1322.37 -1.00294 2.09866 0
M  V30 14040 C 1323.36 -1.35267 1.01977 0
M  V30 14041 O 1324.57 -1.33772 1.20437 0
M  V30 14042 H 1320.94 -0.341112 0.670184 0
M  V30 14043 H 1322.92 -0.536595 2.93536 0
M  V30 14044 C 1321.66 -2.28432 2.62133 0
M  V30 14045 H 1320.99 -2.02391 3.44787 0
M  V30 14046 H 1322.43 -2.97227 3.02378 0
M  V30 14047 C 1320.89 -2.99758 1.53774 0
M  V30 14048 O 1321.42 -3.90939 0.923563 0
M  V30 14049 N 1319.62 -2.61671 1.26398 0
M  V30 14050 H 1319.17 -1.87605 1.76528 0
M  V30 14051 H 1319.13 -3.09707 0.541168 0
M  V30 14052 N 1322.9 -1.55308 -0.267798 0
M  V30 14053 C 1324.15 -1.7642 -1.00019 0
M  V30 14054 C 1324.48 -0.566559 -1.85752 0
M  V30 14055 O 1323.75 0.435752 -1.89556 0
M  V30 14056 C 1324.04 -3.07229 -1.87836 0
M  V30 14057 C 1323.89 -4.37358 -1.05061 0
M  V30 14058 C 1325.21 -3.34113 -2.86455 0
M  V30 14059 H 1322.33 -0.641859 -0.362197 0
M  V30 14060 H 1324.97 -1.8804 -0.272188 0
M  V30 14061 H 1323.12 -2.97454 -2.49907 0
M  V30 14062 H 1324.79 -4.59098 -0.450208 0
M  V30 14063 H 1323.03 -4.32351 -0.354242 0
M  V30 14064 H 1323.71 -5.25223 -1.69838 0
M  V30 14065 H 1326.18 -3.43715 -2.34519 0
M  V30 14066 H 1325.06 -4.26896 -3.45038 0
M  V30 14067 H 1325.32 -2.54005 -3.61848 0
M  V30 14068 N 1324.38 0.532545 -1.4833 0
M  V30 14069 C 1325.63 1.28597 -1.55908 0
M  V30 14070 C 1325.95 1.93595 -0.233635 0
M  V30 14071 O 1325.22 1.81197 0.744605 0
M  V30 14072 H 1323.8 0.477619 -0.57436 0
M  V30 14073 H 1326.46 0.619922 -1.84778 0
M  V30 14074 H 1325.55 2.0666 -2.33877 0
M  V30 14075 N 1325.86 1.36875 0.78122 0
M  V30 14076 C 1327.1 1.32761 1.54097 0
M  V30 14077 C 1327.46 -0.0900914 1.92189 0
M  V30 14078 O 1326.75 -1.04655 1.60492 0
M  V30 14079 C 1326.94 2.19173 2.82309 0
M  V30 14080 C 1326.77 3.69203 2.56747 0
M  V30 14081 C 1325.54 4.38349 2.51353 0
M  V30 14082 C 1327.74 4.62283 2.25386 0
M  V30 14083 N 1325.72 5.73974 2.17776 0
M  V30 14084 C 1327.09 5.86216 2.01867 0
M  V30 14085 C 1329.15 4.50764 2.11462 0
M  V30 14086 C 1327.85 6.99923 1.65832 0
M  V30 14087 C 1329.88 5.64346 1.76825 0
M  V30 14088 C 1329.24 6.87324 1.5416 0
M  V30 14089 H 1325.34 0.541089 0.564577 0
M  V30 14090 H 1327.92 1.72006 0.912249 0
M  V30 14091 H 1326.09 1.82159 3.43034 0
M  V30 14092 H 1327.83 2.06388 3.48118 0
M  V30 14093 H 1324.58 3.91243 2.66882 0
M  V30 14094 H 1325 6.45624 2.03711 0
M  V30 14095 H 1329.65 3.56266 2.27672 0
M  V30 14096 H 1327.36 7.94364 1.4836 0
M  V30 14097 H 1330.95 5.574 1.66723 0
M  V30 14098 H 1329.83 7.73724 1.27753 0
M  V30 14099 N 1327.33 -1.00632 1.21289 0
M  V30 14100 C 1328.3 -2.07543 0.972548 0
M  V30 14101 C 1329.3 -1.60703 -0.0559244 0
M  V30 14102 O 1330.49 -1.73255 0.181213 0
M  V30 14103 C 1327.62 -3.37696 0.466297 0
M  V30 14104 H 1328.81 -2.30298 1.92101 0
M  V30 14105 H 1326.36 -1.17588 1.02969 0
M  V30 14106 H 1327.1 -3.2062 -0.487148 0
M  V30 14107 H 1326.88 -3.73024 1.20813 0
M  V30 14108 H 1328.37 -4.16388 0.317962 0
M  V30 14109 N 1328.81 -1.02043 -1.20104 0
M  V30 14110 C 1330.04 -0.731315 -1.93544 0
M  V30 14111 C 1330.45 0.708582 -1.74999 0
M  V30 14112 O 1329.81 1.481 -1.06642 0
M  V30 14113 C 1329.86 -1.06233 -3.45538 0
M  V30 14114 O 1329.58 -2.44568 -3.63481 0
M  V30 14115 C 1331.08 -0.794818 -4.36116 0
M  V30 14116 H 1328.3 -0.268248 -0.615048 0
M  V30 14117 H 1330.85 -1.36264 -1.52488 0
M  V30 14118 H 1329 -0.476341 -3.8446 0
M  V30 14119 H 1329.42 -2.5663 -4.57429 0
M  V30 14120 H 1330.89 -1.07647 -5.41402 0
M  V30 14121 H 1331.37 0.270944 -4.38363 0
M  V30 14122 H 1331.97 -1.36314 -4.02863 0
M  V30 14123 N 1330.29 1.35952 -0.797165 0
M  V30 14124 C 1331.22 2.28649 -0.15877 0
M  V30 14125 C 1332.24 1.49842 0.636481 0
M  V30 14126 O 1333.42 1.72191 0.47039 0
M  V30 14127 C 1330.52 3.29373 0.797913 0
M  V30 14128 C 1329.7 4.3737 0.0510574 0
M  V30 14129 C 1328.76 5.18009 0.924826 0
M  V30 14130 O 1327.78 5.67935 0.379223 0
M  V30 14131 N 1328.98 5.352 2.24813 0
M  V30 14132 H 1331.75 2.84075 -0.955056 0
M  V30 14133 H 1329.31 1.48201 -0.651767 0
M  V30 14134 H 1331.3 3.80209 1.38646 0
M  V30 14135 H 1329.87 2.74531 1.49504 0
M  V30 14136 H 1329.09 3.87594 -0.718633 0
M  V30 14137 H 1330.38 5.0668 -0.464025 0
M  V30 14138 H 1329.78 4.96266 2.71545 0
M  V30 14139 H 1328.34 5.89252 2.78614 0
M  V30 14140 N 1331.77 0.549846 1.47697 0
M  V30 14141 C 1332.7 -0.190364 2.32723 0
M  V30 14142 C 1333.68 -0.915933 1.43334 0
M  V30 14143 O 1334.86 -0.897838 1.72199 0
M  V30 14144 C 1331.99 -1.22545 3.24961 0
M  V30 14145 C 1330.95 -0.616805 4.23532 0
M  V30 14146 C 1330.27 -1.75599 5.05044 0
M  V30 14147 C 1331.57 0.424595 5.20571 0
M  V30 14148 H 1333.27 0.519461 2.94859 0
M  V30 14149 H 1330.81 0.251259 1.41791 0
M  V30 14150 H 1332.77 -1.75139 3.83281 0
M  V30 14151 H 1331.49 -1.96512 2.60865 0
M  V30 14152 H 1330.15 -0.112224 3.66428 0
M  V30 14153 H 1329.8 -2.48453 4.37356 0
M  V30 14154 H 1329.5 -1.35456 5.71774 0
M  V30 14155 H 1331.02 -2.28533 5.6622 0
M  V30 14156 H 1332.44 -0.0150025 5.73298 0
M  V30 14157 H 1330.83 0.7445 5.95464 0
M  V30 14158 H 1331.9 1.32318 4.66497 0
M  V30 14159 N 1333.25 -1.54984 0.285932 0
M  V30 14160 C 1334.47 -2.04239 -0.330774 0
M  V30 14161 C 1334.89 -1.16387 -1.48659 0
M  V30 14162 O 1334.25 -0.186255 -1.81547 0
M  V30 14163 C 1334.3 -3.52504 -0.801456 0
M  V30 14164 O 1334.02 -4.37014 0.30834 0
M  V30 14165 C 1335.52 -4.17692 -1.48487 0
M  V30 14166 H 1332.74 -0.666903 -0.0740351 0
M  V30 14167 H 1335.28 -2.00116 0.421178 0
M  V30 14168 H 1333.44 -3.57036 -1.50347 0
M  V30 14169 H 1333.85 -5.24471 -0.0553891 0
M  V30 14170 H 1335.33 -5.23004 -1.76552 0
M  V30 14171 H 1335.8 -3.66515 -2.41999 0
M  V30 14172 H 1336.41 -4.17193 -0.826428 0
M  V30 14173 N 1334.72 -0.0133892 -1.57594 0
M  V30 14174 C 1335.95 0.682855 -1.95836 0
M  V30 14175 C 1336.37 1.65763 -0.889049 0
M  V30 14176 O 1335.73 1.80665 0.151585 0
M  V30 14177 C 1335.78 1.37931 -3.33178 0
M  V30 14178 O 1334.88 2.49416 -3.28429 0
M  V30 14179 H 1334.23 0.180629 -0.638959 0
M  V30 14180 H 1336.76 -0.0705644 -2.04478 0
M  V30 14181 H 1336.77 1.73969 -3.69051 0
M  V30 14182 H 1335.44 0.664675 -4.10554 0
M  V30 14183 H 1334.02 2.15606 -3.04251 0
M  V30 14184 N 1336.2 1.55448 0.259558 0
M  V30 14185 C 1337.45 1.76337 0.987396 0
M  V30 14186 C 1337.77 0.57505 1.86328 0
M  V30 14187 O 1337.04 -0.409621 1.9157 0
M  V30 14188 H 1335.62 0.650312 0.367565 0
M  V30 14189 H 1338.28 1.9287 0.280551 0
M  V30 14190 H 1337.38 2.66975 1.61651 0
M  V30 14191 N 1337.68 -0.524672 1.4861 0
M  V30 14192 C 1338.64 -1.61092 1.63039 0
M  V30 14193 C 1339.64 -1.52718 0.503387 0
M  V30 14194 O 1340.83 -1.56293 0.769304 0
M  V30 14195 C 1337.97 -3.00722 1.60558 0
M  V30 14196 H 1339.16 -1.49636 2.59902 0
M  V30 14197 H 1336.71 -0.747135 1.37287 0
M  V30 14198 H 1337.45 -3.1768 0.651926 0
M  V30 14199 H 1337.23 -3.0821 2.42382 0
M  V30 14200 H 1338.72 -3.79688 1.73859 0
M  V30 14201 N 1339.16 -1.37287 -0.77395 0
M  V30 14202 C 1340.4 -1.3257 -1.5347 0
M  V30 14203 C 1340.74 0.090346 -1.9399 0
M  V30 14204 O 1340.01 1.04719 -1.63903 0
M  V30 14205 C 1340.3 -2.26277 -2.80126 0
M  V30 14206 C 1340.15 -3.76651 -2.45874 0
M  V30 14207 C 1341.47 -2.18471 -3.82045 0
M  V30 14208 H 1338.59 -0.48289 -0.556764 0
M  V30 14209 H 1341.23 -1.6797 -0.888039 0
M  V30 14210 H 1339.38 -1.96219 -3.35306 0
M  V30 14211 H 1341.05 -4.17296 -1.96626 0
M  V30 14212 H 1339.29 -3.95327 -1.78602 0
M  V30 14213 H 1339.96 -4.3765 -3.36403 0
M  V30 14214 H 1342.44 -2.44962 -3.36352 0
M  V30 14215 H 1341.32 -2.86183 -4.68392 0
M  V30 14216 H 1341.58 -1.17692 -4.26147 0
M  V30 14217 N 1340.64 0.999871 -1.21821 0
M  V30 14218 C 1341.88 1.74194 -1.05014 0
M  V30 14219 C 1342.24 1.8795 0.411388 0
M  V30 14220 O 1341.53 1.4065 1.30108 0
M  V30 14221 C 1341.72 3.1509 -1.6868 0
M  V30 14222 C 1341.55 3.15073 -3.20872 0
M  V30 14223 C 1340.32 3.21361 -3.89942 0
M  V30 14224 C 1342.52 2.9978 -4.17896 0
M  V30 14225 N 1340.5 3.11024 -5.2928 0
M  V30 14226 C 1341.87 2.97396 -5.44018 0
M  V30 14227 C 1343.93 2.84119 -4.08877 0
M  V30 14228 C 1342.63 2.80956 -6.6216 0
M  V30 14229 C 1344.66 2.69038 -5.26662 0
M  V30 14230 C 1344.02 2.67335 -6.51699 0
M  V30 14231 H 1340.12 0.647385 -0.438653 0
M  V30 14232 H 1342.7 1.18801 -1.54255 0
M  V30 14233 H 1340.87 3.68742 -1.22 0
M  V30 14234 H 1342.61 3.7782 -1.45031 0
M  V30 14235 H 1339.36 3.28763 -3.40898 0
M  V30 14236 H 1339.79 3.09184 -6.02274 0
M  V30 14237 H 1344.43 2.84238 -3.12999 0
M  V30 14238 H 1342.15 2.79583 -7.58194 0
M  V30 14239 H 1345.73 2.57913 -5.21509 0
M  V30 14240 H 1344.61 2.55805 -7.41305 0
M  V30 14241 N 1342.11 1.02678 1.19562 0
M  V30 14242 C 1343.36 0.723086 1.89471 0
M  V30 14243 C 1343.69 -0.746269 1.79289 0
M  V30 14244 O 1342.97 -1.54322 1.18384 0
M  V30 14245 C 1343.25 1.17224 3.40486 0
M  V30 14246 C 1343.1 2.70266 3.5955 0
M  V30 14247 C 1344.42 0.751397 4.33638 0
M  V30 14248 H 1341.54 0.264155 0.688034 0
M  V30 14249 H 1344.18 1.27633 1.40747 0
M  V30 14250 H 1342.33 0.701544 3.82113 0
M  V30 14251 H 1344.01 3.25266 3.27108 0
M  V30 14252 H 1342.25 3.10758 3.02675 0
M  V30 14253 H 1342.92 2.96748 4.65451 0
M  V30 14254 H 1345.4 1.15621 3.99714 0
M  V30 14255 H 1344.27 1.09358 5.37896 0
M  V30 14256 H 1344.53 -0.346367 4.40741 0
M  V30 14257 N 1343.59 -1.35528 0.804364 0
M  V30 14258 C 1344.52 -2.28562 0.170893 0
M  V30 14259 C 1345.54 -1.50178 -0.628526 0
M  V30 14260 O 1346.73 -1.72438 -0.461252 0
M  V30 14261 C 1343.83 -3.29792 -0.780434 0
M  V30 14262 C 1343 -4.37391 -0.0278619 0
M  V30 14263 C 1342.06 -5.18492 -0.897341 0
M  V30 14264 O 1341.08 -5.68128 -0.349098 0
M  V30 14265 N 1342.29 -5.36385 -2.21971 0
M  V30 14266 H 1345.05 -2.83565 0.970108 0
M  V30 14267 H 1342.61 -1.47854 0.659617 0
M  V30 14268 H 1344.6 -3.80939 -1.36628 0
M  V30 14269 H 1343.17 -2.7532 -1.48046 0
M  V30 14270 H 1342.39 -3.87208 0.739178 0
M  V30 14271 H 1343.68 -5.06426 0.490889 0
M  V30 14272 H 1343.08 -4.97699 -2.6891 0
M  V30 14273 H 1341.64 -5.90721 -2.75485 0
M  V30 14274 N 1345.07 -0.557671 -1.47404 0
M  V30 14275 C 1346.32 -0.0337884 -2.02472 0
M  V30 14276 C 1346.65 1.31624 -1.43197 0
M  V30 14277 O 1345.9 1.86989 -0.577366 0
M  V30 14278 C 1346.2 0.108324 -3.57236 0
M  V30 14279 C 1345.87 -1.17088 -4.35432 0
M  V30 14280 C 1344.53 -1.5214 -4.56516 0
M  V30 14281 C 1346.88 -2.01854 -4.80525 0
M  V30 14282 C 1344.21 -2.71803 -5.19942 0
M  V30 14283 C 1346.56 -3.2072 -5.45272 0
M  V30 14284 C 1345.22 -3.56085 -5.64588 0
M  V30 14285 H 1344.49 -0.012364 -0.740897 0
M  V30 14286 H 1347.14 -0.729276 -1.7707 0
M  V30 14287 H 1345.45 0.886781 -3.81633 0
M  V30 14288 H 1347.14 0.529031 -3.97495 0
M  V30 14289 H 1343.73 -0.887952 -4.19301 0
M  V30 14290 H 1347.92 -1.76081 -4.64014 0
M  V30 14291 H 1343.17 -2.99371 -5.33092 0
M  V30 14292 H 1347.35 -3.86689 -5.79176 0
M  V30 14293 H 1344.97 -4.48903 -6.13506 0
M  V30 14294 N 1346.55 1.54831 -0.294147 0
M  V30 14295 C 1347.5 2.24707 0.600795 0
M  V30 14296 C 1348.49 1.25067 1.14257 0
M  V30 14297 O 1349.7 1.42939 1.094 0
M  V30 14298 H 1346.07 0.721399 0.212338 0
M  V30 14299 H 1348.04 2.98398 -0.0111682 0
M  V30 14300 C 1346.79 2.996 1.76451 0
M  V30 14301 H 1346.12 3.76072 1.35684 0
M  V30 14302 H 1347.56 3.51785 2.36692 0
M  V30 14303 C 1346.01 2.0617 2.6645 0
M  V30 14304 O 1346.54 1.62527 3.67353 0
M  V30 14305 N 1344.75 1.7227 2.34033 0
M  V30 14306 H 1344.3 2.07957 1.52025 0
M  V30 14307 H 1344.26 1.10031 2.94518 0
M  V30 14308 N 1348.03 0.0217466 1.57585 0
M  V30 14309 C 1349.3 -0.696733 1.8277 0
M  V30 14310 C 1349.68 -1.90759 0.904112 0
M  V30 14311 O 1349.03 -2.28461 -0.0420522 0
M  V30 14312 C 1349.24 -1.08193 3.31806 0
M  V30 14313 C 1350.59 -1.47667 3.98095 0
M  V30 14314 O 1351.61 -1.17511 3.36258 0
M  V30 14315 O 1350.47 -2.03825 5.07068 0
M  V30 14316 H 1347.57 -0.341141 0.75336 0
M  V30 14317 H 1350.11 0.0488652 1.6963 0
M  V30 14318 H 1348.89 -0.219799 3.90682 0
M  V30 14319 H 1348.51 -1.88593 3.50026 0
M  V30 14320 N 1349.51 -1.55583 -0.251311 0
M  V30 14321 C 1350.75 -1.76859 -0.978031 0
M  V30 14322 C 1351.07 -0.584924 -1.86021 0
M  V30 14323 O 1350.34 0.399456 -1.91784 0
M  V30 14324 H 1348.92 -0.652252 -0.364111 0
M  V30 14325 H 1351.59 -1.93016 -0.270319 0
M  V30 14326 H 1350.68 -2.67828 -1.60233 0
M  V30 14327 N 1350.98 0.516783 -1.48886 0
M  V30 14328 C 1352.21 1.30103 -1.61518 0
M  V30 14329 C 1352.63 1.85996 -0.28055 0
M  V30 14330 O 1351.99 1.65075 0.749671 0
M  V30 14331 C 1352.04 2.41837 -2.67483 0
M  V30 14332 O 1351.14 3.45249 -2.25559 0
M  V30 14333 H 1350.48 0.384774 -0.541152 0
M  V30 14334 H 1353.01 0.620424 -1.94966 0
M  V30 14335 H 1353.02 2.87832 -2.89165 0
M  V30 14336 H 1351.7 2.00519 -3.64369 0
M  V30 14337 H 1350.28 3.05281 -2.14144 0
M  V30 14338 N 1352.46 1.37696 0.766659 0
M  V30 14339 C 1353.39 1.2975 1.88938 0
M  V30 14340 C 1354.41 0.212278 1.6141 0
M  V30 14341 O 1355.6 0.468825 1.72233 0
M  V30 14342 C 1352.7 0.984553 3.24283 0
M  V30 14343 C 1351.87 2.17625 3.79418 0
M  V30 14344 C 1350.93 1.83279 4.9325 0
M  V30 14345 O 1349.95 2.55631 5.08568 0
M  V30 14346 N 1351.16 0.779941 5.75237 0
M  V30 14347 H 1353.92 2.26492 1.96269 0
M  V30 14348 H 1351.48 1.31387 0.946001 0
M  V30 14349 H 1353.47 0.735536 3.9796 0
M  V30 14350 H 1352.04 0.105527 3.12422 0
M  V30 14351 H 1351.26 2.58672 2.9746 0
M  V30 14352 H 1352.55 2.97187 4.12986 0
M  V30 14353 H 1351.95 0.179661 5.65415 0
M  V30 14354 H 1350.51 0.59079 6.49117 0
M  V30 14355 N 1353.94 -0.993397 1.22349 0
M  V30 14356 C 1354.87 -2.10171 1.01737 0
M  V30 14357 C 1355.85 -1.69989 -0.0615276 0
M  V30 14358 O 1357.04 -1.93939 0.100591 0
M  V30 14359 C 1354.17 -3.42186 0.593801 0
M  V30 14360 C 1353.12 -3.96215 1.61858 0
M  V30 14361 C 1352.45 -5.24272 1.05086 0
M  V30 14362 C 1353.75 -4.26956 3.00842 0
M  V30 14363 H 1355.44 -2.27673 1.94436 0
M  V30 14364 H 1352.99 -1.09408 0.936258 0
M  V30 14365 H 1354.94 -4.19131 0.436715 0
M  V30 14366 H 1353.66 -3.2451 -0.368855 0
M  V30 14367 H 1352.32 -3.21401 1.76343 0
M  V30 14368 H 1351.97 -5.02937 0.0795747 0
M  V30 14369 H 1351.67 -5.61387 1.73547 0
M  V30 14370 H 1353.19 -6.03851 0.905349 0
M  V30 14371 H 1354.61 -4.94699 2.89734 0
M  V30 14372 H 1353 -4.75242 3.66422 0
M  V30 14373 H 1354.07 -3.34752 3.50812 0
M  V30 14374 N 1355.42 -1.03311 -1.19015 0
M  V30 14375 C 1356.66 -0.733124 -1.89085 0
M  V30 14376 C 1357 0.73675 -1.79682 0
M  V30 14377 O 1356.27 1.53692 -1.19201 0
M  V30 14378 C 1356.55 -1.19028 -3.39859 0
M  V30 14379 C 1356.41 -2.72169 -3.58112 0
M  V30 14380 C 1357.73 -0.774383 -4.33234 0
M  V30 14381 H 1354.85 -0.2678 -0.686624 0
M  V30 14382 H 1357.49 -1.28378 -1.40068 0
M  V30 14383 H 1355.64 -0.721799 -3.81736 0
M  V30 14384 H 1357.31 -3.26996 -3.25379 0
M  V30 14385 H 1355.55 -3.12358 -3.01023 0
M  V30 14386 H 1356.22 -2.99213 -4.6387 0
M  V30 14387 H 1358.7 -1.17739 -3.99095 0
M  V30 14388 H 1357.58 -1.12209 -5.37308 0
M  V30 14389 H 1357.84 0.322989 -4.40919 0
M  V30 14390 N 1356.9 1.35099 -0.81154 0
M  V30 14391 C 1358.14 1.9892 -0.394815 0
M  V30 14392 C 1358.47 1.6422 1.0366 0
M  V30 14393 O 1357.75 0.908031 1.72003 0
M  V30 14394 C 1358.03 3.55331 -0.58413 0
M  V30 14395 C 1357.89 3.99812 -2.06084 0
M  V30 14396 C 1359.2 4.40098 -0.0129096 0
M  V30 14397 H 1356.32 0.72261 -0.144926 0
M  V30 14398 H 1358.97 1.60173 -1.02199 0
M  V30 14399 H 1357.12 3.88468 -0.0502446 0
M  V30 14400 H 1358.79 3.77061 -2.65749 0
M  V30 14401 H 1357.03 3.50539 -2.55548 0
M  V30 14402 H 1357.7 5.08655 -2.14416 0
M  V30 14403 H 1360.18 4.13449 -0.468917 0
M  V30 14404 H 1359.05 5.4862 -0.175252 0
M  V30 14405 H 1359.31 4.28675 1.0812 0
M  V30 14406 N 1358.37 0.56548 1.47106 0
M  V30 14407 C 1359.31 -0.215154 2.28188 0
M  V30 14408 C 1360.32 -0.871671 1.37498 0
M  V30 14409 O 1361.51 -0.744131 1.6225 0
M  V30 14410 C 1358.61 -1.32289 3.12014 0
M  V30 14411 C 1357.78 -0.761594 4.30719 0
M  V30 14412 C 1356.84 -1.75486 4.96076 0
M  V30 14413 O 1355.87 -1.29771 5.5421 0
M  V30 14414 N 1357.07 -3.0885 4.9152 0
M  V30 14415 H 1359.83 0.480405 2.95825 0
M  V30 14416 H 1357.39 0.402099 1.56827 0
M  V30 14417 H 1359.39 -1.98628 3.52603 0
M  V30 14418 H 1357.96 -1.92156 2.46566 0
M  V30 14419 H 1357.18 0.078794 3.94121 0
M  V30 14420 H 1358.46 -0.366072 5.07481 0
M  V30 14421 H 1357.86 -3.4863 4.45504 0
M  V30 14422 H 1356.42 -3.70725 5.36103 0
M  V30 14423 N 1359.85 -1.54672 0.302354 0
M  V30 14424 C 1360.82 -2.22246 -0.560283 0
M  V30 14425 C 1361.82 -1.20895 -1.06023 0
M  V30 14426 O 1363.01 -1.45621 -0.956047 0
M  V30 14427 C 1360.14 -2.9099 -1.77589 0
M  V30 14428 H 1361.33 -2.99885 0.0301274 0
M  V30 14429 H 1358.88 -1.56209 0.0532036 0
M  V30 14430 H 1359.62 -2.17433 -2.4061 0
M  V30 14431 H 1359.4 -3.65288 -1.42503 0
M  V30 14432 H 1360.89 -3.42535 -2.38871 0
M  V30 14433 N 1361.33 -0.0301034 -1.57571 0
M  V30 14434 C 1362.58 0.647042 -1.91462 0
M  V30 14435 C 1362.9 1.72612 -0.907206 0
M  V30 14436 O 1362.17 1.95833 0.0511268 0
M  V30 14437 H 1360.75 0.241988 -0.706718 0
M  V30 14438 H 1363.41 -0.0781385 -1.94743 0
M  V30 14439 H 1362.51 1.09915 -2.92105 0
M  V30 14440 N 1362.81 1.55714 0.243056 0
M  V30 14441 C 1364.05 1.77989 0.971993 0
M  V30 14442 C 1364.39 0.596038 1.84827 0
M  V30 14443 O 1363.66 -0.40554 1.90225 0
M  V30 14444 C 1363.95 3.10178 1.82925 0
M  V30 14445 C 1363.8 4.38974 0.9809 0
M  V30 14446 C 1365.12 3.38628 2.81103 0
M  V30 14447 H 1362.24 0.64754 0.35194 0
M  V30 14448 H 1364.88 1.88449 0.242237 0
M  V30 14449 H 1363.03 3.01392 2.45143 0
M  V30 14450 H 1364.7 4.59756 0.377113 0
M  V30 14451 H 1362.94 4.3286 0.285414 0
M  V30 14452 H 1363.61 5.27858 1.61461 0
M  V30 14453 H 1366.09 3.47403 2.29021 0
M  V30 14454 H 1364.97 4.32331 3.38203 0
M  V30 14455 H 1365.23 2.5973 3.57761 0
M  V30 14456 N 1364.29 -0.50888 1.49158 0
M  V30 14457 C 1365.51 -1.29245 1.62205 0
M  V30 14458 C 1365.94 -1.85845 0.29041 0
M  V30 14459 O 1365.29 -1.6547 -0.740906 0
M  V30 14460 C 1365.34 -2.40415 2.68762 0
M  V30 14461 O 1364.45 -3.44048 2.27387 0
M  V30 14462 H 1363.79 -0.381898 0.543185 0
M  V30 14463 H 1366.32 -0.610076 1.95293 0
M  V30 14464 H 1366.33 -2.86295 2.90688 0
M  V30 14465 H 1365 -1.98584 3.65427 0
M  V30 14466 H 1363.58 -3.04141 2.1576 0
M  V30 14467 N 1365.76 -1.381 -0.759346 0
M  V30 14468 C 1366.99 -1.37389 -1.55367 0
M  V30 14469 C 1367.41 0.0356097 -1.88066 0
M  V30 14470 O 1366.77 1.0161 -1.5015 0
M  V30 14471 C 1366.82 -2.23098 -2.83302 0
M  V30 14472 O 1365.92 -1.64412 -3.7821 0
M  V30 14473 H 1365.27 -0.468894 -0.470143 0
M  V30 14474 H 1367.8 -1.81787 -0.938858 0
M  V30 14475 H 1367.81 -2.36753 -3.32283 0
M  V30 14476 H 1366.48 -3.25544 -2.58831 0
M  V30 14477 H 1365.06 -1.59867 -3.36893 0
M  V30 14478 N 1367.24 0.986894 -1.22875 0
M  V30 14479 C 1368.49 1.72152 -1.05103 0
M  V30 14480 C 1368.8 1.91185 0.413248 0
M  V30 14481 O 1370.01 2.62031 0.710759 0
M  V30 14482 C 1368.47 3.09771 -1.8322 0
M  V30 14483 C 1368.07 2.98648 -3.33936 0
M  V30 14484 C 1369.82 3.87238 -1.73917 0
M  V30 14485 C 1367.73 4.31459 -4.04471 0
M  V30 14486 H 1366.66 0.645498 -0.389677 0
M  V30 14487 H 1369.31 1.10125 -1.46781 0
M  V30 14488 H 1367.69 3.72515 -1.34345 0
M  V30 14489 H 1368.86 2.45033 -3.9025 0
M  V30 14490 H 1367.18 2.34661 -3.43982 0
M  V30 14491 H 1369.77 4.85549 -2.23933 0
M  V30 14492 H 1370.12 4.1036 -0.700711 0
M  V30 14493 H 1370.65 3.31183 -2.20369 0
M  V30 14494 H 1367.39 4.13534 -5.08596 0
M  V30 14495 H 1366.91 4.84964 -3.52944 0
M  V30 14496 H 1368.59 5.00179 -4.10403 0
M  V30 14497 N 1368.72 1.0394 1.18466 0
M  V30 14498 C 1369.95 0.761926 1.92897 0
M  V30 14499 C 1370.37 -0.674618 1.75586 0
M  V30 14500 O 1369.73 -1.46711 1.06515 0
M  V30 14501 C 1369.78 1.13152 3.42387 0
M  V30 14502 O 1368.88 0.256266 4.11603 0
M  V30 14503 H 1368.22 0.280527 0.601831 0
M  V30 14504 H 1370.75 1.3889 1.50235 0
M  V30 14505 H 1370.76 1.0929 3.9309 0
M  V30 14506 H 1369.44 2.17804 3.54308 0
M  V30 14507 H 1368.01 0.354392 3.71212 0
M  V30 14508 N 1370.2 -1.34667 0.818693 0
M  V30 14509 C 1371.43 -2.02348 0.417002 0
M  V30 14510 C 1371.84 -1.61813 -0.980464 0
M  V30 14511 O 1371.18 -0.817232 -1.64521 0
M  V30 14512 C 1371.24 -3.56861 0.434779 0
M  V30 14513 C 1370.91 -4.20704 1.78485 0
M  V30 14514 C 1371.9 -4.41524 2.74504 0
M  V30 14515 C 1369.59 -4.57566 2.07217 0
M  V30 14516 C 1371.58 -4.98324 3.97431 0
M  V30 14517 C 1369.27 -5.14078 3.30405 0
M  V30 14518 C 1370.27 -5.344 4.2533 0
M  V30 14519 O 1369.95 -5.89717 5.46342 0
M  V30 14520 H 1369.69 -0.655279 0.16609 0
M  V30 14521 H 1372.24 -1.73011 1.10708 0
M  V30 14522 H 1370.47 -3.8544 -0.311973 0
M  V30 14523 H 1372.16 -4.05864 0.0537258 0
M  V30 14524 H 1372.93 -4.13414 2.53601 0
M  V30 14525 H 1368.8 -4.41054 1.34135 0
M  V30 14526 H 1372.35 -5.14102 4.71534 0
M  V30 14527 H 1368.25 -5.41616 3.51174 0
M  V30 14528 H 1369.01 -6.08155 5.47804 0
M  V30 14529 N 1371.68 -0.573274 -1.46804 0
M  V30 14530 C 1372.9 -0.0605984 -2.06811 0
M  V30 14531 C 1373.32 1.24024 -1.4235 0
M  V30 14532 O 1372.68 1.7477 -0.525515 0
M  V30 14533 C 1372.73 0.121828 -3.61295 0
M  V30 14534 O 1372.45 -1.12751 -4.23342 0
M  V30 14535 C 1373.95 0.669941 -4.38208 0
M  V30 14536 H 1371.17 -0.0531498 -0.668892 0
M  V30 14537 H 1373.71 -0.791259 -1.88572 0
M  V30 14538 H 1371.87 0.802674 -3.78993 0
M  V30 14539 H 1372.28 -0.935361 -5.16092 0
M  V30 14540 H 1373.76 0.746806 -5.46925 0
M  V30 14541 H 1374.23 1.68483 -4.05598 0
M  V30 14542 H 1374.84 0.0242721 -4.25293 0
M  V30 14543 N 1373.15 1.5451 -0.310553 0
M  V30 14544 C 1374.38 2.05204 0.301013 0
M  V30 14545 C 1374.8 1.1859 1.46007 0
M  V30 14546 O 1374.16 0.192081 1.8028 0
M  V30 14547 C 1374.21 3.53221 0.725767 0
M  V30 14548 O 1373.31 3.69596 1.82955 0
M  V30 14549 H 1372.66 0.661566 0.0568026 0
M  V30 14550 H 1375.19 1.99473 -0.455178 0
M  V30 14551 H 1375.2 3.9525 1.01198 0
M  V30 14552 H 1373.87 4.15721 -0.122046 0
M  V30 14553 H 1372.45 3.39472 1.54315 0
M  V30 14554 N 1374.63 0.0384594 1.57553 0
M  V30 14555 C 1376.04 -0.499057 1.79906 0
M  V30 14556 C 1376.4 -1.7169 0.949577 0
M  V30 14557 O 1375.52 -2.15788 0.162584 0
M  V30 14558 C 1376.12 -0.912155 3.2629 0
M  V30 14559 C 1374.67 -1.39473 3.49606 0
M  V30 14560 C 1373.82 -0.363859 2.74902 0
M  V30 14561 H 1376.77 0.264433 1.56481 0
M  V30 14562 H 1376.79 -1.77592 3.36513 0
M  V30 14563 H 1376.31 -0.0255928 3.88092 0
M  V30 14564 H 1374.41 -2.3009 2.93068 0
M  V30 14565 H 1374.52 -1.39566 4.58321 0
M  V30 14566 H 1372.88 -0.833993 2.40659 0
M  V30 14567 H 1373.67 0.514398 3.39424 0
M  V30 14568 N 1376.11 -1.55841 -0.234795 0
M  V30 14569 C 1377.06 -1.92165 -1.31055 0
M  V30 14570 C 1378.05 -0.802106 -1.49207 0
M  V30 14571 O 1379.26 -0.986832 -1.50538 0
M  V30 14572 H 1375.63 -0.610487 -0.439101 0
M  V30 14573 H 1377.61 -2.81955 -0.976926 0
M  V30 14574 C 1376.35 -2.24329 -2.65654 0
M  V30 14575 H 1375.68 -3.09982 -2.5249 0
M  V30 14576 H 1377.12 -2.53639 -3.3977 0
M  V30 14577 C 1375.58 -1.0638 -3.19664 0
M  V30 14578 O 1376.11 -0.318047 -4.00439 0
M  V30 14579 N 1374.31 -0.851167 -2.77855 0
M  V30 14580 H 1373.86 -1.45932 -2.12277 0
M  V30 14581 H 1373.82 -0.0636875 -3.14335 0
M  V30 14582 N 1377.59 0.500963 -1.49426 0
M  V30 14583 C 1378.84 1.25261 -1.58601 0
M  V30 14584 C 1379.16 1.93056 -0.274647 0
M  V30 14585 O 1378.43 1.82736 0.706003 0
M  V30 14586 H 1377.01 0.465328 -0.584362 0
M  V30 14587 H 1379.67 0.580588 -1.86052 0
M  V30 14588 H 1378.77 2.01652 -2.38208 0
M  V30 14589 N 1379.07 1.38501 0.752011 0
M  V30 14590 C 1380 1.31746 1.87551 0
M  V30 14591 C 1381.01 0.229386 1.61176 0
M  V30 14592 O 1382.2 0.487066 1.71726 0
M  V30 14593 C 1379.3 1.01889 3.23221 0
M  V30 14594 C 1378.47 2.21637 3.77088 0
M  V30 14595 C 1377.53 1.885 4.91278 0
M  V30 14596 O 1376.56 2.61011 5.05828 0
M  V30 14597 N 1377.76 0.840909 5.74377 0
M  V30 14598 H 1380.53 2.28561 1.93856 0
M  V30 14599 H 1378.09 1.32383 0.932013 0
M  V30 14600 H 1380.08 0.777704 3.97157 0
M  V30 14601 H 1378.65 0.138658 3.12292 0
M  V30 14602 H 1377.87 2.61812 2.947 0
M  V30 14603 H 1379.16 3.01551 4.0981 0
M  V30 14604 H 1378.56 0.23962 5.65192 0
M  V30 14605 H 1377.11 0.659604 6.48454 0
M  V30 14606 N 1380.55 -0.980364 1.23396 0
M  V30 14607 C 1381.77 -1.75689 1.09275 0
M  V30 14608 C 1382.19 -1.85418 -0.355773 0
M  V30 14609 O 1381.55 -1.33337 -1.24609 0
M  V30 14610 C 1381.6 -3.18378 1.71223 0
M  V30 14611 O 1381.32 -3.09154 3.10411 0
M  V30 14612 C 1382.82 -4.12425 1.62545 0
M  V30 14613 H 1380.04 -0.551354 0.382427 0
M  V30 14614 H 1382.58 -1.23169 1.63247 0
M  V30 14615 H 1380.74 -3.67925 1.21285 0
M  V30 14616 H 1381.15 -3.9898 3.40464 0
M  V30 14617 H 1382.63 -5.1025 2.10592 0
M  V30 14618 H 1383.1 -4.35296 0.584275 0
M  V30 14619 H 1383.71 -3.68782 2.1185 0
M  V30 14620 N 1382.02 -1.04567 -1.17913 0
M  V30 14621 C 1383.25 -0.772204 -1.9195 0
M  V30 14622 C 1383.67 0.671303 -1.76462 0
M  V30 14623 O 1383.02 1.45805 -1.0976 0
M  V30 14624 C 1383.07 -1.13539 -3.43207 0
M  V30 14625 O 1382.8 -2.52223 -3.58211 0
M  V30 14626 C 1384.3 -0.887146 -4.34332 0
M  V30 14627 H 1381.52 -0.281234 -0.609219 0
M  V30 14628 H 1384.06 -1.39467 -1.49563 0
M  V30 14629 H 1382.22 -0.557784 -3.83363 0
M  V30 14630 H 1382.63 -2.66275 -4.51882 0
M  V30 14631 H 1384.1 -1.19107 -5.38997 0
M  V30 14632 H 1384.58 0.1779 -4.3884 0
M  V30 14633 H 1385.19 -1.44829 -3.99881 0
M  V30 14634 N 1383.5 1.34231 -0.825823 0
M  V30 14635 C 1384.92 1.51166 -0.511945 0
M  V30 14636 C 1385.12 1.76981 0.963318 0
M  V30 14637 O 1384.17 1.82243 1.74767 0
M  V30 14638 C 1385.49 2.67474 -1.37399 0
M  V30 14639 C 1387.03 2.81356 -1.37141 0
M  V30 14640 C 1387.51 4.0071 -2.218 0
M  V30 14641 N 1389 4.07922 -2.19439 0
M  V30 14642 C 1389.74 4.99438 -2.81691 0
M  V30 14643 N 1389.23 5.96157 -3.52944 0
M  V30 14644 N 1391.02 4.92332 -2.7123 0
M  V30 14645 H 1383.18 1.15734 -1.78099 0
M  V30 14646 H 1385.44 0.567856 -0.759107 0
M  V30 14647 H 1385.14 2.55036 -2.42176 0
M  V30 14648 H 1385.02 3.62558 -1.04075 0
M  V30 14649 H 1387.41 2.93233 -0.331405 0
M  V30 14650 H 1387.49 1.87072 -1.74464 0
M  V30 14651 H 1387.13 3.89593 -3.25852 0
M  V30 14652 H 1387.06 4.94213 -1.81826 0
M  V30 14653 H 1389.55 3.38695 -1.67612 0
M  V30 14654 H 1389.86 6.62623 -3.97682 0
M  V30 14655 H 1388.21 5.96272 -3.5705 0
M  V30 14656 H 1391.4 4.15733 -2.15137 0
M  V30 14657 H 1391.57 5.63458 -3.20031 0
M  V30 14658 N 1384.98 0.581051 1.46498 0
M  V30 14659 C 1386.21 0.0714615 2.06476 0
M  V30 14660 C 1386.62 -1.23815 1.43061 0
M  V30 14661 O 1385.96 -1.75903 0.529504 0
M  V30 14662 C 1386.02 -0.170353 3.59096 0
M  V30 14663 C 1385.69 1.05341 4.44694 0
M  V30 14664 C 1386.68 1.96503 4.81334 0
M  V30 14665 C 1384.37 1.27479 4.85854 0
M  V30 14666 C 1386.36 3.08154 5.57961 0
M  V30 14667 C 1384.05 2.39434 5.62241 0
M  V30 14668 C 1385.05 3.29601 5.98207 0
M  V30 14669 O 1384.74 4.39612 6.7305 0
M  V30 14670 H 1384.47 0.0537502 0.67386 0
M  V30 14671 H 1387.02 0.800993 1.89138 0
M  V30 14672 H 1385.25 -0.954477 3.74735 0
M  V30 14673 H 1386.94 -0.628248 4.01009 0
M  V30 14674 H 1387.71 1.80615 4.50115 0
M  V30 14675 H 1383.59 0.582051 4.57311 0
M  V30 14676 H 1387.13 3.78557 5.85953 0
M  V30 14677 H 1383.03 2.55286 5.92874 0
M  V30 14678 H 1383.79 4.37959 6.91473 0
M  V30 14679 N 1386.46 -1.54343 0.318742 0
M  V30 14680 C 1387.71 -2.00084 -0.284713 0
M  V30 14681 C 1388.03 -1.20855 -1.53033 0
M  V30 14682 O 1387.3 -0.309104 -1.93446 0
M  V30 14683 H 1385.88 -0.739123 -0.108193 0
M  V30 14684 H 1388.54 -1.90002 0.434174 0
M  V30 14685 H 1387.63 -3.07314 -0.544459 0
M  V30 14686 N 1387.94 -0.0468143 -1.5753 0
M  V30 14687 C 1388.85 0.944362 -2.14753 0
M  V30 14688 C 1389.86 1.34473 -1.10422 0
M  V30 14689 O 1391.04 1.42254 -1.42569 0
M  V30 14690 C 1388.1 2.2023 -2.67768 0
M  V30 14691 C 1387.16 1.8607 -3.8688 0
M  V30 14692 C 1386.4 3.05867 -4.37357 0
M  V30 14693 O 1386.62 4.19099 -3.86927 0
M  V30 14694 O 1385.55 2.87134 -5.28997 0
M  V30 14695 H 1389.38 0.48772 -2.99758 0
M  V30 14696 H 1386.96 0.174831 -1.48374 0
M  V30 14697 H 1388.85 2.94044 -3.01855 0
M  V30 14698 H 1387.52 2.65041 -1.85836 0
M  V30 14699 H 1386.43 1.09586 -3.5769 0
M  V30 14700 H 1387.76 1.46062 -4.70028 0
M  V30 14701 N 1389.41 1.55964 0.226527 0
M  V30 14702 C 1390.36 1.92857 1.30034 0
M  V30 14703 C 1391.36 0.810008 1.48779 0
M  V30 14704 O 1392.56 0.994801 1.50012 0
M  V30 14705 H 1388.94 0.612807 0.435857 0
M  V30 14706 H 1390.91 2.82469 0.96196 0
M  V30 14707 C 1389.66 2.25735 2.6446 0
M  V30 14708 H 1388.98 3.11317 2.50842 0
M  V30 14709 H 1390.42 2.55437 3.3842 0
M  V30 14710 C 1388.88 1.08074 3.19095 0
M  V30 14711 O 1389.41 0.339279 4.00265 0
M  V30 14712 N 1387.62 0.86589 2.774 0
M  V30 14713 H 1387.16 1.47055 2.11501 0
M  V30 14714 H 1387.12 0.0803566 3.14297 0
M  V30 14715 N 1390.89 -0.493031 1.4969 0
M  V30 14716 C 1391.8 -1.61991 1.69694 0
M  V30 14717 C 1392.82 -1.64061 0.579641 0
M  V30 14718 O 1393.99 -1.82335 0.855323 0
M  V30 14719 C 1391.06 -2.98323 1.76648 0
M  V30 14720 C 1390.12 -3.06816 3.00271 0
M  V30 14721 C 1389.35 -4.36644 3.06883 0
M  V30 14722 O 1389.58 -5.25901 2.20872 0
M  V30 14723 O 1388.51 -4.50275 3.99419 0
M  V30 14724 H 1392.34 -1.48042 2.65174 0
M  V30 14725 H 1389.92 -0.670182 1.33525 0
M  V30 14726 H 1391.8 -3.79335 1.83529 0
M  V30 14727 H 1390.48 -3.12517 0.843482 0
M  V30 14728 H 1389.39 -2.24962 2.98903 0
M  V30 14729 H 1390.72 -2.97551 3.92077 0
M  V30 14730 N 1392.37 -1.38898 -0.744656 0
M  V30 14731 C 1393.32 -1.36845 -1.85855 0
M  V30 14732 C 1394.29 -0.2296 -1.64505 0
M  V30 14733 O 1395.47 -0.423221 -1.86047 0
M  V30 14734 C 1392.61 -1.20818 -3.2326 0
M  V30 14735 C 1391.73 -2.44166 -3.5638 0
M  V30 14736 C 1390.86 -2.20801 -4.83136 0
M  V30 14737 C 1389.9 -3.39874 -5.0907 0
M  V30 14738 N 1389.04 -3.15888 -6.27024 0
M  V30 14739 H 1393.88 -2.32068 -1.86945 0
M  V30 14740 H 1391.41 -1.15289 -0.913611 0
M  V30 14741 H 1393.37 -1.0954 -4.02563 0
M  V30 14742 H 1392 -0.292295 -3.21474 0
M  V30 14743 H 1391.05 -2.66083 -2.71852 0
M  V30 14744 H 1392.37 -3.32885 -3.71469 0
M  V30 14745 H 1391.52 -2.0671 -5.704 0
M  V30 14746 H 1390.26 -1.29462 -4.70203 0
M  V30 14747 H 1389.26 -3.54474 -4.20271 0
M  V30 14748 H 1390.49 -4.32102 -5.23894 0
M  V30 14749 H 1388.43 -2.27204 -6.15398 0
M  V30 14750 H 1388.35 -3.9816 -6.42655 0
M  V30 14751 H 1389.62 -3.0547 -7.17153 0
M  V30 14752 N 1393.85 0.973806 -1.23914 0
M  V30 14753 C 1394.78 2.08526 -1.05068 0
M  V30 14754 C 1395.76 1.70065 0.0344761 0
M  V30 14755 O 1396.94 1.93755 -0.131432 0
M  V30 14756 C 1394.07 3.41198 -0.648165 0
M  V30 14757 C 1393.03 3.9359 -1.6814 0
M  V30 14758 C 1392.35 5.22534 -1.13414 0
M  V30 14759 C 1393.65 4.22116 -3.07597 0
M  V30 14760 H 1395.35 2.24551 -1.98034 0
M  V30 14761 H 1392.89 1.07905 -0.953546 0
M  V30 14762 H 1394.85 4.18383 -0.50334 0
M  V30 14763 H 1393.57 3.25056 0.317182 0
M  V30 14764 H 1392.23 3.18555 -1.81434 0
M  V30 14765 H 1391.88 5.02747 -0.159578 0
M  V30 14766 H 1391.58 5.58555 -1.82456 0
M  V30 14767 H 1393.1 6.02334 -1.0013 0
M  V30 14768 H 1394.52 4.90027 -2.97567 0
M  V30 14769 H 1392.91 4.69352 -3.73937 0
M  V30 14770 H 1393.98 3.29128 -3.56094 0
M  V30 14771 N 1395.33 1.05191 1.17357 0
M  V30 14772 C 1396.74 0.788105 1.69251 0
M  V30 14773 C 1397.09 -0.689717 1.83677 0
M  V30 14774 O 1396.21 -1.53601 1.52433 0
M  V30 14775 C 1396.81 1.42401 3.07421 0
M  V30 14776 C 1395.37 1.20825 3.5648 0
M  V30 14777 C 1394.51 1.50756 2.3274 0
M  V30 14778 H 1397.47 1.21686 1.01874 0
M  V30 14779 H 1397.49 0.833285 3.71264 0
M  V30 14780 H 1397 2.49958 2.96889 0
M  V30 14781 H 1395.1 0.15193 3.7229 0
M  V30 14782 H 1395.21 1.91319 4.39242 0
M  V30 14783 H 1393.58 0.927649 2.37206 0
M  V30 14784 H 1394.36 2.59446 2.24817 0
M  V30 14785 N 1396.8 -1.33791 0.83293 0
M  V30 14786 C 1398.08 -1.9248 0.347955 0
M  V30 14787 C 1398.46 -1.75978 -1.16597 0
M  V30 14788 O 1397.81 -1.14456 -1.97768 0
M  V30 14789 C 1398.02 -3.3998 0.78831 0
M  V30 14790 C 1399.37 -4.17131 0.7929 0
M  V30 14791 O 1400.39 -3.48607 0.731533 0
M  V30 14792 O 1399.25 -5.39446 0.875223 0
M  V30 14793 H 1396.34 -0.821264 0.0972309 0
M  V30 14794 H 1398.89 -1.42702 0.918387 0
M  V30 14795 H 1397.66 -3.45836 1.83065 0
M  V30 14796 H 1397.29 -3.97126 0.194123 0
M  V30 14797 N 1398.28 -0.588812 -1.46187 0
M  V30 14798 C 1399.51 -0.0824104 -2.06436 0
M  V30 14799 C 1399.92 1.23054 -1.43716 0
M  V30 14800 O 1399.26 1.7562 -0.538825 0
M  V30 14801 C 1399.33 0.151307 -3.59181 0
M  V30 14802 C 1398.99 -1.07697 -4.44129 0
M  V30 14803 C 1399.99 -1.99053 -4.80285 0
M  V30 14804 C 1397.67 -1.30053 -4.85172 0
M  V30 14805 C 1399.67 -3.11108 -5.56319 0
M  V30 14806 C 1397.35 -2.42412 -5.60963 0
M  V30 14807 C 1398.35 -3.32769 -5.96451 0
M  V30 14808 O 1398.04 -4.43175 -6.70709 0
M  V30 14809 H 1397.77 -0.0573231 -0.673565 0
M  V30 14810 H 1400.32 -0.811012 -1.88711 0
M  V30 14811 H 1398.55 0.934591 -3.75236 0
M  V30 14812 H 1400.24 0.606973 -4.01336 0
M  V30 14813 H 1401.01 -1.83 -4.4915 0
M  V30 14814 H 1396.89 -0.606295 -4.56996 0
M  V30 14815 H 1400.43 -3.81659 -5.83937 0
M  V30 14816 H 1396.33 -2.58426 -5.91512 0
M  V30 14817 H 1397.1 -4.4162 -6.8914 0
M  V30 14818 N 1399.76 1.54172 -0.326923 0
M  V30 14819 C 1401.01 1.99809 0.275554 0
M  V30 14820 C 1401.32 1.21886 1.52981 0
M  V30 14821 O 1402.53 1.57917 2.20849 0
M  V30 14822 C 1400.98 3.55802 0.541543 0
M  V30 14823 C 1400.59 4.42563 -0.695853 0
M  V30 14824 C 1402.34 4.09898 1.10379 0
M  V30 14825 C 1400.24 5.90035 -0.401581 0
M  V30 14826 H 1399.17 0.746406 0.106742 0
M  V30 14827 H 1401.82 1.78155 -0.439669 0
M  V30 14828 H 1400.21 3.73457 1.31704 0
M  V30 14829 H 1401.38 4.36684 -1.47118 0
M  V30 14830 H 1399.7 3.99373 -1.17855 0
M  V30 14831 H 1402.29 5.17672 1.33863 0
M  V30 14832 H 1402.64 3.62089 2.0542 0
M  V30 14833 H 1403.17 3.9589 0.389395 0
M  V30 14834 H 1399.91 6.42046 -1.32126 0
M  V30 14835 H 1399.43 5.98858 0.335977 0
M  V30 14836 H 1401.11 6.46999 -0.0126539 0
M  V30 14837 N 1401.24 0.0551678 1.57503 0
M  V30 14838 C 1402.19 -0.917847 2.11764 0
M  V30 14839 C 1403.16 -1.30624 1.02599 0
M  V30 14840 O 1404.34 -1.39501 1.30169 0
M  V30 14841 C 1401.48 -2.18599 2.67036 0
M  V30 14842 C 1400.59 -1.85173 3.90301 0
M  V30 14843 C 1399.73 -3.06475 4.33874 0
M  V30 14844 C 1398.77 -2.68988 5.49829 0
M  V30 14845 N 1397.9 -3.82997 5.88437 0
M  V30 14846 H 1402.74 -0.448236 2.9461 0
M  V30 14847 H 1400.28 -0.209619 1.45599 0
M  V30 14848 H 1402.24 -2.92811 2.97183 0
M  V30 14849 H 1400.87 -2.6313 1.86982 0
M  V30 14850 H 1399.92 -1.01094 3.66721 0
M  V30 14851 H 1401.23 -1.53582 4.74567 0
M  V30 14852 H 1400.39 -3.88982 4.65594 0
M  V30 14853 H 1399.13 -3.41247 3.48427 0
M  V30 14854 H 1398.13 -1.84899 5.17776 0
M  V30 14855 H 1399.36 -2.35404 6.36994 0
M  V30 14856 H 1397.3 -4.17562 5.05942 0
M  V30 14857 H 1397.22 -3.55118 6.67403 0
M  V30 14858 H 1398.49 -4.66131 6.24773 0
M  V30 14859 N 1402.72 -1.56081 -0.218252 0
M  V30 14860 C 1403.65 -1.89176 -1.29403 0
M  V30 14861 C 1404.66 -0.780312 -1.42881 0
M  V30 14862 O 1405.85 -1.05863 -1.4372 0
M  V30 14863 C 1402.95 -2.08818 -2.66923 0
M  V30 14864 C 1402.12 -3.39854 -2.75351 0
M  V30 14865 C 1401.18 -3.48889 -3.93908 0
M  V30 14866 O 1400.21 -4.21894 -3.82091 0
M  V30 14867 N 1401.41 -2.80273 -5.08357 0
M  V30 14868 H 1404.18 -2.82047 -1.01338 0
M  V30 14869 H 1401.74 -1.56667 -0.408278 0
M  V30 14870 H 1403.73 -2.12175 -3.44622 0
M  V30 14871 H 1402.3 -1.22557 -2.87574 0
M  V30 14872 H 1401.52 -3.48568 -1.84104 0
M  V30 14873 H 1402.81 -4.26168 -2.77954 0
M  V30 14874 H 1402.2 -2.20744 -5.20854 0
M  V30 14875 H 1400.76 -2.89286 -5.84086 0
M  V30 14876 N 1404.2 0.485086 -1.49949 0
M  V30 14877 C 1405.14 1.5848 -1.67788 0
M  V30 14878 C 1406.11 1.57776 -0.519216 0
M  V30 14879 O 1407.3 1.75521 -0.748141 0
M  V30 14880 C 1404.44 2.9654 -1.76516 0
M  V30 14881 C 1403.55 3.07139 -3.03792 0
M  V30 14882 C 1402.69 4.36029 -3.03401 0
M  V30 14883 C 1401.72 4.40318 -4.2519 0
M  V30 14884 N 1400.86 5.60659 -4.22618 0
M  V30 14885 H 1405.7 1.42575 -2.6168 0
M  V30 14886 H 1403.24 0.693426 -1.29731 0
M  V30 14887 H 1405.2 3.76583 -1.79557 0
M  V30 14888 H 1403.83 3.11112 -0.860764 0
M  V30 14889 H 1402.88 2.20057 -3.10289 0
M  V30 14890 H 1404.19 3.06167 -3.9378 0
M  V30 14891 H 1403.34 5.24407 -3.05094 0
M  V30 14892 H 1402.08 4.39588 -2.11219 0
M  V30 14893 H 1401.09 3.50339 -4.23725 0
M  V30 14894 H 1402.31 4.38461 -5.18583 0
M  V30 14895 H 1400.26 5.6503 -3.33282 0
M  V30 14896 H 1400.18 5.61371 -5.06359 0
M  V30 14897 H 1401.44 6.51201 -4.28436 0
M  V30 14898 N 1405.67 1.39291 0.737279 0
M  V30 14899 C 1406.6 1.40562 1.86452 0
M  V30 14900 C 1407.58 0.269283 1.67955 0
M  V30 14901 O 1408.77 0.474769 1.88307 0
M  V30 14902 C 1405.9 1.2461 3.24175 0
M  V30 14903 C 1404.85 2.35619 3.57306 0
M  V30 14904 C 1404.18 2.04758 4.93941 0
M  V30 14905 C 1405.48 3.77927 3.60512 0
M  V30 14906 H 1407.17 2.34896 1.85646 0
M  V30 14907 H 1404.72 1.13065 0.891756 0
M  V30 14908 H 1406.67 1.2412 4.02706 0
M  V30 14909 H 1405.4 0.267438 3.25503 0
M  V30 14910 H 1404.06 2.35322 2.81104 0
M  V30 14911 H 1403.7 1.05336 4.91847 0
M  V30 14912 H 1403.4 2.79117 5.17076 0
M  V30 14913 H 1404.93 2.05915 5.74832 0
M  V30 14914 H 1406.34 3.80166 4.29123 0
M  V30 14915 H 1404.74 4.51626 3.95164 0
M  V30 14916 H 1405.81 4.09068 2.60368 0
M  V30 14917 N 1407.15 -0.967221 1.24429 0
M  V30 14918 C 1408.08 -2.06479 0.994946 0
M  V30 14919 C 1409.1 -1.62761 -0.0357582 0
M  V30 14920 O 1410.29 -1.77361 0.201336 0
M  V30 14921 C 1407.39 -3.35487 0.479736 0
M  V30 14922 C 1406.56 -4.0811 1.57368 0
M  V30 14923 C 1405.62 -5.15392 1.06104 0
M  V30 14924 O 1404.64 -5.41539 1.75283 0
M  V30 14925 N 1405.85 -5.80406 -0.104288 0
M  V30 14926 H 1408.61 -2.28443 1.93995 0
M  V30 14927 H 1406.17 -1.13488 1.15465 0
M  V30 14928 H 1408.16 -4.04517 0.121528 0
M  V30 14929 H 1406.73 -3.1039 -0.371012 0
M  V30 14930 H 1405.95 -3.33351 2.10406 0
M  V30 14931 H 1407.24 -4.53391 2.30897 0
M  V30 14932 H 1406.64 -5.61566 -0.682638 0
M  V30 14933 H 1405.2 -6.50549 -0.403638 0
M  V30 14934 N 1408.63 -1.05812 -1.16797 0
M  V30 14935 C 1409.87 -0.781055 -1.88889 0
M  V30 14936 C 1410.23 0.679797 -1.79563 0
M  V30 14937 O 1411.43 1.07124 -2.46532 0
M  V30 14938 C 1409.71 -1.25598 -3.34604 0
M  V30 14939 S 1411.26 -1.10724 -4.24601 0
M  V30 14940 H 1408.08 -0.28347 -0.652047 0
M  V30 14941 H 1410.68 -1.35404 -1.41018 0
M  V30 14942 H 1409.39 -2.31421 -3.38928 0
M  V30 14943 H 1408.92 -0.677541 -3.87522 0
M  V30 14944 H 1410.93 -0.0351807 -4.96188 0
M  V30 14945 N 1410.11 1.33347 -0.840014 0
M  V30 14946 C 1411.04 2.31703 -0.289138 0
M  V30 14947 C 1412.02 1.59024 0.603759 0
M  V30 14948 O 1413.2 1.86911 0.527071 0
M  V30 14949 C 1410.33 3.43144 0.53566 0
M  V30 14950 C 1409.29 4.272 -0.261544 0
M  V30 14951 C 1408.61 5.30267 0.687075 0
M  V30 14952 C 1409.91 5.00915 -1.47924 0
M  V30 14953 H 1411.61 2.78026 -1.11094 0
M  V30 14954 H 1409.15 1.33666 -0.535658 0
M  V30 14955 H 1411.11 4.10979 0.931351 0
M  V30 14956 H 1409.83 2.95512 1.39069 0
M  V30 14957 H 1408.49 3.60991 -0.638809 0
M  V30 14958 H 1408.14 4.78893 1.53853 0
M  V30 14959 H 1407.84 5.87388 0.157773 0
M  V30 14960 H 1409.36 6.00968 1.08026 0
M  V30 14961 H 1410.78 5.61511 -1.15664 0
M  V30 14962 H 1409.17 5.67692 -1.94541 0
M  V30 14963 H 1410.24 4.29622 -2.24839 0
M  V30 14964 N 1411.59 0.596556 1.45873 0
M  V30 14965 C 1412.81 0.0916466 2.07197 0
M  V30 14966 C 1413.24 -1.21004 1.44012 0
M  V30 14967 O 1412.59 -1.73415 0.528844 0
M  V30 14968 C 1412.64 -0.0461457 3.6057 0
M  V30 14969 O 1411.75 -1.09919 3.97481 0
M  V30 14970 H 1411.09 0.0690655 0.660398 0
M  V30 14971 H 1413.62 0.823434 1.87299 0
M  V30 14972 H 1413.63 -0.2479 4.07246 0
M  V30 14973 H 1412.3 0.904381 4.05948 0
M  V30 14974 H 1410.88 -0.874788 3.62494 0
M  V30 14975 N 1413.06 -1.53996 0.335095 0
M  V30 14976 C 1414.29 -2.05657 -0.268328 0
M  V30 14977 C 1414.71 -1.20897 -1.44102 0
M  V30 14978 O 1414.07 -0.220737 -1.79951 0
M  V30 14979 C 1414.12 -3.54331 -0.669481 0
M  V30 14980 O 1413.22 -3.7246 -1.77052 0
M  V30 14981 H 1412.56 -0.662386 -0.0462705 0
M  V30 14982 H 1415.09 -1.98723 0.486854 0
M  V30 14983 H 1415.1 -3.9681 -0.948971 0
M  V30 14984 H 1413.78 -4.15474 0.188168 0
M  V30 14985 H 1412.36 -3.41884 -1.48895 0
M  V30 14986 N 1414.54 -0.0635198 -1.57472 0
M  V30 14987 C 1415.79 0.607008 -1.92349 0
M  V30 14988 C 1416.1 1.71268 -0.944806 0
M  V30 14989 O 1417.31 2.44221 -1.18609 0
M  V30 14990 C 1415.77 1.13105 -3.41666 0
M  V30 14991 C 1415.37 0.0568256 -4.47964 0
M  V30 14992 C 1417.12 1.77611 -3.85557 0
M  V30 14993 C 1415.02 0.594443 -5.88405 0
M  V30 14994 H 1413.95 0.230506 -0.717902 0
M  V30 14995 H 1416.61 -0.134413 -1.83007 0
M  V30 14996 H 1414.99 1.92517 -3.46054 0
M  V30 14997 H 1416.16 -0.717371 -4.55182 0
M  V30 14998 H 1414.48 -0.491517 -4.13489 0
M  V30 14999 H 1417.07 2.18852 -4.87861 0
M  V30 15000 H 1417.42 2.6328 -3.22474 0
M  V30 15001 H 1417.95 1.04834 -3.83738 0
M  V30 15002 H 1414.69 -0.224893 -6.55114 0
M  V30 15003 H 1414.21 1.33635 -5.84724 0
M  V30 15004 H 1415.89 1.07346 -6.38033 0
M  V30 15005 N 1416.02 1.56195 0.209972 0
M  V30 15006 C 1416.95 1.96378 1.26324 0
M  V30 15007 C 1417.93 0.833606 1.48273 0
M  V30 15008 O 1419.12 1.0968 1.60262 0
M  V30 15009 C 1416.25 2.29048 2.61064 0
M  V30 15010 C 1415.2 3.44665 2.53752 0
M  V30 15011 C 1414.53 3.6297 3.92628 0
M  V30 15012 C 1415.83 4.79297 2.07536 0
M  V30 15013 H 1417.52 2.8461 0.929379 0
M  V30 15014 H 1415.07 1.36931 0.445627 0
M  V30 15015 H 1417.02 2.55752 3.34916 0
M  V30 15016 H 1415.74 1.37682 2.96161 0
M  V30 15017 H 1414.4 3.18028 1.82356 0
M  V30 15018 H 1414.05 2.68961 4.25052 0
M  V30 15019 H 1413.75 4.40741 3.88614 0
M  V30 15020 H 1415.27 3.92035 4.68125 0
M  V30 15021 H 1416.69 5.05131 2.71138 0
M  V30 15022 H 1415.08 5.60433 2.14557 0
M  V30 15023 H 1416.15 4.73877 1.02802 0
M  V30 15024 N 1417.5 -0.477127 1.50204 0
M  V30 15025 C 1418.43 -1.58405 1.71552 0
M  V30 15026 C 1419.41 -1.60463 0.564413 0
M  V30 15027 O 1420.59 -1.76826 0.802893 0
M  V30 15028 C 1417.72 -2.96765 1.8041 0
M  V30 15029 C 1416.68 -3.09573 2.95548 0
M  V30 15030 C 1416 -4.49522 2.89542 0
M  V30 15031 C 1417.3 -2.87356 4.36147 0
M  V30 15032 H 1419 -1.40792 2.64231 0
M  V30 15033 H 1416.54 -0.675886 1.27153 0
M  V30 15034 H 1418.5 -3.74125 1.9393 0
M  V30 15035 H 1417.22 -3.1552 0.843489 0
M  V30 15036 H 1415.88 -2.34645 2.81669 0
M  V30 15037 H 1415.53 -4.65186 1.91339 0
M  V30 15038 H 1415.23 -4.59028 3.66834 0
M  V30 15039 H 1416.75 -5.28909 3.05102 0
M  V30 15040 H 1418.17 -3.54469 4.50583 0
M  V30 15041 H 1416.56 -3.08313 5.14843 0
M  V30 15042 H 1417.63 -1.83264 4.48935 0
M  V30 15043 N 1418.98 -1.3968 -0.729882 0
M  V30 15044 C 1419.91 -1.33201 -1.85291 0
M  V30 15045 C 1420.89 -0.204787 -1.61305 0
M  V30 15046 O 1422.07 -0.386087 -1.84504 0
M  V30 15047 C 1419.2 -1.06955 -3.21369 0
M  V30 15048 C 1418.24 -2.21937 -3.64207 0
M  V30 15049 S 1419.08 -3.84249 -3.72979 0
M  V30 15050 C 1420.23 -3.60239 -5.11839 0
M  V30 15051 H 1420.47 -2.28244 -1.90504 0
M  V30 15052 H 1418 -1.25796 -0.895252 0
M  V30 15053 H 1419.96 -0.924975 -3.99943 0
M  V30 15054 H 1418.62 -0.135902 -3.13806 0
M  V30 15055 H 1417.81 -1.99179 -4.62973 0
M  V30 15056 H 1417.41 -2.32624 -2.92852 0
M  V30 15057 H 1419.71 -3.17821 -5.98328 0
M  V30 15058 H 1420.65 -4.58485 -5.39627 0
M  V30 15059 H 1421.06 -2.94229 -4.81757 0
M  V30 15060 N 1420.45 0.960609 -1.2494 0
M  V30 15061 C 1421.7 1.70448 -1.09333 0
M  V30 15062 C 1422.03 1.91012 0.366687 0
M  V30 15063 O 1421.28 1.4743 1.28697 0
M  V30 15064 C 1421.58 3.09564 -1.78619 0
M  V30 15065 C 1421.25 3.08819 -3.28545 0
M  V30 15066 C 1419.91 3.08323 -3.69446 0
M  V30 15067 C 1422.26 3.02606 -4.24357 0
M  V30 15068 C 1419.59 2.99356 -5.04582 0
M  V30 15069 C 1421.94 2.9518 -5.5951 0
M  V30 15070 C 1420.61 2.93017 -5.99748 0
M  V30 15071 H 1419.88 0.623714 -0.400078 0
M  V30 15072 H 1422.52 1.12273 -1.55136 0
M  V30 15073 H 1420.83 3.71247 -1.2523 0
M  V30 15074 H 1422.53 3.6593 -1.64001 0
M  V30 15075 H 1419.12 3.09974 -2.95997 0
M  V30 15076 H 1423.3 3.02113 -3.93753 0
M  V30 15077 H 1418.56 2.96046 -5.34946 0
M  V30 15078 H 1422.73 2.89333 -6.3345 0
M  V30 15079 H 1420.36 2.85824 -7.04421 0
M  V30 15080 N 1421.93 1.0643 1.16234 0
M  V30 15081 C 1423.16 0.802671 1.91238 0
M  V30 15082 C 1423.58 -0.637222 1.76978 0
M  V30 15083 O 1422.94 -1.44419 1.09603 0
M  V30 15084 C 1422.99 1.20389 3.3991 0
M  V30 15085 O 1422.09 0.343516 4.10967 0
M  V30 15086 H 1421.43 0.29323 0.595745 0
M  V30 15087 H 1423.96 1.42046 1.47255 0
M  V30 15088 H 1423.97 1.17604 3.90683 0
M  V30 15089 H 1422.65 2.2527 3.49608 0
M  V30 15090 H 1421.23 0.433051 3.70377 0
M  V30 15091 N 1423.41 -1.329 0.847073 0
M  V30 15092 C 1424.36 -2.3097 0.27487 0
M  V30 15093 C 1425.35 -1.58508 -0.597625 0
M  V30 15094 O 1426.56 -1.73307 -0.486273 0
M  V30 15095 H 1422.93 -0.748719 0.0701719 0
M  V30 15096 H 1424.9 -2.7673 1.11638 0
M  V30 15097 C 1423.65 -3.43662 -0.528363 0
M  V30 15098 H 1422.98 -3.99576 0.133707 0
M  V30 15099 H 1424.42 -4.14458 -0.894443 0
M  V30 15100 C 1422.88 -2.90244 -1.71055 0
M  V30 15101 O 1423.41 -2.87109 -2.80947 0
M  V30 15102 N 1421.61 -2.46743 -1.53512 0
M  V30 15103 H 1421.16 -2.49493 -0.641181 0
M  V30 15104 H 1421.12 -2.11356 -2.32757 0
M  V30 15105 N 1424.89 -0.604284 -1.45555 0
M  V30 15106 C 1426.3 -0.183613 -1.85795 0
M  V30 15107 C 1426.65 1.25869 -1.50504 0
M  V30 15108 O 1425.78 1.9539 -0.930148 0
M  V30 15109 C 1426.37 -0.326455 -3.37224 0
M  V30 15110 C 1424.93 0.0394987 -3.76379 0
M  V30 15111 C 1424.08 -0.65243 -2.69516 0
M  V30 15112 H 1427.03 -0.811173 -1.36403 0
M  V30 15113 H 1427.05 0.442258 -3.77921 0
M  V30 15114 H 1426.56 -1.37627 -3.62878 0
M  V30 15115 H 1424.66 1.08862 -3.56342 0
M  V30 15116 H 1424.77 -0.35185 -4.77806 0
M  V30 15117 H 1423.14 -0.0904148 -2.54539 0
M  V30 15118 H 1423.92 -1.70432 -2.98007 0
M  V30 15119 N 1426.37 1.53816 -0.343257 0
M  V30 15120 C 1427.59 2.05326 0.254744 0
M  V30 15121 C 1428.01 1.21824 1.44237 0
M  V30 15122 O 1427.37 0.253507 1.80731 0
M  V30 15123 C 1427.42 3.55235 0.670075 0
M  V30 15124 O 1427.14 4.35568 -0.470322 0
M  V30 15125 C 1428.64 4.22915 1.32882 0
M  V30 15126 H 1425.86 0.669191 0.0492324 0
M  V30 15127 H 1428.4 1.98415 -0.495159 0
M  V30 15128 H 1426.56 3.6237 1.36992 0
M  V30 15129 H 1426.97 5.24315 -0.139303 0
M  V30 15130 H 1428.45 5.29197 1.57019 0
M  V30 15131 H 1428.92 3.75244 2.28229 0
M  V30 15132 H 1429.53 4.19973 0.67102 0
M  V30 15133 N 1427.84 0.0718701 1.57436 0
M  V30 15134 C 1429.26 -0.460784 1.80924 0
M  V30 15135 C 1429.61 -1.69637 0.985781 0
M  V30 15136 O 1428.73 -2.15395 0.208319 0
M  V30 15137 C 1429.33 -0.842738 3.28151 0
M  V30 15138 C 1427.89 -1.32026 3.52486 0
M  V30 15139 C 1427.03 -0.305466 2.75612 0
M  V30 15140 H 1429.98 0.297566 1.55885 0
M  V30 15141 H 1430 -1.70414 3.40205 0
M  V30 15142 H 1429.52 0.056733 3.88059 0
M  V30 15143 H 1427.62 -2.23822 2.97883 0
M  V30 15144 H 1427.73 -1.29813 4.61178 0
M  V30 15145 H 1426.09 -0.782758 2.42374 0
M  V30 15146 H 1426.88 0.586279 3.38257 0
M  V30 15147 N 1429.32 -1.56304 -0.201686 0
M  V30 15148 C 1430.27 -1.94901 -1.26949 0
M  V30 15149 C 1431.26 -0.833574 -1.47472 0
M  V30 15150 O 1432.47 -1.01854 -1.48411 0
M  V30 15151 H 1428.85 -0.619663 -0.426053 0
M  V30 15152 H 1430.82 -2.83964 -0.9169 0
M  V30 15153 C 1429.57 -2.29913 -2.60835 0
M  V30 15154 H 1428.89 -3.15268 -2.45858 0
M  V30 15155 H 1430.33 -2.60789 -3.34313 0
M  V30 15156 C 1428.79 -1.13136 -3.17335 0
M  V30 15157 O 1429.32 -0.402915 -3.99674 0
M  V30 15158 N 1427.52 -0.909912 -2.75987 0
M  V30 15159 H 1427.07 -1.50402 -2.09134 0
M  V30 15160 H 1427.03 -0.130348 -3.1413 0
M  V30 15161 N 1430.8 0.469154 -1.50455 0
M  V30 15162 C 1432.05 1.22109 -1.61541 0
M  V30 15163 C 1432.38 1.91905 -0.316646 0
M  V30 15164 O 1431.63 1.82845 0.697585 0
M  V30 15165 C 1431.93 2.28673 -2.7467 0
M  V30 15166 C 1431.6 1.76115 -4.15083 0
M  V30 15167 C 1430.26 1.61503 -4.53288 0
M  V30 15168 C 1432.61 1.37145 -5.02833 0
M  V30 15169 C 1429.94 1.06346 -5.76981 0
M  V30 15170 C 1432.29 0.834294 -6.27074 0
M  V30 15171 C 1430.95 0.674814 -6.6408 0
M  V30 15172 H 1430.22 0.44683 -0.591121 0
M  V30 15173 H 1432.87 0.516821 -1.84394 0
M  V30 15174 H 1431.18 3.05015 -2.45912 0
M  V30 15175 H 1432.87 2.86615 -2.80451 0
M  V30 15176 H 1429.46 1.88457 -3.84944 0
M  V30 15177 H 1433.65 1.47268 -4.73947 0
M  V30 15178 H 1428.9 0.927377 -6.04326 0
M  V30 15179 H 1433.08 0.523676 -6.94428 0
M  V30 15180 H 1430.7 0.245264 -7.59804 0
M  V30 15181 N 1432.28 1.40065 0.722464 0
M  V30 15182 C 1433.23 1.36267 1.82798 0
M  V30 15183 C 1434.21 0.241375 1.59079 0
M  V30 15184 O 1435.4 0.479929 1.70369 0
M  V30 15185 C 1432.53 1.22086 3.20858 0
M  V30 15186 C 1431.62 2.38969 3.50364 0
M  V30 15187 N 1432.01 3.6445 3.50727 0
M  V30 15188 C 1430.31 2.32199 3.80788 0
M  V30 15189 C 1431.01 4.41816 3.78383 0
M  V30 15190 N 1429.99 3.71565 3.96787 0
M  V30 15191 H 1433.79 2.31236 1.81403 0
M  V30 15192 H 1431.3 1.33739 0.92128 0
M  V30 15193 H 1433.3 1.17448 4.00014 0
M  V30 15194 H 1431.96 0.280787 3.23484 0
M  V30 15195 H 1432.97 3.97705 3.3174 0
M  V30 15196 H 1429.65 1.46521 3.90945 0
M  V30 15197 H 1431.04 5.5064 3.85027 0
M  V30 15198 O 1433.8 -0.8639 1.36452 0
M  V30 15199 H 1434.49 -1.50325 1.22155 0
M  V30 END ATOM
M  V30 BEGIN BOND
M  V30 END BOND
M  V30 END CTAB
M  END
$$$$
