drugbank_target|O00763 Acetyl-CoA carboxylase 2 (DB00121; DB00173; DB02859; DB03781; DB07870)
 OpenBabel12092119373D

  0  0  0     0  0            999 V3000
M  V30 BEGIN CTAB
M  V30 COUNTS 38845 39279 0 0 0
M  V30 BEGIN ATOM
M  V30 1 H -0.908 1.98254 -0.117106 0
M  V30 2 N 0 1.576 0 0
M  V30 3 C 0.933 2.03868 1.02534 0
M  V30 4 C 1.911 0.928543 1.3348 0
M  V30 5 O 3.095 1.19667 1.45644 0
M  V30 6 C 0.222 2.43627 2.35294 0
M  V30 7 C -0.732 3.65373 2.2001 0
M  V30 8 S 0.101 5.13292 1.52614 0
M  V30 9 C 1.257 5.56322 2.86805 0
M  V30 10 H 1.49 2.90518 0.631377 0
M  V30 11 H -0.977 1.52953 0.210867 0
M  V30 12 H 0.981 2.67203 3.11629 0
M  V30 13 H -0.358 1.57376 2.7183 0
M  V30 14 H -1.165 3.90944 3.18086 0
M  V30 15 H -1.563 3.418 1.51819 0
M  V30 16 H 0.729 5.58782 3.83104 0
M  V30 17 H 1.672 6.56266 2.65933 0
M  V30 18 H 2.08 4.83886 2.90714 0
M  V30 19 N 1.4781 -0.272755 1.55222 0
M  V30 20 C 2.7241 -1.00581 1.761 0
M  V30 21 C 3.0571 -1.85932 0.560625 0
M  V30 22 O 2.3321 -1.89416 -0.441801 0
M  V30 23 C 2.6151 -1.88816 3.06628 0
M  V30 24 C 2.4681 -1.06457 4.37021 0
M  V30 25 C 3.7871 -2.8752 3.33197 0
M  V30 26 H 0.9061 -0.364244 0.640699 0
M  V30 27 H 3.5481 -0.278189 1.87952 0
M  V30 28 H 1.6981 -2.50856 2.96654 0
M  V30 29 H 3.3701 -0.464863 4.58952 0
M  V30 30 H 1.6131 -0.368043 4.32236 0
M  V30 31 H 2.2841 -1.71514 5.24678 0
M  V30 32 H 4.7601 -2.35615 3.42965 0
M  V30 33 H 3.6361 -3.46399 4.25792 0
M  V30 34 H 3.8971 -3.62657 2.52849 0
M  V30 35 N 2.9562 -1.48159 -0.537278 0
M  V30 36 C 3.8862 -1.65029 -1.6519 0
M  V30 37 C 4.8672 -0.499281 -1.62607 0
M  V30 38 O 6.0522 -0.730972 -1.79918 0
M  V30 39 C 3.1822 -1.68303 -3.03795 0
M  V30 40 C 2.1362 -2.8283 -3.21234 0
M  V30 41 C 1.4622 -2.71189 -4.60826 0
M  V30 42 C 2.7622 -4.24211 -3.04701 0
M  V30 43 H 4.4562 -2.58341 -1.51328 0
M  V30 44 H 2.0022 -1.24325 -0.726585 0
M  V30 45 H 3.9552 -1.78693 -3.81637 0
M  V30 46 H 2.6792 -0.715635 -3.18663 0
M  V30 47 H 1.3382 -2.71983 -2.45807 0
M  V30 48 H 0.9862 -1.72435 -4.7252 0
M  V30 49 H 0.6862 -3.48035 -4.7344 0
M  V30 50 H 2.2102 -2.83537 -5.40777 0
M  V30 51 H 3.6242 -4.3593 -3.72341 0
M  V30 52 H 2.0212 -5.01998 -3.28813 0
M  V30 53 H 3.0912 -4.41184 -2.01209 0
M  V30 54 N 4.4343 0.785586 -1.36625 0
M  V30 55 C 5.3643 1.91259 -1.33949 0
M  V30 56 C 6.3453 1.68795 -0.210325 0
M  V30 57 O 7.5303 1.89854 -0.408561 0
M  V30 58 C 4.6603 3.28339 -1.13186 0
M  V30 59 C 3.6143 3.65335 -2.22967 0
M  V30 60 C 2.9403 5.00806 -1.87342 0
M  V30 61 C 4.2403 3.7352 -3.65075 0
M  V30 62 H 5.9343 1.93755 -2.28253 0
M  V30 63 H 3.4803 0.930788 -1.09874 0
M  V30 64 H 5.4333 4.06804 -1.09948 0
M  V30 65 H 4.1573 3.2624 -0.153332 0
M  V30 66 H 2.8163 2.89169 -2.25337 0
M  V30 67 H 2.4643 4.95233 -0.880545 0
M  V30 68 H 2.1643 5.26529 -2.60846 0
M  V30 69 H 3.6883 5.81687 -1.85667 0
M  V30 70 H 5.1023 4.42168 -3.64911 0
M  V30 71 H 3.4993 4.10731 -4.37516 0
M  V30 72 H 4.5693 2.74527 -3.99703 0
M  V30 73 N 5.9124 1.20967 1.01018 0
M  V30 74 C 6.8424 0.988272 2.11555 0
M  V30 75 C 7.8234 -0.0849778 1.69888 0
M  V30 76 O 9.0084 0.0738202 1.9406 0
M  V30 77 C 6.1384 0.546528 3.42973 0
M  V30 78 C 5.0924 1.56375 3.9841 0
M  V30 79 C 4.4184 0.97842 5.25672 0
M  V30 80 C 5.7184 2.94922 4.31066 0
M  V30 81 H 7.4124 1.91276 2.30334 0
M  V30 82 H 4.9584 0.921073 1.1069 0
M  V30 83 H 6.9114 0.378839 4.19694 0
M  V30 84 H 5.6354 -0.413598 3.23971 0
M  V30 85 H 4.2944 1.71891 3.23804 0
M  V30 86 H 3.9424 0.0101688 5.02999 0
M  V30 87 H 3.6424 1.65784 5.63728 0
M  V30 88 H 5.1664 0.821939 6.05043 0
M  V30 89 H 6.5804 2.8288 4.9865 0
M  V30 90 H 4.9774 3.5983 4.80253 0
M  V30 91 H 6.0474 3.4616 3.39561 0
M  V30 92 N 7.3905 -1.2043 1.01659 0
M  V30 93 C 8.6305 -1.91507 0.714456 0
M  V30 94 C 8.9945 -1.77073 -0.742237 0
M  V30 95 O 10.1955 -2.42631 -1.15688 0
M  V30 96 C 8.4665 -3.38795 1.13809 0
M  V30 97 S 10.0255 -4.28216 0.957925 0
M  V30 98 H 6.8435 -0.661571 0.260471 0
M  V30 99 H 9.4455 -1.45671 1.30384 0
M  V30 100 H 8.1495 -3.46822 2.19415 0
M  V30 101 H 7.6805 -3.89656 0.541474 0
M  V30 102 H 9.6955 -4.96007 -0.138531 0
M  V30 103 N 8.8686 -0.792821 -1.36206 0
M  V30 104 C 9.7986 -0.207853 -2.32573 0
M  V30 105 C 10.7796 0.659055 -1.56813 0
M  V30 106 O 11.9646 0.592176 -1.84951 0
M  V30 107 C 9.0946 0.655449 -3.41059 0
M  V30 108 C 8.0486 -0.111842 -4.27854 0
M  V30 109 C 7.3746 0.872274 -5.27537 0
M  V30 110 C 8.6746 -1.30299 -5.05786 0
M  V30 111 H 10.3686 -1.01294 -2.81744 0
M  V30 112 H 7.9146 -0.48854 -1.3546 0
M  V30 113 H 9.8676 1.07464 -4.07467 0
M  V30 114 H 8.5916 1.49328 -2.90463 0
M  V30 115 H 7.2506 -0.512053 -3.63006 0
M  V30 116 H 6.8986 1.70523 -4.73214 0
M  V30 117 H 6.5986 0.363291 -5.86476 0
M  V30 118 H 8.1226 1.28996 -5.96818 0
M  V30 119 H 9.5366 -0.959379 -5.65216 0
M  V30 120 H 7.9336 -1.7455 -5.74154 0
M  V30 121 H 9.0036 -2.09663 -4.37229 0
M  V30 122 N 10.3467 1.47872 -0.545128 0
M  V30 123 C 11.5717 2.07391 -0.0190611 0
M  V30 124 C 11.9967 1.39688 1.25971 0
M  V30 125 O 11.3547 0.467816 1.7516 0
M  V30 126 C 11.4027 3.60188 0.172335 0
M  V30 127 O 10.5067 3.9339 1.23766 0
M  V30 128 H 9.8477 0.662411 -0.0459059 0
M  V30 129 H 12.3777 1.90066 -0.757365 0
M  V30 130 H 12.3877 4.06129 0.390305 0
M  V30 131 H 11.0627 4.08865 -0.761725 0
M  V30 132 H 9.6397 3.5921 1.00114 0
M  V30 133 N 11.8248 0.280983 1.55075 0
M  V30 134 C 13.0648 -0.335234 2.01632 0
M  V30 135 C 13.4288 -1.5261 1.16508 0
M  V30 136 O 14.6298 -2.21235 1.52672 0
M  V30 137 C 12.9008 -0.702172 3.50434 0
M  V30 138 S 14.4598 -1.30409 4.18974 0
M  V30 139 H 11.2778 -0.103967 0.703358 0
M  V30 140 H 13.8798 0.404187 1.91276 0
M  V30 141 H 12.5838 0.17333 4.10034 0
M  V30 142 H 12.1148 -1.4729 3.64786 0
M  V30 143 H 14.1298 -2.59253 4.23087 0
M  V30 144 N 13.3029 -1.57598 0.00835791 0
M  V30 145 C 14.2329 -2.1198 -0.979113 0
M  V30 146 C 15.2139 -1.03091 -1.35301 0
M  V30 147 O 16.3989 -1.30818 -1.43528 0
M  V30 148 C 13.5289 -2.62995 -2.26828 0
M  V30 149 C 12.4829 -3.76485 -2.03576 0
M  V30 150 C 11.8089 -4.13846 -3.38579 0
M  V30 151 C 13.1089 -5.0342 -1.39161 0
M  V30 152 H 14.8029 -2.94738 -0.526281 0
M  V30 153 H 12.3489 -1.41783 -0.251704 0
M  V30 154 H 14.3019 -2.99669 -2.96271 0
M  V30 155 H 13.0259 -1.7737 -2.7424 0
M  V30 156 H 11.6849 -3.40217 -1.36557 0
M  V30 157 H 11.3329 -3.25232 -3.83709 0
M  V30 158 H 11.0329 -4.90312 -3.23834 0
M  V30 159 H 12.5569 -4.53086 -4.09323 0
M  V30 160 H 13.9709 -5.37812 -1.98573 0
M  V30 161 H 12.3679 -5.84746 -1.34878 0
M  V30 162 H 13.4379 -4.83548 -0.361868 0
M  V30 163 N 14.781 0.264519 -1.55364 0
M  V30 164 C 16.03 0.992812 -1.75574 0
M  V30 165 C 16.343 1.87142 -0.568979 0
M  V30 166 O 17.549 2.63513 -0.653682 0
M  V30 167 C 16.005 1.81519 -3.10771 0
M  V30 168 C 15.613 0.984839 -4.37041 0
M  V30 169 C 17.357 2.53727 -3.40327 0
M  V30 170 C 15.264 1.80209 -5.63275 0
M  V30 171 H 14.194 0.374412 -0.65447 0
M  V30 172 H 16.845 0.248138 -1.81815 0
M  V30 173 H 15.227 2.60115 -2.98591 0
M  V30 174 H 16.401 0.242455 -4.60162 0
M  V30 175 H 14.716 0.37691 -4.14691 0
M  V30 176 H 17.313 3.15292 -4.3185 0
M  V30 177 H 17.656 3.24447 -2.60845 0
M  V30 178 H 18.189 1.82156 -3.53644 0
M  V30 179 H 14.928 1.13896 -6.45529 0
M  V30 180 H 14.448 2.52022 -5.44284 0
M  V30 181 H 16.127 2.37364 -6.01887 0
M  V30 182 N 16.2591 1.48442 0.529413 0
M  V30 183 C 17.5061 1.56488 1.28521 0
M  V30 184 C 17.8341 0.239042 1.93025 0
M  V30 185 O 17.0891 -0.770713 1.79885 0
M  V30 186 C 17.3881 2.6523 2.39558 0
M  V30 187 C 17.0541 4.07648 1.92702 0
M  V30 188 C 15.7161 4.46411 1.79641 0
M  V30 189 C 18.0681 4.96896 1.573 0
M  V30 190 C 15.3961 5.72226 1.29514 0
M  V30 191 C 17.7481 6.23202 1.08636 0
M  V30 192 C 16.4121 6.60821 0.941919 0
M  V30 193 H 15.6821 0.572631 0.470292 0
M  V30 194 H 18.3291 1.82161 0.59072 0
M  V30 195 H 16.6341 2.33419 3.14679 0
M  V30 196 H 18.3311 2.68671 2.97686 0
M  V30 197 H 14.9211 3.77036 2.03819 0
M  V30 198 H 19.1051 4.67626 1.66251 0
M  V30 199 H 14.3611 6.00097 1.17019 0
M  V30 200 H 18.5351 6.91753 0.803136 0
M  V30 201 H 16.1621 7.58198 0.5513 0
M  V30 202 N 17.7372 -0.778329 1.37039 0
M  V30 203 C 18.9622 -1.57248 1.35233 0
M  V30 204 C 19.3872 -1.87999 -0.0615568 0
M  V30 205 O 18.7452 -1.48734 -1.03672 0
M  V30 206 C 18.7932 -2.86353 2.19167 0
M  V30 207 O 17.8972 -3.80442 1.59178 0
M  V30 208 H 17.2382 -0.476569 0.462362 0
M  V30 209 H 19.7682 -0.963853 1.80474 0
M  V30 210 H 19.7782 -3.35519 2.32145 0
M  V30 211 H 18.4532 -2.63299 3.21942 0
M  V30 212 H 17.0302 -3.39067 1.55203 0
M  V30 213 N 19.2153 -1.21501 -1.00376 0
M  V30 214 C 20.4553 -1.04444 -1.75701 0
M  V30 215 C 20.8193 0.414644 -1.87469 0
M  V30 216 O 22.0203 0.705763 -2.59369 0
M  V30 217 C 20.2913 -1.72389 -3.13077 0
M  V30 218 S 21.8503 -1.70604 -4.04277 0
M  V30 219 H 18.6683 -0.374249 -0.604532 0
M  V30 220 H 21.2703 -1.54267 -1.20091 0
M  V30 221 H 19.9743 -2.77734 -3.02146 0
M  V30 222 H 19.5053 -1.22751 -3.73759 0
M  V30 223 H 21.5203 -0.748012 -4.9053 0
M  V30 224 N 20.6934 1.19889 -1.02296 0
M  V30 225 C 21.6234 2.25141 -0.619174 0
M  V30 226 C 22.6044 1.66051 0.368915 0
M  V30 227 O 23.7894 1.92546 0.252941 0
M  V30 228 C 20.9194 3.4728 0.0368783 0
M  V30 229 C 19.8734 4.19005 -0.872865 0
M  V30 230 C 19.1994 5.34637 -0.0822402 0
M  V30 231 C 20.4994 4.74452 -2.18387 0
M  V30 232 H 22.1934 2.59171 -1.49903 0
M  V30 233 H 19.7394 1.24579 -0.722222 0
M  V30 234 H 21.6924 4.20098 0.330958 0
M  V30 235 H 20.4164 3.12433 0.95149 0
M  V30 236 H 19.0754 3.48061 -1.15105 0
M  V30 237 H 18.7234 4.96034 0.83422 0
M  V30 238 H 18.4234 5.83557 -0.688149 0
M  V30 239 H 19.9474 6.10255 0.205238 0
M  V30 240 H 21.3614 5.39055 -1.95172 0
M  V30 241 H 19.7584 5.33834 -2.74119 0
M  V30 242 H 20.8284 3.92844 -2.84257 0
M  V30 243 N 22.1715 0.800033 1.35784 0
M  V30 244 C 23.3995 0.389606 2.03199 0
M  V30 245 C 23.8145 -0.997375 1.60306 0
M  V30 246 O 23.1715 -1.64154 0.797481 0
M  V30 247 C 23.2225 0.455855 3.58614 0
M  V30 248 O 22.9435 1.78815 3.99946 0
M  V30 249 C 24.4445 0.0374032 4.43284 0
M  V30 250 H 21.6645 0.159132 0.651857 0
M  V30 251 H 24.2085 1.08183 1.73541 0
M  V30 252 H 22.3635 -0.188057 3.86943 0
M  V30 253 H 22.7775 1.74636 4.94573 0
M  V30 254 H 24.2515 0.134882 5.51835 0
M  V30 255 H 24.7285 -1.01651 4.27275 0
M  V30 256 H 25.3345 0.654215 4.20238 0
M  V30 257 N 23.6496 -1.47581 0.552962 0
M  V30 258 C 24.8966 -2.02482 0.0273243 0
M  V30 259 C 25.2246 -1.42776 -1.32081 0
M  V30 260 O 24.4796 -0.571393 -1.87173 0
M  V30 261 C 24.7786 -3.57199 -0.119728 0
M  V30 262 C 24.4446 -4.35804 1.15697 0
M  V30 263 C 23.1066 -4.57 1.50681 0
M  V30 264 C 25.4586 -4.81167 2.00319 0
M  V30 265 C 22.7866 -5.20807 2.70142 0
M  V30 266 C 25.1386 -5.46293 3.18978 0
M  V30 267 C 23.8026 -5.65722 3.54281 0
M  V30 268 H 23.0726 -0.740933 0.00999866 0
M  V30 269 H 25.7196 -1.77302 0.72362 0
M  V30 270 H 24.0246 -3.81348 -0.89896 0
M  V30 271 H 25.7216 -3.97324 -0.541718 0
M  V30 272 H 22.3116 -4.19582 0.874561 0
M  V30 273 H 26.4956 -4.64574 1.74599 0
M  V30 274 H 21.7516 -5.34045 2.97668 0
M  V30 275 H 25.9256 -5.80407 3.84838 0
M  V30 276 H 23.5526 -6.14936 4.46942 0
M  V30 277 N 25.1277 -0.289203 -1.54924 0
M  V30 278 C 26.3527 0.329299 -2.04769 0
M  V30 279 C 26.7777 1.4763 -1.16564 0
M  V30 280 O 26.1357 1.80527 -0.167186 0
M  V30 281 C 26.1837 0.774438 -3.52186 0
M  V30 282 O 25.2877 1.88038 -3.67036 0
M  V30 283 H 24.6287 0.0659259 -0.660719 0
M  V30 284 H 27.1587 -0.42761 -2.00082 0
M  V30 285 H 27.1687 1.06642 -3.93816 0
M  V30 286 H 25.8437 -0.0646707 -4.1585 0
M  V30 287 H 24.4207 1.58985 -3.3731 0
M  V30 288 N 26.6058 1.57591 -0.0167156 0
M  V30 289 C 27.8518 1.92399 0.659861 0
M  V30 290 C 28.2068 0.892561 1.70444 0
M  V30 291 O 27.4998 -0.0930755 1.91374 0
M  V30 292 C 27.6938 3.3172 1.33029 0
M  V30 293 C 27.5228 4.48319 0.352174 0
M  V30 294 C 26.2928 5.05281 -0.0434883 0
M  V30 295 C 28.4908 5.12831 -0.388474 0
M  V30 296 N 26.4728 6.05399 -1.01807 0
M  V30 297 C 27.8438 6.07934 -1.2172 0
M  V30 298 C 29.8988 4.95858 -0.450513 0
M  V30 299 C 28.6018 6.87891 -2.10235 0
M  V30 300 C 30.6278 5.76413 -1.32295 0
M  V30 301 C 29.9898 6.71123 -2.13948 0
M  V30 302 H 26.0888 0.752106 0.21415 0
M  V30 303 H 28.6728 1.94532 -0.0809846 0
M  V30 304 H 26.8438 3.3043 2.04134 0
M  V30 305 H 28.5758 3.5391 1.9629 0
M  V30 306 H 25.3308 4.7246 0.328384 0
M  V30 307 H 25.7548 6.60145 -1.50123 0
M  V30 308 H 30.3968 4.22472 0.166512 0
M  V30 309 H 28.1148 7.60591 -2.72997 0
M  V30 310 H 31.7008 5.65317 -1.37508 0
M  V30 311 H 30.5808 7.3237 -2.80364 0
M  V30 312 N 28.0839 -0.256276 1.55502 0
M  V30 313 C 29.0139 -1.32102 1.92539 0
M  V30 314 C 29.9949 -1.50684 0.789194 0
M  V30 315 O 31.1799 -1.63449 1.04872 0
M  V30 316 C 28.3099 -2.67752 2.21192 0
M  V30 317 C 27.2639 -2.63878 3.36975 0
M  V30 318 C 26.5899 -4.03236 3.51147 0
M  V30 319 C 27.8899 -2.21682 4.72921 0
M  V30 320 H 29.5839 -1.01351 2.81724 0
M  V30 321 H 27.1299 -0.486105 1.35547 0
M  V30 322 H 29.0829 -3.42365 2.45691 0
M  V30 323 H 27.8069 -3.0012 1.28824 0
M  V30 324 H 26.4659 -1.91722 3.12471 0
M  V30 325 H 26.1139 -4.32854 2.56216 0
M  V30 326 H 25.8139 -4.01535 4.29003 0
M  V30 327 H 27.3379 -4.79563 3.77957 0
M  V30 328 H 28.7519 -2.86023 4.96854 0
M  V30 329 H 27.1489 -2.3111 5.53812 0
M  V30 330 H 28.2189 -1.16833 4.70615 0
M  V30 331 N 29.562 -1.4872 -0.521534 0
M  V30 332 C 30.509 -1.63871 -1.62527 0
M  V30 333 C 31.479 -0.480559 -1.58996 0
M  V30 334 O 32.664 -0.705085 -1.77294 0
M  V30 335 C 29.804 -1.69227 -3.00759 0
M  V30 336 C 28.917 -2.96207 -3.14461 0
M  V30 337 C 28.052 -2.92671 -4.43303 0
M  V30 338 C 27.091 -4.14318 -4.50563 0
M  V30 339 N 26.228 -4.0881 -5.70805 0
M  V30 340 H 31.068 -2.58123 -1.48918 0
M  V30 341 H 28.605 -1.28 -0.724878 0
M  V30 342 H 30.563 -1.70314 -3.80853 0
M  V30 343 H 29.193 -0.784586 -3.1312 0
M  V30 344 H 28.245 -3.04826 -2.27564 0
M  V30 345 H 29.557 -3.86192 -3.15686 0
M  V30 346 H 28.711 -2.92206 -5.31696 0
M  V30 347 H 27.45 -2.00429 -4.44612 0
M  V30 348 H 26.455 -4.15049 -3.60575 0
M  V30 349 H 27.68 -5.07729 -4.50986 0
M  V30 350 H 25.626 -3.19394 -5.72995 0
M  V30 351 H 25.543 -4.92509 -5.7356 0
M  V30 352 H 26.811 -4.12418 -6.61462 0
M  V30 353 N 31.0401 0.771051 -1.3745 0
M  V30 354 C 32.2891 1.52491 -1.3202 0
M  V30 355 C 32.6021 1.9538 0.0927347 0
M  V30 356 O 33.8081 2.70159 0.269503 0
M  V30 357 C 32.2641 2.75366 -2.31736 0
M  V30 358 C 31.8721 2.39573 -3.78562 0
M  V30 359 C 33.6161 3.53307 -2.35318 0
M  V30 360 C 31.5231 3.58954 -4.70007 0
M  V30 361 H 30.4531 0.572506 -0.490666 0
M  V30 362 H 33.1041 0.844474 -1.62914 0
M  V30 363 H 31.4861 3.45303 -1.93861 0
M  V30 364 H 32.6601 1.77415 -4.25277 0
M  V30 365 H 30.9751 1.74805 -3.77932 0
M  V30 366 H 33.5721 4.42039 -3.00842 0
M  V30 367 H 33.9151 3.93217 -1.36698 0
M  V30 368 H 34.4481 2.90367 -2.71904 0
M  V30 369 H 31.1871 3.24125 -5.69757 0
M  V30 370 H 30.7071 4.20214 -4.27996 0
M  V30 371 H 32.3861 4.25758 -4.87175 0
M  V30 372 N 32.5182 1.22032 0.997298 0
M  V30 373 C 33.7642 1.05382 1.73972 0
M  V30 374 C 34.1192 -0.407419 1.88037 0
M  V30 375 O 33.4122 -1.29811 1.40924 0
M  V30 376 C 33.6062 1.69345 3.14733 0
M  V30 377 C 33.4352 3.21537 3.14395 0
M  V30 378 C 32.2052 3.9062 3.20537 0
M  V30 379 C 34.4032 4.18527 2.98897 0
M  V30 380 N 32.3852 5.29935 3.09906 0
M  V30 381 C 33.7562 5.44645 2.96247 0
M  V30 382 C 35.8112 4.09476 2.83255 0
M  V30 383 C 34.5142 6.62752 2.79557 0
M  V30 384 C 36.5402 5.27228 2.67926 0
M  V30 385 C 35.9022 6.52262 2.65959 0
M  V30 386 H 32.0012 0.440018 0.646458 0
M  V30 387 H 34.5852 1.54505 1.18475 0
M  V30 388 H 32.7562 1.22778 3.68484 0
M  V30 389 H 34.4882 1.45828 3.77513 0
M  V30 390 H 31.2432 3.41592 3.28043 0
M  V30 391 H 31.6672 6.02926 3.07912 0
M  V30 392 H 36.3092 3.13598 2.83577 0
M  V30 393 H 34.0272 7.58783 2.77982 0
M  V30 394 H 37.6132 5.22053 2.56812 0
M  V30 395 H 36.4932 7.41844 2.54239 0
M  V30 396 N 33.9963 -1.19345 1.0293 0
M  V30 397 C 35.2443 -1.88665 0.724574 0
M  V30 398 C 35.5653 -1.80036 -0.749144 0
M  V30 399 O 34.8353 -1.2111 -1.53978 0
M  V30 400 H 33.4153 -0.698406 0.265025 0
M  V30 401 H 36.0773 -1.44885 1.30362 0
M  V30 402 H 35.1733 -2.94987 1.01926 0
M  V30 403 N 35.4744 -0.807222 -1.35358 0
M  V30 404 C 36.4214 -0.216037 -2.29787 0
M  V30 405 C 37.3914 0.650278 -1.52842 0
M  V30 406 O 38.5764 0.595227 -1.81278 0
M  V30 407 C 35.7164 0.628893 -3.39321 0
M  V30 408 C 34.8294 -0.257927 -4.31229 0
M  V30 409 C 33.9644 0.595069 -5.27856 0
M  V30 410 C 33.0034 -0.292111 -6.11403 0
M  V30 411 N 32.1404 0.520895 -7.00165 0
M  V30 412 H 36.9804 -1.02671 -2.79755 0
M  V30 413 H 34.5174 -0.517839 -1.37684 0
M  V30 414 H 36.4754 1.13393 -4.01494 0
M  V30 415 H 35.1054 1.40482 -2.90628 0
M  V30 416 H 34.1574 -0.881076 -3.70056 0
M  V30 417 H 35.4694 -0.940759 -4.89848 0
M  V30 418 H 34.6234 1.16522 -5.95405 0
M  V30 419 H 33.3624 1.31146 -4.69736 0
M  V30 420 H 32.3674 -0.874525 -5.428 0
M  V30 421 H 33.5924 -1.00638 -6.71602 0
M  V30 422 H 31.5384 1.22125 -6.44532 0
M  V30 423 H 31.4554 -0.103877 -7.55929 0
M  V30 424 H 32.7234 1.0743 -7.72062 0
M  V30 425 N 36.9525 1.47285 -0.560781 0
M  V30 426 C 37.8855 2.27009 0.232821 0
M  V30 427 C 38.8635 1.34273 0.917039 0
M  V30 428 O 40.0475 1.63659 0.935315 0
M  V30 429 C 37.1745 3.11406 1.33206 0
M  V30 430 C 36.2205 4.19746 0.756019 0
M  V30 431 S 37.0535 5.34003 -0.400165 0
M  V30 432 C 38.2095 6.21964 0.700805 0
M  V30 433 H 38.4425 2.93971 -0.443683 0
M  V30 434 H 35.9755 1.50446 -0.347181 0
M  V30 435 H 37.9335 3.60601 1.96156 0
M  V30 436 H 36.5945 2.438 1.98041 0
M  V30 437 H 35.7875 4.78541 1.5816 0
M  V30 438 H 35.3895 3.73451 0.202619 0
M  V30 439 H 37.6815 6.58529 1.59202 0
M  V30 440 H 38.6245 7.07941 0.150126 0
M  V30 441 H 39.0325 5.5566 0.995083 0
M  V30 442 N 38.4306 0.297415 1.54768 0
M  V30 443 C 39.6586 -0.315623 2.04478 0
M  V30 444 C 40.0736 -1.47792 1.17486 0
M  V30 445 O 39.4306 -1.81404 0.19971 0
M  V30 446 C 39.4816 -0.7753 3.53088 0
M  V30 447 O 39.2026 0.340732 4.36773 0
M  V30 448 C 40.7036 -1.45386 4.18781 0
M  V30 449 H 37.9236 -0.0690887 0.667434 0
M  V30 450 H 40.4676 0.436003 1.99798 0
M  V30 451 H 38.6226 -1.47696 3.58141 0
M  V30 452 H 39.0366 -0.0165035 5.24497 0
M  V30 453 H 40.5106 -1.72669 5.24299 0
M  V30 454 H 40.9876 -2.39275 3.68299 0
M  V30 455 H 41.5936 -0.795475 4.17795 0
M  V30 456 N 39.9087 -1.5758 0.0250728 0
M  V30 457 C 41.1857 -1.82917 -0.692873 0
M  V30 458 C 41.5657 -0.908137 -1.90568 0
M  V30 459 O 40.9137 0.0372298 -2.2847 0
M  V30 460 C 41.1237 -3.32034 -1.07492 0
M  V30 461 C 42.4717 -3.98406 -1.46826 0
M  V30 462 O 43.4957 -3.36505 -1.16801 0
M  V30 463 O 42.3547 -5.07497 -2.02754 0
M  V30 464 H 39.4487 -0.754079 -0.33955 0
M  V30 465 H 41.9947 -1.69619 0.0524456 0
M  V30 466 H 40.7667 -3.90728 -0.211552 0
M  V30 467 H 40.3897 -3.50424 -1.87854 0
M  V30 468 N 41.3868 0.248026 -1.55636 0
M  V30 469 C 42.6118 0.998028 -1.81808 0
M  V30 470 C 43.0368 1.78207 -0.601979 0
M  V30 471 O 42.3948 1.75653 0.448961 0
M  V30 472 C 42.4428 1.9125 -3.05705 0
M  V30 473 O 41.5468 3.00406 -2.82542 0
M  V30 474 H 40.8878 0.284045 -0.600179 0
M  V30 475 H 43.4178 0.269357 -2.02819 0
M  V30 476 H 43.4278 2.32737 -3.35108 0
M  V30 477 H 42.1028 1.33602 -3.93857 0
M  V30 478 H 40.6798 2.63056 -2.64303 0
M  V30 479 N 42.8649 1.48995 0.513639 0
M  V30 480 C 43.8119 1.6473 1.61656 0
M  V30 481 C 44.7819 0.488984 1.58739 0
M  V30 482 O 45.9669 0.714478 1.76918 0
M  V30 483 C 43.1069 1.7082 2.99858 0
M  V30 484 C 42.2199 2.9787 3.12885 0
M  V30 485 C 41.3549 2.95017 4.41744 0
M  V30 486 C 40.3939 4.16702 4.48359 0
M  V30 487 N 39.5309 4.11832 5.68629 0
M  V30 488 H 44.3709 2.58909 1.47547 0
M  V30 489 H 41.9079 1.28382 0.71808 0
M  V30 490 H 43.8659 1.72331 3.79944 0
M  V30 491 H 42.4959 0.801181 3.12699 0
M  V30 492 H 41.5479 3.06029 2.25944 0
M  V30 493 H 42.8599 3.8786 3.13633 0
M  V30 494 H 42.0139 2.95021 5.30139 0
M  V30 495 H 40.7529 2.02784 4.43542 0
M  V30 496 H 39.7579 4.16955 3.58369 0
M  V30 497 H 40.9829 5.10113 4.48287 0
M  V30 498 H 38.9289 3.22428 5.71293 0
M  V30 499 H 38.8459 4.95543 5.7094 0
M  V30 500 H 40.1139 4.1592 6.59266 0
M  V30 501 N 44.343 -0.763751 1.37857 0
M  V30 502 C 45.754 -1.3405 1.29952 0
M  V30 503 C 46.105 -1.96138 -0.0492898 0
M  V30 504 O 45.23 -1.94372 -0.951239 0
M  V30 505 C 45.825 -2.43729 2.35333 0
M  V30 506 C 44.384 -2.97151 2.31037 0
M  V30 507 C 43.531 -1.70438 2.18738 0
M  V30 508 H 46.482 -0.563396 1.48363 0
M  V30 509 H 46.503 -3.23412 2.00462 0
M  V30 510 H 46.015 -1.9851 3.33489 0
M  V30 511 H 44.116 -3.46724 1.3643 0
M  V30 512 H 44.229 -3.52221 3.24772 0
M  V30 513 H 42.593 -1.93673 1.65418 0
M  V30 514 H 43.376 -1.27312 3.18821 0
M  V30 515 N 45.8211 -1.22559 -0.990812 0
M  V30 516 C 47.0701 -1.04553 -1.72486 0
M  V30 517 C 47.3831 0.419349 -1.91052 0
M  V30 518 O 48.5891 0.719121 -2.61803 0
M  V30 519 C 47.0451 -1.82231 -3.10355 0
M  V30 520 C 46.6531 -3.32981 -2.99713 0
M  V30 521 C 48.3971 -1.7268 -3.87791 0
M  V30 522 C 46.3041 -4.03091 -4.32748 0
M  V30 523 H 45.2341 -0.387614 -0.646739 0
M  V30 524 H 47.8851 -1.46429 -1.10593 0
M  V30 525 H 46.2671 -1.33155 -3.72942 0
M  V30 526 H 47.4411 -3.89466 -2.46278 0
M  V30 527 H 45.7561 -3.43231 -2.35758 0
M  V30 528 H 48.3531 -2.22381 -4.86262 0
M  V30 529 H 48.6961 -0.687607 -4.10582 0
M  V30 530 H 49.2291 -2.1931 -3.31885 0
M  V30 531 H 45.9681 -5.07273 -4.15156 0
M  V30 532 H 45.4881 -3.51394 -4.86089 0
M  V30 533 H 47.1671 -4.08804 -5.01486 0
M  V30 534 N 47.2992 1.18797 -1.03562 0
M  V30 535 C 48.5272 1.92599 -0.755869 0
M  V30 536 C 48.9422 1.75886 0.686271 0
M  V30 537 O 48.2992 1.08517 1.46732 0
M  V30 538 C 48.3502 3.44159 -1.10619 0
M  V30 539 O 48.0712 3.60341 -2.4917 0
M  V30 540 C 49.5722 4.3507 -0.850214 0
M  V30 541 H 46.7922 0.611587 -0.276048 0
M  V30 542 H 49.3362 1.50742 -1.38192 0
M  V30 543 H 47.4912 3.83823 -0.525194 0
M  V30 544 H 47.9052 4.54128 -2.62427 0
M  V30 545 H 49.3792 5.39989 -1.14523 0
M  V30 546 H 49.8562 4.38673 0.215176 0
M  V30 547 H 50.4622 4.01097 -1.41426 0
M  V30 548 N 48.7773 0.814389 1.34928 0
M  V30 549 C 49.7243 0.22822 2.29669 0
M  V30 550 C 50.6943 -0.642164 1.53184 0
M  V30 551 O 51.8793 -0.585605 1.81591 0
M  V30 552 C 49.0193 -0.61089 3.3965 0
M  V30 553 C 48.1323 0.280792 4.31086 0
M  V30 554 C 47.2673 -0.567067 5.28165 0
M  V30 555 C 46.3063 0.324531 6.11239 0
M  V30 556 N 45.4433 -0.483756 7.00431 0
M  V30 557 H 50.2833 1.04153 2.79206 0
M  V30 558 H 47.8203 0.525133 1.37407 0
M  V30 559 H 49.7783 -1.11263 4.0209 0
M  V30 560 H 48.4083 -1.38939 2.91369 0
M  V30 561 H 47.4603 0.900688 3.69583 0
M  V30 562 H 48.7723 0.966723 4.89342 0
M  V30 563 H 47.9263 -1.13363 5.96015 0
M  V30 564 H 46.6653 -1.28654 4.70425 0
M  V30 565 H 45.6703 0.903298 5.42329 0
M  V30 566 H 46.8953 1.04198 6.71059 0
M  V30 567 H 44.8413 -1.18706 6.45171 0
M  V30 568 H 44.7583 0.143965 7.55863 0
M  V30 569 H 46.0263 -1.03334 7.7262 0
M  V30 570 N 50.2554 -1.46986 0.568584 0
M  V30 571 C 51.4804 -2.07335 0.0520528 0
M  V30 572 C 51.9054 -1.41675 -1.23733 0
M  V30 573 O 51.2634 -0.495623 -1.74394 0
M  V30 574 C 51.3114 -3.60417 -0.11501 0
M  V30 575 O 50.4154 -3.95309 -1.17492 0
M  V30 576 H 49.7564 -0.661597 0.0564385 0
M  V30 577 H 52.2864 -1.88837 0.787507 0
M  V30 578 H 52.2964 -4.06698 -0.325644 0
M  V30 579 H 50.9714 -4.07601 0.826675 0
M  V30 580 H 49.5484 -3.60757 -0.943869 0
M  V30 581 N 51.7335 -0.305618 -1.54608 0
M  V30 582 C 52.6805 0.568421 -2.23691 0
M  V30 583 C 53.6505 1.12592 -1.22116 0
M  V30 584 O 54.8355 1.16959 -1.50749 0
M  V30 585 C 51.9755 1.7322 -2.98477 0
M  V30 586 C 51.0885 1.20566 -4.14835 0
M  V30 587 C 50.2235 2.33368 -4.77193 0
M  V30 588 C 49.2625 1.7787 -5.85686 0
M  V30 589 N 48.3995 2.84263 -6.4198 0
M  V30 590 H 53.2395 -0.0272867 -2.97988 0
M  V30 591 H 50.7765 -0.0252363 -1.47078 0
M  V30 592 H 52.7345 2.41675 -3.40072 0
M  V30 593 H 51.3645 2.29947 -2.26548 0
M  V30 594 H 50.4165 0.413223 -3.78149 0
M  V30 595 H 51.7285 0.759417 -4.92985 0
M  V30 596 H 50.8825 3.09761 -5.21664 0
M  V30 597 H 49.6215 2.8132 -3.98385 0
M  V30 598 H 48.6265 0.99968 -5.40635 0
M  V30 599 H 49.8515 1.30816 -6.66381 0
M  V30 600 H 47.7975 3.31541 -5.66053 0
M  V30 601 H 47.7145 2.44149 -7.15491 0
M  V30 602 H 48.9825 3.6054 -6.91109 0
M  V30 603 N 53.2116 1.57565 -0.0334293 0
M  V30 604 C 54.4366 1.96689 0.657895 0
M  V30 605 C 54.8616 0.910057 1.64619 0
M  V30 606 O 54.2196 -0.128598 1.80843 0
M  V30 607 C 54.2676 3.34905 1.33683 0
M  V30 608 O 53.3716 3.31574 2.45219 0
M  V30 609 H 52.7126 0.641205 0.172489 0
M  V30 610 H 55.2426 2.04372 -0.0965621 0
M  V30 611 H 55.2526 3.71234 1.69262 0
M  V30 612 H 53.9276 4.11366 0.612411 0
M  V30 613 H 52.5046 3.06968 2.11719 0
M  V30 614 N 54.6897 -0.239769 1.55765 0
M  V30 615 C 55.5997 -1.31831 1.94056 0
M  V30 616 C 56.6157 -1.52275 0.841925 0
M  V30 617 O 57.7917 -1.65759 1.14394 0
M  V30 618 C 54.8567 -2.65156 2.23368 0
M  V30 619 C 53.9177 -2.53173 3.46701 0
M  V30 620 C 53.1507 -3.8014 3.74606 0
M  V30 621 O 53.3737 -4.82343 3.04469 0
M  V30 622 O 52.3077 -3.78344 4.68123 0
M  V30 623 H 56.1337 -1.02347 2.85935 0
M  V30 624 H 53.7187 -0.441123 1.42739 0
M  V30 625 H 55.6007 -3.43929 2.43497 0
M  V30 626 H 54.2757 -2.94358 1.34666 0
M  V30 627 H 53.1827 -1.72662 3.31871 0
M  V30 628 H 54.5157 -2.28915 4.35728 0
M  V30 629 N 56.1678 -1.49265 -0.50573 0
M  V30 630 C 57.1308 -1.65075 -1.59006 0
M  V30 631 C 58.1308 -0.522768 -1.52065 0
M  V30 632 O 59.3208 -0.789117 -1.55302 0
M  V30 633 C 56.4528 -1.64369 -2.98656 0
M  V30 634 H 57.6458 -2.61784 -1.46319 0
M  V30 635 H 55.1988 -1.38226 -0.729616 0
M  V30 636 H 55.9338 -0.692272 -3.16825 0
M  V30 637 H 55.7188 -2.46282 -3.05103 0
M  V30 638 H 57.2088 -1.78674 -3.77446 0
M  V30 639 N 57.6459 0.756429 -1.3826 0
M  V30 640 C 58.5939 1.89149 -1.35372 0
M  V30 641 C 59.5879 1.67691 -0.24004 0
M  V30 642 O 60.7939 1.75294 -0.408919 0
M  V30 643 H 57.1689 0.622271 -0.422236 0
M  V30 644 H 59.1399 1.88701 -2.31159 0
M  V30 645 C 57.8889 3.26599 -1.19284 0
M  V30 646 H 57.2119 3.43695 -2.0424 0
M  V30 647 H 58.6519 4.06274 -1.21316 0
M  V30 648 C 57.1109 3.3675 0.100454 0
M  V30 649 O 57.6409 3.86951 1.07851 0
M  V30 650 N 55.8469 2.90179 0.15633 0
M  V30 651 H 55.3939 2.49517 -0.640253 0
M  V30 652 H 55.3519 2.97352 1.02123 0
M  V30 653 N 59.124 1.23083 0.984299 0
M  V30 654 C 60.054 1.03292 2.09411 0
M  V30 655 C 61.035 -0.048923 1.7003 0
M  V30 656 O 62.22 0.114967 1.93859 0
M  V30 657 C 59.35 0.619155 3.41736 0
M  V30 658 C 58.304 1.64791 3.95004 0
M  V30 659 C 57.63 1.0897 5.23478 0
M  V30 660 C 58.93 3.03999 4.24714 0
M  V30 661 H 60.624 1.96119 2.26225 0
M  V30 662 H 58.17 0.944344 1.08711 0
M  V30 663 H 60.123 0.467777 4.18796 0
M  V30 664 H 58.847 -0.344786 3.24775 0
M  V30 665 H 57.506 1.78721 3.20085 0
M  V30 666 H 57.154 0.11686 5.02864 0
M  V30 667 H 56.854 1.77704 5.60085 0
M  V30 668 H 58.378 0.950093 6.03163 0
M  V30 669 H 59.792 2.93393 4.92538 0
M  V30 670 H 58.189 3.69936 4.72512 0
M  V30 671 H 59.259 3.53285 3.32142 0
M  V30 672 N 60.6021 -1.18246 1.0419 0
M  V30 673 C 61.8511 -1.87588 0.741194 0
M  V30 674 C 62.1641 -1.81303 -0.734066 0
M  V30 675 O 63.3701 -2.46019 -1.14834 0
M  V30 676 C 61.8261 -3.36538 1.27555 0
M  V30 677 C 61.4341 -3.51349 2.77953 0
M  V30 678 C 63.1781 -4.11273 1.05143 0
M  V30 679 C 61.0851 -4.94265 3.2474 0
M  V30 680 H 60.0151 -0.702622 0.273565 0
M  V30 681 H 62.6661 -1.33601 1.25789 0
M  V30 682 H 61.0481 -3.9 0.686703 0
M  V30 683 H 62.2221 -3.08153 3.42605 0
M  V30 684 H 60.5371 -2.90022 2.98791 0
M  V30 685 H 63.1341 -5.16689 1.37611 0
M  V30 686 H 63.4771 -4.16298 -0.0112774 0
M  V30 687 H 64.0101 -3.63987 1.60495 0
M  V30 688 H 60.7491 -4.94408 4.30396 0
M  V30 689 H 60.2691 -5.38172 2.64823 0
M  V30 690 H 61.9481 -5.62987 3.18834 0
M  V30 691 N 62.0802 -0.821533 -1.34494 0
M  V30 692 C 63.4912 -0.467956 -1.8074 0
M  V30 693 C 63.8422 1.01151 -1.68116 0
M  V30 694 O 62.9672 1.78707 -1.22036 0
M  V30 695 C 63.5622 -0.842627 -3.28154 0
M  V30 696 C 62.1212 -0.541439 -3.72485 0
M  V30 697 C 61.2682 -1.06028 -2.56229 0
M  V30 698 H 64.2192 -1.01183 -1.22261 0
M  V30 699 H 64.2402 -0.145876 -3.8022 0
M  V30 700 H 63.7522 -1.91945 -3.37311 0
M  V30 701 H 61.8532 0.526034 -3.68868 0
M  V30 702 H 61.9662 -1.08453 -4.66663 0
M  V30 703 H 60.3302 -0.481892 -2.501 0
M  V30 704 H 61.1132 -2.14352 -2.68157 0
M  V30 705 N 63.5583 1.46682 -0.576371 0
M  V30 706 C 64.7833 2.07304 -0.0630475 0
M  V30 707 C 65.2083 1.42329 1.2298 0
M  V30 708 O 64.5663 0.504865 1.74129 0
M  V30 709 C 64.6143 3.60472 0.095895 0
M  V30 710 O 63.7183 3.95927 1.15394 0
M  V30 711 H 63.0593 0.661288 -0.0599463 0
M  V30 712 H 65.5893 1.88417 -0.797511 0
M  V30 713 H 65.5993 4.06865 0.304071 0
M  V30 714 H 64.2743 4.07157 -0.84828 0
M  V30 715 H 62.8513 3.61252 0.924724 0
M  V30 716 N 65.0364 0.313813 1.54444 0
M  V30 717 C 65.9684 -0.590425 2.21465 0
M  V30 718 C 66.9814 -1.08753 1.21147 0
M  V30 719 O 68.1704 -1.00278 1.4767 0
M  V30 720 C 65.2704 -1.82179 2.85769 0
M  V30 721 C 64.4434 -1.46502 4.12136 0
M  V30 722 C 63.5024 -2.55288 4.60124 0
M  V30 723 O 62.5284 -2.19842 5.25032 0
M  V30 724 N 63.7304 -3.86053 4.33525 0
M  V30 725 H 66.4954 -0.0166033 2.99695 0
M  V30 726 H 64.0564 0.136578 1.61323 0
M  V30 727 H 66.0484 -2.54328 3.14801 0
M  V30 728 H 64.6184 -2.30369 2.11303 0
M  V30 729 H 63.8384 -0.575595 3.89975 0
M  V30 730 H 65.1264 -1.20221 4.94393 0
M  V30 731 H 64.5244 -4.17654 3.81552 0
M  V30 732 H 63.0814 -4.54461 4.67235 0
M  V30 733 N 66.5145 -1.57545 0.0417849 0
M  V30 734 C 67.4245 -2.14451 -0.951213 0
M  V30 735 C 68.4405 -1.09992 -1.34825 0
M  V30 736 O 69.6165 -1.42114 -1.42708 0
M  V30 737 C 66.6815 -2.67063 -2.21084 0
M  V30 738 C 65.7425 -3.86284 -1.87304 0
M  V30 739 C 64.9755 -4.36378 -3.07261 0
M  V30 740 O 65.1985 -3.85587 -4.20332 0
M  V30 741 O 64.1325 -5.28077 -2.88822 0
M  V30 742 H 67.9585 -2.99601 -0.497287 0
M  V30 743 H 65.5435 -1.48317 -0.179567 0
M  V30 744 H 67.4255 -3.00914 -2.95006 0
M  V30 745 H 66.1005 -1.84989 -2.65633 0
M  V30 746 H 65.0075 -3.57338 -1.10727 0
M  V30 747 H 66.3405 -4.6956 -1.47562 0
M  V30 748 N 67.9926 0.231505 -1.5589 0
M  V30 749 C 69.4036 0.799327 -1.68724 0
M  V30 750 C 69.7546 1.85398 -0.642022 0
M  V30 751 O 68.8796 2.1539 0.208784 0
M  V30 752 C 69.4746 1.45664 -3.05888 0
M  V30 753 C 68.0336 1.97197 -3.20609 0
M  V30 754 C 67.1806 0.828552 -2.64632 0
M  V30 755 H 70.1316 0.00702616 -1.58698 0
M  V30 756 H 70.1526 2.32517 -3.01191 0
M  V30 757 H 69.6646 0.688808 -3.81939 0
M  V30 758 H 67.7656 2.76813 -2.4941 0
M  V30 759 H 67.8786 2.15878 -4.27707 0
M  V30 760 H 66.2426 1.23321 -2.22854 0
M  V30 761 H 67.0256 0.0735544 -3.43221 0
M  V30 762 N 69.4707 1.49531 0.497807 0
M  V30 763 C 70.7177 1.59179 1.25173 0
M  V30 764 C 71.0457 0.279932 1.92475 0
M  V30 765 O 70.3007 -0.732383 1.81479 0
M  V30 766 C 70.5997 2.70252 2.33878 0
M  V30 767 C 70.2657 4.11644 1.84012 0
M  V30 768 C 68.9277 4.50121 1.70132 0
M  V30 769 C 71.2797 5.00121 1.46725 0
M  V30 770 C 68.6077 5.74845 1.17348 0
M  V30 771 C 70.9597 6.25366 0.95392 0
M  V30 772 C 69.6237 6.6267 0.801538 0
M  V30 773 H 68.8937 0.582478 0.45804 0
M  V30 774 H 71.5407 1.83373 0.551948 0
M  V30 775 H 69.8457 2.40041 3.09657 0
M  V30 776 H 71.5427 2.74925 2.9192 0
M  V30 777 H 68.1327 3.81274 1.95775 0
M  V30 778 H 72.3167 4.71048 1.56294 0
M  V30 779 H 67.5727 6.02444 1.04264 0
M  V30 780 H 71.7467 6.93301 0.656225 0
M  V30 781 H 69.3737 7.59197 0.390351 0
M  V30 782 N 70.9488 -0.749086 1.3866 0
M  V30 783 C 72.3598 -1.32664 1.31366 0
M  V30 784 C 72.7108 -1.96179 -0.028484 0
M  V30 785 O 71.8358 -1.9537 -0.93057 0
M  V30 786 C 72.4308 -2.41219 2.37905 0
M  V30 787 C 70.9898 -2.94684 2.34176 0
M  V30 788 C 70.1368 -1.68108 2.20533 0
M  V30 789 H 73.0878 -0.547628 1.48952 0
M  V30 790 H 73.1088 -3.21268 2.0388 0
M  V30 791 H 72.6208 -1.94962 3.35576 0
M  V30 792 H 70.7218 -3.45258 1.401 0
M  V30 793 H 70.8348 -3.48757 3.2849 0
M  V30 794 H 69.1988 -1.91907 1.67463 0
M  V30 795 H 69.9818 -1.23923 3.20153 0
M  V30 796 N 72.4269 -1.23603 -0.977757 0
M  V30 797 C 73.3899 -1.02069 -2.05218 0
M  V30 798 C 74.3899 0.0184305 -1.60789 0
M  V30 799 O 75.5799 -0.221569 -1.72785 0
M  V30 800 C 72.7119 -0.544926 -3.36517 0
M  V30 801 H 73.9049 -1.9742 -2.25755 0
M  V30 802 H 71.4579 -1.05684 -1.15155 0
M  V30 803 H 72.1929 0.412241 -3.21669 0
M  V30 804 H 71.9779 -1.2948 -3.70105 0
M  V30 805 H 73.4679 -0.414985 -4.15533 0
M  V30 806 N 73.905 1.17692 -1.04816 0
M  V30 807 C 75.13 1.92327 -0.776207 0
M  V30 808 C 75.555 1.76082 0.661581 0
M  V30 809 O 74.913 1.076 1.45917 0
M  V30 810 C 74.961 3.41539 -1.15687 0
M  V30 811 O 74.065 4.11402 -0.286775 0
M  V30 812 H 73.406 0.599735 -0.284981 0
M  V30 813 H 75.936 1.49201 -1.4 0
M  V30 814 H 75.946 3.92269 -1.12202 0
M  V30 815 H 74.621 3.52684 -2.20425 0
M  V30 816 H 73.198 3.70939 -0.381903 0
M  V30 817 N 75.3831 0.828654 1.34056 0
M  V30 818 C 76.6601 0.341809 1.9259 0
M  V30 819 C 77.0401 -1.17158 1.75605 0
M  V30 820 O 76.3881 -1.98132 1.13824 0
M  V30 821 C 76.5981 0.777453 3.4023 0
M  V30 822 C 77.9461 0.779579 4.17382 0
M  V30 823 O 78.9701 0.7204 3.48839 0
M  V30 824 O 77.8291 0.857996 5.39723 0
M  V30 825 H 74.9231 0.0946085 0.821571 0
M  V30 826 H 77.4691 0.913827 1.42994 0
M  V30 827 H 76.2411 1.8196 3.46419 0
M  V30 828 H 75.8641 0.181444 3.97186 0
M  V30 829 N 76.8612 -1.46375 0.584142 0
M  V30 830 C 77.8092 -2.32042 -0.161047 0
M  V30 831 C 78.8032 -1.44569 -0.882966 0
M  V30 832 O 80.0092 -1.61186 -0.801191 0
M  V30 833 H 76.3842 -0.748659 -0.0708033 0
M  V30 834 H 78.3552 -2.92704 0.580269 0
M  V30 835 C 77.1042 -3.27762 -1.1605 0
M  V30 836 H 76.4272 -3.95051 -0.614419 0
M  V30 837 H 77.8672 -3.90481 -1.65228 0
M  V30 838 C 76.3262 -2.53218 -2.22221 0
M  V30 839 O 76.8562 -2.29628 -3.29597 0
M  V30 840 N 75.0622 -2.13756 -1.96868 0
M  V30 841 H 74.6092 -2.33142 -1.09557 0
M  V30 842 H 74.5672 -1.642 -2.68115 0
M  V30 843 N 78.3393 -0.321999 -1.54275 0
M  V30 844 C 79.5643 0.285791 -2.05422 0
M  V30 845 C 79.9893 1.45124 -1.19669 0
M  V30 846 O 79.3473 1.80132 -0.205441 0
M  V30 847 C 79.3953 0.69956 -3.53749 0
M  V30 848 O 78.4993 1.8021 -3.70942 0
M  V30 849 H 77.8403 0.0518962 -0.661969 0
M  V30 850 H 80.3703 -0.469954 -1.9913 0
M  V30 851 H 80.3803 0.982649 -3.9599 0
M  V30 852 H 79.0553 -0.152864 -4.15619 0
M  V30 853 H 77.6323 1.51794 -3.40607 0
M  V30 854 N 79.8174 1.5752 -0.0501392 0
M  V30 855 C 81.0654 1.9227 0.622642 0
M  V30 856 C 81.3864 0.929083 1.71444 0
M  V30 857 O 80.6564 -0.0262186 1.95882 0
M  V30 858 H 79.2364 0.709739 0.232981 0
M  V30 859 H 81.8984 1.94628 -0.102898 0
M  V30 860 H 80.9944 2.93479 1.06191 0
M  V30 861 N 81.2955 -0.223234 1.56011 0
M  V30 862 C 82.2055 -1.29766 1.95443 0
M  V30 863 C 83.2215 -1.51373 0.858028 0
M  V30 864 O 84.3975 -1.64536 1.16146 0
M  V30 865 C 81.4625 -2.62772 2.26167 0
M  V30 866 C 80.5235 -2.49482 3.49367 0
M  V30 867 C 79.7565 -3.76145 3.78616 0
M  V30 868 O 79.9795 -4.79087 3.09568 0
M  V30 869 O 78.9135 -3.73358 4.72109 0
M  V30 870 H 82.7395 -0.99309 2.87004 0
M  V30 871 H 80.3245 -0.425958 1.43199 0
M  V30 872 H 82.2065 -3.41327 2.47131 0
M  V30 873 H 80.8815 -2.92913 1.37781 0
M  V30 874 H 79.7885 -1.69133 3.33684 0
M  V30 875 H 81.1215 -2.2428 4.38131 0
M  V30 876 N 82.7736 -1.49793 -0.48987 0
M  V30 877 C 84.0016 -1.63568 -1.26701 0
M  V30 878 C 84.4166 -0.311465 -1.86213 0
M  V30 879 O 83.7736 0.704416 -1.68357 0
M  V30 880 C 83.8246 -2.71284 -2.38929 0
M  V30 881 O 83.5456 -3.9857 -1.81861 0
M  V30 882 C 85.0466 -2.95864 -3.3012 0
M  V30 883 H 82.2666 -0.550342 -0.383881 0
M  V30 884 H 84.8106 -1.95898 -0.586864 0
M  V30 885 H 82.9656 -2.417 -3.02753 0
M  V30 886 H 83.3796 -4.57993 -2.55622 0
M  V30 887 H 84.8536 -3.74941 -4.05121 0
M  V30 888 H 85.3306 -2.06206 -3.87783 0
M  V30 889 H 85.9366 -3.26907 -2.72051 0
M  V30 890 N 84.2517 0.741722 -1.39055 0
M  V30 891 C 85.6627 1.31966 -1.32068 0
M  V30 892 C 86.0137 1.96192 0.0180797 0
M  V30 893 O 85.1387 1.95861 0.920196 0
M  V30 894 C 85.7337 2.39954 -2.39181 0
M  V30 895 C 84.2927 2.93438 -2.35735 0
M  V30 896 C 83.4397 1.66936 -2.21422 0
M  V30 897 H 86.3907 0.539721 -1.4924 0
M  V30 898 H 86.4117 3.20182 -2.05581 0
M  V30 899 H 85.9237 1.9318 -3.36605 0
M  V30 900 H 84.0247 3.4451 -1.41929 0
M  V30 901 H 84.1377 3.4701 -3.30335 0
M  V30 902 H 82.5017 1.91016 -1.68478 0
M  V30 903 H 83.2847 1.22224 -3.20806 0
M  V30 904 N 85.7298 1.2412 0.971189 0
M  V30 905 C 86.6618 0.988349 2.06795 0
M  V30 906 C 87.6748 -0.0409541 1.62748 0
M  V30 907 O 88.8638 0.195673 1.77424 0
M  V30 908 C 85.9638 0.469023 3.35639 0
M  V30 909 C 85.1368 1.56065 4.08611 0
M  V30 910 C 84.1958 1.04458 5.15728 0
M  V30 911 O 83.2218 1.73553 5.42096 0
M  V30 912 N 84.4238 -0.122817 5.8037 0
M  V30 913 H 87.1888 1.93265 2.29061 0
M  V30 914 H 84.7498 1.15102 1.13856 0
M  V30 915 H 86.7418 0.108613 4.04554 0
M  V30 916 H 85.3118 -0.380919 3.1027 0
M  V30 917 H 84.5318 2.09341 3.34021 0
M  V30 918 H 85.8198 2.29449 4.54126 0
M  V30 919 H 85.2178 -0.700563 5.61345 0
M  V30 920 H 83.7748 -0.424404 6.50417 0
M  V30 921 N 87.2079 -1.17134 1.05439 0
M  V30 922 C 88.6239 -1.39454 0.776201 0
M  V30 923 C 88.8239 -1.91454 -0.628307 0
M  V30 924 O 87.8799 -2.10777 -1.39031 0
M  V30 925 C 89.1929 -2.38305 1.83388 0
M  V30 926 C 90.7409 -2.52006 1.85639 0
M  V30 927 C 91.2159 -3.54133 2.90437 0
M  V30 928 N 92.7069 -3.61653 2.89415 0
M  V30 929 C 93.4419 -4.4044 3.67152 0
M  V30 930 N 92.9379 -5.22721 4.54681 0
M  V30 931 N 94.7309 -4.35337 3.55581 0
M  V30 932 H 86.8819 -0.817134 1.96053 0
M  V30 933 H 89.1449 -0.421626 0.849079 0
M  V30 934 H 88.8509 -2.07173 2.84204 0
M  V30 935 H 88.7249 -3.37841 1.67761 0
M  V30 936 H 91.1119 -2.82447 0.85486 0
M  V30 937 H 91.1929 -1.52537 2.05344 0
M  V30 938 H 90.8369 -3.24431 3.90777 0
M  V30 939 H 90.7669 -4.53313 2.67983 0
M  V30 940 H 93.2579 -3.02909 2.25952 0
M  V30 941 H 93.5709 -5.80027 5.10674 0
M  V30 942 H 91.9159 -5.22093 4.58741 0
M  V30 943 H 95.1069 -3.70112 2.86592 0
M  V30 944 H 95.2799 -4.96494 4.1641 0
M  V30 945 N 88.686 -0.835752 -1.33615 0
M  V30 946 C 89.634 -0.255238 -2.31195 0
M  V30 947 C 90.628 0.61107 -1.57995 0
M  V30 948 O 91.834 0.500979 -1.72888 0
M  V30 949 H 88.209 -0.0638085 -0.749288 0
M  V30 950 H 90.18 -1.09283 -2.77669 0
M  V30 951 C 88.929 0.55754 -3.43201 0
M  V30 952 H 88.252 -0.0997553 -3.99676 0
M  V30 953 H 89.692 0.929622 -4.13683 0
M  V30 954 C 88.151 1.73515 -2.88781 0
M  V30 955 O 88.681 2.83376 -2.84712 0
M  V30 956 N 86.887 1.55603 -2.4543 0
M  V30 957 H 86.434 0.662354 -2.48939 0
M  V30 958 H 86.392 2.34545 -2.09371 0
M  V30 959 N 90.1641 1.46063 -0.591896 0
M  V30 960 C 91.4121 2.01938 -0.0808391 0
M  V30 961 C 91.7331 1.46475 1.28725 0
M  V30 962 O 91.0031 0.652944 1.84698 0
M  V30 963 H 89.5831 0.746516 -0.0268938 0
M  V30 964 H 92.2451 1.79055 -0.769752 0
M  V30 965 H 91.3411 3.12094 -0.0187578 0
M  V30 966 N 91.6422 0.330177 1.54103 0
M  V30 967 C 92.5522 -0.541534 2.28264 0
M  V30 968 C 93.5682 -1.12351 1.32866 0
M  V30 969 O 94.7442 -1.14206 1.65888 0
M  V30 970 C 91.8092 -1.68322 3.03098 0
M  V30 971 C 90.8702 -1.13238 4.14096 0
M  V30 972 C 90.1032 -2.21966 4.85352 0
M  V30 973 O 90.3262 -3.42437 4.56172 0
M  V30 974 O 89.2602 -1.87013 5.7211 0
M  V30 975 H 93.0862 0.060938 3.03639 0
M  V30 976 H 90.6712 0.09565 1.49093 0
M  V30 977 H 92.5532 -2.34777 3.49939 0
M  V30 978 H 91.2282 -2.27176 2.30593 0
M  V30 979 H 90.1352 -0.432736 3.71589 0
M  V30 980 H 91.4682 -0.588898 4.88664 0
M  V30 981 N 93.1203 -1.57491 0.0584922 0
M  V30 982 C 94.3683 -1.92597 -0.612436 0
M  V30 983 C 94.6893 -0.938162 -1.70949 0
M  V30 984 O 93.9593 0.0158301 -1.95894 0
M  V30 985 H 92.5393 -0.710964 -0.229214 0
M  V30 986 H 95.2013 -1.94571 0.113218 0
M  V30 987 H 94.2973 -2.94038 -1.04633 0
M  V30 988 N 94.5984 0.214957 -1.56127 0
M  V30 989 C 95.5484 1.27006 -1.8935 0
M  V30 990 C 96.5324 1.41969 -0.757202 0
M  V30 991 O 97.7244 1.44673 -1.01973 0
M  V30 992 C 94.8534 2.61911 -2.2194 0
M  V30 993 C 93.9394 2.50822 -3.41978 0
M  V30 994 N 94.3304 2.09391 -4.60423 0
M  V30 995 C 92.6284 2.81765 -3.45723 0
M  V30 996 C 93.3294 2.09712 -5.42582 0
M  V30 997 N 92.3054 2.50454 -4.82466 0
M  V30 998 H 96.1074 0.940734 -2.78437 0
M  V30 999 H 93.6214 0.423492 -1.56781 0
M  V30 1000 H 95.6184 3.38096 -2.43919 0
M  V30 1001 H 94.2784 2.95684 -1.34169 0
M  V30 1002 H 95.2894 1.80416 -4.85459 0
M  V30 1003 H 91.9664 3.19865 -2.68314 0
M  V30 1004 H 93.3564 1.79748 -6.4741 0
M  V30 1005 N 96.0765 1.50051 0.48192 0
M  V30 1006 C 97.3045 1.64237 1.25832 0
M  V30 1007 C 97.7195 0.321336 1.86045 0
M  V30 1008 O 97.0765 -0.695478 1.68729 0
M  V30 1009 C 97.1275 2.72548 2.37487 0
M  V30 1010 O 96.8485 3.99529 1.79745 0
M  V30 1011 C 98.3495 2.9761 3.28547 0
M  V30 1012 H 95.5695 0.55237 0.380957 0
M  V30 1013 H 98.1135 1.96207 0.576467 0
M  V30 1014 H 96.2685 2.43303 3.01467 0
M  V30 1015 H 96.6825 4.59342 2.5319 0
M  V30 1016 H 98.1565 3.77084 4.03127 0
M  V30 1017 H 98.6335 2.0826 3.86684 0
M  V30 1018 H 99.2395 3.28345 2.70314 0
M  V30 1019 N 97.5546 -0.734337 1.39446 0
M  V30 1020 C 98.4846 -1.86155 1.40955 0
M  V30 1021 C 99.4656 -1.67898 0.272827 0
M  V30 1022 O 100.651 -1.88207 0.478743 0
M  V30 1023 C 97.7806 -3.23912 1.25294 0
M  V30 1024 C 96.7346 -3.56808 2.36373 0
M  V30 1025 C 96.0606 -4.93508 2.058 0
M  V30 1026 C 97.3606 -3.59713 3.78687 0
M  V30 1027 H 99.0546 -1.8515 2.35287 0
M  V30 1028 H 96.6006 -0.889367 1.13253 0
M  V30 1029 H 98.5536 -4.02443 1.2497 0
M  V30 1030 H 97.2776 -3.25446 0.274308 0
M  V30 1031 H 95.9366 -2.80606 2.35914 0
M  V30 1032 H 95.5846 -4.91623 1.06374 0
M  V30 1033 H 95.2846 -5.16486 2.80208 0
M  V30 1034 H 96.8086 -5.74396 2.07128 0
M  V30 1035 H 98.2226 -4.2832 3.81071 0
M  V30 1036 H 96.6196 -3.94209 4.52459 0
M  V30 1037 H 97.6896 -2.59504 4.09617 0
M  V30 1038 N 99.0327 -1.24633 -0.964593 0
M  V30 1039 C 100.444 -1.08045 -1.5226 0
M  V30 1040 C 100.795 0.347116 -1.93105 0
M  V30 1041 O 99.9197 1.23588 -1.77637 0
M  V30 1042 C 100.515 -1.95514 -2.76695 0
M  V30 1043 C 99.0737 -1.8314 -3.28841 0
M  V30 1044 C 98.2207 -1.90262 -2.01732 0
M  V30 1045 H 101.172 -1.38064 -0.782553 0
M  V30 1046 H 101.193 -1.48925 -3.50145 0
M  V30 1047 H 100.705 -2.99407 -2.46936 0
M  V30 1048 H 98.8057 -0.82092 -3.63444 0
M  V30 1049 H 98.9187 -2.67406 -3.97531 0
M  V30 1050 H 97.2827 -1.34027 -2.16584 0
M  V30 1051 H 98.0657 -2.9574 -1.74334 0
M  V30 1052 N 100.511 1.16574 -1.06058 0
M  V30 1053 C 101.458 2.20883 -0.669263 0
M  V30 1054 C 102.428 1.62729 0.332918 0
M  V30 1055 O 103.613 1.895 0.222346 0
M  V30 1056 C 100.753 3.45049 -0.0593572 0
M  V30 1057 C 99.8658 4.17458 -1.11143 0
M  V30 1058 C 99.0008 5.29135 -0.467916 0
M  V30 1059 C 98.0398 5.93343 -1.50369 0
M  V30 1060 N 97.1768 6.96516 -0.883706 0
M  V30 1061 H 102.017 2.53709 -1.5632 0
M  V30 1062 H 99.5538 1.24616 -0.781625 0
M  V30 1063 H 101.512 4.16033 0.311771 0
M  V30 1064 H 100.142 3.12781 0.797992 0
M  V30 1065 H 99.1938 3.45101 -1.60029 0
M  V30 1066 H 100.506 4.61307 -1.89731 0
M  V30 1067 H 99.6598 6.06684 -0.0436871 0
M  V30 1068 H 98.3988 4.86443 0.349864 0
M  V30 1069 H 97.4038 5.14517 -1.93784 0
M  V30 1070 H 98.6288 6.38114 -2.32352 0
M  V30 1071 H 96.5748 6.55943 -0.086595 0
M  V30 1072 H 96.4918 7.38723 -1.607 0
M  V30 1073 H 97.7598 7.77993 -0.484543 0
M  V30 1074 N 101.989 0.842826 1.3317 0
M  V30 1075 C 103.217 0.454055 2.01856 0
M  V30 1076 C 103.632 -0.94587 1.63397 0
M  V30 1077 O 102.989 -1.61534 0.849302 0
M  V30 1078 C 103.04 0.569715 3.56982 0
M  V30 1079 O 102.761 1.91448 3.94055 0
M  V30 1080 C 104.262 0.178412 4.42941 0
M  V30 1081 H 101.482 0.17979 0.646465 0
M  V30 1082 H 104.026 1.1365 1.70012 0
M  V30 1083 H 102.181 -0.0648587 3.87346 0
M  V30 1084 H 102.595 1.90282 4.88767 0
M  V30 1085 H 104.069 0.310376 5.51127 0
M  V30 1086 H 104.546 -0.880056 4.30293 0
M  V30 1087 H 105.152 0.787579 4.17944 0
M  V30 1088 N 103.467 -1.45747 0.599634 0
M  V30 1089 C 104.878 -1.85853 0.177681 0
M  V30 1090 C 105.229 -1.50102 -1.26348 0
M  V30 1091 O 104.354 -0.923905 -1.95686 0
M  V30 1092 C 104.949 -3.37326 0.315688 0
M  V30 1093 C 103.508 -3.76365 -0.0515144 0
M  V30 1094 C 102.655 -2.69722 0.643822 0
M  V30 1095 H 105.606 -1.36661 0.806814 0
M  V30 1096 H 105.627 -3.77778 -0.454321 0
M  V30 1097 H 105.139 -3.63315 1.36468 0
M  V30 1098 H 103.24 -3.55993 -1.09999 0
M  V30 1099 H 103.353 -4.77916 0.336594 0
M  V30 1100 H 101.717 -2.54567 0.0822881 0
M  V30 1101 H 102.5 -2.98549 1.6948 0
M  V30 1102 N 104.945 -0.338344 -1.53925 0
M  V30 1103 C 106.17 0.263987 -2.05713 0
M  V30 1104 C 106.595 1.43847 -1.21201 0
M  V30 1105 O 105.953 1.79904 -0.224535 0
M  V30 1106 C 106.001 0.662 -3.54471 0
M  V30 1107 O 105.105 1.76265 -3.72833 0
M  V30 1108 H 104.446 0.0448722 -0.662482 0
M  V30 1109 H 106.976 -0.491048 -1.9862 0
M  V30 1110 H 106.986 0.940594 -3.9701 0
M  V30 1111 H 105.661 -0.196937 -4.15433 0
M  V30 1112 H 104.238 1.48173 -3.42198 0
M  V30 1113 N 106.423 1.57458 -0.0668435 0
M  V30 1114 C 107.355 2.09413 0.931601 0
M  V30 1115 C 108.368 1.02522 1.26464 0
M  V30 1116 O 109.557 1.30049 1.22269 0
M  V30 1117 C 106.657 2.53537 2.24882 0
M  V30 1118 C 105.83 3.83944 2.09537 0
M  V30 1119 C 104.889 4.14214 3.2452 0
M  V30 1120 O 103.915 4.83891 2.9973 0
M  V30 1121 N 105.117 3.67367 4.49469 0
M  V30 1122 H 107.882 2.95699 0.488048 0
M  V30 1123 H 105.443 1.61462 0.119009 0
M  V30 1124 H 107.435 2.70853 3.00701 0
M  V30 1125 H 106.005 1.72415 2.60753 0
M  V30 1126 H 105.225 3.76057 1.18215 0
M  V30 1127 H 106.513 4.69312 1.96529 0
M  V30 1128 H 105.911 3.11068 4.72497 0
M  V30 1129 H 104.468 3.89891 5.2233 0
M  V30 1130 N 107.901 -0.206675 1.56239 0
M  V30 1131 C 108.864 -1.23976 1.92776 0
M  V30 1132 C 109.864 -1.39041 0.807729 0
M  V30 1133 O 111.054 -1.37051 1.0753 0
M  V30 1134 C 108.186 -2.61112 2.19165 0
M  V30 1135 H 109.379 -0.927764 2.85189 0
M  V30 1136 H 106.932 -0.447718 1.4975 0
M  V30 1137 H 107.667 -2.97386 1.29352 0
M  V30 1138 H 107.452 -2.51552 3.00772 0
M  V30 1139 H 108.942 -3.35633 2.48476 0
M  V30 1140 N 109.379 -1.50304 -0.473955 0
M  V30 1141 C 110.289 -1.7174 -1.5982 0
M  V30 1142 C 111.305 -0.600457 -1.63311 0
M  V30 1143 O 112.481 -0.878441 -1.81233 0
M  V30 1144 C 109.546 -1.80427 -2.96052 0
M  V30 1145 C 108.607 -3.04148 -3.02972 0
M  V30 1146 C 107.84 -3.12411 -4.32706 0
M  V30 1147 O 108.063 -2.27542 -5.23049 0
M  V30 1148 O 106.997 -4.05113 -4.45159 0
M  V30 1149 H 110.823 -2.67035 -1.44657 0
M  V30 1150 H 108.408 -1.34366 -0.653148 0
M  V30 1151 H 110.29 -1.88338 -3.7697 0
M  V30 1152 H 108.965 -0.883156 -3.11419 0
M  V30 1153 H 107.872 -3.0174 -2.21142 0
M  V30 1154 H 109.205 -3.95829 -2.92541 0
M  V30 1155 N 110.857 0.726932 -1.39834 0
M  V30 1156 C 112.268 1.30558 -1.3346 0
M  V30 1157 C 112.619 1.962 -0.00273003 0
M  V30 1158 O 111.744 1.96826 0.899371 0
M  V30 1159 C 112.339 2.37404 -2.41713 0
M  V30 1160 C 110.898 2.90921 -2.38835 0
M  V30 1161 C 110.045 1.64578 -2.2318 0
M  V30 1162 H 112.996 0.523862 -1.49804 0
M  V30 1163 H 113.017 3.17984 -2.08966 0
M  V30 1164 H 112.529 1.89599 -3.38635 0
M  V30 1165 H 110.63 3.42985 -1.45575 0
M  V30 1166 H 110.743 3.43487 -3.33997 0
M  V30 1167 H 109.107 1.89219 -1.70494 0
M  V30 1168 H 109.89 1.18814 -3.22084 0
M  V30 1169 N 112.336 1.25143 0.95797 0
M  V30 1170 C 113.299 1.05321 2.03569 0
M  V30 1171 C 114.299 0.007152 1.60798 0
M  V30 1172 O 115.489 0.24903 1.72411 0
M  V30 1173 C 112.621 0.598394 3.35607 0
M  V30 1174 H 113.814 2.00986 2.22586 0
M  V30 1175 H 111.367 1.07502 1.13459 0
M  V30 1176 H 112.102 -0.361014 3.22284 0
M  V30 1177 H 111.887 1.35351 3.67998 0
M  V30 1178 H 113.377 0.48104 4.1482 0
M  V30 1179 N 113.814 -1.1601 1.06675 0
M  V30 1180 C 115.039 -1.91068 0.806706 0
M  V30 1181 C 115.464 -1.77112 -0.633485 0
M  V30 1182 O 114.822 -1.09908 -1.44187 0
M  V30 1183 C 114.87 -3.39655 1.21106 0
M  V30 1184 O 113.974 -4.10893 0.352189 0
M  V30 1185 H 113.315 -0.595125 0.294486 0
M  V30 1186 H 115.845 -1.46955 1.42356 0
M  V30 1187 H 115.855 -3.90434 1.18428 0
M  V30 1188 H 114.53 -3.49132 2.26008 0
M  V30 1189 H 113.107 -3.70285 0.440868 0
M  V30 1190 N 115.292 -0.849877 -1.32721 0
M  V30 1191 C 116.242 -0.262892 -2.26479 0
M  V30 1192 C 117.226 0.588493 -1.49752 0
M  V30 1193 O 118.418 0.438659 -1.71478 0
M  V30 1194 C 115.547 0.551818 -3.38836 0
M  V30 1195 C 114.633 -0.311689 -4.22953 0
M  V30 1196 N 115.024 -1.39567 -4.86163 0
M  V30 1197 C 113.322 -0.100611 -4.45887 0
M  V30 1198 C 114.023 -1.92651 -5.48872 0
M  V30 1199 N 112.999 -1.22637 -5.29586 0
M  V30 1200 H 116.801 -1.09166 -2.72873 0
M  V30 1201 H 114.315 -0.695486 -1.46754 0
M  V30 1202 H 116.312 0.988713 -4.05006 0
M  V30 1203 H 114.972 1.37844 -2.93988 0
M  V30 1204 H 115.983 -1.77859 -4.86402 0
M  V30 1205 H 112.66 0.691681 -4.11731 0
M  V30 1206 H 114.05 -2.83487 -6.09167 0
M  V30 1207 N 116.77 1.45427 -0.607355 0
M  V30 1208 C 117.717 2.3053 0.111625 0
M  V30 1209 C 118.687 1.4209 0.860216 0
M  V30 1210 O 119.872 1.71019 0.845998 0
M  V30 1211 C 117.012 3.26992 1.10319 0
M  V30 1212 C 116.125 4.30535 0.355493 0
M  V30 1213 C 115.26 5.14105 1.33676 0
M  V30 1214 C 114.299 6.09376 0.576862 0
M  V30 1215 N 113.436 6.85727 1.5074 0
M  V30 1216 H 118.276 2.91477 -0.620093 0
M  V30 1217 H 115.813 1.43631 -0.317594 0
M  V30 1218 H 117.771 3.81385 1.6912 0
M  V30 1219 H 116.401 2.67799 1.80232 0
M  V30 1220 H 115.453 3.78805 -0.348023 0
M  V30 1221 H 116.765 4.98235 -0.237423 0
M  V30 1222 H 115.919 5.72897 1.99684 0
M  V30 1223 H 114.658 4.46423 1.9636 0
M  V30 1224 H 113.663 5.49715 -0.0968519 0
M  V30 1225 H 114.888 6.79085 -0.0449341 0
M  V30 1226 H 112.834 6.20735 2.12189 0
M  V30 1227 H 112.751 7.49778 0.967913 0
M  V30 1228 H 114.019 7.4906 2.15706 0
M  V30 1229 N 118.248 0.346503 1.53744 0
M  V30 1230 C 119.496 -0.248612 2.00565 0
M  V30 1231 C 119.817 -1.5083 1.23593 0
M  V30 1232 O 119.087 -1.92858 0.343912 0
M  V30 1233 H 117.667 -0.0948564 0.740953 0
M  V30 1234 H 120.329 0.468341 1.89189 0
M  V30 1235 H 119.425 -0.488994 3.08245 0
M  V30 1236 N 119.726 -1.57421 0.075193 0
M  V30 1237 C 121.137 -1.81021 -0.456964 0
M  V30 1238 C 121.488 -0.98936 -1.69429 0
M  V30 1239 O 120.613 -0.212865 -2.15351 0
M  V30 1240 C 121.208 -3.28329 -0.83581 0
M  V30 1241 C 119.767 -3.52764 -1.31281 0
M  V30 1242 C 118.914 -2.75676 -0.299648 0
M  V30 1243 H 121.865 -1.55822 0.300856 0
M  V30 1244 H 121.886 -3.40564 -1.69696 0
M  V30 1245 H 121.398 -3.88046 0.0649238 0
M  V30 1246 H 119.499 -2.98355 -2.23193 0
M  V30 1247 H 119.612 -4.61451 -1.28839 0
M  V30 1248 H 117.976 -2.42538 -0.777641 0
M  V30 1249 H 118.759 -3.38132 0.593417 0
M  V30 1250 N 121.204 0.198386 -1.56346 0
M  V30 1251 C 122.151 1.24589 -1.94284 0
M  V30 1252 C 123.121 1.454 -0.802997 0
M  V30 1253 O 124.306 1.58588 -1.06087 0
M  V30 1254 C 121.446 2.58631 -2.28482 0
M  V30 1255 C 120.559 2.45426 -3.55514 0
M  V30 1256 C 119.694 3.7215 -3.79049 0
M  V30 1257 C 118.733 3.53763 -4.99518 0
M  V30 1258 N 117.87 4.72491 -5.19323 0
M  V30 1259 H 122.71 0.915356 -2.83593 0
M  V30 1260 H 120.247 0.440629 -1.40346 0
M  V30 1261 H 122.205 3.3672 -2.46324 0
M  V30 1262 H 120.835 2.89734 -1.42317 0
M  V30 1263 H 119.887 1.58652 -3.45737 0
M  V30 1264 H 121.199 2.27772 -4.43758 0
M  V30 1265 H 120.353 4.58679 -3.97113 0
M  V30 1266 H 119.092 3.92754 -2.89129 0
M  V30 1267 H 118.097 2.65619 -4.8138 0
M  V30 1268 H 119.322 3.34607 -5.90944 0
M  V30 1269 H 117.268 4.93365 -4.3235 0
M  V30 1270 H 117.185 4.5765 -6.01741 0
M  V30 1271 H 118.453 5.6038 -5.41843 0
M  V30 1272 N 122.682 1.50554 0.465978 0
M  V30 1273 C 123.959 1.5232 1.22712 0
M  V30 1274 C 124.339 0.270807 2.09356 0
M  V30 1275 O 123.687 -0.745541 2.15995 0
M  V30 1276 C 123.897 2.82175 2.05374 0
M  V30 1277 C 125.245 3.33033 2.6339 0
M  V30 1278 O 126.269 2.83531 2.15612 0
M  V30 1279 O 125.128 4.19336 3.50456 0
M  V30 1280 H 122.222 0.611183 0.557122 0
M  V30 1281 H 124.768 1.62847 0.477381 0
M  V30 1282 H 123.54 3.64797 1.41558 0
M  V30 1283 H 123.163 2.74675 2.87471 0
M  V30 1284 N 124.16 -0.719506 1.40217 0
M  V30 1285 C 125.123 -1.8153 1.39927 0
M  V30 1286 C 126.123 -1.58095 0.293723 0
M  V30 1287 O 127.313 -1.65209 0.552429 0
M  V30 1288 C 124.445 -3.19561 1.18716 0
M  V30 1289 H 125.638 -1.83186 2.37451 0
M  V30 1290 H 123.191 -0.924746 1.26008 0
M  V30 1291 H 123.926 -3.23557 0.219366 0
M  V30 1292 H 123.711 -3.3797 1.98793 0
M  V30 1293 H 125.201 -3.99598 1.21291 0
M  V30 1294 N 125.638 -1.25649 -0.95132 0
M  V30 1295 C 126.886 -1.10375 -1.69298 0
M  V30 1296 C 127.207 0.355339 -1.91735 0
M  V30 1297 O 126.477 1.25188 -1.50681 0
M  V30 1298 H 125.057 -0.405461 -0.627384 0
M  V30 1299 H 127.719 -1.57823 -1.14358 0
M  V30 1300 H 126.815 -1.61465 -2.67087 0
M  V30 1301 N 127.117 1.15442 -1.07289 0
M  V30 1302 C 128.533 1.38201 -0.798288 0
M  V30 1303 C 128.733 1.92429 0.597769 0
M  V30 1304 O 127.789 2.12962 1.3566 0
M  V30 1305 C 129.102 2.35357 -1.87156 0
M  V30 1306 C 130.65 2.49021 -1.89624 0
M  V30 1307 C 131.125 3.49468 -2.96034 0
M  V30 1308 N 132.616 3.57003 -2.95132 0
M  V30 1309 C 133.351 4.34543 -3.74112 0
M  V30 1310 N 132.847 5.15421 -4.6294 0
M  V30 1311 N 134.64 4.29625 -3.62462 0
M  V30 1312 H 126.791 0.78584 -1.97328 0
M  V30 1313 H 129.054 0.408065 -0.855679 0
M  V30 1314 H 128.76 2.02626 -2.87464 0
M  V30 1315 H 128.634 3.35129 -1.73114 0
M  V30 1316 H 131.021 2.81051 -0.899687 0
M  V30 1317 H 131.102 1.4925 -2.07745 0
M  V30 1318 H 130.746 3.18173 -3.95889 0
M  V30 1319 H 130.676 4.48992 -2.75161 0
M  V30 1320 H 133.167 2.99276 -2.30743 0
M  V30 1321 H 133.48 5.7183 -5.19837 0
M  V30 1322 H 131.825 5.14729 -4.66989 0
M  V30 1323 H 135.016 3.65505 -2.92444 0
M  V30 1324 H 135.189 4.89807 -4.24256 0
M  V30 1325 N 128.595 0.856903 1.32268 0
M  V30 1326 C 130.011 0.547061 1.49931 0
M  V30 1327 C 130.211 -0.921781 1.7918 0
M  V30 1328 O 129.267 -1.70469 1.8627 0
M  V30 1329 C 130.58 1.43599 2.64196 0
M  V30 1330 C 132.128 1.43665 2.78081 0
M  V30 1331 C 132.603 2.31085 3.95428 0
M  V30 1332 N 134.094 2.28893 4.02694 0
M  V30 1333 C 134.829 2.93262 4.92732 0
M  V30 1334 N 134.325 3.66751 5.87763 0
M  V30 1335 N 136.118 2.82638 4.85873 0
M  V30 1336 H 128.269 1.8075 1.11549 0
M  V30 1337 H 130.532 0.772144 0.549997 0
M  V30 1338 H 130.238 2.48058 2.49319 0
M  V30 1339 H 130.112 1.12502 3.60032 0
M  V30 1340 H 132.499 0.399701 2.92381 0
M  V30 1341 H 132.58 1.7878 1.82952 0
M  V30 1342 H 132.224 3.34849 3.81888 0
M  V30 1343 H 132.154 1.93302 4.89839 0
M  V30 1344 H 134.645 1.75466 3.34694 0
M  V30 1345 H 134.958 4.13027 6.53168 0
M  V30 1346 H 133.303 3.70859 5.87783 0
M  V30 1347 H 136.494 2.24774 4.10602 0
M  V30 1348 H 136.667 3.33084 5.55841 0
M  V30 1349 N 130.073 -1.45103 0.615059 0
M  V30 1350 C 131.489 -1.57137 0.279322 0
M  V30 1351 C 131.689 -1.60523 -1.21797 0
M  V30 1352 O 130.745 -1.53956 -2.00134 0
M  V30 1353 C 132.058 -2.85062 0.957083 0
M  V30 1354 C 133.606 -2.98749 0.933706 0
M  V30 1355 C 134.081 -4.29455 1.59162 0
M  V30 1356 N 135.572 -4.36231 1.55746 0
M  V30 1357 C 136.307 -5.36051 2.0356 0
M  V30 1358 N 135.803 -6.42367 2.59494 0
M  V30 1359 N 137.596 -5.27456 1.94284 0
M  V30 1360 H 129.747 -1.41148 1.58717 0
M  V30 1361 H 132.01 -0.675331 0.665306 0
M  V30 1362 H 131.716 -2.88488 2.01166 0
M  V30 1363 H 131.59 -3.7407 0.48494 0
M  V30 1364 H 133.977 -2.94886 -0.112347 0
M  V30 1365 H 134.058 -2.11132 1.44419 0
M  V30 1366 H 133.702 -4.34077 2.63704 0
M  V30 1367 H 133.632 -5.15901 1.0561 0
M  V30 1368 H 136.123 -3.60011 1.14893 0
M  V30 1369 H 136.436 -7.14793 2.93752 0
M  V30 1370 H 134.781 -6.43097 2.63537 0
M  V30 1371 H 137.972 -4.43308 1.5032 0
M  V30 1372 H 138.145 -6.05099 2.3186 0
M  V30 1373 N 131.551 -0.354651 -1.53558 0
M  V30 1374 C 132.499 0.512195 -2.26891 0
M  V30 1375 C 133.493 1.09263 -1.29452 0
M  V30 1376 O 134.699 1.03709 -1.47121 0
M  V30 1377 H 131.074 0.183878 -0.729173 0
M  V30 1378 H 133.045 -0.128202 -2.98124 0
M  V30 1379 C 131.794 1.64563 -3.06291 0
M  V30 1380 H 131.117 1.20829 -3.81104 0
M  V30 1381 H 132.557 2.22711 -3.60799 0
M  V30 1382 C 131.016 2.58158 -2.16462 0
M  V30 1383 O 131.546 3.60695 -1.76811 0
M  V30 1384 N 129.752 2.27096 -1.81317 0
M  V30 1385 H 129.299 1.43751 -2.1376 0
M  V30 1386 H 129.257 2.89975 -1.21498 0
M  V30 1387 N 133.029 1.57378 -0.0835403 0
M  V30 1388 C 134.254 1.98682 0.594987 0
M  V30 1389 C 134.679 0.961969 1.61641 0
M  V30 1390 O 134.037 -0.0709989 1.81161 0
M  V30 1391 C 134.085 3.38988 1.2296 0
M  V30 1392 O 133.189 3.39208 2.34546 0
M  V30 1393 H 132.53 0.646368 0.152002 0
M  V30 1394 H 135.06 2.03961 -0.161533 0
M  V30 1395 H 135.07 3.76431 1.57366 0
M  V30 1396 H 133.745 4.13107 0.481228 0
M  V30 1397 H 132.322 3.13548 2.01846 0
M  V30 1398 N 134.507 -0.190092 1.56449 0
M  V30 1399 C 135.437 -1.23816 1.97969 0
M  V30 1400 C 136.418 -1.47201 0.852395 0
M  V30 1401 O 137.603 -1.58854 1.1171 0
M  V30 1402 C 134.733 -2.5813 2.3235 0
M  V30 1403 C 133.687 -2.49348 3.47864 0
M  V30 1404 C 133.013 -3.8798 3.67934 0
M  V30 1405 C 134.313 -2.01424 4.81898 0
M  V30 1406 H 136.007 -0.89311 2.85769 0
M  V30 1407 H 133.553 -0.428177 1.37487 0
M  V30 1408 H 135.506 -3.31637 2.59991 0
M  V30 1409 H 134.23 -2.94386 1.41438 0
M  V30 1410 H 132.889 -1.78297 3.20321 0
M  V30 1411 H 132.537 -4.21597 2.74344 0
M  V30 1412 H 132.237 -3.82978 4.45648 0
M  V30 1413 H 133.761 -4.63101 3.97957 0
M  V30 1414 H 135.175 -2.64693 5.08538 0
M  V30 1415 H 133.572 -2.07413 5.63116 0
M  V30 1416 H 134.642 -0.967677 4.75146 0
M  V30 1417 N 135.985 -1.50799 -0.457987 0
M  V30 1418 C 137.396 -1.55152 -1.0385 0
M  V30 1419 C 137.747 -0.362719 -1.92818 0
M  V30 1420 O 136.872 0.522915 -2.09987 0
M  V30 1421 C 137.467 -2.81173 -1.89017 0
M  V30 1422 C 136.026 -2.88164 -2.42154 0
M  V30 1423 C 135.173 -2.49591 -1.20829 0
M  V30 1424 H 138.124 -1.56874 -0.240068 0
M  V30 1425 H 138.145 -2.63769 -2.74238 0
M  V30 1426 H 137.657 -3.67677 -1.24238 0
M  V30 1427 H 135.758 -2.06042 -3.10447 0
M  V30 1428 H 135.871 -3.91356 -2.76364 0
M  V30 1429 H 134.235 -2.02322 -1.54719 0
M  V30 1430 H 135.018 -3.38418 -0.576927 0
M  V30 1431 N 137.463 0.71206 -1.40597 0
M  V30 1432 C 138.874 1.29135 -1.34837 0
M  V30 1433 C 139.225 1.96186 -0.0235395 0
M  V30 1434 O 138.35 1.97768 0.878444 0
M  V30 1435 C 138.945 2.34827 -2.44217 0
M  V30 1436 C 137.504 2.88371 -2.41907 0
M  V30 1437 C 136.651 1.62202 -2.24913 0
M  V30 1438 H 139.602 0.507944 -1.50352 0
M  V30 1439 H 139.623 3.15749 -2.12327 0
M  V30 1440 H 139.135 1.85996 -3.40627 0
M  V30 1441 H 137.236 3.41422 -1.49204 0
M  V30 1442 H 137.349 3.39925 -3.37621 0
M  V30 1443 H 135.713 1.874 -1.72492 0
M  V30 1444 H 136.496 1.15391 -3.23326 0
M  V30 1445 N 138.941 1.26152 0.944643 0
M  V30 1446 C 140.166 1.14363 1.7302 0
M  V30 1447 C 140.591 -0.29772 1.85729 0
M  V30 1448 O 139.949 -1.2157 1.34501 0
M  V30 1449 C 139.997 1.81378 3.11664 0
M  V30 1450 O 139.101 1.10022 3.97453 0
M  V30 1451 H 138.442 0.398694 0.53098 0
M  V30 1452 H 140.972 1.66906 1.18337 0
M  V30 1453 H 140.982 1.88064 3.62072 0
M  V30 1454 H 139.657 2.86237 3.0173 0
M  V30 1455 H 138.234 1.11287 3.55907 0
M  V30 1456 N 140.419 -1.14872 1.07899 0
M  V30 1457 C 141.369 -2.17809 0.674027 0
M  V30 1458 C 142.353 -1.58008 -0.303699 0
M  V30 1459 O 143.545 -1.76616 -0.11654 0
M  V30 1460 C 140.674 -3.43208 0.0793318 0
M  V30 1461 C 139.76 -4.10051 1.08253 0
M  V30 1462 N 140.151 -4.52296 2.2641 0
M  V30 1463 C 138.449 -4.36469 0.917124 0
M  V30 1464 C 139.15 -5.04199 2.901 0
M  V30 1465 N 138.126 -4.98088 2.17736 0
M  V30 1466 H 141.928 -2.48207 1.57386 0
M  V30 1467 H 139.442 -1.315 0.952976 0
M  V30 1468 H 141.439 -4.16272 -0.228719 0
M  V30 1469 H 140.099 -3.14291 -0.815551 0
M  V30 1470 H 141.11 -4.45504 2.64096 0
M  V30 1471 H 137.787 -4.17432 0.0756078 0
M  V30 1472 H 139.177 -5.46802 3.90458 0
M  V30 1473 N 141.898 -0.863906 -1.31812 0
M  V30 1474 C 142.83 -0.272485 -2.27575 0
M  V30 1475 C 143.843 0.56104 -1.52827 0
M  V30 1476 O 145.032 0.384021 -1.7432 0
M  V30 1477 C 142.132 0.63283 -3.32939 0
M  V30 1478 C 141.305 -0.166902 -4.37081 0
M  V30 1479 C 140.364 0.665608 -5.21973 0
M  V30 1480 O 139.39 0.0958091 -5.69119 0
M  V30 1481 N 140.592 1.9787 -5.45736 0
M  V30 1482 H 143.357 -1.0954 -2.78964 0
M  V30 1483 H 140.918 -0.724791 -1.4477 0
M  V30 1484 H 142.91 1.19532 -3.86645 0
M  V30 1485 H 141.48 1.35642 -2.81638 0
M  V30 1486 H 140.7 -0.910838 -3.83533 0
M  V30 1487 H 141.988 -0.715874 -5.03739 0
M  V30 1488 H 141.386 2.46484 -5.09178 0
M  V30 1489 H 139.943 2.48911 -6.024 0
M  V30 1490 N 143.376 1.44774 -0.622745 0
M  V30 1491 C 144.323 2.30635 0.0871679 0
M  V30 1492 C 145.293 1.42994 0.845097 0
M  V30 1493 O 146.478 1.71907 0.827812 0
M  V30 1494 C 143.618 3.28144 1.06844 0
M  V30 1495 C 142.731 4.30888 0.309809 0
M  V30 1496 C 141.866 5.15494 1.28215 0
M  V30 1497 C 140.905 6.09953 0.512198 0
M  V30 1498 N 140.042 6.87287 1.43458 0
M  V30 1499 H 144.882 2.90803 -0.650974 0
M  V30 1500 H 142.419 1.43286 -0.33281 0
M  V30 1501 H 144.377 3.83157 1.65066 0
M  V30 1502 H 143.007 2.69695 1.77382 0
M  V30 1503 H 142.059 3.78414 -0.388181 0
M  V30 1504 H 143.371 4.97955 -0.290254 0
M  V30 1505 H 142.525 5.74983 1.93596 0
M  V30 1506 H 141.264 4.48481 1.91614 0
M  V30 1507 H 140.269 5.49581 -0.155151 0
M  V30 1508 H 141.494 6.78999 -0.116958 0
M  V30 1509 H 139.44 6.2295 2.05594 0
M  V30 1510 H 139.357 7.50763 0.888335 0
M  V30 1511 H 140.625 7.51306 2.07749 0
M  V30 1512 N 144.854 0.36279 1.53368 0
M  V30 1513 C 146.265 -0.117022 1.86333 0
M  V30 1514 C 146.616 -1.48397 1.28347 0
M  V30 1515 O 145.741 -2.07787 0.604428 0
M  V30 1516 C 146.336 -0.21912 3.38091 0
M  V30 1517 C 144.895 -0.643184 3.70864 0
M  V30 1518 C 144.042 0.211318 2.76494 0
M  V30 1519 H 146.993 0.581687 1.47655 0
M  V30 1520 H 147.014 -1.04319 3.6592 0
M  V30 1521 H 146.526 0.775902 3.80265 0
M  V30 1522 H 144.627 -1.64654 3.34245 0
M  V30 1523 H 144.74 -0.41973 4.77258 0
M  V30 1524 H 143.104 -0.319367 2.5269 0
M  V30 1525 H 143.887 1.20383 3.21501 0
M  V30 1526 N 146.332 -1.57332 0.0918853 0
M  V30 1527 C 147.743 -1.81496 -0.437739 0
M  V30 1528 C 148.094 -1.00727 -1.6837 0
M  V30 1529 O 147.219 -0.235694 -2.15113 0
M  V30 1530 C 147.814 -3.29197 -0.800939 0
M  V30 1531 C 146.373 -3.54136 -1.27532 0
M  V30 1532 C 145.52 -2.75979 -0.270392 0
M  V30 1533 H 148.471 -1.55494 0.317366 0
M  V30 1534 H 148.492 -3.42344 -1.66074 0
M  V30 1535 H 148.004 -3.87955 0.106078 0
M  V30 1536 H 146.105 -3.00705 -2.20016 0
M  V30 1537 H 146.218 -4.62792 -1.23938 0
M  V30 1538 H 144.582 -2.43349 -0.751872 0
M  V30 1539 H 145.365 -3.37484 0.629248 0
M  V30 1540 N 147.81 0.181792 -1.56548 0
M  V30 1541 C 149.226 0.53316 -1.50431 0
M  V30 1542 C 149.426 1.85184 -0.794297 0
M  V30 1543 O 148.482 2.50058 -0.350318 0
M  V30 1544 C 149.795 0.575597 -2.9514 0
M  V30 1545 C 151.343 0.663519 -3.05886 0
M  V30 1546 C 151.818 0.736946 -4.52032 0
M  V30 1547 N 153.309 0.800118 -4.56237 0
M  V30 1548 C 154.044 0.877327 -5.66649 0
M  V30 1549 N 153.54 0.916016 -6.86718 0
M  V30 1550 N 155.333 0.915542 -5.54594 0
M  V30 1551 H 147.484 -0.683025 -2.01118 0
M  V30 1552 H 149.747 -0.244988 -0.915797 0
M  V30 1553 H 149.453 -0.324482 -3.502 0
M  V30 1554 H 149.327 1.42572 -3.49218 0
M  V30 1555 H 151.714 1.55403 -2.50867 0
M  V30 1556 H 151.795 -0.21307 -2.54911 0
M  V30 1557 H 151.439 -0.149262 -5.07681 0
M  V30 1558 H 151.369 1.62953 -5.00753 0
M  V30 1559 H 153.86 0.778926 -3.69785 0
M  V30 1560 H 154.173 0.975813 -7.66614 0
M  V30 1561 H 152.518 0.884469 -6.89349 0
M  V30 1562 H 155.709 0.882245 -4.59711 0
M  V30 1563 H 155.882 0.972253 -6.40665 0
M  V30 1564 N 149.288 1.51039 0.449983 0
M  V30 1565 C 150.236 1.71995 1.5659 0
M  V30 1566 C 151.23 0.586029 1.5894 0
M  V30 1567 O 152.436 0.76709 1.62837 0
M  V30 1568 H 148.811 0.543233 0.520001 0
M  V30 1569 H 150.782 2.65562 1.36085 0
M  V30 1570 C 149.531 1.8506 2.9436 0
M  V30 1571 H 148.854 2.71712 2.93279 0
M  V30 1572 H 150.294 2.0374 3.71842 0
M  V30 1573 C 148.753 0.607277 3.31382 0
M  V30 1574 O 149.283 -0.243903 4.00959 0
M  V30 1575 N 147.489 0.455073 2.87015 0
M  V30 1576 H 147.036 1.14879 2.30566 0
M  V30 1577 H 146.994 -0.375611 3.12148 0
M  V30 1578 N 150.766 -0.704594 1.40972 0
M  V30 1579 C 152.177 -1.28418 1.3552 0
M  V30 1580 C 152.528 -1.96171 0.0339434 0
M  V30 1581 O 151.653 -1.98231 -0.867944 0
M  V30 1582 C 152.248 -2.33528 2.45459 0
M  V30 1583 C 150.807 -2.87085 2.43433 0
M  V30 1584 C 149.954 -1.61007 2.2577 0
M  V30 1585 H 152.905 -0.499963 1.50619 0
M  V30 1586 H 152.926 -3.14619 2.13998 0
M  V30 1587 H 152.438 -1.84187 3.41609 0
M  V30 1588 H 150.539 -3.40626 1.51013 0
M  V30 1589 H 150.652 -3.3813 3.39419 0
M  V30 1590 H 149.016 -1.86482 1.73483 0
M  V30 1591 H 149.799 -1.13675 3.23933 0
M  V30 1592 N 152.244 -1.26651 -0.937939 0
M  V30 1593 C 153.174 -1.10993 -2.05433 0
M  V30 1594 C 154.155 -0.0142161 -1.70094 0
M  V30 1595 O 155.34 -0.186837 -1.93299 0
M  V30 1596 C 152.47 -0.745561 -3.39203 0
M  V30 1597 C 151.424 -1.79337 -3.88616 0
M  V30 1598 C 150.75 -1.28324 -5.19073 0
M  V30 1599 C 152.05 -3.19553 -4.13138 0
M  V30 1600 H 153.744 -2.0438 -2.1879 0
M  V30 1601 H 151.29 -0.984041 -1.05131 0
M  V30 1602 H 153.243 -0.622888 -4.16771 0
M  V30 1603 H 151.967 0.22401 -3.25831 0
M  V30 1604 H 150.626 -1.90477 -3.13231 0
M  V30 1605 H 150.274 -0.303414 -5.02084 0
M  V30 1606 H 149.974 -1.98369 -5.53103 0
M  V30 1607 H 151.498 -1.1733 -5.99221 0
M  V30 1608 H 152.912 -3.11471 -4.81309 0
M  V30 1609 H 151.309 -3.87218 -4.58457 0
M  V30 1610 H 152.379 -3.65368 -3.18801 0
M  V30 1611 N 153.722 1.14298 -1.08507 0
M  V30 1612 C 154.947 1.8976 -0.837001 0
M  V30 1613 C 155.372 1.78097 0.605228 0
M  V30 1614 O 154.73 1.12188 1.4242 0
M  V30 1615 C 154.778 3.37685 -1.26495 0
M  V30 1616 O 153.882 4.10281 -0.417514 0
M  V30 1617 H 153.223 0.590365 -0.303917 0
M  V30 1618 H 155.753 1.44672 -1.44676 0
M  V30 1619 H 155.763 3.88501 -1.24625 0
M  V30 1620 H 154.438 3.45492 -2.31534 0
M  V30 1621 H 153.015 3.69536 -0.499722 0
M  V30 1622 N 155.201 0.870884 1.31352 0
M  V30 1623 C 156.426 0.495957 2.01383 0
M  V30 1624 C 156.851 -0.904324 1.64935 0
M  V30 1625 O 156.209 -1.59687 0.858466 0
M  V30 1626 C 156.257 0.661433 3.54482 0
M  V30 1627 O 155.361 -0.298851 4.11316 0
M  V30 1628 H 154.702 0.197158 0.634054 0
M  V30 1629 H 157.232 1.17455 1.67527 0
M  V30 1630 H 157.242 0.555072 4.04207 0
M  V30 1631 H 155.917 1.68246 3.8035 0
M  V30 1632 H 154.494 -0.147368 3.72609 0
M  V30 1633 N 156.679 -1.44442 0.630414 0
M  V30 1634 C 157.904 -2.06927 0.139944 0
M  V30 1635 C 158.329 -1.46795 -1.17613 0
M  V30 1636 O 157.687 -0.569144 -1.72135 0
M  V30 1637 C 157.735 -3.6058 0.0379581 0
M  V30 1638 O 156.839 -3.99937 -1.0062 0
M  V30 1639 H 156.18 -0.658608 0.0844483 0
M  V30 1640 H 158.71 -1.85327 0.866891 0
M  V30 1641 H 158.72 -4.07714 -0.152856 0
M  V30 1642 H 157.395 -4.03728 0.998809 0
M  V30 1643 H 155.972 -3.64436 -0.79001 0
M  V30 1644 N 158.157 -0.370918 -1.53173 0
M  V30 1645 C 159.434 0.273754 -1.93675 0
M  V30 1646 C 159.814 1.65938 -1.3049 0
M  V30 1647 O 159.162 2.23698 -0.465999 0
M  V30 1648 C 159.372 0.318602 -3.47543 0
M  V30 1649 C 160.72 0.556392 -4.20939 0
M  V30 1650 O 161.744 0.399587 -3.53952 0
M  V30 1651 O 160.603 0.862133 -5.39657 0
M  V30 1652 H 157.697 0.165448 -0.810281 0
M  V30 1653 H 160.243 -0.42409 -1.64315 0
M  V30 1654 H 159.015 -0.652687 -3.85818 0
M  V30 1655 H 158.638 1.06212 -3.83151 0
M  V30 1656 N 159.635 1.57281 -0.100228 0
M  V30 1657 C 160.598 2.13158 0.842398 0
M  V30 1658 C 161.598 1.06202 1.20738 0
M  V30 1659 O 162.788 1.32066 1.13597 0
M  V30 1660 C 159.92 2.65639 2.13655 0
M  V30 1661 H 161.113 2.97766 0.357114 0
M  V30 1662 H 158.666 1.5559 0.148823 0
M  V30 1663 H 159.401 1.84566 2.66657 0
M  V30 1664 H 159.186 3.43844 1.88451 0
M  V30 1665 H 160.676 3.08846 2.81077 0
M  V30 1666 N 161.113 -0.173488 1.56642 0
M  V30 1667 C 162.076 -1.19859 1.95362 0
M  V30 1668 C 163.076 -1.37296 0.83704 0
M  V30 1669 O 164.266 -1.34739 1.10413 0
M  V30 1670 C 161.398 -2.56405 2.24654 0
M  V30 1671 H 162.591 -0.867062 2.87092 0
M  V30 1672 H 160.144 -0.415853 1.50666 0
M  V30 1673 H 160.879 -2.94576 1.35631 0
M  V30 1674 H 160.664 -2.45115 3.06041 0
M  V30 1675 H 162.154 -3.30287 2.5554 0
M  V30 1676 N 162.591 -1.51276 -0.441967 0
M  V30 1677 C 164.002 -1.56244 -1.02199 0
M  V30 1678 C 164.353 -0.383149 -1.92422 0
M  V30 1679 O 163.478 0.500613 -2.1053 0
M  V30 1680 C 164.073 -2.83162 -1.86024 0
M  V30 1681 C 162.632 -2.90716 -2.39084 0
M  V30 1682 C 161.779 -2.50858 -1.18175 0
M  V30 1683 H 164.73 -1.5712 -0.223416 0
M  V30 1684 H 164.751 -2.66663 -2.71425 0
M  V30 1685 H 164.263 -3.68974 -1.20331 0
M  V30 1686 H 162.364 -2.09323 -3.08244 0
M  V30 1687 H 162.477 -3.94266 -2.72198 0
M  V30 1688 H 160.841 -2.03951 -1.52565 0
M  V30 1689 H 161.624 -3.3901 -0.541001 0
M  V30 1690 N 164.069 0.697108 -1.41344 0
M  V30 1691 C 165.294 1.49096 -1.44171 0
M  V30 1692 C 165.719 1.88038 -0.0481568 0
M  V30 1693 O 165.077 1.54525 0.948243 0
M  V30 1694 C 165.125 2.73088 -2.3549 0
M  V30 1695 O 164.229 3.70514 -1.81088 0
M  V30 1696 H 163.57 0.448801 -0.489361 0
M  V30 1697 H 166.1 0.856992 -1.85787 0
M  V30 1698 H 166.11 3.21413 -2.51312 0
M  V30 1699 H 164.785 2.44081 -3.36745 0
M  V30 1700 H 163.362 3.29441 -1.74708 0
M  V30 1701 N 165.547 1.27147 0.931209 0
M  V30 1702 C 166.958 1.12044 1.49342 0
M  V30 1703 C 167.309 -0.295795 1.93957 0
M  V30 1704 O 166.434 -1.18835 1.80852 0
M  V30 1705 C 167.029 2.02781 2.71414 0
M  V30 1706 C 165.588 1.91794 3.2387 0
M  V30 1707 C 164.735 1.95543 1.96617 0
M  V30 1708 H 167.686 1.40091 0.745672 0
M  V30 1709 H 167.707 1.58156 3.46074 0
M  V30 1710 H 167.219 3.05848 2.38911 0
M  V30 1711 H 165.32 0.916992 3.6114 0
M  V30 1712 H 165.433 2.77852 3.90302 0
M  V30 1713 H 163.797 1.39722 2.12955 0
M  V30 1714 H 164.58 3.00259 1.66432 0
M  V30 1715 N 167.025 -1.13721 1.09112 0
M  V30 1716 C 167.935 -2.22638 0.73957 0
M  V30 1717 C 168.951 -1.72091 -0.257068 0
M  V30 1718 O 170.127 -2.01155 -0.0992154 0
M  V30 1719 C 167.192 -3.46322 0.16191 0
M  V30 1720 C 166.253 -4.11775 1.21408 0
M  V30 1721 C 165.486 -5.29555 0.663891 0
M  V30 1722 O 165.709 -5.68077 -0.514274 0
M  V30 1723 O 164.643 -5.84973 1.41738 0
M  V30 1724 H 168.469 -2.55074 1.64836 0
M  V30 1725 H 166.054 -1.21791 0.865289 0
M  V30 1726 H 167.936 -4.21107 -0.157073 0
M  V30 1727 H 166.611 -3.15593 -0.719932 0
M  V30 1728 H 165.518 -3.3883 1.58571 0
M  V30 1729 H 166.851 -4.46627 2.06845 0
M  V30 1730 N 168.503 -0.877838 -1.30888 0
M  V30 1731 C 169.433 -0.35534 -2.3078 0
M  V30 1732 C 170.414 0.557994 -1.60687 0
M  V30 1733 O 171.599 0.473355 -1.88343 0
M  V30 1734 C 168.729 0.437221 -3.44537 0
M  V30 1735 C 167.683 -0.383715 -4.26276 0
M  V30 1736 C 167.009 0.535014 -5.32017 0
M  V30 1737 C 168.309 -1.62201 -4.96476 0
M  V30 1738 H 170.003 -1.19007 -2.74732 0
M  V30 1739 H 167.549 -0.573698 -1.32078 0
M  V30 1740 H 169.502 0.813334 -4.13477 0
M  V30 1741 H 168.226 1.30553 -2.99372 0
M  V30 1742 H 166.885 -0.741874 -3.59015 0
M  V30 1743 H 166.533 1.40083 -4.831 0
M  V30 1744 H 166.233 -0.0104211 -5.87599 0
M  V30 1745 H 167.757 0.907799 -6.03814 0
M  V30 1746 H 169.171 -1.31689 -5.5797 0
M  V30 1747 H 167.568 -2.10711 -5.61891 0
M  V30 1748 H 168.638 -2.37044 -4.23011 0
M  V30 1749 N 169.982 1.44106 -0.638065 0
M  V30 1750 C 170.914 2.28976 0.101205 0
M  V30 1751 C 171.927 1.4167 0.802088 0
M  V30 1752 O 173.116 1.65755 0.662375 0
M  V30 1753 C 170.216 3.18217 1.16581 0
M  V30 1754 C 169.389 4.33978 0.546066 0
M  V30 1755 C 168.448 5.04202 1.50554 0
M  V30 1756 O 167.474 5.59986 1.01999 0
M  V30 1757 N 168.676 5.06296 2.8398 0
M  V30 1758 H 171.441 2.93064 -0.627186 0
M  V30 1759 H 169.002 1.54629 -0.479731 0
M  V30 1760 H 170.994 3.62061 1.80815 0
M  V30 1761 H 169.564 2.55833 1.79634 0
M  V30 1762 H 168.784 3.93239 -0.275046 0
M  V30 1763 H 170.072 5.08675 0.112793 0
M  V30 1764 H 169.47 4.62319 3.26002 0
M  V30 1765 H 168.027 5.53907 3.43556 0
M  V30 1766 N 171.46 0.379036 1.52974 0
M  V30 1767 C 172.423 -0.448865 2.24762 0
M  V30 1768 C 173.423 -0.998689 1.26027 0
M  V30 1769 O 174.613 -0.882313 1.50203 0
M  V30 1770 C 171.745 -1.62872 2.99476 0
M  V30 1771 H 172.938 0.179491 2.99362 0
M  V30 1772 H 170.491 0.13096 1.5575 0
M  V30 1773 H 171.226 -2.29479 2.29151 0
M  V30 1774 H 171.011 -1.24128 3.71934 0
M  V30 1775 H 172.501 -2.2151 3.5401 0
M  V30 1776 N 172.938 -1.57226 0.108567 0
M  V30 1777 C 173.886 -2.16002 -0.862885 0
M  V30 1778 C 174.88 -1.10644 -1.28274 0
M  V30 1779 O 176.086 -1.28966 -1.2557 0
M  V30 1780 H 172.461 -0.691148 -0.296342 0
M  V30 1781 H 174.432 -2.96427 -0.342575 0
M  V30 1782 C 173.181 -2.76576 -2.10716 0
M  V30 1783 H 172.504 -3.5734 -1.793 0
M  V30 1784 H 173.944 -3.21253 -2.76717 0
M  V30 1785 C 172.403 -1.73137 -2.89007 0
M  V30 1786 O 172.933 -1.17842 -3.84026 0
M  V30 1787 N 171.139 -1.43317 -2.52801 0
M  V30 1788 H 170.686 -1.88473 -1.75601 0
M  V30 1789 H 170.644 -0.743485 -3.05483 0
M  V30 1790 N 174.416 0.165178 -1.56732 0
M  V30 1791 C 175.664 0.879068 -1.8198 0
M  V30 1792 C 175.985 1.82514 -0.686561 0
M  V30 1793 O 175.255 1.93694 0.293146 0
M  V30 1794 H 173.835 0.327608 -0.671329 0
M  V30 1795 H 176.497 0.163526 -1.94213 0
M  V30 1796 H 175.593 1.45228 -2.76252 0
M  V30 1797 N 175.894 1.51508 0.433938 0
M  V30 1798 C 177.122 1.68157 1.20543 0
M  V30 1799 C 177.537 0.380362 1.84929 0
M  V30 1800 O 176.894 -0.641446 1.70856 0
M  V30 1801 C 176.945 2.79965 2.28696 0
M  V30 1802 O 176.666 4.05045 1.66943 0
M  V30 1803 C 178.167 3.07912 3.18912 0
M  V30 1804 H 175.387 0.56421 0.363191 0
M  V30 1805 H 177.931 1.97941 0.513754 0
M  V30 1806 H 176.086 2.5277 2.93574 0
M  V30 1807 H 176.5 4.67165 2.38448 0
M  V30 1808 H 177.974 3.89719 3.90926 0
M  V30 1809 H 178.451 2.20456 3.79863 0
M  V30 1810 H 179.057 3.36779 2.59731 0
M  V30 1811 N 177.372 -0.689602 1.41712 0
M  V30 1812 C 178.62 -1.4468 1.4111 0
M  V30 1813 C 178.941 -1.94986 0.0232196 0
M  V30 1814 O 178.211 -1.72097 -0.935913 0
M  V30 1815 H 176.791 -0.536847 0.519427 0
M  V30 1816 H 179.453 -0.815825 1.77004 0
M  V30 1817 H 178.549 -2.30706 2.10193 0
M  V30 1818 N 178.85 -1.27639 -0.924453 0
M  V30 1819 C 180.078 -1.16989 -1.70649 0
M  V30 1820 C 180.493 0.272869 -1.86818 0
M  V30 1821 O 179.85 1.18549 -1.38753 0
M  V30 1822 C 179.901 -1.85229 -3.10439 0
M  V30 1823 O 179.622 -3.23868 -2.95028 0
M  V30 1824 C 181.123 -1.80746 -4.04779 0
M  V30 1825 H 178.343 -0.406595 -0.53378 0
M  V30 1826 H 180.887 -1.68569 -1.15778 0
M  V30 1827 H 179.042 -1.37545 -3.6216 0
M  V30 1828 H 179.456 -3.57889 -3.83426 0
M  V30 1829 H 180.93 -2.33101 -5.00368 0
M  V30 1830 H 181.407 -0.777499 -4.32263 0
M  V30 1831 H 182.013 -2.28059 -3.58984 0
M  V30 1832 N 180.328 1.1314 -1.09713 0
M  V30 1833 C 181.26 2.18343 -0.697056 0
M  V30 1834 C 182.273 1.60669 0.262551 0
M  V30 1835 O 183.462 1.78435 0.0481527 0
M  V30 1836 C 180.562 3.38899 -0.00684728 0
M  V30 1837 C 179.735 4.26078 -0.988741 0
M  V30 1838 C 178.794 5.25155 -0.331394 0
M  V30 1839 O 177.82 5.60701 -0.979926 0
M  V30 1840 N 179.022 5.73271 0.913261 0
M  V30 1841 H 181.787 2.5328 -1.60216 0
M  V30 1842 H 179.348 1.28491 -0.984971 0
M  V30 1843 H 181.34 4.02255 0.444191 0
M  V30 1844 H 179.91 3.02175 0.800551 0
M  V30 1845 H 179.13 3.59453 -1.61826 0
M  V30 1846 H 180.418 4.81178 -1.65364 0
M  V30 1847 H 179.816 5.46544 1.45966 0
M  V30 1848 H 178.373 6.3855 1.30757 0
M  V30 1849 N 181.806 0.884767 1.30421 0
M  V30 1850 C 183.054 0.502112 1.95763 0
M  V30 1851 C 183.375 -0.951815 1.70192 0
M  V30 1852 O 182.645 -1.6692 1.0254 0
M  V30 1853 H 181.225 0.182694 0.724315 0
M  V30 1854 H 183.887 1.1278 1.58955 0
M  V30 1855 H 182.983 0.672188 3.04775 0
M  V30 1856 N 183.284 -1.43765 0.645699 0
M  V30 1857 C 184.214 -2.33471 -0.0370477 0
M  V30 1858 C 185.195 -1.49042 -0.819779 0
M  V30 1859 O 186.38 -1.77726 -0.782758 0
M  V30 1860 C 183.51 -3.32311 -1.0093 0
M  V30 1861 C 182.464 -4.2667 -0.337201 0
M  V30 1862 C 181.79 -5.1549 -1.42037 0
M  V30 1863 C 183.09 -5.16657 0.765706 0
M  V30 1864 H 184.784 -2.90809 0.712069 0
M  V30 1865 H 182.33 -1.39834 0.343876 0
M  V30 1866 H 184.283 -3.9396 -1.49578 0
M  V30 1867 H 183.007 -2.73213 -1.78948 0
M  V30 1868 H 181.666 -3.66374 0.128771 0
M  V30 1869 H 181.314 -4.52735 -2.1918 0
M  V30 1870 H 181.014 -5.79438 -0.975966 0
M  V30 1871 H 182.538 -5.80012 -1.90838 0
M  V30 1872 H 183.952 -5.72158 0.361702 0
M  V30 1873 H 182.349 -5.89286 1.13413 0
M  V30 1874 H 183.419 -4.56796 1.62683 0
M  V30 1875 N 184.763 -0.387143 -1.52771 0
M  V30 1876 C 185.673 0.456442 -2.30117 0
M  V30 1877 C 186.689 1.07342 -1.36944 0
M  V30 1878 O 187.865 1.07971 -1.70013 0
M  V30 1879 C 184.93 1.56957 -3.09136 0
M  V30 1880 C 183.991 0.977916 -4.18014 0
M  V30 1881 C 183.224 2.038 -4.93256 0
M  V30 1882 O 183.447 3.25271 -4.68567 0
M  V30 1883 O 182.381 1.6565 -5.78657 0
M  V30 1884 H 186.207 -0.17359 -3.03203 0
M  V30 1885 H 183.792 -0.150919 -1.48636 0
M  V30 1886 H 185.674 2.21628 -3.58412 0
M  V30 1887 H 184.349 2.18461 -2.38865 0
M  V30 1888 H 183.256 0.294525 -3.72939 0
M  V30 1889 H 184.589 0.407128 -4.90513 0
M  V30 1890 N 186.241 1.57166 -0.116904 0
M  V30 1891 C 187.204 2.14039 0.819742 0
M  V30 1892 C 188.204 1.07477 1.19605 0
M  V30 1893 O 189.394 1.33263 1.1219 0
M  V30 1894 C 186.526 2.67891 2.10826 0
M  V30 1895 H 187.719 2.98128 0.325511 0
M  V30 1896 H 185.272 1.55739 0.132312 0
M  V30 1897 H 186.007 1.87384 2.64685 0
M  V30 1898 H 185.792 3.45823 1.84793 0
M  V30 1899 H 187.282 3.11809 2.77785 0
M  V30 1900 N 187.719 -0.156864 1.56817 0
M  V30 1901 C 188.947 -0.886316 1.86955 0
M  V30 1902 C 189.362 -1.75185 0.703975 0
M  V30 1903 O 188.719 -1.79555 -0.326552 0
M  V30 1904 C 188.77 -1.75117 3.16253 0
M  V30 1905 O 188.491 -0.920537 4.2832 0
M  V30 1906 C 189.992 -2.58905 3.59837 0
M  V30 1907 H 187.212 -0.25678 0.619923 0
M  V30 1908 H 189.756 -0.152615 2.0393 0
M  V30 1909 H 187.911 -2.43805 3.01062 0
M  V30 1910 H 188.325 -1.51337 5.02192 0
M  V30 1911 H 189.799 -3.1518 4.53172 0
M  V30 1912 H 190.276 -3.34472 2.84649 0
M  V30 1913 H 190.882 -1.95526 3.7769 0
M  V30 1914 N 189.197 -1.51736 -0.425897 0
M  V30 1915 C 190.474 -1.55519 -1.1863 0
M  V30 1916 C 190.854 -0.326219 -2.08564 0
M  V30 1917 O 190.202 0.688012 -2.17896 0
M  V30 1918 C 190.412 -2.87521 -1.9782 0
M  V30 1919 C 191.76 -3.39899 -2.54468 0
M  V30 1920 O 192.784 -2.89148 -2.08019 0
M  V30 1921 O 191.643 -4.2848 -3.39215 0
M  V30 1922 H 188.737 -0.625739 -0.540721 0
M  V30 1923 H 191.283 -1.64055 -0.434038 0
M  V30 1924 H 190.055 -3.68422 -1.31836 0
M  V30 1925 H 189.678 -2.822 -2.80088 0
M  V30 1926 N 190.675 0.682077 -1.42076 0
M  V30 1927 C 191.903 1.47057 -1.4554 0
M  V30 1928 C 192.318 1.8869 -0.0645779 0
M  V30 1929 O 191.675 1.57666 0.919115 0
M  V30 1930 C 191.726 2.72442 -2.37609 0
M  V30 1931 O 191.447 2.32559 -3.71279 0
M  V30 1932 C 192.948 3.66069 -2.50017 0
M  V30 1933 H 190.168 0.452737 -0.495248 0
M  V30 1934 H 192.712 0.838695 -1.8651 0
M  V30 1935 H 190.867 3.31835 -1.9991 0
M  V30 1936 H 191.281 3.13475 -4.20516 0
M  V30 1937 H 192.755 4.50792 -3.18576 0
M  V30 1938 H 193.232 4.11476 -1.53572 0
M  V30 1939 H 193.838 3.12572 -2.88407 0
M  V30 1940 N 192.153 1.28127 0.917671 0
M  V30 1941 C 193.101 1.11569 2.04096 0
M  V30 1942 C 194.095 0.0360242 1.69362 0
M  V30 1943 O 195.301 0.194501 1.78946 0
M  V30 1944 H 191.676 0.344097 0.668656 0
M  V30 1945 H 193.647 2.06711 2.15205 0
M  V30 1946 C 192.396 0.790197 3.38602 0
M  V30 1947 H 191.719 1.61293 3.6582 0
M  V30 1948 H 193.159 0.714271 4.1794 0
M  V30 1949 C 191.618 -0.505897 3.3308 0
M  V30 1950 O 192.148 -1.53736 3.71117 0
M  V30 1951 N 190.354 -0.505193 2.86175 0
M  V30 1952 H 189.901 0.334621 2.55417 0
M  V30 1953 H 189.859 -1.37243 2.82863 0
M  V30 1954 N 193.631 -1.12557 1.10312 0
M  V30 1955 C 194.879 -1.83675 0.843091 0
M  V30 1956 C 195.2 -1.84435 -0.633131 0
M  V30 1957 O 194.47 -1.30657 -1.45964 0
M  V30 1958 H 193.05 -0.680138 0.308904 0
M  V30 1959 H 195.712 -1.36301 1.39313 0
M  V30 1960 H 194.808 -2.87908 1.2048 0
M  V30 1961 N 195.109 -0.891671 -1.2995 0
M  V30 1962 C 196.039 -0.379797 -2.30391 0
M  V30 1963 C 197.02 0.540919 -1.6127 0
M  V30 1964 O 198.205 0.453352 -1.88834 0
M  V30 1965 C 195.335 0.400654 -3.44981 0
M  V30 1966 C 194.289 -0.428905 -4.25846 0
M  V30 1967 C 193.615 0.478557 -5.32554 0
M  V30 1968 C 194.915 -1.67458 -4.94727 0
M  V30 1969 H 196.609 -1.21914 -2.73454 0
M  V30 1970 H 194.155 -0.587675 -1.31462 0
M  V30 1971 H 196.108 0.769434 -4.14316 0
M  V30 1972 H 194.832 1.27371 -3.0074 0
M  V30 1973 H 193.491 -0.779911 -3.58208 0
M  V30 1974 H 193.139 1.34951 -4.84559 0
M  V30 1975 H 192.839 -0.0727433 -5.87555 0
M  V30 1976 H 194.363 0.843705 -6.04743 0
M  V30 1977 H 195.777 -1.376 -5.56542 0
M  V30 1978 H 194.174 -2.16659 -5.59624 0
M  V30 1979 H 195.244 -2.41518 -4.20473 0
M  V30 1980 N 196.587 1.43421 -0.653314 0
M  V30 1981 C 197.812 2.06678 -0.172846 0
M  V30 1982 C 198.237 1.48648 1.15262 0
M  V30 1983 O 197.595 0.596457 1.71208 0
M  V30 1984 C 197.643 3.60474 -0.0953184 0
M  V30 1985 O 196.747 4.01487 0.942442 0
M  V30 1986 H 196.088 0.657181 -0.0949155 0
M  V30 1987 H 198.618 1.83925 -0.896265 0
M  V30 1988 H 198.628 4.07905 0.0879728 0
M  V30 1989 H 197.303 4.02088 -1.06291 0
M  V30 1990 H 195.88 3.65646 0.731932 0
M  V30 1991 N 198.065 0.39524 1.52563 0
M  V30 1992 C 199.29 -0.187456 2.06551 0
M  V30 1993 C 199.715 -1.39249 1.26457 0
M  V30 1994 O 199.073 -1.78947 0.291151 0
M  V30 1995 C 199.121 -0.529985 3.56684 0
M  V30 1996 O 198.225 -1.62307 3.79118 0
M  V30 1997 H 197.566 -0.0202537 0.663691 0
M  V30 1998 H 200.096 0.564426 1.96661 0
M  V30 1999 H 200.106 -0.792598 4.00227 0
M  V30 2000 H 198.781 0.350987 4.14416 0
M  V30 2001 H 197.358 -1.3537 3.47461 0
M  V30 2002 N 199.544 -1.57102 0.125237 0
M  V30 2003 C 200.769 -2.0019 -0.542101 0
M  V30 2004 C 201.194 -1.00449 -1.59034 0
M  V30 2005 O 200.552 0.0229423 -1.81285 0
M  V30 2006 C 200.6 -3.42129 -1.13929 0
M  V30 2007 O 199.704 -3.45307 -2.2547 0
M  V30 2008 H 199.045 -0.650171 -0.134812 0
M  V30 2009 H 201.575 -2.03461 0.215553 0
M  V30 2010 H 201.585 -3.80471 -1.4733 0
M  V30 2011 H 200.26 -4.14237 -0.371531 0
M  V30 2012 H 198.837 -3.1879 -1.93462 0
M  V30 2013 N 201.022 0.148545 -1.56898 0
M  V30 2014 C 201.985 1.16736 -1.97244 0
M  V30 2015 C 202.985 1.35947 -0.858777 0
M  V30 2016 O 204.175 1.32966 -1.12542 0
M  V30 2017 C 201.307 2.52798 -2.28705 0
M  V30 2018 H 202.5 0.821279 -2.88435 0
M  V30 2019 H 200.053 0.391831 -1.51309 0
M  V30 2020 H 200.788 2.92381 -1.403 0
M  V30 2021 H 200.573 2.40216 -3.09901 0
M  V30 2022 H 202.063 3.26179 -2.60762 0
M  V30 2023 N 202.5 1.5196 0.417844 0
M  V30 2024 C 203.916 1.40569 0.755816 0
M  V30 2025 C 204.116 0.503316 1.95113 0
M  V30 2026 O 203.172 -0.0341925 2.52477 0
M  V30 2027 C 204.485 2.82947 1.01791 0
M  V30 2028 C 206.033 2.92231 1.12116 0
M  V30 2029 C 206.508 4.35559 1.41608 0
M  V30 2030 N 207.999 4.38753 1.48491 0
M  V30 2031 C 208.734 5.46705 1.7292 0
M  V30 2032 N 208.23 6.64788 1.95011 0
M  V30 2033 N 210.023 5.34209 1.74863 0
M  V30 2034 H 202.174 2.09168 -0.369098 0
M  V30 2035 H 204.437 0.942409 -0.102809 0
M  V30 2036 H 204.143 3.5106 0.212081 0
M  V30 2037 H 204.017 3.23462 1.94042 0
M  V30 2038 H 206.404 2.24304 1.9176 0
M  V30 2039 H 206.485 2.55185 0.177225 0
M  V30 2040 H 206.129 5.04042 0.624848 0
M  V30 2041 H 206.059 4.70133 2.37239 0
M  V30 2042 H 208.55 3.5363 1.33244 0
M  V30 2043 H 208.863 7.42845 2.13076 0
M  V30 2044 H 207.208 6.67869 1.92293 0
M  V30 2045 H 210.399 4.40937 1.57137 0
M  V30 2046 H 210.572 6.18415 1.93563 0
M  V30 2047 N 203.978 -0.674533 1.42435 0
M  V30 2048 C 205.389 -1.25514 1.38214 0
M  V30 2049 C 205.74 -1.96055 0.0755464 0
M  V30 2050 O 204.865 -2.00028 -0.8257 0
M  V30 2051 C 205.46 -2.28269 2.50357 0
M  V30 2052 C 204.019 -2.81856 2.49467 0
M  V30 2053 C 203.166 -1.56182 2.29134 0
M  V30 2054 H 206.117 -0.467902 1.51646 0
M  V30 2055 H 206.138 -3.10009 2.20624 0
M  V30 2056 H 205.65 -1.769 3.45439 0
M  V30 2057 H 203.751 -3.37346 1.58204 0
M  V30 2058 H 203.864 -3.30854 3.46515 0
M  V30 2059 H 202.228 -1.82761 1.774 0
M  V30 2060 H 203.011 -1.06778 3.26272 0
M  V30 2061 N 205.456 -1.28612 -0.910864 0
M  V30 2062 C 206.388 -1.08589 -2.01844 0
M  V30 2063 C 207.401 -0.0367419 -1.62759 0
M  V30 2064 O 208.59 -0.280101 -1.76289 0
M  V30 2065 C 205.69 -0.628626 -3.33019 0
M  V30 2066 C 204.863 -1.75382 -4.00699 0
M  V30 2067 C 203.922 -1.28945 -5.10156 0
M  V30 2068 O 202.948 -1.9922 -5.33198 0
M  V30 2069 N 204.15 -0.154224 -5.80295 0
M  V30 2070 H 206.915 -2.03973 -2.19579 0
M  V30 2071 H 204.476 -1.20403 -1.08234 0
M  V30 2072 H 206.468 -0.301508 -4.03575 0
M  V30 2073 H 205.038 0.232451 -3.11735 0
M  V30 2074 H 204.258 -2.25039 -3.23653 0
M  V30 2075 H 205.546 -2.50854 -4.42662 0
M  V30 2076 H 204.944 0.43194 -5.64049 0
M  V30 2077 H 203.501 0.113599 -6.51701 0
M  V30 2078 N 206.934 1.1197 -1.10907 0
M  V30 2079 C 208.182 1.83225 -0.852819 0
M  V30 2080 C 208.503 1.84769 0.623341 0
M  V30 2081 O 207.773 1.3143 1.45269 0
M  V30 2082 H 206.353 0.67849 -0.312507 0
M  V30 2083 H 209.015 1.3556 -1.40033 0
M  V30 2084 H 208.111 2.87265 -1.22005 0
M  V30 2085 N 208.412 0.89855 1.29475 0
M  V30 2086 C 209.344 0.332726 2.26772 0
M  V30 2087 C 210.357 -0.520323 1.54261 0
M  V30 2088 O 211.546 -0.337668 1.75277 0
M  V30 2089 C 208.646 -0.544334 3.345 0
M  V30 2090 C 207.819 0.282728 4.36485 0
M  V30 2091 C 206.878 -0.526982 5.23555 0
M  V30 2092 O 205.904 0.0551165 5.69173 0
M  V30 2093 N 207.106 -1.83331 5.5079 0
M  V30 2094 H 209.871 1.16897 2.75962 0
M  V30 2095 H 207.432 0.762919 1.42798 0
M  V30 2096 H 209.424 -1.09239 3.89678 0
M  V30 2097 H 207.994 -1.28127 2.85136 0
M  V30 2098 H 207.214 1.01221 3.80983 0
M  V30 2099 H 208.502 0.84918 5.01664 0
M  V30 2100 H 207.9 -2.32898 5.15534 0
M  V30 2101 H 206.457 -2.32852 6.08788 0
M  V30 2102 N 209.89 -1.43072 0.660911 0
M  V30 2103 C 210.822 -2.29108 -0.0647641 0
M  V30 2104 C 211.835 -1.42928 -0.779448 0
M  V30 2105 O 213.024 -1.66788 -0.635921 0
M  V30 2106 C 210.124 -3.20032 -1.11503 0
M  V30 2107 C 209.297 -4.34792 -0.476955 0
M  V30 2108 C 208.356 -5.06534 -1.42513 0
M  V30 2109 O 207.382 -5.61538 -0.930771 0
M  V30 2110 N 208.584 -5.1075 -2.75889 0
M  V30 2111 H 211.349 -2.92029 0.673731 0
M  V30 2112 H 208.91 -1.53846 0.50427 0
M  V30 2113 H 210.902 -3.64892 -1.75032 0
M  V30 2114 H 209.472 -2.58658 -1.75541 0
M  V30 2115 H 208.692 -3.92752 0.337572 0
M  V30 2116 H 209.98 -5.0879 -0.0318525 0
M  V30 2117 H 209.378 -4.67447 -3.18606 0
M  V30 2118 H 207.935 -5.59302 -3.347 0
M  V30 2119 N 211.368 -0.403325 -1.52352 0
M  V30 2120 C 212.331 0.413051 -2.25447 0
M  V30 2121 C 213.331 0.978513 -1.276 0
M  V30 2122 O 214.521 0.858305 -1.51587 0
M  V30 2123 C 211.653 1.58087 -3.02029 0
M  V30 2124 H 212.846 -0.227094 -2.99039 0
M  V30 2125 H 210.399 -0.155722 -1.55522 0
M  V30 2126 H 211.134 2.25804 -2.32772 0
M  V30 2127 H 210.919 1.18195 -3.73861 0
M  V30 2128 H 212.409 2.1585 -3.57489 0
M  V30 2129 N 212.846 1.57033 -0.133567 0
M  V30 2130 C 214.094 1.953 0.519848 0
M  V30 2131 C 214.415 1.01866 1.66278 0
M  V30 2132 O 213.685 0.0776513 1.95746 0
M  V30 2133 H 212.265 0.721091 0.195032 0
M  V30 2134 H 214.927 1.93809 -0.205921 0
M  V30 2135 H 214.023 2.98695 0.904854 0
M  V30 2136 N 214.325 -0.140222 1.56975 0
M  V30 2137 C 215.55 -0.870414 1.88251 0
M  V30 2138 C 215.975 -1.73637 0.723312 0
M  V30 2139 O 215.333 -1.78329 -0.32689 0
M  V30 2140 C 215.381 -1.69737 3.18154 0
M  V30 2141 O 214.485 -2.80229 3.02565 0
M  V30 2142 H 213.826 -0.242025 0.61832 0
M  V30 2143 H 216.356 -0.128999 2.04193 0
M  V30 2144 H 216.366 -2.09099 3.50345 0
M  V30 2145 H 215.041 -1.06152 4.02125 0
M  V30 2146 H 213.618 -2.44224 2.81796 0
M  V30 2147 N 215.803 -1.52179 -0.40978 0
M  V30 2148 C 217.214 -1.58377 -0.988615 0
M  V30 2149 C 217.565 -0.423879 -1.91566 0
M  V30 2150 O 216.69 0.455844 -2.11544 0
M  V30 2151 C 217.285 -2.87044 -1.79976 0
M  V30 2152 C 215.844 -2.95722 -2.32863 0
M  V30 2153 C 214.991 -2.53309 -1.12828 0
M  V30 2154 H 217.942 -1.57558 -0.190039 0
M  V30 2155 H 217.963 -2.7236 -2.65707 0
M  V30 2156 H 217.475 -3.71444 -1.12478 0
M  V30 2157 H 215.576 -2.15814 -3.03735 0
M  V30 2158 H 215.689 -3.99951 -2.63773 0
M  V30 2159 H 214.053 -2.07142 -1.48204 0
M  V30 2160 H 214.836 -3.40082 -0.46897 0
M  V30 2161 N 217.281 0.66697 -1.42791 0
M  V30 2162 C 218.506 1.46004 -1.47301 0
M  V30 2163 C 218.931 1.87894 -0.0880317 0
M  V30 2164 O 218.289 1.56502 0.915253 0
M  V30 2165 C 218.337 2.68031 -2.41229 0
M  V30 2166 O 217.441 3.6659 -1.88906 0
M  V30 2167 H 216.782 0.43832 -0.49877 0
M  V30 2168 H 219.312 0.817391 -1.87563 0
M  V30 2169 H 219.322 3.1601 -2.58073 0
M  V30 2170 H 217.997 2.36883 -3.41847 0
M  V30 2171 H 216.574 3.25661 -1.81656 0
M  V30 2172 N 218.759 1.29093 0.90403 0
M  V30 2173 C 219.706 1.13853 2.00764 0
M  V30 2174 C 220.676 0.0330084 1.66067 0
M  V30 2175 O 221.861 0.199733 1.89752 0
M  V30 2176 C 219.001 0.816537 3.35301 0
M  V30 2177 C 218.114 2.00206 3.82807 0
M  V30 2178 C 217.249 1.61983 5.059 0
M  V30 2179 C 216.288 2.77143 5.45764 0
M  V30 2180 N 215.425 2.39346 6.60044 0
M  V30 2181 H 220.265 2.08276 2.13132 0
M  V30 2182 H 217.802 1.03648 1.04381 0
M  V30 2183 H 219.76 0.610557 4.12708 0
M  V30 2184 H 218.39 -0.090779 3.22672 0
M  V30 2185 H 217.442 2.31988 3.01473 0
M  V30 2186 H 218.754 2.86512 4.08304 0
M  V30 2187 H 217.908 1.37649 5.90879 0
M  V30 2188 H 216.647 0.728202 4.82233 0
M  V30 2189 H 215.652 3.02165 4.59322 0
M  V30 2190 H 216.877 3.66964 5.71414 0
M  V30 2191 H 214.823 1.52665 6.37989 0
M  V30 2192 H 214.74 3.19185 6.85315 0
M  V30 2193 H 216.008 2.1832 7.48303 0
M  V30 2194 N 220.237 -1.11381 1.11499 0
M  V30 2195 C 221.147 -2.21019 0.786628 0
M  V30 2196 C 222.163 -1.72597 -0.220507 0
M  V30 2197 O 223.339 -2.01321 -0.0565251 0
M  V30 2198 C 220.404 -3.459 0.235333 0
M  V30 2199 C 219.465 -4.09107 1.30115 0
M  V30 2200 C 218.698 -5.28027 0.776068 0
M  V30 2201 O 218.921 -5.6904 -0.393661 0
M  V30 2202 O 217.855 -5.81835 1.54114 0
M  V30 2203 H 221.681 -2.51521 1.70209 0
M  V30 2204 H 219.266 -1.19928 0.890928 0
M  V30 2205 H 221.148 -4.21346 -0.067715 0
M  V30 2206 H 219.823 -3.17049 -0.652828 0
M  V30 2207 H 218.73 -3.35391 1.65722 0
M  V30 2208 H 220.063 -4.42139 2.16273 0
M  V30 2209 N 221.715 -0.905404 -1.28997 0
M  V30 2210 C 222.992 -0.453513 -1.9027 0
M  V30 2211 C 223.372 1.06721 -1.82137 0
M  V30 2212 O 222.72 1.91159 -1.25182 0
M  V30 2213 C 222.93 -0.974494 -3.35119 0
M  V30 2214 C 224.278 -1.0216 -4.12127 0
M  V30 2215 O 225.302 -0.922557 -3.44046 0
M  V30 2216 O 224.161 -1.17121 -5.33802 0
M  V30 2217 H 221.255 -0.142347 -0.814657 0
M  V30 2218 H 223.801 -0.995642 -1.37423 0
M  V30 2219 H 222.573 -2.01848 -3.35221 0
M  V30 2220 H 222.196 -0.412706 -3.95452 0
M  V30 2221 N 223.193 1.4272 -0.668489 0
M  V30 2222 C 224.14 2.30796 0.0137489 0
M  V30 2223 C 225.11 1.4561 0.799177 0
M  V30 2224 O 226.295 1.74453 0.772702 0
M  V30 2225 C 223.435 3.31377 0.963507 0
M  V30 2226 C 222.548 4.31655 0.172569 0
M  V30 2227 C 221.683 5.19312 1.1175 0
M  V30 2228 C 220.722 6.11274 0.317886 0
M  V30 2229 N 219.859 6.91504 1.2152 0
M  V30 2230 H 224.699 2.88585 -0.743161 0
M  V30 2231 H 222.236 1.42154 -0.378226 0
M  V30 2232 H 224.194 3.88214 1.52792 0
M  V30 2233 H 222.824 2.75202 1.68712 0
M  V30 2234 H 221.876 3.76988 -0.508374 0
M  V30 2235 H 223.188 4.96779 -0.448527 0
M  V30 2236 H 222.342 5.80851 1.75206 0
M  V30 2237 H 221.081 4.5435 1.77249 0
M  V30 2238 H 220.086 5.48809 -0.329918 0
M  V30 2239 H 221.311 6.78283 -0.332917 0
M  V30 2240 H 219.257 6.29176 1.85671 0
M  V30 2241 H 219.174 7.53209 0.649036 0
M  V30 2242 H 220.442 7.57535 1.83742 0
M  V30 2243 N 224.671 0.411399 1.52136 0
M  V30 2244 C 225.618 -0.412975 2.27075 0
M  V30 2245 C 226.588 -1.03912 1.29582 0
M  V30 2246 O 227.773 -1.06296 1.58448 0
M  V30 2247 C 224.913 -1.52247 3.09701 0
M  V30 2248 C 224.026 -0.917021 4.22155 0
M  V30 2249 C 223.161 -1.9994 4.92135 0
M  V30 2250 C 222.2 -1.37101 5.96548 0
M  V30 2251 N 221.337 -2.39364 6.60038 0
M  V30 2252 H 226.177 0.232499 2.97092 0
M  V30 2253 H 223.714 0.126496 1.46555 0
M  V30 2254 H 225.672 -2.17674 3.55913 0
M  V30 2255 H 224.302 -2.13794 2.41851 0
M  V30 2256 H 223.354 -0.151742 3.80097 0
M  V30 2257 H 224.666 -0.418006 4.97045 0
M  V30 2258 H 223.82 -2.73088 5.41763 0
M  V30 2259 H 222.559 -2.53208 4.16818 0
M  V30 2260 H 221.564 -0.624873 5.46237 0
M  V30 2261 H 222.789 -0.845998 6.7381 0
M  V30 2262 H 220.735 -2.91759 5.87548 0
M  V30 2263 H 220.652 -1.9428 7.3061 0
M  V30 2264 H 221.92 -3.12074 7.14304 0
M  V30 2265 N 226.149 -1.5696 0.141893 0
M  V30 2266 C 227.081 -2.13619 -0.830627 0
M  V30 2267 C 228.094 -1.08439 -1.21428 0
M  V30 2268 O 229.283 -1.35734 -1.15925 0
M  V30 2269 C 226.383 -2.63978 -2.12529 0
M  V30 2270 C 225.556 -3.93504 -1.9098 0
M  V30 2271 C 224.615 -4.29225 -3.04388 0
M  V30 2272 O 223.641 -4.97641 -2.76302 0
M  V30 2273 N 224.843 -3.88393 -4.31429 0
M  V30 2274 H 227.608 -2.97691 -0.34641 0
M  V30 2275 H 225.169 -1.61846 -0.0418375 0
M  V30 2276 H 227.161 -2.84891 -2.87436 0
M  V30 2277 H 225.731 -1.84659 -2.52229 0
M  V30 2278 H 224.951 -3.81269 -1.00139 0
M  V30 2279 H 226.239 -4.78154 -1.73914 0
M  V30 2280 H 225.637 -3.33257 -4.57117 0
M  V30 2281 H 224.194 -4.14368 -5.03133 0
M  V30 2282 N 227.627 0.131896 -1.57047 0
M  V30 2283 C 228.59 1.14638 -1.98471 0
M  V30 2284 C 229.59 1.35029 -0.873148 0
M  V30 2285 O 230.78 1.31764 -1.13946 0
M  V30 2286 C 227.912 2.50358 -2.31373 0
M  V30 2287 H 229.105 0.79064 -2.8929 0
M  V30 2288 H 226.658 0.375761 -1.51716 0
M  V30 2289 H 227.393 2.90876 -1.43393 0
M  V30 2290 H 227.178 2.36915 -3.12432 0
M  V30 2291 H 228.668 3.23395 -2.64207 0
M  V30 2292 N 229.106 1.52395 0.401703 0
M  V30 2293 C 230.054 1.7689 1.51039 0
M  V30 2294 C 231.048 0.636298 1.56996 0
M  V30 2295 O 232.254 0.818507 1.60314 0
M  V30 2296 H 228.629 0.559502 0.502456 0
M  V30 2297 H 230.6 2.69757 1.27568 0
M  V30 2298 C 229.349 1.94331 2.88324 0
M  V30 2299 H 228.672 2.80905 2.84486 0
M  V30 2300 H 230.112 2.15466 3.65172 0
M  V30 2301 C 228.571 0.712396 3.29282 0
M  V30 2302 O 229.101 -0.116218 4.01532 0
M  V30 2303 N 227.307 0.546154 2.85422 0
M  V30 2304 H 226.854 1.22156 2.26794 0
M  V30 2305 H 226.812 -0.276113 3.13185 0
M  V30 2306 N 230.584 -0.659388 1.43143 0
M  V30 2307 C 231.833 -1.41518 1.43721 0
M  V30 2308 C 232.146 -1.95499 0.0628176 0
M  V30 2309 O 233.352 -2.71446 -0.0539683 0
M  V30 2310 C 231.808 -2.5608 2.52885 0
M  V30 2311 C 231.416 -2.08733 3.96402 0
M  V30 2312 C 233.16 -3.3349 2.62649 0
M  V30 2313 C 231.067 -3.20469 4.97045 0
M  V30 2314 H 229.997 -0.531705 0.534608 0
M  V30 2315 H 232.648 -0.712343 1.69109 0
M  V30 2316 H 231.03 -3.28805 2.20688 0
M  V30 2317 H 232.204 -1.43059 4.3803 0
M  V30 2318 H 230.519 -1.44219 3.90627 0
M  V30 2319 H 233.116 -4.16734 3.35017 0
M  V30 2320 H 233.459 -3.8111 1.67513 0
M  V30 2321 H 233.992 -2.67842 2.94118 0
M  V30 2322 H 230.731 -2.77824 5.93712 0
M  V30 2323 H 230.251 -3.84874 4.60034 0
M  V30 2324 H 231.93 -3.85698 5.19467 0
M  V30 2325 N 232.062 -1.29571 -0.897171 0
M  V30 2326 C 233.009 -1.14916 -2.00158 0
M  V30 2327 C 233.979 -0.0418149 -1.66047 0
M  V30 2328 O 235.164 -0.209793 -1.89643 0
M  V30 2329 C 232.304 -0.834307 -3.34863 0
M  V30 2330 C 231.417 -2.02234 -3.8174 0
M  V30 2331 C 230.552 -1.64664 -5.05034 0
M  V30 2332 C 229.591 -2.80033 -5.44286 0
M  V30 2333 N 228.728 -2.42843 -6.58765 0
M  V30 2334 H 233.568 -2.09403 -2.12025 0
M  V30 2335 H 231.105 -1.042 -1.0383 0
M  V30 2336 H 233.063 -0.632436 -4.12379 0
M  V30 2337 H 231.693 0.0736656 -3.22716 0
M  V30 2338 H 230.745 -2.33583 -3.00238 0
M  V30 2339 H 232.057 -2.88673 -4.06779 0
M  V30 2340 H 231.211 -1.4078 -5.9014 0
M  V30 2341 H 229.95 -0.753766 -4.8184 0
M  V30 2342 H 228.955 -3.04596 -4.57713 0
M  V30 2343 H 230.18 -3.69989 -5.6946 0
M  V30 2344 H 228.126 -1.56046 -6.3717 0
M  V30 2345 H 228.043 -3.22815 -6.83613 0
M  V30 2346 H 229.311 -2.22285 -7.47134 0
M  V30 2347 N 233.54 1.10788 -1.12088 0
M  V30 2348 C 234.956 1.34691 -0.856186 0
M  V30 2349 C 235.156 1.94791 0.515615 0
M  V30 2350 O 234.212 2.18524 1.26505 0
M  V30 2351 C 235.525 2.27208 -1.9697 0
M  V30 2352 C 237.073 2.40755 -2.00016 0
M  V30 2353 C 237.548 3.36598 -3.1059 0
M  V30 2354 N 239.039 3.44164 -3.10008 0
M  V30 2355 C 239.774 4.18284 -3.92206 0
M  V30 2356 N 239.27 4.95322 -4.84384 0
M  V30 2357 N 241.063 4.13865 -3.80357 0
M  V30 2358 H 233.214 0.70144 -2.00483 0
M  V30 2359 H 235.477 0.371405 -0.872217 0
M  V30 2360 H 235.183 1.90251 -2.958 0
M  V30 2361 H 235.057 3.27485 -1.87172 0
M  V30 2362 H 237.444 2.76982 -1.01808 0
M  V30 2363 H 237.525 1.40305 -2.13888 0
M  V30 2364 H 237.169 3.01096 -4.09028 0
M  V30 2365 H 237.099 4.36918 -2.93956 0
M  V30 2366 H 239.59 2.8922 -2.43228 0
M  V30 2367 H 239.903 5.49267 -5.43623 0
M  V30 2368 H 238.248 4.94459 -4.884 0
M  V30 2369 H 241.439 3.52773 -3.07683 0
M  V30 2370 H 241.612 4.71372 -4.44649 0
M  V30 2371 N 235.018 0.912232 1.28515 0
M  V30 2372 C 235.95 0.35676 2.26406 0
M  V30 2373 C 236.963 -0.503933 1.54804 0
M  V30 2374 O 238.152 -0.319059 1.75625 0
M  V30 2375 C 235.252 -0.508825 3.35058 0
M  V30 2376 C 234.425 0.329007 4.36161 0
M  V30 2377 C 233.484 -0.471422 5.24084 0
M  V30 2378 O 232.51 0.115482 5.69083 0
M  V30 2379 N 233.712 -1.77479 5.52704 0
M  V30 2380 H 236.477 1.19818 2.74707 0
M  V30 2381 H 234.038 0.778022 1.4198 0
M  V30 2382 H 236.03 -1.051 3.90815 0
M  V30 2383 H 234.6 -1.25095 2.86478 0
M  V30 2384 H 233.82 1.05256 3.79888 0
M  V30 2385 H 235.108 0.90234 5.00735 0
M  V30 2386 H 234.506 -2.27417 5.17975 0
M  V30 2387 H 233.063 -2.26382 6.11224 0
M  V30 2388 N 236.496 -1.42363 0.676048 0
M  V30 2389 C 237.426 -2.33497 0.0124832 0
M  V30 2390 C 238.407 -1.50748 -0.787981 0
M  V30 2391 O 239.592 -1.79346 -0.744884 0
M  V30 2392 C 236.722 -3.34377 -0.938582 0
M  V30 2393 C 235.676 -4.27289 -0.246622 0
M  V30 2394 C 235.002 -5.18386 -1.31071 0
M  V30 2395 C 236.302 -5.14916 0.875125 0
M  V30 2396 H 237.996 -2.89233 0.773593 0
M  V30 2397 H 235.542 -1.39073 0.37346 0
M  V30 2398 H 237.495 -3.97044 -1.41188 0
M  V30 2399 H 236.219 -2.76947 -1.73113 0
M  V30 2400 H 234.878 -3.66018 0.206456 0
M  V30 2401 H 234.526 -4.57282 -2.09528 0
M  V30 2402 H 234.226 -5.81378 -0.852839 0
M  V30 2403 H 235.75 -5.83929 -1.78492 0
M  V30 2404 H 237.164 -5.71262 0.482983 0
M  V30 2405 H 235.561 -5.86747 1.25887 0
M  V30 2406 H 236.631 -4.53242 1.72335 0
M  V30 2407 N 237.974 -0.419461 -1.51915 0
M  V30 2408 C 238.907 0.445751 -2.23804 0
M  V30 2409 C 239.885 1.03951 -1.25031 0
M  V30 2410 O 241.069 1.08541 -1.54114 0
M  V30 2411 C 238.196 1.61964 -2.97465 0
M  V30 2412 C 237.242 1.14828 -4.10751 0
M  V30 2413 S 238.075 0.104938 -5.35397 0
M  V30 2414 C 239.231 1.28391 -6.1259 0
M  V30 2415 H 239.464 -0.164627 -2.96844 0
M  V30 2416 H 236.997 -0.203833 -1.53049 0
M  V30 2417 H 238.955 2.29271 -3.40507 0
M  V30 2418 H 237.616 2.20139 -2.24048 0
M  V30 2419 H 236.809 2.02561 -4.61503 0
M  V30 2420 H 236.411 0.553712 -3.69878 0
M  V30 2421 H 238.703 2.20563 -6.40592 0
M  V30 2422 H 239.646 0.816724 -7.03374 0
M  V30 2423 H 240.054 1.51439 -5.43807 0
M  V30 2424 N 239.452 1.56882 -0.150215 0
M  V30 2425 C 240.68 2.00593 0.506948 0
M  V30 2426 C 241.095 1.03033 1.58208 0
M  V30 2427 O 240.452 0.0278396 1.82479 0
M  V30 2428 C 240.503 3.44209 1.10465 0
M  V30 2429 O 240.224 4.3804 0.0724636 0
M  V30 2430 C 241.725 4.03214 1.84211 0
M  V30 2431 H 238.945 0.65795 0.13169 0
M  V30 2432 H 241.489 2.03018 -0.245743 0
M  V30 2433 H 239.644 3.42625 1.80795 0
M  V30 2434 H 240.058 5.22007 0.510793 0
M  V30 2435 H 241.532 5.0569 2.21318 0
M  V30 2436 H 242.009 3.44107 2.72923 0
M  V30 2437 H 242.615 4.08437 1.18572 0
M  V30 2438 N 240.93 -0.123565 1.57115 0
M  V30 2439 C 241.878 -1.17082 2.00984 0
M  V30 2440 C 242.872 -1.43136 0.906009 0
M  V30 2441 O 244.078 -1.43152 1.09121 0
M  V30 2442 H 240.453 -0.394653 0.64012 0
M  V30 2443 H 242.424 -0.774292 2.88179 0
M  V30 2444 C 241.173 -2.49057 2.42623 0
M  V30 2445 H 240.496 -2.29846 3.27125 0
M  V30 2446 H 241.936 -3.20906 2.7712 0
M  V30 2447 C 240.395 -3.11305 1.28805 0
M  V30 2448 O 240.925 -3.97171 0.60153 0
M  V30 2449 N 239.131 -2.71111 1.04628 0
M  V30 2450 H 238.678 -2.01382 1.60634 0
M  V30 2451 H 238.636 -3.1309 0.286685 0
M  V30 2452 N 242.408 -1.52605 -0.393616 0
M  V30 2453 C 243.655 -1.67424 -1.1391 0
M  V30 2454 C 243.983 -0.411859 -1.90089 0
M  V30 2455 O 243.238 0.605626 -1.86093 0
M  V30 2456 C 243.537 -2.85721 -2.14705 0
M  V30 2457 C 243.203 -4.23342 -1.55218 0
M  V30 2458 C 241.865 -4.60771 -1.3872 0
M  V30 2459 C 244.217 -5.09041 -1.11924 0
M  V30 2460 C 241.545 -5.81563 -0.774689 0
M  V30 2461 C 243.897 -6.30452 -0.520853 0
M  V30 2462 C 242.561 -6.66617 -0.343134 0
M  V30 2463 H 241.831 -0.612648 -0.416826 0
M  V30 2464 H 244.478 -1.8674 -0.424315 0
M  V30 2465 H 242.783 -2.60803 -2.92385 0
M  V30 2466 H 244.48 -2.94382 -2.72288 0
M  V30 2467 H 241.07 -3.93855 -1.69045 0
M  V30 2468 H 245.254 -4.80695 -1.23473 0
M  V30 2469 H 240.51 -6.08196 -0.625154 0
M  V30 2470 H 244.684 -6.96175 -0.177065 0
M  V30 2471 H 242.311 -7.60083 0.133571 0
M  V30 2472 N 243.887 0.651787 -1.4349 0
M  V30 2473 C 245.136 1.40754 -1.44469 0
M  V30 2474 C 245.449 1.95463 -0.0731845 0
M  V30 2475 O 246.655 2.71471 0.0395721 0
M  V30 2476 C 245.111 2.54735 -2.5424 0
M  V30 2477 C 244.719 2.06628 -3.97504 0
M  V30 2478 C 246.463 3.32092 -2.64414 0
M  V30 2479 C 244.37 3.17829 -4.98737 0
M  V30 2480 H 243.3 0.528862 -0.53742 0
M  V30 2481 H 245.951 0.703365 -1.69485 0
M  V30 2482 H 244.333 3.2763 -2.22428 0
M  V30 2483 H 245.507 1.40734 -4.38783 0
M  V30 2484 H 243.822 1.42146 -3.91387 0
M  V30 2485 H 246.419 4.14952 -3.37223 0
M  V30 2486 H 246.762 3.80217 -1.69532 0
M  V30 2487 H 247.295 2.66279 -2.95534 0
M  V30 2488 H 244.034 2.74671 -5.95177 0
M  V30 2489 H 243.554 3.82429 -4.62069 0
M  V30 2490 H 245.233 3.82937 -5.21505 0
M  V30 2491 N 245.365 1.30045 0.890287 0
M  V30 2492 C 246.295 1.18541 2.01172 0
M  V30 2493 C 247.276 0.0773356 1.69924 0
M  V30 2494 O 248.461 0.25845 1.92473 0
M  V30 2495 C 245.591 0.870941 3.36202 0
M  V30 2496 C 244.545 1.93637 3.81692 0
M  V30 2497 C 243.871 1.475 5.13953 0
M  V30 2498 C 245.171 3.34666 4.00994 0
M  V30 2499 H 246.865 2.12359 2.11054 0
M  V30 2500 H 244.411 1.02238 1.01407 0
M  V30 2501 H 246.364 0.777141 4.14172 0
M  V30 2502 H 245.088 -0.102926 3.26438 0
M  V30 2503 H 243.747 2.01972 3.05946 0
M  V30 2504 H 243.395 0.489551 5.00612 0
M  V30 2505 H 243.095 2.1876 5.4536 0
M  V30 2506 H 244.619 1.39489 5.94454 0
M  V30 2507 H 246.033 3.2912 4.69417 0
M  V30 2508 H 244.43 4.03966 4.43769 0
M  V30 2509 H 245.5 3.76949 3.05021 0
M  V30 2510 N 246.843 -1.10192 1.12674 0
M  V30 2511 C 248.091 -1.81845 0.881861 0
M  V30 2512 C 248.412 -1.85737 -0.593867 0
M  V30 2513 O 247.682 -1.33724 -1.4316 0
M  V30 2514 H 246.262 -0.673432 0.323261 0
M  V30 2515 H 248.924 -1.33316 1.42172 0
M  V30 2516 H 248.02 -2.85288 1.2656 0
M  V30 2517 N 248.321 -0.919034 -1.28029 0
M  V30 2518 C 249.546 -0.570357 -1.99403 0
M  V30 2519 C 249.971 0.842486 -1.68178 0
M  V30 2520 O 249.329 1.56391 -0.917141 0
M  V30 2521 C 249.377 -0.792541 -3.51783 0
M  V30 2522 O 248.481 0.145988 -4.12142 0
M  V30 2523 H 247.822 -0.220555 -0.6263 0
M  V30 2524 H 250.352 -1.23592 -1.63053 0
M  V30 2525 H 250.362 -0.704708 -4.01868 0
M  V30 2526 H 249.037 -1.82247 -3.73844 0
M  V30 2527 H 247.614 0.00897528 -3.72899 0
M  V30 2528 N 249.799 1.42003 -0.683588 0
M  V30 2529 C 251.046 2.01413 -0.209514 0
M  V30 2530 C 251.374 1.54088 1.1869 0
M  V30 2531 O 250.629 0.737591 1.81268 0
M  V30 2532 C 250.928 3.56827 -0.202357 0
M  V30 2533 C 250.594 4.23617 -1.54464 0
M  V30 2534 C 249.256 4.41577 -1.91215 0
M  V30 2535 C 251.608 4.61178 -2.42826 0
M  V30 2536 C 248.936 4.9437 -3.15935 0
M  V30 2537 C 251.288 5.15355 -3.66867 0
M  V30 2538 C 249.952 5.31528 -4.03776 0
M  V30 2539 H 249.222 0.737023 -0.0766668 0
M  V30 2540 H 251.869 1.70067 -0.880312 0
M  V30 2541 H 250.174 3.87892 0.551969 0
M  V30 2542 H 251.871 4.00588 0.181793 0
M  V30 2543 H 248.461 4.10004 -1.24877 0
M  V30 2544 H 252.645 4.46968 -2.15717 0
M  V30 2545 H 247.901 5.05076 -3.44541 0
M  V30 2546 H 252.075 5.43402 -4.35531 0
M  V30 2547 H 249.702 5.72199 -5.00492 0
M  V30 2548 N 251.277 0.427512 1.51691 0
M  V30 2549 C 252.554 -0.201684 1.94557 0
M  V30 2550 C 252.934 -1.60981 1.36559 0
M  V30 2551 O 252.282 -2.21814 0.548702 0
M  V30 2552 C 252.492 -0.189394 3.48486 0
M  V30 2553 C 253.84 -0.39978 4.22714 0
M  V30 2554 O 254.864 -0.267945 3.55191 0
M  V30 2555 O 253.723 -0.661249 5.42485 0
M  V30 2556 H 250.817 -0.135261 0.815864 0
M  V30 2557 H 253.363 0.484782 1.62628 0
M  V30 2558 H 252.135 0.795431 3.8313 0
M  V30 2559 H 251.758 -0.919187 3.86829 0
M  V30 2560 N 252.755 -1.56801 0.158532 0
M  V30 2561 C 254.032 -1.88131 -0.535357 0
M  V30 2562 C 254.412 -1.06638 -1.82186 0
M  V30 2563 O 253.76 -0.156533 -2.27963 0
M  V30 2564 C 253.97 -3.39949 -0.789653 0
M  V30 2565 C 255.318 -4.09416 -1.12533 0
M  V30 2566 O 256.342 -3.45194 -0.878622 0
M  V30 2567 O 255.201 -5.22855 -1.59014 0
M  V30 2568 H 252.295 -0.780143 -0.27442 0
M  V30 2569 H 254.841 -1.68564 0.19601 0
M  V30 2570 H 253.613 -3.91115 0.120353 0
M  V30 2571 H 253.236 -3.65084 -1.57479 0
M  V30 2572 N 254.233 0.115231 -1.57178 0
M  V30 2573 C 255.463 0.835224 -1.88964 0
M  V30 2574 C 255.871 1.73774 -0.74829 0
M  V30 2575 O 255.214 1.81401 0.289739 0
M  V30 2576 C 255.276 1.7178 -3.15804 0
M  V30 2577 C 254.94 0.989198 -4.46166 0
M  V30 2578 C 255.937 0.328263 -5.18863 0
M  V30 2579 C 253.622 0.969256 -4.9286 0
M  V30 2580 C 255.616 -0.342873 -6.36477 0
M  V30 2581 C 253.303 0.294324 -6.10391 0
M  V30 2582 C 254.301 -0.360582 -6.82048 0
M  V30 2583 O 253.989 -1.02474 -7.97342 0
M  V30 2584 H 253.721 0.245197 -0.629964 0
M  V30 2585 H 256.275 0.10303 -2.05141 0
M  V30 2586 H 254.505 2.49173 -2.95719 0
M  V30 2587 H 256.194 2.31255 -3.33581 0
M  V30 2588 H 256.96 0.335263 -4.8384 0
M  V30 2589 H 252.839 1.46844 -4.36987 0
M  V30 2590 H 256.383 -0.854629 -6.92345 0
M  V30 2591 H 252.28 0.285099 -6.4487 0
M  V30 2592 H 253.048 -0.929594 -8.13204 0
M  V30 2593 N 255.711 1.52812 0.385517 0
M  V30 2594 C 256.936 1.72207 1.15583 0
M  V30 2595 C 257.361 0.441034 1.82857 0
M  V30 2596 O 256.719 -0.603465 1.70962 0
M  V30 2597 C 256.767 2.87476 2.17692 0
M  V30 2598 O 255.871 2.54693 3.24354 0
M  V30 2599 H 255.212 0.572526 0.336319 0
M  V30 2600 H 257.742 1.99618 0.448744 0
M  V30 2601 H 257.752 3.13072 2.6163 0
M  V30 2602 H 256.427 3.80408 1.68115 0
M  V30 2603 H 255.004 2.3985 2.85529 0
M  V30 2604 N 257.189 -0.644168 1.43834 0
M  V30 2605 C 258.414 -1.43642 1.49605 0
M  V30 2606 C 258.839 -1.8773 0.117913 0
M  V30 2607 O 258.197 -1.57938 -0.890239 0
M  V30 2608 C 258.245 -2.6416 2.45463 0
M  V30 2609 O 257.349 -3.63538 1.94714 0
M  V30 2610 H 256.69 -0.430329 0.50568 0
M  V30 2611 H 259.22 -0.787448 1.8884 0
M  V30 2612 H 259.23 -3.11864 2.63068 0
M  V30 2613 H 257.905 -2.31414 3.45572 0
M  V30 2614 H 256.482 -3.2273 1.86814 0
M  V30 2615 N 258.668 -1.30515 -0.883378 0
M  V30 2616 C 259.945 -1.10086 -1.6168 0
M  V30 2617 C 260.325 0.349269 -2.08191 0
M  V30 2618 O 259.673 1.34105 -1.85008 0
M  V30 2619 C 259.883 -2.10315 -2.78511 0
M  V30 2620 C 261.231 -2.42119 -3.48803 0
M  V30 2621 O 262.255 -2.08638 -2.88702 0
M  V30 2622 O 261.114 -2.99396 -4.57192 0
M  V30 2623 H 258.208 -0.422907 -0.710689 0
M  V30 2624 H 260.754 -1.41947 -0.930015 0
M  V30 2625 H 259.526 -3.07917 -2.41459 0
M  V30 2626 H 259.149 -1.79282 -3.54886 0
M  V30 2627 N 260.146 1.09593 -1.13257 0
M  V30 2628 C 261.056 2.19739 -0.821691 0
M  V30 2629 C 262.072 1.72926 0.19302 0
M  V30 2630 O 263.248 2.01385 0.0244895 0
M  V30 2631 C 260.313 3.45482 -0.290333 0
M  V30 2632 C 259.374 4.06985 -1.36607 0
M  V30 2633 C 258.607 5.26726 -0.859975 0
M  V30 2634 O 258.83 5.69594 0.303082 0
M  V30 2635 O 257.764 5.7931 -1.63351 0
M  V30 2636 H 261.59 2.48781 -1.74189 0
M  V30 2637 H 259.175 1.18496 -0.909894 0
M  V30 2638 H 261.057 4.214 0.000674022 0
M  V30 2639 H 259.732 3.18047 0.602306 0
M  V30 2640 H 258.639 3.32712 -1.71037 0
M  V30 2641 H 259.972 4.38643 -2.23279 0
M  V30 2642 N 261.624 0.925811 1.2754 0
M  V30 2643 C 262.901 0.483726 1.89524 0
M  V30 2644 C 263.281 -1.03809 1.83812 0
M  V30 2645 O 262.629 -1.89143 1.28207 0
M  V30 2646 C 262.839 1.02769 3.33526 0
M  V30 2647 C 264.187 1.08703 4.10449 0
M  V30 2648 O 265.211 0.977175 3.42534 0
M  V30 2649 O 264.07 1.25599 5.31871 0
M  V30 2650 H 261.164 0.15529 0.812289 0
M  V30 2651 H 263.71 1.01738 1.35822 0
M  V30 2652 H 262.482 2.07155 3.31967 0
M  V30 2653 H 262.105 0.475567 3.94746 0
M  V30 2654 N 263.102 -1.41638 0.69111 0
M  V30 2655 C 264.327 -2.06148 0.227583 0
M  V30 2656 C 264.752 -1.51652 -1.11281 0
M  V30 2657 O 264.11 -0.64164 -1.69566 0
M  V30 2658 C 264.158 -3.60095 0.190858 0
M  V30 2659 O 263.262 -4.03845 -0.835664 0
M  V30 2660 H 262.603 -0.654434 0.112306 0
M  V30 2661 H 265.133 -1.81484 0.944714 0
M  V30 2662 H 265.143 -4.07995 0.020207 0
M  V30 2663 H 263.818 -3.99129 1.16915 0
M  V30 2664 H 262.395 -3.67458 -0.63473 0
M  V30 2665 N 264.58 -0.43555 -1.51462 0
M  V30 2666 C 265.826 0.131709 -2.02372 0
M  V30 2667 C 266.159 1.42516 -1.3192 0
M  V30 2668 O 265.434 1.89606 -0.433573 0
M  V30 2669 C 265.717 0.352301 -3.58373 0
M  V30 2670 C 265.57 -0.959676 -4.39443 0
M  V30 2671 C 266.889 1.12286 -4.25535 0
M  V30 2672 H 264.008 0.0463936 -0.735538 0
M  V30 2673 H 266.65 -0.574197 -1.81116 0
M  V30 2674 H 264.8 0.9536 -3.76615 0
M  V30 2675 H 266.472 -1.59482 -4.32855 0
M  V30 2676 H 264.715 -1.56468 -4.04599 0
M  V30 2677 H 265.386 -0.759394 -5.46752 0
M  V30 2678 H 267.862 0.613545 -4.11552 0
M  V30 2679 H 266.738 1.24598 -5.34571 0
M  V30 2680 H 266.999 2.15048 -3.86273 0
M  V30 2681 N 266.058 1.56714 -0.166846 0
M  V30 2682 C 267.021 2.16539 0.751232 0
M  V30 2683 C 268.021 1.11228 1.16125 0
M  V30 2684 O 269.211 1.36765 1.07894 0
M  V30 2685 C 266.343 2.74462 2.02196 0
M  V30 2686 H 267.536 2.99013 0.230499 0
M  V30 2687 H 265.089 1.56081 0.0826982 0
M  V30 2688 H 265.824 1.95709 2.58589 0
M  V30 2689 H 265.609 3.51527 1.73698 0
M  V30 2690 H 267.099 3.20489 2.67725 0
M  V30 2691 N 267.536 -0.106894 1.57237 0
M  V30 2692 C 268.784 -0.810921 1.85117 0
M  V30 2693 C 269.105 -1.7984 0.753827 0
M  V30 2694 O 268.375 -1.94649 -0.221056 0
M  V30 2695 H 266.955 -0.302466 0.683025 0
M  V30 2696 H 269.617 -0.0913324 1.94686 0
M  V30 2697 H 268.713 -1.34875 2.81452 0
M  V30 2698 N 269.014 -1.53014 -0.377408 0
M  V30 2699 C 270.239 -1.72818 -1.14668 0
M  V30 2700 C 270.664 -0.450725 -1.8262 0
M  V30 2701 O 270.022 0.59439 -1.7128 0
M  V30 2702 C 270.07 -2.88627 -2.16164 0
M  V30 2703 O 269.174 -2.56409 -3.22998 0
M  V30 2704 H 268.515 -0.574301 -0.333278 0
M  V30 2705 H 271.045 -1.99853 -0.438152 0
M  V30 2706 H 271.055 -3.14455 -2.59966 0
M  V30 2707 H 269.73 -3.81294 -1.66095 0
M  V30 2708 H 268.307 -2.4136 -2.84253 0
M  V30 2709 N 270.492 0.636531 -1.44174 0
M  V30 2710 C 271.717 1.42847 -1.50364 0
M  V30 2711 C 272.142 1.87665 -0.127867 0
M  V30 2712 O 271.5 1.58408 0.88185 0
M  V30 2713 C 271.548 2.62854 -2.4686 0
M  V30 2714 O 270.652 3.62501 -1.9664 0
M  V30 2715 H 269.993 0.427642 -0.507955 0
M  V30 2716 H 272.523 0.777422 -1.89255 0
M  V30 2717 H 272.533 3.10465 -2.64718 0
M  V30 2718 H 271.208 2.29578 -3.46795 0
M  V30 2719 H 269.785 3.21735 -1.88523 0
M  V30 2720 N 271.97 1.30982 0.876444 0
M  V30 2721 C 273.386 1.09498 1.16113 0
M  V30 2722 C 273.586 -0.13875 2.01022 0
M  V30 2723 O 272.642 -0.829935 2.38471 0
M  V30 2724 C 273.955 2.36308 1.85954 0
M  V30 2725 C 275.503 2.41856 1.98683 0
M  V30 2726 C 275.978 3.6853 2.71937 0
M  V30 2727 N 277.469 3.69387 2.79477 0
M  V30 2728 C 278.204 4.64096 3.36753 0
M  V30 2729 N 277.7 5.69155 3.95012 0
M  V30 2730 N 279.493 4.51626 3.3465 0
M  V30 2731 H 271.644 2.10118 0.310494 0
M  V30 2732 H 273.907 0.926634 0.200131 0
M  V30 2733 H 273.613 3.26388 1.31011 0
M  V30 2734 H 273.487 2.4561 2.86278 0
M  V30 2735 H 275.874 1.52249 2.52793 0
M  V30 2736 H 275.955 2.36523 0.9742 0
M  V30 2737 H 275.599 4.58499 2.18496 0
M  V30 2738 H 275.529 3.71127 3.73593 0
M  V30 2739 H 278.02 2.93438 2.38123 0
M  V30 2740 H 278.333 6.3751 4.36808 0
M  V30 2741 H 276.678 5.72937 3.93406 0
M  V30 2742 H 279.869 3.68728 2.8837 0
M  V30 2743 H 280.042 5.25614 3.7899 0
M  V30 2744 N 273.449 -1.08991 1.13837 0
M  V30 2745 C 274.359 -2.19301 0.833333 0
M  V30 2746 C 275.375 -1.73026 -0.183847 0
M  V30 2747 O 276.551 -2.01395 -0.0138092 0
M  V30 2748 C 273.616 -3.45323 0.308651 0
M  V30 2749 C 272.677 -4.06255 1.38764 0
M  V30 2750 C 271.91 -5.26262 0.887896 0
M  V30 2751 O 272.133 -5.69747 -0.27287 0
M  V30 2752 O 271.067 -5.78435 1.66421 0
M  V30 2753 H 274.893 -2.47854 1.75506 0
M  V30 2754 H 272.478 -1.18012 0.916166 0
M  V30 2755 H 274.36 -4.21394 0.0216739 0
M  V30 2756 H 273.035 -3.18362 -0.585431 0
M  V30 2757 H 271.942 -3.318 1.72799 0
M  V30 2758 H 273.275 -4.37452 2.25602 0
M  V30 2759 N 274.927 -0.932562 -1.27047 0
M  V30 2760 C 276.152 -0.591474 -1.98787 0
M  V30 2761 C 276.577 0.824601 -1.69062 0
M  V30 2762 O 275.935 1.5541 -0.933677 0
M  V30 2763 C 275.983 -0.829808 -3.50922 0
M  V30 2764 O 275.087 0.102266 -4.12273 0
M  V30 2765 H 274.428 -0.227185 -0.623926 0
M  V30 2766 H 276.958 -1.25314 -1.61733 0
M  V30 2767 H 276.968 -0.747292 -4.01098 0
M  V30 2768 H 275.643 -1.86201 -3.7189 0
M  V30 2769 H 274.22 -0.0305761 -3.72887 0
M  V30 2770 N 276.405 1.4127 -0.698611 0
M  V30 2771 C 277.633 2.05503 -0.239992 0
M  V30 2772 C 278.048 1.52584 1.11191 0
M  V30 2773 O 277.405 0.675323 1.69545 0
M  V30 2774 C 277.456 3.60987 -0.192429 0
M  V30 2775 O 277.177 4.1195 -1.49094 0
M  V30 2776 C 278.678 4.42371 0.28681 0
M  V30 2777 H 275.898 0.661748 -0.111045 0
M  V30 2778 H 278.442 1.80987 -0.95205 0
M  V30 2779 H 276.597 3.84533 0.470472 0
M  V30 2780 H 277.011 5.06018 -1.38007 0
M  V30 2781 H 278.485 5.51344 0.26896 0
M  V30 2782 H 278.962 4.18699 1.32619 0
M  V30 2783 H 279.568 4.23897 -0.345201 0
M  V30 2784 N 277.883 0.443576 1.51229 0
M  V30 2785 C 279.299 0.0962001 1.5931 0
M  V30 2786 C 279.499 -1.39501 1.45402 0
M  V30 2787 O 278.555 -2.16557 1.29843 0
M  V30 2788 C 279.868 0.621875 2.94199 0
M  V30 2789 C 281.416 0.582865 3.07525 0
M  V30 2790 C 281.891 1.08562 4.44948 0
M  V30 2791 N 283.382 1.04387 4.51284 0
M  V30 2792 C 284.117 1.40368 5.55954 0
M  V30 2793 N 283.613 1.83664 6.68011 0
M  V30 2794 N 285.406 1.32145 5.46346 0
M  V30 2795 H 277.557 1.41376 1.58514 0
M  V30 2796 H 279.82 0.582965 0.747567 0
M  V30 2797 H 279.526 1.66546 3.09767 0
M  V30 2798 H 279.4 0.0502125 3.77167 0
M  V30 2799 H 281.787 -0.451749 2.91622 0
M  V30 2800 H 281.868 1.191 2.26382 0
M  V30 2801 H 281.512 2.11873 4.61598 0
M  V30 2802 H 281.442 0.453956 5.2464 0
M  V30 2803 H 283.933 0.725986 3.70861 0
M  V30 2804 H 284.246 2.0934 7.43906 0
M  V30 2805 H 282.591 1.87596 6.69203 0
M  V30 2806 H 285.782 0.981808 4.57688 0
M  V30 2807 H 285.955 1.60514 6.27805 0
M  V30 2808 N 279.361 -1.56624 0.175154 0
M  V30 2809 C 280.308 -2.18149 -0.753634 0
M  V30 2810 C 281.278 -1.12265 -1.22417 0
M  V30 2811 O 282.463 -1.40432 -1.29165 0
M  V30 2812 C 279.603 -2.82933 -1.97592 0
M  V30 2813 C 278.716 -4.03289 -1.5486 0
M  V30 2814 C 277.851 -4.55988 -2.72485 0
M  V30 2815 C 276.89 -5.68746 -2.26262 0
M  V30 2816 N 276.027 -6.15938 -3.36994 0
M  V30 2817 H 280.867 -2.9717 -0.222195 0
M  V30 2818 H 278.404 -1.46774 -0.0979422 0
M  V30 2819 H 280.362 -3.18653 -2.69288 0
M  V30 2820 H 278.992 -2.06509 -2.481 0
M  V30 2821 H 278.044 -3.73364 -0.728246 0
M  V30 2822 H 279.356 -4.849 -1.16933 0
M  V30 2823 H 278.51 -4.9391 -3.52332 0
M  V30 2824 H 277.249 -3.73443 -3.13674 0
M  V30 2825 H 276.254 -5.30372 -1.44863 0
M  V30 2826 H 277.479 -6.53095 -1.86127 0
M  V30 2827 H 275.425 -5.36321 -3.77751 0
M  V30 2828 H 275.342 -6.92548 -3.03172 0
M  V30 2829 H 276.61 -6.58511 -4.17114 0
M  V30 2830 N 280.839 0.0985539 -1.57292 0
M  V30 2831 C 282.087 0.801092 -1.85545 0
M  V30 2832 C 282.408 1.79438 -0.763353 0
M  V30 2833 O 281.678 1.94763 0.21073 0
M  V30 2834 H 280.258 0.29884 -0.684619 0
M  V30 2835 H 282.92 0.0810064 -1.94732 0
M  V30 2836 H 282.016 1.3338 -2.82163 0
M  V30 2837 N 282.317 1.53212 0.369288 0
M  V30 2838 C 283.542 1.73423 1.1375 0
M  V30 2839 C 283.967 0.460404 1.82378 0
M  V30 2840 O 283.325 -0.585298 1.71592 0
M  V30 2841 C 283.373 2.89769 2.1463 0
M  V30 2842 O 282.477 2.58119 3.21634 0
M  V30 2843 H 281.818 0.576061 0.330227 0
M  V30 2844 H 284.348 2.00083 0.427547 0
M  V30 2845 H 284.358 3.15829 2.58294 0
M  V30 2846 H 283.033 3.8217 1.64071 0
M  V30 2847 H 281.61 2.42864 2.82969 0
M  V30 2848 N 283.795 -0.628877 1.44509 0
M  V30 2849 C 285.211 -0.947305 1.28446 0
M  V30 2850 C 285.411 -2.00275 0.221872 0
M  V30 2851 O 284.467 -2.49447 -0.391471 0
M  V30 2852 C 285.78 -1.40843 2.65676 0
M  V30 2853 C 287.328 -1.52379 2.73404 0
M  V30 2854 C 287.803 -2.01875 4.11109 0
M  V30 2855 N 289.294 -2.09142 4.13296 0
M  V30 2856 C 290.029 -2.48615 5.16699 0
M  V30 2857 N 289.525 -2.87209 6.30462 0
M  V30 2858 N 291.318 -2.48768 5.04054 0
M  V30 2859 H 283.469 0.0690977 2.12288 0
M  V30 2860 H 285.732 -0.0317164 0.947469 0
M  V30 2861 H 285.438 -0.707206 3.44516 0
M  V30 2862 H 285.312 -2.37902 2.92716 0
M  V30 2863 H 287.699 -2.21598 1.9488 0
M  V30 2864 H 287.78 -0.536898 2.50102 0
M  V30 2865 H 287.424 -1.3325 4.90109 0
M  V30 2866 H 287.354 -3.0144 4.31789 0
M  V30 2867 H 289.845 -1.81991 3.31191 0
M  V30 2868 H 290.158 -3.16149 7.05174 0
M  V30 2869 H 288.503 -2.84955 6.33897 0
M  V30 2870 H 291.694 -2.18009 4.14234 0
M  V30 2871 H 291.867 -2.79207 5.84763 0
M  V30 2872 N 285.273 -1.31445 -0.869486 0
M  V30 2873 C 286.236 -1.19094 -1.9583 0
M  V30 2874 C 287.236 -0.117906 -1.60367 0
M  V30 2875 O 288.426 -0.367208 -1.70286 0
M  V30 2876 C 285.558 -0.828165 -3.30688 0
M  V30 2877 H 286.751 -2.15842 -2.08212 0
M  V30 2878 H 284.304 -1.15063 -1.05784 0
M  V30 2879 H 285.039 0.138142 -3.24006 0
M  V30 2880 H 284.824 -1.6038 -3.578 0
M  V30 2881 H 286.314 -0.765658 -4.10521 0
M  V30 2882 N 286.751 1.08385 -1.14413 0
M  V30 2883 C 287.976 1.85057 -0.936413 0
M  V30 2884 C 288.401 1.81055 0.509971 0
M  V30 2885 O 287.759 1.1958 1.36273 0
M  V30 2886 C 287.807 3.30505 -1.44217 0
M  V30 2887 O 286.911 4.07491 -0.634409 0
M  V30 2888 H 286.252 0.573425 -0.334784 0
M  V30 2889 H 288.782 1.36799 -1.52142 0
M  V30 2890 H 288.792 3.81348 -1.45043 0
M  V30 2891 H 287.467 3.32734 -2.49522 0
M  V30 2892 H 286.044 3.66368 -0.694902 0
M  V30 2893 N 288.23 0.939286 1.26551 0
M  V30 2894 C 289.16 0.465044 2.28822 0
M  V30 2895 C 290.141 -0.480692 1.63167 0
M  V30 2896 O 291.326 -0.382955 1.90387 0
M  V30 2897 C 288.456 -0.27234 3.46231 0
M  V30 2898 C 287.41 0.58666 4.2396 0
M  V30 2899 C 286.736 -0.280573 5.33963 0
M  V30 2900 C 288.036 1.85704 4.88171 0
M  V30 2901 H 289.73 1.31979 2.68741 0
M  V30 2902 H 287.276 0.636061 1.29191 0
M  V30 2903 H 289.229 -0.615133 4.16886 0
M  V30 2904 H 287.953 -1.16121 3.0526 0
M  V30 2905 H 286.612 0.91232 3.55067 0
M  V30 2906 H 286.26 -1.16874 4.89234 0
M  V30 2907 H 285.96 0.29076 5.8688 0
M  V30 2908 H 287.484 -0.618678 6.07458 0
M  V30 2909 H 288.898 1.58161 5.51052 0
M  V30 2910 H 287.295 2.37279 5.51197 0
M  V30 2911 H 288.365 2.56957 4.11219 0
M  V30 2912 N 289.708 -1.40897 0.706093 0
M  V30 2913 C 290.956 -2.00657 0.241054 0
M  V30 2914 C 291.277 -1.56241 -1.16678 0
M  V30 2915 O 290.547 -0.79765 -1.78926 0
M  V30 2916 H 289.127 -0.742018 0.0861308 0
M  V30 2917 H 291.789 -1.72372 0.909604 0
M  V30 2918 H 290.885 -3.10958 0.266705 0
M  V30 2919 N 291.186 -0.45159 -1.50991 0
M  V30 2920 C 292.149 0.341117 -2.26647 0
M  V30 2921 C 293.149 0.937422 -1.30649 0
M  V30 2922 O 294.339 0.809644 -1.54241 0
M  V30 2923 C 291.471 1.48398 -3.06905 0
M  V30 2924 H 292.664 -0.322117 -2.98165 0
M  V30 2925 H 290.217 -0.205122 -1.54948 0
M  V30 2926 H 290.952 2.18284 -2.39838 0
M  V30 2927 H 290.737 1.06241 -3.77432 0
M  V30 2928 H 292.227 2.04367 -3.64176 0
M  V30 2929 N 292.664 1.56529 -0.183458 0
M  V30 2930 C 293.594 2.21549 0.737456 0
M  V30 2931 C 294.575 1.17489 1.23005 0
M  V30 2932 O 295.76 1.45959 1.281 0
M  V30 2933 C 292.89 2.86575 1.96194 0
M  V30 2934 C 291.844 3.96778 1.60473 0
M  V30 2935 C 291.17 4.48911 2.90487 0
M  V30 2936 C 292.47 5.15767 0.823497 0
M  V30 2937 H 294.164 2.98761 0.195453 0
M  V30 2938 H 291.71 1.43702 0.0925686 0
M  V30 2939 H 293.663 3.30739 2.61131 0
M  V30 2940 H 292.387 2.06749 2.52828 0
M  V30 2941 H 291.046 3.53286 0.978997 0
M  V30 2942 H 290.694 3.65862 3.45186 0
M  V30 2943 H 290.394 5.23265 2.67335 0
M  V30 2944 H 291.918 4.95771 3.56432 0
M  V30 2945 H 293.332 5.56549 1.37571 0
M  V30 2946 H 291.729 5.96114 0.690551 0
M  V30 2947 H 292.799 4.84574 -0.177782 0
M  V30 2948 N 294.142 -0.090211 1.57342 0
M  V30 2949 C 295.367 -0.810082 1.90925 0
M  V30 2950 C 295.792 -1.71248 0.778187 0
M  V30 2951 O 295.15 -1.79278 -0.269991 0
M  V30 2952 C 295.198 -1.59529 3.23393 0
M  V30 2953 O 294.302 -2.70461 3.11327 0
M  V30 2954 H 293.643 -0.222231 0.625707 0
M  V30 2955 H 296.173 -0.0639716 2.045 0
M  V30 2956 H 296.183 -1.97847 3.5682 0
M  V30 2957 H 294.858 -0.933055 4.05299 0
M  V30 2958 H 293.435 -2.35135 2.89423 0
M  V30 2959 N 295.62 -1.53406 -0.361157 0
M  V30 2960 C 296.55 -1.83136 -1.44857 0
M  V30 2961 C 297.531 -0.685174 -1.5569 0
M  V30 2962 O 298.716 -0.93544 -1.70186 0
M  V30 2963 C 295.846 -2.02522 -2.82138 0
M  V30 2964 C 294.8 -3.18302 -2.86126 0
M  V30 2965 C 294.126 -3.22989 -4.26125 0
M  V30 2966 C 295.426 -4.56796 -2.53248 0
M  V30 2967 H 297.12 -2.74201 -1.20226 0
M  V30 2968 H 294.666 -1.31938 -0.576922 0
M  V30 2969 H 296.619 -2.21904 -3.58241 0
M  V30 2970 H 295.343 -1.08172 -3.08166 0
M  V30 2971 H 294.002 -2.98747 -2.12475 0
M  V30 2972 H 293.65 -2.26267 -4.49235 0
M  V30 2973 H 293.35 -4.00781 -4.29708 0
M  V30 2974 H 294.874 -3.44559 -5.04094 0
M  V30 2975 H 296.288 -4.7631 -3.19064 0
M  V30 2976 H 294.685 -5.36862 -2.68141 0
M  V30 2977 H 295.755 -4.61606 -1.48484 0
M  V30 2978 N 297.098 0.621204 -1.44841 0
M  V30 2979 C 298.008 1.7612 -1.5498 0
M  V30 2980 C 299.024 1.68477 -0.434927 0
M  V30 2981 O 300.2 1.89076 -0.693693 0
M  V30 2982 C 297.265 3.1254 -1.50065 0
M  V30 2983 C 296.326 3.31741 -2.72482 0
M  V30 2984 C 295.559 4.61653 -2.67792 0
M  V30 2985 O 295.782 5.431 -1.74352 0
M  V30 2986 O 294.716 4.83271 -3.58794 0
M  V30 2987 H 298.542 1.70518 -2.51311 0
M  V30 2988 H 296.127 0.783643 -1.27198 0
M  V30 2989 H 298.009 3.93844 -1.49882 0
M  V30 2990 H 296.684 3.18663 -0.568806 0
M  V30 2991 H 295.591 2.50077 -2.7823 0
M  V30 2992 H 296.924 3.30486 -3.64746 0
M  V30 2993 N 298.576 1.31904 0.862503 0
M  V30 2994 C 299.539 1.20131 1.95195 0
M  V30 2995 C 300.539 0.126409 1.60302 0
M  V30 2996 O 301.729 0.376234 1.70089 0
M  V30 2997 C 298.861 0.845691 3.30244 0
M  V30 2998 H 300.054 2.16943 2.07064 0
M  V30 2999 H 297.607 1.15622 1.05172 0
M  V30 3000 H 298.342 -0.120957 3.24074 0
M  V30 3001 H 298.127 1.62276 3.56944 0
M  V30 3002 H 299.617 0.787418 4.10109 0
M  V30 3003 N 300.054 -1.07777 1.14986 0
M  V30 3004 C 301.284 -1.83752 0.944402 0
M  V30 3005 C 301.692 -1.8218 -0.51058 0
M  V30 3006 O 301.035 -1.22852 -1.36576 0
M  V30 3007 C 301.097 -3.32128 1.37592 0
M  V30 3008 C 300.761 -3.57425 2.84775 0
M  V30 3009 C 301.758 -3.5173 3.8286 0
M  V30 3010 C 299.443 -3.8523 3.2234 0
M  V30 3011 C 301.437 -3.73482 5.16517 0
M  V30 3012 C 299.124 -4.06634 4.56171 0
M  V30 3013 C 300.122 -4.00754 5.53069 0
M  V30 3014 O 299.81 -4.2159 6.84483 0
M  V30 3015 H 299.542 -0.58673 0.335744 0
M  V30 3016 H 302.096 -1.36982 1.53052 0
M  V30 3017 H 300.326 -3.79686 0.733165 0
M  V30 3018 H 302.015 -3.89555 1.14024 0
M  V30 3019 H 302.781 -3.30256 3.55184 0
M  V30 3020 H 298.66 -3.88923 2.47508 0
M  V30 3021 H 302.204 -3.68808 5.92137 0
M  V30 3022 H 298.101 -4.27593 4.83564 0
M  V30 3023 H 298.869 -4.38961 6.90837 0
M  V30 3024 N 301.532 -0.945985 -1.26051 0
M  V30 3025 C 302.462 -0.477172 -2.28572 0
M  V30 3026 C 303.443 0.472032 -1.63419 0
M  V30 3027 O 304.628 0.372853 -1.90587 0
M  V30 3028 C 301.758 0.253975 -3.4637 0
M  V30 3029 C 300.712 -0.609135 -4.23643 0
M  V30 3030 C 300.038 0.252252 -5.34105 0
M  V30 3031 C 301.338 -1.8829 -4.8718 0
M  V30 3032 H 303.032 -1.33402 -2.68038 0
M  V30 3033 H 300.578 -0.642904 -1.28852 0
M  V30 3034 H 302.531 0.593016 -4.17207 0
M  V30 3035 H 301.255 1.145 -3.05871 0
M  V30 3036 H 299.914 -0.931138 -3.54578 0
M  V30 3037 H 299.562 1.14278 -4.89846 0
M  V30 3038 H 299.262 -0.32188 -5.86718 0
M  V30 3039 H 300.786 0.586454 -6.07777 0
M  V30 3040 H 302.2 -1.61081 -5.50205 0
M  V30 3041 H 300.597 -2.40199 -5.49931 0
M  V30 3042 H 301.667 -2.59134 -4.09851 0
M  V30 3043 N 303.011 1.40521 -0.713556 0
M  V30 3044 C 304.239 2.05237 -0.261775 0
M  V30 3045 C 304.654 1.53755 1.09567 0
M  V30 3046 O 304.011 0.693268 1.6882 0
M  V30 3047 C 304.062 3.60763 -0.230706 0
M  V30 3048 O 303.783 4.10345 -1.53455 0
M  V30 3049 C 305.284 4.42651 0.239874 0
M  V30 3050 H 302.504 0.660533 -0.118057 0
M  V30 3051 H 305.048 1.79967 -0.971192 0
M  V30 3052 H 303.203 3.8501 0.429661 0
M  V30 3053 H 303.617 5.04526 -1.43366 0
M  V30 3054 H 305.091 5.51599 0.210468 0
M  V30 3055 H 305.568 4.20082 1.28171 0
M  V30 3056 H 306.174 4.23507 -0.390142 0
M  V30 3057 N 304.489 0.459591 1.5075 0
M  V30 3058 C 305.717 -0.0973749 2.06671 0
M  V30 3059 C 306.132 -1.34524 1.32472 0
M  V30 3060 O 305.489 -1.7827 0.390634 0
M  V30 3061 C 305.54 -0.39714 3.59312 0
M  V30 3062 O 305.261 0.801214 4.30711 0
M  V30 3063 C 306.762 -1.00234 4.31819 0
M  V30 3064 H 303.982 0.00195854 0.670997 0
M  V30 3065 H 306.526 0.645072 1.94059 0
M  V30 3066 H 304.681 -1.08951 3.71764 0
M  V30 3067 H 305.095 0.538857 5.21725 0
M  V30 3068 H 306.569 -1.16193 5.39632 0
M  V30 3069 H 307.046 -1.98939 3.91561 0
M  V30 3070 H 307.652 -0.348699 4.23868 0
M  V30 3071 N 305.967 -1.56429 0.191757 0
M  V30 3072 C 307.215 -1.97095 -0.447006 0
M  V30 3073 C 307.536 -1.07967 -1.62383 0
M  V30 3074 O 306.806 -0.150248 -1.95323 0
M  V30 3075 H 305.386 -0.727832 -0.168135 0
M  V30 3076 H 308.048 -1.92911 0.27771 0
M  V30 3077 H 307.144 -3.01848 -0.793371 0
M  V30 3078 N 307.445 0.0818655 -1.57387 0
M  V30 3079 C 308.355 1.11642 -2.06333 0
M  V30 3080 C 309.371 1.43033 -0.99083 0
M  V30 3081 O 310.547 1.53411 -1.30488 0
M  V30 3082 C 307.612 2.41342 -2.48907 0
M  V30 3083 C 306.673 2.17014 -3.7041 0
M  V30 3084 C 305.906 3.4053 -4.10944 0
M  V30 3085 O 306.129 4.4927 -3.51444 0
M  V30 3086 O 305.063 3.29336 -5.03807 0
M  V30 3087 H 308.889 0.730657 -2.9478 0
M  V30 3088 H 306.474 0.295301 -1.46452 0
M  V30 3089 H 308.356 3.17691 -2.76858 0
M  V30 3090 H 307.031 2.79319 -1.63593 0
M  V30 3091 H 305.938 1.38403 -3.47556 0
M  V30 3092 H 307.271 1.83923 -4.56545 0
M  V30 3093 N 308.923 1.53595 0.353017 0
M  V30 3094 C 309.886 1.80232 1.41594 0
M  V30 3095 C 310.886 0.673081 1.46035 0
M  V30 3096 O 312.076 0.941335 1.46576 0
M  V30 3097 C 309.208 1.93578 2.80607 0
M  V30 3098 H 310.401 2.75174 1.19244 0
M  V30 3099 H 307.954 1.44864 0.586872 0
M  V30 3100 H 308.689 1.00746 3.08254 0
M  V30 3101 H 308.474 2.75724 2.78781 0
M  V30 3102 H 309.964 2.15735 3.57558 0
M  V30 3103 N 310.401 -0.613514 1.45168 0
M  V30 3104 C 311.311 -1.75296 1.55912 0
M  V30 3105 C 312.327 -1.68244 0.443856 0
M  V30 3106 O 313.503 -1.88706 0.70371 0
M  V30 3107 C 310.568 -3.1174 1.5172 0
M  V30 3108 C 309.629 -3.30291 2.74238 0
M  V30 3109 C 308.862 -4.60226 2.70236 0
M  V30 3110 O 309.085 -5.42168 1.77229 0
M  V30 3111 O 308.019 -4.81361 3.61352 0
M  V30 3112 H 311.845 -1.69183 2.52212 0
M  V30 3113 H 309.43 -0.776886 1.27612 0
M  V30 3114 H 311.312 -3.93044 1.51968 0
M  V30 3115 H 309.987 -3.18357 0.585697 0
M  V30 3116 H 308.894 -2.48598 2.79553 0
M  V30 3117 H 310.227 -3.28547 3.66494 0
M  V30 3118 N 311.879 -1.3236 -0.855495 0
M  V30 3119 C 313.107 -1.2587 -1.64208 0
M  V30 3120 C 313.522 0.173457 -1.88002 0
M  V30 3121 O 312.879 1.11027 -1.44842 0
M  V30 3122 C 312.93 -2.01424 -3.00184 0
M  V30 3123 O 312.651 -3.39051 -2.77445 0
M  V30 3124 C 314.152 -2.01948 -3.94629 0
M  V30 3125 H 311.372 -0.434318 -0.511477 0
M  V30 3126 H 313.916 -1.74469 -1.0668 0
M  V30 3127 H 312.071 -1.56549 -3.5436 0
M  V30 3128 H 312.485 -3.77711 -3.63916 0
M  V30 3129 H 313.959 -2.59297 -4.87308 0
M  V30 3130 H 314.436 -1.00554 -4.27534 0
M  V30 3131 H 315.042 -2.46767 -3.4639 0
M  V30 3132 N 313.357 1.07166 -1.15556 0
M  V30 3133 C 314.773 1.31899 -0.898603 0
M  V30 3134 C 314.973 1.96333 0.453383 0
M  V30 3135 O 314.029 2.22438 1.19489 0
M  V30 3136 C 315.342 2.20826 -2.04099 0
M  V30 3137 C 316.89 2.34269 -2.07574 0
M  V30 3138 C 317.365 3.26546 -3.21141 0
M  V30 3139 N 318.856 3.34127 -3.20801 0
M  V30 3140 C 319.591 4.05595 -4.05315 0
M  V30 3141 N 319.087 4.79661 -4.99897 0
M  V30 3142 N 320.88 4.01555 -3.93332 0
M  V30 3143 H 313.031 0.637302 -2.02613 0
M  V30 3144 H 315.294 0.343468 -0.883591 0
M  V30 3145 H 315 1.80744 -3.01703 0
M  V30 3146 H 314.874 3.21364 -1.97496 0
M  V30 3147 H 317.261 2.73603 -1.10568 0
M  V30 3148 H 317.342 1.33429 -2.18244 0
M  V30 3149 H 316.986 2.87931 -4.184 0
M  V30 3150 H 316.916 4.27345 -3.07708 0
M  V30 3151 H 319.407 2.81336 -2.52306 0
M  V30 3152 H 319.72 5.31694 -5.60822 0
M  V30 3153 H 318.065 4.78671 -5.03884 0
M  V30 3154 H 321.256 3.42806 -3.18751 0
M  V30 3155 H 321.429 4.56987 -4.5942 0
M  V30 3156 N 314.835 0.952656 1.25548 0
M  V30 3157 C 316.081 0.607272 1.93494 0
M  V30 3158 C 316.414 -0.853245 1.74452 0
M  V30 3159 O 315.689 -1.61194 1.08843 0
M  V30 3160 C 315.972 0.96435 3.46947 0
M  V30 3161 C 315.825 2.48045 3.75225 0
M  V30 3162 C 317.144 0.487987 4.37386 0
M  V30 3163 H 314.263 0.222096 0.702739 0
M  V30 3164 H 316.905 1.18895 1.48203 0
M  V30 3165 H 315.055 0.469361 3.85654 0
M  V30 3166 H 316.727 3.04905 3.46166 0
M  V30 3167 H 314.97 2.919 3.209 0
M  V30 3168 H 315.641 2.6808 4.82532 0
M  V30 3169 H 318.117 0.912558 4.0597 0
M  V30 3170 H 316.993 0.766547 5.43521 0
M  V30 3171 H 317.254 -0.612063 4.37843 0
M  V30 3172 N 316.313 -1.40141 0.720998 0
M  V30 3173 C 317.724 -1.83678 0.334553 0
M  V30 3174 C 318.075 -1.6027 -1.13173 0
M  V30 3175 O 317.2 -1.08643 -1.87152 0
M  V30 3176 C 317.795 -3.33437 0.600437 0
M  V30 3177 C 316.354 -3.75447 0.267642 0
M  V30 3178 C 315.501 -2.63296 0.870097 0
M  V30 3179 H 318.452 -1.29331 0.919732 0
M  V30 3180 H 318.473 -3.80269 -0.132517 0
M  V30 3181 H 317.985 -3.50442 1.66768 0
M  V30 3182 H 316.086 -3.64035 -0.794329 0
M  V30 3183 H 316.199 -4.73344 0.74042 0
M  V30 3184 H 314.563 -2.52954 0.297739 0
M  V30 3185 H 315.346 -2.83112 1.94172 0
M  V30 3186 N 317.792 -0.46758 -1.50504 0
M  V30 3187 C 319.02 0.0864133 -2.06719 0
M  V30 3188 C 319.435 1.33819 -1.33184 0
M  V30 3189 O 318.792 1.78061 -0.400083 0
M  V30 3190 C 318.843 0.378079 -3.59517 0
M  V30 3191 O 318.564 -0.824044 -4.3028 0
M  V30 3192 C 320.065 0.979426 -4.32345 0
M  V30 3193 H 317.285 -0.00551697 -0.670977 0
M  V30 3194 H 319.829 -0.655354 -1.93715 0
M  V30 3195 H 317.984 1.06977 -3.72337 0
M  V30 3196 H 318.398 -0.566518 -5.21432 0
M  V30 3197 H 319.872 1.1333 -5.40241 0
M  V30 3198 H 320.349 1.9686 -3.9261 0
M  V30 3199 H 320.955 0.326216 -4.24047 0
M  V30 3200 N 319.27 1.56325 -0.20005 0
M  V30 3201 C 320.203 2.15234 0.758267 0
M  V30 3202 C 321.181 1.09046 1.20614 0
M  V30 3203 O 322.365 1.37186 1.29276 0
M  V30 3204 C 319.492 2.71524 2.02466 0
M  V30 3205 C 318.538 3.90345 1.71852 0
M  V30 3206 S 319.371 5.28513 0.862249 0
M  V30 3207 C 320.527 5.88227 2.13868 0
M  V30 3208 H 320.76 2.96183 0.2575 0
M  V30 3209 H 318.293 1.54393 0.0150099 0
M  V30 3210 H 320.251 3.04598 2.75191 0
M  V30 3211 H 318.912 1.90607 2.49655 0
M  V30 3212 H 318.105 4.28158 2.65888 0
M  V30 3213 H 317.707 3.58306 1.07205 0
M  V30 3214 H 319.999 6.02891 3.09076 0
M  V30 3215 H 320.942 6.84714 1.80479 0
M  V30 3216 H 321.35 5.16874 2.2694 0
M  V30 3217 N 320.748 -0.0735177 1.57428 0
M  V30 3218 C 322.164 -0.428264 1.53747 0
M  V30 3219 C 322.364 -1.79272 0.91998 0
M  V30 3220 O 321.42 -2.47051 0.521745 0
M  V30 3221 C 322.733 -0.370914 2.98404 0
M  V30 3222 C 324.281 -0.451224 3.0973 0
M  V30 3223 C 324.756 -0.4238 4.56035 0
M  V30 3224 N 326.247 -0.483925 4.60665 0
M  V30 3225 C 326.982 -0.484891 5.71346 0
M  V30 3226 N 326.478 -0.440775 6.91396 0
M  V30 3227 N 328.271 -0.531319 5.59583 0
M  V30 3228 H 320.422 0.819949 1.95935 0
M  V30 3229 H 322.685 0.307493 0.896745 0
M  V30 3230 H 322.391 0.564956 3.47133 0
M  V30 3231 H 322.265 -1.18176 3.5821 0
M  V30 3232 H 324.652 -1.37752 2.60976 0
M  V30 3233 H 324.733 0.388167 2.52838 0
M  V30 3234 H 324.377 0.498638 5.05446 0
M  V30 3235 H 324.307 -1.2807 5.10789 0
M  V30 3236 H 326.798 -0.522338 3.74273 0
M  V30 3237 H 327.111 -0.44539 7.71515 0
M  V30 3238 H 325.456 -0.40749 6.93804 0
M  V30 3239 H 328.647 -0.563464 4.64696 0
M  V30 3240 H 328.82 -0.528603 6.4584 0
M  V30 3241 N 322.226 -1.5378 -0.344866 0
M  V30 3242 C 323.637 -1.62428 -0.920552 0
M  V30 3243 C 323.988 -0.504747 -1.89596 0
M  V30 3244 O 323.113 0.365711 -2.13287 0
M  V30 3245 C 323.708 -2.94419 -1.67639 0
M  V30 3246 C 322.267 -3.05333 -2.20111 0
M  V30 3247 C 321.414 -2.57866 -1.01982 0
M  V30 3248 H 324.365 -1.58222 -0.123042 0
M  V30 3249 H 324.386 -2.83384 -2.53917 0
M  V30 3250 H 323.898 -3.7588 -0.966224 0
M  V30 3251 H 321.999 -2.28502 -2.94308 0
M  V30 3252 H 322.112 -4.10778 -2.46573 0
M  V30 3253 H 320.476 -2.13241 -1.39285 0
M  V30 3254 H 321.259 -3.41765 -0.324308 0
M  V30 3255 N 323.704 0.605807 -1.45491 0
M  V30 3256 C 324.929 1.39625 -1.53361 0
M  V30 3257 C 325.354 1.87351 -0.167645 0
M  V30 3258 O 324.712 1.60243 0.848051 0
M  V30 3259 C 324.76 2.57559 -2.5238 0
M  V30 3260 O 323.864 3.58248 -2.04285 0
M  V30 3261 H 323.205 0.416771 -0.516912 0
M  V30 3262 H 325.735 0.737103 -1.90861 0
M  V30 3263 H 325.745 3.0478 -2.71244 0
M  V30 3264 H 324.42 2.22171 -3.51586 0
M  V30 3265 H 322.997 3.17664 -1.95305 0
M  V30 3266 N 325.182 1.32811 0.848464 0
M  V30 3267 C 326.115 1.16601 1.96162 0
M  V30 3268 C 327.093 0.0638855 1.62474 0
M  V30 3269 O 328.277 0.224348 1.8716 0
M  V30 3270 C 325.404 0.786333 3.29446 0
M  V30 3271 C 324.45 1.89459 3.8211 0
M  V30 3272 S 325.283 3.50395 4.04949 0
M  V30 3273 C 326.439 3.14413 5.41198 0
M  V30 3274 H 326.672 2.10832 2.09612 0
M  V30 3275 H 324.205 1.17543 1.00115 0
M  V30 3276 H 326.163 0.574044 4.06466 0
M  V30 3277 H 324.824 -0.137218 3.138 0
M  V30 3278 H 324.017 1.58207 4.78526 0
M  V30 3279 H 323.619 2.06304 3.11953 0
M  V30 3280 H 325.911 2.64642 6.23675 0
M  V30 3281 H 326.854 4.09874 5.77416 0
M  V30 3282 H 327.262 2.51266 5.05495 0
M  V30 3283 N 326.66 -1.06551 1.16123 0
M  V30 3284 C 327.885 -1.83544 0.965735 0
M  V30 3285 C 328.31 -1.81843 -0.481102 0
M  V30 3286 O 327.668 -1.21732 -1.34354 0
M  V30 3287 C 327.716 -3.28169 1.49457 0
M  V30 3288 O 326.82 -4.0643 0.699157 0
M  V30 3289 H 326.161 -0.568026 0.343864 0
M  V30 3290 H 328.691 -1.34362 1.54299 0
M  V30 3291 H 328.701 -3.78992 1.51092 0
M  V30 3292 H 327.376 -3.28722 2.54784 0
M  V30 3293 H 325.953 -3.65216 0.7531 0
M  V30 3294 N 328.138 -0.959301 -1.25041 0
M  V30 3295 C 329.386 -0.615393 -1.92503 0
M  V30 3296 C 329.707 0.850969 -1.75452 0
M  V30 3297 O 328.977 1.60658 -1.12098 0
M  V30 3298 H 327.557 -0.224613 -0.712431 0
M  V30 3299 H 330.219 -1.21855 -1.5211 0
M  V30 3300 H 329.315 -0.848738 -3.00338 0
M  V30 3301 N 329.616 1.39756 -0.72842 0
M  V30 3302 C 330.546 2.33289 -0.0991354 0
M  V30 3303 C 331.527 1.53568 0.731489 0
M  V30 3304 O 332.712 1.81987 0.677807 0
M  V30 3305 C 329.842 3.3763 0.813834 0
M  V30 3306 C 328.796 4.2791 0.0878663 0
M  V30 3307 C 328.122 5.22894 1.11741 0
M  V30 3308 C 329.422 5.11314 -1.06563 0
M  V30 3309 H 331.116 2.86163 -0.880408 0
M  V30 3310 H 328.662 1.37591 -0.424819 0
M  V30 3311 H 330.615 4.0201 1.26355 0
M  V30 3312 H 329.339 2.83181 1.62715 0
M  V30 3313 H 327.998 3.65 -0.342159 0
M  V30 3314 H 327.646 4.64744 1.92412 0
M  V30 3315 H 327.346 5.84143 0.636477 0
M  V30 3316 H 328.87 5.90151 1.56697 0
M  V30 3317 H 330.284 5.69076 -0.694671 0
M  V30 3318 H 328.681 5.81671 -1.47577 0
M  V30 3319 H 329.751 4.46534 -1.89038 0
M  V30 3320 N 331.094 0.475555 1.50254 0
M  V30 3321 C 332.044 -0.335025 2.25525 0
M  V30 3322 C 333.028 -0.957625 1.29299 0
M  V30 3323 O 334.22 -0.869436 1.54175 0
M  V30 3324 C 331.349 -1.41385 3.12834 0
M  V30 3325 C 330.435 -0.798762 4.1651 0
M  V30 3326 N 330.826 0.0835815 5.05731 0
M  V30 3327 C 329.124 -1.06221 4.33166 0
M  V30 3328 C 329.825 0.433113 5.80085 0
M  V30 3329 N 328.801 -0.1928 5.43258 0
M  V30 3330 H 332.603 0.344612 2.91873 0
M  V30 3331 H 330.117 0.289986 1.5979 0
M  V30 3332 H 332.114 -2.00777 3.65368 0
M  V30 3333 H 330.774 -2.09543 2.48036 0
M  V30 3334 H 331.785 0.452715 5.15918 0
M  V30 3335 H 328.462 -1.73844 3.79585 0
M  V30 3336 H 329.852 1.15346 6.61925 0
M  V30 3337 N 332.573 -1.56217 0.208337 0
M  V30 3338 C 333.503 -2.22694 -0.702116 0
M  V30 3339 C 334.484 -1.19432 -1.2112 0
M  V30 3340 O 335.669 -1.47978 -1.25762 0
M  V30 3341 C 332.799 -2.8966 -1.9161 0
M  V30 3342 C 331.753 -3.9928 -1.5414 0
M  V30 3343 C 331.079 -4.53476 -2.83308 0
M  V30 3344 C 332.379 -5.17012 -0.741339 0
M  V30 3345 H 334.073 -2.99034 -0.147898 0
M  V30 3346 H 331.619 -1.43831 -0.0696951 0
M  V30 3347 H 333.572 -3.34852 -2.55836 0
M  V30 3348 H 332.296 -2.10746 -2.49507 0
M  V30 3349 H 330.955 -3.54799 -0.922668 0
M  V30 3350 H 330.603 -3.71308 -3.39322 0
M  V30 3351 H 330.303 -5.27451 -2.58976 0
M  V30 3352 H 331.827 -5.01378 -3.485 0
M  V30 3353 H 333.241 -5.58667 -1.28699 0
M  V30 3354 H 331.638 -5.97137 -0.595627 0
M  V30 3355 H 332.708 -4.8423 0.254851 0
M  V30 3356 N 334.051 0.0651679 -1.57465 0
M  V30 3357 C 335.297 0.764193 -1.87851 0
M  V30 3358 C 335.63 1.76889 -0.801495 0
M  V30 3359 O 334.905 1.93594 0.187528 0
M  V30 3360 C 335.188 1.46625 -3.28897 0
M  V30 3361 C 335.041 0.477515 -4.47258 0
M  V30 3362 C 336.36 2.4095 -3.68281 0
M  V30 3363 H 333.479 0.276351 -0.683227 0
M  V30 3364 H 336.121 0.0272868 -1.8998 0
M  V30 3365 H 334.271 2.09438 -3.27212 0
M  V30 3366 H 335.943 -0.145922 -4.61069 0
M  V30 3367 H 334.186 -0.206576 -4.33308 0
M  V30 3368 H 334.857 1.0065 -5.42746 0
M  V30 3369 H 337.333 1.88209 -3.71102 0
M  V30 3370 H 336.209 2.87072 -4.67847 0
M  V30 3371 H 336.47 3.26049 -2.98571 0
M  V30 3372 N 335.529 1.53961 0.336706 0
M  V30 3373 C 336.476 1.82428 1.41381 0
M  V30 3374 C 337.446 0.670444 1.51968 0
M  V30 3375 O 338.631 0.915565 1.67398 0
M  V30 3376 C 335.771 2.04564 2.77934 0
M  V30 3377 C 334.884 3.32267 2.76084 0
M  V30 3378 C 334.019 3.44434 4.04399 0
M  V30 3379 C 333.058 4.66061 3.96804 0
M  V30 3380 N 332.195 4.75224 5.16823 0
M  V30 3381 H 337.035 2.74324 1.16405 0
M  V30 3382 H 334.572 1.35869 0.563752 0
M  V30 3383 H 336.53 2.15388 3.57301 0
M  V30 3384 H 335.16 1.15974 3.01247 0
M  V30 3385 H 334.212 3.3025 1.88784 0
M  V30 3386 H 335.524 4.21733 2.66351 0
M  V30 3387 H 334.678 3.54728 4.92192 0
M  V30 3388 H 333.417 2.53037 4.16921 0
M  V30 3389 H 332.422 4.55838 3.07396 0
M  V30 3390 H 333.647 5.58829 3.85858 0
M  V30 3391 H 331.593 3.86739 5.29876 0
M  V30 3392 H 331.51 5.58636 5.09374 0
M  V30 3393 H 332.778 4.89835 6.06367 0
M  V30 3394 N 337.007 -0.598083 1.45811 0
M  V30 3395 C 338.423 -0.919847 1.30426 0
M  V30 3396 C 338.623 -1.99759 0.264303 0
M  V30 3397 O 337.679 -2.50221 -0.338472 0
M  V30 3398 C 338.992 -1.35176 2.68603 0
M  V30 3399 C 340.54 -1.46546 2.76574 0
M  V30 3400 C 341.015 -1.9311 4.15298 0
M  V30 3401 N 342.506 -2.00328 4.1764 0
M  V30 3402 C 343.241 -2.37599 5.21856 0
M  V30 3403 N 342.737 -2.73771 6.36413 0
M  V30 3404 N 344.53 -2.38021 5.09218 0
M  V30 3405 H 336.681 0.114111 2.12093 0
M  V30 3406 H 338.944 -0.0116121 0.947929 0
M  V30 3407 H 338.65 -0.633969 3.45939 0
M  V30 3408 H 338.524 -2.3164 2.97696 0
M  V30 3409 H 340.911 -2.17415 1.99537 0
M  V30 3410 H 340.992 -0.483727 2.51185 0
M  V30 3411 H 340.636 -1.22824 4.92825 0
M  V30 3412 H 340.566 -2.92213 4.38086 0
M  V30 3413 H 343.057 -1.74925 3.34977 0
M  V30 3414 H 343.37 -3.0112 7.11721 0
M  V30 3415 H 341.715 -2.71445 6.39799 0
M  V30 3416 H 344.906 -2.09174 4.18765 0
M  V30 3417 H 345.079 -2.66741 5.90554 0
M  V30 3418 N 338.485 -1.33259 -0.841409 0
M  V30 3419 C 339.733 -1.24326 -1.59334 0
M  V30 3420 C 340.054 0.191564 -1.94057 0
M  V30 3421 O 339.324 1.11967 -1.60749 0
M  V30 3422 H 337.904 -0.457174 -0.590763 0
M  V30 3423 H 340.566 -1.66947 -1.00571 0
M  V30 3424 H 339.662 -1.8352 -2.52442 0
M  V30 3425 N 339.963 1.05934 -1.16686 0
M  V30 3426 C 341.379 1.30938 -0.912542 0
M  V30 3427 C 341.579 1.96803 0.432533 0
M  V30 3428 O 340.635 2.23693 1.17123 0
M  V30 3429 C 341.948 2.18649 -2.06429 0
M  V30 3430 C 343.496 2.32055 -2.10047 0
M  V30 3431 C 343.971 3.23122 -3.24586 0
M  V30 3432 N 345.462 3.30706 -3.24327 0
M  V30 3433 C 346.197 4.01273 -4.09594 0
M  V30 3434 N 345.693 4.74332 -5.04956 0
M  V30 3435 N 347.486 3.97361 -3.97569 0
M  V30 3436 H 339.637 0.615777 -2.03278 0
M  V30 3437 H 341.9 0.334077 -0.887185 0
M  V30 3438 H 341.606 1.77534 -3.03603 0
M  V30 3439 H 341.48 3.19252 -2.00894 0
M  V30 3440 H 343.867 2.72415 -1.13464 0
M  V30 3441 H 343.948 1.31107 -2.19647 0
M  V30 3442 H 343.592 2.83477 -4.2143 0
M  V30 3443 H 343.522 4.24057 -3.12223 0
M  V30 3444 H 346.013 2.78644 -2.55276 0
M  V30 3445 H 346.326 5.25716 -5.6643 0
M  V30 3446 H 344.671 4.733 -5.08933 0
M  V30 3447 H 347.862 3.39405 -3.22369 0
M  V30 3448 H 348.035 4.52089 -4.64241 0
M  V30 3449 N 341.441 0.965919 1.2453 0
M  V30 3450 C 342.351 0.502154 2.29163 0
M  V30 3451 C 343.367 -0.436017 1.68448 0
M  V30 3452 O 344.543 -0.309497 1.99008 0
M  V30 3453 C 341.608 -0.201956 3.46111 0
M  V30 3454 C 340.669 0.775821 4.22232 0
M  V30 3455 C 339.902 0.105217 5.33596 0
M  V30 3456 O 340.125 -1.10683 5.59558 0
M  V30 3457 O 339.059 0.796475 5.96607 0
M  V30 3458 H 342.885 1.37194 2.70946 0
M  V30 3459 H 340.47 0.732875 1.30189 0
M  V30 3460 H 342.352 -0.597564 4.17142 0
M  V30 3461 H 341.027 -1.04673 3.06309 0
M  V30 3462 H 339.934 1.22185 3.53584 0
M  V30 3463 H 341.267 1.58896 4.65846 0
M  V30 3464 N 342.919 -1.39368 0.735821 0
M  V30 3465 C 343.869 -2.27885 0.0724287 0
M  V30 3466 C 344.853 -1.44301 -0.711756 0
M  V30 3467 O 346.045 -1.67206 -0.58063 0
M  V30 3468 C 343.174 -3.33029 -0.833454 0
M  V30 3469 C 342.26 -4.24078 -0.0433749 0
M  V30 3470 N 342.651 -4.96138 0.983903 0
M  V30 3471 C 340.949 -4.45164 -0.272905 0
M  V30 3472 C 341.65 -5.63069 1.4604 0
M  V30 3473 N 340.626 -5.37991 0.778857 0
M  V30 3474 H 344.428 -2.81052 0.859467 0
M  V30 3475 H 341.942 -1.5206 0.570227 0
M  V30 3476 H 343.939 -3.95311 -1.32419 0
M  V30 3477 H 342.599 -2.81421 -1.61964 0
M  V30 3478 H 343.61 -4.9958 1.36528 0
M  V30 3479 H 340.287 -4.04497 -1.03383 0
M  V30 3480 H 341.677 -6.30755 2.31511 0
M  V30 3481 N 344.397 -0.483516 -1.5 0
M  V30 3482 C 345.344 0.304164 -2.28787 0
M  V30 3483 C 346.314 0.976114 -1.34392 0
M  V30 3484 O 347.499 0.986156 -1.63339 0
M  V30 3485 C 344.639 1.37298 -3.16612 0
M  V30 3486 C 343.752 0.714561 -4.26049 0
M  V30 3487 C 342.887 1.76232 -5.01114 0
M  V30 3488 C 341.926 1.08483 -6.0241 0
M  V30 3489 N 341.063 2.076 -6.70706 0
M  V30 3490 H 345.903 -0.373981 -2.95644 0
M  V30 3491 H 343.44 -0.196275 -1.45785 0
M  V30 3492 H 345.398 2.00445 -3.65893 0
M  V30 3493 H 344.028 2.02012 -2.51776 0
M  V30 3494 H 343.08 -0.0297798 -3.80388 0
M  V30 3495 H 344.392 0.180383 -4.98474 0
M  V30 3496 H 343.546 2.46929 -5.54176 0
M  V30 3497 H 342.285 2.33033 -4.28424 0
M  V30 3498 H 341.29 0.363545 -5.48597 0
M  V30 3499 H 342.515 0.523551 -6.77079 0
M  V30 3500 H 340.461 2.63394 -6.00799 0
M  V30 3501 H 340.378 1.59201 -7.39047 0
M  V30 3502 H 341.646 2.77639 -7.2838 0
M  V30 3503 N 345.875 1.56104 -0.216619 0
M  V30 3504 C 346.822 2.2007 0.695531 0
M  V30 3505 C 347.792 1.15471 1.19397 0
M  V30 3506 O 348.977 1.43807 1.25396 0
M  V30 3507 C 346.117 2.88073 1.90021 0
M  V30 3508 C 345.23 4.07253 1.44113 0
M  V30 3509 C 344.365 4.63052 2.603 0
M  V30 3510 C 343.404 5.74545 2.11103 0
M  V30 3511 N 342.541 6.24656 3.20545 0
M  V30 3512 H 347.381 2.97655 0.143327 0
M  V30 3513 H 344.918 1.46982 0.0589934 0
M  V30 3514 H 346.876 3.25681 2.60745 0
M  V30 3515 H 345.506 2.13015 2.42538 0
M  V30 3516 H 344.558 3.75164 0.628999 0
M  V30 3517 H 345.87 4.8783 1.04036 0
M  V30 3518 H 345.024 5.03078 3.39113 0
M  V30 3519 H 343.763 3.81628 3.03663 0
M  V30 3520 H 342.768 5.34027 1.3075 0
M  V30 3521 H 343.993 6.57801 1.68746 0
M  V30 3522 H 341.939 5.46148 3.63399 0
M  V30 3523 H 341.856 7.00343 2.84704 0
M  V30 3524 H 343.124 6.69338 3.99508 0
M  V30 3525 N 347.353 -0.0568162 1.57498 0
M  V30 3526 C 348.283 -1.06593 2.0775 0
M  V30 3527 C 349.264 -1.39448 0.974082 0
M  V30 3528 O 350.449 -1.48815 1.24771 0
M  V30 3529 C 347.579 -2.37509 2.5339 0
M  V30 3530 C 346.533 -2.1897 3.67745 0
M  V30 3531 C 345.859 -3.55402 3.99492 0
M  V30 3532 C 347.159 -1.59859 4.97235 0
M  V30 3533 H 348.853 -0.647706 2.9231 0
M  V30 3534 H 346.399 -0.310116 1.40621 0
M  V30 3535 H 348.352 -3.08409 2.87162 0
M  V30 3536 H 347.076 -2.8134 1.65878 0
M  V30 3537 H 345.735 -1.50508 3.3428 0
M  V30 3538 H 345.383 -3.9683 3.09088 0
M  V30 3539 H 345.083 -3.43831 4.76502 0
M  V30 3540 H 346.607 -4.27708 4.35773 0
M  V30 3541 H 348.021 -2.20642 5.29141 0
M  V30 3542 H 346.418 -1.58942 5.78669 0
M  V30 3543 H 347.488 -0.561506 4.81638 0
M  V30 3544 N 348.832 -1.54138 -0.328536 0
M  V30 3545 C 350.109 -1.62749 -1.08499 0
M  V30 3546 C 350.489 -0.458198 -2.06067 0
M  V30 3547 O 349.837 0.548046 -2.2183 0
M  V30 3548 C 350.047 -2.99519 -1.79135 0
M  V30 3549 C 351.395 -3.55394 -2.32337 0
M  V30 3550 O 352.419 -3.01792 -1.89209 0
M  V30 3551 O 351.278 -4.49186 -3.11279 0
M  V30 3552 H 348.372 -0.65886 -0.499832 0
M  V30 3553 H 350.918 -1.66484 -0.328826 0
M  V30 3554 H 349.69 -3.76061 -1.08139 0
M  V30 3555 H 349.313 -2.99441 -2.61574 0
M  V30 3556 N 350.31 0.590341 -1.46126 0
M  V30 3557 C 351.24 1.71032 -1.58966 0
M  V30 3558 C 352.221 1.64302 -0.440335 0
M  V30 3559 O 353.406 1.82436 -0.665634 0
M  V30 3560 C 350.536 3.09665 -1.57241 0
M  V30 3561 C 349.49 3.31221 -2.71066 0
M  V30 3562 C 348.816 4.70303 -2.54399 0
M  V30 3563 C 350.116 3.19796 -4.1295 0
M  V30 3564 H 351.81 1.60543 -2.52718 0
M  V30 3565 H 349.356 0.770933 -1.21625 0
M  V30 3566 H 351.309 3.87831 -1.64819 0
M  V30 3567 H 350.033 3.21036 -0.600289 0
M  V30 3568 H 348.692 2.55452 -2.62944 0
M  V30 3569 H 348.34 4.78429 -1.55288 0
M  V30 3570 H 348.04 4.85679 -3.30741 0
M  V30 3571 H 349.564 5.50647 -2.63857 0
M  V30 3572 H 350.978 3.87815 -4.22223 0
M  V30 3573 H 349.375 3.46696 -4.89818 0
M  V30 3574 H 350.445 2.16983 -4.33643 0
M  V30 3575 N 351.788 1.33704 0.83433 0
M  V30 3576 C 352.738 1.20899 1.93306 0
M  V30 3577 C 353.722 0.110783 1.60518 0
M  V30 3578 O 354.914 0.339331 1.73717 0
M  V30 3579 C 352.043 0.955018 3.29749 0
M  V30 3580 C 351.129 2.09587 3.68692 0
M  V30 3581 N 351.52 3.34621 3.79292 0
M  V30 3582 C 349.818 2.00358 3.98463 0
M  V30 3583 C 350.519 4.09472 4.13167 0
M  V30 3584 N 349.495 3.37954 4.25779 0
M  V30 3585 H 353.297 2.15665 1.99664 0
M  V30 3586 H 350.811 1.25777 1.02732 0
M  V30 3587 H 352.808 0.844208 4.08263 0
M  V30 3588 H 351.468 0.0159317 3.24696 0
M  V30 3589 H 352.479 3.69313 3.63082 0
M  V30 3590 H 349.156 1.14137 4.01596 0
M  V30 3591 H 350.546 5.17391 4.28668 0
M  V30 3592 N 353.266 -1.05314 1.17247 0
M  V30 3593 C 354.682 -1.30452 0.919473 0
M  V30 3594 C 354.882 -1.9703 -0.42209 0
M  V30 3595 O 353.938 -2.24311 -1.15935 0
M  V30 3596 C 355.251 -2.17551 2.07586 0
M  V30 3597 C 356.799 -2.30937 2.11275 0
M  V30 3598 C 357.274 -3.21396 3.26296 0
M  V30 3599 N 358.765 -3.28981 3.26076 0
M  V30 3600 C 359.5 -3.99095 4.11716 0
M  V30 3601 N 358.996 -4.71648 5.07465 0
M  V30 3602 N 360.789 -3.95247 3.9967 0
M  V30 3603 H 352.94 -0.604988 2.03602 0
M  V30 3604 H 355.203 -0.329368 0.888944 0
M  V30 3605 H 354.909 -1.75921 3.0454 0
M  V30 3606 H 354.783 -3.18182 2.02584 0
M  V30 3607 H 357.17 -2.71809 1.14907 0
M  V30 3608 H 357.251 -1.2994 2.20339 0
M  V30 3609 H 356.895 -2.81238 4.22927 0
M  V30 3610 H 356.825 -4.22395 3.14467 0
M  V30 3611 H 359.316 -2.77286 2.5675 0
M  V30 3612 H 359.629 -5.22705 5.6921 0
M  V30 3613 H 357.974 -4.70594 5.11435 0
M  V30 3614 H 361.165 -3.37691 3.24164 0
M  V30 3615 H 361.338 -4.4962 4.66632 0
M  V30 3616 N 354.744 -0.972509 -1.24016 0
M  V30 3617 C 356.021 -0.553733 -1.87598 0
M  V30 3618 C 356.401 0.969158 -1.87538 0
M  V30 3619 O 355.749 1.84255 -1.35139 0
M  V30 3620 C 355.959 -1.15076 -3.29482 0
M  V30 3621 C 357.307 -1.23862 -4.06132 0
M  V30 3622 O 358.331 -1.10363 -3.38672 0
M  V30 3623 O 357.19 -1.45252 -5.26844 0
M  V30 3624 H 354.284 -0.185331 -0.805966 0
M  V30 3625 H 356.83 -1.06709 -1.31952 0
M  V30 3626 H 355.602 -2.19333 -3.2405 0
M  V30 3627 H 355.225 -0.621746 -3.92709 0
M  V30 3628 N 356.222 1.38976 -0.743202 0
M  V30 3629 C 357.469 2.00343 -0.294752 0
M  V30 3630 C 357.797 1.58983 1.12047 0
M  V30 3631 O 357.052 0.813809 1.77977 0
M  V30 3632 C 357.351 3.55647 -0.353517 0
M  V30 3633 C 357.017 4.16685 -1.72292 0
M  V30 3634 C 355.679 4.3307 -2.09771 0
M  V30 3635 C 358.031 4.50464 -2.62168 0
M  V30 3636 C 355.359 4.80526 -3.36618 0
M  V30 3637 C 357.711 4.99332 -3.88395 0
M  V30 3638 C 356.375 5.13924 -4.25956 0
M  V30 3639 H 355.645 0.733108 -0.107857 0
M  V30 3640 H 358.292 1.6618 -0.951651 0
M  V30 3641 H 356.597 3.89884 0.386954 0
M  V30 3642 H 358.294 4.00998 0.0117269 0
M  V30 3643 H 354.884 4.04339 -1.42155 0
M  V30 3644 H 359.068 4.37416 -2.3448 0
M  V30 3645 H 354.324 4.90008 -3.65653 0
M  V30 3646 H 358.498 5.2444 -4.58187 0
M  V30 3647 H 356.125 5.50457 -5.2431 0
M  V30 3648 N 357.7 0.491464 1.49741 0
M  V30 3649 C 358.928 -0.0535151 2.06831 0
M  V30 3650 C 359.343 -1.31683 1.35296 0
M  V30 3651 O 358.7 -1.77402 0.42836 0
M  V30 3652 C 358.751 -0.320835 3.60073 0
M  V30 3653 O 358.472 0.892394 4.28915 0
M  V30 3654 C 359.973 -0.910519 4.33848 0
M  V30 3655 H 357.193 0.0161909 0.670805 0
M  V30 3656 H 359.737 0.68609 1.92647 0
M  V30 3657 H 357.892 -1.0104 3.73991 0
M  V30 3658 H 358.306 0.649401 5.20464 0
M  V30 3659 H 359.78 -1.04721 5.41976 0
M  V30 3660 H 360.257 -1.90589 3.95692 0
M  V30 3661 H 360.863 -0.258712 4.24512 0
M  V30 3662 N 359.178 -1.55987 0.224894 0
M  V30 3663 C 360.424 -1.98684 -0.406502 0
M  V30 3664 C 360.757 -1.11248 -1.59177 0
M  V30 3665 O 360.032 -0.170909 -1.93748 0
M  V30 3666 C 360.315 -3.50218 -0.837808 0
M  V30 3667 C 360.168 -4.48426 0.351332 0
M  V30 3668 C 361.487 -4.06243 -1.69278 0
M  V30 3669 H 358.606 -0.722337 -0.146283 0
M  V30 3670 H 361.248 -1.87255 0.321799 0
M  V30 3671 H 359.398 -3.60089 -1.45837 0
M  V30 3672 H 361.07 -4.50562 0.989526 0
M  V30 3673 H 359.313 -4.22159 0.998207 0
M  V30 3674 H 359.984 -5.52 0.00655905 0
M  V30 3675 H 362.46 -3.99337 -1.16914 0
M  V30 3676 H 361.336 -5.12581 -1.96346 0
M  V30 3677 H 361.597 -3.53332 -2.65723 0
M  V30 3678 N 360.656 0.0484629 -1.57525 0
M  V30 3679 C 361.619 1.03956 -2.04269 0
M  V30 3680 C 362.619 1.30211 -0.943496 0
M  V30 3681 O 363.809 1.25539 -1.20771 0
M  V30 3682 C 360.941 2.37742 -2.44319 0
M  V30 3683 H 362.134 0.636182 -2.93075 0
M  V30 3684 H 359.687 0.294811 -1.53494 0
M  V30 3685 H 360.422 2.82866 -1.5861 0
M  V30 3686 H 360.207 2.20021 -3.24551 0
M  V30 3687 H 361.697 3.08936 -2.80978 0
M  V30 3688 N 362.134 1.5431 0.320358 0
M  V30 3689 C 363.359 1.76954 1.08175 0
M  V30 3690 C 363.784 0.518193 1.80821 0
M  V30 3691 O 363.142 -0.530411 1.73368 0
M  V30 3692 C 363.19 2.96451 2.05303 0
M  V30 3693 O 362.294 2.68221 3.13259 0
M  V30 3694 H 361.635 0.586275 0.311733 0
M  V30 3695 H 364.165 2.01342 0.363676 0
M  V30 3696 H 364.175 3.23887 2.48116 0
M  V30 3697 H 362.85 3.87196 1.51829 0
M  V30 3698 H 361.427 2.51744 2.75099 0
M  V30 3699 N 363.613 -0.582584 1.46437 0
M  V30 3700 C 365.024 -1.1647 1.45916 0
M  V30 3701 C 365.375 -1.95177 0.200077 0
M  V30 3702 O 364.5 -2.04874 -0.696819 0
M  V30 3703 C 365.095 -2.11885 2.64367 0
M  V30 3704 C 363.654 -2.65421 2.66887 0
M  V30 3705 C 362.801 -1.41294 2.38603 0
M  V30 3706 H 365.752 -0.370514 1.54314 0
M  V30 3707 H 365.773 -2.9535 2.39892 0
M  V30 3708 H 365.285 -1.54573 3.5599 0
M  V30 3709 H 363.386 -3.26602 1.79338 0
M  V30 3710 H 363.499 -3.08147 3.66854 0
M  V30 3711 H 361.863 -1.71109 1.88663 0
M  V30 3712 H 362.646 -0.858125 3.32402 0
M  V30 3713 N 365.091 -1.34144 -0.827227 0
M  V30 3714 C 366.054 -1.25264 -1.91942 0
M  V30 3715 C 367.054 -0.168866 -1.59911 0
M  V30 3716 O 368.244 -0.421198 -1.69031 0
M  V30 3717 C 365.376 -0.932952 -3.27885 0
M  V30 3718 H 366.569 -2.22357 -2.0124 0
M  V30 3719 H 364.122 -1.1837 -1.0207 0
M  V30 3720 H 364.857 0.0349917 -3.24281 0
M  V30 3721 H 364.642 -1.71682 -3.52516 0
M  V30 3722 H 366.132 -0.895874 -4.07877 0
M  V30 3723 N 366.569 1.04691 -1.17803 0
M  V30 3724 C 367.479 2.16057 -0.914151 0
M  V30 3725 C 368.495 1.73589 0.119503 0
M  V30 3726 O 369.671 2.01308 -0.0609468 0
M  V30 3727 C 366.736 3.4394 -0.436603 0
M  V30 3728 C 365.797 4.00825 -1.53746 0
M  V30 3729 C 365.03 5.22604 -1.0826 0
M  V30 3730 O 365.253 5.70367 0.0612244 0
M  V30 3731 O 364.187 5.7186 -1.87775 0
M  V30 3732 H 368.013 2.41169 -1.84584 0
M  V30 3733 H 365.598 1.1453 -0.959334 0
M  V30 3734 H 367.48 4.21024 -0.178057 0
M  V30 3735 H 366.155 3.20316 0.466869 0
M  V30 3736 H 365.062 3.25158 -1.84995 0
M  V30 3737 H 366.395 4.28778 -2.41683 0
M  V30 3738 N 368.047 0.979072 1.23499 0
M  V30 3739 C 369.294 0.647219 1.91878 0
M  V30 3740 C 369.622 -0.819074 1.76413 0
M  V30 3741 O 368.877 -1.60616 1.11808 0
M  V30 3742 C 369.176 0.981932 3.43646 0
M  V30 3743 C 368.842 2.43822 3.79291 0
M  V30 3744 C 367.504 2.83622 3.88731 0
M  V30 3745 C 369.856 3.3828 3.96505 0
M  V30 3746 C 367.184 4.16897 4.12812 0
M  V30 3747 C 369.536 4.71197 4.22085 0
M  V30 3748 C 368.2 5.10758 4.29747 0
M  V30 3749 H 367.47 0.236834 0.702133 0
M  V30 3750 H 370.117 1.23268 1.46551 0
M  V30 3751 H 368.422 0.314365 3.90537 0
M  V30 3752 H 370.119 0.703395 3.94783 0
M  V30 3753 H 366.709 2.11966 3.72516 0
M  V30 3754 H 370.893 3.0871 3.88603 0
M  V30 3755 H 366.149 4.47157 4.16966 0
M  V30 3756 H 370.323 5.44348 4.34348 0
M  V30 3757 H 367.95 6.1405 4.48159 0
M  V30 3758 N 369.525 -1.3858 0.750561 0
M  V30 3759 C 370.771 -2.00481 0.305825 0
M  V30 3760 C 371.104 -1.5944 -1.10872 0
M  V30 3761 O 370.379 -0.83052 -1.75877 0
M  V30 3762 C 370.662 -3.5758 0.425287 0
M  V30 3763 C 370.515 -4.08594 1.88072 0
M  V30 3764 C 371.834 -4.39719 -0.183122 0
M  V30 3765 H 368.953 -0.728348 0.112598 0
M  V30 3766 H 371.595 -1.64566 0.949638 0
M  V30 3767 H 369.745 -3.88306 -0.122828 0
M  V30 3768 H 371.417 -3.88523 2.48691 0
M  V30 3769 H 369.66 -3.61574 2.39681 0
M  V30 3770 H 370.331 -5.177 1.91548 0
M  V30 3771 H 372.807 -4.15128 0.284303 0
M  V30 3772 H 371.683 -5.48856 -0.0692757 0
M  V30 3773 H 371.944 -4.23434 -1.27106 0
M  V30 3774 N 371.003 -0.499398 -1.49478 0
M  V30 3775 C 372.231 0.0425456 -2.06856 0
M  V30 3776 C 372.646 1.30964 -1.35992 0
M  V30 3777 O 372.003 1.77172 -0.437762 0
M  V30 3778 C 372.054 0.301735 -3.60239 0
M  V30 3779 O 371.775 -0.915127 -4.28436 0
M  V30 3780 C 373.276 0.887499 -4.34325 0
M  V30 3781 H 370.496 -0.0197482 -0.670709 0
M  V30 3782 H 373.04 -0.696297 -1.92281 0
M  V30 3783 H 371.195 0.990556 -3.74522 0
M  V30 3784 H 371.609 -0.676993 -5.20113 0
M  V30 3785 H 373.083 1.01845 -5.42523 0
M  V30 3786 H 373.56 1.88488 -3.96698 0
M  V30 3787 H 374.166 0.236196 -4.24644 0
M  V30 3788 N 372.481 1.55866 -0.233164 0
M  V30 3789 C 373.897 1.59133 0.121988 0
M  V30 3790 C 374.097 1.25016 1.58029 0
M  V30 3791 O 373.153 0.990922 2.32243 0
M  V30 3792 C 374.466 2.99932 -0.214792 0
M  V30 3793 C 376.014 3.12601 -0.157971 0
M  V30 3794 C 376.489 4.55597 -0.46859 0
M  V30 3795 N 377.98 4.61305 -0.418585 0
M  V30 3796 C 378.715 5.69903 -0.63227 0
M  V30 3797 N 378.211 6.86819 -0.90835 0
M  V30 3798 N 380.004 5.59264 -0.563913 0
M  V30 3799 H 372.155 1.76315 -1.18434 0
M  V30 3800 H 374.418 0.820093 -0.475553 0
M  V30 3801 H 374.124 3.29588 -1.22739 0
M  V30 3802 H 373.998 3.74327 0.464691 0
M  V30 3803 H 376.385 2.82735 0.845283 0
M  V30 3804 H 376.466 2.40511 -0.871102 0
M  V30 3805 H 376.11 4.86182 -1.46934 0
M  V30 3806 H 376.04 5.25928 0.265865 0
M  V30 3807 H 378.531 3.77297 -0.213368 0
M  V30 3808 H 378.844 7.65507 -1.05919 0
M  V30 3809 H 377.189 6.88536 -0.945673 0
M  V30 3810 H 380.38 4.66802 -0.348372 0
M  V30 3811 H 380.553 6.43831 -0.733847 0
M  V30 3812 N 373.959 -0.0401083 1.57549 0
M  V30 3813 C 375.206 -0.733125 1.88763 0
M  V30 3814 C 375.534 -1.75946 0.829058 0
M  V30 3815 O 374.789 -1.94949 -0.171323 0
M  V30 3816 C 375.088 -1.44902 3.26708 0
M  V30 3817 C 374.754 -0.559707 4.47413 0
M  V30 3818 C 373.416 -0.314731 4.8017 0
M  V30 3819 C 375.768 0.0549743 5.21171 0
M  V30 3820 C 373.096 0.553886 5.8408 0
M  V30 3821 C 375.448 0.911229 6.26003 0
M  V30 3822 C 374.112 1.16577 6.57241 0
M  V30 3823 H 373.382 -0.268269 0.690733 0
M  V30 3824 H 376.029 0.00679408 1.91499 0
M  V30 3825 H 374.334 -2.26197 3.1991 0
M  V30 3826 H 376.031 -1.99058 3.48105 0
M  V30 3827 H 372.621 -0.760793 4.21794 0
M  V30 3828 H 376.805 -0.121344 4.96152 0
M  V30 3829 H 372.061 0.759518 6.06664 0
M  V30 3830 H 376.235 1.3941 6.82303 0
M  V30 3831 H 373.862 1.84058 7.37582 0
M  V30 3832 N 375.437 -1.54477 -0.31217 0
M  V30 3833 C 376.685 -1.72884 -1.04668 0
M  V30 3834 C 377.006 -0.511477 -1.88173 0
M  V30 3835 O 376.276 0.474407 -1.90069 0
M  V30 3836 H 374.856 -0.637461 -0.389425 0
M  V30 3837 H 377.518 -1.91807 -0.345852 0
M  V30 3838 H 376.614 -2.61334 -1.70619 0
M  V30 3839 N 376.915 0.57481 -1.46744 0
M  V30 3840 C 378.163 1.33009 -1.52161 0
M  V30 3841 C 378.484 1.94185 -0.178092 0
M  V30 3842 O 377.754 1.7899 0.796196 0
M  V30 3843 H 376.334 0.493873 -0.560445 0
M  V30 3844 H 378.996 0.672589 -1.82927 0
M  V30 3845 H 378.092 2.13273 -2.27862 0
M  V30 3846 N 378.394 1.34581 0.820102 0
M  V30 3847 C 379.671 1.17675 1.56244 0
M  V30 3848 C 380.051 -0.249541 2.0962 0
M  V30 3849 O 379.399 -1.25125 1.91196 0
M  V30 3850 C 379.609 2.23364 2.6816 0
M  V30 3851 C 380.957 2.58485 3.36854 0
M  V30 3852 O 381.981 2.22175 2.78418 0
M  V30 3853 O 380.84 3.20868 4.42386 0
M  V30 3854 H 377.934 0.456333 0.689702 0
M  V30 3855 H 380.48 1.46222 0.861231 0
M  V30 3856 H 379.252 3.19087 2.26493 0
M  V30 3857 H 378.875 1.96009 3.45928 0
M  V30 3858 N 379.872 -1.04064 1.18357 0
M  V30 3859 C 381.288 -1.2947 0.933258 0
M  V30 3860 C 381.488 -1.97466 -0.401169 0
M  V30 3861 O 380.544 -2.25528 -1.13549 0
M  V30 3862 C 381.857 -2.15337 2.09882 0
M  V30 3863 C 383.405 -2.28683 2.13712 0
M  V30 3864 C 383.88 -3.17917 3.29686 0
M  V30 3865 N 385.371 -3.25504 3.29547 0
M  V30 3866 C 386.106 -3.94706 4.15926 0
M  V30 3867 N 385.602 -4.66239 5.12439 0
M  V30 3868 N 387.395 -3.90986 4.0384 0
M  V30 3869 H 379.546 -0.583359 2.04232 0
M  V30 3870 H 381.809 -0.319921 0.892387 0
M  V30 3871 H 381.515 -1.72682 3.06389 0
M  V30 3872 H 381.389 -3.16015 2.05947 0
M  V30 3873 H 383.776 -2.70575 1.17784 0
M  V30 3874 H 383.857 -1.27596 2.21705 0
M  V30 3875 H 383.501 -2.76736 4.25887 0
M  V30 3876 H 383.431 -4.19036 3.1893 0
M  V30 3877 H 385.922 -2.74547 2.59677 0
M  V30 3878 H 386.235 -5.16638 5.74722 0
M  V30 3879 H 384.58 -4.65143 5.16398 0
M  V30 3880 H 387.771 -3.34234 3.27727 0
M  V30 3881 H 387.944 -4.44646 4.71375 0
M  V30 3882 N 381.35 -0.985608 -1.22978 0
M  V30 3883 C 382.596 -0.65836 -1.91816 0
M  V30 3884 C 382.929 0.806692 -1.76653 0
M  V30 3885 O 382.204 1.58252 -1.13078 0
M  V30 3886 C 382.487 -1.056 -3.44268 0
M  V30 3887 C 382.34 -2.57906 -3.68516 0
M  V30 3888 C 383.659 -0.603781 -4.35939 0
M  V30 3889 H 380.778 -0.24065 -0.696604 0
M  V30 3890 H 383.42 -1.22783 -1.44998 0
M  V30 3891 H 381.57 -0.571445 -3.84274 0
M  V30 3892 H 383.242 -3.13976 -3.3796 0
M  V30 3893 H 381.485 -3.00305 -3.13048 0
M  V30 3894 H 382.156 -2.80779 -4.75255 0
M  V30 3895 H 384.632 -1.01987 -4.03408 0
M  V30 3896 H 383.508 -0.910383 -5.41298 0
M  V30 3897 H 383.769 0.495761 -4.39312 0
M  V30 3898 N 382.828 1.3818 -0.7579 0
M  V30 3899 C 384.077 1.99261 -0.312744 0
M  V30 3900 C 384.39 1.60846 1.11301 0
M  V30 3901 O 385.596 2.14929 1.65885 0
M  V30 3902 C 384.052 3.56294 -0.50821 0
M  V30 3903 C 383.66 4.03657 -1.94333 0
M  V30 3904 C 385.404 4.24313 -0.125982 0
M  V30 3905 C 383.311 5.53347 -2.08712 0
M  V30 3906 H 382.241 0.745456 -0.113185 0
M  V30 3907 H 384.892 1.57889 -0.935056 0
M  V30 3908 H 383.274 3.95575 0.183353 0
M  V30 3909 H 384.448 3.75655 -2.66871 0
M  V30 3910 H 382.763 3.48376 -2.28086 0
M  V30 3911 H 385.36 5.34279 -0.212125 0
M  V30 3912 H 385.703 4.05962 0.921964 0
M  V30 3913 H 386.236 3.90285 -0.769563 0
M  V30 3914 H 382.975 5.76607 -3.11777 0
M  V30 3915 H 382.495 5.83078 -1.4064 0
M  V30 3916 H 384.174 6.19111 -1.87912 0
M  V30 3917 N 384.306 0.507319 1.49211 0
M  V30 3918 C 385.216 -0.272136 2.33016 0
M  V30 3919 C 386.232 -0.961206 1.45041 0
M  V30 3920 O 387.408 -0.941191 1.78055 0
M  V30 3921 C 384.473 -1.31895 3.20631 0
M  V30 3922 C 383.534 -0.642648 4.24463 0
M  V30 3923 C 382.767 -1.63959 5.07891 0
M  V30 3924 O 382.99 -2.87007 4.92933 0
M  V30 3925 O 381.924 -1.19143 5.8999 0
M  V30 3926 H 385.75 0.413982 3.00865 0
M  V30 3927 H 383.335 0.268556 1.46966 0
M  V30 3928 H 385.217 -1.92446 3.7489 0
M  V30 3929 H 383.892 -1.98788 2.5547 0
M  V30 3930 H 382.799 0.00276252 3.741 0
M  V30 3931 H 384.132 -0.0160534 4.92197 0
M  V30 3932 N 385.784 -1.5574 0.241426 0
M  V30 3933 C 386.731 -2.21149 -0.660432 0
M  V30 3934 C 387.701 -1.17356 -1.17545 0
M  V30 3935 O 388.886 -1.45784 -1.23093 0
M  V30 3936 C 386.026 -2.91059 -1.85414 0
M  V30 3937 C 385.139 -4.09495 -1.37616 0
M  V30 3938 C 384.274 -4.67135 -2.529 0
M  V30 3939 C 383.313 -5.77831 -2.01936 0
M  V30 3940 N 382.45 -6.29677 -3.10566 0
M  V30 3941 H 387.29 -2.97845 -0.095955 0
M  V30 3942 H 384.827 -1.47057 -0.0356024 0
M  V30 3943 H 386.785 -3.29788 -2.5553 0
M  V30 3944 H 385.415 -2.16846 -2.39118 0
M  V30 3945 H 384.467 -3.76117 -0.569235 0
M  V30 3946 H 385.779 -4.89423 -0.962618 0
M  V30 3947 H 384.933 -5.08409 -3.31067 0
M  V30 3948 H 383.672 -3.86411 -2.97553 0
M  V30 3949 H 382.677 -5.36039 -1.22238 0
M  V30 3950 H 383.902 -6.60402 -1.58259 0
M  V30 3951 H 381.848 -5.5186 -3.54664 0
M  V30 3952 H 381.765 -7.04783 -2.73526 0
M  V30 3953 H 383.033 -6.75609 -3.88809 0
M  V30 3954 N 387.262 0.0317525 -1.57568 0
M  V30 3955 C 388.508 0.724175 -1.8943 0
M  V30 3956 C 388.841 1.75149 -0.838836 0
M  V30 3957 O 388.116 1.93948 0.146422 0
M  V30 3958 C 388.399 1.39615 -3.31933 0
M  V30 3959 C 388.252 0.382537 -4.4817 0
M  V30 3960 C 389.571 2.33084 -3.73309 0
M  V30 3961 H 386.69 0.261797 -0.688935 0
M  V30 3962 H 389.332 -0.013017 -1.89996 0
M  V30 3963 H 387.482 2.02451 -3.31581 0
M  V30 3964 H 389.154 -0.243689 -4.60656 0
M  V30 3965 H 387.397 -0.29844 -4.32772 0
M  V30 3966 H 388.068 0.891145 -5.44759 0
M  V30 3967 H 390.544 1.80295 -3.7501 0
M  V30 3968 H 389.42 2.77084 -4.73831 0
M  V30 3969 H 389.681 3.19643 -3.05419 0
M  V30 3970 N 388.74 1.54641 0.303973 0
M  V30 3971 C 389.67 1.88386 1.3796 0
M  V30 3972 C 390.651 0.742485 1.5304 0
M  V30 3973 O 391.836 0.997959 1.66597 0
M  V30 3974 C 388.966 2.12854 2.74427 0
M  V30 3975 C 387.92 3.28702 2.74115 0
M  V30 3976 C 387.246 3.38582 4.13844 0
M  V30 3977 C 388.546 4.65881 2.3612 0
M  V30 3978 H 390.24 2.78474 1.09966 0
M  V30 3979 H 387.786 1.33988 0.527556 0
M  V30 3980 H 389.739 2.35047 3.49758 0
M  V30 3981 H 388.463 1.19535 3.03939 0
M  V30 3982 H 387.122 3.06428 2.0124 0
M  V30 3983 H 386.77 2.42784 4.40528 0
M  V30 3984 H 386.47 4.16453 4.14537 0
M  V30 3985 H 387.994 3.63031 4.90959 0
M  V30 3986 H 389.408 4.87823 3.01167 0
M  V30 3987 H 387.805 5.46444 2.48031 0
M  V30 3988 H 388.875 4.66799 1.3125 0
M  V30 3989 N 390.218 -0.567019 1.47046 0
M  V30 3990 C 391.467 -1.32091 1.5243 0
M  V30 3991 C 391.78 -1.94704 0.187021 0
M  V30 3992 O 392.986 -2.7124 0.118771 0
M  V30 3993 C 391.442 -2.39479 2.68659 0
M  V30 3994 C 391.05 -1.831 4.08874 0
M  V30 3995 C 392.794 -3.16111 2.83327 0
M  V30 3996 C 390.701 -2.8821 5.16419 0
M  V30 3997 H 389.631 -0.496629 0.56734 0
M  V30 3998 H 392.282 -0.603354 1.73297 0
M  V30 3999 H 390.664 -3.14105 2.41152 0
M  V30 4000 H 391.838 -1.14913 4.46242 0
M  V30 4001 H 390.153 -1.19085 3.99008 0
M  V30 4002 H 392.75 -3.94585 3.60842 0
M  V30 4003 H 393.093 -3.69686 1.91411 0
M  V30 4004 H 393.626 -2.48595 3.10556 0
M  V30 4005 H 390.365 -2.39504 6.10179 0
M  V30 4006 H 389.885 -3.54839 4.8358 0
M  V30 4007 H 391.564 -3.51881 5.42945 0
M  V30 4008 N 391.696 -1.35014 -0.812953 0
M  V30 4009 C 392.659 -1.27292 -1.90602 0
M  V30 4010 C 393.659 -0.185817 -1.59723 0
M  V30 4011 O 394.849 -0.439102 -1.68575 0
M  V30 4012 C 391.981 -0.967676 -3.26877 0
M  V30 4013 H 393.174 -2.24479 -1.9887 0
M  V30 4014 H 390.727 -1.19446 -1.00808 0
M  V30 4015 H 391.462 0.0005954 -3.243 0
M  V30 4016 H 391.247 -1.75412 -3.50675 0
M  V30 4017 H 392.737 -0.939085 -4.06904 0
M  V30 4018 N 393.175 1.03435 -1.18907 0
M  V30 4019 C 394.123 2.13703 -0.918353 0
M  V30 4020 C 395.117 1.68947 0.123767 0
M  V30 4021 O 396.323 1.79983 -0.0249701 0
M  V30 4022 H 392.698 0.698112 -0.279542 0
M  V30 4023 H 394.669 2.33731 -1.85506 0
M  V30 4024 C 393.418 3.44542 -0.467532 0
M  V30 4025 H 392.741 3.79394 -1.26095 0
M  V30 4026 H 394.181 4.22812 -0.317164 0
M  V30 4027 C 392.64 3.26829 0.817588 0
M  V30 4028 O 393.17 3.54975 1.88031 0
M  V30 4029 N 391.376 2.80139 0.772677 0
M  V30 4030 H 390.923 2.57434 -0.0923883 0
M  V30 4031 H 390.881 2.68668 1.63294 0
M  V30 4032 N 394.653 0.992116 1.22453 0
M  V30 4033 C 395.601 0.534644 2.26372 0
M  V30 4034 C 396.595 -0.414293 1.64256 0
M  V30 4035 O 397.801 -0.286899 1.77699 0
M  V30 4036 H 394.176 0.154502 0.735957 0
M  V30 4037 H 396.147 1.42256 2.62309 0
M  V30 4038 C 394.896 -0.135815 3.47435 0
M  V30 4039 H 394.219 0.585311 3.95492 0
M  V30 4040 H 395.659 -0.419374 4.21921 0
M  V30 4041 C 394.118 -1.37089 3.07747 0
M  V30 4042 O 394.648 -2.46629 3.17076 0
M  V30 4043 N 392.854 -1.24585 2.62539 0
M  V30 4044 H 392.401 -0.354542 2.55149 0
M  V30 4045 H 392.359 -2.07327 2.36353 0
M  V30 4046 N 396.131 -1.37776 0.765217 0
M  V30 4047 C 397.379 -1.99454 0.325943 0
M  V30 4048 C 397.7 -1.61049 -1.09947 0
M  V30 4049 O 396.97 -0.872821 -1.75381 0
M  V30 4050 H 395.55 -0.737697 0.117525 0
M  V30 4051 H 398.212 -1.68359 0.981895 0
M  V30 4052 H 397.308 -3.09547 0.398353 0
M  V30 4053 N 397.609 -0.515225 -1.4894 0
M  V30 4054 C 398.858 0.0261361 -2.01683 0
M  V30 4055 C 399.171 1.36719 -1.39883 0
M  V30 4056 O 400.377 1.99606 -1.84037 0
M  V30 4057 C 398.833 0.0970111 -3.59769 0
M  V30 4058 C 398.441 -1.23825 -4.30548 0
M  V30 4059 C 400.185 0.587981 -4.20408 0
M  V30 4060 C 398.092 -1.12877 -5.80528 0
M  V30 4061 H 397.022 0.0135398 -0.753878 0
M  V30 4062 H 399.673 -0.656787 -1.71343 0
M  V30 4063 H 398.055 0.844694 -3.86886 0
M  V30 4064 H 399.229 -2.00034 -4.15118 0
M  V30 4065 H 397.544 -1.66379 -3.81716 0
M  V30 4066 H 400.141 0.68763 -5.3026 0
M  V30 4067 H 400.484 1.59026 -3.84729 0
M  V30 4068 H 401.017 -0.103582 -3.97665 0
M  V30 4069 H 397.756 -2.10575 -6.20756 0
M  V30 4070 H 397.276 -0.407799 -5.98412 0
M  V30 4071 H 398.955 -0.813332 -6.41868 0
M  V30 4072 N 399.087 1.5561 -0.249682 0
M  V30 4073 C 400.05 2.20217 0.635394 0
M  V30 4074 C 401.05 1.17227 1.10066 0
M  V30 4075 O 402.24 1.42292 1.00492 0
M  V30 4076 C 399.372 2.84794 1.87363 0
M  V30 4077 H 400.565 2.99814 0.0716752 0
M  V30 4078 H 398.118 1.563 -0.000153234 0
M  V30 4079 H 398.853 2.09142 2.47851 0
M  V30 4080 H 398.638 3.60241 1.5482 0
M  V30 4081 H 400.128 3.3423 2.5036 0
M  V30 4082 N 400.565 -0.0233959 1.57583 0
M  V30 4083 C 401.528 -1.00693 2.05897 0
M  V30 4084 C 402.528 -1.28693 0.964092 0
M  V30 4085 O 403.718 -1.23602 1.22753 0
M  V30 4086 C 400.85 -2.33825 2.4807 0
M  V30 4087 H 402.043 -0.589476 2.9405 0
M  V30 4088 H 399.596 -0.270354 1.53944 0
M  V30 4089 H 400.331 -2.80307 1.6309 0
M  V30 4090 H 400.116 -2.1483 3.2801 0
M  V30 4091 H 401.606 -3.04426 2.85857 0
M  V30 4092 N 402.043 -1.548 -0.295768 0
M  V30 4093 C 403.289 -1.74588 -1.03184 0
M  V30 4094 C 403.622 -0.532962 -1.86744 0
M  V30 4095 O 402.897 0.469872 -1.88739 0
M  V30 4096 C 403.18 -3.03791 -1.93347 0
M  V30 4097 C 403.033 -4.35392 -1.12933 0
M  V30 4098 C 404.352 -3.28892 -2.92435 0
M  V30 4099 H 401.471 -0.635221 -0.373715 0
M  V30 4100 H 404.113 -1.87519 -0.30606 0
M  V30 4101 H 402.263 -2.92898 -2.55232 0
M  V30 4102 H 403.935 -4.58211 -0.532943 0
M  V30 4103 H 402.178 -4.31642 -0.432168 0
M  V30 4104 H 402.849 -5.22074 -1.79284 0
M  V30 4105 H 405.325 -3.39429 -2.4068 0
M  V30 4106 H 404.201 -4.20603 -3.52682 0
M  V30 4107 H 404.462 -2.47437 -3.6637 0
M  V30 4108 N 403.521 0.559213 -1.47345 0
M  V30 4109 C 404.468 1.66645 -1.59682 0
M  V30 4110 C 405.438 1.60168 -0.43994 0
M  V30 4111 O 406.623 1.79031 -0.659736 0
M  V30 4112 C 403.763 3.04969 -1.61518 0
M  V30 4113 C 402.876 3.21897 -2.88108 0
M  V30 4114 C 402.011 4.50608 -2.81294 0
M  V30 4115 C 401.05 4.60961 -4.02717 0
M  V30 4116 N 400.187 5.81024 -3.94151 0
M  V30 4117 H 405.027 1.55439 -2.54249 0
M  V30 4118 H 402.564 0.757219 -1.26113 0
M  V30 4119 H 404.522 3.85064 -1.60566 0
M  V30 4120 H 403.152 3.15015 -0.704645 0
M  V30 4121 H 402.204 2.35248 -2.98936 0
M  V30 4122 H 403.516 3.25412 -3.78032 0
M  V30 4123 H 402.67 5.3896 -2.7858 0
M  V30 4124 H 401.409 4.49568 -1.89049 0
M  V30 4125 H 400.414 3.71021 -4.05738 0
M  V30 4126 H 401.639 4.63761 -4.96087 0
M  V30 4127 H 399.585 5.80938 -3.04708 0
M  V30 4128 H 399.502 5.85909 -4.77752 0
M  V30 4129 H 400.77 6.71744 -3.9545 0
M  V30 4130 N 404.999 1.35443 0.805782 0
M  V30 4131 C 406.239 1.30127 1.57627 0
M  V30 4132 C 406.603 -0.122567 1.91608 0
M  V30 4133 O 407.804 -0.300107 2.67119 0
M  V30 4134 C 406.075 2.18314 2.82973 0
M  V30 4135 S 407.634 2.30521 3.7337 0
M  V30 4136 H 404.452 0.462439 0.540066 0
M  V30 4137 H 407.054 1.70843 0.95042 0
M  V30 4138 H 405.758 3.20741 2.56034 0
M  V30 4139 H 405.289 1.78558 3.50543 0
M  V30 4140 H 407.304 1.49062 4.73281 0
M  V30 4141 N 406.477 -1.02803 1.19454 0
M  V30 4142 C 407.41 -2.107 0.876396 0
M  V30 4143 C 408.388 -1.61741 -0.166897 0
M  V30 4144 O 409.572 -1.88451 -0.0430195 0
M  V30 4145 C 406.699 -3.37262 0.311758 0
M  V30 4146 C 405.745 -4.05093 1.33424 0
M  V30 4147 S 406.578 -4.50498 2.89503 0
M  V30 4148 C 407.734 -5.80277 2.34584 0
M  V30 4149 H 407.967 -2.37362 1.79016 0
M  V30 4150 H 405.5 -1.15755 1.02177 0
M  V30 4151 H 407.458 -4.10499 -0.00748752 0
M  V30 4152 H 406.119 -3.08693 -0.58032 0
M  V30 4153 H 405.312 -4.9611 0.888302 0
M  V30 4154 H 404.914 -3.3803 1.60037 0
M  V30 4155 H 407.206 -6.54873 1.73633 0
M  V30 4156 H 408.149 -6.29651 3.23952 0
M  V30 4157 H 408.557 -5.3599 1.77131 0
M  V30 4158 N 407.956 -0.998596 -1.21925 0
M  V30 4159 C 409.372 -0.710303 -1.42923 0
M  V30 4160 C 409.572 0.716933 -1.88314 0
M  V30 4161 O 408.628 1.48712 -2.04062 0
M  V30 4162 C 409.941 -1.72072 -2.466 0
M  V30 4163 C 411.489 -1.73681 -2.60392 0
M  V30 4164 C 411.964 -2.73601 -3.67296 0
M  V30 4165 N 413.455 -2.7223 -3.7476 0
M  V30 4166 C 414.19 -3.46206 -4.57087 0
M  V30 4167 N 413.686 -4.29802 -5.43362 0
M  V30 4168 N 415.479 -3.34886 -4.51451 0
M  V30 4169 H 407.63 -1.92028 -0.9077 0
M  V30 4170 H 409.893 -0.828487 -0.460775 0
M  V30 4171 H 409.599 -2.74231 -2.20206 0
M  V30 4172 H 409.473 -1.51818 -3.45299 0
M  V30 4173 H 411.86 -0.722173 -2.86127 0
M  V30 4174 H 411.941 -1.98005 -1.61949 0
M  V30 4175 H 411.585 -3.75217 -3.42307 0
M  V30 4176 H 411.515 -2.46545 -4.65321 0
M  V30 4177 H 414.006 -2.11576 -3.1312 0
M  V30 4178 H 414.319 -4.83061 -6.03218 0
M  V30 4179 H 412.664 -4.33887 -5.42925 0
M  V30 4180 H 415.855 -2.69015 -3.83078 0
M  V30 4181 H 416.028 -3.92796 -5.15379 0
M  V30 4182 N 409.434 1.37368 -0.772513 0
M  V30 4183 C 410.659 2.0447 -0.347386 0
M  V30 4184 C 411.084 1.57882 1.0225 0
M  V30 4185 O 410.442 0.73941 1.65537 0
M  V30 4186 C 410.49 3.58369 -0.400479 0
M  V30 4187 O 409.594 4.0803 0.598789 0
M  V30 4188 H 408.935 0.646773 -0.15027 0
M  V30 4189 H 411.465 1.75667 -1.04892 0
M  V30 4190 H 411.475 4.07183 -0.258045 0
M  V30 4191 H 410.15 3.91633 -1.39986 0
M  V30 4192 H 408.727 3.70534 0.419411 0
M  V30 4193 N 410.912 0.523116 1.48665 0
M  V30 4194 C 412.161 -0.01544 2.01694 0
M  V30 4195 C 412.474 -1.35975 1.40606 0
M  V30 4196 O 413.68 -1.98627 1.85093 0
M  V30 4197 C 412.136 -0.0779303 3.59816 0
M  V30 4198 C 411.744 1.26107 4.29885 0
M  V30 4199 C 413.488 -0.565678 4.20714 0
M  V30 4200 C 411.395 1.15954 5.79921 0
M  V30 4201 H 410.325 -0.00954163 0.75394 0
M  V30 4202 H 412.976 0.665865 1.70993 0
M  V30 4203 H 411.358 -0.824165 3.87329 0
M  V30 4204 H 412.532 2.02233 4.14051 0
M  V30 4205 H 410.847 1.68401 3.80828 0
M  V30 4206 H 413.444 -0.6595 5.30617 0
M  V30 4207 H 413.787 -1.56984 3.85567 0
M  V30 4208 H 414.32 0.12467 3.97605 0
M  V30 4209 H 411.059 2.13864 6.19631 0
M  V30 4210 H 410.579 0.439529 5.98187 0
M  V30 4211 H 412.258 0.847361 6.41427 0
M  V30 4212 N 412.39 -1.55475 0.257931 0
M  V30 4213 C 413.806 -1.59307 -0.0966563 0
M  V30 4214 C 414.006 -1.27514 -1.5602 0
M  V30 4215 O 413.062 -1.02774 -2.30637 0
M  V30 4216 C 414.375 -2.99552 0.262481 0
M  V30 4217 C 415.923 -3.1231 0.207683 0
M  V30 4218 C 416.398 -4.54793 0.541012 0
M  V30 4219 N 417.889 -4.6058 0.491921 0
M  V30 4220 C 418.624 -5.68825 0.722857 0
M  V30 4221 N 418.12 -6.85287 1.0175 0
M  V30 4222 N 419.913 -5.58296 0.652815 0
M  V30 4223 H 412.064 -1.74409 1.21224 0
M  V30 4224 H 414.327 -0.812424 0.48854 0
M  V30 4225 H 414.033 -3.27593 1.27967 0
M  V30 4226 H 413.907 -3.75019 -0.40508 0
M  V30 4227 H 416.294 -2.84044 -0.800195 0
M  V30 4228 H 416.375 -2.39095 0.909255 0
M  V30 4229 H 416.019 -4.83783 1.5465 0
M  V30 4230 H 415.949 -5.26285 -0.18216 0
M  V30 4231 H 418.44 -3.7691 0.273366 0
M  V30 4232 H 418.753 -7.63725 1.18084 0
M  V30 4233 H 417.098 -6.86945 1.05509 0
M  V30 4234 H 420.289 -4.66189 0.422592 0
M  V30 4235 H 420.462 -6.42582 0.836182 0
M  V30 4236 N 413.868 0.0150385 -1.57593 0
M  V30 4237 C 415.284 0.370907 -1.5523 0
M  V30 4238 C 415.484 1.75735 -0.985882 0
M  V30 4239 O 414.54 2.44944 -0.613077 0
M  V30 4240 C 415.853 0.259908 -2.99575 0
M  V30 4241 C 417.401 0.335959 -3.11192 0
M  V30 4242 C 417.876 0.254253 -4.57294 0
M  V30 4243 N 419.367 0.312618 -4.62144 0
M  V30 4244 C 420.102 0.272505 -5.72752 0
M  V30 4245 N 419.598 0.183864 -6.92556 0
M  V30 4246 N 421.391 0.323267 -5.6117 0
M  V30 4247 H 413.542 -0.892104 -1.92757 0
M  V30 4248 H 415.805 -0.340563 -0.884715 0
M  V30 4249 H 415.511 -0.693403 -3.44797 0
M  V30 4250 H 415.385 1.048 -3.62349 0
M  V30 4251 H 417.772 1.27971 -2.65909 0
M  V30 4252 H 417.853 -0.481739 -2.51223 0
M  V30 4253 H 417.497 -0.685887 -5.03247 0
M  V30 4254 H 417.427 1.09024 -5.15191 0
M  V30 4255 H 419.918 0.38307 -3.75953 0
M  V30 4256 H 420.231 0.15874 -7.72637 0
M  V30 4257 H 418.576 0.149708 -6.94839 0
M  V30 4258 H 421.767 0.390607 -4.66467 0
M  V30 4259 H 421.94 0.288539 -6.47357 0
M  V30 4260 N 415.346 1.54954 0.287554 0
M  V30 4261 C 416.592 1.76059 1.01856 0
M  V30 4262 C 416.947 0.547056 1.84459 0
M  V30 4263 O 416.24 -0.460442 1.85985 0
M  V30 4264 C 416.434 2.99833 1.94512 0
M  V30 4265 C 416.263 4.33108 1.21026 0
M  V30 4266 C 415.033 4.96632 0.931896 0
M  V30 4267 C 417.231 5.10694 0.607949 0
M  V30 4268 N 415.213 6.13668 0.168716 0
M  V30 4269 C 416.584 6.19996 -0.0217865 0
M  V30 4270 C 418.639 4.95236 0.514338 0
M  V30 4271 C 417.342 7.15524 -0.736092 0
M  V30 4272 C 419.368 5.91106 -0.186343 0
M  V30 4273 C 418.73 6.99786 -0.804875 0
M  V30 4274 H 414.829 0.696679 0.355193 0
M  V30 4275 H 417.413 1.92441 0.295741 0
M  V30 4276 H 415.584 2.84853 2.64033 0
M  V30 4277 H 417.316 3.09405 2.60865 0
M  V30 4278 H 414.071 4.57255 1.23348 0
M  V30 4279 H 414.495 6.76705 -0.199781 0
M  V30 4280 H 419.137 4.11328 0.978234 0
M  V30 4281 H 416.855 7.98964 -1.21172 0
M  V30 4282 H 420.441 5.81224 -0.258897 0
M  V30 4283 H 419.321 7.72694 -1.33843 0
M  V30 4284 N 416.824 -0.551391 1.4764 0
M  V30 4285 C 417.787 -1.64007 1.60107 0
M  V30 4286 C 418.787 -1.53601 0.47576 0
M  V30 4287 O 419.977 -1.57655 0.740988 0
M  V30 4288 C 417.109 -3.03569 1.55108 0
M  V30 4289 H 418.302 -1.543 2.57161 0
M  V30 4290 H 415.855 -0.771776 1.35917 0
M  V30 4291 H 416.59 -3.18804 0.594519 0
M  V30 4292 H 416.375 -3.12532 2.36783 0
M  V30 4293 H 417.865 -3.82762 1.66982 0
M  V30 4294 N 418.302 -1.35869 -0.798587 0
M  V30 4295 C 419.532 -1.32529 -1.58491 0
M  V30 4296 C 419.94 0.0975405 -1.88948 0
M  V30 4297 O 419.283 1.06224 -1.49874 0
M  V30 4298 C 419.345 -2.07247 -2.9375 0
M  V30 4299 C 419.009 -3.56391 -2.86068 0
M  V30 4300 C 420.006 -4.50824 -2.58947 0
M  V30 4301 C 417.691 -3.9915 -3.04933 0
M  V30 4302 C 419.685 -5.85993 -2.5078 0
M  V30 4303 C 417.372 -5.34413 -2.96389 0
M  V30 4304 C 418.37 -6.27646 -2.69349 0
M  V30 4305 O 418.058 -7.60426 -2.60782 0
M  V30 4306 H 417.79 -0.456529 -0.498556 0
M  V30 4307 H 420.344 -1.79425 -0.999799 0
M  V30 4308 H 418.574 -1.55001 -3.54276 0
M  V30 4309 H 420.263 -1.96883 -3.54954 0
M  V30 4310 H 421.029 -4.19104 -2.44084 0
M  V30 4311 H 416.908 -3.26961 -3.24989 0
M  V30 4312 H 420.452 -6.58735 -2.29595 0
M  V30 4313 H 416.349 -5.65743 -3.10813 0
M  V30 4314 H 417.117 -7.70444 -2.76331 0
M  V30 4315 N 419.78 1.02168 -1.19998 0
M  V30 4316 C 420.69 2.14069 -0.959774 0
M  V30 4317 C 421.706 1.73804 0.082655 0
M  V30 4318 O 422.882 2.01133 -0.103633 0
M  V30 4319 C 419.947 3.42936 -0.509459 0
M  V30 4320 C 419.008 3.97474 -1.62213 0
M  V30 4321 C 418.241 5.2019 -1.19321 0
M  V30 4322 O 418.464 5.70369 -0.0597726 0
M  V30 4323 O 417.398 5.67749 -1.99863 0
M  V30 4324 H 421.224 2.37199 -1.89658 0
M  V30 4325 H 418.809 1.12469 -0.983411 0
M  V30 4326 H 420.691 4.20551 -0.267322 0
M  V30 4327 H 419.366 3.21234 0.398821 0
M  V30 4328 H 418.273 3.21161 -1.9185 0
M  V30 4329 H 419.606 4.23555 -2.50723 0
M  V30 4330 N 421.258 1.00505 1.21394 0
M  V30 4331 C 422.191 0.51032 2.22421 0
M  V30 4332 C 423.169 -0.436 1.56645 0
M  V30 4333 O 424.353 -0.358709 1.85055 0
M  V30 4334 C 421.48 -0.258733 3.3771 0
M  V30 4335 C 420.526 0.635395 4.2174 0
M  V30 4336 S 421.359 2.09783 4.92698 0
M  V30 4337 C 422.515 1.33862 6.11418 0
M  V30 4338 H 422.748 1.36637 2.64041 0
M  V30 4339 H 420.281 0.812991 1.31262 0
M  V30 4340 H 422.239 -0.696372 4.0455 0
M  V30 4341 H 420.9 -1.0902 2.94573 0
M  V30 4342 H 420.093 0.0430189 5.03982 0
M  V30 4343 H 419.695 1.01031 3.60095 0
M  V30 4344 H 421.987 0.612541 6.74725 0
M  V30 4345 H 422.93 2.13675 6.75092 0
M  V30 4346 H 423.338 0.846568 5.58116 0
M  V30 4347 N 422.737 -1.36956 0.779787 0
M  V30 4348 C 423.984 -1.99491 0.347766 0
M  V30 4349 C 424.312 -1.61898 -1.07793 0
M  V30 4350 O 423.567 -0.86071 -1.75756 0
M  V30 4351 C 423.866 -3.54585 0.447686 0
M  V30 4352 C 423.532 -4.1197 1.83279 0
M  V30 4353 C 422.194 -4.27356 2.2118 0
M  V30 4354 C 424.546 -4.43354 2.74019 0
M  V30 4355 C 421.874 -4.71432 3.4924 0
M  V30 4356 C 424.226 -4.88858 4.01497 0
M  V30 4357 C 422.89 -5.0245 4.39432 0
M  V30 4358 H 422.16 -0.729991 0.127257 0
M  V30 4359 H 424.807 -1.63599 0.995376 0
M  V30 4360 H 423.112 -3.90773 -0.283447 0
M  V30 4361 H 424.809 -4.00888 0.0945948 0
M  V30 4362 H 421.399 -4.00428 1.52825 0
M  V30 4363 H 425.583 -4.31045 2.45995 0
M  V30 4364 H 420.839 -4.80141 3.78516 0
M  V30 4365 H 425.013 -5.12108 4.71931 0
M  V30 4366 H 422.64 -5.36362 5.38721 0
M  V30 4367 N 424.215 -0.530993 -1.48385 0
M  V30 4368 C 425.631 -0.188919 -1.58478 0
M  V30 4369 C 425.831 1.30786 -1.53288 0
M  V30 4370 O 424.887 2.08619 -1.42248 0
M  V30 4371 C 426.2 -0.792343 -2.90073 0
M  V30 4372 C 427.748 -0.76117 -3.03604 0
M  V30 4373 C 428.223 -1.34319 -4.37861 0
M  V30 4374 N 429.714 -1.3052 -4.44431 0
M  V30 4375 C 430.449 -1.72543 -5.46824 0
M  V30 4376 N 429.945 -2.22299 -6.56167 0
M  V30 4377 N 431.738 -1.63773 -5.37712 0
M  V30 4378 H 423.889 -1.50377 -1.50002 0
M  V30 4379 H 426.152 -0.625559 -0.712306 0
M  V30 4380 H 425.858 -1.84323 -2.99529 0
M  V30 4381 H 425.732 -0.270026 -3.76232 0
M  V30 4382 H 428.119 0.280957 -2.93759 0
M  V30 4383 H 428.2 -1.32097 -2.19053 0
M  V30 4384 H 427.844 -2.38425 -4.4846 0
M  V30 4385 H 427.774 -0.759064 -5.21101 0
M  V30 4386 H 430.265 -0.940973 -3.65997 0
M  V30 4387 H 430.578 -2.52356 -7.30436 0
M  V30 4388 H 428.923 -2.26293 -6.57127 0
M  V30 4389 H 432.114 -1.24698 -4.51185 0
M  V30 4390 H 432.287 -1.96844 -6.17379 0
M  V30 4391 N 425.693 1.55336 -0.266172 0
M  V30 4392 C 426.641 2.23587 0.641228 0
M  V30 4393 C 427.635 1.22986 1.16494 0
M  V30 4394 O 428.841 1.40943 1.1196 0
M  V30 4395 H 425.216 0.717452 0.225315 0
M  V30 4396 H 427.187 2.9837 0.0426561 0
M  V30 4397 C 425.936 2.96369 1.81826 0
M  V30 4398 H 425.259 3.73563 1.42445 0
M  V30 4399 H 426.699 3.47459 2.42998 0
M  V30 4400 C 425.158 2.0133 2.70125 0
M  V30 4401 O 425.688 1.55875 3.70224 0
M  V30 4402 N 423.894 1.6802 2.37102 0
M  V30 4403 H 423.441 2.05181 1.55751 0
M  V30 4404 H 423.399 1.047 2.96454 0
M  V30 4405 N 427.171 -0.0066808 1.57599 0
M  V30 4406 C 428.081 -1.01671 2.11424 0
M  V30 4407 C 429.097 -1.38143 1.05795 0
M  V30 4408 O 430.273 -1.47011 1.37658 0
M  V30 4409 C 427.338 -2.29192 2.60139 0
M  V30 4410 C 426.399 -1.99094 3.80342 0
M  V30 4411 C 425.632 -3.20535 4.26724 0
M  V30 4412 O 425.855 -4.3199 3.72479 0
M  V30 4413 O 424.789 -3.04924 5.18946 0
M  V30 4414 H 428.615 -0.589181 2.9793 0
M  V30 4415 H 426.2 -0.225091 1.47695 0
M  V30 4416 H 428.082 -3.0412 2.917 0
M  V30 4417 H 426.757 -2.71195 1.76733 0
M  V30 4418 H 425.664 -1.21663 3.53764 0
M  V30 4419 H 426.997 -1.61931 4.648 0
M  V30 4420 N 428.649 -1.55105 -0.279332 0
M  V30 4421 C 430.065 -1.46803 -0.626187 0
M  V30 4422 C 430.265 -0.676939 -1.89789 0
M  V30 4423 O 429.321 -0.19326 -2.51759 0
M  V30 4424 C 430.634 -2.90962 -0.759034 0
M  V30 4425 C 432.182 -3.01138 -0.853504 0
M  V30 4426 C 432.657 -4.46539 -1.01818 0
M  V30 4427 N 434.148 -4.50341 -1.08386 0
M  V30 4428 C 434.883 -5.60053 -1.22996 0
M  V30 4429 N 434.379 -6.79645 -1.34366 0
M  V30 4430 N 436.172 -5.47783 -1.26056 0
M  V30 4431 H 428.323 -2.04996 0.555921 0
M  V30 4432 H 430.586 -0.929325 0.187239 0
M  V30 4433 H 430.292 -3.51544 0.104852 0
M  V30 4434 H 430.166 -3.39619 -1.64131 0
M  V30 4435 H 432.553 -2.40658 -1.70786 0
M  V30 4436 H 432.634 -2.55745 0.0532466 0
M  V30 4437 H 432.278 -5.0762 -0.168504 0
M  V30 4438 H 432.208 -4.89583 -1.93948 0
M  V30 4439 H 434.699 -3.64191 -1.00864 0
M  V30 4440 H 435.012 -7.59012 -1.4533 0
M  V30 4441 H 433.357 -6.82469 -1.31382 0
M  V30 4442 H 436.548 -4.53294 -1.168 0
M  V30 4443 H 436.721 -6.33331 -1.37098 0
M  V30 4444 N 430.127 0.543554 -1.4793 0
M  V30 4445 C 431.09 1.63156 -1.60975 0
M  V30 4446 C 432.09 1.53346 -0.483899 0
M  V30 4447 O 433.28 1.5726 -0.749339 0
M  V30 4448 C 430.412 3.02743 -1.56716 0
M  V30 4449 H 431.605 1.52934 -2.57975 0
M  V30 4450 H 429.158 0.764557 -1.36324 0
M  V30 4451 H 429.893 3.18484 -0.611418 0
M  V30 4452 H 429.678 3.11272 -2.38438 0
M  V30 4453 H 431.168 3.81871 -1.6901 0
M  V30 4454 N 431.605 1.3629 0.791371 0
M  V30 4455 C 432.854 1.29742 1.54434 0
M  V30 4456 C 433.167 -0.121729 1.95221 0
M  V30 4457 O 434.373 -0.309579 2.69729 0
M  V30 4458 C 432.829 2.27623 2.78776 0
M  V30 4459 C 432.437 3.74963 2.45166 0
M  V30 4460 C 434.181 2.30047 3.56761 0
M  V30 4461 C 432.088 4.64626 3.65891 0
M  V30 4462 H 431.018 0.482113 0.579727 0
M  V30 4463 H 433.669 1.61642 0.868565 0
M  V30 4464 H 432.051 1.88714 3.48142 0
M  V30 4465 H 433.225 4.22596 1.83709 0
M  V30 4466 H 431.54 3.75295 1.80396 0
M  V30 4467 H 434.137 2.94247 4.46456 0
M  V30 4468 H 434.48 1.30846 3.95203 0
M  V30 4469 H 435.013 2.67563 2.94372 0
M  V30 4470 H 431.752 5.64883 3.32547 0
M  V30 4471 H 431.272 4.2171 4.26521 0
M  V30 4472 H 432.951 4.80801 4.32943 0
M  V30 4473 N 433.083 -1.0153 1.20538 0
M  V30 4474 C 434.499 -1.27461 0.96051 0
M  V30 4475 C 434.699 -1.98273 -0.359193 0
M  V30 4476 O 433.755 -2.27886 -1.0874 0
M  V30 4477 C 435.068 -2.10837 2.14402 0
M  V30 4478 C 436.616 -2.24099 2.18515 0
M  V30 4479 C 437.091 -3.10852 3.36355 0
M  V30 4480 N 438.582 -3.18441 3.36377 0
M  V30 4481 C 439.317 -3.85795 4.24205 0
M  V30 4482 N 438.813 -4.55264 5.22213 0
M  V30 4483 N 440.606 -3.82331 4.12043 0
M  V30 4484 H 432.757 -0.539907 2.05423 0
M  V30 4485 H 435.02 -0.30092 0.898972 0
M  V30 4486 H 434.726 -1.66144 3.09983 0
M  V30 4487 H 434.6 -3.11576 2.12604 0
M  V30 4488 H 436.987 -2.68016 1.23497 0
M  V30 4489 H 437.068 -1.22865 2.24361 0
M  V30 4490 H 436.712 -2.6764 4.31661 0
M  V30 4491 H 436.642 -4.12177 3.27746 0
M  V30 4492 H 439.133 -2.68978 2.65442 0
M  V30 4493 H 439.446 -5.04331 5.85551 0
M  V30 4494 H 437.791 -4.54085 5.26148 0
M  V30 4495 H 440.982 -3.27207 3.34743 0
M  V30 4496 H 441.155 -4.34547 4.807 0
M  V30 4497 N 434.561 -1.01147 -1.20859 0
M  V30 4498 C 435.808 -0.697865 -1.90095 0
M  V30 4499 C 436.136 0.772014 -1.78522 0
M  V30 4500 O 435.391 1.57595 -1.16027 0
M  V30 4501 C 435.69 -1.0727 -3.40922 0
M  V30 4502 C 435.356 -2.53792 -3.72693 0
M  V30 4503 C 434.018 -2.93829 -3.81075 0
M  V30 4504 C 436.37 -3.48674 -3.87397 0
M  V30 4505 C 433.698 -4.27696 -4.01613 0
M  V30 4506 C 436.05 -4.82223 -4.09444 0
M  V30 4507 C 434.714 -5.21973 -4.16054 0
M  V30 4508 H 433.984 -0.255367 -0.695607 0
M  V30 4509 H 436.631 -1.27111 -1.43231 0
M  V30 4510 H 434.936 -0.417799 -3.89566 0
M  V30 4511 H 436.633 -0.807818 -3.92779 0
M  V30 4512 H 433.223 -2.21768 -3.66765 0
M  V30 4513 H 437.407 -3.18904 -3.80281 0
M  V30 4514 H 432.663 -4.58055 -4.04964 0
M  V30 4515 H 436.837 -5.55672 -4.19763 0
M  V30 4516 H 434.464 -6.25717 -4.31721 0
M  V30 4517 N 436.039 1.36541 -0.78704 0
M  V30 4518 C 437.285 1.99599 -0.358872 0
M  V30 4519 C 437.618 1.62323 1.06606 0
M  V30 4520 O 436.893 0.876858 1.73613 0
M  V30 4521 C 437.176 3.56327 -0.519944 0
M  V30 4522 C 437.029 4.03464 -1.98839 0
M  V30 4523 C 438.348 4.4005 0.0664737 0
M  V30 4524 H 435.467 0.725107 -0.131869 0
M  V30 4525 H 438.109 1.6199 -0.992936 0
M  V30 4526 H 436.259 3.88495 0.0198321 0
M  V30 4527 H 437.931 3.81793 -2.58905 0
M  V30 4528 H 436.174 3.55092 -2.49183 0
M  V30 4529 H 436.845 5.12439 -2.05207 0
M  V30 4530 H 439.321 4.14228 -0.394267 0
M  V30 4531 H 438.197 5.48847 -0.0762682 0
M  V30 4532 H 438.458 4.26655 1.15835 0
M  V30 4533 N 437.518 0.538854 1.48102 0
M  V30 4534 C 438.764 0.00801365 2.02798 0
M  V30 4535 C 439.097 -1.3309 1.41424 0
M  V30 4536 O 438.372 -1.86169 0.563158 0
M  V30 4537 C 438.655 -0.104589 3.59948 0
M  V30 4538 C 438.508 1.26012 4.31788 0
M  V30 4539 C 439.827 -0.827055 4.32259 0
M  V30 4540 H 436.946 0.00438624 0.736987 0
M  V30 4541 H 439.588 0.6976 1.7673 0
M  V30 4542 H 437.738 -0.691893 3.82289 0
M  V30 4543 H 439.41 1.88922 4.2084 0
M  V30 4544 H 437.653 1.83968 3.92859 0
M  V30 4545 H 438.324 1.13424 5.40221 0
M  V30 4546 H 440.8 -0.328578 4.14801 0
M  V30 4547 H 439.676 -0.87476 5.41885 0
M  V30 4548 H 439.937 -1.87927 4.0017 0
M  V30 4549 N 438.996 -1.55193 0.274407 0
M  V30 4550 C 439.929 -2.18606 -0.654712 0
M  V30 4551 C 440.907 -1.14677 -1.15273 0
M  V30 4552 O 442.091 -1.43198 -1.22583 0
M  V30 4553 C 439.218 -2.80875 -1.89281 0
M  V30 4554 C 438.264 -3.981 -1.53032 0
M  V30 4555 S 439.097 -5.32025 -0.609107 0
M  V30 4556 C 440.253 -5.97761 -1.85559 0
M  V30 4557 H 440.486 -2.97074 -0.115894 0
M  V30 4558 H 438.019 -1.54288 0.05867 0
M  V30 4559 H 439.977 -3.17381 -2.60345 0
M  V30 4560 H 438.638 -2.02302 -2.40277 0
M  V30 4561 H 437.831 -4.40356 -2.45158 0
M  V30 4562 H 437.433 -3.63013 -0.899874 0
M  V30 4563 H 439.725 -6.16951 -2.7996 0
M  V30 4564 H 440.668 -6.92545 -1.47605 0
M  V30 4565 H 441.076 -5.27113 -2.02021 0
M  V30 4566 N 440.474 -0.00167713 -1.576 0
M  V30 4567 C 441.72 0.683832 -1.90923 0
M  V30 4568 C 442.053 1.7333 -0.875799 0
M  V30 4569 O 441.328 1.94215 0.10525 0
M  V30 4570 C 441.611 1.32543 -3.3482 0
M  V30 4571 C 441.464 0.287387 -4.48881 0
M  V30 4572 C 442.783 2.25114 -3.78169 0
M  V30 4573 H 439.902 0.247125 -0.694333 0
M  V30 4574 H 442.544 -0.0533149 -1.89925 0
M  V30 4575 H 440.694 1.95372 -3.35801 0
M  V30 4576 H 442.366 -0.341346 -4.60035 0
M  V30 4577 H 440.609 -0.39017 -4.32042 0
M  V30 4578 H 441.28 0.775393 -5.46527 0
M  V30 4579 H 443.756 1.723 -3.7875 0
M  V30 4580 H 442.632 2.66971 -4.79602 0
M  V30 4581 H 442.893 3.13092 -3.12131 0
M  V30 4582 N 441.952 1.55251 0.271103 0
M  V30 4583 C 443.18 1.79974 1.02064 0
M  V30 4584 C 443.595 0.574003 1.79863 0
M  V30 4585 O 442.952 -0.456962 1.76686 0
M  V30 4586 C 443.003 3.02603 1.97772 0
M  V30 4587 O 442.724 4.20443 1.23124 0
M  V30 4588 C 444.225 3.39944 2.84522 0
M  V30 4589 H 441.445 0.599489 0.301419 0
M  V30 4590 H 443.989 2.02268 0.301313 0
M  V30 4591 H 442.144 2.8243 2.65165 0
M  V30 4592 H 442.558 4.89783 1.87651 0
M  V30 4593 H 444.032 4.28915 3.47471 0
M  V30 4594 H 444.509 2.59432 3.54389 0
M  V30 4595 H 445.115 3.62383 2.22618 0
M  V30 4596 N 443.43 -0.535701 1.48216 0
M  V30 4597 C 444.841 -1.11769 1.49548 0
M  V30 4598 C 445.192 -1.94442 0.26207 0
M  V30 4599 O 444.317 -2.06987 -0.631287 0
M  V30 4600 C 444.912 -2.03367 2.70975 0
M  V30 4601 C 443.471 -2.56795 2.75196 0
M  V30 4602 C 442.618 -1.33631 2.42977 0
M  V30 4603 H 445.569 -0.321232 1.55415 0
M  V30 4604 H 445.59 -2.87569 2.49167 0
M  V30 4605 H 445.102 -1.43169 3.60727 0
M  V30 4606 H 443.203 -3.20731 1.89638 0
M  V30 4607 H 443.316 -2.9632 3.76472 0
M  V30 4608 H 441.68 -1.6502 1.94012 0
M  V30 4609 H 442.463 -0.75194 3.34964 0
M  V30 4610 N 444.908 -1.36708 -0.784132 0
M  V30 4611 C 445.818 -1.3363 -1.92822 0
M  V30 4612 C 446.834 -0.237686 -1.72369 0
M  V30 4613 O 448.01 -0.470962 -1.95816 0
M  V30 4614 C 445.075 -1.13011 -3.27764 0
M  V30 4615 C 444.136 -2.32397 -3.60957 0
M  V30 4616 C 443.369 -2.12752 -4.89461 0
M  V30 4617 O 443.592 -1.10541 -5.59586 0
M  V30 4618 O 442.526 -3.00653 -5.21432 0
M  V30 4619 H 446.352 -2.29964 -1.98369 0
M  V30 4620 H 443.937 -1.1731 -0.925136 0
M  V30 4621 H 445.819 -1.03451 -4.08504 0
M  V30 4622 H 444.494 -0.19743 -3.23097 0
M  V30 4623 H 443.401 -2.47527 -2.80502 0
M  V30 4624 H 444.734 -3.2419 -3.70354 0
M  V30 4625 N 446.386 1.0089 -1.21074 0
M  V30 4626 C 447.663 1.71834 -0.934469 0
M  V30 4627 C 448.043 2.0368 0.554753 0
M  V30 4628 O 447.391 1.70742 1.51854 0
M  V30 4629 C 447.601 2.98061 -1.8155 0
M  V30 4630 C 448.949 3.7117 -2.06199 0
M  V30 4631 O 449.973 3.08034 -1.78867 0
M  V30 4632 O 448.832 4.84721 -2.52404 0
M  V30 4633 H 445.926 0.749253 -0.35007 0
M  V30 4634 H 448.472 1.06668 -1.31985 0
M  V30 4635 H 447.244 2.70908 -2.82355 0
M  V30 4636 H 446.867 3.70968 -1.43068 0
M  V30 4637 N 447.864 1.01787 1.20321 0
M  V30 4638 C 448.794 0.609625 2.25401 0
M  V30 4639 C 449.775 -0.375951 1.65893 0
M  V30 4640 O 450.96 -0.261101 1.92437 0
M  V30 4641 C 448.09 -0.0515995 3.47262 0
M  V30 4642 C 447.044 0.855095 4.19371 0
M  V30 4643 C 446.37 0.0595757 5.34667 0
M  V30 4644 C 447.67 2.16374 4.75373 0
M  V30 4645 H 449.364 1.48803 2.59804 0
M  V30 4646 H 446.91 0.716934 1.24884 0
M  V30 4647 H 448.863 -0.348764 4.19954 0
M  V30 4648 H 447.587 -0.964726 3.12027 0
M  V30 4649 H 446.246 1.13628 3.48546 0
M  V30 4650 H 445.894 -0.85524 4.95676 0
M  V30 4651 H 445.594 0.663406 5.83843 0
M  V30 4652 H 447.118 -0.231105 6.10162 0
M  V30 4653 H 448.532 1.92885 5.39878 0
M  V30 4654 H 446.929 2.71853 5.34991 0
M  V30 4655 H 447.999 2.82589 3.94045 0
M  V30 4656 N 449.342 -1.36122 0.79427 0
M  V30 4657 C 450.289 -2.29982 0.194101 0
M  V30 4658 C 451.259 -1.52214 -0.664833 0
M  V30 4659 O 452.444 -1.80702 -0.612498 0
M  V30 4660 C 449.584 -3.38706 -0.661244 0
M  V30 4661 C 448.697 -4.31456 0.216766 0
M  V30 4662 C 447.832 -5.27265 -0.645411 0
M  V30 4663 C 446.871 -6.11653 0.233756 0
M  V30 4664 N 446.008 -6.99636 -0.587682 0
M  V30 4665 H 450.848 -2.80722 0.999965 0
M  V30 4666 H 448.385 -1.38172 0.504677 0
M  V30 4667 H 450.343 -4.00394 -1.17219 0
M  V30 4668 H 448.973 -2.89274 -1.43249 0
M  V30 4669 H 448.025 -3.7088 0.845724 0
M  V30 4670 H 449.337 -4.90724 0.893973 0
M  V30 4671 H 448.491 -5.94266 -1.22198 0
M  V30 4672 H 447.23 -4.68463 -1.35623 0
M  V30 4673 H 446.235 -5.4361 0.82269 0
M  V30 4674 H 447.46 -6.72531 0.942247 0
M  V30 4675 H 445.406 -6.43337 -1.2827 0
M  V30 4676 H 445.323 -7.55993 0.0317402 0
M  V30 4677 H 446.591 -7.71001 -1.14792 0
M  V30 4678 N 450.82 -0.546701 -1.47814 0
M  V30 4679 C 451.783 0.196287 -2.28358 0
M  V30 4680 C 452.783 0.852437 -1.36346 0
M  V30 4681 O 453.973 0.709913 -1.59078 0
M  V30 4682 C 451.105 1.28579 -3.15722 0
M  V30 4683 H 452.298 -0.511086 -2.95513 0
M  V30 4684 H 449.851 -0.303248 -1.5333 0
M  V30 4685 H 450.586 2.0259 -2.53235 0
M  V30 4686 H 450.371 0.820229 -3.83425 0
M  V30 4687 H 451.861 1.80793 -3.76435 0
M  V30 4688 N 452.299 1.55045 -0.282633 0
M  V30 4689 C 453.247 2.24254 0.617478 0
M  V30 4690 C 454.241 1.24215 1.15183 0
M  V30 4691 O 455.447 1.42123 1.10459 0
M  V30 4692 H 451.822 0.719801 0.217693 0
M  V30 4693 H 453.793 2.98398 0.0110076 0
M  V30 4694 C 452.542 2.98281 1.78672 0
M  V30 4695 H 451.865 3.75053 1.38475 0
M  V30 4696 H 453.305 3.50017 2.393 0
M  V30 4697 C 451.764 2.04184 2.67975 0
M  V30 4698 O 452.294 1.59792 3.6855 0
M  V30 4699 N 450.5 1.70526 2.35307 0
M  V30 4700 H 450.047 2.06821 1.53567 0
M  V30 4701 H 450.005 1.07839 2.95327 0
M  V30 4702 N 453.777 0.010035 1.57597 0
M  V30 4703 C 454.74 -0.963029 2.07986 0
M  V30 4704 C 455.74 -1.26619 0.991173 0
M  V30 4705 O 456.93 -1.2097 1.25347 0
M  V30 4706 C 454.062 -2.2851 2.52974 0
M  V30 4707 H 455.255 -0.526971 2.95234 0
M  V30 4708 H 452.808 -0.237639 1.54483 0
M  V30 4709 H 453.543 -2.76784 1.69 0
M  V30 4710 H 453.328 -2.07824 3.32493 0
M  V30 4711 H 454.818 -2.98294 2.9225 0
M  V30 4712 N 455.255 -1.55392 -0.262866 0
M  V30 4713 C 456.165 -1.92077 -1.34698 0
M  V30 4714 C 457.181 -0.819227 -1.53508 0
M  V30 4715 O 458.357 -1.11921 -1.67439 0
M  V30 4716 C 455.422 -2.19407 -2.68443 0
M  V30 4717 C 454.483 -3.42905 -2.58292 0
M  V30 4718 C 453.716 -3.68921 -3.85659 0
M  V30 4719 O 453.939 -2.97275 -4.8681 0
M  V30 4720 O 452.873 -4.62455 -3.85252 0
M  V30 4721 H 456.699 -2.84384 -1.06581 0
M  V30 4722 H 454.284 -1.42069 -0.462264 0
M  V30 4723 H 456.166 -2.38365 -3.47506 0
M  V30 4724 H 454.841 -1.30282 -2.96325 0
M  V30 4725 H 453.748 -3.29272 -1.7757 0
M  V30 4726 H 455.081 -4.32282 -2.35358 0
M  V30 4727 N 456.733 0.527833 -1.48498 0
M  V30 4728 C 457.963 1.30633 -1.60058 0
M  V30 4729 C 458.371 1.87394 -0.260786 0
M  V30 4730 O 457.714 1.67227 0.760317 0
M  V30 4731 C 457.776 2.49361 -2.58958 0
M  V30 4732 C 457.44 2.13671 -4.03972 0
M  V30 4733 C 458.437 1.69217 -4.91591 0
M  V30 4734 C 456.122 2.24129 -4.49524 0
M  V30 4735 C 458.116 1.35689 -6.2279 0
M  V30 4736 C 455.803 1.90212 -5.80743 0
M  V30 4737 C 456.801 1.46063 -6.67199 0
M  V30 4738 O 456.489 1.12593 -7.95976 0
M  V30 4739 H 456.221 0.403444 -0.54241 0
M  V30 4740 H 458.775 0.643233 -1.95068 0
M  V30 4741 H 457.005 3.18659 -2.19073 0
M  V30 4742 H 458.694 3.11421 -2.6033 0
M  V30 4743 H 459.46 1.60607 -4.57636 0
M  V30 4744 H 455.339 2.57447 -3.82416 0
M  V30 4745 H 458.883 1.01157 -6.90227 0
M  V30 4746 H 454.78 1.98464 -6.14233 0
M  V30 4747 H 455.548 1.25972 -8.08748 0
M  V30 4748 N 458.211 1.37122 0.776871 0
M  V30 4749 C 459.46 1.31373 1.53049 0
M  V30 4750 C 459.773 -0.101016 1.95339 0
M  V30 4751 O 460.979 -0.280953 2.70042 0
M  V30 4752 C 459.435 2.30567 2.76346 0
M  V30 4753 C 459.043 3.77543 2.41175 0
M  V30 4754 C 460.787 2.33818 3.54301 0
M  V30 4755 C 458.694 4.68481 3.60943 0
M  V30 4756 H 457.624 0.488234 0.574581 0
M  V30 4757 H 460.275 1.62554 0.851372 0
M  V30 4758 H 458.657 1.92396 3.46121 0
M  V30 4759 H 459.831 4.24521 1.79216 0
M  V30 4760 H 458.146 3.77187 1.76405 0
M  V30 4761 H 460.743 2.98965 4.4331 0
M  V30 4762 H 461.086 1.3503 3.93793 0
M  V30 4763 H 461.619 2.7067 2.91518 0
M  V30 4764 H 458.358 5.68378 3.26537 0
M  V30 4765 H 457.878 4.2621 4.22025 0
M  V30 4766 H 459.557 4.85366 4.27819 0
M  V30 4767 N 459.689 -1.00246 1.21608 0
M  V30 4768 C 460.636 -2.09073 0.977613 0
M  V30 4769 C 461.606 -1.65815 -0.097297 0
M  V30 4770 O 462.791 -1.90734 0.0503445 0
M  V30 4771 C 459.931 -3.40671 0.551133 0
M  V30 4772 C 459.044 -3.97326 1.69576 0
M  V30 4773 C 458.179 -5.17043 1.2182 0
M  V30 4774 C 457.218 -5.65813 2.335 0
M  V30 4775 N 456.355 -6.76778 1.86859 0
M  V30 4776 H 461.195 -2.28806 1.90924 0
M  V30 4777 H 458.732 -1.12186 0.951452 0
M  V30 4778 H 460.69 -4.16225 0.285097 0
M  V30 4779 H 459.32 -3.20967 -0.343489 0
M  V30 4780 H 458.372 -3.18734 2.07637 0
M  V30 4781 H 459.684 -4.29511 2.53617 0
M  V30 4782 H 458.838 -5.99852 0.908975 0
M  V30 4783 H 457.577 -4.86458 0.347869 0
M  V30 4784 H 456.582 -4.81599 2.65222 0
M  V30 4785 H 457.807 -5.98427 3.21033 0
M  V30 4786 H 455.753 -6.47994 1.02174 0
M  V30 4787 H 455.67 -7.08231 2.64471 0
M  V30 4788 H 456.938 -7.63116 1.58978 0
M  V30 4789 N 461.167 -1.02423 -1.1978 0
M  V30 4790 C 462.1 -0.545641 -2.21581 0
M  V30 4791 C 463.078 0.411024 -1.57319 0
M  V30 4792 O 464.262 0.329223 -1.85603 0
M  V30 4793 C 461.389 0.204973 -3.38079 0
M  V30 4794 C 460.435 -0.70241 -4.20676 0
M  V30 4795 S 461.268 -2.17595 -4.89298 0
M  V30 4796 C 462.424 -1.43572 -6.09211 0
M  V30 4797 H 462.657 -1.4082 -2.61834 0
M  V30 4798 H 460.19 -0.833771 -1.29952 0
M  V30 4799 H 462.148 0.631924 -4.05607 0
M  V30 4800 H 460.809 1.0432 -2.9627 0
M  V30 4801 H 460.002 -0.123193 -5.03849 0
M  V30 4802 H 459.604 -1.06747 -3.58442 0
M  V30 4803 H 461.896 -0.719806 -6.73665 0
M  V30 4804 H 462.839 -2.24388 -6.71607 0
M  V30 4805 H 463.247 -0.935252 -5.56699 0
M  V30 4806 N 462.645 1.35699 -0.801477 0
M  V30 4807 C 463.608 2.28199 -0.213994 0
M  V30 4808 C 464.608 1.49359 0.595691 0
M  V30 4809 O 465.798 1.69186 0.414921 0
M  V30 4810 C 462.93 3.33587 0.702297 0
M  V30 4811 H 464.123 2.81666 -1.02976 0
M  V30 4812 H 461.676 1.45467 -0.571759 0
M  V30 4813 H 462.411 2.85297 1.54195 0
M  V30 4814 H 462.196 3.91906 0.123484 0
M  V30 4815 H 463.686 4.02638 1.10783 0
M  V30 4816 N 464.123 0.554532 1.47522 0
M  V30 4817 C 465.4 -0.0360704 1.95567 0
M  V30 4818 C 465.78 -1.48828 1.49711 0
M  V30 4819 O 465.128 -2.16366 0.734717 0
M  V30 4820 C 465.338 0.106631 3.48837 0
M  V30 4821 C 466.686 -0.0400899 4.24581 0
M  V30 4822 O 467.71 0.0340453 3.56184 0
M  V30 4823 O 466.569 -0.199111 5.46137 0
M  V30 4824 H 463.663 -0.0656294 0.824392 0
M  V30 4825 H 466.209 0.620867 1.57935 0
M  V30 4826 H 464.981 1.11727 3.7501 0
M  V30 4827 H 464.604 -0.58804 3.93227 0
M  V30 4828 N 465.601 -1.54893 0.290851 0
M  V30 4829 C 466.551 -2.19838 -0.604599 0
M  V30 4830 C 467.535 -1.16805 -1.10659 0
M  V30 4831 O 468.727 -1.42562 -1.04905 0
M  V30 4832 C 465.856 -2.93497 -1.78086 0
M  V30 4833 C 464.942 -4.03835 -1.29531 0
M  V30 4834 N 465.333 -5.03047 -0.527024 0
M  V30 4835 C 463.631 -4.17192 -1.57693 0
M  V30 4836 C 464.332 -5.81074 -0.269728 0
M  V30 4837 N 463.308 -5.36966 -0.846651 0
M  V30 4838 H 467.11 -2.93898 -0.00995032 0
M  V30 4839 H 464.624 -1.62121 0.0951353 0
M  V30 4840 H 466.621 -3.38484 -2.43381 0
M  V30 4841 H 465.281 -2.2095 -2.37931 0
M  V30 4842 H 466.292 -5.17611 -0.172872 0
M  V30 4843 H 462.969 -3.55845 -2.18359 0
M  V30 4844 H 464.359 -6.71005 0.346643 0
M  V30 4845 N 467.08 -0.0183926 -1.57589 0
M  V30 4846 C 468.31 0.67207 -1.95363 0
M  V30 4847 C 468.718 1.66807 -0.892872 0
M  V30 4848 O 468.061 1.83204 0.134958 0
M  V30 4849 C 468.123 1.44397 -3.29226 0
M  V30 4850 C 467.787 0.607511 -4.52944 0
M  V30 4851 C 468.784 -0.112657 -5.19778 0
M  V30 4852 C 466.469 0.548068 -4.99301 0
M  V30 4853 C 468.463 -0.881057 -6.31281 0
M  V30 4854 C 466.15 -0.224044 -6.10689 0
M  V30 4855 C 467.148 -0.937323 -6.76538 0
M  V30 4856 O 466.836 -1.6968 -7.85789 0
M  V30 4857 H 466.568 0.190925 -0.648478 0
M  V30 4858 H 469.122 -0.0711994 -2.05277 0
M  V30 4859 H 467.352 2.23214 -3.15773 0
M  V30 4860 H 469.041 2.02152 -3.51979 0
M  V30 4861 H 469.807 -0.0759998 -4.8494 0
M  V30 4862 H 465.686 1.09281 -4.4786 0
M  V30 4863 H 469.23 -1.43832 -6.82611 0
M  V30 4864 H 465.127 -0.262457 -6.44966 0
M  V30 4865 H 465.895 -1.61544 -8.024 0
M  V30 4866 N 468.558 1.5553 0.254621 0
M  V30 4867 C 469.804 1.77262 0.985193 0
M  V30 4868 C 470.137 0.582286 1.85265 0
M  V30 4869 O 469.412 -0.419666 1.89919 0
M  V30 4870 C 469.695 3.0881 1.85225 0
M  V30 4871 C 469.548 4.38233 1.0135 0
M  V30 4872 C 470.867 3.3653 2.83612 0
M  V30 4873 H 467.986 0.644906 0.356742 0
M  V30 4874 H 470.628 1.88264 0.256236 0
M  V30 4875 H 468.778 2.99562 2.47376 0
M  V30 4876 H 470.45 4.59463 0.411269 0
M  V30 4877 H 468.693 4.32636 0.317574 0
M  V30 4878 H 469.364 5.26644 1.65379 0
M  V30 4879 H 471.84 3.45691 2.31596 0
M  V30 4880 H 470.716 4.29805 3.41407 0
M  V30 4881 H 470.977 2.57064 3.59681 0
M  V30 4882 N 470.036 -0.519951 1.48776 0
M  V30 4883 C 471.447 -1.10177 1.50725 0
M  V30 4884 C 471.798 -1.94153 0.282678 0
M  V30 4885 O 470.923 -2.07645 -0.609298 0
M  V30 4886 C 471.518 -2.00482 2.73116 0
M  V30 4887 C 470.077 -2.53862 2.77905 0
M  V30 4888 C 469.224 -1.31047 2.44381 0
M  V30 4889 H 472.175 -0.30473 1.55747 0
M  V30 4890 H 472.196 -2.8491 2.52203 0
M  V30 4891 H 471.708 -1.39335 3.62225 0
M  V30 4892 H 469.809 -3.18702 1.93029 0
M  V30 4893 H 469.922 -2.9231 3.79594 0
M  V30 4894 H 468.286 -1.62953 1.95751 0
M  V30 4895 H 469.069 -0.71637 3.35743 0
M  V30 4896 N 471.514 -1.37532 -0.769588 0
M  V30 4897 C 472.76 -1.33057 -1.53048 0
M  V30 4898 C 473.093 0.0841865 -1.94017 0
M  V30 4899 O 472.368 1.04198 -1.64235 0
M  V30 4900 C 472.651 -2.27166 -2.79406 0
M  V30 4901 C 472.504 -3.77429 -2.44677 0
M  V30 4902 C 473.823 -2.19683 -3.81349 0
M  V30 4903 H 470.942 -0.484655 -0.555228 0
M  V30 4904 H 473.584 -1.68251 -0.882702 0
M  V30 4905 H 471.734 -1.97283 -3.34682 0
M  V30 4906 H 473.406 -4.17918 -1.953 0
M  V30 4907 H 471.649 -3.95892 -1.77346 0
M  V30 4908 H 472.32 -4.38716 -3.35011 0
M  V30 4909 H 474.796 -2.46029 -3.35573 0
M  V30 4910 H 473.672 -2.87668 -4.67481 0
M  V30 4911 H 473.933 -1.19045 -4.25771 0
M  V30 4912 N 472.992 0.995999 -1.22138 0
M  V30 4913 C 474.403 1.54961 -1.04135 0
M  V30 4914 C 474.754 1.92159 0.396147 0
M  V30 4915 O 473.879 1.74435 1.28069 0
M  V30 4916 C 474.474 2.81581 -1.88408 0
M  V30 4917 C 473.033 3.33396 -1.74712 0
M  V30 4918 C 472.18 2.06509 -1.85066 0
M  V30 4919 H 475.131 0.817436 -1.36028 0
M  V30 4920 H 475.152 3.53822 -1.39966 0
M  V30 4921 H 474.664 2.54476 -2.93025 0
M  V30 4922 H 472.765 3.65416 -0.728159 0
M  V30 4923 H 472.878 4.04208 -2.57202 0
M  V30 4924 H 471.242 2.19925 -1.28472 0
M  V30 4925 H 472.025 1.81804 -2.91208 0
M  V30 4926 N 474.47 1.03057 1.19235 0
M  V30 4927 C 475.718 0.726581 1.88587 0
M  V30 4928 C 476.039 -0.747227 1.80115 0
M  V30 4929 O 475.309 -1.53849 1.21274 0
M  V30 4930 H 473.889 0.265768 0.698124 0
M  V30 4931 H 476.551 1.30516 1.44746 0
M  V30 4932 H 475.647 1.0224 2.94879 0
M  V30 4933 N 475.948 -1.35272 0.808662 0
M  V30 4934 C 477.196 -1.98316 0.389233 0
M  V30 4935 C 477.517 -1.64465 -1.04767 0
M  V30 4936 O 476.787 -0.928175 -1.72516 0
M  V30 4937 H 475.367 -0.733585 0.140935 0
M  V30 4938 H 478.029 -1.6515 1.03496 0
M  V30 4939 H 477.125 -3.08123 0.496631 0
M  V30 4940 N 477.426 -0.562348 -1.47226 0
M  V30 4941 C 478.837 -0.130325 -1.86245 0
M  V30 4942 C 479.188 1.30128 -1.46838 0
M  V30 4943 O 478.313 1.97974 -0.873805 0
M  V30 4944 C 478.908 -0.229738 -3.3802 0
M  V30 4945 C 477.467 0.14728 -3.76112 0
M  V30 4946 C 476.614 -0.574971 -2.71274 0
M  V30 4947 H 479.565 -0.771773 -1.3867 0
M  V30 4948 H 479.586 0.550316 -3.76499 0
M  V30 4949 H 479.098 -1.27178 -3.66671 0
M  V30 4950 H 477.199 1.19023 -3.53078 0
M  V30 4951 H 477.312 -0.214858 -4.78618 0
M  V30 4952 H 475.676 -0.0174756 -2.54694 0
M  V30 4953 H 476.459 -1.61827 -3.02766 0
M  V30 4954 N 478.904 1.54736 -0.299062 0
M  V30 4955 C 479.852 2.24897 0.593658 0
M  V30 4956 C 480.846 1.25429 1.13859 0
M  V30 4957 O 482.052 1.43286 1.08945 0
M  V30 4958 H 478.427 0.72207 0.210046 0
M  V30 4959 H 480.398 2.98393 -0.0206421 0
M  V30 4960 C 479.147 3.00159 1.75499 0
M  V30 4961 H 478.47 3.76501 1.34489 0
M  V30 4962 H 479.91 3.52535 2.35574 0
M  V30 4963 C 478.369 2.07015 2.65794 0
M  V30 4964 O 478.899 1.63692 3.66835 0
M  V30 4965 N 477.105 1.73012 2.33485 0
M  V30 4966 H 476.652 2.08439 1.51364 0
M  V30 4967 H 476.61 1.10965 2.94167 0
M  V30 4968 N 480.382 0.0267497 1.57577 0
M  V30 4969 C 481.33 -0.973923 2.11229 0
M  V30 4970 C 482.324 -1.33849 1.03831 0
M  V30 4971 O 483.53 -1.321 1.22269 0
M  V30 4972 H 479.905 -0.331844 0.674821 0
M  V30 4973 H 481.876 -0.496092 2.94247 0
M  V30 4974 C 480.625 -2.24798 2.65257 0
M  V30 4975 H 479.948 -1.9762 3.47543 0
M  V30 4976 H 481.388 -2.93031 3.06445 0
M  V30 4977 C 479.847 -2.97611 1.57891 0
M  V30 4978 O 480.377 -3.89629 0.97735 0
M  V30 4979 N 478.583 -2.59905 1.29992 0
M  V30 4980 H 478.13 -1.85154 1.79097 0
M  V30 4981 H 478.088 -3.08932 0.583798 0
M  V30 4982 N 481.861 -1.55662 -0.24637 0
M  V30 4983 C 482.809 -1.91186 -1.3248 0
M  V30 4984 C 483.803 -0.790996 -1.49799 0
M  V30 4985 O 485.009 -0.975617 -1.51267 0
M  V30 4986 H 481.384 -0.607207 -0.443626 0
M  V30 4987 H 483.355 -2.81221 -0.997853 0
M  V30 4988 C 482.104 -2.22349 -2.67313 0
M  V30 4989 H 481.427 -3.08097 -2.54786 0
M  V30 4990 H 482.867 -2.51107 -3.41645 0
M  V30 4991 C 481.326 -1.04001 -3.20446 0
M  V30 4992 O 481.856 -0.28828 -4.00664 0
M  V30 4993 N 480.062 -0.830494 -2.7848 0
M  V30 4994 H 479.609 -1.4435 -2.13356 0
M  V30 4995 H 479.567 -0.0403258 -3.14374 0
M  V30 4996 N 483.339 0.512053 -1.4905 0
M  V30 4997 C 484.287 1.63568 -1.65373 0
M  V30 4998 C 485.281 1.61228 -0.519806 0
M  V30 4999 O 486.487 1.65869 -0.699101 0
M  V30 5000 H 482.862 0.542019 -0.521267 0
M  V30 5001 H 484.833 1.4695 -2.59708 0
M  V30 5002 C 483.582 3.01761 -1.7273 0
M  V30 5003 H 482.905 3.04263 -2.59353 0
M  V30 5004 H 484.345 3.79948 -1.8819 0
M  V30 5005 C 482.804 3.33609 -0.46973 0
M  V30 5006 O 483.334 3.99607 0.409492 0
M  V30 5007 N 481.54 2.88651 -0.336003 0
M  V30 5008 H 481.087 2.35119 -1.05247 0
M  V30 5009 H 481.045 3.10328 0.504363 0
M  V30 5010 N 484.817 1.37938 0.762283 0
M  V30 5011 C 486.047 1.36685 1.54922 0
M  V30 5012 C 486.455 -0.0474099 1.89141 0
M  V30 5013 O 485.798 -1.02213 1.52638 0
M  V30 5014 C 485.86 2.14963 2.88152 0
M  V30 5015 C 485.524 3.6385 2.76518 0
M  V30 5016 C 486.521 4.57531 2.46904 0
M  V30 5017 C 484.206 4.07095 2.94243 0
M  V30 5018 C 486.2 5.92436 2.35156 0
M  V30 5019 C 483.887 5.42083 2.82116 0
M  V30 5020 C 484.885 6.34567 2.52614 0
M  V30 5021 O 484.573 7.67073 2.40529 0
M  V30 5022 H 484.305 0.469586 0.486276 0
M  V30 5023 H 486.859 1.82012 0.951876 0
M  V30 5024 H 485.089 1.6434 3.50042 0
M  V30 5025 H 486.778 2.06224 3.49609 0
M  V30 5026 H 487.544 4.25428 2.32886 0
M  V30 5027 H 483.423 3.35462 3.16206 0
M  V30 5028 H 486.967 6.64591 2.12049 0
M  V30 5029 H 482.864 5.73785 2.95704 0
M  V30 5030 H 483.632 7.77499 2.55807 0
M  V30 5031 N 486.295 -0.989507 1.22664 0
M  V30 5032 C 487.258 -2.06183 1.00106 0
M  V30 5033 C 488.258 -1.60765 -0.0337726 0
M  V30 5034 O 489.448 -1.72989 0.205072 0
M  V30 5035 C 486.58 -3.37021 0.51279 0
M  V30 5036 H 487.773 -2.27629 1.95256 0
M  V30 5037 H 485.326 -1.16158 1.0458 0
M  V30 5038 H 486.061 -3.21261 -0.442917 0
M  V30 5039 H 485.846 -3.71323 1.25942 0
M  V30 5040 H 487.336 -4.1591 0.375315 0
M  V30 5041 N 487.773 -1.03688 -1.18687 0
M  V30 5042 C 488.721 -0.618292 -2.24232 0
M  V30 5043 C 489.715 0.353045 -1.6568 0
M  V30 5044 O 490.921 0.220749 -1.78641 0
M  V30 5045 H 487.296 -0.181711 -0.729716 0
M  V30 5046 H 489.267 -1.51893 -2.56848 0
M  V30 5047 C 488.016 0.00677342 -3.47699 0
M  V30 5048 H 487.339 -0.731692 -3.93047 0
M  V30 5049 H 488.779 0.262492 -4.23187 0
M  V30 5050 C 487.238 1.25572 -3.12623 0
M  V30 5051 O 487.768 2.34691 -3.26011 0
M  V30 5052 N 485.974 1.14755 -2.66982 0
M  V30 5053 H 485.521 0.259601 -2.56289 0
M  V30 5054 H 485.479 1.98412 -2.43885 0
M  V30 5055 N 489.251 1.34841 -0.815825 0
M  V30 5056 C 490.497 1.98793 -0.401129 0
M  V30 5057 C 490.83 1.64548 1.03139 0
M  V30 5058 O 490.105 0.913487 1.71714 0
M  V30 5059 C 490.388 3.55143 -0.595409 0
M  V30 5060 C 490.241 3.99155 -2.07352 0
M  V30 5061 C 491.56 4.40092 -0.0268823 0
M  V30 5062 H 488.679 0.722146 -0.14722 0
M  V30 5063 H 491.321 1.59847 -1.02707 0
M  V30 5064 H 489.471 3.8845 -0.0625779 0
M  V30 5065 H 491.143 3.76216 -2.66945 0
M  V30 5066 H 489.386 3.49726 -2.56659 0
M  V30 5067 H 490.057 5.07971 -2.1603 0
M  V30 5068 H 492.533 4.13298 -0.482042 0
M  V30 5069 H 491.409 5.48562 -0.19267 0
M  V30 5070 H 491.67 4.29016 1.06759 0
M  V30 5071 N 490.729 0.570148 1.46925 0
M  V30 5072 C 491.639 -0.173061 2.33961 0
M  V30 5073 C 492.655 -0.898825 1.48987 0
M  V30 5074 O 493.831 -0.864825 1.81887 0
M  V30 5075 C 490.896 -1.18177 3.25937 0
M  V30 5076 C 489.957 -0.462041 4.26806 0
M  V30 5077 C 489.19 -1.4227 5.14388 0
M  V30 5078 O 489.413 -2.65842 5.04662 0
M  V30 5079 O 488.347 -0.940127 5.94513 0
M  V30 5080 H 492.173 0.541216 2.98839 0
M  V30 5081 H 489.758 0.330647 1.45695 0
M  V30 5082 H 491.64 -1.76372 3.82715 0
M  V30 5083 H 490.315 -1.87774 2.63671 0
M  V30 5084 H 489.222 0.161429 3.73752 0
M  V30 5085 H 490.555 0.192719 4.91823 0
M  V30 5086 N 492.207 -1.54576 0.307264 0
M  V30 5087 C 493.137 -2.26708 -0.55907 0
M  V30 5088 C 494.118 -1.26893 -1.1328 0
M  V30 5089 O 495.303 -1.55677 -1.16097 0
M  V30 5090 C 492.433 -3.01259 -1.72801 0
M  V30 5091 C 491.387 -4.08275 -1.28435 0
M  V30 5092 C 490.713 -4.70575 -2.53895 0
M  V30 5093 C 492.013 -5.2068 -0.411038 0
M  V30 5094 H 493.707 -2.9937 0.042576 0
M  V30 5095 H 491.253 -1.43983 0.0219173 0
M  V30 5096 H 493.206 -3.50444 -2.34023 0
M  V30 5097 H 491.93 -2.26187 -2.356 0
M  V30 5098 H 490.589 -3.59949 -0.695161 0
M  V30 5099 H 490.237 -3.92136 -3.15021 0
M  V30 5100 H 489.937 -5.42854 -2.24908 0
M  V30 5101 H 491.461 -5.22527 -3.15908 0
M  V30 5102 H 492.875 -5.65721 -0.929097 0
M  V30 5103 H 491.272 -5.99716 -0.214664 0
M  V30 5104 H 492.342 -4.81629 0.562287 0
M  V30 5105 N 493.685 -0.035106 -1.57561 0
M  V30 5106 C 494.934 0.641604 -1.91223 0
M  V30 5107 C 495.247 1.72944 -0.913761 0
M  V30 5108 O 496.453 2.46321 -1.14185 0
M  V30 5109 C 494.909 1.19249 -3.3957 0
M  V30 5110 C 494.517 0.137616 -4.47789 0
M  V30 5111 C 496.261 1.84537 -3.82291 0
M  V30 5112 C 494.168 0.700478 -5.87237 0
M  V30 5113 H 493.098 0.243417 -0.713627 0
M  V30 5114 H 495.749 -0.101382 -1.8322 0
M  V30 5115 H 494.131 1.98728 -3.42525 0
M  V30 5116 H 495.305 -0.635153 -4.56402 0
M  V30 5117 H 493.62 -0.416855 -4.14308 0
M  V30 5118 H 496.217 2.27616 -4.83834 0
M  V30 5119 H 496.56 2.69054 -3.17672 0
M  V30 5120 H 497.093 1.11739 -3.81784 0
M  V30 5121 H 493.832 -0.106693 -6.55413 0
M  V30 5122 H 493.352 1.4416 -5.82218 0
M  V30 5123 H 495.031 1.18837 -6.35993 0
M  V30 5124 N 495.163 1.55791 0.238111 0
M  V30 5125 C 496.409 1.78297 0.966337 0
M  V30 5126 C 496.742 0.601903 1.84637 0
M  V30 5127 O 496.017 -0.399499 1.90353 0
M  V30 5128 C 496.3 3.10758 1.81939 0
M  V30 5129 C 496.153 4.39283 0.966958 0
M  V30 5130 C 497.472 3.39519 2.80027 0
M  V30 5131 H 494.591 0.648654 0.349882 0
M  V30 5132 H 497.233 1.88525 0.236253 0
M  V30 5133 H 495.383 3.02168 2.44185 0
M  V30 5134 H 497.055 4.59873 0.362514 0
M  V30 5135 H 495.298 4.32948 0.271669 0
M  V30 5136 H 495.969 5.28368 1.59784 0
M  V30 5137 H 498.445 3.48128 2.27917 0
M  V30 5138 H 497.321 4.33402 3.36829 0
M  V30 5139 H 497.582 2.60864 3.56934 0
M  V30 5140 N 496.642 -0.504142 1.49319 0
M  V30 5141 C 497.919 -1.26548 1.49147 0
M  V30 5142 C 498.299 -2.09977 0.21744 0
M  V30 5143 O 497.647 -2.14028 -0.800269 0
M  V30 5144 C 497.857 -2.12489 2.76857 0
M  V30 5145 C 499.205 -2.7178 3.26222 0
M  V30 5146 O 500.229 -2.22758 2.77952 0
M  V30 5147 O 499.088 -3.61015 4.10281 0
M  V30 5148 H 496.182 -0.572495 0.596806 0
M  V30 5149 H 498.728 -0.51867 1.61579 0
M  V30 5150 H 497.5 -1.50796 3.61077 0
M  V30 5151 H 497.123 -2.94368 2.6727 0
M  V30 5152 N 498.12 -1.38341 -0.754957 0
M  V30 5153 C 499.369 -1.33791 -1.5094 0
M  V30 5154 C 499.682 0.0699267 -1.95475 0
M  V30 5155 O 500.888 0.237956 -2.70455 0
M  V30 5156 C 499.344 -2.34934 -2.72643 0
M  V30 5157 C 498.952 -3.81332 -2.35138 0
M  V30 5158 C 500.696 -2.39425 -3.50536 0
M  V30 5159 C 498.603 -4.74164 -3.53444 0
M  V30 5160 H 497.533 -0.497314 -0.566741 0
M  V30 5161 H 500.184 -1.63888 -0.825403 0
M  V30 5162 H 498.566 -1.97878 -3.43017 0
M  V30 5163 H 499.74 -4.27319 -1.7244 0
M  V30 5164 H 498.055 -3.79946 -1.70382 0
M  V30 5165 H 500.652 -3.0598 -4.38498 0
M  V30 5166 H 500.995 -1.41278 -3.91594 0
M  V30 5167 H 501.528 -2.75274 -2.87174 0
M  V30 5168 H 498.267 -5.73501 -3.17453 0
M  V30 5169 H 497.787 -4.3287 -4.15191 0
M  V30 5170 H 499.466 -4.92111 -4.20043 0
M  V30 5171 N 499.598 0.982988 -1.23187 0
M  V30 5172 C 500.561 2.05649 -1.01198 0
M  V30 5173 C 501.561 1.6078 0.0252464 0
M  V30 5174 O 502.751 1.72878 -0.214243 0
M  V30 5175 C 499.883 3.36744 -0.530656 0
M  V30 5176 H 501.076 2.2659 -1.96461 0
M  V30 5177 H 498.629 1.15602 -1.05195 0
M  V30 5178 H 499.364 3.21492 0.425873 0
M  V30 5179 H 499.149 3.7065 -1.2791 0
M  V30 5180 H 500.639 4.15705 -0.397366 0
M  V30 5181 N 501.076 1.04316 1.18135 0
M  V30 5182 C 502.023 0.636398 2.21853 0
M  V30 5183 C 502.993 -0.357039 1.62217 0
M  V30 5184 O 504.178 -0.250453 1.89149 0
M  V30 5185 C 501.318 0.00812779 3.45099 0
M  V30 5186 C 500.431 1.04933 4.19062 0
M  V30 5187 C 499.566 0.389313 5.29771 0
M  V30 5188 C 498.605 1.41544 5.9551 0
M  V30 5189 N 497.742 0.78021 6.97751 0
M  V30 5190 H 502.582 1.52536 2.56002 0
M  V30 5191 H 500.119 0.76304 1.25762 0
M  V30 5192 H 502.077 -0.373497 4.15525 0
M  V30 5193 H 500.707 -0.844336 3.11562 0
M  V30 5194 H 499.759 1.54888 3.47439 0
M  V30 5195 H 501.071 1.82862 4.64072 0
M  V30 5196 H 500.225 -0.0463805 6.06682 0
M  V30 5197 H 498.964 -0.422038 4.8587 0
M  V30 5198 H 497.969 1.86124 5.17337 0
M  V30 5199 H 499.194 2.22854 6.41493 0
M  V30 5200 H 497.14 -0.0107899 6.55999 0
M  V30 5201 H 497.057 1.49716 7.41027 0
M  V30 5202 H 498.325 0.368996 7.78626 0
M  V30 5203 N 502.554 -1.34406 0.822964 0
M  V30 5204 C 503.97 -1.51275 0.508727 0
M  V30 5205 C 504.17 -1.76776 -0.967083 0
M  V30 5206 O 503.226 -1.81871 -1.75155 0
M  V30 5207 C 504.539 -2.67765 1.36829 0
M  V30 5208 C 506.087 -2.81647 1.36542 0
M  V30 5209 C 506.562 -4.01181 2.20947 0
M  V30 5210 N 508.053 -4.08388 2.18571 0
M  V30 5211 C 508.788 -5.00036 2.80627 0
M  V30 5212 N 508.284 -5.96906 3.51674 0
M  V30 5213 N 510.077 -4.92908 2.70181 0
M  V30 5214 H 502.228 -1.16113 1.77852 0
M  V30 5215 H 504.491 -0.56947 0.757897 0
M  V30 5216 H 504.197 -2.55551 2.41633 0
M  V30 5217 H 504.071 -3.62779 1.03303 0
M  V30 5218 H 506.458 -2.93303 0.325163 0
M  V30 5219 H 506.539 -1.87443 1.74066 0
M  V30 5220 H 506.183 -3.90286 3.25022 0
M  V30 5221 H 506.113 -4.94599 1.80774 0
M  V30 5222 H 508.604 -3.39051 1.66891 0
M  V30 5223 H 508.917 -6.63468 3.96271 0
M  V30 5224 H 507.262 -5.9703 3.5578 0
M  V30 5225 H 510.453 -4.1619 2.14251 0
M  V30 5226 H 510.626 -5.64137 3.18831 0
M  V30 5227 N 504.032 -0.577932 -1.46621 0
M  V30 5228 C 505.281 -0.0594281 -2.01612 0
M  V30 5229 C 505.594 1.30663 -1.45556 0
M  V30 5230 O 506.8 1.91621 -1.92337 0
M  V30 5231 C 505.256 -0.0556666 -3.59857 0
M  V30 5232 C 504.864 -1.41975 -4.24908 0
M  V30 5233 C 506.608 0.409143 -4.22524 0
M  V30 5234 C 504.515 -1.37397 -5.75218 0
M  V30 5235 H 503.445 -0.0184469 -0.753774 0
M  V30 5236 H 506.096 -0.728869 -1.68404 0
M  V30 5237 H 504.478 0.679843 -3.90121 0
M  V30 5238 H 505.652 -2.17461 -4.0626 0
M  V30 5239 H 503.967 -1.82419 -3.74316 0
M  V30 5240 H 506.564 0.46211 -5.32699 0
M  V30 5241 H 506.907 1.42565 -3.91128 0
M  V30 5242 H 507.44 -0.272152 -3.96868 0
M  V30 5243 H 504.179 -2.36714 -6.11267 0
M  V30 5244 H 503.699 -0.661239 -5.96144 0
M  V30 5245 H 505.378 -1.08484 -6.3784 0
M  V30 5246 N 505.51 1.54411 -0.315457 0
M  V30 5247 C 506.921 1.85885 0.174265 0
M  V30 5248 C 507.272 1.23723 1.52273 0
M  V30 5249 O 506.397 0.540246 2.09548 0
M  V30 5250 C 506.992 3.37257 0.322981 0
M  V30 5251 C 505.551 3.68711 0.756922 0
M  V30 5252 C 504.698 2.77013 -0.126195 0
M  V30 5253 H 507.649 1.49374 -0.536007 0
M  V30 5254 H 507.67 3.62539 1.15522 0
M  V30 5255 H 507.182 3.82471 -0.658602 0
M  V30 5256 H 505.283 3.29024 1.74854 0
M  V30 5257 H 505.396 4.75741 0.566291 0
M  V30 5258 H 503.76 2.51588 0.39692 0
M  V30 5259 H 504.543 3.25051 -1.1044 0
M  V30 5260 N 506.988 0.0434614 1.5754 0
M  V30 5261 C 508.234 -0.632971 1.92669 0
M  V30 5262 C 508.567 -1.70947 0.921446 0
M  V30 5263 O 507.842 -1.94426 -0.0537202 0
M  V30 5264 C 508.125 -1.23619 3.38216 0
M  V30 5265 C 507.978 -0.168274 4.49485 0
M  V30 5266 C 509.297 -2.15008 3.84005 0
M  V30 5267 H 506.416 -0.228629 0.700641 0
M  V30 5268 H 509.058 0.103651 1.89717 0
M  V30 5269 H 507.208 -1.864 3.40863 0
M  V30 5270 H 508.88 0.463196 4.58969 0
M  V30 5271 H 507.123 0.504581 4.30855 0
M  V30 5272 H 507.794 -0.630218 5.48391 0
M  V30 5273 H 510.27 -1.62198 3.83185 0
M  V30 5274 H 509.146 -2.54161 4.86511 0
M  V30 5275 H 509.407 -3.04707 3.20322 0
M  V30 5276 N 508.466 -1.55915 -0.229846 0
M  V30 5277 C 509.398 -1.88209 -1.30805 0
M  V30 5278 C 510.411 -0.769672 -1.43457 0
M  V30 5279 O 511.6 -1.04792 -1.44502 0
M  V30 5280 C 508.7 -2.06829 -2.68468 0
M  V30 5281 C 507.873 -3.37798 -2.77869 0
M  V30 5282 C 506.932 -3.45952 -3.96489 0
M  V30 5283 O 505.958 -4.19043 -3.85216 0
M  V30 5284 N 507.16 -2.76488 -5.10426 0
M  V30 5285 H 509.925 -2.81286 -1.03431 0
M  V30 5286 H 507.486 -1.5636 -0.41991 0
M  V30 5287 H 509.478 -2.09608 -3.46189 0
M  V30 5288 H 508.048 -1.20416 -2.88477 0
M  V30 5289 H 507.268 -3.4719 -1.86689 0
M  V30 5290 H 508.556 -4.24091 -2.81113 0
M  V30 5291 H 507.954 -2.16868 -5.2248 0
M  V30 5292 H 506.511 -2.84938 -5.8622 0
M  V30 5293 N 509.944 0.496216 -1.49584 0
M  V30 5294 C 510.907 1.57952 -1.66084 0
M  V30 5295 C 511.907 1.51729 -0.53244 0
M  V30 5296 O 513.097 1.54796 -0.79899 0
M  V30 5297 C 510.229 2.97604 -1.66268 0
M  V30 5298 H 511.422 1.44649 -2.6271 0
M  V30 5299 H 508.975 0.7208 -1.38687 0
M  V30 5300 H 509.71 3.16378 -0.712432 0
M  V30 5301 H 509.495 3.03528 -2.4822 0
M  V30 5302 H 510.985 3.76301 -1.81073 0
M  V30 5303 N 511.423 1.38739 0.74761 0
M  V30 5304 C 512.669 1.35475 1.50912 0
M  V30 5305 C 513.002 -0.0533093 1.94127 0
M  V30 5306 O 512.277 -1.01572 1.65871 0
M  V30 5307 C 512.56 2.31582 2.75757 0
M  V30 5308 C 512.413 3.81274 2.38642 0
M  V30 5309 C 513.732 2.25722 3.77806 0
M  V30 5310 H 510.851 0.493427 0.547447 0
M  V30 5311 H 513.493 1.69634 0.855823 0
M  V30 5312 H 511.643 2.02582 3.31501 0
M  V30 5313 H 513.315 4.20972 1.88626 0
M  V30 5314 H 511.558 3.98664 1.71025 0
M  V30 5315 H 512.229 4.4399 3.27989 0
M  V30 5316 H 514.705 2.51336 3.31616 0
M  V30 5317 H 513.581 2.95069 4.62845 0
M  V30 5318 H 513.842 1.25803 4.23823 0
M  V30 5319 N 512.901 -0.976442 1.23707 0
M  V30 5320 C 514.147 -1.72158 1.08319 0
M  V30 5321 C 514.502 -1.88701 -0.375445 0
M  V30 5322 O 513.795 -1.43107 -1.274 0
M  V30 5323 C 513.989 -3.11814 1.74662 0
M  V30 5324 C 513.818 -3.08892 3.26827 0
M  V30 5325 C 512.588 -3.13861 3.96004 0
M  V30 5326 C 514.786 -2.9175 4.2354 0
M  V30 5327 N 512.768 -3.00867 5.35119 0
M  V30 5328 C 514.139 -2.8696 5.49595 0
M  V30 5329 C 516.194 -2.76265 4.14225 0
M  V30 5330 C 514.897 -2.68268 6.67401 0
M  V30 5331 C 516.923 -2.58938 5.317 0
M  V30 5332 C 516.285 -2.54849 6.56682 0
M  V30 5333 H 512.384 -0.638896 0.450927 0
M  V30 5334 H 514.968 -1.15835 1.56494 0
M  V30 5335 H 513.139 -3.66347 1.29014 0
M  V30 5336 H 514.871 -3.74984 1.52215 0
M  V30 5337 H 511.626 -3.22198 3.4711 0
M  V30 5338 H 512.05 -2.97634 6.08065 0
M  V30 5339 H 516.692 -2.78213 3.18366 0
M  V30 5340 H 514.41 -2.65063 7.63392 0
M  V30 5341 H 517.996 -2.47914 5.26336 0
M  V30 5342 H 516.876 -2.41611 7.46052 0
M  V30 5343 N 514.379 -1.04941 -1.1758 0
M  V30 5344 C 515.342 -0.652456 -2.19717 0
M  V30 5345 C 516.342 0.294745 -1.58076 0
M  V30 5346 O 517.532 0.0789579 -1.74021 0
M  V30 5347 C 514.664 0.0420712 -3.40874 0
M  V30 5348 H 515.857 -1.55642 -2.5635 0
M  V30 5349 H 513.41 -0.842995 -1.31618 0
M  V30 5350 H 514.145 0.95943 -3.09783 0
M  V30 5351 H 513.93 -0.638844 -3.86861 0
M  V30 5352 H 515.42 0.306 -4.16477 0
M  V30 5353 N 515.857 1.33968 -0.830081 0
M  V30 5354 C 517.105 1.97672 -0.420734 0
M  V30 5355 C 517.426 1.66111 1.02138 0
M  V30 5356 O 516.696 0.955503 1.71017 0
M  V30 5357 H 515.276 0.73125 -0.152587 0
M  V30 5358 H 517.938 1.63483 -1.0611 0
M  V30 5359 H 517.034 3.07294 -0.545588 0
M  V30 5360 N 517.335 0.585699 1.46312 0
M  V30 5361 C 518.581 0.0808731 2.03239 0
M  V30 5362 C 518.936 -1.26609 1.44872 0
M  V30 5363 O 518.229 -1.81779 0.60556 0
M  V30 5364 C 518.423 -0.0401312 3.57377 0
M  V30 5365 C 518.252 1.29356 4.30694 0
M  V30 5366 C 517.022 1.86849 4.69484 0
M  V30 5367 C 519.22 2.21742 4.64042 0
M  V30 5368 N 517.202 3.13926 5.27564 0
M  V30 5369 C 518.573 3.33408 5.22723 0
M  V30 5370 C 520.628 2.21386 4.45974 0
M  V30 5371 C 519.331 4.44852 5.65242 0
M  V30 5372 C 521.357 3.31862 4.89511 0
M  V30 5373 C 520.719 4.42248 5.48266 0
M  V30 5374 H 516.818 0.072443 0.778637 0
M  V30 5375 H 519.402 0.779254 1.78426 0
M  V30 5376 H 517.573 -0.707686 3.81898 0
M  V30 5377 H 519.305 -0.549615 4.00951 0
M  V30 5378 H 516.06 1.40307 4.52339 0
M  V30 5379 H 516.484 3.78775 5.61122 0
M  V30 5380 H 521.126 1.37314 3.99881 0
M  V30 5381 H 518.844 5.29665 6.10312 0
M  V30 5382 H 522.43 3.32708 4.7728 0
M  V30 5383 H 521.31 5.26323 5.81338 0
M  V30 5384 N 518.813 -1.54241 0.323641 0
M  V30 5385 C 520.061 -2.00174 -0.278359 0
M  V30 5386 C 520.382 -1.2134 -1.52648 0
M  V30 5387 O 519.652 -0.315244 -1.93347 0
M  V30 5388 H 518.232 -0.739463 -0.105845 0
M  V30 5389 H 520.894 -1.89864 0.440204 0
M  V30 5390 H 519.99 -3.07486 -0.5347 0
M  V30 5391 N 520.291 -0.0518155 -1.57515 0
M  V30 5392 C 521.241 0.932017 -2.0808 0
M  V30 5393 C 522.225 1.27141 -0.986098 0
M  V30 5394 O 523.417 1.25373 -1.24943 0
M  V30 5395 C 520.546 2.20665 -2.62986 0
M  V30 5396 C 519.632 1.89462 -3.79427 0
M  V30 5397 N 520.023 1.28621 -4.89173 0
M  V30 5398 C 518.321 2.19327 -3.88345 0
M  V30 5399 C 519.022 1.15062 -5.70207 0
M  V30 5400 N 517.998 1.65372 -5.17835 0
M  V30 5401 H 521.8 0.456964 -2.90326 0
M  V30 5402 H 519.314 0.152619 -1.61681 0
M  V30 5403 H 521.311 2.92044 -2.97516 0
M  V30 5404 H 519.971 2.68776 -1.8218 0
M  V30 5405 H 520.982 0.958341 -5.08956 0
M  V30 5406 H 517.659 2.69955 -3.18482 0
M  V30 5407 H 519.049 0.678243 -6.68468 0
M  V30 5408 N 521.769 1.56035 0.221574 0
M  V30 5409 C 522.732 1.91584 1.2581 0
M  V30 5410 C 523.732 0.794425 1.39805 0
M  V30 5411 O 524.922 1.06217 1.38071 0
M  V30 5412 C 522.054 2.16663 2.63192 0
M  V30 5413 H 523.247 2.8429 0.954935 0
M  V30 5414 H 520.8 1.49316 0.461988 0
M  V30 5415 H 521.535 1.26508 2.98607 0
M  V30 5416 H 521.32 2.98358 2.5441 0
M  V30 5417 H 522.81 2.45262 3.37988 0
M  V30 5418 N 523.247 -0.488276 1.49845 0
M  V30 5419 C 524.472 -1.26997 1.63971 0
M  V30 5420 C 524.897 -1.85427 0.315994 0
M  V30 5421 O 524.255 -1.66475 -0.718032 0
M  V30 5422 C 524.303 -2.36689 2.72049 0
M  V30 5423 O 523.407 -3.40882 2.32107 0
M  V30 5424 H 522.748 -0.374376 0.548396 0
M  V30 5425 H 525.278 -0.583104 1.96115 0
M  V30 5426 H 525.288 -2.82262 2.94605 0
M  V30 5427 H 523.963 -1.93529 3.68129 0
M  V30 5428 H 522.54 -3.01139 2.19931 0
M  V30 5429 N 524.725 -1.39134 -0.740242 0
M  V30 5430 C 525.635 -1.39697 -1.88473 0
M  V30 5431 C 526.651 -0.292403 -1.71526 0
M  V30 5432 O 527.827 -0.533021 -1.94219 0
M  V30 5433 C 524.892 -1.23382 -3.24003 0
M  V30 5434 C 523.953 -2.43763 -3.53381 0
M  V30 5435 C 523.186 -2.28216 -4.82445 0
M  V30 5436 O 523.409 -1.28288 -5.55786 0
M  V30 5437 O 522.343 -3.1709 -5.11603 0
M  V30 5438 H 526.169 -2.36159 -1.90952 0
M  V30 5439 H 523.754 -1.20194 -0.887346 0
M  V30 5440 H 525.636 -1.16395 -4.05006 0
M  V30 5441 H 524.311 -0.300121 -3.22306 0
M  V30 5442 H 523.218 -2.56325 -2.72485 0
M  V30 5443 H 524.551 -3.35808 -3.59852 0
M  V30 5444 N 526.204 0.969867 -1.24223 0
M  V30 5445 C 527.152 2.08535 -1.03034 0
M  V30 5446 C 528.146 1.69366 0.0340379 0
M  V30 5447 O 529.352 1.79597 -0.12034 0
M  V30 5448 H 525.727 0.682313 -0.316154 0
M  V30 5449 H 527.698 2.23569 -1.97635 0
M  V30 5450 C 526.447 3.4158 -0.649509 0
M  V30 5451 H 525.77 3.72177 -1.46028 0
M  V30 5452 H 527.21 4.20536 -0.540841 0
M  V30 5453 C 525.669 3.30703 0.643194 0
M  V30 5454 O 526.199 3.64443 1.68951 0
M  V30 5455 N 524.405 2.83841 0.623095 0
M  V30 5456 H 523.952 2.56583 -0.228719 0
M  V30 5457 H 523.91 2.76946 1.48823 0
M  V30 5458 N 527.682 1.05563 1.17022 0
M  V30 5459 C 529.093 0.793475 1.69 0
M  V30 5460 C 529.444 -0.683882 1.83895 0
M  V30 5461 O 528.569 -1.53116 1.5292 0
M  V30 5462 C 529.164 1.43376 3.06967 0
M  V30 5463 C 527.723 1.21956 3.56095 0
M  V30 5464 C 526.87 1.51494 2.3226 0
M  V30 5465 H 529.821 1.22008 1.01487 0
M  V30 5466 H 529.842 0.845068 3.70997 0
M  V30 5467 H 529.354 2.50899 2.96093 0
M  V30 5468 H 527.455 0.163749 3.7224 0
M  V30 5469 H 527.568 1.92713 4.38633 0
M  V30 5470 H 525.932 0.935175 2.3691 0
M  V30 5471 H 526.715 2.60159 2.23992 0
M  V30 5472 N 529.16 -1.33526 0.837174 0
M  V30 5473 C 530.107 -2.29248 0.267169 0
M  V30 5474 C 531.077 -1.54252 -0.616071 0
M  V30 5475 O 532.262 -1.82559 -0.554699 0
M  V30 5476 C 529.402 -3.40638 -0.553152 0
M  V30 5477 C 528.515 -4.30548 0.353921 0
M  V30 5478 C 527.65 -5.29051 -0.477339 0
M  V30 5479 C 526.689 -6.106 0.42823 0
M  V30 5480 N 525.826 -7.01152 -0.364801 0
M  V30 5481 H 530.666 -2.77398 1.08877 0
M  V30 5482 H 528.203 -1.36496 0.54838 0
M  V30 5483 H 530.161 -4.03921 -1.04422 0
M  V30 5484 H 528.791 -2.93685 -1.33973 0
M  V30 5485 H 527.843 -3.68001 0.963289 0
M  V30 5486 H 529.155 -4.87631 1.04964 0
M  V30 5487 H 528.309 -5.97853 -1.0323 0
M  V30 5488 H 527.048 -4.72541 -1.2065 0
M  V30 5489 H 526.053 -5.40718 0.995219 0
M  V30 5490 H 527.278 -6.69193 1.15573 0
M  V30 5491 H 525.224 -6.47092 -1.07738 0
M  V30 5492 H 525.141 -7.5551 0.272238 0
M  V30 5493 H 526.409 -7.74263 -0.902054 0
M  V30 5494 N 530.638 -0.59345 -1.46 0
M  V30 5495 C 531.568 0.121192 -2.33185 0
M  V30 5496 C 532.549 0.872977 -1.4599 0
M  V30 5497 O 533.734 0.846321 -1.74789 0
M  V30 5498 C 530.864 1.12844 -3.28456 0
M  V30 5499 C 529.818 0.4908 -4.25177 0
M  V30 5500 C 529.144 1.60529 -5.10034 0
M  V30 5501 C 530.444 -0.578949 -5.19081 0
M  V30 5502 H 532.138 -0.606767 -2.93187 0
M  V30 5503 H 529.684 -0.293242 -1.40983 0
M  V30 5504 H 531.637 1.63684 -3.88311 0
M  V30 5505 H 530.361 1.88681 -2.66584 0
M  V30 5506 H 529.02 0.00339328 -3.666 0
M  V30 5507 H 528.668 2.35359 -4.44539 0
M  V30 5508 H 528.368 1.18422 -5.75543 0
M  V30 5509 H 529.892 2.11623 -5.72755 0
M  V30 5510 H 531.306 -0.155199 -5.7309 0
M  V30 5511 H 529.703 -0.920947 -5.92991 0
M  V30 5512 H 530.773 -1.46109 -4.62364 0
M  V30 5513 N 532.116 1.54067 -0.331816 0
M  V30 5514 C 533.527 1.86059 0.15454 0
M  V30 5515 C 533.878 1.25331 1.50952 0
M  V30 5516 O 533.003 0.562441 2.08963 0
M  V30 5517 C 533.598 3.37581 0.287192 0
M  V30 5518 C 532.157 3.69493 0.717773 0
M  V30 5519 C 531.304 2.76863 -0.155569 0
M  V30 5520 H 534.255 1.48797 -0.55182 0
M  V30 5521 H 534.276 3.63744 1.11671 0
M  V30 5522 H 533.788 3.81751 -0.699131 0
M  V30 5523 H 531.889 3.3086 1.71354 0
M  V30 5524 H 532.002 4.76315 0.5158 0
M  V30 5525 H 530.366 2.51995 0.370213 0
M  V30 5526 H 531.149 3.23861 -1.13881 0
M  V30 5527 N 533.594 0.0601682 1.57485 0
M  V30 5528 C 534.504 -0.926121 2.15546 0
M  V30 5529 C 535.52 -1.33532 1.11558 0
M  V30 5530 O 536.696 -1.4104 1.4377 0
M  V30 5531 C 533.761 -2.17952 2.69625 0
M  V30 5532 C 532.822 -1.82783 3.88444 0
M  V30 5533 C 532.055 -3.02148 4.39935 0
M  V30 5534 O 532.278 -4.15803 3.90466 0
M  V30 5535 O 531.212 -2.82639 5.31412 0
M  V30 5536 H 535.038 -0.462289 3.00161 0
M  V30 5537 H 532.623 -0.162246 1.48516 0
M  V30 5538 H 534.505 -2.91474 3.04337 0
M  V30 5539 H 533.18 -2.63456 1.88077 0
M  V30 5540 H 532.087 -1.06549 3.58606 0
M  V30 5541 H 533.42 -1.42072 4.7125 0
M  V30 5542 N 535.072 -1.5615 -0.213296 0
M  V30 5543 C 536.002 -1.96109 -1.26742 0
M  V30 5544 C 536.983 -0.830448 -1.48451 0
M  V30 5545 O 538.168 -1.09339 -1.60495 0
M  V30 5546 C 535.298 -2.28492 -2.61551 0
M  V30 5547 C 534.252 -3.44124 -2.54485 0
M  V30 5548 C 533.578 -3.62134 -3.93399 0
M  V30 5549 C 534.878 -4.78855 -2.08556 0
M  V30 5550 H 536.572 -2.84412 -0.935434 0
M  V30 5551 H 534.118 -1.36836 -0.44854 0
M  V30 5552 H 536.071 -2.55039 -3.3546 0
M  V30 5553 H 534.795 -1.37052 -2.96453 0
M  V30 5554 H 533.454 -3.17639 -1.83033 0
M  V30 5555 H 533.102 -2.68055 -4.25623 0
M  V30 5556 H 532.802 -4.39913 -3.89551 0
M  V30 5557 H 534.326 -3.91038 -4.68958 0
M  V30 5558 H 535.74 -5.04552 -2.72213 0
M  V30 5559 H 534.137 -5.59975 -2.1575 0
M  V30 5560 H 535.207 -4.73657 -1.03811 0
M  V30 5561 N 536.55 0.480323 -1.50102 0
M  V30 5562 C 537.48 1.58769 -1.71215 0
M  V30 5563 C 538.461 1.60583 -0.560997 0
M  V30 5564 O 539.646 1.76996 -0.799127 0
M  V30 5565 C 536.776 2.97148 -1.79778 0
M  V30 5566 C 535.73 3.10201 -2.94888 0
M  V30 5567 C 535.056 4.50137 -2.88584 0
M  V30 5568 C 536.356 2.88283 -4.35534 0
M  V30 5569 H 538.05 1.41354 -2.6393 0
M  V30 5570 H 535.596 0.678591 -1.27008 0
M  V30 5571 H 537.549 3.74536 -1.93133 0
M  V30 5572 H 536.273 3.15699 -0.836772 0
M  V30 5573 H 534.932 2.35244 -2.81169 0
M  V30 5574 H 534.58 4.65593 -1.90349 0
M  V30 5575 H 534.28 4.59808 -3.65856 0
M  V30 5576 H 535.804 5.29558 -3.03976 0
M  V30 5577 H 537.218 3.55427 -4.49827 0
M  V30 5578 H 535.615 3.09408 -5.14186 0
M  V30 5579 H 536.685 1.84219 -4.48544 0
M  V30 5580 N 538.028 1.39524 0.732853 0
M  V30 5581 C 539.268 1.383 1.50508 0
M  V30 5582 C 539.632 -0.0208271 1.91989 0
M  V30 5583 O 540.833 -0.158091 2.68335 0
M  V30 5584 C 539.104 2.33007 2.71003 0
M  V30 5585 S 540.663 2.49989 3.60626 0
M  V30 5586 H 537.481 0.490417 0.514794 0
M  V30 5587 H 540.083 1.75641 0.858524 0
M  V30 5588 H 538.787 3.33862 2.38672 0
M  V30 5589 H 538.318 1.96889 3.40585 0
M  V30 5590 H 540.333 1.7394 4.64714 0
M  V30 5591 N 539.506 -0.963266 1.24736 0
M  V30 5592 C 540.453 -2.05857 1.04363 0
M  V30 5593 C 541.423 -1.6604 -0.0444951 0
M  V30 5594 O 542.608 -1.90477 0.110999 0
M  V30 5595 C 539.748 -3.38745 0.659235 0
M  V30 5596 C 538.861 -3.9173 1.82131 0
M  V30 5597 C 537.996 -5.12906 1.38208 0
M  V30 5598 C 537.035 -5.58098 2.51382 0
M  V30 5599 N 536.172 -6.7049 2.08295 0
M  V30 5600 H 541.012 -2.22616 1.98107 0
M  V30 5601 H 538.549 -1.09103 0.986661 0
M  V30 5602 H 540.507 -4.15107 0.417371 0
M  V30 5603 H 539.137 -3.21898 -0.241201 0
M  V30 5604 H 538.189 -3.11966 2.17672 0
M  V30 5605 H 539.501 -4.21225 2.67153 0
M  V30 5606 H 538.655 -5.96657 1.09935 0
M  V30 5607 H 537.394 -4.85105 0.502456 0
M  V30 5608 H 536.399 -4.72917 2.80409 0
M  V30 5609 H 537.624 -5.87911 3.39909 0
M  V30 5610 H 535.57 -6.44416 1.22737 0
M  V30 5611 H 535.487 -6.99458 2.86869 0
M  V30 5612 H 536.755 -7.57672 1.83175 0
M  V30 5613 N 540.985 -1.06182 -1.16461 0
M  V30 5614 C 541.933 -0.665716 -2.2287 0
M  V30 5615 C 542.927 0.317822 -1.66392 0
M  V30 5616 O 544.133 0.182807 -1.79069 0
M  V30 5617 H 540.508 -0.197148 -0.725697 0
M  V30 5618 H 542.479 -1.57307 -2.53569 0
M  V30 5619 C 541.228 -0.0669803 -3.47635 0
M  V30 5620 H 540.551 -0.814899 -3.91407 0
M  V30 5621 H 541.991 0.172669 -4.23648 0
M  V30 5622 C 540.45 1.18913 -3.15216 0
M  V30 5623 O 540.98 2.27723 -3.30916 0
M  V30 5624 N 539.186 1.09066 -2.69357 0
M  V30 5625 H 538.733 0.20518 -2.56782 0
M  V30 5626 H 538.691 1.93195 -2.48039 0
M  V30 5627 N 542.463 1.3308 -0.844243 0
M  V30 5628 C 543.711 1.97215 -0.441676 0
M  V30 5629 C 544.032 1.67185 1.0037 0
M  V30 5630 O 543.302 0.973588 1.69994 0
M  V30 5631 H 541.882 0.72959 -0.160335 0
M  V30 5632 H 544.544 1.62348 -1.07838 0
M  V30 5633 H 543.64 3.06698 -0.57815 0
M  V30 5634 N 543.941 0.601185 1.45683 0
M  V30 5635 C 545.187 0.0940202 2.02582 0
M  V30 5636 C 545.52 -1.26972 1.46941 0
M  V30 5637 O 544.795 -1.83613 0.641612 0
M  V30 5638 C 545.078 0.0481715 3.60068 0
M  V30 5639 C 544.931 1.44212 4.26055 0
M  V30 5640 C 546.25 -0.642975 4.35378 0
M  V30 5641 H 543.369 0.0356404 0.736138 0
M  V30 5642 H 546.011 0.771929 1.73612 0
M  V30 5643 H 544.161 -0.529128 3.8488 0
M  V30 5644 H 545.833 2.06601 4.12449 0
M  V30 5645 H 544.076 2.00465 3.84703 0
M  V30 5646 H 544.747 1.36234 5.34925 0
M  V30 5647 H 547.223 -0.152351 4.15821 0
M  V30 5648 H 546.099 -0.644141 5.45107 0
M  V30 5649 H 546.36 -1.70785 4.0778 0
M  V30 5650 N 545.419 -1.53889 0.339982 0
M  V30 5651 C 546.382 -2.23547 -0.50592 0
M  V30 5652 C 547.382 -1.23445 -1.03044 0
M  V30 5653 O 548.572 -1.47909 -0.920253 0
M  V30 5654 C 545.704 -2.95234 -1.7044 0
M  V30 5655 H 546.897 -2.99722 0.103247 0
M  V30 5656 H 544.45 -1.56033 0.0912804 0
M  V30 5657 H 545.185 -2.23236 -2.35236 0
M  V30 5658 H 544.97 -3.68654 -1.33553 0
M  V30 5659 H 546.46 -3.48258 -2.30447 0
M  V30 5660 N 546.897 -0.0685191 -1.57451 0
M  V30 5661 C 548.144 0.601348 -1.93365 0
M  V30 5662 C 548.472 1.69816 -0.948294 0
M  V30 5663 O 547.727 1.95666 0.0366199 0
M  V30 5664 C 548.026 1.22051 -3.35914 0
M  V30 5665 C 547.692 0.250165 -4.50205 0
M  V30 5666 C 546.354 -0.0167954 -4.81197 0
M  V30 5667 C 548.706 -0.413867 -5.19554 0
M  V30 5668 C 546.034 -0.95493 -5.78876 0
M  V30 5669 C 548.386 -1.3403 -6.18238 0
M  V30 5670 C 547.05 -1.61576 -6.47649 0
M  V30 5671 H 546.32 0.220049 -0.707573 0
M  V30 5672 H 548.967 -0.138697 -1.90997 0
M  V30 5673 H 547.272 2.03622 -3.34732 0
M  V30 5674 H 548.969 1.74605 -3.6099 0
M  V30 5675 H 545.559 0.468421 -4.26033 0
M  V30 5676 H 549.743 -0.220733 -4.95809 0
M  V30 5677 H 544.999 -1.17563 -5.99991 0
M  V30 5678 H 549.173 -1.86081 -6.71079 0
M  V30 5679 H 546.8 -2.34431 -7.2315 0
M  V30 5680 N 548.375 1.56261 0.205012 0
M  V30 5681 C 549.305 1.96779 1.257 0
M  V30 5682 C 550.286 0.838309 1.48008 0
M  V30 5683 O 551.471 1.10189 1.59913 0
M  V30 5684 C 548.601 2.29876 2.60335 0
M  V30 5685 C 547.555 3.45469 2.52656 0
M  V30 5686 C 546.881 3.64215 3.91473 0
M  V30 5687 C 548.181 4.79954 2.06014 0
M  V30 5688 H 549.875 2.84904 0.920338 0
M  V30 5689 H 547.421 1.37072 0.441277 0
M  V30 5690 H 549.374 2.56814 3.34102 0
M  V30 5691 H 548.098 1.38622 2.95722 0
M  V30 5692 H 546.757 3.18605 1.81345 0
M  V30 5693 H 546.405 2.70309 4.24196 0
M  V30 5694 H 546.105 4.41973 3.87213 0
M  V30 5695 H 547.629 3.93519 4.66878 0
M  V30 5696 H 549.043 5.05989 2.69533 0
M  V30 5697 H 547.44 5.61111 2.12777 0
M  V30 5698 H 548.51 4.74201 1.01297 0
M  V30 5699 N 549.853 -0.472356 1.50355 0
M  V30 5700 C 551.101 -1.22211 1.60962 0
M  V30 5701 C 551.422 -1.92497 0.311439 0
M  V30 5702 O 550.692 -1.8405 -0.671002 0
M  V30 5703 H 549.272 -0.454092 0.593135 0
M  V30 5704 H 551.934 -0.544977 1.87126 0
M  V30 5705 H 551.03 -1.9707 2.42012 0
M  V30 5706 N 551.331 -1.39911 -0.725443 0
M  V30 5707 C 552.742 -1.33599 -1.30415 0
M  V30 5708 C 553.093 -0.00481792 -1.96199 0
M  V30 5709 O 552.218 0.897275 -1.96921 0
M  V30 5710 C 552.813 -2.41965 -2.37146 0
M  V30 5711 C 551.372 -2.39144 -2.90667 0
M  V30 5712 C 550.519 -2.23355 -1.64341 0
M  V30 5713 H 553.47 -1.4986 -0.522267 0
M  V30 5714 H 553.491 -2.09304 -3.17761 0
M  V30 5715 H 553.003 -3.38837 -1.89238 0
M  V30 5716 H 551.104 -1.4594 -3.4283 0
M  V30 5717 H 551.217 -3.34362 -3.43131 0
M  V30 5718 H 549.581 -1.70696 -1.89037 0
M  V30 5719 H 550.364 -3.2221 -1.18471 0
M  V30 5720 N 552.809 0.956637 -1.25245 0
M  V30 5721 C 554.22 1.51569 -1.09012 0
M  V30 5722 C 554.571 1.93322 0.334813 0
M  V30 5723 O 553.696 1.78421 1.22454 0
M  V30 5724 C 554.291 2.75444 -1.97271 0
M  V30 5725 C 552.85 3.27669 -1.8523 0
M  V30 5726 C 551.997 2.00517 -1.91542 0
M  V30 5727 H 554.948 0.773746 -1.3856 0
M  V30 5728 H 554.969 3.4919 -1.51151 0
M  V30 5729 H 554.481 2.45024 -3.00973 0
M  V30 5730 H 552.582 3.62914 -0.844045 0
M  V30 5731 H 552.695 3.9582 -2.69932 0
M  V30 5732 H 551.059 2.15727 -1.35404 0
M  V30 5733 H 551.842 1.72448 -2.96844 0
M  V30 5734 N 554.287 1.06798 1.15896 0
M  V30 5735 C 555.512 0.808739 1.90982 0
M  V30 5736 C 555.937 -0.6316 1.77179 0
M  V30 5737 O 555.295 -1.4407 1.10061 0
M  V30 5738 C 555.343 1.21468 3.39526 0
M  V30 5739 O 554.447 0.356562 4.10856 0
M  V30 5740 H 553.788 0.29512 0.594811 0
M  V30 5741 H 556.318 1.42513 1.46804 0
M  V30 5742 H 556.328 1.18844 3.90308 0
M  V30 5743 H 555.003 2.26379 3.48891 0
M  V30 5744 H 553.58 0.444808 3.70238 0
M  V30 5745 N 555.766 -1.3263 0.851289 0
M  V30 5746 C 556.676 -2.32722 0.296268 0
M  V30 5747 C 557.692 -1.63901 -0.584162 0
M  V30 5748 O 558.868 -1.95465 -0.485334 0
M  V30 5749 C 555.933 -3.42942 -0.509103 0
M  V30 5750 C 554.994 -4.2746 0.397069 0
M  V30 5751 C 554.227 -5.32416 -0.36996 0
M  V30 5752 O 554.45 -5.47491 -1.6003 0
M  V30 5753 O 553.384 -6.01327 0.262493 0
M  V30 5754 H 557.21 -2.82078 1.12543 0
M  V30 5755 H 554.795 -1.36194 0.614135 0
M  V30 5756 H 556.677 -4.1017 -0.96634 0
M  V30 5757 H 555.352 -2.95781 -1.31512 0
M  V30 5758 H 554.259 -3.63053 0.902411 0
M  V30 5759 H 555.592 -4.78136 1.16818 0
M  V30 5760 N 557.244 -0.608902 -1.45362 0
M  V30 5761 C 558.207 0.0992563 -2.28985 0
M  V30 5762 C 559.207 0.793841 -1.39838 0
M  V30 5763 O 560.397 0.641804 -1.61946 0
M  V30 5764 C 557.529 1.15073 -3.20891 0
M  V30 5765 H 558.722 -0.635964 -2.93079 0
M  V30 5766 H 556.275 -0.368007 -1.51906 0
M  V30 5767 H 557.01 1.91667 -2.616 0
M  V30 5768 H 556.795 0.656867 -3.86559 0
M  V30 5769 H 558.285 1.64665 -3.83765 0
M  V30 5770 N 558.722 1.53707 -0.348139 0
M  V30 5771 C 559.655 2.21481 0.549667 0
M  V30 5772 C 560.633 1.20046 1.09671 0
M  V30 5773 O 561.817 1.48883 1.15612 0
M  V30 5774 C 558.944 2.89585 1.75664 0
M  V30 5775 C 557.99 4.04948 1.33864 0
M  V30 5776 S 558.823 5.34325 0.354577 0
M  V30 5777 C 559.979 6.05934 1.56828 0
M  V30 5778 H 560.212 2.97289 -0.0259755 0
M  V30 5779 H 557.745 1.53833 -0.132216 0
M  V30 5780 H 559.703 3.29441 2.44906 0
M  V30 5781 H 558.364 2.13535 2.30351 0
M  V30 5782 H 557.557 4.51552 2.23868 0
M  V30 5783 H 557.159 3.66893 0.725651 0
M  V30 5784 H 559.451 6.29606 2.50205 0
M  V30 5785 H 560.394 6.98799 1.14395 0
M  V30 5786 H 560.802 5.36151 1.76642 0
M  V30 5787 N 560.2 0.0768682 1.57412 0
M  V30 5788 C 561.446 -0.585926 1.94778 0
M  V30 5789 C 561.801 -1.66912 0.956982 0
M  V30 5790 O 561.094 -1.9159 -0.0199454 0
M  V30 5791 C 561.288 -1.20268 3.36557 0
M  V30 5792 C 561.117 -0.18076 4.49337 0
M  V30 5793 C 559.887 0.236362 5.04747 0
M  V30 5794 C 562.085 0.583978 5.10974 0
M  V30 5795 N 560.067 1.24846 6.01071 0
M  V30 5796 C 561.438 1.44841 6.02844 0
M  V30 5797 C 563.493 0.639492 4.93776 0
M  V30 5798 C 562.196 2.36343 6.79363 0
M  V30 5799 C 564.222 1.54204 5.70942 0
M  V30 5800 C 563.584 2.39414 6.62465 0
M  V30 5801 H 559.683 -0.185281 0.759734 0
M  V30 5802 H 562.267 0.155193 1.9408 0
M  V30 5803 H 560.438 -1.9137 3.37982 0
M  V30 5804 H 562.17 -1.82636 3.61146 0
M  V30 5805 H 558.925 -0.14777 4.73369 0
M  V30 5806 H 559.349 1.75217 6.53933 0
M  V30 5807 H 563.991 -0.00510074 4.228 0
M  V30 5808 H 561.709 3.01836 7.49614 0
M  V30 5809 H 565.295 1.5899 5.59655 0
M  V30 5810 H 564.175 3.0812 7.21132 0
M  V30 5811 N 561.678 -1.56367 -0.196722 0
M  V30 5812 C 562.641 -1.93561 -1.22746 0
M  V30 5813 C 563.641 -0.816566 -1.38524 0
M  V30 5814 O 564.831 -1.084 -1.36363 0
M  V30 5815 C 561.963 -2.20823 -2.59712 0
M  V30 5816 H 563.156 -2.85774 -0.909586 0
M  V30 5817 H 560.709 -1.50032 -0.438174 0
M  V30 5818 H 561.444 -1.31243 -2.96557 0
M  V30 5819 H 561.229 -3.02368 -2.49632 0
M  V30 5820 H 562.719 -2.50608 -3.34044 0
M  V30 5821 N 563.156 0.464375 -1.50603 0
M  V30 5822 C 564.086 1.56944 -1.72889 0
M  V30 5823 C 565.067 1.59979 -0.577997 0
M  V30 5824 O 566.252 1.76138 -0.817855 0
M  V30 5825 C 563.382 2.95225 -1.8292 0
M  V30 5826 C 562.336 3.07056 -2.98162 0
M  V30 5827 C 561.662 4.47051 -2.93343 0
M  V30 5828 C 562.962 2.83648 -4.38567 0
M  V30 5829 H 564.656 1.38547 -2.65415 0
M  V30 5830 H 562.202 0.665082 -1.27721 0
M  V30 5831 H 564.155 3.72467 -1.97095 0
M  V30 5832 H 562.879 3.14793 -0.870209 0
M  V30 5833 H 561.538 2.32248 -2.83648 0
M  V30 5834 H 561.186 4.63547 -1.95276 0
M  V30 5835 H 560.886 4.55902 -3.70712 0
M  V30 5836 H 562.41 5.26304 -3.09575 0
M  V30 5837 H 563.824 3.50636 -4.53572 0
M  V30 5838 H 562.221 3.03937 -5.17438 0
M  V30 5839 H 563.291 1.79451 -4.50472 0
M  V30 5840 N 564.634 1.40294 0.718013 0
M  V30 5841 C 565.882 1.38167 1.47494 0
M  V30 5842 C 566.203 -0.01607 1.94993 0
M  V30 5843 O 565.473 -0.970396 1.70177 0
M  V30 5844 H 564.053 0.508505 0.547203 0
M  V30 5845 H 566.715 1.75324 0.851322 0
M  V30 5846 H 565.811 2.05503 2.34894 0
M  V30 5847 N 566.112 -0.949982 1.2575 0
M  V30 5848 C 567.389 -1.6718 1.01539 0
M  V30 5849 C 567.769 -2.06095 -0.456942 0
M  V30 5850 O 567.117 -1.77792 -1.43534 0
M  V30 5851 C 567.327 -2.8906 1.95564 0
M  V30 5852 C 568.675 -3.60909 2.23673 0
M  V30 5853 O 569.699 -2.9915 1.9336 0
M  V30 5854 O 568.558 -4.72127 2.75243 0
M  V30 5855 H 565.652 -0.731697 0.385419 0
M  V30 5856 H 568.198 -1.00249 1.36924 0
M  V30 5857 H 566.97 -2.57128 2.94959 0
M  V30 5858 H 566.593 -3.63719 1.60605 0
M  V30 5859 N 567.59 -1.07411 -1.15328 0
M  V30 5860 C 568.537 -0.694995 -2.20087 0
M  V30 5861 C 569.507 0.313904 -1.63107 0
M  V30 5862 O 570.692 0.200216 -1.89747 0
M  V30 5863 C 567.832 -0.0996218 -3.44956 0
M  V30 5864 C 566.945 -1.16007 -4.16133 0
M  V30 5865 C 566.08 -0.529636 -5.28553 0
M  V30 5866 C 565.119 -1.57283 -5.91548 0
M  V30 5867 N 564.256 -0.964932 -6.95438 0
M  V30 5868 H 569.096 -1.5927 -2.51867 0
M  V30 5869 H 566.633 -0.796115 -1.23695 0
M  V30 5870 H 568.591 0.263197 -4.16369 0
M  V30 5871 H 567.221 0.761435 -3.13691 0
M  V30 5872 H 566.273 -1.64045 -3.4321 0
M  V30 5873 H 567.585 -1.95101 -4.59061 0
M  V30 5874 H 566.739 -0.114487 -6.06592 0
M  V30 5875 H 565.478 0.29307 -4.86819 0
M  V30 5876 H 564.483 -1.99775 -5.12221 0
M  V30 5877 H 565.708 -2.39783 -6.35359 0
M  V30 5878 H 563.654 -0.16314 -6.55797 0
M  V30 5879 H 563.571 -1.69311 -7.36797 0
M  V30 5880 H 564.839 -0.575305 -7.77374 0
M  V30 5881 N 569.068 1.32177 -0.85831 0
M  V30 5882 C 570.317 1.96392 -0.459689 0
M  V30 5883 C 570.63 1.68659 0.990632 0
M  V30 5884 O 571.836 2.26641 1.49485 0
M  V30 5885 C 570.292 3.51542 -0.7711 0
M  V30 5886 C 569.9 3.8813 -2.2374 0
M  V30 5887 C 571.644 4.2221 -0.44038 0
M  V30 5888 C 569.551 5.36341 -2.49183 0
M  V30 5889 H 568.481 0.735007 -0.168169 0
M  V30 5890 H 571.132 1.50518 -1.0496 0
M  V30 5891 H 569.514 3.95846 -0.11058 0
M  V30 5892 H 570.688 3.54824 -2.94001 0
M  V30 5893 H 569.003 3.30497 -2.533 0
M  V30 5894 H 571.6 5.31234 -0.607855 0
M  V30 5895 H 571.943 4.11683 0.618291 0
M  V30 5896 H 572.476 3.83502 -1.05695 0
M  V30 5897 H 569.215 5.51892 -3.53689 0
M  V30 5898 H 568.735 5.7104 -1.83504 0
M  V30 5899 H 570.414 6.03466 -2.33318 0
M  V30 5900 N 570.547 0.616602 1.45037 0
M  V30 5901 C 571.51 -0.0871112 2.29034 0
M  V30 5902 C 572.51 -0.786414 1.40258 0
M  V30 5903 O 573.7 -0.633207 1.62284 0
M  V30 5904 C 570.832 -1.13369 3.21497 0
M  V30 5905 H 572.025 0.651497 2.92738 0
M  V30 5906 H 569.578 0.376058 1.51709 0
M  V30 5907 H 570.313 -1.90277 2.62612 0
M  V30 5908 H 570.098 -0.636358 3.86902 0
M  V30 5909 H 571.588 -1.62627 3.84633 0
M  V30 5910 N 572.025 -1.5352 0.356285 0
M  V30 5911 C 573.25 -2.06007 -0.239961 0
M  V30 5912 C 573.675 -1.22872 -1.42422 0
M  V30 5913 O 573.033 -0.245516 -1.7963 0
M  V30 5914 C 573.081 -3.5522 -0.620587 0
M  V30 5915 O 572.185 -3.74864 -1.71902 0
M  V30 5916 H 571.526 -0.662961 -0.0371377 0
M  V30 5917 H 574.056 -1.98033 0.514194 0
M  V30 5918 H 574.066 -3.98081 -0.894197 0
M  V30 5919 H 572.741 -4.15175 0.245407 0
M  V30 5920 H 571.318 -3.43904 -1.44169 0
M  V30 5921 N 573.503 -0.0852151 -1.57369 0
M  V30 5922 C 574.731 0.58946 -1.98325 0
M  V30 5923 C 575.146 1.62333 -0.96403 0
M  V30 5924 O 574.503 1.82438 0.0476395 0
M  V30 5925 C 574.554 1.24604 -3.39347 0
M  V30 5926 O 574.275 0.253532 -4.37366 0
M  V30 5927 C 575.776 2.00726 -3.95252 0
M  V30 5928 H 572.996 0.158783 -0.651942 0
M  V30 5929 H 575.54 -0.161584 -2.03861 0
M  V30 5930 H 573.695 1.94808 -3.34856 0
M  V30 5931 H 574.109 0.726207 -5.19448 0
M  V30 5932 H 575.583 2.42039 -4.96106 0
M  V30 5933 H 576.06 2.86919 -3.32527 0
M  V30 5934 H 576.666 1.3536 -4.03185 0
M  V30 5935 N 574.981 1.5647 0.188427 0
M  V30 5936 C 576.227 1.81281 0.909124 0
M  V30 5937 C 576.56 0.66034 1.82628 0
M  V30 5938 O 575.835 -0.338737 1.91528 0
M  V30 5939 C 576.118 3.16388 1.7196 0
M  V30 5940 C 575.971 4.42137 0.826714 0
M  V30 5941 C 577.29 3.48256 2.69083 0
M  V30 5942 H 574.409 0.659457 0.329068 0
M  V30 5943 H 577.051 1.89182 0.176156 0
M  V30 5944 H 575.201 3.09784 2.34448 0
M  V30 5945 H 576.873 4.60794 0.216025 0
M  V30 5946 H 575.116 4.33594 0.133792 0
M  V30 5947 H 575.787 5.33184 1.42893 0
M  V30 5948 H 578.263 3.55203 2.16726 0
M  V30 5949 H 577.139 4.43899 3.2287 0
M  V30 5950 H 577.4 2.72088 3.48455 0
M  V30 5951 N 576.459 -0.456382 1.50847 0
M  V30 5952 C 577.705 -1.20914 1.62811 0
M  V30 5953 C 578.038 -1.91301 0.334304 0
M  V30 5954 O 577.313 -1.82775 -0.665098 0
M  V30 5955 C 577.596 -2.24122 2.81853 0
M  V30 5956 C 577.449 -1.57944 4.21158 0
M  V30 5957 C 578.768 -3.25295 2.96431 0
M  V30 5958 H 575.887 -0.438233 0.592554 0
M  V30 5959 H 578.529 -0.50091 1.83278 0
M  V30 5960 H 576.679 -2.84524 2.64534 0
M  V30 5961 H 578.351 -1.01025 4.50102 0
M  V30 5962 H 576.594 -0.882185 4.24735 0
M  V30 5963 H 577.265 -2.33014 5.00408 0
M  V30 5964 H 579.741 -2.7493 3.12335 0
M  V30 5965 H 578.617 -3.94822 3.81322 0
M  V30 5966 H 578.878 -3.90286 2.07676 0
M  V30 5967 N 577.937 -1.40673 -0.710563 0
M  V30 5968 C 578.9 -1.4108 -1.80635 0
M  V30 5969 C 579.9 -0.303783 -1.57904 0
M  V30 5970 O 581.09 -0.562937 -1.64853 0
M  V30 5971 C 578.222 -1.20748 -3.18799 0
M  V30 5972 H 579.415 -2.38612 -1.81671 0
M  V30 5973 H 576.968 -1.26595 -0.916704 0
M  V30 5974 H 577.703 -0.239964 -3.23411 0
M  V30 5975 H 577.488 -2.00941 -3.36698 0
M  V30 5976 H 578.978 -1.23833 -3.98817 0
M  V30 5977 N 579.415 0.9433 -1.26252 0
M  V30 5978 C 580.347 2.04542 -1.03417 0
M  V30 5979 C 581.36 1.62799 0.0046911 0
M  V30 5980 O 582.549 1.76944 -0.235146 0
M  V30 5981 C 579.649 3.34511 -0.543671 0
M  V30 5982 C 578.822 4.05033 -1.65128 0
M  V30 5983 C 577.881 5.13273 -1.1592 0
M  V30 5984 O 576.907 5.38095 -1.85586 0
M  V30 5985 N 578.109 5.805 -0.00649279 0
M  V30 5986 H 580.874 2.24699 -1.98319 0
M  V30 5987 H 578.435 1.11264 -1.1761 0
M  V30 5988 H 580.427 4.04212 -0.198703 0
M  V30 5989 H 578.997 3.11042 0.311711 0
M  V30 5990 H 578.217 3.29275 -2.16729 0
M  V30 5991 H 579.505 4.48903 -2.39508 0
M  V30 5992 H 578.903 5.62767 0.575347 0
M  V30 5993 H 577.46 6.51201 0.279416 0
M  V30 5994 N 580.893 1.08022 1.14757 0
M  V30 5995 C 582.121 0.828847 1.89572 0
M  V30 5996 C 582.536 -0.618621 1.78377 0
M  V30 5997 O 581.893 -1.42482 1.1404 0
M  V30 5998 C 581.944 1.23677 3.39685 0
M  V30 5999 O 581.665 2.62746 3.50566 0
M  V30 6000 C 583.166 1.01569 4.31507 0
M  V30 6001 H 580.386 0.299196 0.600602 0
M  V30 6002 H 582.93 1.43846 1.45357 0
M  V30 6003 H 581.085 0.671347 3.81539 0
M  V30 6004 H 581.499 2.79573 4.43778 0
M  V30 6005 H 582.973 1.35055 5.35223 0
M  V30 6006 H 583.45 -0.0475433 4.39174 0
M  V30 6007 H 584.056 1.56636 3.95405 0
M  V30 6008 N 582.371 -1.3172 0.865308 0
M  V30 6009 C 583.301 -2.31109 0.333302 0
M  V30 6010 C 584.282 -1.60148 -0.573301 0
M  V30 6011 O 585.467 -1.87882 -0.491305 0
M  V30 6012 C 582.597 -3.44104 -0.470078 0
M  V30 6013 C 581.551 -4.26623 0.343021 0
M  V30 6014 C 580.877 -5.31482 -0.585756 0
M  V30 6015 C 582.177 -4.98001 1.57456 0
M  V30 6016 H 583.871 -2.75855 1.1638 0
M  V30 6017 H 581.417 -1.3262 0.561069 0
M  V30 6018 H 583.37 -4.12682 -0.852752 0
M  V30 6019 H 582.094 -2.98112 -1.33404 0
M  V30 6020 H 580.753 -3.59707 0.707583 0
M  V30 6021 H 580.401 -4.81741 -1.44686 0
M  V30 6022 H 580.101 -5.87582 -0.0456494 0
M  V30 6023 H 581.625 -6.0292 -0.965375 0
M  V30 6024 H 583.039 -5.59201 1.26359 0
M  V30 6025 H 581.436 -5.63876 2.05339 0
M  V30 6026 H 582.506 -4.25253 2.32997 0
M  V30 6027 N 583.85 -0.624285 -1.44708 0
M  V30 6028 C 584.782 0.12305 -2.28869 0
M  V30 6029 C 585.795 0.81557 -1.40898 0
M  V30 6030 O 586.984 0.678162 -1.65116 0
M  V30 6031 C 584.084 1.19612 -3.1709 0
M  V30 6032 C 583.257 0.587452 -4.33437 0
M  V30 6033 C 582.316 1.55358 -5.02743 0
M  V30 6034 O 581.341 1.07338 -5.58988 0
M  V30 6035 N 582.543 2.88798 -5.03563 0
M  V30 6036 H 585.308 -0.599193 -2.93649 0
M  V30 6037 H 582.87 -0.464954 -1.5508 0
M  V30 6038 H 584.861 1.84261 -3.60319 0
M  V30 6039 H 583.432 1.82067 -2.54107 0
M  V30 6040 H 582.652 -0.237509 -3.93484 0
M  V30 6041 H 583.94 0.161326 -5.08544 0
M  V30 6042 H 583.338 3.30399 -4.59188 0
M  V30 6043 H 581.894 3.48826 -5.50603 0
M  V30 6044 N 585.328 1.53329 -0.364422 0
M  V30 6045 C 586.574 2.01537 0.225969 0
M  V30 6046 C 586.907 1.25128 1.48515 0
M  V30 6047 O 586.182 0.344653 1.91422 0
M  V30 6048 C 586.465 3.56339 0.519092 0
M  V30 6049 C 586.318 4.43441 -0.753639 0
M  V30 6050 C 587.637 4.19833 1.32015 0
M  V30 6051 H 584.756 0.732573 0.0806548 0
M  V30 6052 H 587.398 1.83597 -0.489084 0
M  V30 6053 H 585.548 3.71756 1.12825 0
M  V30 6054 H 587.22 4.39823 -1.39116 0
M  V30 6055 H 585.463 4.11457 -1.37424 0
M  V30 6056 H 586.134 5.49699 -0.503517 0
M  V30 6057 H 588.61 4.08242 0.804859 0
M  V30 6058 H 587.486 5.28177 1.49399 0
M  V30 6059 H 587.747 3.75821 2.32832 0
M  V30 6060 N 586.806 0.0935595 1.57322 0
M  V30 6061 C 588.217 -0.435807 1.81542 0
M  V30 6062 C 588.568 -1.68263 1.00907 0
M  V30 6063 O 587.693 -2.15087 0.237983 0
M  V30 6064 C 588.288 -0.797436 3.29282 0
M  V30 6065 C 586.847 -1.27155 3.54272 0
M  V30 6066 C 585.994 -0.267455 2.76007 0
M  V30 6067 H 588.945 0.31902 1.5546 0
M  V30 6068 H 588.966 -1.6571 3.42521 0
M  V30 6069 H 588.478 0.110206 3.87943 0
M  V30 6070 H 586.579 -2.19696 3.00939 0
M  V30 6071 H 586.692 -1.23445 4.62923 0
M  V30 6072 H 585.056 -0.749282 2.43429 0
M  V30 6073 H 585.839 0.632839 3.37417 0
M  V30 6074 N 588.284 -1.56567 -0.180126 0
M  V30 6075 C 589.512 -1.85618 -0.913972 0
M  V30 6076 C 589.927 -0.677892 -1.7621 0
M  V30 6077 O 589.284 0.353171 -1.7905 0
M  V30 6078 C 589.335 -3.13619 -1.79793 0
M  V30 6079 O 589.056 -4.26906 -0.98402 0
M  V30 6080 C 590.557 -3.55954 -2.64219 0
M  V30 6081 H 587.777 -0.616043 -0.265954 0
M  V30 6082 H 590.321 -2.03681 -0.182872 0
M  V30 6083 H 588.476 -2.97409 -2.48247 0
M  V30 6084 H 588.89 -4.9989 -1.58776 0
M  V30 6085 H 590.364 -4.48444 -3.21873 0
M  V30 6086 H 590.841 -2.79653 -3.38661 0
M  V30 6087 H 591.447 -3.74746 -2.01111 0
M  V30 6088 N 589.762 0.448376 -1.51087 0
M  V30 6089 C 590.692 1.55102 -1.74544 0
M  V30 6090 C 591.673 1.59357 -0.594932 0
M  V30 6091 O 592.858 1.75261 -0.836491 0
M  V30 6092 C 589.988 2.93268 -1.86041 0
M  V30 6093 C 588.942 3.03877 -3.01402 0
M  V30 6094 C 588.268 4.43914 -2.98068 0
M  V30 6095 C 589.568 2.7898 -4.41551 0
M  V30 6096 H 591.262 1.35724 -2.66869 0
M  V30 6097 H 588.808 0.651498 -1.28419 0
M  V30 6098 H 590.761 3.70356 -2.01034 0
M  V30 6099 H 589.485 3.13853 -0.903548 0
M  V30 6100 H 588.144 2.29227 -2.86096 0
M  V30 6101 H 587.792 4.6145 -2.00182 0
M  V30 6102 H 587.492 4.51944 -3.75527 0
M  V30 6103 H 589.016 5.22991 -3.1514 0
M  V30 6104 H 590.43 3.45805 -4.57265 0
M  V30 6105 H 588.827 2.98431 -5.20633 0
M  V30 6106 H 589.897 1.74663 -4.5235 0
M  V30 6107 N 591.24 1.41047 0.703093 0
M  V30 6108 C 592.651 1.35657 1.28274 0
M  V30 6109 C 593.002 0.0360309 1.96167 0
M  V30 6110 O 592.127 -0.865833 1.98324 0
M  V30 6111 C 592.722 2.45707 2.33267 0
M  V30 6112 C 591.281 2.43738 2.86825 0
M  V30 6113 C 590.428 2.25941 1.60767 0
M  V30 6114 H 593.379 1.50672 0.49836 0
M  V30 6115 H 593.4 2.14333 3.14391 0
M  V30 6116 H 592.912 3.41805 1.83824 0
M  V30 6117 H 591.013 1.51375 3.40465 0
M  V30 6118 H 591.126 3.39779 3.37768 0
M  V30 6119 H 589.49 1.73681 1.86298 0
M  V30 6120 H 590.273 3.24054 1.1333 0
M  V30 6121 N 592.718 -0.936591 1.26751 0
M  V30 6122 C 593.964 -1.68625 1.13741 0
M  V30 6123 C 594.319 -1.898 -0.315221 0
M  V30 6124 O 593.612 -1.47088 -1.22783 0
M  V30 6125 C 593.806 -3.06099 1.84494 0
M  V30 6126 C 593.635 -2.98338 3.36488 0
M  V30 6127 C 592.405 -3.01104 4.05789 0
M  V30 6128 C 594.603 -2.78128 4.32608 0
M  V30 6129 N 592.585 -2.8369 5.4442 0
M  V30 6130 C 593.956 -2.69329 5.58446 0
M  V30 6131 C 596.011 -2.62946 4.22804 0
M  V30 6132 C 594.714 -2.46899 6.75598 0
M  V30 6133 C 596.74 -2.41892 5.39669 0
M  V30 6134 C 596.102 -2.33829 6.64457 0
M  V30 6135 H 592.201 -0.624227 0.471025 0
M  V30 6136 H 594.785 -1.10798 1.601 0
M  V30 6137 H 592.956 -3.62057 1.40604 0
M  V30 6138 H 594.688 -3.69951 1.64067 0
M  V30 6139 H 591.443 -3.10992 3.57185 0
M  V30 6140 H 591.867 -2.78138 6.17226 0
M  V30 6141 H 596.509 -2.67944 3.27056 0
M  V30 6142 H 594.227 -2.40642 7.71438 0
M  V30 6143 H 597.813 -2.31043 5.33957 0
M  V30 6144 H 596.693 -2.17754 7.53361 0
M  V30 6145 N 594.196 -1.08629 -1.14182 0
M  V30 6146 C 595.421 -0.83902 -1.89671 0
M  V30 6147 C 595.846 0.603332 -1.78161 0
M  V30 6148 O 595.204 1.42301 -1.12339 0
M  V30 6149 C 595.252 -1.26854 -3.37551 0
M  V30 6150 O 594.356 -0.42188 -4.10236 0
M  V30 6151 H 593.697 -0.304545 -0.590041 0
M  V30 6152 H 596.227 -1.4483 -1.44518 0
M  V30 6153 H 596.237 -1.25038 -3.88368 0
M  V30 6154 H 594.912 -2.31901 -3.45246 0
M  V30 6155 H 593.489 -0.503654 -3.69483 0
M  V30 6156 N 595.674 1.31259 -0.872281 0
M  V30 6157 C 596.922 1.96233 -0.483409 0
M  V30 6158 C 597.243 1.69276 0.968012 0
M  V30 6159 O 596.513 1.00943 1.67891 0
M  V30 6160 H 595.093 0.726025 -0.175774 0
M  V30 6161 H 597.755 1.60024 -1.11258 0
M  V30 6162 H 596.851 3.05403 -0.643075 0
M  V30 6163 N 597.152 0.631951 1.44375 0
M  V30 6164 C 598.377 0.142146 2.06912 0
M  V30 6165 C 598.802 -1.17456 1.4692 0
M  V30 6166 O 598.16 -1.72074 0.570975 0
M  V30 6167 C 598.208 0.0417952 3.60576 0
M  V30 6168 O 597.312 -1.00194 4.00044 0
M  V30 6169 H 596.653 0.0851491 0.658518 0
M  V30 6170 H 599.183 0.868863 1.85235 0
M  V30 6171 H 599.193 -0.148517 4.0773 0
M  V30 6172 H 597.868 1.0031 4.03622 0
M  V30 6173 H 596.445 -0.786131 3.64519 0
M  V30 6174 N 598.631 -1.53133 0.372548 0
M  V30 6175 C 599.879 -2.00958 -0.214534 0
M  V30 6176 C 600.2 -1.26135 -1.48711 0
M  V30 6177 O 599.47 -0.376597 -1.92246 0
M  V30 6178 H 598.05 -0.742456 -0.0822664 0
M  V30 6179 H 600.712 -1.88367 0.500385 0
M  V30 6180 H 599.808 -3.09031 -0.436605 0
M  V30 6181 N 600.109 -0.101901 -1.5727 0
M  V30 6182 C 601.039 0.851544 -2.17419 0
M  V30 6183 C 602.02 1.28942 -1.10941 0
M  V30 6184 O 603.205 1.35509 -1.39107 0
M  V30 6185 C 600.335 2.10816 -2.75996 0
M  V30 6186 C 599.289 1.80867 -3.87906 0
M  V30 6187 C 598.615 3.13413 -4.33216 0
M  V30 6188 C 599.915 1.0903 -5.10793 0
M  V30 6189 H 601.609 0.350381 -2.97343 0
M  V30 6190 H 599.155 0.16709 -1.43027 0
M  V30 6191 H 601.108 2.77959 -3.16729 0
M  V30 6192 H 599.832 2.63227 -1.93337 0
M  V30 6193 H 598.491 1.16119 -3.47724 0
M  V30 6194 H 598.139 3.63725 -3.47438 0
M  V30 6195 H 597.839 2.94155 -5.08671 0
M  V30 6196 H 599.363 3.81704 -4.76586 0
M  V30 6197 H 600.777 1.66295 -5.48652 0
M  V30 6198 H 599.174 0.99927 -5.91722 0
M  V30 6199 H 600.244 0.0741704 -4.84843 0
M  V30 6200 N 601.587 1.56661 0.17182 0
M  V30 6201 C 602.815 1.861 0.904115 0
M  V30 6202 C 603.23 0.687227 1.75848 0
M  V30 6203 O 602.587 -0.343671 1.79235 0
M  V30 6204 C 602.638 3.14568 1.78127 0
M  V30 6205 O 602.359 4.27422 0.961366 0
M  V30 6206 C 603.86 3.5735 2.62327 0
M  V30 6207 H 601.08 0.617445 0.262684 0
M  V30 6208 H 603.624 2.03775 0.172068 0
M  V30 6209 H 601.779 2.98721 2.46666 0
M  V30 6210 H 602.193 5.00725 1.56123 0
M  V30 6211 H 603.667 4.50144 3.1949 0
M  V30 6212 H 604.144 2.81445 3.37173 0
M  V30 6213 H 604.75 3.75807 1.99121 0
M  V30 6214 N 603.065 -0.440357 1.51323 0
M  V30 6215 C 604.311 -1.19181 1.64085 0
M  V30 6216 C 604.644 -1.90936 0.354575 0
M  V30 6217 O 603.919 -1.8347 -0.645675 0
M  V30 6218 C 604.202 -2.2112 2.84215 0
M  V30 6219 C 604.055 -1.53468 4.22809 0
M  V30 6220 C 605.374 -3.22133 2.99864 0
M  V30 6221 H 602.493 -0.431924 0.597169 0
M  V30 6222 H 605.135 -0.481443 1.83799 0
M  V30 6223 H 603.285 -2.81703 2.67537 0
M  V30 6224 H 604.957 -0.962455 4.51148 0
M  V30 6225 H 603.2 -0.837086 4.25647 0
M  V30 6226 H 603.871 -2.27694 5.02852 0
M  V30 6227 H 606.347 -2.71601 3.15233 0
M  V30 6228 H 605.223 -3.90756 3.85488 0
M  V30 6229 H 605.484 -3.88061 2.11804 0
M  V30 6230 N 604.543 -1.41418 -0.695603 0
M  V30 6231 C 605.453 -1.45622 -1.83933 0
M  V30 6232 C 606.469 -0.346825 -1.70508 0
M  V30 6233 O 607.645 -0.59454 -1.92424 0
M  V30 6234 C 604.71 -1.33627 -3.19914 0
M  V30 6235 C 603.771 -2.54882 -3.45447 0
M  V30 6236 C 603.004 -2.43449 -4.7494 0
M  V30 6237 O 603.227 -1.45905 -5.51424 0
M  V30 6238 O 602.161 -3.33206 -5.01256 0
M  V30 6239 H 605.987 -2.42114 -1.83342 0
M  V30 6240 H 603.572 -1.22956 -0.848658 0
M  V30 6241 H 605.454 -1.29221 -4.01098 0
M  V30 6242 H 604.129 -0.402508 -3.21188 0
M  V30 6243 H 603.036 -2.64865 -2.64192 0
M  V30 6244 H 604.369 -3.47087 -3.48987 0
M  V30 6245 N 606.021 0.929856 -1.27246 0
M  V30 6246 C 607.267 1.6802 -1.14634 0
M  V30 6247 C 607.622 1.89965 0.305151 0
M  V30 6248 O 606.915 1.47737 1.22001 0
M  V30 6249 C 607.109 3.05116 -1.86115 0
M  V30 6250 C 606.938 2.96549 -3.38066 0
M  V30 6251 C 605.708 2.98947 -4.0738 0
M  V30 6252 C 607.906 2.7583 -4.34077 0
M  V30 6253 N 605.888 2.80799 -5.45917 0
M  V30 6254 C 607.259 2.66364 -5.59866 0
M  V30 6255 C 609.314 2.60701 -4.24193 0
M  V30 6256 C 608.017 2.43313 -6.76898 0
M  V30 6257 C 610.043 2.39026 -5.40944 0
M  V30 6258 C 609.405 2.30302 -6.65688 0
M  V30 6259 H 605.504 0.62172 -0.474329 0
M  V30 6260 H 608.088 1.09947 -1.60685 0
M  V30 6261 H 606.259 3.61306 -1.42522 0
M  V30 6262 H 607.991 3.69076 -1.66027 0
M  V30 6263 H 604.746 3.09093 -3.58829 0
M  V30 6264 H 605.17 2.74861 -6.18692 0
M  V30 6265 H 609.812 2.66206 -3.28473 0
M  V30 6266 H 607.53 2.36548 -7.72704 0
M  V30 6267 H 611.116 2.28208 -5.35175 0
M  V30 6268 H 609.996 2.13756 -7.54505 0
M  V30 6269 N 607.499 1.09233 1.13605 0
M  V30 6270 C 608.727 0.848908 1.88683 0
M  V30 6271 C 609.142 -0.599667 1.79024 0
M  V30 6272 O 608.499 -1.41265 1.15544 0
M  V30 6273 C 608.55 1.27273 3.38355 0
M  V30 6274 O 608.271 2.66449 3.47759 0
M  V30 6275 C 609.772 1.0614 4.30406 0
M  V30 6276 H 606.992 0.305549 0.597395 0
M  V30 6277 H 609.536 1.4538 1.43823 0
M  V30 6278 H 607.691 0.711776 3.80805 0
M  V30 6279 H 608.105 2.84264 4.40788 0
M  V30 6280 H 609.579 1.40725 5.33761 0
M  V30 6281 H 610.056 -0.000960332 4.392 0
M  V30 6282 H 610.662 1.60821 3.93722 0
M  V30 6283 N 608.977 -1.30795 0.87923 0
M  V30 6284 C 609.887 -2.32041 0.345565 0
M  V30 6285 C 610.903 -1.65103 -0.549265 0
M  V30 6286 O 612.079 -1.9645 -0.443763 0
M  V30 6287 C 609.144 -3.43944 -0.436245 0
M  V30 6288 C 608.205 -4.26521 0.48765 0
M  V30 6289 C 607.438 -5.33081 -0.256943 0
M  V30 6290 O 607.661 -5.50762 -1.48381 0
M  V30 6291 O 606.595 -6.00635 0.389985 0
M  V30 6292 H 610.421 -2.79627 1.18501 0
M  V30 6293 H 608.006 -1.3486 0.642885 0
M  V30 6294 H 609.888 -4.12128 -0.879119 0
M  V30 6295 H 608.563 -2.98504 -1.25208 0
M  V30 6296 H 607.47 -3.61057 0.979216 0
M  V30 6297 H 608.803 -4.75551 1.26933 0
M  V30 6298 N 610.455 -0.639598 -1.44038 0
M  V30 6299 C 611.732 -0.078012 -1.95444 0
M  V30 6300 C 612.112 1.39847 -1.58133 0
M  V30 6301 O 611.46 2.11714 -0.859614 0
M  V30 6302 C 611.67 -0.309832 -3.47622 0
M  V30 6303 C 613.018 -0.207521 -4.24093 0
M  V30 6304 O 614.042 -0.241653 -3.55379 0
M  V30 6305 O 612.901 -0.119641 -5.46369 0
M  V30 6306 H 609.995 0.0174534 -0.826816 0
M  V30 6307 H 612.541 -0.711891 -1.54046 0
M  V30 6308 H 611.313 -1.33401 -3.67858 0
M  V30 6309 H 610.936 0.357777 -3.95987 0
M  V30 6310 N 611.933 1.52934 -0.380664 0
M  V30 6311 C 613.21 1.93845 0.261417 0
M  V30 6312 C 613.59 1.31544 1.65104 0
M  V30 6313 O 612.938 0.480234 2.23397 0
M  V30 6314 C 613.148 3.47739 0.296466 0
M  V30 6315 C 614.496 4.21284 0.529578 0
M  V30 6316 O 615.52 3.54199 0.377041 0
M  V30 6317 O 614.379 5.40195 0.827753 0
M  V30 6318 H 611.473 0.811318 0.160285 0
M  V30 6319 H 614.019 1.64042 -0.434544 0
M  V30 6320 H 612.791 3.85395 -0.67724 0
M  V30 6321 H 612.414 3.8382 1.0377 0
M  V30 6322 N 613.412 0.11024 1.57214 0
M  V30 6323 C 614.342 -0.840002 2.17867 0
M  V30 6324 C 615.323 -1.28352 1.11624 0
M  V30 6325 O 616.508 -1.3477 1.39824 0
M  V30 6326 C 613.638 -2.09349 2.77111 0
M  V30 6327 C 612.592 -1.78807 3.8886 0
M  V30 6328 C 611.918 -3.11112 4.34872 0
M  V30 6329 C 613.218 -1.0632 5.11364 0
M  V30 6330 H 614.912 -0.334608 2.97524 0
M  V30 6331 H 612.458 -0.159502 1.43114 0
M  V30 6332 H 614.411 -2.76275 3.18198 0
M  V30 6333 H 613.135 -2.62198 1.9473 0
M  V30 6334 H 611.794 -1.14273 3.48335 0
M  V30 6335 H 611.442 -3.61877 3.49362 0
M  V30 6336 H 611.142 -2.91453 5.10224 0
M  V30 6337 H 612.666 -3.79171 4.78604 0
M  V30 6338 H 614.08 -1.63383 5.49526 0
M  V30 6339 H 612.477 -0.967876 5.92243 0
M  V30 6340 H 613.547 -0.0484569 4.84876 0
M  V30 6341 N 614.89 -1.56749 -0.16351 0
M  V30 6342 C 615.822 -1.93587 -1.22705 0
M  V30 6343 C 616.835 -0.829824 -1.40063 0
M  V30 6344 O 618.024 -1.10826 -1.39928 0
M  V30 6345 C 615.124 -2.1803 -2.59454 0
M  V30 6346 C 614.297 -3.4928 -2.63292 0
M  V30 6347 C 613.356 -3.62457 -3.8146 0
M  V30 6348 O 612.382 -4.35004 -3.67096 0
M  V30 6349 N 613.584 -2.97888 -4.9824 0
M  V30 6350 H 616.349 -2.8542 -0.914081 0
M  V30 6351 H 613.91 -1.58 -0.353214 0
M  V30 6352 H 615.902 -2.24102 -3.36987 0
M  V30 6353 H 614.472 -1.32543 -2.8311 0
M  V30 6354 H 613.692 -3.54795 -1.71796 0
M  V30 6355 H 614.98 -4.35632 -2.62873 0
M  V30 6356 H 614.378 -2.38833 -5.12811 0
M  V30 6357 H 612.935 -3.09545 -5.73607 0
M  V30 6358 N 616.368 0.432326 -1.51554 0
M  V30 6359 C 617.3 1.54357 -1.6943 0
M  V30 6360 C 618.313 1.52311 -0.574897 0
M  V30 6361 O 619.502 1.56997 -0.849369 0
M  V30 6362 C 616.602 2.93273 -1.69836 0
M  V30 6363 C 615.775 3.19768 -2.98442 0
M  V30 6364 C 614.834 4.38433 -2.90969 0
M  V30 6365 O 613.86 4.36842 -3.64908 0
M  V30 6366 N 615.062 5.42276 -2.07163 0
M  V30 6367 H 617.827 1.39426 -2.65293 0
M  V30 6368 H 615.388 0.621331 -1.49503 0
M  V30 6369 H 617.38 3.70687 -1.62399 0
M  V30 6370 H 615.95 3.01777 -0.815456 0
M  V30 6371 H 615.17 2.30607 -3.19709 0
M  V30 6372 H 616.458 3.343 -3.83563 0
M  V30 6373 H 615.856 5.46407 -1.46477 0
M  V30 6374 H 614.413 6.18524 -2.05601 0
M  V30 6375 N 617.846 1.41785 0.688094 0
M  V30 6376 C 619.094 1.41264 1.4453 0
M  V30 6377 C 619.415 0.0252946 1.94984 0
M  V30 6378 O 618.685 -0.934081 1.72197 0
M  V30 6379 H 617.265 0.519998 0.536294 0
M  V30 6380 H 619.927 1.7709 0.813941 0
M  V30 6381 H 619.023 2.10439 2.30482 0
M  V30 6382 N 619.324 -0.923095 1.27737 0
M  V30 6383 C 620.271 -2.02432 1.1086 0
M  V30 6384 C 621.241 -1.66098 0.00835195 0
M  V30 6385 O 622.426 -1.90027 0.171542 0
M  V30 6386 C 619.566 -3.36476 0.766671 0
M  V30 6387 C 618.679 -3.85737 1.94501 0
M  V30 6388 C 617.814 -5.08249 1.54455 0
M  V30 6389 C 616.853 -5.49818 2.6901 0
M  V30 6390 N 615.99 -6.63524 2.29521 0
M  V30 6391 H 620.83 -2.16201 2.05089 0
M  V30 6392 H 618.367 -1.05909 1.02087 0
M  V30 6393 H 620.325 -4.13569 0.549223 0
M  V30 6394 H 618.955 -3.22502 -0.13867 0
M  V30 6395 H 618.007 -3.04883 2.27487 0
M  V30 6396 H 619.319 -4.12513 2.80419 0
M  V30 6397 H 618.473 -5.92857 1.28862 0
M  V30 6398 H 617.212 -4.83261 0.656534 0
M  V30 6399 H 616.217 -4.63757 2.95313 0
M  V30 6400 H 617.442 -5.76799 3.5844 0
M  V30 6401 H 615.388 -6.40185 1.43177 0
M  V30 6402 H 615.305 -6.89978 3.08977 0
M  V30 6403 H 616.573 -7.51461 2.07187 0
M  V30 6404 N 620.802 -1.09834 -1.13024 0
M  V30 6405 C 622.218 -0.828875 -1.36388 0
M  V30 6406 C 622.418 0.554756 -1.93713 0
M  V30 6407 O 621.474 1.30882 -2.15931 0
M  V30 6408 C 622.787 -1.92352 -2.3113 0
M  V30 6409 C 624.335 -1.95124 -2.44735 0
M  V30 6410 C 624.81 -3.03745 -3.42787 0
M  V30 6411 N 626.301 -3.03012 -3.5034 0
M  V30 6412 C 627.036 -3.83699 -4.26101 0
M  V30 6413 N 626.532 -4.74306 -5.04981 0
M  V30 6414 N 628.325 -3.71942 -4.21445 0
M  V30 6415 H 620.476 -1.99029 -0.74169 0
M  V30 6416 H 622.739 -0.864557 -0.388903 0
M  V30 6417 H 622.445 -2.91906 -1.96172 0
M  V30 6418 H 622.319 -1.80536 -3.3119 0
M  V30 6419 H 624.706 -0.962069 -2.78977 0
M  V30 6420 H 624.787 -2.11018 -1.44586 0
M  V30 6421 H 624.431 -4.02878 -3.09276 0
M  V30 6422 H 624.361 -2.85094 -4.42752 0
M  V30 6423 H 626.852 -2.37352 -2.94062 0
M  V30 6424 H 627.165 -5.32446 -5.60108 0
M  V30 6425 H 625.51 -4.78339 -5.04199 0
M  V30 6426 H 628.701 -3.00513 -3.589 0
M  V30 6427 H 628.874 -4.35062 -4.80235 0
M  V30 6428 N 622.28 1.30327 -0.886154 0
M  V30 6429 C 623.529 1.95373 -0.501243 0
M  V30 6430 C 623.842 1.70722 0.954634 0
M  V30 6431 O 625.048 2.29761 1.44644 0
M  V30 6432 C 623.504 3.49828 -0.845493 0
M  V30 6433 C 623.112 3.83296 -2.31922 0
M  V30 6434 C 624.856 4.2118 -0.529838 0
M  V30 6435 C 622.763 5.30935 -2.60504 0
M  V30 6436 H 621.693 0.731274 -0.183722 0
M  V30 6437 H 624.344 1.48258 -1.08129 0
M  V30 6438 H 622.726 3.95522 -0.19452 0
M  V30 6439 H 623.9 3.48508 -3.01461 0
M  V30 6440 H 622.215 3.2505 -2.60253 0
M  V30 6441 H 624.812 5.29825 -0.720401 0
M  V30 6442 H 625.155 4.12902 0.530828 0
M  V30 6443 H 625.688 3.81173 -1.13806 0
M  V30 6444 H 622.427 5.44265 -3.65316 0
M  V30 6445 H 621.947 5.67019 -1.95575 0
M  V30 6446 H 623.626 5.98381 -2.46066 0
M  V30 6447 N 623.758 0.647228 1.43697 0
M  V30 6448 C 624.983 0.164083 2.0675 0
M  V30 6449 C 625.408 -1.15892 1.48158 0
M  V30 6450 O 624.766 -1.71459 0.589194 0
M  V30 6451 C 624.814 0.0800368 3.60511 0
M  V30 6452 O 623.918 -0.959453 4.01084 0
M  V30 6453 H 623.259 0.0921288 0.657578 0
M  V30 6454 H 625.789 0.88846 1.84303 0
M  V30 6455 H 625.799 -0.105263 4.07864 0
M  V30 6456 H 624.474 1.04586 4.02535 0
M  V30 6457 H 623.051 -0.747425 3.65333 0
M  V30 6458 N 625.236 -1.5273 0.388769 0
M  V30 6459 C 626.482 -2.01871 -0.193877 0
M  V30 6460 C 626.815 -1.27475 -1.46505 0
M  V30 6461 O 626.09 -0.375063 -1.90849 0
M  V30 6462 C 626.373 -3.5712 -0.462336 0
M  V30 6463 C 626.226 -4.42186 0.824091 0
M  V30 6464 C 627.545 -4.21881 -1.25319 0
M  V30 6465 H 624.664 -0.733764 -0.0689899 0
M  V30 6466 H 627.306 -1.82796 0.518231 0
M  V30 6467 H 625.456 -3.73504 -1.06896 0
M  V30 6468 H 627.128 -4.37554 1.46096 0
M  V30 6469 H 625.371 -4.09219 1.43952 0
M  V30 6470 H 626.042 -5.48828 0.590905 0
M  V30 6471 H 628.518 -4.0947 -0.73981 0
M  V30 6472 H 627.394 -5.30487 -1.40977 0
M  V30 6473 H 627.655 -3.79478 -2.26824 0
M  V30 6474 N 626.714 -0.118576 -1.57153 0
M  V30 6475 C 628.125 0.40687 -1.82213 0
M  V30 6476 C 628.476 1.66636 -1.03571 0
M  V30 6477 O 627.601 2.14682 -0.272171 0
M  V30 6478 C 628.196 0.744949 -3.30509 0
M  V30 6479 C 626.755 1.21503 -3.5625 0
M  V30 6480 C 625.902 0.223511 -2.76398 0
M  V30 6481 H 628.853 -0.343712 -1.54933 0
M  V30 6482 H 628.874 1.6024 -3.45114 0
M  V30 6483 H 628.386 -0.171911 -3.87719 0
M  V30 6484 H 626.487 2.1488 -3.04396 0
M  V30 6485 H 626.6 1.16065 -4.64829 0
M  V30 6486 H 624.964 0.71046 -2.44591 0
M  V30 6487 H 625.747 -0.686439 -3.36367 0
M  V30 6488 N 628.193 1.56834 0.155195 0
M  V30 6489 C 629.103 2.009 1.21146 0
M  V30 6490 C 630.119 0.923029 1.475 0
M  V30 6491 O 631.295 1.23189 1.59331 0
M  V30 6492 C 628.36 2.37378 2.52691 0
M  V30 6493 C 627.421 3.59883 2.34057 0
M  V30 6494 C 626.654 3.94612 3.59329 0
M  V30 6495 O 626.877 3.30104 4.65175 0
M  V30 6496 O 625.811 4.87895 3.52479 0
M  V30 6497 H 629.637 2.9105 0.867371 0
M  V30 6498 H 627.222 1.44916 0.363298 0
M  V30 6499 H 629.104 2.61737 3.3026 0
M  V30 6500 H 627.779 1.50385 2.86646 0
M  V30 6501 H 626.686 3.40722 1.54465 0
M  V30 6502 H 628.019 4.47468 2.0502 0
M  V30 6503 N 629.671 -0.424282 1.51781 0
M  V30 6504 C 630.948 -1.18464 1.55646 0
M  V30 6505 C 631.328 -2.08529 0.328438 0
M  V30 6506 O 630.676 -2.17969 -0.685693 0
M  V30 6507 C 630.886 -1.97514 2.87731 0
M  V30 6508 C 632.234 -2.54106 3.40169 0
M  V30 6509 O 633.258 -2.07711 2.89369 0
M  V30 6510 O 632.117 -3.38759 4.28841 0
M  V30 6511 H 629.211 -0.540055 0.626314 0
M  V30 6512 H 631.757 -0.432291 1.64102 0
M  V30 6513 H 630.529 -1.31444 3.68562 0
M  V30 6514 H 630.152 -2.79787 2.82498 0
M  V30 6515 N 631.149 -1.42148 -0.680565 0
M  V30 6516 C 632.395 -1.42521 -1.44277 0
M  V30 6517 C 632.728 -0.0393718 -1.9416 0
M  V30 6518 O 632.003 0.935425 -1.70529 0
M  V30 6519 C 632.286 -2.44475 -2.64394 0
M  V30 6520 C 632.139 -3.92226 -2.20179 0
M  V30 6521 C 633.458 -2.43491 -3.66606 0
M  V30 6522 H 630.577 -0.518985 -0.523282 0
M  V30 6523 H 633.219 -1.73524 -0.773914 0
M  V30 6524 H 631.369 -2.18168 -3.21458 0
M  V30 6525 H 633.041 -4.29493 -1.68327 0
M  V30 6526 H 631.284 -4.0637 -1.5181 0
M  V30 6527 H 631.955 -4.59133 -3.06433 0
M  V30 6528 H 634.431 -2.66872 -3.19247 0
M  V30 6529 H 633.307 -3.16816 -4.4824 0
M  V30 6530 H 633.568 -1.45881 -4.17338 0
M  V30 6531 N 632.627 0.916307 -1.28225 0
M  V30 6532 C 633.857 1.69654 -1.17902 0
M  V30 6533 C 634.265 1.87331 0.265268 0
M  V30 6534 O 633.608 1.39828 1.19137 0
M  V30 6535 C 633.67 3.11024 -1.80289 0
M  V30 6536 C 633.334 3.16643 -3.29525 0
M  V30 6537 C 634.331 2.98032 -4.25997 0
M  V30 6538 C 632.016 3.39238 -3.70436 0
M  V30 6539 C 634.01 3.01924 -5.61356 0
M  V30 6540 C 631.697 3.42762 -5.05922 0
M  V30 6541 C 632.695 3.24125 -6.01192 0
M  V30 6542 O 632.383 3.27406 -7.34208 0
M  V30 6543 H 632.115 0.537197 -0.41036 0
M  V30 6544 H 634.669 1.15547 -1.69817 0
M  V30 6545 H 632.899 3.66662 -1.22865 0
M  V30 6546 H 634.588 3.71063 -1.6452 0
M  V30 6547 H 635.354 2.80405 -3.95725 0
M  V30 6548 H 631.233 3.52791 -2.96749 0
M  V30 6549 H 634.777 2.87295 -6.35694 0
M  V30 6550 H 630.674 3.59916 -5.35846 0
M  V30 6551 H 631.442 3.43784 -7.42802 0
M  V30 6552 N 634.105 1.10431 1.1244 0
M  V30 6553 C 635.382 0.758797 1.80282 0
M  V30 6554 C 635.762 -0.754727 1.97147 0
M  V30 6555 O 635.11 -1.68094 1.54779 0
M  V30 6556 C 635.32 1.50982 3.14651 0
M  V30 6557 C 636.668 1.68232 3.8985 0
M  V30 6558 O 637.692 1.47319 3.24308 0
M  V30 6559 O 636.551 2.02905 5.07437 0
M  V30 6560 H 633.645 0.273756 0.780376 0
M  V30 6561 H 636.191 1.20713 1.19275 0
M  V30 6562 H 634.963 2.53989 2.97666 0
M  V30 6563 H 634.586 1.05435 3.83366 0
M  V30 6564 N 635.583 -1.29855 0.893053 0
M  V30 6565 C 636.53 -2.27909 0.364161 0
M  V30 6566 C 637.5 -1.56726 -0.550093 0
M  V30 6567 O 638.685 -1.84747 -0.47677 0
M  V30 6568 C 635.825 -3.42678 -0.408178 0
M  V30 6569 C 634.938 -4.28659 0.536212 0
M  V30 6570 C 634.073 -5.30599 -0.252521 0
M  V30 6571 C 633.112 -6.08234 0.686822 0
M  V30 6572 N 632.249 -7.02068 -0.0670902 0
M  V30 6573 H 637.089 -2.72531 1.20544 0
M  V30 6574 H 634.626 -1.34047 0.605779 0
M  V30 6575 H 636.584 -4.07986 -0.871962 0
M  V30 6576 H 635.214 -2.99103 -1.21397 0
M  V30 6577 H 634.266 -3.63584 1.1185 0
M  V30 6578 H 635.578 -4.8274 1.25552 0
M  V30 6579 H 634.732 -6.01694 -0.777801 0
M  V30 6580 H 633.471 -4.77233 -1.005 0
M  V30 6581 H 632.476 -5.3601 1.22366 0
M  V30 6582 H 633.701 -6.63689 1.43852 0
M  V30 6583 H 631.647 -6.5108 -0.801955 0
M  V30 6584 H 631.564 -7.53675 0.59243 0
M  V30 6585 H 632.832 -7.77392 -0.572851 0
M  V30 6586 N 637.061 -0.65484 -1.43351 0
M  V30 6587 C 638.309 -0.168559 -2.01396 0
M  V30 6588 C 638.63 1.22235 -1.51933 0
M  V30 6589 O 637.9 1.81685 -0.732627 0
M  V30 6590 H 636.48 -0.0593244 -0.744641 0
M  V30 6591 H 639.142 -0.846871 -1.75539 0
M  V30 6592 H 638.238 -0.154428 -3.11718 0
M  V30 6593 N 638.539 1.52521 -0.396863 0
M  V30 6594 C 639.779 2.03583 0.182578 0
M  V30 6595 C 640.143 1.2766 1.43412 0
M  V30 6596 O 641.344 1.68884 2.09121 0
M  V30 6597 C 639.615 3.54724 0.436519 0
M  V30 6598 S 641.174 4.27598 0.985163 0
M  V30 6599 H 637.992 0.709186 0.0507529 0
M  V30 6600 H 640.594 1.87693 -0.546955 0
M  V30 6601 H 639.298 4.07567 -0.481343 0
M  V30 6602 H 638.829 3.74834 1.19427 0
M  V30 6603 H 640.844 4.41393 2.26686 0
M  V30 6604 N 640.017 0.126909 1.57088 0
M  V30 6605 C 641.263 -0.529952 1.95753 0
M  V30 6606 C 641.596 -1.65823 1.01077 0
M  V30 6607 O 640.871 -1.94437 0.0494162 0
M  V30 6608 C 641.154 -1.05517 3.44294 0
M  V30 6609 C 641.007 0.0702253 4.49745 0
M  V30 6610 C 642.326 -1.9435 3.94862 0
M  V30 6611 H 639.445 -0.191168 0.711775 0
M  V30 6612 H 642.087 0.204071 1.88901 0
M  V30 6613 H 640.237 -1.68069 3.50264 0
M  V30 6614 H 641.909 0.705834 4.55868 0
M  V30 6615 H 640.152 0.732259 4.27575 0
M  V30 6616 H 640.823 -0.338642 5.5096 0
M  V30 6617 H 643.299 -1.41658 3.91244 0
M  V30 6618 H 642.175 -2.28015 4.993 0
M  V30 6619 H 642.436 -2.87299 3.36024 0
M  V30 6620 N 641.495 -1.56914 -0.146875 0
M  V30 6621 C 642.442 -1.98275 -1.18134 0
M  V30 6622 C 643.412 -0.850367 -1.42681 0
M  V30 6623 O 644.597 -1.11244 -1.55014 0
M  V30 6624 C 641.737 -2.36861 -2.5098 0
M  V30 6625 C 640.85 -3.63391 -2.33605 0
M  V30 6626 C 639.985 -3.91079 -3.59486 0
M  V30 6627 C 639.024 -5.10879 -3.37149 0
M  V30 6628 N 638.161 -5.34577 -4.55161 0
M  V30 6629 H 643.001 -2.8645 -0.821622 0
M  V30 6630 H 640.538 -1.41718 -0.394248 0
M  V30 6631 H 642.496 -2.57262 -3.28439 0
M  V30 6632 H 641.126 -1.51766 -2.84898 0
M  V30 6633 H 640.178 -3.50766 -1.47199 0
M  V30 6634 H 641.49 -4.51007 -2.13059 0
M  V30 6635 H 640.644 -4.11979 -4.45374 0
M  V30 6636 H 639.383 -3.01885 -3.83036 0
M  V30 6637 H 638.388 -4.89853 -2.49649 0
M  V30 6638 H 639.613 -6.01626 -3.14997 0
M  V30 6639 H 637.559 -4.48337 -4.78884 0
M  V30 6640 H 637.476 -6.16463 -4.37618 0
M  V30 6641 H 638.744 -5.59975 -5.42263 0
M  V30 6642 N 642.974 0.416227 -1.52004 0
M  V30 6643 C 644.251 1.17637 -1.56272 0
M  V30 6644 C 644.631 2.08352 -0.339493 0
M  V30 6645 O 643.979 2.1833 0.674124 0
M  V30 6646 C 644.189 1.95986 -2.88774 0
M  V30 6647 C 645.537 2.52299 -3.41512 0
M  V30 6648 O 646.561 2.06174 -2.90467 0
M  V30 6649 O 645.42 3.3648 -4.30631 0
M  V30 6650 H 642.514 0.536726 -0.629169 0
M  V30 6651 H 645.06 0.423583 -1.64329 0
M  V30 6652 H 643.832 1.29487 -3.69254 0
M  V30 6653 H 643.455 2.78285 -2.83978 0
M  V30 6654 N 644.452 1.42507 0.673017 0
M  V30 6655 C 645.698 1.43284 1.43519 0
M  V30 6656 C 646.031 0.049668 1.94136 0
M  V30 6657 O 645.306 -0.926369 1.71022 0
M  V30 6658 C 645.589 2.45874 2.63093 0
M  V30 6659 C 645.442 3.93388 2.18096 0
M  V30 6660 C 646.761 2.45431 3.6531 0
M  V30 6661 H 643.88 0.521752 0.520522 0
M  V30 6662 H 646.522 1.73932 0.764701 0
M  V30 6663 H 644.672 2.19869 3.20296 0
M  V30 6664 H 646.344 4.30379 1.66046 0
M  V30 6665 H 644.587 4.07169 1.49652 0
M  V30 6666 H 645.258 4.60752 3.03993 0
M  V30 6667 H 647.734 2.68561 3.17827 0
M  V30 6668 H 646.61 3.19189 4.46553 0
M  V30 6669 H 646.871 1.48092 4.16559 0
M  V30 6670 N 645.93 -0.909495 1.28709 0
M  V30 6671 C 647.207 -1.63865 1.06806 0
M  V30 6672 C 647.587 -2.07445 -0.391143 0
M  V30 6673 O 646.935 -1.82269 -1.37805 0
M  V30 6674 C 647.145 -2.82692 2.04661 0
M  V30 6675 C 648.493 -3.5361 2.35042 0
M  V30 6676 O 649.517 -2.92847 2.02779 0
M  V30 6677 O 648.376 -4.63131 2.90124 0
M  V30 6678 H 645.47 -0.719065 0.408502 0
M  V30 6679 H 648.016 -0.958424 1.40044 0
M  V30 6680 H 646.788 -2.47614 3.0299 0
M  V30 6681 H 646.411 -3.58426 1.72095 0
M  V30 6682 N 647.408 -1.11026 -1.11852 0
M  V30 6683 C 648.318 -0.777252 -2.2135 0
M  V30 6684 C 649.334 0.227821 -1.72502 0
M  V30 6685 O 650.51 0.0650587 -2.01295 0
M  V30 6686 C 647.575 -0.220668 -3.45997 0
M  V30 6687 C 646.636 -1.2838 -4.09655 0
M  V30 6688 C 645.869 -0.753678 -5.28352 0
M  V30 6689 O 646.092 0.417779 -5.68868 0
M  V30 6690 O 645.026 -1.51647 -5.82483 0
M  V30 6691 H 648.852 -1.69141 -2.5224 0
M  V30 6692 H 646.437 -0.885836 -1.20305 0
M  V30 6693 H 648.319 0.0855756 -4.21313 0
M  V30 6694 H 646.994 0.666262 -3.16769 0
M  V30 6695 H 645.901 -1.64299 -3.3609 0
M  V30 6696 H 647.234 -2.14396 -4.43052 0
M  V30 6697 N 648.886 1.2938 -0.899927 0
M  V30 6698 C 650.134 1.95164 -0.524924 0
M  V30 6699 C 650.455 1.71292 0.931888 0
M  V30 6700 O 649.725 1.04481 1.65712 0
M  V30 6701 H 648.305 0.722133 -0.191135 0
M  V30 6702 H 650.967 1.57628 -1.14627 0
M  V30 6703 H 650.063 3.0397 -0.707711 0
M  V30 6704 N 650.364 0.662433 1.43002 0
M  V30 6705 C 651.294 -0.00979809 2.33498 0
M  V30 6706 C 652.275 -0.802329 1.49989 0
M  V30 6707 O 653.46 -0.761964 1.78627 0
M  V30 6708 C 650.59 -0.970446 3.33466 0
M  V30 6709 C 649.544 -0.287383 4.27034 0
M  V30 6710 C 648.87 -1.36012 5.17112 0
M  V30 6711 C 650.17 0.82595 5.15728 0
M  V30 6712 H 651.864 0.745959 2.89958 0
M  V30 6713 H 649.41 0.360172 1.39423 0
M  V30 6714 H 651.363 -1.44971 3.95679 0
M  V30 6715 H 650.087 -1.75748 2.75282 0
M  V30 6716 H 648.746 0.17152 3.66199 0
M  V30 6717 H 648.394 -2.13882 4.55262 0
M  V30 6718 H 648.094 -0.908276 5.80538 0
M  V30 6719 H 649.618 -1.84056 5.82199 0
M  V30 6720 H 651.032 0.42845 5.71697 0
M  V30 6721 H 649.429 1.20282 5.87922 0
M  V30 6722 H 650.499 1.68003 4.54866 0
M  V30 6723 N 651.842 -1.52309 0.404946 0
M  V30 6724 C 652.752 -2.30634 -0.429555 0
M  V30 6725 C 653.768 -1.38187 -1.05737 0
M  V30 6726 O 654.944 -1.71261 -1.05979 0
M  V30 6727 C 652.009 -3.10947 -1.53339 0
M  V30 6728 C 651.07 -4.19126 -0.929065 0
M  V30 6729 C 650.303 -4.95601 -1.9803 0
M  V30 6730 O 650.526 -4.72331 -3.1978 0
M  V30 6731 O 649.46 -5.80551 -1.58886 0
M  V30 6732 H 653.286 -3.0298 0.208963 0
M  V30 6733 H 650.871 -1.4845 0.168255 0
M  V30 6734 H 652.753 -3.60974 -2.1743 0
M  V30 6735 H 651.428 -2.41399 -2.15658 0
M  V30 6736 H 650.335 -3.73257 -0.250982 0
M  V30 6737 H 651.668 -4.90955 -0.349855 0
M  V30 6738 N 653.32 -0.135238 -1.57019 0
M  V30 6739 C 654.283 0.794707 -2.14981 0
M  V30 6740 C 655.283 1.18342 -1.08866 0
M  V30 6741 O 656.473 1.10627 -1.34563 0
M  V30 6742 C 653.605 2.07685 -2.70333 0
M  V30 6743 H 654.798 0.290696 -2.98488 0
M  V30 6744 H 652.351 0.114128 -1.55883 0
M  V30 6745 H 653.086 2.6248 -1.9046 0
M  V30 6746 H 652.871 1.80745 -3.47957 0
M  V30 6747 H 654.361 2.74127 -3.1503 0
M  V30 6748 N 654.798 1.5699 0.138552 0
M  V30 6749 C 655.761 1.97984 1.15478 0
M  V30 6750 C 656.761 0.867416 1.35398 0
M  V30 6751 O 657.951 1.13387 1.32246 0
M  V30 6752 C 655.083 2.3031 2.51337 0
M  V30 6753 H 656.276 2.88953 0.802896 0
M  V30 6754 H 653.829 1.51555 0.382189 0
M  V30 6755 H 654.564 1.42159 2.91481 0
M  V30 6756 H 654.349 3.11425 2.38237 0
M  V30 6757 H 655.839 2.62834 3.24512 0
M  V30 6758 N 656.276 -0.40816 1.52223 0
M  V30 6759 C 657.186 -1.52202 1.78526 0
M  V30 6760 C 658.202 -1.60546 0.670892 0
M  V30 6761 O 659.378 -1.77242 0.956404 0
M  V30 6762 C 656.443 -2.87928 1.93128 0
M  V30 6763 C 655.504 -2.89463 3.17033 0
M  V30 6764 C 654.737 -4.18715 3.30929 0
M  V30 6765 O 654.96 -5.12662 2.50067 0
M  V30 6766 O 653.894 -4.27125 4.24084 0
M  V30 6767 H 657.72 -1.32911 2.73072 0
M  V30 6768 H 655.305 -0.594112 1.37079 0
M  V30 6769 H 657.187 -3.68426 2.04549 0
M  V30 6770 H 655.862 -3.07285 1.01772 0
M  V30 6771 H 654.769 -2.07815 3.11069 0
M  V30 6772 H 656.102 -2.75055 4.08174 0
M  V30 6773 N 657.755 -1.42862 -0.66545 0
M  V30 6774 C 659.171 -1.25993 -0.979687 0
M  V30 6775 C 659.371 -0.170831 -2.00775 0
M  V30 6776 O 658.427 0.454827 -2.4837 0
M  V30 6777 C 659.74 -2.62005 -1.47559 0
M  V30 6778 C 661.288 -2.69437 -1.59288 0
M  V30 6779 C 661.763 -4.05838 -2.12272 0
M  V30 6780 N 663.254 -4.0784 -2.19592 0
M  V30 6781 C 663.989 -5.10205 -2.61684 0
M  V30 6782 N 663.485 -6.22949 -3.03161 0
M  V30 6783 N 665.278 -4.9756 -2.61516 0
M  V30 6784 H 657.429 -2.12395 0.0150493 0
M  V30 6785 H 659.692 -0.946355 -0.0558187 0
M  V30 6786 H 659.398 -3.42605 -0.794654 0
M  V30 6787 H 659.272 -2.86566 -2.45275 0
M  V30 6788 H 661.659 -1.89178 -2.26486 0
M  V30 6789 H 661.74 -2.48655 -0.600374 0
M  V30 6790 H 661.384 -4.86559 -1.4568 0
M  V30 6791 H 661.314 -4.23977 -3.12331 0
M  V30 6792 H 663.805 -3.26452 -1.90361 0
M  V30 6793 H 664.118 -6.96899 -3.33993 0
M  V30 6794 H 662.463 -6.2644 -3.00995 0
M  V30 6795 H 665.654 -4.08551 -2.28481 0
M  V30 6796 H 665.827 -5.77468 -2.93999 0
M  V30 6797 N 659.233 0.902656 -1.29189 0
M  V30 6798 C 660.482 1.6475 -1.16362 0
M  V30 6799 C 660.795 1.93517 0.284682 0
M  V30 6800 O 662.001 2.66192 0.534229 0
M  V30 6801 C 660.457 2.96848 -2.03493 0
M  V30 6802 C 660.065 2.75687 -3.5313 0
M  V30 6803 C 661.809 3.74762 -1.99383 0
M  V30 6804 C 659.716 4.03492 -4.32375 0
M  V30 6805 H 658.646 0.618041 -0.431904 0
M  V30 6806 H 661.297 1.0008 -1.53806 0
M  V30 6807 H 659.679 3.62715 -1.58916 0
M  V30 6808 H 660.853 2.18431 -4.05739 0
M  V30 6809 H 659.168 2.11171 -3.58881 0
M  V30 6810 H 661.765 4.69515 -2.5585 0
M  V30 6811 H 662.108 4.04767 -0.973123 0
M  V30 6812 H 662.641 3.15732 -2.41988 0
M  V30 6813 H 659.38 3.78656 -5.3507 0
M  V30 6814 H 658.9 4.60318 -3.84535 0
M  V30 6815 H 660.579 4.71662 -4.42881 0
M  V30 6816 N 660.711 1.11618 1.11262 0
M  V30 6817 C 661.959 0.864469 1.82678 0
M  V30 6818 C 662.28 -0.611564 1.85162 0
M  V30 6819 O 661.55 -1.44429 1.32352 0
M  V30 6820 H 660.13 0.316821 0.676486 0
M  V30 6821 H 662.792 1.40894 1.34666 0
M  V30 6822 H 661.888 1.23832 2.86482 0
M  V30 6823 N 662.189 -1.289 0.906776 0
M  V30 6824 C 663.436 -1.95269 0.536326 0
M  V30 6825 C 663.764 -1.71435 -0.918711 0
M  V30 6826 O 663.019 -1.02431 -1.66752 0
M  V30 6827 C 663.318 -3.48704 0.783617 0
M  V30 6828 C 662.984 -3.92626 2.21711 0
M  V30 6829 C 661.646 -4.04329 2.60906 0
M  V30 6830 C 663.998 -4.15218 3.15029 0
M  V30 6831 C 661.326 -4.35998 3.92584 0
M  V30 6832 C 663.678 -4.48365 4.46264 0
M  V30 6833 C 662.342 -4.58278 4.85322 0
M  V30 6834 H 661.612 -0.714538 0.196256 0
M  V30 6835 H 664.259 -1.53366 1.14678 0
M  V30 6836 H 662.564 -3.91696 0.0903048 0
M  V30 6837 H 664.261 -3.98162 0.476267 0
M  V30 6838 H 660.851 -3.84038 1.90296 0
M  V30 6839 H 665.035 -4.05636 2.8596 0
M  V30 6840 H 660.291 -4.41878 4.22557 0
M  V30 6841 H 664.465 -4.64795 5.18593 0
M  V30 6842 H 662.092 -4.82573 5.87391 0
M  V30 6843 N 663.667 -0.670007 -1.42649 0
M  V30 6844 C 665.078 -0.268118 -1.84765 0
M  V30 6845 C 665.429 1.18877 -1.56086 0
M  V30 6846 O 664.554 1.90947 -1.01825 0
M  V30 6847 C 665.149 -0.47984 -3.35385 0
M  V30 6848 C 663.708 -0.132116 -3.76168 0
M  V30 6849 C 662.855 -0.774611 -2.66261 0
M  V30 6850 H 665.806 -0.872509 -1.32563 0
M  V30 6851 H 665.827 0.269522 -3.79544 0
M  V30 6852 H 665.339 -1.54026 -3.56227 0
M  V30 6853 H 663.44 0.92505 -3.60934 0
M  V30 6854 H 663.553 -0.569294 -4.75706 0
M  V30 6855 H 661.917 -0.206353 -2.53863 0
M  V30 6856 H 662.7 -1.83839 -2.89928 0
M  V30 6857 N 665.145 1.52092 -0.413018 0
M  V30 6858 C 666.075 2.30021 0.401567 0
M  V30 6859 C 667.056 1.34395 1.04269 0
M  V30 6860 O 668.241 1.63304 1.05097 0
M  V30 6861 C 665.371 3.12447 1.51638 0
M  V30 6862 C 664.325 4.16153 1.00005 0
M  V30 6863 C 663.651 4.86948 2.20875 0
M  V30 6864 C 664.951 5.22275 0.0513757 0
M  V30 6865 H 666.645 2.98365 -0.248704 0
M  V30 6866 H 664.191 1.4349 -0.121052 0
M  V30 6867 H 666.144 3.65733 2.09326 0
M  V30 6868 H 664.868 2.41879 2.19458 0
M  V30 6869 H 663.527 3.63882 0.445549 0
M  V30 6870 H 663.175 4.12905 2.8726 0
M  V30 6871 H 662.875 5.57057 1.86978 0
M  V30 6872 H 664.399 5.43048 2.79162 0
M  V30 6873 H 665.813 5.70778 0.537176 0
M  V30 6874 H 664.21 5.9977 -0.198977 0
M  V30 6875 H 665.28 4.76611 -0.892736 0
M  V30 6876 N 666.623 0.143563 1.56945 0
M  V30 6877 C 667.556 -0.835367 2.1236 0
M  V30 6878 C 668.534 -1.24466 1.04627 0
M  V30 6879 O 669.718 -1.34138 1.32436 0
M  V30 6880 C 666.845 -2.12123 2.64048 0
M  V30 6881 C 665.891 -1.85812 3.83896 0
M  V30 6882 S 666.724 -1.05222 5.25061 0
M  V30 6883 C 667.88 -2.34935 5.80135 0
M  V30 6884 H 668.113 -0.364109 2.95062 0
M  V30 6885 H 665.646 -0.0706601 1.54238 0
M  V30 6886 H 667.604 -2.85993 2.94479 0
M  V30 6887 H 666.265 -2.56364 1.81483 0
M  V30 6888 H 665.458 -2.81151 4.18294 0
M  V30 6889 H 665.06 -1.20052 3.54208 0
M  V30 6890 H 667.352 -3.3061 5.91357 0
M  V30 6891 H 668.295 -2.05046 6.77762 0
M  V30 6892 H 668.703 -2.45426 5.08356 0
M  V30 6893 N 668.101 -1.57061 -0.130224 0
M  V30 6894 C 669.35 -1.83446 -0.838488 0
M  V30 6895 C 669.663 -0.727468 -1.81569 0
M  V30 6896 O 670.869 -0.877394 -2.56932 0
M  V30 6897 C 669.325 -3.25201 -1.54182 0
M  V30 6898 C 668.933 -4.4388 -0.606178 0
M  V30 6899 C 670.677 -3.60844 -2.23588 0
M  V30 6900 C 668.584 -5.76661 -1.31209 0
M  V30 6901 H 667.514 -0.684185 -0.316871 0
M  V30 6902 H 670.165 -1.83273 -0.0912059 0
M  V30 6903 H 668.547 -3.1981 -2.33533 0
M  V30 6904 H 669.721 -4.60545 0.153308 0
M  V30 6905 H 668.036 -4.16395 -0.0196705 0
M  V30 6906 H 670.633 -4.57313 -2.77072 0
M  V30 6907 H 670.976 -2.87724 -3.00867 0
M  V30 6908 H 671.509 -3.67971 -1.51137 0
M  V30 6909 H 668.248 -6.52922 -0.580823 0
M  V30 6910 H 667.768 -5.63902 -2.04387 0
M  V30 6911 H 669.447 -6.20035 -1.8484 0
M  V30 6912 N 669.579 0.400081 -1.52437 0
M  V30 6913 C 670.526 1.48803 -1.76426 0
M  V30 6914 C 671.496 1.5461 -0.607032 0
M  V30 6915 O 672.681 1.71041 -0.845563 0
M  V30 6916 C 669.821 2.86156 -1.92896 0
M  V30 6917 C 668.934 2.89587 -3.20567 0
M  V30 6918 C 668.069 4.18296 -3.27417 0
M  V30 6919 C 667.108 4.15736 -4.49255 0
M  V30 6920 N 666.245 5.36032 -4.53447 0
M  V30 6921 H 671.085 1.27649 -2.69276 0
M  V30 6922 H 668.622 0.619451 -1.33421 0
M  V30 6923 H 670.58 3.65901 -2.00429 0
M  V30 6924 H 669.21 3.05785 -1.03418 0
M  V30 6925 H 668.262 2.02278 -3.22161 0
M  V30 6926 H 669.574 2.83562 -4.10358 0
M  V30 6927 H 668.728 5.06439 -3.34072 0
M  V30 6928 H 667.467 4.27028 -2.35581 0
M  V30 6929 H 666.472 3.25982 -4.42737 0
M  V30 6930 H 667.697 4.08636 -5.42396 0
M  V30 6931 H 665.643 5.45415 -3.64498 0
M  V30 6932 H 665.56 5.32038 -5.37096 0
M  V30 6933 H 666.828 6.26104 -4.64343 0
M  V30 6934 N 671.057 1.43213 0.657864 0
M  V30 6935 C 672.02 1.47687 1.75275 0
M  V30 6936 C 673.02 0.362179 1.56668 0
M  V30 6937 O 674.21 0.623734 1.62651 0
M  V30 6938 C 671.342 1.32497 3.14098 0
M  V30 6939 H 672.535 2.4519 1.7269 0
M  V30 6940 H 670.088 1.2991 0.869087 0
M  V30 6941 H 670.823 0.359831 3.22298 0
M  V30 6942 H 670.608 2.13299 3.29008 0
M  V30 6943 H 672.098 1.38549 3.93946 0
M  V30 6944 N 672.536 -0.895792 1.29666 0
M  V30 6945 C 673.761 -1.68528 1.20885 0
M  V30 6946 C 674.186 -1.8673 -0.226595 0
M  V30 6947 O 673.544 -1.39044 -1.16347 0
M  V30 6948 C 673.592 -3.04512 1.93144 0
M  V30 6949 O 672.696 -3.92963 1.25115 0
M  V30 6950 H 672.037 -0.515371 0.418675 0
M  V30 6951 H 674.567 -1.11878 1.71302 0
M  V30 6952 H 674.577 -3.54628 2.0175 0
M  V30 6953 H 673.252 -2.90582 2.97548 0
M  V30 6954 H 671.829 -3.51399 1.24794 0
M  V30 6955 N 674.014 -1.12206 -1.10668 0
M  V30 6956 C 674.924 -0.800686 -2.20513 0
M  V30 6957 C 675.94 0.209512 -1.72734 0
M  V30 6958 O 677.116 0.043705 -2.01353 0
M  V30 6959 C 674.181 -0.257353 -3.45744 0
M  V30 6960 C 673.242 -1.32718 -4.0827 0
M  V30 6961 C 672.475 -0.809674 -5.27522 0
M  V30 6962 O 672.698 0.35742 -5.69279 0
M  V30 6963 O 671.632 -1.57816 -5.80842 0
M  V30 6964 H 675.458 -1.71807 -2.50432 0
M  V30 6965 H 673.043 -0.898546 -1.19359 0
M  V30 6966 H 674.925 0.0408849 -4.2138 0
M  V30 6967 H 673.6 0.632627 -3.17458 0
M  V30 6968 H 672.507 -1.67855 -3.34329 0
M  V30 6969 H 673.84 -2.19083 -4.40753 0
M  V30 6970 N 675.492 1.28418 -0.913599 0
M  V30 6971 C 676.74 1.94596 -0.545594 0
M  V30 6972 C 677.061 1.7227 0.913668 0
M  V30 6973 O 676.331 1.06233 1.64595 0
M  V30 6974 H 674.911 0.720065 -0.198783 0
M  V30 6975 H 677.573 1.56404 -1.16292 0
M  V30 6976 H 676.669 3.03202 -0.739911 0
M  V30 6977 N 676.97 0.677563 1.42291 0
M  V30 6978 C 678.218 0.200578 2.01102 0
M  V30 6979 C 678.539 -1.19803 1.53858 0
M  V30 6980 O 677.809 -1.80496 0.761439 0
M  V30 6981 H 676.389 0.0711634 0.743603 0
M  V30 6982 H 679.051 0.874691 1.7417 0
M  V30 6983 H 678.147 0.204 3.11433 0
M  V30 6984 N 678.448 -1.51871 0.421078 0
M  V30 6985 C 679.696 -2.01539 -0.150492 0
M  V30 6986 C 680.017 -1.30803 -1.44623 0
M  V30 6987 O 679.287 -0.437568 -1.90951 0
M  V30 6988 H 677.867 -0.744698 -0.0586041 0
M  V30 6989 H 680.529 -1.8668 0.560059 0
M  V30 6990 H 679.625 -3.10264 -0.338068 0
M  V30 6991 N 679.926 -0.151884 -1.56866 0
M  V30 6992 C 681.174 0.497021 -1.95893 0
M  V30 6993 C 681.495 1.65078 -1.03799 0
M  V30 6994 O 680.765 1.95642 -0.10049 0
M  V30 6995 H 679.345 0.186603 -0.723318 0
M  V30 6996 H 682.007 -0.228525 -1.93556 0
M  V30 6997 H 681.103 0.869933 -2.99731 0
M  V30 6998 N 681.404 1.57128 0.121893 0
M  V30 6999 C 682.351 2.0013 1.14964 0
M  V30 7000 C 683.321 0.872959 1.4131 0
M  V30 7001 O 684.506 1.13696 1.53225 0
M  V30 7002 C 681.646 2.40824 2.4718 0
M  V30 7003 C 680.759 3.67061 2.27794 0
M  V30 7004 C 679.894 3.96749 3.53219 0
M  V30 7005 C 678.933 5.16178 3.28978 0
M  V30 7006 N 678.07 5.41751 4.46599 0
M  V30 7007 H 682.91 2.8772 0.775947 0
M  V30 7008 H 680.447 1.42328 0.371652 0
M  V30 7009 H 682.405 2.62454 3.24305 0
M  V30 7010 H 681.035 1.56279 2.82448 0
M  V30 7011 H 680.087 3.53063 1.416 0
M  V30 7012 H 681.399 4.5434 2.05857 0
M  V30 7013 H 680.553 4.19012 4.38764 0
M  V30 7014 H 679.292 3.07941 3.78185 0
M  V30 7015 H 678.297 4.93762 2.41824 0
M  V30 7016 H 679.522 6.06561 3.05386 0
M  V30 7017 H 677.468 4.55899 4.71691 0
M  V30 7018 H 677.385 6.23347 4.27756 0
M  V30 7019 H 678.653 5.68531 5.33285 0
M  V30 7020 N 682.882 -0.391992 1.52647 0
M  V30 7021 C 684.13 -1.13507 1.67214 0
M  V30 7022 C 684.451 -1.90575 0.41304 0
M  V30 7023 O 683.721 -1.87348 -0.572498 0
M  V30 7024 H 682.301 -0.422013 0.616372 0
M  V30 7025 H 684.963 -0.44502 1.89751 0
M  V30 7026 H 684.059 -1.83964 2.52118 0
M  V30 7027 N 684.36 -1.4356 -0.65026 0
M  V30 7028 C 685.609 -1.44619 -1.406 0
M  V30 7029 C 685.922 -0.0752645 -1.95455 0
M  V30 7030 O 687.128 0.0366832 -2.71475 0
M  V30 7031 C 685.584 -2.54511 -2.54465 0
M  V30 7032 C 685.192 -3.97723 -2.06204 0
M  V30 7033 C 686.936 -2.64768 -3.31811 0
M  V30 7034 C 684.843 -4.99075 -3.17298 0
M  V30 7035 H 683.773 -0.537983 -0.52829 0
M  V30 7036 H 686.424 -1.69559 -0.701561 0
M  V30 7037 H 684.806 -2.22777 -3.27393 0
M  V30 7038 H 685.98 -4.38932 -1.40267 0
M  V30 7039 H 684.295 -3.91538 -1.41729 0
M  V30 7040 H 686.892 -3.37664 -4.14593 0
M  V30 7041 H 687.235 -1.69936 -3.80036 0
M  V30 7042 H 687.768 -2.95817 -2.65964 0
M  V30 7043 H 684.507 -5.95469 -2.74038 0
M  V30 7044 H 684.027 -4.62476 -3.81937 0
M  V30 7045 H 685.706 -5.21913 -3.82382 0
M  V30 7046 N 685.838 0.888903 -1.30139 0
M  V30 7047 C 687.254 1.17153 -1.08385 0
M  V30 7048 C 687.454 2.0088 0.157925 0
M  V30 7049 O 686.51 2.37668 0.852652 0
M  V30 7050 C 687.823 1.882 -2.34523 0
M  V30 7051 C 689.371 2.00981 -2.39949 0
M  V30 7052 C 689.846 2.75441 -3.65918 0
M  V30 7053 N 691.337 2.82989 -3.66704 0
M  V30 7054 C 692.072 3.41167 -4.60861 0
M  V30 7055 N 691.568 4.00425 -5.6536 0
M  V30 7056 N 693.361 3.38944 -4.48412 0
M  V30 7057 H 685.512 0.33053 -2.09812 0
M  V30 7058 H 687.775 0.208964 -0.924683 0
M  V30 7059 H 687.481 1.34119 -3.25123 0
M  V30 7060 H 687.355 2.88609 -2.42868 0
M  V30 7061 H 689.742 2.54234 -1.4983 0
M  V30 7062 H 689.823 0.996725 -2.35582 0
M  V30 7063 H 689.467 2.22861 -4.56394 0
M  V30 7064 H 689.397 3.77118 -3.67546 0
M  V30 7065 H 691.888 2.40912 -2.91153 0
M  V30 7066 H 692.201 4.42871 -6.33313 0
M  V30 7067 H 690.546 3.98856 -5.69157 0
M  V30 7068 H 693.737 2.91875 -3.6596 0
M  V30 7069 H 693.91 3.83989 -5.21974 0
M  V30 7070 N 687.317 1.12792 1.10072 0
M  V30 7071 C 688.264 0.79921 2.16521 0
M  V30 7072 C 689.234 -0.235726 1.64419 0
M  V30 7073 O 690.419 -0.109457 1.90486 0
M  V30 7074 C 687.559 0.264091 3.44088 0
M  V30 7075 C 686.672 1.35729 4.10124 0
M  V30 7076 C 685.807 0.781212 5.25424 0
M  V30 7077 C 684.846 1.85327 5.8337 0
M  V30 7078 N 683.983 1.29564 6.90042 0
M  V30 7079 H 688.823 1.71105 2.43981 0
M  V30 7080 H 686.36 0.854225 1.19756 0
M  V30 7081 H 688.318 -0.0642423 4.17151 0
M  V30 7082 H 686.948 -0.610901 3.16967 0
M  V30 7083 H 686 1.80234 3.34993 0
M  V30 7084 H 687.312 2.16782 4.4923 0
M  V30 7085 H 686.466 0.403769 6.05355 0
M  V30 7086 H 685.205 -0.0604686 4.87663 0
M  V30 7087 H 684.21 2.23986 5.02106 0
M  V30 7088 H 685.435 2.69824 6.23195 0
M  V30 7089 H 683.381 0.475844 6.54272 0
M  V30 7090 H 683.298 2.04271 7.2788 0
M  V30 7091 H 684.566 0.945545 7.73744 0
M  V30 7092 N 688.795 -1.27931 0.920396 0
M  V30 7093 C 689.758 -2.25345 0.41858 0
M  V30 7094 C 690.758 -1.54116 -0.458798 0
M  V30 7095 O 691.948 -1.72235 -0.260912 0
M  V30 7096 C 689.08 -3.38556 -0.399104 0
M  V30 7097 H 690.273 -2.71251 1.27918 0
M  V30 7098 H 687.826 -1.39728 0.700406 0
M  V30 7099 H 688.561 -2.98021 -1.27882 0
M  V30 7100 H 688.346 -3.91426 0.229863 0
M  V30 7101 H 689.836 -4.10976 -0.740817 0
M  V30 7102 N 690.273 -0.685099 -1.4193 0
M  V30 7103 C 691.183 -0.013404 -2.34596 0
M  V30 7104 C 692.199 0.777589 -1.55658 0
M  V30 7105 O 693.375 0.717553 -1.88184 0
M  V30 7106 C 690.44 0.919031 -3.34297 0
M  V30 7107 C 689.501 0.121417 -4.29128 0
M  V30 7108 C 688.734 1.00944 -5.24067 0
M  V30 7109 O 688.957 2.24898 -5.24192 0
M  V30 7110 O 687.891 0.464724 -6.00103 0
M  V30 7111 H 691.717 -0.776978 -2.93593 0
M  V30 7112 H 689.302 -0.445379 -1.42607 0
M  V30 7113 H 691.184 1.45402 -3.9552 0
M  V30 7114 H 689.859 1.66228 -2.77759 0
M  V30 7115 H 688.766 -0.45792 -3.71287 0
M  V30 7116 H 690.099 -0.582937 -4.88736 0
M  V30 7117 N 691.751 1.51645 -0.429126 0
M  V30 7118 C 692.976 2.06917 0.141399 0
M  V30 7119 C 693.401 1.29527 1.36398 0
M  V30 7120 O 692.759 0.33094 1.78254 0
M  V30 7121 C 692.807 3.57776 0.4504 0
M  V30 7122 O 691.911 3.82639 1.53821 0
M  V30 7123 H 691.252 0.663978 0.0054647 0
M  V30 7124 H 693.782 1.95355 -0.608093 0
M  V30 7125 H 693.792 4.01894 0.703249 0
M  V30 7126 H 692.467 4.13532 -0.443213 0
M  V30 7127 H 691.044 3.5039 1.27597 0
M  V30 7128 N 693.229 0.160201 1.56784 0
M  V30 7129 C 694.192 -0.760405 2.16219 0
M  V30 7130 C 695.192 -1.16595 1.10735 0
M  V30 7131 O 696.382 -1.08472 1.36306 0
M  V30 7132 C 693.514 -2.03358 2.73603 0
M  V30 7133 H 694.707 -0.243173 2.98912 0
M  V30 7134 H 692.26 -0.0893139 1.56045 0
M  V30 7135 H 692.995 -2.59416 1.94612 0
M  V30 7136 H 692.78 -1.75186 3.50788 0
M  V30 7137 H 694.27 -2.69081 3.19351 0
M  V30 7138 N 694.707 -1.5719 -0.113559 0
M  V30 7139 C 695.617 -2.04041 -1.15777 0
M  V30 7140 C 696.633 -0.961812 -1.45001 0
M  V30 7141 O 697.809 -1.2737 -1.56009 0
M  V30 7142 C 694.874 -2.43994 -2.46308 0
M  V30 7143 C 693.935 -3.65962 -2.24433 0
M  V30 7144 C 693.168 -4.04 -3.4874 0
M  V30 7145 O 693.391 -3.42321 -4.56259 0
M  V30 7146 O 692.325 -4.97069 -3.3942 0
M  V30 7147 H 696.151 -2.93248 -0.789899 0
M  V30 7148 H 693.736 -1.45828 -0.324748 0
M  V30 7149 H 695.618 -2.70401 -3.23204 0
M  V30 7150 H 694.293 -1.57932 -2.82558 0
M  V30 7151 H 693.2 -3.44697 -1.45377 0
M  V30 7152 H 694.533 -4.52746 -1.93084 0
M  V30 7153 N 696.185 0.383891 -1.52853 0
M  V30 7154 C 697.462 1.14296 -1.58732 0
M  V30 7155 C 697.842 2.07585 -0.383611 0
M  V30 7156 O 697.19 2.1971 0.627661 0
M  V30 7157 C 697.4 1.89816 -2.92867 0
M  V30 7158 C 698.748 2.44998 -3.46787 0
M  V30 7159 O 699.772 1.99966 -2.94774 0
M  V30 7160 O 698.631 3.2727 -4.37672 0
M  V30 7161 H 695.725 0.52326 -0.640413 0
M  V30 7162 H 698.271 0.388631 -1.6519 0
M  V30 7163 H 697.043 1.21626 -3.71918 0
M  V30 7164 H 696.666 2.72199 -2.89816 0
M  V30 7165 N 697.663 1.43903 0.642637 0
M  V30 7166 C 698.91 1.46079 1.40239 0
M  V30 7167 C 699.238 0.0890335 1.94296 0
M  V30 7168 O 698.493 -0.907533 1.73385 0
M  V30 7169 C 698.792 2.45907 2.59354 0
M  V30 7170 C 698.458 3.91522 2.23654 0
M  V30 7171 C 697.12 4.31179 2.1363 0
M  V30 7172 C 699.472 4.83242 1.95261 0
M  V30 7173 C 696.8 5.60495 1.73384 0
M  V30 7174 C 699.152 6.12933 1.56511 0
M  V30 7175 C 697.816 6.51556 1.4502 0
M  V30 7176 H 697.086 0.534542 0.513172 0
M  V30 7177 H 699.733 1.77047 0.72984 0
M  V30 7178 H 698.038 2.08381 3.3179 0
M  V30 7179 H 699.735 2.44842 3.17574 0
M  V30 7180 H 696.325 3.60142 2.32369 0
M  V30 7181 H 700.509 4.53367 2.0192 0
M  V30 7182 H 695.765 5.89249 1.63082 0
M  V30 7183 H 699.939 6.83469 1.33576 0
M  V30 7184 H 697.566 7.51663 1.13606 0
M  V30 7185 N 699.141 -0.881989 1.30609 0
M  V30 7186 C 700.552 -1.44956 1.17664 0
M  V30 7187 C 700.903 -1.94945 -0.221531 0
M  V30 7188 O 700.028 -1.85257 -1.11844 0
M  V30 7189 C 700.623 -2.63474 2.12995 0
M  V30 7190 C 699.182 -3.16312 2.04019 0
M  V30 7191 C 698.329 -1.89008 2.02907 0
M  V30 7192 H 701.28 -0.691645 1.42835 0
M  V30 7193 H 701.301 -3.39783 1.71253 0
M  V30 7194 H 700.813 -2.2706 3.14746 0
M  V30 7195 H 698.914 -3.57376 1.0542 0
M  V30 7196 H 699.027 -3.79409 2.9255 0
M  V30 7197 H 697.391 -2.07465 1.47751 0
M  V30 7198 H 698.174 -1.54848 3.06394 0
M  V30 7199 N 700.619 -1.13374 -1.09472 0
M  V30 7200 C 701.868 -0.889844 -1.8101 0
M  V30 7201 C 702.181 0.585686 -1.86625 0
M  V30 7202 O 703.387 0.946497 -2.54467 0
M  V30 7203 C 701.843 -1.54241 -3.25174 0
M  V30 7204 C 701.451 -3.05343 -3.27826 0
M  V30 7205 C 703.195 -1.37919 -4.0147 0
M  V30 7206 C 701.102 -3.63486 -4.6651 0
M  V30 7207 H 700.032 -0.329256 -0.678311 0
M  V30 7208 H 702.683 -1.36139 -1.23038 0
M  V30 7209 H 701.065 -0.998525 -3.83204 0
M  V30 7210 H 702.239 -3.66307 -2.79563 0
M  V30 7211 H 700.554 -3.21175 -2.65019 0
M  V30 7212 H 703.151 -1.78771 -5.03929 0
M  V30 7213 H 703.494 -0.323987 -4.15037 0
M  V30 7214 H 704.027 -1.89284 -3.49881 0
M  V30 7215 H 700.766 -4.68811 -4.58145 0
M  V30 7216 H 700.286 -3.073 -5.15099 0
M  V30 7217 H 701.965 -3.63134 -5.35484 0
M  V30 7218 N 702.098 1.27442 -0.927168 0
M  V30 7219 C 703.028 2.29256 -0.443188 0
M  V30 7220 C 704.009 1.62701 0.49624 0
M  V30 7221 O 705.194 1.90013 0.401105 0
M  V30 7222 C 702.324 3.45955 0.305366 0
M  V30 7223 C 701.278 4.24501 -0.546178 0
M  V30 7224 C 700.604 5.33671 0.331512 0
M  V30 7225 C 701.904 4.89921 -1.81037 0
M  V30 7226 H 703.598 2.69988 -1.29409 0
M  V30 7227 H 701.144 1.29792 -0.623705 0
M  V30 7228 H 703.097 4.1628 0.654885 0
M  V30 7229 H 701.821 3.04138 1.19029 0
M  V30 7230 H 700.48 3.55921 -0.878398 0
M  V30 7231 H 700.128 4.88096 1.21537 0
M  V30 7232 H 699.828 5.87131 -0.234746 0
M  V30 7233 H 701.352 6.0684 0.676614 0
M  V30 7234 H 702.766 5.52536 -1.52895 0
M  V30 7235 H 701.163 5.53436 -2.32009 0
M  V30 7236 H 702.233 4.13652 -2.53021 0
M  V30 7237 N 703.576 0.692616 1.41565 0
M  V30 7238 C 704.823 0.222335 2.01276 0
M  V30 7239 C 705.151 -1.17706 1.5484 0
M  V30 7240 O 704.406 -1.80795 0.749118 0
M  V30 7241 C 704.705 0.225073 3.56691 0
M  V30 7242 C 704.371 1.57158 4.22625 0
M  V30 7243 C 703.033 1.94022 4.40351 0
M  V30 7244 C 705.385 2.45758 4.59622 0
M  V30 7245 C 702.713 3.19076 4.92349 0
M  V30 7246 C 705.065 3.70141 5.13009 0
M  V30 7247 C 703.729 4.07152 5.28946 0
M  V30 7248 H 702.999 0.0813581 0.73652 0
M  V30 7249 H 705.646 0.891123 1.69503 0
M  V30 7250 H 703.951 -0.527259 3.88236 0
M  V30 7251 H 705.648 -0.156283 4.00695 0
M  V30 7252 H 702.238 1.27486 4.09201 0
M  V30 7253 H 706.422 2.18558 4.45585 0
M  V30 7254 H 701.678 3.4775 5.02872 0
M  V30 7255 H 705.852 4.38983 5.40617 0
M  V30 7256 H 703.479 5.04125 5.69001 0
M  V30 7257 N 705.054 -1.51416 0.437162 0
M  V30 7258 C 706.47 -1.59349 0.0894459 0
M  V30 7259 C 706.67 -1.44809 -1.40116 0
M  V30 7260 O 705.726 -1.28924 -2.17106 0
M  V30 7261 C 707.039 -2.9446 0.609398 0
M  V30 7262 C 708.587 -3.07769 0.569824 0
M  V30 7263 C 709.062 -4.45404 1.06675 0
M  V30 7264 N 710.553 -4.51723 1.02473 0
M  V30 7265 C 711.288 -5.56544 1.3801 0
M  V30 7266 N 710.784 -6.68784 1.80831 0
M  V30 7267 N 712.577 -5.46901 1.29828 0
M  V30 7268 H 704.728 -1.59112 1.40703 0
M  V30 7269 H 706.991 -0.750031 0.579791 0
M  V30 7270 H 706.697 -3.1047 1.65231 0
M  V30 7271 H 706.571 -3.77184 0.0342236 0
M  V30 7272 H 708.958 -2.91428 -0.464107 0
M  V30 7273 H 709.039 -2.26885 1.1814 0
M  V30 7274 H 708.683 -4.62492 2.09914 0
M  V30 7275 H 708.613 -5.24827 0.431712 0
M  V30 7276 H 711.104 -3.71165 0.710258 0
M  V30 7277 H 711.417 -7.44787 2.06185 0
M  V30 7278 H 709.762 -6.69992 1.84757 0
M  V30 7279 H 712.953 -4.581 0.962397 0
M  V30 7280 H 713.126 -6.2848 1.57851 0
M  V30 7281 N 706.532 -0.168513 -1.56696 0
M  V30 7282 C 707.464 0.794249 -2.14998 0
M  V30 7283 C 708.477 1.1957 -1.10485 0
M  V30 7284 O 709.666 1.13604 -1.37682 0
M  V30 7285 C 706.766 2.08018 -2.67547 0
M  V30 7286 C 705.939 1.84274 -3.96689 0
M  V30 7287 C 704.998 2.97059 -4.3433 0
M  V30 7288 O 704.024 2.67815 -5.02259 0
M  V30 7289 N 705.226 4.24775 -3.9566 0
M  V30 7290 H 707.991 0.295832 -2.98236 0
M  V30 7291 H 705.552 0.0143611 -1.61894 0
M  V30 7292 H 707.544 2.82559 -2.89729 0
M  V30 7293 H 706.114 2.49059 -1.88914 0
M  V30 7294 H 705.334 0.936528 -3.82914 0
M  V30 7295 H 706.622 1.65773 -4.81037 0
M  V30 7296 H 706.02 4.51395 -3.40968 0
M  V30 7297 H 704.577 4.96027 -4.22848 0
M  V30 7298 N 708.01 1.57248 0.105221 0
M  V30 7299 C 709.256 1.85845 0.811753 0
M  V30 7300 C 709.589 0.756219 1.78871 0
M  V30 7301 O 708.864 -0.236736 1.93054 0
M  V30 7302 C 709.147 3.25059 1.54947 0
M  V30 7303 C 709 4.45898 0.591185 0
M  V30 7304 C 710.319 3.6203 2.50245 0
M  V30 7305 H 707.438 0.675973 0.293649 0
M  V30 7306 H 710.08 1.89849 0.0756269 0
M  V30 7307 H 708.23 3.21776 2.17698 0
M  V30 7308 H 709.902 4.61291 -0.0285352 0
M  V30 7309 H 708.145 4.33693 -0.0962343 0
M  V30 7310 H 708.816 5.40009 1.1443 0
M  V30 7311 H 711.292 3.66192 1.97593 0
M  V30 7312 H 710.168 4.60389 2.98886 0
M  V30 7313 H 710.429 2.90176 3.33542 0
M  V30 7314 N 709.488 -0.375779 1.53054 0
M  V30 7315 C 710.42 -1.47963 1.75042 0
M  V30 7316 C 711.433 -1.50073 0.631031 0
M  V30 7317 O 712.622 -1.53736 0.907052 0
M  V30 7318 C 709.722 -2.86767 1.80604 0
M  V30 7319 C 708.895 -3.08471 3.10104 0
M  V30 7320 C 707.954 -4.27332 3.07041 0
M  V30 7321 O 706.98 -4.22998 3.80869 0
M  V30 7322 N 708.182 -5.34214 2.27147 0
M  V30 7323 H 710.947 -1.29484 2.70285 0
M  V30 7324 H 708.508 -0.565416 1.51706 0
M  V30 7325 H 710.5 -3.64404 1.76045 0
M  V30 7326 H 709.07 -2.98542 0.926897 0
M  V30 7327 H 708.29 -2.18583 3.28048 0
M  V30 7328 H 709.578 -3.19834 3.95706 0
M  V30 7329 H 708.976 -5.40594 1.66656 0
M  V30 7330 H 707.533 -6.10467 2.28415 0
M  V30 7331 N 710.966 -1.44241 -0.634997 0
M  V30 7332 C 712.191 -1.50516 -1.42687 0
M  V30 7333 C 712.616 -0.129864 -1.87651 0
M  V30 7334 O 711.974 0.880164 -1.58502 0
M  V30 7335 C 712.022 -2.4714 -2.62591 0
M  V30 7336 O 711.126 -1.97025 -3.62291 0
M  V30 7337 H 710.467 -0.50841 -0.427101 0
M  V30 7338 H 712.997 -1.89337 -0.775408 0
M  V30 7339 H 713.007 -2.65048 -3.10183 0
M  V30 7340 H 711.682 -3.47039 -2.29209 0
M  V30 7341 H 710.259 -1.88866 -3.21534 0
M  V30 7342 N 712.444 0.87505 -1.31075 0
M  V30 7343 C 713.354 2.01441 -1.20244 0
M  V30 7344 C 714.37 1.73584 -0.120227 0
M  V30 7345 O 715.546 1.98559 -0.337063 0
M  V30 7346 C 712.611 3.34675 -0.905199 0
M  V30 7347 C 711.672 3.75889 -2.0738 0
M  V30 7348 C 710.905 5.02764 -1.79064 0
M  V30 7349 O 711.128 5.65795 -0.723318 0
M  V30 7350 O 710.062 5.40623 -2.64594 0
M  V30 7351 H 713.888 2.13509 -2.1598 0
M  V30 7352 H 711.473 1.00257 -1.10765 0
M  V30 7353 H 713.355 4.1458 -0.755057 0
M  V30 7354 H 712.03 3.23692 0.0221695 0
M  V30 7355 H 710.937 2.96645 -2.27931 0
M  V30 7356 H 712.27 3.91489 -2.98324 0
M  V30 7357 N 713.922 1.13953 1.08869 0
M  V30 7358 C 715.171 0.899431 1.80536 0
M  V30 7359 C 715.484 -0.575781 1.86933 0
M  V30 7360 O 716.69 -0.932988 2.54966 0
M  V30 7361 C 715.146 1.55963 3.24351 0
M  V30 7362 C 714.754 3.07077 3.26202 0
M  V30 7363 C 716.498 1.40046 4.00733 0
M  V30 7364 C 714.405 3.65955 4.64576 0
M  V30 7365 H 713.335 0.332849 0.676556 0
M  V30 7366 H 715.986 1.3679 1.22314 0
M  V30 7367 H 714.368 1.01883 3.82669 0
M  V30 7368 H 715.542 3.67785 2.77617 0
M  V30 7369 H 713.857 3.22576 2.63312 0
M  V30 7370 H 716.454 1.81441 5.02974 0
M  V30 7371 H 716.797 0.345993 4.1486 0
M  V30 7372 H 717.33 1.91137 3.48872 0
M  V30 7373 H 714.069 4.71234 4.55652 0
M  V30 7374 H 713.589 3.10027 5.13462 0
M  V30 7375 H 715.268 3.65968 5.33551 0
M  V30 7376 N 715.4 -1.26948 0.933913 0
M  V30 7377 C 716.811 -1.76058 0.621324 0
M  V30 7378 C 717.162 -1.76175 -0.863522 0
M  V30 7379 O 716.287 -1.36921 -1.67576 0
M  V30 7380 C 716.882 -3.19713 1.12111 0
M  V30 7381 C 715.441 -3.66465 0.859074 0
M  V30 7382 C 714.588 -2.46186 1.27624 0
M  V30 7383 H 717.539 -1.13127 1.11301 0
M  V30 7384 H 717.56 -3.77566 0.471608 0
M  V30 7385 H 717.072 -3.19596 2.20182 0
M  V30 7386 H 715.173 -3.72021 -0.207566 0
M  V30 7387 H 715.286 -4.55636 1.48098 0
M  V30 7388 H 713.65 -2.45042 0.694727 0
M  V30 7389 H 714.433 -2.48774 2.36572 0
M  V30 7390 N 716.879 -0.700114 -1.41195 0
M  V30 7391 C 718.127 -0.232546 -2.00758 0
M  V30 7392 C 718.448 1.1734 -1.55745 0
M  V30 7393 O 717.718 1.79262 -0.790058 0
M  V30 7394 H 716.298 -0.0829845 -0.742376 0
M  V30 7395 H 718.96 -0.902289 -1.72756 0
M  V30 7396 H 718.056 -0.253521 -3.11069 0
M  V30 7397 N 718.357 1.51182 -0.445186 0
M  V30 7398 C 719.582 2.07056 0.119445 0
M  V30 7399 C 720.007 1.30966 1.35016 0
M  V30 7400 O 719.365 0.349827 1.77893 0
M  V30 7401 C 719.413 3.58234 0.412428 0
M  V30 7402 O 718.517 3.84249 1.49754 0
M  V30 7403 H 717.858 0.663998 -0.00157797 0
M  V30 7404 H 720.388 1.94699 -0.628779 0
M  V30 7405 H 720.398 4.02617 0.660583 0
M  V30 7406 H 719.073 4.13038 -0.487049 0
M  V30 7407 H 717.65 3.51724 1.23873 0
M  V30 7408 N 719.835 0.176821 1.56605 0
M  V30 7409 C 721.246 -0.338963 1.83597 0
M  V30 7410 C 721.597 -1.62677 1.09684 0
M  V30 7411 O 720.722 -2.13524 0.351661 0
M  V30 7412 C 721.317 -0.62177 3.33046 0
M  V30 7413 C 719.876 -1.08198 3.60514 0
M  V30 7414 C 719.023 -0.120774 2.77037 0
M  V30 7415 H 721.974 0.400978 1.53551 0
M  V30 7416 H 721.995 -1.47321 3.50823 0
M  V30 7417 H 721.507 0.315692 3.86814 0
M  V30 7418 H 719.608 -2.03435 3.12162 0
M  V30 7419 H 719.721 -0.987329 4.68816 0
M  V30 7420 H 718.085 -0.619192 2.47059 0
M  V30 7421 H 718.868 0.810806 3.33588 0
M  V30 7422 N 721.313 -1.57302 -0.09688 0
M  V30 7423 C 722.562 -1.85183 -0.799388 0
M  V30 7424 C 722.875 -0.765818 -1.79985 0
M  V30 7425 O 724.081 -0.931696 -2.55013 0
M  V30 7426 C 722.537 -3.28399 -1.47249 0
M  V30 7427 C 722.145 -4.45066 -0.511888 0
M  V30 7428 C 723.889 -3.65506 -2.15883 0
M  V30 7429 C 721.796 -5.79315 -1.18948 0
M  V30 7430 H 720.726 -0.690752 -0.302287 0
M  V30 7431 H 723.377 -1.83425 -0.0523104 0
M  V30 7432 H 721.759 -3.24692 -2.26697 0
M  V30 7433 H 722.933 -4.60116 0.250962 0
M  V30 7434 H 721.248 -4.16343 0.0686576 0
M  V30 7435 H 723.845 -4.63087 -2.67309 0
M  V30 7436 H 724.188 -2.94041 -2.94696 0
M  V30 7437 H 724.721 -3.71094 -1.43298 0
M  V30 7438 H 721.46 -6.54007 -0.442198 0
M  V30 7439 H 720.98 -5.68111 -1.9238 0
M  V30 7440 H 722.659 -6.23816 -1.71646 0
M  V30 7441 N 722.791 0.367657 -1.53252 0
M  V30 7442 C 724.038 1.11052 -1.69333 0
M  V30 7443 C 724.366 1.89363 -0.444064 0
M  V30 7444 O 723.621 1.87094 0.573953 0
M  V30 7445 C 723.92 2.09825 -2.89324 0
M  V30 7446 C 723.586 1.4801 -4.25915 0
M  V30 7447 C 722.248 1.30879 -4.6306 0
M  V30 7448 C 724.6 1.03268 -5.10867 0
M  V30 7449 C 721.928 0.675868 -5.82794 0
M  V30 7450 C 724.28 0.41377 -6.31245 0
M  V30 7451 C 722.944 0.229939 -6.67104 0
M  V30 7452 H 722.214 0.406367 -0.619634 0
M  V30 7453 H 724.861 0.392558 -1.87433 0
M  V30 7454 H 723.166 2.87917 -2.65728 0
M  V30 7455 H 724.863 2.67252 -2.98961 0
M  V30 7456 H 721.453 1.62336 -3.96667 0
M  V30 7457 H 725.637 1.15297 -4.82722 0
M  V30 7458 H 720.893 0.521833 -6.09169 0
M  V30 7459 H 725.067 0.0588768 -6.96375 0
M  V30 7460 H 722.694 -0.262562 -7.59746 0
M  V30 7461 N 724.269 1.44576 0.627338 0
M  V30 7462 C 725.199 1.54562 1.75022 0
M  V30 7463 C 726.18 0.398378 1.65369 0
M  V30 7464 O 727.365 0.61899 1.84071 0
M  V30 7465 C 724.495 1.49309 3.13567 0
M  V30 7466 C 723.449 2.62549 3.38012 0
M  V30 7467 C 722.775 2.42348 4.76625 0
M  V30 7468 C 724.075 4.04678 3.30202 0
M  V30 7469 H 725.769 2.4855 1.66922 0
M  V30 7470 H 723.315 1.19624 0.801636 0
M  V30 7471 H 725.268 1.54895 3.919 0
M  V30 7472 H 723.992 0.518392 3.2246 0
M  V30 7473 H 722.651 2.56358 2.62061 0
M  V30 7474 H 722.299 1.43062 4.82226 0
M  V30 7475 H 721.999 3.18273 4.93939 0
M  V30 7476 H 723.523 2.49758 5.57183 0
M  V30 7477 H 724.937 4.12217 3.98435 0
M  V30 7478 H 723.334 4.80836 3.5905 0
M  V30 7479 H 724.404 4.2798 2.27949 0
M  V30 7480 N 725.747 -0.868086 1.31537 0
M  V30 7481 C 726.68 -1.97871 1.13676 0
M  V30 7482 C 727.658 -1.62551 0.0397589 0
M  V30 7483 O 728.842 -1.87473 0.196539 0
M  V30 7484 C 725.969 -3.30577 0.73734 0
M  V30 7485 C 725.015 -3.8488 1.83765 0
M  V30 7486 S 725.848 -4.10106 3.44345 0
M  V30 7487 C 727.004 -5.45806 3.06344 0
M  V30 7488 H 727.237 -2.12719 2.07697 0
M  V30 7489 H 724.77 -1.01849 1.16044 0
M  V30 7490 H 726.728 -4.07274 0.513641 0
M  V30 7491 H 725.389 -3.13562 -0.183787 0
M  V30 7492 H 724.582 -4.80821 1.51085 0
M  V30 7493 H 724.184 -3.14981 2.01651 0
M  V30 7494 H 726.476 -6.27535 2.55354 0
M  V30 7495 H 727.419 -5.83437 4.01257 0
M  V30 7496 H 727.827 -5.0917 2.43734 0
M  V30 7497 N 727.225 -1.14528 -1.08264 0
M  V30 7498 C 728.172 -0.833556 -2.15222 0
M  V30 7499 C 729.142 0.209539 -1.64773 0
M  V30 7500 O 730.327 0.0791388 -1.90636 0
M  V30 7501 C 727.467 -0.318799 -3.43624 0
M  V30 7502 C 726.58 -1.42237 -4.07913 0
M  V30 7503 C 725.715 -0.864704 -5.24115 0
M  V30 7504 C 724.754 -1.94585 -5.80347 0
M  V30 7505 N 723.891 -1.40525 -6.87893 0
M  V30 7506 H 728.731 -1.74965 -2.41228 0
M  V30 7507 H 726.268 -0.873169 -1.18381 0
M  V30 7508 H 728.226 -0.00213088 -4.172 0
M  V30 7509 H 726.856 0.560397 -3.17898 0
M  V30 7510 H 725.908 -1.8554 -3.32083 0
M  V30 7511 H 727.22 -2.23901 -4.45724 0
M  V30 7512 H 726.374 -0.500025 -6.04636 0
M  V30 7513 H 725.113 -0.0171219 -4.87697 0
M  V30 7514 H 724.118 -2.31946 -4.98479 0
M  V30 7515 H 725.343 -2.79704 -6.18823 0
M  V30 7516 H 723.289 -0.579873 -6.53432 0
M  V30 7517 H 723.206 -2.15825 -7.24538 0
M  V30 7518 H 724.474 -1.06852 -7.72142 0
M  V30 7519 N 728.703 1.26451 -0.940633 0
M  V30 7520 C 729.633 2.28773 -0.467479 0
M  V30 7521 C 730.614 1.63218 0.478955 0
M  V30 7522 O 731.799 1.90427 0.380929 0
M  V30 7523 C 728.929 3.46259 0.268656 0
M  V30 7524 C 727.883 4.23898 -0.591171 0
M  V30 7525 C 727.209 5.33993 0.274891 0
M  V30 7526 C 728.509 4.87974 -1.86223 0
M  V30 7527 H 730.203 2.68601 -1.32265 0
M  V30 7528 H 727.749 1.29123 -0.637436 0
M  V30 7529 H 729.702 4.16951 0.610696 0
M  V30 7530 H 728.426 3.05383 1.15796 0
M  V30 7531 H 727.085 3.54969 -0.916098 0
M  V30 7532 H 726.733 4.89358 1.16353 0
M  V30 7533 H 726.433 5.86849 -0.297006 0
M  V30 7534 H 727.957 6.07523 0.612213 0
M  V30 7535 H 729.371 5.50883 -1.58747 0
M  V30 7536 H 727.768 5.50945 -2.37866 0
M  V30 7537 H 728.838 4.10945 -2.57394 0
M  V30 7538 N 730.181 0.707592 1.40822 0
M  V30 7539 C 731.144 0.0587224 2.29125 0
M  V30 7540 C 732.144 -0.695624 1.44975 0
M  V30 7541 O 733.334 -0.528718 1.65983 0
M  V30 7542 C 730.466 -0.926939 3.28056 0
M  V30 7543 H 731.659 0.836349 2.88002 0
M  V30 7544 H 729.212 0.471778 1.4901 0
M  V30 7545 H 729.947 -1.7319 2.74182 0
M  V30 7546 H 729.732 -0.389015 3.90165 0
M  V30 7547 H 731.222 -1.37837 3.94196 0
M  V30 7548 N 731.66 -1.50943 0.453197 0
M  V30 7549 C 732.592 -2.25922 -0.38623 0
M  V30 7550 C 733.605 -1.3055 -0.972652 0
M  V30 7551 O 734.794 -1.56191 -0.864097 0
M  V30 7552 C 731.894 -3.01176 -1.5539 0
M  V30 7553 C 731.067 -4.23768 -1.0835 0
M  V30 7554 C 730.126 -4.81466 -2.12313 0
M  V30 7555 O 729.152 -5.42875 -1.71101 0
M  V30 7556 N 730.354 -4.66889 -3.44956 0
M  V30 7557 H 733.119 -2.98601 0.256468 0
M  V30 7558 H 730.68 -1.59408 0.282965 0
M  V30 7559 H 732.672 -3.36659 -2.24594 0
M  V30 7560 H 731.242 -2.31409 -2.10163 0
M  V30 7561 H 730.462 -3.93597 -0.217961 0
M  V30 7562 H 731.75 -5.03289 -0.746857 0
M  V30 7563 H 731.148 -4.18011 -3.81161 0
M  V30 7564 H 729.705 -5.06691 -4.1001 0
M  V30 7565 N 733.138 -0.185124 -1.56509 0
M  V30 7566 C 734.088 0.752315 -2.15231 0
M  V30 7567 C 735.072 1.18327 -1.0903 0
M  V30 7568 O 736.264 1.14333 -1.35119 0
M  V30 7569 C 733.393 1.97583 -2.80742 0
M  V30 7570 C 732.479 1.56623 -3.94119 0
M  V30 7571 N 732.87 0.867008 -4.98314 0
M  V30 7572 C 731.168 1.85626 -4.05535 0
M  V30 7573 C 731.869 0.663228 -5.77907 0
M  V30 7574 N 730.845 1.20891 -5.29987 0
M  V30 7575 H 734.647 0.209267 -2.93154 0
M  V30 7576 H 732.161 0.0150444 -1.62393 0
M  V30 7577 H 734.158 2.65779 -3.21197 0
M  V30 7578 H 732.818 2.52369 -2.04303 0
M  V30 7579 H 733.829 0.52355 -5.15247 0
M  V30 7580 H 730.506 2.41992 -3.40215 0
M  V30 7581 H 731.896 0.109273 -6.71811 0
M  V30 7582 N 734.616 1.57351 0.0885366 0
M  V30 7583 C 735.579 2.01557 1.09121 0
M  V30 7584 C 736.579 0.910052 1.3257 0
M  V30 7585 O 737.769 1.17537 1.28572 0
M  V30 7586 C 734.901 2.38189 2.43883 0
M  V30 7587 H 736.094 2.91361 0.710562 0
M  V30 7588 H 733.647 1.52694 0.333779 0
M  V30 7589 H 734.382 1.5136 2.86811 0
M  V30 7590 H 734.167 3.18846 2.28209 0
M  V30 7591 H 735.657 2.73025 3.15986 0
M  V30 7592 N 736.094 -0.359525 1.53444 0
M  V30 7593 C 737.51 -0.701599 1.43352 0
M  V30 7594 C 737.71 -1.93049 0.577439 0
M  V30 7595 O 736.766 -2.52423 0.0622224 0
M  V30 7596 C 738.079 -0.90915 2.86627 0
M  V30 7597 C 739.627 -1.00878 2.96298 0
M  V30 7598 C 740.102 -1.24876 4.40647 0
M  V30 7599 N 741.593 -1.31632 4.44103 0
M  V30 7600 C 742.328 -1.51922 5.52908 0
M  V30 7601 N 741.824 -1.69489 6.71748 0
M  V30 7602 N 743.617 -1.54341 5.40496 0
M  V30 7603 H 735.768 0.448685 2.07607 0
M  V30 7604 H 738.031 0.138713 0.937797 0
M  V30 7605 H 737.737 -0.0778997 3.51614 0
M  V30 7606 H 737.611 -1.81551 3.30634 0
M  V30 7607 H 739.998 -1.83057 2.31461 0
M  V30 7608 H 740.079 -0.0796721 2.55676 0
M  V30 7609 H 739.723 -0.431961 5.0606 0
M  V30 7610 H 739.653 -2.19118 4.78848 0
M  V30 7611 H 742.144 -1.19646 3.5846 0
M  V30 7612 H 742.457 -1.84561 7.50438 0
M  V30 7613 H 740.802 -1.66655 6.74723 0
M  V30 7614 H 743.993 -1.40188 4.46615 0
M  V30 7615 H 744.166 -1.69812 6.25354 0
M  V30 7616 N 737.572 -1.44907 -0.619662 0
M  V30 7617 C 738.522 -1.49085 -1.72504 0
M  V30 7618 C 739.506 -0.355372 -1.56926 0
M  V30 7619 O 740.698 -0.601441 -1.66468 0
M  V30 7620 C 737.827 -1.44889 -3.11227 0
M  V30 7621 C 736.913 -2.63593 -3.32234 0
M  V30 7622 N 737.304 -3.88775 -3.23555 0
M  V30 7623 C 735.602 -2.59033 -3.63067 0
M  V30 7624 C 736.303 -4.67932 -3.45564 0
M  V30 7625 N 735.279 -3.9919 -3.68983 0
M  V30 7626 H 739.081 -2.43706 -1.6427 0
M  V30 7627 H 736.595 -1.4003 -0.82252 0
M  V30 7628 H 738.592 -1.45966 -3.90512 0
M  V30 7629 H 737.252 -0.513143 -3.2062 0
M  V30 7630 H 738.263 -4.20574 -3.02221 0
M  V30 7631 H 734.94 -1.7431 -3.79371 0
M  V30 7632 H 736.33 -5.76952 -3.44349 0
M  V30 7633 N 739.05 0.861098 -1.31996 0
M  V30 7634 C 739.98 1.98482 -1.22993 0
M  V30 7635 C 740.961 1.6971 -0.115168 0
M  V30 7636 O 742.146 1.91849 -0.30126 0
M  V30 7637 C 739.276 3.34179 -0.945615 0
M  V30 7638 C 738.23 3.77284 -2.02091 0
M  V30 7639 C 737.556 5.1054 -1.58912 0
M  V30 7640 C 738.856 3.93439 -3.43515 0
M  V30 7641 H 740.55 2.06271 -2.17008 0
M  V30 7642 H 738.096 0.991043 -1.04472 0
M  V30 7643 H 740.049 4.12338 -0.869206 0
M  V30 7644 H 738.773 3.26586 0.0301849 0
M  V30 7645 H 737.432 3.01371 -2.08737 0
M  V30 7646 H 737.08 4.99397 -0.600942 0
M  V30 7647 H 736.78 5.40352 -2.30854 0
M  V30 7648 H 738.304 5.91199 -1.52696 0
M  V30 7649 H 739.718 4.6197 -3.39495 0
M  V30 7650 H 738.115 4.34661 -4.13751 0
M  V30 7651 H 739.185 2.96548 -3.8365 0
M  V30 7652 N 740.528 1.15101 1.07655 0
M  V30 7653 C 741.438 0.858869 2.18313 0
M  V30 7654 C 742.454 -0.163641 1.73229 0
M  V30 7655 O 743.63 0.00969541 2.01398 0
M  V30 7656 C 740.695 0.34893 3.4494 0
M  V30 7657 C 739.756 1.43495 4.04608 0
M  V30 7658 C 738.989 0.949253 5.2519 0
M  V30 7659 O 739.212 -0.20636 5.70027 0
M  V30 7660 O 738.146 1.73161 5.76454 0
M  V30 7661 H 741.972 1.78386 2.45788 0
M  V30 7662 H 739.557 0.929876 1.16934 0
M  V30 7663 H 741.439 0.070851 4.2134 0
M  V30 7664 H 740.114 -0.548237 3.19024 0
M  V30 7665 H 739.021 1.7666 3.29761 0
M  V30 7666 H 740.354 2.30692 4.3479 0
M  V30 7667 N 742.006 -1.2595 0.947325 0
M  V30 7668 C 743.252 -1.9375 0.599064 0
M  V30 7669 C 743.585 -1.74088 -0.860632 0
M  V30 7670 O 742.86 -1.08158 -1.61654 0
M  V30 7671 C 743.143 -3.47353 0.949634 0
M  V30 7672 C 742.996 -3.76273 2.46452 0
M  V30 7673 C 744.315 -4.37589 0.469442 0
M  V30 7674 H 741.434 -0.703674 0.219115 0
M  V30 7675 H 744.076 -1.48705 1.18266 0
M  V30 7676 H 742.226 -3.8585 0.453008 0
M  V30 7677 H 743.898 -3.47455 3.03435 0
M  V30 7678 H 742.141 -3.22135 2.90537 0
M  V30 7679 H 742.812 -4.83664 2.66032 0
M  V30 7680 H 745.288 -4.06353 0.89534 0
M  V30 7681 H 744.164 -5.43841 0.7435 0
M  V30 7682 H 744.425 -4.37579 -0.630618 0
M  V30 7683 N 743.484 -0.715051 -1.40445 0
M  V30 7684 C 744.416 -0.0227516 -2.29189 0
M  V30 7685 C 745.429 0.724313 -1.458 0
M  V30 7686 O 746.618 0.571781 -1.69094 0
M  V30 7687 C 743.718 0.992038 -3.24055 0
M  V30 7688 C 742.891 0.310613 -4.36296 0
M  V30 7689 C 741.95 1.23071 -5.11605 0
M  V30 7690 O 740.976 0.71571 -5.64682 0
M  V30 7691 N 742.178 2.56188 -5.2091 0
M  V30 7692 H 744.943 -0.78473 -2.89244 0
M  V30 7693 H 742.504 -0.562637 -1.51809 0
M  V30 7694 H 744.496 1.60973 -3.71308 0
M  V30 7695 H 743.066 1.65538 -2.65171 0
M  V30 7696 H 742.286 -0.487269 -3.91177 0
M  V30 7697 H 743.574 -0.162415 -5.08541 0
M  V30 7698 H 742.972 3.00527 -4.7927 0
M  V30 7699 H 741.529 3.13103 -5.71673 0
M  V30 7700 N 744.962 1.50701 -0.461195 0
M  V30 7701 C 746.211 2.01458 0.0988277 0
M  V30 7702 C 746.524 1.34863 1.41673 0
M  V30 7703 O 747.73 1.76721 2.06111 0
M  V30 7704 C 746.186 3.59186 0.226648 0
M  V30 7705 C 745.794 4.34732 -1.08223 0
M  V30 7706 C 747.538 4.18015 0.73916 0
M  V30 7707 C 745.445 5.8422 -0.918747 0
M  V30 7708 H 744.375 0.7529 0.040709 0
M  V30 7709 H 747.026 1.736 -0.594589 0
M  V30 7710 H 745.408 3.83589 0.983621 0
M  V30 7711 H 746.582 4.22059 -1.84939 0
M  V30 7712 H 744.897 3.87466 -1.52509 0
M  V30 7713 H 747.494 5.27436 0.878347 0
M  V30 7714 H 747.837 3.78746 1.72793 0
M  V30 7715 H 748.37 3.9778 0.0398469 0
M  V30 7716 H 745.109 6.27944 -1.88059 0
M  V30 7717 H 744.629 5.99493 -0.191801 0
M  V30 7718 H 746.308 6.44382 -0.581405 0
M  V30 7719 N 746.441 0.193421 1.56409 0
M  V30 7720 C 747.371 -0.723334 2.22014 0
M  V30 7721 C 748.352 -1.22254 1.1827 0
M  V30 7722 O 749.537 -1.27168 1.46771 0
M  V30 7723 C 746.667 -1.94366 2.87818 0
M  V30 7724 C 745.621 -1.57943 3.97791 0
M  V30 7725 C 744.947 -2.87623 4.50752 0
M  V30 7726 C 746.247 -0.790639 5.16281 0
M  V30 7727 H 747.941 -0.176426 2.9888 0
M  V30 7728 H 745.487 -0.0834166 1.43758 0
M  V30 7729 H 747.44 -2.5902 3.32396 0
M  V30 7730 H 746.164 -2.51507 2.08355 0
M  V30 7731 H 744.823 -0.956482 3.53903 0
M  V30 7732 H 744.471 -3.4285 3.68053 0
M  V30 7733 H 744.171 -2.63998 5.24956 0
M  V30 7734 H 745.695 -3.53268 4.9803 0
M  V30 7735 H 747.109 -1.34024 5.57414 0
M  V30 7736 H 745.506 -0.65258 5.96541 0
M  V30 7737 H 746.576 0.208633 4.84451 0
M  V30 7738 N 747.919 -1.57396 -0.0801906 0
M  V30 7739 C 748.882 -2.02133 -1.0805 0
M  V30 7740 C 749.882 -0.91707 -1.32085 0
M  V30 7741 O 751.072 -1.18217 -1.27947 0
M  V30 7742 C 748.204 -2.39479 -2.42616 0
M  V30 7743 H 749.397 -2.91733 -0.6951 0
M  V30 7744 H 746.95 -1.52869 -0.325677 0
M  V30 7745 H 747.685 -1.52879 -2.86004 0
M  V30 7746 H 747.47 -3.20052 -2.26515 0
M  V30 7747 H 748.96 -2.74697 -3.14534 0
M  V30 7748 N 749.397 0.351382 -1.53633 0
M  V30 7749 C 750.674 1.10903 -1.6112 0
M  V30 7750 C 751.054 2.06725 -0.427556 0
M  V30 7751 O 750.402 2.20992 0.580916 0
M  V30 7752 C 750.612 1.83561 -2.96827 0
M  V30 7753 C 751.96 2.37587 -3.51906 0
M  V30 7754 O 752.984 1.93669 -2.9895 0
M  V30 7755 O 751.843 3.17913 -4.44515 0
M  V30 7756 H 748.937 0.509558 -0.651368 0
M  V30 7757 H 751.483 0.353504 -1.65977 0
M  V30 7758 H 750.255 1.1371 -3.74414 0
M  V30 7759 H 749.878 2.6599 -2.95525 0
M  V30 7760 N 750.875 1.45233 0.611969 0
M  V30 7761 C 751.807 1.49575 1.73666 0
M  V30 7762 C 752.82 0.386987 1.58134 0
M  V30 7763 O 754.009 0.653804 1.66095 0
M  V30 7764 C 751.109 1.33223 3.11617 0
M  V30 7765 C 750.282 2.57694 3.5343 0
M  V30 7766 C 749.341 2.35962 4.70328 0
M  V30 7767 O 748.367 3.09553 4.77667 0
M  V30 7768 N 749.569 1.40243 5.63305 0
M  V30 7769 H 752.334 2.46539 1.70407 0
M  V30 7770 H 749.895 1.40917 0.79712 0
M  V30 7771 H 751.887 1.16502 3.87569 0
M  V30 7772 H 750.457 0.44551 3.09409 0
M  V30 7773 H 749.677 2.8956 2.67486 0
M  V30 7774 H 750.965 3.40441 3.78124 0
M  V30 7775 H 750.363 0.795023 5.60086 0
M  V30 7776 H 748.92 1.29496 6.38807 0
M  V30 7777 N 752.353 -0.854086 1.3245 0
M  V30 7778 C 753.583 -1.63836 1.25862 0
M  V30 7779 C 753.991 -1.88383 -0.175588 0
M  V30 7780 O 753.334 -1.45353 -1.1233 0
M  V30 7781 C 753.396 -3.02068 1.94923 0
M  V30 7782 C 753.06 -3.0056 3.44257 0
M  V30 7783 C 754.057 -2.77368 4.39731 0
M  V30 7784 C 751.742 -3.21177 3.862 0
M  V30 7785 C 753.736 -2.74797 5.75122 0
M  V30 7786 C 751.423 -3.18234 5.217 0
M  V30 7787 C 752.421 -2.95072 6.15972 0
M  V30 7788 O 752.109 -2.92003 7.48992 0
M  V30 7789 H 751.841 -0.517007 0.435523 0
M  V30 7790 H 754.395 -1.07314 1.75137 0
M  V30 7791 H 752.625 -3.60382 1.40219 0
M  V30 7792 H 754.314 -3.62791 1.82037 0
M  V30 7793 H 755.08 -2.61205 4.08653 0
M  V30 7794 H 750.959 -3.38231 3.13243 0
M  V30 7795 H 754.503 -2.56638 6.48678 0
M  V30 7796 H 750.4 -3.33941 5.52407 0
M  V30 7797 H 751.168 -3.07953 7.58358 0
M  V30 7798 N 753.831 -1.1567 -1.07043 0
M  V30 7799 C 755.079 -0.931673 -1.79344 0
M  V30 7800 C 755.4 0.542421 -1.87304 0
M  V30 7801 O 754.67 1.39418 -1.37621 0
M  V30 7802 H 753.25 -0.34171 -0.664262 0
M  V30 7803 H 755.912 -1.45795 -1.29344 0
M  V30 7804 H 755.008 -1.34379 -2.81689 0
M  V30 7805 N 755.309 1.25446 -0.953992 0
M  V30 7806 C 756.257 2.27909 -0.46478 0
M  V30 7807 C 757.251 1.62904 0.464607 0
M  V30 7808 O 758.457 1.76733 0.341407 0
M  V30 7809 H 754.832 0.74036 -0.131798 0
M  V30 7810 H 756.803 2.66559 -1.34122 0
M  V30 7811 C 755.552 3.46853 0.242589 0
M  V30 7812 H 754.875 3.97105 -0.463418 0
M  V30 7813 H 756.315 4.20432 0.548919 0
M  V30 7814 C 754.774 3.03386 1.46487 0
M  V30 7815 O 755.304 3.09342 2.56262 0
M  V30 7816 N 753.51 2.58584 1.32599 0
M  V30 7817 H 753.057 2.53938 0.432834 0
M  V30 7818 H 753.015 2.29866 2.14497 0
M  V30 7819 N 756.787 0.722489 1.40064 0
M  V30 7820 C 757.75 0.0830209 2.2905 0
M  V30 7821 C 758.75 -0.680208 1.45705 0
M  V30 7822 O 759.94 -0.511084 1.66534 0
M  V30 7823 C 757.072 -0.892092 3.29021 0
M  V30 7824 H 758.265 0.866848 2.87099 0
M  V30 7825 H 755.818 0.487556 1.48501 0
M  V30 7826 H 756.553 -1.70273 2.76003 0
M  V30 7827 H 756.338 -0.34761 3.90556 0
M  V30 7828 H 757.828 -1.33648 3.95636 0
M  V30 7829 N 758.265 -1.50454 0.469181 0
M  V30 7830 C 759.511 -2.02615 -0.0865971 0
M  V30 7831 C 759.844 -1.35062 -1.39542 0
M  V30 7832 O 759.119 -0.475701 -1.88593 0
M  V30 7833 C 759.402 -3.59068 -0.272385 0
M  V30 7834 C 759.255 -4.37196 1.05733 0
M  V30 7835 C 760.574 -4.2793 -1.0278 0
M  V30 7836 H 757.693 -0.736389 -0.0299977 0
M  V30 7837 H 760.335 -1.79792 0.614399 0
M  V30 7838 H 758.485 -3.78646 -0.869471 0
M  V30 7839 H 760.157 -4.29195 1.69084 0
M  V30 7840 H 758.4 -4.01013 1.65442 0
M  V30 7841 H 759.071 -5.44924 0.880997 0
M  V30 7842 H 761.547 -4.12816 -0.521718 0
M  V30 7843 H 760.423 -5.37214 -1.12659 0
M  V30 7844 H 760.684 -3.90968 -2.0639 0
M  V30 7845 N 759.743 -0.201713 -1.56304 0
M  V30 7846 C 760.968 0.443815 -2.02596 0
M  V30 7847 C 761.393 1.53945 -1.08086 0
M  V30 7848 O 760.751 1.81182 -0.0655056 0
M  V30 7849 C 760.799 0.971066 -3.47279 0
M  V30 7850 O 759.903 2.0836 -3.55893 0
M  V30 7851 H 759.244 0.10294 -0.655972 0
M  V30 7852 H 761.774 -0.314533 -2.02168 0
M  V30 7853 H 761.784 1.28598 -3.87204 0
M  V30 7854 H 760.459 0.169048 -4.15556 0
M  V30 7855 H 759.036 1.77683 -3.27846 0
M  V30 7856 N 761.222 1.57436 0.0718424 0
M  V30 7857 C 762.152 2.06724 1.08571 0
M  V30 7858 C 763.133 0.960731 1.40371 0
M  V30 7859 O 764.318 1.23345 1.49999 0
M  V30 7860 C 761.448 2.51112 2.39916 0
M  V30 7861 C 760.402 3.65639 2.22469 0
M  V30 7862 C 759.728 3.96082 3.59198 0
M  V30 7863 C 761.028 4.95687 1.64596 0
M  V30 7864 H 762.722 2.91679 0.675569 0
M  V30 7865 H 760.268 1.40319 0.32352 0
M  V30 7866 H 762.221 2.84206 3.11135 0
M  V30 7867 H 760.945 1.63186 2.8291 0
M  V30 7868 H 759.604 3.32828 1.53691 0
M  V30 7869 H 759.252 3.05287 3.99761 0
M  V30 7870 H 758.952 4.73199 3.48362 0
M  V30 7871 H 760.476 4.31672 4.31847 0
M  V30 7872 H 761.89 5.27011 2.25681 0
M  V30 7873 H 760.287 5.77126 1.64457 0
M  V30 7874 H 761.357 4.8108 0.60744 0
M  V30 7875 N 762.7 -0.34323 1.53817 0
M  V30 7876 C 763.947 -1.08344 1.71079 0
M  V30 7877 C 764.275 -1.88633 0.474133 0
M  V30 7878 O 763.53 -1.87984 -0.544116 0
M  V30 7879 C 763.829 -2.05195 2.92626 0
M  V30 7880 C 763.495 -1.41215 4.28216 0
M  V30 7881 C 762.157 -1.23495 4.65083 0
M  V30 7882 C 764.509 -0.951273 5.12445 0
M  V30 7883 C 761.837 -0.583065 5.83796 0
M  V30 7884 C 764.189 -0.313292 6.31824 0
M  V30 7885 C 762.853 -0.123779 6.67385 0
M  V30 7886 H 762.123 -0.396458 0.626021 0
M  V30 7887 H 764.77 -0.362689 1.88034 0
M  V30 7888 H 763.075 -2.83653 2.70275 0
M  V30 7889 H 764.772 -2.62462 3.03175 0
M  V30 7890 H 761.362 -1.56005 3.992 0
M  V30 7891 H 765.546 -1.07602 4.84495 0
M  V30 7892 H 760.802 -0.424854 6.09922 0
M  V30 7893 H 764.976 0.0519179 6.96381 0
M  V30 7894 H 762.603 0.383398 7.59233 0
M  V30 7895 N 764.178 -1.45556 -0.604258 0
M  V30 7896 C 765.426 -1.4945 -1.36048 0
M  V30 7897 C 765.747 -0.138933 -1.94504 0
M  V30 7898 O 765.017 0.832097 -1.7735 0
M  V30 7899 H 763.597 -0.550381 -0.505064 0
M  V30 7900 H 766.259 -1.81535 -0.709308 0
M  V30 7901 H 765.355 -2.23519 -2.17821 0
M  V30 7902 N 765.656 0.84705 -1.32902 0
M  V30 7903 C 767.072 1.13645 -1.12058 0
M  V30 7904 C 767.272 2.01281 0.093937 0
M  V30 7905 O 766.328 2.4026 0.776608 0
M  V30 7906 C 767.641 1.80644 -2.40392 0
M  V30 7907 C 769.189 1.93246 -2.46221 0
M  V30 7908 C 769.664 2.6366 -3.74496 0
M  V30 7909 N 771.155 2.71179 -3.75521 0
M  V30 7910 C 771.89 3.26332 -4.71482 0
M  V30 7911 N 771.386 3.82236 -5.77813 0
M  V30 7912 N 773.179 3.24507 -4.58968 0
M  V30 7913 H 765.33 0.263612 -2.10758 0
M  V30 7914 H 767.593 0.17944 -0.930863 0
M  V30 7915 H 767.299 1.23708 -3.29225 0
M  V30 7916 H 767.173 2.80736 -2.51926 0
M  V30 7917 H 769.56 2.49338 -1.57843 0
M  V30 7918 H 769.641 0.921272 -2.38634 0
M  V30 7919 H 769.285 2.08229 -4.63253 0
M  V30 7920 H 769.215 3.65234 -3.79357 0
M  V30 7921 H 771.706 2.31527 -2.9867 0
M  V30 7922 H 772.019 4.22499 -6.47082 0
M  V30 7923 H 770.364 3.80546 -5.81558 0
M  V30 7924 H 773.555 2.80085 -3.7506 0
M  V30 7925 H 773.728 3.67188 -5.33926 0
M  V30 7926 N 767.134 1.16236 1.06428 0
M  V30 7927 C 768.411 0.853294 1.76006 0
M  V30 7928 C 768.791 -0.649162 2.00871 0
M  V30 7929 O 768.139 -1.59653 1.63472 0
M  V30 7930 C 768.349 1.67448 3.06206 0
M  V30 7931 C 769.697 1.8866 3.80385 0
M  V30 7932 O 770.721 1.64303 3.16043 0
M  V30 7933 O 769.58 2.29518 4.95968 0
M  V30 7934 H 766.674 0.314737 0.764767 0
M  V30 7935 H 769.22 1.26865 1.12709 0
M  V30 7936 H 767.992 2.69411 2.83784 0
M  V30 7937 H 767.615 1.25608 3.77238 0
M  V30 7938 N 768.612 -1.24939 0.960631 0
M  V30 7939 C 769.852 -1.94565 0.626414 0
M  V30 7940 C 770.216 -1.73505 -0.822184 0
M  V30 7941 O 771.417 -2.37105 -1.26628 0
M  V30 7942 C 769.688 -3.43631 0.982462 0
M  V30 7943 S 771.247 -4.32138 0.761726 0
M  V30 7944 H 768.065 -0.672757 0.230043 0
M  V30 7945 H 770.667 -1.51464 1.23608 0
M  V30 7946 H 769.371 -3.56463 2.03377 0
M  V30 7947 H 768.902 -3.91719 0.363286 0
M  V30 7948 H 770.917 -4.94859 -0.364493 0
M  V30 7949 N 770.09 -0.729906 -1.39679 0
M  V30 7950 C 771.315 -0.284345 -2.05442 0
M  V30 7951 C 771.74 1.07056 -1.54663 0
M  V30 7952 O 771.098 1.67732 -0.688157 0
M  V30 7953 C 771.146 -0.290089 -3.59431 0
M  V30 7954 O 770.25 0.723978 -4.05995 0
M  V30 7955 H 769.591 -0.130311 -0.651088 0
M  V30 7956 H 772.121 -0.994403 -1.78809 0
M  V30 7957 H 772.131 -0.132712 -4.07784 0
M  V30 7958 H 770.806 -1.27877 -3.95753 0
M  V30 7959 H 769.383 0.533154 -3.69069 0
M  V30 7960 N 771.568 1.50203 -0.477153 0
M  V30 7961 C 772.817 2.01551 0.0774548 0
M  V30 7962 C 773.13 1.36359 1.40234 0
M  V30 7963 O 774.336 1.78898 2.04225 0
M  V30 7964 C 772.792 3.59406 0.188539 0
M  V30 7965 C 772.4 4.3356 -1.12828 0
M  V30 7966 C 774.144 4.18776 0.694782 0
M  V30 7967 C 772.051 5.83213 -0.98066 0
M  V30 7968 H 770.981 0.75329 0.0327212 0
M  V30 7969 H 773.632 1.72959 -0.612969 0
M  V30 7970 H 772.014 3.84611 0.942881 0
M  V30 7971 H 773.188 4.20074 -1.89405 0
M  V30 7972 H 771.503 3.85827 -1.5661 0
M  V30 7973 H 774.1 5.28338 0.822356 0
M  V30 7974 H 774.443 3.80557 1.68766 0
M  V30 7975 H 774.976 3.978 -0.00234519 0
M  V30 7976 H 771.715 6.25914 -1.94709 0
M  V30 7977 H 771.235 5.99256 -0.255375 0
M  V30 7978 H 772.914 6.4373 -0.649717 0
M  V30 7979 N 773.046 0.209999 1.56195 0
M  V30 7980 C 773.978 -0.736967 2.17029 0
M  V30 7981 C 774.991 -1.16599 1.13616 0
M  V30 7982 O 776.18 -1.09914 1.40646 0
M  V30 7983 C 773.28 -2.00852 2.72969 0
M  V30 7984 C 772.453 -1.73691 4.01435 0
M  V30 7985 C 771.512 -2.85439 4.42053 0
M  V30 7986 O 770.538 -2.54405 5.09183 0
M  V30 7987 N 771.74 -4.14135 4.06783 0
M  V30 7988 H 774.505 -0.216656 2.98916 0
M  V30 7989 H 772.066 0.0285672 1.61875 0
M  V30 7990 H 774.058 -2.74778 2.97118 0
M  V30 7991 H 772.628 -2.43963 1.95451 0
M  V30 7992 H 771.848 -0.834676 3.85262 0
M  V30 7993 H 773.136 -1.52961 4.85263 0
M  V30 7994 H 772.534 -4.42196 3.52816 0
M  V30 7995 H 771.091 -4.84642 4.35851 0
M  V30 7996 N 774.524 -1.57472 -0.0634922 0
M  V30 7997 C 775.94 -1.54016 -0.418466 0
M  V30 7998 C 776.14 -0.931376 -1.78683 0
M  V30 7999 O 775.196 -0.537465 -2.46714 0
M  V30 8000 C 776.509 -2.98634 -0.351906 0
M  V30 8001 C 778.057 -3.10012 -0.431494 0
M  V30 8002 C 778.532 -4.56296 -0.394754 0
M  V30 8003 N 780.023 -4.60964 -0.454583 0
M  V30 8004 C 780.758 -5.71643 -0.448501 0
M  V30 8005 N 780.254 -6.91663 -0.396742 0
M  V30 8006 N 782.047 -5.5991 -0.495677 0
M  V30 8007 H 774.198 -1.95409 0.832408 0
M  V30 8008 H 776.461 -0.894769 0.313197 0
M  V30 8009 H 776.167 -3.46766 0.587048 0
M  V30 8010 H 776.041 -3.58955 -1.15893 0
M  V30 8011 H 778.428 -2.61848 -1.36087 0
M  V30 8012 H 778.509 -2.52585 0.404258 0
M  V30 8013 H 778.153 -5.05119 0.530811 0
M  V30 8014 H 778.083 -5.11594 -1.24815 0
M  V30 8015 H 780.574 -3.74598 -0.498496 0
M  V30 8016 H 780.887 -7.71783 -0.396256 0
M  V30 8017 H 779.232 -6.9405 -0.363304 0
M  V30 8018 H 782.423 -4.65046 -0.533864 0
M  V30 8019 H 782.596 -6.46164 -0.487469 0
M  V30 8020 N 776.003 0.335068 -1.53997 0
M  V30 8021 C 777.419 0.678704 -1.4445 0
M  V30 8022 C 777.619 1.92106 -0.608078 0
M  V30 8023 O 776.675 2.52292 -0.102373 0
M  V30 8024 C 777.988 0.863435 -2.88037 0
M  V30 8025 C 779.536 0.961513 -2.97866 0
M  V30 8026 C 780.011 1.1785 -4.42578 0
M  V30 8027 N 781.502 1.2455 -4.46141 0
M  V30 8028 C 782.237 1.43106 -5.55255 0
M  V30 8029 N 781.733 1.5878 -6.74359 0
M  V30 8030 N 783.526 1.45722 -5.42883 0
M  V30 8031 H 775.677 -0.481656 -2.06867 0
M  V30 8032 H 777.94 -0.153615 -0.935471 0
M  V30 8033 H 777.646 0.0219511 -3.51693 0
M  V30 8034 H 777.52 1.76268 -3.33481 0
M  V30 8035 H 779.907 1.79351 -2.34344 0
M  V30 8036 H 779.988 0.0389862 -2.5577 0
M  V30 8037 H 779.632 0.351397 -5.06683 0
M  V30 8038 H 779.562 2.11472 -4.82273 0
M  V30 8039 H 782.053 1.13928 -3.60318 0
M  V30 8040 H 782.366 1.72599 -7.53279 0
M  V30 8041 H 780.711 1.559 -6.77289 0
M  V30 8042 H 783.902 1.33065 -4.48789 0
M  V30 8043 H 784.075 1.59841 -6.27977 0
M  V30 8044 N 777.481 1.45874 0.596531 0
M  V30 8045 C 778.431 1.5181 1.70111 0
M  V30 8046 C 779.415 0.380293 1.56341 0
M  V30 8047 O 780.607 0.627849 1.6549 0
M  V30 8048 C 777.736 1.49822 3.08883 0
M  V30 8049 C 776.822 2.68845 3.27998 0
M  V30 8050 N 777.213 3.93873 3.17329 0
M  V30 8051 C 775.511 2.64777 3.589 0
M  V30 8052 C 776.212 4.73371 3.38076 0
M  V30 8053 N 775.188 4.0501 3.62585 0
M  V30 8054 H 778.99 2.46289 1.60372 0
M  V30 8055 H 776.504 1.41321 0.800138 0
M  V30 8056 H 778.501 1.5216 3.8814 0
M  V30 8057 H 777.161 0.564086 3.19763 0
M  V30 8058 H 778.172 4.25329 2.95492 0
M  V30 8059 H 774.849 1.80323 3.7655 0
M  V30 8060 H 776.239 5.82357 3.35127 0
M  V30 8061 N 778.959 -0.83999 1.33349 0
M  V30 8062 C 779.891 -1.95678 1.19344 0
M  V30 8063 C 780.904 -1.62322 0.124692 0
M  V30 8064 O 782.093 -1.74516 0.375012 0
M  V30 8065 C 779.193 -3.29133 0.807771 0
M  V30 8066 C 778.366 -3.9063 1.96792 0
M  V30 8067 C 777.425 -5.02438 1.56341 0
M  V30 8068 O 776.451 -5.21646 2.27759 0
M  V30 8069 N 777.653 -5.78612 0.467767 0
M  V30 8070 H 780.418 -2.08229 2.15548 0
M  V30 8071 H 777.979 -1.01566 1.26079 0
M  V30 8072 H 779.971 -4.01355 0.519282 0
M  V30 8073 H 778.541 -3.12535 -0.063555 0
M  V30 8074 H 777.761 -3.11011 2.4221 0
M  V30 8075 H 779.049 -4.2845 2.74422 0
M  V30 8076 H 778.447 -5.65559 -0.126324 0
M  V30 8077 H 777.004 -6.51362 0.238945 0
M  V30 8078 N 780.437 -1.16799 -1.0581 0
M  V30 8079 C 781.384 -0.87902 -2.13405 0
M  V30 8080 C 782.354 0.174541 -1.6518 0
M  V30 8081 O 783.539 0.0386843 -1.90761 0
M  V30 8082 C 780.679 -0.391616 -3.42871 0
M  V30 8083 C 779.792 -1.50857 -4.04804 0
M  V30 8084 C 778.927 -0.975682 -5.22163 0
M  V30 8085 C 777.966 -2.06851 -5.76089 0
M  V30 8086 N 777.103 -1.55085 -6.84758 0
M  V30 8087 H 781.943 -1.80043 -2.37463 0
M  V30 8088 H 779.48 -0.898083 -1.16503 0
M  V30 8089 H 781.438 -0.0906247 -4.17102 0
M  V30 8090 H 780.068 0.49284 -3.19016 0
M  V30 8091 H 779.12 -1.92542 -3.28073 0
M  V30 8092 H 780.432 -2.33305 -4.40874 0
M  V30 8093 H 779.586 -0.628165 -6.03439 0
M  V30 8094 H 778.325 -0.120566 -4.87551 0
M  V30 8095 H 777.33 -2.42467 -4.93447 0
M  V30 8096 H 778.555 -2.92768 -6.12751 0
M  V30 8097 H 776.501 -0.718345 -6.52055 0
M  V30 8098 H 776.418 -2.31145 -7.19797 0
M  V30 8099 H 777.686 -1.23206 -7.69702 0
M  V30 8100 N 781.915 1.24427 -0.967243 0
M  V30 8101 C 783.164 1.91789 -0.624478 0
M  V30 8102 C 783.477 1.76448 0.844129 0
M  V30 8103 O 784.683 2.38495 1.2974 0
M  V30 8104 C 783.139 3.43743 -1.06626 0
M  V30 8105 C 782.747 3.67771 -2.55829 0
M  V30 8106 C 784.491 4.16958 -0.79662 0
M  V30 8107 C 782.398 5.13293 -2.93742 0
M  V30 8108 H 781.328 0.71811 -0.229856 0
M  V30 8109 H 783.979 1.41081 -1.17339 0
M  V30 8110 H 782.361 3.93484 -0.445663 0
M  V30 8111 H 783.535 3.28631 -3.23015 0
M  V30 8112 H 781.85 3.07841 -2.80398 0
M  V30 8113 H 784.447 5.24171 -1.05589 0
M  V30 8114 H 784.79 4.15442 0.267163 0
M  V30 8115 H 785.323 3.73164 -1.37816 0
M  V30 8116 H 782.062 5.19931 -3.9919 0
M  V30 8117 H 781.582 5.53433 -2.3124 0
M  V30 8118 H 783.261 5.81521 -2.83623 0
M  V30 8119 N 783.393 0.737304 1.3929 0
M  V30 8120 C 784.639 0.286681 2.00763 0
M  V30 8121 C 784.972 -1.12388 1.58375 0
M  V30 8122 O 784.247 -1.76661 0.813699 0
M  V30 8123 C 784.53 0.391147 3.57969 0
M  V30 8124 C 784.383 1.84165 4.1037 0
M  V30 8125 C 785.702 -0.225072 4.39524 0
M  V30 8126 H 782.821 0.105642 0.729389 0
M  V30 8127 H 785.463 0.933892 1.65464 0
M  V30 8128 H 783.613 -0.159875 3.88171 0
M  V30 8129 H 785.285 2.44972 3.90879 0
M  V30 8130 H 783.528 2.3622 3.63844 0
M  V30 8131 H 784.199 1.866 5.19504 0
M  V30 8132 H 786.675 0.244677 4.1538 0
M  V30 8133 H 785.551 -0.121646 5.48765 0
M  V30 8134 H 785.812 -1.31141 4.22202 0
M  V30 8135 N 784.871 -1.49948 0.485112 0
M  V30 8136 C 785.781 -2.32587 -0.306697 0
M  V30 8137 C 786.797 -1.43598 -0.982632 0
M  V30 8138 O 787.973 -1.76638 -0.967519 0
M  V30 8139 C 785.038 -3.18638 -1.3664 0
M  V30 8140 C 784.099 -4.23462 -0.705589 0
M  V30 8141 C 783.332 -5.05401 -1.7148 0
M  V30 8142 O 783.555 -4.88618 -2.94293 0
M  V30 8143 O 782.489 -5.88157 -1.27889 0
M  V30 8144 H 786.315 -3.01447 0.369272 0
M  V30 8145 H 783.9 -1.47349 0.246709 0
M  V30 8146 H 785.782 -3.71992 -1.9799 0
M  V30 8147 H 784.457 -2.52491 -2.02559 0
M  V30 8148 H 783.364 -3.74063 -0.0527733 0
M  V30 8149 H 784.697 -4.92119 -0.0891187 0
M  V30 8150 N 786.349 -0.21828 -1.56081 0
M  V30 8151 C 787.259 0.704602 -2.23769 0
M  V30 8152 C 788.275 1.21633 -1.24425 0
M  V30 8153 O 789.451 1.25862 -1.57228 0
M  V30 8154 C 786.516 1.89725 -2.90182 0
M  V30 8155 C 785.577 1.42782 -4.0486 0
M  V30 8156 C 784.81 2.56361 -4.68097 0
M  V30 8157 O 785.033 3.74417 -4.30312 0
M  V30 8158 O 783.967 2.2775 -5.57148 0
M  V30 8159 H 787.793 0.158007 -3.03289 0
M  V30 8160 H 785.378 0.0120279 -1.49395 0
M  V30 8161 H 787.26 2.59382 -3.32113 0
M  V30 8162 H 785.935 2.432 -2.13624 0
M  V30 8163 H 784.842 0.699359 -3.67505 0
M  V30 8164 H 786.175 0.939474 -4.83151 0
M  V30 8165 N 787.827 1.57504 0.0551401 0
M  V30 8166 C 788.79 2.03826 1.04821 0
M  V30 8167 C 789.79 0.937968 1.30609 0
M  V30 8168 O 790.98 1.20237 1.2605 0
M  V30 8169 C 788.112 2.43309 2.38775 0
M  V30 8170 H 789.305 2.92802 0.6486 0
M  V30 8171 H 786.858 1.53368 0.301315 0
M  V30 8172 H 787.593 1.5741 2.83536 0
M  V30 8173 H 787.378 3.23615 2.21395 0
M  V30 8174 H 788.868 2.79666 3.10124 0
M  V30 8175 N 789.305 -0.326896 1.54172 0
M  V30 8176 C 790.716 -0.901533 1.63491 0
M  V30 8177 C 791.067 -1.88994 0.52684 0
M  V30 8178 O 790.192 -2.137 -0.340794 0
M  V30 8179 C 790.787 -1.64192 2.96355 0
M  V30 8180 C 789.346 -2.16533 3.07881 0
M  V30 8181 C 788.493 -0.98966 2.59039 0
M  V30 8182 H 791.444 -0.104568 1.58355 0
M  V30 8183 H 791.465 -2.50592 2.86328 0
M  V30 8184 H 790.977 -0.922291 3.76982 0
M  V30 8185 H 789.078 -2.91622 2.31922 0
M  V30 8186 H 789.191 -2.41762 4.13628 0
M  V30 8187 H 787.555 -1.36787 2.14852 0
M  V30 8188 H 788.338 -0.284401 3.4212 0
M  V30 8189 N 790.784 -1.46188 -0.588786 0
M  V30 8190 C 791.747 -1.55882 -1.68029 0
M  V30 8191 C 792.747 -0.436515 -1.54762 0
M  V30 8192 O 793.937 -0.700626 -1.59489 0
M  V30 8193 C 791.069 -1.47332 -3.07418 0
M  V30 8194 H 792.262 -2.5315 -1.60795 0
M  V30 8195 H 789.815 -1.33908 -0.806116 0
M  V30 8196 H 790.55 -0.513193 -3.20214 0
M  V30 8197 H 790.335 -2.28753 -3.18456 0
M  V30 8198 H 791.825 -1.57187 -3.86887 0
M  V30 8199 N 792.262 0.832906 -1.33792 0
M  V30 8200 C 793.49 1.62048 -1.28639 0
M  V30 8201 C 793.905 1.88269 0.141522 0
M  V30 8202 O 793.262 1.46706 1.08553 0
M  V30 8203 C 793.313 2.96722 -2.0649 0
M  V30 8204 O 793.034 2.7165 -3.43712 0
M  V30 8205 C 794.535 3.91144 -2.08617 0
M  V30 8206 H 791.755 0.504032 -0.442937 0
M  V30 8207 H 794.299 1.03704 -1.76255 0
M  V30 8208 H 792.454 3.51652 -1.62541 0
M  V30 8209 H 792.868 3.57453 -3.83833 0
M  V30 8210 H 794.342 4.82837 -2.67531 0
M  V30 8211 H 794.819 4.25766 -1.07796 0
M  V30 8212 H 795.425 3.42152 -2.52611 0
M  V30 8213 N 793.74 1.17359 1.05189 0
M  V30 8214 C 794.989 0.956412 1.77583 0
M  V30 8215 C 795.302 -0.516018 1.88671 0
M  V30 8216 O 796.508 -0.851401 2.57805 0
M  V30 8217 C 794.964 1.66203 3.19225 0
M  V30 8218 C 794.572 3.17299 3.16267 0
M  V30 8219 C 796.316 1.52725 3.96075 0
M  V30 8220 C 794.223 3.8055 4.52698 0
M  V30 8221 H 793.153 0.354204 0.665624 0
M  V30 8222 H 795.804 1.40612 1.17901 0
M  V30 8223 H 794.186 1.14006 3.79234 0
M  V30 8224 H 795.36 3.76431 2.65776 0
M  V30 8225 H 793.675 3.3079 2.52917 0
M  V30 8226 H 796.272 1.97351 4.96947 0
M  V30 8227 H 796.615 0.477803 4.13549 0
M  V30 8228 H 797.148 2.02139 3.42614 0
M  V30 8229 H 793.887 4.85492 4.4043 0
M  V30 8230 H 793.407 3.26206 5.03339 0
M  V30 8231 H 795.086 3.82757 5.21638 0
M  V30 8232 N 795.218 -1.23913 0.973828 0
M  V30 8233 C 796.181 -2.23367 0.51378 0
M  V30 8234 C 797.181 -1.55923 -0.39302 0
M  V30 8235 O 798.371 -1.73187 -0.187626 0
M  V30 8236 C 795.503 -3.39944 -0.255152 0
M  V30 8237 H 796.696 -2.65581 1.39307 0
M  V30 8238 H 794.249 -1.36632 0.759039 0
M  V30 8239 H 794.984 -3.03177 -1.15127 0
M  V30 8240 H 794.769 -3.90098 0.395673 0
M  V30 8241 H 796.259 -4.13749 -0.565842 0
M  V30 8242 N 796.696 -0.74468 -1.38897 0
M  V30 8243 C 798.107 -0.36568 -1.83084 0
M  V30 8244 C 798.458 1.10436 -1.62168 0
M  V30 8245 O 797.583 1.85281 -1.11804 0
M  V30 8246 C 798.178 -0.656946 -3.3237 0
M  V30 8247 C 796.737 -0.331329 -3.74939 0
M  V30 8248 C 795.884 -0.914661 -2.61781 0
M  V30 8249 H 798.835 -0.941551 -1.27752 0
M  V30 8250 H 798.856 0.0679546 -3.80439 0
M  V30 8251 H 798.368 -1.72693 -3.47561 0
M  V30 8252 H 796.469 0.732426 -3.6533 0
M  V30 8253 H 796.582 -0.820655 -4.72019 0
M  V30 8254 H 794.946 -0.34063 -2.52412 0
M  V30 8255 H 795.729 -1.98949 -2.79775 0
M  V30 8256 N 798.174 1.49689 -0.493057 0
M  V30 8257 C 799.104 2.31826 0.279073 0
M  V30 8258 C 800.085 1.39733 0.969987 0
M  V30 8259 O 801.27 1.68646 0.962925 0
M  V30 8260 C 798.4 3.20046 1.34862 0
M  V30 8261 C 797.354 4.20869 0.77805 0
M  V30 8262 C 796.68 4.97971 1.94753 0
M  V30 8263 C 797.98 5.21813 -0.225543 0
M  V30 8264 H 799.674 2.96627 -0.406512 0
M  V30 8265 H 797.22 1.42647 -0.196943 0
M  V30 8266 H 799.173 3.76315 1.89645 0
M  V30 8267 H 797.897 2.53172 2.06328 0
M  V30 8268 H 796.556 3.65733 0.252036 0
M  V30 8269 H 796.204 4.27552 2.64969 0
M  V30 8270 H 795.904 5.66186 1.57187 0
M  V30 8271 H 797.428 5.57082 2.49984 0
M  V30 8272 H 798.842 5.72823 0.233864 0
M  V30 8273 H 797.239 5.97872 -0.516622 0
M  V30 8274 H 798.309 4.71209 -1.14412 0
M  V30 8275 N 799.652 0.226554 1.55963 0
M  V30 8276 C 800.615 -0.668015 2.19249 0
M  V30 8277 C 801.615 -1.11794 1.1558 0
M  V30 8278 O 802.805 -1.02593 1.40784 0
M  V30 8279 C 799.937 -1.91571 2.81981 0
M  V30 8280 H 801.13 -0.116175 2.99675 0
M  V30 8281 H 798.683 -0.0230497 1.56283 0
M  V30 8282 H 799.418 -2.50929 2.05439 0
M  V30 8283 H 799.203 -1.6015 3.57903 0
M  V30 8284 H 800.693 -2.55294 3.30477 0
M  V30 8285 N 801.13 -1.57531 -0.0467866 0
M  V30 8286 C 802.379 -1.87632 -0.740069 0
M  V30 8287 C 802.692 -0.822691 -1.77457 0
M  V30 8288 O 803.898 -1.01235 -2.5192 0
M  V30 8289 C 802.354 -3.32917 -1.36727 0
M  V30 8290 C 801.962 -4.46469 -0.370035 0
M  V30 8291 C 803.706 -3.72189 -2.04146 0
M  V30 8292 C 801.613 -5.82806 -1.00457 0
M  V30 8293 H 800.543 -0.70002 -0.280158 0
M  V30 8294 H 803.194 -1.83499 0.00607151 0
M  V30 8295 H 801.576 -3.31739 -2.16252 0
M  V30 8296 H 802.75 -4.59085 0.397217 0
M  V30 8297 H 801.065 -4.15914 0.201079 0
M  V30 8298 H 803.662 -4.71357 -2.52441 0
M  V30 8299 H 804.005 -3.03268 -2.85192 0
M  V30 8300 H 804.538 -3.75465 -1.3142 0
M  V30 8301 H 801.277 -6.55083 -0.233907 0
M  V30 8302 H 800.797 -5.73944 -1.74209 0
M  V30 8303 H 802.476 -6.28961 -1.51713 0
M  V30 8304 N 802.608 0.318715 -1.54344 0
M  V30 8305 C 803.855 1.05608 -1.72781 0
M  V30 8306 C 804.183 1.87854 -0.504083 0
M  V30 8307 O 803.438 1.88826 0.51414 0
M  V30 8308 C 803.737 2.00514 -2.95853 0
M  V30 8309 C 803.403 1.34385 -4.30409 0
M  V30 8310 C 802.065 1.16081 -4.66989 0
M  V30 8311 C 804.417 0.869627 -5.13894 0
M  V30 8312 C 801.745 0.490114 -5.84649 0
M  V30 8313 C 804.097 0.212735 -6.32242 0
M  V30 8314 C 802.761 0.0175882 -6.67498 0
M  V30 8315 H 802.031 0.386449 -0.632249 0
M  V30 8316 H 804.678 0.332729 -1.88587 0
M  V30 8317 H 802.983 2.79317 -2.74753 0
M  V30 8318 H 804.68 2.57605 -3.07312 0
M  V30 8319 H 801.27 1.49634 -4.01631 0
M  V30 8320 H 805.454 0.998809 -4.86146 0
M  V30 8321 H 800.71 0.327767 -6.10521 0
M  V30 8322 H 804.884 -0.162699 -6.9621 0
M  V30 8323 H 802.511 -0.504137 -7.58527 0
M  V30 8324 N 804.086 1.46499 0.581025 0
M  V30 8325 C 804.996 1.59778 1.71779 0
M  V30 8326 C 806.012 0.481223 1.67213 0
M  V30 8327 O 807.188 0.74557 1.87091 0
M  V30 8328 C 804.253 1.58626 3.08283 0
M  V30 8329 C 803.314 2.81527 3.241 0
M  V30 8330 C 802.547 2.80421 4.54092 0
M  V30 8331 O 802.77 1.89262 5.38085 0
M  V30 8332 O 801.704 3.71984 4.73193 0
M  V30 8333 H 805.53 2.55918 1.63523 0
M  V30 8334 H 803.115 1.29311 0.748267 0
M  V30 8335 H 804.997 1.60686 3.89561 0
M  V30 8336 H 803.672 0.656467 3.16973 0
M  V30 8337 H 802.579 2.85021 2.42309 0
M  V30 8338 H 803.912 3.73721 3.20302 0
M  V30 8339 N 805.565 -0.825799 1.34232 0
M  V30 8340 C 806.812 -1.58185 1.26427 0
M  V30 8341 C 807.14 -1.93786 -0.166533 0
M  V30 8342 O 806.395 -1.59986 -1.12707 0
M  V30 8343 C 806.694 -2.89362 2.09772 0
M  V30 8344 C 806.36 -2.73066 3.58812 0
M  V30 8345 C 805.022 -2.68329 3.99441 0
M  V30 8346 C 807.374 -2.56946 4.53462 0
M  V30 8347 C 804.702 -2.4539 5.32917 0
M  V30 8348 C 807.054 -2.35538 5.87115 0
M  V30 8349 C 805.718 -2.29212 6.26912 0
M  V30 8350 H 804.988 -0.57884 0.462629 0
M  V30 8351 H 807.635 -0.955714 1.65947 0
M  V30 8352 H 805.94 -3.56251 1.63071 0
M  V30 8353 H 807.637 -3.4694 2.01081 0
M  V30 8354 H 804.227 -2.77591 3.26559 0
M  V30 8355 H 808.411 -2.59631 4.22972 0
M  V30 8356 H 803.667 -2.38947 5.62774 0
M  V30 8357 H 807.841 -2.22051 6.6005 0
M  V30 8358 H 805.468 -2.11197 7.30274 0
M  V30 8359 N 807.043 -1.17915 -1.04565 0
M  V30 8360 C 807.976 -0.845021 -2.11978 0
M  V30 8361 C 808.954 0.19089 -1.61476 0
M  V30 8362 O 810.138 0.0709905 -1.88366 0
M  V30 8363 C 807.265 -0.261657 -3.37688 0
M  V30 8364 C 806.311 -1.27396 -4.07029 0
M  V30 8365 S 807.144 -2.82783 -4.54746 0
M  V30 8366 C 808.3 -2.25944 -5.83695 0
M  V30 8367 H 808.533 -1.75472 -2.39993 0
M  V30 8368 H 806.066 -1.00447 -1.17259 0
M  V30 8369 H 808.024 0.0684257 -4.10443 0
M  V30 8370 H 806.685 0.626082 -3.07797 0
M  V30 8371 H 805.878 -0.814557 -4.97374 0
M  V30 8372 H 805.48 -1.55002 -3.40368 0
M  V30 8373 H 807.772 -1.63892 -6.57378 0
M  V30 8374 H 808.715 -3.14569 -6.34391 0
M  V30 8375 H 809.123 -1.69155 -5.3856 0
M  V30 8376 N 808.521 1.23394 -0.980386 0
M  V30 8377 C 809.431 2.28561 -0.528864 0
M  V30 8378 C 810.447 1.68946 0.416329 0
M  V30 8379 O 811.623 1.99355 0.286251 0
M  V30 8380 C 808.688 3.46323 0.16155 0
M  V30 8381 C 807.749 4.21297 -0.825044 0
M  V30 8382 C 806.982 5.33437 -0.167483 0
M  V30 8383 O 807.205 5.60812 1.04146 0
M  V30 8384 O 806.139 5.95637 -0.866047 0
M  V30 8385 H 809.965 2.69326 -1.40346 0
M  V30 8386 H 807.55 1.29325 -0.748019 0
M  V30 8387 H 809.432 4.17811 0.548841 0
M  V30 8388 H 808.107 3.0751 1.01092 0
M  V30 8389 H 807.014 3.52134 -1.26303 0
M  V30 8390 H 808.347 4.6396 -1.64322 0
M  V30 8391 N 809.999 0.752036 1.385 0
M  V30 8392 C 810.931 0.0835089 2.29048 0
M  V30 8393 C 811.944 -0.685402 1.47669 0
M  V30 8394 O 813.133 -0.526748 1.70551 0
M  V30 8395 C 810.233 -0.905772 3.26572 0
M  V30 8396 C 809.406 -0.194828 4.36966 0
M  V30 8397 C 808.465 -1.09464 5.14688 0
M  V30 8398 O 807.491 -0.565743 5.66381 0
M  V30 8399 N 808.693 -2.42287 5.2752 0
M  V30 8400 H 811.458 0.861142 2.87062 0
M  V30 8401 H 809.019 0.602689 1.50264 0
M  V30 8402 H 811.011 -1.51072 3.75446 0
M  V30 8403 H 809.581 -1.58449 2.69467 0
M  V30 8404 H 808.801 0.590812 3.89747 0
M  V30 8405 H 810.089 0.297189 5.07931 0
M  V30 8406 H 809.487 -2.87715 4.8707 0
M  V30 8407 H 808.044 -2.97836 5.79773 0
M  V30 8408 N 811.477 -1.49425 0.500989 0
M  V30 8409 C 812.717 -2.04357 -0.0419004 0
M  V30 8410 C 813.081 -1.37236 -1.34277 0
M  V30 8411 O 814.282 -1.82889 -1.9699 0
M  V30 8412 C 812.553 -3.56889 -0.19112 0
M  V30 8413 S 814.112 -4.33369 -0.688259 0
M  V30 8414 H 810.93 -0.710998 -0.00177796 0
M  V30 8415 H 813.532 -1.83479 0.674953 0
M  V30 8416 H 812.236 -4.03283 0.760964 0
M  V30 8417 H 811.767 -3.82171 -0.933214 0
M  V30 8418 H 813.782 -4.55961 -1.9574 0
M  V30 8419 N 812.955 -0.234822 -1.55841 0
M  V30 8420 C 813.918 0.656378 -2.196 0
M  V30 8421 C 814.918 1.11179 -1.16171 0
M  V30 8422 O 816.108 1.01845 -1.41326 0
M  V30 8423 C 813.24 1.90072 -2.82993 0
M  V30 8424 H 814.433 0.100281 -2.99732 0
M  V30 8425 H 811.986 0.0147613 -1.56293 0
M  V30 8426 H 812.721 2.49836 -2.06767 0
M  V30 8427 H 812.506 1.5825 -3.58747 0
M  V30 8428 H 813.996 2.53538 -3.31826 0
M  V30 8429 N 814.433 1.57553 0.0384317 0
M  V30 8430 C 815.682 1.88022 0.730108 0
M  V30 8431 C 815.995 0.83209 1.77019 0
M  V30 8432 O 817.201 1.0257 2.51379 0
M  V30 8433 C 815.657 3.33637 1.3496 0
M  V30 8434 C 815.265 4.46659 0.346352 0
M  V30 8435 C 817.009 3.73266 2.02169 0
M  V30 8436 C 814.916 5.8333 0.973652 0
M  V30 8437 H 813.846 0.701496 0.276442 0
M  V30 8438 H 816.497 1.83493 -0.0158028 0
M  V30 8439 H 814.879 3.32882 2.1449 0
M  V30 8440 H 816.053 4.58868 -0.421558 0
M  V30 8441 H 814.368 4.15802 -0.223133 0
M  V30 8442 H 816.965 4.72689 2.49938 0
M  V30 8443 H 817.308 3.04776 2.8358 0
M  V30 8444 H 817.841 3.76156 1.29427 0
M  V30 8445 H 814.58 6.55197 0.199163 0
M  V30 8446 H 814.1 5.7486 1.71162 0
M  V30 8447 H 815.779 6.29757 1.48376 0
M  V30 8448 N 815.911 -0.310526 1.54511 0
M  V30 8449 C 817.327 -0.655637 1.45511 0
M  V30 8450 C 817.527 -1.91114 0.638564 0
M  V30 8451 O 816.583 -2.52098 0.142497 0
M  V30 8452 C 817.896 -0.817501 2.89374 0
M  V30 8453 C 819.444 -0.914003 2.99358 0
M  V30 8454 C 819.919 -1.10794 4.44397 0
M  V30 8455 N 821.41 -1.17437 4.48066 0
M  V30 8456 C 822.145 -1.34255 5.57461 0
M  V30 8457 N 821.641 -1.48032 6.768 0
M  V30 8458 N 823.434 -1.37067 5.45132 0
M  V30 8459 H 815.585 0.514506 2.06074 0
M  V30 8460 H 817.848 0.168478 0.932909 0
M  V30 8461 H 817.554 0.034003 3.51684 0
M  V30 8462 H 817.428 -1.7094 3.36243 0
M  V30 8463 H 819.815 -1.756 2.37168 0
M  V30 8464 H 819.896 0.00170958 2.558 0
M  V30 8465 H 819.54 -0.270743 5.07178 0
M  V30 8466 H 819.47 -2.03773 4.85576 0
M  V30 8467 H 821.961 -1.08181 3.62084 0
M  V30 8468 H 822.274 -1.60593 7.5593 0
M  V30 8469 H 820.619 -1.45105 6.79683 0
M  V30 8470 H 823.81 -1.25909 4.50849 0
M  V30 8471 H 823.983 -1.49831 6.3044 0
M  V30 8472 N 817.389 -1.46805 -0.573248 0
M  V30 8473 C 818.319 -1.60951 -1.69165 0
M  V30 8474 C 819.3 -0.45948 -1.63777 0
M  V30 8475 O 820.485 -0.68688 -1.81647 0
M  V30 8476 C 817.615 -1.60844 -3.07809 0
M  V30 8477 C 816.569 -2.74913 -3.28035 0
M  V30 8478 C 815.895 -2.59871 -4.67302 0
M  V30 8479 C 817.195 -4.16654 -3.14955 0
M  V30 8480 H 818.889 -2.54574 -1.57582 0
M  V30 8481 H 816.435 -1.22516 -0.756686 0
M  V30 8482 H 818.388 -1.69334 -3.85881 0
M  V30 8483 H 817.112 -0.637714 -3.20314 0
M  V30 8484 H 815.771 -2.65908 -2.52366 0
M  V30 8485 H 815.419 -1.60861 -4.76585 0
M  V30 8486 H 815.119 -3.36386 -4.81786 0
M  V30 8487 H 816.643 -2.70265 -5.4753 0
M  V30 8488 H 818.057 -4.26721 -3.82861 0
M  V30 8489 H 816.454 -4.93831 -3.40956 0
M  V30 8490 H 817.524 -4.36146 -2.11908 0
M  V30 8491 N 818.867 0.818669 -1.34668 0
M  V30 8492 C 819.83 1.9114 -1.26483 0
M  V30 8493 C 820.83 1.598 -0.179044 0
M  V30 8494 O 822.02 1.6876 -0.431952 0
M  V30 8495 C 819.152 3.27285 -0.95381 0
M  V30 8496 H 820.345 1.9982 -2.23634 0
M  V30 8497 H 817.898 1.01314 -1.19018 0
M  V30 8498 H 818.633 3.24297 0.0143428 0
M  V30 8499 H 818.418 3.51416 -1.73924 0
M  V30 8500 H 819.908 4.07299 -0.921827 0
M  V30 8501 N 820.346 1.18468 1.03938 0
M  V30 8502 C 821.293 0.912859 2.1198 0
M  V30 8503 C 822.263 -0.14824 1.65437 0
M  V30 8504 O 823.448 -0.008331 1.90798 0
M  V30 8505 C 820.588 0.446114 3.42204 0
M  V30 8506 C 819.701 1.57278 4.02353 0
M  V30 8507 C 818.836 1.05863 5.20544 0
M  V30 8508 C 817.875 2.1599 5.72726 0
M  V30 8509 N 817.012 1.65959 6.82204 0
M  V30 8510 H 821.852 1.83798 2.34569 0
M  V30 8511 H 819.389 0.916504 1.15059 0
M  V30 8512 H 821.347 0.15697 4.16905 0
M  V30 8513 H 819.977 -0.442025 3.19759 0
M  V30 8514 H 819.029 1.97737 3.24968 0
M  V30 8515 H 820.341 2.40289 4.37107 0
M  V30 8516 H 819.495 0.724087 6.02364 0
M  V30 8517 H 818.234 0.198116 4.87297 0
M  V30 8518 H 817.239 2.50287 4.89527 0
M  V30 8519 H 818.464 3.02479 6.08016 0
M  V30 8520 H 816.41 0.82199 6.5083 0
M  V30 8521 H 816.327 2.42567 7.16029 0
M  V30 8522 H 817.595 1.35436 7.67644 0
M  V30 8523 N 821.824 -1.22873 0.986916 0
M  V30 8524 C 823.052 -1.95487 0.677663 0
M  V30 8525 C 823.467 -1.72978 -0.756572 0
M  V30 8526 O 822.824 -1.02517 -1.50985 0
M  V30 8527 C 822.875 -3.48337 0.966638 0
M  V30 8528 O 822.596 -3.70087 2.34451 0
M  V30 8529 C 824.097 -4.38142 0.674248 0
M  V30 8530 H 821.317 -0.622211 0.251185 0
M  V30 8531 H 823.861 -1.56187 1.32007 0
M  V30 8532 H 822.016 -3.85628 0.370137 0
M  V30 8533 H 822.43 -4.64332 2.43918 0
M  V30 8534 H 823.904 -5.44165 0.926759 0
M  V30 8535 H 824.381 -4.3745 -0.391728 0
M  V30 8536 H 824.987 -4.06469 1.25152 0
M  V30 8537 N 823.302 -0.75937 -1.38099 0
M  V30 8538 C 824.548 -0.318584 -2.00282 0
M  V30 8539 C 824.881 1.09854 -1.60143 0
M  V30 8540 O 824.156 1.75344 -0.841702 0
M  V30 8541 C 824.439 -0.448047 -3.57302 0
M  V30 8542 C 824.292 -1.9067 -4.07388 0
M  V30 8543 C 825.611 0.155119 -4.39827 0
M  V30 8544 H 822.73 -0.117233 -0.727616 0
M  V30 8545 H 825.372 -0.960097 -1.63958 0
M  V30 8546 H 823.522 0.0981003 -3.88376 0
M  V30 8547 H 825.194 -2.5116 -3.86932 0
M  V30 8548 H 823.437 -2.41979 -3.6004 0
M  V30 8549 H 824.108 -1.94841 -5.1647 0
M  V30 8550 H 826.584 -0.31073 -4.14938 0
M  V30 8551 H 825.46 0.0343264 -5.48889 0
M  V30 8552 H 825.721 1.24407 -4.24235 0
M  V30 8553 N 824.78 1.49157 -0.508906 0
M  V30 8554 C 826.028 2.02073 0.0327335 0
M  V30 8555 C 826.349 1.39012 1.3675 0
M  V30 8556 O 825.619 0.548153 1.88075 0
M  V30 8557 H 824.199 0.746848 0.0150864 0
M  V30 8558 H 826.861 1.83097 -0.667946 0
M  V30 8559 H 825.957 3.11707 0.1566 0
M  V30 8560 N 826.258 0.243083 1.55714 0
M  V30 8561 C 827.488 -0.38641 2.02954 0
M  V30 8562 C 827.896 -1.52358 1.12177 0
M  V30 8563 O 827.239 -1.83255 0.127853 0
M  V30 8564 C 827.301 -0.959388 3.46462 0
M  V30 8565 C 826.965 0.0450546 4.56978 0
M  V30 8566 C 827.962 0.853224 5.12851 0
M  V30 8567 C 825.647 0.170041 5.02012 0
M  V30 8568 C 827.641 1.77288 6.12248 0
M  V30 8569 C 825.328 1.0932 6.01242 0
M  V30 8570 C 826.326 1.89315 6.56238 0
M  V30 8571 O 826.014 2.80075 7.53534 0
M  V30 8572 H 825.746 -0.0964333 0.669086 0
M  V30 8573 H 828.3 0.363399 2.0216 0
M  V30 8574 H 826.53 -1.75869 3.44394 0
M  V30 8575 H 828.219 -1.49856 3.77224 0
M  V30 8576 H 828.985 0.767229 4.78893 0
M  V30 8577 H 824.864 -0.442528 4.58871 0
M  V30 8578 H 828.408 2.39768 6.55101 0
M  V30 8579 H 824.305 1.18013 6.3462 0
M  V30 8580 H 825.073 2.74393 7.71136 0
M  V30 8581 N 827.736 -1.57571 -0.0300757 0
M  V30 8582 C 828.982 -1.89506 -0.722159 0
M  V30 8583 C 829.315 -0.840699 -1.7506 0
M  V30 8584 O 828.59 0.144358 -1.93964 0
M  V30 8585 C 828.873 -3.32081 -1.39262 0
M  V30 8586 C 828.726 -4.48211 -0.377768 0
M  V30 8587 C 830.045 -3.73557 -2.32687 0
M  V30 8588 H 827.164 -0.689213 -0.261064 0
M  V30 8589 H 829.806 -1.89994 0.0150388 0
M  V30 8590 H 827.956 -3.31796 -2.02098 0
M  V30 8591 H 829.628 -4.6063 0.248591 0
M  V30 8592 H 827.871 -4.3274 0.303045 0
M  V30 8593 H 828.542 -5.44854 -0.885347 0
M  V30 8594 H 831.018 -3.75202 -1.79896 0
M  V30 8595 H 829.894 -4.74125 -2.7658 0
M  V30 8596 H 830.155 -3.05759 -3.19317 0
M  V30 8597 N 829.214 0.302327 -1.54673 0
M  V30 8598 C 830.439 1.06103 -1.78205 0
M  V30 8599 C 830.864 1.80204 -0.53926 0
M  V30 8600 O 830.222 1.73975 0.510142 0
M  V30 8601 C 830.27 2.01829 -2.98827 0
M  V30 8602 O 829.374 3.10108 -2.71858 0
M  V30 8603 H 828.715 0.30487 -0.589873 0
M  V30 8604 H 831.245 0.340153 -2.01753 0
M  V30 8605 H 831.255 2.44319 -3.2676 0
M  V30 8606 H 829.93 1.473 -3.88942 0
M  V30 8607 H 828.507 2.72142 -2.54937 0
M  V30 8608 N 830.692 1.47107 0.565454 0
M  V30 8609 C 831.655 1.58535 1.65527 0
M  V30 8610 C 832.655 0.461081 1.54048 0
M  V30 8611 O 833.845 0.725911 1.58355 0
M  V30 8612 C 830.977 1.52204 3.05036 0
M  V30 8613 H 832.17 2.55676 1.56747 0
M  V30 8614 H 829.723 1.35174 0.78471 0
M  V30 8615 H 830.458 0.564071 3.19357 0
M  V30 8616 H 830.243 2.3379 3.14777 0
M  V30 8617 H 831.733 1.63322 3.84338 0
M  V30 8618 N 832.17 -0.811516 1.35101 0
M  V30 8619 C 833.418 -1.56525 1.27845 0
M  V30 8620 C 833.739 -1.94435 -0.14829 0
M  V30 8621 O 833.009 -1.63203 -1.08359 0
M  V30 8622 H 831.589 -0.580433 0.47022 0
M  V30 8623 H 834.251 -0.968277 1.69146 0
M  V30 8624 H 833.347 -2.48291 1.89097 0
M  V30 8625 N 833.648 -1.19017 -1.03309 0
M  V30 8626 C 834.876 -1.01534 -1.80273 0
M  V30 8627 C 835.291 0.43605 -1.83696 0
M  V30 8628 O 834.648 1.30288 -1.27794 0
M  V30 8629 C 834.699 -1.5722 -3.25522 0
M  V30 8630 O 834.42 -2.96677 -3.22358 0
M  V30 8631 C 835.921 -1.4446 -4.19102 0
M  V30 8632 H 833.141 -0.358094 -0.567459 0
M  V30 8633 H 835.685 -1.57738 -1.3015 0
M  V30 8634 H 833.84 -1.05174 -3.7285 0
M  V30 8635 H 834.254 -3.22795 -4.13405 0
M  V30 8636 H 835.728 -1.88209 -5.18923 0
M  V30 8637 H 836.205 -0.394471 -4.37425 0
M  V30 8638 H 836.811 -1.95616 -3.77643 0
M  V30 8639 N 835.127 1.22348 -0.993418 0
M  V30 8640 C 836.373 1.91393 -0.67056 0
M  V30 8641 C 836.706 1.77163 0.795428 0
M  V30 8642 O 835.981 1.14084 1.57528 0
M  V30 8643 C 836.264 3.43589 -1.0779 0
M  V30 8644 C 836.117 3.66867 -2.60248 0
M  V30 8645 C 837.436 4.35545 -0.631527 0
M  V30 8646 H 834.555 0.695057 -0.24508 0
M  V30 8647 H 837.197 1.44213 -1.23703 0
M  V30 8648 H 835.347 3.83903 -0.595902 0
M  V30 8649 H 837.019 3.35954 -3.16121 0
M  V30 8650 H 835.262 3.1113 -3.02293 0
M  V30 8651 H 835.933 4.73457 -2.838 0
M  V30 8652 H 838.409 4.0275 -1.04554 0
M  V30 8653 H 837.285 5.40707 -0.944831 0
M  V30 8654 H 837.546 4.39618 0.467779 0
M  V30 8655 N 836.605 0.766683 1.37694 0
M  V30 8656 C 837.515 0.150158 2.34119 0
M  V30 8657 C 838.531 -0.685513 1.59927 0
M  V30 8658 O 839.707 -0.606616 1.92047 0
M  V30 8659 C 836.772 -0.722562 3.39087 0
M  V30 8660 C 835.833 0.128983 4.29106 0
M  V30 8661 C 835.066 -0.702178 5.29061 0
M  V30 8662 O 835.289 -1.93954 5.36412 0
M  V30 8663 O 834.223 -0.114056 6.01792 0
M  V30 8664 H 838.049 0.946829 2.88563 0
M  V30 8665 H 835.634 0.527765 1.39768 0
M  V30 8666 H 837.516 -1.22095 4.03325 0
M  V30 8667 H 836.191 -1.49751 2.86978 0
M  V30 8668 H 835.098 0.673612 3.67985 0
M  V30 8669 H 836.431 0.866892 4.84506 0
M  V30 8670 N 838.083 -1.48885 0.516809 0
M  V30 8671 C 839.313 -2.06592 -0.018375 0
M  V30 8672 C 839.721 -1.37543 -1.29917 0
M  V30 8673 O 839.064 -0.452527 -1.78039 0
M  V30 8674 C 839.126 -3.58016 -0.326315 0
M  V30 8675 C 838.79 -4.48853 0.859072 0
M  V30 8676 C 839.787 -4.89422 1.75391 0
M  V30 8677 C 837.472 -4.90937 1.06235 0
M  V30 8678 C 839.466 -5.70831 2.83604 0
M  V30 8679 C 837.153 -5.72119 2.14763 0
M  V30 8680 C 838.151 -6.11972 3.03281 0
M  V30 8681 O 837.839 -6.91527 4.09934 0
M  V30 8682 H 837.571 -0.675559 0.0244023 0
M  V30 8683 H 840.125 -1.92442 0.718005 0
M  V30 8684 H 838.355 -3.70231 -1.1165 0
M  V30 8685 H 840.044 -3.97898 -0.801999 0
M  V30 8686 H 840.81 -4.57542 1.60875 0
M  V30 8687 H 836.689 -4.59409 0.382677 0
M  V30 8688 H 840.233 -6.01857 3.52724 0
M  V30 8689 H 836.13 -6.03412 2.29268 0
M  V30 8690 H 836.898 -7.0986 4.07482 0
M  V30 8691 N 839.561 -0.251338 -1.55583 0
M  V30 8692 C 840.491 0.640437 -2.24545 0
M  V30 8693 C 841.472 1.17781 -1.22726 0
M  V30 8694 O 842.657 1.21633 -1.5139 0
M  V30 8695 C 839.787 1.8355 -2.94834 0
M  V30 8696 C 838.741 1.4307 -4.03379 0
M  V30 8697 C 838.067 2.70695 -4.61116 0
M  V30 8698 C 839.367 0.59848 -5.1886 0
M  V30 8699 H 841.061 0.0653772 -2.99329 0
M  V30 8700 H 838.607 0.0300042 -1.43969 0
M  V30 8701 H 840.56 2.46505 -3.4178 0
M  V30 8702 H 839.284 2.43601 -2.17546 0
M  V30 8703 H 837.943 0.824474 -3.57209 0
M  V30 8704 H 837.591 3.28954 -3.80524 0
M  V30 8705 H 837.291 2.44332 -5.34393 0
M  V30 8706 H 838.815 3.34541 -5.10798 0
M  V30 8707 H 840.229 1.13244 -5.62004 0
M  V30 8708 H 838.626 0.430728 -5.98552 0
M  V30 8709 H 839.696 -0.38829 -4.83343 0
M  V30 8710 N 841.039 1.57585 0.0217189 0
M  V30 8711 C 842.269 1.9359 0.721572 0
M  V30 8712 C 842.677 0.850132 1.69025 0
M  V30 8713 O 842.02 -0.181539 1.82801 0
M  V30 8714 C 842.082 3.25445 1.52729 0
M  V30 8715 C 841.746 4.51251 0.722586 0
M  V30 8716 C 842.743 5.19896 0.0196598 0
M  V30 8717 C 840.428 4.97745 0.674959 0
M  V30 8718 C 842.422 6.33319 -0.720114 0
M  V30 8719 C 840.109 6.11062 -0.068555 0
M  V30 8720 C 841.107 6.78704 -0.764845 0
M  V30 8721 O 840.795 7.89852 -1.49627 0
M  V30 8722 H 840.527 0.643409 0.207366 0
M  V30 8723 H 843.081 2.05391 -0.0189346 0
M  V30 8724 H 841.311 3.0999 2.31178 0
M  V30 8725 H 843 3.46721 2.11044 0
M  V30 8726 H 843.766 4.84977 0.0474394 0
M  V30 8727 H 839.645 4.44934 1.20643 0
M  V30 8728 H 843.189 6.86051 -1.26413 0
M  V30 8729 H 839.086 6.45425 -0.0982318 0
M  V30 8730 H 839.854 8.06251 -1.41071 0
M  V30 8731 N 842.517 -0.29412 1.54831 0
M  V30 8732 C 843.742 -1.05156 1.78765 0
M  V30 8733 C 844.167 -1.79916 0.548809 0
M  V30 8734 O 843.525 -1.74243 -0.500909 0
M  V30 8735 C 843.573 -2.00242 2.99893 0
M  V30 8736 O 842.677 -3.08662 2.73499 0
M  V30 8737 H 842.018 -0.301737 0.591482 0
M  V30 8738 H 844.548 -0.329449 2.0193 0
M  V30 8739 H 844.558 -2.42583 3.28051 0
M  V30 8740 H 843.233 -1.45235 3.89717 0
M  V30 8741 H 841.81 -2.70786 2.56377 0
M  V30 8742 N 843.995 -1.47404 -0.557645 0
M  V30 8743 C 844.927 -1.55917 -1.67995 0
M  V30 8744 C 845.94 -0.445411 -1.56588 0
M  V30 8745 O 847.129 -0.714999 -1.63554 0
M  V30 8746 C 844.229 -1.44697 -3.06457 0
M  V30 8747 C 843.402 -2.70633 -3.43622 0
M  V30 8748 C 842.461 -2.53256 -4.61246 0
M  V30 8749 O 841.487 -3.27068 -4.65849 0
M  V30 8750 N 842.689 -1.61053 -5.57711 0
M  V30 8751 H 845.454 -2.52694 -1.61139 0
M  V30 8752 H 843.015 -1.43778 -0.744271 0
M  V30 8753 H 845.007 -1.30806 -3.82978 0
M  V30 8754 H 843.577 -0.560039 -3.07542 0
M  V30 8755 H 842.797 -2.99288 -2.56555 0
M  V30 8756 H 844.085 -3.5424 -3.65228 0
M  V30 8757 H 843.483 -1.00235 -5.56749 0
M  V30 8758 H 842.04 -1.53115 -6.33561 0
M  V30 8759 N 845.473 0.80434 -1.35529 0
M  V30 8760 C 846.75 1.5486 -1.1949 0
M  V30 8761 C 847.13 2.09897 0.22506 0
M  V30 8762 O 846.478 1.92643 1.22886 0
M  V30 8763 C 846.688 2.65535 -2.26478 0
M  V30 8764 C 848.036 3.33814 -2.62399 0
M  V30 8765 O 849.06 2.75807 -2.25409 0
M  V30 8766 O 847.919 4.38612 -3.26009 0
M  V30 8767 H 845.013 0.68433 -0.464351 0
M  V30 8768 H 847.559 0.844107 -1.47217 0
M  V30 8769 H 846.331 2.22754 -3.21709 0
M  V30 8770 H 845.954 3.43617 -2.00033 0
M  V30 8771 N 846.951 1.19563 1.02676 0
M  V30 8772 C 848.199 0.997593 1.75763 0
M  V30 8773 C 848.52 -0.47253 1.89188 0
M  V30 8774 O 847.79 -1.34214 1.42701 0
M  V30 8775 H 846.37 0.366128 0.651122 0
M  V30 8776 H 849.032 1.50495 1.23844 0
M  V30 8777 H 848.128 1.44741 2.76508 0
M  V30 8778 N 848.429 -1.21819 0.999893 0
M  V30 8779 C 849.654 -1.95298 0.698094 0
M  V30 8780 C 850.079 -1.73273 -0.731982 0
M  V30 8781 O 849.437 -1.01634 -1.50134 0
M  V30 8782 C 849.485 -3.45922 1.01834 0
M  V30 8783 O 848.589 -4.12223 0.120801 0
M  V30 8784 H 847.93 -0.610729 0.260588 0
M  V30 8785 H 850.46 -1.5472 1.33876 0
M  V30 8786 H 850.47 -3.96471 0.963074 0
M  V30 8787 H 849.145 -3.61278 2.06037 0
M  V30 8788 H 847.722 -3.72177 0.232153 0
M  V30 8789 N 849.908 -0.773975 -1.37286 0
M  V30 8790 C 851.155 -0.339306 -1.99637 0
M  V30 8791 C 851.483 1.08478 -1.61439 0
M  V30 8792 O 850.738 1.7612 -0.853252 0
M  V30 8793 C 851.037 -0.432651 -3.54772 0
M  V30 8794 C 850.703 -1.81531 -4.12744 0
M  V30 8795 C 849.365 -2.19366 -4.2829 0
M  V30 8796 C 851.717 -2.72137 -4.44512 0
M  V30 8797 C 849.045 -3.47239 -4.72908 0
M  V30 8798 C 851.397 -3.99421 -4.90556 0
M  V30 8799 C 850.061 -4.37298 -5.04308 0
M  V30 8800 H 849.331 -0.124161 -0.730524 0
M  V30 8801 H 851.978 -0.988432 -1.64019 0
M  V30 8802 H 850.283 0.30001 -3.9065 0
M  V30 8803 H 851.98 -0.0776 -4.00925 0
M  V30 8804 H 848.57 -1.51126 -4.01072 0
M  V30 8805 H 852.754 -2.44165 -4.32084 0
M  V30 8806 H 848.01 -3.76477 -4.81742 0
M  V30 8807 H 852.184 -4.69756 -5.14104 0
M  V30 8808 H 849.811 -5.36442 -5.38641 0
M  V30 8809 N 851.386 1.48609 -0.524698 0
M  V30 8810 C 852.336 2.26505 0.260696 0
M  V30 8811 C 853.32 1.32378 0.914597 0
M  V30 8812 O 854.512 1.5695 0.818277 0
M  V30 8813 C 851.641 3.17313 1.31024 0
M  V30 8814 C 850.727 4.18911 0.661391 0
M  V30 8815 N 851.118 5.05183 -0.24981 0
M  V30 8816 C 849.416 4.36425 0.91922 0
M  V30 8817 C 850.117 5.78348 -0.623598 0
M  V30 8818 N 849.093 5.43598 0.0140839 0
M  V30 8819 H 852.895 2.90582 -0.440388 0
M  V30 8820 H 850.409 1.5875 -0.342364 0
M  V30 8821 H 852.406 3.71772 1.88656 0
M  V30 8822 H 851.066 2.54791 2.01275 0
M  V30 8823 H 852.077 5.1415 -0.622093 0
M  V30 8824 H 848.754 3.85095 1.6127 0
M  V30 8825 H 850.144 6.57775 -1.37046 0
M  V30 8826 N 852.864 0.259585 1.55447 0
M  V30 8827 C 854.111 -0.361607 1.99245 0
M  V30 8828 C 854.439 -1.57017 1.14787 0
M  V30 8829 O 853.694 -1.94658 0.201724 0
M  V30 8830 C 853.993 -0.802727 3.48269 0
M  V30 8831 C 853.659 0.299472 4.49904 0
M  V30 8832 C 852.321 0.602157 4.77418 0
M  V30 8833 C 854.673 1.04295 5.10658 0
M  V30 8834 C 852.001 1.65217 5.62957 0
M  V30 8835 C 854.353 2.08257 5.97337 0
M  V30 8836 C 853.017 2.39177 6.23178 0
M  V30 8837 H 852.287 -0.132322 0.72909 0
M  V30 8838 H 854.934 0.370059 1.8789 0
M  V30 8839 H 853.239 -1.61381 3.5702 0
M  V30 8840 H 854.936 -1.29385 3.79553 0
M  V30 8841 H 851.526 0.0534256 4.28567 0
M  V30 8842 H 855.71 0.822358 4.89439 0
M  V30 8843 H 850.966 1.89692 5.81229 0
M  V30 8844 H 855.14 2.6635 6.43452 0
M  V30 8845 H 852.767 3.20677 6.89253 0
M  V30 8846 N 854.342 -1.57594 -0.0133615 0
M  V30 8847 C 855.272 -2.10611 -1.00823 0
M  V30 8848 C 856.253 -1.01217 -1.36708 0
M  V30 8849 O 857.438 -1.28827 -1.45318 0
M  V30 8850 C 854.568 -2.59844 -2.30431 0
M  V30 8851 C 853.522 -3.73644 -2.08745 0
M  V30 8852 C 852.848 -4.09141 -3.4425 0
M  V30 8853 C 854.148 -5.01454 -1.46086 0
M  V30 8854 H 855.842 -2.93985 -0.566849 0
M  V30 8855 H 853.388 -1.41423 -0.271219 0
M  V30 8856 H 855.341 -2.95557 -3.00373 0
M  V30 8857 H 854.065 -1.73573 -2.76658 0
M  V30 8858 H 852.724 -3.38303 -1.41232 0
M  V30 8859 H 852.372 -3.19914 -3.88155 0
M  V30 8860 H 852.072 -4.85802 -3.3056 0
M  V30 8861 H 853.596 -4.47402 -4.15528 0
M  V30 8862 H 855.01 -5.35024 -2.05966 0
M  V30 8863 H 853.407 -5.82832 -1.42924 0
M  V30 8864 H 854.477 -4.83003 -0.428471 0
M  V30 8865 N 855.82 0.285905 -1.54985 0
M  V30 8866 C 856.73 1.37534 -1.90057 0
M  V30 8867 C 857.746 1.54707 -0.796348 0
M  V30 8868 O 858.922 1.69082 -1.09423 0
M  V30 8869 C 855.987 2.7167 -2.15398 0
M  V30 8870 C 855.048 2.63354 -3.39033 0
M  V30 8871 C 854.281 3.91093 -3.63155 0
M  V30 8872 O 854.504 4.91169 -2.90015 0
M  V30 8873 O 853.438 3.92075 -4.56685 0
M  V30 8874 H 857.264 1.10791 -2.8277 0
M  V30 8875 H 854.849 0.483303 -1.41367 0
M  V30 8876 H 856.731 3.51006 -2.33179 0
M  V30 8877 H 855.406 2.98226 -1.25868 0
M  V30 8878 H 854.313 1.82438 -3.26599 0
M  V30 8879 H 855.646 2.41749 -4.2874 0
M  V30 8880 N 857.298 1.47698 0.54982 0
M  V30 8881 C 858.228 1.63622 1.66583 0
M  V30 8882 C 859.209 0.485477 1.63025 0
M  V30 8883 O 860.394 0.715692 1.80531 0
M  V30 8884 C 857.524 1.65721 3.05211 0
M  V30 8885 C 856.478 2.80097 3.2362 0
M  V30 8886 C 855.804 2.67272 4.63109 0
M  V30 8887 C 857.104 4.21612 3.08286 0
M  V30 8888 H 858.798 2.57049 1.53512 0
M  V30 8889 H 856.344 1.23705 0.737099 0
M  V30 8890 H 858.297 1.75451 3.83138 0
M  V30 8891 H 857.021 0.688593 3.19258 0
M  V30 8892 H 855.68 2.69889 2.48104 0
M  V30 8893 H 855.328 1.68422 4.73965 0
M  V30 8894 H 855.028 3.44008 4.76374 0
M  V30 8895 H 856.552 2.78942 5.43161 0
M  V30 8896 H 857.966 4.32758 3.76024 0
M  V30 8897 H 856.363 4.99193 3.33057 0
M  V30 8898 H 857.433 4.39462 2.04942 0
M  V30 8899 N 858.776 -0.797141 1.35954 0
M  V30 8900 C 859.724 -1.93084 1.29697 0
M  V30 8901 C 860.718 -1.68329 0.190152 0
M  V30 8902 O 861.924 -1.7643 0.3567 0
M  V30 8903 H 858.299 -0.634531 0.403577 0
M  V30 8904 H 860.27 -1.95481 2.25455 0
M  V30 8905 C 859.019 -3.29996 1.09536 0
M  V30 8906 H 858.342 -3.49607 1.93946 0
M  V30 8907 H 859.782 -4.09696 1.09202 0
M  V30 8908 C 858.241 -3.36304 -0.200381 0
M  V30 8909 O 858.771 -3.83579 -1.19291 0
M  V30 8910 N 856.977 -2.89587 -0.242406 0
M  V30 8911 H 856.524 -2.51307 0.565897 0
M  V30 8912 H 856.482 -2.94189 -1.10906 0
M  V30 8913 N 860.254 -1.20106 -1.0204 0
M  V30 8914 C 861.665 -1.00992 -1.57027 0
M  V30 8915 C 862.016 0.434782 -1.91322 0
M  V30 8916 O 861.141 1.31557 -1.71819 0
M  V30 8917 C 861.736 -1.82697 -2.85319 0
M  V30 8918 C 860.295 -1.67959 -3.36848 0
M  V30 8919 C 859.442 -1.80868 -2.10195 0
M  V30 8920 H 862.393 -1.34354 -0.844676 0
M  V30 8921 H 862.414 -1.32809 -3.5657 0
M  V30 8922 H 861.926 -2.87839 -2.60328 0
M  V30 8923 H 860.027 -0.654389 -3.66809 0
M  V30 8924 H 860.14 -2.49006 -4.09308 0
M  V30 8925 H 858.504 -1.24015 -2.22469 0
M  V30 8926 H 859.287 -2.87486 -1.87635 0
M  V30 8927 N 861.732 1.21287 -1.00634 0
M  V30 8928 C 863.148 1.42467 -0.719389 0
M  V30 8929 C 863.348 1.88767 0.704927 0
M  V30 8930 O 862.404 2.05004 1.47409 0
M  V30 8931 C 863.717 2.455 -1.73639 0
M  V30 8932 C 865.265 2.59281 -1.75335 0
M  V30 8933 C 865.74 3.65547 -2.75934 0
M  V30 8934 N 867.231 3.73019 -2.74611 0
M  V30 8935 C 867.966 4.54873 -3.4911 0
M  V30 8936 N 867.462 5.40614 -4.33253 0
M  V30 8937 N 869.255 4.49309 -3.37754 0
M  V30 8938 H 861.406 0.895454 -1.92602 0
M  V30 8939 H 863.669 0.455491 -0.831404 0
M  V30 8940 H 863.375 2.18455 -2.75627 0
M  V30 8941 H 863.249 3.44325 -1.54014 0
M  V30 8942 H 865.636 2.85661 -0.740377 0
M  V30 8943 H 865.717 1.60685 -1.99032 0
M  V30 8944 H 865.361 3.39911 -3.77389 0
M  V30 8945 H 865.291 4.63741 -2.49503 0
M  V30 8946 H 867.782 3.11766 -2.13565 0
M  V30 8947 H 868.095 6.0013 -4.86892 0
M  V30 8948 H 866.44 5.40151 -4.37335 0
M  V30 8949 H 869.631 3.81357 -2.71449 0
M  V30 8950 H 869.804 5.12867 -3.9607 0
M  V30 8951 N 863.21 0.781244 1.36873 0
M  V30 8952 C 864.14 0.188128 2.32741 0
M  V30 8953 C 865.121 -0.672326 1.56249 0
M  V30 8954 O 866.306 -0.607835 1.84442 0
M  V30 8955 C 863.436 -0.684341 3.40491 0
M  V30 8956 C 862.39 0.0755641 4.27933 0
M  V30 8957 C 861.716 -0.916968 5.26779 0
M  V30 8958 C 863.016 1.26006 5.06873 0
M  V30 8959 H 864.71 0.989016 2.82593 0
M  V30 8960 H 862.256 0.477038 1.35869 0
M  V30 8961 H 864.209 -1.10915 4.06541 0
M  V30 8962 H 862.933 -1.51785 2.89187 0
M  V30 8963 H 861.592 0.481258 3.63427 0
M  V30 8964 H 861.24 -1.74528 4.71751 0
M  V30 8965 H 860.94 -0.413 5.86147 0
M  V30 8966 H 862.464 -1.34052 5.95703 0
M  V30 8967 H 863.878 0.911425 5.66009 0
M  V30 8968 H 862.275 1.69676 5.75613 0
M  V30 8969 H 863.345 2.05948 4.38991 0
M  V30 8970 N 864.689 -1.48329 0.532571 0
M  V30 8971 C 865.621 -2.27652 -0.265931 0
M  V30 8972 C 866.634 -1.35522 -0.902083 0
M  V30 8973 O 867.823 -1.60552 -0.780088 0
M  V30 8974 C 864.923 -3.0899 -1.39207 0
M  V30 8975 C 864.096 -4.28915 -0.857349 0
M  V30 8976 C 863.155 -4.92044 -1.86493 0
M  V30 8977 O 862.181 -5.51181 -1.42084 0
M  V30 8978 N 863.383 -4.84518 -3.19723 0
M  V30 8979 H 866.148 -2.96821 0.414389 0
M  V30 8980 H 863.709 -1.57684 0.367066 0
M  V30 8981 H 865.701 -3.48091 -2.06433 0
M  V30 8982 H 864.271 -2.42224 -1.97601 0
M  V30 8983 H 863.491 -3.94199 -0.00901765 0
M  V30 8984 H 864.779 -5.0654 -0.479025 0
M  V30 8985 H 864.177 -4.37628 -3.58467 0
M  V30 8986 H 862.734 -5.27712 -3.82575 0
M  V30 8987 N 866.167 -0.267825 -1.55308 0
M  V30 8988 C 867.413 0.351556 -1.9973 0
M  V30 8989 C 867.746 1.56049 -1.15596 0
M  V30 8990 O 867.021 1.93203 -0.224274 0
M  V30 8991 C 867.304 0.74091 -3.52395 0
M  V30 8992 C 867.157 -0.474861 -4.47286 0
M  V30 8993 C 868.476 1.5801 -4.10756 0
M  V30 8994 H 865.595 0.126308 -0.726096 0
M  V30 8995 H 868.237 -0.373316 -1.86296 0
M  V30 8996 H 866.387 1.35851 -3.63973 0
M  V30 8997 H 868.059 -1.1134 -4.47662 0
M  V30 8998 H 866.302 -1.11425 -4.19246 0
M  V30 8999 H 866.973 -0.158782 -5.51772 0
M  V30 9000 H 869.449 1.05857 -4.0241 0
M  V30 9001 H 868.325 1.82135 -5.17801 0
M  V30 9002 H 868.586 2.55878 -3.60526 0
M  V30 9003 N 867.645 1.57599 0.00500368 0
M  V30 9004 C 868.555 2.11532 1.01446 0
M  V30 9005 C 869.571 1.05941 1.3803 0
M  V30 9006 O 870.747 1.37815 1.46864 0
M  V30 9007 C 867.812 2.60382 2.28915 0
M  V30 9008 C 866.873 3.80554 1.98689 0
M  V30 9009 C 866.106 4.27064 3.20081 0
M  V30 9010 O 866.329 3.72939 4.31593 0
M  V30 9011 O 865.263 5.1927 3.04371 0
M  V30 9012 H 869.089 2.97993 0.586011 0
M  V30 9013 H 866.674 1.47718 0.223519 0
M  V30 9014 H 868.556 2.92024 3.03809 0
M  V30 9015 H 867.231 1.77022 2.71007 0
M  V30 9016 H 866.138 3.53893 1.21286 0
M  V30 9017 H 867.471 4.64972 1.61437 0
M  V30 9018 N 869.123 -0.277682 1.55134 0
M  V30 9019 C 870.073 -1.34531 1.8408 0
M  V30 9020 C 871.057 -1.44904 0.699393 0
M  V30 9021 O 872.249 -1.48664 0.960623 0
M  V30 9022 C 869.378 -2.7064 2.11208 0
M  V30 9023 C 868.464 -2.64396 3.31596 0
M  V30 9024 N 868.855 -2.2777 4.51613 0
M  V30 9025 C 867.153 -2.95464 3.34091 0
M  V30 9026 C 867.854 -2.31401 5.33693 0
M  V30 9027 N 866.83 -2.69688 4.71984 0
M  V30 9028 H 870.632 -1.05214 2.74421 0
M  V30 9029 H 868.146 -0.486311 1.54948 0
M  V30 9030 H 870.143 -3.47649 2.301 0
M  V30 9031 H 868.803 -3.00849 1.22148 0
M  V30 9032 H 869.814 -1.99827 4.77797 0
M  V30 9033 H 866.491 -3.30415 2.5521 0
M  V30 9034 H 867.881 -2.05685 6.39643 0
M  V30 9035 N 870.601 -1.47988 -0.541979 0
M  V30 9036 C 872.012 -1.49073 -1.12402 0
M  V30 9037 C 872.363 -0.253825 -1.94551 0
M  V30 9038 O 871.488 0.640056 -2.06718 0
M  V30 9039 C 872.083 -2.7011 -2.04514 0
M  V30 9040 C 870.642 -2.74105 -2.5796 0
M  V30 9041 C 869.789 -2.42409 -1.3466 0
M  V30 9042 H 872.74 -1.55277 -0.327818 0
M  V30 9043 H 872.761 -2.47946 -2.88623 0
M  V30 9044 H 872.273 -3.60117 -1.44697 0
M  V30 9045 H 870.374 -1.88276 -3.21532 0
M  V30 9046 H 870.487 -3.75213 -2.97913 0
M  V30 9047 H 868.851 -1.9331 -1.65841 0
M  V30 9048 H 869.634 -3.34642 -0.766133 0
M  V30 9049 N 872.079 0.78992 -1.36375 0
M  V30 9050 C 873.319 1.56098 -1.31958 0
M  V30 9051 C 873.683 1.91738 0.100197 0
M  V30 9052 O 874.884 2.67451 0.268913 0
M  V30 9053 C 873.155 2.80406 -2.21601 0
M  V30 9054 S 874.714 3.70655 -2.34863 0
M  V30 9055 H 871.532 0.534632 -0.46871 0
M  V30 9056 H 874.134 0.930417 -1.7194 0
M  V30 9057 H 872.838 2.52273 -3.23707 0
M  V30 9058 H 872.369 3.48436 -1.82637 0
M  V30 9059 H 874.384 4.71509 -1.54575 0
M  V30 9060 N 873.557 1.20646 1.01402 0
M  V30 9061 C 874.785 1.04389 1.78635 0
M  V30 9062 C 875.2 -0.406771 1.84366 0
M  V30 9063 O 874.557 -1.28239 1.2985 0
M  V30 9064 C 874.608 1.62378 3.22979 0
M  V30 9065 O 874.329 3.01768 3.17597 0
M  V30 9066 C 875.83 1.5111 4.1675 0
M  V30 9067 H 873.05 0.367077 0.56169 0
M  V30 9068 H 875.594 1.59789 1.27624 0
M  V30 9069 H 873.749 1.11092 3.7113 0
M  V30 9070 H 874.163 3.29331 4.08217 0
M  V30 9071 H 875.637 1.96441 5.15863 0
M  V30 9072 H 876.114 0.464011 4.36742 0
M  V30 9073 H 876.72 2.01599 3.74483 0
M  V30 9074 N 875.035 -1.20752 1.01276 0
M  V30 9075 C 875.945 -2.27079 0.589277 0
M  V30 9076 C 876.961 -1.6999 -0.371389 0
M  V30 9077 O 878.137 -2.00044 -0.233294 0
M  V30 9078 C 875.202 -3.4663 -0.0696715 0
M  V30 9079 C 874.263 -4.18962 0.936454 0
M  V30 9080 C 873.496 -5.32806 0.308856 0
M  V30 9081 O 873.719 -5.63376 -0.8924 0
M  V30 9082 O 872.653 -5.93131 1.02367 0
M  V30 9083 H 876.479 -2.6551 1.47438 0
M  V30 9084 H 874.064 -1.27297 0.782045 0
M  V30 9085 H 875.946 -4.19119 -0.437873 0
M  V30 9086 H 874.621 -3.10082 -0.929029 0
M  V30 9087 H 873.528 -3.48661 1.35595 0
M  V30 9088 H 874.861 -4.59441 1.76565 0
M  V30 9089 N 876.513 -0.788492 -1.36457 0
M  V30 9090 C 877.446 -0.132189 -2.27817 0
M  V30 9091 C 878.424 0.691166 -1.47179 0
M  V30 9092 O 879.608 0.662344 -1.7648 0
M  V30 9093 C 876.735 0.818386 -3.28664 0
M  V30 9094 C 875.781 0.0769392 -4.26431 0
M  V30 9095 S 876.614 -1.24666 -5.20786 0
M  V30 9096 C 877.77 -0.300063 -6.2518 0
M  V30 9097 H 878.003 -0.906824 -2.83132 0
M  V30 9098 H 875.536 -0.582666 -1.42984 0
M  V30 9099 H 877.494 1.36138 -3.87268 0
M  V30 9100 H 876.155 1.56626 -2.72263 0
M  V30 9101 H 875.348 0.79819 -4.97639 0
M  V30 9102 H 874.95 -0.395547 -3.71902 0
M  V30 9103 H 877.242 0.521434 -6.7549 0
M  V30 9104 H 878.185 -0.980808 -7.01274 0
M  V30 9105 H 878.593 0.0961898 -5.64418 0
M  V30 9106 N 877.991 1.48044 -0.54043 0
M  V30 9107 C 879.24 2.01698 -0.00809961 0
M  V30 9108 C 879.553 1.42184 1.34325 0
M  V30 9109 O 880.759 1.87398 1.96454 0
M  V30 9110 C 879.215 3.59882 0.035933 0
M  V30 9111 C 878.823 4.28384 -1.31115 0
M  V30 9112 C 880.567 4.21346 0.51654 0
M  V30 9113 C 878.474 5.78529 -1.22714 0
M  V30 9114 H 877.404 0.754 0.000742174 0
M  V30 9115 H 880.055 1.70204 -0.685775 0
M  V30 9116 H 878.437 3.88264 0.778906 0
M  V30 9117 H 879.611 4.11663 -2.07051 0
M  V30 9118 H 877.926 3.78837 -1.72834 0
M  V30 9119 H 880.523 5.31351 0.597529 0
M  V30 9120 H 880.866 3.87373 1.52473 0
M  V30 9121 H 881.399 3.97432 -0.171064 0
M  V30 9122 H 878.138 6.17093 -2.21081 0
M  V30 9123 H 877.658 5.97634 -0.50931 0
M  V30 9124 H 879.337 6.40395 -0.92216 0
M  V30 9125 N 879.47 0.276058 1.55163 0
M  V30 9126 C 880.433 -0.597924 2.21263 0
M  V30 9127 C 881.433 -1.0806 1.19078 0
M  V30 9128 O 882.623 -0.980626 1.43977 0
M  V30 9129 C 879.755 -1.82503 2.87933 0
M  V30 9130 H 880.948 -0.0207769 2.99893 0
M  V30 9131 H 878.501 0.0266823 1.56277 0
M  V30 9132 H 879.236 -2.44266 2.13318 0
M  V30 9133 H 879.021 -1.48683 3.62816 0
M  V30 9134 H 880.511 -2.44651 3.38431 0
M  V30 9135 N 880.948 -1.576 0.00335426 0
M  V30 9136 C 882.225 -1.81945 -0.718015 0
M  V30 9137 C 882.605 -0.881788 -1.91801 0
M  V30 9138 O 881.953 0.0687118 -2.28397 0
M  V30 9139 C 882.163 -3.30521 -1.12058 0
M  V30 9140 C 883.511 -3.96345 -1.52303 0
M  V30 9141 O 884.535 -3.34864 -1.21428 0
M  V30 9142 O 883.394 -5.04655 -2.09728 0
M  V30 9143 H 880.488 -0.749328 -0.34991 0
M  V30 9144 H 883.034 -1.69675 0.0290654 0
M  V30 9145 H 881.806 -3.90399 -0.265378 0
M  V30 9146 H 881.429 -3.47802 -1.92665 0
M  V30 9147 N 882.426 0.269451 -1.5528 0
M  V30 9148 C 883.672 1.00206 -1.76314 0
M  V30 9149 C 884.005 1.85812 -0.564581 0
M  V30 9150 O 883.28 1.89509 0.437769 0
M  V30 9151 C 883.563 1.88163 -3.07029 0
M  V30 9152 C 883.416 1.05527 -4.37246 0
M  V30 9153 C 884.735 2.8681 -3.33808 0
M  V30 9154 H 881.854 0.36288 -0.641473 0
M  V30 9155 H 884.496 0.274188 -1.88011 0
M  V30 9156 H 882.646 2.50224 -2.97187 0
M  V30 9157 H 884.318 0.455094 -4.5905 0
M  V30 9158 H 882.561 0.358842 -4.32313 0
M  V30 9159 H 883.232 1.70397 -5.25042 0
M  V30 9160 H 885.708 2.34884 -3.43466 0
M  V30 9161 H 884.584 3.45492 -4.26528 0
M  V30 9162 H 884.845 3.62118 -2.5362 0
M  V30 9163 N 883.904 1.48273 0.534124 0
M  V30 9164 C 884.852 1.62926 1.66005 0
M  V30 9165 C 885.846 0.495814 1.61982 0
M  V30 9166 O 887.052 0.6744 1.66889 0
M  V30 9167 H 883.427 0.513163 0.549698 0
M  V30 9168 H 885.398 2.57498 1.50789 0
M  V30 9169 C 884.147 1.68231 3.04292 0
M  V30 9170 H 883.47 2.54807 3.0808 0
M  V30 9171 H 884.91 1.82528 3.827 0
M  V30 9172 C 883.369 0.420154 3.3427 0
M  V30 9173 O 883.899 -0.468769 3.98955 0
M  V30 9174 N 882.105 0.293115 2.89118 0
M  V30 9175 H 881.652 1.01745 2.36655 0
M  V30 9176 H 881.61 -0.550376 3.09545 0
M  V30 9177 N 885.382 -0.782676 1.36792 0
M  V30 9178 C 886.312 -1.90973 1.34356 0
M  V30 9179 C 887.293 -1.6875 0.213917 0
M  V30 9180 O 888.478 -1.89766 0.412601 0
M  V30 9181 C 885.608 -3.28097 1.13884 0
M  V30 9182 C 884.562 -3.6486 2.23744 0
M  V30 9183 C 883.888 -5.00406 1.88408 0
M  V30 9184 C 885.188 -3.72742 3.6587 0
M  V30 9185 H 886.882 -1.93268 2.28665 0
M  V30 9186 H 884.428 -0.928447 1.10072 0
M  V30 9187 H 886.381 -4.06569 1.10813 0
M  V30 9188 H 885.105 -3.26206 0.160275 0
M  V30 9189 H 883.764 -2.88689 2.25952 0
M  V30 9190 H 883.412 -4.95044 0.891083 0
M  V30 9191 H 883.112 -5.25973 2.61966 0
M  V30 9192 H 884.636 -5.81291 1.86905 0
M  V30 9193 H 886.05 -4.4139 3.65852 0
M  V30 9194 H 884.447 -4.09798 4.38389 0
M  V30 9195 H 885.517 -2.73676 4.00287 0
M  V30 9196 N 886.86 -1.21182 -1.00761 0
M  V30 9197 C 888.271 -1.02652 -1.55947 0
M  V30 9198 C 888.622 0.414466 -1.91772 0
M  V30 9199 O 887.747 1.29727 -1.73204 0
M  V30 9200 C 888.342 -1.85713 -2.83366 0
M  V30 9201 C 886.901 -1.71523 -3.35048 0
M  V30 9202 C 886.048 -1.83087 -2.08265 0
M  V30 9203 H 888.999 -1.35242 -0.830379 0
M  V30 9204 H 889.02 -1.36583 -3.55141 0
M  V30 9205 H 888.532 -2.90584 -2.5726 0
M  V30 9206 H 886.633 -0.693257 -3.66094 0
M  V30 9207 H 886.746 -2.53333 -4.06644 0
M  V30 9208 H 885.11 -1.26367 -2.21141 0
M  V30 9209 H 885.893 -2.8946 -1.84575 0
M  V30 9210 N 888.338 1.20213 -1.01915 0
M  V30 9211 C 889.301 2.21307 -0.596327 0
M  V30 9212 C 890.301 1.57274 0.334879 0
M  V30 9213 O 891.491 1.73764 0.12322 0
M  V30 9214 C 888.623 3.40657 0.128808 0
M  V30 9215 H 889.816 2.60228 -1.49068 0
M  V30 9216 H 887.369 1.33721 -0.809226 0
M  V30 9217 H 888.104 3.07241 1.03796 0
M  V30 9218 H 887.889 3.88361 -0.540183 0
M  V30 9219 H 889.379 4.15564 0.411892 0
M  V30 9220 N 889.816 0.795718 1.36037 0
M  V30 9221 C 890.779 0.204318 2.28287 0
M  V30 9222 C 891.779 -0.602017 1.49105 0
M  V30 9223 O 892.969 -0.422089 1.69009 0
M  V30 9224 C 890.101 -0.716431 3.33287 0
M  V30 9225 H 891.294 1.01781 2.821 0
M  V30 9226 H 888.847 0.565588 1.45708 0
M  V30 9227 H 889.582 -1.55403 2.84641 0
M  V30 9228 H 889.367 -0.140096 3.9185 0
M  V30 9229 H 890.857 -1.12488 4.02164 0
M  V30 9230 N 891.294 -1.47756 0.548274 0
M  V30 9231 C 892.226 -2.27921 -0.24177 0
M  V30 9232 C 893.239 -1.36471 -0.887658 0
M  V30 9233 O 894.428 -1.6137 -0.763016 0
M  V30 9234 C 891.528 -3.10449 -1.35922 0
M  V30 9235 C 890.701 -4.298 -0.811808 0
M  V30 9236 C 889.76 -4.93994 -1.81264 0
M  V30 9237 O 888.786 -5.52657 -1.3623 0
M  V30 9238 N 889.988 -4.87882 -3.14566 0
M  V30 9239 H 892.753 -2.96365 0.445848 0
M  V30 9240 H 890.314 -1.57286 0.383769 0
M  V30 9241 H 892.306 -3.50261 -2.02729 0
M  V30 9242 H 890.876 -2.44306 -1.95021 0
M  V30 9243 H 890.096 -3.94186 0.0327929 0
M  V30 9244 H 891.384 -5.0702 -0.425272 0
M  V30 9245 H 890.782 -4.41405 -3.53805 0
M  V30 9246 H 889.339 -5.3174 -3.76956 0
M  V30 9247 N 892.772 -0.284283 -1.55015 0
M  V30 9248 C 893.702 0.592663 -2.25853 0
M  V30 9249 C 894.683 1.15151 -1.25197 0
M  V30 9250 O 895.868 1.18395 -1.53936 0
M  V30 9251 C 892.998 1.77254 -2.98661 0
M  V30 9252 C 891.952 1.34482 -4.06323 0
M  V30 9253 C 891.278 2.60853 -4.66754 0
M  V30 9254 C 892.578 0.488288 -5.20013 0
M  V30 9255 H 894.272 0.00187041 -2.994 0
M  V30 9256 H 891.818 -0.000540402 -1.44 0
M  V30 9257 H 893.771 2.39199 -3.46932 0
M  V30 9258 H 892.495 2.38931 -2.22664 0
M  V30 9259 H 891.154 0.748519 -3.58877 0
M  V30 9260 H 890.802 3.20808 -3.87416 0
M  V30 9261 H 890.502 2.32942 -5.39455 0
M  V30 9262 H 892.026 3.23631 -5.1778 0
M  V30 9263 H 893.44 1.01298 -5.6428 0
M  V30 9264 H 891.837 0.303669 -5.99331 0
M  V30 9265 H 892.907 -0.490727 -4.8241 0
M  V30 9266 N 894.251 1.57596 -0.0117121 0
M  V30 9267 C 895.183 2.06025 1.0043 0
M  V30 9268 C 896.196 0.980348 1.29973 0
M  V30 9269 O 897.385 1.25691 1.26744 0
M  V30 9270 C 894.485 2.45514 2.33615 0
M  V30 9271 C 893.658 3.76378 2.22842 0
M  V30 9272 C 892.717 4.02606 3.38814 0
M  V30 9273 O 891.743 4.73108 3.16477 0
M  V30 9274 N 892.945 3.51416 4.62047 0
M  V30 9275 H 895.71 2.93811 0.591206 0
M  V30 9276 H 893.271 1.60947 0.175427 0
M  V30 9277 H 895.263 2.60166 3.09993 0
M  V30 9278 H 893.833 1.63186 2.66625 0
M  V30 9279 H 893.053 3.71691 1.313 0
M  V30 9280 H 894.341 4.62149 2.12829 0
M  V30 9281 H 893.739 2.94346 4.83091 0
M  V30 9282 H 892.296 3.71377 5.35651 0
M  V30 9283 N 895.729 -0.261212 1.5542 0
M  V30 9284 C 896.978 -0.989072 1.75785 0
M  V30 9285 C 897.291 -1.8702 0.572961 0
M  V30 9286 O 898.497 -2.63374 0.659289 0
M  V30 9287 C 896.953 -1.80857 3.11157 0
M  V30 9288 C 896.561 -0.975535 4.3725 0
M  V30 9289 C 898.305 -2.53003 3.40866 0
M  V30 9290 C 896.212 -1.7901 5.63657 0
M  V30 9291 H 895.142 -0.373019 0.655266 0
M  V30 9292 H 897.793 -0.244267 1.81867 0
M  V30 9293 H 896.175 -2.59479 2.99144 0
M  V30 9294 H 897.349 -0.232661 4.60212 0
M  V30 9295 H 895.664 -0.368083 4.1477 0
M  V30 9296 H 898.261 -3.14372 4.32521 0
M  V30 9297 H 898.604 -3.23891 2.61535 0
M  V30 9298 H 899.137 -1.81403 3.54031 0
M  V30 9299 H 895.876 -1.12522 6.4577 0
M  V30 9300 H 895.396 -2.50863 5.44819 0
M  V30 9301 H 897.075 -2.36082 6.0239 0
M  V30 9302 N 897.207 -1.48554 -0.526253 0
M  V30 9303 C 898.17 -1.62868 -1.61266 0
M  V30 9304 C 899.17 -0.501762 -1.52771 0
M  V30 9305 O 900.36 -0.76764 -1.56374 0
M  V30 9306 C 897.492 -1.60238 -3.00893 0
M  V30 9307 H 898.685 -2.59742 -1.49913 0
M  V30 9308 H 896.238 -1.37207 -0.748595 0
M  V30 9309 H 896.973 -0.648545 -3.17749 0
M  V30 9310 H 896.758 -2.42054 -3.08468 0
M  V30 9311 H 898.248 -1.73455 -3.79872 0
M  V30 9312 N 898.685 0.775411 -1.37205 0
M  V30 9313 C 899.618 1.8957 -1.27037 0
M  V30 9314 C 900.596 1.61891 -0.151643 0
M  V30 9315 O 901.78 1.85673 -0.325218 0
M  V30 9316 C 898.907 3.24712 -0.963316 0
M  V30 9317 C 897.953 3.71306 -2.09842 0
M  V30 9318 S 898.786 3.8541 -3.71778 0
M  V30 9319 C 899.942 5.23406 -3.43216 0
M  V30 9320 H 900.175 1.97905 -2.21857 0
M  V30 9321 H 897.708 0.936127 -1.22784 0
M  V30 9322 H 899.666 4.02768 -0.792983 0
M  V30 9323 H 898.327 3.14083 -0.0326561 0
M  V30 9324 H 897.52 4.69271 -1.83849 0
M  V30 9325 H 897.122 3.00341 -2.2287 0
M  V30 9326 H 899.414 6.08454 -2.97977 0
M  V30 9327 H 900.357 5.54409 -4.40495 0
M  V30 9328 H 900.765 4.9117 -2.78231 0
M  V30 9329 N 900.163 1.21714 1.00117 0
M  V30 9330 C 901.411 1.03465 1.73607 0
M  V30 9331 C 901.732 -0.432295 1.90148 0
M  V30 9332 O 901.002 -1.31157 1.45515 0
M  V30 9333 H 899.582 0.379857 0.643209 0
M  V30 9334 H 902.244 1.53088 1.20624 0
M  V30 9335 H 901.34 1.50574 2.73375 0
M  V30 9336 N 901.641 -1.19671 1.02551 0
M  V30 9337 C 902.887 -1.89548 0.721069 0
M  V30 9338 C 903.22 -1.79209 -0.748176 0
M  V30 9339 O 902.495 -1.1822 -1.54448 0
M  V30 9340 C 902.778 -3.4061 1.16861 0
M  V30 9341 C 902.631 -3.59838 2.69883 0
M  V30 9342 C 903.95 -4.33718 0.746782 0
M  V30 9343 H 901.069 -0.688315 0.263422 0
M  V30 9344 H 903.711 -1.40883 1.27483 0
M  V30 9345 H 901.861 -3.82188 0.697477 0
M  V30 9346 H 903.533 -3.27454 3.24917 0
M  V30 9347 H 901.776 -3.03005 3.10435 0
M  V30 9348 H 902.447 -4.65766 2.96253 0
M  V30 9349 H 904.923 -3.99837 1.15195 0
M  V30 9350 H 903.799 -5.38012 1.08786 0
M  V30 9351 H 904.06 -4.40704 -0.351057 0
M  V30 9352 N 903.119 -0.802921 -1.35613 0
M  V30 9353 C 904.53 -0.443004 -1.81368 0
M  V30 9354 C 904.881 1.03459 -1.66706 0
M  V30 9355 O 904.006 1.80372 -1.19561 0
M  V30 9356 C 904.601 -0.797324 -3.29284 0
M  V30 9357 C 903.16 -0.490055 -3.73196 0
M  V30 9358 C 902.307 -1.02487 -2.57666 0
M  V30 9359 H 905.258 -0.994888 -1.23643 0
M  V30 9360 H 905.279 -0.0934638 -3.80385 0
M  V30 9361 H 904.791 -1.87278 -3.39924 0
M  V30 9362 H 902.892 0.576818 -3.68108 0
M  V30 9363 H 903.005 -1.02012 -4.68114 0
M  V30 9364 H 901.369 -0.44738 -2.5074 0
M  V30 9365 H 902.152 -2.10636 -2.71085 0
M  V30 9366 N 904.597 1.47463 -0.556102 0
M  V30 9367 C 905.527 2.32801 0.180497 0
M  V30 9368 C 906.508 1.43721 0.909848 0
M  V30 9369 O 907.693 1.72578 0.89053 0
M  V30 9370 C 904.823 3.25478 1.21167 0
M  V30 9371 C 903.777 4.2379 0.598846 0
M  V30 9372 C 903.103 5.05783 1.73457 0
M  V30 9373 C 904.403 5.20387 -0.446659 0
M  V30 9374 H 906.097 2.94636 -0.531956 0
M  V30 9375 H 903.643 1.41683 -0.257267 0
M  V30 9376 H 905.596 3.8402 1.73513 0
M  V30 9377 H 904.32 2.61695 1.95405 0
M  V30 9378 H 902.979 3.66472 0.0966897 0
M  V30 9379 H 902.627 4.38405 2.46596 0
M  V30 9380 H 902.327 5.72343 1.33031 0
M  V30 9381 H 903.851 5.67183 2.26131 0
M  V30 9382 H 905.265 5.73299 -0.00930019 0
M  V30 9383 H 903.662 5.95143 -0.769735 0
M  V30 9384 H 904.732 4.65932 -1.34295 0
M  V30 9385 N 906.075 0.2925 1.54862 0
M  V30 9386 C 907.025 -0.60226 2.19902 0
M  V30 9387 C 908.009 -1.10535 1.16923 0
M  V30 9388 O 909.201 -1.04753 1.42674 0
M  V30 9389 C 906.33 -1.77774 2.93686 0
M  V30 9390 C 905.416 -1.29101 4.03972 0
M  V30 9391 N 905.807 -0.521671 5.03103 0
M  V30 9392 C 904.105 -1.57248 4.17359 0
M  V30 9393 C 904.806 -0.263545 5.81103 0
M  V30 9394 N 903.782 -0.840937 5.37056 0
M  V30 9395 H 907.584 -0.00682274 2.93899 0
M  V30 9396 H 905.098 0.0968604 1.62111 0
M  V30 9397 H 907.095 -2.43021 3.38743 0
M  V30 9398 H 905.755 -2.37696 2.21203 0
M  V30 9399 H 906.766 -0.167364 5.1763 0
M  V30 9400 H 903.443 -2.1798 3.56077 0
M  V30 9401 H 904.833 0.353783 6.70968 0
M  V30 9402 N 907.553 -1.57587 0.0200696 0
M  V30 9403 C 908.969 -1.56018 -0.336237 0
M  V30 9404 C 909.169 -1.02478 -1.73495 0
M  V30 9405 O 908.225 -0.667487 -2.43518 0
M  V30 9406 C 909.538 -3.00079 -0.193112 0
M  V30 9407 C 911.086 -3.11863 -0.266557 0
M  V30 9408 C 911.561 -4.57747 -0.152326 0
M  V30 9409 N 913.052 -4.62726 -0.209596 0
M  V30 9410 C 913.787 -5.73217 -0.144855 0
M  V30 9411 N 913.283 -6.92794 -0.0295487 0
M  V30 9412 N 915.076 -5.61751 -0.198184 0
M  V30 9413 H 907.227 -1.90722 0.93482 0
M  V30 9414 H 909.49 -0.876909 0.360186 0
M  V30 9415 H 909.196 -3.43167 0.770036 0
M  V30 9416 H 909.07 -3.64593 -0.967029 0
M  V30 9417 H 911.457 -2.68693 -1.22016 0
M  V30 9418 H 911.538 -2.50087 0.53758 0
M  V30 9419 H 911.182 -5.01595 0.797817 0
M  V30 9420 H 911.112 -5.17491 -0.97521 0
M  V30 9421 H 913.603 -3.76713 -0.299229 0
M  V30 9422 H 913.916 -7.72799 0.0134071 0
M  V30 9423 H 912.261 -6.95 0.00510737 0
M  V30 9424 H 915.452 -4.67222 -0.286603 0
M  V30 9425 H 915.625 -6.47839 -0.144266 0
M  V30 9426 N 909.032 0.252966 -1.55557 0
M  V30 9427 C 909.962 1.31691 -1.9282 0
M  V30 9428 C 910.943 1.50516 -0.7924 0
M  V30 9429 O 912.128 1.63225 -1.05219 0
M  V30 9430 C 909.258 2.67281 -2.21762 0
M  V30 9431 C 908.212 2.6316 -3.37536 0
M  V30 9432 C 907.538 4.02488 -3.52005 0
M  V30 9433 C 908.838 2.20675 -4.73392 0
M  V30 9434 H 910.532 1.00751 -2.81939 0
M  V30 9435 H 908.078 0.483219 -1.3565 0
M  V30 9436 H 910.031 3.41842 -2.46419 0
M  V30 9437 H 908.755 2.99845 -1.29463 0
M  V30 9438 H 907.414 1.91057 -3.12878 0
M  V30 9439 H 907.062 4.32307 -2.57137 0
M  V30 9440 H 906.762 4.00621 -4.29857 0
M  V30 9441 H 908.286 4.78758 -3.78977 0
M  V30 9442 H 909.7 2.84965 -4.97461 0
M  V30 9443 H 908.097 2.29931 -5.54303 0
M  V30 9444 H 909.167 1.15831 -4.70862 0
M  V30 9445 N 910.51 1.48831 0.518367 0
M  V30 9446 C 911.457 1.64216 1.62178 0
M  V30 9447 C 912.427 0.483942 1.58894 0
M  V30 9448 O 913.612 0.708857 1.77144 0
M  V30 9449 C 910.752 1.69867 3.00399 0
M  V30 9450 C 909.865 2.96875 3.1383 0
M  V30 9451 C 909 2.93613 4.42679 0
M  V30 9452 C 908.039 4.15276 4.4968 0
M  V30 9453 N 907.176 4.10024 5.69934 0
M  V30 9454 H 912.016 2.58439 1.48368 0
M  V30 9455 H 909.553 1.28154 0.722152 0
M  V30 9456 H 911.511 1.71124 3.8049 0
M  V30 9457 H 910.141 0.791249 3.12952 0
M  V30 9458 H 909.193 3.0531 2.26914 0
M  V30 9459 H 910.505 3.86863 3.14863 0
M  V30 9460 H 909.659 2.93337 5.31073 0
M  V30 9461 H 908.398 2.01375 4.44184 0
M  V30 9462 H 907.403 4.15816 3.59691 0
M  V30 9463 H 908.628 5.08687 4.49904 0
M  V30 9464 H 906.574 3.20613 5.72314 0
M  V30 9465 H 906.491 4.93728 5.72511 0
M  V30 9466 H 907.759 4.13824 6.60583 0
M  V30 9467 N 911.988 -0.768124 1.37614 0
M  V30 9468 C 913.265 -1.51637 1.23554 0
M  V30 9469 C 913.645 -2.1042 -0.169331 0
M  V30 9470 O 912.993 -1.95834 -1.17735 0
M  V30 9471 C 913.203 -2.59436 2.33439 0
M  V30 9472 C 914.551 -3.2674 2.71157 0
M  V30 9473 O 915.575 -2.69733 2.32642 0
M  V30 9474 O 914.434 -4.29814 3.37524 0
M  V30 9475 H 911.528 -0.671778 0.482332 0
M  V30 9476 H 914.074 -0.804779 1.49403 0
M  V30 9477 H 912.846 -2.14146 3.27502 0
M  V30 9478 H 912.469 -3.38192 2.09073 0
M  V30 9479 N 913.466 -1.22244 -0.994698 0
M  V30 9480 C 914.715 -1.04005 -1.72817 0
M  V30 9481 C 915.028 0.425413 -1.90918 0
M  V30 9482 O 916.234 0.727429 -2.61574 0
M  V30 9483 C 914.69 -1.81244 -3.10932 0
M  V30 9484 C 914.298 -3.32028 -3.00768 0
M  V30 9485 C 916.042 -1.71448 -3.88337 0
M  V30 9486 C 913.949 -4.01716 -4.34026 0
M  V30 9487 H 912.879 -0.385559 -0.647966 0
M  V30 9488 H 915.53 -1.46077 -1.11058 0
M  V30 9489 H 913.912 -1.3197 -3.73363 0
M  V30 9490 H 915.086 -3.88682 -2.47513 0
M  V30 9491 H 913.401 -3.4248 -2.36846 0
M  V30 9492 H 915.998 -2.20836 -4.86965 0
M  V30 9493 H 916.341 -0.674568 -4.10798 0
M  V30 9494 H 916.874 -2.18256 -3.3258 0
M  V30 9495 H 913.613 -5.05952 -4.16765 0
M  V30 9496 H 913.133 -3.49849 -4.87202 0
M  V30 9497 H 914.812 -4.0721 -5.02782 0
M  V30 9498 N 914.944 1.19125 -1.03184 0
M  V30 9499 C 916.36 1.40909 -0.749447 0
M  V30 9500 C 916.56 1.9022 0.664729 0
M  V30 9501 O 915.616 2.08085 1.43028 0
M  V30 9502 C 916.929 2.41761 -1.78807 0
M  V30 9503 C 918.477 2.55503 -1.80796 0
M  V30 9504 C 918.952 3.59612 -2.83626 0
M  V30 9505 N 920.443 3.6711 -2.82461 0
M  V30 9506 C 921.178 4.47366 -3.5868 0
M  V30 9507 N 920.674 5.31302 -4.44623 0
M  V30 9508 N 922.467 4.42044 -3.47208 0
M  V30 9509 H 914.618 0.854399 -1.94458 0
M  V30 9510 H 916.881 0.437753 -0.840878 0
M  V30 9511 H 916.587 2.12559 -2.80199 0
M  V30 9512 H 916.461 3.40981 -1.61283 0
M  V30 9513 H 918.848 2.84027 -0.800803 0
M  V30 9514 H 918.929 1.56427 -2.02396 0
M  V30 9515 H 918.573 3.3183 -3.84515 0
M  V30 9516 H 918.503 4.58345 -2.59283 0
M  V30 9517 H 920.994 3.07166 -2.2013 0
M  V30 9518 H 921.307 5.89667 -4.99512 0
M  V30 9519 H 919.652 5.30753 -4.48694 0
M  V30 9520 H 922.843 3.75513 -2.79477 0
M  V30 9521 H 923.016 5.0435 -4.06859 0
M  V30 9522 N 916.422 0.810101 1.35185 0
M  V30 9523 C 917.352 0.237453 2.32289 0
M  V30 9524 C 918.333 -0.639032 1.5764 0
M  V30 9525 O 919.518 -0.568575 1.8569 0
M  V30 9526 C 916.648 -0.611964 3.41866 0
M  V30 9527 C 915.602 0.166318 4.27677 0
M  V30 9528 C 914.928 -0.805024 5.28605 0
M  V30 9529 C 916.228 1.36729 5.04086 0
M  V30 9530 H 917.922 1.04874 2.80432 0
M  V30 9531 H 915.468 0.505751 1.34826 0
M  V30 9532 H 917.421 -1.02267 4.08802 0
M  V30 9533 H 916.145 -1.45617 2.92341 0
M  V30 9534 H 914.804 0.558238 3.62325 0
M  V30 9535 H 914.452 -1.64483 4.75347 0
M  V30 9536 H 914.152 -0.288577 5.86891 0
M  V30 9537 H 915.676 -1.21386 5.98413 0
M  V30 9538 H 917.09 1.03128 5.63948 0
M  V30 9539 H 915.487 1.81848 5.71884 0
M  V30 9540 H 916.557 2.15214 4.34524 0
M  V30 9541 N 917.9 -1.47166 0.563914 0
M  V30 9542 C 918.83 -2.32894 -0.168148 0
M  V30 9543 C 919.811 -1.44202 -0.902214 0
M  V30 9544 O 920.996 -1.73048 -0.881365 0
M  V30 9545 C 918.126 -3.26116 -1.19439 0
M  V30 9546 C 917.08 -4.24101 -0.576363 0
M  V30 9547 C 916.406 -5.06696 -1.70772 0
M  V30 9548 C 917.706 -5.20142 0.47425 0
M  V30 9549 H 919.4 -2.9435 0.547573 0
M  V30 9550 H 916.946 -1.41545 0.264778 0
M  V30 9551 H 918.899 -3.84935 -1.71474 0
M  V30 9552 H 917.623 -2.62728 -1.94014 0
M  V30 9553 H 916.282 -3.66519 -0.0772534 0
M  V30 9554 H 915.93 -4.39707 -2.44268 0
M  V30 9555 H 915.63 -5.7304 -1.29994 0
M  V30 9556 H 917.154 -5.68375 -2.2312 0
M  V30 9557 H 918.568 -5.73286 0.0397035 0
M  V30 9558 H 916.965 -5.94726 0.801287 0
M  V30 9559 H 918.035 -4.65214 1.36764 0
M  V30 9560 N 919.378 -0.300708 -1.54705 0
M  V30 9561 C 920.608 0.310819 -2.04249 0
M  V30 9562 C 921.016 1.4809 -1.17754 0
M  V30 9563 O 920.359 1.82654 -0.195779 0
M  V30 9564 C 920.421 0.83014 -3.49784 0
M  V30 9565 C 920.085 -0.214628 -4.56496 0
M  V30 9566 C 921.082 -1.04298 -5.09331 0
M  V30 9567 C 918.767 -0.356242 -5.01035 0
M  V30 9568 C 920.761 -1.99889 -6.05246 0
M  V30 9569 C 918.448 -1.3156 -5.96771 0
M  V30 9570 C 919.446 -2.1354 -6.4876 0
M  V30 9571 O 919.134 -3.07849 -7.4262 0
M  V30 9572 H 918.866 0.0715341 -0.672204 0
M  V30 9573 H 921.42 -0.438179 -2.00672 0
M  V30 9574 H 919.65 1.62966 -3.50684 0
M  V30 9575 H 921.339 1.35752 -3.82526 0
M  V30 9576 H 922.105 -0.944439 -4.75716 0
M  V30 9577 H 917.984 0.271916 -4.60197 0
M  V30 9578 H 921.528 -2.63917 -6.45751 0
M  V30 9579 H 917.425 -1.41486 -6.29803 0
M  V30 9580 H 918.193 -3.02824 -7.60421 0
M  V30 9581 N 920.856 1.57574 -0.0284266 0
M  V30 9582 C 922.104 1.91393 0.649079 0
M  V30 9583 C 922.425 0.905368 1.72708 0
M  V30 9584 O 921.695 -0.0532107 1.95828 0
M  V30 9585 H 920.275 0.70646 0.24274 0
M  V30 9586 H 922.937 1.94752 -0.076066 0
M  V30 9587 H 922.033 2.91988 1.10226 0
M  V30 9588 N 922.334 -0.244713 1.55689 0
M  V30 9589 C 923.244 -1.32447 1.93636 0
M  V30 9590 C 924.26 -1.52541 0.837086 0
M  V30 9591 O 925.436 -1.66121 1.13867 0
M  V30 9592 C 922.501 -2.65864 2.22525 0
M  V30 9593 C 921.562 -2.54273 3.45896 0
M  V30 9594 C 920.795 -3.81327 3.73397 0
M  V30 9595 O 921.018 -4.83307 3.02936 0
M  V30 9596 O 919.952 -3.79829 4.66919 0
M  V30 9597 H 923.778 -1.03255 2.85608 0
M  V30 9598 H 921.363 -0.445652 1.42598 0
M  V30 9599 H 923.245 -3.447 2.42404 0
M  V30 9600 H 921.92 -2.94784 1.33731 0
M  V30 9601 H 920.827 -1.73715 3.31321 0
M  V30 9602 H 922.16 -2.30297 4.34999 0
M  V30 9603 N 923.813 -1.49104 -0.510467 0
M  V30 9604 C 925.038 -1.62068 -1.29417 0
M  V30 9605 C 925.463 -0.288432 -1.85875 0
M  V30 9606 O 924.821 0.742667 -1.65391 0
M  V30 9607 C 924.869 -2.68506 -2.40701 0
M  V30 9608 O 923.973 -2.27021 -3.4429 0
M  V30 9609 H 923.314 -0.542778 -0.382476 0
M  V30 9610 H 925.844 -1.95228 -0.612154 0
M  V30 9611 H 925.854 -2.90383 -2.86604 0
M  V30 9612 H 924.529 -3.65216 -1.98973 0
M  V30 9613 H 923.106 -2.15436 -3.04371 0
M  V30 9614 N 925.291 0.760815 -1.38019 0
M  V30 9615 C 926.702 1.33773 -1.30237 0
M  V30 9616 C 927.053 1.96148 0.0451153 0
M  V30 9617 O 926.178 1.94574 0.9471 0
M  V30 9618 C 926.773 2.43227 -2.35851 0
M  V30 9619 C 925.332 2.96659 -2.31669 0
M  V30 9620 C 924.479 1.69972 -2.191 0
M  V30 9621 H 927.43 0.560237 -1.48482 0
M  V30 9622 H 927.451 3.22985 -2.01149 0
M  V30 9623 H 926.963 1.978 -3.33911 0
M  V30 9624 H 925.064 3.46433 -1.37167 0
M  V30 9625 H 925.177 3.51529 -3.25521 0
M  V30 9626 H 923.541 1.9332 -1.65829 0
M  V30 9627 H 924.324 1.26633 -3.19091 0
M  V30 9628 N 926.769 1.22769 0.988202 0
M  V30 9629 C 928.015 1.06672 1.73184 0
M  V30 9630 C 928.37 -0.393434 1.88334 0
M  V30 9631 O 927.663 -1.2876 1.41885 0
M  V30 9632 C 927.857 1.71679 3.13466 0
M  V30 9633 C 927.686 3.23864 3.11997 0
M  V30 9634 C 926.456 3.92991 3.17626 0
M  V30 9635 C 928.654 4.20737 2.95778 0
M  V30 9636 N 926.636 5.32224 3.05959 0
M  V30 9637 C 928.007 5.46831 2.92191 0
M  V30 9638 C 930.062 4.1157 2.80205 0
M  V30 9639 C 928.765 6.64811 2.74624 0
M  V30 9640 C 930.791 5.29205 2.64 0
M  V30 9641 C 930.153 6.5422 2.61104 0
M  V30 9642 H 926.252 0.44481 0.64317 0
M  V30 9643 H 928.836 1.55381 1.17323 0
M  V30 9644 H 927.007 1.25513 3.67561 0
M  V30 9645 H 928.739 1.48629 3.76419 0
M  V30 9646 H 925.494 3.4402 3.25495 0
M  V30 9647 H 925.918 6.05197 3.03423 0
M  V30 9648 H 930.56 3.15697 2.81239 0
M  V30 9649 H 928.278 7.60828 2.72336 0
M  V30 9650 H 931.864 5.23947 2.52925 0
M  V30 9651 H 930.744 7.43713 2.48719 0
M  V30 9652 N 928.247 -1.18576 1.03814 0
M  V30 9653 C 929.495 -1.88121 0.738574 0
M  V30 9654 C 929.816 -1.80587 -0.735744 0
M  V30 9655 O 929.086 -1.22251 -1.53074 0
M  V30 9656 H 927.666 -0.696417 0.270208 0
M  V30 9657 H 930.328 -1.43912 1.31435 0
M  V30 9658 H 929.424 -2.94222 1.04115 0
M  V30 9659 N 929.725 -0.817259 -1.34754 0
M  V30 9660 C 930.971 -0.403244 -1.98751 0
M  V30 9661 C 931.304 1.02963 -1.64658 0
M  V30 9662 O 930.579 1.71617 -0.915314 0
M  V30 9663 C 930.862 -0.599188 -3.5508 0
M  V30 9664 C 930.715 -2.07777 -3.98934 0
M  V30 9665 C 932.034 -0.0315656 -4.40089 0
M  V30 9666 H 929.153 -0.147988 -0.721989 0
M  V30 9667 H 931.795 -1.02877 -1.59738 0
M  V30 9668 H 929.945 -0.0667116 -3.88443 0
M  V30 9669 H 931.617 -2.67345 -3.75931 0
M  V30 9670 H 929.86 -2.57031 -3.49453 0
M  V30 9671 H 930.531 -2.16571 -5.07741 0
M  V30 9672 H 933.007 -0.48644 -4.13247 0
M  V30 9673 H 931.883 -0.198507 -5.48541 0
M  V30 9674 H 932.144 1.06302 -4.2913 0
M  V30 9675 N 931.203 1.46865 -0.571711 0
M  V30 9676 C 932.431 2.06818 -0.0583975 0
M  V30 9677 C 932.846 1.42218 1.24175 0
M  V30 9678 O 932.203 0.523655 1.74826 0
M  V30 9679 C 932.254 3.61281 0.125673 0
M  V30 9680 O 931.975 4.23462 -1.123 0
M  V30 9681 C 933.476 4.38137 0.674604 0
M  V30 9682 H 930.696 0.668948 -0.052438 0
M  V30 9683 H 933.24 1.88656 -0.789251 0
M  V30 9684 H 931.395 3.78908 0.806707 0
M  V30 9685 H 931.809 5.16192 -0.929869 0
M  V30 9686 H 933.283 5.46845 0.752626 0
M  V30 9687 H 933.76 4.05419 1.68915 0
M  V30 9688 H 934.366 4.2529 0.0287979 0
M  V30 9689 N 932.681 0.308908 1.54543 0
M  V30 9690 C 934.092 -0.182144 1.85809 0
M  V30 9691 C 934.443 -1.52796 1.23076 0
M  V30 9692 O 933.568 -2.09775 0.531358 0
M  V30 9693 C 934.163 -0.337275 3.37117 0
M  V30 9694 C 932.722 -0.772545 3.68387 0
M  V30 9695 C 931.869 0.114451 2.77064 0
M  V30 9696 H 934.82 0.529671 1.496 0
M  V30 9697 H 934.841 -1.17058 3.62046 0
M  V30 9698 H 934.353 0.642382 3.82747 0
M  V30 9699 H 932.454 -1.76247 3.2828 0
M  V30 9700 H 932.567 -0.586453 4.75497 0
M  V30 9701 H 930.931 -0.407581 2.51418 0
M  V30 9702 H 931.714 1.09061 3.25516 0
M  V30 9703 N 934.159 -1.57557 0.0367827 0
M  V30 9704 C 935.408 -1.91291 -0.639569 0
M  V30 9705 C 935.721 -0.915601 -1.72847 0
M  V30 9706 O 936.927 -1.14447 -2.46199 0
M  V30 9707 C 935.383 -3.39697 -1.18888 0
M  V30 9708 C 934.991 -4.47803 -0.132851 0
M  V30 9709 C 936.735 -3.82487 -1.8413 0
M  V30 9710 C 934.642 -5.87311 -0.694229 0
M  V30 9711 H 933.572 -0.713886 -0.242658 0
M  V30 9712 H 936.223 -1.83209 0.103332 0
M  V30 9713 H 934.605 -3.42736 -1.98363 0
M  V30 9714 H 935.779 -4.56334 0.640009 0
M  V30 9715 H 934.094 -4.14264 0.421264 0
M  V30 9716 H 936.691 -4.84076 -2.27101 0
M  V30 9717 H 937.034 -3.17959 -2.68716 0
M  V30 9718 H 937.567 -3.81903 -1.11332 0
M  V30 9719 H 934.306 -6.55401 0.113667 0
M  V30 9720 H 933.826 -5.82371 -1.4354 0
M  V30 9721 H 935.505 -6.36119 -1.1816 0
M  V30 9722 N 935.637 0.236453 -1.55816 0
M  V30 9723 C 936.862 0.98449 -1.82545 0
M  V30 9724 C 937.287 1.77755 -0.615206 0
M  V30 9725 O 936.645 1.75982 0.435895 0
M  V30 9726 C 936.693 1.88973 -3.07118 0
M  V30 9727 O 935.797 2.98298 -2.84766 0
M  V30 9728 H 935.138 0.279577 -0.602273 0
M  V30 9729 H 937.668 0.254277 -2.03014 0
M  V30 9730 H 937.678 2.3024 -3.36829 0
M  V30 9731 H 936.353 1.30671 -3.94839 0
M  V30 9732 H 934.93 2.61085 -2.6625 0
M  V30 9733 N 937.115 1.49373 0.502552 0
M  V30 9734 C 938.362 1.58781 1.25678 0
M  V30 9735 C 938.69 0.273819 1.92563 0
M  V30 9736 O 937.945 -0.738141 1.81246 0
M  V30 9737 C 938.244 2.69508 2.34735 0
M  V30 9738 C 937.91 4.11057 1.85318 0
M  V30 9739 C 936.572 4.49578 1.7156 0
M  V30 9740 C 938.924 4.99653 1.48312 0
M  V30 9741 C 936.252 5.74469 1.19172 0
M  V30 9742 C 938.604 6.2506 0.97377 0
M  V30 9743 C 937.268 6.62412 0.822573 0
M  V30 9744 H 936.538 0.581021 0.459887 0
M  V30 9745 H 939.185 1.83197 0.557767 0
M  V30 9746 H 937.49 2.39057 3.10418 0
M  V30 9747 H 939.187 2.73997 2.92791 0
M  V30 9748 H 935.777 3.80651 1.96985 0
M  V30 9749 H 939.961 4.70549 1.57789 0
M  V30 9750 H 935.217 6.0211 1.06176 0
M  V30 9751 H 939.391 6.93089 0.678233 0
M  V30 9752 H 937.018 7.59069 0.414453 0
M  V30 9753 N 938.594 -0.753485 1.38421 0
M  V30 9754 C 939.504 -1.89797 1.37892 0
M  V30 9755 C 940.52 -1.71797 0.276023 0
M  V30 9756 O 941.696 -1.94718 0.514464 0
M  V30 9757 C 938.761 -3.25166 1.20284 0
M  V30 9758 C 937.822 -3.55691 2.4038 0
M  V30 9759 C 937.055 -4.84601 2.23602 0
M  V30 9760 O 937.278 -5.56985 1.22979 0
M  V30 9761 O 936.212 -5.14605 3.12194 0
M  V30 9762 H 940.038 -1.93197 2.34326 0
M  V30 9763 H 937.623 -0.898775 1.19342 0
M  V30 9764 H 939.505 -4.06099 1.12525 0
M  V30 9765 H 938.18 -3.22577 0.269352 0
M  V30 9766 H 937.087 -2.74919 2.53714 0
M  V30 9767 H 938.42 -3.6304 3.32359 0
M  V30 9768 N 940.072 -1.23292 -0.981677 0
M  V30 9769 C 941.3 -1.09088 -1.75805 0
M  V30 9770 C 941.715 0.357746 -1.8538 0
M  V30 9771 O 941.072 1.24751 -1.33205 0
M  V30 9772 C 941.123 -1.70885 -3.1856 0
M  V30 9773 O 940.844 -3.10082 -3.09484 0
M  V30 9774 C 942.345 -1.62106 -4.12597 0
M  V30 9775 H 939.565 -0.38184 -0.55176 0
M  V30 9776 H 942.109 -1.63116 -1.23342 0
M  V30 9777 H 940.264 -1.20893 -3.68054 0
M  V30 9778 H 940.678 -3.40039 -3.99342 0
M  V30 9779 H 942.152 -2.10049 -5.10474 0
M  V30 9780 H 942.629 -0.579642 -4.35358 0
M  V30 9781 H 943.235 -2.11457 -3.69007 0
M  V30 9782 N 941.55 1.18024 -1.04442 0
M  V30 9783 C 942.961 1.69749 -0.777312 0
M  V30 9784 C 943.312 1.83234 0.701399 0
M  V30 9785 O 942.437 1.51452 1.54568 0
M  V30 9786 C 943.032 3.08321 -1.40441 0
M  V30 9787 C 941.591 3.57243 -1.18553 0
M  V30 9788 C 940.738 2.33695 -1.49271 0
M  V30 9789 H 943.689 1.02647 -1.21035 0
M  V30 9790 H 943.71 3.71787 -0.809628 0
M  V30 9791 H 943.222 2.98474 -2.48062 0
M  V30 9792 H 941.323 3.72379 -0.128221 0
M  V30 9793 H 941.436 4.40451 -1.88519 0
M  V30 9794 H 939.8 2.37792 -0.912526 0
M  V30 9795 H 940.583 2.26464 -2.5801 0
M  V30 9796 N 943.028 0.824394 1.34319 0
M  V30 9797 C 944.253 0.425194 2.02995 0
M  V30 9798 C 944.678 -0.961476 1.6167 0
M  V30 9799 O 944.036 -1.62593 0.80207 0
M  V30 9800 C 944.084 0.537004 3.56579 0
M  V30 9801 O 943.188 -0.442576 4.10018 0
M  V30 9802 H 942.529 0.174853 0.640564 0
M  V30 9803 H 945.059 1.11522 1.71534 0
M  V30 9804 H 945.069 0.413311 4.05901 0
M  V30 9805 H 943.744 1.54836 3.86004 0
M  V30 9806 H 942.321 -0.277644 3.71865 0
M  V30 9807 N 944.506 -1.46559 0.579492 0
M  V30 9808 C 945.454 -2.3199 -0.168413 0
M  V30 9809 C 946.448 -1.44288 -0.887551 0
M  V30 9810 O 947.654 -1.60931 -0.806305 0
M  V30 9811 H 944.029 -0.748431 -0.0731799 0
M  V30 9812 H 946 -2.92886 0.570973 0
M  V30 9813 C 944.749 -3.27392 -1.1709 0
M  V30 9814 H 944.072 -3.94853 -0.626958 0
M  V30 9815 H 945.512 -3.89955 -1.66467 0
M  V30 9816 C 943.971 -2.52511 -2.23024 0
M  V30 9817 O 944.501 -2.2858 -3.30324 0
M  V30 9818 N 942.707 -2.1313 -1.97545 0
M  V30 9819 H 942.254 -2.32793 -1.10297 0
M  V30 9820 H 942.212 -1.63348 -2.68635 0
M  V30 9821 N 945.984 -0.3171 -1.54377 0
M  V30 9822 C 947.395 0.172287 -1.85903 0
M  V30 9823 C 947.746 1.52141 -1.23885 0
M  V30 9824 O 946.871 2.0949 -0.542476 0
M  V30 9825 C 947.466 0.319392 -3.37291 0
M  V30 9826 C 946.025 0.752998 -3.68791 0
M  V30 9827 C 945.172 -0.129143 -2.76999 0
M  V30 9828 H 948.123 -0.537597 -1.49317 0
M  V30 9829 H 948.144 1.15137 -3.62662 0
M  V30 9830 H 947.656 -0.662671 -3.82401 0
M  V30 9831 H 945.757 1.74504 -3.2921 0
M  V30 9832 H 945.87 0.561228 -4.75801 0
M  V30 9833 H 944.234 0.394242 -2.5163 0
M  V30 9834 H 945.017 -1.10785 -3.24933 0
M  V30 9835 N 947.462 1.57535 -0.0451378 0
M  V30 9836 C 948.873 1.80116 0.491426 0
M  V30 9837 C 949.224 0.956846 1.71286 0
M  V30 9838 O 948.349 0.17173 2.15718 0
M  V30 9839 C 948.944 3.26674 0.898315 0
M  V30 9840 C 947.503 3.50194 1.37989 0
M  V30 9841 C 946.65 2.75054 0.352202 0
M  V30 9842 H 949.601 1.56368 -0.271065 0
M  V30 9843 H 949.622 3.37263 1.76164 0
M  V30 9844 H 949.134 3.88099 0.009141 0
M  V30 9845 H 947.235 2.94041 2.28846 0
M  V30 9846 H 947.348 4.58909 1.37622 0
M  V30 9847 H 945.712 2.4101 0.823784 0
M  V30 9848 H 946.495 3.39203 -0.528782 0
M  V30 9849 N 948.94 -0.228186 1.55939 0
M  V30 9850 C 949.87 -1.28607 1.94891 0
M  V30 9851 C 950.851 -1.49236 0.816245 0
M  V30 9852 O 952.036 -1.61531 1.07803 0
M  V30 9853 C 949.166 -2.63719 2.25986 0
M  V30 9854 C 948.12 -2.57757 3.4168 0
M  V30 9855 C 947.446 -3.96837 3.58364 0
M  V30 9856 C 948.746 -2.13116 4.76843 0
M  V30 9857 H 950.44 -0.962531 2.83506 0
M  V30 9858 H 947.986 -0.461577 1.36402 0
M  V30 9859 H 949.939 -3.37878 2.51826 0
M  V30 9860 H 948.663 -2.97747 1.34217 0
M  V30 9861 H 947.322 -1.86055 3.15878 0
M  V30 9862 H 946.97 -4.28162 2.63982 0
M  V30 9863 H 946.67 -3.93731 4.36176 0
M  V30 9864 H 948.194 -4.72668 3.86545 0
M  V30 9865 H 949.608 -2.77015 5.01932 0
M  V30 9866 H 948.005 -2.21083 5.57891 0
M  V30 9867 H 949.075 -1.08326 4.72645 0
M  V30 9868 N 950.418 -1.49637 -0.494624 0
M  V30 9869 C 951.381 -1.66252 -1.57775 0
M  V30 9870 C 952.381 -0.534054 -1.51672 0
M  V30 9871 O 953.571 -0.800637 -1.54711 0
M  V30 9872 C 950.703 -1.66584 -2.97426 0
M  V30 9873 H 951.896 -2.62864 -1.4437 0
M  V30 9874 H 949.449 -1.38764 -0.719323 0
M  V30 9875 H 950.184 -0.715798 -3.16302 0
M  V30 9876 H 949.969 -2.48543 -3.03264 0
M  V30 9877 H 951.459 -1.81474 -3.76108 0
M  V30 9878 N 951.896 0.746133 -1.38819 0
M  V30 9879 C 953.312 1.0502 -1.20179 0
M  V30 9880 C 953.512 2.01423 -0.0556271 0
M  V30 9881 O 952.568 2.45359 0.59625 0
M  V30 9882 C 953.881 1.62315 -2.53129 0
M  V30 9883 C 955.429 1.74449 -2.59878 0
M  V30 9884 C 955.904 2.35155 -3.93022 0
M  V30 9885 N 957.395 2.42577 -3.94602 0
M  V30 9886 C 958.13 2.9046 -4.94389 0
M  V30 9887 N 957.626 3.38322 -6.04574 0
M  V30 9888 N 959.419 2.89568 -4.81775 0
M  V30 9889 H 951.57 0.106551 -2.12133 0
M  V30 9890 H 953.833 0.109897 -0.941609 0
M  V30 9891 H 953.539 0.98946 -3.37495 0
M  V30 9892 H 953.413 2.61276 -2.72057 0
M  V30 9893 H 955.8 2.36943 -1.75903 0
M  V30 9894 H 955.881 0.741721 -2.4481 0
M  V30 9895 H 955.525 1.73292 -4.77422 0
M  V30 9896 H 955.455 3.36088 -4.05404 0
M  V30 9897 H 957.946 2.08735 -3.15021 0
M  V30 9898 H 958.259 3.73336 -6.76639 0
M  V30 9899 H 956.604 3.3636 -6.08184 0
M  V30 9900 H 959.795 2.51492 -3.94803 0
M  V30 9901 H 959.968 3.26571 -5.59692 0
M  V30 9902 N 953.375 1.23811 0.975125 0
M  V30 9903 C 954.623 1.07124 1.71373 0
M  V30 9904 C 954.944 -0.391864 1.91022 0
M  V30 9905 O 954.214 -1.28041 1.48265 0
M  V30 9906 H 952.794 0.393415 0.635007 0
M  V30 9907 H 955.456 1.55612 1.17349 0
M  V30 9908 H 954.552 1.56338 2.7012 0
M  V30 9909 N 954.853 -1.17469 1.05066 0
M  V30 9910 C 955.803 -2.19388 0.620713 0
M  V30 9911 C 956.787 -1.5722 -0.34214 0
M  V30 9912 O 957.979 -1.76279 -0.159574 0
M  V30 9913 C 955.108 -3.433 -0.00438518 0
M  V30 9914 C 954.194 -4.12569 0.982218 0
M  V30 9915 N 954.585 -4.57683 2.15313 0
M  V30 9916 C 952.883 -4.38575 0.810416 0
M  V30 9917 C 953.584 -5.11124 2.77719 0
M  V30 9918 N 952.56 -5.0325 2.05525 0
M  V30 9919 H 956.362 -2.51971 1.51287 0
M  V30 9920 H 953.876 -1.33784 0.920625 0
M  V30 9921 H 955.873 -4.15591 -0.330161 0
M  V30 9922 H 954.533 -3.12209 -0.89195 0
M  V30 9923 H 955.544 -4.51812 2.53154 0
M  V30 9924 H 952.221 -4.17492 -0.0262078 0
M  V30 9925 H 953.611 -5.56161 3.77008 0
M  V30 9926 N 956.331 -0.831506 -1.3388 0
M  V30 9927 C 957.577 -0.424302 -1.98312 0
M  V30 9928 C 957.91 1.01211 -1.65741 0
M  V30 9929 O 957.185 1.70636 -0.933464 0
M  V30 9930 C 957.468 -0.636815 -3.54424 0
M  V30 9931 C 957.321 -2.11997 -3.96708 0
M  V30 9932 C 958.64 -0.0782411 -4.4003 0
M  V30 9933 H 955.759 -0.155637 -0.720379 0
M  V30 9934 H 958.401 -1.04566 -1.58638 0
M  V30 9935 H 956.551 -0.107907 -3.8835 0
M  V30 9936 H 958.223 -2.71317 -3.73075 0
M  V30 9937 H 956.466 -2.60723 -3.46707 0
M  V30 9938 H 957.137 -2.21944 -5.05416 0
M  V30 9939 H 959.613 -0.530243 -4.12708 0
M  V30 9940 H 958.489 -0.256676 -5.483 0
M  V30 9941 H 958.75 1.01745 -4.30233 0
M  V30 9942 N 957.809 1.4625 -0.587256 0
M  V30 9943 C 959.058 2.01571 -0.0722643 0
M  V30 9944 C 959.371 1.46385 1.29733 0
M  V30 9945 O 960.577 1.93554 1.90392 0
M  V30 9946 C 959.033 3.59814 -0.078579 0
M  V30 9947 C 958.641 4.23996 -1.44678 0
M  V30 9948 C 960.385 4.22776 0.382231 0
M  V30 9949 C 958.292 5.74332 -1.41057 0
M  V30 9950 H 957.222 0.753642 -0.0232461 0
M  V30 9951 H 959.873 1.67936 -0.739577 0
M  V30 9952 H 958.255 3.90546 0.654988 0
M  V30 9953 H 959.429 4.04867 -2.20043 0
M  V30 9954 H 957.744 3.73147 -1.84799 0
M  V30 9955 H 960.341 5.32983 0.428182 0
M  V30 9956 H 960.684 3.92027 1.40072 0
M  V30 9957 H 961.217 3.96687 -0.297417 0
M  V30 9958 H 957.956 6.09747 -2.40601 0
M  V30 9959 H 957.476 5.95711 -0.699185 0
M  V30 9960 H 959.155 6.37137 -1.12543 0
M  V30 9961 N 959.287 0.325282 1.54207 0
M  V30 9962 C 960.25 -0.527228 2.23054 0
M  V30 9963 C 961.25 -1.04217 1.22456 0
M  V30 9964 O 962.44 -0.934325 1.47024 0
M  V30 9965 C 959.572 -1.7325 2.93594 0
M  V30 9966 H 960.765 0.0746423 2.99807 0
M  V30 9967 H 958.318 0.0763872 1.56113 0
M  V30 9968 H 959.053 -2.37356 2.20981 0
M  V30 9969 H 958.838 -1.37065 3.67363 0
M  V30 9970 H 960.328 -2.3376 3.46043 0
M  V30 9971 N 960.765 -1.57509 0.0534917 0
M  V30 9972 C 961.728 -2.10563 -0.905307 0
M  V30 9973 C 962.728 -1.02571 -1.23838 0
M  V30 9974 O 963.918 -1.28635 -1.17468 0
M  V30 9975 C 961.05 -2.5918 -2.21447 0
M  V30 9976 H 962.243 -2.96575 -0.445354 0
M  V30 9977 H 959.796 -1.55079 -0.194947 0
M  V30 9978 H 960.531 -1.76568 -2.72019 0
M  V30 9979 H 960.316 -3.38098 -1.98575 0
M  V30 9980 H 961.806 -3.00365 -2.90122 0
M  V30 9981 N 962.243 0.219913 -1.56058 0
M  V30 9982 C 963.659 0.569685 -1.49086 0
M  V30 9983 C 963.859 1.87066 -0.748903 0
M  V30 9984 O 962.915 2.50838 -0.289235 0
M  V30 9985 C 964.228 0.647397 -2.93648 0
M  V30 9986 C 965.776 0.737914 -3.04177 0
M  V30 9987 C 966.251 0.846957 -4.50101 0
M  V30 9988 N 967.742 0.911136 -4.5415 0
M  V30 9989 C 968.477 1.01525 -5.64341 0
M  V30 9990 N 967.973 1.0832 -6.8428 0
M  V30 9991 N 969.766 1.05051 -5.52196 0
M  V30 9992 H 961.917 -0.633778 -2.02724 0
M  V30 9993 H 964.18 -0.222583 -0.921499 0
M  V30 9994 H 963.886 -0.238987 -3.50887 0
M  V30 9995 H 963.76 1.51046 -3.45637 0
M  V30 9996 H 966.147 1.61474 -2.47002 0
M  V30 9997 H 966.228 -0.150845 -2.55355 0
M  V30 9998 H 965.872 -0.0254166 -5.07894 0
M  V30 9999 H 965.802 1.75116 -4.96631 0
M  V30 10000 H 968.293 0.868869 -3.67776 0
M  V30 10001 H 968.606 1.16247 -7.64007 0
M  V30 10002 H 966.951 1.05231 -6.86987 0
M  V30 10003 H 970.142 0.994086 -4.57423 0
M  V30 10004 H 970.315 1.12819 -6.38103 0
M  V30 10005 N 963.721 1.49897 0.486681 0
M  V30 10006 C 964.97 1.59349 1.23656 0
M  V30 10007 C 965.283 0.292024 1.93408 0
M  V30 10008 O 966.489 0.265258 2.70201 0
M  V30 10009 C 964.945 2.81215 2.24602 0
M  V30 10010 C 964.553 4.18177 1.60725 0
M  V30 10011 C 966.297 3.00004 3.00329 0
M  V30 10012 C 964.204 5.31247 2.59866 0
M  V30 10013 H 963.134 0.593363 0.465227 0
M  V30 10014 H 965.785 1.76306 0.508769 0
M  V30 10015 H 964.167 2.57783 3.00606 0
M  V30 10016 H 965.341 4.51802 0.90616 0
M  V30 10017 H 963.656 4.04864 0.973362 0
M  V30 10018 H 966.253 3.81649 3.74497 0
M  V30 10019 H 966.596 2.1112 3.58795 0
M  V30 10020 H 967.129 3.23544 2.3144 0
M  V30 10021 H 963.868 6.22236 2.06161 0
M  V30 10022 H 963.388 5.02059 3.28172 0
M  V30 10023 H 965.067 5.61177 3.22009 0
M  V30 10024 N 965.199 -0.738761 1.39212 0
M  V30 10025 C 966.427 -1.52801 1.39497 0
M  V30 10026 C 966.842 -1.88797 -0.0114917 0
M  V30 10027 O 966.199 -1.53835 -0.981887 0
M  V30 10028 C 966.25 -2.81793 2.2644 0
M  V30 10029 O 965.971 -2.47328 3.61608 0
M  V30 10030 C 967.472 -3.75844 2.35067 0
M  V30 10031 H 964.692 -0.472322 0.476606 0
M  V30 10032 H 967.236 -0.913153 1.8298 0
M  V30 10033 H 965.391 -3.3962 1.8638 0
M  V30 10034 H 965.805 -3.30162 4.07545 0
M  V30 10035 H 967.279 -4.6326 3.00157 0
M  V30 10036 H 967.756 -4.17329 1.3687 0
M  V30 10037 H 968.362 -3.23937 2.75581 0
M  V30 10038 N 966.677 -1.24326 -0.968545 0
M  V30 10039 C 967.902 -1.1104 -1.75171 0
M  V30 10040 C 968.327 0.333109 -1.85127 0
M  V30 10041 O 967.685 1.24115 -1.32156 0
M  V30 10042 C 967.733 -1.75397 -3.15068 0
M  V30 10043 O 966.837 -1.02417 -3.9948 0
M  V30 10044 H 966.178 -0.388488 -0.538491 0
M  V30 10045 H 968.708 -1.64617 -1.215 0
M  V30 10046 H 968.718 -1.8112 -3.65595 0
M  V30 10047 H 967.393 -2.80427 -3.07138 0
M  V30 10048 H 965.97 -1.04475 -3.57966 0
M  V30 10049 N 968.156 1.1691 -1.05688 0
M  V30 10050 C 969.066 2.24735 -0.67315 0
M  V30 10051 C 970.082 1.71252 0.308043 0
M  V30 10052 O 971.258 2.00772 0.158889 0
M  V30 10053 C 968.323 3.4665 -0.059026 0
M  V30 10054 C 967.384 4.15198 -1.0913 0
M  V30 10055 C 966.617 5.31292 -0.50639 0
M  V30 10056 O 966.84 5.663 0.682692 0
M  V30 10057 O 965.774 5.88923 -1.2431 0
M  V30 10058 H 969.6 2.59855 -1.57191 0
M  V30 10059 H 967.185 1.24306 -0.828751 0
M  V30 10060 H 969.067 4.20455 0.282018 0
M  V30 10061 H 967.742 3.13316 0.813304 0
M  V30 10062 H 966.649 3.43389 -1.48442 0
M  V30 10063 H 967.982 4.52571 -1.93495 0
M  V30 10064 N 969.634 0.838594 1.33437 0
M  V30 10065 C 970.582 0.260158 2.31141 0
M  V30 10066 C 971.576 -0.607706 1.58124 0
M  V30 10067 O 972.782 -0.497298 1.72994 0
M  V30 10068 H 969.157 0.0654031 0.74915 0
M  V30 10069 H 971.128 1.09874 2.77435 0
M  V30 10070 C 969.877 -0.550234 3.43319 0
M  V30 10071 H 969.2 0.108262 3.99653 0
M  V30 10072 H 970.64 -0.920815 4.1388 0
M  V30 10073 C 969.099 -1.729 2.89149 0
M  V30 10074 O 969.629 -2.82769 2.85315 0
M  V30 10075 N 967.835 -1.5508 2.45761 0
M  V30 10076 H 967.382 -0.657055 2.49079 0
M  V30 10077 H 967.34 -2.34099 2.0987 0
M  V30 10078 N 971.112 -1.45937 0.595003 0
M  V30 10079 C 972.523 -1.85908 0.171779 0
M  V30 10080 C 972.874 -1.497 -1.26824 0
M  V30 10081 O 971.999 -0.917688 -1.95978 0
M  V30 10082 C 972.594 -3.37425 0.304976 0
M  V30 10083 C 971.153 -3.76346 -0.0634635 0
M  V30 10084 C 970.3 -2.69926 0.635255 0
M  V30 10085 H 973.251 -1.36916 0.802471 0
M  V30 10086 H 973.272 -3.77632 -0.466313 0
M  V30 10087 H 972.784 -3.63747 1.35314 0
M  V30 10088 H 970.885 -3.55642 -1.11129 0
M  V30 10089 H 970.998 -4.78021 0.321419 0
M  V30 10090 H 969.362 -2.54592 0.0742054 0
M  V30 10091 H 970.145 -2.99086 1.68531 0
M  V30 10092 N 972.59 -0.333456 -1.54032 0
M  V30 10093 C 973.867 0.320902 -1.9295 0
M  V30 10094 C 974.247 1.69071 -1.26405 0
M  V30 10095 O 973.595 2.24768 -0.411311 0
M  V30 10096 C 973.805 0.403257 -3.46662 0
M  V30 10097 C 975.153 0.658875 -4.19457 0
M  V30 10098 O 976.177 0.485781 -3.52872 0
M  V30 10099 O 975.036 0.993475 -5.37394 0
M  V30 10100 H 972.13 0.185158 -0.806006 0
M  V30 10101 H 974.676 -0.383895 -1.65301 0
M  V30 10102 H 973.448 -0.558409 -3.87295 0
M  V30 10103 H 973.071 1.15524 -3.80447 0
M  V30 10104 N 974.068 1.57479 -0.061844 0
M  V30 10105 C 974.978 2.15645 0.923826 0
M  V30 10106 C 975.994 1.117 1.33413 0
M  V30 10107 O 977.17 1.4392 1.40887 0
M  V30 10108 C 974.235 2.69857 2.17665 0
M  V30 10109 C 973.296 3.88638 1.8237 0
M  V30 10110 C 972.529 4.40256 3.01679 0
M  V30 10111 O 972.752 3.90908 4.15388 0
M  V30 10112 O 971.686 5.31713 2.82073 0
M  V30 10113 H 975.512 3.0021 0.459094 0
M  V30 10114 H 973.097 1.48534 0.160665 0
M  V30 10115 H 974.979 3.04647 2.9115 0
M  V30 10116 H 973.654 1.88357 2.63255 0
M  V30 10117 H 972.561 3.58719 1.06167 0
M  V30 10118 H 973.894 4.71401 1.4157 0
M  V30 10119 N 975.546 -0.211634 1.56173 0
M  V30 10120 C 976.794 -0.932704 1.7929 0
M  V30 10121 C 977.115 -1.84472 0.632076 0
M  V30 10122 O 976.385 -1.92739 -0.350519 0
M  V30 10123 H 974.965 -0.347393 0.661307 0
M  V30 10124 H 977.627 -0.22111 1.93642 0
M  V30 10125 H 976.723 -1.53365 2.71819 0
M  V30 10126 N 977.024 -1.50153 -0.478725 0
M  V30 10127 C 978.271 -1.6076 -1.23136 0
M  V30 10128 C 978.599 -0.30442 -1.92103 0
M  V30 10129 O 977.854 0.709213 -1.82397 0
M  V30 10130 C 978.153 -2.73208 -2.30417 0
M  V30 10131 C 977.819 -4.13953 -1.78755 0
M  V30 10132 C 976.481 -4.52251 -1.64386 0
M  V30 10133 C 978.833 -5.01949 -1.40344 0
M  V30 10134 C 976.161 -5.76292 -1.10018 0
M  V30 10135 C 978.513 -6.2653 -0.874206 0
M  V30 10136 C 977.177 -6.63637 -0.717085 0
M  V30 10137 H 976.447 -0.588264 -0.450585 0
M  V30 10138 H 979.094 -1.84061 -0.528551 0
M  V30 10139 H 977.399 -2.43965 -3.06575 0
M  V30 10140 H 979.096 -2.7862 -2.88395 0
M  V30 10141 H 975.686 -3.83736 -1.90904 0
M  V30 10142 H 979.87 -4.73 -1.50283 0
M  V30 10143 H 975.126 -6.03723 -0.965838 0
M  V30 10144 H 979.3 -6.94081 -0.567883 0
M  V30 10145 H 976.927 -7.59633 -0.293639 0
M  V30 10146 N 978.502 0.731368 -1.39602 0
M  V30 10147 C 979.449 1.84541 -1.38612 0
M  V30 10148 C 980.419 1.64279 -0.245287 0
M  V30 10149 O 981.604 1.85635 -0.440954 0
M  V30 10150 C 978.744 3.22092 -1.23897 0
M  V30 10151 C 977.857 3.54034 -2.47555 0
M  V30 10152 C 976.992 4.81007 -2.25402 0
M  V30 10153 C 976.031 5.05804 -3.44716 0
M  V30 10154 N 975.168 6.23981 -3.21857 0
M  V30 10155 H 980.008 1.84722 -2.33841 0
M  V30 10156 H 977.545 0.902569 -1.16156 0
M  V30 10157 H 979.503 4.01499 -1.13376 0
M  V30 10158 H 978.133 3.2118 -0.322958 0
M  V30 10159 H 977.185 2.69301 -2.68665 0
M  V30 10160 H 978.497 3.68275 -3.36415 0
M  V30 10161 H 977.651 5.68401 -2.12143 0
M  V30 10162 H 976.39 4.68946 -1.33943 0
M  V30 10163 H 975.395 4.1687 -3.58468 0
M  V30 10164 H 976.62 5.19747 -4.37081 0
M  V30 10165 H 974.566 6.13202 -2.33065 0
M  V30 10166 H 974.483 6.38826 -4.04274 0
M  V30 10167 H 975.751 7.14205 -3.123 0
M  V30 10168 N 979.98 1.24838 0.961938 0
M  V30 10169 C 981.391 1.08369 1.5203 0
M  V30 10170 C 981.742 -0.343005 1.93178 0
M  V30 10171 O 980.867 -1.2321 1.779 0
M  V30 10172 C 981.462 1.96102 2.76278 0
M  V30 10173 C 980.021 1.8384 3.28451 0
M  V30 10174 C 979.168 1.9069 2.01327 0
M  V30 10175 H 982.119 1.38231 0.779613 0
M  V30 10176 H 982.14 1.4967 3.49827 0
M  V30 10177 H 981.652 2.99931 2.46298 0
M  V30 10178 H 979.753 0.828653 3.63269 0
M  V30 10179 H 979.866 2.68251 3.96961 0
M  V30 10180 H 978.23 1.34488 2.16299 0
M  V30 10181 H 979.013 2.96111 1.73705 0
M  V30 10182 N 981.458 -1.16348 1.06306 0
M  V30 10183 C 982.683 -1.91323 0.800636 0
M  V30 10184 C 983.108 -1.7691 -0.639105 0
M  V30 10185 O 982.466 -1.0945 -1.44535 0
M  V30 10186 C 982.514 -3.40038 1.20027 0
M  V30 10187 O 981.618 -4.11003 0.339142 0
M  V30 10188 H 980.959 -0.596057 0.292595 0
M  V30 10189 H 983.489 -1.47406 1.41889 0
M  V30 10190 H 983.499 -3.90808 1.17188 0
M  V30 10191 H 982.174 -3.49848 2.24898 0
M  V30 10192 H 980.751 -3.70423 0.42911 0
M  V30 10193 N 982.937 -0.845659 -1.3299 0
M  V30 10194 C 984.162 -0.457435 -2.02293 0
M  V30 10195 C 984.587 0.935634 -1.63179 0
M  V30 10196 O 983.945 1.61297 -0.827835 0
M  V30 10197 C 983.993 -0.593665 -3.5568 0
M  V30 10198 O 983.097 0.37729 -4.10671 0
M  V30 10199 H 982.438 -0.185022 -0.637701 0
M  V30 10200 H 984.968 -1.14237 -1.69738 0
M  V30 10201 H 984.978 -0.477834 -4.05192 0
M  V30 10202 H 983.653 -1.60957 -3.83491 0
M  V30 10203 H 982.23 0.218448 -3.7226 0
M  V30 10204 N 984.415 1.45619 -0.602734 0
M  V30 10205 C 985.663 2.01873 -0.095844 0
M  V30 10206 C 985.984 1.47427 1.27633 0
M  V30 10207 O 985.254 0.666652 1.84208 0
M  V30 10208 H 983.834 0.746295 -0.0324408 0
M  V30 10209 H 986.496 1.78478 -0.783037 0
M  V30 10210 H 985.592 3.12072 -0.0419507 0
M  V30 10211 N 985.893 0.34162 1.53853 0
M  V30 10212 C 987.121 -0.256929 2.05299 0
M  V30 10213 C 987.536 -1.44366 1.21671 0
M  V30 10214 O 986.893 -1.80758 0.251584 0
M  V30 10215 C 986.944 -0.673854 3.55164 0
M  V30 10216 O 986.665 0.465687 4.35618 0
M  V30 10217 C 988.166 -1.33332 4.22773 0
M  V30 10218 H 985.386 -0.0499445 0.669139 0
M  V30 10219 H 987.93 0.493048 1.98467 0
M  V30 10220 H 986.085 -1.37378 3.62224 0
M  V30 10221 H 986.499 0.133723 5.2433 0
M  V30 10222 H 987.973 -1.57582 5.29029 0
M  V30 10223 H 988.45 -2.28628 3.75001 0
M  V30 10224 H 989.056 -0.675489 4.19901 0
M  V30 10225 N 987.371 -1.57444 0.0701946 0
M  V30 10226 C 988.617 -1.93716 -0.600178 0
M  V30 10227 C 988.95 -0.950329 -1.69359 0
M  V30 10228 O 988.225 0.0207123 -1.94489 0
M  V30 10229 C 988.508 -3.40266 -1.17861 0
M  V30 10230 C 988.361 -4.49706 -0.0919575 0
M  V30 10231 C 989.68 -3.87599 -2.08459 0
M  V30 10232 H 986.799 -0.704421 -0.216704 0
M  V30 10233 H 989.441 -1.89514 0.135838 0
M  V30 10234 H 987.591 -3.43977 -1.80587 0
M  V30 10235 H 989.263 -4.58116 0.541031 0
M  V30 10236 H 987.506 -4.29937 0.577639 0
M  V30 10237 H 988.177 -5.49381 -0.537048 0
M  V30 10238 H 990.653 -3.85883 -1.5567 0
M  V30 10239 H 989.529 -4.90755 -2.45867 0
M  V30 10240 H 989.79 -3.25448 -2.99226 0
M  V30 10241 N 988.849 0.203349 -1.56283 0
M  V30 10242 C 989.781 1.27592 -1.90402 0
M  V30 10243 C 990.794 1.4213 -0.79391 0
M  V30 10244 O 991.983 1.42703 -1.07229 0
M  V30 10245 C 989.083 2.64919 -2.11356 0
M  V30 10246 C 988.256 2.72095 -3.42466 0
M  V30 10247 C 987.315 3.9056 -3.52631 0
M  V30 10248 O 986.341 3.78048 -4.25521 0
M  V30 10249 N 987.543 5.0566 -2.85111 0
M  V30 10250 H 990.308 0.986423 -2.83001 0
M  V30 10251 H 987.869 0.39331 -1.5705 0
M  V30 10252 H 989.861 3.42581 -2.15453 0
M  V30 10253 H 988.431 2.86391 -1.25295 0
M  V30 10254 H 987.651 1.8077 -3.50308 0
M  V30 10255 H 988.939 2.73874 -4.28801 0
M  V30 10256 H 988.337 5.18723 -2.25705 0
M  V30 10257 H 986.894 5.81299 -2.94847 0
M  V30 10258 N 990.327 1.50405 0.470755 0
M  V30 10259 C 991.237 1.7208 1.59454 0
M  V30 10260 C 992.253 0.603932 1.63183 0
M  V30 10261 O 993.429 0.882296 1.81046 0
M  V30 10262 C 990.494 1.81057 2.95667 0
M  V30 10263 C 989.555 3.04792 3.02324 0
M  V30 10264 C 988.788 3.13332 4.3204 0
M  V30 10265 O 989.011 2.28655 5.22564 0
M  V30 10266 O 987.945 4.0606 4.44296 0
M  V30 10267 H 991.771 2.67343 1.44089 0
M  V30 10268 H 989.356 1.34505 0.650286 0
M  V30 10269 H 991.238 1.8914 3.76569 0
M  V30 10270 H 989.913 0.889782 3.11231 0
M  V30 10271 H 988.82 3.0221 2.205 0
M  V30 10272 H 990.153 3.96451 2.91698 0
M  V30 10273 N 991.805 -0.723954 1.39988 0
M  V30 10274 C 992.735 -1.85103 1.42335 0
M  V30 10275 C 993.716 -1.6769 0.285297 0
M  V30 10276 O 994.901 -1.87846 0.492716 0
M  V30 10277 C 992.031 -3.22972 1.27697 0
M  V30 10278 C 990.985 -3.55041 2.39018 0
M  V30 10279 C 990.311 -4.91965 2.09462 0
M  V30 10280 C 991.611 -3.56889 3.8135 0
M  V30 10281 H 993.305 -1.83396 2.36656 0
M  V30 10282 H 990.851 -0.880926 1.13911 0
M  V30 10283 H 992.804 -4.01503 1.27958 0
M  V30 10284 H 991.528 -3.25233 0.298487 0
M  V30 10285 H 990.187 -2.78845 2.37993 0
M  V30 10286 H 989.835 -4.90819 1.10025 0
M  V30 10287 H 989.535 -5.14389 2.84038 0
M  V30 10288 H 991.059 -5.7284 2.11391 0
M  V30 10289 H 992.473 -4.25476 3.84243 0
M  V30 10290 H 990.87 -3.90836 4.55376 0
M  V30 10291 H 991.94 -2.56452 4.11534 0
M  V30 10292 N 993.283 -1.25346 -0.955304 0
M  V30 10293 C 994.231 -1.05461 -2.07318 0
M  V30 10294 C 995.225 0.0142699 -1.69394 0
M  V30 10295 O 996.431 -0.141292 -1.79445 0
M  V30 10296 H 992.806 -0.324095 -0.678577 0
M  V30 10297 H 994.777 -2.00231 -2.21247 0
M  V30 10298 C 993.526 -0.689329 -3.40798 0
M  V30 10299 H 992.849 -1.50362 -3.70447 0
M  V30 10300 H 994.289 -0.589883 -4.19877 0
M  V30 10301 C 992.748 0.604556 -3.31431 0
M  V30 10302 O 993.278 1.64686 -3.6639 0
M  V30 10303 N 991.484 0.589927 -2.84549 0
M  V30 10304 H 991.031 -0.258647 -2.56298 0
M  V30 10305 H 990.989 1.4558 -2.78664 0
M  V30 10306 N 994.761 1.15782 -1.06922 0
M  V30 10307 C 996.008 1.86465 -0.789752 0
M  V30 10308 C 996.336 1.82075 0.684022 0
M  V30 10309 O 995.591 1.23576 1.51748 0
M  V30 10310 C 995.89 3.35284 -1.2377 0
M  V30 10311 C 995.556 3.59871 -2.71668 0
M  V30 10312 C 994.218 3.6629 -3.12066 0
M  V30 10313 C 996.57 3.69929 -3.67154 0
M  V30 10314 C 993.898 3.80275 -4.46775 0
M  V30 10315 C 996.25 3.85436 -5.01619 0
M  V30 10316 C 994.914 3.901 -5.41644 0
M  V30 10317 H 994.184 0.682324 -0.288991 0
M  V30 10318 H 996.831 1.36861 -1.33945 0
M  V30 10319 H 995.136 3.87065 -0.607309 0
M  V30 10320 H 996.833 3.88371 -0.998431 0
M  V30 10321 H 993.423 3.55512 -2.39393 0
M  V30 10322 H 997.607 3.64274 -3.37073 0
M  V30 10323 H 992.863 3.8214 -4.77262 0
M  V30 10324 H 997.037 3.92161 -5.75485 0
M  V30 10325 H 994.664 4.00688 -6.46029 0
M  V30 10326 N 996.239 0.8527 1.3254 0
M  V30 10327 C 997.655 0.542298 1.50104 0
M  V30 10328 C 997.855 -0.927465 1.78886 0
M  V30 10329 O 996.911 -1.7106 1.85728 0
M  V30 10330 C 998.224 1.4276 2.64651 0
M  V30 10331 C 999.772 1.42782 2.78536 0
M  V30 10332 C 1000.25 2.29828 3.9616 0
M  V30 10333 N 1001.74 2.27613 4.03418 0
M  V30 10334 C 1002.47 2.91696 4.93661 0
M  V30 10335 N 1001.97 3.64883 5.88925 0
M  V30 10336 N 1003.76 2.81094 4.86768 0
M  V30 10337 H 995.913 1.80395 1.12123 0
M  V30 10338 H 998.176 0.770394 0.552446 0
M  V30 10339 H 997.882 2.47266 2.50105 0
M  V30 10340 H 997.756 1.11358 3.60388 0
M  V30 10341 H 1000.14 0.390417 2.92506 0
M  V30 10342 H 1000.22 1.78198 1.83519 0
M  V30 10343 H 999.868 3.33635 3.82949 0
M  V30 10344 H 999.798 1.91746 4.9045 0
M  V30 10345 H 1002.29 1.74402 3.3525 0
M  V30 10346 H 1002.6 4.10952 6.54476 0
M  V30 10347 H 1000.95 3.68991 5.88957 0
M  V30 10348 H 1004.14 2.23469 4.11314 0
M  V30 10349 H 1004.31 3.31318 5.56895 0
M  V30 10350 N 997.718 -1.45297 0.610449 0
M  V30 10351 C 998.943 -2.07101 0.111414 0
M  V30 10352 C 999.368 -1.45161 -1.19625 0
M  V30 10353 O 998.726 -0.545368 -1.72903 0
M  V30 10354 C 998.774 -3.60598 -0.0117372 0
M  V30 10355 O 997.878 -3.98512 -1.06122 0
M  V30 10356 H 997.219 -0.659709 0.075364 0
M  V30 10357 H 999.749 -1.86504 0.841269 0
M  V30 10358 H 999.759 -4.07464 -0.209028 0
M  V30 10359 H 998.434 -4.05067 0.943076 0
M  V30 10360 H 997.011 -3.63312 -0.840158 0
M  V30 10361 N 999.196 -0.349774 -1.5367 0
M  V30 10362 C 1000.42 0.248692 -2.05904 0
M  V30 10363 C 1000.85 1.42942 -1.22267 0
M  V30 10364 O 1000.2 1.79732 -0.237899 0
M  V30 10365 C 1000.25 0.635639 -3.54953 0
M  V30 10366 O 999.356 1.7349 -3.74132 0
M  V30 10367 H 998.697 0.0399477 -0.662797 0
M  V30 10368 H 1001.23 -0.505795 -1.9825 0
M  V30 10369 H 1001.24 0.911064 -3.97698 0
M  V30 10370 H 999.912 -0.227805 -4.15276 0
M  V30 10371 H 998.489 1.45626 -3.43289 0
M  V30 10372 N 1000.67 1.57404 -0.0785433 0
M  V30 10373 C 1001.62 2.13104 0.88631 0
M  V30 10374 C 1002.59 1.04527 1.29086 0
M  V30 10375 O 1003.78 1.32226 1.37553 0
M  V30 10376 C 1000.92 2.70252 2.14611 0
M  V30 10377 C 1000.03 3.93007 1.79358 0
M  V30 10378 C 999.164 4.38376 3 0
M  V30 10379 C 998.203 5.53761 2.60796 0
M  V30 10380 N 997.34 5.94058 3.74219 0
M  V30 10381 H 1002.18 2.95243 0.404452 0
M  V30 10382 H 999.717 1.45894 0.187982 0
M  V30 10383 H 1001.67 3.01497 2.88367 0
M  V30 10384 H 1000.3 1.90868 2.60326 0
M  V30 10385 H 999.357 3.68181 0.956384 0
M  V30 10386 H 1000.67 4.76795 1.4652 0
M  V30 10387 H 999.823 4.71317 3.82027 0
M  V30 10388 H 998.562 3.53455 3.36037 0
M  V30 10389 H 997.567 5.20464 1.77192 0
M  V30 10390 H 998.792 6.40419 2.25922 0
M  V30 10391 H 996.738 5.12085 4.10005 0
M  V30 10392 H 996.655 6.72602 3.45171 0
M  V30 10393 H 997.923 6.31624 4.56805 0
M  V30 10394 N 1002.15 -0.195058 1.56388 0
M  V30 10395 C 1003.1 -1.26122 1.95438 0
M  V30 10396 C 1004.09 -1.47117 0.839818 0
M  V30 10397 O 1005.3 -1.47978 1.02482 0
M  V30 10398 H 1001.67 -0.423422 0.621464 0
M  V30 10399 H 1003.65 -0.904854 2.8435 0
M  V30 10400 C 1002.39 -2.59858 2.31017 0
M  V30 10401 H 1001.72 -2.44519 3.16308 0
M  V30 10402 H 1003.16 -3.33205 2.62203 0
M  V30 10403 C 1001.62 -3.16853 1.14481 0
M  V30 10404 O 1002.15 -3.995 0.419853 0
M  V30 10405 N 1000.35 -2.75599 0.921604 0
M  V30 10406 H 999.9 -2.08495 1.51287 0
M  V30 10407 H 999.858 -3.14072 0.143663 0
M  V30 10408 N 1003.63 -1.50653 -0.462772 0
M  V30 10409 C 1004.88 -1.62297 -1.21603 0
M  V30 10410 C 1005.21 -0.326191 -1.91441 0
M  V30 10411 O 1004.48 0.67284 -1.82491 0
M  V30 10412 C 1004.77 -2.80901 -2.25315 0
M  V30 10413 C 1004.62 -4.20484 -1.59728 0
M  V30 10414 C 1005.94 -2.95049 -3.26549 0
M  V30 10415 H 1003.06 -0.590691 -0.440741 0
M  V30 10416 H 1005.7 -1.83064 -0.508675 0
M  V30 10417 H 1003.85 -2.63325 -2.85643 0
M  V30 10418 H 1005.52 -4.49669 -1.02932 0
M  V30 10419 H 1003.76 -4.24357 -0.900181 0
M  V30 10420 H 1004.44 -4.99416 -2.35133 0
M  V30 10421 H 1006.91 -3.11166 -2.76251 0
M  V30 10422 H 1005.79 -3.79645 -3.96435 0
M  V30 10423 H 1006.05 -2.06019 -3.91163 0
M  V30 10424 N 1005.11 0.71652 -1.4037 0
M  V30 10425 C 1006.35 1.47736 -1.39805 0
M  V30 10426 C 1006.71 1.924 0.000340438 0
M  V30 10427 O 1006 1.652 0.970547 0
M  V30 10428 C 1006.2 2.71777 -2.32103 0
M  V30 10429 C 1006.03 2.39245 -3.80778 0
M  V30 10430 C 1004.8 2.30632 -4.49597 0
M  V30 10431 C 1006.99 2.03576 -4.72294 0
M  V30 10432 N 1004.98 1.90764 -5.83509 0
M  V30 10433 C 1006.35 1.74302 -5.94995 0
M  V30 10434 C 1008.4 1.90204 -4.60138 0
M  V30 10435 C 1007.1 1.33001 -7.06897 0
M  V30 10436 C 1009.13 1.50307 -5.71981 0
M  V30 10437 C 1008.49 1.2193 -6.93767 0
M  V30 10438 H 1004.59 0.538721 -0.566836 0
M  V30 10439 H 1007.18 0.831018 -1.76074 0
M  V30 10440 H 1005.35 3.34163 -1.97963 0
M  V30 10441 H 1007.08 3.38112 -2.22402 0
M  V30 10442 H 1003.83 2.48341 -4.03266 0
M  V30 10443 H 1004.26 1.73372 -6.54424 0
M  V30 10444 H 1008.9 2.10805 -3.66499 0
M  V30 10445 H 1006.62 1.11143 -8.0042 0
M  V30 10446 H 1010.2 1.4054 -5.6457 0
M  V30 10447 H 1009.08 0.915214 -7.78841 0
M  V30 10448 N 1006.59 1.25851 0.948643 0
M  V30 10449 C 1007.83 1.10735 1.69062 0
M  V30 10450 C 1008.16 -0.351257 1.9181 0
M  V30 10451 O 1007.43 -1.24867 1.50947 0
M  V30 10452 H 1006.01 0.406796 0.626519 0
M  V30 10453 H 1008.67 1.58066 1.14022 0
M  V30 10454 H 1007.76 1.62033 2.66743 0
M  V30 10455 N 1008.06 -1.15214 1.07534 0
M  V30 10456 C 1009.29 -1.89647 0.819614 0
M  V30 10457 C 1009.7 -1.78365 -0.631072 0
M  V30 10458 O 1009.05 -1.1346 -1.44474 0
M  V30 10459 C 1009.11 -3.40573 1.1511 0
M  V30 10460 C 1008.77 -3.7564 2.60276 0
M  V30 10461 C 1009.77 -3.76507 3.58523 0
M  V30 10462 C 1007.45 -4.05891 2.95901 0
M  V30 10463 C 1009.45 -4.07133 4.9043 0
M  V30 10464 C 1007.13 -4.36182 4.28005 0
M  V30 10465 C 1008.13 -4.36785 5.25079 0
M  V30 10466 O 1007.82 -4.66348 6.54809 0
M  V30 10467 H 1007.55 -0.607836 0.295822 0
M  V30 10468 H 1010.11 -1.46895 1.43565 0
M  V30 10469 H 1008.34 -3.83734 0.478033 0
M  V30 10470 H 1010.03 -3.96299 0.877615 0
M  V30 10471 H 1010.79 -3.53233 3.32342 0
M  V30 10472 H 1006.67 -4.0458 2.20989 0
M  V30 10473 H 1010.21 -4.07519 5.66193 0
M  V30 10474 H 1006.11 -4.58924 4.53937 0
M  V30 10475 H 1006.88 -4.84105 6.59988 0
M  V30 10476 N 1009.54 -0.859717 -1.32086 0
M  V30 10477 C 1010.79 -0.465581 -1.97075 0
M  V30 10478 C 1011.12 0.979917 -1.68012 0
M  V30 10479 O 1010.37 1.70337 -0.96353 0
M  V30 10480 C 1010.67 -0.657397 -3.51302 0
M  V30 10481 C 1010.34 -2.07413 -4.00363 0
M  V30 10482 C 1009 -2.4616 -4.13472 0
M  V30 10483 C 1011.35 -2.99855 -4.26305 0
M  V30 10484 C 1008.68 -3.76611 -4.49868 0
M  V30 10485 C 1011.03 -4.2981 -4.64161 0
M  V30 10486 C 1009.7 -4.68485 -4.75476 0
M  V30 10487 H 1008.97 -0.170368 -0.721149 0
M  V30 10488 H 1011.61 -1.09074 -1.57401 0
M  V30 10489 H 1009.92 0.0509638 -3.91767 0
M  V30 10490 H 1011.61 -0.332416 -3.9962 0
M  V30 10491 H 1008.2 -1.76327 -3.90649 0
M  V30 10492 H 1012.39 -2.7115 -4.15682 0
M  V30 10493 H 1007.64 -4.06352 -4.56824 0
M  V30 10494 H 1011.82 -5.015 -4.83188 0
M  V30 10495 H 1009.45 -5.69612 -5.03435 0
M  V30 10496 N 1011.02 1.44971 -0.618145 0
M  V30 10497 C 1012.25 2.07039 -0.122395 0
M  V30 10498 C 1012.67 1.45793 1.18853 0
M  V30 10499 O 1012.03 0.55453 1.72611 0
M  V30 10500 C 1012.08 3.60599 -0.0073864 0
M  V30 10501 O 1011.18 3.99069 1.04007 0
M  V30 10502 H 1010.52 0.6593 -0.0788615 0
M  V30 10503 H 1013.05 1.86055 -0.851147 0
M  V30 10504 H 1013.06 4.07569 0.187417 0
M  V30 10505 H 1011.74 4.04561 -0.964544 0
M  V30 10506 H 1010.31 3.63753 0.820879 0
M  V30 10507 N 1012.5 0.357919 1.53482 0
M  V30 10508 C 1013.74 -0.23451 2.0144 0
M  V30 10509 C 1014.08 -1.49044 1.24497 0
M  V30 10510 O 1013.35 -1.91566 0.336535 0
M  V30 10511 C 1013.64 -0.534193 3.56116 0
M  V30 10512 C 1013.49 0.734834 4.43757 0
M  V30 10513 C 1014.81 -1.33793 4.1927 0
M  V30 10514 H 1011.93 -0.0837595 0.732225 0
M  V30 10515 H 1014.57 0.481297 1.83803 0
M  V30 10516 H 1012.72 -1.144 3.71275 0
M  V30 10517 H 1014.39 1.37251 4.40409 0
M  V30 10518 H 1012.63 1.35678 4.12036 0
M  V30 10519 H 1013.3 0.48021 5.49907 0
M  V30 10520 H 1015.78 -0.822158 4.07897 0
M  V30 10521 H 1014.66 -1.51636 5.27539 0
M  V30 10522 H 1014.92 -2.34423 3.74831 0
M  V30 10523 N 1013.98 -1.5736 0.0868897 0
M  V30 10524 C 1014.94 -2.12436 -0.860439 0
M  V30 10525 C 1015.94 -1.05175 -1.21634 0
M  V30 10526 O 1017.13 -1.31098 -1.14713 0
M  V30 10527 C 1014.26 -2.63818 -2.159 0
M  V30 10528 H 1015.45 -2.97453 -0.382346 0
M  V30 10529 H 1013.01 -1.55458 -0.162009 0
M  V30 10530 H 1013.74 -1.82298 -2.68212 0
M  V30 10531 H 1013.53 -3.42234 -1.91359 0
M  V30 10532 H 1015.02 -3.06452 -2.83685 0
M  V30 10533 N 1015.45 0.186762 -1.56489 0
M  V30 10534 C 1016.42 1.21511 -1.94339 0
M  V30 10535 C 1017.42 1.38001 -0.82537 0
M  V30 10536 O 1018.61 1.3567 -1.09266 0
M  V30 10537 C 1015.74 2.583 -2.22472 0
M  V30 10538 H 1016.93 0.891371 -2.86347 0
M  V30 10539 H 1014.49 0.428612 -1.50308 0
M  V30 10540 H 1015.22 2.95715 -1.33129 0
M  V30 10541 H 1015.01 2.47701 -3.03951 0
M  V30 10542 H 1016.5 3.32441 -2.5273 0
M  V30 10543 N 1016.93 1.50896 0.454776 0
M  V30 10544 C 1018.16 1.6648 1.22849 0
M  V30 10545 C 1018.58 0.354841 1.85435 0
M  V30 10546 O 1017.93 -0.664931 1.69956 0
M  V30 10547 C 1017.98 2.76787 2.32532 0
M  V30 10548 O 1017.7 4.02706 1.72509 0
M  V30 10549 C 1019.21 3.03488 3.23125 0
M  V30 10550 H 1016.43 0.559152 0.370932 0
M  V30 10551 H 1018.97 1.97215 0.540983 0
M  V30 10552 H 1017.12 2.48701 2.9703 0
M  V30 10553 H 1017.54 4.63834 2.44863 0
M  V30 10554 H 1019.01 3.84294 3.9626 0
M  V30 10555 H 1019.49 2.152 3.82865 0
M  V30 10556 H 1020.1 3.33167 2.64347 0
M  V30 10557 N 1018.41 -0.709066 1.40748 0
M  V30 10558 C 1019.66 -1.46611 1.39103 0
M  V30 10559 C 1019.98 -1.95 -0.00365366 0
M  V30 10560 O 1019.25 -1.70791 -0.959541 0
M  V30 10561 H 1017.83 -0.543954 0.511979 0
M  V30 10562 H 1020.49 -0.840141 1.75863 0
M  V30 10563 H 1019.59 -2.33581 2.06994 0
M  V30 10564 N 1019.89 -1.26353 -0.941956 0
M  V30 10565 C 1021.14 -1.1163 -1.68473 0
M  V30 10566 C 1021.46 0.34108 -1.91994 0
M  V30 10567 O 1020.73 1.24065 -1.51607 0
M  V30 10568 H 1019.31 -0.410113 -0.624353 0
M  V30 10569 H 1021.97 -1.58669 -1.13182 0
M  V30 10570 H 1021.07 -1.63445 -2.6588 0
M  V30 10571 N 1021.37 1.14642 -1.08144 0
M  V30 10572 C 1022.3 2.21775 -0.730609 0
M  V30 10573 C 1023.28 1.67683 0.285702 0
M  V30 10574 O 1024.46 1.93567 0.156667 0
M  V30 10575 C 1021.59 3.47033 -0.136242 0
M  V30 10576 C 1020.55 4.14134 -1.0806 0
M  V30 10577 C 1019.87 5.33563 -0.348585 0
M  V30 10578 C 1021.17 4.62978 -2.41761 0
M  V30 10579 H 1022.87 2.51378 -1.62633 0
M  V30 10580 H 1020.41 1.20825 -0.783411 0
M  V30 10581 H 1022.37 4.21226 0.121182 0
M  V30 10582 H 1021.09 3.16786 0.7946 0
M  V30 10583 H 1019.75 3.41892 -1.32308 0
M  V30 10584 H 1019.4 4.99575 0.585974 0
M  V30 10585 H 1019.1 5.79402 -0.978122 0
M  V30 10586 H 1020.62 6.10519 -0.0991508 0
M  V30 10587 H 1022.04 5.28659 -2.21795 0
M  V30 10588 H 1020.43 5.1951 -3.00383 0
M  V30 10589 H 1021.5 3.78189 -3.03482 0
M  V30 10590 N 1022.85 0.866709 1.31628 0
M  V30 10591 C 1023.8 0.291712 2.26126 0
M  V30 10592 C 1024.78 -0.569375 1.50489 0
M  V30 10593 O 1025.97 -0.416786 1.72023 0
M  V30 10594 C 1023.1 -0.508624 3.39511 0
M  V30 10595 C 1022.19 0.365524 4.22522 0
M  V30 10596 N 1022.58 1.45747 4.84346 0
M  V30 10597 C 1020.88 0.157384 4.45722 0
M  V30 10598 C 1021.58 1.99625 5.46374 0
M  V30 10599 N 1020.55 1.29371 5.27981 0
M  V30 10600 H 1024.35 1.12633 2.71461 0
M  V30 10601 H 1021.87 0.714118 1.45857 0
M  V30 10602 H 1023.87 -0.937057 4.06233 0
M  V30 10603 H 1022.53 -1.34089 2.9572 0
M  V30 10604 H 1023.54 1.84039 4.84097 0
M  V30 10605 H 1020.21 -0.639193 4.12578 0
M  V30 10606 H 1021.6 2.91222 6.05508 0
M  V30 10607 N 1024.32 -1.44642 0.625825 0
M  V30 10608 C 1025.23 -2.34451 -0.0836134 0
M  V30 10609 C 1026.25 -1.5231 -0.841289 0
M  V30 10610 O 1027.43 -1.85056 -0.794754 0
M  V30 10611 C 1024.49 -3.30211 -1.05648 0
M  V30 10612 C 1023.55 -4.28259 -0.298759 0
M  V30 10613 C 1022.78 -5.19444 -1.22528 0
M  V30 10614 O 1023.01 -5.14444 -2.46382 0
M  V30 10615 O 1021.94 -5.97668 -0.71247 0
M  V30 10616 H 1025.77 -2.96555 0.654912 0
M  V30 10617 H 1023.35 -1.44327 0.386029 0
M  V30 10618 H 1025.23 -3.8917 -1.61632 0
M  V30 10619 H 1023.91 -2.70648 -1.77571 0
M  V30 10620 H 1022.82 -3.72863 0.304001 0
M  V30 10621 H 1024.15 -4.90728 0.380345 0
M  V30 10622 N 1025.8 -0.366053 -1.5329 0
M  V30 10623 C 1027.05 0.223493 -2.01263 0
M  V30 10624 C 1027.38 1.48736 -1.25331 0
M  V30 10625 O 1026.63 1.92805 -0.335341 0
M  V30 10626 C 1026.93 0.560906 -3.52971 0
M  V30 10627 C 1026.6 -0.60869 -4.46773 0
M  V30 10628 C 1025.26 -0.929609 -4.72135 0
M  V30 10629 C 1027.61 -1.39225 -5.02261 0
M  V30 10630 C 1024.94 -2.03606 -5.50238 0
M  V30 10631 C 1027.29 -2.48912 -5.81572 0
M  V30 10632 C 1025.95 -2.81538 -6.05221 0
M  V30 10633 H 1025.22 0.0817818 -0.736473 0
M  V30 10634 H 1027.87 -0.498613 -1.84895 0
M  V30 10635 H 1026.18 1.36403 -3.67289 0
M  V30 10636 H 1027.87 1.02931 -3.87564 0
M  V30 10637 H 1024.46 -0.348529 -4.27181 0
M  V30 10638 H 1028.65 -1.15757 -4.82612 0
M  V30 10639 H 1023.9 -2.29281 -5.6678 0
M  V30 10640 H 1028.08 -3.10044 -6.23575 0
M  V30 10641 H 1025.7 -3.67396 -6.65525 0
M  V30 10642 N 1027.28 1.57312 -0.0952337 0
M  V30 10643 C 1028.24 2.12889 0.849161 0
M  V30 10644 C 1029.24 1.05819 1.21075 0
M  V30 10645 O 1030.43 1.31704 1.14016 0
M  V30 10646 C 1027.56 2.6496 2.14498 0
M  V30 10647 H 1028.76 2.97651 0.366566 0
M  V30 10648 H 1026.31 1.55542 0.153762 0
M  V30 10649 H 1027.05 1.83718 2.67242 0
M  V30 10650 H 1026.83 3.43244 1.89542 0
M  V30 10651 H 1028.32 3.07952 2.82056 0
M  V30 10652 N 1028.76 -0.17846 1.56586 0
M  V30 10653 C 1030.03 -0.923096 1.72448 0
M  V30 10654 C 1030.41 -2.00692 0.654659 0
M  V30 10655 O 1029.76 -2.26079 -0.33171 0
M  V30 10656 C 1029.97 -1.49435 3.15389 0
M  V30 10657 C 1031.32 -1.97005 3.76131 0
M  V30 10658 O 1032.34 -1.59244 3.18622 0
M  V30 10659 O 1031.2 -2.66541 4.77094 0
M  V30 10660 H 1028.3 -0.434009 0.703964 0
M  V30 10661 H 1030.84 -0.16685 1.68878 0
M  V30 10662 H 1029.62 -0.713933 3.84732 0
M  V30 10663 H 1029.24 -2.31498 3.23256 0
M  V30 10664 N 1030.24 -1.51135 -0.446768 0
M  V30 10665 C 1031.46 -1.67411 -1.22427 0
M  V30 10666 C 1031.89 -0.367009 -1.84485 0
M  V30 10667 O 1031.24 0.67185 -1.68392 0
M  V30 10668 C 1031.29 -2.78473 -2.29096 0
M  V30 10669 O 1030.4 -2.41419 -3.34351 0
M  V30 10670 H 1029.74 -0.558512 -0.359111 0
M  V30 10671 H 1032.27 -1.97648 -0.5288 0
M  V30 10672 H 1032.28 -3.02277 -2.7403 0
M  V30 10673 H 1030.95 -3.73326 -1.83304 0
M  V30 10674 H 1029.53 -2.28152 -2.9496 0
M  V30 10675 N 1031.71 0.701592 -1.41122 0
M  V30 10676 C 1032.65 1.8268 -1.38422 0
M  V30 10677 C 1033.66 1.60244 -0.287342 0
M  V30 10678 O 1034.85 1.69859 -0.548658 0
M  V30 10679 C 1031.95 3.19338 -1.13475 0
M  V30 10680 C 1031.12 3.68853 -2.35088 0
M  V30 10681 C 1030.18 4.84163 -2.06089 0
M  V30 10682 O 1029.21 4.9609 -2.79077 0
M  V30 10683 N 1030.41 5.70972 -1.04743 0
M  V30 10684 H 1033.17 1.8549 -2.35401 0
M  V30 10685 H 1030.73 0.883682 -1.35656 0
M  V30 10686 H 1032.73 3.94095 -0.920377 0
M  V30 10687 H 1031.3 3.11589 -0.251152 0
M  V30 10688 H 1030.52 2.8507 -2.72266 0
M  V30 10689 H 1031.8 3.98673 -3.16129 0
M  V30 10690 H 1031.2 5.63961 -0.443221 0
M  V30 10691 H 1029.76 6.45654 -0.892949 0
M  V30 10692 N 1033.19 1.2685 0.935242 0
M  V30 10693 C 1034.44 1.12745 1.68211 0
M  V30 10694 C 1034.77 -0.328128 1.91712 0
M  V30 10695 O 1034.02 -1.25701 1.49993 0
M  V30 10696 C 1034.32 1.8482 3.05903 0
M  V30 10697 C 1033.99 3.347 3.02137 0
M  V30 10698 C 1032.65 3.75583 3.00817 0
M  V30 10699 C 1035 4.30368 2.93995 0
M  V30 10700 C 1032.33 5.10511 2.89129 0
M  V30 10701 C 1034.68 5.65343 2.83848 0
M  V30 10702 C 1033.34 6.0553 2.80874 0
M  V30 10703 H 1032.61 0.412563 0.615527 0
M  V30 10704 H 1035.26 1.57366 1.09124 0
M  V30 10705 H 1033.57 1.32685 3.68649 0
M  V30 10706 H 1035.26 1.71341 3.62551 0
M  V30 10707 H 1031.85 3.02182 3.03947 0
M  V30 10708 H 1036.04 3.9976 2.94118 0
M  V30 10709 H 1031.29 5.40802 2.85208 0
M  V30 10710 H 1035.47 6.39151 2.76512 0
M  V30 10711 H 1033.09 7.10037 2.71573 0
M  V30 10712 N 1034.67 -1.14067 1.0875 0
M  V30 10713 C 1035.92 -1.84819 0.817698 0
M  V30 10714 C 1036.24 -1.83545 -0.658488 0
M  V30 10715 O 1035.51 -1.28633 -1.47751 0
M  V30 10716 H 1034.09 -0.68433 0.299502 0
M  V30 10717 H 1036.75 -1.38208 1.37421 0
M  V30 10718 H 1035.85 -2.89541 1.16501 0
M  V30 10719 N 1036.15 -0.873678 -1.31166 0
M  V30 10720 C 1037.1 -0.303699 -2.25968 0
M  V30 10721 C 1038.08 0.561387 -1.50789 0
M  V30 10722 O 1039.27 0.407658 -1.72242 0
M  V30 10723 C 1036.4 0.490612 -3.39776 0
M  V30 10724 C 1035.49 -0.387927 -4.22322 0
M  V30 10725 N 1035.88 -1.48313 -4.83567 0
M  V30 10726 C 1034.18 -0.18102 -4.45632 0
M  V30 10727 C 1034.88 -2.0252 -5.45308 0
M  V30 10728 N 1033.86 -1.32169 -5.27288 0
M  V30 10729 H 1037.66 -1.14071 -2.7086 0
M  V30 10730 H 1035.17 -0.721843 -1.45476 0
M  V30 10731 H 1037.17 0.9155 -4.06724 0
M  V30 10732 H 1035.83 1.32519 -2.96427 0
M  V30 10733 H 1036.84 -1.86604 -4.83114 0
M  V30 10734 H 1033.52 0.617304 -4.12911 0
M  V30 10735 H 1034.91 -2.94429 -6.03955 0
M  V30 10736 N 1037.63 1.44308 -0.633487 0
M  V30 10737 C 1038.87 2.03904 -0.14226 0
M  V30 10738 C 1039.23 1.48768 1.21376 0
M  V30 10739 O 1040.43 1.99882 1.79724 0
M  V30 10740 C 1038.7 3.5716 -0.130975 0
M  V30 10741 S 1040.26 4.37805 0.295287 0
M  V30 10742 H 1037.08 0.70827 -0.0622429 0
M  V30 10743 H 1039.68 1.76657 -0.837405 0
M  V30 10744 H 1038.39 3.94794 -1.12096 0
M  V30 10745 H 1037.92 3.89021 0.585342 0
M  V30 10746 H 1039.93 4.71732 1.53894 0
M  V30 10747 N 1039.1 0.374177 1.53094 0
M  V30 10748 C 1040.35 -0.212816 2.01379 0
M  V30 10749 C 1040.68 -1.48069 1.26118 0
M  V30 10750 O 1039.93 -1.92625 0.345561 0
M  V30 10751 C 1040.23 -0.542179 3.53264 0
M  V30 10752 C 1039.9 0.632375 4.46444 0
M  V30 10753 C 1038.56 0.954635 4.71636 0
M  V30 10754 C 1040.91 1.41887 5.01515 0
M  V30 10755 C 1038.24 2.06521 5.4915 0
M  V30 10756 C 1040.59 2.51993 5.80243 0
M  V30 10757 C 1039.26 2.84744 6.03719 0
M  V30 10758 H 1038.53 -0.0778749 0.736897 0
M  V30 10759 H 1041.17 0.508412 1.84628 0
M  V30 10760 H 1039.48 -1.34454 3.68007 0
M  V30 10761 H 1041.18 -1.00874 3.88105 0
M  V30 10762 H 1037.77 0.371179 4.2699 0
M  V30 10763 H 1041.95 1.18315 4.81991 0
M  V30 10764 H 1037.21 2.32284 5.65557 0
M  V30 10765 H 1041.38 3.13346 6.21922 0
M  V30 10766 H 1039.01 3.70921 6.63568 0
M  V30 10767 N 1040.58 -1.57259 0.103575 0
M  V30 10768 C 1041.81 -1.99424 -0.569638 0
M  V30 10769 C 1042.23 -0.982475 -1.60403 0
M  V30 10770 O 1041.59 0.0479231 -1.81237 0
M  V30 10771 C 1041.64 -3.40527 -1.18633 0
M  V30 10772 O 1040.74 -3.42167 -2.30208 0
M  V30 10773 H 1040.08 -0.648251 -0.143759 0
M  V30 10774 H 1042.61 -2.03739 0.187493 0
M  V30 10775 H 1042.62 -3.78404 -1.5256 0
M  V30 10776 H 1041.3 -4.13686 -0.428582 0
M  V30 10777 H 1039.88 -3.16093 -1.97837 0
M  V30 10778 N 1042.06 0.170153 -1.56679 0
M  V30 10779 C 1043.31 0.883211 -1.83224 0
M  V30 10780 C 1043.66 1.7982 -0.68429 0
M  V30 10781 O 1042.95 1.88922 0.319204 0
M  V30 10782 C 1043.15 1.71402 -3.13618 0
M  V30 10783 C 1042.98 0.880967 -4.40986 0
M  V30 10784 C 1041.75 0.555594 -5.02236 0
M  V30 10785 C 1043.95 0.221986 -5.13821 0
M  V30 10786 N 1041.93 -0.293479 -6.13198 0
M  V30 10787 C 1043.3 -0.488202 -6.18075 0
M  V30 10788 C 1045.35 0.14027 -4.97702 0
M  V30 10789 C 1044.06 -1.27236 -7.07957 0
M  V30 10790 C 1046.08 -0.630556 -5.88029 0
M  V30 10791 C 1045.44 -1.3291 -6.91747 0
M  V30 10792 H 1041.54 0.301769 -0.721429 0
M  V30 10793 H 1044.13 0.150113 -1.9412 0
M  V30 10794 H 1042.3 2.41853 -3.03911 0
M  V30 10795 H 1044.03 2.36847 -3.28155 0
M  V30 10796 H 1040.79 0.885952 -4.6524 0
M  V30 10797 H 1041.21 -0.708359 -6.73284 0
M  V30 10798 H 1045.85 0.665983 -4.17522 0
M  V30 10799 H 1043.57 -1.80941 -7.87582 0
M  V30 10800 H 1047.16 -0.695468 -5.77628 0
M  V30 10801 H 1046.04 -1.916 -7.60433 0
M  V30 10802 N 1043.54 1.5137 0.438746 0
M  V30 10803 C 1044.79 1.63645 1.18595 0
M  V30 10804 C 1045.11 0.354241 1.91755 0
M  V30 10805 O 1044.38 -0.629838 1.85499 0
M  V30 10806 H 1042.96 0.603103 0.440767 0
M  V30 10807 H 1045.62 1.88293 0.503159 0
M  V30 10808 H 1044.72 2.46342 1.9163 0
M  V30 10809 N 1045.02 -0.694098 1.41492 0
M  V30 10810 C 1045.93 -1.83778 1.45818 0
M  V30 10811 C 1046.94 -1.70471 0.348639 0
M  V30 10812 O 1048.12 -1.92361 0.596588 0
M  V30 10813 C 1045.18 -3.19771 1.33967 0
M  V30 10814 C 1044.24 -3.45175 2.5525 0
M  V30 10815 C 1043.48 -4.74681 2.43955 0
M  V30 10816 O 1043.7 -5.51268 1.46491 0
M  V30 10817 O 1042.63 -5.00901 3.33739 0
M  V30 10818 H 1046.46 -1.83084 2.42309 0
M  V30 10819 H 1044.05 -0.847349 1.23046 0
M  V30 10820 H 1045.93 -4.00961 1.29648 0
M  V30 10821 H 1044.6 -3.21145 0.405926 0
M  V30 10822 H 1043.51 -2.6391 2.65146 0
M  V30 10823 H 1044.84 -3.48617 3.47458 0
M  V30 10824 N 1046.49 -1.27344 -0.928501 0
M  V30 10825 C 1047.44 -1.09835 -2.05034 0
M  V30 10826 C 1048.44 -0.0216643 -1.69386 0
M  V30 10827 O 1049.64 -0.179323 -1.79105 0
M  V30 10828 H 1046.02 -0.338416 -0.671549 0
M  V30 10829 H 1047.99 -2.04879 -2.1695 0
M  V30 10830 C 1046.74 -0.761462 -3.3926 0
M  V30 10831 H 1046.06 -1.58186 -3.67175 0
M  V30 10832 H 1047.5 -0.678812 -4.18531 0
M  V30 10833 C 1045.96 0.534118 -3.32639 0
M  V30 10834 O 1046.49 1.56877 -3.69801 0
M  V30 10835 N 1044.7 0.529437 -2.85736 0
M  V30 10836 H 1044.24 -0.312954 -2.55692 0
M  V30 10837 H 1044.2 1.39637 -2.81689 0
M  V30 10838 N 1047.97 1.13488 -1.09353 0
M  V30 10839 C 1049.39 1.36739 -0.823086 0
M  V30 10840 C 1049.59 1.93476 0.562963 0
M  V30 10841 O 1048.64 2.15374 1.31796 0
M  V30 10842 C 1049.96 2.31943 -1.91371 0
M  V30 10843 C 1051.51 2.4556 -1.94085 0
M  V30 10844 C 1051.98 3.44072 -3.02289 0
M  V30 10845 N 1053.47 3.51622 -3.01524 0
M  V30 10846 C 1054.21 4.27724 -3.8189 0
M  V30 10847 N 1053.7 5.06987 -4.72161 0
M  V30 10848 N 1055.5 4.23018 -3.70152 0
M  V30 10849 H 1047.65 0.75012 -1.98713 0
M  V30 10850 H 1049.91 0.392564 -0.862901 0
M  V30 10851 H 1049.62 1.97408 -2.91072 0
M  V30 10852 H 1049.49 3.31952 -1.79131 0
M  V30 10853 H 1051.88 2.79382 -0.950234 0
M  V30 10854 H 1051.96 1.45479 -2.10403 0
M  V30 10855 H 1051.6 3.10981 -4.01564 0
M  V30 10856 H 1051.53 4.43956 -2.83214 0
M  V30 10857 H 1054.02 2.95066 -2.36103 0
M  V30 10858 H 1054.34 5.6236 -5.30067 0
M  V30 10859 H 1052.68 5.06222 -4.76197 0
M  V30 10860 H 1055.87 3.60171 -2.98989 0
M  V30 10861 H 1056.04 4.82075 -4.33022 0
M  V30 10862 N 1049.45 0.880621 1.30701 0
M  V30 10863 C 1050.36 0.348034 2.32004 0
M  V30 10864 C 1051.38 -0.547508 1.65162 0
M  V30 10865 O 1052.55 -0.441673 1.96497 0
M  V30 10866 C 1049.62 -0.432585 3.43991 0
M  V30 10867 C 1048.68 0.492189 4.26469 0
M  V30 10868 C 1047.91 -0.25127 5.33108 0
M  V30 10869 O 1048.14 -1.47795 5.5092 0
M  V30 10870 O 1047.07 0.396376 6.00593 0
M  V30 10871 H 1050.9 1.18798 2.79501 0
M  V30 10872 H 1048.48 0.64432 1.34792 0
M  V30 10873 H 1050.36 -0.874733 4.12221 0
M  V30 10874 H 1049.04 -1.2489 2.98637 0
M  V30 10875 H 1047.94 0.983058 3.60953 0
M  V30 10876 H 1049.28 1.27439 4.75416 0
M  V30 10877 N 1050.93 -1.4397 0.641131 0
M  V30 10878 C 1051.84 -2.34526 -0.058742 0
M  V30 10879 C 1052.86 -1.53194 -0.825088 0
M  V30 10880 O 1054.03 -1.85888 -0.775081 0
M  V30 10881 C 1051.1 -3.31313 -1.02139 0
M  V30 10882 C 1050.16 -4.28552 -0.253319 0
M  V30 10883 C 1049.39 -5.20715 -1.17012 0
M  V30 10884 O 1049.61 -5.17028 -2.40911 0
M  V30 10885 O 1048.55 -5.9839 -0.649039 0
M  V30 10886 H 1052.37 -2.95843 0.686329 0
M  V30 10887 H 1049.96 -1.43909 0.401316 0
M  V30 10888 H 1051.84 -3.90862 -1.57496 0
M  V30 10889 H 1050.52 -2.72516 -1.7469 0
M  V30 10890 H 1049.42 -3.72519 0.343531 0
M  V30 10891 H 1050.76 -4.90297 0.432372 0
M  V30 10892 N 1052.41 -0.382291 -1.52893 0
M  V30 10893 C 1053.37 0.44408 -2.24857 0
M  V30 10894 C 1054.37 0.996004 -1.26239 0
M  V30 10895 O 1055.56 0.879114 -1.5039 0
M  V30 10896 C 1052.69 1.62234 -2.99822 0
M  V30 10897 H 1053.89 -0.185862 -2.99324 0
M  V30 10898 H 1051.44 -0.134275 -1.55722 0
M  V30 10899 H 1052.17 2.28991 -2.29638 0
M  V30 10900 H 1051.96 1.23336 -3.72197 0
M  V30 10901 H 1053.45 2.20756 -3.54481 0
M  V30 10902 N 1053.89 1.57202 -0.111913 0
M  V30 10903 C 1055.13 1.94125 0.547573 0
M  V30 10904 C 1055.45 0.997026 1.68282 0
M  V30 10905 O 1056.65 1.26063 2.40459 0
M  V30 10906 C 1055.11 3.44982 1.02545 0
M  V30 10907 C 1054.72 4.47927 -0.0809529 0
M  V30 10908 C 1056.46 3.90837 1.65671 0
M  V30 10909 C 1054.37 5.89955 0.413224 0
M  V30 10910 H 1053.3 0.724651 0.208321 0
M  V30 10911 H 1055.95 1.82507 -0.190625 0
M  V30 10912 H 1054.33 3.5181 1.81785 0
M  V30 10913 H 1055.51 4.52761 -0.857003 0
M  V30 10914 H 1053.82 4.11782 -0.618434 0
M  V30 10915 H 1056.42 4.9436 2.03746 0
M  V30 10916 H 1056.76 3.30417 2.53239 0
M  V30 10917 H 1057.29 3.8678 0.929844 0
M  V30 10918 H 1054.03 6.54113 -0.426238 0
M  V30 10919 H 1053.55 5.88557 1.15591 0
M  V30 10920 H 1055.23 6.41032 0.876756 0
M  V30 10921 N 1055.36 -0.161842 1.56767 0
M  V30 10922 C 1056.59 -0.896274 1.87034 0
M  V30 10923 C 1057.01 -1.74617 0.699314 0
M  V30 10924 O 1056.37 -1.77861 -0.351435 0
M  V30 10925 C 1056.42 -1.74105 3.15784 0
M  V30 10926 O 1055.52 -2.84372 2.98674 0
M  V30 10927 H 1054.86 -0.250523 0.614926 0
M  V30 10928 H 1057.39 -0.157127 2.03996 0
M  V30 10929 H 1057.4 -2.13907 3.4743 0
M  V30 10930 H 1056.08 -1.11684 4.00624 0
M  V30 10931 H 1054.66 -2.48084 2.78404 0
M  V30 10932 N 1056.84 -1.516 -0.430713 0
M  V30 10933 C 1057.79 -1.73975 -1.54387 0
M  V30 10934 C 1058.78 -0.606222 -1.58181 0
M  V30 10935 O 1059.99 -0.787764 -1.61846 0
M  V30 10936 H 1056.36 -0.549811 -0.513041 0
M  V30 10937 H 1058.34 -2.67274 -1.32692 0
M  V30 10938 C 1057.08 -1.88794 -2.9198 0
M  V30 10939 H 1056.41 -2.75425 -2.89795 0
M  V30 10940 H 1057.85 -2.08458 -3.69217 0
M  V30 10941 C 1056.31 -0.649427 -3.30581 0
M  V30 10942 O 1056.84 0.192823 -4.01237 0
M  V30 10943 N 1055.04 -0.491586 -2.86412 0
M  V30 10944 H 1054.59 -1.17806 -2.29084 0
M  V30 10945 H 1054.55 0.33583 -3.12601 0
M  V30 10946 N 1058.32 0.686584 -1.41858 0
M  V30 10947 C 1059.25 1.81107 -1.38836 0
M  V30 10948 C 1060.23 1.60599 -0.254293 0
M  V30 10949 O 1061.41 1.83229 -0.442641 0
M  V30 10950 C 1058.54 3.17928 -1.16787 0
M  V30 10951 C 1057.59 3.5721 -2.33031 0
M  V30 10952 S 1058.42 3.60986 -3.95536 0
M  V30 10953 C 1059.58 5.00519 -3.75808 0
M  V30 10954 H 1059.81 1.83396 -2.33994 0
M  V30 10955 H 1057.34 0.856146 -1.28489 0
M  V30 10956 H 1059.3 3.9691 -1.04752 0
M  V30 10957 H 1057.96 3.1324 -0.232335 0
M  V30 10958 H 1057.15 4.56629 -2.13321 0
M  V30 10959 H 1056.76 2.8556 -2.41519 0
M  V30 10960 H 1059.05 5.88272 -3.36069 0
M  V30 10961 H 1059.99 5.25273 -4.74862 0
M  V30 10962 H 1060.4 4.72481 -3.08904 0
M  V30 10963 N 1059.8 1.27835 0.921735 0
M  V30 10964 C 1061.04 1.14692 1.67253 0
M  V30 10965 C 1061.38 -0.305384 1.91784 0
M  V30 10966 O 1060.65 -1.22286 1.51249 0
M  V30 10967 C 1060.93 1.93743 3.03539 0
M  V30 10968 C 1060.79 3.46991 2.86212 0
M  V30 10969 C 1062.11 1.74658 4.03959 0
M  V30 10970 H 1059.23 0.418021 0.606983 0
M  V30 10971 H 1061.87 1.5706 1.06922 0
M  V30 10972 H 1060.02 1.57738 3.55037 0
M  V30 10973 H 1061.69 3.92858 2.41785 0
M  V30 10974 H 1059.93 3.73029 2.21432 0
M  V30 10975 H 1060.6 3.97551 3.82958 0
M  V30 10976 H 1063.08 2.06063 3.61493 0
M  V30 10977 H 1061.96 2.32353 4.97296 0
M  V30 10978 H 1062.22 0.696019 4.36587 0
M  V30 10979 N 1061.28 -1.12907 1.09954 0
M  V30 10980 C 1062.52 -1.84579 0.840155 0
M  V30 10981 C 1062.85 -1.83605 -0.632692 0
M  V30 10982 O 1062.13 -1.27803 -1.46617 0
M  V30 10983 C 1062.41 -3.32489 1.38286 0
M  V30 10984 C 1062.27 -3.41946 2.92221 0
M  V30 10985 C 1063.58 -4.28091 1.0211 0
M  V30 10986 H 1060.7 -0.670169 0.306663 0
M  V30 10987 H 1063.35 -1.3249 1.36185 0
M  V30 10988 H 1061.5 -3.76978 0.939123 0
M  V30 10989 H 1063.17 -3.06128 3.45085 0
M  V30 10990 H 1061.41 -2.8265 3.29077 0
M  V30 10991 H 1062.08 -4.45983 3.25274 0
M  V30 10992 H 1064.56 -3.91701 1.4039 0
M  V30 10993 H 1063.43 -5.30005 1.42781 0
M  V30 10994 H 1063.69 -4.42044 -0.0700753 0
M  V30 10995 N 1062.75 -0.88754 -1.30232 0
M  V30 10996 C 1063.72 -0.361095 -2.26338 0
M  V30 10997 C 1064.72 0.497871 -1.52898 0
M  V30 10998 O 1065.91 0.30466 -1.71515 0
M  V30 10999 C 1063.04 0.485135 -3.3743 0
M  V30 11000 H 1064.23 -1.20973 -2.74419 0
M  V30 11001 H 1061.78 -0.664619 -1.41466 0
M  V30 11002 H 1062.52 1.35425 -2.9467 0
M  V30 11003 H 1062.3 -0.130173 -3.91884 0
M  V30 11004 H 1063.79 0.845169 -4.08958 0
M  V30 11005 N 1064.23 1.43628 -0.648757 0
M  V30 11006 C 1065.16 2.33478 0.0320785 0
M  V30 11007 C 1066.14 1.49217 0.816605 0
M  V30 11008 O 1067.33 1.77892 0.778974 0
M  V30 11009 C 1064.46 3.32525 1.00222 0
M  V30 11010 C 1063.41 4.2674 0.328119 0
M  V30 11011 C 1062.74 5.15791 1.4094 0
M  V30 11012 C 1064.04 5.16493 -0.776701 0
M  V30 11013 H 1065.73 2.90657 -0.718257 0
M  V30 11014 H 1063.28 1.3976 -0.346852 0
M  V30 11015 H 1065.23 3.94277 1.4874 0
M  V30 11016 H 1063.96 2.73593 1.78366 0
M  V30 11017 H 1062.61 3.66346 -0.136569 0
M  V30 11018 H 1062.26 4.53201 2.18216 0
M  V30 11019 H 1061.96 5.79645 0.963631 0
M  V30 11020 H 1063.49 5.80416 1.89603 0
M  V30 11021 H 1064.9 5.7208 -0.373878 0
M  V30 11022 H 1063.3 5.89043 -1.14667 0
M  V30 11023 H 1064.37 4.56448 -1.63654 0
M  V30 11024 N 1065.71 0.390394 1.52688 0
M  V30 11025 C 1066.66 -0.444229 2.26485 0
M  V30 11026 C 1067.63 -1.05688 1.28138 0
M  V30 11027 O 1068.81 -1.0847 1.56968 0
M  V30 11028 C 1065.95 -1.56501 3.07574 0
M  V30 11029 C 1065.07 -0.975111 4.20851 0
M  V30 11030 C 1064.2 -2.06704 4.89333 0
M  V30 11031 C 1063.24 -1.45309 5.94602 0
M  V30 11032 N 1062.38 -2.48437 6.56676 0
M  V30 11033 H 1067.22 0.191535 2.97384 0
M  V30 11034 H 1064.75 0.106287 1.46716 0
M  V30 11035 H 1066.71 -2.22558 3.52879 0
M  V30 11036 H 1065.34 -2.17107 2.38881 0
M  V30 11037 H 1064.39 -0.204109 3.79852 0
M  V30 11038 H 1065.71 -0.486465 4.96422 0
M  V30 11039 H 1064.86 -2.80528 5.37949 0
M  V30 11040 H 1063.6 -2.58928 4.13289 0
M  V30 11041 H 1062.6 -0.700091 5.45324 0
M  V30 11042 H 1063.83 -0.938775 6.7258 0
M  V30 11043 H 1061.77 -2.99829 5.83471 0
M  V30 11044 H 1061.69 -2.04331 7.27863 0
M  V30 11045 H 1062.96 -3.21888 7.09935 0
M  V30 11046 N 1067.19 -1.57141 0.120249 0
M  V30 11047 C 1068.1 -2.18925 -0.843155 0
M  V30 11048 C 1069.11 -1.16575 -1.29175 0
M  V30 11049 O 1070.29 -1.4905 -1.35448 0
M  V30 11050 C 1067.36 -2.7775 -2.075 0
M  V30 11051 C 1066.42 -3.95139 -1.6782 0
M  V30 11052 C 1065.65 -4.51149 -2.85132 0
M  V30 11053 O 1065.87 -4.06056 -4.00593 0
M  V30 11054 O 1064.81 -5.41815 -2.62145 0
M  V30 11055 H 1068.63 -3.01707 -0.347357 0
M  V30 11056 H 1066.22 -1.49028 -0.105427 0
M  V30 11057 H 1068.1 -3.15243 -2.79643 0
M  V30 11058 H 1066.77 -1.97998 -2.56083 0
M  V30 11059 H 1065.68 -3.62412 -0.927807 0
M  V30 11060 H 1067.01 -4.7633 -1.23977 0
M  V30 11061 N 1068.67 0.153526 -1.5685 0
M  V30 11062 C 1069.6 1.19162 -2.00805 0
M  V30 11063 C 1070.58 1.45172 -0.886518 0
M  V30 11064 O 1071.76 1.56203 -1.15387 0
M  V30 11065 C 1068.89 2.52637 -2.38311 0
M  V30 11066 C 1067.85 2.41161 -3.53589 0
M  V30 11067 C 1067.17 3.79287 -3.76889 0
M  V30 11068 C 1068.47 1.90122 -4.86468 0
M  V30 11069 H 1070.17 0.82617 -2.87776 0
M  V30 11070 H 1067.71 0.395972 -1.38449 0
M  V30 11071 H 1069.67 3.25478 -2.6766 0
M  V30 11072 H 1068.39 2.91005 -1.4827 0
M  V30 11073 H 1067.05 1.70772 -3.24395 0
M  V30 11074 H 1066.7 4.15079 -2.84109 0
M  V30 11075 H 1066.4 3.72472 -4.54465 0
M  V30 11076 H 1067.92 4.53687 -4.08657 0
M  V30 11077 H 1069.33 2.52752 -5.14577 0
M  V30 11078 H 1067.73 1.94214 -5.67804 0
M  V30 11079 H 1068.8 0.856517 -4.77275 0
M  V30 11080 N 1070.14 1.51827 0.422667 0
M  V30 11081 C 1071.37 1.69337 1.19748 0
M  V30 11082 C 1071.79 0.396312 1.83878 0
M  V30 11083 O 1071.15 -0.644976 1.6944 0
M  V30 11084 C 1071.2 2.82082 2.24637 0
M  V30 11085 O 1070.3 2.46708 3.30468 0
M  V30 11086 H 1069.65 0.564154 0.35018 0
M  V30 11087 H 1072.18 1.98465 0.497289 0
M  V30 11088 H 1072.19 3.06599 2.69186 0
M  V30 11089 H 1070.86 3.76195 1.77341 0
M  V30 11090 H 1069.44 2.32815 2.91293 0
M  V30 11091 N 1071.62 -0.679052 1.4222 0
M  V30 11092 C 1072.87 -1.43485 1.41757 0
M  V30 11093 C 1073.18 -1.95567 0.0358698 0
M  V30 11094 O 1074.39 -2.71346 -0.0913713 0
M  V30 11095 C 1072.85 -2.59541 2.49332 0
M  V30 11096 C 1072.45 -2.14176 3.93488 0
M  V30 11097 C 1074.2 -3.37078 2.58029 0
M  V30 11098 C 1072.11 -3.27289 4.92581 0
M  V30 11099 H 1071.04 -0.539022 0.52723 0
M  V30 11100 H 1073.69 -0.735581 1.68111 0
M  V30 11101 H 1072.07 -3.31815 2.16135 0
M  V30 11102 H 1073.24 -1.49082 4.36017 0
M  V30 11103 H 1071.56 -1.49589 3.88603 0
M  V30 11104 H 1074.15 -4.21312 3.29242 0
M  V30 11105 H 1074.5 -3.83383 1.62245 0
M  V30 11106 H 1075.03 -2.7187 2.90399 0
M  V30 11107 H 1071.77 -2.8598 5.89827 0
M  V30 11108 H 1071.29 -3.91178 4.54687 0
M  V30 11109 H 1072.97 -3.9282 5.14103 0
M  V30 11110 N 1073.1 -1.28322 -0.914942 0
M  V30 11111 C 1074.52 -1.06003 -1.19313 0
M  V30 11112 C 1074.72 0.198366 -2.00521 0
M  V30 11113 O 1073.77 0.900364 -2.35902 0
M  V30 11114 C 1075.09 -2.30684 -1.92887 0
M  V30 11115 C 1076.63 -2.35851 -2.05775 0
M  V30 11116 C 1077.11 -3.60295 -2.82757 0
M  V30 11117 N 1078.6 -3.60928 -2.9032 0
M  V30 11118 C 1079.33 -4.53894 -3.50383 0
M  V30 11119 N 1078.83 -5.57178 -4.11734 0
M  V30 11120 N 1080.62 -4.41492 -3.4791 0
M  V30 11121 H 1072.77 -2.09104 -0.372735 0
M  V30 11122 H 1075.04 -0.920285 -0.227552 0
M  V30 11123 H 1074.74 -3.22355 -1.40643 0
M  V30 11124 H 1074.62 -2.37003 -2.93444 0
M  V30 11125 H 1077 -1.44678 -2.57201 0
M  V30 11126 H 1077.09 -2.33526 -1.04399 0
M  V30 11127 H 1076.73 -4.51811 -2.32011 0
M  V30 11128 H 1076.66 -3.59873 -3.84446 0
M  V30 11129 H 1079.15 -2.8624 -2.46729 0
M  V30 11130 H 1079.46 -6.24261 -4.55541 0
M  V30 11131 H 1077.81 -5.61005 -4.10242 0
M  V30 11132 H 1081 -3.60005 -2.99189 0
M  V30 11133 H 1081.17 -5.14132 -3.94427 0
M  V30 11134 N 1074.58 1.12322 -1.10551 0
M  V30 11135 C 1075.83 1.83495 -0.846998 0
M  V30 11136 C 1076.15 1.8457 0.629205 0
M  V30 11137 O 1075.42 1.30968 1.45686 0
M  V30 11138 H 1074 0.679479 -0.310351 0
M  V30 11139 H 1076.66 1.36004 -1.39602 0
M  V30 11140 H 1075.76 2.87651 -1.21092 0
M  V30 11141 N 1076.06 0.894434 1.2976 0
M  V30 11142 C 1077.33 0.437365 1.90648 0
M  V30 11143 C 1077.71 -1.08261 1.81226 0
M  V30 11144 O 1077.06 -1.92213 1.23557 0
M  V30 11145 C 1077.27 0.946047 3.35933 0
M  V30 11146 C 1078.62 0.986621 4.12978 0
M  V30 11147 O 1079.64 0.893356 3.44815 0
M  V30 11148 O 1078.5 1.12591 5.34776 0
M  V30 11149 H 1075.6 0.135436 0.815835 0
M  V30 11150 H 1078.14 0.983955 1.38262 0
M  V30 11151 H 1076.91 1.98998 3.3692 0
M  V30 11152 H 1076.54 0.379164 3.95788 0
M  V30 11153 N 1077.53 -1.43282 0.656365 0
M  V30 11154 C 1078.78 -2.01776 0.171039 0
M  V30 11155 C 1079.11 -1.51795 -1.21609 0
M  V30 11156 O 1078.36 -0.702864 -1.82643 0
M  V30 11157 C 1078.66 -3.57148 0.134225 0
M  V30 11158 C 1078.33 -4.26488 1.46352 0
M  V30 11159 C 1076.99 -4.45146 1.82753 0
M  V30 11160 C 1079.34 -4.65728 2.33981 0
M  V30 11161 C 1076.67 -5.0031 3.06443 0
M  V30 11162 C 1079.02 -5.22263 3.56966 0
M  V30 11163 C 1077.69 -5.39136 3.93559 0
M  V30 11164 H 1076.96 -0.738352 0.0625878 0
M  V30 11165 H 1079.6 -1.71716 0.847697 0
M  V30 11166 H 1077.91 -3.86768 -0.625892 0
M  V30 11167 H 1079.61 -4.00168 -0.258207 0
M  V30 11168 H 1076.2 -4.12313 1.1703 0
M  V30 11169 H 1080.38 -4.51003 2.07148 0
M  V30 11170 H 1075.64 -5.11559 3.34839 0
M  V30 11171 H 1079.81 -5.51614 4.25082 0
M  V30 11172 H 1077.44 -5.81646 4.89481 0
M  V30 11173 N 1079.01 -0.398486 -1.52479 0
M  V30 11174 C 1080.43 -0.0488635 -1.59525 0
M  V30 11175 C 1080.63 1.43756 -1.41197 0
M  V30 11176 O 1079.69 2.20317 -1.23357 0
M  V30 11177 C 1081 -0.534262 -2.95916 0
M  V30 11178 C 1082.55 -0.491314 -3.0912 0
M  V30 11179 C 1083.02 -0.953049 -4.47974 0
M  V30 11180 N 1084.51 -0.909434 -4.54184 0
M  V30 11181 C 1085.25 -1.23801 -5.59876 0
M  V30 11182 N 1084.74 -1.63752 -6.73169 0
M  V30 11183 N 1086.54 -1.15867 -5.50028 0
M  V30 11184 H 1078.69 -1.36608 -1.62641 0
M  V30 11185 H 1080.95 -0.560515 -0.764544 0
M  V30 11186 H 1080.66 -1.57277 -3.14574 0
M  V30 11187 H 1080.53 0.0617787 -3.77149 0
M  V30 11188 H 1082.92 0.538123 -2.90152 0
M  V30 11189 H 1083 -1.12327 -2.29818 0
M  V30 11190 H 1082.64 -1.98076 -4.67684 0
M  V30 11191 H 1082.57 -0.298007 -5.25756 0
M  V30 11192 H 1085.06 -0.615569 -3.72853 0
M  V30 11193 H 1085.38 -1.87163 -7.49793 0
M  V30 11194 H 1083.72 -1.67647 -6.74477 0
M  V30 11195 H 1086.91 -0.845502 -4.60401 0
M  V30 11196 H 1087.09 -1.41805 -6.32294 0
M  V30 11197 N 1080.49 1.57075 -0.12858 0
M  V30 11198 C 1081.72 1.99876 0.534544 0
M  V30 11199 C 1082.13 1.00843 1.59612 0
M  V30 11200 O 1081.49 0.00268947 1.825 0
M  V30 11201 C 1081.54 3.42654 1.15198 0
M  V30 11202 O 1081.26 4.37899 0.132823 0
M  V30 11203 C 1082.76 4.00637 1.8975 0
M  V30 11204 H 1079.98 0.656073 0.140744 0
M  V30 11205 H 1082.53 2.03337 -0.217742 0
M  V30 11206 H 1080.68 3.40101 1.85499 0
M  V30 11207 H 1081.1 5.21253 0.582682 0
M  V30 11208 H 1082.57 5.02592 2.28266 0
M  V30 11209 H 1083.05 3.40313 2.7764 0
M  V30 11210 H 1083.65 4.06764 1.2419 0
M  V30 11211 N 1081.97 -0.145205 1.5693 0
M  V30 11212 C 1083.2 -0.872398 1.87608 0
M  V30 11213 C 1083.61 -1.74657 0.716975 0
M  V30 11214 O 1082.97 -1.79792 -0.3132 0
M  V30 11215 C 1083.02 -1.72762 3.17546 0
M  V30 11216 O 1082.74 -0.888681 4.28992 0
M  V30 11217 C 1084.24 -2.56224 3.61751 0
M  V30 11218 H 1081.46 -0.252166 0.621815 0
M  V30 11219 H 1084.01 -0.137456 2.04038 0
M  V30 11220 H 1082.16 -2.41561 3.02865 0
M  V30 11221 H 1082.58 -1.47601 5.03303 0
M  V30 11222 H 1084.05 -3.11804 4.55502 0
M  V30 11223 H 1084.53 -3.32347 2.87127 0
M  V30 11224 H 1085.13 -1.92714 3.79133 0
M  V30 11225 N 1083.45 -1.52049 -0.414609 0
M  V30 11226 C 1084.69 -1.66084 -1.16379 0
M  V30 11227 C 1085.03 -0.386932 -1.90306 0
M  V30 11228 O 1084.3 0.614441 -1.8454 0
M  V30 11229 C 1084.58 -2.87927 -2.16264 0
M  V30 11230 C 1084.44 -4.25353 -1.46269 0
M  V30 11231 C 1085.76 -3.05289 -3.16996 0
M  V30 11232 H 1082.88 -0.604414 -0.421726 0
M  V30 11233 H 1085.52 -1.8459 -0.450177 0
M  V30 11234 H 1083.67 -2.7228 -2.77121 0
M  V30 11235 H 1085.34 -4.52717 -0.885743 0
M  V30 11236 H 1083.58 -4.27006 -0.76472 0
M  V30 11237 H 1084.25 -5.06644 -2.19126 0
M  V30 11238 H 1086.73 -3.19798 -2.66212 0
M  V30 11239 H 1085.61 -3.92065 -3.84156 0
M  V30 11240 H 1085.87 -2.1836 -3.84411 0
M  V30 11241 N 1084.93 0.6715 -1.42579 0
M  V30 11242 C 1085.84 1.81435 -1.48723 0
M  V30 11243 C 1086.85 1.69895 -0.375716 0
M  V30 11244 O 1088.03 1.91388 -0.627115 0
M  V30 11245 C 1085.09 3.17599 -1.39038 0
M  V30 11246 C 1084.15 3.41071 -2.60709 0
M  V30 11247 C 1083.39 4.7074 -2.51476 0
M  V30 11248 O 1083.61 5.48868 -1.55243 0
M  V30 11249 O 1082.54 4.95528 -3.41666 0
M  V30 11250 H 1086.37 1.79206 -2.45191 0
M  V30 11251 H 1083.95 0.827666 -1.24379 0
M  V30 11252 H 1085.84 3.98847 -1.3601 0
M  V30 11253 H 1084.51 3.20458 -0.456966 0
M  V30 11254 H 1083.42 2.59659 -2.69311 0
M  V30 11255 H 1084.75 3.43045 -3.5296 0
M  V30 11256 N 1086.4 1.28806 0.908124 0
M  V30 11257 C 1087.63 1.1898 1.689 0
M  V30 11258 C 1088.04 -0.253334 1.87496 0
M  V30 11259 O 1087.38 -1.18245 1.40584 0
M  V30 11260 C 1087.45 1.82266 3.0987 0
M  V30 11261 C 1087.11 3.31534 3.14538 0
M  V30 11262 C 1088.11 4.27886 2.95313 0
M  V30 11263 C 1085.79 3.72589 3.36872 0
M  V30 11264 C 1087.79 5.63267 2.98343 0
M  V30 11265 C 1085.47 5.08095 3.39534 0
M  V30 11266 C 1086.47 6.03244 3.2029 0
M  V30 11267 O 1086.16 7.36277 3.22724 0
M  V30 11268 H 1085.89 0.413772 0.534574 0
M  V30 11269 H 1088.45 1.7055 1.14464 0
M  V30 11270 H 1086.68 1.25197 3.65872 0
M  V30 11271 H 1088.36 1.6688 3.70008 0
M  V30 11272 H 1089.13 3.97502 2.77879 0
M  V30 11273 H 1085.01 2.98989 3.50894 0
M  V30 11274 H 1088.55 6.37511 2.83241 0
M  V30 11275 H 1084.45 5.38126 3.56497 0
M  V30 11276 H 1085.22 7.44976 3.39048 0
M  V30 11277 N 1087.88 -1.11734 1.11145 0
M  V30 11278 C 1088.81 -2.1976 0.789152 0
M  V30 11279 C 1089.79 -1.68382 -0.241143 0
M  V30 11280 O 1090.98 -1.93914 -0.105292 0
M  V30 11281 C 1088.11 -3.46549 0.228204 0
M  V30 11282 C 1087.06 -4.11123 1.19002 0
M  V30 11283 C 1086.39 -5.32451 0.489928 0
M  V30 11284 C 1087.69 -4.56406 2.53951 0
M  V30 11285 H 1089.38 -2.46978 1.69241 0
M  V30 11286 H 1086.93 -1.18705 0.81517 0
M  V30 11287 H 1088.88 -4.21399 -0.00945908 0
M  V30 11288 H 1087.6 -3.18782 -0.71033 0
M  V30 11289 H 1086.26 -3.38264 1.41326 0
M  V30 11290 H 1085.91 -5.00953 -0.453315 0
M  V30 11291 H 1085.61 -5.76605 1.1314 0
M  V30 11292 H 1087.14 -6.10042 0.260984 0
M  V30 11293 H 1088.55 -5.22592 2.35733 0
M  V30 11294 H 1086.95 -5.11363 3.14051 0
M  V30 11295 H 1088.02 -3.7001 3.13402 0
M  V30 11296 N 1089.36 -0.901303 -1.29284 0
M  V30 11297 C 1090.61 -0.52401 -1.94774 0
M  V30 11298 C 1090.92 0.934645 -1.71825 0
M  V30 11299 O 1092.13 1.41953 -2.31434 0
M  V30 11300 C 1090.58 -0.886262 -3.48817 0
M  V30 11301 C 1090.19 -2.3638 -3.80564 0
M  V30 11302 C 1091.94 -0.578955 -4.20533 0
M  V30 11303 C 1089.84 -2.66682 -5.27858 0
M  V30 11304 H 1088.77 -0.192244 -0.72908 0
M  V30 11305 H 1091.42 -1.09852 -1.46986 0
M  V30 11306 H 1089.81 -0.240666 -3.95268 0
M  V30 11307 H 1090.98 -3.05508 -3.44966 0
M  V30 11308 H 1089.29 -2.64029 -3.2199 0
M  V30 11309 H 1091.89 -0.782185 -5.28948 0
M  V30 11310 H 1092.23 0.482605 -4.13493 0
M  V30 11311 H 1092.77 -1.18246 -3.79819 0
M  V30 11312 H 1089.51 -3.71643 -5.39965 0
M  V30 11313 H 1089.03 -2.02179 -5.64698 0
M  V30 11314 H 1090.71 -2.53033 -5.95469 0
M  V30 11315 N 1090.84 1.42931 -0.663954 0
M  V30 11316 C 1091.79 2.32577 0.03287 0
M  V30 11317 C 1092.78 1.49217 0.801918 0
M  V30 11318 O 1093.99 1.65358 0.711106 0
M  V30 11319 H 1090.36 0.751424 0.0294198 0
M  V30 11320 H 1092.33 2.89059 -0.740763 0
M  V30 11321 C 1091.08 3.33661 0.978025 0
M  V30 11322 H 1090.4 3.97837 0.395681 0
M  V30 11323 H 1091.84 3.98997 1.43448 0
M  V30 11324 C 1090.3 2.65085 2.07922 0
M  V30 11325 O 1090.83 2.4745 3.16435 0
M  V30 11326 N 1089.04 2.24285 1.84783 0
M  V30 11327 H 1088.59 2.38827 0.965368 0
M  V30 11328 H 1088.54 1.78732 2.58655 0
M  V30 11329 N 1092.32 0.406567 1.52266 0
M  V30 11330 C 1093.25 -0.411314 2.29849 0
M  V30 11331 C 1094.23 -1.04838 1.33952 0
M  V30 11332 O 1095.41 -1.05788 1.62857 0
M  V30 11333 C 1092.54 -1.52961 3.11802 0
M  V30 11334 C 1091.5 -1.01768 4.15725 0
M  V30 11335 C 1090.82 -2.22938 4.86007 0
M  V30 11336 C 1092.12 -0.073515 5.22248 0
M  V30 11337 H 1093.82 0.236054 2.98468 0
M  V30 11338 H 1091.36 0.114968 1.4354 0
M  V30 11339 H 1093.31 -2.10874 3.64843 0
M  V30 11340 H 1092.04 -2.20482 2.40947 0
M  V30 11341 H 1090.7 -0.46097 3.6369 0
M  V30 11342 H 1090.35 -2.89007 4.11684 0
M  V30 11343 H 1090.05 -1.89338 5.5626 0
M  V30 11344 H 1091.57 -2.81462 5.41859 0
M  V30 11345 H 1092.98 -0.561367 5.70545 0
M  V30 11346 H 1091.38 0.173551 5.99849 0
M  V30 11347 H 1092.45 0.872524 4.76985 0
M  V30 11348 N 1093.79 -1.57004 0.136909 0
M  V30 11349 C 1094.72 -2.19262 -0.802902 0
M  V30 11350 C 1095.71 -1.13786 -1.26439 0
M  V30 11351 O 1096.89 -1.42091 -1.32377 0
M  V30 11352 C 1094.02 -2.80624 -2.04615 0
M  V30 11353 C 1092.97 -3.91839 -1.72181 0
M  V30 11354 C 1092.3 -4.4009 -3.03686 0
M  V30 11355 C 1093.6 -5.13095 -0.976249 0
M  V30 11356 H 1095.29 -2.98049 -0.28406 0
M  V30 11357 H 1092.84 -1.43364 -0.135189 0
M  V30 11358 H 1094.79 -3.22842 -2.70834 0
M  V30 11359 H 1093.52 -1.99153 -2.58855 0
M  V30 11360 H 1092.18 -3.50224 -1.08344 0
M  V30 11361 H 1091.82 -3.55454 -3.55896 0
M  V30 11362 H 1091.52 -5.15098 -2.82751 0
M  V30 11363 H 1093.05 -4.84971 -3.70993 0
M  V30 11364 H 1094.46 -5.5222 -1.54033 0
M  V30 11365 H 1092.86 -5.93801 -0.867214 0
M  V30 11366 H 1093.93 -4.84888 0.0338488 0
M  V30 11367 N 1095.27 0.136881 -1.57004 0
M  V30 11368 C 1096.18 1.18793 -2.023 0
M  V30 11369 C 1097.2 1.46412 -0.94018 0
M  V30 11370 O 1098.37 1.57883 -1.2504 0
M  V30 11371 C 1095.44 2.49903 -2.40311 0
M  V30 11372 C 1094.5 2.29841 -3.6259 0
M  V30 11373 C 1093.73 3.54699 -3.98779 0
M  V30 11374 O 1093.96 4.61291 -3.3551 0
M  V30 11375 O 1092.89 3.46761 -4.91976 0
M  V30 11376 H 1096.72 0.833345 -2.92043 0
M  V30 11377 H 1094.3 0.346361 -1.4533 0
M  V30 11378 H 1096.18 3.27183 -2.65574 0
M  V30 11379 H 1094.86 2.84872 -1.5372 0
M  V30 11380 H 1093.77 1.50478 -3.42501 0
M  V30 11381 H 1095.1 1.99784 -4.4983 0
M  V30 11382 N 1096.75 1.52266 0.40654 0
M  V30 11383 C 1097.98 1.70304 1.17491 0
M  V30 11384 C 1098.39 0.413656 1.84213 0
M  V30 11385 O 1097.75 -0.610524 1.71985 0
M  V30 11386 C 1097.8 2.84045 2.23609 0
M  V30 11387 O 1097.52 4.0799 1.5961 0
M  V30 11388 C 1099.02 3.13614 3.13306 0
M  V30 11389 H 1096.24 0.570669 0.352955 0
M  V30 11390 H 1098.79 1.98836 0.477967 0
M  V30 11391 H 1096.94 2.58025 2.88967 0
M  V30 11392 H 1097.36 4.7139 2.29983 0
M  V30 11393 H 1098.83 3.96707 3.83833 0
M  V30 11394 H 1099.31 2.27272 3.75824 0
M  V30 11395 H 1099.91 3.41409 2.53614 0
M  V30 11396 N 1098.23 -0.663929 1.42933 0
M  V30 11397 C 1099.14 -1.80643 1.49683 0
M  V30 11398 C 1100.15 -1.69694 0.38472 0
M  V30 11399 O 1101.33 -1.91052 0.637256 0
M  V30 11400 C 1098.4 -3.16858 1.4072 0
M  V30 11401 C 1097.46 -3.39684 2.62514 0
M  V30 11402 C 1096.69 -4.69399 2.53969 0
M  V30 11403 O 1096.91 -5.48037 1.58152 0
M  V30 11404 O 1095.85 -4.93709 3.44289 0
M  V30 11405 H 1099.67 -1.77903 2.46138 0
M  V30 11406 H 1097.26 -0.821059 1.24816 0
M  V30 11407 H 1099.14 -3.9812 1.38124 0
M  V30 11408 H 1097.81 -3.20211 0.473954 0
M  V30 11409 H 1096.72 -2.58227 2.70684 0
M  V30 11410 H 1098.05 -3.41169 3.54774 0
M  V30 11411 N 1099.71 -1.29285 -0.901281 0
M  V30 11412 C 1100.93 -1.20169 -1.69039 0
M  V30 11413 C 1101.36 0.234509 -1.86632 0
M  V30 11414 O 1100.71 1.16935 -1.38549 0
M  V30 11415 C 1100.76 -1.91852 -3.05328 0
M  V30 11416 O 1099.87 -1.23448 -3.9349 0
M  V30 11417 H 1099.21 -0.416486 -0.517141 0
M  V30 11418 H 1101.74 -1.70826 -1.12603 0
M  V30 11419 H 1101.75 -2.00244 -3.5548 0
M  V30 11420 H 1100.42 -2.96313 -2.91841 0
M  V30 11421 H 1099 -1.23303 -3.51924 0
M  V30 11422 N 1101.18 1.11143 -1.11736 0
M  V30 11423 C 1102.43 1.82948 -0.868127 0
M  V30 11424 C 1102.76 1.84813 0.606182 0
M  V30 11425 O 1102.01 1.29901 1.4637 0
M  V30 11426 C 1102.31 3.29733 -1.3788 0
M  V30 11427 C 1101.98 3.48025 -2.86687 0
M  V30 11428 C 1100.64 3.52725 -3.2732 0
M  V30 11429 C 1102.99 3.54024 -3.82513 0
M  V30 11430 C 1100.32 3.60983 -4.62502 0
M  V30 11431 C 1102.67 3.63814 -5.17515 0
M  V30 11432 C 1101.34 3.66776 -5.57702 0
M  V30 11433 H 1100.61 0.669452 -0.31767 0
M  V30 11434 H 1103.25 1.31057 -1.3963 0
M  V30 11435 H 1101.56 3.8414 -0.77093 0
M  V30 11436 H 1103.26 3.83787 -1.16225 0
M  V30 11437 H 1099.85 3.45039 -2.54256 0
M  V30 11438 H 1104.03 3.4965 -3.52219 0
M  V30 11439 H 1099.29 3.61554 -4.9304 0
M  V30 11440 H 1103.46 3.674 -5.916 0
M  V30 11441 H 1101.09 3.72927 -6.62442 0
M  V30 11442 N 1102.66 0.908147 1.28804 0
M  V30 11443 C 1103.59 0.34957 2.26519 0
M  V30 11444 C 1104.61 -0.508845 1.54643 0
M  V30 11445 O 1105.8 -0.324633 1.75523 0
M  V30 11446 C 1102.9 -0.519461 3.34895 0
M  V30 11447 C 1102.07 0.315157 4.36263 0
M  V30 11448 C 1101.13 -0.488059 5.23932 0
M  V30 11449 O 1100.15 0.0974133 5.69117 0
M  V30 11450 N 1101.36 -1.79233 5.52137 0
M  V30 11451 H 1104.12 1.18945 2.75086 0
M  V30 11452 H 1101.68 0.77351 1.42227 0
M  V30 11453 H 1103.67 -1.0634 3.90479 0
M  V30 11454 H 1102.24 -1.26004 2.8608 0
M  V30 11455 H 1101.46 1.04049 3.8022 0
M  V30 11456 H 1102.75 0.886438 5.01019 0
M  V30 11457 H 1102.15 -2.2906 5.1725 0
M  V30 11458 H 1100.71 -2.28322 6.10502 0
M  V30 11459 N 1104.14 -1.42577 0.671525 0
M  V30 11460 C 1105.09 -2.32591 -0.0205354 0
M  V30 11461 C 1106.08 -1.4964 -0.793993 0
M  V30 11462 O 1107.29 -1.65733 -0.702327 0
M  V30 11463 H 1103.66 -0.75157 -0.0254344 0
M  V30 11464 H 1105.63 -2.88662 0.756082 0
M  V30 11465 C 1104.38 -3.34175 -0.960316 0
M  V30 11466 H 1103.71 -3.98041 -0.374577 0
M  V30 11467 H 1105.15 -3.99752 -1.4133 0
M  V30 11468 C 1103.61 -2.66184 -2.06513 0
M  V30 11469 O 1104.14 -2.49125 -3.15119 0
M  V30 11470 N 1102.34 -2.25261 -1.83591 0
M  V30 11471 H 1101.89 -2.39336 -0.952689 0
M  V30 11472 H 1101.85 -1.80101 -2.57703 0
M  V30 11473 N 1105.62 -0.414636 -1.52048 0
M  V30 11474 C 1106.57 0.422766 -2.28726 0
M  V30 11475 C 1107.56 1.04099 -1.3364 0
M  V30 11476 O 1108.77 0.978559 -1.51077 0
M  V30 11477 H 1105.14 0.155123 -0.735827 0
M  V30 11478 H 1107.11 -0.245091 -2.97392 0
M  V30 11479 C 1105.86 1.52418 -3.12513 0
M  V30 11480 H 1105.18 1.05781 -3.85552 0
M  V30 11481 H 1106.62 2.08382 -3.6926 0
M  V30 11482 C 1105.08 2.49465 -2.26426 0
M  V30 11483 O 1105.61 3.53479 -1.90829 0
M  V30 11484 N 1103.82 2.19806 -1.90088 0
M  V30 11485 H 1103.37 1.35253 -2.19236 0
M  V30 11486 H 1103.32 2.84984 -1.32783 0
M  V30 11487 N 1107.1 1.56929 -0.145233 0
M  V30 11488 C 1108.37 1.8767 0.551288 0
M  V30 11489 C 1108.75 1.05089 1.83083 0
M  V30 11490 O 1108.1 0.137201 2.28088 0
M  V30 11491 C 1108.31 3.39268 0.818445 0
M  V30 11492 C 1109.66 4.08447 1.16 0
M  V30 11493 O 1110.68 3.44436 0.907857 0
M  V30 11494 O 1109.54 5.21488 1.63441 0
M  V30 11495 H 1106.64 0.777788 0.281024 0
M  V30 11496 H 1109.18 1.68724 -0.181712 0
M  V30 11497 H 1107.95 3.91203 -0.0871897 0
M  V30 11498 H 1107.58 3.63735 1.60569 0
M  V30 11499 N 1108.58 -0.128553 1.57075 0
M  V30 11500 C 1109.82 -0.836536 1.83535 0
M  V30 11501 C 1110.14 -1.81491 0.7294 0
M  V30 11502 O 1111.34 -2.56838 0.880128 0
M  V30 11503 C 1109.8 -1.53836 3.25365 0
M  V30 11504 C 1109.41 -0.601454 4.43944 0
M  V30 11505 C 1111.15 -2.23204 3.61082 0
M  V30 11506 C 1109.06 -1.30596 5.768 0
M  V30 11507 H 1107.99 -0.316142 0.684522 0
M  V30 11508 H 1110.64 -0.0892555 1.83283 0
M  V30 11509 H 1109.02 -2.33192 3.20058 0
M  V30 11510 H 1110.2 0.158209 4.60528 0
M  V30 11511 H 1108.51 -0.0152393 4.16397 0
M  V30 11512 H 1111.11 -2.76585 4.57608 0
M  V30 11513 H 1111.45 -3.0056 2.88044 0
M  V30 11514 H 1111.98 -1.50746 3.68131 0
M  V30 11515 H 1108.72 -0.573874 6.52983 0
M  V30 11516 H 1108.24 -2.03787 5.6412 0
M  V30 11517 H 1109.92 -1.8418 6.20231 0
M  V30 11518 N 1110.05 -1.5248 -0.398459 0
M  V30 11519 C 1111.33 -1.57634 -1.15805 0
M  V30 11520 C 1111.71 -0.363785 -2.07942 0
M  V30 11521 O 1111.06 0.648598 -2.19101 0
M  V30 11522 C 1111.27 -2.91042 -1.92602 0
M  V30 11523 C 1112.62 -3.44433 -2.48296 0
M  V30 11524 O 1113.64 -2.92853 -2.0277 0
M  V30 11525 O 1112.5 -4.34529 -3.31432 0
M  V30 11526 H 1109.59 -0.63539 -0.529347 0
M  V30 11527 H 1112.14 -1.64812 -0.404376 0
M  V30 11528 H 1110.91 -3.7074 -1.25169 0
M  V30 11529 H 1110.53 -2.87206 -2.74952 0
M  V30 11530 N 1111.53 0.65634 -1.43283 0
M  V30 11531 C 1112.76 1.44408 -1.48168 0
M  V30 11532 C 1113.17 1.88542 -0.0986016 0
M  V30 11533 O 1112.53 1.59298 0.890527 0
M  V30 11534 C 1112.58 2.68111 -2.42484 0
M  V30 11535 O 1112.3 2.25824 -3.75413 0
M  V30 11536 C 1113.8 3.61499 -2.56579 0
M  V30 11537 H 1111.02 0.443731 -0.503333 0
M  V30 11538 H 1113.57 0.804917 -1.87993 0
M  V30 11539 H 1111.72 3.28175 -2.05863 0
M  V30 11540 H 1112.14 3.05839 -4.26102 0
M  V30 11541 H 1113.61 4.44972 -3.26655 0
M  V30 11542 H 1114.09 4.08639 -1.60969 0
M  V30 11543 H 1114.69 3.07319 -2.93998 0
M  V30 11544 N 1113.01 1.29761 0.894412 0
M  V30 11545 C 1114.26 1.17806 1.64214 0
M  V30 11546 C 1114.58 -0.269588 1.93127 0
M  V30 11547 O 1113.85 -1.18352 1.56107 0
M  V30 11548 H 1112.43 0.433002 0.608702 0
M  V30 11549 H 1115.09 1.6276 1.07216 0
M  V30 11550 H 1114.19 1.73201 2.5963 0
M  V30 11551 N 1114.49 -1.10549 1.12324 0
M  V30 11552 C 1115.73 -1.82941 0.889043 0
M  V30 11553 C 1116.09 -1.83483 -0.578935 0
M  V30 11554 O 1115.38 -1.28365 -1.42243 0
M  V30 11555 C 1115.58 -3.28997 1.39626 0
M  V30 11556 C 1115.4 -3.42683 2.91202 0
M  V30 11557 C 1114.17 -3.55164 3.59426 0
M  V30 11558 C 1116.37 -3.36187 3.89208 0
M  V30 11559 N 1114.35 -3.57414 4.99128 0
M  V30 11560 C 1115.73 -3.45168 5.15033 0
M  V30 11561 C 1117.78 -3.19778 3.81637 0
M  V30 11562 C 1116.48 -3.39431 6.34176 0
M  V30 11563 C 1118.51 -3.15362 5.003 0
M  V30 11564 C 1117.87 -3.24924 6.24983 0
M  V30 11565 H 1113.97 -0.684249 0.378585 0
M  V30 11566 H 1116.55 -1.32206 1.42932 0
M  V30 11567 H 1114.73 -3.78228 0.883051 0
M  V30 11568 H 1116.46 -3.89343 1.10425 0
M  V30 11569 H 1113.21 -3.5812 3.09914 0
M  V30 11570 H 1113.64 -3.62153 5.71991 0
M  V30 11571 H 1118.28 -3.11264 2.86137 0
M  V30 11572 H 1116 -3.46711 7.29943 0
M  V30 11573 H 1119.58 -3.03819 4.96171 0
M  V30 11574 H 1118.46 -3.21508 7.15264 0
M  V30 11575 N 1115.97 -0.914965 -1.28321 0
M  V30 11576 C 1116.9 -0.421292 -2.29668 0
M  V30 11577 C 1117.88 0.511743 -1.6222 0
M  V30 11578 O 1119.06 0.419218 -1.89621 0
M  V30 11579 C 1116.19 0.338364 -3.45648 0
M  V30 11580 C 1115.15 -0.505646 -4.25003 0
M  V30 11581 C 1114.47 0.382421 -5.33331 0
M  V30 11582 C 1115.77 -1.76354 -4.91626 0
M  V30 11583 H 1117.47 -1.26826 -2.71211 0
M  V30 11584 H 1115.01 -0.611291 -1.30381 0
M  V30 11585 H 1116.96 0.694578 -4.15636 0
M  V30 11586 H 1115.69 1.21925 -3.02988 0
M  V30 11587 H 1114.35 -0.844395 -3.56743 0
M  V30 11588 H 1114 1.26189 -4.86914 0
M  V30 11589 H 1113.7 -0.17871 -5.87328 0
M  V30 11590 H 1115.22 0.73449 -6.06166 0
M  V30 11591 H 1116.63 -1.47616 -5.5397 0
M  V30 11592 H 1115.03 -2.26717 -5.55625 0
M  V30 11593 H 1116.1 -2.49063 -4.16048 0
M  V30 11594 N 1117.44 1.42219 -0.679077 0
M  V30 11595 C 1118.72 1.95155 -0.13188 0
M  V30 11596 C 1119.1 1.6193 1.35433 0
M  V30 11597 O 1118.45 0.917672 2.09263 0
M  V30 11598 C 1118.66 3.46635 -0.405578 0
M  V30 11599 C 1120.01 4.23359 -0.324394 0
M  V30 11600 O 1121.03 3.54578 -0.339564 0
M  V30 11601 O 1119.89 5.45831 -0.270268 0
M  V30 11602 H 1116.98 0.826983 -0.00535438 0
M  V30 11603 H 1119.53 1.52024 -0.754101 0
M  V30 11604 H 1118.3 3.6404 -1.43495 0
M  V30 11605 H 1117.92 3.96823 0.248439 0
M  V30 11606 N 1118.92 0.422693 1.51826 0
M  V30 11607 C 1120.15 -0.14753 2.06073 0
M  V30 11608 C 1120.56 -1.38264 1.2915 0
M  V30 11609 O 1119.9 -1.8052 0.340306 0
M  V30 11610 C 1119.96 -0.549558 3.55275 0
M  V30 11611 C 1119.63 0.576704 4.53347 0
M  V30 11612 C 1120.63 1.44442 4.99432 0
M  V30 11613 C 1118.31 0.753264 4.9662 0
M  V30 11614 C 1120.3 2.47352 5.87448 0
M  V30 11615 C 1117.99 1.78566 5.84429 0
M  V30 11616 C 1118.99 2.64419 6.29739 0
M  V30 11617 O 1118.68 3.65888 7.15808 0
M  V30 11618 H 1118.41 -0.0178911 0.675763 0
M  V30 11619 H 1120.96 0.596258 1.96555 0
M  V30 11620 H 1119.19 -1.34583 3.62525 0
M  V30 11621 H 1120.88 -1.04925 3.92104 0
M  V30 11622 H 1121.65 1.31948 4.66706 0
M  V30 11623 H 1117.53 0.0946405 4.60903 0
M  V30 11624 H 1121.07 3.14397 6.22736 0
M  V30 11625 H 1116.97 1.91086 6.16568 0
M  V30 11626 H 1117.74 3.62294 7.33952 0
M  V30 11627 N 1120.4 -1.5685 0.153553 0
M  V30 11628 C 1121.33 -2.20101 -0.779601 0
M  V30 11629 C 1122.31 -1.15121 -1.25225 0
M  V30 11630 O 1123.5 -1.43487 -1.30862 0
M  V30 11631 C 1120.63 -2.82778 -2.01628 0
M  V30 11632 C 1119.58 -3.93643 -1.68015 0
M  V30 11633 C 1118.91 -4.43286 -2.99001 0
M  V30 11634 C 1120.21 -5.14102 -0.921774 0
M  V30 11635 H 1121.9 -2.98334 -0.252432 0
M  V30 11636 H 1119.45 -1.43499 -0.119975 0
M  V30 11637 H 1121.4 -3.25696 -2.67395 0
M  V30 11638 H 1120.12 -2.01887 -2.56728 0
M  V30 11639 H 1118.78 -3.51354 -1.04624 0
M  V30 11640 H 1118.43 -3.59208 -3.52106 0
M  V30 11641 H 1118.13 -5.18068 -2.77272 0
M  V30 11642 H 1119.65 -4.88878 -3.65828 0
M  V30 11643 H 1121.07 -5.53823 -1.48167 0
M  V30 11644 H 1119.46 -5.94687 -0.804185 0
M  V30 11645 H 1120.53 -4.84825 0.0852757 0
M  V30 11646 N 1121.88 0.120221 -1.57141 0
M  V30 11647 C 1123.13 0.826791 -1.83976 0
M  V30 11648 C 1123.44 1.81102 -0.739014 0
M  V30 11649 O 1124.65 2.56368 -0.893736 0
M  V30 11650 C 1123.1 1.52108 -3.26176 0
M  V30 11651 C 1122.71 0.577902 -4.44257 0
M  V30 11652 C 1124.45 2.21286 -3.62261 0
M  V30 11653 C 1122.36 1.27535 -5.77485 0
M  V30 11654 H 1121.29 0.312508 -0.686189 0
M  V30 11655 H 1123.94 0.0795343 -1.83328 0
M  V30 11656 H 1122.32 2.31492 -3.2129 0
M  V30 11657 H 1123.5 -0.182629 -4.60438 0
M  V30 11658 H 1121.81 -0.00684348 -4.16399 0
M  V30 11659 H 1124.41 2.74154 -4.59068 0
M  V30 11660 H 1124.75 2.99029 -2.89634 0
M  V30 11661 H 1125.29 1.48791 -3.68925 0
M  V30 11662 H 1122.02 0.539237 -6.53278 0
M  V30 11663 H 1121.54 2.00792 -5.65192 0
M  V30 11664 H 1123.22 1.80888 -6.21199 0
M  V30 11665 N 1123.36 1.52689 0.390367 0
M  V30 11666 C 1124.32 1.76726 1.45947 0
M  V30 11667 C 1125.32 0.637269 1.47633 0
M  V30 11668 O 1126.51 0.905312 1.48828 0
M  V30 11669 C 1123.64 1.86678 2.85244 0
M  V30 11670 H 1124.83 2.72185 1.25918 0
M  V30 11671 H 1122.39 1.4339 0.622023 0
M  V30 11672 H 1123.12 0.931991 3.10619 0
M  V30 11673 H 1122.91 2.68843 2.85422 0
M  V30 11674 H 1124.4 2.06952 3.62713 0
M  V30 11675 N 1124.83 -0.648732 1.43629 0
M  V30 11676 C 1125.74 -1.79046 1.51591 0
M  V30 11677 C 1126.76 -1.69276 0.402697 0
M  V30 11678 O 1127.94 -1.90366 0.657484 0
M  V30 11679 C 1125 -3.15347 1.44073 0
M  V30 11680 C 1124.06 -3.3688 2.66102 0
M  V30 11681 C 1123.3 -4.66679 2.58933 0
M  V30 11682 O 1123.52 -5.46328 1.63956 0
M  V30 11683 O 1122.45 -4.9003 3.49506 0
M  V30 11684 H 1126.28 -1.75283 2.48011 0
M  V30 11685 H 1123.86 -0.807774 1.2568 0
M  V30 11686 H 1125.75 -3.96633 1.42339 0
M  V30 11687 H 1124.42 -3.19691 0.50789 0
M  V30 11688 H 1123.33 -2.55341 2.73407 0
M  V30 11689 H 1124.66 -3.37386 3.58373 0
M  V30 11690 N 1126.31 -1.30234 -0.887518 0
M  V30 11691 C 1127.26 -1.164 -1.99298 0
M  V30 11692 C 1128.23 -0.0541536 -1.66012 0
M  V30 11693 O 1129.41 -0.223881 -1.89482 0
M  V30 11694 C 1126.55 -0.859169 -3.34234 0
M  V30 11695 C 1125.67 -2.05065 -3.80227 0
M  V30 11696 C 1124.8 -1.68413 -5.03796 0
M  V30 11697 C 1123.84 -2.8407 -5.4219 0
M  V30 11698 N 1122.98 -2.47732 -6.56942 0
M  V30 11699 H 1127.82 -2.10973 -2.10463 0
M  V30 11700 H 1125.36 -1.04969 -1.03053 0
M  V30 11701 H 1127.31 -0.663064 -4.11897 0
M  V30 11702 H 1125.94 0.0496808 -3.22762 0
M  V30 11703 H 1125 -2.35808 -2.98494 0
M  V30 11704 H 1126.31 -2.91688 -4.04623 0
M  V30 11705 H 1125.46 -1.45162 -5.89078 0
M  V30 11706 H 1124.2 -0.789553 -4.81266 0
M  V30 11707 H 1123.21 -3.0799 -4.55437 0
M  V30 11708 H 1124.43 -3.74211 -5.66695 0
M  V30 11709 H 1122.38 -1.60777 -6.35993 0
M  V30 11710 H 1122.29 -3.27887 -6.81195 0
M  V30 11711 H 1123.56 -2.27831 -7.45462 0
M  V30 11712 N 1127.79 1.09952 -1.12909 0
M  V30 11713 C 1129.04 1.82286 -0.888797 0
M  V30 11714 C 1129.37 1.85218 0.58379 0
M  V30 11715 O 1128.64 1.31645 1.43177 0
M  V30 11716 C 1128.93 3.28706 -1.47053 0
M  V30 11717 C 1128.78 3.34078 -3.01184 0
M  V30 11718 C 1130.1 4.25233 -1.13424 0
M  V30 11719 H 1127.22 0.661803 -0.324324 0
M  V30 11720 H 1129.86 1.28833 -1.3965 0
M  V30 11721 H 1128.01 3.74356 -1.03874 0
M  V30 11722 H 1129.68 2.96871 -3.5308 0
M  V30 11723 H 1127.93 2.73825 -3.36455 0
M  V30 11724 H 1128.6 4.37202 -3.36984 0
M  V30 11725 H 1131.07 3.87841 -1.50726 0
M  V30 11726 H 1129.95 5.26033 -1.56783 0
M  V30 11727 H 1130.21 4.42075 -0.0471496 0
M  V30 11728 N 1129.27 0.921757 1.27833 0
M  V30 11729 C 1130.2 0.373575 2.26135 0
M  V30 11730 C 1131.21 -0.492414 1.55174 0
M  V30 11731 O 1132.4 -0.305998 1.75858 0
M  V30 11732 C 1129.5 -0.483911 3.35427 0
M  V30 11733 C 1128.68 0.361411 4.35904 0
M  V30 11734 C 1127.73 -0.432461 5.2442 0
M  V30 11735 O 1126.76 0.15777 5.68981 0
M  V30 11736 N 1127.96 -1.73367 5.54007 0
M  V30 11737 H 1130.73 1.21856 2.73809 0
M  V30 11738 H 1128.29 0.788552 1.41398 0
M  V30 11739 H 1130.28 -1.02193 3.91585 0
M  V30 11740 H 1128.85 -1.22963 2.874 0
M  V30 11741 H 1128.07 1.08076 3.79095 0
M  V30 11742 H 1129.36 0.939528 5.0005 0
M  V30 11743 H 1128.76 -2.23561 5.19651 0
M  V30 11744 H 1127.31 -2.21834 6.12889 0
M  V30 11745 N 1130.75 -1.41857 0.686609 0
M  V30 11746 C 1131.71 -2.29187 0.0247022 0
M  V30 11747 C 1132.71 -1.43926 -0.717069 0
M  V30 11748 O 1133.9 -1.65179 -0.5533 0
M  V30 11749 C 1131.03 -3.26644 -0.975537 0
M  V30 11750 H 1132.22 -2.89212 0.793503 0
M  V30 11751 H 1129.78 -1.49694 0.449605 0
M  V30 11752 H 1130.51 -2.7158 -1.77242 0
M  V30 11753 H 1130.3 -3.89545 -0.446892 0
M  V30 11754 H 1131.79 -3.92107 -1.43673 0
M  V30 11755 N 1132.22 -0.430739 -1.51599 0
M  V30 11756 C 1133.13 0.390347 -2.3133 0
M  V30 11757 C 1134.15 1.03376 -1.39962 0
M  V30 11758 O 1135.33 1.03057 -1.73035 0
M  V30 11759 C 1132.39 1.48039 -3.13505 0
M  V30 11760 C 1131.45 0.857792 -4.20643 0
M  V30 11761 C 1130.69 1.89589 -4.9889 0
M  V30 11762 O 1130.91 3.11717 -4.77691 0
M  V30 11763 O 1129.84 1.49009 -5.83164 0
M  V30 11764 H 1133.67 -0.260358 -3.02582 0
M  V30 11765 H 1131.25 -0.193428 -1.48143 0
M  V30 11766 H 1133.14 2.11272 -3.64612 0
M  V30 11767 H 1131.81 2.1153 -2.45024 0
M  V30 11768 H 1130.72 0.187592 -3.73629 0
M  V30 11769 H 1132.05 0.266474 -4.91478 0
M  V30 11770 N 1133.7 1.56767 -0.161869 0
M  V30 11771 C 1134.65 2.17502 0.772102 0
M  V30 11772 C 1135.62 1.11223 1.23364 0
M  V30 11773 O 1136.8 1.39332 1.30351 0
M  V30 11774 C 1133.94 2.81248 1.99984 0
M  V30 11775 C 1133.06 4.01962 1.58274 0
M  V30 11776 C 1132.19 4.53662 2.76341 0
M  V30 11777 C 1131.23 5.66807 2.31076 0
M  V30 11778 N 1130.37 6.13059 3.42203 0
M  V30 11779 H 1135.21 2.96971 0.247382 0
M  V30 11780 H 1132.75 1.46685 0.110382 0
M  V30 11781 H 1134.7 3.16359 2.7198 0
M  V30 11782 H 1133.33 2.04398 2.49842 0
M  V30 11783 H 1132.39 3.72733 0.759874 0
M  V30 11784 H 1133.7 4.83891 1.2104 0
M  V30 11785 H 1132.85 4.90905 3.56507 0
M  V30 11786 H 1131.59 3.7077 3.16829 0
M  V30 11787 H 1130.6 5.29125 1.49354 0
M  V30 11788 H 1131.82 6.51494 1.91657 0
M  V30 11789 H 1129.77 5.33099 3.82285 0
M  V30 11790 H 1129.68 6.89953 3.09033 0
M  V30 11791 H 1130.95 6.54951 4.22682 0
M  V30 11792 N 1135.18 -0.111886 1.57202 0
M  V30 11793 C 1136.59 -0.668261 1.74331 0
M  V30 11794 C 1136.94 -1.79959 0.781609 0
M  V30 11795 O 1136.07 -2.16356 -0.043833 0
M  V30 11796 C 1136.66 -1.219 3.1611 0
M  V30 11797 C 1135.22 -1.7216 3.34721 0
M  V30 11798 C 1134.37 -0.624223 2.70183 0
M  V30 11799 H 1137.32 0.114081 1.58289 0
M  V30 11800 H 1137.34 -2.08858 3.18054 0
M  V30 11801 H 1136.85 -0.395381 3.86081 0
M  V30 11802 H 1134.95 -2.56976 2.69803 0
M  V30 11803 H 1135.07 -1.82615 4.42932 0
M  V30 11804 H 1133.43 -1.05958 2.31614 0
M  V30 11805 H 1134.21 0.188537 3.42782 0
M  V30 11806 N 1136.66 -1.52894 -0.382264 0
M  V30 11807 C 1137.94 -1.58853 -1.14127 0
M  V30 11808 C 1138.32 -0.38582 -2.07544 0
M  V30 11809 O 1137.66 0.625323 -2.19777 0
M  V30 11810 C 1137.87 -2.93068 -1.89504 0
M  V30 11811 C 1139.22 -3.47048 -2.44629 0
M  V30 11812 O 1140.25 -2.94987 -1.99652 0
M  V30 11813 O 1139.1 -4.3802 -3.26804 0
M  V30 11814 H 1136.2 -0.640969 -0.522578 0
M  V30 11815 H 1138.74 -1.65231 -0.386873 0
M  V30 11816 H 1137.52 -3.72047 -1.2123 0
M  V30 11817 H 1137.14 -2.90106 -2.7189 0
M  V30 11818 N 1138.14 0.641106 -1.43971 0
M  V30 11819 C 1139.39 1.39676 -1.45511 0
M  V30 11820 C 1139.7 1.95403 -0.0877084 0
M  V30 11821 O 1140.91 2.71493 0.0193965 0
M  V30 11822 C 1139.36 2.52839 -2.56126 0
M  V30 11823 C 1138.97 2.03668 -3.99028 0
M  V30 11824 C 1140.71 3.30118 -2.66875 0
M  V30 11825 C 1138.62 3.14114 -5.01085 0
M  V30 11826 H 1137.55 0.524854 -0.541336 0
M  V30 11827 H 1140.2 0.69075 -1.70003 0
M  V30 11828 H 1138.58 3.25968 -2.24857 0
M  V30 11829 H 1139.76 1.3747 -4.39817 0
M  V30 11830 H 1138.07 1.39233 -3.92432 0
M  V30 11831 H 1140.67 4.12434 -3.40297 0
M  V30 11832 H 1141.01 3.78946 -1.72353 0
M  V30 11833 H 1141.55 2.64075 -2.97505 0
M  V30 11834 H 1138.28 2.70241 -5.97202 0
M  V30 11835 H 1137.8 3.78985 -4.64898 0
M  V30 11836 H 1139.48 3.79051 -5.24337 0
M  V30 11837 N 1139.62 1.30703 0.880598 0
M  V30 11838 C 1140.55 1.11783 1.98947 0
M  V30 11839 C 1141.53 0.0242461 1.62582 0
M  V30 11840 O 1142.71 0.178641 1.87652 0
M  V30 11841 C 1139.84 0.705762 3.31265 0
M  V30 11842 C 1138.88 1.80084 3.86616 0
M  V30 11843 S 1139.72 3.40416 4.13373 0
M  V30 11844 C 1140.87 3.01122 5.48704 0
M  V30 11845 H 1141.11 2.05658 2.14691 0
M  V30 11846 H 1138.64 1.15067 1.02951 0
M  V30 11847 H 1140.6 0.474754 4.07745 0
M  V30 11848 H 1139.26 -0.213699 3.13372 0
M  V30 11849 H 1138.45 1.4649 4.82241 0
M  V30 11850 H 1138.05 1.98636 3.16891 0
M  V30 11851 H 1140.34 2.49355 6.29943 0
M  V30 11852 H 1141.29 3.95671 5.87239 0
M  V30 11853 H 1141.7 2.38865 5.11472 0
M  V30 11854 N 1141.09 -1.09351 1.1349 0
M  V30 11855 C 1142.02 -2.18037 0.835588 0
M  V30 11856 C 1143 -1.68856 -0.205373 0
M  V30 11857 O 1144.19 -1.94094 -0.0641357 0
M  V30 11858 C 1141.32 -3.45987 0.301661 0
M  V30 11859 C 1140.27 -4.08507 1.27696 0
M  V30 11860 C 1139.6 -5.31292 0.602758 0
M  V30 11861 C 1140.9 -4.50916 2.63575 0
M  V30 11862 H 1142.59 -2.43332 1.74441 0
M  V30 11863 H 1140.14 -1.1695 0.840166 0
M  V30 11864 H 1142.09 -4.21324 0.079928 0
M  V30 11865 H 1140.82 -3.20217 -0.642552 0
M  V30 11866 H 1139.48 -3.3519 1.4847 0
M  V30 11867 H 1139.12 -5.01802 -0.346953 0
M  V30 11868 H 1138.82 -5.74075 1.25345 0
M  V30 11869 H 1140.35 -6.09351 0.390325 0
M  V30 11870 H 1141.76 -5.17474 2.46765 0
M  V30 11871 H 1140.16 -5.04586 3.24827 0
M  V30 11872 H 1141.23 -3.63279 3.2118 0
M  V30 11873 N 1142.57 -0.928524 -1.27343 0
M  V30 11874 C 1143.82 -0.568267 -1.93946 0
M  V30 11875 C 1144.14 0.893501 -1.73325 0
M  V30 11876 O 1143.41 1.63344 -1.08147 0
M  V30 11877 H 1141.99 -0.207173 -0.717696 0
M  V30 11878 H 1144.65 -1.1811 -1.55036 0
M  V30 11879 H 1143.75 -0.775246 -3.02318 0
M  V30 11880 N 1144.05 1.41491 -0.694123 0
M  V30 11881 C 1145.3 2.0155 -0.224809 0
M  V30 11882 C 1145.63 1.54844 1.17205 0
M  V30 11883 O 1144.9 0.75899 1.7908 0
M  V30 11884 C 1145.19 3.59003 -0.280884 0
M  V30 11885 C 1145.04 4.15839 -1.71458 0
M  V30 11886 C 1146.36 4.38624 0.360122 0
M  V30 11887 H 1143.48 0.732293 -0.0831632 0
M  V30 11888 H 1146.12 1.68258 -0.882569 0
M  V30 11889 H 1144.27 3.87496 0.279164 0
M  V30 11890 H 1145.94 3.98227 -2.32837 0
M  V30 11891 H 1144.18 3.70936 -2.2492 0
M  V30 11892 H 1144.86 5.24997 -1.70536 0
M  V30 11893 H 1147.33 4.15936 -0.11683 0
M  V30 11894 H 1146.21 5.48132 0.290337 0
M  V30 11895 H 1146.47 4.1797 1.44062 0
M  V30 11896 N 1145.53 0.438773 1.51369 0
M  V30 11897 C 1146.77 -0.127401 2.02399 0
M  V30 11898 C 1147.11 -1.42235 1.32223 0
M  V30 11899 O 1146.38 -1.89513 0.437607 0
M  V30 11900 C 1146.66 -0.344673 3.58447 0
M  V30 11901 C 1146.52 0.969027 4.39238 0
M  V30 11902 C 1147.84 -1.11381 4.25773 0
M  V30 11903 H 1144.96 -0.0448281 0.735635 0
M  V30 11904 H 1147.6 0.57805 1.80993 0
M  V30 11905 H 1145.75 -0.945582 3.76817 0
M  V30 11906 H 1147.42 1.60403 4.32514 0
M  V30 11907 H 1145.66 1.57329 4.04265 0
M  V30 11908 H 1146.33 0.771029 5.46589 0
M  V30 11909 H 1148.81 -0.604785 4.11681 0
M  V30 11910 H 1147.69 -1.23459 5.34835 0
M  V30 11911 H 1147.95 -2.14225 3.8673 0
M  V30 11912 N 1147.01 -1.56678 0.170181 0
M  V30 11913 C 1148.25 -1.98743 -0.477534 0
M  V30 11914 C 1148.61 -1.0538 -1.60497 0
M  V30 11915 O 1149.81 -1.3658 -2.31515 0
M  V30 11916 C 1148.08 -3.44565 -0.949186 0
M  V30 11917 S 1149.64 -4.08658 -1.59824 0
M  V30 11918 H 1146.46 -0.694202 -0.153639 0
M  V30 11919 H 1149.06 -1.93663 0.267373 0
M  V30 11920 H 1147.76 -4.1023 -0.118205 0
M  V30 11921 H 1147.3 -3.53409 -1.72816 0
M  V30 11922 H 1149.31 -4.03614 -2.88635 0
M  V30 11923 N 1148.48 0.103547 -1.57259 0
M  V30 11924 C 1149.73 0.806979 -1.8529 0
M  V30 11925 C 1150.05 1.79679 -0.757653 0
M  V30 11926 O 1149.32 1.94695 0.216913 0
M  V30 11927 H 1147.9 0.301012 -0.683667 0
M  V30 11928 H 1150.56 0.0871886 -1.94705 0
M  V30 11929 H 1149.66 1.34275 -2.81738 0
M  V30 11930 N 1149.96 1.53094 0.37415 0
M  V30 11931 C 1150.92 1.78264 1.44065 0
M  V30 11932 C 1151.92 0.652892 1.46949 0
M  V30 11933 O 1153.11 0.921046 1.47859 0
M  V30 11934 C 1150.25 1.89693 2.83248 0
M  V30 11935 H 1151.44 2.73505 1.23025 0
M  V30 11936 H 1148.99 1.44041 0.60678 0
M  V30 11937 H 1149.73 0.964884 3.09613 0
M  V30 11938 H 1149.51 2.71855 2.82554 0
M  V30 11939 H 1151 2.10787 3.60498 0
M  V30 11940 N 1151.44 -0.633461 1.44309 0
M  V30 11941 C 1152.37 -1.75676 1.53819 0
M  V30 11942 C 1153.35 -1.65537 0.391365 0
M  V30 11943 O 1154.54 -1.84332 0.611181 0
M  V30 11944 C 1151.67 -3.14197 1.47979 0
M  V30 11945 C 1150.62 -3.39122 2.61113 0
M  V30 11946 C 1149.95 -4.77648 2.40325 0
M  V30 11947 C 1151.25 -3.31914 4.03274 0
M  V30 11948 H 1152.94 -1.67974 2.47841 0
M  V30 11949 H 1150.49 -0.8067 1.19283 0
M  V30 11950 H 1152.44 -3.92553 1.53233 0
M  V30 11951 H 1151.16 -3.22677 0.504718 0
M  V30 11952 H 1149.82 -2.63145 2.55245 0
M  V30 11953 H 1149.47 -4.82829 1.41016 0
M  V30 11954 H 1149.17 -4.95284 3.16177 0
M  V30 11955 H 1150.69 -5.58237 2.47394 0
M  V30 11956 H 1152.11 -4.00178 4.10524 0
M  V30 11957 H 1150.5 -3.61085 4.7931 0
M  V30 11958 H 1151.57 -2.29761 4.2701 0
M  V30 11959 N 1152.92 -1.31168 -0.873655 0
M  V30 11960 C 1153.87 -1.18432 -2.00191 0
M  V30 11961 C 1154.86 -0.0934873 -1.69142 0
M  V30 11962 O 1156.07 -0.255126 -1.78183 0
M  V30 11963 H 1152.44 -0.366594 -0.656592 0
M  V30 11964 H 1154.41 -2.13896 -2.08065 0
M  V30 11965 C 1153.16 -0.904668 -3.35725 0
M  V30 11966 H 1152.48 -1.73617 -3.60135 0
M  V30 11967 H 1153.92 -0.855715 -4.15275 0
M  V30 11968 C 1152.38 0.392554 -3.34605 0
M  V30 11969 O 1152.91 1.41052 -3.76121 0
M  V30 11970 N 1151.12 0.40777 -2.87725 0
M  V30 11971 H 1150.67 -0.42112 -2.54134 0
M  V30 11972 H 1150.62 1.27564 -2.87358 0
M  V30 11973 N 1154.4 1.08748 -1.14068 0
M  V30 11974 C 1155.64 1.81333 -0.908081 0
M  V30 11975 C 1155.98 1.85826 0.564112 0
M  V30 11976 O 1155.25 1.33157 1.41773 0
M  V30 11977 C 1155.53 3.27127 -1.50531 0
M  V30 11978 C 1155.39 3.30865 -3.04711 0
M  V30 11979 C 1156.71 4.24006 -1.17928 0
M  V30 11980 H 1153.82 0.658326 -0.331325 0
M  V30 11981 H 1156.47 1.27345 -1.41008 0
M  V30 11982 H 1154.62 3.73233 -1.07839 0
M  V30 11983 H 1156.29 2.93109 -3.56209 0
M  V30 11984 H 1154.53 2.70241 -3.39341 0
M  V30 11985 H 1155.2 4.33603 -3.41603 0
M  V30 11986 H 1157.68 3.86221 -1.54831 0
M  V30 11987 H 1156.55 5.2434 -1.62353 0
M  V30 11988 H 1156.82 4.42 -0.0940349 0
M  V30 11989 N 1155.87 0.935264 1.26849 0
M  V30 11990 C 1156.84 0.44485 2.24842 0
M  V30 11991 C 1157.84 -0.440781 1.54641 0
M  V30 11992 O 1159.03 -0.240793 1.72528 0
M  V30 11993 C 1156.16 -0.359566 3.38998 0
M  V30 11994 H 1157.35 1.31074 2.6974 0
M  V30 11995 H 1154.91 0.716665 1.38901 0
M  V30 11996 H 1155.64 -1.24396 2.99493 0
M  V30 11997 H 1155.43 0.275529 3.91131 0
M  V30 11998 H 1156.92 -0.692804 4.11813 0
M  V30 11999 N 1157.35 -1.41121 0.701616 0
M  V30 12000 C 1158.63 -1.9492 0.162911 0
M  V30 12001 C 1159.01 -1.64064 -1.32839 0
M  V30 12002 O 1158.36 -0.950848 -2.07777 0
M  V30 12003 C 1158.57 -3.45946 0.460673 0
M  V30 12004 C 1159.92 -4.22789 0.391706 0
M  V30 12005 O 1160.94 -3.53993 0.395931 0
M  V30 12006 O 1159.8 -5.45332 0.357071 0
M  V30 12007 H 1156.89 -0.826793 0.0185103 0
M  V30 12008 H 1159.44 -1.50805 0.778192 0
M  V30 12009 H 1158.21 -3.61711 1.49269 0
M  V30 12010 H 1157.83 -3.97168 -0.185277 0
M  V30 12011 N 1158.83 -0.446794 -1.51134 0
M  V30 12012 C 1159.79 0.348311 -2.26538 0
M  V30 12013 C 1160.79 0.941566 -1.3035 0
M  V30 12014 O 1161.98 0.814537 -1.53984 0
M  V30 12015 C 1159.12 1.49371 -3.06433 0
M  V30 12016 H 1160.31 -0.312648 -2.98266 0
M  V30 12017 H 1157.86 -0.200201 -1.55013 0
M  V30 12018 H 1158.6 2.19045 -2.39144 0
M  V30 12019 H 1158.38 1.07439 -3.77093 0
M  V30 12020 H 1159.87 2.05522 -3.63525 0
M  V30 12021 N 1160.31 1.56586 -0.178487 0
M  V30 12022 C 1161.24 2.14168 0.787856 0
M  V30 12023 C 1162.22 1.07374 1.22105 0
M  V30 12024 O 1163.4 1.35391 1.31154 0
M  V30 12025 C 1160.53 2.68708 2.06189 0
M  V30 12026 C 1159.58 3.8794 1.77215 0
M  V30 12027 S 1160.41 5.27274 0.935002 0
M  V30 12028 C 1161.57 5.85224 2.21954 0
M  V30 12029 H 1161.8 2.958 0.298293 0
M  V30 12030 H 1159.33 1.54357 0.0362853 0
M  V30 12031 H 1161.29 3.00777 2.79363 0
M  V30 12032 H 1159.95 1.87149 2.52258 0
M  V30 12033 H 1159.14 4.24453 2.71764 0
M  V30 12034 H 1158.75 3.56795 1.12132 0
M  V30 12035 H 1161.04 5.98575 3.17355 0
M  V30 12036 H 1161.98 6.82162 1.89898 0
M  V30 12037 H 1162.39 5.13697 2.34042 0
M  V30 12038 N 1161.79 -0.095206 1.57312 0
M  V30 12039 C 1163.03 -0.798719 1.86083 0
M  V30 12040 C 1163.36 -1.78739 0.766991 0
M  V30 12041 O 1162.62 -1.9423 -0.239425 0
M  V30 12042 C 1162.92 -1.56244 3.21438 0
M  V30 12043 C 1162.58 -0.715903 4.4518 0
M  V30 12044 C 1161.24 -0.482537 4.78774 0
M  V30 12045 C 1163.6 -0.127404 5.21044 0
M  V30 12046 C 1160.92 0.349193 5.8566 0
M  V30 12047 C 1163.28 0.691649 6.28808 0
M  V30 12048 C 1161.94 0.935107 6.60918 0
M  V30 12049 H 1161.21 -0.292272 0.680924 0
M  V30 12050 H 1163.86 -0.0602105 1.91405 0
M  V30 12051 H 1162.16 -2.37251 3.118 0
M  V30 12052 H 1163.86 -2.11116 3.40927 0
M  V30 12053 H 1160.45 -0.907902 4.18874 0
M  V30 12054 H 1164.63 -0.29486 4.95423 0
M  V30 12055 H 1159.89 0.546797 6.0895 0
M  V30 12056 H 1164.06 1.15452 6.86763 0
M  V30 12057 H 1161.69 1.58139 7.4357 0
M  V30 12058 N 1163.26 -1.53291 -0.366026 0
M  V30 12059 C 1164.68 -1.43053 -0.707669 0
M  V30 12060 C 1164.88 -0.56925 -1.93292 0
M  V30 12061 O 1163.94 -0.0515214 -2.52447 0
M  V30 12062 C 1165.25 -2.86239 -0.921292 0
M  V30 12063 C 1166.8 -2.95868 -1.02133 0
M  V30 12064 C 1167.27 -4.40114 -1.26743 0
M  V30 12065 N 1168.76 -4.43541 -1.33514 0
M  V30 12066 C 1169.5 -5.52259 -1.54264 0
M  V30 12067 N 1168.99 -6.71024 -1.72335 0
M  V30 12068 N 1170.79 -5.39836 -1.5663 0
M  V30 12069 H 1162.94 -2.07795 0.43988 0
M  V30 12070 H 1165.2 -0.938376 0.134736 0
M  V30 12071 H 1164.91 -3.51578 -0.0928042 0
M  V30 12072 H 1164.78 -3.29862 -1.82951 0
M  V30 12073 H 1167.17 -2.30683 -1.84036 0
M  V30 12074 H 1167.25 -2.5564 -0.0905097 0
M  V30 12075 H 1166.89 -5.05872 -0.453409 0
M  V30 12076 H 1166.82 -4.77914 -2.21146 0
M  V30 12077 H 1169.31 -3.57949 -1.21165 0
M  V30 12078 H 1169.63 -7.49649 -1.8774 0
M  V30 12079 H 1167.97 -6.7401 -1.69514 0
M  V30 12080 H 1171.16 -4.46017 -1.4208 0
M  V30 12081 H 1171.34 -6.24629 -1.72461 0
M  V30 12082 N 1164.74 0.6258 -1.44643 0
M  V30 12083 C 1165.97 1.41233 -1.51198 0
M  V30 12084 C 1166.39 1.88291 -0.138572 0
M  V30 12085 O 1165.74 1.61151 0.856537 0
M  V30 12086 C 1165.79 2.62908 -2.48117 0
M  V30 12087 O 1165.51 2.1781 -3.80119 0
M  V30 12088 C 1167.02 3.55976 -2.6419 0
M  V30 12089 H 1164.24 0.432954 -0.512632 0
M  V30 12090 H 1166.78 0.76486 -1.89658 0
M  V30 12091 H 1164.93 3.23735 -2.12778 0
M  V30 12092 H 1165.35 2.96732 -4.32493 0
M  V30 12093 H 1166.82 4.37943 -3.3602 0
M  V30 12094 H 1167.3 4.05133 -1.696 0
M  V30 12095 H 1167.91 3.01014 -3.00451 0
M  V30 12096 N 1166.22 1.31629 0.866686 0
M  V30 12097 C 1167.46 1.22806 1.63395 0
M  V30 12098 C 1167.82 -0.209785 1.9085 0
M  V30 12099 O 1169.03 -0.421562 2.65474 0
M  V30 12100 C 1167.3 2.05187 2.92631 0
M  V30 12101 S 1168.86 2.13261 3.83491 0
M  V30 12102 H 1165.67 0.437339 0.560585 0
M  V30 12103 H 1168.28 1.66333 1.02731 0
M  V30 12104 H 1166.98 3.08736 2.70389 0
M  V30 12105 H 1166.51 1.62393 3.58318 0
M  V30 12106 H 1168.53 1.27333 4.79584 0
M  V30 12107 N 1167.7 -1.08142 1.14644 0
M  V30 12108 C 1168.63 -2.14476 0.779437 0
M  V30 12109 C 1169.61 -1.60812 -0.240454 0
M  V30 12110 O 1170.79 -1.88059 -0.128881 0
M  V30 12111 C 1167.92 -3.38333 0.157692 0
M  V30 12112 C 1166.97 -4.10754 1.14819 0
M  V30 12113 S 1167.8 -4.63227 2.68666 0
M  V30 12114 C 1168.96 -5.90367 2.07888 0
M  V30 12115 H 1169.19 -2.45276 1.68009 0
M  V30 12116 H 1166.72 -1.20292 0.967942 0
M  V30 12117 H 1168.68 -4.10038 -0.194607 0
M  V30 12118 H 1167.34 -3.05726 -0.720435 0
M  V30 12119 H 1166.53 -4.99644 0.661226 0
M  V30 12120 H 1166.14 -3.44974 1.44462 0
M  V30 12121 H 1168.43 -6.62107 1.43599 0
M  V30 12122 H 1169.37 -6.43764 2.94913 0
M  V30 12123 H 1169.78 -5.43507 1.52514 0
M  V30 12124 N 1169.18 -0.941978 -1.26351 0
M  V30 12125 C 1170.41 -0.606748 -1.97803 0
M  V30 12126 C 1170.82 0.818441 -1.70138 0
M  V30 12127 O 1170.18 1.54583 -0.970076 0
M  V30 12128 C 1170.23 -0.840431 -3.51595 0
M  V30 12129 O 1169.95 -2.20957 -3.78299 0
M  V30 12130 C 1171.45 -0.515855 -4.40288 0
M  V30 12131 H 1168.67 -0.228591 -0.630862 0
M  V30 12132 H 1171.21 -1.2629 -1.60845 0
M  V30 12133 H 1169.37 -0.230875 -3.86711 0
M  V30 12134 H 1169.78 -2.2702 -4.72824 0
M  V30 12135 H 1171.26 -0.72998 -5.47152 0
M  V30 12136 H 1171.73 0.549178 -4.35753 0
M  V30 12137 H 1172.34 -1.10417 -4.10717 0
M  V30 12138 N 1170.66 1.40747 -0.709091 0
M  V30 12139 C 1171.93 1.94831 -0.173246 0
M  V30 12140 C 1172.31 1.64766 1.31967 0
M  V30 12141 O 1171.66 0.961853 2.07269 0
M  V30 12142 C 1171.87 3.45697 -0.479013 0
M  V30 12143 C 1173.22 4.22576 -0.414122 0
M  V30 12144 O 1174.24 3.53778 -0.414699 0
M  V30 12145 O 1173.1 5.45135 -0.385986 0
M  V30 12146 H 1170.2 0.826683 -0.0228947 0
M  V30 12147 H 1172.74 1.50391 -0.786178 0
M  V30 12148 H 1171.51 3.60914 -1.51185 0
M  V30 12149 H 1171.14 3.97261 0.164211 0
M  V30 12150 N 1172.13 0.454803 1.50895 0
M  V30 12151 C 1173.38 -0.10577 2.02224 0
M  V30 12152 C 1173.71 -1.41176 1.33789 0
M  V30 12153 O 1172.96 -1.90522 0.447181 0
M  V30 12154 C 1173.26 -0.354159 3.55641 0
M  V30 12155 C 1172.93 0.868136 4.42464 0
M  V30 12156 C 1171.59 1.2033 4.65912 0
M  V30 12157 C 1173.94 1.68272 4.93289 0
M  V30 12158 C 1171.27 2.3534 5.37431 0
M  V30 12159 C 1173.62 2.82396 5.6607 0
M  V30 12160 C 1172.29 3.16346 5.87777 0
M  V30 12161 H 1171.56 -0.0387041 0.739989 0
M  V30 12162 H 1174.2 0.605564 1.81673 0
M  V30 12163 H 1172.51 -1.14757 3.74617 0
M  V30 12164 H 1174.21 -0.8016 3.92906 0
M  V30 12165 H 1170.8 0.596995 4.24422 0
M  V30 12166 H 1174.98 1.43698 4.75042 0
M  V30 12167 H 1170.24 2.61936 5.52449 0
M  V30 12168 H 1174.41 3.45873 6.04438 0
M  V30 12169 H 1172.04 4.05574 6.42973 0
M  V30 12170 N 1173.61 -1.56489 0.186789 0
M  V30 12171 C 1174.54 -2.21705 -0.732739 0
M  V30 12172 C 1175.52 -1.17751 -1.22755 0
M  V30 12173 O 1176.71 -1.46231 -1.27789 0
M  V30 12174 C 1173.84 -2.86992 -1.95584 0
M  V30 12175 C 1172.79 -3.97118 -1.59628 0
M  V30 12176 C 1172.12 -4.49529 -2.89531 0
M  V30 12177 C 1173.42 -5.15941 -0.812518 0
M  V30 12178 H 1175.11 -2.98802 -0.189094 0
M  V30 12179 H 1172.66 -1.43722 -0.0895099 0
M  V30 12180 H 1174.61 -3.31295 -2.60426 0
M  V30 12181 H 1173.33 -2.07287 -2.52388 0
M  V30 12182 H 1171.99 -3.53494 -0.971475 0
M  V30 12183 H 1171.64 -3.66596 -3.44407 0
M  V30 12184 H 1171.34 -5.23832 -2.66221 0
M  V30 12185 H 1172.87 -4.96528 -3.55376 0
M  V30 12186 H 1174.28 -5.56841 -1.36386 0
M  V30 12187 H 1172.68 -5.96259 -0.677862 0
M  V30 12188 H 1173.75 -4.84535 0.188095 0
M  V30 12189 N 1175.09 0.086862 -1.5736 0
M  V30 12190 C 1176.04 1.11134 -1.99081 0
M  V30 12191 C 1177.02 1.35318 -0.870506 0
M  V30 12192 O 1178.22 1.35871 -1.13437 0
M  V30 12193 C 1175.34 2.42931 -2.42569 0
M  V30 12194 C 1174.43 2.22085 -3.61302 0
M  V30 12195 N 1174.82 1.71128 -4.75971 0
M  V30 12196 C 1173.12 2.52619 -3.67559 0
M  V30 12197 C 1173.82 1.64745 -5.57883 0
M  V30 12198 N 1172.8 2.10257 -5.01291 0
M  V30 12199 H 1176.6 0.710431 -2.85184 0
M  V30 12200 H 1174.11 0.294168 -1.59714 0
M  V30 12201 H 1176.11 3.17069 -2.7069 0
M  V30 12202 H 1174.77 2.83751 -1.57846 0
M  V30 12203 H 1175.78 1.40207 -4.9856 0
M  V30 12204 H 1172.46 2.96908 -2.93516 0
M  V30 12205 H 1173.85 1.26329 -6.59917 0
M  V30 12206 N 1176.57 1.53483 0.357892 0
M  V30 12207 C 1177.79 1.74264 1.12458 0
M  V30 12208 C 1178.22 0.473944 1.82031 0
M  V30 12209 O 1177.58 -0.57253 1.72023 0
M  V30 12210 C 1177.62 2.91356 2.12471 0
M  V30 12211 O 1176.73 2.60502 3.19707 0
M  V30 12212 H 1176.07 0.578499 0.325937 0
M  V30 12213 H 1178.6 2.00395 0.412666 0
M  V30 12214 H 1178.61 3.1774 2.5594 0
M  V30 12215 H 1177.28 3.83378 1.61226 0
M  V30 12216 H 1175.86 2.44961 2.81156 0
M  V30 12217 N 1178.05 -0.61812 1.44973 0
M  V30 12218 C 1178.98 -1.74035 1.55673 0
M  V30 12219 C 1179.96 -1.65112 0.4089 0
M  V30 12220 O 1181.14 -1.83673 0.630698 0
M  V30 12221 C 1178.27 -3.1261 1.51303 0
M  V30 12222 C 1177.23 -3.36334 2.64696 0
M  V30 12223 C 1176.55 -4.75072 2.45378 0
M  V30 12224 C 1177.85 -3.27618 4.06772 0
M  V30 12225 H 1179.55 -1.65336 2.49608 0
M  V30 12226 H 1177.09 -0.794003 1.20132 0
M  V30 12227 H 1179.04 -3.90906 1.57388 0
M  V30 12228 H 1177.77 -3.22123 0.538914 0
M  V30 12229 H 1176.43 -2.60423 2.58022 0
M  V30 12230 H 1176.08 -4.81306 1.46129 0
M  V30 12231 H 1175.78 -4.91903 3.21412 0
M  V30 12232 H 1177.3 -5.55582 2.53301 0
M  V30 12233 H 1178.71 -3.95802 4.14746 0
M  V30 12234 H 1177.11 -3.55981 4.83113 0
M  V30 12235 H 1178.18 -2.25219 4.29423 0
M  V30 12236 N 1179.52 -1.32087 -0.859693 0
M  V30 12237 C 1180.43 -1.22587 -2.00024 0
M  V30 12238 C 1181.45 -0.140477 -1.73432 0
M  V30 12239 O 1182.63 -0.360213 -1.98153 0
M  V30 12240 C 1179.69 -0.944195 -3.33595 0
M  V30 12241 C 1178.75 -2.11752 -3.73443 0
M  V30 12242 C 1177.98 -1.84919 -5.0064 0
M  V30 12243 O 1178.21 -0.789299 -5.64913 0
M  V30 12244 O 1177.14 -2.70885 -5.37499 0
M  V30 12245 H 1180.97 -2.18457 -2.10974 0
M  V30 12246 H 1178.55 -1.11927 -0.989577 0
M  V30 12247 H 1180.43 -0.803389 -4.13671 0
M  V30 12248 H 1179.11 -0.0156083 -3.23696 0
M  V30 12249 H 1178.02 -2.31378 -2.93965 0
M  V30 12250 H 1179.35 -3.02872 -3.87981 0
M  V30 12251 N 1181 1.07532 -1.15215 0
M  V30 12252 C 1182.42 1.32183 -0.894411 0
M  V30 12253 C 1182.62 1.96188 0.459614 0
M  V30 12254 O 1181.67 2.22057 1.20195 0
M  V30 12255 C 1182.99 2.21473 -2.03397 0
M  V30 12256 C 1184.53 2.34927 -2.06829 0
M  V30 12257 C 1185.01 3.27564 -3.20103 0
M  V30 12258 N 1186.5 3.35144 -3.19738 0
M  V30 12259 C 1187.24 4.0688 -4.04025 0
M  V30 12260 N 1186.73 4.81246 -4.98371 0
M  V30 12261 N 1188.52 4.02802 -3.92055 0
M  V30 12262 H 1180.68 0.643732 -2.0241 0
M  V30 12263 H 1182.94 0.346272 -0.882496 0
M  V30 12264 H 1182.64 1.81701 -3.01127 0
M  V30 12265 H 1182.52 3.2199 -1.96475 0
M  V30 12266 H 1184.91 2.73953 -1.09699 0
M  V30 12267 H 1184.99 1.34121 -2.17819 0
M  V30 12268 H 1184.63 2.89258 -4.17483 0
M  V30 12269 H 1184.56 4.2832 -3.06349 0
M  V30 12270 H 1187.05 2.82135 -2.51412 0
M  V30 12271 H 1187.36 5.33472 -5.59131 0
M  V30 12272 H 1185.71 4.80268 -5.02362 0
M  V30 12273 H 1188.9 3.43816 -3.17661 0
M  V30 12274 H 1189.07 4.58443 -4.57967 0
M  V30 12275 N 1182.48 0.948665 1.2585 0
M  V30 12276 C 1183.73 0.59905 1.93018 0
M  V30 12277 C 1184.05 -0.865813 1.74725 0
M  V30 12278 O 1183.32 -1.61602 1.10732 0
M  V30 12279 H 1181.9 0.218565 0.71431 0
M  V30 12280 H 1184.56 1.20561 1.53137 0
M  V30 12281 H 1183.66 0.823244 3.01047 0
M  V30 12282 N 1183.96 -1.40369 0.716545 0
M  V30 12283 C 1184.89 -2.29186 0.0251905 0
M  V30 12284 C 1185.9 -1.45877 -0.722761 0
M  V30 12285 O 1187.09 -1.69155 -0.569982 0
M  V30 12286 C 1184.19 -3.24161 -0.988589 0
M  V30 12287 C 1183.37 -4.36329 -0.30597 0
M  V30 12288 C 1182.42 -5.11736 -1.22527 0
M  V30 12289 O 1181.45 -5.64758 -0.7097 0
M  V30 12290 N 1182.65 -5.21183 -2.55634 0
M  V30 12291 H 1185.42 -2.8916 0.787808 0
M  V30 12292 H 1182.98 -1.51749 0.564253 0
M  V30 12293 H 1184.97 -3.71479 -1.60578 0
M  V30 12294 H 1183.54 -2.65347 -1.65256 0
M  V30 12295 H 1182.76 -3.91125 0.491432 0
M  V30 12296 H 1184.05 -5.08523 0.167827 0
M  V30 12297 H 1183.45 -4.7959 -3.00017 0
M  V30 12298 H 1182 -5.72005 -3.12495 0
M  V30 12299 N 1185.44 -0.462799 -1.50652 0
M  V30 12300 C 1186.68 0.0951853 -2.02576 0
M  V30 12301 C 1187.02 1.40113 -1.34469 0
M  V30 12302 O 1186.29 1.88793 -0.467702 0
M  V30 12303 C 1186.57 0.287603 -3.5895 0
M  V30 12304 C 1186.43 -1.03878 -4.37641 0
M  V30 12305 C 1187.75 1.04593 -4.27491 0
M  V30 12306 H 1184.86 0.0331191 -0.736255 0
M  V30 12307 H 1187.51 -0.606772 -1.80051 0
M  V30 12308 H 1185.66 0.885514 -3.78274 0
M  V30 12309 H 1187.33 -1.67263 -4.29908 0
M  V30 12310 H 1185.57 -1.6374 -4.01711 0
M  V30 12311 H 1186.24 -0.857889 -5.45293 0
M  V30 12312 H 1188.72 0.539213 -4.12591 0
M  V30 12313 H 1187.59 1.14935 -5.36732 0
M  V30 12314 H 1187.86 2.08045 -3.90089 0
M  V30 12315 N 1186.91 1.56388 -0.195085 0
M  V30 12316 C 1187.84 2.22091 0.720971 0
M  V30 12317 C 1188.83 1.184 1.22128 0
M  V30 12318 O 1190.01 1.46907 1.27012 0
M  V30 12319 C 1187.14 2.88025 1.94059 0
M  V30 12320 C 1186.09 3.97959 1.5752 0
M  V30 12321 C 1185.42 4.51058 2.87143 0
M  V30 12322 C 1186.72 5.16365 0.785145 0
M  V30 12323 H 1188.41 2.98898 0.173245 0
M  V30 12324 H 1185.96 1.43767 0.0818868 0
M  V30 12325 H 1187.91 3.32671 2.58666 0
M  V30 12326 H 1186.64 2.08623 2.51285 0
M  V30 12327 H 1185.3 3.54004 0.952715 0
M  V30 12328 H 1184.94 3.68418 3.42458 0
M  V30 12329 H 1184.64 5.25237 2.63439 0
M  V30 12330 H 1186.17 4.98406 3.52738 0
M  V30 12331 H 1187.58 5.57556 1.33431 0
M  V30 12332 H 1185.98 5.9661 0.646231 0
M  V30 12333 H 1187.05 4.84428 -0.213789 0
M  V30 12334 N 1188.39 -0.0785156 1.57404 0
M  V30 12335 C 1189.8 -0.631132 1.75709 0
M  V30 12336 C 1190.15 -1.78261 0.819605 0
M  V30 12337 O 1189.28 -2.164 0.00206912 0
M  V30 12338 C 1189.87 -1.15168 3.18625 0
M  V30 12339 C 1188.43 -1.65021 3.38297 0
M  V30 12340 C 1187.58 -0.566773 2.71446 0
M  V30 12341 H 1190.53 0.147631 1.58012 0
M  V30 12342 H 1190.55 -2.02065 3.22413 0
M  V30 12343 H 1190.06 -0.313399 3.86833 0
M  V30 12344 H 1188.17 -2.51196 2.75194 0
M  V30 12345 H 1188.28 -1.73179 4.46706 0
M  V30 12346 H 1186.64 -1.01021 2.33809 0
M  V30 12347 H 1187.43 0.261204 3.42305 0
M  V30 12348 N 1189.87 -1.5367 -0.349747 0
M  V30 12349 C 1190.83 -1.80533 -1.41211 0
M  V30 12350 C 1191.83 -0.676188 -1.45892 0
M  V30 12351 O 1193.02 -0.944453 -1.46375 0
M  V30 12352 C 1190.16 -1.94175 -2.80195 0
M  V30 12353 H 1191.35 -2.75428 -1.18658 0
M  V30 12354 H 1188.9 -1.44988 -0.583787 0
M  V30 12355 H 1189.64 -1.01402 -3.08039 0
M  V30 12356 H 1189.42 -2.76316 -2.78194 0
M  V30 12357 H 1190.91 -2.16496 -3.57098 0
M  V30 12358 N 1191.35 0.610423 -1.45298 0
M  V30 12359 C 1192.63 1.36966 -1.39641 0
M  V30 12360 C 1193.01 2.10998 -0.0655757 0
M  V30 12361 O 1192.35 2.07705 0.952407 0
M  V30 12362 C 1192.56 2.31885 -2.60826 0
M  V30 12363 C 1193.91 2.9458 -3.05791 0
M  V30 12364 O 1194.94 2.42207 -2.61179 0
M  V30 12365 O 1193.79 3.89639 -3.83202 0
M  V30 12366 H 1190.89 0.61401 -0.554004 0
M  V30 12367 H 1193.43 0.633748 -1.57422 0
M  V30 12368 H 1192.21 1.76421 -3.49272 0
M  V30 12369 H 1191.83 3.12861 -2.45364 0
M  V30 12370 N 1192.83 1.32541 0.852676 0
M  V30 12371 C 1194.05 1.2636 1.64462 0
M  V30 12372 C 1194.48 -0.16508 1.87374 0
M  V30 12373 O 1193.83 -1.11712 1.42794 0
M  V30 12374 C 1193.88 2.03052 2.97997 0
M  V30 12375 O 1192.99 1.37967 3.88637 0
M  V30 12376 H 1192.33 0.435393 0.501327 0
M  V30 12377 H 1194.86 1.74888 1.06186 0
M  V30 12378 H 1194.87 2.133 3.47803 0
M  V30 12379 H 1193.54 3.06941 2.80642 0
M  V30 12380 H 1192.12 1.36279 3.47106 0
M  V30 12381 N 1194.3 -1.0692 1.15784 0
M  V30 12382 C 1195.23 -2.16216 0.881649 0
M  V30 12383 C 1196.22 -1.69253 -0.16951 0
M  V30 12384 O 1197.4 -1.94186 -0.0229511 0
M  V30 12385 C 1194.53 -3.4527 0.374982 0
M  V30 12386 C 1193.48 -4.05706 1.36332 0
M  V30 12387 C 1192.81 -5.29894 0.715317 0
M  V30 12388 C 1194.11 -4.45224 2.7308 0
M  V30 12389 H 1195.8 -2.39577 1.79563 0
M  V30 12390 H 1193.35 -1.15141 0.864784 0
M  V30 12391 H 1195.3 -4.2106 0.169279 0
M  V30 12392 H 1194.03 -3.21508 -0.574485 0
M  V30 12393 H 1192.69 -3.31965 1.55546 0
M  V30 12394 H 1192.33 -5.02425 -0.240436 0
M  V30 12395 H 1192.03 -5.71287 1.37494 0
M  V30 12396 H 1193.56 -6.08386 0.519489 0
M  V30 12397 H 1194.97 -5.12124 2.57686 0
M  V30 12398 H 1193.37 -4.97583 3.35457 0
M  V30 12399 H 1194.44 -3.56384 3.28813 0
M  V30 12400 N 1195.78 -0.955326 -1.25345 0
M  V30 12401 C 1196.71 -0.494145 -2.28211 0
M  V30 12402 C 1197.69 0.459875 -1.63766 0
M  V30 12403 O 1198.88 0.358679 -1.90859 0
M  V30 12404 C 1196.01 0.228228 -3.46549 0
M  V30 12405 C 1194.96 -0.640601 -4.23179 0
M  V30 12406 C 1194.29 0.212553 -5.34277 0
M  V30 12407 C 1195.59 -1.91906 -4.85767 0
M  V30 12408 H 1197.28 -1.35391 -2.67039 0
M  V30 12409 H 1194.83 -0.652462 -1.2837 0
M  V30 12410 H 1196.78 0.561995 -4.17636 0
M  V30 12411 H 1195.51 1.12224 -3.06714 0
M  V30 12412 H 1194.16 -0.957462 -3.53876 0
M  V30 12413 H 1193.81 1.10634 -4.90682 0
M  V30 12414 H 1193.51 -0.365473 -5.86462 0
M  V30 12415 H 1195.04 0.541271 -6.08196 0
M  V30 12416 H 1196.45 -1.65165 -5.48993 0
M  V30 12417 H 1194.85 -2.44279 -5.48131 0
M  V30 12418 H 1195.92 -2.62173 -4.07914 0
M  V30 12419 N 1197.26 1.39987 -0.723979 0
M  V30 12420 C 1198.21 2.32507 -0.0658033 0
M  V30 12421 C 1199.2 1.52484 0.737908 0
M  V30 12422 O 1200.41 1.68225 0.640332 0
M  V30 12423 H 1196.78 0.751996 -0.00247717 0
M  V30 12424 H 1198.76 2.85657 -0.862696 0
M  V30 12425 C 1197.5 3.37509 0.835628 0
M  V30 12426 H 1196.83 3.99157 0.226589 0
M  V30 12427 H 1198.27 4.04722 1.26396 0
M  V30 12428 C 1196.73 2.73665 1.96492 0
M  V30 12429 O 1197.26 2.60649 3.05655 0
M  V30 12430 N 1195.46 2.3192 1.75104 0
M  V30 12431 H 1195.01 2.42707 0.863204 0
M  V30 12432 H 1194.97 1.89542 2.50841 0
M  V30 12433 N 1198.74 0.470782 1.50404 0
M  V30 12434 C 1199.67 -0.313458 2.31386 0
M  V30 12435 C 1200.65 -0.990623 1.38278 0
M  V30 12436 O 1201.84 -0.987854 1.67198 0
M  V30 12437 C 1198.97 -1.39599 3.18009 0
M  V30 12438 C 1197.92 -0.840443 4.19667 0
M  V30 12439 C 1197.25 -2.02124 4.95025 0
M  V30 12440 C 1198.55 0.148055 5.2209 0
M  V30 12441 H 1200.24 0.362432 2.97198 0
M  V30 12442 H 1197.79 0.175745 1.42924 0
M  V30 12443 H 1199.74 -1.9521 3.73458 0
M  V30 12444 H 1198.46 -2.10064 2.50081 0
M  V30 12445 H 1197.12 -0.306302 3.65318 0
M  V30 12446 H 1196.77 -2.71286 4.23571 0
M  V30 12447 H 1196.47 -1.65574 5.6379 0
M  V30 12448 H 1197.99 -2.58226 5.5331 0
M  V30 12449 H 1199.41 -0.318874 5.72413 0
M  V30 12450 H 1197.8 0.427811 5.98573 0
M  V30 12451 H 1198.87 1.07404 4.72855 0
M  V30 12452 N 1200.22 -1.56282 0.203376 0
M  V30 12453 C 1201.46 -1.98105 -0.433844 0
M  V30 12454 C 1201.8 -1.09044 -1.60695 0
M  V30 12455 O 1201.07 -0.144193 -1.93965 0
M  V30 12456 C 1201.35 -3.4903 -0.885992 0
M  V30 12457 C 1201.21 -4.48867 0.289501 0
M  V30 12458 C 1202.53 -4.03871 -1.7486 0
M  V30 12459 H 1199.65 -0.720252 -0.156224 0
M  V30 12460 H 1202.29 -1.87681 0.295963 0
M  V30 12461 H 1200.44 -3.58045 -1.50785 0
M  V30 12462 H 1202.11 -4.51883 0.92734 0
M  V30 12463 H 1200.35 -4.23495 0.939934 0
M  V30 12464 H 1201.02 -5.51956 -0.0695128 0
M  V30 12465 H 1203.5 -3.97688 -1.22407 0
M  V30 12466 H 1202.38 -5.09827 -2.03391 0
M  V30 12467 H 1202.64 -3.49637 -2.70567 0
M  V30 12468 N 1201.7 0.070167 -1.57444 0
M  V30 12469 C 1202.97 0.802108 -1.78397 0
M  V30 12470 C 1203.35 1.95706 -0.791356 0
M  V30 12471 O 1202.7 2.27827 0.17518 0
M  V30 12472 C 1202.91 1.27354 -3.24934 0
M  V30 12473 C 1204.26 1.70626 -3.88808 0
M  V30 12474 O 1205.28 1.36916 -3.28835 0
M  V30 12475 O 1204.14 2.33041 -4.94322 0
M  V30 12476 H 1201.24 0.384483 -0.73219 0
M  V30 12477 H 1203.78 0.0501168 -1.69626 0
M  V30 12478 H 1202.55 0.447204 -3.88736 0
M  V30 12479 H 1202.18 2.0868 -3.38435 0
M  V30 12480 N 1203.17 1.53854 0.341593 0
M  V30 12481 C 1204.42 1.71447 1.08322 0
M  V30 12482 C 1204.75 0.477289 1.88243 0
M  V30 12483 O 1204.03 -0.525695 1.87261 0
M  V30 12484 C 1204.31 2.97917 2.02281 0
M  V30 12485 C 1204.16 4.31847 1.25809 0
M  V30 12486 C 1205.48 3.20065 3.0207 0
M  V30 12487 H 1202.6 0.623847 0.392408 0
M  V30 12488 H 1205.24 1.86527 0.361594 0
M  V30 12489 H 1203.39 2.85191 2.63815 0
M  V30 12490 H 1205.07 4.56427 0.668737 0
M  V30 12491 H 1203.31 4.30169 0.560119 0
M  V30 12492 H 1203.98 5.16522 1.94704 0
M  V30 12493 H 1206.46 3.32135 2.50651 0
M  V30 12494 H 1205.33 4.09947 3.65013 0
M  V30 12495 H 1205.59 2.36452 3.73554 0
M  V30 12496 N 1204.65 -0.602709 1.4562 0
M  V30 12497 C 1205.56 -1.74132 1.5721 0
M  V30 12498 C 1206.58 -1.67909 0.456347 0
M  V30 12499 O 1207.75 -1.88178 0.717714 0
M  V30 12500 C 1204.82 -3.10604 1.54032 0
M  V30 12501 C 1203.88 -3.28244 2.76685 0
M  V30 12502 C 1203.11 -4.58205 2.73649 0
M  V30 12503 O 1203.34 -5.40836 1.81254 0
M  V30 12504 O 1202.27 -4.78663 3.64919 0
M  V30 12505 H 1206.1 -1.67304 2.53462 0
M  V30 12506 H 1203.68 -0.767381 1.28186 0
M  V30 12507 H 1205.56 -3.91904 1.54885 0
M  V30 12508 H 1204.24 -3.17913 0.60934 0
M  V30 12509 H 1203.14 -2.46514 2.81393 0
M  V30 12510 H 1204.48 -3.25814 3.68925 0
M  V30 12511 N 1206.13 -1.32992 -0.845635 0
M  V30 12512 C 1207.06 -1.25301 -1.97033 0
M  V30 12513 C 1208.04 -0.134966 -1.69564 0
M  V30 12514 O 1209.23 -0.323629 -1.91484 0
M  V30 12515 C 1206.36 -0.984551 -3.33052 0
M  V30 12516 C 1205.31 -2.06481 -3.749 0
M  V30 12517 C 1204.64 -1.6486 -5.08651 0
M  V30 12518 C 1205.94 -3.48083 -3.89404 0
M  V30 12519 H 1207.63 -2.194 -2.03725 0
M  V30 12520 H 1205.18 -1.05621 -0.978783 0
M  V30 12521 H 1207.13 -0.917269 -4.11296 0
M  V30 12522 H 1205.85 -0.00793116 -3.26599 0
M  V30 12523 H 1204.51 -2.1224 -2.98915 0
M  V30 12524 H 1204.16 -0.659183 -4.98662 0
M  V30 12525 H 1203.86 -2.37145 -5.37621 0
M  V30 12526 H 1205.38 -1.59585 -5.89377 0
M  V30 12527 H 1206.8 -3.44863 -4.57976 0
M  V30 12528 H 1205.19 -4.18796 -4.29802 0
M  V30 12529 H 1206.26 -3.87084 -2.92051 0
M  V30 12530 N 1207.61 1.06304 -1.1635 0
M  V30 12531 C 1208.86 1.78487 -0.939423 0
M  V30 12532 C 1209.17 1.8817 0.533998 0
M  V30 12533 O 1210.38 2.56981 0.875962 0
M  V30 12534 C 1208.83 3.20796 -1.63149 0
M  V30 12535 C 1208.44 3.19281 -3.14267 0
M  V30 12536 C 1210.18 3.97514 -1.48938 0
M  V30 12537 C 1208.09 4.56309 -3.76213 0
M  V30 12538 H 1207.02 0.668973 -0.347837 0
M  V30 12539 H 1209.67 1.19237 -1.3948 0
M  V30 12540 H 1208.05 3.80305 -1.10382 0
M  V30 12541 H 1209.23 2.69356 -3.73877 0
M  V30 12542 H 1207.54 2.56062 -3.28362 0
M  V30 12543 H 1210.14 4.98808 -1.926 0
M  V30 12544 H 1210.48 4.13986 -0.438319 0
M  V30 12545 H 1211.02 3.44528 -1.98861 0
M  V30 12546 H 1207.75 4.45042 -4.81267 0
M  V30 12547 H 1207.27 5.06429 -3.21388 0
M  V30 12548 H 1208.95 5.25266 -3.77762 0
M  V30 12549 N 1209.09 0.96196 1.24836 0
M  V30 12550 C 1210.32 0.637214 1.96528 0
M  V30 12551 C 1210.72 -0.79638 1.71623 0
M  V30 12552 O 1210.07 -1.54524 0.993372 0
M  V30 12553 C 1210.13 0.824972 3.49906 0
M  V30 12554 C 1209.79 2.23711 3.985 0
M  V30 12555 C 1210.79 3.21439 4.08623 0
M  V30 12556 C 1208.47 2.56327 4.31974 0
M  V30 12557 C 1210.47 4.49872 4.51546 0
M  V30 12558 C 1208.16 3.84987 4.74582 0
M  V30 12559 C 1209.15 4.81572 4.84332 0
M  V30 12560 O 1208.84 6.07938 5.25991 0
M  V30 12561 H 1208.57 0.237214 0.633013 0
M  V30 12562 H 1211.13 1.29081 1.59773 0
M  V30 12563 H 1209.36 0.114219 3.86531 0
M  V30 12564 H 1211.05 0.500179 4.02806 0
M  V30 12565 H 1211.81 2.97569 3.82985 0
M  V30 12566 H 1207.69 1.81872 4.23608 0
M  V30 12567 H 1211.24 5.25261 4.59071 0
M  V30 12568 H 1207.13 4.08661 4.99666 0
M  V30 12569 H 1207.9 6.11421 5.44157 0
M  V30 12570 N 1210.56 -1.39601 0.731392 0
M  V30 12571 C 1211.81 -2.0019 0.277208 0
M  V30 12572 C 1212.13 -1.5832 -1.13841 0
M  V30 12573 O 1211.4 -0.829793 -1.77458 0
M  V30 12574 H 1209.98 -0.740344 0.0995006 0
M  V30 12575 H 1212.64 -1.70704 0.940547 0
M  V30 12576 H 1211.74 -3.10427 0.322749 0
M  V30 12577 N 1212.04 -0.478751 -1.50152 0
M  V30 12578 C 1213.29 0.0734397 -2.01967 0
M  V30 12579 C 1213.61 1.39523 -1.36229 0
M  V30 12580 O 1212.88 1.89141 -0.510149 0
M  V30 12581 H 1211.46 0.0301305 -0.746392 0
M  V30 12582 H 1214.12 -0.630921 -1.84406 0
M  V30 12583 H 1213.22 0.21937 -3.11328 0
M  V30 12584 N 1213.52 1.56172 -0.211661 0
M  V30 12585 C 1214.77 1.98332 0.423332 0
M  V30 12586 C 1215.1 1.09895 1.60115 0
M  V30 12587 O 1214.37 0.154477 1.93886 0
M  V30 12588 C 1214.66 3.49495 0.86747 0
M  V30 12589 C 1214.51 4.48708 -0.313302 0
M  V30 12590 C 1215.83 4.04793 1.72716 0
M  V30 12591 H 1212.95 0.72107 0.152402 0
M  V30 12592 H 1215.59 1.87521 -0.305912 0
M  V30 12593 H 1213.74 3.58839 1.48885 0
M  V30 12594 H 1215.41 4.51385 -0.951291 0
M  V30 12595 H 1213.66 4.2299 -0.96238 0
M  V30 12596 H 1214.33 5.51985 0.0402402 0
M  V30 12597 H 1216.8 3.98332 1.20296 0
M  V30 12598 H 1215.68 5.10898 2.00684 0
M  V30 12599 H 1215.94 3.51067 2.68709 0
M  V30 12600 N 1215 -0.0618163 1.57479 0
M  V30 12601 C 1215.95 -1.0724 2.04373 0
M  V30 12602 C 1216.92 -1.37875 0.926271 0
M  V30 12603 O 1218.1 -1.48772 1.19463 0
M  V30 12604 C 1215.24 -2.37805 2.50085 0
M  V30 12605 C 1214.35 -2.13614 3.7549 0
M  V30 12606 C 1213.49 -3.37814 4.09945 0
M  V30 12607 C 1212.53 -3.09032 5.28361 0
M  V30 12608 N 1211.66 -4.25591 5.58406 0
M  V30 12609 H 1216.5 -0.665536 2.90473 0
M  V30 12610 H 1214.04 -0.317043 1.43643 0
M  V30 12611 H 1216 -3.14048 2.74644 0
M  V30 12612 H 1214.63 -2.76275 1.66948 0
M  V30 12613 H 1213.68 -1.28017 3.58212 0
M  V30 12614 H 1214.99 -1.88361 4.61867 0
M  V30 12615 H 1214.15 -4.22447 4.35458 0
M  V30 12616 H 1212.89 -3.66153 3.22154 0
M  V30 12617 H 1211.89 -2.22797 5.02635 0
M  V30 12618 H 1213.12 -2.82006 6.17778 0
M  V30 12619 H 1211.06 -4.53941 4.73575 0
M  V30 12620 H 1210.98 -4.03646 6.39223 0
M  V30 12621 H 1212.25 -5.11191 5.88476 0
M  V30 12622 N 1216.48 -1.54033 -0.333429 0
M  V30 12623 C 1217.71 -1.75461 -1.09073 0
M  V30 12624 C 1218.11 -0.498488 -1.82515 0
M  V30 12625 O 1217.46 0.540029 -1.75583 0
M  V30 12626 C 1217.52 -2.88744 -2.14166 0
M  V30 12627 C 1217.18 -4.27998 -1.60209 0
M  V30 12628 C 1218.18 -5.09206 -1.04907 0
M  V30 12629 C 1215.87 -4.74513 -1.6475 0
M  V30 12630 C 1217.86 -6.35035 -0.548615 0
M  V30 12631 C 1215.55 -6.00312 -1.14318 0
M  V30 12632 C 1216.54 -6.80406 -0.594667 0
M  V30 12633 O 1216.23 -8.0384 -0.097891 0
M  V30 12634 H 1215.96 -0.589586 -0.330702 0
M  V30 12635 H 1218.52 -2.01697 -0.388274 0
M  V30 12636 H 1216.75 -2.58057 -2.87999 0
M  V30 12637 H 1218.44 -2.98048 -2.7554 0
M  V30 12638 H 1219.2 -4.74428 -1.00713 0
M  V30 12639 H 1215.08 -4.12222 -2.06384 0
M  V30 12640 H 1218.63 -6.97497 -0.119823 0
M  V30 12641 H 1214.52 -6.34583 -1.18215 0
M  V30 12642 H 1215.29 -8.1822 -0.214237 0
M  V30 12643 N 1217.95 0.594978 -1.45938 0
M  V30 12644 C 1219.2 1.34976 -1.49881 0
M  V30 12645 C 1219.52 1.95025 -0.14983 0
M  V30 12646 O 1220.72 2.71417 -0.0669868 0
M  V30 12647 C 1219.18 2.44563 -2.6404 0
M  V30 12648 C 1218.79 1.9087 -4.05306 0
M  V30 12649 C 1220.53 3.21461 -2.77242 0
M  V30 12650 C 1218.44 2.98013 -5.10825 0
M  V30 12651 H 1217.37 0.507366 -0.55776 0
M  V30 12652 H 1220.02 0.636316 -1.72114 0
M  V30 12653 H 1218.4 3.1865 -2.35114 0
M  V30 12654 H 1219.57 1.23408 -4.43968 0
M  V30 12655 H 1217.89 1.26678 -3.96663 0
M  V30 12656 H 1220.49 4.01399 -3.53246 0
M  V30 12657 H 1220.83 3.73271 -1.84321 0
M  V30 12658 H 1221.36 2.54477 -3.05756 0
M  V30 12659 H 1218.1 2.51104 -6.05497 0
M  V30 12660 H 1217.62 3.64003 -4.7672 0
M  V30 12661 H 1219.3 3.62178 -5.36131 0
M  V30 12662 N 1219.43 1.33438 0.838571 0
M  V30 12663 C 1220.36 1.26344 1.96365 0
M  V30 12664 C 1221.34 0.143956 1.6949 0
M  V30 12665 O 1222.53 0.333779 1.9131 0
M  V30 12666 C 1219.66 1.0022 3.32526 0
M  V30 12667 C 1218.61 2.08466 3.73799 0
M  V30 12668 C 1217.94 1.67555 5.07769 0
M  V30 12669 C 1219.24 3.50144 3.87552 0
M  V30 12670 H 1220.93 2.20478 2.02558 0
M  V30 12671 H 1218.48 1.06139 0.973168 0
M  V30 12672 H 1220.43 0.939068 4.10803 0
M  V30 12673 H 1219.16 0.0252514 3.2659 0
M  V30 12674 H 1217.81 2.13822 2.97785 0
M  V30 12675 H 1217.46 0.685619 4.98305 0
M  V30 12676 H 1217.16 2.39993 5.36356 0
M  V30 12677 H 1218.69 1.62708 5.88522 0
M  V30 12678 H 1220.1 3.47287 4.56141 0
M  V30 12679 H 1218.5 4.21069 4.27575 0
M  V30 12680 H 1219.57 3.88628 2.89994 0
M  V30 12681 N 1220.91 -1.05686 1.16912 0
M  V30 12682 C 1221.86 -2.13312 0.88129 0
M  V30 12683 C 1222.83 -1.65199 -0.172783 0
M  V30 12684 O 1224.01 -1.90765 -0.0366542 0
M  V30 12685 C 1221.15 -3.42829 0.395264 0
M  V30 12686 C 1220.27 -4.04643 1.51288 0
M  V30 12687 C 1219.4 -5.22059 0.981238 0
M  V30 12688 C 1218.44 -5.75869 2.07464 0
M  V30 12689 N 1217.58 -6.84592 1.55813 0
M  V30 12690 H 1222.42 -2.37271 1.80295 0
M  V30 12691 H 1219.95 -1.16407 0.899322 0
M  V30 12692 H 1221.91 -4.17092 0.0950633 0
M  V30 12693 H 1220.54 -3.19068 -0.489445 0
M  V30 12694 H 1219.59 -3.27867 1.92891 0
M  V30 12695 H 1220.91 -4.40626 2.33774 0
M  V30 12696 H 1220.06 -6.03372 0.634586 0
M  V30 12697 H 1218.8 -4.87538 0.125754 0
M  V30 12698 H 1217.8 -4.93188 2.42992 0
M  V30 12699 H 1219.03 -6.12439 2.93419 0
M  V30 12700 H 1216.97 -6.51978 0.725283 0
M  V30 12701 H 1216.89 -7.19551 2.31911 0
M  V30 12702 H 1218.16 -7.6957 1.24025 0
M  V30 12703 N 1222.39 -0.968567 -1.24324 0
M  V30 12704 C 1223.63 -0.631863 -1.92705 0
M  V30 12705 C 1223.97 0.83096 -1.75524 0
M  V30 12706 O 1223.24 1.59795 -1.10887 0
M  V30 12707 C 1223.53 -1.00845 -3.45691 0
M  V30 12708 C 1223.38 -2.52803 -3.72036 0
M  V30 12709 C 1224.7 -0.543647 -4.36729 0
M  V30 12710 H 1221.82 -0.231027 -0.699854 0
M  V30 12711 H 1224.46 -1.20773 -1.46676 0
M  V30 12712 H 1222.61 -0.518434 -3.85025 0
M  V30 12713 H 1224.28 -3.09289 -3.42255 0
M  V30 12714 H 1222.52 -2.95963 -3.17157 0
M  V30 12715 H 1223.19 -2.74203 -4.79079 0
M  V30 12716 H 1225.67 -0.964182 -4.04775 0
M  V30 12717 H 1224.55 -0.8357 -5.42501 0
M  V30 12718 H 1224.81 0.556256 -4.38587 0
M  V30 12719 N 1223.87 1.39211 -0.738786 0
M  V30 12720 C 1224.83 2.28937 -0.109746 0
M  V30 12721 C 1225.83 1.46488 0.663157 0
M  V30 12722 O 1227.02 1.67119 0.491614 0
M  V30 12723 C 1224.15 3.30039 0.853633 0
M  V30 12724 H 1225.34 2.86068 -0.900295 0
M  V30 12725 H 1222.9 1.47922 -0.504853 0
M  V30 12726 H 1223.63 2.77971 1.6704 0
M  V30 12727 H 1223.42 3.90935 0.302007 0
M  V30 12728 H 1224.91 3.97169 1.29022 0
M  V30 12729 N 1225.34 0.486708 1.49896 0
M  V30 12730 C 1226.76 0.141788 1.58969 0
M  V30 12731 C 1226.96 -1.35279 1.49338 0
M  V30 12732 O 1226.02 -2.1275 1.35992 0
M  V30 12733 C 1227.33 0.70588 2.92297 0
M  V30 12734 C 1228.88 0.670704 3.0573 0
M  V30 12735 C 1229.35 1.21261 4.41656 0
M  V30 12736 N 1230.84 1.17269 4.4811 0
M  V30 12737 C 1231.58 1.56233 5.51705 0
M  V30 12738 N 1231.07 2.02721 6.62477 0
M  V30 12739 N 1232.87 1.47738 5.42337 0
M  V30 12740 H 1225.02 1.45858 1.544 0
M  V30 12741 H 1227.28 0.604137 0.730563 0
M  V30 12742 H 1226.99 1.7535 3.04869 0
M  V30 12743 H 1226.86 0.158215 3.76868 0
M  V30 12744 H 1229.25 -0.368041 2.92796 0
M  V30 12745 H 1229.33 1.25535 2.22878 0
M  V30 12746 H 1228.97 2.25006 4.5534 0
M  V30 12747 H 1228.9 0.604031 5.23124 0
M  V30 12748 H 1231.39 0.831905 3.6863 0
M  V30 12749 H 1231.71 2.3056 7.37606 0
M  V30 12750 H 1230.05 2.06686 6.63556 0
M  V30 12751 H 1233.24 1.11249 4.54688 0
M  V30 12752 H 1233.42 1.78429 6.2295 0
M  V30 12753 N 1226.82 -1.56058 0.219941 0
M  V30 12754 C 1227.76 -2.17494 -0.723133 0
M  V30 12755 C 1228.77 -1.14356 -1.15873 0
M  V30 12756 O 1229.96 -1.41343 -1.09016 0
M  V30 12757 C 1227.06 -2.74242 -1.99109 0
M  V30 12758 C 1226.23 -4.02533 -1.71132 0
M  V30 12759 C 1225.29 -4.43862 -2.82618 0
M  V30 12760 O 1224.32 -5.10792 -2.51157 0
M  V30 12761 N 1225.52 -4.09412 -4.11537 0
M  V30 12762 H 1228.28 -2.99048 -0.197619 0
M  V30 12763 H 1225.84 -1.61853 0.0388738 0
M  V30 12764 H 1227.84 -2.98862 -2.7288 0
M  V30 12765 H 1226.41 -1.97 -2.42713 0
M  V30 12766 H 1225.63 -3.85786 -0.810128 0
M  V30 12767 H 1226.91 -4.86227 -1.49868 0
M  V30 12768 H 1226.31 -3.55624 -4.39941 0
M  V30 12769 H 1224.87 -4.38928 -4.81857 0
M  V30 12770 N 1228.3 0.053464 -1.57509 0
M  V30 12771 C 1229.53 0.765301 -1.92764 0
M  V30 12772 C 1229.95 1.69385 -0.817943 0
M  V30 12773 O 1229.31 1.7986 0.228075 0
M  V30 12774 C 1229.36 1.51938 -3.27028 0
M  V30 12775 O 1228.46 2.63121 -3.17555 0
M  V30 12776 H 1227.8 0.207567 -0.630723 0
M  V30 12777 H 1230.33 0.0162254 -2.04594 0
M  V30 12778 H 1230.34 1.89466 -3.6134 0
M  V30 12779 H 1229.02 0.838207 -4.07366 0
M  V30 12780 H 1227.59 2.28316 -2.94832 0
M  V30 12781 N 1229.78 1.54207 0.325255 0
M  V30 12782 C 1230.71 1.86467 1.40543 0
M  V30 12783 C 1231.69 0.721324 1.54048 0
M  V30 12784 O 1232.88 0.974905 1.67956 0
M  V30 12785 C 1230.01 2.09052 2.77335 0
M  V30 12786 C 1228.96 3.24893 2.78619 0
M  V30 12787 C 1228.29 3.32846 4.1847 0
M  V30 12788 C 1229.59 4.62582 2.42518 0
M  V30 12789 H 1231.28 2.76932 1.13794 0
M  V30 12790 H 1228.83 1.33248 0.545971 0
M  V30 12791 H 1230.78 2.30204 3.52964 0
M  V30 12792 H 1229.5 1.15335 3.05558 0
M  V30 12793 H 1228.16 3.03625 2.05444 0
M  V30 12794 H 1227.81 2.3669 4.43832 0
M  V30 12795 H 1227.51 4.10701 4.20237 0
M  V30 12796 H 1229.03 3.56231 4.95915 0
M  V30 12797 H 1230.45 4.83627 3.07861 0
M  V30 12798 H 1228.84 5.42974 2.55538 0
M  V30 12799 H 1229.91 4.64946 1.3767 0
M  V30 12800 N 1231.26 -0.58723 1.46251 0
M  V30 12801 C 1232.49 -1.37174 1.5489 0
M  V30 12802 C 1232.9 -1.87857 0.188445 0
M  V30 12803 O 1232.26 -1.63365 -0.813509 0
M  V30 12804 C 1232.31 -2.56237 2.55 0
M  V30 12805 O 1232.03 -2.07655 3.8576 0
M  V30 12806 C 1233.53 -3.48846 2.73535 0
M  V30 12807 H 1230.75 -0.419211 0.523931 0
M  V30 12808 H 1233.29 -0.714307 1.91619 0
M  V30 12809 H 1231.45 -3.1798 2.21287 0
M  V30 12810 H 1231.86 -2.85161 4.40208 0
M  V30 12811 H 1233.34 -4.2888 3.47514 0
M  V30 12812 H 1233.81 -4.00493 1.80282 0
M  V30 12813 H 1234.42 -2.92942 3.08326 0
M  V30 12814 N 1232.74 -1.33881 -0.831482 0
M  V30 12815 C 1233.67 -1.19089 -1.94661 0
M  V30 12816 C 1234.65 -0.0845706 -1.6238 0
M  V30 12817 O 1235.83 -0.248163 -1.86859 0
M  V30 12818 C 1232.96 -0.828223 -3.28418 0
M  V30 12819 C 1232 -1.94309 -3.79666 0
M  V30 12820 S 1232.84 -3.55524 -4.00454 0
M  V30 12821 C 1233.99 -3.21279 -5.3715 0
M  V30 12822 H 1234.23 -2.13484 -2.0691 0
M  V30 12823 H 1231.76 -1.18809 -0.986098 0
M  V30 12824 H 1233.72 -0.625759 -4.05702 0
M  V30 12825 H 1232.38 0.0972457 -3.13949 0
M  V30 12826 H 1231.57 -1.64288 -4.76472 0
M  V30 12827 H 1231.17 -2.1026 -3.093 0
M  V30 12828 H 1233.46 -2.72563 -6.20255 0
M  V30 12829 H 1234.41 -4.17193 -5.7215 0
M  V30 12830 H 1234.82 -2.57683 -5.02255 0
M  V30 12831 N 1234.21 1.05064 -1.1747 0
M  V30 12832 C 1235.46 1.78089 -0.963883 0
M  V30 12833 C 1235.79 1.87766 0.507365 0
M  V30 12834 O 1235.04 1.37477 1.39279 0
M  V30 12835 C 1235.34 3.21961 -1.55164 0
M  V30 12836 C 1235.01 3.32339 -3.04732 0
M  V30 12837 C 1233.67 3.34878 -3.45557 0
M  V30 12838 C 1236.02 3.3325 -4.00741 0
M  V30 12839 C 1233.35 3.35959 -4.80987 0
M  V30 12840 C 1235.7 3.3587 -5.36073 0
M  V30 12841 C 1234.37 3.36697 -5.7636 0
M  V30 12842 H 1233.64 0.651672 -0.35271 0
M  V30 12843 H 1236.28 1.23471 -1.4638 0
M  V30 12844 H 1234.59 3.79514 -0.973471 0
M  V30 12845 H 1236.29 3.77087 -1.36406 0
M  V30 12846 H 1232.88 3.31076 -2.72188 0
M  V30 12847 H 1237.06 3.30488 -3.70258 0
M  V30 12848 H 1232.32 3.34911 -5.11512 0
M  V30 12849 H 1236.49 3.35524 -6.10243 0
M  V30 12850 H 1234.12 3.37288 -6.81279 0
M  V30 12851 N 1235.69 0.975146 1.23809 0
M  V30 12852 C 1236.94 0.642074 1.92367 0
M  V30 12853 C 1237.27 -0.82164 1.75962 0
M  V30 12854 O 1236.55 -1.59205 1.11732 0
M  V30 12855 C 1236.83 1.02677 3.45151 0
M  V30 12856 C 1236.68 2.54773 3.7069 0
M  V30 12857 C 1238 0.5668 4.36435 0
M  V30 12858 H 1235.12 0.234735 0.698619 0
M  V30 12859 H 1237.76 1.21549 1.46034 0
M  V30 12860 H 1235.91 0.538846 3.84745 0
M  V30 12861 H 1237.58 3.11099 3.4061 0
M  V30 12862 H 1235.83 2.97641 3.15583 0
M  V30 12863 H 1236.5 2.7674 4.77618 0
M  V30 12864 H 1238.97 0.985635 4.04258 0
M  V30 12865 H 1237.85 0.864458 5.4205 0
M  V30 12866 H 1238.11 -0.532989 4.38875 0
M  V30 12867 N 1237.17 -1.38817 0.746158 0
M  V30 12868 C 1238.1 -2.33144 0.128836 0
M  V30 12869 C 1239.08 -1.54487 -0.711873 0
M  V30 12870 O 1240.27 -1.82836 -0.654577 0
M  V30 12871 C 1237.4 -3.38639 -0.770772 0
M  V30 12872 C 1236.35 -4.27987 -0.0333669 0
M  V30 12873 C 1235.68 -5.24274 -1.05073 0
M  V30 12874 C 1236.98 -5.09915 1.13066 0
M  V30 12875 H 1238.67 -2.85019 0.916778 0
M  V30 12876 H 1236.22 -1.37039 0.442306 0
M  V30 12877 H 1238.17 -4.03587 -1.21225 0
M  V30 12878 H 1236.89 -2.8523 -1.59095 0
M  V30 12879 H 1235.55 -3.64534 0.388612 0
M  V30 12880 H 1235.2 -4.67156 -1.86478 0
M  V30 12881 H 1234.9 -5.84906 -0.562037 0
M  V30 12882 H 1236.42 -5.92099 -1.49169 0
M  V30 12883 H 1237.84 -5.68145 0.767084 0
M  V30 12884 H 1236.23 -5.79744 1.54972 0
M  V30 12885 H 1237.3 -4.4409 1.94709 0
M  V30 12886 N 1238.65 -0.49465 -1.49636 0
M  V30 12887 C 1239.9 0.0539277 -2.01628 0
M  V30 12888 C 1240.21 1.38634 -1.37986 0
M  V30 12889 O 1241.42 2.02123 -1.81269 0
M  V30 12890 C 1239.87 0.146582 -3.59601 0
M  V30 12891 C 1239.48 -1.1788 -4.32213 0
M  V30 12892 C 1241.22 0.645862 -4.19558 0
M  V30 12893 C 1239.13 -1.04866 -5.82028 0
M  V30 12894 H 1238.06 0.0239278 -0.75362 0
M  V30 12895 H 1240.71 -0.633112 -1.72232 0
M  V30 12896 H 1239.09 0.897931 -3.85685 0
M  V30 12897 H 1240.27 -1.94295 -4.17835 0
M  V30 12898 H 1238.58 -1.61102 -3.83973 0
M  V30 12899 H 1241.18 0.76064 -5.29262 0
M  V30 12900 H 1241.52 1.64313 -3.82501 0
M  V30 12901 H 1242.06 -0.04877 -3.9777 0
M  V30 12902 H 1238.79 -2.02 -6.23599 0
M  V30 12903 H 1238.31 -0.325293 -5.98917 0
M  V30 12904 H 1239.99 -0.724799 -6.42927 0
M  V30 12905 N 1240.13 1.55939 -0.228214 0
M  V30 12906 C 1241.06 2.16566 0.719321 0
M  V30 12907 C 1242.04 1.11204 1.18627 0
M  V30 12908 O 1243.22 1.39495 1.2678 0
M  V30 12909 C 1240.35 2.75132 1.97536 0
M  V30 12910 C 1239.39 3.93381 1.64783 0
M  V30 12911 S 1240.23 5.29982 0.76678 0
M  V30 12912 C 1241.38 5.91989 2.03223 0
M  V30 12913 H 1241.62 2.96599 0.204035 0
M  V30 12914 H 1239.15 1.54395 -0.0128406 0
M  V30 12915 H 1241.11 3.09512 2.69652 0
M  V30 12916 H 1239.77 1.95079 2.46176 0
M  V30 12917 H 1238.96 4.32884 2.58122 0
M  V30 12918 H 1238.56 3.60181 1.00724 0
M  V30 12919 H 1240.85 6.08368 2.98152 0
M  V30 12920 H 1241.8 6.87858 1.68099 0
M  V30 12921 H 1242.21 5.20883 2.1758 0
M  V30 12922 N 1241.6 -0.0451101 1.57535 0
M  V30 12923 C 1242.55 -1.0692 2.06569 0
M  V30 12924 C 1243.55 -1.38443 0.976218 0
M  V30 12925 O 1244.75 -1.37536 1.1612 0
M  V30 12926 H 1241.13 -0.36226 0.658993 0
M  V30 12927 H 1243.1 -0.629709 2.9168 0
M  V30 12928 C 1241.85 -2.36656 2.54733 0
M  V30 12929 H 1241.17 -2.13257 3.38174 0
M  V30 12930 H 1242.61 -3.06696 2.92769 0
M  V30 12931 C 1241.07 -3.04499 1.4416 0
M  V30 12932 O 1241.6 -3.93679 0.798721 0
M  V30 12933 N 1239.81 -2.6556 1.18009 0
M  V30 12934 H 1239.35 -1.93126 1.7047 0
M  V30 12935 H 1239.31 -3.11272 0.442363 0
M  V30 12936 N 1243.08 -1.54377 -0.317073 0
M  V30 12937 C 1244.33 -1.72551 -1.05216 0
M  V30 12938 C 1244.65 -0.5055 -1.88334 0
M  V30 12939 O 1243.92 0.480439 -1.89917 0
M  V30 12940 H 1242.5 -0.636222 -0.391447 0
M  V30 12941 H 1245.16 -1.91696 -0.35194 0
M  V30 12942 H 1244.26 -2.60791 -1.71448 0
M  V30 12943 N 1244.56 0.579466 -1.4656 0
M  V30 12944 C 1245.8 1.34857 -1.536 0
M  V30 12945 C 1246.16 1.91111 -0.184576 0
M  V30 12946 O 1247.37 2.68487 -0.129731 0
M  V30 12947 C 1245.64 2.44535 -2.60648 0
M  V30 12948 S 1247.2 3.31829 -2.87115 0
M  V30 12949 H 1244.01 0.459405 -0.542649 0
M  V30 12950 H 1246.62 0.665798 -1.83813 0
M  V30 12951 H 1245.32 2.01605 -3.57468 0
M  V30 12952 H 1244.85 3.17581 -2.32177 0
M  V30 12953 H 1246.87 4.43452 -2.22632 0
M  V30 12954 N 1246.04 1.3432 0.824371 0
M  V30 12955 C 1246.99 1.22332 1.92403 0
M  V30 12956 C 1247.97 0.122709 1.60431 0
M  V30 12957 O 1249.16 0.352231 1.7346 0
M  V30 12958 C 1246.29 0.979497 3.2903 0
M  V30 12959 C 1245.38 2.12322 3.67124 0
M  V30 12960 N 1245.77 3.3743 3.76795 0
M  V30 12961 C 1244.07 2.03314 3.96963 0
M  V30 12962 C 1244.77 4.12532 4.10113 0
M  V30 12963 N 1243.75 3.41109 4.23256 0
M  V30 12964 H 1247.55 2.17143 1.98056 0
M  V30 12965 H 1245.06 1.26537 1.01795 0
M  V30 12966 H 1247.06 0.874525 4.07624 0
M  V30 12967 H 1245.72 0.0400611 3.24675 0
M  V30 12968 H 1246.73 3.72001 3.60327 0
M  V30 12969 H 1243.41 1.17118 4.00736 0
M  V30 12970 H 1244.8 5.20562 4.24811 0
M  V30 12971 N 1247.52 -1.0444 1.18026 0
M  V30 12972 C 1248.77 -1.7697 0.9677 0
M  V30 12973 C 1249.08 -1.88995 -0.503994 0
M  V30 12974 O 1250.28 -2.58342 -0.834968 0
M  V30 12975 C 1248.74 -3.1816 1.68232 0
M  V30 12976 C 1248.35 -3.14241 3.19307 0
M  V30 12977 C 1250.09 -3.95095 1.55244 0
M  V30 12978 C 1248 -4.50266 3.83425 0
M  V30 12979 H 1246.93 -0.663355 0.358436 0
M  V30 12980 H 1249.58 -1.17003 1.4136 0
M  V30 12981 H 1247.96 -3.78501 1.16418 0
M  V30 12982 H 1249.14 -2.63373 3.78115 0
M  V30 12983 H 1247.45 -2.50805 3.32394 0
M  V30 12984 H 1250.05 -4.95681 2.00511 0
M  V30 12985 H 1250.39 -4.13236 0.504125 0
M  V30 12986 H 1250.92 -3.4132 2.04317 0
M  V30 12987 H 1247.66 -4.37329 4.88286 0
M  V30 12988 H 1247.18 -5.01251 3.29404 0
M  V30 12989 H 1248.86 -5.1919 3.86071 0
M  V30 12990 N 1248.99 -0.981699 -1.2329 0
M  V30 12991 C 1249.9 -0.531296 -2.28505 0
M  V30 12992 C 1250.92 0.414531 -1.6899 0
M  V30 12993 O 1252.1 0.284129 -1.99386 0
M  V30 12994 C 1249.16 0.157864 -3.4634 0
M  V30 12995 C 1248.22 -0.829527 -4.21209 0
M  V30 12996 C 1247.46 -0.17316 -5.33419 0
M  V30 12997 O 1247.68 1.03549 -5.60922 0
M  V30 12998 O 1246.61 -0.872385 -5.95544 0
M  V30 12999 H 1250.44 -1.40633 -2.69177 0
M  V30 13000 H 1248.02 -0.749395 -1.29246 0
M  V30 13001 H 1249.91 0.544394 -4.17869 0
M  V30 13002 H 1248.58 1.00764 -3.07617 0
M  V30 13003 H 1247.49 -1.26678 -3.51999 0
M  V30 13004 H 1248.82 -1.64815 -4.63785 0
M  V30 13005 N 1250.47 1.3842 -0.753509 0
M  V30 13006 C 1251.72 1.99359 -0.306416 0
M  V30 13007 C 1252.03 1.60492 1.11811 0
M  V30 13008 O 1253.24 2.14401 1.66567 0
M  V30 13009 C 1251.7 3.56453 -0.496895 0
M  V30 13010 C 1251.3 4.04272 -1.9305 0
M  V30 13011 C 1253.05 4.24351 -0.11251 0
M  V30 13012 C 1250.96 5.54007 -2.06955 0
M  V30 13013 H 1249.89 0.745812 -0.110818 0
M  V30 13014 H 1252.54 1.58185 -0.930039 0
M  V30 13015 H 1250.92 3.95515 0.195912 0
M  V30 13016 H 1252.09 3.765 -2.65677 0
M  V30 13017 H 1250.41 3.49098 -2.26979 0
M  V30 13018 H 1253 5.34344 -0.195161 0
M  V30 13019 H 1253.35 4.05668 0.934849 0
M  V30 13020 H 1253.88 3.90528 -0.757168 0
M  V30 13021 H 1250.62 5.77594 -3.09944 0
M  V30 13022 H 1250.14 5.83522 -1.38788 0
M  V30 13023 H 1251.82 6.19704 -1.85945 0
M  V30 13024 N 1251.95 0.502579 1.49372 0
M  V30 13025 C 1253.23 -0.104472 1.95321 0
M  V30 13026 C 1253.61 -1.53975 1.44412 0
M  V30 13027 O 1252.96 -2.18804 0.658566 0
M  V30 13028 C 1253.17 -0.0154833 3.48997 0
M  V30 13029 C 1254.51 -0.188615 4.24181 0
M  V30 13030 O 1255.54 -0.090595 3.56085 0
M  V30 13031 O 1254.4 -0.390068 5.45106 0
M  V30 13032 H 1251.49 -0.0944325 0.821591 0
M  V30 13033 H 1254.04 0.565229 1.6001 0
M  V30 13034 H 1252.81 0.985383 3.7869 0
M  V30 13035 H 1252.43 -0.72526 3.90929 0
M  V30 13036 N 1253.43 -1.55816 0.23648 0
M  V30 13037 C 1254.39 -2.1967 -0.654041 0
M  V30 13038 C 1255.39 -1.1629 -1.11056 0
M  V30 13039 O 1256.58 -1.41435 -1.01695 0
M  V30 13040 C 1253.71 -2.83196 -1.89771 0
M  V30 13041 H 1254.91 -2.99743 -0.0970911 0
M  V30 13042 H 1252.46 -1.56295 -0.013098 0
M  V30 13043 H 1253.19 -2.07033 -2.49616 0
M  V30 13044 H 1252.98 -3.58915 -1.57868 0
M  V30 13045 H 1254.47 -3.32095 -2.53184 0
M  V30 13046 N 1254.91 0.036755 -1.57557 0
M  V30 13047 C 1255.86 1.04744 -2.02516 0
M  V30 13048 C 1256.84 1.3248 -0.913116 0
M  V30 13049 O 1258.03 1.32194 -1.17702 0
M  V30 13050 C 1255.16 2.3509 -2.50175 0
M  V30 13051 C 1254.25 2.10478 -3.68185 0
M  V30 13052 N 1254.64 1.55899 -4.81175 0
M  V30 13053 C 1252.94 2.40797 -3.7541 0
M  V30 13054 C 1253.64 1.46913 -5.62842 0
M  V30 13055 N 1252.61 1.94202 -5.07727 0
M  V30 13056 H 1256.42 0.619342 -2.873 0
M  V30 13057 H 1253.93 0.243208 -1.60569 0
M  V30 13058 H 1255.93 3.08297 -2.8064 0
M  V30 13059 H 1254.59 2.78586 -1.66793 0
M  V30 13060 H 1255.6 1.24275 -5.02769 0
M  V30 13061 H 1252.27 2.8742 -3.02813 0
M  V30 13062 H 1253.66 1.0527 -6.63602 0
M  V30 13063 N 1256.39 1.54543 0.308881 0
M  V30 13064 C 1257.8 1.45581 0.654088 0
M  V30 13065 C 1258 0.640597 1.91046 0
M  V30 13066 O 1257.06 0.14518 2.52082 0
M  V30 13067 C 1258.37 2.89461 0.814422 0
M  V30 13068 C 1259.92 2.99455 0.910817 0
M  V30 13069 C 1260.39 4.44515 1.10321 0
M  V30 13070 N 1261.88 4.4819 1.1696 0
M  V30 13071 C 1262.62 5.57604 1.33661 0
M  V30 13072 N 1262.12 6.76957 1.47311 0
M  V30 13073 N 1263.91 5.45278 1.36487 0
M  V30 13074 H 1256.06 2.06019 -0.516699 0
M  V30 13075 H 1258.32 0.932729 -0.169471 0
M  V30 13076 H 1258.03 3.5168 -0.0377455 0
M  V30 13077 H 1257.9 3.36425 1.70582 0
M  V30 13078 H 1260.29 2.37355 1.75348 0
M  V30 13079 H 1260.37 2.558 -0.00443172 0
M  V30 13080 H 1260.01 5.07206 0.265346 0
M  V30 13081 H 1259.94 4.85793 2.03256 0
M  V30 13082 H 1262.44 3.62199 1.07796 0
M  V30 13083 H 1262.75 7.561 1.59788 0
M  V30 13084 H 1261.09 6.79837 1.44382 0
M  V30 13085 H 1264.28 4.50983 1.25429 0
M  V30 13086 H 1264.46 6.30599 1.4916 0
M  V30 13087 N 1257.86 -0.571685 1.46866 0
M  V30 13088 C 1258.79 -1.68994 1.61131 0
M  V30 13089 C 1259.77 -1.63728 0.461222 0
M  V30 13090 O 1260.96 -1.81574 0.688813 0
M  V30 13091 C 1258.09 -3.07638 1.61172 0
M  V30 13092 C 1257.04 -3.27742 2.75262 0
M  V30 13093 C 1256.37 -4.67025 2.60368 0
M  V30 13094 C 1257.67 -3.14511 4.16989 0
M  V30 13095 H 1259.36 -1.57311 2.54742 0
M  V30 13096 H 1256.91 -0.755382 1.22597 0
M  V30 13097 H 1258.86 -3.857 1.69744 0
M  V30 13098 H 1257.59 -3.20245 0.641122 0
M  V30 13099 H 1256.25 -2.52083 2.66176 0
M  V30 13100 H 1255.89 -4.76413 1.61368 0
M  V30 13101 H 1255.59 -4.81428 3.36899 0
M  V30 13102 H 1257.12 -5.47242 2.70848 0
M  V30 13103 H 1258.53 -3.82407 4.27128 0
M  V30 13104 H 1256.93 -3.40431 4.94193 0
M  V30 13105 H 1258 -2.11443 4.36371 0
M  V30 13106 N 1259.34 -1.34755 -0.817236 0
M  V30 13107 C 1260.29 -1.26816 -1.94988 0
M  V30 13108 C 1261.28 -0.165142 -1.68593 0
M  V30 13109 O 1262.49 -0.330469 -1.7694 0
M  V30 13110 H 1258.86 -0.394113 -0.640452 0
M  V30 13111 H 1260.84 -2.22528 -1.98806 0
M  V30 13112 C 1259.58 -1.04625 -3.31586 0
M  V30 13113 H 1258.91 -1.88735 -3.52447 0
M  V30 13114 H 1260.35 -1.03108 -4.11272 0
M  V30 13115 C 1258.81 0.250283 -3.35969 0
M  V30 13116 O 1259.34 1.24972 -3.81765 0
M  V30 13117 N 1257.54 0.285369 -2.89195 0
M  V30 13118 H 1257.09 -0.528528 -2.5212 0
M  V30 13119 H 1257.05 1.15261 -2.9251 0
M  V30 13120 N 1260.82 1.03812 -1.18578 0
M  V30 13121 C 1262.1 1.74062 -0.892288 0
M  V30 13122 C 1262.48 2.02267 0.604256 0
M  V30 13123 O 1261.82 1.66988 1.55972 0
M  V30 13124 C 1262.03 3.024 -1.74228 0
M  V30 13125 C 1263.38 3.76088 -1.97087 0
M  V30 13126 O 1264.41 3.12305 -1.71302 0
M  V30 13127 O 1263.27 4.90732 -2.40509 0
M  V30 13128 H 1260.36 0.757567 -0.331695 0
M  V30 13129 H 1262.91 1.09855 -1.29345 0
M  V30 13130 H 1261.68 2.77713 -2.75665 0
M  V30 13131 H 1261.3 3.74346 -1.3398 0
M  V30 13132 N 1262.3 0.988223 1.22768 0
M  V30 13133 C 1263.55 0.660154 1.91014 0
M  V30 13134 C 1263.87 -0.809788 1.77391 0
M  V30 13135 O 1263.14 -1.57998 1.15817 0
M  V30 13136 H 1261.72 0.24118 0.706995 0
M  V30 13137 H 1264.38 1.25372 1.49224 0
M  V30 13138 H 1263.47 0.918603 2.98275 0
M  V30 13139 N 1263.78 -1.38018 0.760839 0
M  V30 13140 C 1265.02 -1.99557 0.319609 0
M  V30 13141 C 1265.34 -1.60699 -1.10457 0
M  V30 13142 O 1264.61 -0.867248 -1.75658 0
M  V30 13143 H 1263.19 -0.738066 0.115182 0
M  V30 13144 H 1265.86 -1.6867 0.976544 0
M  V30 13145 H 1264.95 -3.09672 0.388523 0
M  V30 13146 N 1265.25 -0.510493 -1.49103 0
M  V30 13147 C 1266.18 0.251999 -2.32136 0
M  V30 13148 C 1267.16 0.953613 -1.40855 0
M  V30 13149 O 1268.35 0.943178 -1.69758 0
M  V30 13150 C 1265.48 1.31118 -3.21598 0
M  V30 13151 C 1264.43 0.72888 -4.21748 0
M  V30 13152 C 1263.76 1.88928 -5.0021 0
M  V30 13153 C 1265.06 -0.286425 -5.21514 0
M  V30 13154 H 1266.75 -0.441102 -2.96133 0
M  V30 13155 H 1264.3 -0.213577 -1.42407 0
M  V30 13156 H 1266.25 1.8524 -3.78503 0
M  V30 13157 H 1264.98 2.0336 -2.55563 0
M  V30 13158 H 1263.64 0.209336 -3.66002 0
M  V30 13159 H 1263.28 2.59961 -4.30615 0
M  V30 13160 H 1262.98 1.50568 -5.67981 0
M  V30 13161 H 1264.51 2.43465 -5.59962 0
M  V30 13162 H 1265.92 0.166997 -5.73057 0
M  V30 13163 H 1264.32 -0.586361 -5.97228 0
M  V30 13164 H 1265.39 -1.19904 -4.69842 0
M  V30 13165 N 1266.73 1.55688 -0.24474 0
M  V30 13166 C 1267.66 2.24272 0.64995 0
M  V30 13167 C 1268.64 1.22226 1.183 0
M  V30 13168 O 1269.83 1.50873 1.22274 0
M  V30 13169 C 1266.96 2.94053 1.84798 0
M  V30 13170 C 1265.91 4.02769 1.44779 0
M  V30 13171 C 1265.24 4.59965 2.72647 0
M  V30 13172 C 1266.54 5.18601 0.62047 0
M  V30 13173 H 1268.23 2.99298 0.0780654 0
M  V30 13174 H 1265.78 1.43955 0.0361069 0
M  V30 13175 H 1267.73 3.40732 2.47951 0
M  V30 13176 H 1266.45 2.16511 2.44521 0
M  V30 13177 H 1265.11 3.56856 0.839609 0
M  V30 13178 H 1264.76 3.79126 3.30564 0
M  V30 13179 H 1264.46 5.33352 2.46596 0
M  V30 13180 H 1265.99 5.09376 3.36703 0
M  V30 13181 H 1267.4 5.61519 1.15625 0
M  V30 13182 H 1265.8 5.98364 0.456097 0
M  V30 13183 H 1266.87 4.83503 -0.367798 0
M  V30 13184 N 1268.21 -0.0283989 1.57574 0
M  V30 13185 C 1269.14 -1.02828 2.09639 0
M  V30 13186 C 1270.12 -1.37668 0.999076 0
M  V30 13187 O 1271.31 -1.4654 1.27435 0
M  V30 13188 C 1268.44 -2.329 2.57633 0
M  V30 13189 C 1267.39 -2.12301 3.71635 0
M  V30 13190 C 1266.72 -3.48138 4.05837 0
M  V30 13191 C 1268.02 -1.50864 5.00037 0
M  V30 13192 H 1269.71 -0.594876 2.93431 0
M  V30 13193 H 1267.26 -0.284701 1.41158 0
M  V30 13194 H 1269.21 -3.03179 2.92678 0
M  V30 13195 H 1267.93 -2.78302 1.70926 0
M  V30 13196 H 1266.59 -1.44454 3.3694 0
M  V30 13197 H 1266.24 -3.9119 3.16195 0
M  V30 13198 H 1265.94 -3.3518 4.82626 0
M  V30 13199 H 1267.46 -4.19779 4.43417 0
M  V30 13200 H 1268.88 -2.11062 5.33035 0
M  V30 13201 H 1267.27 -1.48479 5.81441 0
M  V30 13202 H 1268.34 -0.474541 4.82572 0
M  V30 13203 N 1269.69 -1.54705 -0.300681 0
M  V30 13204 C 1270.91 -1.78318 -1.05913 0
M  V30 13205 C 1271.34 -0.541177 -1.80147 0
M  V30 13206 O 1270.7 0.508291 -1.74029 0
M  V30 13207 C 1270.74 -2.99041 -2.01511 0
M  V30 13208 O 1269.85 -2.72188 -3.09818 0
M  V30 13209 H 1269.19 -0.590197 -0.304242 0
M  V30 13210 H 1271.72 -2.01789 -0.338006 0
M  V30 13211 H 1271.73 -3.2702 -2.43971 0
M  V30 13212 H 1270.4 -3.89098 -1.46886 0
M  V30 13213 H 1268.98 -2.55227 -2.71871 0
M  V30 13214 N 1271.17 0.563888 -1.47167 0
M  V30 13215 C 1272.4 1.34498 -1.56825 0
M  V30 13216 C 1272.8 1.87974 -0.215011 0
M  V30 13217 O 1272.15 1.65323 0.80087 0
M  V30 13218 C 1272.21 2.55602 -2.528 0
M  V30 13219 C 1271.87 2.23459 -3.98642 0
M  V30 13220 C 1272.87 1.81155 -4.87318 0
M  V30 13221 C 1270.56 2.35024 -4.43925 0
M  V30 13222 C 1272.55 1.50835 -6.19296 0
M  V30 13223 C 1270.24 2.04317 -5.75932 0
M  V30 13224 C 1271.23 1.6229 -6.63439 0
M  V30 13225 O 1270.92 1.31969 -7.92994 0
M  V30 13226 H 1270.65 0.416551 -0.532411 0
M  V30 13227 H 1273.21 0.690611 -1.93442 0
M  V30 13228 H 1271.44 3.23907 -2.11237 0
M  V30 13229 H 1273.13 3.17677 -2.52659 0
M  V30 13230 H 1273.89 1.71719 -4.53583 0
M  V30 13231 H 1269.77 2.66696 -3.76024 0
M  V30 13232 H 1273.32 1.17958 -6.87555 0
M  V30 13233 H 1269.21 2.13383 -6.09211 0
M  V30 13234 H 1269.98 1.45656 -8.05436 0
M  V30 13235 N 1272.64 1.35187 0.810078 0
M  V30 13236 C 1273.59 1.27848 1.94313 0
M  V30 13237 C 1274.59 0.174081 1.68503 0
M  V30 13238 O 1275.79 0.339848 1.76763 0
M  V30 13239 H 1272.17 0.397504 0.638353 0
M  V30 13240 H 1274.14 2.23579 1.97623 0
M  V30 13241 C 1272.89 1.06382 3.31026 0
M  V30 13242 H 1272.21 1.90601 3.51441 0
M  V30 13243 H 1273.65 1.05287 4.1072 0
M  V30 13244 C 1272.11 -0.232462 3.36097 0
M  V30 13245 O 1272.64 -1.22946 3.82423 0
M  V30 13246 N 1270.85 -0.270028 2.89343 0
M  V30 13247 H 1270.39 0.541891 2.51836 0
M  V30 13248 H 1270.35 -1.13708 2.93117 0
M  V30 13249 N 1274.12 -1.03182 1.19127 0
M  V30 13250 C 1275.37 -1.76184 0.990134 0
M  V30 13251 C 1275.69 -1.88986 -0.480546 0
M  V30 13252 O 1274.96 -1.4213 -1.34817 0
M  V30 13253 H 1273.54 -0.652668 0.363364 0
M  V30 13254 H 1276.2 -1.24481 1.49968 0
M  V30 13255 H 1275.3 -2.77119 1.43568 0
M  V30 13256 N 1275.6 -0.99472 -1.22242 0
M  V30 13257 C 1276.55 -0.53946 -2.26258 0
M  V30 13258 C 1277.54 0.410796 -1.64344 0
M  V30 13259 O 1278.75 0.283116 -1.7776 0
M  V30 13260 H 1275.12 -0.156069 -0.735627 0
M  V30 13261 H 1277.09 -1.42814 -2.62005 0
M  V30 13262 C 1275.84 0.12842 -3.47463 0
M  V30 13263 H 1275.17 -0.593727 -3.95367 0
M  V30 13264 H 1276.61 0.410393 -4.22009 0
M  V30 13265 C 1275.07 1.36433 -3.08038 0
M  V30 13266 O 1275.6 2.45953 -3.176 0
M  V30 13267 N 1273.8 1.24026 -2.62804 0
M  V30 13268 H 1273.35 0.349111 -2.55223 0
M  V30 13269 H 1273.31 2.06824 -2.36794 0
M  V30 13270 N 1277.08 1.37613 -0.768148 0
M  V30 13271 C 1278.3 2.04579 -0.340892 0
M  V30 13272 C 1278.73 1.57556 1.02751 0
M  V30 13273 O 1278.09 0.734151 1.65771 0
M  V30 13274 C 1278.13 3.58495 -0.389099 0
M  V30 13275 O 1277.24 4.07838 0.611741 0
M  V30 13276 H 1276.58 0.647246 -0.148216 0
M  V30 13277 H 1279.11 1.75999 -1.04333 0
M  V30 13278 H 1279.12 4.07263 -0.245116 0
M  V30 13279 H 1277.79 3.92076 -1.38742 0
M  V30 13280 H 1276.37 3.70399 0.431173 0
M  V30 13281 N 1278.56 0.518393 1.4883 0
M  V30 13282 C 1279.79 -0.0161765 2.06594 0
M  V30 13283 C 1280.19 -1.29771 1.37681 0
M  V30 13284 O 1279.54 -1.77991 0.454421 0
M  V30 13285 C 1279.6 -0.322505 3.5805 0
M  V30 13286 C 1279.26 0.863848 4.48761 0
M  V30 13287 C 1280.26 1.75912 4.89235 0
M  V30 13288 C 1277.95 1.06757 4.90824 0
M  V30 13289 C 1279.94 2.84211 5.70528 0
M  V30 13290 C 1277.63 2.15372 5.7189 0
M  V30 13291 C 1278.62 3.03932 6.11649 0
M  V30 13292 O 1278.31 4.1067 6.9109 0
M  V30 13293 H 1278.04 0.0251212 0.675533 0
M  V30 13294 H 1280.6 0.720052 1.92365 0
M  V30 13295 H 1278.83 -1.11256 3.7035 0
M  V30 13296 H 1280.52 -0.797764 3.97983 0
M  V30 13297 H 1281.28 1.61362 4.5737 0
M  V30 13298 H 1277.16 0.387566 4.59368 0
M  V30 13299 H 1280.71 3.53364 6.01481 0
M  V30 13300 H 1276.6 2.2991 6.03168 0
M  V30 13301 H 1277.37 4.08237 7.09426 0
M  V30 13302 N 1280.03 -1.55556 0.252993 0
M  V30 13303 C 1281.26 -2.03491 -0.374022 0
M  V30 13304 C 1281.68 -1.13208 -1.51094 0
M  V30 13305 O 1281.03 -0.147705 -1.81901 0
M  V30 13306 C 1281.09 -3.50724 -0.876047 0
M  V30 13307 O 1280.81 -4.37569 0.215574 0
M  V30 13308 C 1282.31 -4.14448 -1.57313 0
M  V30 13309 H 1279.53 -0.665183 -0.0881644 0
M  V30 13310 H 1282.07 -2.00964 0.378636 0
M  V30 13311 H 1280.23 -3.53766 -1.57886 0
M  V30 13312 H 1280.64 -5.24235 -0.166625 0
M  V30 13313 H 1282.11 -5.19142 -1.87606 0
M  V30 13314 H 1282.59 -3.61299 -2.49719 0
M  V30 13315 H 1283.2 -4.15346 -0.914735 0
M  V30 13316 N 1281.51 0.0200419 -1.57587 0
M  V30 13317 C 1282.74 0.720556 -1.93947 0
M  V30 13318 C 1283.16 1.68407 -0.853499 0
M  V30 13319 O 1282.51 1.81713 0.169337 0
M  V30 13320 C 1282.56 1.46982 -3.3027 0
M  V30 13321 O 1282.28 0.544971 -4.34697 0
M  V30 13322 C 1283.79 2.26667 -3.80968 0
M  V30 13323 H 1281.01 0.201956 -0.639887 0
M  V30 13324 H 1283.55 -0.0251175 -2.04485 0
M  V30 13325 H 1281.7 2.16729 -3.21103 0
M  V30 13326 H 1282.12 1.07139 -5.13441 0
M  V30 13327 H 1283.59 2.74621 -4.78839 0
M  V30 13328 H 1284.07 3.0848 -3.12629 0
M  V30 13329 H 1284.68 1.61976 -3.93248 0
M  V30 13330 N 1282.99 1.54862 0.292472 0
M  V30 13331 C 1284.22 1.78291 1.04383 0
M  V30 13332 C 1284.63 0.546703 1.81129 0
M  V30 13333 O 1283.97 -0.493286 1.76953 0
M  V30 13334 C 1284.03 2.94321 2.06435 0
M  V30 13335 C 1283.7 4.32095 1.48806 0
M  V30 13336 C 1284.69 5.11808 0.91369 0
M  V30 13337 C 1282.38 4.78714 1.52112 0
M  V30 13338 C 1284.37 6.36266 0.380053 0
M  V30 13339 C 1282.06 6.03132 0.983613 0
M  V30 13340 C 1283.06 6.81744 0.41406 0
M  V30 13341 O 1282.75 8.03817 -0.115268 0
M  V30 13342 H 1282.48 0.598147 0.314954 0
M  V30 13343 H 1285.03 2.02655 0.334661 0
M  V30 13344 H 1283.26 2.65602 2.81056 0
M  V30 13345 H 1284.95 3.05249 2.67541 0
M  V30 13346 H 1285.72 4.76931 0.880988 0
M  V30 13347 H 1281.6 4.17549 1.95382 0
M  V30 13348 H 1285.14 6.9757 -0.0651481 0
M  V30 13349 H 1281.04 6.37494 1.01349 0
M  V30 13350 H 1281.81 8.185 -0.00277496 0
M  V30 13351 N 1284.47 -0.556076 1.47464 0
M  V30 13352 C 1285.4 -1.67872 1.54578 0
M  V30 13353 C 1286.38 -1.57658 0.397853 0
M  V30 13354 O 1287.56 -1.785 0.605811 0
M  V30 13355 C 1284.69 -3.06122 1.44937 0
M  V30 13356 C 1283.74 -3.34778 2.64246 0
M  V30 13357 S 1284.57 -3.23909 4.26431 0
M  V30 13358 C 1285.73 -4.64651 4.19345 0
M  V30 13359 H 1285.96 -1.61583 2.49556 0
M  V30 13360 H 1283.49 -0.736985 1.35676 0
M  V30 13361 H 1285.45 -3.85866 1.40062 0
M  V30 13362 H 1284.11 -3.09876 0.513412 0
M  V30 13363 H 1283.3 -4.35569 2.53567 0
M  V30 13364 H 1282.91 -2.62655 2.66248 0
M  V30 13365 H 1285.2 -5.55625 3.87669 0
M  V30 13366 H 1286.14 -4.80386 5.20225 0
M  V30 13367 H 1286.55 -4.42751 3.50189 0
M  V30 13368 N 1285.95 -1.35615 -0.802897 0
M  V30 13369 C 1286.89 -1.28839 -1.91492 0
M  V30 13370 C 1287.86 -0.159621 -1.65331 0
M  V30 13371 O 1289.05 -0.343931 -1.87675 0
M  V30 13372 C 1286.19 -1.06999 -3.28093 0
M  V30 13373 C 1285.3 -2.28831 -3.66416 0
M  V30 13374 C 1284.44 -2.00111 -4.92066 0
M  V30 13375 C 1283.48 -3.17977 -5.23027 0
M  V30 13376 N 1282.61 -2.89009 -6.39858 0
M  V30 13377 H 1287.45 -2.2393 -1.96619 0
M  V30 13378 H 1284.99 -1.1131 -0.961687 0
M  V30 13379 H 1286.95 -0.923673 -4.06847 0
M  V30 13380 H 1285.58 -0.155684 -3.22424 0
M  V30 13381 H 1284.63 -2.54314 -2.82893 0
M  V30 13382 H 1285.94 -3.1683 -3.85253 0
M  V30 13383 H 1285.1 -1.82331 -5.78654 0
M  V30 13384 H 1283.84 -1.09402 -4.75271 0
M  V30 13385 H 1282.84 -3.3633 -4.34928 0
M  V30 13386 H 1284.07 -4.09493 -5.41749 0
M  V30 13387 H 1282.01 -2.00898 -6.24481 0
M  V30 13388 H 1281.93 -3.70544 -6.58964 0
M  V30 13389 H 1283.2 -2.74779 -7.29463 0
M  V30 13390 N 1287.43 1.02549 -1.19673 0
M  V30 13391 C 1288.34 2.14373 -0.952972 0
M  V30 13392 C 1289.35 1.73776 0.0881727 0
M  V30 13393 O 1290.53 2.01165 -0.0972471 0
M  V30 13394 C 1287.59 3.43096 -0.498569 0
M  V30 13395 C 1286.65 3.97987 -1.60951 0
M  V30 13396 C 1285.89 5.20567 -1.17669 0
M  V30 13397 O 1286.11 5.70385 -0.0416636 0
M  V30 13398 O 1285.04 5.6838 -1.98059 0
M  V30 13399 H 1288.87 2.378 -1.88904 0
M  V30 13400 H 1286.45 1.12781 -0.979836 0
M  V30 13401 H 1288.34 4.20634 -0.253968 0
M  V30 13402 H 1287.01 3.21105 0.409018 0
M  V30 13403 H 1285.92 3.21768 -1.90829 0
M  V30 13404 H 1287.25 4.24349 -2.49377 0
M  V30 13405 N 1288.9 1.00119 1.21713 0
M  V30 13406 C 1289.81 0.567582 2.27631 0
M  V30 13407 C 1290.83 -0.387593 1.69628 0
M  V30 13408 O 1292.01 -0.252372 1.99813 0
M  V30 13409 C 1289.07 -0.102745 3.46548 0
M  V30 13410 C 1288.13 0.896433 4.19836 0
M  V30 13411 C 1287.36 0.258 5.33076 0
M  V30 13412 O 1287.59 -0.946118 5.62499 0
M  V30 13413 O 1286.52 0.967021 5.94081 0
M  V30 13414 H 1290.35 1.44898 2.66905 0
M  V30 13415 H 1287.93 0.769862 1.28037 0
M  V30 13416 H 1289.81 -0.477846 4.18682 0
M  V30 13417 H 1288.49 -0.958576 3.09181 0
M  V30 13418 H 1287.4 1.32262 3.49939 0
M  V30 13419 H 1288.73 1.72173 4.61104 0
M  V30 13420 N 1290.38 -1.37203 0.775435 0
M  V30 13421 C 1291.63 -1.99897 0.341936 0
M  V30 13422 C 1291.96 -1.61414 -1.07978 0
M  V30 13423 O 1291.24 -0.862108 -1.7435 0
M  V30 13424 C 1291.52 -3.56755 0.489715 0
M  V30 13425 C 1291.37 -4.05135 1.95411 0
M  V30 13426 C 1292.69 -4.39978 -0.103779 0
M  V30 13427 H 1289.81 -0.726199 0.125717 0
M  V30 13428 H 1292.45 -1.62826 0.979167 0
M  V30 13429 H 1290.6 -3.88464 -0.0527684 0
M  V30 13430 H 1292.27 -3.83975 2.55658 0
M  V30 13431 H 1290.52 -3.57192 2.46164 0
M  V30 13432 H 1291.19 -5.14161 2.00855 0
M  V30 13433 H 1293.66 -4.14547 0.359134 0
M  V30 13434 H 1292.54 -5.48892 0.0297337 0
M  V30 13435 H 1292.8 -4.25658 -1.19448 0
M  V30 13436 N 1291.86 -0.526279 -1.48553 0
M  V30 13437 C 1293.14 0.073385 -1.95462 0
M  V30 13438 C 1293.52 1.51658 -1.46843 0
M  V30 13439 O 1292.86 2.17729 -0.693293 0
M  V30 13440 C 1293.07 -0.040041 -3.48977 0
M  V30 13441 C 1294.42 0.121108 -4.24427 0
M  V30 13442 O 1295.45 0.0339335 -3.56184 0
M  V30 13443 O 1294.31 0.303297 -5.45658 0
M  V30 13444 H 1291.4 0.0813498 -0.822989 0
M  V30 13445 H 1293.95 -0.590614 -1.59091 0
M  V30 13446 H 1292.72 -1.0455 -3.77074 0
M  V30 13447 H 1292.34 0.662975 -3.92034 0
M  V30 13448 N 1293.34 1.5542 -0.261239 0
M  V30 13449 C 1294.56 2.04142 0.366144 0
M  V30 13450 C 1294.99 1.13884 1.49706 0
M  V30 13451 O 1294.35 0.134629 1.80799 0
M  V30 13452 C 1294.39 3.50733 0.837774 0
M  V30 13453 O 1293.5 3.63588 1.94621 0
M  V30 13454 H 1292.84 0.659424 0.077821 0
M  V30 13455 H 1295.37 2.0082 -0.391487 0
M  V30 13456 H 1295.38 3.91831 1.13721 0
M  V30 13457 H 1294.05 4.15899 0.0102742 0
M  V30 13458 H 1292.63 3.34391 1.65037 0
M  V30 13459 N 1294.82 -0.0116844 1.57596 0
M  V30 13460 C 1296.05 -0.70923 1.94045 0
M  V30 13461 C 1296.45 -1.6848 0.860877 0
M  V30 13462 O 1295.8 -1.82913 -0.169896 0
M  V30 13463 C 1295.86 -1.50653 3.2641 0
M  V30 13464 C 1295.52 -0.693838 4.51702 0
M  V30 13465 C 1296.52 0.0134445 5.19898 0
M  V30 13466 C 1294.2 -0.643252 4.98164 0
M  V30 13467 C 1296.2 0.760426 6.32848 0
M  V30 13468 C 1293.89 0.107462 6.11006 0
M  V30 13469 C 1294.88 0.808045 6.78203 0
M  V30 13470 O 1294.57 1.54654 7.88884 0
M  V30 13471 H 1294.3 -0.203265 0.644716 0
M  V30 13472 H 1296.86 0.0320123 2.05375 0
M  V30 13473 H 1295.09 -2.29199 3.11456 0
M  V30 13474 H 1296.78 -2.08832 3.48058 0
M  V30 13475 H 1297.54 -0.016558 4.84997 0
M  V30 13476 H 1293.42 -1.17807 4.45693 0
M  V30 13477 H 1296.97 1.30779 6.85232 0
M  V30 13478 H 1292.86 0.139327 6.4535 0
M  V30 13479 H 1293.63 1.46202 8.05337 0
M  V30 13480 N 1296.29 -1.55015 -0.284256 0
M  V30 13481 C 1297.71 -1.46603 -0.630845 0
M  V30 13482 C 1297.91 -0.67091 -1.90003 0
M  V30 13483 O 1296.97 -0.185266 -2.51819 0
M  V30 13484 C 1298.28 -2.9072 -0.768268 0
M  V30 13485 C 1299.83 -3.00866 -0.863061 0
M  V30 13486 C 1300.3 -4.46214 -1.03235 0
M  V30 13487 N 1301.79 -4.49994 -1.09815 0
M  V30 13488 C 1302.53 -5.5966 -1.24773 0
M  V30 13489 N 1302.02 -6.79215 -1.36523 0
M  V30 13490 N 1303.82 -5.4738 -1.27795 0
M  V30 13491 H 1295.97 -2.05171 0.549409 0
M  V30 13492 H 1298.23 -0.929915 0.184288 0
M  V30 13493 H 1297.94 -3.51575 0.0936899 0
M  V30 13494 H 1297.81 -3.39096 -1.65209 0
M  V30 13495 H 1300.2 -2.40114 -1.71549 0
M  V30 13496 H 1300.28 -2.5576 0.0451267 0
M  V30 13497 H 1299.92 -5.07564 -0.18462 0
M  V30 13498 H 1299.85 -4.88965 -1.95502 0
M  V30 13499 H 1302.34 -3.63869 -1.0202 0
M  V30 13500 H 1302.66 -7.58547 -1.47739 0
M  V30 13501 H 1301 -6.82048 -1.33548 0
M  V30 13502 H 1304.19 -4.52921 -1.18238 0
M  V30 13503 H 1304.37 -6.32892 -1.39109 0
M  V30 13504 N 1297.77 0.548248 -1.47757 0
M  V30 13505 C 1299.02 1.30139 -1.54099 0
M  V30 13506 C 1299.33 1.9445 -0.2118 0
M  V30 13507 O 1300.54 2.71067 -0.153302 0
M  V30 13508 C 1299 2.36039 -2.71687 0
M  V30 13509 C 1298.6 1.77879 -4.11173 0
M  V30 13510 C 1300.35 3.12478 -2.87329 0
M  V30 13511 C 1298.25 2.81611 -5.20047 0
M  V30 13512 H 1297.18 0.489364 -0.573619 0
M  V30 13513 H 1299.84 0.581237 -1.74051 0
M  V30 13514 H 1298.22 3.11008 -2.45132 0
M  V30 13515 H 1299.39 1.09221 -4.47669 0
M  V30 13516 H 1297.71 1.13994 -4.00493 0
M  V30 13517 H 1300.3 3.89958 -3.65837 0
M  V30 13518 H 1300.65 3.67218 -1.96103 0
M  V30 13519 H 1301.18 2.4462 -3.13697 0
M  V30 13520 H 1297.92 2.31714 -6.13179 0
M  V30 13521 H 1297.44 3.48652 -4.88059 0
M  V30 13522 H 1299.12 3.44938 -5.47382 0
M  V30 13523 N 1299.25 1.36039 0.795694 0
M  V30 13524 C 1300.48 1.33059 1.58439 0
M  V30 13525 C 1300.89 -0.0895496 1.88588 0
M  V30 13526 O 1300.25 -1.04466 1.49643 0
M  V30 13527 C 1300.3 2.14594 2.90915 0
M  V30 13528 O 1300.02 3.51072 2.62069 0
M  V30 13529 C 1301.52 2.19324 3.85242 0
M  V30 13530 H 1298.74 0.456668 0.491625 0
M  V30 13531 H 1301.29 1.79048 0.988035 0
M  V30 13532 H 1299.44 1.72177 3.47036 0
M  V30 13533 H 1299.86 3.93545 3.46732 0
M  V30 13534 H 1301.33 2.80744 4.75276 0
M  V30 13535 H 1301.81 1.19496 4.22631 0
M  V30 13536 H 1302.41 2.6195 3.35056 0
M  V30 13537 N 1300.73 -1.01913 1.20215 0
M  V30 13538 C 1301.98 -1.74878 1.00502 0
M  V30 13539 C 1302.29 -1.90022 -0.463792 0
M  V30 13540 O 1303.5 -2.60055 -0.779982 0
M  V30 13541 C 1301.95 -3.1452 1.74943 0
M  V30 13542 C 1301.56 -3.07397 3.259 0
M  V30 13543 C 1303.3 -3.91713 1.63589 0
M  V30 13544 C 1301.21 -4.42032 3.92889 0
M  V30 13545 H 1300.14 -0.655603 0.372426 0
M  V30 13546 H 1302.79 -1.13978 1.4381 0
M  V30 13547 H 1301.17 -3.75946 1.24421 0
M  V30 13548 H 1302.35 -2.55294 3.83617 0
M  V30 13549 H 1300.66 -2.43698 3.37639 0
M  V30 13550 H 1303.26 -4.91316 2.1098 0
M  V30 13551 H 1303.6 -4.12074 0.591665 0
M  V30 13552 H 1304.14 -3.3691 2.11511 0
M  V30 13553 H 1300.88 -4.26874 4.97453 0
M  V30 13554 H 1300.4 -4.94151 3.39962 0
M  V30 13555 H 1302.07 -5.10884 3.96997 0
M  V30 13556 N 1302.21 -1.00763 -1.2118 0
M  V30 13557 C 1303.45 -0.690459 -1.8994 0
M  V30 13558 C 1303.78 0.781464 -1.78656 0
M  V30 13559 O 1303.05 1.56135 -1.18316 0
M  V30 13560 H 1301.63 -0.252397 -0.703068 0
M  V30 13561 H 1304.29 -1.2773 -1.47211 0
M  V30 13562 H 1303.38 -0.96594 -2.96776 0
M  V30 13563 N 1303.68 1.3679 -0.7827 0
M  V30 13564 C 1304.63 2.32019 -0.164358 0
M  V30 13565 C 1305.63 1.55476 0.672571 0
M  V30 13566 O 1306.83 1.7079 0.568406 0
M  V30 13567 H 1303.21 0.751214 -0.0343697 0
M  V30 13568 H 1305.18 2.81741 -0.983077 0
M  V30 13569 C 1303.93 3.4075 0.691727 0
M  V30 13570 H 1303.25 3.99759 0.0570885 0
M  V30 13571 H 1304.69 4.09719 1.09117 0
M  V30 13572 C 1303.15 2.81753 1.84708 0
M  V30 13573 O 1303.68 2.73378 2.94325 0
M  V30 13574 N 1301.89 2.39138 1.6511 0
M  V30 13575 H 1301.43 2.46149 0.759487 0
M  V30 13576 H 1301.39 2.0001 2.42576 0
M  V30 13577 N 1305.16 0.53415 1.48272 0
M  V30 13578 C 1306.11 -0.226335 2.29688 0
M  V30 13579 C 1307.08 -0.929937 1.37628 0
M  V30 13580 O 1308.26 -0.930149 1.66592 0
M  V30 13581 C 1305.4 -1.26472 3.2109 0
M  V30 13582 C 1304.52 -0.569542 4.28229 0
M  V30 13583 C 1303.65 -1.59122 5.06807 0
M  V30 13584 C 1302.69 -0.879734 6.05745 0
M  V30 13585 N 1301.83 -1.84715 6.77366 0
M  V30 13586 H 1306.67 0.474111 2.94204 0
M  V30 13587 H 1304.21 0.245643 1.45034 0
M  V30 13588 H 1306.16 -1.87911 3.72485 0
M  V30 13589 H 1304.79 -1.9335 2.58487 0
M  V30 13590 H 1303.85 0.158872 3.80068 0
M  V30 13591 H 1305.16 -0.0110904 4.98799 0
M  V30 13592 H 1304.31 -2.27977 5.62238 0
M  V30 13593 H 1303.05 -2.18357 4.36086 0
M  V30 13594 H 1302.06 -0.177134 5.49515 0
M  V30 13595 H 1303.28 -0.293439 6.78466 0
M  V30 13596 H 1301.23 -2.42851 6.09393 0
M  V30 13597 H 1301.14 -1.34025 7.44025 0
M  V30 13598 H 1302.41 -2.52756 7.37384 0
M  V30 13599 N 1306.64 -1.55279 0.269478 0
M  V30 13600 C 1307.87 -2.03876 -0.352418 0
M  V30 13601 C 1308.28 -1.14804 -1.49885 0
M  V30 13602 O 1307.64 -0.166989 -1.81734 0
M  V30 13603 C 1307.69 -3.51634 -0.838799 0
M  V30 13604 O 1307.41 -4.37316 0.261972 0
M  V30 13605 C 1308.91 -4.16094 -1.52909 0
M  V30 13606 H 1306.13 -0.66608 -0.0811043 0
M  V30 13607 H 1308.68 -2.00551 0.399929 0
M  V30 13608 H 1306.83 -3.55421 -1.54125 0
M  V30 13609 H 1307.25 -5.24383 -0.111013 0
M  V30 13610 H 1308.72 -5.21102 -1.82089 0
M  V30 13611 H 1309.2 -3.63928 -2.45872 0
M  V30 13612 H 1309.8 -4.16293 -0.87063 0
M  V30 13613 N 1308.12 0.00332656 -1.576 0
M  V30 13614 C 1309.36 0.69341 -1.92279 0
M  V30 13615 C 1309.72 1.71121 -0.870715 0
M  V30 13616 O 1310.92 2.45143 -1.10265 0
M  V30 13617 C 1309.19 1.32272 -3.32022 0
M  V30 13618 S 1310.75 2.03838 -3.88581 0
M  V30 13619 H 1307.57 0.229123 -0.67307 0
M  V30 13620 H 1310.17 -0.0525621 -1.95429 0
M  V30 13621 H 1308.88 0.569071 -4.06435 0
M  V30 13622 H 1308.41 2.10669 -3.32238 0
M  V30 13623 H 1310.42 3.31311 -3.69388 0
M  V30 13624 N 1309.6 1.55164 0.276031 0
M  V30 13625 C 1310.84 1.75887 1.00953 0
M  V30 13626 C 1311.18 0.5567 1.8605 0
M  V30 13627 O 1310.45 -0.445799 1.89322 0
M  V30 13628 C 1310.73 3.06228 1.89463 0
M  V30 13629 C 1310.59 4.36795 1.07379 0
M  V30 13630 C 1311.91 3.32589 2.88223 0
M  V30 13631 H 1309.02 0.639929 0.365596 0
M  V30 13632 H 1311.67 1.87893 0.282156 0
M  V30 13633 H 1309.82 2.96124 2.51481 0
M  V30 13634 H 1311.49 4.58853 0.474549 0
M  V30 13635 H 1309.73 4.32157 0.377165 0
M  V30 13636 H 1310.4 5.24315 1.72621 0
M  V30 13637 H 1312.88 3.42467 2.36338 0
M  V30 13638 H 1311.75 4.2506 3.47297 0
M  V30 13639 H 1312.02 2.52083 3.6319 0
M  V30 13640 N 1311.07 -0.540404 1.48045 0
M  V30 13641 C 1312.32 -1.29678 1.55531 0
M  V30 13642 C 1312.65 -1.93197 0.224725 0
M  V30 13643 O 1311.9 -1.79308 -0.784028 0
M  V30 13644 C 1312.2 -2.41517 2.63447 0
M  V30 13645 C 1311.87 -1.95719 4.06208 0
M  V30 13646 C 1310.53 -1.82946 4.45067 0
M  V30 13647 C 1312.88 -1.6098 4.95717 0
M  V30 13648 C 1310.21 -1.33753 5.7125 0
M  V30 13649 C 1312.56 -1.13253 6.2238 0
M  V30 13650 C 1311.23 -0.990886 6.60104 0
M  V30 13651 H 1310.5 -0.474525 0.569129 0
M  V30 13652 H 1313.14 -0.604209 1.81718 0
M  V30 13653 H 1311.45 -3.16401 2.3108 0
M  V30 13654 H 1313.15 -2.9967 2.66457 0
M  V30 13655 H 1309.74 -2.06609 3.75514 0
M  V30 13656 H 1313.92 -1.69713 4.66381 0
M  V30 13657 H 1309.18 -1.21465 5.99213 0
M  V30 13658 H 1313.35 -0.854401 6.91139 0
M  V30 13659 H 1310.98 -0.607497 7.57769 0
M  V30 13660 N 1312.55 -1.36459 -0.788468 0
M  V30 13661 C 1313.46 -1.33017 -1.93245 0
M  V30 13662 C 1314.48 -0.232212 -1.72444 0
M  V30 13663 O 1315.65 -0.464743 -1.95965 0
M  V30 13664 C 1312.72 -1.1197 -3.28121 0
M  V30 13665 C 1311.78 -2.3125 -3.61693 0
M  V30 13666 C 1311.01 -2.11197 -4.90134 0
M  V30 13667 O 1311.24 -1.08764 -5.59934 0
M  V30 13668 O 1310.17 -2.98996 -5.22384 0
M  V30 13669 H 1314 -2.29333 -1.99098 0
M  V30 13670 H 1311.58 -1.17016 -0.928856 0
M  V30 13671 H 1313.46 -1.02154 -4.08831 0
M  V30 13672 H 1312.14 -0.187171 -3.23158 0
M  V30 13673 H 1311.05 -2.46635 -2.81286 0
M  V30 13674 H 1312.38 -3.23012 -3.71381 0
M  V30 13675 N 1314.03 1.01274 -1.20754 0
M  V30 13676 C 1314.98 2.09894 -0.959852 0
M  V30 13677 C 1315.95 1.65726 0.111351 0
M  V30 13678 O 1317.13 1.90769 -0.0341721 0
M  V30 13679 C 1314.27 3.41126 -0.52223 0
M  V30 13680 C 1313.39 3.98749 -1.66202 0
M  V30 13681 C 1312.52 5.18057 -1.17432 0
M  V30 13682 C 1311.56 5.67772 -2.28694 0
M  V30 13683 N 1310.7 6.78338 -1.81114 0
M  V30 13684 H 1315.54 2.30416 -1.88977 0
M  V30 13685 H 1313.07 1.12989 -0.941906 0
M  V30 13686 H 1315.03 4.16451 -0.249799 0
M  V30 13687 H 1313.66 3.20665 0.370688 0
M  V30 13688 H 1312.71 3.20483 -2.04927 0
M  V30 13689 H 1314.03 4.31646 -2.49967 0
M  V30 13690 H 1313.18 6.00601 -0.858086 0
M  V30 13691 H 1311.92 4.86735 -0.306614 0
M  V30 13692 H 1310.92 4.8383 -2.61129 0
M  V30 13693 H 1312.15 6.01127 -3.15948 0
M  V30 13694 H 1310.09 6.48837 -0.966761 0
M  V30 13695 H 1310.01 7.10448 -2.58457 0
M  V30 13696 H 1311.28 7.64437 -1.52502 0
M  V30 13697 N 1315.51 1.01404 1.20644 0
M  V30 13698 C 1316.42 0.591693 2.27016 0
M  V30 13699 C 1317.44 -0.36958 1.7003 0
M  V30 13700 O 1318.61 -0.231165 2.00069 0
M  V30 13701 C 1315.68 -0.0659827 3.46637 0
M  V30 13702 C 1314.74 0.940911 4.18862 0
M  V30 13703 C 1313.97 0.314526 5.32772 0
M  V30 13704 O 1314.19 -0.886404 5.63471 0
M  V30 13705 O 1313.13 1.02998 5.93022 0
M  V30 13706 H 1316.95 1.4772 2.65353 0
M  V30 13707 H 1314.54 0.783399 1.27213 0
M  V30 13708 H 1316.42 -0.433412 4.19165 0
M  V30 13709 H 1315.1 -0.925729 3.10181 0
M  V30 13710 H 1314 1.35966 3.48517 0
M  V30 13711 H 1315.34 1.77054 4.59252 0
M  V30 13712 N 1316.99 -1.36373 0.789944 0
M  V30 13713 C 1317.94 -2.31928 0.17666 0
M  V30 13714 C 1318.93 -1.55831 -0.664316 0
M  V30 13715 O 1320.14 -1.71089 -0.559341 0
M  V30 13716 H 1316.51 -0.751021 0.038353 0
M  V30 13717 H 1318.48 -2.81216 0.998004 0
M  V30 13718 C 1317.23 -3.41112 -0.673646 0
M  V30 13719 H 1316.55 -3.99784 -0.0358875 0
M  V30 13720 H 1317.99 -4.10292 -1.06942 0
M  V30 13721 C 1316.45 -2.82728 -1.83211 0
M  V30 13722 O 1316.98 -2.74935 -2.92871 0
M  V30 13723 N 1315.19 -2.4001 -1.6384 0
M  V30 13724 H 1314.74 -2.46549 -0.746423 0
M  V30 13725 H 1314.69 -2.01294 -2.41512 0
M  V30 13726 N 1318.47 -0.542005 -1.47987 0
M  V30 13727 C 1319.74 0.0526494 -1.95529 0
M  V30 13728 C 1320.12 1.50092 -1.48444 0
M  V30 13729 O 1319.47 2.16981 -0.716347 0
M  V30 13730 C 1319.68 -0.0770524 -3.48915 0
M  V30 13731 C 1321.03 0.0760849 -4.24532 0
M  V30 13732 O 1322.05 -0.00384644 -3.562 0
M  V30 13733 O 1320.91 0.245406 -5.45949 0
M  V30 13734 H 1318.01 0.0726163 -0.823806 0
M  V30 13735 H 1320.55 -0.607454 -1.58455 0
M  V30 13736 H 1319.32 -1.08544 -3.75944 0
M  V30 13737 H 1318.95 0.621357 -3.92715 0
M  V30 13738 N 1319.94 1.55134 -0.277709 0
M  V30 13739 C 1321.35 1.85405 0.219543 0
M  V30 13740 C 1321.71 1.19973 1.55245 0
M  V30 13741 O 1320.83 0.488986 2.10803 0
M  V30 13742 C 1321.43 3.36369 0.405127 0
M  V30 13743 C 1319.98 3.66755 0.846609 0
M  V30 13744 C 1319.13 2.77238 -0.0586063 0
M  V30 13745 H 1322.08 1.50637 -0.499422 0
M  V30 13746 H 1322.1 3.59615 1.24329 0
M  V30 13747 H 1321.62 3.83963 -0.565138 0
M  V30 13748 H 1319.72 3.24662 1.82825 0
M  V30 13749 H 1319.83 4.74219 0.682135 0
M  V30 13750 H 1318.19 2.50546 0.458153 0
M  V30 13751 H 1318.98 3.27647 -1.0248 0
M  V30 13752 N 1321.42 0.00503138 1.57599 0
M  V30 13753 C 1322.65 -0.689609 1.95069 0
M  V30 13754 C 1323.06 -1.67028 0.880183 0
M  V30 13755 O 1322.42 -1.81959 -0.140406 0
M  V30 13756 C 1322.47 -1.41709 3.32567 0
M  V30 13757 O 1322.19 -0.475746 4.35509 0
M  V30 13758 C 1323.69 -2.20578 3.84526 0
M  V30 13759 H 1320.91 -0.19175 0.643019 0
M  V30 13760 H 1323.46 0.057646 2.04419 0
M  V30 13761 H 1321.61 -2.11593 3.2451 0
M  V30 13762 H 1322.03 -0.989573 5.1508 0
M  V30 13763 H 1323.5 -2.66969 4.83148 0
M  V30 13764 H 1323.98 -3.03467 3.17497 0
M  V30 13765 H 1324.58 -1.557 3.95775 0
M  V30 13766 N 1322.9 -1.55308 -0.267798 0
M  V30 13767 C 1324.15 -1.7642 -1.00019 0
M  V30 13768 C 1324.48 -0.566559 -1.85752 0
M  V30 13769 O 1323.75 0.435752 -1.89556 0
M  V30 13770 C 1324.04 -3.07229 -1.87836 0
M  V30 13771 C 1323.89 -4.37358 -1.05061 0
M  V30 13772 C 1325.21 -3.34113 -2.86455 0
M  V30 13773 H 1322.33 -0.641859 -0.362197 0
M  V30 13774 H 1324.97 -1.8804 -0.272188 0
M  V30 13775 H 1323.12 -2.97454 -2.49907 0
M  V30 13776 H 1324.79 -4.59098 -0.450208 0
M  V30 13777 H 1323.03 -4.32351 -0.354242 0
M  V30 13778 H 1323.71 -5.25223 -1.69838 0
M  V30 13779 H 1326.18 -3.43715 -2.34519 0
M  V30 13780 H 1325.06 -4.26896 -3.45038 0
M  V30 13781 H 1325.32 -2.54005 -3.61848 0
M  V30 13782 N 1324.38 0.532545 -1.4833 0
M  V30 13783 C 1325.31 1.64662 -1.65555 0
M  V30 13784 C 1326.29 1.62447 -0.50447 0
M  V30 13785 O 1327.47 1.79684 -0.736712 0
M  V30 13786 C 1324.6 3.03256 -1.69272 0
M  V30 13787 C 1323.56 3.20329 -2.83854 0
M  V30 13788 C 1322.88 4.59958 -2.72659 0
M  V30 13789 C 1324.18 3.03345 -4.25181 0
M  V30 13790 H 1325.88 1.50502 -2.58823 0
M  V30 13791 H 1323.42 0.722612 -1.24556 0
M  V30 13792 H 1325.38 3.81064 -1.79911 0
M  V30 13793 H 1324.1 3.18433 -0.725805 0
M  V30 13794 H 1322.76 2.44937 -2.72766 0
M  V30 13795 H 1322.41 4.71967 -1.73942 0
M  V30 13796 H 1322.11 4.72327 -3.49544 0
M  V30 13797 H 1323.63 5.39869 -2.85262 0
M  V30 13798 H 1325.05 3.70948 -4.37116 0
M  V30 13799 H 1323.44 3.27208 -5.03045 0
M  V30 13800 H 1324.51 1.998 -4.41824 0
M  V30 13801 N 1325.86 1.36875 0.78122 0
M  V30 13802 C 1327.27 1.17467 1.08044 0
M  V30 13803 C 1327.47 0.00434799 2.015 0
M  V30 13804 O 1326.53 -0.658499 2.43762 0
M  V30 13805 C 1327.84 2.48917 1.68704 0
M  V30 13806 C 1329.39 2.55354 1.81007 0
M  V30 13807 C 1329.86 3.8691 2.45081 0
M  V30 13808 N 1331.35 3.88301 2.52541 0
M  V30 13809 C 1332.09 4.86837 3.02947 0
M  V30 13810 N 1331.59 5.95768 3.53598 0
M  V30 13811 N 1333.38 4.74249 3.01735 0
M  V30 13812 H 1325.53 2.11793 0.160503 0
M  V30 13813 H 1327.79 0.938507 0.133825 0
M  V30 13814 H 1327.5 3.34867 1.07503 0
M  V30 13815 H 1327.37 2.65319 2.68115 0
M  V30 13816 H 1329.76 1.69816 2.41343 0
M  V30 13817 H 1329.84 2.42843 0.803783 0
M  V30 13818 H 1329.48 4.72858 1.85386 0
M  V30 13819 H 1329.41 3.9672 3.46296 0
M  V30 13820 H 1331.91 3.09607 2.16684 0
M  V30 13821 H 1332.22 6.66918 3.90435 0
M  V30 13822 H 1330.56 5.99426 3.51728 0
M  V30 13823 H 1333.75 3.88275 2.61458 0
M  V30 13824 H 1333.93 5.512 3.40709 0
M  V30 13825 N 1327.33 -1.00632 1.21289 0
M  V30 13826 C 1328.56 -1.78503 1.05601 0
M  V30 13827 C 1328.98 -1.84015 -0.389879 0
M  V30 13828 O 1328.34 -1.28277 -1.2812 0
M  V30 13829 C 1328.39 -3.20313 1.65626 0
M  V30 13830 O 1327.49 -4.02441 0.900841 0
M  V30 13831 H 1326.83 -0.550183 0.371746 0
M  V30 13832 H 1329.36 -1.26505 1.60803 0
M  V30 13833 H 1329.37 -3.70992 1.69792 0
M  V30 13834 H 1328.05 -3.15616 2.7085 0
M  V30 13835 H 1326.63 -3.61009 0.934178 0
M  V30 13836 N 1328.81 -1.02043 -1.20104 0
M  V30 13837 C 1330.22 -0.742954 -1.71281 0
M  V30 13838 C 1330.57 0.738173 -1.81784 0
M  V30 13839 O 1329.7 1.57588 -1.48307 0
M  V30 13840 C 1330.29 -1.342 -3.11088 0
M  V30 13841 C 1328.85 -1.11331 -3.59559 0
M  V30 13842 C 1328 -1.44532 -2.36655 0
M  V30 13843 H 1330.95 -1.18942 -1.05064 0
M  V30 13844 H 1330.97 -0.734558 -3.73342 0
M  V30 13845 H 1330.48 -2.41998 -3.03411 0
M  V30 13846 H 1328.58 -0.05317 -3.72562 0
M  V30 13847 H 1328.7 -1.79606 -4.4416 0
M  V30 13848 H 1327.06 -0.864431 -2.39582 0
M  V30 13849 H 1327.84 -2.53394 -2.31616 0
M  V30 13850 N 1330.29 1.35952 -0.797165 0
M  V30 13851 C 1331.52 2.0381 -0.38421 0
M  V30 13852 C 1331.94 1.597 0.993854 0
M  V30 13853 O 1331.3 0.769148 1.64176 0
M  V30 13854 C 1331.35 3.57589 -0.465054 0
M  V30 13855 O 1330.45 4.09043 0.525095 0
M  V30 13856 H 1329.79 0.643957 -0.161912 0
M  V30 13857 H 1332.32 1.73746 -1.08043 0
M  V30 13858 H 1332.33 4.06651 -0.331448 0
M  V30 13859 H 1331.01 3.89045 -1.47027 0
M  V30 13860 H 1329.58 3.7123 0.352509 0
M  V30 13861 N 1331.77 0.549846 1.47697 0
M  V30 13862 C 1332.73 -0.191427 2.28399 0
M  V30 13863 C 1333.73 -0.849533 1.36527 0
M  V30 13864 O 1334.92 -0.706526 1.59229 0
M  V30 13865 C 1332.05 -1.27907 3.15995 0
M  V30 13866 H 1333.25 0.517375 2.95404 0
M  V30 13867 H 1330.8 0.30651 1.53265 0
M  V30 13868 H 1331.53 -2.0205 2.53665 0
M  V30 13869 H 1331.32 -0.812066 3.83599 0
M  V30 13870 H 1332.81 -1.79992 3.76819 0
M  V30 13871 N 1333.25 -1.54984 0.285932 0
M  V30 13872 C 1334.49 -1.99436 -0.32709 0
M  V30 13873 C 1334.82 -1.17582 -1.55562 0
M  V30 13874 O 1334.09 -0.268002 -1.94058 0
M  V30 13875 H 1332.67 -0.736662 -0.123846 0
M  V30 13876 H 1335.33 -1.90881 0.393774 0
M  V30 13877 H 1334.42 -3.0609 -0.609523 0
M  V30 13878 N 1334.72 -0.0133892 -1.57594 0
M  V30 13879 C 1335.67 0.97367 -2.09257 0
M  V30 13880 C 1336.64 1.33298 -0.990998 0
M  V30 13881 O 1337.83 1.42903 -1.26425 0
M  V30 13882 C 1334.97 2.25603 -2.61147 0
M  V30 13883 C 1334.08 1.95456 -3.85254 0
M  V30 13884 C 1333.21 3.17871 -4.25596 0
M  V30 13885 C 1332.25 2.83471 -5.42504 0
M  V30 13886 N 1331.39 3.98464 -5.78075 0
M  V30 13887 H 1336.23 0.526189 -2.93318 0
M  V30 13888 H 1333.77 0.248148 -1.44992 0
M  V30 13889 H 1335.73 3.00587 -2.89315 0
M  V30 13890 H 1334.36 2.67995 -1.7994 0
M  V30 13891 H 1333.41 1.10781 -3.63912 0
M  V30 13892 H 1334.72 1.6611 -4.70328 0
M  V30 13893 H 1333.87 4.0119 -4.55117 0
M  V30 13894 H 1332.61 3.50365 -3.39257 0
M  V30 13895 H 1331.62 1.98562 -5.12692 0
M  V30 13896 H 1332.84 2.5221 -6.30529 0
M  V30 13897 H 1330.79 4.3083 -4.94694 0
M  V30 13898 H 1330.71 3.72688 -6.57753 0
M  V30 13899 H 1331.97 4.82532 -6.12195 0
M  V30 13900 N 1336.2 1.55448 0.259558 0
M  V30 13901 C 1337.13 1.9226 1.32508 0
M  V30 13902 C 1338.11 0.786012 1.5085 0
M  V30 13903 O 1339.3 1.04526 1.6367 0
M  V30 13904 C 1336.43 2.20627 2.68218 0
M  V30 13905 C 1335.38 3.36418 2.64589 0
M  V30 13906 C 1334.71 3.50295 4.03977 0
M  V30 13907 C 1336.01 4.72452 2.2268 0
M  V30 13908 H 1337.7 2.81509 1.01945 0
M  V30 13909 H 1335.25 1.35444 0.488965 0
M  V30 13910 H 1337.2 2.44968 3.42883 0
M  V30 13911 H 1335.93 1.28191 3.00391 0
M  V30 13912 H 1334.58 3.12065 1.92382 0
M  V30 13913 H 1334.23 2.55302 4.33394 0
M  V30 13914 H 1333.93 4.28155 4.02439 0
M  V30 13915 H 1335.46 3.76944 4.8036 0
M  V30 13916 H 1336.87 4.96249 2.87071 0
M  V30 13917 H 1335.27 5.53323 2.32279 0
M  V30 13918 H 1336.34 4.70367 1.17826 0
M  V30 13919 N 1337.68 -0.524672 1.4861 0
M  V30 13920 C 1338.91 -1.30482 1.60568 0
M  V30 13921 C 1339.32 -1.86889 0.267952 0
M  V30 13922 O 1338.68 -1.66669 -0.743488 0
M  V30 13923 C 1338.73 -2.45191 2.65638 0
M  V30 13924 O 1338.45 -1.91107 3.9422 0
M  V30 13925 C 1339.95 -3.36931 2.88084 0
M  V30 13926 H 1337.17 -0.396612 0.541239 0
M  V30 13927 H 1339.72 -0.632392 1.94476 0
M  V30 13928 H 1337.87 -3.08308 2.34574 0
M  V30 13929 H 1338.29 -2.66234 4.51907 0
M  V30 13930 H 1339.76 -4.13755 3.65391 0
M  V30 13931 H 1340.24 -3.92487 1.97106 0
M  V30 13932 H 1340.84 -2.79601 3.20473 0
M  V30 13933 N 1339.16 -1.37287 -0.77395 0
M  V30 13934 C 1340.09 -1.28746 -1.89624 0
M  V30 13935 C 1341.1 -0.203715 -1.6152 0
M  V30 13936 O 1342.29 -0.459684 -1.72479 0
M  V30 13937 C 1339.39 -0.967342 -3.24801 0
M  V30 13938 C 1338.57 -2.1561 -3.80567 0
M  V30 13939 C 1337.62 -1.80661 -4.94215 0
M  V30 13940 O 1336.65 -2.5293 -5.09917 0
M  V30 13941 N 1337.85 -0.749424 -5.75642 0
M  V30 13942 H 1340.62 -2.25447 -1.97468 0
M  V30 13943 H 1338.18 -1.30883 -0.952956 0
M  V30 13944 H 1340.17 -0.714421 -3.98344 0
M  V30 13945 H 1338.74 -0.0889573 -3.12473 0
M  V30 13946 H 1337.96 -2.57091 -2.98828 0
M  V30 13947 H 1339.25 -2.94993 -4.14556 0
M  V30 13948 H 1338.65 -0.149673 -5.65502 0
M  V30 13949 H 1337.2 -0.556358 -6.49421 0
M  V30 13950 N 1340.64 0.999871 -1.21821 0
M  V30 13951 C 1341.87 1.77148 -1.06312 0
M  V30 13952 C 1342.27 1.85142 0.389747 0
M  V30 13953 O 1341.62 1.31562 1.28207 0
M  V30 13954 C 1341.68 3.22367 -1.59122 0
M  V30 13955 C 1341.34 3.37937 -3.07649 0
M  V30 13956 C 1342.34 3.25808 -4.05148 0
M  V30 13957 C 1340.03 3.63213 -3.46961 0
M  V30 13958 C 1342.02 3.38729 -5.39946 0
M  V30 13959 C 1339.71 3.75775 -4.81909 0
M  V30 13960 C 1340.7 3.6354 -5.78211 0
M  V30 13961 O 1340.39 3.75694 -7.1071 0
M  V30 13962 H 1340.12 0.563396 -0.373578 0
M  V30 13963 H 1342.68 1.26627 -1.61724 0
M  V30 13964 H 1340.91 3.74047 -0.98111 0
M  V30 13965 H 1342.6 3.81219 -1.39379 0
M  V30 13966 H 1343.36 3.062 -3.76121 0
M  V30 13967 H 1339.24 3.71816 -2.72533 0
M  V30 13968 H 1342.79 3.29096 -6.15095 0
M  V30 13969 H 1338.68 3.94889 -5.1062 0
M  V30 13970 H 1339.45 3.9261 -7.18192 0
M  V30 13971 N 1342.11 1.02678 1.19562 0
M  V30 13972 C 1343.34 0.741569 1.93154 0
M  V30 13973 C 1343.76 -0.699292 1.75372 0
M  V30 13974 O 1343.11 -1.47533 1.07426 0
M  V30 13975 C 1343.17 1.08064 3.4497 0
M  V30 13976 O 1342.89 2.46492 3.62179 0
M  V30 13977 C 1344.39 0.817935 4.35689 0
M  V30 13978 H 1341.61 0.271506 0.613617 0
M  V30 13979 H 1344.15 1.3707 1.51763 0
M  V30 13980 H 1342.31 0.496723 3.84202 0
M  V30 13981 H 1342.72 2.59053 4.56061 0
M  V30 13982 H 1344.19 1.10517 5.40823 0
M  V30 13983 H 1344.67 -0.247693 4.38501 0
M  V30 13984 H 1345.28 1.38449 4.02134 0
M  V30 13985 N 1343.59 -1.35528 0.804364 0
M  V30 13986 C 1344.84 -1.99126 0.384261 0
M  V30 13987 C 1345.17 -1.63668 -1.0453 0
M  V30 13988 O 1344.45 -0.898896 -1.72482 0
M  V30 13989 C 1344.73 -3.55636 0.565278 0
M  V30 13990 C 1344.58 -4.00899 2.03961 0
M  V30 13991 C 1345.9 -4.40099 -0.0104301 0
M  V30 13992 H 1343.02 -0.723369 0.141092 0
M  V30 13993 H 1345.66 -1.60712 1.01348 0
M  V30 13994 H 1343.81 -3.88489 0.0296425 0
M  V30 13995 H 1345.48 -3.78465 2.63746 0
M  V30 13996 H 1343.73 -3.5189 2.53685 0
M  V30 13997 H 1344.4 -5.09785 2.11716 0
M  V30 13998 H 1346.87 -4.13692 0.446985 0
M  V30 13999 H 1345.75 -5.48705 0.146155 0
M  V30 14000 H 1346.01 -4.28096 -1.10392 0
M  V30 14001 N 1345.07 -0.557671 -1.47404 0
M  V30 14002 C 1345.98 0.19289 -2.33806 0
M  V30 14003 C 1347 0.911424 -1.4822 0
M  V30 14004 O 1348.17 0.880214 -1.81147 0
M  V30 14005 C 1345.24 1.20937 -3.24923 0
M  V30 14006 C 1344.3 0.498209 -4.26399 0
M  V30 14007 C 1343.53 1.46626 -5.13163 0
M  V30 14008 O 1343.76 2.70111 -5.0239 0
M  V30 14009 O 1342.69 0.990497 -5.93694 0
M  V30 14010 H 1346.52 -0.515861 -2.99287 0
M  V30 14011 H 1344.1 -0.318283 -1.4597 0
M  V30 14012 H 1345.98 1.7961 -3.81206 0
M  V30 14013 H 1344.66 1.90003 -2.6207 0
M  V30 14014 H 1343.56 -0.129736 -3.73875 0
M  V30 14015 H 1344.9 -0.151015 -4.91968 0
M  V30 14016 N 1346.55 1.54831 -0.294147 0
M  V30 14017 C 1347.83 1.92071 0.369902 0
M  V30 14018 C 1348.21 1.22061 1.72233 0
M  V30 14019 O 1347.55 0.353975 2.25742 0
M  V30 14020 C 1347.76 3.45524 0.49135 0
M  V30 14021 C 1349.11 4.17644 0.765411 0
M  V30 14022 O 1350.14 3.51521 0.575428 0
M  V30 14023 O 1349 5.34692 1.12992 0
M  V30 14024 H 1346.09 0.801033 0.20561 0
M  V30 14025 H 1348.64 1.66224 -0.341702 0
M  V30 14026 H 1347.41 3.88591 -0.459663 0
M  V30 14027 H 1347.03 3.77384 1.25169 0
M  V30 14028 N 1348.03 0.0217466 1.57585 0
M  V30 14029 C 1349.28 -0.657187 1.91116 0
M  V30 14030 C 1349.6 -1.7309 0.898039 0
M  V30 14031 O 1348.87 -1.95803 -0.0615116 0
M  V30 14032 H 1347.45 -0.245732 0.705425 0
M  V30 14033 H 1350.11 0.0678096 1.94782 0
M  V30 14034 H 1349.2 -1.11462 2.91518 0
M  V30 14035 N 1349.51 -1.55583 -0.251311 0
M  V30 14036 C 1350.75 -1.76859 -0.978031 0
M  V30 14037 C 1351.07 -0.584924 -1.86021 0
M  V30 14038 O 1350.34 0.399456 -1.91784 0
M  V30 14039 H 1348.92 -0.652252 -0.364111 0
M  V30 14040 H 1351.59 -1.93016 -0.270319 0
M  V30 14041 H 1350.68 -2.67828 -1.60233 0
M  V30 14042 N 1350.98 0.516783 -1.48886 0
M  V30 14043 C 1351.93 1.61653 -1.60786 0
M  V30 14044 C 1352.92 1.54056 -0.464271 0
M  V30 14045 O 1354.11 1.61853 -0.716412 0
M  V30 14046 C 1351.24 3.0033 -1.66304 0
M  V30 14047 C 1350.32 3.12982 -2.86187 0
M  V30 14048 N 1350.72 2.95568 -4.10455 0
M  V30 14049 C 1349.01 3.44059 -2.83795 0
M  V30 14050 C 1349.71 3.11986 -4.90958 0
M  V30 14051 N 1348.69 3.40156 -4.24022 0
M  V30 14052 H 1352.49 1.4682 -2.546 0
M  V30 14053 H 1350.01 0.722555 -1.4544 0
M  V30 14054 H 1352 3.79345 -1.72924 0
M  V30 14055 H 1350.66 3.16245 -0.736158 0
M  V30 14056 H 1351.67 2.72062 -4.40684 0
M  V30 14057 H 1348.35 3.66249 -2.0042 0
M  V30 14058 H 1349.74 3.03149 -5.99625 0
M  V30 14059 N 1352.46 1.37696 0.766659 0
M  V30 14060 C 1353.71 1.33382 1.52765 0
M  V30 14061 C 1354.04 -0.0800569 1.94035 0
M  V30 14062 O 1353.32 -1.03848 1.64456 0
M  V30 14063 C 1353.6 2.2776 2.78922 0
M  V30 14064 C 1353.45 3.77949 2.43874 0
M  V30 14065 C 1354.77 2.20494 3.80881 0
M  V30 14066 H 1351.89 0.485836 0.554195 0
M  V30 14067 H 1354.53 1.68438 0.879119 0
M  V30 14068 H 1352.68 1.97994 3.34261 0
M  V30 14069 H 1354.35 4.18333 1.9441 0
M  V30 14070 H 1352.6 3.96269 1.76503 0
M  V30 14071 H 1353.27 4.39428 3.34077 0
M  V30 14072 H 1355.74 2.46742 3.35048 0
M  V30 14073 H 1354.62 2.88663 4.66867 0
M  V30 14074 H 1354.88 1.19951 4.25516 0
M  V30 14075 N 1353.94 -0.993397 1.22349 0
M  V30 14076 C 1354.85 -2.11771 1.00947 0
M  V30 14077 C 1355.87 -1.73949 -0.0420679 0
M  V30 14078 O 1357.04 -2.00837 0.150548 0
M  V30 14079 C 1354.11 -3.41654 0.589359 0
M  V30 14080 C 1353.17 -3.93579 1.71446 0
M  V30 14081 C 1352.4 -5.17264 1.3143 0
M  V30 14082 O 1352.62 -5.70074 0.192876 0
M  V30 14083 O 1351.56 -5.62929 2.13059 0
M  V30 14084 H 1355.38 -2.32708 1.95142 0
M  V30 14085 H 1352.97 -1.10144 1.00939 0
M  V30 14086 H 1354.85 -4.19813 0.365403 0
M  V30 14087 H 1353.53 -3.22077 -0.323738 0
M  V30 14088 H 1352.43 -3.16596 1.99294 0
M  V30 14089 H 1353.77 -4.17588 2.6054 0
M  V30 14090 N 1355.42 -1.03311 -1.19015 0
M  V30 14091 C 1356.38 -0.622114 -2.20596 0
M  V30 14092 C 1357.38 0.316502 -1.57654 0
M  V30 14093 O 1358.57 0.102932 -1.73896 0
M  V30 14094 C 1355.7 0.0890432 -3.40784 0
M  V30 14095 H 1356.9 -1.52095 -2.58471 0
M  V30 14096 H 1354.45 -0.824777 -1.32767 0
M  V30 14097 H 1355.18 1.00203 -3.08431 0
M  V30 14098 H 1354.97 -0.58547 -3.87704 0
M  V30 14099 H 1356.46 0.363366 -4.16016 0
M  V30 14100 N 1356.9 1.35099 -0.81154 0
M  V30 14101 C 1358.14 1.98233 -0.393453 0
M  V30 14102 C 1358.46 1.64688 1.04417 0
M  V30 14103 O 1357.73 0.931845 1.72318 0
M  V30 14104 H 1356.31 0.733283 -0.142496 0
M  V30 14105 H 1358.98 1.6493 -1.03847 0
M  V30 14106 H 1358.07 3.08017 -0.503188 0
M  V30 14107 N 1358.37 0.56548 1.47106 0
M  V30 14108 C 1359.6 0.0476763 2.07345 0
M  V30 14109 C 1360.02 -1.24032 1.41413 0
M  V30 14110 O 1359.38 -1.74498 0.491941 0
M  V30 14111 C 1359.43 -0.122618 3.60391 0
M  V30 14112 O 1358.53 -1.18326 3.9506 0
M  V30 14113 H 1357.87 0.0550419 0.661715 0
M  V30 14114 H 1360.4 0.78352 1.89003 0
M  V30 14115 H 1360.41 -0.334227 4.06629 0
M  V30 14116 H 1359.09 0.81807 4.07775 0
M  V30 14117 H 1357.67 -0.951481 3.60557 0
M  V30 14118 N 1359.85 -1.54672 0.302354 0
M  V30 14119 C 1361.08 -2.05041 -0.311891 0
M  V30 14120 C 1361.5 -1.17814 -1.46634 0
M  V30 14121 O 1360.86 -0.182517 -1.80379 0
M  V30 14122 C 1360.91 -3.52831 -0.744489 0
M  V30 14123 O 1360.01 -3.68621 -1.84913 0
M  V30 14124 H 1359.35 -0.661255 -0.0603102 0
M  V30 14125 H 1361.88 -1.99711 0.444593 0
M  V30 14126 H 1361.89 -3.94708 -1.03293 0
M  V30 14127 H 1360.57 -4.1578 0.0999976 0
M  V30 14128 H 1359.15 -3.38649 -1.56113 0
M  V30 14129 N 1361.33 -0.0301034 -1.57571 0
M  V30 14130 C 1362.56 0.657533 -1.95857 0
M  V30 14131 C 1362.97 1.66138 -0.905244 0
M  V30 14132 O 1362.31 1.83299 0.12134 0
M  V30 14133 C 1362.37 1.41946 -3.3029 0
M  V30 14134 C 1362.04 0.573834 -4.53383 0
M  V30 14135 C 1363.03 -0.151282 -5.1968 0
M  V30 14136 C 1360.72 0.510947 -4.99695 0
M  V30 14137 C 1362.71 -0.927947 -6.30609 0
M  V30 14138 C 1360.4 -0.269422 -6.10506 0
M  V30 14139 C 1361.4 -0.987575 -6.75822 0
M  V30 14140 O 1361.09 -1.75515 -7.84506 0
M  V30 14141 H 1360.82 0.1861 -0.649879 0
M  V30 14142 H 1363.37 -0.0864526 -2.05218 0
M  V30 14143 H 1361.6 2.20861 -3.17423 0
M  V30 14144 H 1363.29 1.9953 -3.53472 0
M  V30 14145 H 1364.06 -0.112036 -4.84871 0
M  V30 14146 H 1359.94 1.05949 -4.4866 0
M  V30 14147 H 1363.48 -1.48901 -6.81524 0
M  V30 14148 H 1359.38 -0.310381 -6.44753 0
M  V30 14149 H 1360.15 -1.67503 -8.01177 0
M  V30 14150 N 1362.81 1.55714 0.243056 0
M  V30 14151 C 1363.77 1.89832 1.28438 0
M  V30 14152 C 1364.77 0.775083 1.40887 0
M  V30 14153 O 1365.96 1.04304 1.39521 0
M  V30 14154 C 1363.09 2.13016 2.66153 0
M  V30 14155 H 1364.29 2.82947 0.994022 0
M  V30 14156 H 1361.84 1.48665 0.482521 0
M  V30 14157 H 1362.57 1.22381 3.00322 0
M  V30 14158 H 1362.36 2.94824 2.58498 0
M  V30 14159 H 1363.85 2.40581 3.41336 0
M  V30 14160 N 1364.29 -0.50888 1.49158 0
M  V30 14161 C 1365.2 -1.63782 1.67966 0
M  V30 14162 C 1366.21 -1.64667 0.562207 0
M  V30 14163 O 1367.39 -1.83232 0.835935 0
M  V30 14164 C 1364.45 -3.00179 1.73474 0
M  V30 14165 C 1363.51 -3.09983 2.97 0
M  V30 14166 C 1362.75 -4.39875 3.02235 0
M  V30 14167 O 1362.97 -5.28214 2.15282 0
M  V30 14168 O 1361.9 -4.54486 3.94621 0
M  V30 14169 H 1365.73 -1.50846 2.63589 0
M  V30 14170 H 1363.32 -0.684306 1.32807 0
M  V30 14171 H 1365.2 -3.8126 1.79495 0
M  V30 14172 H 1363.87 -3.13394 0.810287 0
M  V30 14173 H 1362.78 -2.28119 2.965 0
M  V30 14174 H 1364.11 -3.01693 3.88899 0
M  V30 14175 N 1365.76 -1.381 -0.759346 0
M  V30 14176 C 1366.7 -1.29241 -1.88075 0
M  V30 14177 C 1367.68 -0.170526 -1.61703 0
M  V30 14178 O 1368.86 -0.346865 -1.85281 0
M  V30 14179 C 1365.99 -1.00115 -3.23566 0
M  V30 14180 C 1365.03 -2.14161 -3.68832 0
M  V30 14181 S 1365.87 -3.76251 -3.81045 0
M  V30 14182 C 1367.02 -3.49301 -5.19365 0
M  V30 14183 H 1367.25 -2.24152 -1.95303 0
M  V30 14184 H 1364.79 -1.23869 -0.921734 0
M  V30 14185 H 1366.75 -0.839934 -4.01815 0
M  V30 14186 H 1365.41 -0.0693088 -3.14024 0
M  V30 14187 H 1364.6 -1.89313 -4.67094 0
M  V30 14188 H 1364.2 -2.2636 -2.9772 0
M  V30 14189 H 1366.49 -3.05058 -6.04935 0
M  V30 14190 H 1367.44 -4.46935 -5.49231 0
M  V30 14191 H 1367.84 -2.83944 -4.87889 0
M  V30 14192 N 1367.24 0.986894 -1.22875 0
M  V30 14193 C 1368.15 2.11232 -1.02069 0
M  V30 14194 C 1369.17 1.73969 0.0328424 0
M  V30 14195 O 1370.34 2.00754 -0.161197 0
M  V30 14196 C 1367.41 3.41337 -0.60747 0
M  V30 14197 C 1366.47 3.92665 -1.73531 0
M  V30 14198 C 1365.7 5.1656 -1.34171 0
M  V30 14199 O 1365.93 5.69964 -0.223106 0
M  V30 14200 O 1364.86 5.61791 -2.16041 0
M  V30 14201 H 1368.69 2.3167 -1.96374 0
M  V30 14202 H 1366.27 1.09607 -1.01522 0
M  V30 14203 H 1368.15 4.19613 -0.387661 0
M  V30 14204 H 1366.83 3.22244 0.306653 0
M  V30 14205 H 1365.74 3.15534 -2.0097 0
M  V30 14206 H 1367.07 4.162 -2.62751 0
M  V30 14207 N 1368.72 1.0394 1.18466 0
M  V30 14208 C 1369.97 0.743141 1.88694 0
M  V30 14209 C 1370.3 -0.727211 1.8007 0
M  V30 14210 O 1369.57 -1.53058 1.20014 0
M  V30 14211 C 1369.86 1.20829 3.39223 0
M  V30 14212 C 1369.71 2.74064 3.56664 0
M  V30 14213 C 1371.03 0.797348 4.32817 0
M  V30 14214 H 1368.15 0.271437 0.685194 0
M  V30 14215 H 1370.79 1.29119 1.39386 0
M  V30 14216 H 1368.94 0.742033 3.81348 0
M  V30 14217 H 1370.61 3.28717 3.2364 0
M  V30 14218 H 1368.86 3.1395 2.99362 0
M  V30 14219 H 1369.53 3.01668 4.62277 0
M  V30 14220 H 1372 1.19854 3.98465 0
M  V30 14221 H 1370.88 1.15057 5.36706 0
M  V30 14222 H 1371.14 -0.299601 4.41084 0
M  V30 14223 N 1370.2 -1.34667 0.818693 0
M  V30 14224 C 1371.13 -2.27466 0.182904 0
M  V30 14225 C 1372.11 -1.48682 -0.65821 0
M  V30 14226 O 1373.29 -1.77912 -0.622868 0
M  V30 14227 C 1370.42 -3.30406 -0.744971 0
M  V30 14228 C 1369.47 -4.26496 0.018069 0
M  V30 14229 S 1370.3 -5.1788 1.36236 0
M  V30 14230 C 1371.46 -6.24357 0.43925 0
M  V30 14231 H 1371.69 -2.81042 0.969668 0
M  V30 14232 H 1369.22 -1.4165 0.614372 0
M  V30 14233 H 1371.18 -3.90205 -1.27478 0
M  V30 14234 H 1369.84 -2.75684 -1.50522 0
M  V30 14235 H 1369.03 -4.99294 -0.687141 0
M  V30 14236 H 1368.64 -3.70929 0.478291 0
M  V30 14237 H 1370.93 -6.76484 -0.370837 0
M  V30 14238 H 1371.87 -6.98916 1.13678 0
M  V30 14239 H 1372.28 -5.64492 0.0295605 0
M  V30 14240 N 1371.68 -0.573274 -1.46804 0
M  V30 14241 C 1372.62 0.165358 -2.30207 0
M  V30 14242 C 1373.59 0.89312 -1.40045 0
M  V30 14243 O 1374.78 0.885653 -1.68999 0
M  V30 14244 C 1371.92 1.17915 -3.2433 0
M  V30 14245 C 1371.03 0.455805 -4.29589 0
M  V30 14246 C 1370.17 1.45629 -5.10848 0
M  V30 14247 C 1369.21 0.718822 -6.07865 0
M  V30 14248 N 1368.34 1.66691 -6.82025 0
M  V30 14249 H 1373.18 -0.551947 -2.92844 0
M  V30 14250 H 1370.72 -0.28401 -1.44332 0
M  V30 14251 H 1372.68 1.77969 -3.77337 0
M  V30 14252 H 1371.31 1.86429 -2.63523 0
M  V30 14253 H 1370.36 -0.259584 -3.79513 0
M  V30 14254 H 1371.67 -0.121161 -4.98653 0
M  V30 14255 H 1370.83 2.1299 -5.68084 0
M  V30 14256 H 1369.56 2.06718 -4.41723 0
M  V30 14257 H 1368.57 0.0313773 -5.49791 0
M  V30 14258 H 1369.79 0.113452 -6.79005 0
M  V30 14259 H 1367.74 2.26608 -6.15617 0
M  V30 14260 H 1367.66 1.14251 -7.47317 0
M  V30 14261 H 1368.93 2.33117 -7.43826 0
M  V30 14262 N 1373.15 1.5451 -0.310553 0
M  V30 14263 C 1374.09 2.20075 0.603513 0
M  V30 14264 C 1375.07 1.17336 1.12566 0
M  V30 14265 O 1376.25 1.4602 1.19208 0
M  V30 14266 C 1373.38 2.85216 1.82674 0
M  V30 14267 C 1372.42 4.01563 1.43699 0
M  V30 14268 S 1373.26 5.33301 0.48477 0
M  V30 14269 C 1374.41 6.01929 1.71557 0
M  V30 14270 H 1374.64 2.97264 0.0465278 0
M  V30 14271 H 1372.18 1.5411 -0.0946638 0
M  V30 14272 H 1374.14 3.23371 2.52867 0
M  V30 14273 H 1372.8 2.07855 2.3549 0
M  V30 14274 H 1371.99 4.45958 2.34813 0
M  V30 14275 H 1371.59 3.65014 0.814904 0
M  V30 14276 H 1373.88 6.23317 2.65484 0
M  V30 14277 H 1374.83 6.95801 1.31401 0
M  V30 14278 H 1375.23 5.31684 1.89663 0
M  V30 14279 N 1374.63 0.0384594 1.57553 0
M  V30 14280 C 1375.88 -0.637533 1.91359 0
M  V30 14281 C 1376.2 -1.7275 0.91744 0
M  V30 14282 O 1377.4 -2.46078 1.14709 0
M  V30 14283 C 1375.86 -1.18526 3.39823 0
M  V30 14284 C 1375.47 -0.128086 4.47817 0
M  V30 14285 C 1377.21 -1.83723 3.82683 0
M  V30 14286 C 1375.12 -0.687978 5.87385 0
M  V30 14287 H 1374.05 -0.241898 0.714144 0
M  V30 14288 H 1376.7 0.105281 1.83198 0
M  V30 14289 H 1375.08 -1.97999 3.42947 0
M  V30 14290 H 1376.25 0.644865 4.56265 0
M  V30 14291 H 1374.57 0.425672 4.14219 0
M  V30 14292 H 1377.17 -2.26585 4.84317 0
M  V30 14293 H 1377.51 -2.68377 3.18244 0
M  V30 14294 H 1378.04 -1.10926 3.82021 0
M  V30 14295 H 1374.78 0.120642 6.55389 0
M  V30 14296 H 1374.3 -1.4292 5.82524 0
M  V30 14297 H 1375.98 -1.17483 6.36244 0
M  V30 14298 N 1376.11 -1.55841 -0.234795 0
M  V30 14299 C 1377.04 -1.86317 -1.31762 0
M  V30 14300 C 1378.02 -0.719321 -1.45824 0
M  V30 14301 O 1379.21 -0.966329 -1.61847 0
M  V30 14302 C 1376.33 -2.05854 -2.68964 0
M  V30 14303 C 1375.38 -3.28518 -2.71989 0
M  V30 14304 S 1376.21 -4.84827 -2.27382 0
M  V30 14305 C 1377.37 -5.07385 -3.66485 0
M  V30 14306 H 1377.6 -2.7787 -1.05715 0
M  V30 14307 H 1375.13 -1.48105 -0.436386 0
M  V30 14308 H 1377.09 -2.17794 -3.4796 0
M  V30 14309 H 1375.75 -1.15122 -2.92243 0
M  V30 14310 H 1374.95 -3.39192 -3.7278 0
M  V30 14311 H 1374.55 -3.15367 -2.01047 0
M  V30 14312 H 1376.84 -4.95471 -4.62077 0
M  V30 14313 H 1377.78 -6.09323 -3.60737 0
M  V30 14314 H 1378.19 -4.35175 -3.59559 0
M  V30 14315 N 1377.59 0.500963 -1.49426 0
M  V30 14316 C 1378.82 1.27911 -1.62624 0
M  V30 14317 C 1379.23 1.86439 -0.297651 0
M  V30 14318 O 1378.59 1.67831 0.716879 0
M  V30 14319 C 1378.64 2.40934 -2.69505 0
M  V30 14320 O 1378.36 1.84811 -3.97211 0
M  V30 14321 C 1379.86 3.32305 -2.93408 0
M  V30 14322 H 1377.08 0.387951 -0.547481 0
M  V30 14323 H 1379.63 0.601372 -1.95458 0
M  V30 14324 H 1377.78 3.04537 -2.39449 0
M  V30 14325 H 1378.2 2.59011 -4.56085 0
M  V30 14326 H 1379.67 4.0789 -3.71927 0
M  V30 14327 H 1380.15 3.89301 -2.03325 0
M  V30 14328 H 1380.75 2.74467 -3.24881 0
M  V30 14329 N 1379.07 1.38501 0.752011 0
M  V30 14330 C 1380 1.38577 1.87933 0
M  V30 14331 C 1380.98 0.251454 1.68231 0
M  V30 14332 O 1382.16 0.45477 1.888 0
M  V30 14333 C 1379.29 1.21164 3.25479 0
M  V30 14334 C 1378.25 2.31816 3.59785 0
M  V30 14335 C 1377.57 1.99508 4.96085 0
M  V30 14336 C 1378.87 3.74082 3.645 0
M  V30 14337 H 1380.57 2.32913 1.88127 0
M  V30 14338 H 1378.11 1.12113 0.903698 0
M  V30 14339 H 1380.07 1.19842 4.04 0
M  V30 14340 H 1378.79 0.232899 3.25769 0
M  V30 14341 H 1377.45 2.32327 2.83584 0
M  V30 14342 H 1377.1 1.00114 4.92936 0
M  V30 14343 H 1376.8 2.73617 5.20007 0
M  V30 14344 H 1378.32 1.99807 5.76983 0
M  V30 14345 H 1379.74 3.75593 4.33131 0
M  V30 14346 H 1378.13 4.47409 3.99931 0
M  V30 14347 H 1379.2 4.06284 2.64692 0
M  V30 14348 N 1380.55 -0.980364 1.23396 0
M  V30 14349 C 1381.49 -2.09401 1.01262 0
M  V30 14350 C 1382.49 -1.69331 -0.0483957 0
M  V30 14351 O 1383.69 -1.79693 0.105109 0
M  V30 14352 H 1380.07 -0.684969 0.310358 0
M  V30 14353 H 1382.04 -2.25236 1.95732 0
M  V30 14354 C 1380.79 -3.42118 0.620526 0
M  V30 14355 H 1380.11 -3.73402 1.42868 0
M  V30 14356 H 1381.55 -4.2098 0.505169 0
M  V30 14357 C 1380.01 -3.30146 -0.671208 0
M  V30 14358 O 1380.54 -3.62997 -1.72034 0
M  V30 14359 N 1378.75 -2.83303 -0.647137 0
M  V30 14360 H 1378.29 -2.56767 0.206957 0
M  V30 14361 H 1378.25 -2.75675 -1.51165 0
M  V30 14362 N 1382.02 -1.04567 -1.17913 0
M  V30 14363 C 1383.27 -0.753137 -1.88297 0
M  V30 14364 C 1383.6 0.717651 -1.80453 0
M  V30 14365 O 1382.88 1.5242 -1.20824 0
M  V30 14366 C 1383.16 -1.22626 -3.38578 0
M  V30 14367 C 1383.01 -2.75952 -3.55205 0
M  V30 14368 C 1384.33 -0.82029 -4.32388 0
M  V30 14369 H 1381.45 -0.275067 -0.683745 0
M  V30 14370 H 1384.09 -1.29856 -1.38699 0
M  V30 14371 H 1382.24 -0.762246 -3.80949 0
M  V30 14372 H 1383.92 -3.30429 -3.21892 0
M  V30 14373 H 1382.16 -3.15534 -2.97693 0
M  V30 14374 H 1382.83 -3.04116 -4.60671 0
M  V30 14375 H 1385.31 -1.21965 -3.97824 0
M  V30 14376 H 1384.18 -1.17902 -5.36088 0
M  V30 14377 H 1384.44 0.276205 -4.41236 0
M  V30 14378 N 1383.5 1.34231 -0.825823 0
M  V30 14379 C 1384.43 2.28261 -0.207234 0
M  V30 14380 C 1385.45 1.51159 0.604554 0
M  V30 14381 O 1386.64 1.7315 0.43376 0
M  V30 14382 C 1383.74 3.30991 0.727868 0
M  V30 14383 C 1382.91 4.3738 -0.0417267 0
M  V30 14384 C 1381.97 5.19854 0.81474 0
M  V30 14385 O 1380.99 5.68612 0.25867 0
M  V30 14386 N 1382.2 5.39849 2.1341 0
M  V30 14387 H 1384.96 2.81986 -1.0151 0
M  V30 14388 H 1382.52 1.46785 -0.683056 0
M  V30 14389 H 1384.51 3.83065 1.3055 0
M  V30 14390 H 1383.08 2.7764 1.43647 0
M  V30 14391 H 1382.3 3.85983 -0.800686 0
M  V30 14392 H 1383.59 5.05581 -0.571395 0
M  V30 14393 H 1382.99 5.01914 2.60958 0
M  V30 14394 H 1381.55 5.95029 2.66052 0
M  V30 14395 N 1384.98 0.581051 1.46498 0
M  V30 14396 C 1385.89 -0.155669 2.34083 0
M  V30 14397 C 1386.91 -0.887728 1.49651 0
M  V30 14398 O 1388.08 -0.851284 1.82524 0
M  V30 14399 C 1385.15 -1.15752 3.26806 0
M  V30 14400 C 1384.21 -0.43031 4.27138 0
M  V30 14401 C 1383.44 -1.38443 5.15431 0
M  V30 14402 O 1383.66 -2.62084 5.06624 0
M  V30 14403 O 1382.6 -0.89592 5.95195 0
M  V30 14404 H 1386.42 0.56341 2.98428 0
M  V30 14405 H 1384.01 0.341466 1.45445 0
M  V30 14406 H 1385.89 -1.73523 3.84015 0
M  V30 14407 H 1384.57 -1.85809 2.65059 0
M  V30 14408 H 1383.47 0.1892 3.73621 0
M  V30 14409 H 1384.81 0.229263 4.91666 0
M  V30 14410 N 1386.46 -1.54343 0.318742 0
M  V30 14411 C 1387.87 -1.59564 -0.034068 0
M  V30 14412 C 1388.07 -1.33539 -1.50896 0
M  V30 14413 O 1387.13 -1.11746 -2.26427 0
M  V30 14414 C 1388.44 -2.98291 0.379827 0
M  V30 14415 C 1389.99 -3.11255 0.330078 0
M  V30 14416 C 1390.47 -4.5232 0.719061 0
M  V30 14417 N 1391.96 -4.58295 0.67228 0
M  V30 14418 C 1392.69 -5.65551 0.945513 0
M  V30 14419 N 1392.19 -6.80767 1.28563 0
M  V30 14420 N 1393.98 -5.55305 0.871394 0
M  V30 14421 H 1386.13 -1.69518 1.27975 0
M  V30 14422 H 1388.39 -0.792627 0.520044 0
M  V30 14423 H 1388.1 -3.22319 1.40724 0
M  V30 14424 H 1387.97 -3.76319 -0.257606 0
M  V30 14425 H 1390.36 -2.86965 -0.688117 0
M  V30 14426 H 1390.44 -2.35342 1.00238 0
M  V30 14427 H 1390.09 -4.77342 1.73515 0
M  V30 14428 H 1390.02 -5.26594 0.0245001 0
M  V30 14429 H 1392.51 -3.75547 0.421059 0
M  V30 14430 H 1392.82 -7.58503 1.47963 0
M  V30 14431 H 1391.17 -6.82275 1.32385 0
M  V30 14432 H 1394.36 -4.64171 0.605205 0
M  V30 14433 H 1394.53 -6.38806 1.08769 0
M  V30 14434 N 1387.94 -0.0468143 -1.5753 0
M  V30 14435 C 1389.18 0.626699 -1.92138 0
M  V30 14436 C 1389.5 1.7164 -0.925463 0
M  V30 14437 O 1388.77 1.95876 0.0303531 0
M  V30 14438 H 1387.35 0.234479 -0.709245 0
M  V30 14439 H 1390.02 -0.0987892 -1.94649 0
M  V30 14440 H 1389.11 1.06811 -2.93254 0
M  V30 14441 N 1389.41 1.55964 0.226527 0
M  V30 14442 C 1390.83 1.48844 0.575999 0
M  V30 14443 C 1391.03 0.740966 1.87382 0
M  V30 14444 O 1390.09 0.278599 2.50958 0
M  V30 14445 C 1391.4 2.93371 0.65984 0
M  V30 14446 C 1392.95 3.03862 0.750802 0
M  V30 14447 C 1393.42 4.49738 0.86603 0
M  V30 14448 N 1394.91 4.5376 0.930379 0
M  V30 14449 C 1395.65 5.63905 1.03916 0
M  V30 14450 N 1395.14 6.83814 1.1122 0
M  V30 14451 N 1396.94 5.51746 1.07391 0
M  V30 14452 H 1389.09 2.02991 -0.625179 0
M  V30 14453 H 1391.35 0.922435 -0.218674 0
M  V30 14454 H 1391.06 3.50985 -0.22411 0
M  V30 14455 H 1390.93 3.44994 1.52509 0
M  V30 14456 H 1393.32 2.46316 1.6252 0
M  V30 14457 H 1393.4 2.55416 -0.140019 0
M  V30 14458 H 1393.04 5.079 -0.00388632 0
M  V30 14459 H 1392.97 4.95884 1.77219 0
M  V30 14460 H 1395.46 3.67404 0.884451 0
M  V30 14461 H 1395.78 7.63507 1.19484 0
M  V30 14462 H 1394.12 6.86535 1.08142 0
M  V30 14463 H 1397.31 4.56997 1.01347 0
M  V30 14464 H 1397.49 6.37619 1.15523 0
M  V30 14465 N 1390.89 -0.493031 1.4969 0
M  V30 14466 C 1392.14 -1.24849 1.59814 0
M  V30 14467 C 1392.47 -1.92059 0.287555 0
M  V30 14468 O 1391.75 -1.81099 -0.709471 0
M  V30 14469 C 1392.03 -2.30929 2.76304 0
M  V30 14470 C 1391.88 -1.68167 4.17181 0
M  V30 14471 C 1393.2 -3.32427 2.8841 0
M  V30 14472 H 1390.32 -0.452553 0.581691 0
M  V30 14473 H 1392.96 -0.545455 1.82002 0
M  V30 14474 H 1391.11 -2.9089 2.57517 0
M  V30 14475 H 1392.78 -1.11971 4.47504 0
M  V30 14476 H 1391.03 -0.985496 4.22458 0
M  V30 14477 H 1391.7 -2.45148 4.94577 0
M  V30 14478 H 1394.17 -2.82464 3.05537 0
M  V30 14479 H 1393.05 -4.04004 3.71581 0
M  V30 14480 H 1393.31 -3.95234 1.98097 0
M  V30 14481 N 1392.37 -1.38898 -0.744656 0
M  V30 14482 C 1393.32 -1.36845 -1.85855 0
M  V30 14483 C 1394.29 -0.2296 -1.64505 0
M  V30 14484 O 1395.47 -0.423221 -1.86047 0
M  V30 14485 C 1392.61 -1.20818 -3.2326 0
M  V30 14486 C 1391.73 -2.44166 -3.5638 0
M  V30 14487 C 1390.86 -2.20801 -4.83136 0
M  V30 14488 C 1389.9 -3.39874 -5.0907 0
M  V30 14489 N 1389.04 -3.15888 -6.27024 0
M  V30 14490 H 1393.88 -2.32068 -1.86945 0
M  V30 14491 H 1391.41 -1.15289 -0.913611 0
M  V30 14492 H 1393.37 -1.0954 -4.02563 0
M  V30 14493 H 1392 -0.292295 -3.21474 0
M  V30 14494 H 1391.05 -2.66083 -2.71852 0
M  V30 14495 H 1392.37 -3.32885 -3.71469 0
M  V30 14496 H 1391.52 -2.0671 -5.704 0
M  V30 14497 H 1390.26 -1.29462 -4.70203 0
M  V30 14498 H 1389.26 -3.54474 -4.20271 0
M  V30 14499 H 1390.49 -4.32102 -5.23894 0
M  V30 14500 H 1388.43 -2.27204 -6.15398 0
M  V30 14501 H 1388.35 -3.9816 -6.42655 0
M  V30 14502 H 1389.62 -3.0547 -7.17153 0
M  V30 14503 N 1393.85 0.973806 -1.23914 0
M  V30 14504 C 1395.08 1.74853 -1.10046 0
M  V30 14505 C 1395.49 1.85927 0.350388 0
M  V30 14506 O 1394.83 1.34252 1.25388 0
M  V30 14507 C 1394.89 3.18919 -1.65924 0
M  V30 14508 C 1394.56 3.31335 -3.14748 0
M  V30 14509 C 1395.55 3.17141 -4.11968 0
M  V30 14510 C 1393.24 3.55772 -3.54587 0
M  V30 14511 C 1395.23 3.27199 -5.47009 0
M  V30 14512 C 1392.92 3.65468 -4.89771 0
M  V30 14513 C 1393.92 3.51193 -5.85792 0
M  V30 14514 O 1393.6 3.60534 -7.18519 0
M  V30 14515 H 1393.34 0.555345 -0.385445 0
M  V30 14516 H 1395.89 1.23168 -1.64374 0
M  V30 14517 H 1394.12 3.71882 -1.06023 0
M  V30 14518 H 1395.81 3.78177 -1.47434 0
M  V30 14519 H 1396.58 2.98153 -3.82531 0
M  V30 14520 H 1392.45 3.65951 -2.80358 0
M  V30 14521 H 1396 3.15974 -6.21937 0
M  V30 14522 H 1391.9 3.83969 -5.18882 0
M  V30 14523 H 1392.66 3.77288 -7.26358 0
M  V30 14524 N 1395.33 1.05191 1.17357 0
M  V30 14525 C 1396.58 0.757104 1.86951 0
M  V30 14526 C 1396.89 -0.718637 1.8192 0
M  V30 14527 O 1398.09 -1.12739 2.46986 0
M  V30 14528 C 1396.55 1.30409 3.35442 0
M  V30 14529 C 1396.16 2.80928 3.48975 0
M  V30 14530 C 1397.9 1.08633 4.10365 0
M  V30 14531 C 1395.81 3.28927 4.91488 0
M  V30 14532 H 1394.74 0.279525 0.700273 0
M  V30 14533 H 1397.39 1.2692 1.32528 0
M  V30 14534 H 1395.77 0.719812 3.89403 0
M  V30 14535 H 1396.95 3.45211 3.05231 0
M  V30 14536 H 1395.26 3.01245 2.87473 0
M  V30 14537 H 1397.86 1.41996 5.15501 0
M  V30 14538 H 1398.2 0.0240903 4.16293 0
M  V30 14539 H 1398.73 1.63581 3.6261 0
M  V30 14540 H 1395.47 4.34581 4.90734 0
M  V30 14541 H 1394.99 2.69386 5.35902 0
M  V30 14542 H 1396.67 3.23605 5.60258 0
M  V30 14543 N 1396.8 -1.33791 0.83293 0
M  V30 14544 C 1397.75 -2.29332 0.25989 0
M  V30 14545 C 1398.72 -1.54056 -0.620965 0
M  V30 14546 O 1399.91 -1.82382 -0.560492 0
M  V30 14547 C 1397.05 -3.40461 -0.563964 0
M  V30 14548 C 1396.16 -4.30658 0.34025 0
M  V30 14549 C 1395.29 -5.28897 -0.494134 0
M  V30 14550 C 1394.33 -6.10733 0.408842 0
M  V30 14551 N 1393.47 -7.01032 -0.38706 0
M  V30 14552 H 1398.31 -2.77743 1.07996 0
M  V30 14553 H 1395.85 -1.3667 0.544043 0
M  V30 14554 H 1397.81 -4.03587 -1.05704 0
M  V30 14555 H 1396.44 -2.93258 -1.34905 0
M  V30 14556 H 1395.49 -3.68305 0.9516 0
M  V30 14557 H 1396.8 -4.87962 1.03415 0
M  V30 14558 H 1395.95 -5.97522 -1.05128 0
M  V30 14559 H 1394.69 -4.72155 -1.2215 0
M  V30 14560 H 1393.7 -5.41031 0.978046 0
M  V30 14561 H 1394.92 -6.69557 1.13448 0
M  V30 14562 H 1392.87 -6.46747 -1.09792 0
M  V30 14563 H 1392.79 -7.55592 0.248249 0
M  V30 14564 H 1394.05 -7.73973 -0.926631 0
M  V30 14565 N 1398.28 -0.588812 -1.46187 0
M  V30 14566 C 1399.7 -0.250962 -1.57615 0
M  V30 14567 C 1399.9 1.2467 -1.58302 0
M  V30 14568 O 1398.95 2.02876 -1.50325 0
M  V30 14569 C 1400.27 -0.905561 -2.8674 0
M  V30 14570 C 1401.82 -0.879721 -3.00383 0
M  V30 14571 C 1402.29 -1.51398 -4.32253 0
M  V30 14572 N 1403.78 -1.4786 -4.38967 0
M  V30 14573 C 1404.52 -1.93868 -5.39632 0
M  V30 14574 N 1404.01 -2.47876 -6.46938 0
M  V30 14575 N 1405.81 -1.84748 -5.30872 0
M  V30 14576 H 1397.96 -1.56148 -1.43985 0
M  V30 14577 H 1400.22 -0.653028 -0.68721 0
M  V30 14578 H 1399.93 -1.95935 -2.92066 0
M  V30 14579 H 1399.8 -0.417456 -3.74883 0
M  V30 14580 H 1402.19 0.165466 -2.94636 0
M  V30 14581 H 1402.27 -1.40591 -2.137 0
M  V30 14582 H 1401.91 -2.55839 -4.38758 0
M  V30 14583 H 1401.84 -0.962965 -5.17721 0
M  V30 14584 H 1404.33 -1.08387 -3.62023 0
M  V30 14585 H 1404.65 -2.80824 -7.1997 0
M  V30 14586 H 1402.99 -2.51905 -6.47741 0
M  V30 14587 H 1406.18 -1.42307 -4.45944 0
M  V30 14588 H 1406.35 -2.20919 -6.09179 0
M  V30 14589 N 1399.76 1.54172 -0.326923 0
M  V30 14590 C 1401.17 1.86009 0.160446 0
M  V30 14591 C 1401.52 1.24851 1.51349 0
M  V30 14592 O 1400.65 0.555804 2.09141 0
M  V30 14593 C 1401.24 3.37488 0.297909 0
M  V30 14594 C 1399.8 3.69263 0.7295 0
M  V30 14595 C 1398.95 2.76911 -0.146778 0
M  V30 14596 H 1401.9 1.48972 -0.547093 0
M  V30 14597 H 1401.92 3.63388 1.12825 0
M  V30 14598 H 1401.43 3.81971 -0.687007 0
M  V30 14599 H 1399.53 3.30314 1.72404 0
M  V30 14600 H 1399.65 4.76149 0.53092 0
M  V30 14601 H 1398.01 2.51876 0.378212 0
M  V30 14602 H 1398.79 3.24221 -1.12852 0
M  V30 14603 N 1401.24 0.0551678 1.57503 0
M  V30 14604 C 1402.49 -0.6165 1.92467 0
M  V30 14605 C 1402.81 -1.71147 0.934552 0
M  V30 14606 O 1402.08 -1.9589 -0.0199649 0
M  V30 14607 H 1400.66 -0.230714 0.710479 0
M  V30 14608 H 1403.32 0.109111 1.94594 0
M  V30 14609 H 1402.42 -1.05254 2.93816 0
M  V30 14610 N 1402.72 -1.56081 -0.218252 0
M  V30 14611 C 1403.68 -1.91851 -1.25402 0
M  V30 14612 C 1404.68 -0.797399 -1.39636 0
M  V30 14613 O 1405.87 -1.06511 -1.37844 0
M  V30 14614 C 1403 -2.17223 -2.6273 0
M  V30 14615 H 1404.19 -2.84493 -0.948882 0
M  V30 14616 H 1401.75 -1.49414 -0.458809 0
M  V30 14617 H 1402.48 -1.27144 -2.98337 0
M  V30 14618 H 1402.27 -2.98899 -2.53775 0
M  V30 14619 H 1403.76 -2.45981 -3.37466 0
M  V30 14620 N 1404.2 0.485086 -1.49949 0
M  V30 14621 C 1405.44 1.23999 -1.60474 0
M  V30 14622 C 1405.77 1.91904 -0.297736 0
M  V30 14623 O 1405.05 1.81472 0.699857 0
M  V30 14624 C 1405.33 2.2946 -2.77525 0
M  V30 14625 C 1405.19 1.65952 -4.18067 0
M  V30 14626 C 1406.5 3.30893 -2.90169 0
M  V30 14627 H 1403.62 0.449462 -0.584083 0
M  V30 14628 H 1406.27 0.535795 -1.82289 0
M  V30 14629 H 1404.42 2.89521 -2.59056 0
M  V30 14630 H 1406.09 1.09596 -4.48092 0
M  V30 14631 H 1404.33 0.963079 -4.22974 0
M  V30 14632 H 1405 2.42521 -4.9587 0
M  V30 14633 H 1407.48 2.8084 -3.07031 0
M  V30 14634 H 1406.35 4.02027 -3.73718 0
M  V30 14635 H 1406.61 3.94178 -2.0019 0
M  V30 14636 N 1405.67 1.39291 0.737279 0
M  V30 14637 C 1406.6 1.40562 1.86452 0
M  V30 14638 C 1407.58 0.269283 1.67955 0
M  V30 14639 O 1408.77 0.474769 1.88307 0
M  V30 14640 C 1405.9 1.2461 3.24175 0
M  V30 14641 C 1404.85 2.35619 3.57306 0
M  V30 14642 C 1404.18 2.04758 4.93941 0
M  V30 14643 C 1405.48 3.77927 3.60512 0
M  V30 14644 H 1407.17 2.34896 1.85646 0
M  V30 14645 H 1404.72 1.13065 0.891756 0
M  V30 14646 H 1406.67 1.2412 4.02706 0
M  V30 14647 H 1405.4 0.267438 3.25503 0
M  V30 14648 H 1404.06 2.35322 2.81104 0
M  V30 14649 H 1403.7 1.05336 4.91847 0
M  V30 14650 H 1403.4 2.79117 5.17076 0
M  V30 14651 H 1404.93 2.05915 5.74832 0
M  V30 14652 H 1406.34 3.80166 4.29123 0
M  V30 14653 H 1404.74 4.51626 3.95164 0
M  V30 14654 H 1405.81 4.09068 2.60368 0
M  V30 14655 N 1407.15 -0.967221 1.24429 0
M  V30 14656 C 1408.06 -2.09582 1.05417 0
M  V30 14657 C 1409.08 -1.73999 -0.00516127 0
M  V30 14658 O 1410.25 -2.00472 0.193115 0
M  V30 14659 C 1407.32 -3.40327 0.661697 0
M  V30 14660 C 1406.38 -3.89854 1.79756 0
M  V30 14661 C 1405.61 -5.1436 1.42372 0
M  V30 14662 O 1405.84 -5.69536 0.313754 0
M  V30 14663 O 1404.77 -5.58283 2.24952 0
M  V30 14664 H 1408.6 -2.28517 2.00034 0
M  V30 14665 H 1406.18 -1.07978 1.03253 0
M  V30 14666 H 1408.06 -4.18943 0.454369 0
M  V30 14667 H 1406.74 -3.22691 -0.255348 0
M  V30 14668 H 1405.64 -3.12297 2.05964 0
M  V30 14669 H 1406.98 -4.11967 2.69339 0
M  V30 14670 N 1408.63 -1.05812 -1.16797 0
M  V30 14671 C 1409.59 -0.668766 -2.19226 0
M  V30 14672 C 1410.59 0.28299 -1.5829 0
M  V30 14673 O 1411.78 0.0660233 -1.74075 0
M  V30 14674 C 1408.91 0.0167379 -3.40896 0
M  V30 14675 H 1410.11 -1.57543 -2.55187 0
M  V30 14676 H 1407.66 -0.852753 -1.30988 0
M  V30 14677 H 1408.4 0.936382 -3.10487 0
M  V30 14678 H 1408.18 -0.667576 -3.86375 0
M  V30 14679 H 1409.67 0.275041 -4.16693 0
M  V30 14680 N 1410.11 1.33347 -0.840014 0
M  V30 14681 C 1411.36 1.97354 -0.435412 0
M  V30 14682 C 1411.68 1.66866 1.009 0
M  V30 14683 O 1410.95 0.968186 1.70303 0
M  V30 14684 H 1409.53 0.730096 -0.158017 0
M  V30 14685 H 1412.19 1.6269 -1.07322 0
M  V30 14686 H 1411.28 3.0688 -0.56841 0
M  V30 14687 N 1411.59 0.596556 1.45873 0
M  V30 14688 C 1412.83 0.090321 2.042 0
M  V30 14689 C 1413.19 -1.25123 1.45631 0
M  V30 14690 O 1414.39 -1.84752 1.95243 0
M  V30 14691 C 1412.66 0.0400377 3.57378 0
M  V30 14692 S 1414.22 -0.40661 4.36912 0
M  V30 14693 H 1411.04 0.0441976 0.709625 0
M  V30 14694 H 1413.64 0.792175 1.78731 0
M  V30 14695 H 1412.34 1.02013 3.97519 0
M  V30 14696 H 1411.88 -0.684156 3.87405 0
M  V30 14697 H 1413.89 -1.65849 4.67663 0
M  V30 14698 N 1413.06 -1.53996 0.335095 0
M  V30 14699 C 1414.31 -2.01069 -0.264388 0
M  V30 14700 C 1414.64 -1.22271 -1.50876 0
M  V30 14701 O 1413.92 -0.30806 -1.92045 0
M  V30 14702 C 1414.2 -3.55283 -0.587 0
M  V30 14703 C 1414.05 -4.44799 0.668877 0
M  V30 14704 C 1415.37 -4.17238 -1.40003 0
M  V30 14705 H 1412.49 -0.730901 -0.0946202 0
M  V30 14706 H 1415.13 -1.84497 0.453958 0
M  V30 14707 H 1413.28 -3.69536 -1.19899 0
M  V30 14708 H 1414.96 -4.42398 1.30698 0
M  V30 14709 H 1413.2 -4.14005 1.29547 0
M  V30 14710 H 1413.87 -5.5056 0.398523 0
M  V30 14711 H 1416.35 -4.06631 -0.88262 0
M  V30 14712 H 1415.22 -5.2523 -1.59451 0
M  V30 14713 H 1415.48 -3.71309 -2.39962 0
M  V30 14714 N 1414.54 -0.0635198 -1.57472 0
M  V30 14715 C 1415.79 0.608384 -1.93459 0
M  V30 14716 C 1416.12 1.6976 -0.943141 0
M  V30 14717 O 1415.4 1.94478 0.0289567 0
M  V30 14718 C 1415.68 1.19302 -3.39763 0
M  V30 14719 C 1415.53 0.11102 -4.49663 0
M  V30 14720 C 1416.85 2.101 -3.86712 0
M  V30 14721 H 1413.97 0.219688 -0.703496 0
M  V30 14722 H 1416.61 -0.127803 -1.8957 0
M  V30 14723 H 1414.76 1.82044 -3.43209 0
M  V30 14724 H 1416.43 -0.521606 -4.58342 0
M  V30 14725 H 1414.68 -0.559408 -4.30178 0
M  V30 14726 H 1415.35 0.560332 -5.49149 0
M  V30 14727 H 1417.82 1.57305 -3.8522 0
M  V30 14728 H 1416.7 2.47945 -4.89708 0
M  V30 14729 H 1416.96 3.00603 -3.24177 0
M  V30 14730 N 1416.02 1.56195 0.209972 0
M  V30 14731 C 1416.98 1.92514 1.24383 0
M  V30 14732 C 1417.98 0.804793 1.39211 0
M  V30 14733 O 1419.17 1.0724 1.37278 0
M  V30 14734 C 1416.3 2.18613 2.61574 0
M  V30 14735 H 1417.5 2.84992 0.933781 0
M  V30 14736 H 1415.05 1.49656 0.450878 0
M  V30 14737 H 1415.79 1.28724 2.97659 0
M  V30 14738 H 1415.57 3.00241 2.52186 0
M  V30 14739 H 1417.06 2.47767 3.36156 0
M  V30 14740 N 1417.5 -0.477127 1.50204 0
M  V30 14741 C 1418.91 -0.81037 1.37496 0
M  V30 14742 C 1419.11 -1.96937 0.426399 0
M  V30 14743 O 1418.17 -2.52148 -0.133197 0
M  V30 14744 C 1419.48 -1.12811 2.78737 0
M  V30 14745 C 1421.03 -1.23492 2.87608 0
M  V30 14746 C 1421.51 -1.58583 4.29669 0
M  V30 14747 N 1423 -1.65586 4.32591 0
M  V30 14748 C 1423.73 -1.94231 5.39502 0
M  V30 14749 N 1423.23 -2.20936 6.56627 0
M  V30 14750 N 1425.02 -1.95682 5.26939 0
M  V30 14751 H 1417.17 0.286771 2.10455 0
M  V30 14752 H 1419.43 0.0657649 0.945716 0
M  V30 14753 H 1419.14 -0.349616 3.49958 0
M  V30 14754 H 1419.01 -2.0658 3.15602 0
M  V30 14755 H 1421.4 -2.0041 2.1661 0
M  V30 14756 H 1421.48 -0.277182 2.54294 0
M  V30 14757 H 1421.13 -0.822071 5.01203 0
M  V30 14758 H 1421.06 -2.55497 4.60466 0
M  V30 14759 H 1423.55 -1.47012 3.48132 0
M  V30 14760 H 1423.86 -2.42049 7.33916 0
M  V30 14761 H 1422.21 -2.18341 6.59812 0
M  V30 14762 H 1425.4 -1.74311 4.34434 0
M  V30 14763 H 1425.57 -2.1767 6.10347 0
M  V30 14764 N 1418.98 -1.3968 -0.729882 0
M  V30 14765 C 1419.91 -1.41549 -1.85704 0
M  V30 14766 C 1420.89 -0.278186 -1.6781 0
M  V30 14767 O 1422.07 -0.484749 -1.88053 0
M  V30 14768 C 1419.2 -1.26327 -3.2351 0
M  V30 14769 C 1418.16 -2.37511 -3.56051 0
M  V30 14770 C 1417.48 -2.07375 -4.92849 0
M  V30 14771 C 1418.78 -3.79833 -3.58502 0
M  V30 14772 H 1420.48 -2.35877 -1.84398 0
M  V30 14773 H 1418.02 -1.13536 -0.885747 0
M  V30 14774 H 1419.98 -1.26254 -4.02042 0
M  V30 14775 H 1418.7 -0.284697 -3.25357 0
M  V30 14776 H 1417.36 -2.36809 -2.79852 0
M  V30 14777 H 1417.01 -1.07943 -4.91281 0
M  V30 14778 H 1416.71 -2.81855 -5.15588 0
M  V30 14779 H 1418.23 -2.08961 -5.73731 0
M  V30 14780 H 1419.64 -3.82436 -4.27101 0
M  V30 14781 H 1418.04 -4.53715 -3.92763 0
M  V30 14782 H 1419.11 -4.10443 -2.58195 0
M  V30 14783 N 1420.45 0.960609 -1.2494 0
M  V30 14784 C 1421.36 2.0902 -1.06527 0
M  V30 14785 C 1422.38 1.74 -0.00406641 0
M  V30 14786 O 1423.56 2.00367 -0.203744 0
M  V30 14787 C 1420.62 3.39971 -0.679736 0
M  V30 14788 C 1419.68 3.88895 -1.81821 0
M  V30 14789 C 1418.92 5.13597 -1.45098 0
M  V30 14790 O 1419.14 5.69362 -0.343954 0
M  V30 14791 O 1418.07 5.57083 -2.27909 0
M  V30 14792 H 1421.9 2.27453 -2.01243 0
M  V30 14793 H 1419.48 1.07429 -1.03824 0
M  V30 14794 H 1421.37 4.18696 -0.47658 0
M  V30 14795 H 1420.04 3.22822 0.238231 0
M  V30 14796 H 1418.95 3.11201 -2.07617 0
M  V30 14797 H 1420.28 4.10533 -2.7152 0
M  V30 14798 N 1421.93 1.0643 1.16234 0
M  V30 14799 C 1422.86 0.697605 2.22836 0
M  V30 14800 C 1423.84 -0.310563 1.67241 0
M  V30 14801 O 1425.03 -0.185385 1.93313 0
M  V30 14802 C 1422.16 0.0847097 3.47197 0
M  V30 14803 C 1421.11 1.019 4.15693 0
M  V30 14804 C 1420.44 0.269339 5.34021 0
M  V30 14805 C 1421.74 2.34861 4.66516 0
M  V30 14806 H 1423.43 1.58883 2.53765 0
M  V30 14807 H 1420.98 0.765388 1.21975 0
M  V30 14808 H 1422.93 -0.1837 4.20999 0
M  V30 14809 H 1421.66 -0.84154 3.15572 0
M  V30 14810 H 1420.31 1.27218 3.43818 0
M  V30 14811 H 1419.96 -0.660072 4.9865 0
M  V30 14812 H 1419.66 0.892001 5.8079 0
M  V30 14813 H 1421.19 0.00850775 6.10599 0
M  V30 14814 H 1422.6 2.13922 5.31893 0
M  V30 14815 H 1421 2.92637 5.23912 0
M  V30 14816 H 1422.07 2.97834 3.82653 0
M  V30 14817 N 1423.41 -1.329 0.847073 0
M  V30 14818 C 1424.69 -1.921 0.368351 0
M  V30 14819 C 1425.07 -1.77205 -1.14724 0
M  V30 14820 O 1424.42 -1.16547 -1.96543 0
M  V30 14821 C 1424.63 -3.39125 0.824326 0
M  V30 14822 C 1425.97 -4.16267 0.837097 0
M  V30 14823 O 1427 -3.47812 0.768466 0
M  V30 14824 O 1425.86 -5.38487 0.932389 0
M  V30 14825 H 1422.95 -0.820187 0.105936 0
M  V30 14826 H 1425.5 -1.41719 0.933471 0
M  V30 14827 H 1424.27 -3.43875 1.86723 0
M  V30 14828 H 1423.89 -3.96898 0.236233 0
M  V30 14829 N 1424.89 -0.604284 -1.45555 0
M  V30 14830 C 1426.17 -0.0303285 -1.95576 0
M  V30 14831 C 1426.55 1.43661 -1.54676 0
M  V30 14832 O 1425.89 2.13747 -0.807731 0
M  V30 14833 C 1426.1 -0.22497 -3.48274 0
M  V30 14834 C 1427.45 -0.104042 -4.24473 0
M  V30 14835 O 1428.48 -0.154919 -3.55863 0
M  V30 14836 O 1427.33 0.0136297 -5.46498 0
M  V30 14837 H 1424.43 0.0376106 -0.826144 0
M  V30 14838 H 1426.97 -0.674114 -1.55736 0
M  V30 14839 H 1425.75 -1.24391 -3.71002 0
M  V30 14840 H 1425.37 0.454234 -3.94997 0
M  V30 14841 N 1426.37 1.53816 -0.343257 0
M  V30 14842 C 1427.78 1.86169 0.140709 0
M  V30 14843 C 1428.13 1.26449 1.50017 0
M  V30 14844 O 1427.25 0.577955 2.08539 0
M  V30 14845 C 1427.85 3.37785 0.262097 0
M  V30 14846 C 1426.41 3.70016 0.690294 0
M  V30 14847 C 1425.55 2.7674 -0.17614 0
M  V30 14848 H 1428.51 1.48383 -0.562863 0
M  V30 14849 H 1428.53 3.64564 1.08964 0
M  V30 14850 H 1428.04 3.81221 -0.727481 0
M  V30 14851 H 1426.14 3.32124 1.68891 0
M  V30 14852 H 1426.25 4.76686 0.480388 0
M  V30 14853 H 1424.62 2.52263 0.351476 0
M  V30 14854 H 1425.4 3.23006 -1.16285 0
M  V30 14855 N 1427.84 0.0718701 1.57436 0
M  V30 14856 C 1429.07 -0.609701 1.98236 0
M  V30 14857 C 1429.49 -1.6235 0.949959 0
M  V30 14858 O 1428.85 -1.81103 -0.0844281 0
M  V30 14859 C 1428.9 -1.2547 3.38068 0
M  V30 14860 O 1428 -2.37055 3.37459 0
M  V30 14861 H 1427.35 -0.15679 0.645223 0
M  V30 14862 H 1429.88 0.146407 2.04076 0
M  V30 14863 H 1429.89 -1.60152 3.75254 0
M  V30 14864 H 1428.56 -0.511842 4.12738 0
M  V30 14865 H 1427.14 -2.04165 3.12043 0
M  V30 14866 N 1429.32 -1.56304 -0.201686 0
M  V30 14867 C 1430.27 -1.94021 -1.24999 0
M  V30 14868 C 1431.24 -0.799926 -1.45569 0
M  V30 14869 O 1432.42 -1.05752 -1.58811 0
M  V30 14870 C 1429.56 -2.27935 -2.59113 0
M  V30 14871 C 1428.68 -3.54995 -2.46176 0
M  V30 14872 C 1427.81 -3.78262 -3.72949 0
M  V30 14873 C 1426.85 -4.9877 -3.54817 0
M  V30 14874 N 1425.99 -5.18325 -4.73586 0
M  V30 14875 H 1430.83 -2.834 -0.92134 0
M  V30 14876 H 1428.37 -1.40252 -0.44359 0
M  V30 14877 H 1430.32 -2.45613 -3.37239 0
M  V30 14878 H 1428.95 -1.41705 -2.90034 0
M  V30 14879 H 1428.01 -3.45401 -1.59381 0
M  V30 14880 H 1429.32 -4.43277 -2.28708 0
M  V30 14881 H 1428.47 -3.96144 -4.59516 0
M  V30 14882 H 1427.21 -2.88299 -3.93364 0
M  V30 14883 H 1426.22 -4.80818 -2.66635 0
M  V30 14884 H 1427.44 -5.90237 -3.35854 0
M  V30 14885 H 1425.39 -4.31308 -4.94277 0
M  V30 14886 H 1425.3 -6.00774 -4.58919 0
M  V30 14887 H 1426.57 -5.40659 -5.61523 0
M  V30 14888 N 1430.8 0.469154 -1.50455 0
M  V30 14889 C 1432.05 1.2229 -1.6178 0
M  V30 14890 C 1432.38 1.91577 -0.318073 0
M  V30 14891 O 1431.65 1.82205 0.68057 0
M  V30 14892 C 1431.94 2.26504 -2.79943 0
M  V30 14893 C 1431.79 1.61509 -4.19804 0
M  V30 14894 C 1433.11 3.27796 -2.93662 0
M  V30 14895 H 1430.23 0.443241 -0.588817 0
M  V30 14896 H 1432.87 0.516431 -1.82847 0
M  V30 14897 H 1431.02 2.86757 -2.62112 0
M  V30 14898 H 1432.69 1.04838 -4.49229 0
M  V30 14899 H 1430.94 0.918162 -4.23972 0
M  V30 14900 H 1431.61 2.37248 -4.98415 0
M  V30 14901 H 1434.08 2.77568 -3.09992 0
M  V30 14902 H 1432.96 3.98041 -3.77961 0
M  V30 14903 H 1433.22 3.92033 -2.04359 0
M  V30 14904 N 1432.28 1.40065 0.722464 0
M  V30 14905 C 1433.23 1.36267 1.82798 0
M  V30 14906 C 1434.21 0.241375 1.59079 0
M  V30 14907 O 1435.4 0.479929 1.70369 0
M  V30 14908 C 1432.53 1.22086 3.20858 0
M  V30 14909 C 1431.62 2.38969 3.50364 0
M  V30 14910 N 1432.01 3.6445 3.50727 0
M  V30 14911 C 1430.31 2.32199 3.80788 0
M  V30 14912 C 1431.01 4.41816 3.78383 0
M  V30 14913 N 1429.99 3.71565 3.96787 0
M  V30 14914 H 1433.79 2.31236 1.81403 0
M  V30 14915 H 1431.3 1.33739 0.92128 0
M  V30 14916 H 1433.3 1.17448 4.00014 0
M  V30 14917 H 1431.96 0.280787 3.23484 0
M  V30 14918 H 1432.97 3.97705 3.3174 0
M  V30 14919 H 1429.65 1.46521 3.90945 0
M  V30 14920 H 1431.04 5.5064 3.85027 0
M  V30 14921 N 1433.76 -0.95397 1.25448 0
M  V30 14922 C 1435.17 -1.51337 1.09335 0
M  V30 14923 C 1435.52 -1.93393 -0.330698 0
M  V30 14924 O 1434.64 -1.78681 -1.22074 0
M  V30 14925 C 1435.24 -2.75024 1.97857 0
M  V30 14926 C 1433.8 -3.27274 1.85927 0
M  V30 14927 C 1432.95 -2.00108 1.91969 0
M  V30 14928 H 1435.9 -0.770795 1.38724 0
M  V30 14929 H 1435.92 -3.48867 1.51894 0
M  V30 14930 H 1435.43 -2.44383 3.01494 0
M  V30 14931 H 1433.53 -3.62734 0.851767 0
M  V30 14932 H 1433.64 -3.95245 2.70773 0
M  V30 14933 H 1432.01 -2.15438 1.35862 0
M  V30 14934 H 1432.79 -1.71816 2.97211 0
M  V30 14935 N 1435.24 -1.07045 -1.15668 0
M  V30 14936 C 1436.2 -0.69198 -2.18505 0
M  V30 14937 C 1437.2 0.266185 -1.58582 0
M  V30 14938 O 1438.39 0.0475566 -1.74135 0
M  V30 14939 C 1435.52 -0.0194196 -3.40894 0
M  V30 14940 H 1436.71 -1.60241 -2.53501 0
M  V30 14941 H 1434.27 -0.866598 -1.30076 0
M  V30 14942 H 1435 0.903398 -3.11463 0
M  V30 14943 H 1434.79 -0.708519 -3.85645 0
M  V30 14944 H 1436.28 0.230829 -4.16962 0
M  V30 14945 N 1436.71 1.32449 -0.85411 0
M  V30 14946 C 1437.62 2.32658 -0.301221 0
M  V30 14947 C 1438.64 1.64025 0.580673 0
M  V30 14948 O 1439.82 1.95568 0.481172 0
M  V30 14949 C 1436.88 3.43049 0.501803 0
M  V30 14950 C 1435.94 4.27374 -0.406166 0
M  V30 14951 C 1435.17 5.32494 0.358627 0
M  V30 14952 O 1435.4 5.4783 1.58865 0
M  V30 14953 O 1434.33 6.0127 -0.275291 0
M  V30 14954 H 1438.16 2.81838 -1.13143 0
M  V30 14955 H 1435.74 1.36063 -0.617032 0
M  V30 14956 H 1437.62 4.10375 0.957608 0
M  V30 14957 H 1436.3 2.9606 1.30882 0
M  V30 14958 H 1435.21 3.6286 -0.910136 0
M  V30 14959 H 1436.54 4.77887 -1.17835 0
M  V30 14960 N 1438.19 0.611994 1.45232 0
M  V30 14961 C 1439.6 0.193464 1.85695 0
M  V30 14962 C 1439.95 -1.25069 1.5117 0
M  V30 14963 O 1439.08 -1.94894 0.940497 0
M  V30 14964 C 1439.67 0.344334 3.37046 0
M  V30 14965 C 1438.23 -0.0195378 3.76395 0
M  V30 14966 C 1437.38 0.666714 2.69166 0
M  V30 14967 H 1440.33 0.818395 1.35971 0
M  V30 14968 H 1440.35 -0.422209 3.7815 0
M  V30 14969 H 1439.86 1.3955 3.62143 0
M  V30 14970 H 1437.96 -1.06971 3.56915 0
M  V30 14971 H 1438.08 0.377184 4.77613 0
M  V30 14972 H 1436.44 0.103912 2.54488 0
M  V30 14973 H 1437.22 1.7201 2.97099 0
M  V30 14974 N 1439.67 -1.53632 0.351409 0
M  V30 14975 C 1440.92 -2.0104 -0.242687 0
M  V30 14976 C 1441.24 -1.23906 -1.49925 0
M  V30 14977 O 1440.5 -0.316927 -1.93117 0
M  V30 14978 C 1440.8 -3.5242 -0.594561 0
M  V30 14979 C 1440.46 -4.47333 0.566031 0
M  V30 14980 C 1439.13 -4.73001 0.884515 0
M  V30 14981 C 1441.48 -5.03566 1.34426 0
M  V30 14982 C 1438.81 -5.52156 1.98346 0
M  V30 14983 C 1441.16 -5.8392 2.43351 0
M  V30 14984 C 1439.82 -6.0788 2.7575 0
M  V30 14985 H 1439.09 -0.735659 -0.0888056 0
M  V30 14986 H 1441.74 -1.85362 0.480948 0
M  V30 14987 H 1440.04 -3.65971 -1.39902 0
M  V30 14988 H 1441.74 -3.86565 -1.06625 0
M  V30 14989 H 1438.33 -4.27494 0.307751 0
M  V30 14990 H 1442.52 -4.83694 1.11146 0
M  V30 14991 H 1437.77 -5.68942 2.23863 0
M  V30 14992 H 1441.95 -6.26505 3.04079 0
M  V30 14993 H 1439.57 -6.69001 3.61029 0
M  V30 14994 N 1441.15 -0.0802183 -1.57396 0
M  V30 14995 C 1442.38 0.595754 -1.98137 0
M  V30 14996 C 1442.79 1.62638 -0.958871 0
M  V30 14997 O 1442.15 1.82422 0.0534316 0
M  V30 14998 C 1442.2 1.2568 -3.38949 0
M  V30 14999 O 1441.92 0.267417 -4.37283 0
M  V30 15000 C 1443.42 2.0198 -3.94612 0
M  V30 15001 H 1440.64 0.160853 -0.651435 0
M  V30 15002 H 1443.18 -0.155111 -2.03911 0
M  V30 15003 H 1441.34 1.9587 -3.34236 0
M  V30 15004 H 1441.75 0.742695 -5.19215 0
M  V30 15005 H 1443.23 2.43613 -4.95335 0
M  V30 15006 H 1443.7 2.87973 -3.31614 0
M  V30 15007 H 1444.31 1.36639 -4.02753 0
M  V30 15008 N 1442.63 1.56409 0.193394 0
M  V30 15009 C 1443.87 1.80367 0.911717 0
M  V30 15010 C 1444.19 0.653561 1.83721 0
M  V30 15011 O 1443.46 -0.328001 1.93135 0
M  V30 15012 H 1442.04 0.665316 0.339652 0
M  V30 15013 H 1444.71 1.93887 0.198496 0
M  V30 15014 H 1443.8 2.7359 1.50182 0
M  V30 15015 N 1444.1 -0.461169 1.50702 0
M  V30 15016 C 1445.01 -1.58355 1.73092 0
M  V30 15017 C 1446.03 -1.62795 0.61431 0
M  V30 15018 O 1447.21 -1.8048 0.893806 0
M  V30 15019 C 1444.27 -2.94509 1.82936 0
M  V30 15020 C 1443.33 -3.00378 3.06711 0
M  V30 15021 C 1442.56 -4.30037 3.16076 0
M  V30 15022 O 1442.79 -5.21097 2.31978 0
M  V30 15023 O 1441.72 -4.41702 4.08881 0
M  V30 15024 H 1445.55 -1.42384 2.68255 0
M  V30 15025 H 1443.13 -0.641709 1.34916 0
M  V30 15026 H 1445.01 -3.75357 1.91534 0
M  V30 15027 H 1443.69 -3.10658 0.909581 0
M  V30 15028 H 1442.6 -2.18571 3.03608 0
M  V30 15029 H 1443.93 -2.89167 3.983 0
M  V30 15030 N 1445.58 -1.40446 -0.715026 0
M  V30 15031 C 1446.51 -1.43511 -1.84193 0
M  V30 15032 C 1447.49 -0.295969 -1.67505 0
M  V30 15033 O 1448.68 -0.504667 -1.87528 0
M  V30 15034 C 1445.81 -1.29751 -3.22152 0
M  V30 15035 C 1444.76 -2.41274 -3.53512 0
M  V30 15036 C 1444.09 -2.12591 -4.90621 0
M  V30 15037 C 1445.39 -3.83614 -3.54454 0
M  V30 15038 H 1447.08 -2.37819 -1.81885 0
M  V30 15039 H 1444.63 -1.14469 -0.873655 0
M  V30 15040 H 1446.58 -1.30511 -4.0068 0
M  V30 15041 H 1445.3 -0.319189 -3.25037 0
M  V30 15042 H 1443.96 -2.39764 -2.77324 0
M  V30 15043 H 1443.61 -1.13148 -4.90109 0
M  V30 15044 H 1443.31 -2.87308 -5.1257 0
M  V30 15045 H 1444.84 -2.15034 -5.71483 0
M  V30 15046 H 1446.25 -3.86945 -4.23021 0
M  V30 15047 H 1444.65 -4.57855 -3.87929 0
M  V30 15048 H 1445.72 -4.13159 -2.53827 0
M  V30 15049 N 1447.06 0.947303 -1.25952 0
M  V30 15050 C 1448.47 1.50755 -1.10136 0
M  V30 15051 C 1448.82 1.93566 0.320437 0
M  V30 15052 O 1447.95 1.79326 1.21125 0
M  V30 15053 C 1448.54 2.7397 -1.99313 0
M  V30 15054 C 1447.1 3.26283 -1.8766 0
M  V30 15055 C 1446.25 1.99088 -1.93027 0
M  V30 15056 H 1449.2 0.763427 -1.39131 0
M  V30 15057 H 1449.22 3.48057 -1.53742 0
M  V30 15058 H 1448.73 2.42781 -3.02785 0
M  V30 15059 H 1446.83 3.62277 -0.870992 0
M  V30 15060 H 1446.95 3.93803 -2.72866 0
M  V30 15061 H 1445.31 2.14714 -1.37003 0
M  V30 15062 H 1446.09 1.70237 -2.98118 0
M  V30 15063 N 1448.54 1.07657 1.15099 0
M  V30 15064 C 1449.5 0.703558 2.18135 0
M  V30 15065 C 1450.5 -0.257771 1.5872 0
M  V30 15066 O 1451.69 -0.0383211 1.74158 0
M  V30 15067 C 1448.82 0.0374978 3.40879 0
M  V30 15068 H 1450.02 1.61583 2.52648 0
M  V30 15069 H 1447.57 0.873484 1.29615 0
M  V30 15070 H 1448.3 -0.886868 3.11938 0
M  V30 15071 H 1448.09 0.728961 3.85264 0
M  V30 15072 H 1449.58 -0.208714 4.17078 0
M  V30 15073 N 1450.02 -1.31994 0.861122 0
M  V30 15074 C 1450.95 -2.27632 0.267681 0
M  V30 15075 C 1451.96 -1.52709 -0.564265 0
M  V30 15076 O 1453.15 -1.74239 -0.3877 0
M  V30 15077 C 1450.25 -3.32805 -0.639856 0
M  V30 15078 C 1449.42 -4.37116 0.157676 0
M  V30 15079 C 1448.48 -5.21832 -0.676624 0
M  V30 15080 O 1447.51 -5.69098 -0.107822 0
M  V30 15081 N 1448.71 -5.45317 -1.99022 0
M  V30 15082 H 1451.48 -2.79195 1.0895 0
M  V30 15083 H 1449.04 -1.44923 0.721733 0
M  V30 15084 H 1451.03 -3.86391 -1.20348 0
M  V30 15085 H 1449.6 -2.81351 -1.36236 0
M  V30 15086 H 1448.82 -3.83724 0.902741 0
M  V30 15087 H 1450.11 -5.03889 0.70524 0
M  V30 15088 H 1449.5 -5.08656 -2.47558 0
M  V30 15089 H 1448.06 -6.01874 -2.50182 0
M  V30 15090 N 1451.49 -0.619688 -1.44906 0
M  V30 15091 C 1452.43 0.130316 -2.28829 0
M  V30 15092 C 1453.44 0.820039 -1.40639 0
M  V30 15093 O 1454.63 0.683401 -1.649 0
M  V30 15094 C 1451.73 1.20618 -3.16709 0
M  V30 15095 C 1450.9 0.60121 -4.33248 0
M  V30 15096 C 1449.96 1.56954 -5.02247 0
M  V30 15097 O 1448.99 1.09112 -5.58644 0
M  V30 15098 N 1450.19 2.90395 -5.02644 0
M  V30 15099 H 1452.95 -0.589867 -2.93838 0
M  V30 15100 H 1450.51 -0.460028 -1.55227 0
M  V30 15101 H 1452.51 1.85404 -3.59732 0
M  V30 15102 H 1451.08 1.82873 -2.53528 0
M  V30 15103 H 1450.3 -0.225015 -3.93557 0
M  V30 15104 H 1451.58 0.177471 -5.0849 0
M  V30 15105 H 1450.98 3.31855 -4.58136 0
M  V30 15106 H 1449.54 3.50572 -5.49493 0
M  V30 15107 N 1452.97 1.53444 -0.359552 0
M  V30 15108 C 1454.2 2.05584 0.232953 0
M  V30 15109 C 1454.62 1.23347 1.42937 0
M  V30 15110 O 1453.97 0.272662 1.80452 0
M  V30 15111 C 1454.02 3.55926 0.632359 0
M  V30 15112 O 1453.74 4.35045 -0.516494 0
M  V30 15113 C 1455.25 4.24301 1.28389 0
M  V30 15114 H 1452.47 0.669676 0.042132 0
M  V30 15115 H 1455.01 1.97878 -0.516176 0
M  V30 15116 H 1453.16 3.63802 1.33141 0
M  V30 15117 H 1453.58 5.24138 -0.194906 0
M  V30 15118 H 1455.05 5.30832 1.51397 0
M  V30 15119 H 1455.53 3.77644 2.24236 0
M  V30 15120 H 1456.14 4.20661 0.626438 0
M  V30 15121 N 1454.45 0.0885642 1.57351 0
M  V30 15122 C 1455.38 -0.869946 2.16689 0
M  V30 15123 C 1456.36 -1.29878 1.09844 0
M  V30 15124 O 1457.55 -1.36684 1.37954 0
M  V30 15125 C 1454.68 -2.13148 2.74199 0
M  V30 15126 C 1453.63 -1.84149 3.86359 0
M  V30 15127 C 1452.96 -3.17075 4.30543 0
M  V30 15128 C 1454.26 -1.13357 5.09851 0
M  V30 15129 H 1455.95 -0.375578 2.97035 0
M  V30 15130 H 1453.5 -0.17921 1.42881 0
M  V30 15131 H 1455.45 -2.80634 3.14361 0
M  V30 15132 H 1454.17 -2.64856 1.91098 0
M  V30 15133 H 1452.83 -1.19063 3.46727 0
M  V30 15134 H 1452.48 -3.66658 3.44342 0
M  V30 15135 H 1452.18 -2.98457 5.06159 0
M  V30 15136 H 1453.7 -3.85731 4.73333 0
M  V30 15137 H 1455.12 -1.70941 5.47222 0
M  V30 15138 H 1453.52 -1.0494 5.90853 0
M  V30 15139 H 1454.59 -0.115273 4.84763 0
M  V30 15140 N 1455.93 -1.56509 -0.185096 0
M  V30 15141 C 1457.34 -1.71024 -0.748856 0
M  V30 15142 C 1457.69 -0.69681 -1.83409 0
M  V30 15143 O 1456.82 0.144711 -2.15916 0
M  V30 15144 C 1457.41 -3.1008 -1.36513 0
M  V30 15145 C 1455.97 -3.26325 -1.87587 0
M  V30 15146 C 1455.12 -2.66977 -0.749579 0
M  V30 15147 H 1458.07 -1.58649 0.0401175 0
M  V30 15148 H 1458.09 -3.07965 -2.23468 0
M  V30 15149 H 1457.6 -3.83816 -0.575051 0
M  V30 15150 H 1455.7 -2.57522 -2.69283 0
M  V30 15151 H 1455.81 -4.33931 -2.03078 0
M  V30 15152 H 1454.18 -2.26419 -1.16647 0
M  V30 15153 H 1454.96 -3.43288 0.0284301 0
M  V30 15154 N 1457.41 0.45317 -1.50944 0
M  V30 15155 C 1458.66 1.20076 -1.62064 0
M  V30 15156 C 1458.97 1.92709 -0.335034 0
M  V30 15157 O 1460.17 2.69543 -0.32538 0
M  V30 15158 C 1458.63 2.18283 -2.86148 0
M  V30 15159 C 1458.24 1.5137 -4.21653 0
M  V30 15160 C 1459.98 2.93572 -3.0662 0
M  V30 15161 C 1457.89 2.47968 -5.36904 0
M  V30 15162 H 1456.82 0.451894 -0.603579 0
M  V30 15163 H 1459.47 0.46937 -1.77396 0
M  V30 15164 H 1457.85 2.94789 -2.64415 0
M  V30 15165 H 1459.03 0.805295 -4.53709 0
M  V30 15166 H 1457.34 0.882935 -4.06931 0
M  V30 15167 H 1459.94 3.65903 -3.89897 0
M  V30 15168 H 1460.28 3.54003 -2.1906 0
M  V30 15169 H 1460.81 2.24175 -3.28619 0
M  V30 15170 H 1457.55 1.92249 -6.26674 0
M  V30 15171 H 1457.07 3.16907 -5.09244 0
M  V30 15172 H 1458.75 3.09428 -5.6821 0
M  V30 15173 N 1458.88 1.40823 0.707568 0
M  V30 15174 C 1459.81 1.44485 1.83429 0
M  V30 15175 C 1460.8 0.304848 1.67346 0
M  V30 15176 O 1461.98 0.514605 1.87258 0
M  V30 15177 C 1459.11 1.31458 3.21459 0
M  V30 15178 C 1458.06 2.43145 3.52228 0
M  V30 15179 C 1457.39 2.15189 4.89487 0
M  V30 15180 C 1458.69 3.85489 3.52414 0
M  V30 15181 H 1460.38 2.38781 1.80622 0
M  V30 15182 H 1457.93 1.14931 0.867572 0
M  V30 15183 H 1459.88 1.32635 3.99983 0
M  V30 15184 H 1458.61 0.336422 3.24863 0
M  V30 15185 H 1457.27 2.41231 2.76049 0
M  V30 15186 H 1456.91 1.15745 4.89502 0
M  V30 15187 H 1456.61 2.90022 5.11039 0
M  V30 15188 H 1458.14 2.18062 5.70334 0
M  V30 15189 H 1459.55 3.89183 4.20963 0
M  V30 15190 H 1457.95 4.59906 3.85495 0
M  V30 15191 H 1459.02 4.14499 2.51632 0
M  V30 15192 N 1460.36 -0.94061 1.26453 0
M  V30 15193 C 1461.61 -1.68354 1.11809 0
M  V30 15194 C 1461.93 -1.9203 -0.339037 0
M  V30 15195 O 1461.2 -1.51739 -1.23903 0
M  V30 15196 H 1459.78 -0.623916 0.410777 0
M  V30 15197 H 1462.44 -1.13014 1.58789 0
M  V30 15198 H 1461.54 -2.65706 1.63728 0
M  V30 15199 N 1461.84 -1.08266 -1.14527 0
M  V30 15200 C 1462.75 -0.723043 -2.2318 0
M  V30 15201 C 1463.77 0.269819 -1.71895 0
M  V30 15202 O 1464.94 0.114126 -2.01076 0
M  V30 15203 C 1462.01 -0.136229 -3.46432 0
M  V30 15204 C 1461.07 -1.18352 -4.12664 0
M  V30 15205 C 1460.3 -0.624612 -5.30032 0
M  V30 15206 O 1460.52 0.556377 -5.6768 0
M  V30 15207 O 1459.46 -1.37397 -5.86008 0
M  V30 15208 H 1463.28 -1.6294 -2.56289 0
M  V30 15209 H 1460.87 -0.856235 -1.22429 0
M  V30 15210 H 1462.75 0.18829 -4.20979 0
M  V30 15211 H 1461.43 0.74331 -3.1505 0
M  V30 15212 H 1460.33 -1.56054 -3.39997 0
M  V30 15213 H 1461.67 -2.03528 -4.48148 0
M  V30 15214 N 1463.32 1.31536 -0.86811 0
M  V30 15215 C 1464.27 2.28562 -0.320602 0
M  V30 15216 C 1465.24 1.55648 0.579902 0
M  V30 15217 O 1466.42 1.83804 0.51194 0
M  V30 15218 C 1463.56 3.41836 0.473499 0
M  V30 15219 C 1462.67 4.29604 -0.454311 0
M  V30 15220 C 1461.81 5.30021 0.353733 0
M  V30 15221 C 1460.85 6.09434 -0.570624 0
M  V30 15222 N 1459.99 7.01812 0.201058 0
M  V30 15223 H 1464.83 2.74782 -1.15322 0
M  V30 15224 H 1462.36 1.35179 -0.580088 0
M  V30 15225 H 1464.32 4.06248 0.949662 0
M  V30 15226 H 1462.95 2.96732 1.27083 0
M  V30 15227 H 1462 3.65653 -1.04892 0
M  V30 15228 H 1463.31 4.85048 -1.16316 0
M  V30 15229 H 1462.47 6.001 0.892484 0
M  V30 15230 H 1461.21 4.75228 1.09589 0
M  V30 15231 H 1460.21 5.38247 -1.12115 0
M  V30 15232 H 1461.44 6.66314 -1.3116 0
M  V30 15233 H 1459.38 6.49431 0.926058 0
M  V30 15234 H 1459.3 7.54668 -0.448494 0
M  V30 15235 H 1460.57 7.76157 0.7211 0
M  V30 15236 N 1464.8 0.627364 1.44575 0
M  V30 15237 C 1465.73 -0.066735 2.33405 0
M  V30 15238 C 1466.71 -0.838666 1.47988 0
M  V30 15239 O 1467.89 -0.805296 1.76716 0
M  V30 15240 C 1465.02 -1.05148 3.31 0
M  V30 15241 C 1463.98 -0.391433 4.26206 0
M  V30 15242 C 1463.3 -1.48581 5.13642 0
M  V30 15243 C 1464.6 0.699942 5.17589 0
M  V30 15244 H 1466.3 0.675029 2.91691 0
M  V30 15245 H 1463.84 0.326066 1.4026 0
M  V30 15246 H 1465.8 -1.54576 3.92026 0
M  V30 15247 H 1464.52 -1.82408 2.70915 0
M  V30 15248 H 1463.18 0.0821694 3.66508 0
M  V30 15249 H 1462.83 -2.2492 4.49911 0
M  V30 15250 H 1462.53 -1.04957 5.7815 0
M  V30 15251 H 1464.05 -1.98198 5.77538 0
M  V30 15252 H 1465.47 0.288911 5.72572 0
M  V30 15253 H 1463.86 1.0591 5.9068 0
M  V30 15254 H 1464.93 1.5686 4.58828 0
M  V30 15255 N 1466.28 -1.53251 0.367684 0
M  V30 15256 C 1467.23 -2.22578 -0.494287 0
M  V30 15257 C 1468.21 -1.22175 -1.047 0
M  V30 15258 O 1469.4 -1.47613 -0.976696 0
M  V30 15259 C 1466.53 -3.02007 -1.63238 0
M  V30 15260 C 1465.62 -4.09788 -1.09244 0
M  V30 15261 N 1466.01 -5.05048 -0.275665 0
M  V30 15262 C 1464.31 -4.24532 -1.36705 0
M  V30 15263 C 1465.01 -5.81696 0.0201973 0
M  V30 15264 N 1463.98 -5.40518 -0.577991 0
M  V30 15265 H 1467.78 -2.93583 0.136532 0
M  V30 15266 H 1465.3 -1.61446 0.175813 0
M  V30 15267 H 1467.3 -3.50193 -2.26209 0
M  V30 15268 H 1465.96 -2.32533 -2.26624 0
M  V30 15269 H 1466.97 -5.1783 0.0853053 0
M  V30 15270 H 1463.64 -3.66285 -2.00354 0
M  V30 15271 H 1465.03 -6.68444 0.680622 0
M  V30 15272 N 1467.75 -0.0969077 -1.57302 0
M  V30 15273 C 1468.69 0.891431 -2.11154 0
M  V30 15274 C 1469.7 1.24482 -1.04919 0
M  V30 15275 O 1470.89 1.19762 -1.3236 0
M  V30 15276 C 1467.99 2.19998 -2.57787 0
M  V30 15277 C 1467.16 2.02165 -3.87876 0
M  V30 15278 C 1466.22 3.16549 -4.20337 0
M  V30 15279 O 1465.25 2.90432 -4.89528 0
M  V30 15280 N 1466.45 4.42369 -3.75885 0
M  V30 15281 H 1469.21 0.431477 -2.96578 0
M  V30 15282 H 1466.77 0.0881458 -1.6166 0
M  V30 15283 H 1468.77 2.95472 -2.76547 0
M  V30 15284 H 1467.34 2.57412 -1.77364 0
M  V30 15285 H 1466.56 1.11011 -3.78246 0
M  V30 15286 H 1467.84 1.87529 -4.7298 0
M  V30 15287 H 1467.24 4.66469 -3.20036 0
M  V30 15288 H 1465.8 5.14787 -3.99797 0
M  V30 15289 N 1469.23 1.56605 0.176793 0
M  V30 15290 C 1470.48 1.81952 0.895627 0
M  V30 15291 C 1470.81 0.673893 1.82133 0
M  V30 15292 O 1470.09 -0.324494 1.91774 0
M  V30 15293 C 1470.37 3.17658 1.69604 0
M  V30 15294 C 1470.22 4.4274 0.793834 0
M  V30 15295 C 1471.54 3.50246 2.66488 0
M  V30 15296 H 1468.66 0.661884 0.324159 0
M  V30 15297 H 1471.3 1.89307 0.162092 0
M  V30 15298 H 1469.45 3.11518 2.3214 0
M  V30 15299 H 1471.12 4.60942 0.181775 0
M  V30 15300 H 1469.37 4.33681 0.101566 0
M  V30 15301 H 1470.04 5.34231 1.38927 0
M  V30 15302 H 1472.51 3.56804 2.1408 0
M  V30 15303 H 1471.39 4.46286 3.19562 0
M  V30 15304 H 1471.65 2.7467 3.46423 0
M  V30 15305 N 1470.71 -0.445159 1.51182 0
M  V30 15306 C 1471.96 -1.19524 1.63463 0
M  V30 15307 C 1472.28 -1.91377 0.347136 0
M  V30 15308 O 1471.54 -1.83932 -0.668408 0
M  V30 15309 C 1471.84 -2.24274 2.78273 0
M  V30 15310 C 1471.5 -1.6949 4.17833 0
M  V30 15311 C 1470.17 -1.54271 4.558 0
M  V30 15312 C 1472.52 -1.29128 5.04951 0
M  V30 15313 C 1469.85 -0.971532 5.786 0
M  V30 15314 C 1472.2 -0.734426 6.28322 0
M  V30 15315 C 1470.86 -0.569079 6.6507 0
M  V30 15316 H 1470.13 -0.437369 0.598155 0
M  V30 15317 H 1472.78 -0.48742 1.85193 0
M  V30 15318 H 1471.08 -3.01065 2.50734 0
M  V30 15319 H 1472.78 -2.82117 2.84975 0
M  V30 15320 H 1469.37 -1.82309 3.87894 0
M  V30 15321 H 1473.56 -1.39709 4.7623 0
M  V30 15322 H 1468.81 -0.831117 6.05725 0
M  V30 15323 H 1472.99 -0.413133 6.95173 0
M  V30 15324 H 1470.61 -0.124355 7.60098 0
M  V30 15325 N 1472.19 -1.41197 -0.700089 0
M  V30 15326 C 1473.14 -1.39158 -1.80607 0
M  V30 15327 C 1474.12 -0.266653 -1.58675 0
M  V30 15328 O 1475.31 -0.506973 -1.69584 0
M  V30 15329 C 1472.44 -1.27176 -3.18875 0
M  V30 15330 C 1471.53 -2.44513 -3.46517 0
M  V30 15331 N 1471.92 -3.69984 -3.44885 0
M  V30 15332 C 1470.22 -2.38228 -3.77046 0
M  V30 15333 C 1470.92 -4.4778 -3.71306 0
M  V30 15334 N 1469.89 -3.77831 -3.90826 0
M  V30 15335 H 1473.7 -2.34093 -1.77701 0
M  V30 15336 H 1471.21 -1.35188 -0.899887 0
M  V30 15337 H 1473.21 -1.23797 -3.98095 0
M  V30 15338 H 1471.87 -0.332215 -3.22996 0
M  V30 15339 H 1472.88 -4.02932 -3.25371 0
M  V30 15340 H 1469.56 -1.52722 -3.88564 0
M  V30 15341 H 1470.95 -5.56695 -3.76218 0
M  V30 15342 N 1473.67 0.933891 -1.2695 0
M  V30 15343 C 1474.89 1.72042 -1.15828 0
M  V30 15344 C 1475.32 1.85975 0.28193 0
M  V30 15345 O 1474.67 1.35528 1.20423 0
M  V30 15346 C 1474.72 3.10112 -1.84019 0
M  V30 15347 O 1473.83 3.96504 -1.13394 0
M  V30 15348 H 1473.17 0.527573 -0.40319 0
M  V30 15349 H 1475.7 1.16914 -1.67905 0
M  V30 15350 H 1475.71 3.60461 -1.91133 0
M  V30 15351 H 1474.38 2.99287 -2.8879 0
M  V30 15352 H 1472.96 3.54948 -1.14307 0
M  V30 15353 N 1475.14 1.08871 1.13951 0
M  V30 15354 C 1476.39 0.822504 1.85372 0
M  V30 15355 C 1476.72 -0.650183 1.82993 0
M  V30 15356 O 1476 -1.4783 1.26398 0
M  V30 15357 C 1476.28 1.35107 3.33793 0
M  V30 15358 C 1476.13 2.88945 3.44719 0
M  V30 15359 C 1477.45 0.980203 4.29045 0
M  V30 15360 H 1474.57 0.300255 0.673065 0
M  V30 15361 H 1477.21 1.34914 1.33784 0
M  V30 15362 H 1475.36 0.903108 3.77857 0
M  V30 15363 H 1477.04 3.42148 3.09407 0
M  V30 15364 H 1475.28 3.26365 2.85777 0
M  V30 15365 H 1475.95 3.21004 4.49066 0
M  V30 15366 H 1478.43 1.36646 3.93023 0
M  V30 15367 H 1477.3 1.37717 5.31343 0
M  V30 15368 H 1477.56 -0.112253 4.41957 0
M  V30 15369 N 1476.62 -1.31073 0.875073 0
M  V30 15370 C 1477.55 -2.30855 0.350468 0
M  V30 15371 C 1478.53 -1.60569 -0.561384 0
M  V30 15372 O 1479.72 -1.88242 -0.477329 0
M  V30 15373 C 1476.85 -3.44444 -0.444493 0
M  V30 15374 C 1475.8 -4.26357 0.374716 0
M  V30 15375 C 1475.13 -5.31903 -0.546243 0
M  V30 15376 C 1476.43 -4.96817 1.61153 0
M  V30 15377 H 1478.12 -2.74983 1.18427 0
M  V30 15378 H 1475.67 -1.32199 0.570909 0
M  V30 15379 H 1477.62 -4.13304 -0.82206 0
M  V30 15380 H 1476.34 -2.99096 -1.31185 0
M  V30 15381 H 1475 -3.59171 0.734295 0
M  V30 15382 H 1474.65 -4.82803 -1.41102 0
M  V30 15383 H 1474.35 -5.876 -0.00198173 0
M  V30 15384 H 1475.88 -6.03621 -0.920542 0
M  V30 15385 H 1477.29 -5.58247 1.30511 0
M  V30 15386 H 1475.69 -5.62334 2.09524 0
M  V30 15387 H 1476.76 -4.2351 2.36151 0
M  V30 15388 N 1478.1 -0.635022 -1.4424 0
M  V30 15389 C 1479.01 0.0686832 -2.34499 0
M  V30 15390 C 1480.03 0.831574 -1.52843 0
M  V30 15391 O 1481.2 0.782954 -1.85558 0
M  V30 15392 C 1478.27 1.03543 -3.30877 0
M  V30 15393 C 1477.33 0.271484 -4.28441 0
M  V30 15394 C 1476.56 1.19218 -5.20214 0
M  V30 15395 O 1476.78 2.43101 -5.16002 0
M  V30 15396 O 1475.72 0.6744 -5.9811 0
M  V30 15397 H 1479.54 -0.673781 -2.96132 0
M  V30 15398 H 1477.13 -0.395211 -1.44078 0
M  V30 15399 H 1479.01 1.59151 -3.90191 0
M  V30 15400 H 1477.69 1.75844 -2.71773 0
M  V30 15401 H 1476.59 -0.327736 -3.72662 0
M  V30 15402 H 1477.93 -0.411584 -4.90476 0
M  V30 15403 N 1479.58 1.53054 -0.375806 0
M  V30 15404 C 1480.53 2.27576 0.480838 0
M  V30 15405 C 1481.52 1.30948 1.07466 0
M  V30 15406 O 1482.73 1.48538 1.01669 0
M  V30 15407 H 1479.1 0.731641 0.173799 0
M  V30 15408 H 1481.07 2.97919 -0.169327 0
M  V30 15409 C 1479.82 3.08533 1.60321 0
M  V30 15410 H 1479.14 3.82735 1.15558 0
M  V30 15411 H 1480.58 3.63837 2.17712 0
M  V30 15412 C 1479.04 2.20004 2.55147 0
M  V30 15413 O 1479.57 1.81771 3.58221 0
M  V30 15414 N 1477.78 1.84433 2.24573 0
M  V30 15415 H 1477.33 2.15723 1.40788 0
M  V30 15416 H 1477.28 1.25488 2.88271 0
M  V30 15417 N 1481.06 0.105248 1.57248 0
M  V30 15418 C 1481.99 -0.846915 2.176 0
M  V30 15419 C 1482.97 -1.28706 1.11216 0
M  V30 15420 O 1484.15 -1.35213 1.39396 0
M  V30 15421 C 1481.28 -2.10228 2.76445 0
M  V30 15422 C 1480.24 -1.80041 3.8829 0
M  V30 15423 C 1479.56 -3.12491 4.33882 0
M  V30 15424 C 1480.86 -1.07943 5.11024 0
M  V30 15425 H 1482.56 -0.344052 2.97417 0
M  V30 15426 H 1480.1 -0.164045 1.43063 0
M  V30 15427 H 1482.06 -2.77284 3.17319 0
M  V30 15428 H 1480.78 -2.62815 1.93897 0
M  V30 15429 H 1479.44 -1.15379 3.4797 0
M  V30 15430 H 1479.09 -3.62985 3.48211 0
M  V30 15431 H 1478.79 -2.93072 5.09296 0
M  V30 15432 H 1480.31 -3.80688 4.77398 0
M  V30 15433 H 1481.72 -1.65127 5.49004 0
M  V30 15434 H 1480.12 -0.986674 5.91933 0
M  V30 15435 H 1481.19 -0.0638511 4.84858 0
M  V30 15436 N 1482.53 -1.56697 -0.168486 0
M  V30 15437 C 1483.76 -1.86292 -0.900152 0
M  V30 15438 C 1484.18 -0.690968 -1.75702 0
M  V30 15439 O 1483.53 0.339855 -1.79308 0
M  V30 15440 C 1483.59 -3.14946 -1.77457 0
M  V30 15441 O 1483.31 -4.27625 -0.952267 0
M  V30 15442 C 1484.81 -3.57908 -2.61566 0
M  V30 15443 H 1482.03 -0.618003 -0.261369 0
M  V30 15444 H 1484.57 -2.03811 -0.16773 0
M  V30 15445 H 1482.73 -2.99246 -2.4603 0
M  V30 15446 H 1483.14 -5.01057 -1.55056 0
M  V30 15447 H 1484.61 -4.50823 -3.18532 0
M  V30 15448 H 1485.09 -2.82162 -3.36573 0
M  V30 15449 H 1485.7 -3.7623 -1.98321 0
M  V30 15450 N 1484.01 0.437135 -1.51416 0
M  V30 15451 C 1484.96 1.55124 -1.73319 0
M  V30 15452 C 1485.95 1.58437 -0.599511 0
M  V30 15453 O 1487.16 1.62179 -0.780896 0
M  V30 15454 H 1483.54 0.515368 -0.547632 0
M  V30 15455 H 1485.51 1.33824 -2.66709 0
M  V30 15456 C 1484.26 2.92778 -1.87554 0
M  V30 15457 H 1483.58 2.9096 -2.74194 0
M  V30 15458 H 1485.02 3.70097 -2.06891 0
M  V30 15459 C 1483.48 3.30854 -0.635408 0
M  V30 15460 O 1484.01 4.01152 0.20983 0
M  V30 15461 N 1482.21 2.86618 -0.47944 0
M  V30 15462 H 1481.76 2.29582 -1.16834 0
M  V30 15463 H 1481.72 3.12456 0.349078 0
M  V30 15464 N 1485.49 1.41566 0.692592 0
M  V30 15465 C 1486.74 1.41292 1.4548 0
M  V30 15466 C 1487.07 0.0229093 1.94186 0
M  V30 15467 O 1486.34 -0.949849 1.6973 0
M  V30 15468 C 1486.63 2.42225 2.66457 0
M  V30 15469 C 1486.48 3.90345 2.23496 0
M  V30 15470 C 1487.8 2.40374 3.68658 0
M  V30 15471 H 1484.92 0.51453 0.527663 0
M  V30 15472 H 1487.56 1.72862 0.788598 0
M  V30 15473 H 1485.71 2.15435 3.23296 0
M  V30 15474 H 1487.38 4.2805 1.71962 0
M  V30 15475 H 1485.63 4.05068 1.55249 0
M  V30 15476 H 1486.3 4.56518 3.10314 0
M  V30 15477 H 1488.77 2.64156 3.21498 0
M  V30 15478 H 1487.65 3.13004 4.5091 0
M  V30 15479 H 1487.91 1.42338 4.1856 0
M  V30 15480 N 1486.97 -0.927146 1.27443 0
M  V30 15481 C 1487.9 -2.02847 1.04538 0
M  V30 15482 C 1488.88 -1.62564 -0.0343819 0
M  V30 15483 O 1490.06 -1.88174 0.110875 0
M  V30 15484 C 1487.19 -3.33594 0.58588 0
M  V30 15485 C 1486.24 -3.92857 1.66029 0
M  V30 15486 S 1487.07 -4.25376 3.25292 0
M  V30 15487 C 1488.23 -5.59203 2.81145 0
M  V30 15488 H 1488.46 -2.21965 1.97784 0
M  V30 15489 H 1485.99 -1.07033 1.11281 0
M  V30 15490 H 1487.95 -4.09192 0.32745 0
M  V30 15491 H 1486.61 -3.12398 -0.326534 0
M  V30 15492 H 1485.8 -4.87209 1.2901 0
M  V30 15493 H 1485.41 -3.23846 1.87082 0
M  V30 15494 H 1487.7 -6.38523 2.26482 0
M  V30 15495 H 1488.64 -6.01122 3.74243 0
M  V30 15496 H 1489.05 -5.19751 2.2027 0
M  V30 15497 N 1488.45 -1.09474 -1.13372 0
M  V30 15498 C 1489.67 -0.853093 -1.89043 0
M  V30 15499 C 1490.1 0.590075 -1.78605 0
M  V30 15500 O 1489.45 1.41462 -1.13394 0
M  V30 15501 C 1489.5 -1.29359 -3.36599 0
M  V30 15502 O 1488.61 -0.452355 -4.09912 0
M  V30 15503 H 1487.95 -0.308922 -0.587761 0
M  V30 15504 H 1490.48 -1.459 -1.43437 0
M  V30 15505 H 1490.49 -1.27921 -3.87428 0
M  V30 15506 H 1489.16 -2.3446 -3.43513 0
M  V30 15507 H 1487.74 -0.531098 -3.69099 0
M  V30 15508 N 1489.92 1.30607 -0.882012 0
M  V30 15509 C 1491.17 1.95869 -0.497978 0
M  V30 15510 C 1491.49 1.69991 0.955405 0
M  V30 15511 O 1490.76 1.02188 1.67136 0
M  V30 15512 H 1489.34 0.724699 -0.181165 0
M  V30 15513 H 1492.01 1.59193 -1.12444 0
M  V30 15514 H 1491.1 3.04917 -0.665754 0
M  V30 15515 N 1491.4 0.642663 1.43901 0
M  V30 15516 C 1492.65 0.151778 2.0193 0
M  V30 15517 C 1492.98 -1.23052 1.50627 0
M  V30 15518 O 1492.23 -1.83305 0.685404 0
M  V30 15519 C 1492.53 0.100139 3.5726 0
M  V30 15520 C 1492.2 1.42276 4.27865 0
M  V30 15521 C 1490.86 1.78497 4.46869 0
M  V30 15522 C 1493.21 2.29526 4.67939 0
M  V30 15523 C 1490.54 3.01655 5.03211 0
M  V30 15524 C 1492.89 3.51966 5.25645 0
M  V30 15525 C 1491.56 3.88396 5.42867 0
M  V30 15526 H 1490.83 0.0555394 0.738916 0
M  V30 15527 H 1493.47 0.831273 1.72517 0
M  V30 15528 H 1491.78 -0.66277 3.86154 0
M  V30 15529 H 1493.47 -0.29638 3.99903 0
M  V30 15530 H 1490.06 1.13091 4.13411 0
M  V30 15531 H 1494.25 2.02835 4.52959 0
M  V30 15532 H 1489.5 3.29943 5.14731 0
M  V30 15533 H 1493.68 4.19799 5.55645 0
M  V30 15534 H 1491.31 4.83909 5.8629 0
M  V30 15535 N 1492.88 -1.52852 0.383918 0
M  V30 15536 C 1494.12 -2.03421 -0.199832 0
M  V30 15537 C 1494.49 -1.26439 -1.44489 0
M  V30 15538 O 1495.69 -1.67105 -2.10545 0
M  V30 15539 C 1493.96 -3.54341 -0.466577 0
M  V30 15540 S 1495.52 -4.26747 -1.02138 0
M  V30 15541 H 1492.33 -0.70873 -0.0567636 0
M  V30 15542 H 1494.94 -1.8815 0.531022 0
M  V30 15543 H 1493.64 -4.07961 0.446772 0
M  V30 15544 H 1493.17 -3.73808 -1.226 0
M  V30 15545 H 1495.19 -4.39456 -2.3042 0
M  V30 15546 N 1494.36 -0.113586 -1.5719 0
M  V30 15547 C 1495.29 0.835363 -2.18046 0
M  V30 15548 C 1496.27 1.28114 -1.11897 0
M  V30 15549 O 1497.46 1.34472 -1.40111 0
M  V30 15550 C 1494.59 2.08759 -2.77556 0
M  V30 15551 C 1493.54 1.77979 -3.8924 0
M  V30 15552 C 1492.87 3.10185 -4.35533 0
M  V30 15553 C 1494.17 1.05231 -5.11589 0
M  V30 15554 H 1495.86 0.328275 -2.97595 0
M  V30 15555 H 1493.41 0.156456 -1.43148 0
M  V30 15556 H 1495.36 2.75597 -3.18785 0
M  V30 15557 H 1494.08 2.61783 -1.95288 0
M  V30 15558 H 1492.74 1.13532 -3.48577 0
M  V30 15559 H 1492.39 3.61133 -3.50131 0
M  V30 15560 H 1492.09 2.90367 -5.10843 0
M  V30 15561 H 1493.61 3.78151 -4.7941 0
M  V30 15562 H 1495.03 1.62213 -5.49872 0
M  V30 15563 H 1493.42 0.955269 -5.92448 0
M  V30 15564 H 1494.49 0.038137 -4.84885 0
M  V30 15565 N 1495.84 1.56784 0.160173 0
M  V30 15566 C 1497.25 1.72193 0.721552 0
M  V30 15567 C 1497.6 0.725901 1.82278 0
M  V30 15568 O 1496.72 -0.110343 2.16118 0
M  V30 15569 C 1497.32 3.12212 1.31563 0
M  V30 15570 C 1495.88 3.29268 1.82371 0
M  V30 15571 C 1495.03 2.68136 0.70701 0
M  V30 15572 H 1497.98 1.58565 -0.0653521 0
M  V30 15573 H 1498 3.11481 2.1854 0
M  V30 15574 H 1497.51 3.84682 0.513917 0
M  V30 15575 H 1495.61 2.61774 2.65152 0
M  V30 15576 H 1495.72 4.37107 1.96149 0
M  V30 15577 H 1494.09 2.28246 1.1303 0
M  V30 15578 H 1494.87 3.432 -0.0830407 0
M  V30 15579 N 1497.32 -0.429099 1.51646 0
M  V30 15580 C 1498.23 -1.54648 1.76412 0
M  V30 15581 C 1499.24 -1.61455 0.648703 0
M  V30 15582 O 1500.42 -1.78544 0.931888 0
M  V30 15583 C 1497.48 -2.90562 1.89142 0
M  V30 15584 C 1496.54 -2.93804 3.13014 0
M  V30 15585 C 1495.78 -4.23235 3.25127 0
M  V30 15586 O 1496 -5.1606 2.42979 0
M  V30 15587 O 1494.93 -4.32929 4.18158 0
M  V30 15588 H 1498.76 -1.36661 2.71215 0
M  V30 15589 H 1496.34 -0.612946 1.36247 0
M  V30 15590 H 1498.23 -3.7121 1.99453 0
M  V30 15591 H 1496.9 -3.08659 0.975272 0
M  V30 15592 H 1495.81 -2.12082 3.08175 0
M  V30 15593 H 1497.14 -2.80654 4.04344 0
M  V30 15594 N 1498.79 -1.41931 -0.685074 0
M  V30 15595 C 1500.2 -1.37279 -1.26536 0
M  V30 15596 C 1500.56 -0.0610089 -1.96105 0
M  V30 15597 O 1499.68 0.840508 -1.9941 0
M  V30 15598 C 1500.28 -2.48658 -2.30119 0
M  V30 15599 C 1498.83 -2.47371 -2.83698 0
M  V30 15600 C 1497.98 -2.2797 -1.57876 0
M  V30 15601 H 1500.93 -1.51294 -0.479132 0
M  V30 15602 H 1500.95 -2.18319 -3.11636 0
M  V30 15603 H 1500.47 -3.44118 -1.79456 0
M  V30 15604 H 1498.57 -1.55699 -3.3851 0
M  V30 15605 H 1498.68 -3.44052 -3.33414 0
M  V30 15606 H 1497.04 -1.7604 -1.84071 0
M  V30 15607 H 1497.83 -3.25471 -1.09194 0
M  V30 15608 N 1500.27 0.920374 -1.27933 0
M  V30 15609 C 1501.52 1.67131 -1.1487 0
M  V30 15610 C 1501.85 1.91816 0.303343 0
M  V30 15611 O 1501.13 1.51379 1.22125 0
M  V30 15612 C 1501.41 3.03332 -1.94066 0
M  V30 15613 C 1501.26 2.85842 -3.47296 0
M  V30 15614 C 1502.58 4.03773 -1.75087 0
M  V30 15615 H 1499.7 0.606537 -0.418666 0
M  V30 15616 H 1502.34 1.06755 -1.57173 0
M  V30 15617 H 1500.49 3.54869 -1.58116 0
M  V30 15618 H 1502.16 2.41367 -3.93115 0
M  V30 15619 H 1500.41 2.21035 -3.73264 0
M  V30 15620 H 1501.08 3.82535 -3.97958 0
M  V30 15621 H 1503.55 3.61274 -2.06447 0
M  V30 15622 H 1502.43 4.97048 -2.32882 0
M  V30 15623 H 1502.69 4.36512 -0.700665 0
M  V30 15624 N 1501.75 1.10074 1.1279 0
M  V30 15625 C 1503 0.840873 1.84216 0
M  V30 15626 C 1503.32 -0.633551 1.83892 0
M  V30 15627 O 1502.58 -1.48283 1.27714 0
M  V30 15628 C 1502.88 1.32969 3.31744 0
M  V30 15629 C 1502.54 2.81489 3.52242 0
M  V30 15630 C 1501.21 3.22048 3.57545 0
M  V30 15631 C 1503.56 3.77216 3.59664 0
M  V30 15632 C 1500.89 4.57092 3.67809 0
M  V30 15633 C 1503.24 5.12057 3.71457 0
M  V30 15634 C 1501.9 5.52196 3.75014 0
M  V30 15635 H 1501.17 0.307697 0.674095 0
M  V30 15636 H 1503.82 1.37669 1.33115 0
M  V30 15637 H 1502.12 0.713819 3.85243 0
M  V30 15638 H 1503.82 1.10515 3.8547 0
M  V30 15639 H 1500.41 2.49106 3.48775 0
M  V30 15640 H 1504.6 3.4699 3.5484 0
M  V30 15641 H 1499.85 4.87618 3.68834 0
M  V30 15642 H 1504.03 5.86081 3.76142 0
M  V30 15643 H 1501.65 6.56833 3.8272 0
M  V30 15644 N 1503.23 -1.30138 0.888926 0
M  V30 15645 C 1504.45 -2.00679 0.523697 0
M  V30 15646 C 1504.88 -1.66167 -0.881479 0
M  V30 15647 O 1504.24 -0.880418 -1.58488 0
M  V30 15648 C 1504.28 -3.53535 0.710284 0
M  V30 15649 O 1503.39 -4.11689 -0.242066 0
M  V30 15650 H 1502.73 -0.631273 0.205888 0
M  V30 15651 H 1505.26 -1.65891 1.19756 0
M  V30 15652 H 1505.27 -4.03402 0.610794 0
M  V30 15653 H 1503.94 -3.77992 1.73478 0
M  V30 15654 H 1502.52 -3.72777 -0.0959393 0
M  V30 15655 N 1504.71 -0.650285 -1.43559 0
M  V30 15656 C 1505.95 -0.159832 -2.01066 0
M  V30 15657 C 1506.27 1.23246 -1.51887 0
M  V30 15658 O 1507.47 1.81797 -2.01648 0
M  V30 15659 C 1505.93 -0.23494 -3.59132 0
M  V30 15660 C 1505.54 -1.62975 -4.17305 0
M  V30 15661 C 1507.28 0.198061 -4.24038 0
M  V30 15662 C 1505.19 -1.65894 -5.67656 0
M  V30 15663 H 1504.12 -0.0559899 -0.751918 0
M  V30 15664 H 1506.77 -0.811891 -1.64562 0
M  V30 15665 H 1505.15 0.484573 -3.93024 0
M  V30 15666 H 1506.33 -2.37438 -3.94918 0
M  V30 15667 H 1504.64 -2.00847 -3.64759 0
M  V30 15668 H 1507.24 0.196054 -5.3434 0
M  V30 15669 H 1507.58 1.22896 -3.97747 0
M  V30 15670 H 1508.11 -0.469602 -3.95018 0
M  V30 15671 H 1504.85 -2.66883 -5.9871 0
M  V30 15672 H 1504.37 -0.957519 -5.92108 0
M  V30 15673 H 1506.05 -1.40137 -6.31641 0
M  V30 15674 N 1506.18 1.52647 -0.392018 0
M  V30 15675 C 1507.13 2.26532 0.441819 0
M  V30 15676 C 1508.1 1.2825 1.05552 0
M  V30 15677 O 1509.29 1.57083 1.08303 0
M  V30 15678 C 1506.43 3.0774 1.56174 0
M  V30 15679 C 1505.54 4.20955 0.970632 0
M  V30 15680 C 1504.67 4.89553 2.06183 0
M  V30 15681 C 1503.71 5.94756 1.44676 0
M  V30 15682 N 1502.85 6.5694 2.47738 0
M  V30 15683 H 1507.69 2.97363 -0.194699 0
M  V30 15684 H 1505.23 1.46704 -0.107848 0
M  V30 15685 H 1507.18 3.53116 2.22183 0
M  V30 15686 H 1505.81 2.39112 2.16853 0
M  V30 15687 H 1504.87 3.79874 0.200067 0
M  V30 15688 H 1506.18 4.96474 0.481181 0
M  V30 15689 H 1505.33 5.38247 2.79956 0
M  V30 15690 H 1504.07 4.13564 2.58488 0
M  V30 15691 H 1503.08 5.45399 0.694288 0
M  V30 15692 H 1504.3 6.72679 0.931617 0
M  V30 15693 H 1502.25 5.8379 2.99208 0
M  V30 15694 H 1502.16 7.2808 2.03556 0
M  V30 15695 H 1503.43 7.10277 3.21133 0
M  V30 15696 N 1507.66 0.121921 1.57128 0
M  V30 15697 C 1508.59 -0.823788 2.18486 0
M  V30 15698 C 1509.57 -1.27519 1.12574 0
M  V30 15699 O 1510.76 -1.33727 1.40822 0
M  V30 15700 C 1507.89 -2.07284 2.78659 0
M  V30 15701 C 1506.84 -1.75912 3.90178 0
M  V30 15702 C 1506.17 -3.07871 4.37172 0
M  V30 15703 C 1507.47 -1.02517 5.1214 0
M  V30 15704 H 1509.16 -0.312488 2.97765 0
M  V30 15705 H 1506.71 -0.148862 1.43228 0
M  V30 15706 H 1508.66 -2.73903 3.20242 0
M  V30 15707 H 1507.39 -2.60743 1.96673 0
M  V30 15708 H 1506.04 -1.11681 3.49174 0
M  V30 15709 H 1505.69 -3.59271 3.52041 0
M  V30 15710 H 1505.39 -2.87653 5.12376 0
M  V30 15711 H 1506.92 -3.75604 4.81409 0
M  V30 15712 H 1508.33 -1.59295 5.50725 0
M  V30 15713 H 1506.73 -0.923836 5.92946 0
M  V30 15714 H 1507.8 -0.0124219 4.84898 0
M  V30 15715 N 1509.14 -1.56867 -0.151857 0
M  V30 15716 C 1510.09 -1.97899 -1.18763 0
M  V30 15717 C 1511.06 -0.845833 -1.42951 0
M  V30 15718 O 1512.24 -1.10751 -1.55367 0
M  V30 15719 C 1509.38 -2.36063 -2.5173 0
M  V30 15720 C 1508.5 -3.62647 -2.34757 0
M  V30 15721 C 1507.63 -3.89936 -3.60726 0
M  V30 15722 C 1506.67 -5.09806 -3.38769 0
M  V30 15723 N 1505.81 -5.33129 -4.56856 0
M  V30 15724 H 1510.65 -2.86187 -0.830713 0
M  V30 15725 H 1508.18 -1.41592 -0.398745 0
M  V30 15726 H 1510.14 -2.56218 -3.29254 0
M  V30 15727 H 1508.77 -1.50861 -2.85379 0
M  V30 15728 H 1507.82 -3.50297 -1.48312 0
M  V30 15729 H 1509.14 -4.50328 -2.1449 0
M  V30 15730 H 1508.29 -4.10563 -4.4668 0
M  V30 15731 H 1507.03 -3.00668 -3.83993 0
M  V30 15732 H 1506.03 -4.89057 -2.51203 0
M  V30 15733 H 1507.26 -6.00623 -3.16906 0
M  V30 15734 H 1505.2 -4.46815 -4.80305 0
M  V30 15735 H 1505.12 -6.1507 -4.39574 0
M  V30 15736 H 1506.39 -5.5825 -5.44038 0
M  V30 15737 N 1510.62 0.421051 -1.51871 0
M  V30 15738 C 1511.53 1.5371 -1.7723 0
M  V30 15739 C 1512.54 1.61109 -0.657256 0
M  V30 15740 O 1513.72 1.78047 -0.941343 0
M  V30 15741 C 1510.79 2.89555 -1.9068 0
M  V30 15742 C 1509.85 2.9214 -3.14567 0
M  V30 15743 C 1509.08 4.21505 -3.27367 0
M  V30 15744 O 1509.3 5.14764 -2.45712 0
M  V30 15745 O 1508.24 4.30706 -4.20448 0
M  V30 15746 H 1512.06 1.35221 -2.71935 0
M  V30 15747 H 1509.65 0.605712 -1.3657 0
M  V30 15748 H 1511.53 3.70147 -2.01418 0
M  V30 15749 H 1510.2 3.08137 -0.991627 0
M  V30 15750 H 1509.11 2.10444 -3.09296 0
M  V30 15751 H 1510.44 2.78505 -4.05827 0
M  V30 15752 N 1512.1 1.42293 0.677538 0
M  V30 15753 C 1513.34 1.43826 1.43825 0
M  V30 15754 C 1513.7 0.0527179 1.92328 0
M  V30 15755 O 1512.99 -0.924621 1.67813 0
M  V30 15756 C 1513.18 2.3951 2.65273 0
M  V30 15757 C 1513.01 3.87231 2.28653 0
M  V30 15758 C 1511.78 4.55786 2.18145 0
M  V30 15759 C 1513.98 4.77728 1.90474 0
M  V30 15760 N 1511.96 5.88547 1.746 0
M  V30 15761 C 1513.33 5.99575 1.57827 0
M  V30 15762 C 1515.39 4.65208 1.77443 0
M  V30 15763 C 1514.09 7.10296 1.13456 0
M  V30 15764 C 1516.12 5.75908 1.34476 0
M  V30 15765 C 1515.48 6.96866 1.02751 0
M  V30 15766 H 1511.58 0.581477 0.522885 0
M  V30 15767 H 1514.16 1.78299 0.782146 0
M  V30 15768 H 1512.33 2.07103 3.28577 0
M  V30 15769 H 1514.07 2.31642 3.3185 0
M  V30 15770 H 1510.82 4.09961 2.37126 0
M  V30 15771 H 1511.25 6.58957 1.55259 0
M  V30 15772 H 1515.89 3.72173 2.00617 0
M  V30 15773 H 1513.61 8.03181 0.890273 0
M  V30 15774 H 1517.19 5.68231 1.24917 0
M  V30 15775 H 1516.07 7.81069 0.700085 0
M  V30 15776 N 1513.57 -0.913576 1.28419 0
M  V30 15777 C 1514.82 -1.66519 1.15755 0
M  V30 15778 C 1515.15 -1.91974 -0.293166 0
M  V30 15779 O 1514.43 -1.52025 -1.21321 0
M  V30 15780 C 1514.71 -3.02299 1.95672 0
M  V30 15781 C 1514.56 -2.83996 3.48807 0
M  V30 15782 C 1515.88 -4.02838 1.77226 0
M  V30 15783 H 1513 -0.604309 0.421877 0
M  V30 15784 H 1515.64 -1.05919 1.57737 0
M  V30 15785 H 1513.79 -3.54025 1.59995 0
M  V30 15786 H 1515.47 -2.39279 3.9439 0
M  V30 15787 H 1513.71 -2.19052 3.74431 0
M  V30 15788 H 1514.38 -3.80419 3.99982 0
M  V30 15789 H 1516.86 -3.60174 2.0836 0
M  V30 15790 H 1515.73 -4.95806 2.35515 0
M  V30 15791 H 1515.99 -4.36135 0.723804 0
M  V30 15792 N 1515.05 -1.1067 -1.12204 0
M  V30 15793 C 1515.98 -0.715581 -2.17743 0
M  V30 15794 C 1517 0.248892 -1.60886 0
M  V30 15795 O 1518.19 0.0329917 -1.7847 0
M  V30 15796 C 1515.29 -0.0356388 -3.38881 0
M  V30 15797 C 1514.46 -1.0249 -4.25223 0
M  V30 15798 C 1513.52 -0.375998 -5.24855 0
M  V30 15799 O 1512.54 -1.02753 -5.59849 0
M  V30 15800 N 1513.75 0.864525 -5.74026 0
M  V30 15801 H 1516.51 -1.62362 -2.5191 0
M  V30 15802 H 1514.07 -0.995851 -1.2765 0
M  V30 15803 H 1516.06 0.41 -4.02618 0
M  V30 15804 H 1514.63 0.77485 -3.02845 0
M  V30 15805 H 1513.85 -1.64874 -3.58065 0
M  V30 15806 H 1515.14 -1.69446 -4.79756 0
M  V30 15807 H 1514.54 1.41317 -5.47764 0
M  V30 15808 H 1513.1 1.25327 -6.39638 0
M  V30 15809 N 1516.53 1.29665 -0.895815 0
M  V30 15810 C 1517.48 2.27831 -0.369011 0
M  V30 15811 C 1518.45 1.56843 0.546756 0
M  V30 15812 O 1519.63 1.84848 0.472837 0
M  V30 15813 C 1516.77 3.42764 0.400884 0
M  V30 15814 C 1515.89 4.28544 -0.545335 0
M  V30 15815 C 1515.02 5.30652 0.241228 0
M  V30 15816 C 1514.06 6.08087 -0.699765 0
M  V30 15817 N 1513.2 7.02081 0.0521477 0
M  V30 15818 H 1518.04 2.72274 -1.21124 0
M  V30 15819 H 1515.57 1.33918 -0.608631 0
M  V30 15820 H 1517.53 4.08171 0.863277 0
M  V30 15821 H 1516.16 2.99361 1.2076 0
M  V30 15822 H 1515.21 3.63346 -1.12624 0
M  V30 15823 H 1516.53 4.82472 -1.26579 0
M  V30 15824 H 1515.68 6.01858 0.764994 0
M  V30 15825 H 1514.42 4.77446 0.994838 0
M  V30 15826 H 1513.42 5.35748 -1.23507 0
M  V30 15827 H 1514.65 6.63382 -1.45264 0
M  V30 15828 H 1512.59 6.51249 0.788096 0
M  V30 15829 H 1512.51 7.53547 -0.60847 0
M  V30 15830 H 1513.78 7.77512 0.556304 0
M  V30 15831 N 1518.01 0.657889 1.43212 0
M  V30 15832 C 1518.94 -0.0172114 2.33494 0
M  V30 15833 C 1519.92 -0.807087 1.49733 0
M  V30 15834 O 1521.1 -0.767631 1.78385 0
M  V30 15835 C 1518.23 -0.981029 3.33156 0
M  V30 15836 C 1517.19 -0.30094 4.26941 0
M  V30 15837 C 1516.51 -1.37653 5.16678 0
M  V30 15838 C 1517.81 0.809572 5.15988 0
M  V30 15839 H 1519.51 0.736749 2.90194 0
M  V30 15840 H 1517.05 0.355744 1.39537 0
M  V30 15841 H 1519.01 -1.46226 3.95216 0
M  V30 15842 H 1517.73 -1.76621 2.74723 0
M  V30 15843 H 1516.39 0.159893 3.66251 0
M  V30 15844 H 1516.04 -2.15326 4.54581 0
M  V30 15845 H 1515.74 -0.926704 5.80246 0
M  V30 15846 H 1517.26 -1.85903 5.81612 0
M  V30 15847 H 1518.68 0.410297 5.7183 0
M  V30 15848 H 1517.07 1.18415 5.88301 0
M  V30 15849 H 1518.14 1.66558 4.55397 0
M  V30 15850 N 1519.49 -1.52437 0.400108 0
M  V30 15851 C 1520.42 -2.23219 -0.474176 0
M  V30 15852 C 1521.4 -1.23699 -1.05533 0
M  V30 15853 O 1522.58 -1.52721 -1.10492 0
M  V30 15854 C 1519.71 -2.95381 -1.65734 0
M  V30 15855 C 1518.75 -4.09258 -1.20042 0
M  V30 15856 S 1519.59 -5.3522 -0.173016 0
M  V30 15857 C 1520.74 -6.10908 -1.36171 0
M  V30 15858 H 1520.98 -2.97029 0.126865 0
M  V30 15859 H 1518.51 -1.53295 0.184353 0
M  V30 15860 H 1520.47 -3.37564 -2.33583 0
M  V30 15861 H 1519.13 -2.21231 -2.2297 0
M  V30 15862 H 1518.32 -4.5889 -2.08413 0
M  V30 15863 H 1517.92 -3.69144 -0.600704 0
M  V30 15864 H 1520.22 -6.37735 -2.28691 0
M  V30 15865 H 1521.16 -7.02279 -0.906106 0
M  V30 15866 H 1521.57 -5.41838 -1.58342 0
M  V30 15867 N 1520.96 -0.130252 -1.57061 0
M  V30 15868 C 1521.9 0.853341 -2.11644 0
M  V30 15869 C 1522.88 1.25349 -1.03568 0
M  V30 15870 O 1524.06 1.35256 -1.31294 0
M  V30 15871 C 1521.19 2.14354 -2.6224 0
M  V30 15872 C 1520.23 1.8906 -3.82307 0
M  V30 15873 S 1521.07 1.0967 -5.2415 0
M  V30 15874 C 1522.22 2.39845 -5.78122 0
M  V30 15875 H 1522.45 0.389112 -2.94743 0
M  V30 15876 H 1519.99 0.083734 -1.54173 0
M  V30 15877 H 1521.95 2.8848 -2.92044 0
M  V30 15878 H 1520.61 2.57894 -1.79303 0
M  V30 15879 H 1519.8 2.84687 -4.15896 0
M  V30 15880 H 1519.4 1.23051 -3.53178 0
M  V30 15881 H 1521.69 3.35612 -5.88533 0
M  V30 15882 H 1522.64 2.10785 -6.75999 0
M  V30 15883 H 1523.04 2.49727 -5.06257 0
M  V30 15884 N 1522.44 1.56945 0.143535 0
M  V30 15885 C 1523.67 1.87701 0.870401 0
M  V30 15886 C 1524.09 0.718833 1.7458 0
M  V30 15887 O 1523.44 -0.311286 1.79826 0
M  V30 15888 C 1523.49 3.1773 1.72424 0
M  V30 15889 O 1523.22 4.29086 0.884115 0
M  V30 15890 C 1524.72 3.62024 2.55839 0
M  V30 15891 H 1521.94 0.622083 0.251504 0
M  V30 15892 H 1524.48 2.04052 0.135285 0
M  V30 15893 H 1522.64 3.03122 2.41238 0
M  V30 15894 H 1523.05 5.0346 1.47065 0
M  V30 15895 H 1524.52 4.55834 3.11319 0
M  V30 15896 H 1525 2.87481 3.32041 0
M  V30 15897 H 1525.61 3.79338 1.9231 0
M  V30 15898 N 1523.92 -0.412991 1.52093 0
M  V30 15899 C 1524.85 -1.50986 1.78117 0
M  V30 15900 C 1525.83 -1.57925 0.631963 0
M  V30 15901 O 1527.02 -1.73261 0.877168 0
M  V30 15902 C 1524.15 -2.88846 1.92835 0
M  V30 15903 C 1523.1 -2.96759 3.08412 0
M  V30 15904 C 1522.43 -4.36837 3.08347 0
M  V30 15905 C 1523.73 -2.68599 4.47942 0
M  V30 15906 H 1525.42 -1.29459 2.69964 0
M  V30 15907 H 1522.97 -0.621348 1.29905 0
M  V30 15908 H 1524.92 -3.65563 2.09623 0
M  V30 15909 H 1523.64 -3.11658 0.976553 0
M  V30 15910 H 1522.3 -2.22487 2.91368 0
M  V30 15911 H 1521.95 -4.56652 2.10897 0
M  V30 15912 H 1521.65 -4.43056 3.85973 0
M  V30 15913 H 1523.18 -5.15493 3.2726 0
M  V30 15914 H 1524.59 -3.35039 4.65212 0
M  V30 15915 H 1522.99 -2.86199 5.27456 0
M  V30 15916 H 1524.06 -1.64058 4.56304 0
M  V30 15917 N 1525.4 -1.4265 -0.669982 0
M  V30 15918 C 1526.82 -1.25682 -0.983682 0
M  V30 15919 C 1527.02 -0.164456 -2.00828 0
M  V30 15920 O 1526.07 0.462711 -2.48224 0
M  V30 15921 C 1527.38 -2.61536 -1.4839 0
M  V30 15922 C 1528.93 -2.6893 -1.60143 0
M  V30 15923 C 1529.41 -4.05162 -2.1356 0
M  V30 15924 N 1530.9 -4.07141 -2.20886 0
M  V30 15925 C 1531.63 -5.09371 -2.63303 0
M  V30 15926 N 1531.13 -6.21983 -3.05137 0
M  V30 15927 N 1532.92 -4.96727 -2.63094 0
M  V30 15928 H 1525.07 -2.12398 0.0083059 0
M  V30 15929 H 1527.34 -0.946173 -0.058823 0
M  V30 15930 H 1527.04 -3.42351 -0.805527 0
M  V30 15931 H 1526.92 -2.85786 -2.46183 0
M  V30 15932 H 1529.3 -1.88457 -2.27085 0
M  V30 15933 H 1529.38 -2.48463 -0.608266 0
M  V30 15934 H 1529.03 -4.86094 -1.47224 0
M  V30 15935 H 1528.96 -4.22984 -3.13676 0
M  V30 15936 H 1531.45 -3.25846 -1.91396 0
M  V30 15937 H 1531.76 -6.95835 -3.36204 0
M  V30 15938 H 1530.11 -6.25481 -3.02983 0
M  V30 15939 H 1533.3 -4.07824 -2.29777 0
M  V30 15940 H 1533.47 -5.76531 -2.95831 0
M  V30 15941 N 1526.88 0.906753 -1.28902 0
M  V30 15942 C 1527.83 1.99676 -1.10061 0
M  V30 15943 C 1528.81 1.60885 -0.0221442 0
M  V30 15944 O 1530 1.75323 -0.24307 0
M  V30 15945 C 1527.13 3.34511 -0.771823 0
M  V30 15946 C 1526.22 3.79683 -1.88948 0
M  V30 15947 N 1526.61 3.97159 -3.13207 0
M  V30 15948 C 1524.91 4.089 -1.78092 0
M  V30 15949 C 1525.61 4.35108 -3.86078 0
M  V30 15950 N 1524.58 4.43759 -3.13973 0
M  V30 15951 H 1528.39 2.11247 -2.04333 0
M  V30 15952 H 1525.9 1.09508 -1.19924 0
M  V30 15953 H 1527.9 4.12295 -0.617909 0
M  V30 15954 H 1526.56 3.2429 0.16305 0
M  V30 15955 H 1527.57 3.82884 -3.4874 0
M  V30 15956 H 1524.25 4.07276 -0.918291 0
M  V30 15957 H 1525.64 4.56533 -4.92978 0
M  V30 15958 N 1528.36 1.11264 1.11616 0
M  V30 15959 C 1529.77 0.876713 1.64835 0
M  V30 15960 C 1530.12 -0.591384 1.87075 0
M  V30 15961 O 1529.24 -1.45304 1.60361 0
M  V30 15962 C 1529.84 1.58496 2.9944 0
M  V30 15963 C 1528.4 1.39551 3.49575 0
M  V30 15964 C 1527.54 1.62881 2.24422 0
M  V30 15965 H 1530.49 1.26915 0.952804 0
M  V30 15966 H 1530.52 1.02891 3.66325 0
M  V30 15967 H 1530.03 2.65344 2.83221 0
M  V30 15968 H 1528.13 0.349059 3.70961 0
M  V30 15969 H 1528.24 2.14334 4.28483 0
M  V30 15970 H 1526.61 1.05208 2.31955 0
M  V30 15971 H 1527.39 2.70999 2.10748 0
M  V30 15972 N 1529.83 -1.29188 0.902679 0
M  V30 15973 C 1531.06 -2.00113 0.544953 0
M  V30 15974 C 1531.48 -1.67093 -0.863805 0
M  V30 15975 O 1530.84 -0.897179 -1.57545 0
M  V30 15976 C 1530.89 -3.52762 0.747741 0
M  V30 15977 O 1529.99 -4.11923 -0.198388 0
M  V30 15978 H 1529.33 -0.629054 0.212572 0
M  V30 15979 H 1531.86 -1.64611 1.21508 0
M  V30 15980 H 1531.87 -4.02732 0.653546 0
M  V30 15981 H 1530.55 -3.76131 1.77478 0
M  V30 15982 H 1529.13 -3.72857 -0.0563959 0
M  V30 15983 N 1531.31 -0.665475 -1.42861 0
M  V30 15984 C 1532.24 0.00482845 -2.335 0
M  V30 15985 C 1533.22 0.799135 -1.50159 0
M  V30 15986 O 1534.41 0.75816 -1.78789 0
M  V30 15987 C 1531.54 0.963347 -3.33672 0
M  V30 15988 C 1530.49 0.278294 -4.27094 0
M  V30 15989 C 1529.82 1.34911 -5.174 0
M  V30 15990 C 1531.12 -0.836925 -5.15551 0
M  V30 15991 H 1532.81 -0.752129 -2.89799 0
M  V30 15992 H 1530.36 -0.363139 -1.39346 0
M  V30 15993 H 1532.31 1.44128 -3.95986 0
M  V30 15994 H 1531.03 1.75161 -2.75656 0
M  V30 15995 H 1529.69 -0.179314 -3.66161 0
M  V30 15996 H 1529.34 2.12912 -4.55716 0
M  V30 15997 H 1529.04 0.895919 -5.8073 0
M  V30 15998 H 1530.57 1.82816 -5.8259 0
M  V30 15999 H 1531.98 -0.440617 -5.71604 0
M  V30 16000 H 1530.38 -1.21533 -5.87665 0
M  V30 16001 H 1531.45 -1.6897 -4.54507 0
M  V30 16002 N 1532.79 1.52222 -0.408187 0
M  V30 16003 C 1534.2 1.86598 0.0616213 0
M  V30 16004 C 1534.55 1.32698 1.44519 0
M  V30 16005 O 1533.68 0.665883 2.059 0
M  V30 16006 C 1534.27 3.38592 0.118595 0
M  V30 16007 C 1532.83 3.72611 0.532737 0
M  V30 16008 C 1531.98 2.75744 -0.293356 0
M  V30 16009 H 1534.93 1.45862 -0.625291 0
M  V30 16010 H 1534.95 3.68858 0.934039 0
M  V30 16011 H 1534.46 3.77792 -0.888516 0
M  V30 16012 H 1532.56 3.38989 1.54652 0
M  V30 16013 H 1532.68 4.78294 0.277777 0
M  V30 16014 H 1531.04 2.53527 0.244166 0
M  V30 16015 H 1531.82 3.17783 -1.2988 0
M  V30 16016 N 1534.27 0.138579 1.5699 0
M  V30 16017 C 1535.2 -0.800568 2.19347 0
M  V30 16018 C 1536.18 -1.26318 1.13921 0
M  V30 16019 O 1537.36 -1.32226 1.42232 0
M  V30 16020 C 1534.49 -2.04317 2.80842 0
M  V30 16021 C 1533.45 -1.71764 3.92022 0
M  V30 16022 C 1532.77 -3.03217 4.40413 0
M  V30 16023 C 1534.07 -0.970789 5.13199 0
M  V30 16024 H 1535.77 -0.280888 2.98079 0
M  V30 16025 H 1533.31 -0.133663 1.43378 0
M  V30 16026 H 1535.27 -2.70491 3.2313 0
M  V30 16027 H 1533.99 -2.58643 1.99428 0
M  V30 16028 H 1532.65 -1.07972 3.50339 0
M  V30 16029 H 1532.3 -3.55517 3.55832 0
M  V30 16030 H 1532 -2.82203 5.15398 0
M  V30 16031 H 1533.52 -3.70477 4.85365 0
M  V30 16032 H 1534.94 -1.53445 5.52384 0
M  V30 16033 H 1533.33 -0.860895 5.93893 0
M  V30 16034 H 1534.4 0.0390088 4.84884 0
M  V30 16035 N 1535.75 -1.57019 -0.13521 0
M  V30 16036 C 1536.68 -2.02182 -1.16811 0
M  V30 16037 C 1537.66 -0.9034 -1.44127 0
M  V30 16038 O 1538.84 -1.17202 -1.54846 0
M  V30 16039 C 1535.97 -2.41243 -2.49838 0
M  V30 16040 C 1534.93 -3.56379 -2.37018 0
M  V30 16041 C 1534.25 -3.8129 -3.74863 0
M  V30 16042 C 1535.55 -4.88653 -1.84432 0
M  V30 16043 H 1537.25 -2.8872 -0.792529 0
M  V30 16044 H 1534.79 -1.38901 -0.379788 0
M  V30 16045 H 1536.74 -2.7144 -3.22332 0
M  V30 16046 H 1535.47 -1.51656 -2.89254 0
M  V30 16047 H 1534.13 -3.26366 -1.66975 0
M  V30 16048 H 1533.78 -2.88934 -4.11735 0
M  V30 16049 H 1533.48 -4.58781 -3.67143 0
M  V30 16050 H 1535 -4.13924 -4.48887 0
M  V30 16051 H 1536.41 -5.17492 -2.46729 0
M  V30 16052 H 1534.81 -5.70032 -1.87574 0
M  V30 16053 H 1535.88 -4.78242 -0.800759 0
M  V30 16054 N 1537.22 0.404919 -1.52309 0
M  V30 16055 C 1538.13 1.51822 -1.7885 0
M  V30 16056 C 1539.15 1.60403 -0.674307 0
M  V30 16057 O 1540.33 1.77038 -0.960175 0
M  V30 16058 C 1537.39 2.87516 -1.9374 0
M  V30 16059 C 1536.45 2.88787 -3.17648 0
M  V30 16060 C 1535.69 4.18009 -3.31819 0
M  V30 16061 O 1535.91 5.12129 -2.51158 0
M  V30 16062 O 1534.84 4.26222 -4.24992 0
M  V30 16063 H 1538.67 1.32329 -2.73354 0
M  V30 16064 H 1536.25 0.591193 -1.37205 0
M  V30 16065 H 1538.14 3.6799 -2.05333 0
M  V30 16066 H 1536.81 3.07068 -1.02425 0
M  V30 16067 H 1535.72 2.07152 -3.11511 0
M  V30 16068 H 1537.05 2.74185 -4.08758 0
M  V30 16069 N 1538.7 1.43003 0.662408 0
M  V30 16070 C 1539.63 1.50248 1.78739 0
M  V30 16071 C 1540.61 0.357934 1.66291 0
M  V30 16072 O 1541.8 0.573919 1.85526 0
M  V30 16073 C 1538.93 1.41618 3.17114 0
M  V30 16074 C 1537.88 2.54228 3.44314 0
M  V30 16075 C 1537.21 2.30653 4.82393 0
M  V30 16076 C 1538.51 3.96505 3.39972 0
M  V30 16077 H 1540.2 2.44406 1.72934 0
M  V30 16078 H 1537.75 1.17633 0.830569 0
M  V30 16079 H 1539.7 1.45293 3.9556 0
M  V30 16080 H 1538.43 0.439605 3.23628 0
M  V30 16081 H 1537.08 2.49891 2.68235 0
M  V30 16082 H 1536.73 1.3126 4.85572 0
M  V30 16083 H 1536.43 3.06134 5.01554 0
M  V30 16084 H 1537.96 2.36096 5.63108 0
M  V30 16085 H 1539.37 4.02378 4.08368 0
M  V30 16086 H 1537.77 4.71937 3.70668 0
M  V30 16087 H 1538.84 4.22295 2.38318 0
M  V30 16088 N 1540.18 -0.899904 1.29381 0
M  V30 16089 C 1541.11 -2.00914 1.103 0
M  V30 16090 C 1542.13 -1.62721 0.050568 0
M  V30 16091 O 1543.31 -1.76044 0.295068 0
M  V30 16092 C 1540.41 -3.32473 0.656896 0
M  V30 16093 C 1539.59 -3.99195 1.7878 0
M  V30 16094 C 1538.65 -5.09043 1.33274 0
M  V30 16095 O 1537.67 -5.31486 2.03742 0
M  V30 16096 N 1538.87 -5.80143 0.203519 0
M  V30 16097 H 1541.64 -2.17838 2.05832 0
M  V30 16098 H 1539.2 -1.07208 1.21318 0
M  V30 16099 H 1541.19 -4.03305 0.335783 0
M  V30 16100 H 1539.76 -3.11921 -0.205959 0
M  V30 16101 H 1538.98 -3.21729 2.2778 0
M  V30 16102 H 1540.27 -4.40515 2.54606 0
M  V30 16103 H 1539.67 -5.64395 -0.384005 0
M  V30 16104 H 1538.23 -6.51774 -0.0582282 0
M  V30 16105 N 1541.66 -1.11854 -1.11024 0
M  V30 16106 C 1542.57 -0.79368 -2.20767 0
M  V30 16107 C 1543.58 0.214996 -1.72667 0
M  V30 16108 O 1544.76 0.0500976 -2.01338 0
M  V30 16109 C 1541.83 -0.246375 -3.45823 0
M  V30 16110 C 1540.89 -1.31421 -4.0869 0
M  V30 16111 C 1540.12 -0.792922 -5.27777 0
M  V30 16112 O 1540.34 0.375492 -5.69163 0
M  V30 16113 O 1539.28 -1.55971 -5.8134 0
M  V30 16114 H 1543.1 -1.71011 -2.50976 0
M  V30 16115 H 1540.69 -0.894752 -1.19643 0
M  V30 16116 H 1542.57 0.0542632 -4.21365 0
M  V30 16117 H 1541.24 0.642703 -3.17255 0
M  V30 16118 H 1540.15 -1.66792 -3.3486 0
M  V30 16119 H 1541.48 -2.17683 -4.41446 0
M  V30 16120 N 1543.14 1.28707 -0.909517 0
M  V30 16121 C 1544.39 1.94437 -0.536401 0
M  V30 16122 C 1544.7 1.72416 0.923685 0
M  V30 16123 O 1545.9 2.32333 1.40477 0
M  V30 16124 C 1544.36 3.48246 -0.908455 0
M  V30 16125 C 1543.97 3.79051 -2.38798 0
M  V30 16126 C 1545.71 4.20156 -0.605721 0
M  V30 16127 C 1543.62 5.2615 -2.70038 0
M  V30 16128 H 1542.55 0.727842 -0.196882 0
M  V30 16129 H 1545.2 1.46283 -1.10786 0
M  V30 16130 H 1543.58 3.95107 -0.265829 0
M  V30 16131 H 1544.76 3.43014 -3.07698 0
M  V30 16132 H 1543.07 3.20303 -2.66074 0
M  V30 16133 H 1545.67 5.28439 -0.815849 0
M  V30 16134 H 1546.01 4.13792 0.456266 0
M  V30 16135 H 1546.54 3.79059 -1.20662 0
M  V30 16136 H 1543.28 5.37587 -3.75073 0
M  V30 16137 H 1542.8 5.63399 -2.05771 0
M  V30 16138 H 1544.48 5.93846 -2.56819 0
M  V30 16139 N 1544.61 0.673042 1.42506 0
M  V30 16140 C 1545.55 -0.056507 2.2813 0
M  V30 16141 C 1546.53 -0.810416 1.40965 0
M  V30 16142 O 1547.71 -0.805904 1.70404 0
M  V30 16143 C 1544.84 -1.08716 3.20778 0
M  V30 16144 C 1543.88 -0.429034 4.24337 0
M  V30 16145 S 1544.72 0.812075 5.29307 0
M  V30 16146 C 1545.87 -0.217548 6.25522 0
M  V30 16147 H 1546.1 0.669772 2.89657 0
M  V30 16148 H 1543.64 0.462526 1.47309 0
M  V30 16149 H 1545.6 -1.67672 3.74695 0
M  V30 16150 H 1544.26 -1.78587 2.5839 0
M  V30 16151 H 1543.45 -1.20666 4.89342 0
M  V30 16152 H 1543.05 0.0868926 3.73899 0
M  V30 16153 H 1545.34 -1.07781 6.68872 0
M  V30 16154 H 1546.29 0.397993 7.06981 0
M  V30 16155 H 1546.69 -0.562237 5.61693 0
M  V30 16156 N 1546.09 -1.52004 0.416254 0
M  V30 16157 C 1547.32 -2.06307 -0.156491 0
M  V30 16158 C 1547.74 -1.28567 -1.3826 0
M  V30 16159 O 1547.09 -0.339447 -1.79315 0
M  V30 16160 C 1547.14 -3.58028 -0.499824 0
M  V30 16161 O 1546.86 -4.32828 0.677602 0
M  V30 16162 C 1548.37 -4.28773 -1.12553 0
M  V30 16163 H 1545.59 -0.670778 -0.0172483 0
M  V30 16164 H 1548.13 -1.95826 0.589262 0
M  V30 16165 H 1546.28 -3.68493 -1.19547 0
M  V30 16166 H 1546.7 -5.23053 0.389302 0
M  V30 16167 H 1548.17 -5.36085 -1.31592 0
M  V30 16168 H 1548.65 -3.85706 -2.10066 0
M  V30 16169 H 1549.26 -4.22696 -0.469881 0
M  V30 16170 N 1547.57 -0.146903 -1.56914 0
M  V30 16171 C 1548.8 0.514426 -2.00919 0
M  V30 16172 C 1549.22 1.57632 -1.02634 0
M  V30 16173 O 1548.58 1.813 -0.00207478 0
M  V30 16174 C 1548.63 1.09197 -3.43669 0
M  V30 16175 O 1547.73 2.20684 -3.48385 0
M  V30 16176 H 1547.07 0.125827 -0.651969 0
M  V30 16177 H 1549.6 -0.243607 -2.03145 0
M  V30 16178 H 1549.61 1.42066 -3.82467 0
M  V30 16179 H 1548.29 0.314336 -4.1471 0
M  V30 16180 H 1546.86 1.89045 -3.21429 0
M  V30 16181 N 1549.05 1.57088 0.126881 0
M  V30 16182 C 1550.29 1.84709 0.837287 0
M  V30 16183 C 1550.63 0.731496 1.79897 0
M  V30 16184 O 1549.9 -0.263319 1.92709 0
M  V30 16185 C 1550.19 3.22893 1.59412 0
M  V30 16186 C 1550.04 4.45041 0.652578 0
M  V30 16187 C 1551.36 3.58547 2.5521 0
M  V30 16188 H 1548.48 0.671862 0.302937 0
M  V30 16189 H 1551.12 1.89727 0.101783 0
M  V30 16190 H 1549.27 3.18746 2.22112 0
M  V30 16191 H 1550.94 4.61287 0.0350382 0
M  V30 16192 H 1549.18 4.33785 -0.0364578 0
M  V30 16193 H 1549.85 5.38381 1.21861 0
M  V30 16194 H 1552.33 3.63434 2.0262 0
M  V30 16195 H 1551.21 4.56227 3.05202 0
M  V30 16196 H 1551.47 2.85552 3.37509 0
M  V30 16197 N 1550.53 -0.396836 1.52522 0
M  V30 16198 C 1551.49 -1.46695 1.76106 0
M  V30 16199 C 1552.49 -1.47902 0.631005 0
M  V30 16200 O 1553.68 -1.4921 0.898995 0
M  V30 16201 C 1550.81 -2.86033 1.85467 0
M  V30 16202 H 1552 -1.27071 2.71649 0
M  V30 16203 H 1549.56 -0.628096 1.43125 0
M  V30 16204 H 1550.29 -3.11012 0.918816 0
M  V30 16205 H 1550.08 -2.86559 2.67631 0
M  V30 16206 H 1551.57 -3.63587 2.05412 0
M  V30 16207 N 1552.01 -1.43353 -0.654814 0
M  V30 16208 C 1553.25 -1.44599 -1.41193 0
M  V30 16209 C 1553.57 -0.0707955 -1.94871 0
M  V30 16210 O 1552.84 0.893637 -1.7433 0
M  V30 16211 H 1551.42 -0.532373 -0.524011 0
M  V30 16212 H 1554.09 -1.78942 -0.772388 0
M  V30 16213 H 1553.18 -2.15761 -2.25508 0
M  V30 16214 N 1553.48 0.89303 -1.29857 0
M  V30 16215 C 1554.9 1.17496 -1.08013 0
M  V30 16216 C 1555.1 2.00829 0.164302 0
M  V30 16217 O 1554.16 2.37396 0.860194 0
M  V30 16218 C 1555.47 1.88944 -2.33924 0
M  V30 16219 C 1557.02 2.01742 -2.3931 0
M  V30 16220 C 1557.49 2.76601 -3.65042 0
M  V30 16221 N 1558.98 2.84152 -3.65803 0
M  V30 16222 C 1559.72 3.42628 -4.59776 0
M  V30 16223 N 1559.21 4.02218 -5.64086 0
M  V30 16224 N 1561.01 3.40366 -4.47334 0
M  V30 16225 H 1553.16 0.33719 -2.09706 0
M  V30 16226 H 1555.42 0.211899 -0.924014 0
M  V30 16227 H 1555.13 1.35151 -3.24695 0
M  V30 16228 H 1555 2.89379 -2.4195 0
M  V30 16229 H 1557.39 2.54708 -1.49022 0
M  V30 16230 H 1557.47 1.0042 -2.35265 0
M  V30 16231 H 1557.11 2.24309 -4.55684 0
M  V30 16232 H 1557.04 3.78283 -3.66346 0
M  V30 16233 H 1559.53 2.41835 -2.90386 0
M  V30 16234 H 1559.85 4.4488 -6.31903 0
M  V30 16235 H 1558.19 4.00661 -5.67887 0
M  V30 16236 H 1561.38 2.93035 -3.65031 0
M  V30 16237 H 1561.56 3.85644 -5.20752 0
M  V30 16238 N 1554.96 1.12442 1.10429 0
M  V30 16239 C 1556.21 0.874466 1.81758 0
M  V30 16240 C 1556.52 -0.601487 1.86122 0
M  V30 16241 O 1557.73 -0.968037 2.53656 0
M  V30 16242 C 1556.19 1.51478 3.2647 0
M  V30 16243 C 1555.79 3.02552 3.30403 0
M  V30 16244 C 1557.54 1.34511 4.02625 0
M  V30 16245 C 1555.44 3.59518 4.69575 0
M  V30 16246 H 1554.37 0.323494 0.681078 0
M  V30 16247 H 1557.03 1.35091 1.24188 0
M  V30 16248 H 1555.41 0.966 3.84037 0
M  V30 16249 H 1556.58 3.63924 2.82659 0
M  V30 16250 H 1554.9 3.18917 2.67733 0
M  V30 16251 H 1557.49 1.74492 5.05427 0
M  V30 16252 H 1557.84 0.288788 4.15297 0
M  V30 16253 H 1558.37 1.86311 3.51473 0
M  V30 16254 H 1555.11 4.6491 4.62103 0
M  V30 16255 H 1554.63 3.02922 5.17686 0
M  V30 16256 H 1556.31 3.58581 5.38543 0
M  V30 16257 N 1556.44 -1.28223 0.91633 0
M  V30 16258 C 1557.85 -1.76898 0.597003 0
M  V30 16259 C 1558.2 -1.74969 -0.887719 0
M  V30 16260 O 1557.33 -1.34598 -1.69447 0
M  V30 16261 C 1557.92 -3.21228 1.07694 0
M  V30 16262 C 1556.48 -3.67614 0.80849 0
M  V30 16263 C 1555.63 -2.47921 1.24219 0
M  V30 16264 H 1558.58 -1.1465 1.09732 0
M  V30 16265 H 1558.6 -3.7818 0.419531 0
M  V30 16266 H 1558.11 -3.226 2.15757 0
M  V30 16267 H 1556.21 -3.717 -0.258814 0
M  V30 16268 H 1556.33 -4.57633 1.41804 0
M  V30 16269 H 1554.69 -2.45976 0.660892 0
M  V30 16270 H 1555.47 -2.5201 2.33122 0
M  V30 16271 N 1557.92 -0.68059 -1.42147 0
M  V30 16272 C 1558.88 -0.0149865 -2.29195 0
M  V30 16273 C 1559.88 0.723163 -1.43621 0
M  V30 16274 O 1561.07 0.560297 -1.64943 0
M  V30 16275 C 1558.2 0.989375 -3.26227 0
M  V30 16276 H 1559.4 -0.781236 -2.89546 0
M  V30 16277 H 1556.95 -0.443256 -1.49883 0
M  V30 16278 H 1557.68 1.78391 -2.70827 0
M  V30 16279 H 1557.47 0.463401 -3.89352 0
M  V30 16280 H 1558.96 1.45334 -3.91494 0
M  V30 16281 N 1559.4 1.51781 -0.424309 0
M  V30 16282 C 1560.81 1.86653 0.0418266 0
M  V30 16283 C 1561.16 1.34224 1.43103 0
M  V30 16284 O 1560.28 0.687684 2.05183 0
M  V30 16285 C 1560.88 3.38699 0.0826759 0
M  V30 16286 C 1559.44 3.73155 0.493186 0
M  V30 16287 C 1558.58 2.75417 -0.322586 0
M  V30 16288 H 1561.53 1.45191 -0.640726 0
M  V30 16289 H 1561.56 3.69828 0.894864 0
M  V30 16290 H 1561.07 3.76829 -0.928536 0
M  V30 16291 H 1559.17 3.4061 1.51048 0
M  V30 16292 H 1559.28 4.78562 0.227032 0
M  V30 16293 H 1557.65 2.53772 0.217262 0
M  V30 16294 H 1558.43 3.16388 -1.33243 0
M  V30 16295 N 1560.87 0.155222 1.56834 0
M  V30 16296 C 1562.12 -0.494557 1.96677 0
M  V30 16297 C 1562.45 -1.63973 1.04051 0
M  V30 16298 O 1561.73 -1.94316 0.0844791 0
M  V30 16299 C 1562.01 -0.992902 3.46141 0
M  V30 16300 C 1561.86 0.151335 4.49545 0
M  V30 16301 C 1563.18 -1.87197 3.98303 0
M  V30 16302 H 1560.3 -0.178298 0.715107 0
M  V30 16303 H 1562.94 0.23811 1.88502 0
M  V30 16304 H 1561.09 -1.61724 3.53239 0
M  V30 16305 H 1562.77 0.787945 4.54521 0
M  V30 16306 H 1561.01 0.809262 4.26185 0
M  V30 16307 H 1561.68 -0.23921 5.51481 0
M  V30 16308 H 1564.16 -1.34578 3.93736 0
M  V30 16309 H 1563.03 -2.18972 5.03331 0
M  V30 16310 H 1563.29 -2.81191 3.41151 0
M  V30 16311 N 1562.35 -1.57153 -0.118549 0
M  V30 16312 C 1563.26 -2.03673 -1.16424 0
M  V30 16313 C 1564.28 -0.957203 -1.45305 0
M  V30 16314 O 1565.45 -1.26874 -1.56413 0
M  V30 16315 C 1562.52 -2.43211 -2.47082 0
M  V30 16316 C 1561.58 -3.65248 -2.25593 0
M  V30 16317 C 1560.81 -4.02891 -3.50021 0
M  V30 16318 O 1561.04 -3.40871 -4.57344 0
M  V30 16319 O 1559.97 -4.95989 -3.40996 0
M  V30 16320 H 1563.8 -2.92996 -0.799206 0
M  V30 16321 H 1561.38 -1.45724 -0.329376 0
M  V30 16322 H 1563.26 -2.69374 -3.24061 0
M  V30 16323 H 1561.94 -1.57034 -2.83058 0
M  V30 16324 H 1560.84 -3.44234 -1.46471 0
M  V30 16325 H 1562.18 -4.52131 -1.94521 0
M  V30 16326 N 1563.83 0.388742 -1.5273 0
M  V30 16327 C 1564.78 1.47488 -1.77527 0
M  V30 16328 C 1565.75 1.54155 -0.618505 0
M  V30 16329 O 1566.93 1.70407 -0.858251 0
M  V30 16330 C 1564.07 2.84714 -1.95018 0
M  V30 16331 C 1563.18 2.87197 -3.2271 0
M  V30 16332 C 1562.32 4.15851 -3.30517 0
M  V30 16333 C 1561.36 4.12386 -4.52332 0
M  V30 16334 N 1560.5 5.32647 -4.57418 0
M  V30 16335 H 1565.34 1.25644 -2.70218 0
M  V30 16336 H 1562.87 0.609519 -1.33878 0
M  V30 16337 H 1564.83 3.64402 -2.03143 0
M  V30 16338 H 1563.46 3.05008 -1.05688 0
M  V30 16339 H 1562.51 1.99879 -3.23655 0
M  V30 16340 H 1563.82 2.80505 -4.12454 0
M  V30 16341 H 1562.98 5.03943 -3.37827 0
M  V30 16342 H 1561.72 4.25265 -2.38748 0
M  V30 16343 H 1560.72 3.22683 -4.45147 0
M  V30 16344 H 1561.95 4.04594 -5.45418 0
M  V30 16345 H 1559.89 5.42691 -3.68541 0
M  V30 16346 H 1559.81 5.28032 -5.41035 0
M  V30 16347 H 1561.08 6.22636 -4.68983 0
M  V30 16348 N 1565.31 1.43698 0.647203 0
M  V30 16349 C 1566.53 1.49301 1.43958 0
M  V30 16350 C 1566.96 0.11395 1.87755 0
M  V30 16351 O 1566.32 -0.893571 1.5775 0
M  V30 16352 C 1566.36 2.44905 2.64677 0
M  V30 16353 O 1565.47 1.93947 3.63948 0
M  V30 16354 H 1564.81 0.504771 0.431396 0
M  V30 16355 H 1567.34 1.88673 0.791432 0
M  V30 16356 H 1567.35 2.62409 3.12419 0
M  V30 16357 H 1566.02 3.45083 2.32143 0
M  V30 16358 H 1564.6 1.86133 3.23124 0
M  V30 16359 N 1566.79 -0.886131 1.30328 0
M  V30 16360 C 1568.03 -1.64026 1.19261 0
M  V30 16361 C 1568.37 -1.92553 -0.252379 0
M  V30 16362 O 1567.64 -1.54564 -1.18069 0
M  V30 16363 C 1567.92 -2.9808 2.0204 0
M  V30 16364 C 1567.78 -2.76534 3.54752 0
M  V30 16365 C 1569.1 -3.98989 1.85731 0
M  V30 16366 H 1566.21 -0.595224 0.4346 0
M  V30 16367 H 1568.86 -1.0255 1.59949 0
M  V30 16368 H 1567.01 -3.50552 1.67469 0
M  V30 16369 H 1568.68 -2.3086 3.99376 0
M  V30 16370 H 1566.92 -2.1106 3.78993 0
M  V30 16371 H 1567.59 -3.71849 4.07961 0
M  V30 16372 H 1570.07 -3.55673 2.15953 0
M  V30 16373 H 1568.94 -4.90699 2.45979 0
M  V30 16374 H 1569.21 -4.34501 0.816152 0
M  V30 16375 N 1568.26 -1.13026 -1.09832 0
M  V30 16376 C 1569.68 -0.867598 -1.33959 0
M  V30 16377 C 1569.88 0.499047 -1.95222 0
M  V30 16378 O 1568.94 1.24644 -2.19591 0
M  V30 16379 C 1570.25 -1.98893 -2.25526 0
M  V30 16380 C 1571.8 -2.02054 -2.39047 0
M  V30 16381 C 1572.27 -3.13438 -3.33947 0
M  V30 16382 N 1573.76 -3.12921 -3.41518 0
M  V30 16383 C 1574.5 -3.95746 -4.14937 0
M  V30 16384 N 1573.99 -4.88574 -4.91189 0
M  V30 16385 N 1575.79 -3.8386 -4.10619 0
M  V30 16386 H 1567.94 -2.01072 -0.684382 0
M  V30 16387 H 1570.2 -0.875341 -0.363982 0
M  V30 16388 H 1569.91 -2.97405 -1.87731 0
M  V30 16389 H 1569.78 -1.89948 -3.25883 0
M  V30 16390 H 1572.17 -1.04158 -2.76107 0
M  V30 16391 H 1572.25 -2.15072 -1.38483 0
M  V30 16392 H 1571.89 -4.11571 -2.9761 0
M  V30 16393 H 1571.82 -2.97658 -4.34405 0
M  V30 16394 H 1574.31 -2.45677 -2.87144 0
M  V30 16395 H 1574.63 -5.48269 -5.44629 0
M  V30 16396 H 1572.97 -4.92583 -4.90292 0
M  V30 16397 H 1576.16 -3.10669 -3.50146 0
M  V30 16398 H 1576.34 -4.48637 -4.67577 0
M  V30 16399 N 1569.74 1.27735 -0.923117 0
M  V30 16400 C 1571.16 1.46952 -0.622666 0
M  V30 16401 C 1571.36 1.8364 0.829384 0
M  V30 16402 O 1570.41 1.94705 1.60767 0
M  V30 16403 C 1571.73 2.56545 -1.56861 0
M  V30 16404 C 1573.28 2.70408 -1.57634 0
M  V30 16405 C 1573.75 3.83154 -2.50913 0
M  V30 16406 N 1575.24 3.90521 -2.49093 0
M  V30 16407 C 1575.98 4.77167 -3.17962 0
M  V30 16408 N 1575.47 5.68334 -3.96193 0
M  V30 16409 N 1577.27 4.70857 -3.07002 0
M  V30 16410 H 1569.42 1.02205 -1.86193 0
M  V30 16411 H 1571.68 0.509982 -0.799138 0
M  V30 16412 H 1571.39 2.3637 -2.60427 0
M  V30 16413 H 1571.26 3.53839 -1.30681 0
M  V30 16414 H 1573.65 2.89967 -0.548005 0
M  V30 16415 H 1573.73 1.73615 -1.8786 0
M  V30 16416 H 1573.37 3.64349 -3.53853 0
M  V30 16417 H 1573.3 4.79365 -2.17984 0
M  V30 16418 H 1575.79 3.25329 -1.92274 0
M  V30 16419 H 1576.11 6.31298 -4.45738 0
M  V30 16420 H 1574.45 5.68144 -4.00297 0
M  V30 16421 H 1577.64 3.98629 -2.45382 0
M  V30 16422 H 1577.81 5.38166 -3.60945 0
M  V30 16423 N 1571.22 0.688118 1.41784 0
M  V30 16424 C 1572.47 0.216263 2.01644 0
M  V30 16425 C 1572.8 -1.17861 1.54345 0
M  V30 16426 O 1572.07 -1.794 0.751392 0
M  V30 16427 C 1572.36 0.265663 3.59119 0
M  V30 16428 C 1572.21 1.69694 4.16562 0
M  V30 16429 C 1573.53 -0.378713 4.38468 0
M  V30 16430 H 1570.65 0.0800582 0.732639 0
M  V30 16431 H 1573.29 0.875428 1.68631 0
M  V30 16432 H 1571.44 -0.295588 3.87374 0
M  V30 16433 H 1573.11 2.31146 3.9921 0
M  V30 16434 H 1571.36 2.23345 3.71886 0
M  V30 16435 H 1572.03 1.68309 5.25715 0
M  V30 16436 H 1574.5 0.0991969 4.15982 0
M  V30 16437 H 1573.38 -0.31357 5.48004 0
M  V30 16438 H 1573.64 -1.45832 4.17355 0
M  V30 16439 N 1572.7 -1.51554 0.432352 0
M  V30 16440 C 1573.63 -2.24175 -0.426721 0
M  V30 16441 C 1574.61 -1.2591 -1.02885 0
M  V30 16442 O 1575.79 -1.55031 -1.07227 0
M  V30 16443 C 1572.92 -2.9883 -1.59431 0
M  V30 16444 C 1571.97 -4.11712 -1.11335 0
M  V30 16445 S 1572.8 -5.35467 -0.0594485 0
M  V30 16446 C 1573.96 -6.13659 -1.23182 0
M  V30 16447 H 1574.19 -2.96693 0.18984 0
M  V30 16448 H 1571.72 -1.5287 0.216828 0
M  V30 16449 H 1573.68 -3.42442 -2.2637 0
M  V30 16450 H 1572.34 -2.2591 -2.18228 0
M  V30 16451 H 1571.53 -4.63207 -1.98633 0
M  V30 16452 H 1571.14 -3.70335 -0.522268 0
M  V30 16453 H 1573.43 -6.42443 -2.15113 0
M  V30 16454 H 1574.37 -7.04043 -0.756938 0
M  V30 16455 H 1574.78 -5.45074 -1.46813 0
M  V30 16456 N 1574.18 -0.163538 -1.56749 0
M  V30 16457 C 1575.14 0.755801 -2.1638 0
M  V30 16458 C 1576.14 1.16359 -1.10982 0
M  V30 16459 O 1577.33 1.08182 -1.36537 0
M  V30 16460 C 1574.46 2.02775 -2.74035 0
M  V30 16461 H 1575.65 0.23681 -2.98964 0
M  V30 16462 H 1573.21 0.0859925 -1.56063 0
M  V30 16463 H 1573.94 2.59002 -1.95163 0
M  V30 16464 H 1573.73 1.74439 -3.5116 0
M  V30 16465 H 1575.22 2.684 -3.19923 0
M  V30 16466 N 1575.65 1.57214 0.110213 0
M  V30 16467 C 1576.59 1.97641 1.16064 0
M  V30 16468 C 1577.6 0.876886 1.37166 0
M  V30 16469 O 1578.79 1.15512 1.36086 0
M  V30 16470 C 1575.89 2.2671 2.51904 0
M  V30 16471 C 1575.06 3.58015 2.51285 0
M  V30 16472 C 1574.12 3.75195 3.68938 0
M  V30 16473 O 1573.15 4.47214 3.5212 0
M  V30 16474 N 1574.35 3.14627 4.87842 0
M  V30 16475 H 1577.11 2.88358 0.816679 0
M  V30 16476 H 1574.67 1.59108 0.299383 0
M  V30 16477 H 1576.67 2.35411 3.29187 0
M  V30 16478 H 1575.24 1.42076 2.78448 0
M  V30 16479 H 1574.46 3.60422 1.59655 0
M  V30 16480 H 1575.74 4.44303 2.47936 0
M  V30 16481 H 1575.14 2.56101 5.0441 0
M  V30 16482 H 1573.7 3.28836 5.6277 0
M  V30 16483 N 1577.13 -0.380637 1.52934 0
M  V30 16484 C 1578.36 -1.14417 1.72024 0
M  V30 16485 C 1578.77 -1.83962 0.442128 0
M  V30 16486 O 1578.11 -1.73839 -0.593766 0
M  V30 16487 C 1578.18 -2.22944 2.82022 0
M  V30 16488 C 1577.84 -1.73295 4.22869 0
M  V30 16489 C 1578.84 -1.20515 5.05739 0
M  V30 16490 C 1576.52 -1.79264 4.69222 0
M  V30 16491 C 1578.52 -0.743632 6.33047 0
M  V30 16492 C 1576.2 -1.32724 5.96513 0
M  V30 16493 C 1577.2 -0.803615 6.78256 0
M  V30 16494 O 1576.89 -0.34503 8.03159 0
M  V30 16495 H 1576.62 -0.348676 0.579138 0
M  V30 16496 H 1579.17 -0.450113 2.00407 0
M  V30 16497 H 1577.4 -2.95798 2.49079 0
M  V30 16498 H 1579.09 -2.84575 2.89434 0
M  V30 16499 H 1579.86 -1.15254 4.71107 0
M  V30 16500 H 1575.74 -2.18962 4.0568 0
M  V30 16501 H 1579.28 -0.334251 6.96799 0
M  V30 16502 H 1575.18 -1.37673 6.30648 0
M  V30 16503 H 1575.95 -0.465743 8.17174 0
M  V30 16504 N 1578.61 -1.44039 -0.639573 0
M  V30 16505 C 1579.57 -1.49907 -1.7338 0
M  V30 16506 C 1580.57 -0.382101 -1.56194 0
M  V30 16507 O 1581.76 -0.644396 -1.61843 0
M  V30 16508 C 1578.9 -1.36486 -3.12385 0
M  V30 16509 H 1580.09 -2.4737 -1.69553 0
M  V30 16510 H 1577.64 -1.31006 -0.852474 0
M  V30 16511 H 1578.38 -0.400845 -3.21813 0
M  V30 16512 H 1578.16 -2.17471 -3.26265 0
M  V30 16513 H 1579.65 -1.43555 -3.9215 0
M  V30 16514 N 1580.09 0.879207 -1.30796 0
M  V30 16515 C 1581.31 1.66975 -1.23021 0
M  V30 16516 C 1581.74 1.87004 0.202798 0
M  V30 16517 O 1581.1 1.40514 1.14566 0
M  V30 16518 C 1581.14 3.02028 -1.97007 0
M  V30 16519 O 1580.25 3.91338 -1.30109 0
M  V30 16520 H 1579.59 0.509998 -0.425204 0
M  V30 16521 H 1582.12 1.09688 -1.72713 0
M  V30 16522 H 1582.13 3.5203 -2.06249 0
M  V30 16523 H 1580.8 2.8677 -3.01224 0
M  V30 16524 H 1579.38 3.49781 -1.29258 0
M  V30 16525 N 1581.57 1.13606 1.09231 0
M  V30 16526 C 1582.52 0.810747 2.18013 0
M  V30 16527 C 1583.51 -0.207782 1.68121 0
M  V30 16528 O 1584.72 -0.0647274 1.79884 0
M  V30 16529 H 1581.09 0.244415 0.711172 0
M  V30 16530 H 1583.06 1.73632 2.42682 0
M  V30 16531 C 1581.81 0.295302 3.46444 0
M  V30 16532 H 1581.13 1.07037 3.85205 0
M  V30 16533 H 1582.57 0.106127 4.23867 0
M  V30 16534 C 1581.03 -0.979398 3.2235 0
M  V30 16535 O 1581.56 -2.05483 3.45166 0
M  V30 16536 N 1579.77 -0.911282 2.75942 0
M  V30 16537 H 1579.32 -0.035979 2.57575 0
M  V30 16538 H 1579.27 -1.76476 2.60199 0
M  V30 16539 N 1583.05 -1.27244 0.929878 0
M  V30 16540 C 1584.29 -1.93559 0.567267 0
M  V30 16541 C 1584.61 -1.73864 -0.896138 0
M  V30 16542 O 1585.81 -2.34538 -1.36763 0
M  V30 16543 C 1584.27 -3.46756 0.963743 0
M  V30 16544 C 1583.88 -3.75204 2.44798 0
M  V30 16545 C 1585.62 -4.19139 0.672487 0
M  V30 16546 C 1583.53 -5.21787 2.78375 0
M  V30 16547 H 1582.46 -0.724617 0.208437 0
M  V30 16548 H 1585.11 -1.44502 1.13099 0
M  V30 16549 H 1583.49 -3.94634 0.328654 0
M  V30 16550 H 1584.67 -3.38075 3.13116 0
M  V30 16551 H 1582.98 -3.16029 2.71136 0
M  V30 16552 H 1585.58 -5.27074 0.899816 0
M  V30 16553 H 1585.92 -4.14466 -0.390378 0
M  V30 16554 H 1586.45 -3.77091 1.26678 0
M  V30 16555 H 1583.19 -5.31552 3.83579 0
M  V30 16556 H 1582.71 -5.60054 2.14708 0
M  V30 16557 H 1584.39 -5.89685 2.66234 0
M  V30 16558 N 1584.52 -0.695628 -1.41417 0
M  V30 16559 C 1585.75 -0.235654 -2.05554 0
M  V30 16560 C 1586.17 1.11513 -1.52349 0
M  V30 16561 O 1585.52 1.69688 -0.671743 0
M  V30 16562 C 1585.57 -0.184809 -3.61027 0
M  V30 16563 O 1585.3 -1.48224 -4.12264 0
M  V30 16564 C 1586.8 0.296147 -4.4231 0
M  V30 16565 H 1584.02 -0.109648 -0.661981 0
M  V30 16566 H 1586.56 -0.948227 -1.81187 0
M  V30 16567 H 1584.72 0.478588 -3.84432 0
M  V30 16568 H 1585.13 -1.36939 -5.06308 0
M  V30 16569 H 1586.6 0.280597 -5.51286 0
M  V30 16570 H 1587.08 1.33503 -4.18418 0
M  V30 16571 H 1587.69 -0.336253 -4.23969 0
M  V30 16572 N 1586 1.51322 -0.440383 0
M  V30 16573 C 1587.23 2.07017 0.126018 0
M  V30 16574 C 1587.65 1.30537 1.35431 0
M  V30 16575 O 1587.01 0.344178 1.78003 0
M  V30 16576 C 1587.06 3.58101 0.4238 0
M  V30 16577 O 1586.16 3.83772 1.50973 0
M  V30 16578 H 1585.5 0.664 0.000530178 0
M  V30 16579 H 1588.03 1.94897 -0.622594 0
M  V30 16580 H 1588.04 4.02405 0.673363 0
M  V30 16581 H 1586.72 4.13191 -0.473932 0
M  V30 16582 H 1585.29 3.51329 1.24989 0
M  V30 16583 N 1587.48 0.171848 1.5666 0
M  V30 16584 C 1588.73 -0.473669 1.97191 0
M  V30 16585 C 1589.06 -1.6286 1.05784 0
M  V30 16586 O 1588.33 -1.94216 0.105084 0
M  V30 16587 C 1588.62 -0.956134 3.47174 0
M  V30 16588 C 1588.47 0.199007 4.4936 0
M  V30 16589 C 1589.79 -1.82962 4.00266 0
M  V30 16590 H 1586.91 -0.170704 0.716958 0
M  V30 16591 H 1589.55 0.25809 1.88239 0
M  V30 16592 H 1587.7 -1.57969 3.54934 0
M  V30 16593 H 1589.37 0.836109 4.53659 0
M  V30 16594 H 1587.61 0.85442 4.25302 0
M  V30 16595 H 1588.29 -0.180704 5.51704 0
M  V30 16596 H 1590.76 -1.30394 3.95141 0
M  V30 16597 H 1589.64 -2.13621 5.05625 0
M  V30 16598 H 1589.9 -2.77557 3.44114 0
M  V30 16599 N 1588.96 -1.5727 -0.101874 0
M  V30 16600 C 1589.89 -2.04614 -1.12496 0
M  V30 16601 C 1590.87 -0.933768 -1.42179 0
M  V30 16602 O 1592.05 -1.2046 -1.52325 0
M  V30 16603 C 1589.18 -2.46488 -2.44665 0
M  V30 16604 C 1588.14 -3.61327 -2.29406 0
M  V30 16605 C 1587.46 -3.89155 -3.66691 0
M  V30 16606 C 1588.76 -4.92455 -1.74026 0
M  V30 16607 H 1590.46 -2.90336 -0.731109 0
M  V30 16608 H 1588 -1.39676 -0.350239 0
M  V30 16609 H 1589.96 -2.78216 -3.16502 0
M  V30 16610 H 1588.68 -1.57757 -2.85972 0
M  V30 16611 H 1587.34 -3.29835 -1.60015 0
M  V30 16612 H 1586.99 -2.97603 -4.05514 0
M  V30 16613 H 1586.69 -4.66465 -3.57329 0
M  V30 16614 H 1588.21 -4.23352 -4.40006 0
M  V30 16615 H 1589.63 -5.22609 -2.35697 0
M  V30 16616 H 1588.02 -5.73882 -1.75441 0
M  V30 16617 H 1589.09 -4.79833 -0.699136 0
M  V30 16618 N 1590.44 0.372521 -1.53134 0
M  V30 16619 C 1591.68 1.12465 -1.70678 0
M  V30 16620 C 1592.04 1.8676 -0.445503 0
M  V30 16621 O 1593.24 2.64155 -0.497531 0
M  V30 16622 C 1591.51 2.06389 -2.91785 0
M  V30 16623 S 1593.07 2.89216 -3.3 0
M  V30 16624 H 1589.89 0.380458 -0.600644 0
M  V30 16625 H 1592.49 0.406831 -1.9122 0
M  V30 16626 H 1591.19 1.50559 -3.81786 0
M  V30 16627 H 1590.73 2.82654 -2.73624 0
M  V30 16628 H 1592.74 4.08642 -2.81471 0
M  V30 16629 N 1591.91 1.44376 0.631925 0
M  V30 16630 C 1592.85 1.47167 1.75711 0
M  V30 16631 C 1593.86 0.365158 1.58652 0
M  V30 16632 O 1595.05 0.630852 1.66981 0
M  V30 16633 C 1592.15 1.28916 3.13423 0
M  V30 16634 C 1591.32 2.52798 3.56948 0
M  V30 16635 C 1590.38 2.29458 4.73535 0
M  V30 16636 O 1589.41 3.02941 4.81887 0
M  V30 16637 N 1590.61 1.32467 5.65184 0
M  V30 16638 H 1593.37 2.44168 1.73788 0
M  V30 16639 H 1590.93 1.39805 0.816465 0
M  V30 16640 H 1592.93 1.1115 3.89137 0
M  V30 16641 H 1591.5 0.402828 3.09994 0
M  V30 16642 H 1590.72 2.85846 2.71451 0
M  V30 16643 H 1592 3.35198 3.82779 0
M  V30 16644 H 1591.4 0.717762 5.61128 0
M  V30 16645 H 1589.96 1.2068 6.40531 0
M  V30 16646 N 1593.39 -0.872258 1.31261 0
M  V30 16647 C 1594.64 -1.62511 1.20815 0
M  V30 16648 C 1594.97 -1.93084 -0.234231 0
M  V30 16649 O 1594.22 -1.55945 -1.18236 0
M  V30 16650 C 1594.52 -2.96524 1.9952 0
M  V30 16651 C 1594.19 -2.85453 3.49038 0
M  V30 16652 C 1592.85 -2.8214 3.89808 0
M  V30 16653 C 1595.2 -2.72654 4.44195 0
M  V30 16654 C 1592.53 -2.63885 5.24005 0
M  V30 16655 C 1594.88 -2.55936 5.78515 0
M  V30 16656 C 1593.54 -2.51005 6.18508 0
M  V30 16657 H 1592.81 -0.594672 0.442093 0
M  V30 16658 H 1595.46 -1.01319 1.62501 0
M  V30 16659 H 1593.77 -3.61739 1.50507 0
M  V30 16660 H 1595.46 -3.53763 1.8882 0
M  V30 16661 H 1592.05 -2.88847 3.16647 0
M  V30 16662 H 1596.24 -2.7427 4.1363 0
M  V30 16663 H 1591.49 -2.58491 5.54069 0
M  V30 16664 H 1595.67 -2.45009 6.51877 0
M  V30 16665 H 1593.29 -2.36619 7.22437 0
M  V30 16666 N 1594.87 -1.14184 -1.08627 0
M  V30 16667 C 1596.28 -0.920108 -1.62453 0
M  V30 16668 C 1596.63 0.541577 -1.88577 0
M  V30 16669 O 1595.76 1.41002 -1.64157 0
M  V30 16670 C 1596.35 -1.6638 -2.95132 0
M  V30 16671 C 1594.91 -1.48771 -3.45752 0
M  V30 16672 C 1594.06 -1.68774 -2.20024 0
M  V30 16673 H 1597.01 -1.29396 -0.91882 0
M  V30 16674 H 1597.03 -1.12568 -3.63468 0
M  V30 16675 H 1596.54 -2.72759 -2.76087 0
M  V30 16676 H 1594.64 -0.44729 -3.69905 0
M  V30 16677 H 1594.76 -2.25619 -4.2265 0
M  V30 16678 H 1593.12 -1.11321 -2.29084 0
M  V30 16679 H 1593.9 -2.76491 -2.03489 0
M  V30 16680 N 1596.35 1.26749 -0.936613 0
M  V30 16681 C 1597.57 1.98597 -0.597817 0
M  V30 16682 C 1598 1.69324 0.8192 0
M  V30 16683 O 1597.36 0.938634 1.55111 0
M  V30 16684 C 1597.4 3.50656 -0.841007 0
M  V30 16685 O 1596.51 4.12304 0.0891038 0
M  V30 16686 H 1595.85 0.623197 -0.229176 0
M  V30 16687 H 1598.38 1.61332 -1.2583 0
M  V30 16688 H 1598.39 4.00857 -0.760093 0
M  V30 16689 H 1597.06 3.71293 -1.87388 0
M  V30 16690 H 1595.64 3.72876 -0.0424804 0
M  V30 16691 N 1597.83 0.703118 1.41046 0
M  V30 16692 C 1598.76 0.00331992 2.292 0
M  V30 16693 C 1599.77 -0.736648 1.4518 0
M  V30 16694 O 1600.96 -0.586097 1.68604 0
M  V30 16695 C 1598.06 -1.01948 3.23203 0
M  V30 16696 C 1597.23 -0.347591 4.36017 0
M  V30 16697 C 1596.29 -1.27404 5.10543 0
M  V30 16698 O 1595.32 -0.763558 5.64055 0
M  V30 16699 N 1596.52 -2.60596 5.1872 0
M  V30 16700 H 1599.29 0.760179 2.89899 0
M  V30 16701 H 1596.85 0.549747 1.52281 0
M  V30 16702 H 1598.84 -1.64115 3.6993 0
M  V30 16703 H 1597.41 -1.6778 2.63758 0
M  V30 16704 H 1596.63 0.454088 3.91576 0
M  V30 16705 H 1597.92 0.119295 5.0866 0
M  V30 16706 H 1597.31 -3.0458 4.76705 0
M  V30 16707 H 1595.87 -3.17939 5.68998 0
M  V30 16708 N 1599.3 -1.51086 0.448402 0
M  V30 16709 C 1600.24 -2.25799 -0.393401 0
M  V30 16710 C 1601.25 -1.30241 -0.976792 0
M  V30 16711 O 1602.44 -1.55916 -0.869051 0
M  V30 16712 C 1599.54 -3.00682 -1.56345 0
M  V30 16713 C 1598.71 -4.23421 -1.09695 0
M  V30 16714 C 1597.77 -4.8079 -2.1384 0
M  V30 16715 O 1596.8 -5.42329 -1.72823 0
M  V30 16716 N 1598 -4.65792 -3.46437 0
M  V30 16717 H 1600.76 -2.98681 0.246986 0
M  V30 16718 H 1598.32 -1.59497 0.277902 0
M  V30 16719 H 1600.32 -3.35945 -2.25662 0
M  V30 16720 H 1598.89 -2.30741 -2.10897 0
M  V30 16721 H 1598.11 -3.93526 -0.230457 0
M  V30 16722 H 1599.39 -5.03049 -0.762832 0
M  V30 16723 H 1598.79 -4.16799 -3.82486 0
M  V30 16724 H 1597.35 -5.05386 -4.11616 0
M  V30 16725 N 1600.78 -0.180154 -1.56567 0
M  V30 16726 C 1602.03 0.462656 -1.96322 0
M  V30 16727 C 1602.34 1.63788 -1.06925 0
M  V30 16728 O 1603.55 2.34751 -1.36398 0
M  V30 16729 C 1602.01 0.874492 -3.49114 0
M  V30 16730 C 1601.61 -0.27562 -4.47151 0
M  V30 16731 C 1603.36 1.48522 -3.9767 0
M  V30 16732 C 1601.27 0.156341 -5.91193 0
M  V30 16733 H 1600.2 0.176619 -0.733022 0
M  V30 16734 H 1602.85 -0.269793 -1.81506 0
M  V30 16735 H 1601.23 1.66318 -3.59381 0
M  V30 16736 H 1602.4 -1.05304 -4.48606 0
M  V30 16737 H 1600.72 -0.796878 -4.08704 0
M  V30 16738 H 1603.31 1.8206 -5.02751 0
M  V30 16739 H 1603.66 2.38634 -3.41115 0
M  V30 16740 H 1604.19 0.760806 -3.90457 0
M  V30 16741 H 1600.93 -0.710221 -6.51641 0
M  V30 16742 H 1600.45 0.898933 -5.93025 0
M  V30 16743 H 1602.13 0.597228 -6.44238 0
M  V30 16744 N 1602.26 1.57322 0.0935319 0
M  V30 16745 C 1603.22 2.0121 1.0976 0
M  V30 16746 C 1604.22 0.905839 1.32858 0
M  V30 16747 O 1605.41 1.17128 1.28945 0
M  V30 16748 C 1602.55 2.37414 2.44638 0
M  V30 16749 H 1603.74 2.91134 0.719809 0
M  V30 16750 H 1601.29 1.52588 0.338625 0
M  V30 16751 H 1602.03 1.50449 2.8729 0
M  V30 16752 H 1601.81 3.1812 2.2922 0
M  V30 16753 H 1603.3 2.7202 3.16851 0
M  V30 16754 N 1603.74 -0.364395 1.53329 0
M  V30 16755 C 1604.97 -1.1275 1.7348 0
M  V30 16756 C 1605.38 -1.83002 0.4643 0
M  V30 16757 O 1604.74 -1.73603 -0.562864 0
M  V30 16758 C 1604.79 -2.15691 2.90103 0
M  V30 16759 O 1604.51 -1.48298 4.12237 0
M  V30 16760 C 1606.01 -3.04539 3.22135 0
M  V30 16761 H 1603.23 -0.337084 0.580186 0
M  V30 16762 H 1605.78 -0.422952 2.00078 0
M  V30 16763 H 1603.93 -2.81742 2.65895 0
M  V30 16764 H 1604.34 -2.16896 4.77553 0
M  V30 16765 H 1605.82 -3.72747 4.07141 0
M  V30 16766 H 1606.3 -3.69414 2.3755 0
M  V30 16767 H 1606.9 -2.44103 3.48273 0
M  V30 16768 N 1605.22 -1.44709 -0.62426 0
M  V30 16769 C 1606.47 -1.47131 -1.37968 0
M  V30 16770 C 1606.78 -0.110507 -1.95288 0
M  V30 16771 O 1607.98 -0.0122892 -2.71497 0
M  V30 16772 C 1606.44 -2.59059 -2.49833 0
M  V30 16773 C 1606.05 -4.01378 -1.98997 0
M  V30 16774 C 1607.79 -2.70709 -3.26981 0
M  V30 16775 C 1605.7 -5.04717 -3.08244 0
M  V30 16776 H 1604.63 -0.547424 -0.5185 0
M  V30 16777 H 1607.28 -1.70797 -0.670863 0
M  V30 16778 H 1605.66 -2.28646 -3.23322 0
M  V30 16779 H 1606.84 -4.41391 -1.32327 0
M  V30 16780 H 1605.15 -3.9403 -1.34644 0
M  V30 16781 H 1607.75 -3.45087 -4.08435 0
M  V30 16782 H 1608.09 -1.76763 -3.76909 0
M  V30 16783 H 1608.62 -3.00566 -2.60585 0
M  V30 16784 H 1605.36 -6.00315 -2.63253 0
M  V30 16785 H 1604.88 -4.6929 -3.73534 0
M  V30 16786 H 1606.56 -5.28725 -3.72906 0
M  V30 16787 N 1606.69 0.865285 -1.31722 0
M  V30 16788 C 1607.62 1.98871 -1.22362 0
M  V30 16789 C 1608.61 1.69745 -0.109779 0
M  V30 16790 O 1609.79 1.91944 -0.295167 0
M  V30 16791 C 1606.92 3.34477 -0.935 0
M  V30 16792 C 1605.87 3.77924 -2.00892 0
M  V30 16793 C 1605.2 5.11042 -1.57291 0
M  V30 16794 C 1606.5 3.94528 -3.42264 0
M  V30 16795 H 1608.19 2.06959 -2.16352 0
M  V30 16796 H 1605.74 0.994355 -1.04157 0
M  V30 16797 H 1607.69 4.12612 -0.856111 0
M  V30 16798 H 1606.42 3.26575 0.0405536 0
M  V30 16799 H 1605.08 3.02032 -2.07779 0
M  V30 16800 H 1604.72 4.99586 -0.585084 0
M  V30 16801 H 1604.42 5.41082 -2.29138 0
M  V30 16802 H 1605.95 5.91681 -1.50818 0
M  V30 16803 H 1607.36 4.63045 -3.38027 0
M  V30 16804 H 1605.76 4.35972 -4.12369 0
M  V30 16805 H 1606.83 2.97765 -3.82706 0
M  V30 16806 N 1608.17 1.14759 1.0802 0
M  V30 16807 C 1609.45 0.828957 1.77166 0
M  V30 16808 C 1609.83 -0.676783 1.99957 0
M  V30 16809 O 1609.18 -1.61891 1.61256 0
M  V30 16810 C 1609.39 1.63213 3.08484 0
M  V30 16811 C 1610.74 1.834 3.82948 0
M  V30 16812 O 1611.76 1.59932 3.18277 0
M  V30 16813 O 1610.62 2.22661 4.99083 0
M  V30 16814 H 1607.71 0.304168 0.769032 0
M  V30 16815 H 1610.26 1.253 1.14446 0
M  V30 16816 H 1609.03 2.65474 2.8747 0
M  V30 16817 H 1608.65 1.20397 3.78933 0
M  V30 16818 N 1609.65 -1.26251 0.943322 0
M  V30 16819 C 1610.89 -1.95409 0.599542 0
M  V30 16820 C 1611.25 -1.72356 -0.846017 0
M  V30 16821 O 1612.46 -2.35337 -1.29884 0
M  V30 16822 C 1610.73 -3.44953 0.935013 0
M  V30 16823 S 1612.29 -4.33147 0.702101 0
M  V30 16824 H 1609.1 -0.675863 0.22075 0
M  V30 16825 H 1611.71 -1.53153 1.21509 0
M  V30 16826 H 1610.41 -3.59232 1.98445 0
M  V30 16827 H 1609.94 -3.92182 0.309268 0
M  V30 16828 H 1611.96 -4.9431 -0.432655 0
M  V30 16829 N 1611.13 -0.710588 -1.40671 0
M  V30 16830 C 1612.08 -0.031353 -2.27978 0
M  V30 16831 C 1613.06 0.737643 -1.42995 0
M  V30 16832 O 1614.26 0.610666 -1.66132 0
M  V30 16833 C 1611.38 0.893329 -3.31473 0
M  V30 16834 C 1610.47 0.119785 -4.23931 0
M  V30 16835 N 1610.86 -0.894341 -4.9783 0
M  V30 16836 C 1609.16 0.353077 -4.446 0
M  V30 16837 C 1609.86 -1.3587 -5.6561 0
M  V30 16838 N 1608.84 -0.681786 -5.39308 0
M  V30 16839 H 1612.64 -0.808683 -2.82555 0
M  V30 16840 H 1610.15 -0.542734 -1.53063 0
M  V30 16841 H 1612.15 1.39521 -3.92861 0
M  V30 16842 H 1610.81 1.67009 -2.78457 0
M  V30 16843 H 1611.82 -1.27504 -5.01959 0
M  V30 16844 H 1608.5 1.10655 -4.02569 0
M  V30 16845 H 1609.89 -2.20108 -6.34825 0
M  V30 16846 N 1612.61 1.50847 -0.456408 0
M  V30 16847 C 1613.57 2.26755 0.33388 0
M  V30 16848 C 1614.57 1.30947 0.933247 0
M  V30 16849 O 1615.76 1.54499 0.804716 0
M  V30 16850 C 1612.89 3.07378 1.47417 0
M  V30 16851 H 1614.09 2.98061 -0.331634 0
M  V30 16852 H 1611.64 1.54882 -0.210067 0
M  V30 16853 H 1612.37 2.40534 2.17518 0
M  V30 16854 H 1612.16 3.7777 1.05036 0
M  V30 16855 H 1613.65 3.64826 2.03204 0
M  V30 16856 N 1614.09 0.188454 1.56469 0
M  V30 16857 C 1615.05 -0.721282 2.17555 0
M  V30 16858 C 1616.05 -1.14579 1.1282 0
M  V30 16859 O 1617.24 -1.05996 1.38241 0
M  V30 16860 C 1614.37 -1.9839 2.77226 0
M  V30 16861 H 1615.56 -0.189218 2.99302 0
M  V30 16862 H 1613.12 -0.0611533 1.5618 0
M  V30 16863 H 1613.85 -2.55864 1.99259 0
M  V30 16864 H 1613.64 -1.68831 3.53891 0
M  V30 16865 H 1615.13 -2.63277 3.24153 0
M  V30 16866 N 1615.56 -1.5737 -0.0851874 0
M  V30 16867 C 1616.79 -1.90802 -0.800137 0
M  V30 16868 C 1617.21 -0.783132 -1.71792 0
M  V30 16869 O 1616.56 0.244331 -1.80857 0
M  V30 16870 C 1616.61 -3.2391 -1.60513 0
M  V30 16871 O 1616.34 -4.32072 -0.724253 0
M  V30 16872 C 1617.84 -3.7127 -2.42226 0
M  V30 16873 H 1615.06 -0.630988 -0.228242 0
M  V30 16874 H 1617.6 -2.04414 -0.0594587 0
M  V30 16875 H 1615.76 -3.11867 -2.29822 0
M  V30 16876 H 1616.17 -5.08571 -1.28279 0
M  V30 16877 H 1617.64 -4.67074 -2.94187 0
M  V30 16878 H 1618.12 -2.99606 -3.21143 0
M  V30 16879 H 1618.73 -3.86214 -1.78099 0
M  V30 16880 N 1617.04 0.356258 -1.53521 0
M  V30 16881 C 1617.97 1.44271 -1.83598 0
M  V30 16882 C 1618.95 1.5547 -0.690141 0
M  V30 16883 O 1620.14 1.69886 -0.940868 0
M  V30 16884 C 1617.27 2.8149 -2.03422 0
M  V30 16885 C 1616.22 2.85108 -3.19213 0
M  V30 16886 C 1615.55 4.25091 -3.24348 0
M  V30 16887 C 1616.85 2.51788 -4.57602 0
M  V30 16888 H 1618.54 1.1935 -2.74583 0
M  V30 16889 H 1616.09 0.572707 -1.32121 0
M  V30 16890 H 1618.04 3.57531 -2.23046 0
M  V30 16891 H 1616.76 3.07819 -1.09155 0
M  V30 16892 H 1615.42 2.1152 -2.99424 0
M  V30 16893 H 1615.07 4.4851 -2.277 0
M  V30 16894 H 1614.77 4.28426 -4.0215 0
M  V30 16895 H 1616.3 5.02992 -3.46167 0
M  V30 16896 H 1617.71 3.17542 -4.77326 0
M  V30 16897 H 1616.11 2.66426 -5.37715 0
M  V30 16898 H 1617.18 1.4701 -4.62078 0
M  V30 16899 N 1618.52 1.45038 0.616577 0
M  V30 16900 C 1619.45 1.49023 1.7414 0
M  V30 16901 C 1620.46 0.381965 1.58256 0
M  V30 16902 O 1621.65 0.648527 1.66302 0
M  V30 16903 C 1618.75 1.32233 3.12038 0
M  V30 16904 C 1617.93 2.5657 3.54246 0
M  V30 16905 C 1616.99 2.34468 4.71075 0
M  V30 16906 O 1616.01 3.08035 4.78647 0
M  V30 16907 N 1617.21 1.38454 5.63747 0
M  V30 16908 H 1619.98 2.45997 1.71189 0
M  V30 16909 H 1617.54 1.40663 0.80159 0
M  V30 16910 H 1619.53 1.15271 3.87936 0
M  V30 16911 H 1618.1 0.435685 3.09549 0
M  V30 16912 H 1617.32 2.88709 2.68404 0
M  V30 16913 H 1618.61 3.39239 3.79203 0
M  V30 16914 H 1618.01 0.777236 5.60335 0
M  V30 16915 H 1616.56 1.27467 6.39215 0
M  V30 16916 N 1620 -0.858287 1.32179 0
M  V30 16917 C 1621.41 -1.14591 1.1109 0
M  V30 16918 C 1621.61 -2.01194 -0.110998 0
M  V30 16919 O 1620.67 -2.39593 -0.79695 0
M  V30 16920 C 1621.98 -1.82675 2.38852 0
M  V30 16921 C 1623.53 -1.95326 2.44574 0
M  V30 16922 C 1624.01 -2.66826 3.72247 0
M  V30 16923 N 1625.5 -2.74353 3.73208 0
M  V30 16924 C 1626.23 -3.30317 4.68698 0
M  V30 16925 N 1625.73 -3.87121 5.74552 0
M  V30 16926 N 1627.52 -3.28386 4.562 0
M  V30 16927 H 1619.67 -0.281471 2.10527 0
M  V30 16928 H 1621.93 -0.187326 0.929308 0
M  V30 16929 H 1621.64 -1.26495 3.28165 0
M  V30 16930 H 1621.51 -2.82862 2.49537 0
M  V30 16931 H 1623.9 -2.50668 1.55723 0
M  V30 16932 H 1623.98 -0.94147 2.37844 0
M  V30 16933 H 1623.63 -2.12149 4.61471 0
M  V30 16934 H 1623.56 -3.68437 3.76247 0
M  V30 16935 H 1626.05 -2.34051 2.96696 0
M  V30 16936 H 1626.36 -4.2797 6.43476 0
M  V30 16937 H 1624.71 -3.85463 5.78311 0
M  V30 16938 H 1627.9 -2.83254 3.72672 0
M  V30 16939 H 1628.07 -3.71701 5.30794 0
M  V30 16940 N 1621.48 -1.1533 -1.07409 0
M  V30 16941 C 1622.42 -0.849527 -2.14597 0
M  V30 16942 C 1623.39 0.197288 -1.64924 0
M  V30 16943 O 1624.58 0.0649694 -1.90689 0
M  V30 16944 C 1621.72 -0.344327 -3.43378 0
M  V30 16945 C 1620.83 -1.45264 -4.06844 0
M  V30 16946 C 1619.97 -0.90363 -5.23458 0
M  V30 16947 C 1619 -1.98892 -5.78885 0
M  V30 16948 N 1618.14 -1.45633 -6.8683 0
M  V30 16949 H 1622.98 -1.76753 -2.39922 0
M  V30 16950 H 1620.52 -0.881942 -1.17729 0
M  V30 16951 H 1622.48 -0.0331352 -4.17187 0
M  V30 16952 H 1621.11 0.536757 -3.18306 0
M  V30 16953 H 1620.16 -1.88003 -3.30695 0
M  V30 16954 H 1621.47 -2.27207 -4.44048 0
M  V30 16955 H 1620.62 -0.544945 -6.04248 0
M  V30 16956 H 1619.36 -0.0533648 -4.87671 0
M  V30 16957 H 1618.37 -2.35644 -4.96741 0
M  V30 16958 H 1619.59 -2.84295 -6.16728 0
M  V30 16959 H 1617.54 -0.628417 -6.52983 0
M  V30 16960 H 1617.46 -2.21204 -7.22914 0
M  V30 16961 H 1618.72 -1.12587 -7.71326 0
M  V30 16962 N 1622.95 1.25748 -0.950004 0
M  V30 16963 C 1623.92 2.24307 -0.47106 0
M  V30 16964 C 1624.92 1.55145 0.422704 0
M  V30 16965 O 1626.11 1.72797 0.220642 0
M  V30 16966 C 1623.24 3.39395 0.319979 0
M  V30 16967 H 1624.43 2.68192 -1.34214 0
M  V30 16968 H 1621.98 1.38056 -0.732827 0
M  V30 16969 H 1622.72 3.00925 1.20892 0
M  V30 16970 H 1622.5 3.90783 -0.321157 0
M  V30 16971 H 1623.99 4.12594 0.644697 0
M  V30 16972 N 1624.43 0.718038 1.40292 0
M  V30 16973 C 1625.71 0.185648 1.94717 0
M  V30 16974 C 1626.09 -1.30916 1.65603 0
M  V30 16975 O 1625.44 -2.06653 0.975031 0
M  V30 16976 C 1625.65 0.501015 3.45385 0
M  V30 16977 C 1626.99 0.441021 4.22303 0
M  V30 16978 O 1628.02 0.437217 3.53507 0
M  V30 16979 O 1626.88 0.420689 5.44878 0
M  V30 16980 H 1623.97 0.0281581 0.82652 0
M  V30 16981 H 1626.52 0.795738 1.49887 0
M  V30 16982 H 1625.29 1.5348 3.59944 0
M  V30 16983 H 1624.91 -0.138913 3.97357 0
M  V30 16984 N 1625.91 -1.50602 0.464402 0
M  V30 16985 C 1627.33 -1.59162 0.118173 0
M  V30 16986 C 1627.53 -1.47313 -1.37481 0
M  V30 16987 O 1626.58 -1.32819 -2.14745 0
M  V30 16988 C 1627.9 -2.93313 0.662411 0
M  V30 16989 C 1629.44 -3.06692 0.625244 0
M  V30 16990 C 1629.92 -4.43407 1.14691 0
M  V30 16991 N 1631.41 -4.49801 1.10604 0
M  V30 16992 C 1632.14 -5.53964 1.48026 0
M  V30 16993 N 1631.64 -6.65413 1.92865 0
M  V30 16994 N 1633.43 -5.44471 1.39671 0
M  V30 16995 H 1625.58 -1.56548 1.4355 0
M  V30 16996 H 1627.85 -0.739451 0.593225 0
M  V30 16997 H 1627.55 -3.07439 1.70805 0
M  V30 16998 H 1627.43 -3.77061 0.102251 0
M  V30 16999 H 1629.81 -2.92217 -0.411466 0
M  V30 17000 H 1629.9 -2.24717 1.22213 0
M  V30 17001 H 1629.54 -4.5863 2.18222 0
M  V30 17002 H 1629.47 -5.23963 0.526306 0
M  V30 17003 H 1631.96 -3.69824 0.77709 0
M  V30 17004 H 1632.27 -7.40947 2.19585 0
M  V30 17005 H 1630.62 -6.66551 1.96812 0
M  V30 17006 H 1633.81 -4.56289 1.04487 0
M  V30 17007 H 1633.98 -6.25531 1.69161 0
M  V30 17008 N 1627.39 -0.19675 -1.56367 0
M  V30 17009 C 1628.3 0.735372 -2.22777 0
M  V30 17010 C 1629.31 1.23336 -1.22737 0
M  V30 17011 O 1630.49 1.28017 -1.55479 0
M  V30 17012 C 1627.56 1.93706 -2.8754 0
M  V30 17013 C 1626.62 1.48348 -4.02854 0
M  V30 17014 C 1625.85 2.62788 -4.64519 0
M  V30 17015 O 1626.07 3.80311 -4.25111 0
M  V30 17016 O 1625.01 2.35406 -5.53956 0
M  V30 17017 H 1628.83 0.199788 -3.03042 0
M  V30 17018 H 1626.42 0.0326149 -1.49364 0
M  V30 17019 H 1628.3 2.63934 -3.28507 0
M  V30 17020 H 1626.97 2.46121 -2.10252 0
M  V30 17021 H 1625.88 0.749939 -3.66506 0
M  V30 17022 H 1627.21 1.00597 -4.8181 0
M  V30 17023 N 1628.87 1.57413 0.0768405 0
M  V30 17024 C 1630.11 1.87279 0.778099 0
M  V30 17025 C 1630.45 0.788359 1.77478 0
M  V30 17026 O 1629.72 -0.201876 1.9345 0
M  V30 17027 C 1630 3.27801 1.49059 0
M  V30 17028 C 1629.86 4.46892 0.510661 0
M  V30 17029 C 1631.18 3.66485 2.43674 0
M  V30 17030 H 1628.29 0.681159 0.281409 0
M  V30 17031 H 1630.94 1.89955 0.0413711 0
M  V30 17032 H 1629.09 3.2565 2.11859 0
M  V30 17033 H 1630.76 4.61165 -0.111734 0
M  V30 17034 H 1629 4.33449 -0.174445 0
M  V30 17035 H 1629.67 5.41985 1.04671 0
M  V30 17036 H 1632.15 3.69696 1.90955 0
M  V30 17037 H 1631.02 4.65706 2.90533 0
M  V30 17038 H 1631.29 2.96145 3.28254 0
M  V30 17039 N 1630.34 -0.348112 1.53707 0
M  V30 17040 C 1631.59 -1.08886 1.70734 0
M  V30 17041 C 1631.92 -1.88782 0.468142 0
M  V30 17042 O 1631.17 -1.8781 -0.550081 0
M  V30 17043 C 1631.47 -2.06123 2.91973 0
M  V30 17044 C 1631.14 -1.42574 4.27766 0
M  V30 17045 C 1629.8 -1.24971 4.64689 0
M  V30 17046 C 1632.15 -0.967538 5.12141 0
M  V30 17047 C 1629.48 -0.601597 5.83607 0
M  V30 17048 C 1631.83 -0.33335 6.31721 0
M  V30 17049 C 1630.5 -0.144967 6.67343 0
M  V30 17050 H 1629.77 -0.398444 0.624759 0
M  V30 17051 H 1632.41 -0.368657 1.87918 0
M  V30 17052 H 1630.72 -2.84509 2.69373 0
M  V30 17053 H 1632.42 -2.63423 3.0234 0
M  V30 17054 H 1629.01 -1.57271 3.98702 0
M  V30 17055 H 1633.19 -1.0914 4.84151 0
M  V30 17056 H 1628.45 -0.444216 6.09784 0
M  V30 17057 H 1632.62 0.0298081 6.96394 0
M  V30 17058 H 1630.25 0.359291 7.5935 0
M  V30 17059 N 1631.82 -1.45363 -0.608876 0
M  V30 17060 C 1633.07 -1.49313 -1.36792 0
M  V30 17061 C 1633.4 -0.134357 -1.94035 0
M  V30 17062 O 1632.65 0.866819 -1.75456 0
M  V30 17063 C 1632.95 -2.51893 -2.53544 0
M  V30 17064 C 1632.62 -3.96636 -2.14455 0
M  V30 17065 C 1631.28 -4.36048 -2.03508 0
M  V30 17066 C 1633.63 -4.87668 -1.83929 0
M  V30 17067 C 1630.96 -5.64389 -1.60256 0
M  V30 17068 C 1633.31 -6.16419 -1.42163 0
M  V30 17069 C 1631.98 -6.54763 -1.29774 0
M  V30 17070 H 1631.25 -0.546373 -0.500557 0
M  V30 17071 H 1633.89 -1.78702 -0.68832 0
M  V30 17072 H 1632.2 -2.16068 -3.26836 0
M  V30 17073 H 1633.89 -2.52187 -3.11773 0
M  V30 17074 H 1630.48 -3.65467 -2.23901 0
M  V30 17075 H 1634.67 -4.57956 -1.91284 0
M  V30 17076 H 1629.92 -5.92894 -1.49285 0
M  V30 17077 H 1634.1 -6.86401 -1.17588 0
M  V30 17078 H 1631.73 -7.5411 -0.960322 0
M  V30 17079 N 1633.3 0.851265 -1.32632 0
M  V30 17080 C 1634.55 1.60057 -1.22738 0
M  V30 17081 C 1634.86 1.94485 0.208525 0
M  V30 17082 O 1636.07 2.68083 0.429361 0
M  V30 17083 C 1634.52 2.88634 -2.14985 0
M  V30 17084 C 1634.13 2.61617 -3.63676 0
M  V30 17085 C 1635.88 3.6665 -2.13935 0
M  V30 17086 C 1633.78 3.86215 -4.47875 0
M  V30 17087 H 1632.71 0.600617 -0.455824 0
M  V30 17088 H 1635.36 0.939671 -1.57615 0
M  V30 17089 H 1633.75 3.56199 -1.73027 0
M  V30 17090 H 1634.92 2.02342 -4.13998 0
M  V30 17091 H 1633.24 1.96926 -3.66891 0
M  V30 17092 H 1635.83 4.59114 -2.74078 0
M  V30 17093 H 1636.18 4.00636 -1.13121 0
M  V30 17094 H 1636.71 3.05993 -2.54192 0
M  V30 17095 H 1633.45 3.57367 -5.49517 0
M  V30 17096 H 1632.97 4.44874 -4.02302 0
M  V30 17097 H 1634.65 4.5392 -4.61049 0
M  V30 17098 N 1634.78 1.15898 1.06796 0
M  V30 17099 C 1635.73 0.856808 2.16244 0
M  V30 17100 C 1636.72 -0.172075 1.68524 0
M  V30 17101 O 1637.93 -0.0265569 1.7998 0
M  V30 17102 H 1634.3 0.259445 0.705827 0
M  V30 17103 H 1636.27 1.7874 2.38945 0
M  V30 17104 C 1635.02 0.368721 3.45739 0
M  V30 17105 H 1634.34 1.15184 3.82848 0
M  V30 17106 H 1635.78 0.196012 4.23547 0
M  V30 17107 C 1634.24 -0.910802 3.24355 0
M  V30 17108 O 1634.77 -1.98115 3.49447 0
M  V30 17109 N 1632.98 -0.852545 2.77813 0
M  V30 17110 H 1632.53 0.0186646 2.57593 0
M  V30 17111 H 1632.48 -1.70917 2.63884 0
M  V30 17112 N 1636.26 -1.25243 0.956659 0
M  V30 17113 C 1637.48 -1.97082 0.629791 0
M  V30 17114 C 1637.9 -1.71082 -0.798529 0
M  V30 17115 O 1637.26 -0.98805 -1.5344 0
M  V30 17116 C 1637.31 -3.5059 0.881406 0
M  V30 17117 O 1637.03 -3.75694 2.25356 0
M  V30 17118 C 1638.53 -4.39656 0.567203 0
M  V30 17119 H 1635.75 -0.628152 0.235938 0
M  V30 17120 H 1638.29 -1.5936 1.28159 0
M  V30 17121 H 1636.45 -3.86416 0.27599 0
M  V30 17122 H 1636.86 -4.70142 2.32523 0
M  V30 17123 H 1638.34 -5.46263 0.793785 0
M  V30 17124 H 1638.81 -4.36364 -0.498287 0
M  V30 17125 H 1639.42 -4.094 1.15203 0
M  V30 17126 N 1637.73 -0.725468 -1.3991 0
M  V30 17127 C 1638.67 -0.0397832 -2.29165 0
M  V30 17128 C 1639.68 0.713458 -1.46334 0
M  V30 17129 O 1640.87 0.559199 -1.69515 0
M  V30 17130 C 1637.97 0.967929 -3.24784 0
M  V30 17131 C 1637.14 0.278181 -4.36515 0
M  V30 17132 C 1636.2 1.19266 -5.12506 0
M  V30 17133 O 1635.23 0.673726 -5.65199 0
M  V30 17134 N 1636.43 2.5231 -5.228 0
M  V30 17135 H 1639.19 -0.806204 -2.88653 0
M  V30 17136 H 1636.75 -0.573904 -1.51387 0
M  V30 17137 H 1638.75 1.58209 -3.72494 0
M  V30 17138 H 1637.32 1.63563 -2.66394 0
M  V30 17139 H 1636.54 -0.516326 -3.90804 0
M  V30 17140 H 1637.82 -0.200203 -5.08406 0
M  V30 17141 H 1637.22 2.96957 -4.8149 0
M  V30 17142 H 1635.78 3.08846 -5.73984 0
M  V30 17143 N 1639.21 1.50354 -0.472382 0
M  V30 17144 C 1640.44 2.07238 0.0820787 0
M  V30 17145 C 1640.86 1.3338 1.32632 0
M  V30 17146 O 1640.22 0.381857 1.77233 0
M  V30 17147 C 1640.27 3.58919 0.347746 0
M  V30 17148 O 1639.37 3.86888 1.42799 0
M  V30 17149 H 1638.71 0.663862 -0.0135544 0
M  V30 17150 H 1641.24 1.93533 -0.663795 0
M  V30 17151 H 1641.25 4.03743 0.587855 0
M  V30 17152 H 1639.93 4.12093 -0.56147 0
M  V30 17153 H 1638.51 3.53901 1.17509 0
M  V30 17154 N 1640.69 0.205039 1.56261 0
M  V30 17155 C 1641.94 -0.431364 1.97033 0
M  V30 17156 C 1642.25 -1.62066 1.09517 0
M  V30 17157 O 1643.46 -2.32551 1.40116 0
M  V30 17158 C 1641.92 -0.818841 3.50461 0
M  V30 17159 C 1641.52 0.346723 4.46656 0
M  V30 17160 C 1643.27 -1.42177 3.99982 0
M  V30 17161 C 1641.17 -0.0622677 5.91367 0
M  V30 17162 H 1640.1 -0.164934 0.73574 0
M  V30 17163 H 1642.76 0.298635 1.81054 0
M  V30 17164 H 1641.14 -1.60579 3.61981 0
M  V30 17165 H 1642.31 1.12427 4.46874 0
M  V30 17166 H 1640.63 0.861799 4.07384 0
M  V30 17167 H 1643.22 -1.74039 5.05583 0
M  V30 17168 H 1643.57 -2.33177 3.44868 0
M  V30 17169 H 1644.1 -0.698591 3.91618 0
M  V30 17170 H 1640.84 0.813802 6.50429 0
M  V30 17171 H 1640.36 -0.804474 5.94381 0
M  V30 17172 H 1642.04 -0.49466 6.45106 0
M  V30 17173 N 1642.17 -1.57451 -0.0684915 0
M  V30 17174 C 1643.42 -1.87689 -0.768156 0
M  V30 17175 C 1643.75 -0.79776 -1.77058 0
M  V30 17176 O 1643.02 0.191614 -1.93554 0
M  V30 17177 C 1643.31 -3.28587 -1.47319 0
M  V30 17178 C 1643.16 -4.47156 -0.486954 0
M  V30 17179 C 1644.48 -3.67772 -2.41727 0
M  V30 17180 H 1641.6 -0.682642 -0.277793 0
M  V30 17181 H 1644.24 -1.89974 -0.0312968 0
M  V30 17182 H 1642.39 -3.26769 -2.10129 0
M  V30 17183 H 1644.06 -4.61099 0.136189 0
M  V30 17184 H 1642.3 -4.33351 0.197429 0
M  V30 17185 H 1642.98 -5.42533 -1.01795 0
M  V30 17186 H 1645.45 -3.70704 -1.88992 0
M  V30 17187 H 1644.33 -4.6724 -2.88059 0
M  V30 17188 H 1644.59 -2.97882 -3.26679 0
M  V30 17189 N 1643.65 0.339955 -1.5389 0
M  V30 17190 C 1644.58 1.43837 -1.78448 0
M  V30 17191 C 1645.59 1.48559 -0.665885 0
M  V30 17192 O 1646.78 1.51577 -0.942686 0
M  V30 17193 C 1643.88 2.82474 -1.87248 0
M  V30 17194 C 1643.05 3.01149 -3.17219 0
M  V30 17195 C 1642.11 4.20049 -3.16931 0
M  V30 17196 O 1641.14 4.13994 -3.90638 0
M  V30 17197 N 1642.34 5.28767 -2.39553 0
M  V30 17198 H 1645.11 1.2314 -2.73234 0
M  V30 17199 H 1642.67 0.529855 -1.52984 0
M  V30 17200 H 1644.66 3.60196 -1.84502 0
M  V30 17201 H 1643.23 2.96297 -0.996322 0
M  V30 17202 H 1642.45 2.10867 -3.3306 0
M  V30 17203 H 1643.74 3.10511 -4.03063 0
M  V30 17204 H 1643.14 5.36557 -1.79228 0
M  V30 17205 H 1641.69 6.04969 -2.42601 0
M  V30 17206 N 1645.13 1.45684 0.601159 0
M  V30 17207 C 1646.06 1.57694 1.72206 0
M  V30 17208 C 1647.04 0.428141 1.64624 0
M  V30 17209 O 1648.22 0.65209 1.82925 0
M  V30 17210 C 1645.35 1.54941 3.10822 0
M  V30 17211 C 1644.31 2.68603 3.33222 0
M  V30 17212 C 1643.63 2.50906 4.72176 0
M  V30 17213 C 1644.93 4.10568 3.22849 0
M  V30 17214 H 1646.63 2.51521 1.62412 0
M  V30 17215 H 1644.17 1.2105 0.779929 0
M  V30 17216 H 1646.12 1.61939 3.89042 0
M  V30 17217 H 1644.85 0.576471 3.21472 0
M  V30 17218 H 1643.51 2.61043 2.57394 0
M  V30 17219 H 1643.16 1.51736 4.79568 0
M  V30 17220 H 1642.86 3.27131 4.88118 0
M  V30 17221 H 1644.38 2.59767 5.52588 0
M  V30 17222 H 1645.79 4.19336 3.90935 0
M  V30 17223 H 1644.19 4.87234 3.50318 0
M  V30 17224 H 1645.26 4.32022 2.20192 0
M  V30 17225 N 1646.6 -0.84422 1.33082 0
M  V30 17226 C 1647.85 -1.60149 1.24419 0
M  V30 17227 C 1648.18 -1.93259 -0.190992 0
M  V30 17228 O 1647.46 -1.58242 -1.13092 0
M  V30 17229 C 1647.74 -2.91502 2.11421 0
M  V30 17230 C 1647.59 -2.65108 3.6337 0
M  V30 17231 C 1648.91 -3.92878 1.98331 0
M  V30 17232 H 1646.03 -0.581096 0.453317 0
M  V30 17233 H 1648.67 -0.974093 1.6313 0
M  V30 17234 H 1646.82 -3.45046 1.78537 0
M  V30 17235 H 1648.5 -2.18037 4.06519 0
M  V30 17236 H 1646.74 -1.98896 3.85516 0
M  V30 17237 H 1647.41 -3.58682 4.19584 0
M  V30 17238 H 1649.89 -3.48623 2.27159 0
M  V30 17239 H 1648.76 -4.82625 2.61466 0
M  V30 17240 H 1649.02 -4.31685 0.953972 0
M  V30 17241 N 1648.08 -1.16463 -1.0618 0
M  V30 17242 C 1649.01 -0.829995 -2.13644 0
M  V30 17243 C 1650.03 0.16326 -1.61979 0
M  V30 17244 O 1651.22 -0.0616575 -1.78393 0
M  V30 17245 C 1648.32 -0.215222 -3.38216 0
M  V30 17246 C 1647.49 -1.24886 -4.19192 0
M  V30 17247 C 1646.55 -0.653683 -5.22124 0
M  V30 17248 O 1645.57 -1.32285 -5.53615 0
M  V30 17249 N 1646.78 0.559031 -5.77802 0
M  V30 17250 H 1649.54 -1.75487 -2.42949 0
M  V30 17251 H 1647.1 -1.06212 -1.22191 0
M  V30 17252 H 1649.09 0.196005 -4.04225 0
M  V30 17253 H 1647.66 0.613229 -3.06526 0
M  V30 17254 H 1646.88 -1.83622 -3.48822 0
M  V30 17255 H 1648.17 -1.94639 -4.70099 0
M  V30 17256 H 1647.57 1.12083 -5.54485 0
M  V30 17257 H 1646.13 0.912453 -6.45382 0
M  V30 17258 N 1649.56 1.24734 -0.963288 0
M  V30 17259 C 1650.98 1.44897 -0.669103 0
M  V30 17260 C 1651.18 1.86185 0.770541 0
M  V30 17261 O 1650.23 1.99721 1.54492 0
M  V30 17262 C 1651.54 2.51425 -1.64943 0
M  V30 17263 C 1653.09 2.65256 -1.66157 0
M  V30 17264 C 1653.57 3.74977 -2.62976 0
M  V30 17265 N 1655.06 3.82399 -2.61391 0
M  V30 17266 C 1655.79 4.66809 -3.32981 0
M  V30 17267 N 1655.29 5.55441 -4.14073 0
M  V30 17268 N 1657.08 4.60851 -3.21827 0
M  V30 17269 H 1649.23 0.962292 -1.89351 0
M  V30 17270 H 1651.5 0.4843 -0.814958 0
M  V30 17271 H 1651.2 2.27965 -2.67815 0
M  V30 17272 H 1651.08 3.49503 -1.41872 0
M  V30 17273 H 1653.46 2.88077 -0.639978 0
M  V30 17274 H 1653.54 1.67551 -1.93288 0
M  V30 17275 H 1653.19 3.52907 -3.65266 0
M  V30 17276 H 1653.12 4.72187 -2.33125 0
M  V30 17277 H 1655.61 3.19048 -2.02527 0
M  V30 17278 H 1655.92 6.16798 -4.65597 0
M  V30 17279 H 1654.27 5.55121 -4.18169 0
M  V30 17280 H 1657.46 3.90621 -2.5794 0
M  V30 17281 H 1657.63 5.26411 -3.77883 0
M  V30 17282 N 1651.04 0.732878 1.39523 0
M  V30 17283 C 1652.27 0.289649 2.0456 0
M  V30 17284 C 1652.68 -1.07973 1.55365 0
M  V30 17285 O 1652.02 -1.69309 0.712751 0
M  V30 17286 C 1652.08 0.210767 3.58882 0
M  V30 17287 C 1651.74 1.51827 4.31042 0
M  V30 17288 C 1652.74 2.46356 4.57826 0
M  V30 17289 C 1650.43 1.78198 4.69628 0
M  V30 17290 C 1652.42 3.65491 5.22202 0
M  V30 17291 C 1650.11 2.97611 5.33733 0
M  V30 17292 C 1651.11 3.91079 5.59952 0
M  V30 17293 O 1650.79 5.08395 6.22728 0
M  V30 17294 H 1650.53 0.124787 0.664382 0
M  V30 17295 H 1653.08 0.996726 1.79595 0
M  V30 17296 H 1651.31 -0.552394 3.82734 0
M  V30 17297 H 1653 -0.200184 4.05406 0
M  V30 17298 H 1653.76 2.27252 4.28464 0
M  V30 17299 H 1649.64 1.06292 4.48579 0
M  V30 17300 H 1653.19 4.38462 5.42583 0
M  V30 17301 H 1649.08 3.16617 5.62516 0
M  V30 17302 H 1649.85 5.08701 6.41222 0
M  V30 17303 N 1652.52 -1.50101 0.480349 0
M  V30 17304 C 1653.93 -1.59028 0.135048 0
M  V30 17305 C 1654.13 -1.48763 -1.35911 0
M  V30 17306 O 1653.19 -1.35089 -2.13324 0
M  V30 17307 C 1654.5 -2.92594 0.693483 0
M  V30 17308 C 1656.05 -3.06011 0.657737 0
M  V30 17309 C 1656.52 -4.42166 1.19388 0
M  V30 17310 N 1658.01 -4.48603 1.15368 0
M  V30 17311 C 1658.75 -5.52363 1.53893 0
M  V30 17312 N 1658.25 -6.6333 1.99911 0
M  V30 17313 N 1660.04 -5.42959 1.45438 0
M  V30 17314 H 1652.19 -1.55017 1.45202 0
M  V30 17315 H 1654.45 -0.733118 0.601034 0
M  V30 17316 H 1654.16 -3.0561 1.74056 0
M  V30 17317 H 1654.03 -3.76932 0.142238 0
M  V30 17318 H 1656.42 -2.92637 -0.38045 0
M  V30 17319 H 1656.5 -2.23408 1.24589 0
M  V30 17320 H 1656.14 -4.5629 2.23074 0
M  V30 17321 H 1656.07 -5.23376 0.58185 0
M  V30 17322 H 1658.57 -3.68979 0.816271 0
M  V30 17323 H 1658.88 -7.38576 2.27431 0
M  V30 17324 H 1657.22 -6.64426 2.03871 0
M  V30 17325 H 1660.41 -4.55156 1.09321 0
M  V30 17326 H 1660.59 -6.23701 1.75786 0
M  V30 17327 N 1653.99 -0.213323 -1.5615 0
M  V30 17328 C 1655.22 0.428746 -2.0292 0
M  V30 17329 C 1655.64 1.53137 -1.09227 0
M  V30 17330 O 1655 1.81128 -0.0789684 0
M  V30 17331 C 1655.05 0.945231 -3.47991 0
M  V30 17332 O 1654.15 2.05709 -3.57432 0
M  V30 17333 H 1653.49 0.0980619 -0.656719 0
M  V30 17334 H 1656.02 -0.329548 -2.01929 0
M  V30 17335 H 1656.03 1.25717 -3.88149 0
M  V30 17336 H 1654.71 0.138161 -4.1567 0
M  V30 17337 H 1653.29 1.75242 -3.29158 0
M  V30 17338 N 1655.47 1.57485 0.0601405 0
M  V30 17339 C 1656.72 1.87445 0.755575 0
M  V30 17340 C 1657.04 0.806915 1.77522 0
M  V30 17341 O 1656.31 -0.163139 1.9522 0
M  V30 17342 H 1654.89 0.691708 0.282044 0
M  V30 17343 H 1657.55 1.94871 0.0334616 0
M  V30 17344 H 1656.65 2.85334 1.26455 0
M  V30 17345 N 1656.95 -0.331789 1.54068 0
M  V30 17346 C 1658.2 -1.06818 1.71093 0
M  V30 17347 C 1658.51 -1.89438 0.487111 0
M  V30 17348 O 1659.72 -2.66105 0.538544 0
M  V30 17349 C 1658.17 -1.94853 3.02589 0
M  V30 17350 C 1657.78 -1.17384 4.32348 0
M  V30 17351 C 1659.53 -2.68278 3.28979 0
M  V30 17352 C 1657.43 -2.04518 5.54911 0
M  V30 17353 H 1656.36 -0.402501 0.63758 0
M  V30 17354 H 1659.01 -0.326918 1.80564 0
M  V30 17355 H 1657.4 -2.72845 2.87004 0
M  V30 17356 H 1658.57 -0.442208 4.58673 0
M  V30 17357 H 1656.89 -0.556775 4.12661 0
M  V30 17358 H 1659.48 -3.33762 4.1774 0
M  V30 17359 H 1659.83 -3.35476 2.46498 0
M  V30 17360 H 1660.36 -1.97353 3.45394 0
M  V30 17361 H 1657.1 -1.41842 6.3997 0
M  V30 17362 H 1656.62 -2.75438 5.32817 0
M  V30 17363 H 1658.3 -2.63297 5.91002 0
M  V30 17364 N 1658.43 -1.46001 -0.593424 0
M  V30 17365 C 1659.84 -1.30719 -0.915678 0
M  V30 17366 C 1660.04 -0.270679 -1.99674 0
M  V30 17367 O 1659.1 0.330482 -2.50328 0
M  V30 17368 C 1660.41 -2.69034 -1.34318 0
M  V30 17369 C 1661.96 -2.77041 -1.45662 0
M  V30 17370 C 1662.44 -4.15913 -1.91783 0
M  V30 17371 N 1663.93 -4.18277 -1.98994 0
M  V30 17372 C 1664.66 -5.22612 -2.35932 0
M  V30 17373 N 1664.16 -6.37283 -2.71738 0
M  V30 17374 N 1665.95 -5.09975 -2.36394 0
M  V30 17375 H 1658.1 -2.12056 0.120882 0
M  V30 17376 H 1660.37 -0.947961 -0.00858574 0
M  V30 17377 H 1660.07 -3.4614 -0.622922 0
M  V30 17378 H 1659.95 -2.98434 -2.30688 0
M  V30 17379 H 1662.33 -2.0023 -2.16776 0
M  V30 17380 H 1662.41 -2.51338 -0.475706 0
M  V30 17381 H 1662.06 -4.93215 -1.2125 0
M  V30 17382 H 1661.99 -4.39016 -2.90813 0
M  V30 17383 H 1664.48 -3.35534 -1.73855 0
M  V30 17384 H 1664.79 -7.12679 -2.98846 0
M  V30 17385 H 1663.14 -6.40662 -2.69401 0
M  V30 17386 H 1666.33 -4.1943 -2.07836 0
M  V30 17387 H 1666.5 -5.91402 -2.64854 0
M  V30 17388 N 1659.91 0.83715 -1.33527 0
M  V30 17389 C 1661.15 1.58937 -1.24834 0
M  V30 17390 C 1661.48 1.94117 0.185368 0
M  V30 17391 O 1660.75 1.61105 1.11453 0
M  V30 17392 H 1659.33 0.589301 -0.459057 0
M  V30 17393 H 1661.99 1.00038 -1.67267 0
M  V30 17394 H 1661.08 2.51855 -1.84325 0
M  V30 17395 N 1661.38 1.17024 1.05561 0
M  V30 17396 C 1662.61 0.979328 1.81914 0
M  V30 17397 C 1663.02 -0.475688 1.83122 0
M  V30 17398 O 1662.37 -1.34205 1.25438 0
M  V30 17399 C 1662.43 1.4391 3.29439 0
M  V30 17400 C 1662.09 2.9155 3.5192 0
M  V30 17401 C 1663.09 3.89509 3.44353 0
M  V30 17402 C 1660.77 3.2964 3.79003 0
M  V30 17403 C 1662.77 5.23557 3.63548 0
M  V30 17404 C 1660.45 4.63855 3.97846 0
M  V30 17405 C 1661.45 5.60623 3.90117 0
M  V30 17406 O 1661.14 6.92411 4.08439 0
M  V30 17407 H 1660.87 0.34689 0.58021 0
M  V30 17408 H 1663.43 1.55641 1.34034 0
M  V30 17409 H 1661.66 0.805555 3.78216 0
M  V30 17410 H 1663.35 1.21445 3.87306 0
M  V30 17411 H 1664.11 3.61428 3.23412 0
M  V30 17412 H 1659.99 2.54891 3.84124 0
M  V30 17413 H 1663.53 5.99074 3.5743 0
M  V30 17414 H 1659.43 4.91644 4.18278 0
M  V30 17415 H 1660.2 6.99095 4.25685 0
M  V30 17416 N 1662.86 -1.24221 0.969889 0
M  V30 17417 C 1663.8 -2.2379 0.446447 0
M  V30 17418 C 1664.77 -1.55333 -0.480658 0
M  V30 17419 O 1665.96 -1.83953 -0.411531 0
M  V30 17420 C 1663.08 -3.36831 -0.35529 0
M  V30 17421 C 1662.13 -4.23386 0.514419 0
M  V30 17422 S 1662.96 -4.98501 1.95595 0
M  V30 17423 C 1664.12 -6.14999 1.16306 0
M  V30 17424 H 1664.35 -2.67844 1.29023 0
M  V30 17425 H 1661.89 -1.33536 0.775086 0
M  V30 17426 H 1663.84 -4.02391 -0.811882 0
M  V30 17427 H 1662.5 -2.91332 -1.17407 0
M  V30 17428 H 1661.7 -5.03898 -0.101254 0
M  V30 17429 H 1661.3 -3.6284 0.906829 0
M  V30 17430 H 1663.59 -6.76202 0.419162 0
M  V30 17431 H 1664.53 -6.80931 1.94264 0
M  V30 17432 H 1664.94 -5.6031 0.68647 0
M  V30 17433 N 1664.34 -0.740267 -1.39132 0
M  V30 17434 C 1665.29 -0.103744 -2.30567 0
M  V30 17435 C 1666.26 0.724026 -1.49489 0
M  V30 17436 O 1667.44 0.682904 -1.7816 0
M  V30 17437 C 1664.58 0.793587 -3.35851 0
M  V30 17438 C 1663.7 -0.0473671 -4.31974 0
M  V30 17439 C 1662.83 0.851726 -5.24327 0
M  V30 17440 C 1661.87 0.00633633 -6.121 0
M  V30 17441 N 1661.01 0.861652 -6.96793 0
M  V30 17442 H 1665.85 -0.889087 -2.84428 0
M  V30 17443 H 1663.38 -0.450093 -1.40045 0
M  V30 17444 H 1665.34 1.32834 -3.95488 0
M  V30 17445 H 1663.97 1.54485 -2.83433 0
M  V30 17446 H 1663.02 -0.699601 -3.73911 0
M  V30 17447 H 1664.34 -0.700806 -4.93852 0
M  V30 17448 H 1663.49 1.45413 -5.89016 0
M  V30 17449 H 1662.23 1.53893 -4.62783 0
M  V30 17450 H 1661.23 -0.608833 -5.46419 0
M  V30 17451 H 1662.46 -0.677731 -6.7571 0
M  V30 17452 H 1660.4 1.53405 -6.37811 0
M  V30 17453 H 1660.32 0.264812 -7.55536 0
M  V30 17454 H 1661.59 1.44945 -7.65905 0
M  V30 17455 N 1665.82 1.49844 -0.488302 0
M  V30 17456 C 1667.05 2.06819 0.0578807 0
M  V30 17457 C 1667.46 1.35018 1.31969 0
M  V30 17458 O 1666.82 0.424614 1.77492 0
M  V30 17459 C 1666.87 3.60005 0.328435 0
M  V30 17460 O 1666.59 4.29102 -0.883338 0
M  V30 17461 C 1668.09 4.33655 0.919675 0
M  V30 17462 H 1665.31 0.670837 -0.014775 0
M  V30 17463 H 1667.86 1.92792 -0.682022 0
M  V30 17464 H 1666.01 3.73777 1.0183 0
M  V30 17465 H 1666.42 5.206 -0.638414 0
M  V30 17466 H 1667.9 5.41753 1.05864 0
M  V30 17467 H 1668.38 3.95289 1.91424 0
M  V30 17468 H 1668.98 4.24457 0.267672 0
M  V30 17469 N 1667.3 0.221601 1.56034 0
M  V30 17470 C 1668.54 -0.410695 1.98598 0
M  V30 17471 C 1668.88 -1.59412 1.10912 0
M  V30 17472 O 1668.15 -1.93783 0.166819 0
M  V30 17473 C 1668.43 -0.845199 3.50041 0
M  V30 17474 C 1668.29 0.341866 4.48499 0
M  V30 17475 C 1669.61 -1.70135 4.05884 0
M  V30 17476 H 1666.72 -0.147808 0.722026 0
M  V30 17477 H 1669.37 0.317846 1.87323 0
M  V30 17478 H 1667.52 -1.46597 3.5978 0
M  V30 17479 H 1669.19 0.980014 4.5077 0
M  V30 17480 H 1667.43 0.989294 4.22369 0
M  V30 17481 H 1668.1 -0.00509234 5.52 0
M  V30 17482 H 1670.58 -1.17757 3.9909 0
M  V30 17483 H 1669.45 -1.97427 5.12166 0
M  V30 17484 H 1669.72 -2.66469 3.5277 0
M  V30 17485 N 1668.77 -1.57515 -0.0517878 0
M  V30 17486 C 1670.02 -1.88493 -0.748206 0
M  V30 17487 C 1670.35 -0.816494 -1.76202 0
M  V30 17488 O 1669.63 0.171075 -1.93746 0
M  V30 17489 C 1669.91 -3.30131 -1.43825 0
M  V30 17490 C 1669.76 -4.47648 -0.4395 0
M  V30 17491 C 1671.08 -3.70315 -2.37813 0
M  V30 17492 H 1668.2 -0.68555 -0.270537 0
M  V30 17493 H 1670.84 -1.89997 -0.0111457 0
M  V30 17494 H 1668.99 -3.2898 -2.06651 0
M  V30 17495 H 1670.67 -4.60929 0.185088 0
M  V30 17496 H 1668.91 -4.33117 0.243381 0
M  V30 17497 H 1669.58 -5.43582 -0.96035 0
M  V30 17498 H 1672.06 -3.72687 -1.8505 0
M  V30 17499 H 1670.93 -4.70269 -2.83087 0
M  V30 17500 H 1671.19 -3.0133 -3.23501 0
M  V30 17501 N 1670.25 0.323614 -1.54242 0
M  V30 17502 C 1671.18 1.40344 -1.86616 0
M  V30 17503 C 1672.16 1.53972 -0.722963 0
M  V30 17504 O 1673.35 1.67852 -0.976692 0
M  V30 17505 C 1670.48 2.77112 -2.09347 0
M  V30 17506 C 1669.43 2.78273 -3.25189 0
M  V30 17507 C 1668.76 4.18116 -3.33291 0
M  V30 17508 C 1670.06 2.42025 -4.6284 0
M  V30 17509 H 1671.75 1.13499 -2.77053 0
M  V30 17510 H 1669.3 0.544553 -1.33306 0
M  V30 17511 H 1671.25 3.52719 -2.3058 0
M  V30 17512 H 1669.98 3.05435 -1.1566 0
M  V30 17513 H 1668.64 2.05121 -3.03844 0
M  V30 17514 H 1668.28 4.4358 -2.37163 0
M  V30 17515 H 1667.98 4.19799 -4.11147 0
M  V30 17516 H 1669.51 4.95536 -3.56758 0
M  V30 17517 H 1670.92 3.07346 -4.83954 0
M  V30 17518 H 1669.32 2.5496 -5.43245 0
M  V30 17519 H 1670.39 1.37175 -4.65092 0
M  V30 17520 N 1671.73 1.46313 0.585673 0
M  V30 17521 C 1673.01 1.41946 1.34576 0
M  V30 17522 C 1673.39 0.101379 2.10856 0
M  V30 17523 O 1672.74 -0.917016 2.09292 0
M  V30 17524 C 1672.95 2.64724 2.27425 0
M  V30 17525 C 1674.29 3.10746 2.89347 0
M  V30 17526 O 1675.32 2.65252 2.37739 0
M  V30 17527 O 1674.18 3.8976 3.83079 0
M  V30 17528 H 1671.27 0.564346 0.604519 0
M  V30 17529 H 1673.82 1.58475 0.606937 0
M  V30 17530 H 1672.59 3.52217 1.70467 0
M  V30 17531 H 1672.21 2.50639 3.08652 0
M  V30 17532 N 1673.21 -0.830057 1.33969 0
M  V30 17533 C 1674.14 -1.95557 1.27592 0
M  V30 17534 C 1675.12 -1.69395 0.154745 0
M  V30 17535 O 1676.31 -1.91094 0.345954 0
M  V30 17536 C 1673.44 -3.31881 1.02335 0
M  V30 17537 C 1672.39 -3.72464 2.10842 0
M  V30 17538 C 1671.72 -5.06692 1.70785 0
M  V30 17539 C 1673.02 -3.85315 3.52604 0
M  V30 17540 H 1674.71 -2.0115 2.21763 0
M  V30 17541 H 1672.26 -0.96639 1.06756 0
M  V30 17542 H 1674.21 -4.10197 0.965206 0
M  V30 17543 H 1672.93 -3.26568 0.0460462 0
M  V30 17544 H 1671.59 -2.96417 2.15714 0
M  V30 17545 H 1671.24 -4.97859 0.717334 0
M  V30 17546 H 1670.94 -5.34817 2.43403 0
M  V30 17547 H 1672.46 -5.87474 1.66452 0
M  V30 17548 H 1673.88 -4.5392 3.50185 0
M  V30 17549 H 1672.27 -4.24886 4.23783 0
M  V30 17550 H 1673.34 -2.87514 3.90466 0
M  V30 17551 N 1674.69 -1.17582 -1.04939 0
M  V30 17552 C 1675.62 -0.918221 -2.14688 0
M  V30 17553 C 1676.6 0.140757 -1.69517 0
M  V30 17554 O 1677.78 -0.0100118 -1.94197 0
M  V30 17555 C 1674.91 -0.433531 -3.44584 0
M  V30 17556 C 1673.87 -1.43199 -4.03334 0
M  V30 17557 C 1673.19 -0.805154 -5.28603 0
M  V30 17558 C 1674.49 -2.80598 -4.40525 0
M  V30 17559 H 1676.19 -1.83604 -2.36495 0
M  V30 17560 H 1673.73 -0.884202 -1.13657 0
M  V30 17561 H 1675.69 -0.240722 -4.20712 0
M  V30 17562 H 1674.41 0.519832 -3.22437 0
M  V30 17563 H 1673.07 -1.61158 -3.29277 0
M  V30 17564 H 1672.72 0.155124 -5.02761 0
M  V30 17565 H 1672.42 -1.4717 -5.68871 0
M  V30 17566 H 1673.94 -0.622677 -6.07417 0
M  V30 17567 H 1675.36 -2.66341 -5.07676 0
M  V30 17568 H 1673.75 -3.43854 -4.91817 0
M  V30 17569 H 1674.82 -3.34815 -3.50752 0
M  V30 17570 N 1676.17 1.23705 -0.976463 0
M  V30 17571 C 1677.58 1.44179 -0.684434 0
M  V30 17572 C 1677.78 1.86992 0.75075 0
M  V30 17573 O 1676.84 2.01349 1.52365 0
M  V30 17574 C 1678.15 2.49661 -1.676 0
M  V30 17575 C 1679.7 2.63479 -1.68961 0
M  V30 17576 C 1680.17 3.72167 -2.66938 0
M  V30 17577 N 1681.66 3.79605 -2.65433 0
M  V30 17578 C 1682.4 4.63251 -3.37914 0
M  V30 17579 N 1681.9 5.51018 -4.19941 0
M  V30 17580 N 1683.69 4.57412 -3.26697 0
M  V30 17581 H 1675.84 0.942155 -1.90361 0
M  V30 17582 H 1678.1 0.475629 -0.820049 0
M  V30 17583 H 1677.81 2.25111 -2.70218 0
M  V30 17584 H 1677.68 3.47978 -1.45571 0
M  V30 17585 H 1680.07 2.87382 -0.670497 0
M  V30 17586 H 1680.15 1.65491 -1.95055 0
M  V30 17587 H 1679.79 3.49013 -3.68988 0
M  V30 17588 H 1679.72 4.69688 -2.3812 0
M  V30 17589 H 1682.22 3.16882 -2.05899 0
M  V30 17590 H 1682.53 6.11825 -4.72113 0
M  V30 17591 H 1680.87 5.50655 -4.24033 0
M  V30 17592 H 1684.06 3.87863 -2.62069 0
M  V30 17593 H 1684.24 5.22373 -3.83446 0
M  V30 17594 N 1677.64 0.747635 1.38738 0
M  V30 17595 C 1679.06 0.424577 1.53849 0
M  V30 17596 C 1679.26 -1.06304 1.71177 0
M  V30 17597 O 1678.32 -1.84912 1.71941 0
M  V30 17598 C 1679.63 1.21863 2.749 0
M  V30 17599 C 1681.18 1.20811 2.88745 0
M  V30 17600 C 1681.65 1.985 4.12749 0
M  V30 17601 N 1683.14 1.9573 4.19814 0
M  V30 17602 C 1683.88 2.52641 5.14743 0
M  V30 17603 N 1683.37 3.18241 6.15382 0
M  V30 17604 N 1685.17 2.42604 5.0705 0
M  V30 17605 H 1677.32 1.71182 1.25739 0
M  V30 17606 H 1679.58 0.725358 0.610376 0
M  V30 17607 H 1679.29 2.27181 2.6848 0
M  V30 17608 H 1679.16 0.831509 3.67921 0
M  V30 17609 H 1681.55 0.163013 2.94649 0
M  V30 17610 H 1681.63 1.6347 1.96752 0
M  V30 17611 H 1681.27 3.03017 4.07606 0
M  V30 17612 H 1681.2 1.53239 5.03811 0
M  V30 17613 H 1683.69 1.4795 3.47734 0
M  V30 17614 H 1684.01 3.59101 6.843 0
M  V30 17615 H 1682.35 3.22334 6.15732 0
M  V30 17616 H 1685.54 1.90987 4.27366 0
M  V30 17617 H 1685.72 2.87253 5.80852 0
M  V30 17618 N 1679.12 -1.49583 0.496242 0
M  V30 17619 C 1680.35 -2.06547 -0.0468437 0
M  V30 17620 C 1680.76 -1.3574 -1.31801 0
M  V30 17621 O 1680.1 -0.427948 -1.78646 0
M  V30 17622 C 1680.16 -3.57532 -0.375622 0
M  V30 17623 C 1679.83 -4.49994 0.797134 0
M  V30 17624 C 1680.83 -4.91793 1.6863 0
M  V30 17625 C 1678.51 -4.92355 0.99459 0
M  V30 17626 C 1680.5 -5.74685 2.7571 0
M  V30 17627 C 1678.19 -5.75024 2.06859 0
M  V30 17628 C 1679.19 -6.16093 2.94819 0
M  V30 17629 O 1678.88 -6.9711 4.00366 0
M  V30 17630 H 1678.61 -0.675832 0.0150901 0
M  V30 17631 H 1681.16 -1.93413 0.691416 0
M  V30 17632 H 1679.39 -3.68658 -1.16741 0
M  V30 17633 H 1681.08 -3.96755 -0.856757 0
M  V30 17634 H 1681.85 -4.59715 1.54554 0
M  V30 17635 H 1677.73 -4.59893 0.31933 0
M  V30 17636 H 1681.27 -6.06661 3.44396 0
M  V30 17637 H 1677.17 -6.06514 2.20931 0
M  V30 17638 H 1677.94 -7.15408 3.9766 0
M  V30 17639 N 1680.6 -0.229873 -1.55915 0
M  V30 17640 C 1681.53 0.671321 -2.23642 0
M  V30 17641 C 1682.51 1.19461 -1.21091 0
M  V30 17642 O 1683.7 1.23708 -1.49699 0
M  V30 17643 C 1680.83 1.87595 -2.92276 0
M  V30 17644 C 1679.78 1.48616 -4.01369 0
M  V30 17645 C 1679.11 2.77024 -4.57342 0
M  V30 17646 C 1680.41 0.669928 -5.17986 0
M  V30 17647 H 1682.1 0.106622 -2.9921 0
M  V30 17648 H 1679.65 0.0498418 -1.43914 0
M  V30 17649 H 1681.6 2.51191 -3.3835 0
M  V30 17650 H 1680.32 2.46576 -2.14168 0
M  V30 17651 H 1678.98 0.873623 -3.56038 0
M  V30 17652 H 1678.63 3.34166 -3.75955 0
M  V30 17653 H 1678.33 2.51674 -5.30975 0
M  V30 17654 H 1679.85 3.41548 -5.0614 0
M  V30 17655 H 1681.27 1.20978 -5.6039 0
M  V30 17656 H 1679.66 0.513174 -5.97902 0
M  V30 17657 H 1680.73 -0.321644 -4.83832 0
M  V30 17658 N 1682.08 1.5754 0.0434337 0
M  V30 17659 C 1683.49 1.54537 0.398819 0
M  V30 17660 C 1683.69 0.954055 1.77483 0
M  V30 17661 O 1682.75 0.568839 2.46009 0
M  V30 17662 C 1684.06 2.99058 0.313848 0
M  V30 17663 C 1685.61 3.10536 0.39198 0
M  V30 17664 C 1686.09 4.56761 0.336614 0
M  V30 17665 N 1687.58 4.61505 0.395844 0
M  V30 17666 C 1688.31 5.72168 0.375669 0
M  V30 17667 N 1687.81 6.92112 0.30863 0
M  V30 17668 N 1689.6 5.60496 0.424335 0
M  V30 17669 H 1681.75 1.94333 -0.857225 0
M  V30 17670 H 1684.01 0.890708 -0.324566 0
M  V30 17671 H 1683.72 3.4599 -0.631159 0
M  V30 17672 H 1683.59 3.60402 1.11313 0
M  V30 17673 H 1685.98 2.6356 1.32742 0
M  V30 17674 H 1686.06 2.5205 -0.436391 0
M  V30 17675 H 1685.71 5.04402 -0.595093 0
M  V30 17676 H 1685.64 5.13142 1.1829 0
M  V30 17677 H 1688.13 3.75202 0.450753 0
M  V30 17678 H 1688.44 7.72225 0.29794 0
M  V30 17679 H 1686.79 6.94456 0.274891 0
M  V30 17680 H 1689.98 4.65688 0.474599 0
M  V30 17681 H 1690.15 6.46732 0.405143 0
M  V30 17682 N 1683.56 -0.31543 1.54411 0
M  V30 17683 C 1684.8 -1.05396 1.73261 0
M  V30 17684 C 1685.13 -1.87406 0.509171 0
M  V30 17685 O 1684.41 -1.88126 -0.493836 0
M  V30 17686 C 1684.69 -1.97195 3.01308 0
M  V30 17687 C 1684.55 -1.18461 4.33921 0
M  V30 17688 C 1685.86 -2.96594 3.25146 0
M  V30 17689 H 1682.98 -0.381763 0.630417 0
M  V30 17690 H 1685.63 -0.329882 1.87114 0
M  V30 17691 H 1683.78 -2.58936 2.89628 0
M  V30 17692 H 1685.45 -0.591171 4.57496 0
M  V30 17693 H 1683.69 -0.487025 4.31057 0
M  V30 17694 H 1684.36 -1.85909 5.19752 0
M  V30 17695 H 1686.84 -2.44977 3.36341 0
M  V30 17696 H 1685.71 -3.58002 4.16084 0
M  V30 17697 H 1685.97 -3.69487 2.42758 0
M  V30 17698 N 1685.03 -1.46622 -0.577906 0
M  V30 17699 C 1685.94 -1.60143 -1.71439 0
M  V30 17700 C 1686.96 -0.484781 -1.6711 0
M  V30 17701 O 1688.14 -0.749551 -1.86932 0
M  V30 17702 C 1685.2 -1.59282 -3.07945 0
M  V30 17703 C 1684.26 -2.82216 -3.235 0
M  V30 17704 C 1683.5 -2.81387 -4.53495 0
M  V30 17705 O 1683.72 -1.90407 -5.37681 0
M  V30 17706 O 1682.65 -3.72991 -4.724 0
M  V30 17707 H 1686.48 -2.56265 -1.62978 0
M  V30 17708 H 1684.06 -1.2947 -0.745514 0
M  V30 17709 H 1685.95 -1.61515 -3.89218 0
M  V30 17710 H 1684.62 -0.663212 -3.16833 0
M  V30 17711 H 1683.53 -2.85536 -2.41702 0
M  V30 17712 H 1684.86 -3.74402 -3.19506 0
M  V30 17713 N 1686.51 0.822941 -1.34408 0
M  V30 17714 C 1687.46 1.92272 -1.22537 0
M  V30 17715 C 1688.45 1.60418 -0.124416 0
M  V30 17716 O 1689.64 1.73422 -0.354077 0
M  V30 17717 C 1686.77 3.28926 -0.982998 0
M  V30 17718 C 1685.85 3.66898 -2.12712 0
M  V30 17719 N 1686.24 3.76436 -3.37831 0
M  V30 17720 C 1684.54 3.96746 -2.03736 0
M  V30 17721 C 1685.24 4.09674 -4.12968 0
M  V30 17722 N 1684.22 4.22893 -3.41559 0
M  V30 17723 H 1688.02 1.97824 -2.17354 0
M  V30 17724 H 1685.54 1.0166 -1.26645 0
M  V30 17725 H 1687.53 4.07531 -0.878862 0
M  V30 17726 H 1686.19 3.24671 -0.0435162 0
M  V30 17727 H 1687.2 3.59931 -3.72384 0
M  V30 17728 H 1683.88 4.00611 -1.17544 0
M  V30 17729 H 1685.27 4.24257 -5.21014 0
M  V30 17730 N 1687.99 1.18137 1.04314 0
M  V30 17731 C 1688.94 0.874118 2.10578 0
M  V30 17732 C 1689.92 -0.155094 1.60151 0
M  V30 17733 O 1691.12 0.0485958 1.76933 0
M  V30 17734 C 1688.25 0.3989 3.40975 0
M  V30 17735 C 1687.33 1.46004 3.98175 0
M  V30 17736 N 1687.72 2.67584 4.29223 0
M  V30 17737 C 1686.02 1.31997 4.2602 0
M  V30 17738 C 1686.72 3.35835 4.74963 0
M  V30 17739 N 1685.7 2.63216 4.75624 0
M  V30 17740 H 1689.5 1.79837 2.32456 0
M  V30 17741 H 1687.01 1.0714 1.22044 0
M  V30 17742 H 1689.01 0.160295 4.16592 0
M  V30 17743 H 1687.67 -0.519041 3.20525 0
M  V30 17744 H 1688.68 3.04473 4.18947 0
M  V30 17745 H 1685.36 0.464377 4.14909 0
M  V30 17746 H 1686.75 4.39727 5.08026 0
M  V30 17747 N 1689.47 -1.23186 0.98301 0
M  V30 17748 C 1690.72 -1.91671 0.653342 0
M  V30 17749 C 1691.04 -1.76673 -0.813438 0
M  V30 17750 O 1690.3 -1.1232 -1.60258 0
M  V30 17751 C 1690.6 -3.43331 0.992898 0
M  V30 17752 C 1690.26 -3.78511 2.45032 0
M  V30 17753 C 1688.93 -3.87824 2.84861 0
M  V30 17754 C 1691.28 -3.95423 3.39544 0
M  V30 17755 C 1688.61 -4.11479 4.18213 0
M  V30 17756 C 1690.96 -4.20579 4.72543 0
M  V30 17757 C 1689.62 -4.28114 5.12128 0
M  V30 17758 H 1688.89 -0.701373 0.239075 0
M  V30 17759 H 1691.54 -1.46157 1.23736 0
M  V30 17760 H 1689.84 -3.90434 0.326832 0
M  V30 17761 H 1691.54 -3.94556 0.715995 0
M  V30 17762 H 1688.13 -3.71838 2.13154 0
M  V30 17763 H 1692.31 -3.87615 3.09949 0
M  V30 17764 H 1687.57 -4.15536 4.48486 0
M  V30 17765 H 1691.74 -4.32608 5.45732 0
M  V30 17766 H 1689.37 -4.46196 6.15478 0
M  V30 17767 N 1690.95 -0.754982 -1.38339 0
M  V30 17768 C 1691.88 -0.0883836 -2.2903 0
M  V30 17769 C 1692.89 0.682258 -1.47814 0
M  V30 17770 O 1694.08 0.523117 -1.70663 0
M  V30 17771 C 1691.18 0.898819 -3.26764 0
M  V30 17772 C 1690.35 0.185527 -4.37006 0
M  V30 17773 C 1689.41 1.08368 -5.1492 0
M  V30 17774 O 1688.44 0.553687 -5.66501 0
M  V30 17775 N 1689.64 2.41164 -5.28034 0
M  V30 17776 H 1692.41 -0.86725 -2.86878 0
M  V30 17777 H 1689.97 -0.605886 -1.50135 0
M  V30 17778 H 1691.96 1.50273 -3.75766 0
M  V30 17779 H 1690.53 1.57876 -2.69804 0
M  V30 17780 H 1689.75 -0.599106 -3.89621 0
M  V30 17781 H 1691.04 -0.307999 -5.07867 0
M  V30 17782 H 1690.43 2.86677 -4.87681 0
M  V30 17783 H 1688.99 2.96602 -5.80406 0
M  V30 17784 N 1692.42 1.49318 -0.504168 0
M  V30 17785 C 1693.36 2.27103 0.309327 0
M  V30 17786 C 1694.37 1.33776 0.927781 0
M  V30 17787 O 1695.56 1.59034 0.810585 0
M  V30 17788 C 1692.66 3.06277 1.45078 0
M  V30 17789 C 1691.83 4.27201 0.939045 0
M  V30 17790 C 1690.89 4.88395 1.95849 0
M  V30 17791 O 1689.92 5.4837 1.52576 0
M  V30 17792 N 1691.12 4.78328 3.28911 0
M  V30 17793 H 1693.88 2.97558 -0.35767 0
M  V30 17794 H 1691.44 1.58356 -0.336907 0
M  V30 17795 H 1693.44 3.44088 2.13038 0
M  V30 17796 H 1692.01 2.38409 2.02188 0
M  V30 17797 H 1691.23 3.9411 0.0842433 0
M  V30 17798 H 1692.51 5.05534 0.575603 0
M  V30 17799 H 1691.91 4.30707 3.66753 0
M  V30 17800 H 1690.47 5.20315 3.92576 0
M  V30 17801 N 1693.9 0.238138 1.5579 0
M  V30 17802 C 1694.87 -0.651703 2.1974 0
M  V30 17803 C 1695.87 -1.10932 1.16408 0
M  V30 17804 O 1697.06 -1.01544 1.41543 0
M  V30 17805 C 1694.19 -1.8947 2.83397 0
M  V30 17806 H 1695.38 -0.0939013 2.99753 0
M  V30 17807 H 1692.93 -0.0114348 1.56296 0
M  V30 17808 H 1693.67 -2.49395 2.07298 0
M  V30 17809 H 1693.45 -1.57486 3.59083 0
M  V30 17810 H 1694.94 -2.52831 3.32365 0
M  V30 17811 N 1695.38 -1.57561 -0.0350783 0
M  V30 17812 C 1696.33 -2.02627 -1.04528 0
M  V30 17813 C 1697.31 -0.914525 -1.32383 0
M  V30 17814 O 1698.51 -1.17843 -1.32068 0
M  V30 17815 C 1695.64 -2.50425 -2.34824 0
M  V30 17816 C 1694.72 -3.68408 -2.10086 0
M  V30 17817 N 1695.11 -4.8134 -1.55387 0
M  V30 17818 C 1693.41 -3.75666 -2.40398 0
M  V30 17819 C 1694.11 -5.62998 -1.46314 0
M  V30 17820 N 1693.09 -5.07933 -1.93662 0
M  V30 17821 H 1696.89 -2.87366 -0.616284 0
M  V30 17822 H 1694.4 -1.60594 -0.241499 0
M  V30 17823 H 1696.4 -2.80968 -3.07998 0
M  V30 17824 H 1695.06 -1.67089 -2.78408 0
M  V30 17825 H 1696.07 -5.029 -1.2374 0
M  V30 17826 H 1692.75 -3.03119 -2.87098 0
M  V30 17827 H 1694.14 -6.63714 -1.04564 0
M  V30 17828 N 1696.86 0.307236 -1.54576 0
M  V30 17829 C 1698.09 1.06079 -1.77287 0
M  V30 17830 C 1698.5 1.81643 -0.529395 0
M  V30 17831 O 1697.84 1.76474 0.510149 0
M  V30 17832 C 1697.9 2.09234 -2.92338 0
M  V30 17833 C 1697.57 1.52922 -4.30655 0
M  V30 17834 C 1698.56 0.962487 -5.10913 0
M  V30 17835 C 1696.25 1.56673 -4.77241 0
M  V30 17836 C 1698.24 0.44075 -6.35874 0
M  V30 17837 C 1695.93 1.04112 -6.02166 0
M  V30 17838 C 1696.93 0.479095 -6.81318 0
M  V30 17839 O 1696.61 -0.0385602 -8.03891 0
M  V30 17840 H 1696.35 0.320647 -0.595114 0
M  V30 17841 H 1698.9 0.353984 -2.02327 0
M  V30 17842 H 1697.13 2.83578 -2.62908 0
M  V30 17843 H 1698.82 2.70441 -3.02682 0
M  V30 17844 H 1699.59 0.926457 -4.76069 0
M  V30 17845 H 1695.46 1.99357 -4.15665 0
M  V30 17846 H 1699.01 0.00141848 -6.976 0
M  V30 17847 H 1694.91 1.07428 -6.36498 0
M  V30 17848 H 1695.67 0.0753282 -8.18465 0
M  V30 17849 N 1698.34 1.46926 0.570122 0
M  V30 17850 C 1699.61 1.43365 1.33063 0
M  V30 17851 C 1699.99 0.123738 2.10737 0
M  V30 17852 O 1699.34 -0.894766 2.10253 0
M  V30 17853 C 1699.55 2.67122 2.24604 0
M  V30 17854 C 1700.9 3.13798 2.86035 0
M  V30 17855 O 1701.92 2.67759 2.34912 0
M  V30 17856 O 1700.78 3.93801 3.78923 0
M  V30 17857 H 1697.88 0.570726 0.598499 0
M  V30 17858 H 1700.42 1.5911 0.590095 0
M  V30 17859 H 1699.19 3.54005 1.66722 0
M  V30 17860 H 1698.82 2.53899 3.05976 0
M  V30 17861 N 1699.82 -0.815801 1.34842 0
M  V30 17862 C 1700.76 -1.92713 1.27006 0
M  V30 17863 C 1701.73 -1.65476 0.143838 0
M  V30 17864 O 1702.92 -1.87994 0.326007 0
M  V30 17865 C 1700.06 -3.29099 1.03863 0
M  V30 17866 C 1699.17 -3.68583 2.25324 0
M  V30 17867 C 1698.31 -4.93953 1.95407 0
M  V30 17868 C 1697.34 -5.26037 3.12971 0
M  V30 17869 N 1696.48 -6.42586 2.82891 0
M  V30 17870 H 1701.32 -1.98747 2.22044 0
M  V30 17871 H 1698.86 -0.972265 1.10388 0
M  V30 17872 H 1700.82 -4.07709 0.884809 0
M  V30 17873 H 1699.45 -3.22558 0.124911 0
M  V30 17874 H 1698.5 -2.85307 2.51603 0
M  V30 17875 H 1699.81 -3.88259 3.1314 0
M  V30 17876 H 1698.96 -5.80367 1.76801 0
M  V30 17877 H 1697.7 -4.76293 1.04862 0
M  V30 17878 H 1696.71 -4.38117 3.32165 0
M  V30 17879 H 1697.93 -5.45632 4.04305 0
M  V30 17880 H 1695.88 -6.26369 1.9493 0
M  V30 17881 H 1695.8 -6.62469 3.64239 0
M  V30 17882 H 1697.06 -7.32052 2.67805 0
M  V30 17883 N 1701.29 -1.18689 -1.03686 0
M  V30 17884 C 1702.53 -0.995625 -1.78512 0
M  V30 17885 C 1702.9 0.466151 -1.86255 0
M  V30 17886 O 1704.1 0.776976 -2.57326 0
M  V30 17887 C 1702.37 -1.63695 -3.17709 0
M  V30 17888 S 1703.93 -1.59397 -4.08825 0
M  V30 17889 H 1700.75 -0.357446 -0.614616 0
M  V30 17890 H 1703.35 -1.50899 -1.24297 0
M  V30 17891 H 1702.05 -2.69301 -3.09685 0
M  V30 17892 H 1701.58 -1.12404 -3.77 0
M  V30 17893 H 1703.6 -0.61254 -4.92405 0
M  V30 17894 N 1702.77 1.22662 -0.989529 0
M  V30 17895 C 1704.02 1.91605 -0.66448 0
M  V30 17896 C 1704.35 1.76909 0.801048 0
M  V30 17897 O 1703.63 1.13583 1.5789 0
M  V30 17898 C 1703.91 3.43929 -1.06698 0
M  V30 17899 C 1703.76 3.67691 -2.59082 0
M  V30 17900 C 1705.08 4.35744 -0.617695 0
M  V30 17901 H 1702.2 0.695832 -0.242872 0
M  V30 17902 H 1704.84 1.44605 -1.23245 0
M  V30 17903 H 1702.99 3.8409 -0.58371 0
M  V30 17904 H 1704.66 3.36956 -3.15053 0
M  V30 17905 H 1702.91 3.12088 -3.01303 0
M  V30 17906 H 1703.58 4.74356 -2.82295 0
M  V30 17907 H 1706.05 4.0308 -1.03275 0
M  V30 17908 H 1704.93 5.41004 -0.927659 0
M  V30 17909 H 1705.19 4.39468 0.481734 0
M  V30 17910 N 1704.25 0.762308 1.37937 0
M  V30 17911 C 1705.5 0.319104 1.9916 0
M  V30 17912 C 1705.81 -1.10787 1.61201 0
M  V30 17913 O 1707.02 -1.65198 2.15457 0
M  V30 17914 C 1705.47 0.519582 3.5613 0
M  V30 17915 C 1705.08 1.9562 4.03034 0
M  V30 17916 C 1706.83 0.139528 4.24271 0
M  V30 17917 C 1704.73 2.10478 5.52678 0
M  V30 17918 H 1703.66 0.115564 0.745091 0
M  V30 17919 H 1706.31 0.940092 1.5759 0
M  V30 17920 H 1704.7 -0.170724 3.95632 0
M  V30 17921 H 1705.87 2.68069 3.74801 0
M  V30 17922 H 1704.18 2.29197 3.47646 0
M  V30 17923 H 1706.78 0.22918 5.34209 0
M  V30 17924 H 1707.12 -0.908999 4.06255 0
M  V30 17925 H 1707.66 0.782019 3.90038 0
M  V30 17926 H 1704.4 3.13616 5.75609 0
M  V30 17927 H 1703.92 1.42501 5.82626 0
M  V30 17928 H 1705.6 1.89887 6.18508 0
M  V30 17929 N 1705.73 -1.49049 0.51208 0
M  V30 17930 C 1706.68 -2.30981 -0.273991 0
M  V30 17931 C 1707.67 -1.40092 -0.952402 0
M  V30 17932 O 1708.88 -1.57088 -0.878828 0
M  V30 17933 H 1705.25 -0.744317 -0.107221 0
M  V30 17934 H 1707.22 -2.95185 0.436866 0
M  V30 17935 C 1705.97 -3.21714 -1.31892 0
M  V30 17936 H 1705.29 -3.91585 -0.806302 0
M  V30 17937 H 1706.73 -3.81961 -1.8407 0
M  V30 17938 C 1705.19 -2.42082 -2.34303 0
M  V30 17939 O 1705.72 -2.13285 -3.40401 0
M  V30 17940 N 1703.93 -2.03903 -2.07055 0
M  V30 17941 H 1703.48 -2.27523 -1.20794 0
M  V30 17942 H 1703.43 -1.50932 -2.75802 0
M  V30 17943 N 1707.21 -0.246397 -1.55662 0
M  V30 17944 C 1708.14 0.647563 -2.24341 0
M  V30 17945 C 1709.12 1.1817 -1.22352 0
M  V30 17946 O 1710.3 1.22114 -1.51003 0
M  V30 17947 C 1707.43 1.84485 -2.94249 0
M  V30 17948 C 1706.39 1.4435 -4.02923 0
M  V30 17949 C 1705.71 2.72158 -4.60255 0
M  V30 17950 C 1707.01 0.614951 -5.18667 0
M  V30 17951 H 1708.71 0.0748803 -2.99306 0
M  V30 17952 H 1706.25 0.034575 -1.43958 0
M  V30 17953 H 1708.2 2.47588 -3.40995 0
M  V30 17954 H 1706.93 2.4429 -2.16772 0
M  V30 17955 H 1705.59 0.835811 -3.56945 0
M  V30 17956 H 1705.24 3.3016 -3.79478 0
M  V30 17957 H 1704.94 2.46028 -5.33614 0
M  V30 17958 H 1706.46 3.36161 -5.09734 0
M  V30 17959 H 1707.87 1.15028 -5.61642 0
M  V30 17960 H 1706.27 0.449729 -5.98412 0
M  V30 17961 H 1707.34 -0.372943 -4.83464 0
M  V30 17962 N 1708.68 1.57577 0.026722 0
M  V30 17963 C 1710.1 1.54951 0.382406 0
M  V30 17964 C 1710.3 0.972826 1.76461 0
M  V30 17965 O 1709.36 0.5949 2.45392 0
M  V30 17966 C 1710.67 2.99374 0.282111 0
M  V30 17967 C 1712.22 3.10934 0.359022 0
M  V30 17968 C 1712.69 4.57093 0.28815 0
M  V30 17969 N 1714.18 4.61899 0.346873 0
M  V30 17970 C 1714.92 5.72534 0.314961 0
M  V30 17971 N 1714.41 6.92401 0.235205 0
M  V30 17972 N 1716.21 5.60915 0.364863 0
M  V30 17973 H 1708.36 1.93413 -0.877788 0
M  V30 17974 H 1710.62 0.887216 -0.333995 0
M  V30 17975 H 1710.33 3.45301 -0.667821 0
M  V30 17976 H 1710.2 3.61562 1.07484 0
M  V30 17977 H 1712.59 2.64953 1.29939 0
M  V30 17978 H 1712.67 2.51573 -0.4631 0
M  V30 17979 H 1712.31 5.03742 -0.648558 0
M  V30 17980 H 1712.24 5.14368 1.12841 0
M  V30 17981 H 1714.73 3.75659 0.410932 0
M  V30 17982 H 1715.05 7.72498 0.216019 0
M  V30 17983 H 1713.39 6.94709 0.201219 0
M  V30 17984 H 1716.58 4.66165 0.42518 0
M  V30 17985 H 1716.76 6.47126 0.336526 0
M  V30 17986 N 1710.16 -0.299034 1.54737 0
M  V30 17987 C 1711.07 -1.39141 1.88884 0
M  V30 17988 C 1712.09 -1.55377 0.783203 0
M  V30 17989 O 1713.26 -1.70003 1.07985 0
M  V30 17990 C 1710.33 -2.73487 2.13087 0
M  V30 17991 C 1709.39 -2.66219 3.36788 0
M  V30 17992 C 1708.62 -3.94158 3.59827 0
M  V30 17993 O 1708.85 -4.9361 2.85841 0
M  V30 17994 O 1707.78 -3.95933 4.53344 0
M  V30 17995 H 1711.61 -1.13184 2.81821 0
M  V30 17996 H 1709.19 -0.495271 1.40952 0
M  V30 17997 H 1711.07 -3.5297 2.30195 0
M  V30 17998 H 1709.75 -2.99283 1.23335 0
M  V30 17999 H 1708.65 -1.85201 3.25041 0
M  V30 18000 H 1709.99 -2.45376 4.26675 0
M  V30 18001 N 1711.64 -1.47227 -0.562322 0
M  V30 18002 C 1712.57 -1.55383 -1.6849 0
M  V30 18003 C 1713.58 -0.440437 -1.56729 0
M  V30 18004 O 1714.77 -0.709803 -1.63781 0
M  V30 18005 C 1711.87 -1.43723 -3.06915 0
M  V30 18006 C 1711.05 -2.69541 -3.4448 0
M  V30 18007 C 1710.11 -2.5179 -4.62048 0
M  V30 18008 O 1709.13 -3.25587 -4.66885 0
M  V30 18009 N 1710.33 -1.59282 -5.5822 0
M  V30 18010 H 1713.1 -2.52181 -1.61941 0
M  V30 18011 H 1710.66 -1.43541 -0.748832 0
M  V30 18012 H 1712.65 -1.2959 -3.83391 0
M  V30 18013 H 1711.22 -0.550272 -3.07719 0
M  V30 18014 H 1710.44 -2.98472 -2.57504 0
M  V30 18015 H 1711.73 -3.53079 -3.66351 0
M  V30 18016 H 1711.13 -0.984666 -5.57064 0
M  V30 18017 H 1709.68 -1.51103 -6.34043 0
M  V30 18018 N 1713.12 0.808639 -1.35273 0
M  V30 18019 C 1714.36 1.56562 -1.28431 0
M  V30 18020 C 1714.69 1.93982 0.141842 0
M  V30 18021 O 1713.95 1.61409 1.10661 0
M  V30 18022 C 1714.25 2.86667 -2.1344 0
M  V30 18023 C 1713.91 2.68475 -3.6226 0
M  V30 18024 C 1712.57 2.63221 -4.02825 0
M  V30 18025 C 1714.93 2.51151 -4.56698 0
M  V30 18026 C 1712.25 2.38583 -5.35999 0
M  V30 18027 C 1714.61 2.28043 -5.90067 0
M  V30 18028 C 1713.27 2.2121 -6.2978 0
M  V30 18029 H 1712.54 0.572902 -0.469963 0
M  V30 18030 H 1715.19 0.934504 -1.6715 0
M  V30 18031 H 1713.49 3.54146 -1.67595 0
M  V30 18032 H 1715.19 3.44351 -2.05483 0
M  V30 18033 H 1711.78 2.7341 -3.30068 0
M  V30 18034 H 1715.96 2.54223 -4.26244 0
M  V30 18035 H 1711.22 2.31761 -5.65771 0
M  V30 18036 H 1715.39 2.13628 -6.62824 0
M  V30 18037 H 1713.02 2.01881 -7.32904 0
M  V30 18038 N 1714.6 1.19237 1.03055 0
M  V30 18039 C 1715.54 0.928588 2.11296 0
M  V30 18040 C 1716.51 -0.135941 1.65543 0
M  V30 18041 O 1717.7 0.00584847 1.90799 0
M  V30 18042 C 1714.84 0.471532 3.41863 0
M  V30 18043 C 1713.95 1.60264 4.01173 0
M  V30 18044 C 1713.09 1.09729 5.19743 0
M  V30 18045 C 1712.13 2.2024 5.71105 0
M  V30 18046 N 1711.26 1.71024 6.80952 0
M  V30 18047 H 1716.1 1.85536 2.33196 0
M  V30 18048 H 1713.64 0.925029 1.14375 0
M  V30 18049 H 1715.6 0.187949 4.16776 0
M  V30 18050 H 1714.23 -0.41825 3.20079 0
M  V30 18051 H 1713.28 2.00147 3.23489 0
M  V30 18052 H 1714.59 2.43531 4.35309 0
M  V30 18053 H 1713.75 0.768832 6.01809 0
M  V30 18054 H 1712.48 0.234324 4.87137 0
M  V30 18055 H 1711.49 2.53918 4.87653 0
M  V30 18056 H 1712.71 3.06989 6.05751 0
M  V30 18057 H 1710.66 0.870334 6.50201 0
M  V30 18058 H 1710.58 2.47882 7.14206 0
M  V30 18059 H 1711.85 1.41137 7.66616 0
M  V30 18060 N 1716.07 -1.22136 0.99602 0
M  V30 18061 C 1717.49 -1.72743 0.708295 0
M  V30 18062 C 1717.84 -1.8026 -0.774649 0
M  V30 18063 O 1716.96 -1.45102 -1.60544 0
M  V30 18064 C 1717.56 -3.13729 1.27905 0
M  V30 18065 C 1716.12 -3.61729 1.04064 0
M  V30 18066 C 1715.26 -2.39519 1.39735 0
M  V30 18067 H 1718.21 -1.07439 1.16801 0
M  V30 18068 H 1718.23 -3.74746 0.65919 0
M  V30 18069 H 1717.75 -3.08225 2.35836 0
M  V30 18070 H 1715.85 -3.72594 -0.0219029 0
M  V30 18071 H 1715.96 -4.47689 1.70621 0
M  V30 18072 H 1714.32 -2.41275 0.815986 0
M  V30 18073 H 1715.11 -2.36675 2.48677 0
M  V30 18074 N 1717.55 -0.769612 -1.37531 0
M  V30 18075 C 1718.83 -0.257788 -1.93894 0
M  V30 18076 C 1719.21 1.24679 -1.70348 0
M  V30 18077 O 1718.56 2.02892 -1.05106 0
M  V30 18078 C 1718.77 -0.628857 -3.43288 0
M  V30 18079 C 1720.12 -0.597452 -4.20376 0
M  V30 18080 O 1721.14 -0.568117 -3.5164 0
M  V30 18081 O 1720 -0.622627 -5.42942 0
M  V30 18082 H 1717.09 -0.0588144 -0.824906 0
M  V30 18083 H 1719.64 -0.85082 -1.4683 0
M  V30 18084 H 1718.41 -1.66733 -3.54 0
M  V30 18085 H 1718.03 -0.00865929 -3.97599 0
M  V30 18086 N 1719.03 1.48775 -0.519977 0
M  V30 18087 C 1719.96 2.26281 0.295295 0
M  V30 18088 C 1720.94 1.31694 0.953695 0
M  V30 18089 O 1722.13 1.61019 0.980063 0
M  V30 18090 C 1719.25 3.07617 1.41738 0
M  V30 18091 C 1718.3 4.17503 0.871411 0
M  V30 18092 S 1719.13 5.34903 -0.252845 0
M  V30 18093 C 1720.29 6.19797 0.871949 0
M  V30 18094 H 1720.52 2.95082 -0.362498 0
M  V30 18095 H 1718.05 1.51346 -0.305587 0
M  V30 18096 H 1720.01 3.55058 2.0602 0
M  V30 18097 H 1718.67 2.38249 2.04685 0
M  V30 18098 H 1717.87 4.74 1.71288 0
M  V30 18099 H 1717.47 3.7275 0.305463 0
M  V30 18100 H 1719.76 6.53892 1.7729 0
M  V30 18101 H 1720.7 7.07258 0.345174 0
M  V30 18102 H 1721.11 5.52707 1.14784 0
M  V30 18103 N 1720.51 0.254649 1.55529 0
M  V30 18104 C 1721.73 -0.374795 2.03985 0
M  V30 18105 C 1722.16 -1.50188 1.13249 0
M  V30 18106 O 1721.52 -1.80855 0.126963 0
M  V30 18107 C 1721.56 -0.852635 3.50375 0
M  V30 18108 O 1720.67 -1.9616 3.6276 0
M  V30 18109 H 1720.01 -0.0806157 0.659088 0
M  V30 18110 H 1722.54 0.38297 2.00984 0
M  V30 18111 H 1722.55 -1.15381 3.91345 0
M  V30 18112 H 1721.22 -0.0279044 4.15891 0
M  V30 18113 H 1719.8 -1.66453 3.33688 0
M  V30 18114 N 1721.99 -1.57589 -0.0183649 0
M  V30 18115 C 1722.92 -2.04071 -1.04343 0
M  V30 18116 C 1723.93 -0.955366 -1.3182 0
M  V30 18117 O 1725.12 -1.23249 -1.29119 0
M  V30 18118 C 1722.22 -2.41011 -2.38258 0
M  V30 18119 C 1721.39 -3.72057 -2.29984 0
M  V30 18120 C 1720.45 -3.96067 -3.46435 0
M  V30 18121 O 1719.48 -4.66982 -3.25447 0
M  V30 18122 N 1720.68 -3.42535 -4.68669 0
M  V30 18123 H 1723.45 -2.92629 -0.647168 0
M  V30 18124 H 1721.01 -1.60583 -0.20611 0
M  V30 18125 H 1723 -2.54203 -3.14902 0
M  V30 18126 H 1721.57 -1.58068 -2.69691 0
M  V30 18127 H 1720.79 -3.69117 -1.38369 0
M  V30 18128 H 1722.08 -4.58003 -2.2161 0
M  V30 18129 H 1721.47 -2.85073 -4.8862 0
M  V30 18130 H 1720.03 -3.61087 -5.42641 0
M  V30 18131 N 1723.46 0.290824 -1.54893 0
M  V30 18132 C 1724.71 1.02627 -1.74916 0
M  V30 18133 C 1725.04 1.86572 -0.538921 0
M  V30 18134 O 1724.32 1.88888 0.463844 0
M  V30 18135 C 1724.6 1.92376 -3.04407 0
M  V30 18136 C 1724.45 1.11542 -4.3575 0
M  V30 18137 C 1725.77 2.91383 -3.29824 0
M  V30 18138 H 1722.89 0.371685 -0.636411 0
M  V30 18139 H 1725.53 0.300072 -1.87615 0
M  V30 18140 H 1723.68 2.54295 -2.93711 0
M  V30 18141 H 1725.36 0.518312 -4.58379 0
M  V30 18142 H 1723.6 0.418386 -4.31778 0
M  V30 18143 H 1724.27 1.77616 -5.22644 0
M  V30 18144 H 1726.75 2.39595 -3.40196 0
M  V30 18145 H 1725.62 3.51338 -4.21726 0
M  V30 18146 H 1725.88 3.65579 -2.48606 0
M  V30 18147 N 1724.94 1.47523 0.554506 0
M  V30 18148 C 1725.87 1.63093 1.67102 0
M  V30 18149 C 1726.85 0.480298 1.63178 0
M  V30 18150 O 1728.04 0.709956 1.80757 0
M  V30 18151 C 1725.17 1.64751 3.05736 0
M  V30 18152 C 1724.12 2.79068 3.24507 0
M  V30 18153 C 1723.45 2.65801 4.63955 0
M  V30 18154 C 1724.75 4.20631 3.09623 0
M  V30 18155 H 1726.44 2.56561 1.54328 0
M  V30 18156 H 1723.99 1.2347 0.741023 0
M  V30 18157 H 1725.94 1.74234 3.83693 0
M  V30 18158 H 1724.67 0.678453 3.19475 0
M  V30 18159 H 1723.32 2.691 2.48959 0
M  V30 18160 H 1722.97 1.66917 4.74497 0
M  V30 18161 H 1722.67 3.42494 4.77464 0
M  V30 18162 H 1724.2 2.77216 5.44044 0
M  V30 18163 H 1725.61 4.31562 3.77396 0
M  V30 18164 H 1724.01 4.98133 3.3464 0
M  V30 18165 H 1725.08 4.38809 2.06336 0
M  V30 18166 N 1726.42 -0.801453 1.357 0
M  V30 18167 C 1727.7 -1.54605 1.19819 0
M  V30 18168 C 1728.08 -2.09944 -0.220593 0
M  V30 18169 O 1727.43 -1.92904 -1.22475 0
M  V30 18170 C 1727.64 -2.65052 2.27043 0
M  V30 18171 C 1728.98 -3.33255 2.63109 0
M  V30 18172 O 1730.01 -2.75326 2.25995 0
M  V30 18173 O 1728.87 -4.37917 3.26942 0
M  V30 18174 H 1725.96 -0.68334 0.465807 0
M  V30 18175 H 1728.51 -0.840972 1.47397 0
M  V30 18176 H 1727.28 -2.22068 3.22182 0
M  V30 18177 H 1726.9 -3.4319 2.00764 0
M  V30 18178 N 1727.9 -1.19782 -1.02421 0
M  V30 18179 C 1729.14 -1.0145 -1.77446 0
M  V30 18180 C 1729.5 0.44637 -1.86739 0
M  V30 18181 O 1730.7 0.749639 -2.58135 0
M  V30 18182 C 1728.97 -1.67055 -3.15955 0
M  V30 18183 S 1730.53 -1.63725 -4.07111 0
M  V30 18184 H 1727.35 -0.363945 -0.610791 0
M  V30 18185 H 1729.95 -1.52209 -1.2269 0
M  V30 18186 H 1728.66 -2.72571 -3.06811 0
M  V30 18187 H 1728.19 -1.16396 -3.75787 0
M  V30 18188 H 1730.2 -0.664732 -4.91727 0
M  V30 18189 N 1729.38 1.21606 -1.00248 0
M  V30 18190 C 1730.63 1.89922 -0.679152 0
M  V30 18191 C 1730.94 1.78793 0.793246 0
M  V30 18192 O 1732.15 2.42113 1.22856 0
M  V30 18193 C 1730.6 3.40548 -1.16427 0
M  V30 18194 C 1730.21 3.60293 -2.66257 0
M  V30 18195 C 1731.95 4.14506 -0.915714 0
M  V30 18196 C 1729.86 5.04669 -3.08323 0
M  V30 18197 H 1728.79 0.711232 -0.250329 0
M  V30 18198 H 1731.44 1.37663 -1.21331 0
M  V30 18199 H 1729.82 3.92046 -0.558177 0
M  V30 18200 H 1731 3.19245 -3.32294 0
M  V30 18201 H 1729.31 2.99683 -2.891 0
M  V30 18202 H 1731.91 5.20932 -1.20558 0
M  V30 18203 H 1732.25 4.16037 0.148068 0
M  V30 18204 H 1732.79 3.69064 -1.48448 0
M  V30 18205 H 1729.52 5.08284 -4.13917 0
M  V30 18206 H 1729.04 5.46583 -2.46996 0
M  V30 18207 H 1730.72 5.7316 -3.00162 0
M  V30 18208 N 1730.86 0.776895 1.37121 0
M  V30 18209 C 1732.1 0.343555 1.99564 0
M  V30 18210 C 1732.43 -1.08134 1.6167 0
M  V30 18211 O 1731.69 -1.75938 0.856998 0
M  V30 18212 C 1731.98 0.440201 3.54679 0
M  V30 18213 C 1731.65 1.82409 4.12356 0
M  V30 18214 C 1730.31 2.20277 4.27822 0
M  V30 18215 C 1732.66 2.73082 4.43932 0
M  V30 18216 C 1729.99 3.48244 4.72168 0
M  V30 18217 C 1732.34 4.00465 4.89705 0
M  V30 18218 C 1731.01 4.38371 5.03376 0
M  V30 18219 H 1730.28 0.125716 0.730258 0
M  V30 18220 H 1732.93 0.991921 1.63808 0
M  V30 18221 H 1731.23 -0.291695 3.90713 0
M  V30 18222 H 1732.93 0.0861328 4.00907 0
M  V30 18223 H 1729.52 1.5198 4.0075 0
M  V30 18224 H 1733.7 2.45085 4.31564 0
M  V30 18225 H 1728.96 3.77501 4.80939 0
M  V30 18226 H 1733.13 4.70849 5.13103 0
M  V30 18227 H 1730.76 5.37587 5.37498 0
M  V30 18228 N 1732.33 -1.48497 0.527859 0
M  V30 18229 C 1733.56 -2.07399 -0.00510725 0
M  V30 18230 C 1733.98 -1.38211 -1.2759 0
M  V30 18231 O 1733.34 -0.447373 -1.75694 0
M  V30 18232 C 1733.39 -3.59963 -0.214295 0
M  V30 18233 O 1732.49 -3.91921 -1.28342 0
M  V30 18234 H 1731.83 -0.662901 0.0381838 0
M  V30 18235 H 1734.36 -1.90936 0.735166 0
M  V30 18236 H 1734.37 -4.05646 -0.437604 0
M  V30 18237 H 1733.05 -4.09725 0.714028 0
M  V30 18238 H 1731.63 -3.58019 -1.04293 0
M  V30 18239 N 1733.81 -0.262893 -1.55392 0
M  V30 18240 C 1734.76 0.644115 -2.18712 0
M  V30 18241 C 1735.75 1.12746 -1.14792 0
M  V30 18242 O 1736.94 1.07457 -1.40649 0
M  V30 18243 C 1734.07 1.83346 -2.9024 0
M  V30 18244 C 1733.15 1.36787 -4.01435 0
M  V30 18245 N 1733.54 0.617586 -5.02015 0
M  V30 18246 C 1731.84 1.65185 -4.14283 0
M  V30 18247 C 1732.54 0.374392 -5.80494 0
M  V30 18248 N 1731.52 0.943273 -5.35353 0
M  V30 18249 H 1735.32 0.062908 -2.93833 0
M  V30 18250 H 1732.83 -0.0659062 -1.62266 0
M  V30 18251 H 1734.83 2.49441 -3.34043 0
M  V30 18252 H 1733.49 2.41874 -2.16627 0
M  V30 18253 H 1734.5 0.266115 -5.17216 0
M  V30 18254 H 1731.18 2.24736 -3.51852 0
M  V30 18255 H 1732.57 -0.225674 -6.71521 0
M  V30 18256 N 1735.29 1.57597 0.0100073 0
M  V30 18257 C 1736.25 2.06745 0.989401 0
M  V30 18258 C 1737.25 0.97499 1.27869 0
M  V30 18259 O 1738.44 1.23798 1.22555 0
M  V30 18260 C 1735.57 2.50048 2.31709 0
M  V30 18261 H 1736.77 2.9454 0.564473 0
M  V30 18262 H 1734.32 1.54168 0.257266 0
M  V30 18263 H 1735.06 1.65466 2.78911 0
M  V30 18264 H 1734.84 3.29823 2.12035 0
M  V30 18265 H 1736.33 2.88433 3.01987 0
M  V30 18266 N 1736.77 -0.282606 1.55045 0
M  V30 18267 C 1737.7 -1.37115 1.83663 0
M  V30 18268 C 1738.71 -1.45985 0.720563 0
M  V30 18269 O 1739.9 -1.47974 0.998294 0
M  V30 18270 C 1737 -2.7533 1.97603 0
M  V30 18271 C 1736.17 -2.89168 3.28177 0
M  V30 18272 C 1735.23 -4.07997 3.32302 0
M  V30 18273 O 1734.26 -3.9921 4.05734 0
M  V30 18274 N 1735.46 -5.19512 2.59013 0
M  V30 18275 H 1738.23 -1.12914 2.77616 0
M  V30 18276 H 1735.79 -0.472711 1.54845 0
M  V30 18277 H 1737.78 -3.531 1.97743 0
M  V30 18278 H 1736.35 -2.92396 1.1056 0
M  V30 18279 H 1735.57 -1.9836 3.40657 0
M  V30 18280 H 1736.86 -2.95338 4.1431 0
M  V30 18281 H 1736.26 -5.29536 1.99018 0
M  V30 18282 H 1734.81 -5.95549 2.64887 0
M  V30 18283 N 1738.25 -1.47815 -0.546675 0
M  V30 18284 C 1739.49 -1.5521 -1.30529 0
M  V30 18285 C 1739.82 -0.218129 -1.92971 0
M  V30 18286 O 1739.1 0.774298 -1.78423 0
M  V30 18287 C 1739.38 -2.67799 -2.40739 0
M  V30 18288 C 1739.24 -4.10847 -1.83097 0
M  V30 18289 C 1740.55 -2.76238 -3.42608 0
M  V30 18290 H 1737.67 -0.564998 -0.473229 0
M  V30 18291 H 1740.32 -1.79917 -0.610713 0
M  V30 18292 H 1738.47 -2.46863 -2.99985 0
M  V30 18293 H 1740.14 -4.43177 -1.28031 0
M  V30 18294 H 1738.38 -4.1863 -1.13716 0
M  V30 18295 H 1739.05 -4.85418 -2.62818 0
M  V30 18296 H 1741.53 -2.95156 -2.93296 0
M  V30 18297 H 1740.4 -3.56774 -4.17137 0
M  V30 18298 H 1740.66 -1.83719 -4.02119 0
M  V30 18299 N 1739.72 0.794246 -1.36123 0
M  V30 18300 C 1740.69 1.88828 -1.2991 0
M  V30 18301 C 1741.69 1.59451 -0.207839 0
M  V30 18302 O 1742.88 1.67953 -0.462321 0
M  V30 18303 C 1740.01 3.25511 -1.01269 0
M  V30 18304 H 1741.2 1.95753 -2.27202 0
M  V30 18305 H 1738.75 0.991505 -1.20826 0
M  V30 18306 H 1739.49 3.2427 -0.0441535 0
M  V30 18307 H 1739.27 3.48221 -1.80234 0
M  V30 18308 H 1740.76 4.0557 -0.995142 0
M  V30 18309 N 1741.2 1.20323 1.01785 0
M  V30 18310 C 1742.15 0.950946 2.10299 0
M  V30 18311 C 1743.12 -0.118376 1.65678 0
M  V30 18312 O 1744.3 0.0260849 1.90782 0
M  V30 18313 C 1741.44 0.507765 3.41344 0
M  V30 18314 C 1740.56 1.6451 3.9945 0
M  V30 18315 C 1739.69 1.15235 5.1855 0
M  V30 18316 C 1738.73 2.26285 5.68737 0
M  V30 18317 N 1737.87 1.78237 6.79099 0
M  V30 18318 H 1742.71 1.87999 2.31215 0
M  V30 18319 H 1740.24 0.937108 1.13387 0
M  V30 18320 H 1742.2 0.232143 4.16554 0
M  V30 18321 H 1740.83 -0.384278 3.20505 0
M  V30 18322 H 1739.88 2.03567 3.21348 0
M  V30 18323 H 1741.2 2.48135 4.32702 0
M  V30 18324 H 1740.35 0.832619 6.0096 0
M  V30 18325 H 1739.09 0.285978 4.86861 0
M  V30 18326 H 1738.09 2.59076 4.84933 0
M  V30 18327 H 1739.32 3.13397 6.02461 0
M  V30 18328 H 1737.27 0.939248 6.49241 0
M  V30 18329 H 1737.18 2.55443 7.11537 0
M  V30 18330 H 1738.45 1.4926 7.65076 0
M  V30 18331 N 1742.68 -1.21073 1.00892 0
M  V30 18332 C 1743.63 -2.23583 0.572636 0
M  V30 18333 C 1744.6 -1.61129 -0.403324 0
M  V30 18334 O 1745.78 -1.88355 -0.304491 0
M  V30 18335 C 1742.92 -3.44981 -0.0906539 0
M  V30 18336 C 1742.03 -4.21894 0.928953 0
M  V30 18337 C 1741.17 -5.30669 0.237516 0
M  V30 18338 C 1740.21 -5.99317 1.24441 0
M  V30 18339 N 1739.35 -6.99699 0.580172 0
M  V30 18340 H 1744.19 -2.60263 1.45146 0
M  V30 18341 H 1741.72 -1.27895 0.72673 0
M  V30 18342 H 1743.68 -4.14285 -0.492281 0
M  V30 18343 H 1742.31 -3.09017 -0.933169 0
M  V30 18344 H 1741.36 -3.5173 1.4488 0
M  V30 18345 H 1742.67 -4.69116 1.69503 0
M  V30 18346 H 1741.83 -6.06301 -0.220013 0
M  V30 18347 H 1740.57 -4.84463 -0.560937 0
M  V30 18348 H 1739.57 -5.22453 1.7124 0
M  V30 18349 H 1740.8 -6.47609 2.04401 0
M  V30 18350 H 1738.74 -6.55699 -0.198553 0
M  V30 18351 H 1738.66 -7.45009 1.28444 0
M  V30 18352 H 1739.93 -7.79363 0.145977 0
M  V30 18353 N 1744.16 -0.784156 -1.36707 0
M  V30 18354 C 1745.11 -0.166827 -2.32001 0
M  V30 18355 C 1746.1 0.670916 -1.55548 0
M  V30 18356 O 1747.31 0.566588 -1.7085 0
M  V30 18357 H 1743.68 -0.0351691 -0.751177 0
M  V30 18358 H 1745.65 -0.986074 -2.81637 0
M  V30 18359 C 1744.4 0.6881 -3.40823 0
M  V30 18360 H 1743.72 0.0528343 -3.99765 0
M  V30 18361 H 1745.16 1.08681 -4.09835 0
M  V30 18362 C 1743.62 1.84408 -2.81949 0
M  V30 18363 O 1744.15 2.94034 -2.73691 0
M  V30 18364 N 1742.36 1.64855 -2.39314 0
M  V30 18365 H 1741.91 0.756867 -2.4623 0
M  V30 18366 H 1741.86 2.42363 -2.00268 0
M  V30 18367 N 1745.64 1.48215 -0.535727 0
M  V30 18368 C 1746.57 2.27708 0.261085 0
M  V30 18369 C 1747.58 1.35714 0.899197 0
M  V30 18370 O 1748.77 1.60717 0.776669 0
M  V30 18371 C 1745.87 3.09285 1.38549 0
M  V30 18372 C 1745.04 4.29097 0.848218 0
M  V30 18373 C 1744.1 4.92439 1.85445 0
M  V30 18374 O 1743.13 5.51483 1.4091 0
M  V30 18375 N 1744.33 4.85197 3.18691 0
M  V30 18376 H 1747.1 2.96732 -0.420706 0
M  V30 18377 H 1744.66 1.57606 -0.370421 0
M  V30 18378 H 1746.65 3.4853 2.05691 0
M  V30 18379 H 1745.22 2.42644 1.97085 0
M  V30 18380 H 1744.44 3.942 0.000627744 0
M  V30 18381 H 1745.73 5.06641 0.468243 0
M  V30 18382 H 1745.12 4.3839 3.57535 0
M  V30 18383 H 1743.68 5.28525 3.81451 0
M  V30 18384 N 1747.11 0.27113 1.5525 0
M  V30 18385 C 1748.04 -0.61179 2.25343 0
M  V30 18386 C 1749.03 -1.16208 1.24216 0
M  V30 18387 O 1750.21 -1.19696 1.52927 0
M  V30 18388 C 1747.34 -1.7978 2.97147 0
M  V30 18389 C 1746.29 -1.37922 4.05169 0
M  V30 18390 C 1745.62 -2.64801 4.64526 0
M  V30 18391 C 1746.92 -0.532357 5.1958 0
M  V30 18392 H 1748.61 -0.0272538 2.99388 0
M  V30 18393 H 1746.16 -0.0116681 1.43995 0
M  V30 18394 H 1748.11 -2.42132 3.44891 0
M  V30 18395 H 1746.84 -2.40811 2.20631 0
M  V30 18396 H 1745.5 -0.778918 3.5823 0
M  V30 18397 H 1745.14 -3.24081 3.84682 0
M  V30 18398 H 1744.84 -2.37507 5.37461 0
M  V30 18399 H 1746.37 -3.28009 5.15017 0
M  V30 18400 H 1747.78 -1.06078 5.63401 0
M  V30 18401 H 1746.18 -0.35447 5.99052 0
M  V30 18402 H 1747.25 0.44981 4.82809 0
M  V30 18403 N 1748.59 -1.576 -0.00164943 0
M  V30 18404 C 1749.84 -1.90778 -0.68786 0
M  V30 18405 C 1750.17 -0.872138 -1.73515 0
M  V30 18406 O 1749.45 0.109349 -1.94192 0
M  V30 18407 C 1749.73 -3.34539 -1.3325 0
M  V30 18408 C 1749.58 -4.48819 -0.296862 0
M  V30 18409 C 1750.9 -3.77693 -2.25911 0
M  V30 18410 H 1748.02 -0.69381 -0.24859 0
M  V30 18411 H 1750.66 -1.89936 0.0493059 0
M  V30 18412 H 1748.81 -3.35388 -1.9608 0
M  V30 18413 H 1750.48 -4.60106 0.331635 0
M  V30 18414 H 1748.73 -4.32123 0.38105 0
M  V30 18415 H 1749.4 -5.46362 -0.786927 0
M  V30 18416 H 1751.87 -3.78386 -1.73099 0
M  V30 18417 H 1750.75 -4.79037 -2.67983 0
M  V30 18418 H 1751.01 -3.11469 -3.1375 0
M  V30 18419 N 1750.07 0.274379 -1.55193 0
M  V30 18420 C 1751.32 1.00394 -1.7494 0
M  V30 18421 C 1751.63 1.87499 -0.557084 0
M  V30 18422 O 1752.84 2.63923 -0.636936 0
M  V30 18423 C 1751.29 1.83489 -3.09612 0
M  V30 18424 C 1750.9 1.01257 -4.36407 0
M  V30 18425 C 1752.65 2.55883 -3.38709 0
M  V30 18426 C 1750.55 1.83782 -5.62119 0
M  V30 18427 H 1749.48 0.378561 -0.65208 0
M  V30 18428 H 1752.13 0.259678 -1.81653 0
M  V30 18429 H 1750.52 2.62005 -2.96933 0
M  V30 18430 H 1751.69 0.27167 -4.59998 0
M  V30 18431 H 1750.01 0.403235 -4.14443 0
M  V30 18432 H 1752.6 3.18028 -4.2984 0
M  V30 18433 H 1752.95 3.26096 -2.58779 0
M  V30 18434 H 1753.48 1.84398 -3.5248 0
M  V30 18435 H 1750.22 1.17992 -6.44793 0
M  V30 18436 H 1749.74 2.55473 -5.42673 0
M  V30 18437 H 1751.42 2.41181 -6.00367 0
M  V30 18438 N 1751.55 1.48103 0.538828 0
M  V30 18439 C 1752.48 1.56526 1.66057 0
M  V30 18440 C 1753.46 0.416225 1.57182 0
M  V30 18441 O 1754.64 0.626601 1.77781 0
M  V30 18442 C 1751.77 1.485 3.0441 0
M  V30 18443 C 1750.82 2.68135 3.31672 0
M  V30 18444 S 1751.65 4.30182 3.1891 0
M  V30 18445 C 1752.81 4.24739 4.59725 0
M  V30 18446 H 1753.04 2.51425 1.5866 0
M  V30 18447 H 1750.57 1.36527 0.721101 0
M  V30 18448 H 1752.53 1.44556 3.84206 0
M  V30 18449 H 1751.19 0.549541 3.09255 0
M  V30 18450 H 1750.38 2.58633 4.3258 0
M  V30 18451 H 1749.99 2.69296 2.5953 0
M  V30 18452 H 1752.28 3.94127 5.51063 0
M  V30 18453 H 1753.22 5.25796 4.74283 0
M  V30 18454 H 1753.63 3.55332 4.38634 0
M  V30 18455 N 1753.03 -0.787016 1.36542 0
M  V30 18456 C 1753.96 -1.91399 1.33749 0
M  V30 18457 C 1754.94 -1.68817 0.208559 0
M  V30 18458 O 1756.12 -1.89896 0.406574 0
M  V30 18459 C 1753.25 -3.28457 1.12842 0
M  V30 18460 C 1752.21 -3.65568 2.22585 0
M  V30 18461 C 1751.53 -5.01002 1.86818 0
M  V30 18462 C 1752.83 -3.73902 3.64684 0
M  V30 18463 H 1754.53 -1.93993 2.2805 0
M  V30 18464 H 1752.07 -0.931937 1.09777 0
M  V30 18465 H 1754.03 -4.06919 1.09522 0
M  V30 18466 H 1752.75 -3.26256 0.149918 0
M  V30 18467 H 1751.41 -2.89405 2.25035 0
M  V30 18468 H 1751.06 -4.95325 0.875361 0
M  V30 18469 H 1750.76 -5.26802 2.60294 0
M  V30 18470 H 1752.28 -5.81881 1.85058 0
M  V30 18471 H 1753.69 -4.4255 3.64448 0
M  V30 18472 H 1752.09 -4.11188 4.37086 0
M  V30 18473 H 1753.16 -2.74946 3.99416 0
M  V30 18474 N 1754.5 -1.20861 -1.01145 0
M  V30 18475 C 1755.75 -1.01613 -1.74234 0
M  V30 18476 C 1756.07 0.451683 -1.90313 0
M  V30 18477 O 1757.27 0.763408 -2.60546 0
M  V30 18478 C 1755.73 -1.76942 -3.134 0
M  V30 18479 C 1755.34 -3.27851 -3.05316 0
M  V30 18480 C 1757.08 -1.6608 -3.90663 0
M  V30 18481 C 1754.99 -3.95696 -4.39521 0
M  V30 18482 H 1753.92 -0.376593 -0.653218 0
M  V30 18483 H 1756.57 -1.44533 -1.1306 0
M  V30 18484 H 1754.95 -1.26812 -3.75146 0
M  V30 18485 H 1756.12 -3.85234 -2.52846 0
M  V30 18486 H 1754.44 -3.39184 -2.41543 0
M  V30 18487 H 1757.04 -2.14105 -4.89963 0
M  V30 18488 H 1757.38 -0.617892 -4.11689 0
M  V30 18489 H 1757.91 -2.13652 -3.35556 0
M  V30 18490 H 1754.65 -5.00161 -4.23697 0
M  V30 18491 H 1754.17 -3.43102 -4.91977 0
M  V30 18492 H 1755.85 -4.00242 -5.08346 0
M  V30 18493 N 1755.98 1.20536 -1.01532 0
M  V30 18494 C 1757.26 1.85545 -0.619063 0
M  V30 18495 C 1757.64 1.90816 0.902916 0
M  V30 18496 O 1756.99 1.41506 1.79411 0
M  V30 18497 C 1757.2 3.25252 -1.26539 0
M  V30 18498 C 1758.55 4.01547 -1.38003 0
M  V30 18499 O 1759.57 3.34601 -1.22151 0
M  V30 18500 O 1758.43 5.21436 -1.63605 0
M  V30 18501 H 1755.52 0.798985 -0.21343 0
M  V30 18502 H 1758.07 1.28136 -1.11262 0
M  V30 18503 H 1756.84 3.16174 -2.30542 0
M  V30 18504 H 1756.46 3.90292 -0.758833 0
M  V30 18505 N 1757.46 0.791395 1.36289 0
M  V30 18506 C 1758.37 0.192362 2.3381 0
M  V30 18507 C 1759.39 -0.656556 1.61138 0
M  V30 18508 O 1760.56 -0.571877 1.9311 0
M  V30 18509 C 1757.63 -0.661283 3.40335 0
M  V30 18510 C 1756.69 0.206361 4.28804 0
M  V30 18511 C 1755.92 -0.606636 5.30241 0
M  V30 18512 O 1756.14 -1.84247 5.39823 0
M  V30 18513 O 1755.08 -0.00549116 6.019 0
M  V30 18514 H 1758.9 0.998723 2.86809 0
M  V30 18515 H 1756.49 0.552889 1.38793 0
M  V30 18516 H 1758.37 -1.148 4.05461 0
M  V30 18517 H 1757.05 -1.4455 2.89632 0
M  V30 18518 H 1755.95 0.739877 3.66711 0
M  V30 18519 H 1757.29 0.954142 4.82863 0
M  V30 18520 N 1758.94 -1.47929 0.54358 0
M  V30 18521 C 1759.87 -2.3264 -0.200228 0
M  V30 18522 C 1760.85 -1.42945 -0.922 0
M  V30 18523 O 1762.04 -1.71817 -0.905129 0
M  V30 18524 C 1759.17 -3.24439 -1.23922 0
M  V30 18525 C 1758.12 -4.23267 -0.634753 0
M  V30 18526 C 1757.45 -5.04295 -1.77739 0
M  V30 18527 C 1758.75 -5.20747 0.402524 0
M  V30 18528 H 1760.44 -2.95077 0.506957 0
M  V30 18529 H 1757.99 -1.41896 0.245246 0
M  V30 18530 H 1759.94 -3.82535 -1.76763 0
M  V30 18531 H 1758.66 -2.60029 -1.97616 0
M  V30 18532 H 1757.32 -3.66377 -0.127756 0
M  V30 18533 H 1756.97 -4.36299 -2.50304 0
M  V30 18534 H 1756.67 -5.71195 -1.37879 0
M  V30 18535 H 1758.19 -5.65246 -2.30932 0
M  V30 18536 H 1759.61 -5.73287 -0.039305 0
M  V30 18537 H 1758 -5.95774 0.719251 0
M  V30 18538 H 1759.07 -4.67054 1.3034 0
M  V30 18539 N 1760.42 -0.27936 -1.55104 0
M  V30 18540 C 1761.66 0.337344 -2.01597 0
M  V30 18541 C 1762.02 1.52732 -1.16348 0
M  V30 18542 O 1763.22 2.21394 -1.5244 0
M  V30 18543 C 1761.49 0.705839 -3.50361 0
M  V30 18544 S 1763.05 1.30847 -4.18837 0
M  V30 18545 H 1759.87 0.104703 -0.703248 0
M  V30 18546 H 1762.47 -0.402184 -1.91318 0
M  V30 18547 H 1761.18 -0.169038 -4.10052 0
M  V30 18548 H 1760.71 1.47672 -3.64632 0
M  V30 18549 H 1762.72 2.59696 -4.22815 0
M  V30 18550 N 1761.9 1.57599 -0.0067085 0
M  V30 18551 C 1763.14 1.90481 0.675393 0
M  V30 18552 C 1763.46 0.881481 1.73939 0
M  V30 18553 O 1762.73 -0.0801928 1.95736 0
M  V30 18554 H 1761.31 0.703048 0.252452 0
M  V30 18555 H 1763.98 1.94838 -0.04922 0
M  V30 18556 H 1763.07 2.90441 1.14239 0
M  V30 18557 N 1763.37 -0.266145 1.55336 0
M  V30 18558 C 1764.78 -0.836683 1.66903 0
M  V30 18559 C 1765.14 -1.86781 0.600597 0
M  V30 18560 O 1764.26 -2.14872 -0.256674 0
M  V30 18561 C 1764.86 -1.52436 3.0257 0
M  V30 18562 C 1763.41 -2.04284 3.1614 0
M  V30 18563 C 1762.56 -0.887248 2.62723 0
M  V30 18564 H 1765.51 -0.0423472 1.58643 0
M  V30 18565 H 1765.53 -2.39163 2.95941 0
M  V30 18566 H 1765.05 -0.773649 3.80311 0
M  V30 18567 H 1763.15 -2.82296 2.43187 0
M  V30 18568 H 1763.26 -2.25345 4.22796 0
M  V30 18569 H 1761.62 -1.28251 2.20054 0
M  V30 18570 H 1762.41 -0.14993 3.42972 0
M  V30 18571 N 1764.85 -1.48386 -0.530967 0
M  V30 18572 C 1766.13 -1.46843 -1.29215 0
M  V30 18573 C 1766.51 -0.179567 -2.10335 0
M  V30 18574 O 1765.86 0.838706 -2.12551 0
M  V30 18575 C 1766.07 -2.72983 -2.17443 0
M  V30 18576 C 1767.41 -3.21271 -2.77615 0
M  V30 18577 O 1768.44 -2.73893 -2.2773 0
M  V30 18578 O 1767.3 -4.03709 -3.68349 0
M  V30 18579 H 1764.39 -0.586393 -0.583157 0
M  V30 18580 H 1766.94 -1.60619 -0.547702 0
M  V30 18581 H 1765.71 -3.58301 -1.57278 0
M  V30 18582 H 1765.33 -2.61922 -2.99137 0
M  V30 18583 N 1766.33 0.779763 -1.36958 0
M  V30 18584 C 1767.74 1.35555 -1.28381 0
M  V30 18585 C 1768.09 1.96067 0.0721422 0
M  V30 18586 O 1767.22 1.9325 0.973824 0
M  V30 18587 C 1767.81 2.46454 -2.32477 0
M  V30 18588 C 1766.37 2.99823 -2.27559 0
M  V30 18589 C 1765.52 1.72975 -2.16737 0
M  V30 18590 H 1768.47 0.580646 -1.47696 0
M  V30 18591 H 1768.49 3.25726 -1.96679 0
M  V30 18592 H 1768 2.02383 -3.31154 0
M  V30 18593 H 1766.1 3.4829 -1.3238 0
M  V30 18594 H 1766.22 3.55982 -3.20646 0
M  V30 18595 H 1764.58 1.95587 -1.6315 0
M  V30 18596 H 1765.36 1.31018 -3.17315 0
M  V30 18597 N 1767.81 1.21396 1.00503 0
M  V30 18598 C 1769.03 1.05791 1.7839 0
M  V30 18599 C 1769.46 -0.387921 1.84056 0
M  V30 18600 O 1768.82 -1.27983 1.28413 0
M  V30 18601 C 1768.86 1.65967 3.20137 0
M  V30 18602 O 1767.97 0.905123 4.02345 0
M  V30 18603 H 1767.31 0.372331 0.549787 0
M  V30 18604 H 1769.84 1.60938 1.26334 0
M  V30 18605 H 1769.85 1.70186 3.70811 0
M  V30 18606 H 1768.52 2.71185 3.15327 0
M  V30 18607 H 1767.1 0.938019 3.60909 0
M  V30 18608 N 1769.29 -1.19996 1.0217 0
M  V30 18609 C 1770.22 -2.25206 0.616818 0
M  V30 18610 C 1771.2 -1.66013 -0.370653 0
M  V30 18611 O 1772.38 -1.92519 -0.254956 0
M  V30 18612 C 1769.51 -3.47276 -0.0405129 0
M  V30 18613 C 1768.47 -4.19096 0.868479 0
M  V30 18614 C 1767.79 -5.34645 0.0766447 0
M  V30 18615 C 1769.09 -4.7468 2.1789 0
M  V30 18616 H 1770.79 -2.59328 1.49632 0
M  V30 18617 H 1768.33 -1.24655 0.720917 0
M  V30 18618 H 1770.28 -4.20063 -0.335355 0
M  V30 18619 H 1769.01 -3.12333 -0.954759 0
M  V30 18620 H 1767.67 -3.48181 1.1474 0
M  V30 18621 H 1767.32 -4.95946 -0.839411 0
M  V30 18622 H 1767.02 -5.83628 0.682041 0
M  V30 18623 H 1768.54 -6.10233 -0.211624 0
M  V30 18624 H 1769.95 -5.39259 1.94608 0
M  V30 18625 H 1768.35 -5.34121 2.7356 0
M  V30 18626 H 1769.42 -3.93141 2.83845 0
M  V30 18627 N 1770.76 -0.798611 -1.35867 0
M  V30 18628 C 1771.99 -0.386378 -2.03769 0
M  V30 18629 C 1772.41 0.992154 -1.59806 0
M  V30 18630 O 1771.77 1.64094 -0.770895 0
M  V30 18631 C 1771.82 -0.468859 -3.57539 0
M  V30 18632 O 1770.92 0.520742 -4.09099 0
M  V30 18633 H 1770.26 -0.162597 -0.643784 0
M  V30 18634 H 1772.79 -1.08228 -1.73631 0
M  V30 18635 H 1772.8 -0.335775 -4.06616 0
M  V30 18636 H 1771.48 -1.47441 -3.88888 0
M  V30 18637 H 1770.06 0.348559 -3.71267 0
M  V30 18638 N 1772.24 1.47639 -0.551417 0
M  V30 18639 C 1773.52 1.95559 0.0401983 0
M  V30 18640 C 1773.9 1.49396 1.49144 0
M  V30 18641 O 1773.25 0.730148 2.1652 0
M  V30 18642 C 1773.46 3.48859 -0.0992677 0
M  V30 18643 C 1774.8 4.24572 0.0490517 0
M  V30 18644 O 1775.83 3.5619 -0.026527 0
M  V30 18645 O 1774.69 5.46094 0.210638 0
M  V30 18646 H 1771.78 0.824251 0.0673694 0
M  V30 18647 H 1774.33 1.58065 -0.617532 0
M  V30 18648 H 1773.1 3.75245 -1.10936 0
M  V30 18649 H 1772.72 3.93102 0.596339 0
M  V30 18650 N 1773.72 0.287581 1.54954 0
M  V30 18651 C 1774.63 -0.604236 2.26685 0
M  V30 18652 C 1775.65 -1.1597 1.29719 0
M  V30 18653 O 1776.82 -1.18735 1.62678 0
M  V30 18654 C 1773.89 -1.76612 2.98344 0
M  V30 18655 C 1772.95 -1.24608 4.10818 0
M  V30 18656 C 1772.18 -2.35258 4.7905 0
M  V30 18657 O 1772.4 -3.54879 4.46561 0
M  V30 18658 O 1771.34 -2.02709 5.66739 0
M  V30 18659 H 1775.16 -0.0227663 3.03691 0
M  V30 18660 H 1772.75 0.0545243 1.493 0
M  V30 18661 H 1774.63 -2.44332 3.43336 0
M  V30 18662 H 1773.31 -2.33444 2.24244 0
M  V30 18663 H 1772.21 -0.53498 3.70255 0
M  V30 18664 H 1773.55 -0.723348 4.86856 0
M  V30 18665 N 1775.2 -1.57593 0.0150662 0
M  V30 18666 C 1776.13 -2.12395 -0.970081 0
M  V30 18667 C 1777.11 -1.03666 -1.34861 0
M  V30 18668 O 1778.29 -1.31427 -1.4297 0
M  V30 18669 C 1775.42 -2.63958 -2.25707 0
M  V30 18670 C 1774.38 -3.77348 -2.01971 0
M  V30 18671 C 1773.7 -4.15284 -3.36814 0
M  V30 18672 C 1775 -5.04008 -1.37017 0
M  V30 18673 H 1776.7 -2.9496 -0.513731 0
M  V30 18674 H 1774.24 -1.41889 -0.245666 0
M  V30 18675 H 1776.2 -3.00927 -2.94993 0
M  V30 18676 H 1774.92 -1.78535 -2.73483 0
M  V30 18677 H 1773.58 -3.40795 -1.35107 0
M  V30 18678 H 1773.23 -3.26863 -3.82321 0
M  V30 18679 H 1772.93 -4.91686 -3.21744 0
M  V30 18680 H 1774.45 -4.54824 -4.07391 0
M  V30 18681 H 1775.87 -5.38652 -1.96282 0
M  V30 18682 H 1774.26 -5.85315 -1.32388 0
M  V30 18683 H 1775.33 -4.83698 -0.341281 0
M  V30 18684 N 1776.68 0.257904 -1.55475 0
M  V30 18685 C 1777.93 0.985329 -1.75995 0
M  V30 18686 C 1778.24 1.86898 -0.57694 0
M  V30 18687 O 1779.44 2.63233 -0.664893 0
M  V30 18688 C 1777.9 1.80195 -3.11541 0
M  V30 18689 C 1777.51 0.966227 -4.37456 0
M  V30 18690 C 1779.25 2.52277 -3.41404 0
M  V30 18691 C 1777.16 1.7781 -5.64037 0
M  V30 18692 H 1776.09 0.371623 -0.656058 0
M  V30 18693 H 1778.74 0.240396 -1.81919 0
M  V30 18694 H 1777.12 2.58841 -2.99695 0
M  V30 18695 H 1778.3 0.222865 -4.60261 0
M  V30 18696 H 1776.61 0.359255 -4.14847 0
M  V30 18697 H 1779.21 3.13451 -4.33189 0
M  V30 18698 H 1779.55 3.23333 -2.62224 0
M  V30 18699 H 1780.08 1.80649 -3.54416 0
M  V30 18700 H 1776.82 1.11147 -6.46008 0
M  V30 18701 H 1776.34 2.49703 -5.45352 0
M  V30 18702 H 1778.02 2.348 -6.02891 0
M  V30 18703 N 1778.15 1.48666 0.52309 0
M  V30 18704 C 1779.38 1.60965 1.30787 0
M  V30 18705 C 1779.8 0.272663 1.86113 0
M  V30 18706 O 1779.16 -0.756662 1.64755 0
M  V30 18707 C 1779.21 2.66455 2.42969 0
M  V30 18708 O 1778.31 2.24094 3.46202 0
M  V30 18709 H 1777.66 0.539516 0.387064 0
M  V30 18710 H 1780.19 1.94702 0.628683 0
M  V30 18711 H 1780.2 2.87942 2.89056 0
M  V30 18712 H 1778.87 3.63516 2.02062 0
M  V30 18713 H 1777.45 2.12848 3.06186 0
M  V30 18714 N 1779.63 -0.772489 1.37369 0
M  V30 18715 C 1780.88 -1.52629 1.31861 0
M  V30 18716 C 1781.19 -1.9537 -0.0947795 0
M  V30 18717 O 1782.4 -2.70131 -0.27233 0
M  V30 18718 C 1780.86 -2.75608 2.31448 0
M  V30 18719 C 1780.46 -2.39969 3.78311 0
M  V30 18720 C 1782.21 -3.53553 2.34948 0
M  V30 18721 C 1780.12 -3.59445 4.69631 0
M  V30 18722 H 1779.05 -0.573019 0.490066 0
M  V30 18723 H 1781.7 -0.846178 1.62825 0
M  V30 18724 H 1780.08 -3.45505 1.935 0
M  V30 18725 H 1781.25 -1.7786 4.25091 0
M  V30 18726 H 1779.57 -1.752 3.77748 0
M  V30 18727 H 1782.16 -4.42353 3.00379 0
M  V30 18728 H 1782.51 -3.93359 1.36287 0
M  V30 18729 H 1783.04 -2.90652 2.716 0
M  V30 18730 H 1779.78 -3.24721 5.69418 0
M  V30 18731 H 1779.3 -4.20662 4.27555 0
M  V30 18732 H 1780.98 -4.26267 4.86729 0
M  V30 18733 N 1781.11 -1.21927 -0.998575 0
M  V30 18734 C 1782.04 -1.00845 -2.106 0
M  V30 18735 C 1783.02 0.068733 -1.69961 0
M  V30 18736 O 1784.21 -0.0923686 -1.9398 0
M  V30 18737 C 1781.34 -0.57929 -3.42435 0
M  V30 18738 C 1780.29 -1.60177 -3.96897 0
M  V30 18739 C 1779.62 -1.02863 -5.24713 0
M  V30 18740 C 1780.92 -2.9903 -4.28227 0
M  V30 18741 H 1782.61 -1.93469 -2.28495 0
M  V30 18742 H 1780.16 -0.931612 -1.09804 0
M  V30 18743 H 1782.11 -0.418944 -4.19312 0
M  V30 18744 H 1780.83 0.382608 -3.24351 0
M  V30 18745 H 1779.49 -1.74979 -3.22146 0
M  V30 18746 H 1779.14 -0.058254 -5.02966 0
M  V30 18747 H 1778.84 -1.71166 -5.62117 0
M  V30 18748 H 1780.36 -0.879743 -6.04229 0
M  V30 18749 H 1781.78 -2.87634 -4.95923 0
M  V30 18750 H 1780.18 -3.64404 -4.76791 0
M  V30 18751 H 1781.25 -3.4939 -3.36236 0
M  V30 18752 N 1782.59 1.19452 -1.02805 0
M  V30 18753 C 1783.54 2.24684 -0.60165 0
M  V30 18754 C 1784.53 1.65414 0.365319 0
M  V30 18755 O 1785.74 1.78473 0.233988 0
M  V30 18756 H 1782.11 0.731043 -0.176296 0
M  V30 18757 H 1784.08 2.57967 -1.49985 0
M  V30 18758 C 1782.83 3.47685 0.0325515 0
M  V30 18759 H 1782.15 3.93579 -0.702532 0
M  V30 18760 H 1783.59 4.2298 0.29386 0
M  V30 18761 C 1782.05 3.11684 1.27887 0
M  V30 18762 O 1782.58 3.24262 2.37101 0
M  V30 18763 N 1780.79 2.66124 1.16731 0
M  V30 18764 H 1780.34 2.56089 0.278595 0
M  V30 18765 H 1780.29 2.42407 2.00215 0
M  V30 18766 N 1784.07 0.805805 1.35442 0
M  V30 18767 C 1784.98 0.217149 2.33593 0
M  V30 18768 C 1785.99 -0.639428 1.61825 0
M  V30 18769 O 1787.17 -0.551363 1.93706 0
M  V30 18770 C 1784.23 -0.625149 3.41017 0
M  V30 18771 C 1783.29 0.25183 4.28561 0
M  V30 18772 C 1782.53 -0.550363 5.30855 0
M  V30 18773 O 1782.75 -1.78511 5.41747 0
M  V30 18774 O 1781.68 0.0583487 6.01872 0
M  V30 18775 H 1785.51 1.02909 2.85733 0
M  V30 18776 H 1783.1 0.567579 1.38199 0
M  V30 18777 H 1784.98 -1.10493 4.06656 0
M  V30 18778 H 1783.65 -1.4147 2.91149 0
M  V30 18779 H 1782.56 0.77873 3.65905 0
M  V30 18780 H 1783.89 1.0053 4.81824 0
M  V30 18781 N 1785.54 -1.47344 0.559239 0
M  V30 18782 C 1786.47 -2.32839 -0.175542 0
M  V30 18783 C 1787.46 -1.43914 -0.906787 0
M  V30 18784 O 1788.64 -1.72767 -0.886855 0
M  V30 18785 C 1785.77 -3.25735 -1.20474 0
M  V30 18786 C 1784.72 -4.23916 -0.589825 0
M  V30 18787 C 1784.05 -5.06151 -1.7238 0
M  V30 18788 C 1785.35 -5.2029 0.457733 0
M  V30 18789 H 1787.04 -2.94522 0.538225 0
M  V30 18790 H 1784.59 -1.41628 0.260282 0
M  V30 18791 H 1786.54 -3.84388 -1.72695 0
M  V30 18792 H 1785.27 -2.62111 -1.94847 0
M  V30 18793 H 1783.93 -3.66492 -0.0888897 0
M  V30 18794 H 1783.57 -4.38929 -2.45663 0
M  V30 18795 H 1783.27 -5.72625 -1.31813 0
M  V30 18796 H 1784.8 -5.67663 -2.24923 0
M  V30 18797 H 1786.21 -5.73296 0.0215019 0
M  V30 18798 H 1784.61 -5.94978 0.7824 0
M  V30 18799 H 1785.68 -4.65645 1.35286 0
M  V30 18800 N 1787.02 -0.295795 -1.54799 0
M  V30 18801 C 1788.25 0.317763 -2.04445 0
M  V30 18802 C 1788.67 1.47915 -1.17331 0
M  V30 18803 O 1788.02 1.81425 -0.197811 0
M  V30 18804 C 1788.07 0.778995 -3.53007 0
M  V30 18805 O 1787.79 -0.33616 -4.36808 0
M  V30 18806 C 1789.3 1.45824 -4.18629 0
M  V30 18807 H 1786.52 0.0697871 -0.667361 0
M  V30 18808 H 1789.06 -0.433911 -1.99844 0
M  V30 18809 H 1787.21 1.4807 -3.57986 0
M  V30 18810 H 1787.63 0.0219928 -5.24495 0
M  V30 18811 H 1789.1 1.73218 -5.24118 0
M  V30 18812 H 1789.58 2.3966 -3.68049 0
M  V30 18813 H 1790.19 0.799847 -4.17711 0
M  V30 18814 N 1788.5 1.57583 -0.0234236 0
M  V30 18815 C 1789.43 2.06766 0.988961 0
M  V30 18816 C 1790.45 0.98998 1.29241 0
M  V30 18817 O 1791.64 1.2663 1.25806 0
M  V30 18818 C 1788.74 2.47244 2.31784 0
M  V30 18819 C 1787.91 3.78023 2.20039 0
M  V30 18820 C 1786.97 4.05113 3.35812 0
M  V30 18821 O 1785.99 4.75447 3.12952 0
M  V30 18822 N 1787.2 3.5484 4.59422 0
M  V30 18823 H 1789.96 2.94242 0.569355 0
M  V30 18824 H 1787.52 1.61073 0.163461 0
M  V30 18825 H 1789.51 2.62463 3.08051 0
M  V30 18826 H 1788.08 1.65163 2.65405 0
M  V30 18827 H 1787.3 3.72656 1.28534 0
M  V30 18828 H 1788.59 4.63717 2.09389 0
M  V30 18829 H 1787.99 2.97928 4.8089 0
M  V30 18830 H 1786.55 3.75348 5.32877 0
M  V30 18831 N 1789.98 -0.249655 1.5561 0
M  V30 18832 C 1790.91 -1.31281 1.931 0
M  V30 18833 C 1791.89 -1.50347 0.795601 0
M  V30 18834 O 1793.08 -1.63001 1.05566 0
M  V30 18835 C 1790.21 -2.66808 2.2233 0
M  V30 18836 C 1789.16 -2.62441 3.38096 0
M  V30 18837 C 1788.49 -4.01738 3.52861 0
M  V30 18838 C 1789.79 -2.19667 4.7386 0
M  V30 18839 H 1791.48 -1.00151 2.82153 0
M  V30 18840 H 1789.03 -0.480331 1.35753 0
M  V30 18841 H 1790.98 -3.41316 2.47146 0
M  V30 18842 H 1789.7 -2.99569 1.30101 0
M  V30 18843 H 1788.36 -1.90391 3.13284 0
M  V30 18844 H 1788.01 -4.31759 2.58056 0
M  V30 18845 H 1787.71 -3.99705 4.30708 0
M  V30 18846 H 1789.23 -4.7795 3.79995 0
M  V30 18847 H 1790.65 -2.83906 4.98067 0
M  V30 18848 H 1789.04 -2.28751 5.54791 0
M  V30 18849 H 1790.11 -1.14829 4.71108 0
M  V30 18850 N 1791.46 -1.48941 -0.515198 0
M  V30 18851 C 1792.68 -1.61656 -1.29931 0
M  V30 18852 C 1793.11 -0.282529 -1.85966 0
M  V30 18853 O 1792.47 0.747914 -1.65154 0
M  V30 18854 C 1792.51 -2.6774 -2.41553 0
M  V30 18855 O 1791.62 -2.25926 -3.45009 0
M  V30 18856 H 1790.96 -0.541561 -0.384197 0
M  V30 18857 H 1793.49 -1.95032 -0.618349 0
M  V30 18858 H 1793.5 -2.89471 -2.87525 0
M  V30 18859 H 1792.17 -3.64582 -2.00131 0
M  V30 18860 H 1790.75 -2.14469 -3.05053 0
M  V30 18861 N 1792.94 0.765193 -1.37777 0
M  V30 18862 C 1793.88 1.87866 -1.34071 0
M  V30 18863 C 1794.85 1.64828 -0.205154 0
M  V30 18864 O 1796.04 1.86655 -0.395555 0
M  V30 18865 C 1793.18 3.25018 -1.16006 0
M  V30 18866 C 1792.29 3.59966 -2.38848 0
M  V30 18867 C 1791.43 4.8636 -2.13605 0
M  V30 18868 C 1790.46 5.14059 -3.32279 0
M  V30 18869 N 1789.6 6.31644 -3.06545 0
M  V30 18870 H 1794.44 1.90369 -2.29267 0
M  V30 18871 H 1791.98 0.930625 -1.1392 0
M  V30 18872 H 1793.94 4.04145 -1.03552 0
M  V30 18873 H 1792.57 3.21872 -0.24454 0
M  V30 18874 H 1791.62 2.75773 -2.62018 0
M  V30 18875 H 1792.93 3.76369 -3.27334 0
M  V30 18876 H 1792.08 5.73406 -1.9822 0
M  V30 18877 H 1790.82 4.72073 -1.22467 0
M  V30 18878 H 1789.83 4.25487 -3.48196 0
M  V30 18879 H 1791.05 5.30251 -4.24277 0
M  V30 18880 H 1789 6.18703 -2.18043 0
M  V30 18881 H 1788.92 6.48494 -3.88576 0
M  V30 18882 H 1790.18 7.21608 -2.94791 0
M  V30 18883 N 1794.41 1.22455 0.992094 0
M  V30 18884 C 1795.64 1.07677 1.77258 0
M  V30 18885 C 1796.06 -0.368377 1.84458 0
M  V30 18886 O 1795.42 -1.26614 1.29763 0
M  V30 18887 C 1795.47 1.69353 3.18358 0
M  V30 18888 O 1794.57 0.947746 4.01362 0
M  V30 18889 H 1793.91 0.378141 0.545807 0
M  V30 18890 H 1796.44 1.62269 1.2462 0
M  V30 18891 H 1796.45 1.7411 3.68985 0
M  V30 18892 H 1795.13 2.74515 3.12433 0
M  V30 18893 H 1793.71 0.976245 3.59894 0
M  V30 18894 N 1795.89 -1.18905 1.03437 0
M  V30 18895 C 1796.8 -2.25979 0.63014 0
M  V30 18896 C 1797.82 -1.70633 -0.340668 0
M  V30 18897 O 1798.99 -2.00432 -0.197174 0
M  V30 18898 C 1796.06 -3.46699 -0.00713795 0
M  V30 18899 C 1795.12 -4.17205 1.01187 0
M  V30 18900 C 1794.35 -5.32162 0.404909 0
M  V30 18901 O 1794.58 -5.64894 -0.790638 0
M  V30 18902 O 1793.51 -5.91188 1.13048 0
M  V30 18903 H 1797.34 -2.62808 1.52203 0
M  V30 18904 H 1794.92 -1.25865 0.804878 0
M  V30 18905 H 1796.8 -4.1984 -0.362204 0
M  V30 18906 H 1795.48 -3.11707 -0.872948 0
M  V30 18907 H 1794.38 -3.46159 1.41862 0
M  V30 18908 H 1795.72 -4.56181 1.84823 0
M  V30 18909 N 1797.37 -0.812977 -1.35013 0
M  V30 18910 C 1798.32 -0.200375 -2.27118 0
M  V30 18911 C 1799.3 0.629541 -1.48073 0
M  V30 18912 O 1800.5 0.485751 -1.70204 0
M  V30 18913 C 1797.62 0.644989 -3.37187 0
M  V30 18914 C 1796.71 -0.195007 -4.23651 0
M  V30 18915 N 1797.1 -1.26116 -4.89825 0
M  V30 18916 C 1795.4 0.0223111 -4.45994 0
M  V30 18917 C 1796.1 -1.77451 -5.53973 0
M  V30 18918 N 1795.08 -1.07995 -5.32764 0
M  V30 18919 H 1798.88 -1.01605 -2.75778 0
M  V30 18920 H 1796.39 -0.654777 -1.48615 0
M  V30 18921 H 1798.39 1.09995 -4.02128 0
M  V30 18922 H 1797.05 1.45894 -2.90078 0
M  V30 18923 H 1798.06 -1.64387 -4.91118 0
M  V30 18924 H 1794.74 0.804889 -4.09668 0
M  V30 18925 H 1796.13 -2.66591 -6.16749 0
M  V30 18926 N 1798.85 1.47045 -0.567045 0
M  V30 18927 C 1800.09 2.04341 -0.0491613 0
M  V30 18928 C 1800.45 1.4308 1.28031 0
M  V30 18929 O 1801.65 1.91481 1.88649 0
M  V30 18930 C 1799.92 3.57386 0.0319732 0
M  V30 18931 S 1801.48 4.36004 0.494555 0
M  V30 18932 H 1798.3 0.710371 -0.0298915 0
M  V30 18933 H 1800.9 1.80291 -0.756004 0
M  V30 18934 H 1799.61 3.99494 -0.93983 0
M  V30 18935 H 1799.14 3.85948 0.76207 0
M  V30 18936 H 1801.15 4.64226 1.75238 0
M  V30 18937 N 1800.33 0.304 1.5464 0
M  V30 18938 C 1801.27 -0.570762 2.23631 0
M  V30 18939 C 1802.24 -1.1272 1.21998 0
M  V30 18940 O 1803.43 -1.17117 1.50626 0
M  V30 18941 C 1800.57 -1.73533 2.98296 0
M  V30 18942 C 1799.68 -1.21 4.14708 0
M  V30 18943 C 1798.82 -2.33867 4.76948 0
M  V30 18944 C 1797.85 -1.78483 5.855 0
M  V30 18945 N 1796.99 -2.84935 6.41682 0
M  V30 18946 H 1801.83 0.024168 2.9799 0
M  V30 18947 H 1799.37 0.023697 1.47081 0
M  V30 18948 H 1801.33 -2.42031 3.39819 0
M  V30 18949 H 1799.96 -2.30184 2.26308 0
M  V30 18950 H 1799.01 -0.41718 3.78105 0
M  V30 18951 H 1800.32 -0.764576 4.92905 0
M  V30 18952 H 1799.47 -3.10306 5.21339 0
M  V30 18953 H 1798.21 -2.81737 3.9809 0
M  V30 18954 H 1797.22 -1.00534 5.4053 0
M  V30 18955 H 1798.44 -1.31513 6.66244 0
M  V30 18956 H 1796.39 -3.32133 5.65706 0
M  V30 18957 H 1796.31 -2.44898 7.15235 0
M  V30 18958 H 1797.57 -3.61263 6.90731 0
M  V30 18959 N 1801.8 -1.57568 0.0317802 0
M  V30 18960 C 1803.05 -1.92194 -0.647238 0
M  V30 18961 C 1803.38 -0.908747 -1.71626 0
M  V30 18962 O 1802.66 0.0681334 -1.94381 0
M  V30 18963 C 1802.94 -3.3729 -1.26124 0
M  V30 18964 C 1802.79 -4.49348 -0.201594 0
M  V30 18965 C 1804.11 -3.824 -2.17849 0
M  V30 18966 H 1801.23 -0.698927 -0.233817 0
M  V30 18967 H 1803.87 -1.89789 0.0895831 0
M  V30 18968 H 1802.02 -3.39471 -1.88922 0
M  V30 18969 H 1803.7 -4.59299 0.429155 0
M  V30 18970 H 1801.94 -4.31218 0.472624 0
M  V30 18971 H 1802.61 -5.47908 -0.670859 0
M  V30 18972 H 1805.09 -3.81972 -1.65034 0
M  V30 18973 H 1803.96 -4.84614 -2.57761 0
M  V30 18974 H 1804.22 -3.18054 -3.07073 0
M  V30 18975 N 1803.28 0.241399 -1.5574 0
M  V30 18976 C 1804.25 1.28236 -1.89969 0
M  V30 18977 C 1805.25 1.40804 -0.776582 0
M  V30 18978 O 1806.44 1.3941 -1.04453 0
M  V30 18979 C 1803.57 2.65926 -2.13299 0
M  V30 18980 H 1804.76 0.991011 -2.83053 0
M  V30 18981 H 1802.31 0.480939 -1.48717 0
M  V30 18982 H 1803.05 3.00192 -1.22701 0
M  V30 18983 H 1802.83 2.58184 -2.95099 0
M  V30 18984 H 1804.32 3.4108 -2.40944 0
M  V30 18985 N 1804.76 1.49212 0.507292 0
M  V30 18986 C 1805.69 1.68326 1.61829 0
M  V30 18987 C 1806.67 0.531969 1.61568 0
M  V30 18988 O 1807.86 0.767104 1.78407 0
M  V30 18989 C 1804.99 1.74394 3.0034 0
M  V30 18990 C 1803.94 2.89251 3.15465 0
M  V30 18991 C 1803.27 2.80426 4.55264 0
M  V30 18992 C 1804.57 4.30269 2.96085 0
M  V30 18993 H 1806.26 2.6134 1.46087 0
M  V30 18994 H 1803.81 1.25765 0.701367 0
M  V30 18995 H 1805.76 1.86353 3.77956 0
M  V30 18996 H 1804.48 0.779748 3.17155 0
M  V30 18997 H 1803.14 2.76884 2.40272 0
M  V30 18998 H 1802.79 1.81928 4.68947 0
M  V30 18999 H 1802.49 3.57511 4.66326 0
M  V30 19000 H 1804.01 2.94384 5.34949 0
M  V30 19001 H 1805.43 4.4335 3.63475 0
M  V30 19002 H 1803.83 5.08527 3.18623 0
M  V30 19003 H 1804.9 4.45151 1.92272 0
M  V30 19004 N 1806.24 -0.757876 1.38181 0
M  V30 19005 C 1807.65 -1.06035 1.19284 0
M  V30 19006 C 1807.85 -2.01463 0.0385482 0
M  V30 19007 O 1806.91 -2.44845 -0.61703 0
M  V30 19008 C 1808.22 -1.64455 2.51744 0
M  V30 19009 C 1809.77 -1.76646 2.58389 0
M  V30 19010 C 1810.25 -2.38478 3.91014 0
M  V30 19011 N 1811.74 -2.45914 3.92531 0
M  V30 19012 C 1812.47 -2.94641 4.91909 0
M  V30 19013 N 1811.97 -3.43435 6.01684 0
M  V30 19014 N 1813.76 -2.93642 4.79303 0
M  V30 19015 H 1805.91 -0.124532 2.12035 0
M  V30 19016 H 1808.18 -0.117876 0.940643 0
M  V30 19017 H 1807.88 -1.01804 3.36644 0
M  V30 19018 H 1807.76 -2.63573 2.69832 0
M  V30 19019 H 1810.14 -2.38426 1.73888 0
M  V30 19020 H 1810.22 -0.762449 2.44173 0
M  V30 19021 H 1809.87 -1.77334 4.75936 0
M  V30 19022 H 1809.8 -3.39513 4.0254 0
M  V30 19023 H 1812.29 -2.11398 3.1324 0
M  V30 19024 H 1812.6 -3.79059 6.73449 0
M  V30 19025 H 1810.95 -3.41504 6.0531 0
M  V30 19026 H 1814.14 -2.5483 3.92657 0
M  V30 19027 H 1814.31 -3.31304 5.56903 0
M  V30 19028 N 1807.72 -1.22979 -0.985586 0
M  V30 19029 C 1808.68 -1.00763 -2.05862 0
M  V30 19030 C 1809.68 0.02864 -1.60774 0
M  V30 19031 O 1810.87 -0.210593 -1.72922 0
M  V30 19032 C 1808 -0.523547 -3.36856 0
M  V30 19033 H 1809.19 -1.95982 -2.27004 0
M  V30 19034 H 1806.75 -1.0495 -1.15824 0
M  V30 19035 H 1807.48 0.432658 -3.21401 0
M  V30 19036 H 1807.27 -1.27127 -3.70919 0
M  V30 19037 H 1808.76 -0.388591 -4.15788 0
M  V30 19038 N 1809.19 1.18355 -1.04066 0
M  V30 19039 C 1810.61 1.40349 -0.759898 0
M  V30 19040 C 1810.81 1.90709 0.650574 0
M  V30 19041 O 1809.87 2.09142 1.41477 0
M  V30 19042 C 1811.18 2.40426 -1.80599 0
M  V30 19043 C 1812.73 2.54153 -1.8269 0
M  V30 19044 C 1813.2 3.57494 -2.8629 0
M  V30 19045 N 1814.69 3.65001 -2.85181 0
M  V30 19046 C 1815.43 4.44688 -3.61995 0
M  V30 19047 N 1814.92 5.27984 -4.48559 0
M  V30 19048 N 1816.72 4.39451 -3.50484 0
M  V30 19049 H 1808.87 0.839924 -1.95087 0
M  V30 19050 H 1811.13 0.431492 -0.844108 0
M  V30 19051 H 1810.84 2.10471 -2.81771 0
M  V30 19052 H 1810.71 3.39773 -1.63812 0
M  V30 19053 H 1813.1 2.83424 -0.821889 0
M  V30 19054 H 1813.18 1.54919 -2.03553 0
M  V30 19055 H 1812.82 3.28963 -3.8697 0
M  V30 19056 H 1812.75 4.56405 -2.62682 0
M  V30 19057 H 1815.24 3.05522 -2.22407 0
M  V30 19058 H 1815.56 5.85939 -5.0388 0
M  V30 19059 H 1813.9 5.27404 -4.52626 0
M  V30 19060 H 1817.09 3.73426 -2.8226 0
M  V30 19061 H 1817.27 5.01313 -4.10596 0
M  V30 19062 N 1810.67 0.820125 1.3458 0
M  V30 19063 C 1811.6 0.197556 2.28347 0
M  V30 19064 C 1812.62 -0.610956 1.50901 0
M  V30 19065 O 1813.81 -0.441096 1.72964 0
M  V30 19066 C 1810.91 -0.741893 3.3068 0
M  V30 19067 C 1810.08 0.0231854 4.37394 0
M  V30 19068 C 1809.14 -0.83677 5.19504 0
M  V30 19069 O 1808.16 -0.282772 5.68497 0
M  V30 19070 N 1809.37 -2.15696 5.38939 0
M  V30 19071 H 1812.13 1.00314 2.82413 0
M  V30 19072 H 1809.69 0.676827 1.47074 0
M  V30 19073 H 1811.68 -1.32173 3.82508 0
M  V30 19074 H 1810.25 -1.44823 2.77029 0
M  V30 19075 H 1809.47 0.784316 3.86319 0
M  V30 19076 H 1810.76 0.549958 5.05819 0
M  V30 19077 H 1810.16 -2.63083 5.00803 0
M  V30 19078 H 1808.72 -2.68572 5.93896 0
M  V30 19079 N 1812.15 -1.46743 0.574835 0
M  V30 19080 C 1813.4 -2.01625 0.0551724 0
M  V30 19081 C 1813.71 -1.4528 -1.3097 0
M  V30 19082 O 1814.92 -1.91932 -1.92026 0
M  V30 19083 C 1813.37 -3.59868 0.0480708 0
M  V30 19084 C 1812.98 -4.25207 1.41078 0
M  V30 19085 C 1814.73 -4.22436 -0.41806 0
M  V30 19086 C 1812.63 -5.75507 1.36183 0
M  V30 19087 H 1811.56 -0.753812 0.0168558 0
M  V30 19088 H 1814.21 -1.68557 0.725313 0
M  V30 19089 H 1812.6 -3.89976 -0.688076 0
M  V30 19090 H 1813.77 -4.06718 2.16603 0
M  V30 19091 H 1812.09 -3.747 1.81628 0
M  V30 19092 H 1814.68 -5.32601 -0.473353 0
M  V30 19093 H 1815.03 -3.90826 -1.43391 0
M  V30 19094 H 1815.56 -3.96925 0.263775 0
M  V30 19095 H 1812.3 -6.11765 2.35423 0
M  V30 19096 H 1811.82 -5.96282 0.648655 0
M  V30 19097 H 1813.5 -6.38068 1.07137 0
M  V30 19098 N 1813.63 -0.312197 -1.54477 0
M  V30 19099 C 1814.56 0.551829 -2.26886 0
M  V30 19100 C 1815.54 1.12874 -1.27254 0
M  V30 19101 O 1816.72 1.15599 -1.56046 0
M  V30 19102 C 1813.85 1.71839 -3.01809 0
M  V30 19103 C 1812.81 1.27131 -4.08683 0
M  V30 19104 C 1812.13 2.52392 -4.71384 0
M  V30 19105 C 1813.43 0.394413 -5.20809 0
M  V30 19106 H 1815.13 -0.0521331 -2.99355 0
M  V30 19107 H 1812.67 -0.0265138 -1.43976 0
M  V30 19108 H 1814.63 2.32903 -3.5119 0
M  V30 19109 H 1813.35 2.34876 -2.26938 0
M  V30 19110 H 1812.01 0.683666 -3.60169 0
M  V30 19111 H 1811.66 3.13768 -3.93139 0
M  V30 19112 H 1811.36 2.23174 -5.43569 0
M  V30 19113 H 1812.88 3.14239 -5.23533 0
M  V30 19114 H 1814.3 0.911031 -5.66015 0
M  V30 19115 H 1812.69 0.195517 -5.99781 0
M  V30 19116 H 1813.76 -0.577661 -4.81447 0
M  V30 19117 N 1815.11 1.57549 -0.040136 0
M  V30 19118 C 1816.36 1.91427 0.635496 0
M  V30 19119 C 1816.67 0.919277 1.72652 0
M  V30 19120 O 1817.87 1.14971 2.45955 0
M  V30 19121 C 1816.33 3.39949 1.18164 0
M  V30 19122 C 1815.94 4.4783 0.12332 0
M  V30 19123 C 1817.68 3.82878 1.83315 0
M  V30 19124 C 1815.59 5.87458 0.681727 0
M  V30 19125 H 1814.52 0.714401 0.241138 0
M  V30 19126 H 1817.17 1.83186 -0.107231 0
M  V30 19127 H 1815.55 3.43157 1.97633 0
M  V30 19128 H 1816.73 4.56197 -0.64972 0
M  V30 19129 H 1815.04 4.14173 -0.43008 0
M  V30 19130 H 1817.64 4.84558 2.2607 0
M  V30 19131 H 1817.98 3.1853 2.68038 0
M  V30 19132 H 1818.51 3.82139 1.10519 0
M  V30 19133 H 1815.25 6.55376 -0.127616 0
M  V30 19134 H 1814.77 5.82675 1.423 0
M  V30 19135 H 1816.45 6.36369 1.16806 0
M  V30 19136 N 1816.58 -0.233136 1.55866 0
M  V30 19137 C 1817.55 -1.27227 1.90646 0
M  V30 19138 C 1818.55 -1.4039 0.784038 0
M  V30 19139 O 1819.74 -1.38854 1.05191 0
M  V30 19140 C 1816.87 -2.64791 2.14706 0
M  V30 19141 H 1818.06 -0.975986 2.83575 0
M  V30 19142 H 1815.62 -0.473045 1.4897 0
M  V30 19143 H 1816.35 -2.99537 1.24291 0
M  V30 19144 H 1816.14 -2.56615 2.96464 0
M  V30 19145 H 1817.63 -3.39797 2.4275 0
M  V30 19146 N 1818.06 -1.49479 -0.499372 0
M  V30 19147 C 1819.29 -1.63025 -1.28209 0
M  V30 19148 C 1819.71 -0.302238 -1.85656 0
M  V30 19149 O 1819.07 0.730355 -1.65938 0
M  V30 19150 C 1819.12 -2.70287 -2.38699 0
M  V30 19151 O 1818.22 -2.29573 -3.42593 0
M  V30 19152 H 1817.56 -0.545605 -0.378432 0
M  V30 19153 H 1820.09 -1.95677 -0.597628 0
M  V30 19154 H 1820.1 -2.92505 -2.84438 0
M  V30 19155 H 1818.78 -3.66684 -1.96253 0
M  V30 19156 H 1817.36 -2.17692 -3.02761 0
M  V30 19157 N 1819.54 0.750537 -1.38581 0
M  V30 19158 C 1820.49 1.85507 -1.32557 0
M  V30 19159 C 1821.48 1.59533 -0.209275 0
M  V30 19160 O 1822.67 1.71302 -0.445507 0
M  V30 19161 C 1819.8 3.23253 -1.15597 0
M  V30 19162 C 1818.88 3.55107 -2.31862 0
M  V30 19163 N 1819.27 3.57999 -3.5731 0
M  V30 19164 C 1817.57 3.85389 -2.2448 0
M  V30 19165 C 1818.27 3.87207 -4.34103 0
M  V30 19166 N 1817.25 4.04193 -3.63496 0
M  V30 19167 H 1821.05 1.86025 -2.27535 0
M  V30 19168 H 1818.56 0.948038 -1.31856 0
M  V30 19169 H 1820.56 4.023 -1.09365 0
M  V30 19170 H 1819.22 3.23984 -0.215556 0
M  V30 19171 H 1820.23 3.39686 -3.9094 0
M  V30 19172 H 1816.91 3.93817 -1.38615 0
M  V30 19173 H 1818.3 3.96042 -5.42771 0
M  V30 19174 N 1821.02 1.235 0.979051 0
M  V30 19175 C 1821.95 1.04183 2.08969 0
M  V30 19176 C 1822.93 -0.041685 1.70049 0
M  V30 19177 O 1824.12 0.123217 1.93809 0
M  V30 19178 C 1821.25 0.633696 3.4147 0
M  V30 19179 C 1820.2 1.66471 3.94299 0
M  V30 19180 C 1819.53 1.11198 5.2301 0
M  V30 19181 C 1820.83 3.05804 4.23416 0
M  V30 19182 H 1822.52 1.9708 2.25388 0
M  V30 19183 H 1820.07 0.948963 1.08308 0
M  V30 19184 H 1822.02 0.485599 4.18593 0
M  V30 19185 H 1820.74 -0.330958 3.24919 0
M  V30 19186 H 1819.4 1.80082 3.19321 0
M  V30 19187 H 1819.05 0.138264 5.0281 0
M  V30 19188 H 1818.75 1.80087 5.59323 0
M  V30 19189 H 1820.27 0.975759 6.02753 0
M  V30 19190 H 1821.69 2.95487 4.91284 0
M  V30 19191 H 1820.08 3.71944 4.70933 0
M  V30 19192 H 1821.15 3.54695 3.30635 0
M  V30 19193 N 1822.5 -1.17802 1.04693 0
M  V30 19194 C 1823.91 -1.69583 0.780923 0
M  V30 19195 C 1824.26 -1.83383 -0.697497 0
M  V30 19196 O 1823.38 -1.51781 -1.54245 0
M  V30 19197 C 1823.98 -3.08021 1.41097 0
M  V30 19198 C 1822.54 -3.56989 1.19313 0
M  V30 19199 C 1821.69 -2.33377 1.49768 0
M  V30 19200 H 1824.64 -1.02389 1.21253 0
M  V30 19201 H 1824.66 -3.71613 0.817539 0
M  V30 19202 H 1824.17 -2.97945 2.48697 0
M  V30 19203 H 1822.27 -3.72351 0.136146 0
M  V30 19204 H 1822.38 -4.40049 1.89456 0
M  V30 19205 H 1820.75 -2.37597 0.917585 0
M  V30 19206 H 1821.53 -2.25914 2.58491 0
M  V30 19207 N 1823.98 -0.827251 -1.34143 0
M  V30 19208 C 1825.2 -0.429514 -2.02904 0
M  V30 19209 C 1825.63 0.958033 -1.61874 0
M  V30 19210 O 1824.98 1.62422 -0.805528 0
M  V30 19211 C 1825.03 -0.544592 -3.56464 0
M  V30 19212 O 1824.14 0.433849 -4.10112 0
M  V30 19213 H 1823.48 -0.176216 -0.64019 0
M  V30 19214 H 1826.01 -1.11887 -1.71297 0
M  V30 19215 H 1826.02 -0.421949 -4.05812 0
M  V30 19216 H 1824.69 -1.55657 -3.85673 0
M  V30 19217 H 1823.27 0.269729 -3.71923 0
M  V30 19218 N 1825.45 1.46436 -0.582609 0
M  V30 19219 C 1826.68 2.06469 -0.0736587 0
M  V30 19220 C 1827.09 1.43193 1.23662 0
M  V30 19221 O 1826.43 0.531376 1.75847 0
M  V30 19222 C 1826.5 3.59114 0.166531 0
M  V30 19223 C 1826.16 4.44581 -1.05814 0
M  V30 19224 C 1827.16 4.81125 -1.97016 0
M  V30 19225 C 1824.84 4.85718 -1.27996 0
M  V30 19226 C 1826.84 5.57632 -3.08747 0
M  V30 19227 C 1824.52 5.61986 -2.40032 0
M  V30 19228 C 1825.52 5.97856 -3.30237 0
M  V30 19229 O 1825.21 6.72582 -4.40328 0
M  V30 19230 H 1824.94 0.673802 -0.0544673 0
M  V30 19231 H 1827.5 1.89053 -0.803005 0
M  V30 19232 H 1825.73 3.74837 0.950489 0
M  V30 19233 H 1827.41 4.01075 0.62398 0
M  V30 19234 H 1828.18 4.49922 -1.81094 0
M  V30 19235 H 1824.06 4.57249 -0.586917 0
M  V30 19236 H 1827.6 5.85549 -3.7918 0
M  V30 19237 H 1823.5 5.92602 -2.55917 0
M  V30 19238 H 1824.27 6.91006 -4.38694 0
M  V30 19239 N 1826.93 0.320385 1.54309 0
M  V30 19240 C 1827.84 -0.556017 2.27916 0
M  V30 19241 C 1828.86 -1.13192 1.32149 0
M  V30 19242 O 1830.03 -1.15257 1.6516 0
M  V30 19243 C 1827.1 -1.70244 3.02023 0
M  V30 19244 C 1826.16 -1.15866 4.13369 0
M  V30 19245 C 1825.39 -2.25044 4.83933 0
M  V30 19246 O 1825.62 -3.45327 4.53988 0
M  V30 19247 O 1824.55 -1.90642 5.70911 0
M  V30 19248 H 1828.38 0.0416563 3.03671 0
M  V30 19249 H 1825.96 0.0861809 1.49151 0
M  V30 19250 H 1827.84 -2.36995 3.48442 0
M  V30 19251 H 1826.52 -2.28635 2.29146 0
M  V30 19252 H 1825.42 -0.456323 3.71306 0
M  V30 19253 H 1826.76 -0.619916 4.88281 0
M  V30 19254 N 1828.41 -1.57525 0.0484906 0
M  V30 19255 C 1829.34 -2.14405 -0.924811 0
M  V30 19256 C 1830.32 -1.06503 -1.32631 0
M  V30 19257 O 1831.51 -1.3443 -1.4015 0
M  V30 19258 C 1828.64 -2.68686 -2.20057 0
M  V30 19259 C 1827.59 -3.81547 -1.93922 0
M  V30 19260 C 1826.92 -4.22334 -3.27929 0
M  V30 19261 C 1828.22 -5.06801 -1.26295 0
M  V30 19262 H 1829.91 -2.95983 -0.45105 0
M  V30 19263 H 1827.46 -1.42378 -0.215514 0
M  V30 19264 H 1829.41 -3.07117 -2.88543 0
M  V30 19265 H 1828.13 -1.84296 -2.69634 0
M  V30 19266 H 1826.79 -3.43585 -1.27848 0
M  V30 19267 H 1826.44 -3.34899 -3.75302 0
M  V30 19268 H 1826.14 -4.984 -3.11242 0
M  V30 19269 H 1827.66 -4.63363 -3.97652 0
M  V30 19270 H 1829.08 -5.42695 -1.84812 0
M  V30 19271 H 1827.47 -5.87991 -1.19943 0
M  V30 19272 H 1828.54 -4.84313 -0.238605 0
M  V30 19273 N 1829.89 0.224867 -1.55988 0
M  V30 19274 C 1831.3 0.574415 -1.48905 0
M  V30 19275 C 1831.5 1.87303 -0.74296 0
M  V30 19276 O 1830.56 2.50929 -0.28127 0
M  V30 19277 C 1831.87 0.656717 -2.93441 0
M  V30 19278 C 1833.42 0.747568 -3.03941 0
M  V30 19279 C 1833.9 0.861243 -4.4983 0
M  V30 19280 N 1835.39 0.92555 -4.53859 0
M  V30 19281 C 1836.12 1.03316 -5.64015 0
M  V30 19282 N 1835.62 1.10492 -6.83932 0
M  V30 19283 N 1837.41 1.06804 -5.5186 0
M  V30 19284 H 1829.56 -0.627339 -2.02924 0
M  V30 19285 H 1831.82 -0.219656 -0.922201 0
M  V30 19286 H 1831.53 -0.227845 -3.50961 0
M  V30 19287 H 1831.4 1.52142 -3.45156 0
M  V30 19288 H 1833.79 1.62257 -2.46489 0
M  V30 19289 H 1833.87 -0.142737 -2.55401 0
M  V30 19290 H 1833.52 -0.00929123 -5.07899 0
M  V30 19291 H 1833.45 1.76692 -4.96072 0
M  V30 19292 H 1835.94 0.880541 -3.67498 0
M  V30 19293 H 1836.25 1.18672 -7.63634 0
M  V30 19294 H 1834.6 1.07411 -6.8665 0
M  V30 19295 H 1837.79 1.0086 -4.57105 0
M  V30 19296 H 1837.96 1.14845 -6.37742 0
M  V30 19297 N 1831.37 1.49742 0.491438 0
M  V30 19298 C 1832.32 1.63507 1.58901 0
M  V30 19299 C 1833.3 0.490352 1.53246 0
M  V30 19300 O 1834.49 0.74378 1.60614 0
M  V30 19301 C 1831.62 1.71377 2.97464 0
M  V30 19302 C 1830.71 2.91458 3.08079 0
M  V30 19303 N 1831.1 4.15412 2.88559 0
M  V30 19304 C 1829.4 2.89594 3.39192 0
M  V30 19305 C 1830.1 4.96183 3.03608 0
M  V30 19306 N 1829.07 4.29735 3.3291 0
M  V30 19307 H 1832.87 2.57055 1.42478 0
M  V30 19308 H 1830.39 1.46646 0.697765 0
M  V30 19309 H 1832.39 1.79338 3.76355 0
M  V30 19310 H 1831.05 0.789729 3.1495 0
M  V30 19311 H 1832.06 4.45239 2.64543 0
M  V30 19312 H 1828.73 2.06607 3.62794 0
M  V30 19313 H 1830.12 6.04684 2.92927 0
M  V30 19314 N 1832.84 -0.743177 1.38977 0
M  V30 19315 C 1833.79 -1.87846 1.37174 0
M  V30 19316 C 1834.79 -1.67454 0.256059 0
M  V30 19317 O 1835.99 -1.74895 0.425658 0
M  V30 19318 H 1832.37 -0.618206 0.428166 0
M  V30 19319 H 1834.34 -1.86483 2.32952 0
M  V30 19320 C 1833.09 -3.25443 1.22401 0
M  V30 19321 H 1832.41 -3.41727 2.07516 0
M  V30 19322 H 1833.85 -4.05095 1.25195 0
M  V30 19323 C 1832.31 -3.36831 -0.0682569 0
M  V30 19324 O 1832.84 -3.87964 -1.04147 0
M  V30 19325 N 1831.05 -2.90315 -0.128582 0
M  V30 19326 H 1830.59 -2.48893 0.664077 0
M  V30 19327 H 1830.55 -2.98315 -0.992762 0
M  V30 19328 N 1834.32 -1.24018 -0.972487 0
M  V30 19329 C 1835.25 -0.986185 -2.06899 0
M  V30 19330 C 1836.27 0.0426574 -1.62744 0
M  V30 19331 O 1837.46 -0.193816 -1.77445 0
M  V30 19332 C 1834.56 -0.46551 -3.35688 0
M  V30 19333 C 1833.73 -1.55637 -4.08774 0
M  V30 19334 C 1832.79 -1.03918 -5.15837 0
M  V30 19335 O 1831.81 -1.72986 -5.42277 0
M  V30 19336 N 1833.02 0.128891 -5.80357 0
M  V30 19337 H 1835.78 -1.93025 -2.29263 0
M  V30 19338 H 1833.34 -1.14983 -1.13976 0
M  V30 19339 H 1835.33 -0.104379 -4.04565 0
M  V30 19340 H 1833.9 0.384166 -3.1023 0
M  V30 19341 H 1833.12 -2.08991 -3.3424 0
M  V30 19342 H 1834.41 -2.28973 -4.54366 0
M  V30 19343 H 1833.81 0.706438 -5.61272 0
M  V30 19344 H 1832.37 0.431211 -6.50372 0
M  V30 19345 N 1835.8 1.17245 -1.05316 0
M  V30 19346 C 1837.05 1.87813 -0.765112 0
M  V30 19347 C 1837.38 1.80907 0.706147 0
M  V30 19348 O 1836.65 1.21793 1.51647 0
M  V30 19349 C 1836.94 3.3779 -1.24779 0
M  V30 19350 C 1836.79 3.53441 -2.78208 0
M  V30 19351 C 1838.11 4.31857 -0.847805 0
M  V30 19352 H 1835.23 0.681979 -0.279415 0
M  V30 19353 H 1837.87 1.37869 -1.30737 0
M  V30 19354 H 1836.02 3.80456 -0.786487 0
M  V30 19355 H 1837.69 3.19782 -3.32472 0
M  V30 19356 H 1835.94 2.95678 -3.17423 0
M  V30 19357 H 1836.61 4.58725 -3.07043 0
M  V30 19358 H 1839.08 3.97039 -1.24496 0
M  V30 19359 H 1837.96 5.35326 -1.21313 0
M  V30 19360 H 1838.22 4.41403 0.248104 0
M  V30 19361 N 1837.28 0.834353 1.33702 0
M  V30 19362 C 1838.19 0.266649 2.3308 0
M  V30 19363 C 1839.2 -0.604958 1.63145 0
M  V30 19364 O 1840.38 -0.510151 1.94832 0
M  V30 19365 C 1837.45 -0.552673 3.42267 0
M  V30 19366 C 1836.51 0.342677 4.2793 0
M  V30 19367 C 1835.74 -0.437637 5.31903 0
M  V30 19368 O 1835.96 -1.6698 5.45412 0
M  V30 19369 O 1834.9 0.186001 6.01613 0
M  V30 19370 H 1838.72 1.08946 2.83486 0
M  V30 19371 H 1836.31 0.596765 1.36964 0
M  V30 19372 H 1838.19 -1.01842 4.08908 0
M  V30 19373 H 1836.86 -1.35263 2.94085 0
M  V30 19374 H 1835.77 0.856168 3.64171 0
M  V30 19375 H 1837.1 1.10728 4.79583 0
M  V30 19376 N 1838.76 -1.46125 0.590367 0
M  V30 19377 C 1839.98 -2.07234 0.0828625 0
M  V30 19378 C 1840.41 -1.43498 -1.21614 0
M  V30 19379 O 1839.76 -0.521488 -1.73638 0
M  V30 19380 C 1839.81 -3.60548 -0.0614302 0
M  V30 19381 O 1838.92 -3.97012 -1.11603 0
M  V30 19382 H 1838.26 -0.660685 0.0662654 0
M  V30 19383 H 1840.79 -1.87646 0.815486 0
M  V30 19384 H 1840.8 -4.07137 -0.265161 0
M  V30 19385 H 1839.47 -4.06328 0.887164 0
M  V30 19386 H 1838.05 -3.6212 -0.890146 0
M  V30 19387 N 1840.23 -0.328564 -1.54137 0
M  V30 19388 C 1841.48 0.273427 -1.99838 0
M  V30 19389 C 1841.8 1.52851 -1.22049 0
M  V30 19390 O 1843 2.20681 -1.58152 0
M  V30 19391 C 1841.46 0.537757 -3.5586 0
M  V30 19392 C 1841.07 -0.700562 -4.42489 0
M  V30 19393 C 1842.81 1.09943 -4.10016 0
M  V30 19394 C 1840.72 -0.40786 -5.89992 0
M  V30 19395 H 1839.65 0.105947 -0.746519 0
M  V30 19396 H 1842.3 -0.441565 -1.78108 0
M  V30 19397 H 1840.68 1.31307 -3.73597 0
M  V30 19398 H 1841.85 -1.47583 -4.36527 0
M  V30 19399 H 1840.17 -1.1828 -3.99248 0
M  V30 19400 H 1842.77 1.33312 -5.17815 0
M  V30 19401 H 1843.11 2.05035 -3.62307 0
M  V30 19402 H 1843.64 0.385182 -3.95931 0
M  V30 19403 H 1840.38 -1.32809 -6.41905 0
M  V30 19404 H 1839.9 0.329604 -5.98894 0
M  V30 19405 H 1841.58 -0.0195391 -6.46997 0
M  V30 19406 N 1841.71 1.57497 -0.0568439 0
M  V30 19407 C 1842.96 1.92914 0.615668 0
M  V30 19408 C 1843.29 0.935677 1.70515 0
M  V30 19409 O 1842.54 -0.0511255 1.95633 0
M  V30 19410 C 1842.84 3.35 1.24538 0
M  V30 19411 C 1842.51 4.50008 0.283536 0
M  V30 19412 C 1841.17 4.81196 0.0188809 0
M  V30 19413 C 1843.52 5.19847 -0.375336 0
M  V30 19414 C 1840.85 5.79569 -0.911986 0
M  V30 19415 C 1843.2 6.19215 -1.29443 0
M  V30 19416 C 1841.87 6.48829 -1.5677 0
M  V30 19417 H 1841.14 0.705922 0.225289 0
M  V30 19418 H 1843.78 1.91095 -0.124533 0
M  V30 19419 H 1842.09 3.33213 2.06098 0
M  V30 19420 H 1843.78 3.59686 1.77277 0
M  V30 19421 H 1840.37 4.25674 0.499994 0
M  V30 19422 H 1844.56 4.95959 -0.183967 0
M  V30 19423 H 1839.81 6.00846 -1.13112 0
M  V30 19424 H 1843.99 6.7244 -1.811 0
M  V30 19425 H 1841.62 7.24868 -2.29063 0
M  V30 19426 N 1843.19 -0.216591 1.56105 0
M  V30 19427 C 1844.12 -1.27155 1.95841 0
M  V30 19428 C 1845.1 -1.48626 0.827313 0
M  V30 19429 O 1846.29 -1.60725 1.09 0
M  V30 19430 C 1843.42 -2.62032 2.27939 0
M  V30 19431 C 1842.37 -2.55211 3.43586 0
M  V30 19432 C 1841.7 -3.94163 3.61303 0
M  V30 19433 C 1843 -2.09566 4.78413 0
M  V30 19434 H 1844.69 -0.941435 2.84214 0
M  V30 19435 H 1842.24 -0.451427 1.36741 0
M  V30 19436 H 1844.19 -3.35997 2.5433 0
M  V30 19437 H 1842.91 -2.96742 1.36426 0
M  V30 19438 H 1841.57 -1.83703 3.17252 0
M  V30 19439 H 1841.22 -4.26188 2.67156 0
M  V30 19440 H 1840.92 -3.90479 4.3909 0
M  V30 19441 H 1842.44 -4.69782 3.90047 0
M  V30 19442 H 1843.86 -2.73277 5.03977 0
M  V30 19443 H 1842.26 -2.16931 5.59518 0
M  V30 19444 H 1843.33 -1.0481 4.73437 0
M  V30 19445 N 1844.67 -1.5 -0.48349 0
M  V30 19446 C 1845.89 -1.64376 -1.26473 0
M  V30 19447 C 1846.32 -0.321912 -1.85325 0
M  V30 19448 O 1845.68 0.712714 -1.66704 0
M  V30 19449 C 1845.72 -2.72803 -2.35819 0
M  V30 19450 O 1844.83 -2.33194 -3.40139 0
M  V30 19451 H 1844.17 -0.549589 -0.372624 0
M  V30 19452 H 1846.7 -1.963 -0.57684 0
M  V30 19453 H 1846.71 -2.95505 -2.8132 0
M  V30 19454 H 1845.38 -3.68745 -1.92353 0
M  V30 19455 H 1843.96 -2.20891 -3.00436 0
M  V30 19456 N 1846.15 0.735796 -1.39369 0
M  V30 19457 C 1847.11 1.83148 -1.37802 0
M  V30 19458 C 1848.11 1.58426 -0.27528 0
M  V30 19459 O 1849.3 1.65841 -0.53314 0
M  V30 19460 C 1846.43 3.20923 -1.14984 0
M  V30 19461 H 1847.62 1.85941 -2.353 0
M  V30 19462 H 1845.18 0.939367 -1.24922 0
M  V30 19463 H 1845.91 3.23791 -0.181648 0
M  V30 19464 H 1845.7 3.40264 -1.94841 0
M  V30 19465 H 1847.19 4.00984 -1.16626 0
M  V30 19466 N 1847.63 1.24532 0.965897 0
M  V30 19467 C 1848.87 1.0801 1.70343 0
M  V30 19468 C 1849.19 -0.380738 1.91859 0
M  V30 19469 O 1850.39 -0.666181 2.632 0
M  V30 19470 C 1848.85 1.88452 3.06617 0
M  V30 19471 C 1848.46 3.38957 2.92937 0
M  V30 19472 C 1850.2 1.80465 3.8423 0
M  V30 19473 C 1848.11 4.11736 4.24532 0
M  V30 19474 H 1847.04 0.400577 0.638791 0
M  V30 19475 H 1849.69 1.48629 1.07618 0
M  V30 19476 H 1848.07 1.40648 3.70181 0
M  V30 19477 H 1849.25 3.94353 2.38374 0
M  V30 19478 H 1847.56 3.47915 2.28788 0
M  V30 19479 H 1850.16 2.32142 4.81679 0
M  V30 19480 H 1850.5 0.770262 4.09112 0
M  V30 19481 H 1851.03 2.25958 3.27395 0
M  V30 19482 H 1847.77 5.15541 4.04842 0
M  V30 19483 H 1847.29 3.61125 4.78904 0
M  V30 19484 H 1848.97 4.18833 4.93141 0
M  V30 19485 N 1849.1 -1.16685 1.05936 0
M  V30 19486 C 1850.38 -1.8312 0.6875 0
M  V30 19487 C 1850.76 -1.94035 -0.831474 0
M  V30 19488 O 1850.11 -1.48067 -1.74036 0
M  V30 19489 C 1850.32 -3.20331 1.38524 0
M  V30 19490 C 1851.67 -3.96149 1.52811 0
M  V30 19491 O 1852.69 -3.29837 1.34485 0
M  V30 19492 O 1851.55 -5.15005 1.82845 0
M  V30 19493 H 1848.64 -0.790513 0.242937 0
M  V30 19494 H 1851.19 -1.23918 1.15941 0
M  V30 19495 H 1849.96 -3.074 2.42118 0
M  V30 19496 H 1849.58 -3.87206 0.903164 0
M  V30 19497 N 1850.58 -0.841432 -1.33258 0
M  V30 19498 C 1851.51 -0.221485 -2.27123 0
M  V30 19499 C 1852.49 0.632879 -1.49778 0
M  V30 19500 O 1853.68 0.592581 -1.78943 0
M  V30 19501 C 1850.8 0.688784 -3.31622 0
M  V30 19502 C 1849.85 -0.0904563 -4.26404 0
M  V30 19503 S 1850.68 -1.45006 -5.15493 0
M  V30 19504 C 1851.84 -0.545159 -6.23521 0
M  V30 19505 H 1852.07 -1.01723 -2.79356 0
M  V30 19506 H 1849.6 -0.638326 -1.40587 0
M  V30 19507 H 1851.56 1.20836 -3.92312 0
M  V30 19508 H 1850.22 1.45821 -2.78199 0
M  V30 19509 H 1849.42 0.602296 -5.00388 0
M  V30 19510 H 1849.02 -0.541181 -3.70064 0
M  V30 19511 H 1851.31 0.255962 -6.77016 0
M  V30 19512 H 1852.25 -1.25524 -6.96885 0
M  V30 19513 H 1852.66 -0.125368 -5.64361 0
M  V30 19514 N 1852.06 1.4581 -0.598108 0
M  V30 19515 C 1853.29 2.06379 -0.0955533 0
M  V30 19516 C 1853.7 1.44497 1.22137 0
M  V30 19517 O 1853.04 0.549997 1.75273 0
M  V30 19518 C 1853.1 3.59271 0.128433 0
M  V30 19519 C 1852.77 4.43434 -1.10523 0
M  V30 19520 C 1853.76 4.79008 -2.02107 0
M  V30 19521 C 1851.45 4.84334 -1.3314 0
M  V30 19522 C 1853.44 5.54326 -3.14644 0
M  V30 19523 C 1851.13 5.59408 -2.45979 0
M  V30 19524 C 1852.13 5.9432 -3.3656 0
M  V30 19525 O 1851.82 6.67874 -4.47437 0
M  V30 19526 H 1851.55 0.673187 -0.0616108 0
M  V30 19527 H 1854.1 1.88191 -0.823012 0
M  V30 19528 H 1852.33 3.75824 0.910679 0
M  V30 19529 H 1854.02 4.01714 0.581406 0
M  V30 19530 H 1854.79 4.47976 -1.85856 0
M  V30 19531 H 1850.67 4.566 -0.635381 0
M  V30 19532 H 1854.21 5.81495 -3.8537 0
M  V30 19533 H 1850.11 5.89854 -2.62187 0
M  V30 19534 H 1850.87 6.86314 -4.45999 0
M  V30 19535 N 1853.54 0.336733 1.53961 0
M  V30 19536 C 1854.79 -0.261343 2.00403 0
M  V30 19537 C 1855.11 -1.51612 1.22633 0
M  V30 19538 O 1854.38 -1.93072 0.331659 0
M  V30 19539 H 1852.96 -0.0995594 0.740336 0
M  V30 19540 H 1855.62 0.456319 1.89483 0
M  V30 19541 H 1854.71 -0.508557 3.07929 0
M  V30 19542 N 1855.02 -1.57465 0.0651956 0
M  V30 19543 C 1855.97 -2.08865 -0.914306 0
M  V30 19544 C 1856.95 -0.996864 -1.26299 0
M  V30 19545 O 1858.14 -1.26003 -1.24307 0
M  V30 19546 C 1855.27 -2.64852 -2.18423 0
M  V30 19547 C 1854.36 -3.81023 -1.86231 0
M  V30 19548 N 1854.75 -4.90248 -1.24461 0
M  V30 19549 C 1853.05 -3.90194 -2.1602 0
M  V30 19550 C 1853.75 -5.71164 -1.10214 0
M  V30 19551 N 1852.72 -5.19221 -1.60967 0
M  V30 19552 H 1856.52 -2.90704 -0.432282 0
M  V30 19553 H 1854.04 -1.61805 -0.138878 0
M  V30 19554 H 1856.04 -2.99987 -2.89506 0
M  V30 19555 H 1854.7 -1.84457 -2.67219 0
M  V30 19556 H 1855.71 -5.09752 -0.915067 0
M  V30 19557 H 1852.38 -3.20764 -2.67239 0
M  V30 19558 H 1853.77 -6.6902 -0.621427 0
M  V30 19559 N 1856.49 0.20831 -1.56217 0
M  V30 19560 C 1857.43 1.28196 -1.89996 0
M  V30 19561 C 1858.44 1.42381 -0.789394 0
M  V30 19562 O 1859.63 1.43043 -1.06776 0
M  V30 19563 C 1856.73 2.65588 -2.10514 0
M  V30 19564 C 1855.9 2.73181 -3.416 0
M  V30 19565 C 1854.96 3.91678 -3.5139 0
M  V30 19566 O 1853.99 3.79397 -4.24319 0
M  V30 19567 N 1855.19 5.06562 -2.83505 0
M  V30 19568 H 1857.95 0.995403 -2.82687 0
M  V30 19569 H 1855.51 0.398294 -1.56924 0
M  V30 19570 H 1857.51 3.43264 -2.14365 0
M  V30 19571 H 1856.08 2.86788 -1.24385 0
M  V30 19572 H 1855.3 1.81881 -3.49733 0
M  V30 19573 H 1856.58 2.75234 -4.27929 0
M  V30 19574 H 1855.98 5.19437 -2.24056 0
M  V30 19575 H 1854.54 5.82232 -2.93 0
M  V30 19576 N 1857.97 1.50255 0.475528 0
M  V30 19577 C 1859.22 1.61022 1.22793 0
M  V30 19578 C 1859.55 0.308508 1.92038 0
M  V30 19579 O 1858.8 -0.70533 1.82547 0
M  V30 19580 C 1859.1 2.73698 2.29835 0
M  V30 19581 C 1858.77 4.14333 1.77873 0
M  V30 19582 C 1857.43 4.526 1.63423 0
M  V30 19583 C 1859.78 5.02247 1.39275 0
M  V30 19584 C 1857.11 5.76525 1.08791 0
M  V30 19585 C 1859.46 6.26715 0.860869 0
M  V30 19586 C 1858.12 6.63788 0.702959 0
M  V30 19587 H 1857.39 0.589221 0.449332 0
M  V30 19588 H 1860.04 1.84173 0.524633 0
M  V30 19589 H 1858.35 2.44617 3.06055 0
M  V30 19590 H 1860.04 2.79233 2.87802 0
M  V30 19591 H 1856.63 3.84142 1.90087 0
M  V30 19592 H 1860.82 4.73319 1.49276 0
M  V30 19593 H 1856.07 6.03927 0.952987 0
M  V30 19594 H 1860.25 6.942 0.553109 0
M  V30 19595 H 1857.87 7.59693 0.277471 0
M  V30 19596 N 1859.45 -0.728395 1.39758 0
M  V30 19597 C 1860.69 -1.50065 1.38779 0
M  V30 19598 C 1861.05 -1.91994 -0.0146977 0
M  V30 19599 O 1862.25 -2.68384 -0.149524 0
M  V30 19600 C 1860.53 -2.70258 2.33871 0
M  V30 19601 S 1862.08 -3.59826 2.51139 0
M  V30 19602 H 1858.9 -0.513225 0.492058 0
M  V30 19603 H 1861.5 -0.852912 1.75914 0
M  V30 19604 H 1860.21 -2.37605 3.34622 0
M  V30 19605 H 1859.74 -3.39955 1.97975 0
M  V30 19606 H 1861.75 -4.64157 1.75423 0
M  V30 19607 N 1860.93 -1.25042 -0.959279 0
M  V30 19608 C 1862.34 -1.08692 -1.51799 0
M  V30 19609 C 1862.69 0.338893 -1.93251 0
M  V30 19610 O 1861.81 1.22831 -1.78162 0
M  V30 19611 C 1862.41 -1.9669 -2.7586 0
M  V30 19612 C 1860.97 -1.84538 -3.28059 0
M  V30 19613 C 1860.12 -1.91119 -2.0092 0
M  V30 19614 H 1863.07 -1.38396 -0.776669 0
M  V30 19615 H 1863.09 -1.50414 -3.49508 0
M  V30 19616 H 1862.6 -3.00455 -2.45659 0
M  V30 19617 H 1860.7 -0.836383 -3.63091 0
M  V30 19618 H 1860.81 -2.69095 -3.96389 0
M  V30 19619 H 1859.18 -1.34948 -2.16012 0
M  V30 19620 H 1859.96 -2.9648 -1.73074 0
M  V30 19621 N 1862.41 1.16121 -1.06553 0
M  V30 19622 C 1863.32 2.24229 -0.689833 0
M  V30 19623 C 1864.33 1.71476 0.295308 0
M  V30 19624 O 1865.51 2.00885 0.143964 0
M  V30 19625 C 1862.57 3.46596 -0.0847857 0
M  V30 19626 C 1861.63 4.14375 -1.12213 0
M  V30 19627 C 1860.87 5.30901 -0.54586 0
M  V30 19628 O 1861.09 5.66792 0.640588 0
M  V30 19629 O 1860.02 5.87983 -1.28683 0
M  V30 19630 H 1863.85 2.5868 -1.59117 0
M  V30 19631 H 1861.44 1.23687 -0.837966 0
M  V30 19632 H 1863.32 4.20653 0.250764 0
M  V30 19633 H 1861.99 3.13912 0.789998 0
M  V30 19634 H 1860.9 3.42276 -1.5099 0
M  V30 19635 H 1862.23 4.5112 -1.96853 0
M  V30 19636 N 1863.88 0.848487 1.3281 0
M  V30 19637 C 1864.83 0.277328 2.30941 0
M  V30 19638 C 1865.83 -0.595938 1.58572 0
M  V30 19639 O 1867.03 -0.484428 1.73359 0
M  V30 19640 H 1863.41 0.0709686 0.748644 0
M  V30 19641 H 1865.38 1.11932 2.76611 0
M  V30 19642 C 1864.13 -0.524705 3.43718 0
M  V30 19643 H 1863.45 0.137959 3.99562 0
M  V30 19644 H 1864.89 -0.890032 4.14553 0
M  V30 19645 C 1863.35 -1.70746 2.90426 0
M  V30 19646 O 1863.88 -2.80641 2.87408 0
M  V30 19647 N 1862.09 -1.5325 2.46907 0
M  V30 19648 H 1861.63 -0.638526 2.49561 0
M  V30 19649 H 1861.59 -2.32532 2.11603 0
M  V30 19650 N 1865.36 -1.4549 0.605832 0
M  V30 19651 C 1866.29 -2.3328 -0.101377 0
M  V30 19652 C 1867.27 -1.46727 -0.860543 0
M  V30 19653 O 1868.46 -1.75501 -0.831441 0
M  V30 19654 C 1865.59 -3.29403 -1.1005 0
M  V30 19655 C 1864.54 -4.25578 -0.45466 0
M  V30 19656 C 1863.87 -5.11379 -1.5619 0
M  V30 19657 C 1865.17 -5.18571 0.623028 0
M  V30 19658 H 1866.86 -2.92661 0.631653 0
M  V30 19659 H 1864.41 -1.40728 0.305208 0
M  V30 19660 H 1866.36 -3.89688 -1.60379 0
M  V30 19661 H 1865.09 -2.68177 -1.8641 0
M  V30 19662 H 1863.74 -3.66589 0.027752 0
M  V30 19663 H 1863.39 -4.46523 -2.31574 0
M  V30 19664 H 1863.09 -5.76528 -1.13529 0
M  V30 19665 H 1864.62 -5.74532 -2.0675 0
M  V30 19666 H 1866.03 -5.72937 0.203881 0
M  V30 19667 H 1864.43 -5.92187 0.971292 0
M  V30 19668 H 1865.5 -4.61106 1.50032 0
M  V30 19669 N 1866.84 -0.344893 -1.5378 0
M  V30 19670 C 1867.79 0.511269 -2.25066 0
M  V30 19671 C 1868.76 1.09446 -1.24944 0
M  V30 19672 O 1869.94 1.13082 -1.53679 0
M  V30 19673 C 1867.08 1.65563 -3.02792 0
M  V30 19674 C 1866.2 1.09962 -4.17771 0
M  V30 19675 C 1865.33 2.21139 -4.82981 0
M  V30 19676 C 1864.37 1.62897 -5.90026 0
M  V30 19677 N 1863.51 2.67822 -6.49011 0
M  V30 19678 H 1868.35 -0.103166 -2.97821 0
M  V30 19679 H 1865.88 -0.0626846 -1.46966 0
M  V30 19680 H 1867.84 2.32936 -3.46117 0
M  V30 19681 H 1866.47 2.24103 -2.32331 0
M  V30 19682 H 1865.52 0.316786 -3.79079 0
M  V30 19683 H 1866.84 0.633622 -4.94759 0
M  V30 19684 H 1865.99 2.96375 -5.29383 0
M  V30 19685 H 1864.73 2.71083 -4.0542 0
M  V30 19686 H 1863.73 0.861672 -5.43006 0
M  V30 19687 H 1864.96 1.13803 -6.69497 0
M  V30 19688 H 1862.9 3.17018 -5.74313 0
M  V30 19689 H 1862.82 2.25848 -7.21477 0
M  V30 19690 H 1864.09 3.42822 -7.00066 0
M  V30 19691 N 1868.32 1.57428 -0.0735454 0
M  V30 19692 C 1869.27 2.12821 0.893071 0
M  V30 19693 C 1870.24 1.04117 1.29418 0
M  V30 19694 O 1871.42 1.31789 1.37972 0
M  V30 19695 C 1868.56 2.69569 2.15468 0
M  V30 19696 C 1867.67 3.92436 1.80605 0
M  V30 19697 C 1866.81 4.37421 3.01391 0
M  V30 19698 C 1865.85 5.52931 2.62553 0
M  V30 19699 N 1864.98 5.92866 3.76104 0
M  V30 19700 H 1869.82 2.95113 0.413823 0
M  V30 19701 H 1867.36 1.45834 0.192613 0
M  V30 19702 H 1869.32 3.0058 2.89323 0
M  V30 19703 H 1867.95 1.9004 2.6093 0
M  V30 19704 H 1867 3.67876 0.968068 0
M  V30 19705 H 1868.31 4.76327 1.48033 0
M  V30 19706 H 1867.47 4.70102 3.83522 0
M  V30 19707 H 1866.21 3.52386 3.37158 0
M  V30 19708 H 1865.21 5.19899 1.78844 0
M  V30 19709 H 1866.44 6.39698 2.27954 0
M  V30 19710 H 1864.38 5.10781 4.11629 0
M  V30 19711 H 1864.3 6.71502 3.47305 0
M  V30 19712 H 1865.57 6.30171 4.58808 0
M  V30 19713 N 1869.8 -0.200022 1.56326 0
M  V30 19714 C 1870.73 -1.25071 1.97179 0
M  V30 19715 C 1871.71 -1.4774 0.84303 0
M  V30 19716 O 1872.89 -1.5956 1.10699 0
M  V30 19717 C 1870.02 -2.596 2.30706 0
M  V30 19718 C 1868.98 -2.51552 3.46274 0
M  V30 19719 C 1868.3 -3.90309 3.65463 0
M  V30 19720 C 1869.6 -2.0448 4.80609 0
M  V30 19721 H 1871.3 -0.911238 2.85196 0
M  V30 19722 H 1868.84 -0.436899 1.37212 0
M  V30 19723 H 1870.8 -3.33281 2.5788 0
M  V30 19724 H 1869.52 -2.95278 1.39565 0
M  V30 19725 H 1868.18 -1.80327 3.19183 0
M  V30 19726 H 1867.83 -4.23331 2.71662 0
M  V30 19727 H 1867.53 -3.858 4.43207 0
M  V30 19728 H 1869.05 -4.65619 3.95008 0
M  V30 19729 H 1870.46 -2.67917 5.06847 0
M  V30 19730 H 1868.86 -2.10985 5.61788 0
M  V30 19731 H 1869.93 -0.997828 4.74522 0
M  V30 19732 N 1871.27 -1.50505 -0.467553 0
M  V30 19733 C 1872.52 -1.60911 -1.21617 0
M  V30 19734 C 1872.84 -0.31663 -1.9302 0
M  V30 19735 O 1874.04 -0.299645 -2.69841 0
M  V30 19736 C 1872.5 -2.84052 -2.21003 0
M  V30 19737 C 1872.11 -4.20189 -1.55386 0
M  V30 19738 C 1873.85 -3.03805 -2.96484 0
M  V30 19739 C 1871.76 -5.34514 -2.5308 0
M  V30 19740 H 1870.69 -0.59924 -0.457633 0
M  V30 19741 H 1873.34 -1.7694 -0.486276 0
M  V30 19742 H 1871.72 -2.6159 -2.97299 0
M  V30 19743 H 1872.89 -4.5292 -0.848552 0
M  V30 19744 H 1871.21 -4.0607 -0.921725 0
M  V30 19745 H 1873.81 -3.86387 -3.69606 0
M  V30 19746 H 1874.15 -2.15672 -3.56078 0
M  V30 19747 H 1874.68 -3.26465 -2.27301 0
M  V30 19748 H 1871.42 -6.24811 -1.9822 0
M  V30 19749 H 1870.94 -5.06197 -3.21752 0
M  V30 19750 H 1872.62 -5.65232 -3.14836 0
M  V30 19751 N 1872.75 0.720973 -1.40142 0
M  V30 19752 C 1873.68 1.84799 -1.42729 0
M  V30 19753 C 1874.66 1.67629 -0.288866 0
M  V30 19754 O 1875.85 1.8774 -0.496713 0
M  V30 19755 C 1872.98 3.22699 -1.28385 0
M  V30 19756 C 1871.93 3.54532 -2.39773 0
M  V30 19757 C 1871.26 4.91518 -2.10509 0
M  V30 19758 C 1872.56 3.56077 -3.82108 0
M  V30 19759 H 1874.25 1.82892 -2.37046 0
M  V30 19760 H 1871.8 0.8785 -1.14098 0
M  V30 19761 H 1873.75 4.0123 -1.28812 0
M  V30 19762 H 1872.48 3.25169 -0.305408 0
M  V30 19763 H 1871.13 2.78338 -2.38586 0
M  V30 19764 H 1870.78 4.90584 -1.11069 0
M  V30 19765 H 1870.48 5.13783 -2.85132 0
M  V30 19766 H 1872.01 5.72389 -2.1261 0
M  V30 19767 H 1873.42 4.24657 -3.85148 0
M  V30 19768 H 1871.82 3.89866 -4.56207 0
M  V30 19769 H 1872.89 2.55576 -4.12079 0
M  V30 19770 N 1874.23 1.25549 0.952634 0
M  V30 19771 C 1875.46 1.13262 1.73743 0
M  V30 19772 C 1875.88 -0.309507 1.85536 0
M  V30 19773 O 1875.24 -1.22422 1.33726 0
M  V30 19774 C 1875.29 1.79395 3.12809 0
M  V30 19775 O 1874.39 1.07496 3.98144 0
M  V30 19776 H 1873.73 0.395314 0.5335 0
M  V30 19777 H 1876.26 1.66151 1.19394 0
M  V30 19778 H 1876.27 1.85761 3.63259 0
M  V30 19779 H 1874.95 2.84316 3.03542 0
M  V30 19780 H 1873.52 1.09025 3.56606 0
M  V30 19781 N 1875.71 -1.15554 1.07168 0
M  V30 19782 C 1876.62 -2.2386 0.701714 0
M  V30 19783 C 1877.63 -1.7163 -0.28621 0
M  V30 19784 O 1878.81 -2.00958 -0.133308 0
M  V30 19785 C 1875.88 -3.46546 0.103165 0
M  V30 19786 C 1874.94 -4.13774 1.14409 0
M  V30 19787 C 1874.17 -5.30604 0.574007 0
M  V30 19788 O 1874.39 -5.67123 -0.610521 0
M  V30 19789 O 1873.33 -5.87293 1.31799 0
M  V30 19790 H 1877.15 -2.57833 1.60487 0
M  V30 19791 H 1874.74 -1.23241 0.844514 0
M  V30 19792 H 1876.62 -4.2078 -0.228452 0
M  V30 19793 H 1875.29 -3.14327 -0.773339 0
M  V30 19794 H 1874.2 -3.4147 1.52803 0
M  V30 19795 H 1875.53 -4.5007 1.99243 0
M  V30 19796 N 1877.19 -0.855519 -1.32358 0
M  V30 19797 C 1878.42 -0.473331 -2.01413 0
M  V30 19798 C 1878.83 0.930206 -1.64294 0
M  V30 19799 O 1878.19 1.60714 -0.864705 0
M  V30 19800 C 1878.24 -0.603815 -3.56422 0
M  V30 19801 O 1877.96 -1.95207 -3.92207 0
M  V30 19802 C 1879.46 -0.220748 -4.4275 0
M  V30 19803 H 1876.68 -0.185962 -0.644716 0
M  V30 19804 H 1879.22 -1.1527 -1.68918 0
M  V30 19805 H 1877.38 0.0278263 -3.8739 0
M  V30 19806 H 1877.79 -1.94946 -4.86925 0
M  V30 19807 H 1879.27 -0.363048 -5.50805 0
M  V30 19808 H 1879.74 0.838881 -4.31114 0
M  V30 19809 H 1880.35 -0.827498 -4.17172 0
M  V30 19810 N 1878.67 1.45167 -0.61354 0
M  V30 19811 C 1879.89 2.06565 -0.117608 0
M  V30 19812 C 1880.31 1.45716 1.20051 0
M  V30 19813 O 1879.67 0.573512 1.73254 0
M  V30 19814 C 1879.72 3.61493 0.0221474 0
M  V30 19815 O 1879.44 4.20072 -1.24383 0
M  V30 19816 C 1880.94 4.39889 0.548841 0
M  V30 19817 H 1878.16 0.667172 -0.0715756 0
M  V30 19818 H 1880.7 1.86318 -0.84296 0
M  V30 19819 H 1878.86 3.81063 0.697854 0
M  V30 19820 H 1879.27 5.13317 -1.07733 0
M  V30 19821 H 1880.75 5.48776 0.595696 0
M  V30 19822 H 1881.22 4.1009 1.57234 0
M  V30 19823 H 1881.83 4.25198 -0.0930203 0
M  V30 19824 N 1880.14 0.353044 1.53595 0
M  V30 19825 C 1881.39 -0.2416 2.00248 0
M  V30 19826 C 1881.71 -1.5089 1.24465 0
M  V30 19827 O 1882.91 -2.18137 1.61643 0
M  V30 19828 C 1881.37 -0.481075 3.5667 0
M  V30 19829 C 1880.98 0.77087 4.41318 0
M  V30 19830 C 1882.72 -1.03406 4.11713 0
M  V30 19831 C 1880.63 0.501671 5.89268 0
M  V30 19832 H 1879.56 -0.0940573 0.74811 0
M  V30 19833 H 1882.21 0.469845 1.77383 0
M  V30 19834 H 1880.59 -1.25346 3.75639 0
M  V30 19835 H 1881.76 1.54509 4.34124 0
M  V30 19836 H 1880.08 1.24617 3.97315 0
M  V30 19837 H 1882.68 -1.25058 5.1987 0
M  V30 19838 H 1883.02 -1.99245 3.65523 0
M  V30 19839 H 1883.55 -0.322144 3.96493 0
M  V30 19840 H 1880.29 1.43005 6.39711 0
M  V30 19841 H 1879.81 -0.234284 5.99342 0
M  V30 19842 H 1881.49 0.122468 6.46884 0
M  V30 19843 N 1881.62 -1.57387 0.0818932 0
M  V30 19844 C 1882.87 -1.93869 -0.584899 0
M  V30 19845 C 1883.2 -0.962686 -1.69005 0
M  V30 19846 O 1882.45 0.0199955 -1.9569 0
M  V30 19847 C 1882.75 -3.36939 -1.19193 0
M  V30 19848 C 1882.42 -4.50402 -0.211908 0
M  V30 19849 C 1881.08 -4.81165 0.0576757 0
M  V30 19850 C 1883.43 -5.19184 0.457992 0
M  V30 19851 C 1880.76 -5.78044 1.00408 0
M  V30 19852 C 1883.11 -6.17077 1.39278 0
M  V30 19853 C 1881.77 -6.46253 1.67073 0
M  V30 19854 H 1881.04 -0.709417 -0.21403 0
M  V30 19855 H 1883.69 -1.90872 0.154919 0
M  V30 19856 H 1882 -3.3645 -2.00771 0
M  V30 19857 H 1883.69 -3.62461 -1.71532 0
M  V30 19858 H 1880.28 -4.26415 -0.43221 0
M  V30 19859 H 1884.47 -4.95603 0.262847 0
M  V30 19860 H 1879.72 -5.9897 1.22656 0
M  V30 19861 H 1883.9 -6.69474 1.91775 0
M  V30 19862 H 1881.52 -7.21132 2.40566 0
M  V30 19863 N 1883.1 0.191729 -1.56429 0
M  V30 19864 C 1884.38 0.937684 -1.71659 0
M  V30 19865 C 1884.76 2.0124 -0.63762 0
M  V30 19866 O 1884.1 2.2579 0.350865 0
M  V30 19867 C 1884.31 1.52104 -3.14111 0
M  V30 19868 C 1885.66 2.00186 -3.74447 0
M  V30 19869 O 1886.69 1.61939 -3.1726 0
M  V30 19870 O 1885.55 2.70576 -4.74817 0
M  V30 19871 H 1882.64 0.439962 -0.700259 0
M  V30 19872 H 1885.19 0.181161 -1.6873 0
M  V30 19873 H 1883.96 0.746526 -3.84113 0
M  V30 19874 H 1883.58 2.3423 -3.21282 0
M  V30 19875 N 1884.58 1.50751 0.459565 0
M  V30 19876 C 1885.82 1.62556 1.21258 0
M  V30 19877 C 1886.16 0.330265 1.91371 0
M  V30 19878 O 1885.43 -0.668955 1.82634 0
M  V30 19879 C 1885.71 2.8138 2.24716 0
M  V30 19880 C 1885.57 4.20823 1.58832 0
M  V30 19881 C 1886.89 2.95744 3.2592 0
M  V30 19882 H 1884.01 0.591628 0.439483 0
M  V30 19883 H 1886.65 1.83172 0.504777 0
M  V30 19884 H 1884.8 2.63933 2.85082 0
M  V30 19885 H 1886.47 4.49888 1.01975 0
M  V30 19886 H 1884.71 4.24548 0.891148 0
M  V30 19887 H 1885.38 4.99915 2.3407 0
M  V30 19888 H 1887.86 3.11754 2.75588 0
M  V30 19889 H 1886.74 3.80488 3.95626 0
M  V30 19890 H 1887 2.06852 3.90723 0
M  V30 19891 N 1886.06 -0.713531 1.40522 0
M  V30 19892 C 1886.99 -1.8404 1.43707 0
M  V30 19893 C 1887.97 -1.67474 0.297751 0
M  V30 19894 O 1889.15 -1.87474 0.506662 0
M  V30 19895 C 1886.28 -3.22014 1.30094 0
M  V30 19896 C 1885.24 -3.53255 2.4165 0
M  V30 19897 C 1884.56 -4.90395 2.13113 0
M  V30 19898 C 1885.86 -3.54045 3.83991 0
M  V30 19899 H 1887.56 -1.81632 2.38013 0
M  V30 19900 H 1885.1 -0.872437 1.14562 0
M  V30 19901 H 1887.05 -4.00541 1.30938 0
M  V30 19902 H 1885.78 -3.25002 0.322648 0
M  V30 19903 H 1884.44 -2.77069 2.40059 0
M  V30 19904 H 1884.09 -4.89988 1.13669 0
M  V30 19905 H 1883.79 -5.12264 2.87853 0
M  V30 19906 H 1885.31 -5.71254 2.15642 0
M  V30 19907 H 1886.72 -4.22609 3.87395 0
M  V30 19908 H 1885.12 -3.87441 4.58268 0
M  V30 19909 H 1886.19 -2.53387 4.13428 0
M  V30 19910 N 1887.53 -1.26053 -0.945962 0
M  V30 19911 C 1888.94 -1.10296 -1.50638 0
M  V30 19912 C 1889.3 0.318377 -1.936 0
M  V30 19913 O 1888.42 1.20934 -1.79454 0
M  V30 19914 C 1889.02 -1.99604 -2.73758 0
M  V30 19915 C 1887.57 -1.88007 -3.26083 0
M  V30 19916 C 1886.72 -1.93239 -1.98882 0
M  V30 19917 H 1889.67 -1.39212 -0.761946 0
M  V30 19918 H 1889.69 -1.54113 -3.47893 0
M  V30 19919 H 1889.21 -3.03044 -2.42459 0
M  V30 19920 H 1887.31 -0.874846 -3.62184 0
M  V30 19921 H 1887.42 -2.73285 -3.93513 0
M  V30 19922 H 1885.78 -1.37231 -2.14568 0
M  V30 19923 H 1886.57 -2.98299 -1.6992 0
M  V30 19924 N 1889.01 1.14984 -1.07779 0
M  V30 19925 C 1890.24 1.89747 -0.824844 0
M  V30 19926 C 1890.65 1.78246 0.622385 0
M  V30 19927 O 1890.01 1.13739 1.42723 0
M  V30 19928 C 1890.06 3.39946 -1.2296 0
M  V30 19929 O 1889.78 3.5112 -2.62005 0
M  V30 19930 C 1891.28 4.31721 -1.00658 0
M  V30 19931 H 1888.5 0.601232 -0.297928 0
M  V30 19932 H 1891.05 1.4566 -1.43539 0
M  V30 19933 H 1889.2 3.81679 -0.663292 0
M  V30 19934 H 1889.62 4.44367 -2.78636 0
M  V30 19935 H 1891.09 5.35507 -1.33925 0
M  V30 19936 H 1891.57 4.39163 0.0568131 0
M  V30 19937 H 1892.17 3.95735 -1.55801 0
M  V30 19938 N 1890.49 0.862526 1.31902 0
M  V30 19939 C 1891.74 0.469775 1.96976 0
M  V30 19940 C 1892.06 -0.976339 1.6822 0
M  V30 19941 O 1891.32 -1.70131 0.967153 0
M  V30 19942 C 1891.62 0.664872 3.51161 0
M  V30 19943 C 1891.28 2.08264 3.99921 0
M  V30 19944 C 1889.95 2.47039 4.12947 0
M  V30 19945 C 1892.3 3.00762 4.25666 0
M  V30 19946 C 1889.63 3.77568 4.49065 0
M  V30 19947 C 1891.98 4.30797 4.63245 0
M  V30 19948 C 1890.64 4.69496 4.74478 0
M  V30 19949 H 1889.91 0.171903 0.720785 0
M  V30 19950 H 1892.56 1.09409 1.57169 0
M  V30 19951 H 1890.86 -0.0426255 3.91777 0
M  V30 19952 H 1892.56 0.340921 3.99548 0
M  V30 19953 H 1889.15 1.77158 3.90273 0
M  V30 19954 H 1893.34 2.72034 4.15104 0
M  V30 19955 H 1888.59 4.07323 4.55958 0
M  V30 19956 H 1892.77 5.02527 4.8212 0
M  V30 19957 H 1890.39 5.70682 5.02221 0
M  V30 19958 N 1891.97 -1.4484 0.62123 0
M  V30 19959 C 1893.22 -2.02133 0.121784 0
M  V30 19960 C 1893.54 -1.48784 -1.25274 0
M  V30 19961 O 1892.8 -0.658116 -1.84302 0
M  V30 19962 C 1893.1 -3.57369 0.0470922 0
M  V30 19963 C 1892.76 -4.2993 1.35908 0
M  V30 19964 C 1891.43 -4.4947 1.71843 0
M  V30 19965 C 1893.78 -4.71295 2.22554 0
M  V30 19966 C 1891.11 -5.07634 2.94151 0
M  V30 19967 C 1893.46 -5.30812 3.44124 0
M  V30 19968 C 1892.12 -5.48573 3.80294 0
M  V30 19969 H 1891.39 -0.739659 0.044564 0
M  V30 19970 H 1894.04 -1.73732 0.805571 0
M  V30 19971 H 1892.34 -3.85127 -0.720022 0
M  V30 19972 H 1894.04 -3.99419 -0.355713 0
M  V30 19973 H 1890.63 -4.15044 1.06941 0
M  V30 19974 H 1894.81 -4.5592 1.96088 0
M  V30 19975 H 1890.07 -5.19572 3.22265 0
M  V30 19976 H 1894.24 -5.61816 4.11504 0
M  V30 19977 H 1891.87 -5.93409 4.75152 0
M  V30 19978 N 1893.45 -0.361184 -1.53405 0
M  V30 19979 C 1894.68 0.23043 -2.05311 0
M  V30 19980 C 1895.08 1.43355 -1.23475 0
M  V30 19981 O 1894.43 1.81745 -0.267304 0
M  V30 19982 C 1894.49 0.692241 -3.52772 0
M  V30 19983 C 1894.15 -0.393597 -4.55302 0
M  V30 19984 C 1895.15 -1.24204 -5.04846 0
M  V30 19985 C 1892.84 -0.55258 -4.99251 0
M  V30 19986 C 1894.83 -2.23485 -5.96936 0
M  V30 19987 C 1892.52 -1.54876 -5.91149 0
M  V30 19988 C 1893.51 -2.38834 -6.39881 0
M  V30 19989 O 1893.2 -3.36753 -7.29967 0
M  V30 19990 H 1892.93 0.0451009 -0.674494 0
M  V30 19991 H 1895.49 -0.516588 -1.98798 0
M  V30 19992 H 1893.72 1.49079 -3.56809 0
M  V30 19993 H 1895.41 1.20637 -3.87559 0
M  V30 19994 H 1896.17 -1.13039 -4.71643 0
M  V30 19995 H 1892.05 0.0911198 -4.6091 0
M  V30 19996 H 1895.6 -2.89053 -6.34897 0
M  V30 19997 H 1891.49 -1.66091 -6.23766 0
M  V30 19998 H 1892.26 -3.32431 -7.47952 0
M  V30 19999 N 1894.92 1.57341 -0.0902386 0
M  V30 20000 C 1895.87 2.10293 0.880961 0
M  V30 20001 C 1896.86 1.01683 1.24697 0
M  V30 20002 O 1898.05 1.27965 1.22286 0
M  V30 20003 C 1895.18 2.68293 2.14182 0
M  V30 20004 C 1894.27 3.83938 1.80146 0
M  V30 20005 N 1894.66 4.92166 1.16646 0
M  V30 20006 C 1892.95 3.93581 2.09785 0
M  V30 20007 C 1893.66 5.72845 1.01113 0
M  V30 20008 N 1892.63 5.21716 1.52686 0
M  V30 20009 H 1896.43 2.91354 0.385979 0
M  V30 20010 H 1893.95 1.62006 0.113118 0
M  V30 20011 H 1895.94 3.04555 2.84697 0
M  V30 20012 H 1894.6 1.88685 2.6425 0
M  V30 20013 H 1895.62 5.11143 0.833854 0
M  V30 20014 H 1892.29 3.24975 2.62102 0
M  V30 20015 H 1893.68 6.69924 0.514913 0
M  V30 20016 N 1896.4 -0.183431 1.56529 0
M  V30 20017 C 1897.37 -1.21097 1.94597 0
M  V30 20018 C 1898.37 -1.37825 0.828305 0
M  V30 20019 O 1899.56 -1.35438 1.09555 0
M  V30 20020 C 1896.69 -2.57826 2.23021 0
M  V30 20021 H 1897.88 -0.885275 2.86536 0
M  V30 20022 H 1895.43 -0.425412 1.50399 0
M  V30 20023 H 1896.17 -2.95431 1.33758 0
M  V30 20024 H 1895.95 -2.47054 3.04478 0
M  V30 20025 H 1897.44 -3.31902 2.53437 0
M  V30 20026 N 1897.88 -1.50992 -0.451564 0
M  V30 20027 C 1898.83 -1.71831 -1.5677 0
M  V30 20028 C 1899.82 -0.584366 -1.59002 0
M  V30 20029 O 1901.03 -0.765385 -1.62917 0
M  V30 20030 H 1897.4 -0.542689 -0.52057 0
M  V30 20031 H 1899.37 -2.6542 -1.36363 0
M  V30 20032 C 1898.12 -1.84752 -2.94554 0
M  V30 20033 H 1897.45 -2.71405 -2.93563 0
M  V30 20034 H 1898.89 -2.0335 -3.72055 0
M  V30 20035 C 1897.35 -0.603808 -3.31445 0
M  V30 20036 O 1897.88 0.248099 -4.00933 0
M  V30 20037 N 1896.08 -0.452069 -2.87062 0
M  V30 20038 H 1895.63 -1.14638 -2.30686 0
M  V30 20039 H 1895.59 0.378877 -3.12109 0
M  V30 20040 N 1899.36 0.706069 -1.40899 0
M  V30 20041 C 1900.31 1.82011 -1.41918 0
M  V30 20042 C 1901.28 1.6381 -0.274879 0
M  V30 20043 O 1902.46 1.84809 -0.474366 0
M  V30 20044 C 1899.6 3.19805 -1.29687 0
M  V30 20045 C 1898.71 3.49512 -2.53901 0
M  V30 20046 C 1897.85 4.76863 -2.34041 0
M  V30 20047 C 1896.89 4.99504 -3.53783 0
M  V30 20048 N 1896.02 6.18074 -3.33059 0
M  V30 20049 H 1900.86 1.80474 -2.37135 0
M  V30 20050 H 1898.4 0.881471 -1.17765 0
M  V30 20051 H 1900.36 3.99389 -1.206 0
M  V30 20052 H 1898.99 3.20546 -0.380837 0
M  V30 20053 H 1898.04 2.64411 -2.73479 0
M  V30 20054 H 1899.35 3.62147 -3.43002 0
M  V30 20055 H 1898.51 5.64482 -2.22361 0
M  V30 20056 H 1897.25 4.66454 -1.42379 0
M  V30 20057 H 1896.25 4.10336 -3.65929 0
M  V30 20058 H 1897.48 5.11779 -4.46385 0
M  V30 20059 H 1895.42 6.08898 -2.44088 0
M  V30 20060 H 1895.34 6.3143 -4.15731 0
M  V30 20061 H 1896.61 7.08456 -3.25131 0
M  V30 20062 N 1900.84 1.26553 0.939264 0
M  V30 20063 C 1902.08 1.12376 1.68818 0
M  V30 20064 C 1902.42 -0.331784 1.91345 0
M  V30 20065 O 1901.69 -1.24359 1.4955 0
M  V30 20066 C 1901.97 1.89541 3.0618 0
M  V30 20067 C 1901.83 3.43014 2.90966 0
M  V30 20068 C 1903.15 1.69074 4.06327 0
M  V30 20069 H 1900.26 0.409616 0.612686 0
M  V30 20070 H 1902.91 1.55571 1.09076 0
M  V30 20071 H 1901.06 1.5283 3.57177 0
M  V30 20072 H 1902.73 3.89489 2.47176 0
M  V30 20073 H 1900.97 3.69942 2.26551 0
M  V30 20074 H 1901.64 3.92236 3.88401 0
M  V30 20075 H 1904.12 2.01061 3.64299 0
M  V30 20076 H 1902.99 2.25478 5.00451 0
M  V30 20077 H 1903.26 0.635787 4.37504 0
M  V30 20078 N 1902.31 -1.14411 1.08387 0
M  V30 20079 C 1903.56 -1.85719 0.814638 0
M  V30 20080 C 1903.89 -1.82715 -0.657934 0
M  V30 20081 O 1903.17 -1.2577 -1.48365 0
M  V30 20082 C 1903.45 -3.34363 1.33691 0
M  V30 20083 C 1903.3 -3.4594 2.87481 0
M  V30 20084 C 1904.62 -4.29457 0.962006 0
M  V30 20085 H 1901.74 -0.674332 0.297399 0
M  V30 20086 H 1904.38 -1.34354 1.34346 0
M  V30 20087 H 1902.53 -3.78237 0.887082 0
M  V30 20088 H 1904.21 -3.10854 3.40833 0
M  V30 20089 H 1902.45 -2.87158 3.25151 0
M  V30 20090 H 1903.12 -4.50423 3.19097 0
M  V30 20091 H 1905.6 -3.93599 1.34979 0
M  V30 20092 H 1904.47 -5.31922 1.35464 0
M  V30 20093 H 1904.73 -4.41906 -0.130987 0
M  V30 20094 N 1903.79 -0.869509 -1.31443 0
M  V30 20095 C 1905.03 -0.486705 -1.98521 0
M  V30 20096 C 1905.4 0.943287 -1.67231 0
M  V30 20097 O 1906.6 1.43142 -2.27517 0
M  V30 20098 C 1904.87 -0.736028 -3.49739 0
M  V30 20099 S 1906.43 -0.453014 -4.36455 0
M  V30 20100 H 1903.25 -0.181701 -0.687391 0
M  V30 20101 H 1905.85 -1.12544 -1.59857 0
M  V30 20102 H 1904.55 -1.77557 -3.70002 0
M  V30 20103 H 1904.08 -0.0842742 -3.9331 0
M  V30 20104 H 1906.1 0.714891 -4.91023 0
M  V30 20105 N 1905.27 1.44508 -0.628902 0
M  V30 20106 C 1906.2 2.27848 0.126632 0
M  V30 20107 C 1907.18 1.38406 0.85338 0
M  V30 20108 O 1908.37 1.67845 0.857923 0
M  V30 20109 C 1905.49 3.17283 1.18529 0
M  V30 20110 C 1904.54 4.22817 0.559317 0
M  V30 20111 S 1905.37 5.31554 -0.648926 0
M  V30 20112 C 1906.53 6.24557 0.409797 0
M  V30 20113 H 1906.76 2.9158 -0.580384 0
M  V30 20114 H 1904.29 1.48662 -0.417009 0
M  V30 20115 H 1906.25 3.69362 1.79115 0
M  V30 20116 H 1904.91 2.52776 1.86449 0
M  V30 20117 H 1904.11 4.854 1.35656 0
M  V30 20118 H 1903.71 3.73989 0.0281246 0
M  V30 20119 H 1906 6.65241 1.28298 0
M  V30 20120 H 1906.94 7.0787 -0.180404 0
M  V30 20121 H 1907.35 5.59699 0.734695 0
M  V30 20122 N 1906.75 0.369315 1.53212 0
M  V30 20123 C 1907.71 -0.463128 2.24472 0
M  V30 20124 C 1908.71 -1.00667 1.2539 0
M  V30 20125 O 1909.9 -0.891832 1.4964 0
M  V30 20126 C 1907.03 -1.6477 2.98435 0
M  V30 20127 H 1908.23 0.160479 2.9947 0
M  V30 20128 H 1905.78 0.121068 1.5583 0
M  V30 20129 H 1906.52 -2.30929 2.27689 0
M  V30 20130 H 1906.3 -1.26487 3.71138 0
M  V30 20131 H 1907.79 -2.23753 3.52596 0
M  V30 20132 N 1908.23 -1.57291 0.0985816 0
M  V30 20133 C 1909.45 -1.99242 -0.575966 0
M  V30 20134 C 1909.88 -0.977378 -1.60714 0
M  V30 20135 O 1909.24 0.053677 -1.81221 0
M  V30 20136 C 1909.28 -3.40148 -1.19714 0
M  V30 20137 O 1908.39 -3.41434 -2.31293 0
M  V30 20138 H 1907.73 -0.647791 -0.145816 0
M  V30 20139 H 1910.26 -2.03798 0.181023 0
M  V30 20140 H 1910.27 -3.77918 -1.5376 0
M  V30 20141 H 1908.94 -4.13548 -0.441714 0
M  V30 20142 H 1907.52 -3.15464 -1.98839 0
M  V30 20143 N 1909.71 0.175127 -1.56624 0
M  V30 20144 C 1910.64 1.21918 -1.99144 0
M  V30 20145 C 1911.62 1.4638 -0.866428 0
M  V30 20146 O 1912.8 1.57779 -1.13223 0
M  V30 20147 C 1909.93 2.55897 -2.34807 0
M  V30 20148 C 1908.89 2.46011 -3.50232 0
M  V30 20149 C 1908.21 3.84445 -3.71626 0
M  V30 20150 C 1909.51 1.96808 -4.83801 0
M  V30 20151 H 1911.21 0.86575 -2.8661 0
M  V30 20152 H 1908.75 0.415014 -1.3789 0
M  V30 20153 H 1910.7 3.29136 -2.63149 0
M  V30 20154 H 1909.43 2.9302 -1.44245 0
M  V30 20155 H 1908.09 1.75227 -3.22011 0
M  V30 20156 H 1907.74 4.18955 -2.78362 0
M  V30 20157 H 1907.44 3.787 -4.49288 0
M  V30 20158 H 1908.96 4.59276 -4.02366 0
M  V30 20159 H 1910.37 2.59819 -5.11045 0
M  V30 20160 H 1908.77 2.0202 -5.65073 0
M  V30 20161 H 1909.84 0.922209 -4.7605 0
M  V30 20162 N 1911.18 1.5123 0.44355 0
M  V30 20163 C 1912.09 1.74928 1.56324 0
M  V30 20164 C 1913.11 0.633267 1.62067 0
M  V30 20165 O 1914.29 0.914808 1.79425 0
M  V30 20166 C 1911.35 1.86361 2.92354 0
M  V30 20167 C 1910.41 3.10196 2.96778 0
M  V30 20168 C 1909.64 3.21073 4.26319 0
M  V30 20169 O 1909.87 2.38043 5.18355 0
M  V30 20170 O 1908.8 4.14008 4.369 0
M  V30 20171 H 1912.63 2.69898 1.39243 0
M  V30 20172 H 1910.21 1.35656 0.62592 0
M  V30 20173 H 1912.09 1.95901 3.73096 0
M  V30 20174 H 1910.77 0.945775 3.09575 0
M  V30 20175 H 1909.68 3.06138 2.15013 0
M  V30 20176 H 1911.01 4.01648 2.84499 0
M  V30 20177 N 1912.66 -0.698586 1.41271 0
M  V30 20178 C 1913.91 -1.46077 1.40674 0
M  V30 20179 C 1914.24 -1.94194 0.0146774 0
M  V30 20180 O 1913.52 -1.69325 -0.957036 0
M  V30 20181 C 1913.8 -2.67481 2.41093 0
M  V30 20182 C 1913.65 -2.25149 3.89394 0
M  V30 20183 C 1914.97 -3.69673 2.38809 0
M  V30 20184 H 1912.09 -0.529839 0.512288 0
M  V30 20185 H 1914.73 -0.795918 1.72526 0
M  V30 20186 H 1912.88 -3.24206 2.14062 0
M  V30 20187 H 1914.55 -1.73775 4.27317 0
M  V30 20188 H 1912.8 -1.56965 4.04406 0
M  V30 20189 H 1913.47 -3.12247 4.55199 0
M  V30 20190 H 1915.94 -3.22615 2.6279 0
M  V30 20191 H 1914.82 -4.52232 3.1109 0
M  V30 20192 H 1915.08 -4.1916 1.40562 0
M  V30 20193 N 1914.14 -1.27049 -0.93254 0
M  V30 20194 C 1915.37 -1.15735 -1.7114 0
M  V30 20195 C 1915.78 0.289069 -1.86979 0
M  V30 20196 O 1915.12 1.20906 -1.38302 0
M  V30 20197 C 1915.18 -1.76319 -3.13292 0
M  V30 20198 C 1914.85 -3.25471 -3.20808 0
M  V30 20199 C 1915.84 -4.22172 -3.03425 0
M  V30 20200 C 1913.53 -3.66092 -3.43921 0
M  V30 20201 C 1915.52 -5.57471 -3.09038 0
M  V30 20202 C 1913.21 -5.01522 -3.49168 0
M  V30 20203 C 1914.21 -5.97022 -3.31744 0
M  V30 20204 O 1913.9 -7.29985 -3.36716 0
M  V30 20205 H 1913.63 -0.403495 -0.542372 0
M  V30 20206 H 1916.18 -1.68334 -1.17698 0
M  V30 20207 H 1914.41 -1.18192 -3.68195 0
M  V30 20208 H 1916.1 -1.59788 -3.73125 0
M  V30 20209 H 1916.87 -3.92127 -2.85415 0
M  V30 20210 H 1912.75 -2.92238 -3.56536 0
M  V30 20211 H 1916.29 -6.3199 -2.95356 0
M  V30 20212 H 1912.19 -5.31225 -3.66702 0
M  V30 20213 H 1912.95 -7.3837 -3.53203 0
M  V30 20214 N 1915.62 1.13835 -1.08993 0
M  V30 20215 C 1916.86 1.85284 -0.824476 0
M  V30 20216 C 1917.2 1.83062 0.648235 0
M  V30 20217 O 1916.47 1.26555 1.47696 0
M  V30 20218 C 1916.75 3.33649 -1.35463 0
M  V30 20219 C 1916.61 3.44411 -2.89312 0
M  V30 20220 C 1917.93 4.28941 -0.984768 0
M  V30 20221 H 1915.05 0.672745 -0.300971 0
M  V30 20222 H 1917.69 1.3364 -1.35057 0
M  V30 20223 H 1915.84 3.77761 -0.907128 0
M  V30 20224 H 1917.51 3.09043 -3.42477 0
M  V30 20225 H 1915.75 2.85429 -3.26669 0
M  V30 20226 H 1916.42 4.48724 -3.21481 0
M  V30 20227 H 1918.9 3.92877 -1.37064 0
M  V30 20228 H 1917.78 5.31196 -1.38283 0
M  V30 20229 H 1918.04 4.41969 0.10755 0
M  V30 20230 N 1917.1 0.876467 1.3098 0
M  V30 20231 C 1918.51 0.569284 1.49102 0
M  V30 20232 C 1918.71 -0.895048 1.8053 0
M  V30 20233 O 1917.77 -1.67682 1.88783 0
M  V30 20234 C 1919.08 1.4751 2.62033 0
M  V30 20235 C 1920.63 1.47783 2.75915 0
M  V30 20236 C 1921.1 2.36937 3.9195 0
M  V30 20237 N 1922.59 2.34853 3.99247 0
M  V30 20238 C 1923.33 3.00553 4.88319 0
M  V30 20239 N 1922.83 3.75446 5.82247 0
M  V30 20240 N 1924.62 2.89828 4.81618 0
M  V30 20241 H 1916.77 1.82388 1.08851 0
M  V30 20242 H 1919.03 0.780233 0.538461 0
M  V30 20243 H 1918.74 2.51737 2.45605 0
M  V30 20244 H 1918.61 1.1784 3.5832 0
M  V30 20245 H 1921 0.443113 2.91754 0
M  V30 20246 H 1921.08 1.81479 1.80275 0
M  V30 20247 H 1920.72 3.40488 3.76869 0
M  V30 20248 H 1920.65 2.00561 4.86911 0
M  V30 20249 H 1923.15 1.80421 3.32049 0
M  V30 20250 H 1923.46 4.2269 6.46957 0
M  V30 20251 H 1921.8 3.79554 5.82206 0
M  V30 20252 H 1924.99 2.30852 4.07216 0
M  V30 20253 H 1925.17 3.41309 5.50829 0
M  V30 20254 N 1918.57 -1.44173 0.636557 0
M  V30 20255 C 1919.99 -1.56704 0.302646 0
M  V30 20256 C 1920.19 -1.62316 -1.19398 0
M  V30 20257 O 1919.25 -1.56914 -1.97824 0
M  V30 20258 C 1920.56 -2.83608 0.999346 0
M  V30 20259 C 1922.11 -2.97328 0.978005 0
M  V30 20260 C 1922.58 -4.27042 1.65527 0
M  V30 20261 N 1924.07 -4.33868 1.62212 0
M  V30 20262 C 1924.81 -5.32966 2.11505 0
M  V30 20263 N 1924.3 -6.38439 2.69012 0
M  V30 20264 N 1926.1 -5.24511 2.02102 0
M  V30 20265 H 1918.25 -1.38773 1.60797 0
M  V30 20266 H 1920.51 -0.665369 0.675269 0
M  V30 20267 H 1920.22 -2.85466 2.05432 0
M  V30 20268 H 1920.09 -3.73308 0.540484 0
M  V30 20269 H 1922.48 -2.9502 -0.0685065 0
M  V30 20270 H 1922.56 -2.08963 1.47541 0
M  V30 20271 H 1922.2 -4.30109 2.70126 0
M  V30 20272 H 1922.13 -5.14275 1.13266 0
M  V30 20273 H 1924.62 -3.58264 1.20231 0
M  V30 20274 H 1924.94 -7.10348 3.04344 0
M  V30 20275 H 1923.28 -6.39109 2.73066 0
M  V30 20276 H 1926.47 -4.41024 1.56892 0
M  V30 20277 H 1926.65 -6.01586 2.40828 0
M  V30 20278 N 1920.05 -0.377435 -1.53014 0
M  V30 20279 C 1921.3 0.208118 -2.01026 0
M  V30 20280 C 1921.62 1.48307 -1.26609 0
M  V30 20281 O 1920.89 1.92125 -0.382732 0
M  V30 20282 H 1919.47 0.0798957 -0.742715 0
M  V30 20283 H 1922.13 -0.506396 -1.88206 0
M  V30 20284 H 1921.23 0.426737 -3.09169 0
M  V30 20285 N 1921.53 1.57237 -0.106922 0
M  V30 20286 C 1922.76 1.98831 0.561223 0
M  V30 20287 C 1923.17 0.985199 1.61525 0
M  V30 20288 O 1922.51 -0.0317928 1.83672 0
M  V30 20289 C 1922.57 3.3682 1.25668 0
M  V30 20290 C 1922.24 4.55642 0.352017 0
M  V30 20291 C 1923.23 5.18323 -0.404571 0
M  V30 20292 C 1920.92 5.01592 0.266617 0
M  V30 20293 C 1922.91 6.25333 -1.23442 0
M  V30 20294 C 1920.6 6.08465 -0.566871 0
M  V30 20295 C 1921.6 6.70201 -1.31603 0
M  V30 20296 O 1921.29 7.75012 -2.1357 0
M  V30 20297 H 1921.02 0.658182 0.154181 0
M  V30 20298 H 1923.57 2.04552 -0.186443 0
M  V30 20299 H 1921.8 3.27817 2.05116 0
M  V30 20300 H 1923.49 3.62783 1.82053 0
M  V30 20301 H 1924.26 4.83747 -0.348395 0
M  V30 20302 H 1920.14 4.53294 0.839401 0
M  V30 20303 H 1923.68 6.7345 -1.81964 0
M  V30 20304 H 1919.58 6.42472 -0.624485 0
M  V30 20305 H 1920.35 7.92054 -2.0638 0
M  V30 20306 N 1923.01 -0.166818 1.56715 0
M  V30 20307 C 1924.26 -0.881043 1.8144 0
M  V30 20308 C 1924.57 -1.83216 0.684925 0
M  V30 20309 O 1925.78 -2.58908 0.817234 0
M  V30 20310 C 1924.23 -1.61724 3.21517 0
M  V30 20311 C 1923.84 -0.709534 4.42346 0
M  V30 20312 C 1925.58 -2.31943 3.55532 0
M  V30 20313 C 1923.49 -1.44622 5.73444 0
M  V30 20314 H 1922.42 -0.332741 0.676609 0
M  V30 20315 H 1925.07 -0.133924 1.83011 0
M  V30 20316 H 1923.45 -2.40928 3.14277 0
M  V30 20317 H 1924.63 0.0458591 4.60777 0
M  V30 20318 H 1922.94 -0.116776 4.16236 0
M  V30 20319 H 1925.54 -2.87662 4.50727 0
M  V30 20320 H 1925.88 -3.07495 2.80629 0
M  V30 20321 H 1926.42 -1.59678 3.64346 0
M  V30 20322 H 1923.16 -0.732937 6.51389 0
M  V30 20323 H 1922.68 -2.17483 5.58982 0
M  V30 20324 H 1924.35 -1.9925 6.15555 0
M  V30 20325 N 1924.49 -1.51463 -0.435524 0
M  V30 20326 C 1925.45 -1.72315 -1.51129 0
M  V30 20327 C 1926.45 -0.593161 -1.4946 0
M  V30 20328 O 1927.64 -0.860731 -1.5145 0
M  V30 20329 C 1924.77 -1.78127 -2.9066 0
M  V30 20330 H 1925.96 -2.68327 -1.33943 0
M  V30 20331 H 1923.52 -1.4148 -0.664317 0
M  V30 20332 H 1924.25 -0.839367 -3.13249 0
M  V30 20333 H 1924.04 -2.60252 -2.93277 0
M  V30 20334 H 1925.53 -1.96093 -3.68697 0
M  V30 20335 N 1925.96 0.691085 -1.4164 0
M  V30 20336 C 1927.19 1.47764 -1.44393 0
M  V30 20337 C 1927.6 1.89137 -0.0489239 0
M  V30 20338 O 1926.95 1.57642 0.943111 0
M  V30 20339 C 1927.01 2.76837 -2.29351 0
M  V30 20340 C 1926.67 2.5764 -3.77453 0
M  V30 20341 C 1927.67 2.23295 -4.69505 0
M  V30 20342 C 1925.35 2.73141 -4.21544 0
M  V30 20343 C 1927.35 2.04696 -6.03638 0
M  V30 20344 C 1925.03 2.54158 -5.5574 0
M  V30 20345 C 1926.03 2.19987 -6.46603 0
M  V30 20346 O 1925.72 2.01173 -7.78322 0
M  V30 20347 H 1925.45 0.461744 -0.493729 0
M  V30 20348 H 1928.01 0.857998 -1.86621 0
M  V30 20349 H 1926.24 3.41223 -1.81944 0
M  V30 20350 H 1927.93 3.38659 -2.23752 0
M  V30 20351 H 1928.69 2.1093 -4.36731 0
M  V30 20352 H 1924.57 2.98721 -3.51122 0
M  V30 20353 H 1928.11 1.77947 -6.74523 0
M  V30 20354 H 1924.01 2.66115 -5.88093 0
M  V30 20355 H 1924.78 2.15901 -7.89512 0
M  V30 20356 N 1927.44 1.27542 0.925789 0
M  V30 20357 C 1928.35 1.1225 2.06002 0
M  V30 20358 C 1929.37 0.0520487 1.73922 0
M  V30 20359 O 1930.54 0.258921 1.99729 0
M  V30 20360 C 1927.61 0.773231 3.37967 0
M  V30 20361 C 1926.67 1.92476 3.83733 0
M  V30 20362 C 1925.9 1.59206 5.09401 0
M  V30 20363 O 1926.13 0.500836 5.68197 0
M  V30 20364 O 1925.06 2.43185 5.50586 0
M  V30 20365 H 1928.89 2.07439 2.21817 0
M  V30 20366 H 1926.47 1.06747 1.04525 0
M  V30 20367 H 1928.35 0.591863 4.17223 0
M  V30 20368 H 1927.03 -0.149116 3.23356 0
M  V30 20369 H 1925.94 2.1612 3.05357 0
M  V30 20370 H 1927.27 2.82738 4.02889 0
M  V30 20371 N 1928.92 -1.13255 1.09595 0
M  V30 20372 C 1929.85 -2.20827 0.758791 0
M  V30 20373 C 1930.83 -1.68034 -0.264325 0
M  V30 20374 O 1932.02 -1.93751 -0.132005 0
M  V30 20375 C 1929.15 -3.46831 0.180424 0
M  V30 20376 C 1928.1 -4.12724 1.13325 0
M  V30 20377 C 1927.43 -5.33075 0.416504 0
M  V30 20378 C 1928.73 -4.59862 2.47637 0
M  V30 20379 H 1930.42 -2.49287 1.65821 0
M  V30 20380 H 1927.97 -1.19818 0.798734 0
M  V30 20381 H 1929.92 -4.21346 -0.0675313 0
M  V30 20382 H 1928.64 -3.17773 -0.754194 0
M  V30 20383 H 1927.3 -3.40179 1.36651 0
M  V30 20384 H 1926.95 -5.00281 -0.522308 0
M  V30 20385 H 1926.65 -5.78109 1.05183 0
M  V30 20386 H 1928.17 -6.10344 0.17689 0
M  V30 20387 H 1929.59 -5.25791 2.28509 0
M  V30 20388 H 1927.99 -5.15642 3.06974 0
M  V30 20389 H 1929.06 -3.74294 3.08273 0
M  V30 20390 N 1930.4 -0.883401 -1.30514 0
M  V30 20391 C 1931.35 -0.33846 -2.30124 0
M  V30 20392 C 1932.34 0.553686 -1.60096 0
M  V30 20393 O 1933.55 0.438295 -1.74582 0
M  V30 20394 H 1929.92 -0.0907927 -0.746499 0
M  V30 20395 H 1931.89 -1.19227 -2.73546 0
M  V30 20396 C 1930.64 0.43339 -3.44988 0
M  V30 20397 H 1929.96 -0.243847 -3.99056 0
M  V30 20398 H 1931.4 0.779808 -4.16767 0
M  V30 20399 C 1929.86 1.62986 -2.94851 0
M  V30 20400 O 1930.39 2.72922 -2.94748 0
M  V30 20401 N 1928.6 1.4665 -2.50883 0
M  V30 20402 H 1928.15 0.572135 -2.51166 0
M  V30 20403 H 1928.1 2.2684 -2.17694 0
M  V30 20404 N 1931.88 1.43833 -0.644194 0
M  V30 20405 C 1933.1 2.06784 -0.159719 0
M  V30 20406 C 1933.53 1.47913 1.16204 0
M  V30 20407 O 1932.88 0.585574 1.71583 0
M  V30 20408 C 1932.93 3.60527 -0.0724271 0
M  V30 20409 O 1932.04 4.0088 0.967917 0
M  V30 20410 H 1931.38 0.657771 -0.0907406 0
M  V30 20411 H 1933.91 1.8449 -0.884568 0
M  V30 20412 H 1933.92 4.07841 0.113872 0
M  V30 20413 H 1932.59 4.02755 -1.03736 0
M  V30 20414 H 1931.17 3.65174 0.755135 0
M  V30 20415 N 1933.35 0.385544 1.52811 0
M  V30 20416 C 1934.28 -0.442951 2.2926 0
M  V30 20417 C 1935.27 -1.06674 1.32494 0
M  V30 20418 O 1936.45 -1.08022 1.61384 0
M  V30 20419 C 1933.58 -1.57243 3.09664 0
M  V30 20420 C 1932.53 -1.07488 4.14283 0
M  V30 20421 C 1931.86 -2.29614 4.82889 0
M  V30 20422 C 1933.16 -0.145479 5.22097 0
M  V30 20423 H 1934.85 0.1949 2.98765 0
M  V30 20424 H 1932.4 0.0951762 1.43685 0
M  V30 20425 H 1934.35 -2.15882 3.61902 0
M  V30 20426 H 1933.08 -2.23781 2.37885 0
M  V30 20427 H 1931.74 -0.511047 3.6302 0
M  V30 20428 H 1931.38 -2.94653 4.07662 0
M  V30 20429 H 1931.08 -1.96985 5.53598 0
M  V30 20430 H 1932.61 -2.88902 5.37929 0
M  V30 20431 H 1934.02 -0.639941 5.69717 0
M  V30 20432 H 1932.42 0.0908687 6.00031 0
M  V30 20433 H 1933.49 0.806707 4.78142 0
M  V30 20434 N 1934.83 -1.57178 0.115259 0
M  V30 20435 C 1935.76 -2.1218 -0.866728 0
M  V30 20436 C 1936.78 -1.06365 -1.23249 0
M  V30 20437 O 1937.97 -1.33749 -1.18209 0
M  V30 20438 C 1935.07 -2.60337 -2.16975 0
M  V30 20439 C 1934.24 -3.90209 -1.97625 0
M  V30 20440 C 1933.3 -4.24003 -3.11622 0
M  V30 20441 O 1932.32 -4.92884 -2.847 0
M  V30 20442 N 1933.53 -3.81022 -4.37953 0
M  V30 20443 H 1936.29 -2.97061 -0.396835 0
M  V30 20444 H 1933.85 -1.61752 -0.0692734 0
M  V30 20445 H 1935.84 -2.79976 -2.92225 0
M  V30 20446 H 1934.41 -1.80356 -2.55324 0
M  V30 20447 H 1933.63 -3.79516 -1.06589 0
M  V30 20448 H 1934.92 -4.75137 -1.81996 0
M  V30 20449 H 1934.32 -3.25459 -4.62702 0
M  V30 20450 H 1932.88 -4.05777 -5.10086 0
M  V30 20451 N 1936.31 0.158505 -1.56801 0
M  V30 20452 C 1937.26 1.20094 -1.93808 0
M  V30 20453 C 1938.25 1.39146 -0.807916 0
M  V30 20454 O 1939.44 1.40901 -1.07125 0
M  V30 20455 C 1936.57 2.53736 -2.31243 0
M  V30 20456 C 1935.65 2.38324 -3.50803 0
M  V30 20457 N 1936.04 1.92648 -4.67676 0
M  V30 20458 C 1934.34 2.69112 -3.55661 0
M  V30 20459 C 1935.04 1.90005 -5.49793 0
M  V30 20460 N 1934.02 2.3289 -4.91186 0
M  V30 20461 H 1937.82 0.839694 -2.81649 0
M  V30 20462 H 1935.33 0.366668 -1.58207 0
M  V30 20463 H 1937.33 3.29079 -2.55955 0
M  V30 20464 H 1935.99 2.90652 -1.44747 0
M  V30 20465 H 1937 1.62788 -4.91651 0
M  V30 20466 H 1933.68 3.0998 -2.79676 0
M  V30 20467 H 1935.07 1.5628 -6.53472 0
M  V30 20468 N 1937.79 1.51692 0.427485 0
M  V30 20469 C 1939.21 1.40086 0.764726 0
M  V30 20470 C 1939.41 0.490917 1.95428 0
M  V30 20471 O 1938.46 -0.0502236 2.5245 0
M  V30 20472 C 1939.77 2.82295 1.03586 0
M  V30 20473 C 1941.32 2.91513 1.1397 0
M  V30 20474 C 1941.8 4.34651 1.44371 0
M  V30 20475 N 1943.29 4.37802 1.51274 0
M  V30 20476 C 1944.02 5.45596 1.76388 0
M  V30 20477 N 1943.52 6.63536 1.99228 0
M  V30 20478 N 1945.31 5.33088 1.78252 0
M  V30 20479 H 1937.46 2.09399 -0.355809 0
M  V30 20480 H 1939.73 0.943043 -0.0968225 0
M  V30 20481 H 1939.43 3.50918 0.234369 0
M  V30 20482 H 1939.31 3.22223 1.96092 0
M  V30 20483 H 1941.69 2.23082 1.9318 0
M  V30 20484 H 1941.77 2.55068 0.193426 0
M  V30 20485 H 1941.42 5.03635 0.656841 0
M  V30 20486 H 1941.35 4.68617 2.4022 0
M  V30 20487 H 1943.84 3.52777 1.35487 0
M  V30 20488 H 1944.15 7.41477 2.17789 0
M  V30 20489 H 1942.5 6.66634 1.9653 0
M  V30 20490 H 1945.69 4.39931 1.59933 0
M  V30 20491 H 1945.86 6.17174 1.97486 0
M  V30 20492 N 1939.27 -0.683564 1.42004 0
M  V30 20493 C 1940.2 -1.80902 1.40737 0
M  V30 20494 C 1941.21 -1.59865 0.307725 0
M  V30 20495 O 1942.4 -1.69146 0.570244 0
M  V30 20496 C 1939.5 -3.17867 1.17533 0
M  V30 20497 C 1938.67 -3.65829 2.39766 0
M  V30 20498 C 1937.73 -4.81499 2.12238 0
M  V30 20499 O 1936.76 -4.92495 2.85371 0
M  V30 20500 N 1937.96 -5.69592 1.12006 0
M  V30 20501 H 1940.73 -1.82478 2.37744 0
M  V30 20502 H 1938.29 -0.866335 1.36771 0
M  V30 20503 H 1940.28 -3.92891 0.970489 0
M  V30 20504 H 1938.85 -3.11244 0.290811 0
M  V30 20505 H 1938.07 -2.81579 2.75874 0
M  V30 20506 H 1939.36 -3.94615 3.2118 0
M  V30 20507 H 1938.76 -5.63351 0.515003 0
M  V30 20508 H 1937.31 -6.44465 0.975098 0
M  V30 20509 N 1940.75 -1.28031 -0.919012 0
M  V30 20510 C 1941.68 -1.14034 -2.03761 0
M  V30 20511 C 1942.66 -0.039495 -1.70054 0
M  V30 20512 O 1943.84 -0.215546 -1.93 0
M  V30 20513 C 1940.97 -0.795894 -3.38057 0
M  V30 20514 C 1939.93 -1.85093 -3.85907 0
M  V30 20515 C 1939.25 -1.36024 -5.17109 0
M  V30 20516 C 1940.55 -3.25658 -4.08343 0
M  V30 20517 H 1942.25 -2.07609 -2.15729 0
M  V30 20518 H 1939.79 -0.999558 -1.03657 0
M  V30 20519 H 1941.74 -0.684762 -4.15799 0
M  V30 20520 H 1940.47 0.175558 -3.26128 0
M  V30 20521 H 1939.13 -1.95112 -3.10366 0
M  V30 20522 H 1938.78 -0.378004 -5.01578 0
M  V30 20523 H 1938.48 -2.06568 -5.50094 0
M  V30 20524 H 1940 -1.26223 -5.97411 0
M  V30 20525 H 1941.41 -3.1859 -4.76627 0
M  V30 20526 H 1939.81 -3.93989 -4.52651 0
M  V30 20527 H 1940.88 -3.70066 -3.13335 0
M  V30 20528 N 1942.22 1.12672 -1.10194 0
M  V30 20529 C 1943.63 1.65664 -0.860944 0
M  V30 20530 C 1943.99 1.86502 0.609208 0
M  V30 20531 O 1943.11 1.58967 1.46828 0
M  V30 20532 C 1943.71 3.00939 -1.55632 0
M  V30 20533 C 1942.26 3.5089 -1.36209 0
M  V30 20534 C 1941.41 2.25966 -1.60732 0
M  V30 20535 H 1944.36 0.964871 -1.26 0
M  V30 20536 H 1944.38 3.6729 -0.99391 0
M  V30 20537 H 1943.9 2.85741 -2.62629 0
M  V30 20538 H 1942 3.71278 -0.313645 0
M  V30 20539 H 1942.11 4.30509 -2.10235 0
M  V30 20540 H 1940.47 2.32949 -1.0299 0
M  V30 20541 H 1941.26 2.13324 -2.68975 0
M  V30 20542 N 1943.7 0.89031 1.30043 0
M  V30 20543 C 1944.98 0.43131 1.90785 0
M  V30 20544 C 1945.36 -1.08836 1.80881 0
M  V30 20545 O 1944.71 -1.92605 1.22946 0
M  V30 20546 C 1944.92 0.935377 3.36232 0
M  V30 20547 C 1946.26 0.973504 4.13289 0
M  V30 20548 O 1947.29 0.882404 3.45097 0
M  V30 20549 O 1946.15 1.10893 5.35131 0
M  V30 20550 H 1943.24 0.132845 0.816261 0
M  V30 20551 H 1945.79 0.979561 1.38574 0
M  V30 20552 H 1944.56 1.97928 3.3755 0
M  V30 20553 H 1944.18 0.366596 3.95906 0
M  V30 20554 N 1945.18 -1.43489 0.651812 0
M  V30 20555 C 1946.43 -2.01431 0.164307 0
M  V30 20556 C 1946.75 -1.51674 -1.22556 0
M  V30 20557 O 1946.02 -0.728791 -1.81839 0
M  V30 20558 H 1944.6 -0.744764 0.0577525 0
M  V30 20559 H 1947.26 -1.75718 0.843164 0
M  V30 20560 H 1946.36 -3.1175 0.147848 0
M  V30 20561 N 1946.66 -0.393643 -1.52605 0
M  V30 20562 C 1947.89 0.1871 -2.06052 0
M  V30 20563 C 1948.3 1.40154 -1.26501 0
M  V30 20564 O 1947.66 1.798 -0.31279 0
M  V30 20565 C 1947.71 0.552918 -3.57246 0
M  V30 20566 O 1947.43 -0.613274 -4.33786 0
M  V30 20567 C 1948.93 1.18906 -4.27055 0
M  V30 20568 H 1946.15 0.0272042 -0.670448 0
M  V30 20569 H 1948.69 -0.560126 -1.9668 0
M  V30 20570 H 1946.85 1.25004 -3.66678 0
M  V30 20571 H 1947.26 -0.311611 -5.23574 0
M  V30 20572 H 1948.74 1.39535 -5.34073 0
M  V30 20573 H 1949.21 2.15768 -3.82545 0
M  V30 20574 H 1949.82 0.532579 -4.21952 0
M  V30 20575 N 1948.14 1.57115 -0.123593 0
M  V30 20576 C 1949.38 1.97238 0.536324 0
M  V30 20577 C 1949.74 1.00568 1.63554 0
M  V30 20578 O 1950.94 1.29647 2.35468 0
M  V30 20579 C 1949.21 3.41596 1.05106 0
M  V30 20580 S 1950.77 4.03734 1.71886 0
M  V30 20581 H 1947.59 0.689335 0.17418 0
M  V30 20582 H 1950.19 1.94371 -0.209763 0
M  V30 20583 H 1948.89 4.09698 0.239937 0
M  V30 20584 H 1948.43 3.48123 1.83231 0
M  V30 20585 H 1950.44 3.94867 3.0049 0
M  V30 20586 N 1949.61 -0.150187 1.56883 0
M  V30 20587 C 1950.86 -0.864615 1.83446 0
M  V30 20588 C 1951.19 -1.80963 0.70471 0
M  V30 20589 O 1950.47 -1.92297 -0.291897 0
M  V30 20590 C 1950.75 -1.64188 3.20491 0
M  V30 20591 C 1950.6 -0.718573 4.44023 0
M  V30 20592 C 1951.92 -2.60505 3.54719 0
M  V30 20593 H 1949.04 -0.312878 0.66729 0
M  V30 20594 H 1951.68 -0.129937 1.89555 0
M  V30 20595 H 1949.83 -2.26819 3.15413 0
M  V30 20596 H 1951.51 -0.103513 4.61184 0
M  V30 20597 H 1949.75 -0.0279419 4.33791 0
M  V30 20598 H 1950.42 -1.29839 5.36513 0
M  V30 20599 H 1952.9 -2.07993 3.60386 0
M  V30 20600 H 1951.77 -3.11941 4.51646 0
M  V30 20601 H 1952.03 -3.41711 2.8051 0
M  V30 20602 N 1951.09 -1.51916 -0.419434 0
M  V30 20603 C 1952.34 -1.65714 -1.16905 0
M  V30 20604 C 1952.67 -0.380888 -1.90428 0
M  V30 20605 O 1951.95 0.620297 -1.84344 0
M  V30 20606 C 1952.23 -2.87239 -2.17177 0
M  V30 20607 C 1952.08 -4.24887 -1.47619 0
M  V30 20608 C 1953.4 -3.04281 -3.17964 0
M  V30 20609 H 1950.52 -0.603072 -0.423643 0
M  V30 20610 H 1953.16 -1.84446 -0.456035 0
M  V30 20611 H 1951.31 -2.71398 -2.77984 0
M  V30 20612 H 1952.98 -4.52433 -0.900112 0
M  V30 20613 H 1951.23 -4.26761 -0.778273 0
M  V30 20614 H 1951.9 -5.05945 -2.20733 0
M  V30 20615 H 1954.37 -3.18951 -2.67226 0
M  V30 20616 H 1953.25 -3.90843 -3.85399 0
M  V30 20617 H 1953.51 -2.17138 -3.85102 0
M  V30 20618 N 1952.57 0.676023 -1.42365 0
M  V30 20619 C 1953.48 1.81906 -1.48147 0
M  V30 20620 C 1954.5 1.70014 -0.37032 0
M  V30 20621 O 1955.67 1.91586 -0.621036 0
M  V30 20622 C 1952.74 3.18039 -1.38029 0
M  V30 20623 C 1951.8 3.41897 -2.59625 0
M  V30 20624 C 1951.03 4.71536 -2.4998 0
M  V30 20625 O 1951.25 5.49358 -1.535 0
M  V30 20626 O 1950.19 4.9661 -3.40091 0
M  V30 20627 H 1954.01 1.79984 -2.44621 0
M  V30 20628 H 1951.6 0.831611 -1.24115 0
M  V30 20629 H 1953.48 3.99277 -1.34743 0
M  V30 20630 H 1952.16 3.20602 -0.446789 0
M  V30 20631 H 1951.06 2.60512 -2.68485 0
M  V30 20632 H 1952.4 3.44164 -3.51869 0
M  V30 20633 N 1954.05 1.28517 0.912209 0
M  V30 20634 C 1955.3 1.15761 1.6615 0
M  V30 20635 C 1955.62 -0.293495 1.92273 0
M  V30 20636 O 1954.88 -1.22975 1.52235 0
M  V30 20637 C 1955.18 1.90307 3.02519 0
M  V30 20638 C 1954.84 3.40095 2.96051 0
M  V30 20639 C 1953.51 3.80948 2.93994 0
M  V30 20640 C 1955.86 4.35601 2.86185 0
M  V30 20641 C 1953.19 5.15643 2.79873 0
M  V30 20642 C 1955.54 5.70371 2.73604 0
M  V30 20643 C 1954.2 6.10497 2.69906 0
M  V30 20644 H 1953.47 0.423598 0.607985 0
M  V30 20645 H 1956.12 1.59309 1.06268 0
M  V30 20646 H 1954.42 1.39312 3.66196 0
M  V30 20647 H 1956.12 1.77852 3.59402 0
M  V30 20648 H 1952.71 3.07615 2.98447 0
M  V30 20649 H 1956.89 4.05 2.8686 0
M  V30 20650 H 1952.15 5.45858 2.75407 0
M  V30 20651 H 1956.32 6.44035 2.64939 0
M  V30 20652 H 1953.95 7.1482 2.58722 0
M  V30 20653 N 1955.53 -1.12086 1.1079 0
M  V30 20654 C 1956.46 -2.17667 0.717897 0
M  V30 20655 C 1957.47 -1.60913 -0.247179 0
M  V30 20656 O 1958.66 -1.78473 -0.0310924 0
M  V30 20657 C 1955.76 -3.38877 0.0392451 0
M  V30 20658 C 1954.93 -4.25114 1.02943 0
M  V30 20659 C 1953.99 -5.24815 0.381583 0
M  V30 20660 O 1953.02 -5.59739 1.03348 0
M  V30 20661 N 1954.22 -5.74118 -0.858416 0
M  V30 20662 H 1956.99 -2.51737 1.6263 0
M  V30 20663 H 1954.55 -1.27544 0.997209 0
M  V30 20664 H 1956.54 -4.02661 -0.405715 0
M  V30 20665 H 1955.11 -3.02927 -0.771627 0
M  V30 20666 H 1954.33 -3.57889 1.65255 0
M  V30 20667 H 1955.62 -4.79575 1.69957 0
M  V30 20668 H 1955.01 -5.47915 -1.40734 0
M  V30 20669 H 1953.57 -6.39771 -1.24647 0
M  V30 20670 N 1957 -0.897194 -1.29569 0
M  V30 20671 C 1958.25 -0.521834 -1.95661 0
M  V30 20672 C 1958.58 0.931396 -1.70749 0
M  V30 20673 O 1957.83 1.67507 -1.01192 0
M  V30 20674 C 1958.13 -0.757743 -3.49275 0
M  V30 20675 C 1957.8 -2.18794 -3.94259 0
M  V30 20676 C 1956.46 -2.57901 -4.06252 0
M  V30 20677 C 1958.81 -3.11942 -4.17542 0
M  V30 20678 C 1956.14 -3.89341 -4.38897 0
M  V30 20679 C 1958.49 -4.42928 -4.51661 0
M  V30 20680 C 1957.16 -4.81911 -4.61864 0
M  V30 20681 H 1956.43 -0.190953 -0.715974 0
M  V30 20682 H 1959.07 -1.13537 -1.54212 0
M  V30 20683 H 1957.38 -0.0612622 -3.91752 0
M  V30 20684 H 1959.08 -0.446734 -3.98504 0
M  V30 20685 H 1955.67 -1.87443 -3.85439 0
M  V30 20686 H 1959.85 -2.82944 -4.07745 0
M  V30 20687 H 1955.11 -4.19269 -4.44998 0
M  V30 20688 H 1959.28 -5.15133 -4.68627 0
M  V30 20689 H 1956.91 -5.83797 -4.86914 0
M  V30 20690 N 1958.48 1.43142 -0.659413 0
M  V30 20691 C 1959.42 2.28066 0.0782731 0
M  V30 20692 C 1960.39 1.40185 0.82383 0
M  V30 20693 O 1961.58 1.69627 0.822128 0
M  V30 20694 C 1958.7 3.19726 1.11772 0
M  V30 20695 C 1957.75 4.23908 0.469506 0
M  V30 20696 S 1958.58 5.30058 -0.761531 0
M  V30 20697 C 1959.74 6.25286 0.277227 0
M  V30 20698 H 1959.97 2.90283 -0.642102 0
M  V30 20699 H 1957.51 1.47744 -0.448449 0
M  V30 20700 H 1959.46 3.73078 1.7124 0
M  V30 20701 H 1958.12 2.56674 1.81045 0
M  V30 20702 H 1957.32 4.88168 1.2533 0
M  V30 20703 H 1956.92 3.73965 -0.0512104 0
M  V30 20704 H 1959.21 6.67813 1.14158 0
M  V30 20705 H 1960.15 7.07328 -0.330513 0
M  V30 20706 H 1960.56 5.61131 0.61581 0
M  V30 20707 N 1959.96 0.40173 1.52394 0
M  V30 20708 C 1960.89 -0.41861 2.29717 0
M  V30 20709 C 1961.87 -1.05263 1.33618 0
M  V30 20710 O 1963.06 -1.06304 1.62521 0
M  V30 20711 C 1960.19 -1.5395 3.11314 0
M  V30 20712 C 1959.14 -1.03088 4.154 0
M  V30 20713 C 1958.47 -2.2448 4.85297 0
M  V30 20714 C 1959.77 -0.0900956 5.22222 0
M  V30 20715 H 1961.46 0.226577 2.98541 0
M  V30 20716 H 1959.01 0.110411 1.43576 0
M  V30 20717 H 1960.96 -2.12031 3.64171 0
M  V30 20718 H 1959.68 -2.21246 2.40246 0
M  V30 20719 H 1958.34 -0.472515 3.63542 0
M  V30 20720 H 1957.99 -2.90313 4.10764 0
M  V30 20721 H 1957.69 -1.91103 5.55656 0
M  V30 20722 H 1959.21 -2.83181 5.40963 0
M  V30 20723 H 1960.63 -0.579479 5.70364 0
M  V30 20724 H 1959.03 0.154505 5.99901 0
M  V30 20725 H 1960.1 0.857375 4.7726 0
M  V30 20726 N 1961.44 -1.57047 0.131923 0
M  V30 20727 C 1962.85 -1.82552 -0.391375 0
M  V30 20728 C 1963.2 -1.04983 -1.6575 0
M  V30 20729 O 1962.33 -0.2904 -2.14443 0
M  V30 20730 C 1962.92 -3.3113 -0.716843 0
M  V30 20731 C 1961.48 -3.57269 -1.18472 0
M  V30 20732 C 1960.63 -2.76578 -0.200021 0
M  V30 20733 H 1963.58 -1.54636 0.356863 0
M  V30 20734 H 1963.6 -3.46463 -1.57302 0
M  V30 20735 H 1963.11 -3.87559 0.204844 0
M  V30 20736 H 1961.21 -3.06211 -2.12287 0
M  V30 20737 H 1961.32 -4.65798 -1.12111 0
M  V30 20738 H 1959.69 -2.45185 -0.689655 0
M  V30 20739 H 1960.47 -3.35772 0.71499 0
M  V30 20740 N 1962.92 0.141865 -1.5696 0
M  V30 20741 C 1964.14 0.872384 -1.8816 0
M  V30 20742 C 1964.57 1.73713 -0.721494 0
M  V30 20743 O 1963.92 1.78294 0.328757 0
M  V30 20744 C 1963.97 1.7007 -3.17976 0
M  V30 20745 O 1963.08 2.80545 -3.02271 0
M  V30 20746 H 1962.42 0.242672 -0.618066 0
M  V30 20747 H 1964.95 0.131136 -2.04179 0
M  V30 20748 H 1964.96 2.09466 -3.50126 0
M  V30 20749 H 1963.63 1.06573 -4.02014 0
M  V30 20750 H 1962.21 2.44519 -2.81541 0
M  V30 20751 N 1964.39 1.52136 0.411372 0
M  V30 20752 C 1965.62 1.70223 1.18486 0
M  V30 20753 C 1966.04 0.409966 1.83578 0
M  V30 20754 O 1965.4 -0.632366 1.69914 0
M  V30 20755 C 1965.45 2.83744 2.22535 0
M  V30 20756 O 1964.55 2.49157 3.28625 0
M  V30 20757 H 1963.9 0.566741 0.345978 0
M  V30 20758 H 1966.43 1.98829 0.482526 0
M  V30 20759 H 1966.44 3.08591 2.669 0
M  V30 20760 H 1965.11 3.77503 1.74541 0
M  V30 20761 H 1963.69 2.34974 2.89554 0
M  V30 20762 N 1965.87 -0.668464 1.42721 0
M  V30 20763 C 1966.82 -1.77463 1.43147 0
M  V30 20764 C 1967.81 -1.58042 0.301932 0
M  V30 20765 O 1969 -1.68413 0.544623 0
M  V30 20766 C 1966.13 -3.15963 1.34247 0
M  V30 20767 C 1965.21 -3.40985 2.52171 0
M  V30 20768 N 1965.61 -3.36558 3.77575 0
M  V30 20769 C 1963.9 -3.71646 2.46568 0
M  V30 20770 C 1964.6 -3.61239 4.5594 0
M  V30 20771 N 1963.58 -3.82312 3.86443 0
M  V30 20772 H 1967.38 -1.72442 2.37993 0
M  V30 20773 H 1964.9 -0.86955 1.37159 0
M  V30 20774 H 1966.89 -3.95239 1.32634 0
M  V30 20775 H 1965.55 -3.22176 0.404081 0
M  V30 20776 H 1966.56 -3.16315 4.1008 0
M  V30 20777 H 1963.24 -3.85066 1.6134 0
M  V30 20778 H 1964.63 -3.63724 5.64938 0
M  V30 20779 N 1967.35 -1.28999 -0.905381 0
M  V30 20780 C 1968.76 -1.15033 -1.47052 0
M  V30 20781 C 1969.11 0.256623 -1.94514 0
M  V30 20782 O 1968.24 1.15164 -1.83211 0
M  V30 20783 C 1968.83 -2.08213 -2.67269 0
M  V30 20784 C 1967.39 -1.98286 -3.19937 0
M  V30 20785 C 1966.54 -1.99468 -1.92634 0
M  V30 20786 H 1969.49 -1.41566 -0.717271 0
M  V30 20787 H 1969.51 -1.65102 -3.42814 0
M  V30 20788 H 1969.02 -3.10604 -2.32695 0
M  V30 20789 H 1967.12 -0.98963 -3.59217 0
M  V30 20790 H 1967.24 -2.85666 -3.84619 0
M  V30 20791 H 1965.6 -1.43988 -2.10094 0
M  V30 20792 H 1966.38 -3.03554 -1.60344 0
M  V30 20793 N 1968.83 1.11497 -1.11383 0
M  V30 20794 C 1969.78 2.19602 -0.766658 0
M  V30 20795 C 1970.77 1.67668 0.241612 0
M  V30 20796 O 1971.98 1.79717 0.100956 0
M  V30 20797 H 1968.35 0.715952 -0.230037 0
M  V30 20798 H 1970.32 2.46131 -1.68707 0
M  V30 20799 C 1969.07 3.46968 -0.225442 0
M  V30 20800 H 1968.4 3.87284 -0.992544 0
M  V30 20801 H 1969.84 4.23995 -0.0207066 0
M  V30 20802 C 1968.29 3.20311 1.04414 0
M  V30 20803 O 1968.82 3.40956 2.12395 0
M  V30 20804 N 1967.03 2.7405 0.966692 0
M  V30 20805 H 1966.58 2.5745 0.0878667 0
M  V30 20806 H 1966.54 2.56591 1.81682 0
M  V30 20807 N 1970.31 0.904053 1.29092 0
M  V30 20808 C 1971.72 0.600783 1.47861 0
M  V30 20809 C 1971.92 -0.856554 1.82388 0
M  V30 20810 O 1970.98 -1.6364 1.92297 0
M  V30 20811 C 1972.29 1.53035 2.58845 0
M  V30 20812 C 1973.84 1.53602 2.72719 0
M  V30 20813 C 1974.32 2.45197 3.86836 0
M  V30 20814 N 1975.81 2.43269 3.94176 0
M  V30 20815 C 1976.54 3.10843 4.81834 0
M  V30 20816 N 1976.04 3.87712 5.74153 0
M  V30 20817 N 1977.83 2.99979 4.75362 0
M  V30 20818 H 1969.98 1.84656 1.04957 0
M  V30 20819 H 1972.24 0.791479 0.52179 0
M  V30 20820 H 1971.95 2.5689 2.4021 0
M  V30 20821 H 1971.82 1.25414 3.5574 0
M  V30 20822 H 1974.21 0.504899 2.90749 0
M  V30 20823 H 1974.29 1.85262 1.76385 0
M  V30 20824 H 1973.94 3.48406 3.69562 0
M  V30 20825 H 1973.87 2.10844 4.82548 0
M  V30 20826 H 1976.36 1.87423 3.28148 0
M  V30 20827 H 1976.67 4.36317 6.37846 0
M  V30 20828 H 1975.02 3.91818 5.74024 0
M  V30 20829 H 1978.21 2.39437 4.02228 0
M  V30 20830 H 1978.38 3.52916 5.43465 0
M  V30 20831 N 1971.79 -1.4279 0.666995 0
M  V30 20832 C 1972.72 -2.28104 -0.0661771 0
M  V30 20833 C 1973.7 -1.4062 -0.816384 0
M  V30 20834 O 1974.88 -1.70061 -0.81312 0
M  V30 20835 C 1972.01 -3.20314 -1.10075 0
M  V30 20836 C 1971.05 -4.24151 -0.447018 0
M  V30 20837 S 1971.89 -5.29646 0.78963 0
M  V30 20838 C 1973.04 -6.25424 -0.244062 0
M  V30 20839 H 1973.28 -2.89939 0.657487 0
M  V30 20840 H 1970.81 -1.47504 0.456278 0
M  V30 20841 H 1972.77 -3.73981 -1.69259 0
M  V30 20842 H 1971.43 -2.57631 -1.79681 0
M  V30 20843 H 1970.62 -4.88826 -1.22739 0
M  V30 20844 H 1970.22 -3.73933 0.0710419 0
M  V30 20845 H 1972.51 -6.68409 -1.10615 0
M  V30 20846 H 1973.46 -7.07143 0.36802 0
M  V30 20847 H 1973.87 -5.6145 -0.586043 0
M  V30 20848 N 1973.26 -0.409806 -1.52179 0
M  V30 20849 C 1974.49 0.165235 -2.06239 0
M  V30 20850 C 1974.91 1.38804 -1.2798 0
M  V30 20851 O 1974.26 1.79458 -0.331843 0
M  V30 20852 C 1974.31 0.514997 -3.57813 0
M  V30 20853 O 1974.04 -0.659248 -4.33111 0
M  V30 20854 C 1975.54 1.1437 -4.28293 0
M  V30 20855 H 1972.76 0.0200917 -0.670699 0
M  V30 20856 H 1975.3 -0.580955 -1.96074 0
M  V30 20857 H 1973.46 1.21108 -3.67983 0
M  V30 20858 H 1973.87 -0.367126 -5.23214 0
M  V30 20859 H 1975.34 1.33863 -5.35523 0
M  V30 20860 H 1975.82 2.11699 -3.84812 0
M  V30 20861 H 1976.43 0.487795 -4.22493 0
M  V30 20862 N 1974.74 1.56975 -0.14025 0
M  V30 20863 C 1975.99 1.96196 0.513302 0
M  V30 20864 C 1976.32 1.02482 1.64958 0
M  V30 20865 O 1975.6 0.0659332 1.94388 0
M  V30 20866 C 1975.88 3.45178 1.02589 0
M  V30 20867 C 1975.73 4.49669 -0.108432 0
M  V30 20868 C 1977.05 3.96499 1.90989 0
M  V30 20869 H 1974.17 0.713374 0.185114 0
M  V30 20870 H 1976.81 1.88721 -0.220112 0
M  V30 20871 H 1974.96 3.51679 1.65088 0
M  V30 20872 H 1976.63 4.55252 -0.744538 0
M  V30 20873 H 1974.88 4.26937 -0.768558 0
M  V30 20874 H 1975.55 5.51228 0.291822 0
M  V30 20875 H 1978.02 3.92434 1.38329 0
M  V30 20876 H 1976.9 5.01219 2.23765 0
M  V30 20877 H 1977.16 3.38452 2.84433 0
M  V30 20878 N 1976.22 -0.133539 1.57033 0
M  V30 20879 C 1977.63 -0.692222 1.73393 0
M  V30 20880 C 1977.98 -1.81019 0.756735 0
M  V30 20881 O 1977.11 -2.16275 -0.0736448 0
M  V30 20882 C 1977.7 -1.26245 3.144 0
M  V30 20883 C 1976.26 -1.76756 3.32316 0
M  V30 20884 C 1975.41 -0.661397 2.69297 0
M  V30 20885 H 1978.36 0.0922563 1.58432 0
M  V30 20886 H 1978.38 -2.13221 3.15146 0
M  V30 20887 H 1977.89 -0.44855 3.85499 0
M  V30 20888 H 1975.99 -2.6067 2.66236 0
M  V30 20889 H 1976.11 -1.88702 4.40373 0
M  V30 20890 H 1974.47 -1.0914 2.30132 0
M  V30 20891 H 1975.25 0.141281 3.43009 0
M  V30 20892 N 1977.7 -1.52352 -0.403298 0
M  V30 20893 C 1978.95 -1.65924 -1.14683 0
M  V30 20894 C 1979.26 -0.398212 -1.91504 0
M  V30 20895 O 1980.47 -0.413824 -2.68328 0
M  V30 20896 C 1978.92 -2.9317 -2.08757 0
M  V30 20897 C 1978.53 -4.26402 -1.37425 0
M  V30 20898 C 1980.27 -3.16106 -2.83332 0
M  V30 20899 C 1978.18 -5.44766 -2.30181 0
M  V30 20900 H 1977.11 -0.61811 -0.431805 0
M  V30 20901 H 1979.76 -1.78843 -0.410792 0
M  V30 20902 H 1978.14 -2.73964 -2.85937 0
M  V30 20903 H 1979.32 -4.56111 -0.65569 0
M  V30 20904 H 1977.63 -4.09614 -0.748668 0
M  V30 20905 H 1980.23 -4.01716 -3.52886 0
M  V30 20906 H 1980.57 -2.30581 -3.4661 0
M  V30 20907 H 1981.11 -3.35811 -2.1325 0
M  V30 20908 H 1977.84 -6.32656 -1.71541 0
M  V30 20909 H 1977.36 -5.19388 -2.99993 0
M  V30 20910 H 1979.04 -5.78077 -2.9058 0
M  V30 20911 N 1979.18 0.660885 -1.43074 0
M  V30 20912 C 1980.4 1.45376 -1.47921 0
M  V30 20913 C 1980.83 1.87855 -0.0960289 0
M  V30 20914 O 1980.18 1.5689 0.908583 0
M  V30 20915 C 1980.23 2.67002 -2.42368 0
M  V30 20916 O 1979.34 3.65783 -1.90465 0
M  V30 20917 H 1978.68 0.436193 -0.500632 0
M  V30 20918 H 1981.21 0.809399 -1.87909 0
M  V30 20919 H 1981.22 3.14909 -2.59416 0
M  V30 20920 H 1979.89 2.35426 -3.42852 0
M  V30 20921 H 1978.47 3.24885 -1.83041 0
M  V30 20922 N 1980.65 1.29477 0.898527 0
M  V30 20923 C 1981.9 1.16888 1.64378 0
M  V30 20924 C 1982.22 -0.278503 1.93607 0
M  V30 20925 O 1983.42 -0.525728 2.66361 0
M  V30 20926 C 1981.88 2.0444 2.96196 0
M  V30 20927 C 1981.49 3.54008 2.74558 0
M  V30 20928 C 1983.23 2.00578 3.74124 0
M  V30 20929 C 1981.14 4.33661 4.0211 0
M  V30 20930 H 1980.07 0.433875 0.616659 0
M  V30 20931 H 1982.72 1.54125 0.995881 0
M  V30 20932 H 1981.1 1.60073 3.62205 0
M  V30 20933 H 1982.27 4.06435 2.17135 0
M  V30 20934 H 1980.59 3.59553 2.10025 0
M  V30 20935 H 1983.19 2.57348 4.68696 0
M  V30 20936 H 1983.53 0.98604 4.04454 0
M  V30 20937 H 1984.06 2.42995 3.14957 0
M  V30 20938 H 1980.8 5.36276 3.76946 0
M  V30 20939 H 1980.32 3.86003 4.59088 0
M  V30 20940 H 1982 4.44385 4.70246 0
M  V30 20941 N 1982.13 -1.10905 1.11972 0
M  V30 20942 C 1983.36 -1.86555 0.894699 0
M  V30 20943 C 1983.78 -1.80434 -0.555801 0
M  V30 20944 O 1983.13 -1.18957 -1.38403 0
M  V30 20945 C 1983.18 -3.35148 1.35492 0
M  V30 20946 O 1982.9 -3.41154 2.74856 0
M  V30 20947 C 1984.41 -4.27687 1.16612 0
M  V30 20948 H 1981.63 -0.589761 0.320037 0
M  V30 20949 H 1984.17 -1.40232 1.48846 0
M  V30 20950 H 1982.32 -3.78955 0.804493 0
M  V30 20951 H 1982.74 -4.3372 2.94936 0
M  V30 20952 H 1984.21 -5.30168 1.53708 0
M  V30 20953 H 1984.69 -4.39072 0.106219 0
M  V30 20954 H 1985.3 -3.8968 1.70381 0
M  V30 20955 N 1983.61 -0.910886 -1.2861 0
M  V30 20956 C 1984.56 -0.387197 -2.29355 0
M  V30 20957 C 1985.55 0.519603 -1.61234 0
M  V30 20958 O 1986.76 0.401165 -1.75473 0
M  V30 20959 H 1983.13 -0.106607 -0.744405 0
M  V30 20960 H 1985.1 -1.25002 -2.70956 0
M  V30 20961 C 1983.85 0.360115 -3.4583 0
M  V30 20962 H 1983.18 -0.328438 -3.98449 0
M  V30 20963 H 1984.62 0.69123 -4.18328 0
M  V30 20964 C 1983.08 1.56695 -2.98242 0
M  V30 20965 O 1983.61 2.66609 -3.00471 0
M  V30 20966 N 1981.81 1.41295 -2.53937 0
M  V30 20967 H 1981.36 0.51873 -2.52323 0
M  V30 20968 H 1981.32 2.22172 -2.22457 0
M  V30 20969 N 1985.09 1.42434 -0.674558 0
M  V30 20970 C 1986.5 1.84678 -0.274015 0
M  V30 20971 C 1986.85 1.56464 1.18378 0
M  V30 20972 O 1985.98 1.02434 1.90621 0
M  V30 20973 C 1986.57 3.3523 -0.490545 0
M  V30 20974 C 1985.13 3.76124 -0.144124 0
M  V30 20975 C 1984.28 2.66013 -0.783107 0
M  V30 20976 H 1987.23 1.32284 -0.876737 0
M  V30 20977 H 1987.25 3.79628 0.257403 0
M  V30 20978 H 1986.76 3.55733 -1.55163 0
M  V30 20979 H 1984.86 3.61228 0.913523 0
M  V30 20980 H 1984.97 4.75521 -0.584478 0
M  V30 20981 H 1983.34 2.53796 -0.214457 0
M  V30 20982 H 1984.12 2.89339 -1.84764 0
M  V30 20983 N 1986.57 0.417871 1.51959 0
M  V30 20984 C 1987.84 -0.214034 1.94425 0
M  V30 20985 C 1988.22 -1.61845 1.35534 0
M  V30 20986 O 1987.57 -2.22158 0.534606 0
M  V30 20987 C 1987.78 -0.211518 3.48358 0
M  V30 20988 C 1989.13 -0.426614 4.22451 0
M  V30 20989 O 1990.15 -0.290493 3.55013 0
M  V30 20990 O 1989.01 -0.695682 5.42054 0
M  V30 20991 H 1986.11 -0.140439 0.814988 0
M  V30 20992 H 1988.65 0.474446 1.62933 0
M  V30 20993 H 1987.42 0.771087 3.83627 0
M  V30 20994 H 1987.05 -0.943731 3.86238 0
M  V30 20995 N 1988.04 -1.56898 0.148573 0
M  V30 20996 C 1988.97 -2.19852 -0.786585 0
M  V30 20997 C 1989.96 -1.14723 -1.2559 0
M  V30 20998 O 1991.14 -1.43071 -1.31317 0
M  V30 20999 C 1988.27 -2.82137 -2.02524 0
M  V30 21000 C 1987.22 -3.93108 -1.69264 0
M  V30 21001 C 1986.55 -4.42335 -3.00407 0
M  V30 21002 C 1987.85 -5.13807 -0.938092 0
M  V30 21003 H 1989.54 -2.98252 -0.261903 0
M  V30 21004 H 1987.09 -1.43461 -0.124531 0
M  V30 21005 H 1989.04 -3.24845 -2.68428 0
M  V30 21006 H 1987.77 -2.01071 -2.57368 0
M  V30 21007 H 1986.43 -3.5102 -1.05739 0
M  V30 21008 H 1986.07 -3.58089 -3.53244 0
M  V30 21009 H 1985.77 -5.17185 -2.78915 0
M  V30 21010 H 1987.3 -4.87714 -3.67378 0
M  V30 21011 H 1988.71 -5.53349 -1.49924 0
M  V30 21012 H 1987.11 -5.94429 -0.823062 0
M  V30 21013 H 1988.18 -4.8485 0.0698825 0
M  V30 21014 N 1989.52 0.125209 -1.57102 0
M  V30 21015 C 1990.45 1.15521 -2.02922 0
M  V30 21016 C 1991.43 1.43549 -0.912559 0
M  V30 21017 O 1992.62 1.54097 -1.18185 0
M  V30 21018 C 1989.75 2.48297 -2.42829 0
M  V30 21019 C 1988.7 2.34744 -3.57881 0
M  V30 21020 C 1988.03 3.72427 -3.83669 0
M  V30 21021 C 1989.33 1.81317 -4.89818 0
M  V30 21022 H 1991.02 0.774129 -2.89219 0
M  V30 21023 H 1988.57 0.370935 -1.3914 0
M  V30 21024 H 1990.52 3.20597 -2.73487 0
M  V30 21025 H 1989.25 2.88283 -1.53495 0
M  V30 21026 H 1987.9 1.64893 -3.27423 0
M  V30 21027 H 1987.55 4.09887 -2.9155 0
M  V30 21028 H 1987.25 3.64215 -4.61109 0
M  V30 21029 H 1988.78 4.46242 -4.16773 0
M  V30 21030 H 1990.19 2.43429 -5.19052 0
M  V30 21031 H 1988.59 1.83941 -5.71214 0
M  V30 21032 H 1989.66 0.770291 -4.78743 0
M  V30 21033 N 1991 1.52564 0.395213 0
M  V30 21034 C 1992.42 1.41677 0.73484 0
M  V30 21035 C 1992.62 0.53226 1.94343 0
M  V30 21036 O 1991.67 0.00333606 2.525 0
M  V30 21037 C 1992.99 2.84429 0.975749 0
M  V30 21038 C 1994.53 2.93865 1.07761 0
M  V30 21039 C 1995.01 4.37615 1.35119 0
M  V30 21040 N 1996.5 4.40912 1.41954 0
M  V30 21041 C 1997.23 5.49215 1.64775 0
M  V30 21042 N 1996.73 6.67613 1.85109 0
M  V30 21043 N 1998.52 5.36749 1.66904 0
M  V30 21044 H 1990.67 2.08597 -0.400145 0
M  V30 21045 H 1992.94 0.940777 -0.116804 0
M  V30 21046 H 1992.64 3.51336 0.159881 0
M  V30 21047 H 1992.52 3.2631 1.89213 0
M  V30 21048 H 1994.9 2.27129 1.88405 0
M  V30 21049 H 1994.99 2.55421 0.139278 0
M  V30 21050 H 1994.63 5.04915 0.549865 0
M  V30 21051 H 1994.56 4.73607 2.30226 0
M  V30 21052 H 1997.05 3.55572 1.27973 0
M  V30 21053 H 1997.36 7.4593 2.02012 0
M  V30 21054 H 1995.71 6.70653 1.82346 0
M  V30 21055 H 1998.9 4.43224 1.50566 0
M  V30 21056 H 1999.07 6.21224 1.8435 0
M  V30 21057 N 1992.48 -0.653289 1.43422 0
M  V30 21058 C 1993.43 -1.75934 1.45021 0
M  V30 21059 C 1994.41 -1.57713 0.318677 0
M  V30 21060 O 1995.6 -1.67826 0.562454 0
M  V30 21061 C 1992.73 -3.14521 1.37591 0
M  V30 21062 C 1991.82 -3.38291 2.55773 0
M  V30 21063 N 1992.21 -3.32534 3.81123 0
M  V30 21064 C 1990.51 -3.6901 2.50495 0
M  V30 21065 C 1991.21 -3.56383 4.59746 0
M  V30 21066 N 1990.19 -3.78192 3.90476 0
M  V30 21067 H 1993.99 -1.69909 2.39809 0
M  V30 21068 H 1991.5 -0.854954 1.38074 0
M  V30 21069 H 1993.5 -3.9381 1.36819 0
M  V30 21070 H 1992.16 -3.21729 0.438229 0
M  V30 21071 H 1993.17 -3.11948 4.13412 0
M  V30 21072 H 1989.85 -3.83333 1.65415 0
M  V30 21073 H 1991.24 -3.57711 5.68764 0
M  V30 21074 N 1993.96 -1.29952 -0.891648 0
M  V30 21075 C 1995.18 -1.21422 -1.68141 0
M  V30 21076 C 1995.61 0.220633 -1.86802 0
M  V30 21077 O 1994.96 1.15902 -1.39414 0
M  V30 21078 C 1995.01 -1.94116 -3.03894 0
M  V30 21079 O 1994.12 -1.26369 -3.92562 0
M  V30 21080 H 1993.46 -0.420318 -0.514032 0
M  V30 21081 H 1995.99 -1.71658 -1.11331 0
M  V30 21082 H 1996 -2.02881 -3.53982 0
M  V30 21083 H 1994.67 -2.98474 -2.89631 0
M  V30 21084 H 1993.25 -1.25915 -3.50998 0
M  V30 21085 N 1995.44 1.1031 -1.12559 0
M  V30 21086 C 1996.66 1.86078 -0.90458 0
M  V30 21087 C 1997.08 1.80726 0.546224 0
M  V30 21088 O 1996.44 1.1969 1.3777 0
M  V30 21089 C 1996.49 3.34425 -1.37268 0
M  V30 21090 O 1996.21 3.39691 -2.76661 0
M  V30 21091 C 1997.71 4.27063 -1.18879 0
M  V30 21092 H 1994.93 0.588055 -0.32316 0
M  V30 21093 H 1997.47 1.39441 -1.49588 0
M  V30 21094 H 1995.63 3.78523 -0.824578 0
M  V30 21095 H 1996.04 4.3215 -2.97232 0
M  V30 21096 H 1997.52 5.29345 -1.56518 0
M  V30 21097 H 1997.99 4.39009 -0.129502 0
M  V30 21098 H 1998.6 3.88771 -1.72445 0
M  V30 21099 N 1996.91 0.917694 1.28125 0
M  V30 21100 C 1997.82 0.414339 2.30912 0
M  V30 21101 C 1998.84 -0.49998 1.66662 0
M  V30 21102 O 2000.02 -0.385213 1.97682 0
M  V30 21103 C 1997.08 -0.333886 3.45089 0
M  V30 21104 C 1996.14 0.614131 4.24885 0
M  V30 21105 C 1995.37 -0.0984806 5.33609 0
M  V30 21106 O 1995.6 -1.31956 5.54927 0
M  V30 21107 O 1994.53 0.568228 5.99212 0
M  V30 21108 H 1998.36 1.26755 2.75984 0
M  V30 21109 H 1995.94 0.682661 1.32891 0
M  V30 21110 H 1997.82 -0.756311 4.14557 0
M  V30 21111 H 1996.5 -1.16286 3.02091 0
M  V30 21112 H 1995.41 1.08603 3.57989 0
M  V30 21113 H 1996.74 1.41003 4.71571 0
M  V30 21114 N 1998.39 -1.42074 0.682102 0
M  V30 21115 C 1999.32 -2.33489 0.0224223 0
M  V30 21116 C 2000.3 -1.51082 -0.781557 0
M  V30 21117 O 2001.49 -1.79662 -0.737243 0
M  V30 21118 C 1998.62 -3.34773 -0.92434 0
M  V30 21119 C 1997.57 -4.2739 -0.228431 0
M  V30 21120 C 1996.9 -5.1894 -1.28863 0
M  V30 21121 C 1998.2 -5.14539 0.897035 0
M  V30 21122 H 1999.89 -2.88901 0.785898 0
M  V30 21123 H 1997.44 -1.38913 0.379376 0
M  V30 21124 H 1999.39 -3.97641 -1.39497 0
M  V30 21125 H 1998.11 -2.77681 -1.71932 0
M  V30 21126 H 1996.77 -3.65927 0.222034 0
M  V30 21127 H 1996.42 -4.5817 -2.07579 0
M  V30 21128 H 1996.12 -5.81736 -0.828084 0
M  V30 21129 H 1997.65 -5.84683 -1.76005 0
M  V30 21130 H 1999.06 -5.71051 0.507296 0
M  V30 21131 H 1997.46 -5.86206 1.28383 0
M  V30 21132 H 1998.53 -4.52505 1.74263 0
M  V30 21133 N 1999.87 -0.425924 -1.51735 0
M  V30 21134 C 2001.12 0.144343 -2.01985 0
M  V30 21135 C 2001.44 1.43704 -1.31071 0
M  V30 21136 O 2000.7 1.91341 -0.410741 0
M  V30 21137 C 2001 0.421964 -3.549 0
M  V30 21138 C 2000.66 -0.78354 -4.4404 0
M  V30 21139 C 1999.33 -1.11416 -4.68124 0
M  V30 21140 C 2001.68 -1.58827 -4.9641 0
M  V30 21141 C 1999.01 -2.25041 -5.41824 0
M  V30 21142 C 2001.36 -2.71542 -5.71356 0
M  V30 21143 C 2000.02 -3.05071 -5.93707 0
M  V30 21144 H 1999.29 0.0528187 -0.739115 0
M  V30 21145 H 2001.94 -0.570784 -1.82796 0
M  V30 21146 H 2000.24 1.21885 -3.72359 0
M  V30 21147 H 2001.94 0.876435 -3.91305 0
M  V30 21148 H 1998.53 -0.515891 -4.25484 0
M  V30 21149 H 2002.72 -1.34606 -4.77698 0
M  V30 21150 H 1997.97 -2.51346 -5.57347 0
M  V30 21151 H 2002.15 -3.34275 -6.10928 0
M  V30 21152 H 1999.77 -3.93229 -6.50596 0
M  V30 21153 N 2001.35 1.56817 -0.156891 0
M  V30 21154 C 2002.28 2.13062 0.817296 0
M  V30 21155 C 2003.26 1.05681 1.23573 0
M  V30 21156 O 2004.44 1.33571 1.33008 0
M  V30 21157 C 2001.57 2.65841 2.09872 0
M  V30 21158 C 2000.62 3.85461 1.82544 0
M  V30 21159 S 2001.45 5.25935 1.00758 0
M  V30 21160 C 2002.6 5.8211 2.29998 0
M  V30 21161 H 2002.84 2.95361 0.339029 0
M  V30 21162 H 2000.37 1.54293 0.0575539 0
M  V30 21163 H 2002.33 2.96898 2.83481 0
M  V30 21164 H 2000.99 1.83655 2.54813 0
M  V30 21165 H 2000.18 4.20668 2.77587 0
M  V30 21166 H 1999.78 3.55215 1.17039 0
M  V30 21167 H 2002.08 5.94144 3.25574 0
M  V30 21168 H 2003.02 6.7948 1.99281 0
M  V30 21169 H 2003.43 5.10423 2.41099 0
M  V30 21170 N 2002.83 -0.116876 1.57166 0
M  V30 21171 C 2004.1 -0.854715 1.75937 0
M  V30 21172 C 2004.48 -1.97969 0.732908 0
M  V30 21173 O 2003.83 -2.27207 -0.242738 0
M  V30 21174 C 2004.04 -1.36944 3.2101 0
M  V30 21175 C 2005.39 -1.82093 3.83572 0
M  V30 21176 O 2006.41 -1.46618 3.24625 0
M  V30 21177 O 2005.27 -2.47614 4.87186 0
M  V30 21178 H 2002.37 -0.40605 0.720453 0
M  V30 21179 H 2004.91 -0.100451 1.69402 0
M  V30 21180 H 2003.68 -0.56241 3.87237 0
M  V30 21181 H 2003.31 -2.18635 3.32091 0
M  V30 21182 N 2004.3 -1.52772 -0.387116 0
M  V30 21183 C 2005.53 -1.72086 -1.15763 0
M  V30 21184 C 2005.95 -0.43912 -1.82903 0
M  V30 21185 O 2005.31 0.605254 -1.70899 0
M  V30 21186 C 2005.36 -2.87248 -2.17992 0
M  V30 21187 O 2004.46 -2.54353 -3.2462 0
M  V30 21188 H 2003.8 -0.572174 -0.336918 0
M  V30 21189 H 2006.33 -1.99571 -0.450833 0
M  V30 21190 H 2006.34 -3.12798 -2.61957 0
M  V30 21191 H 2005.02 -3.80232 -1.68513 0
M  V30 21192 H 2003.6 -2.39551 -2.8578 0
M  V30 21193 N 2005.78 0.645673 -1.43767 0
M  V30 21194 C 2007.03 1.4027 -1.45495 0
M  V30 21195 C 2007.35 1.94822 -0.0832023 0
M  V30 21196 O 2006.62 1.74895 0.882519 0
M  V30 21197 H 2005.2 0.520611 -0.535699 0
M  V30 21198 H 2007.86 0.760978 -1.7943 0
M  V30 21199 H 2006.96 2.24129 -2.17192 0
M  V30 21200 N 2007.26 1.30423 0.884744 0
M  V30 21201 C 2008.51 1.19259 1.63657 0
M  V30 21202 C 2008.83 -0.252645 1.92852 0
M  V30 21203 O 2008.09 -1.19718 1.5481 0
M  V30 21204 C 2008.39 1.96681 2.98415 0
M  V30 21205 C 2008.05 3.46298 2.8877 0
M  V30 21206 C 2006.72 3.87098 2.85847 0
M  V30 21207 C 2009.07 4.41573 2.7688 0
M  V30 21208 C 2006.4 5.21464 2.68873 0
M  V30 21209 C 2008.75 5.76047 2.61444 0
M  V30 21210 C 2007.41 6.16085 2.56896 0
M  V30 21211 H 2006.68 0.436399 0.598863 0
M  V30 21212 H 2009.33 1.61527 1.02865 0
M  V30 21213 H 2007.63 1.47049 3.63158 0
M  V30 21214 H 2009.33 1.85436 3.55548 0
M  V30 21215 H 2005.92 3.13877 2.91855 0
M  V30 21216 H 2010.11 4.10994 2.78205 0
M  V30 21217 H 2005.36 5.51577 2.63766 0
M  V30 21218 H 2009.54 6.49509 2.51218 0
M  V30 21219 H 2007.16 7.20147 2.43501 0
M  V30 21220 N 2008.74 -1.09711 1.13142 0
M  V30 21221 C 2009.96 -1.86136 0.914785 0
M  V30 21222 C 2010.39 -1.80448 -0.531035 0
M  V30 21223 O 2009.75 -1.17983 -1.37658 0
M  V30 21224 C 2009.79 -3.32164 1.40356 0
M  V30 21225 O 2008.9 -4.08203 0.586881 0
M  V30 21226 H 2008.24 -0.577287 0.328079 0
M  V30 21227 H 2010.77 -1.38563 1.50537 0
M  V30 21228 H 2010.78 -3.83013 1.40589 0
M  V30 21229 H 2009.45 -3.35619 2.45628 0
M  V30 21230 H 2008.03 -3.67153 0.652163 0
M  V30 21231 N 2010.22 -0.924476 -1.27637 0
M  V30 21232 C 2011.63 -0.608255 -1.76514 0
M  V30 21233 C 2011.98 0.87656 -1.7553 0
M  V30 21234 O 2011.1 1.68587 -1.35674 0
M  V30 21235 C 2011.7 -1.09738 -3.20536 0
M  V30 21236 C 2010.26 -0.831881 -3.67092 0
M  V30 21237 C 2009.4 -1.25795 -2.47125 0
M  V30 21238 H 2012.36 -1.1046 -1.13949 0
M  V30 21239 H 2012.38 -0.443602 -3.77905 0
M  V30 21240 H 2011.89 -2.17806 -3.21219 0
M  V30 21241 H 2009.99 0.235141 -3.71857 0
M  V30 21242 H 2010.1 -1.44716 -4.56721 0
M  V30 21243 H 2008.47 -0.676541 -2.4555 0
M  V30 21244 H 2009.25 -2.34721 -2.50521 0
M  V30 21245 N 2011.69 1.41711 -0.689627 0
M  V30 21246 C 2012.62 2.33474 -0.0348045 0
M  V30 21247 C 2013.61 1.51494 0.773533 0
M  V30 21248 O 2014.79 1.8005 0.727705 0
M  V30 21249 C 2011.92 3.35259 0.906573 0
M  V30 21250 C 2010.87 4.27505 0.205762 0
M  V30 21251 C 2010.2 5.19616 1.26109 0
M  V30 21252 C 2011.5 5.14056 -0.92431 0
M  V30 21253 H 2013.19 2.88481 -0.801208 0
M  V30 21254 H 2010.74 1.3871 -0.386738 0
M  V30 21255 H 2012.69 3.98375 1.37386 0
M  V30 21256 H 2011.42 2.78589 1.70457 0
M  V30 21257 H 2010.08 3.65804 -0.241437 0
M  V30 21258 H 2009.72 4.59264 2.05147 0
M  V30 21259 H 2009.42 5.82167 0.797221 0
M  V30 21260 H 2010.95 5.85609 1.72901 0
M  V30 21261 H 2012.36 5.70774 -0.537573 0
M  V30 21262 H 2010.76 5.85517 -1.3149 0
M  V30 21263 H 2011.83 4.51574 -1.7666 0
M  V30 21264 N 2013.17 0.433965 1.51507 0
M  V30 21265 C 2014.41 -0.132843 2.03968 0
M  V30 21266 C 2014.78 -1.40254 1.31122 0
M  V30 21267 O 2015.98 -2.04937 1.73937 0
M  V30 21268 C 2014.25 -0.349825 3.55684 0
M  V30 21269 S 2015.81 -0.880522 4.29875 0
M  V30 21270 H 2012.63 -0.0334314 0.710214 0
M  V30 21271 H 2015.23 0.592595 1.86302 0
M  V30 21272 H 2013.93 0.580659 4.06271 0
M  V30 21273 H 2013.46 -1.10244 3.77637 0
M  V30 21274 H 2015.48 -2.15847 4.46794 0
M  V30 21275 N 2014.65 -1.56732 0.165206 0
M  V30 21276 C 2015.58 -2.1483 -0.798785 0
M  V30 21277 C 2016.6 -1.10232 -1.19803 0
M  V30 21278 O 2017.78 -1.37442 -1.13894 0
M  V30 21279 C 2014.88 -2.67108 -2.08583 0
M  V30 21280 C 2014.06 -3.96299 -1.8511 0
M  V30 21281 C 2013.12 -4.33702 -2.97975 0
M  V30 21282 O 2012.14 -5.01692 -2.68875 0
M  V30 21283 N 2013.34 -3.94762 -4.25609 0
M  V30 21284 H 2016.11 -2.98173 -0.302127 0
M  V30 21285 H 2013.67 -1.6189 -0.0177783 0
M  V30 21286 H 2015.66 -2.89132 -2.8317 0
M  V30 21287 H 2014.23 -1.88388 -2.49457 0
M  V30 21288 H 2013.45 -3.82715 -0.944608 0
M  V30 21289 H 2014.74 -4.80686 -1.66788 0
M  V30 21290 H 2014.14 -3.40014 -4.52114 0
M  V30 21291 H 2012.7 -4.218 -4.96919 0
M  V30 21292 N 2016.13 0.10854 -1.57226 0
M  V30 21293 C 2017.54 0.462379 -1.52755 0
M  V30 21294 C 2017.74 1.81276 -0.87985 0
M  V30 21295 O 2016.8 2.48151 -0.466628 0
M  V30 21296 C 2018.11 0.437241 -2.97504 0
M  V30 21297 C 2019.66 0.520052 -3.08649 0
M  V30 21298 C 2020.14 0.525198 -4.54979 0
M  V30 21299 N 2021.63 0.586339 -4.59474 0
M  V30 21300 C 2022.36 0.61194 -5.70125 0
M  V30 21301 N 2021.86 0.594556 -6.90244 0
M  V30 21302 N 2023.65 0.655738 -5.58262 0
M  V30 21303 H 2015.8 -0.776135 -1.97712 0
M  V30 21304 H 2018.07 -0.287457 -0.903367 0
M  V30 21305 H 2017.77 -0.487552 -3.48304 0
M  V30 21306 H 2017.65 1.2612 -3.55491 0
M  V30 21307 H 2020.03 1.43526 -2.57845 0
M  V30 21308 H 2020.11 -0.331795 -2.53639 0
M  V30 21309 H 2019.76 -0.386013 -5.06431 0
M  V30 21310 H 2019.69 1.39407 -5.07812 0
M  V30 21311 H 2022.18 0.605514 -3.73017 0
M  V30 21312 H 2022.49 0.617002 -7.70333 0
M  V30 21313 H 2020.84 0.561814 -6.92726 0
M  V30 21314 H 2024.03 0.666756 -4.63327 0
M  V30 21315 H 2024.2 0.672222 -6.44504 0
M  V30 21316 N 2017.61 1.52975 0.379009 0
M  V30 21317 C 2018.54 1.73226 1.48553 0
M  V30 21318 C 2019.52 0.58029 1.51893 0
M  V30 21319 O 2020.7 0.81129 1.70148 0
M  V30 21320 C 2017.83 1.79892 2.86978 0
M  V30 21321 C 2016.87 3.01741 3.01421 0
M  V30 21322 S 2017.71 4.61527 2.71576 0
M  V30 21323 C 2018.86 4.71022 4.12176 0
M  V30 21324 H 2019.1 2.66808 1.31151 0
M  V30 21325 H 2016.63 1.43393 0.572513 0
M  V30 21326 H 2018.59 1.84418 3.66743 0
M  V30 21327 H 2017.25 0.873851 3.017 0
M  V30 21328 H 2016.44 3.02975 4.02768 0
M  V30 21329 H 2016.04 2.95258 2.29562 0
M  V30 21330 H 2018.34 4.50251 5.06241 0
M  V30 21331 H 2019.28 5.73052 4.15953 0
M  V30 21332 H 2019.69 3.99772 3.98551 0
M  V30 21333 N 2019.08 -0.63804 1.44107 0
M  V30 21334 C 2020.33 -1.39496 1.46237 0
M  V30 21335 C 2020.65 -1.94776 0.093533 0
M  V30 21336 O 2019.92 -1.75361 -0.873231 0
M  V30 21337 H 2018.5 -0.517763 0.538452 0
M  V30 21338 H 2021.17 -0.751452 1.79831 0
M  V30 21339 H 2020.26 -2.22974 2.18378 0
M  V30 21340 N 2020.56 -1.3089 -0.877815 0
M  V30 21341 C 2021.53 -1.17848 -1.96582 0
M  V30 21342 C 2022.53 -0.10772 -1.60439 0
M  V30 21343 O 2023.72 -0.356388 -1.70515 0
M  V30 21344 C 2020.85 -0.80715 -3.31207 0
M  V30 21345 H 2022.04 -2.14516 -2.09578 0
M  V30 21346 H 2019.59 -1.14389 -1.06512 0
M  V30 21347 H 2020.33 0.158713 -3.23911 0
M  V30 21348 H 2020.11 -1.58105 -3.58811 0
M  V30 21349 H 2021.6 -0.739575 -4.10999 0
M  V30 21350 N 2022.04 1.0911 -1.13723 0
M  V30 21351 C 2022.97 2.15129 -0.761226 0
M  V30 21352 C 2023.95 1.60603 0.254079 0
M  V30 21353 O 2025.14 1.87943 0.14482 0
M  V30 21354 C 2022.26 3.38454 -0.129002 0
M  V30 21355 C 2021.31 4.11713 -1.11332 0
M  V30 21356 S 2022.14 4.65488 -2.64729 0
M  V30 21357 C 2023.3 5.92108 -2.02876 0
M  V30 21358 H 2023.53 2.46691 -1.65924 0
M  V30 21359 H 2021.06 1.21109 -0.957709 0
M  V30 21360 H 2023.02 4.09859 0.229363 0
M  V30 21361 H 2021.68 3.05104 0.746329 0
M  V30 21362 H 2020.88 5.00186 -0.618842 0
M  V30 21363 H 2020.48 3.46186 -1.41532 0
M  V30 21364 H 2022.77 6.633 -1.37981 0
M  V30 21365 H 2023.71 6.46241 -2.89444 0
M  V30 21366 H 2024.12 5.4478 -1.479 0
M  V30 21367 N 2023.52 0.931232 1.27145 0
M  V30 21368 C 2024.76 0.574376 1.94496 0
M  V30 21369 C 2025.1 -0.882702 1.7298 0
M  V30 21370 O 2024.37 -1.63016 1.06094 0
M  V30 21371 C 2024.66 0.905384 3.48532 0
M  V30 21372 C 2024.51 2.41647 3.79377 0
M  V30 21373 C 2025.83 0.413756 4.38151 0
M  V30 21374 H 2022.95 0.210149 0.706404 0
M  V30 21375 H 2025.59 1.16365 1.50197 0
M  V30 21376 H 2023.74 0.403903 3.86395 0
M  V30 21377 H 2025.41 2.98992 3.51286 0
M  V30 21378 H 2023.65 2.86417 3.25803 0
M  V30 21379 H 2024.32 2.5986 4.87008 0
M  V30 21380 H 2026.8 0.843592 4.07459 0
M  V30 21381 H 2025.68 0.67428 5.44743 0
M  V30 21382 H 2025.94 -0.686214 4.36742 0
M  V30 21383 N 2025 -1.41343 0.697132 0
M  V30 21384 C 2025.96 -2.29162 0.0417336 0
M  V30 21385 C 2026.96 -1.44455 -0.706353 0
M  V30 21386 O 2028.15 -1.65586 -0.54101 0
M  V30 21387 C 2025.28 -3.2736 -0.951235 0
M  V30 21388 H 2026.48 -2.88614 0.814974 0
M  V30 21389 H 2024.03 -1.49356 0.460717 0
M  V30 21390 H 2024.76 -2.7289 -1.75218 0
M  V30 21391 H 2024.55 -3.89866 -0.417931 0
M  V30 21392 H 2026.04 -3.93164 -1.40756 0
M  V30 21393 N 2026.48 -0.441993 -1.51275 0
M  V30 21394 C 2027.72 0.122911 -2.02127 0
M  V30 21395 C 2028.05 1.42305 -1.32588 0
M  V30 21396 O 2027.31 1.90895 -0.431013 0
M  V30 21397 C 2027.6 0.384298 -3.55328 0
M  V30 21398 C 2027.27 -0.830593 -4.43184 0
M  V30 21399 C 2025.93 -1.16375 -4.66916 0
M  V30 21400 C 2028.28 -1.64084 -4.94698 0
M  V30 21401 C 2025.61 -2.30775 -5.39407 0
M  V30 21402 C 2027.96 -2.77587 -5.68444 0
M  V30 21403 C 2026.63 -3.11351 -5.90438 0
M  V30 21404 H 2025.9 0.0449764 -0.739634 0
M  V30 21405 H 2028.55 -0.59014 -1.8218 0
M  V30 21406 H 2026.85 1.17929 -3.73631 0
M  V30 21407 H 2028.55 0.834882 -3.92213 0
M  V30 21408 H 2025.14 -0.560991 -4.24913 0
M  V30 21409 H 2029.32 -1.39665 -4.76243 0
M  V30 21410 H 2024.58 -2.57243 -5.54649 0
M  V30 21411 H 2028.75 -3.40736 -6.07348 0
M  V30 21412 H 2026.38 -4.00108 -6.46388 0
M  V30 21413 N 2027.95 1.56642 -0.173515 0
M  V30 21414 C 2029.37 1.58552 0.182625 0
M  V30 21415 C 2029.57 1.18895 1.62685 0
M  V30 21416 O 2028.63 0.901576 2.35856 0
M  V30 21417 C 2029.94 3.00533 -0.100181 0
M  V30 21418 C 2031.49 3.12976 -0.038567 0
M  V30 21419 C 2031.96 4.57053 -0.294392 0
M  V30 21420 N 2033.45 4.62566 -0.242245 0
M  V30 21421 C 2034.19 5.71901 -0.414333 0
M  V30 21422 N 2033.68 6.89785 -0.645597 0
M  V30 21423 N 2035.48 5.61009 -0.350085 0
M  V30 21424 H 2027.63 1.80706 -1.1162 0
M  V30 21425 H 2029.89 0.837643 -0.443912 0
M  V30 21426 H 2029.6 3.34031 -1.10073 0
M  V30 21427 H 2029.47 3.72281 0.607196 0
M  V30 21428 H 2031.86 2.79303 0.952559 0
M  V30 21429 H 2031.94 2.4366 -0.778688 0
M  V30 21430 H 2031.58 4.91435 -1.28274 0
M  V30 21431 H 2031.51 5.24531 0.466366 0
M  V30 21432 H 2034 3.77837 -0.0692351 0
M  V30 21433 H 2034.32 7.68991 -0.766299 0
M  V30 21434 H 2032.66 6.91643 -0.682238 0
M  V30 21435 H 2035.85 4.67791 -0.169986 0
M  V30 21436 H 2036.03 6.46163 -0.487625 0
M  V30 21437 N 2029.43 -0.1002 1.57281 0
M  V30 21438 C 2030.85 -0.454271 1.52998 0
M  V30 21439 C 2031.05 -1.80807 0.889451 0
M  V30 21440 O 2030.1 -2.479 0.479781 0
M  V30 21441 C 2031.42 -0.421457 2.97732 0
M  V30 21442 C 2032.96 -0.503676 3.08921 0
M  V30 21443 C 2033.44 -0.501062 4.55251 0
M  V30 21444 N 2034.93 -0.561964 4.59778 0
M  V30 21445 C 2035.67 -0.581696 5.70442 0
M  V30 21446 N 2035.16 -0.557942 6.9055 0
M  V30 21447 N 2036.95 -0.626123 5.58602 0
M  V30 21448 H 2029.11 0.786609 1.97297 0
M  V30 21449 H 2031.37 0.292244 0.90183 0
M  V30 21450 H 2031.07 0.506016 3.48041 0
M  V30 21451 H 2030.95 -1.24233 3.56154 0
M  V30 21452 H 2033.34 -1.42157 2.58603 0
M  V30 21453 H 2033.42 0.345241 2.5346 0
M  V30 21454 H 2033.06 0.412865 5.06219 0
M  V30 21455 H 2032.99 -1.36712 5.08544 0
M  V30 21456 H 2035.48 -0.585723 3.73333 0
M  V30 21457 H 2035.79 -0.576141 7.70649 0
M  V30 21458 H 2034.14 -0.52507 6.93014 0
M  V30 21459 H 2037.33 -0.642175 4.63674 0
M  V30 21460 H 2037.5 -0.638033 6.44851 0
M  V30 21461 N 2030.91 -1.53174 -0.370891 0
M  V30 21462 C 2032.16 -1.69098 -1.11409 0
M  V30 21463 C 2032.48 -0.440066 -1.89456 0
M  V30 21464 O 2031.74 0.577901 -1.86973 0
M  V30 21465 C 2032.04 -2.88881 -2.10435 0
M  V30 21466 C 2031.7 -4.25602 -1.48908 0
M  V30 21467 C 2030.37 -4.62782 -1.31856 0
M  V30 21468 C 2032.72 -5.10648 -1.04346 0
M  V30 21469 C 2030.05 -5.8265 -0.688168 0
M  V30 21470 C 2032.4 -6.31157 -0.427093 0
M  V30 21471 C 2031.06 -6.67054 -0.244019 0
M  V30 21472 H 2030.33 -0.618775 -0.407674 0
M  V30 21473 H 2032.98 -1.8735 -0.396513 0
M  V30 21474 H 2031.28 -2.65119 -2.88477 0
M  V30 21475 H 2032.98 -2.98396 -2.67882 0
M  V30 21476 H 2029.57 -3.96324 -1.63173 0
M  V30 21477 H 2033.76 -4.82477 -1.16315 0
M  V30 21478 H 2029.01 -6.09057 -0.53469 0
M  V30 21479 H 2033.19 -6.96361 -0.0735755 0
M  V30 21480 H 2030.81 -7.598 0.246525 0
M  V30 21481 N 2032.39 0.630389 -1.44443 0
M  V30 21482 C 2033.3 1.77101 -1.53859 0
M  V30 21483 C 2034.31 1.68749 -0.424221 0
M  V30 21484 O 2035.49 1.89513 -0.681673 0
M  V30 21485 C 2032.55 3.13487 -1.48077 0
M  V30 21486 C 2031.62 3.33464 -2.7037 0
M  V30 21487 C 2030.85 4.63344 -2.64855 0
M  V30 21488 O 2031.07 5.44196 -1.70899 0
M  V30 21489 O 2030.01 4.85539 -3.55718 0
M  V30 21490 H 2033.83 1.7211 -2.50223 0
M  V30 21491 H 2031.42 0.791704 -1.26698 0
M  V30 21492 H 2033.3 3.94788 -1.47378 0
M  V30 21493 H 2031.97 3.19018 -0.54856 0
M  V30 21494 H 2030.88 2.51839 -2.76637 0
M  V30 21495 H 2032.21 3.32795 -3.6264 0
M  V30 21496 N 2033.87 1.31354 0.870861 0
M  V30 21497 C 2035.14 1.11627 1.6062 0
M  V30 21498 C 2035.52 -0.329351 2.08515 0
M  V30 21499 O 2034.87 -1.3233 1.86282 0
M  V30 21500 C 2035.08 2.12968 2.76488 0
M  V30 21501 C 2036.43 2.45442 3.46473 0
M  V30 21502 O 2037.45 2.11388 2.86694 0
M  V30 21503 O 2036.31 3.03753 4.54309 0
M  V30 21504 H 2033.41 0.429682 0.706614 0
M  V30 21505 H 2035.95 1.42829 0.916402 0
M  V30 21506 H 2034.72 3.10212 2.38504 0
M  V30 21507 H 2034.35 1.82666 3.53156 0
M  V30 21508 N 2035.34 -1.08505 1.143 0
M  V30 21509 C 2036.59 -1.80872 0.910589 0
M  V30 21510 C 2036.92 -1.86177 -0.562883 0
M  V30 21511 O 2036.17 -1.33282 -1.43299 0
M  V30 21512 C 2036.47 -3.26425 1.45538 0
M  V30 21513 C 2036.14 -3.41239 2.94732 0
M  V30 21514 C 2034.8 -3.44989 3.35464 0
M  V30 21515 C 2037.15 -3.45 3.90672 0
M  V30 21516 C 2034.48 -3.5009 4.70801 0
M  V30 21517 C 2036.83 -3.51637 5.25865 0
M  V30 21518 C 2035.5 -3.53659 5.66111 0
M  V30 21519 H 2034.77 -0.661856 0.333208 0
M  V30 21520 H 2037.41 -1.27762 1.4265 0
M  V30 21521 H 2035.72 -3.82237 0.860376 0
M  V30 21522 H 2037.42 -3.8097 1.25151 0
M  V30 21523 H 2034.01 -3.39011 2.6224 0
M  V30 21524 H 2038.19 -3.41334 3.60284 0
M  V30 21525 H 2033.45 -3.49949 5.01344 0
M  V30 21526 H 2037.62 -3.53492 6.00013 0
M  V30 21527 H 2035.25 -3.57365 6.70965 0
M  V30 21528 N 2036.82 -0.937962 -1.26649 0
M  V30 21529 C 2038.05 -0.600464 -1.97995 0
M  V30 21530 C 2038.46 0.823838 -1.69877 0
M  V30 21531 O 2037.82 1.5489 -0.965163 0
M  V30 21532 C 2037.87 -0.829264 -3.5186 0
M  V30 21533 O 2037.59 -2.19754 -3.78998 0
M  V30 21534 C 2039.09 -0.501874 -4.4045 0
M  V30 21535 H 2036.31 -0.226587 -0.631585 0
M  V30 21536 H 2038.86 -1.25779 -1.61245 0
M  V30 21537 H 2037.01 -0.218596 -3.86783 0
M  V30 21538 H 2037.43 -2.25518 -4.73542 0
M  V30 21539 H 2038.9 -0.712605 -5.47381 0
M  V30 21540 H 2039.38 0.56301 -4.35576 0
M  V30 21541 H 2039.98 -1.09113 -4.11065 0
M  V30 21542 N 2038.3 1.40971 -0.704618 0
M  V30 21543 C 2039.72 1.55082 -0.377067 0
M  V30 21544 C 2039.92 1.67827 1.11518 0
M  V30 21545 O 2038.97 1.66173 1.90112 0
M  V30 21546 C 2040.28 2.78517 -1.13352 0
M  V30 21547 C 2041.83 2.92323 -1.11875 0
M  V30 21548 C 2042.31 4.18658 -1.85714 0
M  V30 21549 N 2043.8 4.25635 -1.82728 0
M  V30 21550 C 2044.53 5.22268 -2.36693 0
M  V30 21551 N 2044.03 6.24877 -2.99167 0
M  V30 21552 N 2045.82 5.14271 -2.26897 0
M  V30 21553 H 2037.97 1.30944 -1.67235 0
M  V30 21554 H 2040.24 0.632393 -0.706246 0
M  V30 21555 H 2039.94 2.75339 -2.18818 0
M  V30 21556 H 2039.82 3.70304 -0.717978 0
M  V30 21557 H 2042.2 2.95011 -0.0723296 0
M  V30 21558 H 2042.28 2.01685 -1.57343 0
M  V30 21559 H 2041.93 4.16732 -2.9034 0
M  V30 21560 H 2041.86 5.08285 -1.37674 0
M  V30 21561 H 2044.35 3.52119 -1.37187 0
M  V30 21562 H 2044.66 6.95019 -3.37889 0
M  V30 21563 H 2043.01 6.25353 -3.03247 0
M  V30 21564 H 2046.2 4.33037 -1.77755 0
M  V30 21565 H 2046.37 5.89411 -2.69256 0
M  V30 21566 N 2039.78 0.45001 1.51039 0
M  V30 21567 C 2040.73 -0.369268 2.2965 0
M  V30 21568 C 2041.72 -1.00952 1.36034 0
M  V30 21569 O 2042.93 -0.943032 1.5332 0
M  V30 21570 H 2039.3 -0.137907 0.739247 0
M  V30 21571 H 2041.27 0.314433 2.96739 0
M  V30 21572 C 2040.02 -1.45082 3.15985 0
M  V30 21573 H 2039.34 -0.967533 3.87916 0
M  V30 21574 H 2040.78 -1.99707 3.74023 0
M  V30 21575 C 2039.24 -2.44112 2.32187 0
M  V30 21576 O 2039.77 -3.48929 1.99027 0
M  V30 21577 N 2037.98 -2.1531 1.95167 0
M  V30 21578 H 2037.53 -1.30099 2.22333 0
M  V30 21579 H 2037.48 -2.81807 1.39398 0
M  V30 21580 N 2041.26 -1.56548 0.18182 0
M  V30 21581 C 2042.5 -1.97196 -0.460422 0
M  V30 21582 C 2042.83 -1.06822 -1.6254 0
M  V30 21583 O 2042.09 -0.104496 -1.95421 0
M  V30 21584 C 2042.39 -3.43837 -0.975236 0
M  V30 21585 C 2042.05 -4.50838 0.07496 0
M  V30 21586 C 2040.71 -4.79825 0.363562 0
M  V30 21587 C 2043.07 -5.1522 0.787246 0
M  V30 21588 C 2040.39 -5.70489 1.36966 0
M  V30 21589 C 2042.75 -6.06971 1.7824 0
M  V30 21590 C 2041.41 -6.3432 2.07834 0
M  V30 21591 H 2040.68 -0.721592 -0.16848 0
M  V30 21592 H 2043.33 -1.89501 0.275993 0
M  V30 21593 H 2041.63 -3.48537 -1.78967 0
M  V30 21594 H 2043.33 -3.72636 -1.48134 0
M  V30 21595 H 2039.92 -4.28301 -0.160151 0
M  V30 21596 H 2044.1 -4.92929 0.5775 0
M  V30 21597 H 2039.36 -5.89957 1.605 0
M  V30 21598 H 2043.53 -6.55922 2.33963 0
M  V30 21599 H 2041.16 -7.04374 2.85941 0
M  V30 21600 N 2042.73 0.0918577 -1.57332 0
M  V30 21601 C 2044.01 0.826617 -1.77275 0
M  V30 21602 C 2044.39 1.96778 -0.764311 0
M  V30 21603 O 2043.74 2.27564 0.20656 0
M  V30 21604 C 2043.95 1.3182 -3.23148 0
M  V30 21605 C 2045.3 1.75968 -3.8642 0
M  V30 21606 O 2046.32 1.41435 -3.26917 0
M  V30 21607 O 2045.18 2.39831 -4.91063 0
M  V30 21608 H 2042.27 0.394537 -0.726821 0
M  V30 21609 H 2044.82 0.0734883 -1.69541 0
M  V30 21610 H 2043.59 0.500733 -3.88083 0
M  V30 21611 H 2043.22 2.13324 -3.35527 0
M  V30 21612 N 2044.21 1.53368 0.362763 0
M  V30 21613 C 2045.12 1.82969 1.46832 0
M  V30 21614 C 2046.14 0.718285 1.58482 0
M  V30 21615 O 2047.31 1.00863 1.74323 0
M  V30 21616 C 2044.38 2.01596 2.82064 0
M  V30 21617 C 2043.44 3.25491 2.79918 0
M  V30 21618 C 2042.67 3.4322 4.087 0
M  V30 21619 O 2042.9 2.65185 5.05008 0
M  V30 21620 O 2041.83 4.36585 4.1434 0
M  V30 21621 H 2045.66 2.769 1.24741 0
M  V30 21622 H 2043.24 1.38783 0.553131 0
M  V30 21623 H 2045.12 2.15403 3.62187 0
M  V30 21624 H 2043.8 1.10854 3.04127 0
M  V30 21625 H 2042.71 3.17105 1.98483 0
M  V30 21626 H 2044.04 4.16164 2.62809 0
M  V30 21627 N 2045.69 -0.62272 1.44776 0
M  V30 21628 C 2046.94 -1.38415 1.4822 0
M  V30 21629 C 2047.27 -1.93844 0.117595 0
M  V30 21630 O 2046.54 -1.7416 -0.865935 0
M  V30 21631 C 2046.83 -2.54325 2.54933 0
M  V30 21632 C 2046.68 -2.04192 4.00782 0
M  V30 21633 C 2048 -3.56495 2.58069 0
M  V30 21634 H 2045.12 -0.501939 0.539654 0
M  V30 21635 H 2047.76 -0.703347 1.76502 0
M  V30 21636 H 2045.91 -3.12403 2.30947 0
M  V30 21637 H 2047.58 -1.50879 4.35928 0
M  V30 21638 H 2045.83 -1.35308 4.12158 0
M  V30 21639 H 2046.5 -2.87679 4.7111 0
M  V30 21640 H 2048.97 -3.08232 2.79522 0
M  V30 21641 H 2047.85 -4.35106 3.34625 0
M  V30 21642 H 2048.11 -4.11119 1.62583 0
M  V30 21643 N 2047.17 -1.31814 -0.863883 0
M  V30 21644 C 2048.42 -1.21205 -1.61221 0
M  V30 21645 C 2048.73 0.227073 -1.94277 0
M  V30 21646 O 2049.94 0.454922 -2.67662 0
M  V30 21647 C 2048.39 -2.12221 -2.90672 0
M  V30 21648 C 2048 -3.61163 -2.65076 0
M  V30 21649 C 2049.74 -2.10427 -3.68674 0
M  V30 21650 C 2047.65 -4.44169 -3.90471 0
M  V30 21651 H 2046.58 -0.450072 -0.604939 0
M  V30 21652 H 2049.23 -1.56711 -0.954668 0
M  V30 21653 H 2047.61 -1.6962 -3.57834 0
M  V30 21654 H 2048.79 -4.12049 -2.06283 0
M  V30 21655 H 2047.1 -3.64995 -2.00418 0
M  V30 21656 H 2049.7 -2.69684 -4.61708 0
M  V30 21657 H 2050.04 -1.09293 -4.01697 0
M  V30 21658 H 2050.58 -2.5126 -3.08404 0
M  V30 21659 H 2047.32 -5.46082 -3.62595 0
M  V30 21660 H 2046.84 -3.98039 -4.48693 0
M  V30 21661 H 2048.51 -4.56696 -4.58299 0
M  V30 21662 N 2048.65 1.07897 -1.14873 0
M  V30 21663 C 2049.87 1.84657 -0.944281 0
M  V30 21664 C 2050.3 1.8127 0.50226 0
M  V30 21665 O 2049.65 1.20159 1.35763 0
M  V30 21666 C 2049.7 3.29889 -1.45622 0
M  V30 21667 O 2048.81 4.07217 -0.651748 0
M  V30 21668 H 2048.15 0.571994 -0.337222 0
M  V30 21669 H 2050.68 1.36151 -1.52723 0
M  V30 21670 H 2050.69 3.80727 -1.46665 0
M  V30 21671 H 2049.36 3.31668 -2.50936 0
M  V30 21672 H 2047.94 3.66069 -0.710491 0
M  V30 21673 N 2050.12 0.944665 1.2615 0
M  V30 21674 C 2051.36 0.601621 1.95346 0
M  V30 21675 C 2051.73 -0.844182 1.72446 0
M  V30 21676 O 2052.93 -1.29633 2.35475 0
M  V30 21677 C 2051.2 0.938683 3.44853 0
M  V30 21678 S 2052.76 0.70671 4.33072 0
M  V30 21679 H 2049.58 0.221469 0.675628 0
M  V30 21680 H 2052.18 1.21672 1.53023 0
M  V30 21681 H 2050.88 1.98827 3.59021 0
M  V30 21682 H 2050.41 0.313442 3.92149 0
M  V30 21683 H 2052.43 -0.427395 4.94356 0
M  V30 21684 N 2051.6 -1.40596 0.712085 0
M  V30 21685 C 2052.85 -2.0095 0.250087 0
M  V30 21686 C 2053.18 -1.5645 -1.15558 0
M  V30 21687 O 2052.43 -0.773994 -1.79744 0
M  V30 21688 C 2052.73 -3.56346 0.27427 0
M  V30 21689 C 2052.4 -4.20416 1.62975 0
M  V30 21690 C 2051.06 -4.37632 2.0008 0
M  V30 21691 C 2053.41 -4.56187 2.52076 0
M  V30 21692 C 2050.74 -4.87899 3.2584 0
M  V30 21693 C 2053.09 -5.07853 3.77185 0
M  V30 21694 C 2051.76 -5.23277 4.14412 0
M  V30 21695 H 2051.03 -0.735327 0.0915134 0
M  V30 21696 H 2053.67 -1.68257 0.914427 0
M  V30 21697 H 2051.98 -3.88927 -0.473638 0
M  V30 21698 H 2053.67 -4.00873 -0.100977 0
M  V30 21699 H 2050.26 -4.07403 1.3312 0
M  V30 21700 H 2054.45 -4.42527 2.24686 0
M  V30 21701 H 2049.7 -4.98026 3.54655 0
M  V30 21702 H 2053.88 -5.34509 4.46401 0
M  V30 21703 H 2051.51 -5.6199 5.11929 0
M  V30 21704 N 2053.08 -0.458013 -1.50798 0
M  V30 21705 C 2054.04 0.331466 -2.26791 0
M  V30 21706 C 2055.04 0.931853 -1.31046 0
M  V30 21707 O 2056.23 0.803071 -1.54585 0
M  V30 21708 C 2053.37 1.4709 -3.07534 0
M  V30 21709 H 2054.56 -0.334805 -2.98025 0
M  V30 21710 H 2052.11 -0.211715 -1.54859 0
M  V30 21711 H 2052.85 2.17261 -2.40765 0
M  V30 21712 H 2052.63 1.04634 -3.77881 0
M  V30 21713 H 2054.12 2.02815 -3.65042 0
M  V30 21714 N 2054.56 1.56449 -0.190119 0
M  V30 21715 C 2055.51 2.20194 0.749479 0
M  V30 21716 C 2056.5 1.1716 1.22352 0
M  V30 21717 O 2057.71 1.35317 1.18699 0
M  V30 21718 H 2054.08 0.705613 0.260028 0
M  V30 21719 H 2056.05 2.97807 0.18808 0
M  V30 21720 C 2054.8 2.87151 1.9606 0
M  V30 21721 H 2054.13 3.66174 1.60489 0
M  V30 21722 H 2055.57 3.35198 2.5965 0
M  V30 21723 C 2054.02 1.87921 2.7962 0
M  V30 21724 O 2054.55 1.37638 3.77384 0
M  V30 21725 N 2052.76 1.5626 2.45013 0
M  V30 21726 H 2052.31 1.97343 1.6557 0
M  V30 21727 H 2052.27 0.901217 3.01207 0
M  V30 21728 N 2056.04 -0.0835127 1.57379 0
M  V30 21729 C 2057.28 -0.786031 1.86948 0
M  V30 21730 C 2057.62 -1.77811 0.780828 0
M  V30 21731 O 2056.89 -1.93362 -0.210075 0
M  V30 21732 C 2057.17 -1.50447 3.27166 0
M  V30 21733 C 2057.03 -0.529601 4.46671 0
M  V30 21734 C 2058.35 -2.45226 3.65448 0
M  V30 21735 H 2055.47 -0.284294 0.67996 0
M  V30 21736 H 2058.11 -0.0494231 1.89936 0
M  V30 21737 H 2056.26 -2.13237 3.24749 0
M  V30 21738 H 2057.93 0.0921842 4.61208 0
M  V30 21739 H 2056.17 0.156069 4.33519 0
M  V30 21740 H 2056.84 -1.06967 5.41537 0
M  V30 21741 H 2059.32 -1.92521 3.68883 0
M  V30 21742 H 2058.2 -2.92505 4.6447 0
M  V30 21743 H 2058.46 -3.29506 2.94751 0
M  V30 21744 N 2057.52 -1.53558 -0.354624 0
M  V30 21745 C 2058.93 -1.6184 -0.930847 0
M  V30 21746 C 2059.28 -0.492698 -1.89913 0
M  V30 21747 O 2058.4 0.379247 -2.13051 0
M  V30 21748 C 2059 -2.93348 -1.69506 0
M  V30 21749 C 2057.56 -3.03929 -2.22046 0
M  V30 21750 C 2056.7 -2.57213 -1.03618 0
M  V30 21751 H 2059.65 -1.58141 -0.133086 0
M  V30 21752 H 2059.68 -2.81766 -2.55711 0
M  V30 21753 H 2059.19 -3.75259 -0.990072 0
M  V30 21754 H 2057.29 -2.26629 -2.95753 0
M  V30 21755 H 2057.4 -4.09204 -2.49176 0
M  V30 21756 H 2055.77 -2.12352 -1.40636 0
M  V30 21757 H 2056.55 -3.41552 -0.346003 0
M  V30 21758 N 2058.99 0.615033 -1.45104 0
M  V30 21759 C 2059.94 1.72617 -1.53206 0
M  V30 21760 C 2060.91 1.6173 -0.378499 0
M  V30 21761 O 2062.1 1.81418 -0.590937 0
M  V30 21762 C 2059.24 3.1091 -1.49763 0
M  V30 21763 C 2058.35 3.32657 -2.75615 0
M  V30 21764 C 2057.48 4.61014 -2.63894 0
M  V30 21765 C 2056.52 4.75993 -3.84834 0
M  V30 21766 N 2055.66 5.95642 -3.71692 0
M  V30 21767 H 2060.5 1.65028 -2.48133 0
M  V30 21768 H 2058.04 0.804792 -1.23132 0
M  V30 21769 H 2059.99 3.90911 -1.45755 0
M  V30 21770 H 2058.62 3.17475 -0.583921 0
M  V30 21771 H 2057.68 2.46484 -2.89741 0
M  V30 21772 H 2058.99 3.39601 -3.65339 0
M  V30 21773 H 2058.14 5.49198 -2.5781 0
M  V30 21774 H 2056.88 4.56455 -1.71756 0
M  V30 21775 H 2055.89 3.86234 -3.91284 0
M  V30 21776 H 2057.11 4.82354 -4.78028 0
M  V30 21777 H 2055.06 5.92143 -2.82318 0
M  V30 21778 H 2054.97 6.03713 -4.55046 0
M  V30 21779 H 2056.24 6.86345 -3.69528 0
M  V30 21780 N 2060.47 1.3227 0.85688 0
M  V30 21781 C 2061.75 1.13324 1.59427 0
M  V30 21782 C 2062.13 -0.307216 2.08853 0
M  V30 21783 O 2061.48 -1.30347 1.87675 0
M  V30 21784 C 2061.69 2.15889 2.74213 0
M  V30 21785 C 2063.03 2.49103 3.4385 0
M  V30 21786 O 2064.06 2.14417 2.84436 0
M  V30 21787 O 2062.92 3.08555 4.51061 0
M  V30 21788 H 2060.01 0.437152 0.702016 0
M  V30 21789 H 2062.56 1.43793 0.901202 0
M  V30 21790 H 2061.33 3.12724 2.35201 0
M  V30 21791 H 2060.95 1.86401 3.51198 0
M  V30 21792 N 2061.95 -1.07287 1.15444 0
M  V30 21793 C 2063.18 -1.83614 0.953597 0
M  V30 21794 C 2063.59 -1.82111 -0.498116 0
M  V30 21795 O 2062.95 -1.233 -1.34548 0
M  V30 21796 C 2063 -3.30668 1.46086 0
M  V30 21797 O 2062.72 -3.32236 2.85571 0
M  V30 21798 C 2064.22 -4.23761 1.3016 0
M  V30 21799 H 2061.44 -0.57928 0.338638 0
M  V30 21800 H 2063.99 -1.35426 1.53232 0
M  V30 21801 H 2062.14 -3.76203 0.924647 0
M  V30 21802 H 2062.56 -4.24117 3.08585 0
M  V30 21803 H 2064.03 -5.25009 1.70497 0
M  V30 21804 H 2064.51 -4.38511 0.245852 0
M  V30 21805 H 2065.11 -3.84062 1.82692 0
M  V30 21806 N 2063.43 -0.951342 -1.25647 0
M  V30 21807 C 2064.84 -0.645559 -1.75184 0
M  V30 21808 C 2065.19 0.83913 -1.7735 0
M  V30 21809 O 2064.31 1.65671 -1.3922 0
M  V30 21810 C 2064.91 -1.16512 -3.18136 0
M  V30 21811 C 2063.47 -0.90956 -3.65245 0
M  V30 21812 C 2062.62 -1.31009 -2.44401 0
M  V30 21813 H 2065.57 -1.12852 -1.1158 0
M  V30 21814 H 2065.59 -0.523662 -3.76879 0
M  V30 21815 H 2065.1 -2.24571 -3.16527 0
M  V30 21816 H 2063.2 0.156212 -3.72272 0
M  V30 21817 H 2063.31 -1.54371 -4.53549 0
M  V30 21818 H 2061.68 -0.728474 -2.4406 0
M  V30 21819 H 2062.46 -2.39983 -2.45486 0
M  V30 21820 N 2064.91 1.40216 -0.719531 0
M  V30 21821 C 2065.84 2.33348 -0.08432 0
M  V30 21822 C 2066.82 1.53101 0.741225 0
M  V30 21823 O 2068 1.81553 0.68935 0
M  V30 21824 C 2065.13 3.37106 0.835256 0
M  V30 21825 C 2064.09 4.27845 0.115036 0
M  V30 21826 C 2063.41 5.22174 1.15059 0
M  V30 21827 C 2064.71 5.1198 -1.03314 0
M  V30 21828 H 2066.41 2.86716 -0.862219 0
M  V30 21829 H 2063.95 1.37858 -0.416073 0
M  V30 21830 H 2065.9 4.012 1.28905 0
M  V30 21831 H 2064.63 2.82142 1.6451 0
M  V30 21832 H 2063.29 3.6521 -0.318975 0
M  V30 21833 H 2062.94 4.63513 1.95359 0
M  V30 21834 H 2062.64 5.83727 0.673556 0
M  V30 21835 H 2064.16 5.89144 1.60441 0
M  V30 21836 H 2065.57 5.69505 -0.658522 0
M  V30 21837 H 2063.97 5.82596 -1.4388 0
M  V30 21838 H 2065.04 4.47725 -1.86199 0
M  V30 21839 N 2066.38 0.466004 1.50553 0
M  V30 21840 C 2067.63 -0.0907392 2.02297 0
M  V30 21841 C 2067.96 -1.40178 1.34835 0
M  V30 21842 O 2067.21 -1.90185 0.461328 0
M  V30 21843 C 2067.51 -0.32772 3.55894 0
M  V30 21844 C 2067.18 0.900994 4.41806 0
M  V30 21845 C 2065.84 1.23789 4.65005 0
M  V30 21846 C 2068.19 1.71933 4.92025 0
M  V30 21847 C 2065.52 2.39327 5.35667 0
M  V30 21848 C 2067.87 2.86595 5.63956 0
M  V30 21849 C 2066.54 3.20705 5.8541 0
M  V30 21850 H 2065.81 -0.0332038 0.740256 0
M  V30 21851 H 2068.45 0.619048 1.81218 0
M  V30 21852 H 2066.76 -1.1197 3.7546 0
M  V30 21853 H 2068.46 -0.772379 3.93491 0
M  V30 21854 H 2065.05 0.628519 4.23966 0
M  V30 21855 H 2069.23 1.47224 4.73961 0
M  V30 21856 H 2064.49 2.66035 5.50487 0
M  V30 21857 H 2068.66 3.50355 6.01851 0
M  V30 21858 H 2066.29 4.10341 6.39941 0
M  V30 21859 N 2067.86 -1.56346 0.198413 0
M  V30 21860 C 2069.09 -2.02502 -0.44809 0
M  V30 21861 C 2069.51 -1.07761 -1.54173 0
M  V30 21862 O 2068.87 -0.0616812 -1.81195 0
M  V30 21863 C 2068.92 -3.47073 -0.978394 0
M  V30 21864 O 2068.02 -3.55452 -2.09111 0
M  V30 21865 H 2067.36 -0.655753 -0.104324 0
M  V30 21866 H 2069.89 -2.02234 0.310265 0
M  V30 21867 H 2069.9 -3.86931 -1.29415 0
M  V30 21868 H 2068.58 -4.1552 -0.177819 0
M  V30 21869 H 2067.15 -3.27471 -1.78375 0
M  V30 21870 N 2069.34 0.0751653 -1.57421 0
M  V30 21871 C 2070.25 1.10763 -2.06806 0
M  V30 21872 C 2071.27 1.4261 -0.99691 0
M  V30 21873 O 2072.44 1.52854 -1.31139 0
M  V30 21874 C 2069.51 2.40281 -2.49932 0
M  V30 21875 C 2068.57 2.15435 -3.7133 0
M  V30 21876 C 2067.8 3.38777 -4.1239 0
M  V30 21877 O 2068.02 4.4777 -3.53353 0
M  V30 21878 O 2066.96 3.27189 -5.05204 0
M  V30 21879 H 2070.78 0.718102 -2.95088 0
M  V30 21880 H 2068.37 0.289065 -1.46577 0
M  V30 21881 H 2070.25 3.16509 -2.78208 0
M  V30 21882 H 2068.93 2.7862 -1.64781 0
M  V30 21883 H 2067.83 1.36922 -3.48142 0
M  V30 21884 H 2069.17 1.81978 -4.57324 0
M  V30 21885 N 2070.82 1.53744 0.346476 0
M  V30 21886 C 2071.78 1.80833 1.40826 0
M  V30 21887 C 2072.78 0.679291 1.45747 0
M  V30 21888 O 2073.97 0.947566 1.46174 0
M  V30 21889 C 2071.1 1.94771 2.79781 0
M  V30 21890 H 2072.3 2.75679 1.18071 0
M  V30 21891 H 2069.85 1.45112 0.5807 0
M  V30 21892 H 2070.58 1.02057 3.07823 0
M  V30 21893 H 2070.37 2.76908 2.77605 0
M  V30 21894 H 2071.86 2.17255 3.56637 0
M  V30 21895 N 2072.3 -0.607329 1.45428 0
M  V30 21896 C 2073.71 -0.92811 1.29839 0
M  V30 21897 C 2073.91 -1.99923 0.251614 0
M  V30 21898 O 2072.97 -2.50001 -0.354354 0
M  V30 21899 C 2074.28 -1.36879 2.6774 0
M  V30 21900 C 2075.83 -1.48299 2.75638 0
M  V30 21901 C 2076.3 -1.95743 4.14064 0
M  V30 21902 N 2077.8 -2.02976 4.16359 0
M  V30 21903 C 2078.53 -2.40908 5.20337 0
M  V30 21904 N 2078.03 -2.77807 6.34661 0
M  V30 21905 N 2079.82 -2.41249 5.07696 0
M  V30 21906 H 2071.97 0.100642 2.12161 0
M  V30 21907 H 2074.23 -0.017631 0.947836 0
M  V30 21908 H 2073.94 -0.655923 3.45529 0
M  V30 21909 H 2073.81 -2.33525 2.96219 0
M  V30 21910 H 2076.2 -2.18677 1.98152 0
M  V30 21911 H 2076.28 -0.499667 2.50872 0
M  V30 21912 H 2075.93 -1.25951 4.92035 0
M  V30 21913 H 2075.86 -2.94989 4.36221 0
M  V30 21914 H 2078.35 -1.77048 3.3386 0
M  V30 21915 H 2078.66 -3.05633 7.09794 0
M  V30 21916 H 2077 -2.75502 6.38062 0
M  V30 21917 H 2080.2 -2.11829 4.17428 0
M  V30 21918 H 2080.37 -2.70485 5.88848 0
M  V30 21919 N 2073.77 -1.32722 -0.849853 0
M  V30 21920 C 2075 -1.26568 -1.63671 0
M  V30 21921 C 2075.42 0.165453 -1.88074 0
M  V30 21922 O 2074.77 1.1041 -1.45313 0
M  V30 21923 C 2074.83 -2.027 -2.99324 0
M  V30 21924 O 2074.55 -3.40229 -2.75999 0
M  V30 21925 C 2076.05 -2.03626 -3.93766 0
M  V30 21926 H 2073.27 -0.436491 -0.509624 0
M  V30 21927 H 2075.81 -1.74922 -1.05937 0
M  V30 21928 H 2073.97 -1.58056 -3.53691 0
M  V30 21929 H 2074.38 -3.79256 -3.62305 0
M  V30 21930 H 2075.85 -2.61369 -4.862 0
M  V30 21931 H 2076.33 -1.02373 -4.27102 0
M  V30 21932 H 2076.94 -2.48239 -3.45337 0
M  V30 21933 N 2075.25 1.06673 -1.16011 0
M  V30 21934 C 2076.48 1.83645 -0.963814 0
M  V30 21935 C 2076.9 1.81793 0.483005 0
M  V30 21936 O 2076.26 1.21592 1.34481 0
M  V30 21937 C 2076.31 3.28326 -1.49113 0
M  V30 21938 O 2075.41 4.06503 -0.694902 0
M  V30 21939 H 2074.75 0.568386 -0.343269 0
M  V30 21940 H 2077.28 1.34523 -1.54158 0
M  V30 21941 H 2077.29 3.7915 -1.50695 0
M  V30 21942 H 2075.97 3.28988 -2.5444 0
M  V30 21943 H 2074.55 3.65295 -0.749278 0
M  V30 21944 N 2076.73 0.957992 1.25141 0
M  V30 21945 C 2077.66 0.499001 2.28106 0
M  V30 21946 C 2078.64 -0.456388 1.63863 0
M  V30 21947 O 2079.83 -0.354616 1.90935 0
M  V30 21948 C 2076.96 -0.220851 3.46597 0
M  V30 21949 C 2075.91 0.649607 4.23042 0
M  V30 21950 C 2075.24 -0.201181 5.34321 0
M  V30 21951 C 2076.54 1.92939 4.85357 0
M  V30 21952 H 2078.23 1.35959 2.6675 0
M  V30 21953 H 2075.78 0.655192 1.28231 0
M  V30 21954 H 2077.73 -0.553105 4.17754 0
M  V30 21955 H 2076.45 -1.11571 3.06952 0
M  V30 21956 H 2075.11 0.964992 3.53671 0
M  V30 21957 H 2074.76 -1.0959 4.90917 0
M  V30 21958 H 2074.46 0.377954 5.86383 0
M  V30 21959 H 2075.98 -0.528325 6.0831 0
M  V30 21960 H 2077.4 1.66333 5.4864 0
M  V30 21961 H 2075.8 2.45445 5.4761 0
M  V30 21962 H 2076.87 2.6304 4.07355 0
M  V30 21963 N 2078.21 -1.39832 0.726957 0
M  V30 21964 C 2079.44 -2.0468 0.280975 0
M  V30 21965 C 2079.85 -1.54906 -1.08631 0
M  V30 21966 O 2079.19 -0.705568 -1.6961 0
M  V30 21967 C 2079.25 -3.58968 0.195552 0
M  V30 21968 C 2078.92 -4.31682 1.49998 0
M  V30 21969 C 2079.91 -4.58866 2.44413 0
M  V30 21970 C 2077.6 -4.7038 1.76206 0
M  V30 21971 C 2079.59 -5.23747 3.63274 0
M  V30 21972 C 2077.28 -5.3499 2.95346 0
M  V30 21973 C 2078.28 -5.61605 3.88702 0
M  V30 21974 O 2077.96 -6.24877 5.05751 0
M  V30 21975 H 2077.7 -0.664906 0.12197 0
M  V30 21976 H 2080.25 -1.80016 0.989104 0
M  V30 21977 H 2078.48 -3.82497 -0.568613 0
M  V30 21978 H 2080.17 -4.05318 -0.217367 0
M  V30 21979 H 2080.94 -4.29424 2.25434 0
M  V30 21980 H 2076.81 -4.49025 1.04389 0
M  V30 21981 H 2080.36 -5.44437 4.36158 0
M  V30 21982 H 2076.26 -5.63853 3.14229 0
M  V30 21983 H 2077.02 -6.43372 5.05979 0
M  V30 21984 N 2079.69 -0.473982 -1.50304 0
M  V30 21985 C 2080.91 0.0798733 -2.07246 0
M  V30 21986 C 2081.34 1.3249 -1.33521 0
M  V30 21987 O 2080.69 1.77192 -0.383743 0
M  V30 21988 C 2080.74 0.343926 -3.58956 0
M  V30 21989 O 2079.85 1.42387 -3.8704 0
M  V30 21990 H 2079.19 -0.0142608 -0.663847 0
M  V30 21991 H 2081.72 -0.665854 -1.93462 0
M  V30 21992 H 2081.73 0.583558 -4.03805 0
M  V30 21993 H 2080.4 -0.565855 -4.12033 0
M  V30 21994 H 2078.98 1.17132 -3.54026 0
M  V30 21995 N 2081.16 1.56239 -0.206702 0
M  V30 21996 C 2082.07 2.2324 0.721172 0
M  V30 21997 C 2083.09 1.2352 1.22552 0
M  V30 21998 O 2084.27 1.56291 1.27025 0
M  V30 21999 C 2081.33 2.88767 1.91871 0
M  V30 22000 C 2080.39 4.03791 1.45779 0
M  V30 22001 C 2079.63 4.66183 2.59825 0
M  V30 22002 O 2079.85 4.27524 3.77597 0
M  V30 22003 O 2078.78 5.55444 2.31874 0
M  V30 22004 H 2082.61 3.03163 0.180488 0
M  V30 22005 H 2080.19 1.49382 0.0231036 0
M  V30 22006 H 2082.08 3.30181 2.61837 0
M  V30 22007 H 2080.75 2.11815 2.44777 0
M  V30 22008 H 2079.66 3.66976 0.726587 0
M  V30 22009 H 2080.99 4.82441 0.975269 0
M  V30 22010 N 2082.64 -0.0668159 1.57458 0
M  V30 22011 C 2083.92 -0.798309 1.78568 0
M  V30 22012 C 2084.3 -1.95537 0.79552 0
M  V30 22013 O 2083.65 -2.27864 -0.170331 0
M  V30 22014 C 2083.86 -1.26662 3.25204 0
M  V30 22015 C 2085.21 -1.69798 3.89171 0
M  V30 22016 O 2086.23 -1.36216 3.29125 0
M  V30 22017 O 2085.09 -2.31989 4.94817 0
M  V30 22018 H 2082.18 -0.382924 0.733006 0
M  V30 22019 H 2084.73 -0.0465065 1.69636 0
M  V30 22020 H 2083.5 -0.438929 3.8883 0
M  V30 22021 H 2083.12 -2.07959 3.38879 0
M  V30 22022 N 2084.12 -1.53926 -0.338317 0
M  V30 22023 C 2085.4 -1.62057 -1.09531 0
M  V30 22024 C 2085.78 -0.445104 -2.06354 0
M  V30 22025 O 2085.13 0.56212 -2.21478 0
M  V30 22026 C 2085.34 -2.98376 -1.81033 0
M  V30 22027 C 2086.68 -3.53912 -2.34589 0
M  V30 22028 O 2087.71 -3.00584 -1.91122 0
M  V30 22029 O 2086.57 -4.472 -3.14125 0
M  V30 22030 H 2083.66 -0.655673 -0.504006 0
M  V30 22031 H 2086.21 -1.66272 -0.339391 0
M  V30 22032 H 2084.98 -3.75366 -1.10525 0
M  V30 22033 H 2084.6 -2.97774 -2.6347 0
M  V30 22034 N 2085.6 0.599608 -1.45748 0
M  V30 22035 C 2086.84 1.36961 -1.51727 0
M  V30 22036 C 2087.2 1.91347 -0.158221 0
M  V30 22037 O 2088.4 2.6864 -0.0927187 0
M  V30 22038 C 2086.68 2.48104 -2.57253 0
M  V30 22039 S 2088.23 3.35754 -2.82515 0
M  V30 22040 H 2085.05 0.466839 -0.536267 0
M  V30 22041 H 2087.65 0.691067 -1.82878 0
M  V30 22042 H 2086.36 2.06513 -3.54656 0
M  V30 22043 H 2085.89 3.2075 -2.27778 0
M  V30 22044 H 2087.9 4.46478 -2.165 0
M  V30 22045 N 2087.08 1.33171 0.842803 0
M  V30 22046 C 2088.02 1.23097 1.95232 0
M  V30 22047 C 2088.99 0.110469 1.65732 0
M  V30 22048 O 2090.18 0.288065 1.88613 0
M  V30 22049 C 2087.32 0.972118 3.31125 0
M  V30 22050 C 2086.43 2.17852 3.73047 0
M  V30 22051 C 2085.57 1.85415 4.9779 0
M  V30 22052 C 2084.61 3.0231 5.32236 0
M  V30 22053 N 2083.74 2.69887 6.48156 0
M  V30 22054 H 2088.58 2.17995 2.03181 0
M  V30 22055 H 2086.12 1.08406 0.994308 0
M  V30 22056 H 2088.08 0.802486 4.09409 0
M  V30 22057 H 2086.71 0.0598977 3.22744 0
M  V30 22058 H 2085.76 2.45803 2.90318 0
M  V30 22059 H 2087.07 3.05254 3.94489 0
M  V30 22060 H 2086.23 1.65073 5.83812 0
M  V30 22061 H 2084.97 0.952447 4.78309 0
M  V30 22062 H 2083.97 3.2327 4.44721 0
M  V30 22063 H 2085.2 3.93229 5.53667 0
M  V30 22064 H 2083.14 1.82271 6.30169 0
M  V30 22065 H 2083.06 3.50818 6.69673 0
M  V30 22066 H 2084.33 2.53002 7.37299 0
M  V30 22067 N 2088.56 -1.06056 1.16576 0
M  V30 22068 C 2089.78 -1.83131 0.973539 0
M  V30 22069 C 2090.21 -1.82047 -0.473358 0
M  V30 22070 O 2089.56 -1.22303 -1.33834 0
M  V30 22071 C 2089.61 -3.2753 1.50852 0
M  V30 22072 O 2088.72 -4.06129 0.716451 0
M  V30 22073 H 2088.06 -0.566557 0.346279 0
M  V30 22074 H 2090.59 -1.33704 1.54869 0
M  V30 22075 H 2090.6 -3.78346 1.52704 0
M  V30 22076 H 2089.27 -3.27634 2.56181 0
M  V30 22077 H 2087.85 -3.64892 0.768639 0
M  V30 22078 N 2090.03 -0.964615 -1.24631 0
M  V30 22079 C 2090.96 -0.511091 -2.27838 0
M  V30 22080 C 2091.94 0.447692 -1.64103 0
M  V30 22081 O 2093.13 0.344485 -1.9112 0
M  V30 22082 C 2090.26 0.202467 -3.46709 0
M  V30 22083 C 2089.21 -0.672032 -4.22691 0
M  V30 22084 C 2088.54 0.172842 -5.34421 0
M  V30 22085 C 2089.84 -1.9551 -4.84327 0
M  V30 22086 H 2091.53 -1.37371 -2.66025 0
M  V30 22087 H 2089.08 -0.661983 -1.27882 0
M  V30 22088 H 2091.03 0.530942 -4.18042 0
M  V30 22089 H 2089.76 1.09942 -3.07539 0
M  V30 22090 H 2088.42 -0.983734 -3.53155 0
M  V30 22091 H 2088.06 1.06985 -4.91491 0
M  V30 22092 H 2087.76 -0.409046 -5.86175 0
M  V30 22093 H 2089.29 0.496057 -6.08582 0
M  V30 22094 H 2090.7 -1.69241 -5.4775 0
M  V30 22095 H 2089.1 -2.48346 -5.46301 0
M  V30 22096 H 2090.17 -2.65197 -4.05954 0
M  V30 22097 N 2091.51 1.39445 -0.734362 0
M  V30 22098 C 2092.93 1.54247 -0.409878 0
M  V30 22099 C 2093.13 1.70155 1.07933 0
M  V30 22100 O 2092.18 1.70169 1.86545 0
M  V30 22101 C 2093.5 2.7605 -1.19234 0
M  V30 22102 C 2095.04 2.89885 -1.1805 0
M  V30 22103 C 2095.52 4.14625 -1.94552 0
M  V30 22104 N 2097.01 4.21663 -1.91715 0
M  V30 22105 C 2097.75 5.1713 -2.47717 0
M  V30 22106 N 2097.24 6.1839 -3.12354 0
M  V30 22107 N 2099.03 5.09342 -2.37754 0
M  V30 22108 H 2091.19 1.27367 -1.69975 0
M  V30 22109 H 2093.45 0.61727 -0.719501 0
M  V30 22110 H 2093.15 2.70636 -2.24609 0
M  V30 22111 H 2093.03 3.68698 -0.796363 0
M  V30 22112 H 2095.42 2.94792 -0.13489 0
M  V30 22113 H 2095.5 1.98302 -1.61585 0
M  V30 22114 H 2095.14 4.10479 -2.99114 0
M  V30 22115 H 2095.07 5.0525 -1.48424 0
M  V30 22116 H 2097.56 3.4913 -1.44625 0
M  V30 22117 H 2097.87 6.87695 -3.52555 0
M  V30 22118 H 2096.22 6.1878 -3.16444 0
M  V30 22119 H 2099.41 4.29169 -1.86901 0
M  V30 22120 H 2099.58 5.83567 -2.81698 0
M  V30 22121 N 2092.99 0.481946 1.5005 0
M  V30 22122 C 2093.9 -0.311606 2.32521 0
M  V30 22123 C 2094.92 -0.985661 1.4339 0
M  V30 22124 O 2096.09 -0.971246 1.76433 0
M  V30 22125 C 2093.16 -1.37313 3.18349 0
M  V30 22126 C 2092.22 -0.714526 4.23312 0
M  V30 22127 C 2091.45 -1.72547 5.05038 0
M  V30 22128 O 2091.67 -2.95324 4.87996 0
M  V30 22129 O 2090.61 -1.2913 5.87885 0
M  V30 22130 H 2094.43 0.362909 3.01524 0
M  V30 22131 H 2092.02 0.243598 1.47401 0
M  V30 22132 H 2093.9 -1.98774 3.71573 0
M  V30 22133 H 2092.58 -2.03091 2.52063 0
M  V30 22134 H 2091.48 -0.0606687 3.74051 0
M  V30 22135 H 2092.82 -0.099506 4.92099 0
M  V30 22136 N 2094.47 -1.56127 0.214985 0
M  V30 22137 C 2095.38 -2.2362 -0.709323 0
M  V30 22138 C 2096.39 -1.24168 -1.21895 0
M  V30 22139 O 2097.57 -1.56962 -1.26194 0
M  V30 22140 C 2094.63 -2.89781 -1.90337 0
M  V30 22141 C 2093.7 -4.04558 -1.43636 0
M  V30 22142 C 2092.93 -4.67555 -2.57349 0
M  V30 22143 O 2093.15 -4.29521 -3.75324 0
M  V30 22144 O 2092.09 -5.56666 -2.28925 0
M  V30 22145 H 2095.91 -3.03255 -0.164408 0
M  V30 22146 H 2093.5 -1.49392 -0.0151812 0
M  V30 22147 H 2095.38 -3.31565 -2.60082 0
M  V30 22148 H 2094.05 -2.1311 -2.43651 0
M  V30 22149 H 2092.96 -3.67356 -0.707115 0
M  V30 22150 H 2094.29 -4.82951 -0.94967 0
M  V30 22151 N 2095.95 0.0584645 -1.57492 0
M  V30 22152 C 2097.36 0.608705 -1.76498 0
M  V30 22153 C 2097.71 1.77203 -0.84224 0
M  V30 22154 O 2096.83 2.1638 -0.0296265 0
M  V30 22155 C 2097.43 1.11101 -3.20066 0
M  V30 22156 C 2095.99 1.607 -3.40371 0
M  V30 22157 C 2095.13 0.532159 -2.72146 0
M  V30 22158 H 2098.08 -0.167741 -1.57811 0
M  V30 22159 H 2098.11 1.97943 -3.2496 0
M  V30 22160 H 2097.62 0.264112 -3.872 0
M  V30 22161 H 2095.72 2.47671 -2.7837 0
M  V30 22162 H 2095.83 1.67476 -4.48875 0
M  V30 22163 H 2094.2 0.980354 -2.35077 0
M  V30 22164 H 2094.98 -0.304774 -3.41944 0
M  V30 22165 N 2097.42 1.54103 0.330149 0
M  V30 22166 C 2098.67 1.71207 1.06635 0
M  V30 22167 C 2098.99 0.489127 1.89386 0
M  V30 22168 O 2100.19 0.541376 2.66048 0
M  V30 22169 C 2098.65 3.02796 1.94531 0
M  V30 22170 C 2098.26 4.32473 1.16924 0
M  V30 22171 C 2100 3.29264 2.67928 0
M  V30 22172 C 2097.91 5.55128 2.03928 0
M  V30 22173 H 2096.84 0.638008 0.401822 0
M  V30 22174 H 2099.49 1.80599 0.324996 0
M  V30 22175 H 2097.87 2.87294 2.7254 0
M  V30 22176 H 2099.04 4.5872 0.437326 0
M  V30 22177 H 2097.36 4.1272 0.552383 0
M  V30 22178 H 2099.96 4.18095 3.33318 0
M  V30 22179 H 2100.3 2.46855 3.35214 0
M  V30 22180 H 2100.83 3.45603 1.96985 0
M  V30 22181 H 2097.57 6.4012 1.41161 0
M  V30 22182 H 2097.09 5.3311 2.74871 0
M  V30 22183 H 2098.77 5.91282 2.62668 0
M  V30 22184 N 2098.9 -0.59187 1.46064 0
M  V30 22185 C 2099.85 -1.69625 1.52352 0
M  V30 22186 C 2100.84 -1.56219 0.385282 0
M  V30 22187 O 2102.03 -1.65289 0.633129 0
M  V30 22188 C 2099.16 -3.08403 1.50807 0
M  V30 22189 C 2098.24 -3.27138 2.69891 0
M  V30 22190 N 2098.63 -3.1607 3.94884 0
M  V30 22191 C 2096.93 -3.58053 2.65921 0
M  V30 22192 C 2097.63 -3.36563 4.74447 0
M  V30 22193 N 2096.61 -3.6129 4.06165 0
M  V30 22194 H 2100.41 -1.59585 2.468 0
M  V30 22195 H 2097.93 -0.795623 1.41575 0
M  V30 22196 H 2099.92 -3.87653 1.53398 0
M  V30 22197 H 2098.58 -3.19581 0.574291 0
M  V30 22198 H 2099.59 -2.94133 4.2627 0
M  V30 22199 H 2096.27 -3.75972 1.81524 0
M  V30 22200 H 2097.66 -3.33266 5.83424 0
M  V30 22201 N 2100.38 -1.33616 -0.835729 0
M  V30 22202 C 2101.63 -1.24597 -1.58614 0
M  V30 22203 C 2101.94 0.185813 -1.94715 0
M  V30 22204 O 2103.15 0.398045 -2.68566 0
M  V30 22205 C 2101.6 -2.18339 -2.86105 0
M  V30 22206 C 2101.21 -3.66705 -2.57355 0
M  V30 22207 C 2102.96 -2.182 -3.64128 0
M  V30 22208 C 2100.86 -4.52352 -3.80962 0
M  V30 22209 H 2099.79 -0.462802 -0.595256 0
M  V30 22210 H 2102.44 -1.58701 -0.921212 0
M  V30 22211 H 2100.83 -1.77172 -3.54156 0
M  V30 22212 H 2102 -4.16331 -1.97496 0
M  V30 22213 H 2100.32 -3.69164 -1.92631 0
M  V30 22214 H 2102.91 -2.79417 -4.55884 0
M  V30 22215 H 2103.26 -1.17789 -3.99289 0
M  V30 22216 H 2103.79 -2.57745 -3.03005 0
M  V30 22217 H 2100.53 -5.5365 -3.5093 0
M  V30 22218 H 2100.05 -4.07467 -4.40149 0
M  V30 22219 H 2101.73 -4.66315 -4.48508 0
M  V30 22220 N 2101.86 1.05436 -1.17136 0
M  V30 22221 C 2102.79 2.15075 -0.909112 0
M  V30 22222 C 2103.77 1.69455 0.147942 0
M  V30 22223 O 2104.95 1.942 -0.00177952 0
M  V30 22224 C 2102.08 3.44764 -0.41892 0
M  V30 22225 C 2101.04 4.03937 -1.41488 0
M  V30 22226 C 2100.36 5.2894 -0.782739 0
M  V30 22227 C 2101.66 4.4171 -2.78728 0
M  V30 22228 H 2103.36 2.37271 -1.826 0
M  V30 22229 H 2100.9 1.14031 -0.879376 0
M  V30 22230 H 2102.86 4.2081 -0.222885 0
M  V30 22231 H 2101.58 3.22213 0.533496 0
M  V30 22232 H 2100.24 3.29958 -1.59761 0
M  V30 22233 H 2099.89 5.0269 0.176435 0
M  V30 22234 H 2099.59 5.6949 -1.44758 0
M  V30 22235 H 2101.11 6.07675 -0.596922 0
M  V30 22236 H 2102.53 5.08801 -2.64187 0
M  V30 22237 H 2100.92 4.93271 -3.41766 0
M  V30 22238 H 2101.99 3.52168 -3.33325 0
M  V30 22239 N 2103.34 0.971211 1.24118 0
M  V30 22240 C 2104.28 0.496184 2.27246 0
M  V30 22241 C 2105.28 -0.442084 1.6353 0
M  V30 22242 O 2106.48 -0.316987 1.77187 0
M  V30 22243 H 2102.86 0.142002 0.738471 0
M  V30 22244 H 2104.83 1.37788 2.64683 0
M  V30 22245 C 2103.58 -0.194705 3.47154 0
M  V30 22246 H 2102.9 0.518169 3.96428 0
M  V30 22247 H 2104.34 -0.490853 4.21149 0
M  V30 22248 C 2102.8 -1.42287 3.05379 0
M  V30 22249 O 2103.33 -2.5197 3.12849 0
M  V30 22250 N 2101.54 -1.29018 2.60389 0
M  V30 22251 H 2101.08 -0.397753 2.54511 0
M  V30 22252 H 2101.04 -2.11305 2.32804 0
M  V30 22253 N 2104.81 -1.39054 0.741747 0
M  V30 22254 C 2106.06 -2.00671 0.293089 0
M  V30 22255 C 2106.39 -1.58733 -1.11882 0
M  V30 22256 O 2105.67 -0.819335 -1.76401 0
M  V30 22257 C 2105.95 -3.57843 0.402573 0
M  V30 22258 C 2105.8 -4.0978 1.85474 0
M  V30 22259 C 2107.12 -4.39594 -0.211039 0
M  V30 22260 H 2104.24 -0.729048 0.10797 0
M  V30 22261 H 2106.88 -1.65165 0.939169 0
M  V30 22262 H 2105.03 -3.8822 -0.147482 0
M  V30 22263 H 2106.71 -3.90095 2.46219 0
M  V30 22264 H 2104.95 -3.63088 2.3738 0
M  V30 22265 H 2105.62 -5.18906 1.88257 0
M  V30 22266 H 2108.1 -4.153 0.257937 0
M  V30 22267 H 2106.97 -5.48801 -0.104126 0
M  V30 22268 H 2107.23 -4.22618 -1.29792 0
M  V30 22269 N 2106.29 -0.489897 -1.49792 0
M  V30 22270 C 2107.52 0.0578875 -2.07319 0
M  V30 22271 C 2107.94 1.31067 -1.34919 0
M  V30 22272 O 2107.3 1.76775 -0.402515 0
M  V30 22273 C 2107.35 0.305835 -3.59301 0
M  V30 22274 O 2106.45 1.38274 -3.88528 0
M  V30 22275 H 2105.79 -0.021301 -0.663658 0
M  V30 22276 H 2108.32 -0.686335 -1.92745 0
M  V30 22277 H 2108.33 0.540697 -4.04401 0
M  V30 22278 H 2107.01 -0.609525 -4.11409 0
M  V30 22279 H 2105.59 1.13371 -3.55248 0
M  V30 22280 N 2107.77 1.56011 -0.223262 0
M  V30 22281 C 2109.02 1.97523 0.40834 0
M  V30 22282 C 2109.33 1.11401 1.60777 0
M  V30 22283 O 2110.54 1.4282 2.309 0
M  V30 22284 C 2108.99 3.51393 0.777885 0
M  V30 22285 C 2108.6 4.46221 -0.398826 0
M  V30 22286 C 2110.35 4.01614 1.37499 0
M  V30 22287 C 2108.25 5.914 -0.00675168 0
M  V30 22288 H 2107.18 0.737614 0.156337 0
M  V30 22289 H 2109.83 1.80693 -0.319744 0
M  V30 22290 H 2108.22 3.6383 1.56344 0
M  V30 22291 H 2109.39 4.45532 -1.17635 0
M  V30 22292 H 2107.71 4.06351 -0.909284 0
M  V30 22293 H 2110.3 5.0758 1.68127 0
M  V30 22294 H 2110.65 3.47566 2.29137 0
M  V30 22295 H 2111.18 3.92406 0.65284 0
M  V30 22296 H 2107.92 6.49435 -0.889654 0
M  V30 22297 H 2107.44 5.95279 0.735052 0
M  V30 22298 H 2109.12 6.4564 0.419339 0
M  V30 22299 N 2109.25 -0.0501116 1.5752 0
M  V30 22300 C 2110.18 -1.08434 2.01928 0
M  V30 22301 C 2111.19 -1.33718 0.928613 0
M  V30 22302 O 2112.38 -1.31576 1.20623 0
M  V30 22303 C 2109.48 -2.43065 2.36162 0
M  V30 22304 C 2108.66 -2.37433 3.67347 0
M  V30 22305 C 2107.71 -3.54345 3.89007 0
M  V30 22306 O 2106.74 -3.3479 4.60331 0
M  V30 22307 N 2107.94 -4.75475 3.33022 0
M  V30 22308 H 2110.71 -0.705995 2.91266 0
M  V30 22309 H 2108.27 -0.238421 1.60135 0
M  V30 22310 H 2110.26 -3.19959 2.47807 0
M  V30 22311 H 2108.83 -2.72821 1.52603 0
M  V30 22312 H 2108.05 -1.45778 3.66254 0
M  V30 22313 H 2109.34 -2.30792 4.53445 0
M  V30 22314 H 2108.74 -4.94264 2.75171 0
M  V30 22315 H 2107.29 -5.49806 3.50081 0
M  V30 22316 N 2110.73 -1.54276 -0.321972 0
M  V30 22317 C 2111.97 -1.74283 -1.06793 0
M  V30 22318 C 2112.33 -0.506664 -1.85194 0
M  V30 22319 O 2113.53 -0.584111 -2.62377 0
M  V30 22320 C 2111.8 -2.98413 -1.96684 0
M  V30 22321 S 2113.36 -3.3933 -2.7821 0
M  V30 22322 H 2110.18 -0.612827 -0.360505 0
M  V30 22323 H 2112.78 -1.92454 -0.343742 0
M  V30 22324 H 2111.49 -3.86529 -1.37925 0
M  V30 22325 H 2111.02 -2.82769 -2.73505 0
M  V30 22326 H 2113.03 -2.94754 -3.99167 0
M  V30 22327 N 2112.2 0.584116 -1.46376 0
M  V30 22328 C 2113.17 1.6753 -1.56417 0
M  V30 22329 C 2114.17 1.54622 -0.441454 0
M  V30 22330 O 2115.36 1.59265 -0.705714 0
M  V30 22331 C 2112.49 3.06947 -1.48313 0
M  V30 22332 H 2113.68 1.59986 -2.53662 0
M  V30 22333 H 2111.24 0.801837 -1.34165 0
M  V30 22334 H 2111.97 3.20048 -0.523413 0
M  V30 22335 H 2111.76 3.17724 -2.29768 0
M  V30 22336 H 2113.25 3.86384 -1.58422 0
M  V30 22337 N 2113.68 1.34058 0.828631 0
M  V30 22338 C 2114.96 1.1668 1.56988 0
M  V30 22339 C 2115.34 -0.262846 2.09457 0
M  V30 22340 O 2114.69 -1.26337 1.90398 0
M  V30 22341 C 2114.9 2.21657 2.69572 0
M  V30 22342 C 2116.25 2.56341 3.38489 0
M  V30 22343 O 2117.27 2.20402 2.79824 0
M  V30 22344 O 2116.13 3.18053 4.44415 0
M  V30 22345 H 2113.22 0.451944 0.692586 0
M  V30 22346 H 2115.77 1.45672 0.870498 0
M  V30 22347 H 2114.54 3.17643 2.28515 0
M  V30 22348 H 2114.16 1.93809 3.47166 0
M  V30 22349 N 2115.16 -1.04814 1.17694 0
M  V30 22350 C 2116.11 -2.10947 0.865184 0
M  V30 22351 C 2117.1 -1.60084 -0.161881 0
M  V30 22352 O 2118.29 -1.76952 0.041095 0
M  V30 22353 C 2115.42 -3.41141 0.384442 0
M  V30 22354 C 2114.5 -3.98791 1.44315 0
M  V30 22355 N 2114.89 -4.30353 2.65762 0
M  V30 22356 C 2113.19 -4.26575 1.3019 0
M  V30 22357 C 2113.89 -4.76382 3.33818 0
M  V30 22358 N 2112.87 -4.76736 2.61197 0
M  V30 22359 H 2116.67 -2.33216 1.7885 0
M  V30 22360 H 2114.18 -1.22497 1.06622 0
M  V30 22361 H 2116.18 -4.16656 0.142634 0
M  V30 22362 H 2114.84 -3.20302 -0.532624 0
M  V30 22363 H 2115.85 -4.20234 3.02694 0
M  V30 22364 H 2112.53 -4.15102 0.446785 0
M  V30 22365 H 2113.92 -5.09885 4.37569 0
M  V30 22366 N 2116.64 -0.977779 -1.23601 0
M  V30 22367 C 2117.57 -0.535228 -2.27283 0
M  V30 22368 C 2118.55 0.430261 -1.64568 0
M  V30 22369 O 2119.74 0.324195 -1.91475 0
M  V30 22370 C 2116.87 0.165683 -3.46905 0
M  V30 22371 C 2115.82 -0.716827 -4.21954 0
M  V30 22372 C 2115.15 0.116149 -5.34574 0
M  V30 22373 C 2116.45 -2.00636 -4.82227 0
M  V30 22374 H 2118.14 -1.40185 -2.64553 0
M  V30 22375 H 2115.69 -0.67551 -1.27173 0
M  V30 22376 H 2117.64 0.486573 -4.18581 0
M  V30 22377 H 2116.36 1.06674 -3.08688 0
M  V30 22378 H 2115.02 -1.02114 -3.52091 0
M  V30 22379 H 2114.67 1.01766 -4.92598 0
M  V30 22380 H 2114.37 -0.471195 -5.85708 0
M  V30 22381 H 2115.89 0.431481 -6.09074 0
M  V30 22382 H 2117.31 -1.75041 -5.45925 0
M  V30 22383 H 2115.7 -2.54126 -5.43636 0
M  V30 22384 H 2116.77 -2.69488 -4.03118 0
M  V30 22385 N 2118.12 1.38658 -0.749111 0
M  V30 22386 C 2119.03 2.34291 -0.120373 0
M  V30 22387 C 2120.04 1.59043 0.705796 0
M  V30 22388 O 2121.22 1.9126 0.63099 0
M  V30 22389 C 2118.28 3.38141 0.765626 0
M  V30 22390 C 2117.35 4.29236 -0.0744037 0
M  V30 22391 C 2116.58 5.28125 0.769401 0
M  V30 22392 O 2116.8 5.33902 2.0076 0
M  V30 22393 O 2115.74 6.01598 0.190576 0
M  V30 22394 H 2119.56 2.89744 -0.910056 0
M  V30 22395 H 2117.15 1.40428 -0.509948 0
M  V30 22396 H 2119.03 4.0174 1.27214 0
M  V30 22397 H 2117.7 2.8505 1.53388 0
M  V30 22398 H 2116.61 3.68812 -0.626761 0
M  V30 22399 H 2117.94 4.85569 -0.805208 0
M  V30 22400 N 2119.6 0.497834 1.49531 0
M  V30 22401 C 2120.87 -0.110673 1.95287 0
M  V30 22402 C 2121.25 -1.54433 1.43923 0
M  V30 22403 O 2120.6 -2.19012 0.651616 0
M  V30 22404 C 2120.81 -0.0265636 3.4899 0
M  V30 22405 C 2122.16 -0.202082 4.24119 0
M  V30 22406 O 2123.18 -0.1019 3.56054 0
M  V30 22407 O 2122.04 -0.407373 5.4498 0
M  V30 22408 H 2119.14 -0.0970406 0.821287 0
M  V30 22409 H 2121.68 0.560146 1.60189 0
M  V30 22410 H 2120.45 0.973355 3.79001 0
M  V30 22411 H 2120.08 -0.737668 3.90697 0
M  V30 22412 N 2121.07 -1.5589 0.231532 0
M  V30 22413 C 2121.98 -2.24359 -0.685566 0
M  V30 22414 C 2123 -1.25454 -1.20571 0
M  V30 22415 O 2124.18 -1.58292 -1.24522 0
M  V30 22416 C 2121.24 -2.91783 -1.87252 0
M  V30 22417 C 2120.3 -4.06059 -1.39337 0
M  V30 22418 C 2119.53 -4.70258 -2.52375 0
M  V30 22419 O 2119.76 -4.33477 -3.70747 0
M  V30 22420 O 2118.69 -5.59063 -2.23008 0
M  V30 22421 H 2122.52 -3.03412 -0.132235 0
M  V30 22422 H 2120.1 -1.494 0.000664697 0
M  V30 22423 H 2121.98 -3.34305 -2.56551 0
M  V30 22424 H 2120.66 -2.15683 -2.41377 0
M  V30 22425 H 2119.57 -3.68086 -0.668112 0
M  V30 22426 H 2120.9 -4.83932 -0.898393 0
M  V30 22427 N 2122.55 0.0417572 -1.57545 0
M  V30 22428 C 2123.51 1.03085 -2.0471 0
M  V30 22429 C 2124.51 1.29808 -0.94903 0
M  V30 22430 O 2125.7 1.25024 -1.21304 0
M  V30 22431 C 2122.84 2.367 -2.45329 0
M  V30 22432 H 2124.03 0.623701 -2.93343 0
M  V30 22433 H 2121.58 0.288275 -1.53619 0
M  V30 22434 H 2122.32 2.82188 -1.59813 0
M  V30 22435 H 2122.1 2.18637 -3.25485 0
M  V30 22436 H 2123.59 3.07737 -2.8229 0
M  V30 22437 N 2124.03 1.54445 0.313786 0
M  V30 22438 C 2124.96 1.87506 1.39153 0
M  V30 22439 C 2125.94 0.732752 1.53508 0
M  V30 22440 O 2127.13 0.98736 1.67227 0
M  V30 22441 C 2124.26 2.11107 2.75773 0
M  V30 22442 C 2123.21 3.26954 2.76197 0
M  V30 22443 C 2122.54 3.35947 4.15985 0
M  V30 22444 C 2123.84 4.64372 2.39073 0
M  V30 22445 H 2125.53 2.7777 1.11732 0
M  V30 22446 H 2123.08 1.33651 0.536054 0
M  V30 22447 H 2125.03 2.32821 3.51244 0
M  V30 22448 H 2123.75 1.17602 3.04692 0
M  V30 22449 H 2122.41 3.05144 2.03182 0
M  V30 22450 H 2122.06 2.39982 4.42061 0
M  V30 22451 H 2121.76 4.13812 4.17173 0
M  V30 22452 H 2123.28 3.59906 4.93254 0
M  V30 22453 H 2124.7 4.85901 3.04258 0
M  V30 22454 H 2123.09 5.44858 2.51496 0
M  V30 22455 H 2124.16 4.65956 1.34211 0
M  V30 22456 N 2125.51 -0.576345 1.46683 0
M  V30 22457 C 2126.75 -1.3363 1.52548 0
M  V30 22458 C 2127.09 -1.93371 0.179205 0
M  V30 22459 O 2126.36 -1.76827 -0.810088 0
M  V30 22460 C 2126.64 -2.46086 2.62895 0
M  V30 22461 C 2126.5 -1.91338 4.07075 0
M  V30 22462 C 2127.82 -3.48104 2.6928 0
M  V30 22463 H 2124.94 -0.484517 0.555349 0
M  V30 22464 H 2127.58 -0.646838 1.78651 0
M  V30 22465 H 2125.73 -3.04898 2.40769 0
M  V30 22466 H 2127.4 -1.36934 4.40507 0
M  V30 22467 H 2125.64 -1.22127 4.16254 0
M  V30 22468 H 2126.31 -2.72545 4.80024 0
M  V30 22469 H 2128.79 -2.99183 2.89187 0
M  V30 22470 H 2127.67 -4.2424 3.48298 0
M  V30 22471 H 2127.93 -4.05739 1.7558 0
M  V30 22472 N 2126.99 -1.34495 -0.82151 0
M  V30 22473 C 2128.4 -1.24152 -1.39439 0
M  V30 22474 C 2128.75 0.1324 -1.95753 0
M  V30 22475 O 2127.87 1.03279 -1.90164 0
M  V30 22476 C 2128.47 -2.24789 -2.53487 0
M  V30 22477 C 2127.03 -2.18232 -3.06679 0
M  V30 22478 C 2126.17 -2.11315 -1.79558 0
M  V30 22479 H 2129.12 -1.45841 -0.625789 0
M  V30 22480 H 2129.15 -1.8657 -3.3162 0
M  V30 22481 H 2128.66 -3.24774 -2.1247 0
M  V30 22482 H 2126.76 -1.21608 -3.52196 0
M  V30 22483 H 2126.87 -3.09548 -3.65673 0
M  V30 22484 H 2125.24 -1.57058 -2.00512 0
M  V30 22485 H 2126.02 -3.13136 -1.40714 0
M  V30 22486 N 2128.46 1.04188 -1.18248 0
M  V30 22487 C 2129.71 1.76764 -0.971464 0
M  V30 22488 C 2130.03 1.89102 0.49997 0
M  V30 22489 O 2131.23 2.58519 0.829468 0
M  V30 22490 C 2129.69 3.17801 -1.68909 0
M  V30 22491 C 2129.3 3.1356 -3.19975 0
M  V30 22492 C 2131.04 3.94763 -1.56084 0
M  V30 22493 C 2128.95 4.49449 -3.84382 0
M  V30 22494 H 2127.88 0.662591 -0.359847 0
M  V30 22495 H 2130.53 1.16702 -1.41608 0
M  V30 22496 H 2128.91 3.78252 -1.17224 0
M  V30 22497 H 2130.08 2.62568 -3.78675 0
M  V30 22498 H 2128.4 2.50097 -3.32927 0
M  V30 22499 H 2131 4.95253 -2.01566 0
M  V30 22500 H 2131.34 4.13128 -0.512919 0
M  V30 22501 H 2131.87 3.40885 -2.05043 0
M  V30 22502 H 2128.61 4.36289 -4.89216 0
M  V30 22503 H 2128.13 5.00549 -3.3047 0
M  V30 22504 H 2129.81 5.18367 -3.87175 0
M  V30 22505 N 2129.94 0.98432 1.23081 0
M  V30 22506 C 2130.87 0.547274 2.26996 0
M  V30 22507 C 2131.85 -0.421528 1.64794 0
M  V30 22508 O 2133.04 -0.314036 1.91644 0
M  V30 22509 C 2130.17 -0.147283 3.46988 0
M  V30 22510 C 2129.12 0.739194 4.21568 0
M  V30 22511 C 2128.45 -0.0877981 5.34628 0
M  V30 22512 C 2129.75 2.03191 4.81156 0
M  V30 22513 H 2131.44 1.41586 2.63806 0
M  V30 22514 H 2128.99 0.682245 1.26813 0
M  V30 22515 H 2130.94 -0.464368 4.18834 0
M  V30 22516 H 2129.67 -1.05035 3.09249 0
M  V30 22517 H 2128.32 1.03979 3.51545 0
M  V30 22518 H 2127.97 -0.99152 4.93131 0
M  V30 22519 H 2127.67 0.50225 5.8545 0
M  V30 22520 H 2129.2 -0.399175 6.09294 0
M  V30 22521 H 2130.61 1.77933 5.44989 0
M  V30 22522 H 2129.01 2.57006 5.4228 0
M  V30 22523 H 2130.08 2.71622 4.01684 0
M  V30 22524 N 2131.42 -1.38259 0.756453 0
M  V30 22525 C 2132.84 -1.53575 0.434365 0
M  V30 22526 C 2133.04 -1.71851 -1.05212 0
M  V30 22527 O 2132.09 -1.73115 -1.83814 0
M  V30 22528 C 2133.41 -2.74118 1.23611 0
M  V30 22529 C 2134.95 -2.8797 1.22647 0
M  V30 22530 C 2135.43 -4.11477 2.01124 0
M  V30 22531 N 2136.92 -4.1856 1.98399 0
M  V30 22532 C 2137.65 -5.13124 2.55913 0
M  V30 22533 N 2137.15 -6.13343 3.22153 0
M  V30 22534 N 2138.94 -5.05495 2.45827 0
M  V30 22535 H 2131.09 -1.24647 1.7198 0
M  V30 22536 H 2133.36 -0.605745 0.72923 0
M  V30 22537 H 2133.06 -2.67028 2.28886 0
M  V30 22538 H 2132.94 -3.67384 0.854919 0
M  V30 22539 H 2135.32 -2.9454 0.181771 0
M  V30 22540 H 2135.41 -1.95707 1.6472 0
M  V30 22541 H 2135.05 -4.05669 3.05607 0
M  V30 22542 H 2134.98 -5.02825 1.56444 0
M  V30 22543 H 2137.47 -3.46785 1.50161 0
M  V30 22544 H 2137.78 -6.81999 3.63451 0
M  V30 22545 H 2136.13 -6.13667 3.26248 0
M  V30 22546 H 2139.32 -4.26141 1.93705 0
M  V30 22547 H 2139.49 -5.79012 2.90946 0
M  V30 22548 N 2132.9 -0.505757 -1.49264 0
M  V30 22549 C 2134.13 0.0337401 -2.06872 0
M  V30 22550 C 2134.54 1.30384 -1.36548 0
M  V30 22551 O 2133.9 1.76984 -0.4453 0
M  V30 22552 C 2133.95 0.286399 -3.60364 0
M  V30 22553 O 2133.67 -0.933356 -4.28042 0
M  V30 22554 C 2135.17 0.869003 -4.34699 0
M  V30 22555 H 2132.39 -0.022603 -0.670619 0
M  V30 22556 H 2134.94 -0.704475 -1.91983 0
M  V30 22557 H 2133.09 0.974605 -3.7494 0
M  V30 22558 H 2133.5 -0.699127 -5.1982 0
M  V30 22559 H 2134.98 0.995347 -5.42952 0
M  V30 22560 H 2135.46 1.86798 -3.97496 0
M  V30 22561 H 2136.06 0.218118 -4.2474 0
M  V30 22562 N 2134.38 1.55765 -0.239796 0
M  V30 22563 C 2135.62 1.98769 0.386916 0
M  V30 22564 C 2135.95 1.12781 1.58464 0
M  V30 22565 O 2135.21 0.176954 1.94898 0
M  V30 22566 C 2135.51 3.4722 0.846952 0
M  V30 22567 C 2135.17 4.50249 -0.242234 0
M  V30 22568 C 2133.83 4.78145 -0.541395 0
M  V30 22569 C 2136.19 5.11943 -0.977925 0
M  V30 22570 C 2133.51 5.65012 -1.58045 0
M  V30 22571 C 2135.87 5.99937 -2.00644 0
M  V30 22572 C 2134.53 6.26169 -2.31233 0
M  V30 22573 H 2133.8 0.727348 0.141583 0
M  V30 22574 H 2136.45 1.88346 -0.346135 0
M  V30 22575 H 2134.75 3.54939 1.65908 0
M  V30 22576 H 2136.45 3.77877 1.34201 0
M  V30 22577 H 2133.04 4.286 0.00107931 0
M  V30 22578 H 2137.22 4.90446 -0.76005 0
M  V30 22579 H 2132.48 5.83594 -1.82286 0
M  V30 22580 H 2136.65 6.46787 -2.58146 0
M  V30 22581 H 2134.28 6.93276 -3.11886 0
M  V30 22582 N 2135.85 -0.0334016 1.57565 0
M  V30 22583 C 2137.1 -0.726157 1.89354 0
M  V30 22584 C 2137.43 -1.75237 0.837002 0
M  V30 22585 O 2136.71 -1.93933 -0.148452 0
M  V30 22586 C 2136.99 -1.39963 3.31787 0
M  V30 22587 C 2136.84 -0.387227 4.4813 0
M  V30 22588 C 2138.16 -2.33475 3.73065 0
M  V30 22589 H 2135.28 -0.262518 0.688661 0
M  V30 22590 H 2137.92 0.0110285 1.89997 0
M  V30 22591 H 2136.07 -2.02797 3.31369 0
M  V30 22592 H 2137.75 0.238867 4.60681 0
M  V30 22593 H 2135.99 0.293911 4.32803 0
M  V30 22594 H 2136.66 -0.896846 5.44666 0
M  V30 22595 H 2139.14 -1.80688 3.74822 0
M  V30 22596 H 2138.01 -2.7758 4.73541 0
M  V30 22597 H 2138.27 -3.19962 3.05085 0
M  V30 22598 N 2137.33 -1.54609 -0.305591 0
M  V30 22599 C 2138.26 -1.81607 -1.39826 0
M  V30 22600 C 2139.28 -0.698812 -1.47039 0
M  V30 22601 O 2140.47 -0.976217 -1.4944 0
M  V30 22602 C 2137.57 -1.93493 -2.78233 0
M  V30 22603 C 2136.74 -3.23849 -2.94008 0
M  V30 22604 C 2135.8 -3.26209 -4.12885 0
M  V30 22605 O 2134.82 -3.99763 -4.05189 0
M  V30 22606 N 2136.03 -2.51272 -5.233 0
M  V30 22607 H 2138.79 -2.75909 -1.17023 0
M  V30 22608 H 2136.35 -1.54126 -0.495646 0
M  V30 22609 H 2138.34 -1.92479 -3.55997 0
M  V30 22610 H 2136.91 -1.06208 -2.94005 0
M  V30 22611 H 2136.13 -3.37674 -2.03395 0
M  V30 22612 H 2137.42 -4.0988 -3.01456 0
M  V30 22613 H 2136.82 -1.91135 -5.32432 0
M  V30 22614 H 2135.38 -2.56017 -5.99415 0
M  V30 22615 N 2138.81 0.568558 -1.46987 0
M  V30 22616 C 2140.04 1.35675 -1.56867 0
M  V30 22617 C 2140.46 1.86864 -0.215303 0
M  V30 22618 O 2139.82 1.62351 0.806967 0
M  V30 22619 C 2139.87 2.51048 -2.58858 0
M  V30 22620 O 2138.97 3.52929 -2.13342 0
M  V30 22621 H 2138.31 0.403471 -0.527358 0
M  V30 22622 H 2140.84 0.688258 -1.92676 0
M  V30 22623 H 2140.85 2.97773 -2.78918 0
M  V30 22624 H 2139.53 2.13145 -3.5713 0
M  V30 22625 H 2138.1 3.12587 -2.03332 0
M  V30 22626 N 2140.29 1.34929 0.814366 0
M  V30 22627 C 2141.24 1.27211 1.92577 0
M  V30 22628 C 2142.21 0.145599 1.65461 0
M  V30 22629 O 2143.39 0.328007 1.87959 0
M  V30 22630 C 2140.53 1.04214 3.28989 0
M  V30 22631 C 2139.64 2.25716 3.68343 0
M  V30 22632 C 2138.78 1.95932 4.93745 0
M  V30 22633 C 2137.82 3.13531 5.25704 0
M  V30 22634 N 2136.95 2.83574 6.42285 0
M  V30 22635 H 2141.79 2.22255 1.98511 0
M  V30 22636 H 2139.33 1.10491 0.97109 0
M  V30 22637 H 2141.29 0.889147 4.07615 0
M  V30 22638 H 2139.92 0.128343 3.22545 0
M  V30 22639 H 2138.97 2.51906 2.85039 0
M  V30 22640 H 2140.28 3.13553 3.87925 0
M  V30 22641 H 2139.44 1.77419 5.80179 0
M  V30 22642 H 2138.18 1.05369 4.76181 0
M  V30 22643 H 2137.18 3.32631 4.37763 0
M  V30 22644 H 2138.41 4.04885 5.45202 0
M  V30 22645 H 2136.35 1.95596 6.26161 0
M  V30 22646 H 2136.27 3.64944 6.62081 0
M  V30 22647 H 2137.54 2.68584 7.31767 0
M  V30 22648 N 2141.77 -1.0356 1.18799 0
M  V30 22649 C 2142.71 -2.11687 0.919622 0
M  V30 22650 C 2143.68 -1.65484 -0.142958 0
M  V30 22651 O 2144.87 -1.908 -0.00223972 0
M  V30 22652 C 2142.01 -3.4206 0.457036 0
M  V30 22653 C 2141.12 -4.01848 1.58562 0
M  V30 22654 C 2140.26 -5.20204 1.07524 0
M  V30 22655 C 2139.3 -5.72033 2.17817 0
M  V30 22656 N 2138.43 -6.8167 1.68136 0
M  V30 22657 H 2143.27 -2.33981 1.84546 0
M  V30 22658 H 2140.81 -1.14766 0.920172 0
M  V30 22659 H 2142.77 -4.16852 0.170279 0
M  V30 22660 H 2141.4 -3.19899 -0.431815 0
M  V30 22661 H 2140.45 -3.24335 1.98774 0
M  V30 22662 H 2141.76 -4.36338 2.41684 0
M  V30 22663 H 2140.92 -6.02129 0.743314 0
M  V30 22664 H 2139.65 -4.87232 0.213672 0
M  V30 22665 H 2138.66 -4.88725 2.51849 0
M  V30 22666 H 2139.88 -6.07047 3.04418 0
M  V30 22667 H 2137.83 -6.50564 0.842764 0
M  V30 22668 H 2137.75 -7.15251 2.44852 0
M  V30 22669 H 2139.02 -7.67208 1.37886 0
M  V30 22670 N 2143.25 -0.990834 -1.22557 0
M  V30 22671 C 2144.19 -0.532274 -2.26428 0
M  V30 22672 C 2145.19 0.416012 -1.64212 0
M  V30 22673 O 2146.39 0.288758 -1.77669 0
M  V30 22674 H 2142.77 -0.153732 -0.736118 0
M  V30 22675 H 2144.74 -1.41981 -2.62457 0
M  V30 22676 C 2143.49 0.139451 -3.4742 0
M  V30 22677 H 2142.81 -0.581172 -3.95553 0
M  V30 22678 H 2144.25 0.42379 -4.21877 0
M  V30 22679 C 2142.71 1.37411 -3.07604 0
M  V30 22680 O 2143.24 2.4696 -3.16818 0
M  V30 22681 N 2141.45 1.2486 -2.62409 0
M  V30 22682 H 2140.99 0.357212 -2.55111 0
M  V30 22683 H 2140.95 2.07575 -2.36136 0
M  V30 22684 N 2144.72 1.37856 -0.763775 0
M  V30 22685 C 2145.97 1.99126 -0.321223 0
M  V30 22686 C 2146.29 1.61318 1.10615 0
M  V30 22687 O 2147.49 2.15633 1.64969 0
M  V30 22688 C 2145.95 3.56074 -0.523371 0
M  V30 22689 C 2145.56 4.02826 -1.96049 0
M  V30 22690 C 2147.3 4.24256 -0.144043 0
M  V30 22691 C 2145.21 5.52454 -2.11066 0
M  V30 22692 H 2144.14 0.744968 -0.116357 0
M  V30 22693 H 2146.79 1.5749 -0.941769 0
M  V30 22694 H 2145.17 3.9565 0.166513 0
M  V30 22695 H 2146.34 3.74515 -2.68468 0
M  V30 22696 H 2144.66 3.47402 -2.29567 0
M  V30 22697 H 2147.26 5.34184 -0.234865 0
M  V30 22698 H 2147.6 4.06351 0.904676 0
M  V30 22699 H 2148.13 3.89954 -0.786169 0
M  V30 22700 H 2144.87 5.75275 -3.14228 0
M  V30 22701 H 2144.39 5.82474 -1.43121 0
M  V30 22702 H 2146.07 6.18305 -1.90546 0
M  V30 22703 N 2146.2 0.513665 1.48994 0
M  V30 22704 C 2147.13 -0.247058 2.32189 0
M  V30 22705 C 2148.11 -0.950613 1.41058 0
M  V30 22706 O 2149.3 -0.939562 1.69958 0
M  V30 22707 C 2146.43 -1.30433 3.21876 0
M  V30 22708 C 2145.38 -0.719902 4.21902 0
M  V30 22709 C 2144.71 -1.87863 5.00611 0
M  V30 22710 C 2146.01 0.297524 5.21452 0
M  V30 22711 H 2147.7 0.447403 2.96038 0
M  V30 22712 H 2145.25 0.216608 1.42362 0
M  V30 22713 H 2147.2 -1.84434 3.78896 0
M  V30 22714 H 2145.92 -2.02815 2.55995 0
M  V30 22715 H 2144.58 -0.201546 3.66046 0
M  V30 22716 H 2144.23 -2.59044 4.31167 0
M  V30 22717 H 2143.93 -1.49359 5.68301 0
M  V30 22718 H 2145.46 -2.42273 5.60478 0
M  V30 22719 H 2146.87 -0.1548 5.73091 0
M  V30 22720 H 2145.27 0.599071 5.97102 0
M  V30 22721 H 2146.34 1.20903 4.69585 0
M  V30 22722 N 2147.68 -1.55636 0.248053 0
M  V30 22723 C 2148.93 -1.99266 -0.376927 0
M  V30 22724 C 2149.26 -1.13602 -1.57506 0
M  V30 22725 O 2148.53 -0.199686 -1.93472 0
M  V30 22726 C 2148.82 -3.51425 -0.785664 0
M  V30 22727 C 2148.67 -4.47854 0.417942 0
M  V30 22728 C 2149.99 -4.08714 -1.63221 0
M  V30 22729 H 2147.11 -0.724431 -0.135531 0
M  V30 22730 H 2149.75 -1.86756 0.349594 0
M  V30 22731 H 2147.9 -3.62216 -1.40469 0
M  V30 22732 H 2149.57 -4.49041 1.05638 0
M  V30 22733 H 2147.81 -4.20629 1.06084 0
M  V30 22734 H 2148.49 -5.51929 0.0886002 0
M  V30 22735 H 2150.96 -4.01031 -1.10966 0
M  V30 22736 H 2149.84 -5.15443 -1.88706 0
M  V30 22737 H 2150.1 -3.57242 -2.60443 0
M  V30 22738 N 2149.16 0.0250451 -1.5758 0
M  V30 22739 C 2150.43 0.750684 -1.80621 0
M  V30 22740 C 2150.81 1.93359 -0.847083 0
M  V30 22741 O 2150.16 2.28236 0.109857 0
M  V30 22742 C 2150.37 1.17995 -3.28448 0
M  V30 22743 C 2151.72 1.5942 -3.93536 0
M  V30 22744 O 2152.74 1.27442 -3.32621 0
M  V30 22745 O 2151.6 2.18788 -5.00793 0
M  V30 22746 H 2148.7 0.363355 -0.742901 0
M  V30 22747 H 2151.24 0.00151411 -1.697 0
M  V30 22748 H 2150.02 0.335683 -3.89857 0
M  V30 22749 H 2149.64 1.98901 -3.44273 0
M  V30 22750 N 2150.64 1.54769 0.297388 0
M  V30 22751 C 2151.87 1.77959 1.04948 0
M  V30 22752 C 2152.27 0.54095 1.81302 0
M  V30 22753 O 2151.62 -0.498902 1.76796 0
M  V30 22754 C 2151.68 2.93664 2.07368 0
M  V30 22755 C 2151.34 4.3162 1.50177 0
M  V30 22756 C 2152.34 5.11516 0.929935 0
M  V30 22757 C 2150.02 4.78229 1.53631 0
M  V30 22758 C 2152.02 6.36142 0.400253 0
M  V30 22759 C 2149.71 6.02817 1.00276 0
M  V30 22760 C 2150.7 6.81609 0.435703 0
M  V30 22761 O 2150.39 8.0385 -0.0897463 0
M  V30 22762 H 2150.12 0.597144 0.316852 0
M  V30 22763 H 2152.68 2.02548 0.341093 0
M  V30 22764 H 2150.91 2.64708 2.81898 0
M  V30 22765 H 2152.6 3.04398 2.68509 0
M  V30 22766 H 2153.36 4.76649 0.896125 0
M  V30 22767 H 2149.24 4.16926 1.96707 0
M  V30 22768 H 2152.79 6.97587 -0.0430005 0
M  V30 22769 H 2148.68 6.37169 1.03373 0
M  V30 22770 H 2149.45 8.18497 0.0232118 0
M  V30 22771 N 2152.11 -0.560755 1.47286 0
M  V30 22772 C 2153.36 -1.31548 1.53426 0
M  V30 22773 C 2153.68 -1.94006 0.196648 0
M  V30 22774 O 2152.95 -1.79743 -0.779049 0
M  V30 22775 H 2151.53 -0.488493 0.565141 0
M  V30 22776 H 2154.19 -0.655071 1.83562 0
M  V30 22777 H 2153.29 -2.11085 2.2989 0
M  V30 22778 N 2153.59 -1.35359 -0.807199 0
M  V30 22779 C 2154.52 -1.30893 -1.93363 0
M  V30 22780 C 2155.5 -0.183475 -1.69108 0
M  V30 22781 O 2156.69 -0.378339 -1.90479 0
M  V30 22782 C 2153.82 -1.07954 -3.30096 0
M  V30 22783 C 2152.77 -2.17133 -3.68832 0
M  V30 22784 C 2152.1 -1.7936 -5.0372 0
M  V30 22785 C 2153.4 -3.59094 -3.79274 0
M  V30 22786 H 2155.09 -2.25145 -1.97357 0
M  V30 22787 H 2152.64 -1.08381 -0.948131 0
M  V30 22788 H 2154.59 -1.03469 -4.085 0
M  V30 22789 H 2153.31 -0.101468 -3.26442 0
M  V30 22790 H 2151.97 -2.20714 -2.92713 0
M  V30 22791 H 2151.62 -0.801733 -4.96569 0
M  V30 22792 H 2151.32 -2.52445 -5.30608 0
M  V30 22793 H 2152.85 -1.764 -5.84564 0
M  V30 22794 H 2154.26 -3.57839 -4.47911 0
M  V30 22795 H 2152.66 -4.30934 -4.17632 0
M  V30 22796 H 2153.73 -3.9529 -2.80845 0
M  V30 22797 N 2155.07 1.02928 -1.19346 0
M  V30 22798 C 2156.49 1.28572 -0.945592 0
M  V30 22799 C 2156.69 1.97841 0.382273 0
M  V30 22800 O 2155.74 2.26603 1.11388 0
M  V30 22801 C 2157.05 2.13321 -2.11931 0
M  V30 22802 C 2158.6 2.2663 -2.15889 0
M  V30 22803 C 2159.08 3.14751 -3.3271 0
M  V30 22804 N 2160.57 3.22339 -3.32644 0
M  V30 22805 C 2161.3 3.90712 -4.19681 0
M  V30 22806 N 2160.8 4.61319 -5.16872 0
M  V30 22807 N 2162.59 3.87107 -4.07559 0
M  V30 22808 H 2154.74 0.563808 -2.0478 0
M  V30 22809 H 2157.01 0.311375 -0.895405 0
M  V30 22810 H 2156.71 1.69745 -3.08025 0
M  V30 22811 H 2156.59 3.14032 -2.08959 0
M  V30 22812 H 2158.97 2.69437 -1.20365 0
M  V30 22813 H 2159.05 1.25471 -2.22914 0
M  V30 22814 H 2158.7 2.72652 -4.28513 0
M  V30 22815 H 2158.63 4.15968 -3.22921 0
M  V30 22816 H 2161.12 2.72052 -2.6229 0
M  V30 22817 H 2161.43 5.1112 -5.79634 0
M  V30 22818 H 2159.78 4.60185 -5.20821 0
M  V30 22819 H 2162.97 3.31086 -3.30908 0
M  V30 22820 H 2163.14 4.40119 -4.75604 0
M  V30 22821 N 2156.55 0.997319 1.2203 0
M  V30 22822 C 2157.96 0.708807 1.42997 0
M  V30 22823 C 2158.16 -0.718903 1.88239 0
M  V30 22824 O 2157.22 -1.48925 2.03906 0
M  V30 22825 C 2158.53 1.71814 2.4678 0
M  V30 22826 C 2160.08 1.73408 2.60573 0
M  V30 22827 C 2160.56 2.73216 3.67582 0
M  V30 22828 N 2162.05 2.71837 3.75045 0
M  V30 22829 C 2162.78 3.45728 4.57449 0
M  V30 22830 N 2162.28 4.29233 5.43811 0
M  V30 22831 N 2164.07 3.34413 4.51801 0
M  V30 22832 H 2156.22 1.91932 0.909709 0
M  V30 22833 H 2158.48 0.828004 0.461642 0
M  V30 22834 H 2158.19 2.74 2.20492 0
M  V30 22835 H 2158.06 1.51457 3.45457 0
M  V30 22836 H 2160.45 0.719178 2.86202 0
M  V30 22837 H 2160.53 1.97835 1.62157 0
M  V30 22838 H 2160.18 3.74859 3.427 0
M  V30 22839 H 2160.11 2.46058 4.65578 0
M  V30 22840 H 2162.6 2.11248 3.13341 0
M  V30 22841 H 2162.91 4.82429 6.03723 0
M  V30 22842 H 2161.26 4.33319 5.43378 0
M  V30 22843 H 2164.45 2.68614 3.83359 0
M  V30 22844 H 2164.62 3.92257 5.15789 0
M  V30 22845 N 2158.03 -1.37449 0.771075 0
M  V30 22846 C 2159.28 -1.98953 0.331779 0
M  V30 22847 C 2159.59 -1.61903 -1.09758 0
M  V30 22848 O 2160.79 -2.16505 -1.63823 0
M  V30 22849 C 2159.25 -3.55792 0.542247 0
M  V30 22850 C 2158.86 -4.01781 1.98183 0
M  V30 22851 C 2160.6 -4.24173 0.16654 0
M  V30 22852 C 2158.51 -5.51327 2.13993 0
M  V30 22853 H 2157.44 -0.74434 0.120306 0
M  V30 22854 H 2160.09 -1.56988 0.950108 0
M  V30 22855 H 2158.47 -3.95733 -0.145529 0
M  V30 22856 H 2159.65 -3.73086 2.7045 0
M  V30 22857 H 2157.96 -3.46179 2.31406 0
M  V30 22858 H 2160.56 -5.34052 0.263191 0
M  V30 22859 H 2160.9 -4.06825 -0.883113 0
M  V30 22860 H 2161.43 -3.89532 0.806838 0
M  V30 22861 H 2158.17 -5.736 3.17275 0
M  V30 22862 H 2157.69 -5.81707 1.46208 0
M  V30 22863 H 2159.37 -6.17286 1.93822 0
M  V30 22864 N 2159.5 -0.52156 -1.4872 0
M  V30 22865 C 2160.73 0.0117966 -2.06897 0
M  V30 22866 C 2161.15 1.28928 -1.37924 0
M  V30 22867 O 2160.5 1.76502 -0.464046 0
M  V30 22868 C 2160.56 0.248161 -3.60647 0
M  V30 22869 O 2160.28 -0.978703 -4.27028 0
M  V30 22870 C 2161.78 0.822848 -4.35596 0
M  V30 22871 H 2159 -0.0297145 -0.670342 0
M  V30 22872 H 2161.54 -0.724798 -1.91225 0
M  V30 22873 H 2159.7 0.934783 -3.75953 0
M  V30 22874 H 2160.11 -0.754221 -5.19049 0
M  V30 22875 H 2161.58 0.937703 -5.43977 0
M  V30 22876 H 2162.06 1.82571 -3.99455 0
M  V30 22877 H 2162.67 0.173056 -4.24948 0
M  V30 22878 N 2160.98 1.55502 -0.256304 0
M  V30 22879 C 2162.23 1.99168 0.365812 0
M  V30 22880 C 2162.56 1.14455 1.57259 0
M  V30 22881 O 2161.81 0.197615 1.947 0
M  V30 22882 C 2162.11 3.48098 0.810077 0
M  V30 22883 C 2161.78 4.49967 -0.289975 0
M  V30 22884 C 2160.44 4.77544 -0.592079 0
M  V30 22885 C 2162.79 5.10877 -1.03217 0
M  V30 22886 C 2160.12 5.63304 -1.64029 0
M  V30 22887 C 2162.47 5.97775 -2.06996 0
M  V30 22888 C 2161.14 6.23681 -2.37861 0
M  V30 22889 H 2160.41 0.728809 0.13386 0
M  V30 22890 H 2163.05 1.87968 -0.366092 0
M  V30 22891 H 2161.36 3.56679 1.62134 0
M  V30 22892 H 2163.05 3.79279 1.30186 0
M  V30 22893 H 2159.64 4.28577 -0.0443795 0
M  V30 22894 H 2163.83 4.89612 -0.812025 0
M  V30 22895 H 2159.08 5.81628 -1.88465 0
M  V30 22896 H 2163.26 6.44013 -2.64992 0
M  V30 22897 H 2160.89 6.89929 -3.19221 0
M  V30 22898 N 2162.46 -0.0166879 1.57591 0
M  V30 22899 C 2163.39 -1.01268 2.10398 0
M  V30 22900 C 2164.37 -1.36922 1.00928 0
M  V30 22901 O 2165.56 -1.45589 1.2852 0
M  V30 22902 C 2162.69 -2.30979 2.59357 0
M  V30 22903 C 2161.64 -2.09533 3.73202 0
M  V30 22904 C 2160.97 -3.45113 4.08413 0
M  V30 22905 C 2162.27 -1.47144 5.01145 0
M  V30 22906 H 2163.96 -0.573053 2.93865 0
M  V30 22907 H 2161.51 -0.274203 1.41365 0
M  V30 22908 H 2163.46 -3.00996 2.94923 0
M  V30 22909 H 2162.18 -2.77024 1.72989 0
M  V30 22910 H 2160.84 -1.41946 3.38004 0
M  V30 22911 H 2160.49 -3.88829 3.19094 0
M  V30 22912 H 2160.19 -3.31585 4.85104 0
M  V30 22913 H 2161.71 -4.16472 4.46524 0
M  V30 22914 H 2163.13 -2.07094 5.34588 0
M  V30 22915 H 2161.53 -1.44154 5.82529 0
M  V30 22916 H 2162.6 -0.438665 4.82912 0
M  V30 22917 N 2163.94 -1.54924 -0.289176 0
M  V30 22918 C 2165.19 -1.73974 -1.02059 0
M  V30 22919 C 2165.5 -0.539167 -1.88022 0
M  V30 22920 O 2166.71 -0.611723 -2.64519 0
M  V30 22921 C 2165.16 -3.07847 -1.86435 0
M  V30 22922 C 2164.77 -4.35421 -1.05417 0
M  V30 22923 C 2166.51 -3.36252 -2.59104 0
M  V30 22924 C 2164.42 -5.6034 -1.89138 0
M  V30 22925 H 2163.35 -0.648438 -0.384766 0
M  V30 22926 H 2166 -1.81397 -0.276999 0
M  V30 22927 H 2164.38 -2.94419 -2.64827 0
M  V30 22928 H 2165.56 -4.59718 -0.315551 0
M  V30 22929 H 2163.87 -4.14039 -0.442763 0
M  V30 22930 H 2166.47 -4.26785 -3.22115 0
M  V30 22931 H 2166.81 -2.55656 -3.28551 0
M  V30 22932 H 2167.35 -3.50705 -1.87753 0
M  V30 22933 H 2164.09 -6.43638 -1.2414 0
M  V30 22934 H 2163.61 -5.4021 -2.6064 0
M  V30 22935 H 2165.28 -5.98038 -2.46899 0
M  V30 22936 N 2165.42 0.552936 -1.47582 0
M  V30 22937 C 2166.38 1.64175 -1.59936 0
M  V30 22938 C 2167.38 1.5365 -0.474152 0
M  V30 22939 O 2168.57 1.57732 -0.739338 0
M  V30 22940 C 2165.7 3.03732 -1.5479 0
M  V30 22941 H 2166.89 1.54569 -2.56999 0
M  V30 22942 H 2164.45 0.773198 -1.35836 0
M  V30 22943 H 2165.18 3.18866 -0.591183 0
M  V30 22944 H 2164.97 3.12779 -2.36456 0
M  V30 22945 H 2166.46 3.82936 -1.66582 0
M  V30 22946 N 2166.89 1.35785 0.800009 0
M  V30 22947 C 2167.83 1.25104 1.92046 0
M  V30 22948 C 2168.84 0.172854 1.6188 0
M  V30 22949 O 2170.03 0.426685 1.73325 0
M  V30 22950 C 2167.13 0.905182 3.26588 0
M  V30 22951 C 2166.3 2.08308 3.84612 0
M  V30 22952 C 2165.36 1.71196 4.97572 0
M  V30 22953 O 2164.39 2.43153 5.1465 0
M  V30 22954 N 2165.59 0.639434 5.76967 0
M  V30 22955 H 2168.35 2.21638 2.01734 0
M  V30 22956 H 2165.91 1.29041 0.977759 0
M  V30 22957 H 2167.91 0.638273 3.99635 0
M  V30 22958 H 2166.48 0.02931 3.12586 0
M  V30 22959 H 2165.7 2.51341 3.0368 0
M  V30 22960 H 2166.98 2.87028 4.2011 0
M  V30 22961 H 2166.38 0.0417276 5.65685 0
M  V30 22962 H 2164.94 0.432323 6.50365 0
M  V30 22963 N 2168.37 -1.02294 1.19891 0
M  V30 22964 C 2169.28 -2.14169 0.957533 0
M  V30 22965 C 2170.3 -1.73795 -0.0844739 0
M  V30 22966 O 2171.47 -2.01144 0.101528 0
M  V30 22967 C 2168.54 -3.4299 0.50587 0
M  V30 22968 C 2167.6 -3.97643 1.61797 0
M  V30 22969 C 2166.83 -5.20315 1.18777 0
M  V30 22970 O 2167.06 -5.70375 0.0538032 0
M  V30 22971 O 2165.99 -5.67957 1.99268 0
M  V30 22972 H 2169.82 -2.37398 1.89409 0
M  V30 22973 H 2167.4 -1.12572 0.982234 0
M  V30 22974 H 2169.28 -4.20579 0.26292 0
M  V30 22975 H 2167.96 -3.21192 -0.402182 0
M  V30 22976 H 2166.87 -3.21362 1.91514 0
M  V30 22977 H 2168.2 -4.23817 2.5028 0
M  V30 22978 N 2169.85 -1.00378 -1.21499 0
M  V30 22979 C 2170.8 -0.563153 -2.23824 0
M  V30 22980 C 2171.77 0.410151 -1.60956 0
M  V30 22981 O 2172.95 0.312473 -1.88224 0
M  V30 22982 C 2170.09 0.105277 -3.44939 0
M  V30 22983 C 2169.21 -0.91106 -4.22284 0
M  V30 22984 C 2168.34 -0.215019 -5.30765 0
M  V30 22985 C 2167.38 -1.21899 -5.99839 0
M  V30 22986 N 2166.52 -0.550506 -6.99938 0
M  V30 22987 H 2171.36 -1.44041 -2.60876 0
M  V30 22988 H 2168.89 -0.721302 -1.28202 0
M  V30 22989 H 2170.85 0.509838 -4.14073 0
M  V30 22990 H 2169.48 0.946261 -3.08619 0
M  V30 22991 H 2168.53 -1.43387 -3.52341 0
M  V30 22992 H 2169.85 -1.67513 -4.69831 0
M  V30 22993 H 2169 0.245713 -6.06202 0
M  V30 22994 H 2167.74 0.581469 -4.84221 0
M  V30 22995 H 2166.74 -1.69024 -5.23174 0
M  V30 22996 H 2167.97 -2.01654 -6.48469 0
M  V30 22997 H 2165.91 0.226347 -6.55609 0
M  V30 22998 H 2165.83 -1.25285 -7.45547 0
M  V30 22999 H 2167.1 -0.112938 -7.79418 0
M  V30 23000 N 2171.33 1.37038 -0.778354 0
M  V30 23001 C 2172.24 2.33983 -0.170042 0
M  V30 23002 C 2173.25 1.60504 0.671902 0
M  V30 23003 O 2174.43 1.92556 0.590278 0
M  V30 23004 C 2171.5 3.39689 0.693729 0
M  V30 23005 C 2170.56 4.28981 -0.165434 0
M  V30 23006 C 2169.79 5.29638 0.657205 0
M  V30 23007 O 2170.01 5.38041 1.8939 0
M  V30 23008 O 2168.95 6.01867 0.0629255 0
M  V30 23009 H 2172.77 2.87749 -0.97131 0
M  V30 23010 H 2170.36 1.39314 -0.53962 0
M  V30 23011 H 2172.24 4.04348 1.18664 0
M  V30 23012 H 2170.91 2.8824 1.47307 0
M  V30 23013 H 2169.82 3.674 -0.704851 0
M  V30 23014 H 2171.15 4.83752 -0.908023 0
M  V30 23015 N 2172.81 0.529439 1.48441 0
M  V30 23016 C 2174.05 -0.00485664 2.02499 0
M  V30 23017 C 2174.38 -1.34333 1.40659 0
M  V30 23018 O 2173.64 -1.88057 0.541576 0
M  V30 23019 C 2173.94 -0.176478 3.56964 0
M  V30 23020 C 2173.6 1.08757 4.37587 0
M  V30 23021 C 2172.26 1.434 4.59336 0
M  V30 23022 C 2174.62 1.92647 4.8429 0
M  V30 23023 C 2171.94 2.61831 5.25035 0
M  V30 23024 C 2174.3 3.10256 5.51293 0
M  V30 23025 C 2172.96 3.45246 5.71281 0
M  V30 23026 H 2172.23 -0.00177717 0.740998 0
M  V30 23027 H 2174.88 0.695352 1.7843 0
M  V30 23028 H 2173.18 -0.959449 3.79871 0
M  V30 23029 H 2174.88 -0.604791 3.96413 0
M  V30 23030 H 2171.47 0.807773 4.20919 0
M  V30 23031 H 2175.65 1.67194 4.6729 0
M  V30 23032 H 2170.91 2.89143 5.38708 0
M  V30 23033 H 2175.08 3.75566 5.86449 0
M  V30 23034 H 2172.71 4.37113 6.21961 0
M  V30 23035 N 2174.29 -1.55364 0.264547 0
M  V30 23036 C 2175.7 -1.85212 -0.235254 0
M  V30 23037 C 2176.05 -1.18652 -1.56256 0
M  V30 23038 O 2175.17 -0.471096 -2.1121 0
M  V30 23039 C 2175.77 -3.36014 -0.43363 0
M  V30 23040 C 2174.33 -3.66024 -0.877673 0
M  V30 23041 C 2173.47 -2.77278 0.0350996 0
M  V30 23042 H 2176.42 -1.51055 0.486633 0
M  V30 23043 H 2176.45 -3.58548 -1.27373 0
M  V30 23044 H 2175.96 -3.84429 0.532565 0
M  V30 23045 H 2174.06 -3.23101 -1.85571 0
M  V30 23046 H 2174.17 -4.73624 -0.722315 0
M  V30 23047 H 2172.54 -2.50148 -0.479378 0
M  V30 23048 H 2173.32 -3.28504 0.996986 0
M  V30 23049 N 2175.76 0.00833021 -1.57598 0
M  V30 23050 C 2176.71 1.00242 -2.07895 0
M  V30 23051 C 2177.68 1.34651 -0.972534 0
M  V30 23052 O 2178.87 1.44632 -1.24444 0
M  V30 23053 C 2176.01 2.2918 -2.58013 0
M  V30 23054 C 2175.12 2.00747 -3.82524 0
M  V30 23055 C 2174.25 3.23706 -4.21175 0
M  V30 23056 C 2173.29 2.90921 -5.38546 0
M  V30 23057 N 2172.43 4.06392 -5.72529 0
M  V30 23058 H 2177.27 0.566561 -2.92565 0
M  V30 23059 H 2174.81 0.268106 -1.44636 0
M  V30 23060 H 2176.76 3.04546 -2.85145 0
M  V30 23061 H 2175.39 2.7045 -1.76229 0
M  V30 23062 H 2174.45 1.15786 -3.6235 0
M  V30 23063 H 2175.76 1.72576 -4.67995 0
M  V30 23064 H 2174.91 4.07424 -4.49545 0
M  V30 23065 H 2173.65 3.55007 -3.34397 0
M  V30 23066 H 2172.66 2.05609 -5.09907 0
M  V30 23067 H 2173.88 2.60875 -6.26993 0
M  V30 23068 H 2171.83 4.37606 -4.88709 0
M  V30 23069 H 2171.74 3.81717 -6.52555 0
M  V30 23070 H 2173.01 4.90923 -6.05487 0
M  V30 23071 N 2177.24 1.55075 0.280956 0
M  V30 23072 C 2178.49 1.75306 1.01361 0
M  V30 23073 C 2178.82 0.549775 1.86568 0
M  V30 23074 O 2178.07 -0.467908 1.90024 0
M  V30 23075 C 2178.37 3.00658 1.93234 0
M  V30 23076 C 2178.04 4.3356 1.23841 0
M  V30 23077 C 2176.7 4.69683 1.0465 0
M  V30 23078 C 2179.05 5.15863 0.743962 0
M  V30 23079 C 2176.38 5.85671 0.347296 0
M  V30 23080 C 2178.73 6.32573 0.0583841 0
M  V30 23081 C 2177.39 6.67342 -0.145308 0
M  V30 23082 H 2176.66 0.641491 0.370905 0
M  V30 23083 H 2179.31 1.89343 0.286608 0
M  V30 23084 H 2177.62 2.81488 2.72529 0
M  V30 23085 H 2179.31 3.13507 2.50029 0
M  V30 23086 H 2175.9 4.05163 1.39788 0
M  V30 23087 H 2180.09 4.88438 0.879877 0
M  V30 23088 H 2175.34 6.11139 0.178683 0
M  V30 23089 H 2179.52 6.95606 -0.332548 0
M  V30 23090 H 2177.14 7.5707 -0.689091 0
M  V30 23091 N 2178.72 -0.545102 1.47873 0
M  V30 23092 C 2179.97 -1.30171 1.55119 0
M  V30 23093 C 2180.29 -1.93268 0.21859 0
M  V30 23094 O 2179.55 -1.79059 -0.789717 0
M  V30 23095 C 2179.85 -2.42353 2.62678 0
M  V30 23096 C 2179.51 -1.97008 4.05584 0
M  V30 23097 C 2178.18 -1.84358 4.44484 0
M  V30 23098 C 2180.53 -1.62553 4.95203 0
M  V30 23099 C 2177.86 -1.35566 5.70823 0
M  V30 23100 C 2180.21 -1.15228 6.22017 0
M  V30 23101 C 2178.87 -1.01184 6.59786 0
M  V30 23102 H 2178.14 -0.476329 0.567619 0
M  V30 23103 H 2180.79 -0.609975 1.81526 0
M  V30 23104 H 2179.09 -3.17133 2.30074 0
M  V30 23105 H 2180.79 -3.00514 2.65504 0
M  V30 23106 H 2177.38 -2.078 3.74856 0
M  V30 23107 H 2181.57 -1.71193 4.6584 0
M  V30 23108 H 2176.82 -1.23367 5.98824 0
M  V30 23109 H 2181 -0.87634 6.90864 0
M  V30 23110 H 2178.62 -0.631553 7.57572 0
M  V30 23111 N 2180.2 -1.36208 -0.792797 0
M  V30 23112 C 2181.43 -1.33396 -1.58155 0
M  V30 23113 C 2181.84 0.0855356 -1.88606 0
M  V30 23114 O 2181.2 1.04147 -1.49865 0
M  V30 23115 C 2181.25 -2.15213 -2.90458 0
M  V30 23116 O 2180.97 -3.51629 -2.61321 0
M  V30 23117 C 2182.47 -2.20144 -3.84775 0
M  V30 23118 H 2179.69 -0.457713 -0.490652 0
M  V30 23119 H 2182.23 -1.79258 -0.984222 0
M  V30 23120 H 2180.39 -1.72915 -3.46669 0
M  V30 23121 H 2180.8 -3.94282 -3.45893 0
M  V30 23122 H 2182.28 -2.81755 -4.74677 0
M  V30 23123 H 2182.75 -1.20396 -4.22376 0
M  V30 23124 H 2183.36 -2.62663 -3.34497 0
M  V30 23125 N 2181.68 1.01656 -1.20431 0
M  V30 23126 C 2182.92 1.75255 -1.01449 0
M  V30 23127 C 2183.25 1.89142 0.453379 0
M  V30 23128 O 2182.51 1.4141 1.35284 0
M  V30 23129 C 2182.8 3.17385 -1.64322 0
M  V30 23130 C 2182.47 3.23475 -3.14126 0
M  V30 23131 C 2181.13 3.24844 -3.55007 0
M  V30 23132 C 2183.48 3.21636 -4.10122 0
M  V30 23133 C 2180.81 3.22046 -4.90411 0
M  V30 23134 C 2183.16 3.20379 -5.45472 0
M  V30 23135 C 2181.83 3.20052 -5.85767 0
M  V30 23136 H 2181.1 0.641303 -0.37123 0
M  V30 23137 H 2183.75 1.19228 -1.49857 0
M  V30 23138 H 2182.05 3.7657 -1.08177 0
M  V30 23139 H 2183.75 3.73025 -1.4715 0
M  V30 23140 H 2180.34 3.23145 -2.81559 0
M  V30 23141 H 2184.52 3.19748 -3.79572 0
M  V30 23142 H 2179.78 3.20123 -5.20894 0
M  V30 23143 H 2183.95 3.17908 -6.19602 0
M  V30 23144 H 2181.58 3.17638 -6.90659 0
M  V30 23145 N 2183.15 1.01021 1.20965 0
M  V30 23146 C 2184.57 0.723934 1.42237 0
M  V30 23147 C 2184.77 -0.698897 1.88991 0
M  V30 23148 O 2183.83 -1.46754 2.05474 0
M  V30 23149 C 2185.14 1.74422 2.44944 0
M  V30 23150 C 2186.69 1.76162 2.5872 0
M  V30 23151 C 2187.16 2.771 3.64664 0
M  V30 23152 N 2188.65 2.758 3.72141 0
M  V30 23153 C 2189.39 3.5056 4.53757 0
M  V30 23154 N 2188.88 4.34977 5.39228 0
M  V30 23155 N 2190.68 3.39187 4.48229 0
M  V30 23156 H 2182.83 1.92886 0.889301 0
M  V30 23157 H 2185.09 0.832854 0.452834 0
M  V30 23158 H 2184.8 2.76323 2.17574 0
M  V30 23159 H 2184.67 1.55112 3.43831 0
M  V30 23160 H 2187.06 0.749493 2.85424 0
M  V30 23161 H 2187.14 1.99544 1.60049 0
M  V30 23162 H 2186.78 3.78473 3.38705 0
M  V30 23163 H 2186.71 2.50982 4.62942 0
M  V30 23164 H 2189.2 2.1456 3.11083 0
M  V30 23165 H 2189.52 4.88805 5.98573 0
M  V30 23166 H 2187.86 4.39057 5.38752 0
M  V30 23167 H 2191.05 2.72665 3.80488 0
M  V30 23168 H 2191.23 3.97705 5.116 0
M  V30 23169 N 2184.63 -1.36623 0.78561 0
M  V30 23170 C 2185.59 -2.28433 0.187388 0
M  V30 23171 C 2186.59 -1.48655 -0.613055 0
M  V30 23172 O 2187.78 -1.68691 -0.434608 0
M  V30 23173 C 2184.92 -3.32746 -0.741121 0
M  V30 23174 H 2186.11 -2.82847 0.996872 0
M  V30 23175 H 2183.66 -1.46123 0.554769 0
M  V30 23176 H 2184.4 -2.83481 -1.57509 0
M  V30 23177 H 2184.18 -3.91735 -0.169144 0
M  V30 23178 H 2185.67 -4.01319 -1.15467 0
M  V30 23179 N 2186.11 -0.537304 -1.48158 0
M  V30 23180 C 2187.53 -0.195663 -1.58396 0
M  V30 23181 C 2187.73 1.30132 -1.53843 0
M  V30 23182 O 2186.78 2.08011 -1.43135 0
M  V30 23183 C 2188.09 -0.804684 -2.89733 0
M  V30 23184 C 2189.64 -0.774086 -3.03277 0
M  V30 23185 C 2190.12 -1.36181 -4.37285 0
M  V30 23186 N 2191.61 -1.32411 -4.43871 0
M  V30 23187 C 2192.34 -1.74869 -5.46085 0
M  V30 23188 N 2191.84 -2.2509 -6.55215 0
M  V30 23189 N 2193.63 -1.66061 -5.3701 0
M  V30 23190 H 2185.78 -1.51014 -1.4936 0
M  V30 23191 H 2188.05 -0.628585 -0.709637 0
M  V30 23192 H 2187.75 -1.85596 -2.98742 0
M  V30 23193 H 2187.63 -0.286039 -3.76114 0
M  V30 23194 H 2190.01 0.26845 -2.93876 0
M  V30 23195 H 2190.09 -1.33028 -2.18489 0
M  V30 23196 H 2189.74 -2.40332 -4.47441 0
M  V30 23197 H 2189.67 -0.781239 -5.20773 0
M  V30 23198 H 2192.16 -0.956544 -3.65594 0
M  V30 23199 H 2192.47 -2.55463 -7.29355 0
M  V30 23200 H 2190.82 -2.29088 -6.56158 0
M  V30 23201 H 2194.01 -1.26618 -4.5065 0
M  V30 23202 H 2194.18 -1.9947 -6.16535 0
M  V30 23203 N 2187.59 1.55221 -0.272782 0
M  V30 23204 C 2188.87 1.91543 0.396336 0
M  V30 23205 C 2189.25 1.19676 1.73899 0
M  V30 23206 O 2188.59 0.322832 2.26208 0
M  V30 23207 C 2188.8 3.44814 0.53892 0
M  V30 23208 C 2190.15 4.1655 0.822894 0
M  V30 23209 O 2191.18 3.50695 0.623816 0
M  V30 23210 O 2190.03 5.33084 1.2035 0
M  V30 23211 H 2187.13 0.798123 0.21663 0
M  V30 23212 H 2189.67 1.66679 -0.318762 0
M  V30 23213 H 2188.45 3.89187 -0.406068 0
M  V30 23214 H 2188.07 3.75623 1.30358 0
M  V30 23215 N 2189.07 2.77022e-05 1.576 0
M  V30 23216 C 2189.98 -1.0077 2.11855 0
M  V30 23217 C 2190.99 -1.37692 1.06382 0
M  V30 23218 O 2192.17 -1.46423 1.38283 0
M  V30 23219 C 2189.23 -2.28082 2.61112 0
M  V30 23220 C 2188.29 -1.97473 3.81186 0
M  V30 23221 C 2187.53 -3.18716 4.28084 0
M  V30 23222 O 2187.75 -4.30401 3.74315 0
M  V30 23223 O 2186.68 -3.02712 5.20239 0
M  V30 23224 H 2190.51 -0.576494 2.98178 0
M  V30 23225 H 2188.1 -0.218802 1.47789 0
M  V30 23226 H 2189.98 -3.02875 2.92992 0
M  V30 23227 H 2188.65 -2.70441 1.77886 0
M  V30 23228 H 2187.56 -1.20156 3.54279 0
M  V30 23229 H 2188.89 -1.59951 4.65485 0
M  V30 23230 N 2190.54 -1.55222 -0.272728 0
M  V30 23231 C 2191.79 -1.75841 -1.00429 0
M  V30 23232 C 2192.12 -0.559662 -1.86274 0
M  V30 23233 O 2191.37 0.457824 -1.90269 0
M  V30 23234 C 2191.67 -3.01679 -1.91637 0
M  V30 23235 C 2191.34 -4.34211 -1.2154 0
M  V30 23236 C 2190 -4.70231 -1.02158 0
M  V30 23237 C 2192.35 -5.1625 -0.716594 0
M  V30 23238 C 2189.68 -5.85847 -0.316231 0
M  V30 23239 C 2192.03 -6.32595 -0.0248364 0
M  V30 23240 C 2190.7 -6.67255 0.180696 0
M  V30 23241 H 2189.97 -0.643449 -0.367497 0
M  V30 23242 H 2192.61 -1.89492 -0.276563 0
M  V30 23243 H 2190.92 -2.82929 -2.71032 0
M  V30 23244 H 2192.62 -3.14828 -2.48363 0
M  V30 23245 H 2189.21 -4.05899 -1.37638 0
M  V30 23246 H 2193.39 -4.88898 -0.853961 0
M  V30 23247 H 2188.65 -6.11225 -0.14627 0
M  V30 23248 H 2192.82 -6.95419 0.369433 0
M  V30 23249 H 2190.45 -7.56694 0.729231 0
M  V30 23250 N 2192.02 0.537252 -1.4816 0
M  V30 23251 C 2192.99 1.62469 -1.61668 0
M  V30 23252 C 2193.99 1.53139 -0.490422 0
M  V30 23253 O 2195.18 1.56939 -0.756026 0
M  V30 23254 C 2192.31 3.02073 -1.58003 0
M  V30 23255 H 2193.5 1.51834 -2.58624 0
M  V30 23256 H 2191.05 0.758747 -1.36648 0
M  V30 23257 H 2191.79 3.18221 -0.624969 0
M  V30 23258 H 2191.57 3.10254 -2.3976 0
M  V30 23259 H 2193.06 3.81148 -1.70634 0
M  V30 23260 N 2193.5 1.36626 0.785562 0
M  V30 23261 C 2194.41 1.33428 1.92961 0
M  V30 23262 C 2195.43 0.235882 1.72394 0
M  V30 23263 O 2196.6 0.468912 1.95865 0
M  V30 23264 C 2193.67 1.12668 3.27882 0
M  V30 23265 C 2192.73 2.32019 3.612 0
M  V30 23266 C 2191.96 2.1224 4.89684 0
M  V30 23267 O 2192.18 1.09955 5.59702 0
M  V30 23268 O 2191.12 3.00107 5.21746 0
M  V30 23269 H 2194.94 2.29757 1.98609 0
M  V30 23270 H 2192.53 1.17213 0.926363 0
M  V30 23271 H 2194.41 1.03024 4.08612 0
M  V30 23272 H 2193.09 0.194048 3.23118 0
M  V30 23273 H 2191.99 2.47233 2.80761 0
M  V30 23274 H 2193.33 3.23802 3.70693 0
M  V30 23275 N 2194.98 -1.01016 1.20969 0
M  V30 23276 C 2196.26 -1.71932 0.93267 0
M  V30 23277 C 2196.64 -2.03622 -0.556884 0
M  V30 23278 O 2195.98 -1.70583 -1.52032 0
M  V30 23279 C 2196.19 -2.98251 1.81238 0
M  V30 23280 C 2197.54 -3.71385 2.05811 0
M  V30 23281 O 2198.57 -3.08221 1.78544 0
M  V30 23282 O 2197.42 -4.84985 2.51896 0
M  V30 23283 H 2194.52 -0.749619 0.349286 0
M  V30 23284 H 2197.06 -1.06806 1.31873 0
M  V30 23285 H 2195.84 -2.71203 2.82072 0
M  V30 23286 H 2195.46 -3.71117 1.4268 0
M  V30 23287 N 2196.46 -1.01661 -1.20428 0
M  V30 23288 C 2197.87 -0.731467 -1.41851 0
M  V30 23289 C 2198.07 0.688865 -1.89359 0
M  V30 23290 O 2197.13 1.45662 -2.06249 0
M  V30 23291 C 2198.44 -1.75718 -2.44016 0
M  V30 23292 C 2199.99 -1.77532 -2.57782 0
M  V30 23293 C 2200.46 -2.7903 -3.63189 0
M  V30 23294 N 2201.96 -2.7777 -3.70673 0
M  V30 23295 C 2202.69 -3.52962 -4.51891 0
M  V30 23296 N 2202.19 -4.3783 -5.36914 0
M  V30 23297 N 2203.98 -3.41559 -4.46424 0
M  V30 23298 H 2196.13 -1.93355 -0.879059 0
M  V30 23299 H 2198.39 -0.835244 -0.448411 0
M  V30 23300 H 2198.1 -2.77473 -2.16105 0
M  V30 23301 H 2197.97 -1.56933 -3.43004 0
M  V30 23302 H 2200.36 -0.764619 -2.85022 0
M  V30 23303 H 2200.44 -2.0039 -1.58989 0
M  V30 23304 H 2200.09 -3.80264 -3.36693 0
M  V30 23305 H 2200.02 -2.53433 -4.61605 0
M  V30 23306 H 2202.51 -2.16206 -3.09941 0
M  V30 23307 H 2202.82 -4.91973 -5.95972 0
M  V30 23308 H 2201.16 -4.41908 -5.36416 0
M  V30 23309 H 2204.36 -2.74679 -3.79037 0
M  V30 23310 H 2204.53 -4.00413 -5.09484 0
M  V30 23311 N 2197.93 1.36205 -0.792844 0
M  V30 23312 C 2199.18 1.984 -0.363388 0
M  V30 23313 C 2199.5 1.63628 1.07169 0
M  V30 23314 O 2200.7 2.19083 1.60358 0
M  V30 23315 C 2199.16 3.54884 -0.598782 0
M  V30 23316 C 2198.77 3.98577 -2.0455 0
M  V30 23317 C 2200.51 4.23855 -0.234001 0
M  V30 23318 C 2198.42 5.47852 -2.22737 0
M  V30 23319 H 2197.35 0.742332 -0.132133 0
M  V30 23320 H 2200 1.55457 -0.974963 0
M  V30 23321 H 2198.38 3.95914 0.0825526 0
M  V30 23322 H 2199.55 3.68737 -2.76351 0
M  V30 23323 H 2197.87 3.42454 -2.36885 0
M  V30 23324 H 2200.47 5.33566 -0.348121 0
M  V30 23325 H 2200.81 4.08179 0.818279 0
M  V30 23326 H 2201.34 3.88199 -0.868707 0
M  V30 23327 H 2198.08 5.6848 -3.2636 0
M  V30 23328 H 2197.6 5.79308 -1.55444 0
M  V30 23329 H 2199.28 6.14124 -2.03618 0
M  V30 23330 N 2199.41 0.545154 1.47871 0
M  V30 23331 C 2200.64 0.0210898 2.06589 0
M  V30 23332 C 2201.05 -1.27266 1.4 0
M  V30 23333 O 2200.39 -1.77142 0.486452 0
M  V30 23334 C 2200.46 -0.25787 3.58574 0
M  V30 23335 C 2200.12 0.944652 4.4713 0
M  V30 23336 C 2201.12 1.84707 4.85983 0
M  V30 23337 C 2198.8 1.15593 4.88819 0
M  V30 23338 C 2200.8 2.94456 5.65309 0
M  V30 23339 C 2198.48 2.25652 5.67912 0
M  V30 23340 C 2199.48 3.14915 6.06067 0
M  V30 23341 O 2199.17 4.23069 6.8357 0
M  V30 23342 H 2198.9 0.0373018 0.67497 0
M  V30 23343 H 2201.45 0.754632 1.91035 0
M  V30 23344 H 2199.68 -1.04557 3.72296 0
M  V30 23345 H 2201.37 -0.72585 3.99357 0
M  V30 23346 H 2202.14 1.69585 4.54385 0
M  V30 23347 H 2198.02 0.47036 4.58594 0
M  V30 23348 H 2201.56 3.64156 5.9501 0
M  V30 23349 H 2197.46 2.40752 5.98923 0
M  V30 23350 H 2198.23 4.20966 7.01947 0
M  V30 23351 N 2200.89 -1.55074 0.28101 0
M  V30 23352 C 2202.31 -1.59433 -0.0729684 0
M  V30 23353 C 2202.51 -1.29819 -1.54108 0
M  V30 23354 O 2201.56 -1.06191 -2.29085 0
M  V30 23355 C 2202.88 -2.99129 0.306974 0
M  V30 23356 C 2204.42 -3.11967 0.254078 0
M  V30 23357 C 2204.9 -4.53939 0.608547 0
M  V30 23358 N 2206.39 -4.59798 0.560322 0
M  V30 23359 C 2207.12 -5.67688 0.807319 0
M  V30 23360 N 2206.62 -6.83699 1.11924 0
M  V30 23361 N 2208.41 -5.57264 0.735721 0
M  V30 23362 H 2200.56 -1.72588 1.23803 0
M  V30 23363 H 2202.83 -0.805073 0.500561 0
M  V30 23364 H 2202.53 -3.25655 1.32822 0
M  V30 23365 H 2202.41 -3.75579 -0.349297 0
M  V30 23366 H 2204.79 -2.85202 -0.75789 0
M  V30 23367 H 2204.88 -2.37717 0.94469 0
M  V30 23368 H 2204.52 -4.81431 1.61823 0
M  V30 23369 H 2204.45 -5.26497 -0.10392 0
M  V30 23370 H 2206.94 -3.76462 0.329354 0
M  V30 23371 H 2207.25 -7.61886 1.29422 0
M  V30 23372 H 2205.6 -6.853 1.15708 0
M  V30 23373 H 2208.79 -4.65509 0.491834 0
M  V30 23374 H 2208.96 -6.41269 0.931595 0
M  V30 23375 N 2202.37 -0.00838561 -1.57598 0
M  V30 23376 C 2203.32 0.989009 -2.05433 0
M  V30 23377 C 2204.3 1.29811 -0.950684 0
M  V30 23378 O 2205.5 1.28768 -1.2144 0
M  V30 23379 C 2202.62 2.27829 -2.56805 0
M  V30 23380 C 2201.71 1.99847 -3.74062 0
M  V30 23381 N 2202.1 1.42054 -4.85442 0
M  V30 23382 C 2200.4 2.29947 -3.82152 0
M  V30 23383 C 2201.1 1.30733 -5.66819 0
M  V30 23384 N 2200.08 1.79581 -5.13081 0
M  V30 23385 H 2203.88 0.536803 -2.88956 0
M  V30 23386 H 2201.39 0.19712 -1.61199 0
M  V30 23387 H 2203.39 3.00132 -2.89355 0
M  V30 23388 H 2202.05 2.73695 -1.74704 0
M  V30 23389 H 2203.06 1.09824 -5.06122 0
M  V30 23390 H 2199.74 2.78629 -3.10921 0
M  V30 23391 H 2201.13 0.862211 -6.66345 0
M  V30 23392 N 2203.85 1.55365 0.264492 0
M  V30 23393 C 2204.78 1.91838 1.33117 0
M  V30 23394 C 2205.76 0.781219 1.51099 0
M  V30 23395 O 2206.94 1.04006 1.64001 0
M  V30 23396 C 2204.07 2.19774 2.68918 0
M  V30 23397 C 2203.03 3.35576 2.65655 0
M  V30 23398 C 2202.35 3.49011 4.05087 0
M  V30 23399 C 2203.65 4.71743 2.24179 0
M  V30 23400 H 2205.35 2.81184 1.02839 0
M  V30 23401 H 2202.89 1.35288 0.493263 0
M  V30 23402 H 2204.85 2.43878 3.43659 0
M  V30 23403 H 2203.57 1.27236 3.00796 0
M  V30 23404 H 2202.23 3.11453 1.93371 0
M  V30 23405 H 2201.88 2.53924 4.34202 0
M  V30 23406 H 2201.58 4.26875 4.03797 0
M  V30 23407 H 2203.1 3.75417 4.81554 0
M  V30 23408 H 2204.52 4.95335 2.88646 0
M  V30 23409 H 2202.91 5.52583 2.34034 0
M  V30 23410 H 2203.98 4.6999 1.19319 0
M  V30 23411 N 2205.33 -0.529387 1.48443 0
M  V30 23412 C 2206.24 -1.66081 1.65693 0
M  V30 23413 C 2207.25 -1.65426 0.539461 0
M  V30 23414 O 2208.43 -1.84367 0.810605 0
M  V30 23415 C 2205.49 -3.02542 1.69321 0
M  V30 23416 C 2204.55 -3.14047 2.927 0
M  V30 23417 C 2203.79 -4.43998 2.96144 0
M  V30 23418 O 2204.01 -5.31131 2.07982 0
M  V30 23419 O 2202.94 -4.59881 3.8832 0
M  V30 23420 H 2206.77 -1.54464 2.61485 0
M  V30 23421 H 2204.35 -0.702544 1.31851 0
M  V30 23422 H 2206.24 -3.83698 1.74224 0
M  V30 23423 H 2204.91 -3.14481 0.767022 0
M  V30 23424 H 2203.82 -2.32184 2.93328 0
M  V30 23425 H 2205.15 -3.07023 3.84704 0
M  V30 23426 N 2206.8 -1.37041 -0.778305 0
M  V30 23427 C 2208.21 -1.28525 -1.35419 0
M  V30 23428 C 2208.57 0.0700557 -1.96075 0
M  V30 23429 O 2207.69 0.971767 -1.93354 0
M  V30 23430 C 2208.29 -2.32739 -2.46207 0
M  V30 23431 C 2206.84 -2.27878 -2.99581 0
M  V30 23432 C 2205.99 -2.16921 -1.72744 0
M  V30 23433 H 2208.94 -1.47758 -0.579074 0
M  V30 23434 H 2208.96 -1.97026 -3.25517 0
M  V30 23435 H 2208.48 -3.31369 -2.0203 0
M  V30 23436 H 2206.58 -1.32751 -3.48149 0
M  V30 23437 H 2206.69 -3.21025 -3.5564 0
M  V30 23438 H 2205.05 -1.63358 -1.95413 0
M  V30 23439 H 2205.84 -3.17455 -1.30681 0
M  V30 23440 N 2208.28 1.00373 -1.21503 0
M  V30 23441 C 2209.24 2.07336 -0.976963 0
M  V30 23442 C 2210.24 1.60714 0.052504 0
M  V30 23443 O 2211.43 1.73216 -0.1849 0
M  V30 23444 C 2208.57 3.37596 -0.473483 0
M  V30 23445 H 2209.76 2.29889 -1.92591 0
M  V30 23446 H 2207.31 1.17369 -1.03219 0
M  V30 23447 H 2208.05 3.20723 0.480323 0
M  V30 23448 H 2207.83 3.72766 -1.21607 0
M  V30 23449 H 2209.32 4.16319 -0.326824 0
M  V30 23450 N 2209.76 1.02298 1.19887 0
M  V30 23451 C 2210.69 0.619214 2.2514 0
M  V30 23452 C 2211.67 -0.368886 1.66052 0
M  V30 23453 O 2212.86 -0.252907 1.92546 0
M  V30 23454 C 2209.99 -0.0368173 3.4728 0
M  V30 23455 C 2208.94 0.872939 4.19003 0
M  V30 23456 C 2208.27 0.0823342 5.34637 0
M  V30 23457 C 2209.57 2.18395 4.74448 0
M  V30 23458 H 2211.26 1.49907 2.59168 0
M  V30 23459 H 2208.81 0.722244 1.24578 0
M  V30 23460 H 2210.76 -0.330884 4.20099 0
M  V30 23461 H 2209.48 -0.951435 3.12434 0
M  V30 23462 H 2208.14 1.15111 3.48059 0
M  V30 23463 H 2207.79 -0.834133 4.96036 0
M  V30 23464 H 2207.49 0.688252 5.83555 0
M  V30 23465 H 2209.01 -0.20513 6.10255 0
M  V30 23466 H 2210.43 1.95182 5.39052 0
M  V30 23467 H 2208.82 2.74128 5.33829 0
M  V30 23468 H 2209.89 2.84263 3.92839 0
M  V30 23469 N 2211.24 -1.35782 0.800057 0
M  V30 23470 C 2212.2 -2.28221 0.211605 0
M  V30 23471 C 2213.2 -1.49297 -0.597254 0
M  V30 23472 O 2214.39 -1.69143 -0.416692 0
M  V30 23473 C 2211.52 -3.33514 -0.705787 0
M  V30 23474 H 2212.72 -2.81774 1.02682 0
M  V30 23475 H 2210.27 -1.45527 0.570236 0
M  V30 23476 H 2211 -2.85136 -1.54493 0
M  V30 23477 H 2210.79 -3.91892 -0.127586 0
M  V30 23478 H 2212.28 -4.02521 -1.11204 0
M  V30 23479 N 2212.72 -0.552988 -1.4758 0
M  V30 23480 C 2213.96 -0.0273599 -2.02482 0
M  V30 23481 C 2214.29 1.32078 -1.42778 0
M  V30 23482 O 2213.55 1.87172 -0.571426 0
M  V30 23483 C 2213.84 0.119666 -3.572 0
M  V30 23484 C 2213.51 -1.15705 -4.35802 0
M  V30 23485 C 2212.17 -1.50689 -4.56997 0
M  V30 23486 C 2214.52 -2.00327 -4.81164 0
M  V30 23487 C 2211.85 -2.70151 -5.20803 0
M  V30 23488 C 2214.2 -3.18988 -5.46287 0
M  V30 23489 C 2212.87 -3.5429 -5.65716 0
M  V30 23490 H 2212.14 -0.0100117 -0.740932 0
M  V30 23491 H 2214.79 -0.723651 -1.77301 0
M  V30 23492 H 2213.09 0.898893 -3.81349 0
M  V30 23493 H 2214.79 0.541648 -3.97325 0
M  V30 23494 H 2211.38 -0.874635 -4.19581 0
M  V30 23495 H 2215.56 -1.74607 -4.64571 0
M  V30 23496 H 2210.82 -2.97677 -5.3404 0
M  V30 23497 H 2214.99 -3.84849 -5.804 0
M  V30 23498 H 2212.62 -4.46953 -6.14929 0
M  V30 23499 N 2214.19 1.54923 -0.28923 0
M  V30 23500 C 2215.13 2.20498 0.625544 0
M  V30 23501 C 2216.14 1.19404 1.10665 0
M  V30 23502 O 2217.33 1.46058 1.02612 0
M  V30 23503 C 2214.43 2.82838 1.86697 0
M  V30 23504 C 2213.6 4.09756 1.53033 0
M  V30 23505 C 2212.66 4.56009 2.62568 0
M  V30 23506 O 2211.69 5.21472 2.28157 0
M  V30 23507 N 2212.89 4.27335 3.92893 0
M  V30 23508 H 2215.65 2.99631 0.0642274 0
M  V30 23509 H 2213.21 1.6152 -0.110924 0
M  V30 23510 H 2215.21 3.10719 2.59298 0
M  V30 23511 H 2213.78 2.07615 2.33698 0
M  V30 23512 H 2213 3.89011 0.637496 0
M  V30 23513 H 2214.28 4.9242 1.28063 0
M  V30 23514 H 2213.68 3.74866 4.23665 0
M  V30 23515 H 2212.24 4.59954 4.61829 0
M  V30 23516 N 2215.67 0.0167433 1.57591 0
M  V30 23517 C 2216.6 -0.96782 2.12498 0
M  V30 23518 C 2217.58 -1.3475 1.03809 0
M  V30 23519 O 2218.77 -1.4283 1.31579 0
M  V30 23520 C 2215.9 -2.25426 2.64198 0
M  V30 23521 C 2214.85 -2.0157 3.77563 0
M  V30 23522 C 2214.18 -3.36372 4.15642 0
M  V30 23523 C 2215.48 -1.36481 5.04153 0
M  V30 23524 H 2217.17 -0.510591 2.95014 0
M  V30 23525 H 2214.72 -0.244156 1.41915 0
M  V30 23526 H 2216.67 -2.94672 3.01241 0
M  V30 23527 H 2215.39 -2.73292 1.78826 0
M  V30 23528 H 2214.05 -1.34745 3.40939 0
M  V30 23529 H 2213.7 -3.81973 3.27269 0
M  V30 23530 H 2213.4 -3.2122 4.92028 0
M  V30 23531 H 2214.93 -4.06907 4.55258 0
M  V30 23532 H 2216.34 -1.95708 5.38861 0
M  V30 23533 H 2214.74 -1.31765 5.85455 0
M  V30 23534 H 2215.81 -0.336134 4.83734 0
M  V30 23535 N 2217.15 -1.55503 -0.256249 0
M  V30 23536 C 2218.06 -1.92649 -1.33879 0
M  V30 23537 C 2219.08 -0.825754 -1.53158 0
M  V30 23538 O 2220.25 -1.12632 -1.66961 0
M  V30 23539 C 2217.32 -2.20548 -2.67506 0
M  V30 23540 C 2216.38 -3.44001 -2.5683 0
M  V30 23541 C 2215.61 -3.70559 -3.84085 0
M  V30 23542 O 2215.83 -2.99344 -4.8554 0
M  V30 23543 O 2214.77 -4.64091 -3.8328 0
M  V30 23544 H 2218.59 -2.84835 -1.05369 0
M  V30 23545 H 2216.18 -1.42264 -0.456212 0
M  V30 23546 H 2218.06 -2.39842 -3.46488 0
M  V30 23547 H 2216.74 -1.31542 -2.95768 0
M  V30 23548 H 2215.64 -3.30024 -1.76167 0
M  V30 23549 H 2216.98 -4.3328 -2.33516 0
M  V30 23550 N 2218.63 0.521507 -1.48721 0
M  V30 23551 C 2219.56 1.63428 -1.66774 0
M  V30 23552 C 2220.54 1.62068 -0.516528 0
M  V30 23553 O 2221.72 1.79131 -0.750045 0
M  V30 23554 C 2218.85 3.0199 -1.71521 0
M  V30 23555 C 2217.81 3.18211 -2.86227 0
M  V30 23556 C 2217.13 4.57919 -2.76069 0
M  V30 23557 C 2218.43 3.00177 -4.27424 0
M  V30 23558 H 2220.13 1.48574 -2.59935 0
M  V30 23559 H 2217.67 0.713336 -1.2509 0
M  V30 23560 H 2219.63 3.79717 -1.82738 0
M  V30 23561 H 2218.35 3.17885 -0.749449 0
M  V30 23562 H 2217.01 2.42903 -2.74579 0
M  V30 23563 H 2216.66 4.70662 -1.77445 0
M  V30 23564 H 2216.36 4.69716 -3.53045 0
M  V30 23565 H 2217.88 5.37734 -2.89266 0
M  V30 23566 H 2219.3 3.67689 -4.39861 0
M  V30 23567 H 2217.69 3.23461 -5.05463 0
M  V30 23568 H 2218.76 1.96511 -4.43296 0
M  V30 23569 N 2220.11 1.37452 0.771027 0
M  V30 23570 C 2221.05 1.33361 1.90572 0
M  V30 23571 C 2222.05 0.22227 1.67935 0
M  V30 23572 O 2223.25 0.390335 1.75717 0
M  V30 23573 H 2219.63 0.415623 0.626707 0
M  V30 23574 H 2221.6 2.29148 1.91138 0
M  V30 23575 C 2220.35 1.15819 3.27843 0
M  V30 23576 H 2219.67 2.00589 3.45838 0
M  V30 23577 H 2221.11 1.17007 4.07536 0
M  V30 23578 C 2219.57 -0.136106 3.36625 0
M  V30 23579 O 2220.1 -1.11942 3.85787 0
M  V30 23580 N 2218.31 -0.187048 2.89997 0
M  V30 23581 H 2217.85 0.613797 2.50181 0
M  V30 23582 H 2217.81 -1.05266 2.96254 0
M  V30 23583 N 2221.58 -0.997276 1.22033 0
M  V30 23584 C 2223 -1.2602 0.979348 0
M  V30 23585 C 2223.2 -1.98785 -0.329685 0
M  V30 23586 O 2222.26 -2.29477 -1.05341 0
M  V30 23587 C 2223.57 -2.07627 2.17512 0
M  V30 23588 C 2225.12 -2.20826 2.21821 0
M  V30 23589 C 2225.59 -3.05819 3.40938 0
M  V30 23590 N 2227.08 -3.13406 3.41073 0
M  V30 23591 C 2227.82 -3.79447 4.29892 0
M  V30 23592 N 2227.31 -4.47453 5.28922 0
M  V30 23593 N 2229.11 -3.76165 4.17679 0
M  V30 23594 H 2221.26 -0.509316 2.06203 0
M  V30 23595 H 2223.52 -0.287525 0.903346 0
M  V30 23596 H 2223.23 -1.61518 3.12418 0
M  V30 23597 H 2223.1 -3.08381 2.17211 0
M  V30 23598 H 2225.49 -2.66151 1.27466 0
M  V30 23599 H 2225.57 -1.19516 2.26162 0
M  V30 23600 H 2225.21 -2.61195 4.35591 0
M  V30 23601 H 2225.14 -4.0726 3.33836 0
M  V30 23602 H 2227.63 -2.65003 2.6941 0
M  V30 23603 H 2227.95 -4.95572 5.92982 0
M  V30 23604 H 2226.29 -4.46215 5.32839 0
M  V30 23605 H 2229.48 -3.22196 3.3957 0
M  V30 23606 H 2229.66 -4.27355 4.87106 0
M  V30 23607 N 2223.06 -1.02932 -1.19343 0
M  V30 23608 C 2224 -0.555068 -2.21346 0
M  V30 23609 C 2224.97 0.404323 -1.57493 0
M  V30 23610 O 2226.16 0.32132 -1.85741 0
M  V30 23611 C 2223.28 0.19058 -3.38163 0
M  V30 23612 C 2222.33 -0.72031 -4.20373 0
M  V30 23613 S 2223.16 -2.19676 -4.88367 0
M  V30 23614 C 2224.32 -1.46164 -6.08594 0
M  V30 23615 H 2224.55 -1.41933 -2.61232 0
M  V30 23616 H 2222.09 -0.839295 -1.29596 0
M  V30 23617 H 2224.04 0.614653 -4.05872 0
M  V30 23618 H 2222.7 1.03058 -2.96712 0
M  V30 23619 H 2221.9 -0.144639 -5.03792 0
M  V30 23620 H 2221.5 -1.08272 -3.57985 0
M  V30 23621 H 2223.79 -0.748476 -6.73353 0
M  V30 23622 H 2224.73 -2.27244 -6.70646 0
M  V30 23623 H 2225.14 -0.95894 -5.56295 0
M  V30 23624 N 2224.54 1.35356 -0.807246 0
M  V30 23625 C 2225.96 1.51858 -0.491064 0
M  V30 23626 C 2226.16 1.75637 0.987617 0
M  V30 23627 O 2225.21 1.79818 1.77262 0
M  V30 23628 C 2226.53 2.69342 -1.337 0
M  V30 23629 C 2228.07 2.83219 -1.33251 0
M  V30 23630 C 2228.55 4.03729 -2.16257 0
M  V30 23631 N 2230.04 4.10908 -2.13797 0
M  V30 23632 C 2230.77 5.03272 -2.74781 0
M  V30 23633 N 2230.27 6.00964 -3.44694 0
M  V30 23634 N 2232.06 4.96023 -2.64419 0
M  V30 23635 H 2224.21 1.18178 -1.76487 0
M  V30 23636 H 2226.48 0.578263 -0.75121 0
M  V30 23637 H 2226.18 2.5835 -2.38639 0
M  V30 23638 H 2226.06 3.63958 -0.990682 0
M  V30 23639 H 2228.44 2.93662 -0.290963 0
M  V30 23640 H 2228.53 1.89458 -1.7187 0
M  V30 23641 H 2228.17 3.94047 -3.20452 0
M  V30 23642 H 2228.1 4.96672 -1.74998 0
M  V30 23643 H 2230.59 3.40973 -1.62929 0
M  V30 23644 H 2230.9 6.6804 -3.88513 0
M  V30 23645 H 2229.25 6.01136 -3.48799 0
M  V30 23646 H 2232.44 4.18658 -2.09387 0
M  V30 23647 H 2232.61 5.67814 -3.12235 0
M  V30 23648 N 2226.02 0.560807 1.47284 0
M  V30 23649 C 2226.97 -0.197901 2.31757 0
M  V30 23650 C 2227.96 -0.905828 1.43147 0
M  V30 23651 O 2229.17 -0.826705 1.59892 0
M  V30 23652 H 2225.54 -0.0826918 0.74744 0
M  V30 23653 H 2227.51 0.53368 2.93589 0
M  V30 23654 C 2226.26 -1.21244 3.25876 0
M  V30 23655 H 2225.58 -0.677121 3.94024 0
M  V30 23656 H 2227.02 -1.71412 3.87806 0
M  V30 23657 C 2225.48 -2.26217 2.49655 0
M  V30 23658 O 2226.01 -3.33204 2.24361 0
M  V30 23659 N 2224.22 -2.0024 2.106 0
M  V30 23660 H 2223.77 -1.13248 2.31371 0
M  V30 23661 H 2223.72 -2.70691 1.59918 0
M  V30 23662 N 2227.5 -1.54768 0.297442 0
M  V30 23663 C 2228.74 -2.00068 -0.312878 0
M  V30 23664 C 2229.07 -1.18584 -1.54169 0
M  V30 23665 O 2228.33 -0.249167 -1.94107 0
M  V30 23666 C 2228.63 -3.50124 -0.7175 0
M  V30 23667 C 2228.29 -4.4904 0.409174 0
M  V30 23668 C 2226.95 -4.75806 0.718483 0
M  V30 23669 C 2229.31 -5.07961 1.16726 0
M  V30 23670 C 2226.63 -5.58757 1.78906 0
M  V30 23671 C 2228.99 -5.92077 2.22772 0
M  V30 23672 C 2227.65 -6.17156 2.54313 0
M  V30 23673 H 2226.92 -0.732102 -0.11449 0
M  V30 23674 H 2229.57 -1.86931 0.4158 0
M  V30 23675 H 2227.87 -3.60852 -1.52621 0
M  V30 23676 H 2229.57 -3.82597 -1.20084 0
M  V30 23677 H 2226.16 -4.28309 0.157994 0
M  V30 23678 H 2230.34 -4.87287 0.941552 0
M  V30 23679 H 2225.6 -5.76426 2.0382 0
M  V30 23680 H 2229.77 -6.36761 2.81973 0
M  V30 23681 H 2227.4 -6.81223 3.37402 0
M  V30 23682 N 2228.97 -0.0251005 -1.5758 0
M  V30 23683 C 2230.25 0.692841 -1.82918 0
M  V30 23684 C 2230.63 1.90566 -0.90817 0
M  V30 23685 O 2229.98 2.2847 0.0371897 0
M  V30 23686 C 2230.19 1.07486 -3.32036 0
M  V30 23687 C 2231.54 1.46819 -3.98408 0
M  V30 23688 O 2232.56 1.16796 -3.36507 0
M  V30 23689 O 2231.42 2.02745 -5.07501 0
M  V30 23690 H 2228.51 0.339537 -0.754085 0
M  V30 23691 H 2231.06 -0.0524754 -1.69619 0
M  V30 23692 H 2229.83 0.211483 -3.90728 0
M  V30 23693 H 2229.46 1.87848 -3.50427 0
M  V30 23694 N 2230.45 1.55637 0.247999 0
M  V30 23695 C 2231.38 1.9324 1.31075 0
M  V30 23696 C 2232.36 0.797201 1.50262 0
M  V30 23697 O 2233.55 1.0574 1.62889 0
M  V30 23698 C 2230.68 2.22614 2.66571 0
M  V30 23699 C 2229.63 3.38375 2.62081 0
M  V30 23700 C 2228.96 3.53288 4.01362 0
M  V30 23701 C 2230.26 4.74094 2.19163 0
M  V30 23702 H 2231.95 2.82259 0.998506 0
M  V30 23703 H 2229.5 1.35804 0.478886 0
M  V30 23704 H 2231.45 2.47509 3.41053 0
M  V30 23705 H 2230.18 1.30419 2.9943 0
M  V30 23706 H 2228.83 3.13487 1.90057 0
M  V30 23707 H 2228.48 2.58515 4.31484 0
M  V30 23708 H 2228.18 4.31134 3.99246 0
M  V30 23709 H 2229.71 3.80503 4.77546 0
M  V30 23710 H 2231.12 4.98368 2.83376 0
M  V30 23711 H 2229.52 5.55034 2.2816 0
M  V30 23712 H 2230.59 4.7123 1.14327 0
M  V30 23713 N 2231.93 -0.513613 1.48996 0
M  V30 23714 C 2233.16 -1.29285 1.61533 0
M  V30 23715 C 2233.57 -1.86685 0.281834 0
M  V30 23716 O 2232.93 -1.67217 -0.731082 0
M  V30 23717 C 2232.98 -2.4321 2.67453 0
M  V30 23718 O 2232.7 -1.88172 3.9563 0
M  V30 23719 C 2234.2 -3.3478 2.9058 0
M  V30 23720 H 2231.42 -0.392578 0.544172 0
M  V30 23721 H 2233.97 -0.617922 1.94941 0
M  V30 23722 H 2232.12 -3.06556 2.36859 0
M  V30 23723 H 2232.54 -2.62868 4.53873 0
M  V30 23724 H 2234.01 -4.11028 3.68456 0
M  V30 23725 H 2234.49 -3.91011 2.00018 0
M  V30 23726 H 2235.09 -2.77212 3.22542 0
M  V30 23727 N 2233.41 -1.37859 -0.763727 0
M  V30 23728 C 2234.37 -1.34084 -1.85887 0
M  V30 23729 C 2235.37 -0.243305 -1.58949 0
M  V30 23730 O 2236.56 -0.499619 -1.66882 0
M  V30 23731 C 2233.69 -1.08495 -3.23174 0
M  V30 23732 H 2234.89 -2.31506 -1.90644 0
M  V30 23733 H 2232.44 -1.23004 -0.964345 0
M  V30 23734 H 2233.18 -0.116375 -3.24091 0
M  V30 23735 H 2232.96 -1.87946 -3.4412 0
M  V30 23736 H 2234.45 -1.08524 -4.03252 0
M  V30 23737 N 2234.89 0.990791 -1.22561 0
M  V30 23738 C 2236.13 1.7332 -1.053 0
M  V30 23739 C 2236.47 1.89809 0.410622 0
M  V30 23740 O 2235.74 1.44279 1.30437 0
M  V30 23741 C 2236.02 3.13756 -1.76719 0
M  V30 23742 C 2235.88 3.04901 -3.30689 0
M  V30 23743 C 2237.2 4.12971 -1.52128 0
M  V30 23744 H 2234.32 0.629099 -0.383931 0
M  V30 23745 H 2236.96 1.15416 -1.50928 0
M  V30 23746 H 2235.11 3.63191 -1.3793 0
M  V30 23747 H 2236.78 2.6307 -3.78935 0
M  V30 23748 H 2235.02 2.41655 -3.60257 0
M  V30 23749 H 2235.69 4.04287 -3.7584 0
M  V30 23750 H 2238.17 3.72301 -1.85826 0
M  V30 23751 H 2237.05 5.09346 -2.04591 0
M  V30 23752 H 2237.31 4.39759 -0.454334 0
M  V30 23753 N 2236.37 1.03564 1.18795 0
M  V30 23754 C 2237.78 0.764706 1.70321 0
M  V30 23755 C 2238.13 -0.714964 1.82709 0
M  V30 23756 O 2237.25 -1.55687 1.50302 0
M  V30 23757 C 2237.85 1.38151 3.09354 0
M  V30 23758 C 2236.41 1.15901 3.58112 0
M  V30 23759 C 2235.55 1.47534 2.34796 0
M  V30 23760 H 2238.5 1.2027 1.03541 0
M  V30 23761 H 2238.53 0.782042 3.72377 0
M  V30 23762 H 2238.04 2.45842 3.00305 0
M  V30 23763 H 2236.14 0.10061 3.72464 0
M  V30 23764 H 2236.25 1.85248 4.41837 0
M  V30 23765 H 2234.62 0.894871 2.38462 0
M  V30 23766 H 2235.4 2.56323 2.28371 0
M  V30 23767 N 2237.84 -1.34926 0.814413 0
M  V30 23768 C 2239.08 -2.00364 0.4042 0
M  V30 23769 C 2239.45 -1.63187 -1.01163 0
M  V30 23770 O 2240.65 -2.21403 -1.52427 0
M  V30 23771 C 2238.92 -3.52483 0.59078 0
M  V30 23772 S 2240.48 -4.37955 0.272152 0
M  V30 23773 H 2237.3 -0.694316 0.153122 0
M  V30 23774 H 2239.9 -1.64374 1.05837 0
M  V30 23775 H 2238.6 -3.77028 1.62106 0
M  V30 23776 H 2238.13 -3.93322 -0.0784322 0
M  V30 23777 H 2240.15 -4.87647 -0.917319 0
M  V30 23778 N 2239.32 -0.56861 -1.46985 0
M  V30 23779 C 2240.28 0.162326 -2.28624 0
M  V30 23780 C 2241.28 0.832078 -1.37598 0
M  V30 23781 O 2242.47 0.686192 -1.60116 0
M  V30 23782 C 2239.61 1.23873 -3.17598 0
M  V30 23783 H 2240.8 -0.554951 -2.94721 0
M  V30 23784 H 2238.35 -0.326003 -1.52862 0
M  V30 23785 H 2239.09 1.98804 -2.56218 0
M  V30 23786 H 2238.87 0.763151 -3.84602 0
M  V30 23787 H 2240.36 1.75178 -3.79081 0
M  V30 23788 N 2240.8 1.54608 -0.305646 0
M  V30 23789 C 2241.75 2.25147 0.584079 0
M  V30 23790 C 2242.74 1.25913 1.13324 0
M  V30 23791 O 2243.95 1.43749 1.08334 0
M  V30 23792 H 2240.32 0.722957 0.206971 0
M  V30 23793 H 2242.29 2.98381 -0.0333435 0
M  V30 23794 C 2241.04 3.00904 1.74219 0
M  V30 23795 H 2240.37 3.7707 1.32885 0
M  V30 23796 H 2241.81 3.53535 2.34071 0
M  V30 23797 C 2240.26 2.08144 2.6491 0
M  V30 23798 O 2240.79 1.65252 3.66135 0
M  V30 23799 N 2239 1.74004 2.32747 0
M  V30 23800 H 2238.55 2.09081 1.50476 0
M  V30 23801 H 2238.51 1.12216 2.93692 0
M  V30 23802 N 2242.28 0.033457 1.57564 0
M  V30 23803 C 2243.23 -0.956201 2.0698 0
M  V30 23804 C 2244.21 -1.28282 0.971216 0
M  V30 23805 O 2245.4 -1.2682 1.23473 0
M  V30 23806 C 2242.53 -2.23714 2.60397 0
M  V30 23807 C 2241.62 -1.9387 3.77194 0
M  V30 23808 N 2242.01 -1.34313 4.87641 0
M  V30 23809 C 2240.31 -2.23838 3.85762 0
M  V30 23810 C 2241.01 -1.21699 5.68827 0
M  V30 23811 N 2239.98 -1.71395 5.15873 0
M  V30 23812 H 2243.79 -0.490764 2.89774 0
M  V30 23813 H 2241.3 -0.171449 1.61492 0
M  V30 23814 H 2243.3 -2.95491 2.94093 0
M  V30 23815 H 2241.96 -2.70881 1.79036 0
M  V30 23816 H 2242.97 -1.01758 5.07805 0
M  V30 23817 H 2239.65 -2.73648 3.15315 0
M  V30 23818 H 2241.04 -0.756092 6.67632 0
M  V30 23819 N 2243.76 -1.55766 -0.239741 0
M  V30 23820 C 2244.7 -1.90915 -1.29693 0
M  V30 23821 C 2245.67 -0.76419 -1.47477 0
M  V30 23822 O 2246.86 -1.01848 -1.61343 0
M  V30 23823 C 2244 -2.21549 -2.64594 0
M  V30 23824 C 2243.11 -3.48886 -2.54759 0
M  V30 23825 C 2242.25 -3.69055 -3.82062 0
M  V30 23826 C 2241.28 -4.89969 -3.66874 0
M  V30 23827 N 2240.42 -5.06622 -4.86085 0
M  V30 23828 H 2245.26 -2.81069 -0.990175 0
M  V30 23829 H 2242.8 -1.39129 -0.477659 0
M  V30 23830 H 2244.76 -2.37316 -3.43128 0
M  V30 23831 H 2243.39 -1.3459 -2.93403 0
M  V30 23832 H 2242.44 -3.41412 -1.67757 0
M  V30 23833 H 2243.75 -4.37568 -2.3945 0
M  V30 23834 H 2242.9 -3.84821 -4.69039 0
M  V30 23835 H 2241.64 -2.78621 -4.00277 0
M  V30 23836 H 2240.65 -4.74173 -2.7828 0
M  V30 23837 H 2241.87 -5.81871 -3.50147 0
M  V30 23838 H 2239.82 -4.19126 -5.04647 0
M  V30 23839 H 2239.74 -5.89404 -4.73433 0
M  V30 23840 H 2241 -5.26806 -5.7454 0
M  V30 23841 N 2245.23 0.505704 -1.49266 0
M  V30 23842 C 2246.17 1.62529 -1.60186 0
M  V30 23843 C 2247.14 1.56216 -0.451135 0
M  V30 23844 O 2248.33 1.76341 -0.666047 0
M  V30 23845 C 2245.46 3.01027 -1.55244 0
M  V30 23846 C 2244.5 3.25617 -2.75456 0
M  V30 23847 S 2245.33 3.09248 -4.37179 0
M  V30 23848 C 2246.49 4.5015 -4.34874 0
M  V30 23849 H 2246.72 1.5302 -2.54896 0
M  V30 23850 H 2244.26 0.69051 -1.38099 0
M  V30 23851 H 2246.21 3.8089 -1.53078 0
M  V30 23852 H 2244.88 3.07954 -0.618292 0
M  V30 23853 H 2244.07 4.26711 -2.68204 0
M  V30 23854 H 2243.67 2.53467 -2.7501 0
M  V30 23855 H 2245.96 5.42147 -4.06304 0
M  V30 23856 H 2246.91 4.62452 -5.36231 0
M  V30 23857 H 2247.31 4.3061 -3.65015 0
M  V30 23858 N 2246.71 1.38262 0.756405 0
M  V30 23859 C 2247.66 1.31769 1.86067 0
M  V30 23860 C 2248.65 0.202511 1.5962 0
M  V30 23861 O 2249.84 0.438241 1.71489 0
M  V30 23862 C 2246.97 1.14226 3.2374 0
M  V30 23863 C 2246.05 2.30354 3.56087 0
M  V30 23864 N 2246.44 3.55789 3.5951 0
M  V30 23865 C 2244.74 2.22844 3.86337 0
M  V30 23866 C 2245.44 4.32458 3.89044 0
M  V30 23867 N 2244.42 3.61779 4.0573 0
M  V30 23868 H 2248.22 2.26744 1.86988 0
M  V30 23869 H 2245.74 1.31453 0.953619 0
M  V30 23870 H 2247.73 1.07659 4.0276 0
M  V30 23871 H 2246.39 0.20182 3.24072 0
M  V30 23872 H 2247.4 3.89497 3.4134 0
M  V30 23873 H 2244.08 1.36944 3.94402 0
M  V30 23874 H 2245.47 5.41087 3.9834 0
M  V30 23875 N 2248.19 -0.984277 1.23084 0
M  V30 23876 C 2249.12 -2.09409 1.03296 0
M  V30 23877 C 2250.1 -1.7003 -0.0488931 0
M  V30 23878 O 2251.29 -1.93859 0.115001 0
M  V30 23879 C 2248.42 -3.41735 0.619215 0
M  V30 23880 C 2247.37 -3.95001 1.64798 0
M  V30 23881 C 2246.7 -5.23476 1.08979 0
M  V30 23882 C 2248 -4.24708 3.04007 0
M  V30 23883 H 2249.69 -2.26222 1.96123 0
M  V30 23884 H 2247.24 -1.0871 0.944363 0
M  V30 23885 H 2249.19 -4.18795 0.467851 0
M  V30 23886 H 2247.91 -3.24776 -0.344729 0
M  V30 23887 H 2246.57 -3.20082 1.78726 0
M  V30 23888 H 2246.22 -5.02864 0.116948 0
M  V30 23889 H 2245.92 -5.60082 1.77714 0
M  V30 23890 H 2247.44 -6.03161 0.950199 0
M  V30 23891 H 2248.86 -4.92532 2.93402 0
M  V30 23892 H 2247.26 -4.72506 3.69944 0
M  V30 23893 H 2248.33 -3.32135 3.5329 0
M  V30 23894 N 2249.67 -1.04192 -1.18244 0
M  V30 23895 C 2250.9 -0.764995 -1.91915 0
M  V30 23896 C 2251.31 0.681867 -1.76486 0
M  V30 23897 O 2250.65 1.47662 -1.09278 0
M  V30 23898 C 2250.71 -1.05315 -3.43728 0
M  V30 23899 C 2250.38 -2.49417 -3.82936 0
M  V30 23900 C 2251.37 -3.47599 -3.86615 0
M  V30 23901 C 2249.06 -2.84162 -4.14195 0
M  V30 23902 C 2251.05 -4.78575 -4.21004 0
M  V30 23903 C 2248.74 -4.15345 -4.48255 0
M  V30 23904 C 2249.74 -5.12361 -4.51636 0
M  V30 23905 O 2249.42 -6.41192 -4.849 0
M  V30 23906 H 2249.16 -0.278303 -0.616055 0
M  V30 23907 H 2251.71 -1.39302 -1.50944 0
M  V30 23908 H 2249.94 -0.368001 -3.84945 0
M  V30 23909 H 2251.63 -0.763822 -3.98648 0
M  V30 23910 H 2252.4 -3.22095 -3.62601 0
M  V30 23911 H 2248.27 -2.09318 -4.10739 0
M  V30 23912 H 2251.82 -5.54296 -4.23558 0
M  V30 23913 H 2247.72 -4.40616 -4.71729 0
M  V30 23914 H 2248.48 -6.45861 -5.02798 0
M  V30 23915 N 2251.15 1.34492 -0.821557 0
M  V30 23916 C 2252.08 2.32079 -0.257179 0
M  V30 23917 C 2253.06 1.58177 0.625617 0
M  V30 23918 O 2254.24 1.86167 0.552779 0
M  V30 23919 C 2251.37 3.42373 0.582898 0
M  V30 23920 C 2250.33 4.2752 -0.202646 0
M  V30 23921 C 2249.65 5.2927 0.760086 0
M  V30 23922 C 2250.95 5.02906 -1.41007 0
M  V30 23923 H 2252.65 2.79531 -1.07252 0
M  V30 23924 H 2250.19 1.34392 -0.517187 0
M  V30 23925 H 2252.15 4.09657 0.9879 0
M  V30 23926 H 2250.87 2.93568 1.43128 0
M  V30 23927 H 2249.53 3.61837 -0.589 0
M  V30 23928 H 2249.18 4.76727 1.60438 0
M  V30 23929 H 2248.88 5.87115 0.238706 0
M  V30 23930 H 2250.4 5.99422 1.16297 0
M  V30 23931 H 2251.81 5.63052 -1.07915 0
M  V30 23932 H 2250.21 5.70319 -1.86699 0
M  V30 23933 H 2251.28 4.3268 -2.18897 0
M  V30 23934 N 2252.62 0.576397 1.46681 0
M  V30 23935 C 2253.87 0.0594518 2.02013 0
M  V30 23936 C 2254.19 -1.30269 1.45104 0
M  V30 23937 O 2253.46 -1.85379 0.63335 0
M  V30 23938 H 2252.04 0.0189876 0.746759 0
M  V30 23939 H 2254.71 0.750749 1.7986 0
M  V30 23940 H 2253.8 -0.0142902 3.12097 0
M  V30 23941 N 2254.1 -1.54444 0.313841 0
M  V30 23942 C 2255.07 -2.22657 -0.543751 0
M  V30 23943 C 2256.07 -1.2168 -1.05122 0
M  V30 23944 O 2257.26 -1.46327 -0.945199 0
M  V30 23945 C 2254.39 -2.92301 -1.75422 0
M  V30 23946 H 2255.58 -2.99854 0.0524126 0
M  V30 23947 H 2253.13 -1.56166 0.0648109 0
M  V30 23948 H 2253.87 -2.19216 -2.38987 0
M  V30 23949 H 2253.65 -3.66337 -1.39785 0
M  V30 23950 H 2255.14 -3.44301 -2.36319 0
M  V30 23951 N 2255.58 -0.0418125 -1.57545 0
M  V30 23952 C 2256.54 0.920893 -2.09886 0
M  V30 23953 C 2257.54 1.24595 -1.0165 0
M  V30 23954 O 2258.73 1.18418 -1.27761 0
M  V30 23955 C 2255.87 2.23363 -2.57531 0
M  V30 23956 H 2257.06 0.467329 -2.96236 0
M  V30 23957 H 2254.61 0.20644 -1.54931 0
M  V30 23958 H 2255.35 2.7332 -1.74547 0
M  V30 23959 H 2255.13 2.01077 -3.36616 0
M  V30 23960 H 2256.62 2.9234 -2.98206 0
M  V30 23961 N 2257.06 1.55891 0.231477 0
M  V30 23962 C 2258.01 1.916 1.28678 0
M  V30 23963 C 2258.98 0.772 1.47069 0
M  V30 23964 O 2260.16 1.02702 1.60801 0
M  V30 23965 C 2257.3 2.22949 2.63416 0
M  V30 23966 C 2256.41 3.50232 2.52906 0
M  V30 23967 C 2255.55 3.71076 3.801 0
M  V30 23968 C 2254.59 4.91908 3.6427 0
M  V30 23969 N 2253.72 5.09193 4.83391 0
M  V30 23970 H 2258.56 2.8159 0.975255 0
M  V30 23971 H 2256.1 1.3938 0.470274 0
M  V30 23972 H 2258.06 2.39132 3.41865 0
M  V30 23973 H 2256.69 1.36144 2.92685 0
M  V30 23974 H 2255.74 3.42296 1.65944 0
M  V30 23975 H 2257.05 4.38831 2.37126 0
M  V30 23976 H 2256.21 3.87303 4.66992 0
M  V30 23977 H 2254.95 2.8074 3.98794 0
M  V30 23978 H 2253.95 4.75642 2.75762 0
M  V30 23979 H 2255.18 5.8372 3.47056 0
M  V30 23980 H 2253.12 4.21797 5.02418 0
M  V30 23981 H 2253.04 5.91907 4.703 0
M  V30 23982 H 2254.31 5.29845 5.71738 0
M  V30 23983 N 2258.54 -0.497781 1.49532 0
M  V30 23984 C 2259.78 -1.25355 1.59417 0
M  V30 23985 C 2260.12 -1.9215 0.281455 0
M  V30 23986 O 2259.39 -1.80873 -0.715217 0
M  V30 23987 C 2259.67 -2.31805 2.7557 0
M  V30 23988 C 2259.53 -1.69491 4.16645 0
M  V30 23989 C 2260.85 -3.33341 2.87353 0
M  V30 23990 H 2257.96 -0.454398 0.580252 0
M  V30 23991 H 2260.61 -0.55123 1.81828 0
M  V30 23992 H 2258.76 -2.91707 2.56592 0
M  V30 23993 H 2260.43 -1.13391 4.47147 0
M  V30 23994 H 2258.67 -0.998904 4.22143 0
M  V30 23995 H 2259.34 -2.46717 4.93796 0
M  V30 23996 H 2261.82 -2.83433 3.04639 0
M  V30 23997 H 2260.69 -4.05181 3.70296 0
M  V30 23998 H 2260.96 -3.95861 1.96841 0
M  V30 23999 N 2260.01 -1.38661 -0.749062 0
M  V30 24000 C 2260.96 -1.36254 -1.86289 0
M  V30 24001 C 2261.93 -0.224376 -1.64578 0
M  V30 24002 O 2263.12 -0.417312 -1.8618 0
M  V30 24003 C 2260.26 -1.19791 -3.23642 0
M  V30 24004 C 2259.37 -2.43033 -3.57154 0
M  V30 24005 C 2258.5 -2.19266 -4.83834 0
M  V30 24006 C 2257.54 -3.38256 -5.10146 0
M  V30 24007 N 2256.68 -3.13895 -6.28024 0
M  V30 24008 H 2261.52 -2.31473 -1.87681 0
M  V30 24009 H 2259.06 -1.14998 -0.917267 0
M  V30 24010 H 2261.02 -1.08261 -4.02909 0
M  V30 24011 H 2259.65 -0.282087 -3.21565 0
M  V30 24012 H 2258.7 -2.65219 -2.72696 0
M  V30 24013 H 2260.01 -3.31704 -3.72524 0
M  V30 24014 H 2259.16 -2.04898 -5.71053 0
M  V30 24015 H 2257.9 -1.27968 -4.70612 0
M  V30 24016 H 2256.91 -3.53138 -4.21395 0
M  V30 24017 H 2258.13 -4.30436 -5.25263 0
M  V30 24018 H 2256.08 -2.25249 -6.16116 0
M  V30 24019 H 2256 -3.96117 -6.43915 0
M  V30 24020 H 2257.26 -3.03192 -7.18119 0
M  V30 24021 N 2261.49 0.977736 -1.23605 0
M  V30 24022 C 2262.4 2.10468 -1.03636 0
M  V30 24023 C 2263.42 1.73989 0.0199129 0
M  V30 24024 O 2264.6 2.00629 -0.176112 0
M  V30 24025 C 2261.66 3.40876 -0.63282 0
M  V30 24026 C 2260.72 3.91364 -1.76444 0
M  V30 24027 C 2259.95 5.15548 -1.38006 0
M  V30 24028 O 2260.18 5.69782 -0.265457 0
M  V30 24029 O 2259.11 5.6017 -2.2021 0
M  V30 24030 H 2262.94 2.30204 -1.9809 0
M  V30 24031 H 2260.52 1.08849 -1.02334 0
M  V30 24032 H 2262.4 4.19313 -0.418834 0
M  V30 24033 H 2261.08 3.22463 0.282697 0
M  V30 24034 H 2259.99 3.14032 -2.03309 0
M  V30 24035 H 2261.32 4.14236 -2.65837 0
M  V30 24036 N 2262.97 1.04818 1.1769 0
M  V30 24037 C 2264.22 0.75453 1.87487 0
M  V30 24038 C 2264.54 -0.720375 1.81206 0
M  V30 24039 O 2263.81 -1.52029 1.23547 0
M  V30 24040 H 2262.39 0.276114 0.694096 0
M  V30 24041 H 2265.05 1.32653 1.4279 0
M  V30 24042 H 2264.15 1.06611 2.93326 0
M  V30 24043 N 2264.45 -1.34055 0.828678 0
M  V30 24044 C 2265.7 -1.98401 0.420115 0
M  V30 24045 C 2266.03 -1.65527 -1.01561 0
M  V30 24046 O 2265.3 -0.929861 -1.70833 0
M  V30 24047 C 2265.59 -3.54558 0.629333 0
M  V30 24048 C 2265.44 -3.97155 2.11159 0
M  V30 24049 C 2266.76 -4.40046 0.0689529 0
M  V30 24050 H 2263.88 -0.720706 0.154117 0
M  V30 24051 H 2266.52 -1.58858 1.04231 0
M  V30 24052 H 2264.67 -3.88372 0.09971 0
M  V30 24053 H 2266.34 -3.73647 2.70529 0
M  V30 24054 H 2264.58 -3.47257 2.59991 0
M  V30 24055 H 2265.26 -5.05883 2.20877 0
M  V30 24056 H 2267.73 -4.12819 0.52153 0
M  V30 24057 H 2266.61 -5.48352 0.245102 0
M  V30 24058 H 2266.87 -4.30017 -1.02653 0
M  V30 24059 N 2265.93 -0.584167 -1.46374 0
M  V30 24060 C 2266.84 0.150686 -2.34116 0
M  V30 24061 C 2267.85 0.884541 -1.4984 0
M  V30 24062 O 2269.03 0.847397 -1.82705 0
M  V30 24063 C 2266.09 1.15056 -3.27052 0
M  V30 24064 C 2265.16 0.421218 -4.27229 0
M  V30 24065 C 2264.39 1.37346 -5.15725 0
M  V30 24066 O 2264.61 2.61006 -5.07181 0
M  V30 24067 O 2263.55 0.88325 -5.95384 0
M  V30 24068 H 2267.37 -0.56976 -2.98308 0
M  V30 24069 H 2264.96 -0.34456 -1.45372 0
M  V30 24070 H 2266.84 1.72705 -3.84384 0
M  V30 24071 H 2265.51 1.85245 -2.65454 0
M  V30 24072 H 2264.42 -0.197151 -3.7358 0
M  V30 24073 H 2265.75 -0.239727 -4.91616 0
M  V30 24074 N 2267.41 1.54275 -0.322027 0
M  V30 24075 C 2268.65 2.00838 0.281425 0
M  V30 24076 C 2268.98 1.20987 1.51907 0
M  V30 24077 O 2268.26 0.291767 1.92299 0
M  V30 24078 C 2268.54 3.54773 0.6171 0
M  V30 24079 C 2268.4 4.4535 -0.631143 0
M  V30 24080 C 2269.71 4.16036 1.43535 0
M  V30 24081 H 2266.83 0.730072 0.100813 0
M  V30 24082 H 2269.48 1.84875 -0.4383 0
M  V30 24083 H 2267.63 3.68506 1.23027 0
M  V30 24084 H 2269.3 4.4349 -1.26942 0
M  V30 24085 H 2267.54 4.15088 -1.26032 0
M  V30 24086 H 2268.21 5.50878 -0.351832 0
M  V30 24087 H 2270.69 4.05868 0.917063 0
M  V30 24088 H 2269.56 5.23859 1.63898 0
M  V30 24089 H 2269.82 3.69262 2.43101 0
M  V30 24090 N 2268.88 0.0501669 1.5752 0
M  V30 24091 C 2270.11 -0.633457 1.96964 0
M  V30 24092 C 2270.53 -1.64438 0.92766 0
M  V30 24093 O 2269.88 -1.82287 -0.0882344 0
M  V30 24094 C 2269.93 -1.32126 3.36489 0
M  V30 24095 O 2269.66 -0.350817 4.36693 0
M  V30 24096 C 2271.16 -2.09474 3.90686 0
M  V30 24097 H 2268.38 -0.173255 0.648247 0
M  V30 24098 H 2270.92 0.116169 2.0417 0
M  V30 24099 H 2269.08 -2.02212 3.30437 0
M  V30 24100 H 2269.49 -0.841644 5.17703 0
M  V30 24101 H 2270.96 -2.53021 4.90596 0
M  V30 24102 H 2271.44 -2.94249 3.26059 0
M  V30 24103 H 2272.05 -1.443 4.00072 0
M  V30 24104 N 2270.36 -1.56011 -0.223207 0
M  V30 24105 C 2271.64 -1.69735 -0.972078 0
M  V30 24106 C 2272.02 -0.596946 -2.02484 0
M  V30 24107 O 2271.37 0.396285 -2.25037 0
M  V30 24108 C 2271.58 -3.10982 -1.58402 0
M  V30 24109 C 2272.92 -3.70338 -2.0769 0
M  V30 24110 O 2273.95 -3.13933 -1.68299 0
M  V30 24111 O 2272.81 -4.69269 -2.80087 0
M  V30 24112 H 2269.9 -0.691253 -0.453981 0
M  V30 24113 H 2272.45 -1.68331 -0.215119 0
M  V30 24114 H 2271.22 -3.82531 -0.823763 0
M  V30 24115 H 2270.84 -3.16497 -2.40656 0
M  V30 24116 N 2271.84 0.489844 -1.49794 0
M  V30 24117 C 2272.79 1.58727 -1.63676 0
M  V30 24118 C 2273.77 1.53194 -0.491983 0
M  V30 24119 O 2274.97 1.60535 -0.745489 0
M  V30 24120 C 2272.09 2.97281 -1.71694 0
M  V30 24121 C 2271.18 3.07769 -2.91786 0
M  V30 24122 N 2271.57 2.88117 -4.15719 0
M  V30 24123 C 2269.87 3.38884 -2.89955 0
M  V30 24124 C 2270.57 3.0308 -4.96505 0
M  V30 24125 N 2269.55 3.32452 -4.30089 0
M  V30 24126 H 2273.35 1.42204 -2.57207 0
M  V30 24127 H 2270.86 0.696204 -1.4672 0
M  V30 24128 H 2272.86 3.76164 -1.79739 0
M  V30 24129 H 2271.52 3.14866 -0.79308 0
M  V30 24130 H 2272.53 2.64069 -4.4552 0
M  V30 24131 H 2269.21 3.62574 -2.06993 0
M  V30 24132 H 2270.6 2.92284 -6.04996 0
M  V30 24133 N 2273.32 1.39056 0.741698 0
M  V30 24134 C 2274.73 1.20514 1.04636 0
M  V30 24135 C 2274.93 0.0620572 2.01404 0
M  V30 24136 O 2273.99 -0.588414 2.45548 0
M  V30 24137 C 2275.3 2.53646 1.61506 0
M  V30 24138 C 2276.85 2.60433 1.73619 0
M  V30 24139 C 2277.33 3.93771 2.33899 0
M  V30 24140 N 2278.82 3.95374 2.41316 0
M  V30 24141 C 2279.55 4.95314 2.8888 0
M  V30 24142 N 2279.05 6.05651 3.3639 0
M  V30 24143 N 2280.84 4.82697 2.88028 0
M  V30 24144 H 2272.99 2.12166 0.0997782 0
M  V30 24145 H 2275.25 0.941955 0.10689 0
M  V30 24146 H 2274.96 3.37809 0.97868 0
M  V30 24147 H 2274.83 2.72889 2.60406 0
M  V30 24148 H 2277.22 1.76659 2.3638 0
M  V30 24149 H 2277.3 2.45046 0.733902 0
M  V30 24150 H 2276.95 4.77973 1.71767 0
M  V30 24151 H 2276.88 4.06475 3.34792 0
M  V30 24152 H 2279.37 3.15686 2.07728 0
M  V30 24153 H 2279.68 6.77827 3.71174 0
M  V30 24154 H 2278.03 6.09254 3.34416 0
M  V30 24155 H 2281.22 3.95604 2.5023 0
M  V30 24156 H 2281.39 5.60732 3.24783 0
M  V30 24157 N 2274.8 -0.971167 1.24121 0
M  V30 24158 C 2276.04 -1.71369 1.07884 0
M  V30 24159 C 2276.37 -1.90694 -0.382868 0
M  V30 24160 O 2275.63 -1.46333 -1.29943 0
M  V30 24161 C 2275.92 -3.11067 1.75988 0
M  V30 24162 C 2275.59 -3.11593 3.25915 0
M  V30 24163 C 2274.25 -3.11444 3.66819 0
M  V30 24164 C 2276.6 -3.06193 4.21776 0
M  V30 24165 C 2273.93 -3.03623 5.02026 0
M  V30 24166 C 2276.28 -2.99913 5.56987 0
M  V30 24167 C 2274.95 -2.98091 5.97242 0
M  V30 24168 H 2274.22 -0.627083 0.394775 0
M  V30 24169 H 2276.87 -1.13584 1.54178 0
M  V30 24170 H 2275.17 -3.72296 1.22078 0
M  V30 24171 H 2276.87 -3.67307 1.60893 0
M  V30 24172 H 2273.46 -3.12472 2.93358 0
M  V30 24173 H 2277.64 -3.0544 3.91178 0
M  V30 24174 H 2272.9 -3.0057 5.32417 0
M  V30 24175 H 2277.07 -2.94693 6.30975 0
M  V30 24176 H 2274.7 -2.91786 7.01972 0
M  V30 24177 N 2276.27 -1.05441 -1.17133 0
M  V30 24178 C 2277.52 -0.765975 -1.87454 0
M  V30 24179 C 2277.85 0.707121 -1.81191 0
M  V30 24180 O 2277.1 1.53307 -1.21636 0
M  V30 24181 C 2277.4 -1.19497 -3.36831 0
M  V30 24182 C 2277.07 -2.6707 -3.63297 0
M  V30 24183 C 2275.73 -3.07382 -3.70229 0
M  V30 24184 C 2278.08 -3.6242 -3.74568 0
M  V30 24185 C 2275.41 -4.41903 -3.85926 0
M  V30 24186 C 2277.76 -4.96677 -3.91784 0
M  V30 24187 C 2276.43 -5.3664 -3.96956 0
M  V30 24188 H 2275.7 -0.28029 -0.685943 0
M  V30 24189 H 2278.34 -1.32194 -1.38553 0
M  V30 24190 H 2276.65 -0.558037 -3.87806 0
M  V30 24191 H 2278.35 -0.948961 -3.8961 0
M  V30 24192 H 2274.94 -2.34853 -3.58528 0
M  V30 24193 H 2279.12 -3.32413 -3.68531 0
M  V30 24194 H 2274.38 -4.72363 -3.88179 0
M  V30 24195 H 2278.55 -5.70451 -3.99448 0
M  V30 24196 H 2276.18 -6.40881 -4.08871 0
M  V30 24197 N 2277.75 1.33613 -0.835776 0
M  V30 24198 C 2279 1.97143 -0.426324 0
M  V30 24199 C 2279.31 1.66955 1.01909 0
M  V30 24200 O 2280.52 2.24074 1.53307 0
M  V30 24201 C 2278.98 3.52799 -0.711383 0
M  V30 24202 C 2278.58 3.91867 -2.17127 0
M  V30 24203 C 2280.33 4.22896 -0.368729 0
M  V30 24204 C 2278.24 5.40489 -2.40054 0
M  V30 24205 H 2277.17 0.737753 -0.155683 0
M  V30 24206 H 2279.82 1.52276 -1.02393 0
M  V30 24207 H 2278.2 3.95976 -0.0434462 0
M  V30 24208 H 2279.37 3.59758 -2.87942 0
M  V30 24209 H 2277.69 3.34744 -2.4766 0
M  V30 24210 H 2280.28 5.32188 -0.517694 0
M  V30 24211 H 2280.63 4.10575 0.688006 0
M  V30 24212 H 2281.16 3.85239 -0.99177 0
M  V30 24213 H 2277.9 5.57809 -3.44281 0
M  V30 24214 H 2277.42 5.74069 -1.73795 0
M  V30 24215 H 2279.1 6.07336 -2.23053 0
M  V30 24216 N 2279.23 0.591922 1.46062 0
M  V30 24217 C 2280.65 0.254316 1.57561 0
M  V30 24218 C 2280.85 -1.24333 1.58567 0
M  V30 24219 O 2279.9 -2.02556 1.50756 0
M  V30 24220 C 2281.22 0.911662 2.86547 0
M  V30 24221 C 2282.76 0.886112 3.00195 0
M  V30 24222 C 2283.24 1.52317 4.3193 0
M  V30 24223 N 2284.73 1.48794 4.38651 0
M  V30 24224 C 2285.46 1.95016 5.39218 0
M  V30 24225 N 2284.96 2.49253 6.46409 0
M  V30 24226 N 2286.75 1.85877 5.30477 0
M  V30 24227 H 2278.9 1.56454 1.43652 0
M  V30 24228 H 2281.17 0.65449 0.685819 0
M  V30 24229 H 2280.87 1.96556 2.91648 0
M  V30 24230 H 2280.75 0.425434 3.74793 0
M  V30 24231 H 2283.13 -0.159195 2.9467 0
M  V30 24232 H 2283.22 1.41045 2.13401 0
M  V30 24233 H 2282.86 2.56773 4.38213 0
M  V30 24234 H 2282.79 0.973982 5.17514 0
M  V30 24235 H 2285.28 1.09157 3.61792 0
M  V30 24236 H 2285.59 2.82356 7.19371 0
M  V30 24237 H 2283.94 2.53283 6.47204 0
M  V30 24238 H 2287.13 1.43256 4.4564 0
M  V30 24239 H 2287.3 2.22215 6.08707 0
M  V30 24240 N 2280.71 -1.54102 0.330204 0
M  V30 24241 C 2281.67 -2.23221 -0.520105 0
M  V30 24242 C 2282.67 -1.22788 -1.03826 0
M  V30 24243 O 2283.86 -1.47321 -0.929626 0
M  V30 24244 C 2280.99 -2.94145 -1.72312 0
M  V30 24245 H 2282.19 -2.99782 0.0842132 0
M  V30 24246 H 2279.74 -1.56088 0.0813707 0
M  V30 24247 H 2280.47 -2.21738 -2.36649 0
M  V30 24248 H 2280.26 -3.67799 -1.35892 0
M  V30 24249 H 2281.75 -3.46788 -2.32654 0
M  V30 24250 N 2282.19 -0.0585199 -1.57491 0
M  V30 24251 C 2283.44 0.613112 -1.92156 0
M  V30 24252 C 2283.75 1.71567 -0.939364 0
M  V30 24253 O 2284.95 2.44597 -1.17833 0
M  V30 24254 C 2283.41 1.14189 -3.41305 0
M  V30 24255 C 2283.02 0.0710478 -4.47944 0
M  V30 24256 C 2284.76 1.78835 -3.84991 0
M  V30 24257 C 2282.67 0.613122 -5.88213 0
M  V30 24258 H 2281.6 0.232784 -0.717166 0
M  V30 24259 H 2284.25 -0.128602 -1.83049 0
M  V30 24260 H 2282.63 1.93615 -3.45441 0
M  V30 24261 H 2283.81 -0.702916 -4.55407 0
M  V30 24262 H 2282.12 -0.478386 -4.13643 0
M  V30 24263 H 2284.72 2.204 -4.87163 0
M  V30 24264 H 2285.06 2.64303 -3.21636 0
M  V30 24265 H 2285.59 1.06052 -3.83403 0
M  V30 24266 H 2282.33 -0.204093 -6.55182 0
M  V30 24267 H 2281.85 1.35491 -5.84296 0
M  V30 24268 H 2283.53 1.09371 -6.37689 0
M  V30 24269 N 2283.66 1.56128 0.21493 0
M  V30 24270 C 2284.91 1.78645 0.93642 0
M  V30 24271 C 2285.23 0.628261 1.85236 0
M  V30 24272 O 2286.43 0.737232 2.61299 0
M  V30 24273 C 2284.89 3.16392 1.71535 0
M  V30 24274 C 2284.5 4.39955 0.845222 0
M  V30 24275 C 2286.24 3.48231 2.42766 0
M  V30 24276 C 2284.15 5.68726 1.62188 0
M  V30 24277 H 2283.08 0.666057 0.35339 0
M  V30 24278 H 2285.73 1.82512 0.190137 0
M  V30 24279 H 2284.11 3.06719 2.50478 0
M  V30 24280 H 2285.28 4.607 0.0958543 0
M  V30 24281 H 2283.6 4.1568 0.244716 0
M  V30 24282 H 2286.2 4.41668 3.01386 0
M  V30 24283 H 2286.54 2.7104 3.15979 0
M  V30 24284 H 2287.07 3.59263 1.70806 0
M  V30 24285 H 2283.81 6.48828 0.932897 0
M  V30 24286 H 2283.33 5.5203 2.34569 0
M  V30 24287 H 2285.01 6.09137 2.18084 0
M  V30 24288 N 2285.14 -0.481893 1.50052 0
M  V30 24289 C 2286.56 -0.814732 1.37238 0
M  V30 24290 C 2286.76 -1.97071 0.420144 0
M  V30 24291 O 2285.81 -2.52105 -0.141201 0
M  V30 24292 C 2287.13 -1.13696 2.78377 0
M  V30 24293 C 2288.68 -1.24405 2.87215 0
M  V30 24294 C 2289.15 -1.59946 4.29163 0
M  V30 24295 N 2290.64 -1.66959 4.32064 0
M  V30 24296 C 2291.38 -1.95942 5.38882 0
M  V30 24297 N 2290.87 -2.2302 6.55922 0
M  V30 24298 N 2292.67 -1.97354 5.26315 0
M  V30 24299 H 2284.82 0.280087 2.10545 0
M  V30 24300 H 2287.08 0.062762 0.94592 0
M  V30 24301 H 2286.79 -0.360725 3.49845 0
M  V30 24302 H 2286.66 -2.07581 3.14945 0
M  V30 24303 H 2289.05 -2.01097 2.15972 0
M  V30 24304 H 2289.13 -0.285254 2.54205 0
M  V30 24305 H 2288.77 -0.837979 5.00939 0
M  V30 24306 H 2288.7 -2.56958 4.59652 0
M  V30 24307 H 2291.19 -1.48117 3.47663 0
M  V30 24308 H 2291.51 -2.44378 7.33143 0
M  V30 24309 H 2289.85 -2.20435 6.59116 0
M  V30 24310 H 2293.04 -1.75689 4.33879 0
M  V30 24311 H 2293.21 -2.19607 6.09653 0
M  V30 24312 N 2286.62 -1.39448 -0.734313 0
M  V30 24313 C 2287.57 -1.34713 -1.83947 0
M  V30 24314 C 2288.55 -0.227879 -1.59278 0
M  V30 24315 O 2289.75 -0.465468 -1.7077 0
M  V30 24316 C 2286.88 -1.19362 -3.21881 0
M  V30 24317 C 2285.96 -2.3599 -3.52377 0
M  V30 24318 N 2286.35 -3.61464 -3.53805 0
M  V30 24319 C 2284.65 -2.28962 -3.82743 0
M  V30 24320 C 2285.35 -4.38592 -3.82115 0
M  V30 24321 N 2284.33 -3.68188 -3.99923 0
M  V30 24322 H 2288.13 -2.2969 -1.83357 0
M  V30 24323 H 2285.64 -1.32953 -0.932586 0
M  V30 24324 H 2287.64 -1.14053 -4.00996 0
M  V30 24325 H 2286.3 -0.253352 -3.2371 0
M  V30 24326 H 2287.31 -3.94878 -3.351 0
M  V30 24327 H 2283.99 -1.43201 -3.92173 0
M  V30 24328 H 2285.38 -5.47356 -3.89681 0
M  V30 24329 N 2288.1 0.964571 -1.24635 0
M  V30 24330 C 2289.32 1.74816 -1.11599 0
M  V30 24331 C 2289.75 1.85232 0.327197 0
M  V30 24332 O 2289.11 1.32552 1.23692 0
M  V30 24333 C 2289.15 3.14507 -1.76402 0
M  V30 24334 O 2288.26 3.99151 -1.03692 0
M  V30 24335 H 2287.6 0.537248 -0.390205 0
M  V30 24336 H 2290.13 1.20974 -1.65004 0
M  V30 24337 H 2290.14 3.65015 -1.82286 0
M  V30 24338 H 2288.81 3.06241 -2.81406 0
M  V30 24339 H 2287.39 3.5763 -1.05617 0
M  V30 24340 N 2289.58 1.0606 1.16572 0
M  V30 24341 C 2290.85 0.689448 1.83046 0
M  V30 24342 C 2291.23 -0.829409 1.94124 0
M  V30 24343 O 2290.58 -1.73878 1.48252 0
M  V30 24344 C 2290.79 1.38864 3.20184 0
M  V30 24345 C 2292.14 1.53232 3.95986 0
M  V30 24346 O 2293.16 1.34836 3.29693 0
M  V30 24347 O 2292.02 1.83393 5.1481 0
M  V30 24348 H 2289.12 0.243778 0.790254 0
M  V30 24349 H 2291.66 1.16073 1.23795 0
M  V30 24350 H 2290.43 2.42445 3.07142 0
M  V30 24351 H 2290.06 0.907284 3.8711 0
M  V30 24352 N 2291.06 -1.33168 0.84285 0
M  V30 24353 C 2291.99 -2.31641 0.294069 0
M  V30 24354 C 2292.97 -1.59153 -0.600373 0
M  V30 24355 O 2294.15 -1.87022 -0.523091 0
M  V30 24356 C 2291.28 -3.43257 -0.528355 0
M  V30 24357 C 2290.24 -4.27143 0.270635 0
M  V30 24358 C 2289.56 -5.30412 -0.675788 0
M  V30 24359 C 2290.86 -5.00599 1.4899 0
M  V30 24360 H 2292.56 -2.77789 1.11686 0
M  V30 24361 H 2290.1 -1.33552 0.538502 0
M  V30 24362 H 2292.05 -4.11176 -0.922602 0
M  V30 24363 H 2290.78 -2.95808 -1.38439 0
M  V30 24364 H 2289.44 -3.60855 0.646491 0
M  V30 24365 H 2289.09 -4.79219 -1.52834 0
M  V30 24366 H 2288.79 -5.8742 -0.145271 0
M  V30 24367 H 2290.31 -6.01197 -1.06746 0
M  V30 24368 H 2291.72 -5.61264 1.16859 0
M  V30 24369 H 2290.12 -5.67276 1.95749 0
M  V30 24370 H 2291.19 -4.29143 2.25753 0
M  V30 24371 N 2292.53 -0.599659 -1.45746 0
M  V30 24372 C 2293.78 -0.0893865 -2.01502 0
M  V30 24373 C 2294.1 1.28485 -1.47482 0
M  V30 24374 O 2295.3 1.88741 -1.95164 0
M  V30 24375 C 2293.76 -0.109145 -3.59734 0
M  V30 24376 C 2293.37 -1.48274 -4.22751 0
M  V30 24377 C 2295.11 0.346299 -4.23085 0
M  V30 24378 C 2293.02 -1.45931 -5.73113 0
M  V30 24379 H 2291.95 -0.029648 -0.753417 0
M  V30 24380 H 2294.6 -0.753818 -1.67302 0
M  V30 24381 H 2292.98 0.621785 -3.91088 0
M  V30 24382 H 2294.15 -2.23475 -4.02983 0
M  V30 24383 H 2292.47 -1.87962 -3.71563 0
M  V30 24384 H 2295.07 0.382886 -5.33327 0
M  V30 24385 H 2295.41 1.36736 -3.93203 0
M  V30 24386 H 2295.94 -0.331107 -3.9642 0
M  V30 24387 H 2292.68 -2.45773 -6.07681 0
M  V30 24388 H 2292.2 -0.749769 -5.95095 0
M  V30 24389 H 2293.88 -1.17952 -6.36157 0
M  V30 24390 N 2294.01 1.53925 -0.338371 0
M  V30 24391 C 2295.24 2.05244 0.261262 0
M  V30 24392 C 2295.65 1.21366 1.44623 0
M  V30 24393 O 2295.01 0.247768 1.8081 0
M  V30 24394 C 2295.06 3.55021 0.68135 0
M  V30 24395 O 2294.78 4.35715 -0.456491 0
M  V30 24396 C 2296.28 4.22491 1.34224 0
M  V30 24397 H 2293.5 0.669032 0.0513568 0
M  V30 24398 H 2296.05 1.98571 -0.488857 0
M  V30 24399 H 2294.2 3.61933 1.38142 0
M  V30 24400 H 2294.62 5.24357 -0.122656 0
M  V30 24401 H 2296.09 5.28695 1.58698 0
M  V30 24402 H 2296.57 3.74518 2.29419 0
M  V30 24403 H 2297.17 4.19758 0.68435 0
M  V30 24404 N 2295.49 0.0668712 1.57458 0
M  V30 24405 C 2296.44 -0.902085 2.12441 0
M  V30 24406 C 2297.41 -1.29858 1.03567 0
M  V30 24407 O 2298.59 -1.3853 1.31203 0
M  V30 24408 C 2295.73 -2.16609 2.68653 0
M  V30 24409 C 2294.84 -1.82267 3.91667 0
M  V30 24410 C 2293.98 -3.03242 4.36139 0
M  V30 24411 C 2293.02 -2.64895 5.51813 0
M  V30 24412 N 2292.16 -3.78613 5.91267 0
M  V30 24413 H 2297 -0.42633 2.94935 0
M  V30 24414 H 2294.53 -0.198793 1.45751 0
M  V30 24415 H 2296.49 -2.90594 2.99351 0
M  V30 24416 H 2295.12 -2.61734 1.88932 0
M  V30 24417 H 2294.17 -0.983654 3.67462 0
M  V30 24418 H 2295.48 -1.50051 4.75695 0
M  V30 24419 H 2294.64 -3.85511 4.68472 0
M  V30 24420 H 2293.38 -3.38649 3.50954 0
M  V30 24421 H 2292.38 -1.81046 5.19136 0
M  V30 24422 H 2293.61 -2.30664 6.38726 0
M  V30 24423 H 2291.55 -4.13791 5.09032 0
M  V30 24424 H 2291.47 -3.50148 6.70024 0
M  V30 24425 H 2292.74 -4.61475 6.2822 0
M  V30 24426 N 2296.97 -1.56239 -0.206647 0
M  V30 24427 C 2297.88 -1.96811 -1.27682 0
M  V30 24428 C 2298.89 -0.874062 -1.50453 0
M  V30 24429 O 2300.07 -1.17887 -1.63293 0
M  V30 24430 C 2297.13 -2.28946 -2.60354 0
M  V30 24431 C 2296.2 -3.51998 -2.45756 0
M  V30 24432 C 2295.43 -3.82591 -3.72102 0
M  V30 24433 O 2295.65 -3.1464 -4.75771 0
M  V30 24434 O 2294.59 -4.76049 -3.68321 0
M  V30 24435 H 2298.41 -2.88043 -0.962543 0
M  V30 24436 H 2296 -1.43643 -0.410721 0
M  V30 24437 H 2297.88 -2.50743 -3.38682 0
M  V30 24438 H 2296.55 -1.40885 -2.91433 0
M  V30 24439 H 2295.46 -3.35462 -1.65578 0
M  V30 24440 H 2296.79 -4.40489 -2.19613 0
M  V30 24441 N 2298.45 0.473929 -1.50305 0
M  V30 24442 C 2299.41 1.55466 -1.68413 0
M  V30 24443 C 2300.41 1.50921 -0.554932 0
M  V30 24444 O 2301.6 1.53591 -0.821909 0
M  V30 24445 C 2298.73 2.95099 -1.70673 0
M  V30 24446 H 2299.92 1.40729 -2.64831 0
M  V30 24447 H 2297.48 0.700107 -1.39743 0
M  V30 24448 H 2298.21 3.15284 -0.759375 0
M  V30 24449 H 2298 2.99806 -2.52704 0
M  V30 24450 H 2299.49 3.73568 -1.86646 0
M  V30 24451 N 2299.92 1.39835 0.726907 0
M  V30 24452 C 2301.15 1.40978 1.52118 0
M  V30 24453 C 2301.57 0.00829336 1.88098 0
M  V30 24454 O 2300.93 -0.98078 1.52481 0
M  V30 24455 C 2300.98 2.29649 2.78017 0
M  V30 24456 O 2300.08 1.73194 3.74269 0
M  V30 24457 H 2299.42 0.479739 0.459071 0
M  V30 24458 H 2301.95 1.83929 0.896175 0
M  V30 24459 H 2301.96 2.44443 3.26667 0
M  V30 24460 H 2300.64 3.31497 2.51163 0
M  V30 24461 H 2299.22 1.67686 3.3307 0
M  V30 24462 N 2301.4 -0.957948 1.25144 0
M  V30 24463 C 2302.65 -1.70215 1.09695 0
M  V30 24464 C 2302.98 -1.9109 -0.362621 0
M  V30 24465 O 2302.23 -1.47703 -1.28383 0
M  V30 24466 C 2302.53 -3.09183 1.79277 0
M  V30 24467 C 2302.2 -3.08119 3.29201 0
M  V30 24468 C 2300.86 -3.07536 3.70101 0
M  V30 24469 C 2303.21 -3.01702 4.25 0
M  V30 24470 C 2300.54 -2.98281 5.05218 0
M  V30 24471 C 2302.89 -2.93989 5.60137 0
M  V30 24472 C 2301.55 -2.9174 6.0037 0
M  V30 24473 H 2300.82 -0.622861 0.401404 0
M  V30 24474 H 2303.47 -1.11942 1.55374 0
M  V30 24475 H 2301.78 -3.7098 1.2602 0
M  V30 24476 H 2303.47 -3.6558 1.6478 0
M  V30 24477 H 2300.06 -3.09343 2.96656 0
M  V30 24478 H 2304.25 -3.01274 3.94395 0
M  V30 24479 H 2299.5 -2.94906 5.35575 0
M  V30 24480 H 2303.68 -2.87984 6.34065 0
M  V30 24481 H 2301.3 -2.84324 7.05028 0
M  V30 24482 N 2302.88 -1.06677 -1.16008 0
M  V30 24483 C 2303.79 -0.692218 -2.24155 0
M  V30 24484 C 2304.81 0.293483 -1.71507 0
M  V30 24485 O 2305.98 0.141826 -2.009 0
M  V30 24486 C 2303.05 -0.0884741 -3.46587 0
M  V30 24487 C 2302.11 -1.12654 -4.14255 0
M  V30 24488 C 2301.34 -0.551509 -5.30843 0
M  V30 24489 O 2301.56 0.634556 -5.66859 0
M  V30 24490 O 2300.5 -1.29308 -5.87846 0
M  V30 24491 H 2304.32 -1.59392 -2.58511 0
M  V30 24492 H 2301.91 -0.839282 -1.23598 0
M  V30 24493 H 2303.79 0.246287 -4.2068 0
M  V30 24494 H 2302.47 0.786657 -3.13996 0
M  V30 24495 H 2301.37 -1.51354 -3.42115 0
M  V30 24496 H 2302.71 -1.97333 -4.50911 0
M  V30 24497 N 2304.36 1.32719 -0.8499 0
M  V30 24498 C 2305.59 2.01319 -0.464115 0
M  V30 24499 C 2306 1.64058 0.942431 0
M  V30 24500 O 2305.34 0.855408 1.62568 0
M  V30 24501 C 2305.4 3.55749 -0.517949 0
M  V30 24502 C 2305.06 4.16424 -1.88255 0
M  V30 24503 C 2306.06 4.34997 -2.84734 0
M  V30 24504 C 2303.75 4.52605 -2.1784 0
M  V30 24505 C 2305.74 4.88913 -4.08954 0
M  V30 24506 C 2303.43 5.06226 -3.42313 0
M  V30 24507 C 2304.43 5.24328 -4.37686 0
M  V30 24508 O 2304.11 5.76805 -5.59957 0
M  V30 24509 H 2303.85 0.651224 -0.181338 0
M  V30 24510 H 2306.4 1.7038 -1.14716 0
M  V30 24511 H 2304.63 3.86063 0.221929 0
M  V30 24512 H 2306.32 4.05628 -0.148437 0
M  V30 24513 H 2307.08 4.07383 -2.63181 0
M  V30 24514 H 2302.96 4.37803 -1.44393 0
M  V30 24515 H 2306.51 5.02957 -4.83405 0
M  V30 24516 H 2302.4 5.33272 -3.63719 0
M  V30 24517 H 2303.17 5.95204 -5.61849 0
M  V30 24518 N 2305.84 0.60738 1.45426 0
M  V30 24519 C 2306.77 -0.0988942 2.3329 0
M  V30 24520 C 2307.75 -0.858981 1.46818 0
M  V30 24521 O 2308.93 -0.829573 1.7559 0
M  V30 24522 C 2306.06 -1.09699 3.2952 0
M  V30 24523 C 2305.02 -0.450131 4.25626 0
M  V30 24524 C 2304.34 -1.55646 5.11545 0
M  V30 24525 C 2305.64 0.628546 5.18504 0
M  V30 24526 H 2307.34 0.634767 2.92594 0
M  V30 24527 H 2304.88 0.306706 1.40696 0
M  V30 24528 H 2306.84 -1.59964 3.89858 0
M  V30 24529 H 2305.56 -1.86124 2.68375 0
M  V30 24530 H 2304.22 0.0316531 3.66586 0
M  V30 24531 H 2303.87 -2.31099 4.46769 0
M  V30 24532 H 2303.57 -1.12915 5.76649 0
M  V30 24533 H 2305.09 -2.06138 5.74752 0
M  V30 24534 H 2306.5 0.209978 5.72915 0
M  V30 24535 H 2304.9 0.977593 5.92084 0
M  V30 24536 H 2305.97 1.50522 4.60946 0
M  V30 24537 N 2307.31 -1.53743 0.34653 0
M  V30 24538 C 2308.25 -2.22668 -0.543277 0
M  V30 24539 C 2309.26 -1.23428 -1.06157 0
M  V30 24540 O 2310.45 -1.49766 -0.971208 0
M  V30 24541 C 2307.55 -2.89572 -1.76071 0
M  V30 24542 C 2306.72 -4.15153 -1.3772 0
M  V30 24543 C 2305.78 -4.6544 -2.45463 0
M  V30 24544 O 2304.81 -5.2958 -2.08646 0
M  V30 24545 N 2306.01 -4.41623 -3.76762 0
M  V30 24546 H 2308.77 -2.99663 0.047023 0
M  V30 24547 H 2306.33 -1.60997 0.170795 0
M  V30 24548 H 2308.33 -3.20129 -2.47588 0
M  V30 24549 H 2306.9 -2.16146 -2.25831 0
M  V30 24550 H 2306.12 -3.91109 -0.492678 0
M  V30 24551 H 2307.4 -4.96834 -1.09699 0
M  V30 24552 H 2306.8 -3.90332 -4.0946 0
M  V30 24553 H 2305.36 -4.76777 -4.4444 0
M  V30 24554 N 2308.79 -0.0752207 -1.5742 0
M  V30 24555 C 2309.74 0.908471 -2.14125 0
M  V30 24556 C 2310.73 1.3059 -1.079 0
M  V30 24557 O 2311.94 1.28275 -1.26276 0
M  V30 24558 H 2308.32 0.310923 -0.684712 0
M  V30 24559 H 2310.29 0.405322 -2.95634 0
M  V30 24560 C 2309.04 2.1653 -2.72048 0
M  V30 24561 H 2308.36 1.86833 -3.53459 0
M  V30 24562 H 2309.8 2.83464 -3.15316 0
M  V30 24563 C 2308.26 2.92612 -1.66973 0
M  V30 24564 O 2308.79 3.86437 -1.09677 0
M  V30 24565 N 2306.99 2.55782 -1.37927 0
M  V30 24566 H 2306.54 1.79556 -1.84709 0
M  V30 24567 H 2306.5 3.0699 -0.678574 0
M  V30 24568 N 2310.27 1.56347 0.198358 0
M  V30 24569 C 2311.18 1.97485 1.26637 0
M  V30 24570 C 2312.2 0.882028 1.49988 0
M  V30 24571 O 2313.37 1.18751 1.62666 0
M  V30 24572 C 2310.44 2.30324 2.59137 0
M  V30 24573 C 2309.5 3.53296 2.43886 0
M  V30 24574 C 2308.73 3.84559 3.70067 0
M  V30 24575 O 2308.95 3.17159 4.74096 0
M  V30 24576 O 2307.89 4.77996 3.65792 0
M  V30 24577 H 2311.71 2.88549 0.947253 0
M  V30 24578 H 2309.3 1.43859 0.403098 0
M  V30 24579 H 2311.18 2.52536 3.37348 0
M  V30 24580 H 2309.86 1.42428 2.90682 0
M  V30 24581 H 2308.76 3.36335 1.63797 0
M  V30 24582 H 2310.1 4.41648 2.17274 0
M  V30 24583 N 2311.75 -0.465951 1.50554 0
M  V30 24584 C 2313 -1.21525 1.61481 0
M  V30 24585 C 2313.32 -1.92363 0.31963 0
M  V30 24586 O 2312.59 -1.84334 -0.663161 0
M  V30 24587 H 2311.17 -0.451563 0.595063 0
M  V30 24588 H 2313.83 -0.537007 1.87356 0
M  V30 24589 H 2312.93 -1.96038 2.42849 0
M  V30 24590 N 2313.23 -1.40218 -0.719481 0
M  V30 24591 C 2314.14 -1.42483 -1.86375 0
M  V30 24592 C 2315.15 -0.317864 -1.71072 0
M  V30 24593 O 2316.33 -0.561828 -1.93405 0
M  V30 24594 C 2313.39 -1.28183 -3.22133 0
M  V30 24595 C 2312.45 -2.48988 -3.49719 0
M  V30 24596 C 2311.69 -2.35362 -4.79 0
M  V30 24597 O 2311.91 -1.36534 -5.53818 0
M  V30 24598 O 2310.84 -3.24659 -5.06834 0
M  V30 24599 H 2314.67 -2.38971 -1.87421 0
M  V30 24600 H 2312.26 -1.21499 -0.869384 0
M  V30 24601 H 2314.14 -1.22402 -4.03232 0
M  V30 24602 H 2312.81 -0.347991 -3.21824 0
M  V30 24603 H 2311.72 -2.60347 -2.68645 0
M  V30 24604 H 2313.05 -3.4112 -3.54822 0
M  V30 24605 N 2314.7 0.951297 -1.25651 0
M  V30 24606 C 2316.12 1.22298 -1.02545 0
M  V30 24607 C 2316.32 1.99871 0.25568 0
M  V30 24608 O 2315.38 2.33228 0.967517 0
M  V30 24609 C 2316.69 1.99411 -2.25068 0
M  V30 24610 C 2318.24 2.12442 -2.29864 0
M  V30 24611 C 2318.71 2.92954 -3.52054 0
M  V30 24612 N 2320.2 3.00532 -3.5247 0
M  V30 24613 C 2320.94 3.63231 -4.43679 0
M  V30 24614 N 2320.43 4.27514 -5.45164 0
M  V30 24615 N 2322.23 3.60404 -4.31353 0
M  V30 24616 H 2314.38 0.432434 -2.07951 0
M  V30 24617 H 2316.64 0.2538 -0.913394 0
M  V30 24618 H 2316.35 1.49812 -3.18197 0
M  V30 24619 H 2316.22 3.00107 -2.28507 0
M  V30 24620 H 2318.61 2.61237 -1.37257 0
M  V30 24621 H 2318.69 1.1104 -2.30442 0
M  V30 24622 H 2318.33 2.44849 -4.44985 0
M  V30 24623 H 2318.26 3.9459 -3.48722 0
M  V30 24624 H 2320.75 2.54821 -2.7906 0
M  V30 24625 H 2321.07 4.73223 -6.10966 0
M  V30 24626 H 2319.41 4.26131 -5.49033 0
M  V30 24627 H 2322.6 3.09371 -3.51294 0
M  V30 24628 H 2322.78 4.08982 -5.02631 0
M  V30 24629 N 2316.18 1.07291 1.1544 0
M  V30 24630 C 2317.11 0.714146 2.22311 0
M  V30 24631 C 2318.09 -0.298126 1.67467 0
M  V30 24632 O 2319.28 -0.171014 1.93446 0
M  V30 24633 C 2316.41 0.110509 3.47124 0
M  V30 24634 C 2315.36 1.04987 4.14924 0
M  V30 24635 C 2314.69 0.309018 5.33806 0
M  V30 24636 C 2315.99 2.38322 4.64758 0
M  V30 24637 H 2317.68 1.60765 2.52577 0
M  V30 24638 H 2315.23 0.774431 1.21402 0
M  V30 24639 H 2317.18 -0.152408 4.21124 0
M  V30 24640 H 2315.91 -0.818065 3.16189 0
M  V30 24641 H 2314.56 1.2977 3.42864 0
M  V30 24642 H 2314.21 -0.622997 4.99127 0
M  V30 24643 H 2313.91 0.935138 5.80111 0
M  V30 24644 H 2315.44 0.0538844 6.10576 0
M  V30 24645 H 2316.85 2.17869 5.30289 0
M  V30 24646 H 2315.25 2.96523 5.21722 0
M  V30 24647 H 2316.32 3.00669 3.80429 0
M  V30 24648 N 2317.66 -1.32267 0.856927 0
M  V30 24649 C 2318.59 -2.31316 0.318621 0
M  V30 24650 C 2319.57 -1.5978 -0.583459 0
M  V30 24651 O 2320.76 -1.87567 -0.503226 0
M  V30 24652 C 2317.89 -3.43799 -0.491918 0
M  V30 24653 C 2316.84 -4.26832 0.315924 0
M  V30 24654 C 2316.17 -5.31099 -0.619492 0
M  V30 24655 C 2317.47 -4.98991 1.54291 0
M  V30 24656 H 2319.16 -2.76589 1.14626 0
M  V30 24657 H 2316.71 -1.32973 0.552637 0
M  V30 24658 H 2318.66 -4.12132 -0.878939 0
M  V30 24659 H 2317.38 -2.97259 -1.35294 0
M  V30 24660 H 2316.04 -3.60149 0.684728 0
M  V30 24661 H 2315.69 -4.80813 -1.47742 0
M  V30 24662 H 2315.39 -5.87541 -0.0829589 0
M  V30 24663 H 2316.91 -6.02295 -1.00364 0
M  V30 24664 H 2318.33 -5.59993 1.22806 0
M  V30 24665 H 2316.73 -5.65168 2.01755 0
M  V30 24666 H 2317.8 -4.26724 2.30292 0
M  V30 24667 N 2319.14 -0.615084 -1.45102 0
M  V30 24668 C 2320.07 0.0865209 -2.3334 0
M  V30 24669 C 2321.05 0.851183 -1.47271 0
M  V30 24670 O 2322.23 0.82025 -1.76027 0
M  V30 24671 C 2319.36 1.0795 -3.30097 0
M  V30 24672 C 2318.32 0.427553 -4.25859 0
M  V30 24673 C 2317.64 1.52931 -5.12363 0
M  V30 24674 C 2318.94 -0.656035 -5.18164 0
M  V30 24675 H 2320.64 -0.650275 -2.92253 0
M  V30 24676 H 2318.18 -0.314163 -1.40531 0
M  V30 24677 H 2320.14 1.57894 -3.90701 0
M  V30 24678 H 2318.86 1.84699 -2.69359 0
M  V30 24679 H 2317.52 -0.0510936 -3.66564 0
M  V30 24680 H 2317.17 2.28726 -4.47988 0
M  V30 24681 H 2316.87 1.09855 -5.7724 0
M  V30 24682 H 2318.39 2.03087 -5.75837 0
M  V30 24683 H 2319.81 -0.240358 -5.72796 0
M  V30 24684 H 2318.2 -1.00898 -5.91557 0
M  V30 24685 H 2319.27 -1.52965 -4.60141 0
M  V30 24686 N 2320.62 1.53557 -0.354678 0
M  V30 24687 C 2321.53 2.29098 0.50511 0
M  V30 24688 C 2322.54 1.34638 1.10221 0
M  V30 24689 O 2323.72 1.67686 1.1155 0
M  V30 24690 C 2320.78 3.0574 1.63474 0
M  V30 24691 C 2319.85 4.15847 1.06629 0
M  V30 24692 C 2319.08 4.88826 2.14208 0
M  V30 24693 O 2319.3 4.61568 3.35129 0
M  V30 24694 O 2318.24 5.75016 1.77877 0
M  V30 24695 H 2322.06 3.03503 -0.10929 0
M  V30 24696 H 2319.65 1.48922 -0.119384 0
M  V30 24697 H 2321.53 3.53634 2.29174 0
M  V30 24698 H 2320.2 2.34182 2.23474 0
M  V30 24699 H 2319.11 3.72231 0.373499 0
M  V30 24700 H 2320.44 4.8954 0.510995 0
M  V30 24701 N 2322.1 0.083568 1.57378 0
M  V30 24702 C 2323.06 -0.864922 2.12254 0
M  V30 24703 C 2324.06 -1.21856 1.04918 0
M  V30 24704 O 2325.25 -1.14989 1.30855 0
M  V30 24705 C 2322.38 -2.16456 2.63362 0
M  V30 24706 H 2323.57 -0.388623 2.97371 0
M  V30 24707 H 2321.13 -0.16529 1.55424 0
M  V30 24708 H 2321.86 -2.68596 1.81732 0
M  V30 24709 H 2321.65 -1.92081 3.41829 0
M  V30 24710 H 2323.14 -2.84331 3.05852 0
M  V30 24711 N 2323.57 -1.5645 -0.190064 0
M  V30 24712 C 2324.51 -1.90014 -1.26372 0
M  V30 24713 C 2325.48 -0.760791 -1.43704 0
M  V30 24714 O 2326.67 -1.01229 -1.59013 0
M  V30 24715 C 2323.8 -2.13473 -2.62958 0
M  V30 24716 C 2322.84 -3.36174 -2.62468 0
M  V30 24717 S 2323.67 -4.91141 -2.13403 0
M  V30 24718 C 2324.83 -5.17673 -3.51803 0
M  V30 24719 H 2325.06 -2.80784 -0.977131 0
M  V30 24720 H 2322.6 -1.49294 -0.393788 0
M  V30 24721 H 2324.55 -2.2767 -3.41579 0
M  V30 24722 H 2323.22 -1.23444 -2.88826 0
M  V30 24723 H 2322.41 -3.4973 -3.62912 0
M  V30 24724 H 2322.01 -3.20996 -1.91932 0
M  V30 24725 H 2324.3 -5.08502 -4.47697 0
M  V30 24726 H 2325.25 -6.19405 -3.43138 0
M  V30 24727 H 2325.65 -4.45294 -3.46948 0
M  V30 24728 N 2325.05 0.45796 -1.50799 0
M  V30 24729 C 2326.33 1.21899 -1.5297 0
M  V30 24730 C 2326.71 2.09209 -0.281943 0
M  V30 24731 O 2326.06 2.16389 0.734038 0
M  V30 24732 C 2326.27 2.0387 -2.83263 0
M  V30 24733 C 2327.61 2.61615 -3.34429 0
M  V30 24734 O 2328.64 2.14101 -2.84674 0
M  V30 24735 O 2327.5 3.4822 -4.21195 0
M  V30 24736 H 2324.59 0.553862 -0.614139 0
M  V30 24737 H 2327.14 0.46871 -1.63099 0
M  V30 24738 H 2325.91 1.39615 -3.65545 0
M  V30 24739 H 2325.53 2.86006 -2.762 0
M  V30 24740 N 2326.53 1.40598 0.712035 0
M  V30 24741 C 2327.44 1.43469 1.85617 0
M  V30 24742 C 2328.46 0.326932 1.70901 0
M  V30 24743 O 2329.63 0.572077 1.93104 0
M  V30 24744 C 2326.7 1.2989 3.21449 0
M  V30 24745 C 2325.76 2.50839 3.48394 0
M  V30 24746 C 2324.99 2.37899 4.77745 0
M  V30 24747 O 2325.21 1.39469 5.53086 0
M  V30 24748 O 2324.15 3.27342 5.05105 0
M  V30 24749 H 2327.97 2.39961 1.86151 0
M  V30 24750 H 2325.56 1.21959 0.862929 0
M  V30 24751 H 2327.44 1.24538 4.02577 0
M  V30 24752 H 2326.12 0.365053 3.21635 0
M  V30 24753 H 2325.02 2.61768 2.67261 0
M  V30 24754 H 2326.36 3.42996 3.53007 0
M  V30 24755 N 2328.01 -0.94462 1.26153 0
M  V30 24756 C 2328.94 -2.06017 1.09906 0
M  V30 24757 C 2329.92 -1.70099 0.00522528 0
M  V30 24758 O 2331.1 -1.93395 0.176617 0
M  V30 24759 C 2328.23 -3.39592 0.727622 0
M  V30 24760 C 2327.19 -3.89558 1.77281 0
M  V30 24761 C 2326.51 -5.19744 1.25578 0
M  V30 24762 C 2327.81 -4.14822 3.17365 0
M  V30 24763 H 2329.51 -2.19868 2.03221 0
M  V30 24764 H 2327.05 -1.0565 0.97847 0
M  V30 24765 H 2329.01 -4.17094 0.60085 0
M  V30 24766 H 2327.73 -3.25708 -0.241229 0
M  V30 24767 H 2326.39 -3.14234 1.88819 0
M  V30 24768 H 2326.04 -5.02237 0.276872 0
M  V30 24769 H 2325.74 -5.54144 1.95443 0
M  V30 24770 H 2327.26 -5.99833 1.14161 0
M  V30 24771 H 2328.68 -4.82949 3.08923 0
M  V30 24772 H 2327.07 -4.60497 3.84789 0
M  V30 24773 H 2328.14 -3.20728 3.63678 0
M  V30 24774 N 2329.49 -1.07901 -1.1487 0
M  V30 24775 C 2330.4 -0.715954 -2.23408 0
M  V30 24776 C 2331.41 0.275275 -1.71809 0
M  V30 24777 O 2332.59 0.12051 -2.01039 0
M  V30 24778 C 2329.65 -0.125229 -3.46474 0
M  V30 24779 C 2328.71 -1.17041 -4.13037 0
M  V30 24780 C 2327.95 -0.607781 -5.30228 0
M  V30 24781 O 2328.17 0.574397 -5.67501 0
M  V30 24782 O 2327.1 -1.35536 -5.86441 0
M  V30 24783 H 2330.93 -1.62125 -2.56805 0
M  V30 24784 H 2328.51 -0.852344 -1.22701 0
M  V30 24785 H 2330.4 0.201655 -4.20917 0
M  V30 24786 H 2329.07 0.753309 -3.14813 0
M  V30 24787 H 2327.98 -1.54974 -3.40491 0
M  V30 24788 H 2329.31 -2.02105 -4.48792 0
M  V30 24789 N 2330.96 1.31811 -0.863929 0
M  V30 24790 C 2332.21 1.97217 -0.47257 0
M  V30 24791 C 2332.54 1.68161 0.971364 0
M  V30 24792 O 2331.82 0.974827 1.68307 0
M  V30 24793 C 2332.1 3.52765 -0.723116 0
M  V30 24794 C 2331.95 3.91417 -2.21614 0
M  V30 24795 C 2333.27 4.39708 -0.185599 0
M  V30 24796 H 2330.39 0.716366 -0.173171 0
M  V30 24797 H 2333.03 1.56039 -1.08406 0
M  V30 24798 H 2331.18 3.87971 -0.202645 0
M  V30 24799 H 2332.86 3.66343 -2.80341 0
M  V30 24800 H 2331.1 3.40241 -2.69106 0
M  V30 24801 H 2331.77 4.99849 -2.34212 0
M  V30 24802 H 2334.25 4.11291 -0.630798 0
M  V30 24803 H 2333.12 5.4751 -0.390402 0
M  V30 24804 H 2333.38 4.32588 0.912153 0
M  V30 24805 N 2332.44 0.62277 1.44773 0
M  V30 24806 C 2333.4 -0.0773612 2.29069 0
M  V30 24807 C 2334.4 -0.780437 1.40591 0
M  V30 24808 O 2335.59 -0.626293 1.62552 0
M  V30 24809 C 2332.73 -1.12 3.21976 0
M  V30 24810 H 2333.92 0.663952 2.92458 0
M  V30 24811 H 2331.47 0.382512 1.51547 0
M  V30 24812 H 2332.21 -1.89157 2.6342 0
M  V30 24813 H 2331.99 -0.619883 3.87169 0
M  V30 24814 H 2333.48 -1.60988 3.85321 0
M  V30 24815 N 2333.92 -1.53367 0.362817 0
M  V30 24816 C 2335.17 -2.01215 -0.22774 0
M  V30 24817 C 2335.49 -1.25017 -1.49 0
M  V30 24818 O 2334.75 -0.33127 -1.92876 0
M  V30 24819 C 2335.05 -3.52852 -0.568355 0
M  V30 24820 C 2334.71 -4.469 0.599259 0
M  V30 24821 C 2333.38 -4.7233 0.919642 0
M  V30 24822 C 2335.73 -5.02553 1.38165 0
M  V30 24823 C 2333.06 -5.50666 2.02444 0
M  V30 24824 C 2335.41 -5.82096 2.47684 0
M  V30 24825 C 2334.07 -6.05814 2.8026 0
M  V30 24826 H 2333.34 -0.736299 -0.0833361 0
M  V30 24827 H 2335.99 -1.85 0.494709 0
M  V30 24828 H 2334.29 -3.67 -1.37178 0
M  V30 24829 H 2335.99 -3.87346 -1.03749 0
M  V30 24830 H 2332.58 -4.27253 0.339512 0
M  V30 24831 H 2336.77 -4.82855 1.14738 0
M  V30 24832 H 2332.02 -5.67263 2.28084 0
M  V30 24833 H 2336.2 -6.24228 3.08727 0
M  V30 24834 H 2333.82 -6.66299 3.65991 0
M  V30 24835 N 2335.4 -0.091913 -1.57332 0
M  V30 24836 C 2336.35 0.885709 -2.15077 0
M  V30 24837 C 2337.34 1.29439 -1.09279 0
M  V30 24838 O 2338.55 1.26929 -1.27629 0
M  V30 24839 H 2334.92 0.303644 -0.687971 0
M  V30 24840 H 2336.89 0.373943 -2.96048 0
M  V30 24841 C 2335.64 2.13633 -2.74329 0
M  V30 24842 H 2334.96 1.83074 -3.55421 0
M  V30 24843 H 2336.4 2.80104 -3.18305 0
M  V30 24844 C 2334.86 2.90824 -1.70067 0
M  V30 24845 O 2335.39 3.85252 -1.13769 0
M  V30 24846 N 2333.6 2.54305 -1.40633 0
M  V30 24847 H 2333.15 1.77587 -1.86603 0
M  V30 24848 H 2333.1 3.06253 -0.711096 0
M  V30 24849 N 2336.88 1.56548 0.181765 0
M  V30 24850 C 2337.82 1.96502 1.24457 0
M  V30 24851 C 2338.82 0.852287 1.46398 0
M  V30 24852 O 2340.02 1.03736 1.47102 0
M  V30 24853 H 2336.4 0.625039 0.418127 0
M  V30 24854 H 2338.37 2.85109 0.880664 0
M  V30 24855 C 2337.12 2.33216 2.57886 0
M  V30 24856 H 2336.44 3.18373 2.41823 0
M  V30 24857 H 2337.88 2.65025 3.30965 0
M  V30 24858 C 2336.34 1.17168 3.15869 0
M  V30 24859 O 2336.87 0.453779 3.99129 0
M  V30 24860 N 2335.08 0.944984 2.74806 0
M  V30 24861 H 2334.62 1.53053 2.07202 0
M  V30 24862 H 2334.58 0.170341 3.13938 0
M  V30 24863 N 2338.35 -0.449957 1.5104 0
M  V30 24864 C 2339.58 -1.22317 1.66871 0
M  V30 24865 C 2340 -1.85321 0.360759 0
M  V30 24866 O 2339.35 -1.70167 -0.659501 0
M  V30 24867 C 2339.41 -2.31648 2.77528 0
M  V30 24868 O 2339.13 -1.71223 4.03255 0
M  V30 24869 C 2340.63 -3.22155 3.04518 0
M  V30 24870 H 2337.85 -0.369145 0.560333 0
M  V30 24871 H 2340.39 -0.534684 1.97386 0
M  V30 24872 H 2338.55 -2.96234 2.49648 0
M  V30 24873 H 2338.96 -2.43381 4.64614 0
M  V30 24874 H 2340.43 -3.95031 3.85557 0
M  V30 24875 H 2340.91 -3.82176 2.16422 0
M  V30 24876 H 2341.52 -2.63282 3.3401 0
M  V30 24877 N 2339.83 -1.40974 -0.704569 0
M  V30 24878 C 2341.06 -1.4338 -1.49856 0
M  V30 24879 C 2341.48 -0.0382171 -1.88061 0
M  V30 24880 O 2340.84 0.956398 -1.54022 0
M  V30 24881 C 2340.89 -2.34043 -2.74329 0
M  V30 24882 O 2339.99 -1.79127 -3.71466 0
M  V30 24883 H 2339.33 -0.486982 -0.451381 0
M  V30 24884 H 2341.86 -1.85331 -0.8668 0
M  V30 24885 H 2341.87 -2.49609 -3.22737 0
M  V30 24886 H 2340.55 -3.35451 -2.45857 0
M  V30 24887 H 2339.13 -1.72964 -3.3036 0
M  V30 24888 N 2341.31 0.937917 -1.26653 0
M  V30 24889 C 2342.56 1.68698 -1.12556 0
M  V30 24890 C 2342.89 1.9138 0.329748 0
M  V30 24891 O 2342.16 1.49682 1.242 0
M  V30 24892 C 2342.45 3.05978 -1.89867 0
M  V30 24893 C 2342.3 2.90601 -3.43323 0
M  V30 24894 C 2343.62 4.06147 -1.69506 0
M  V30 24895 H 2340.74 0.612249 -0.410268 0
M  V30 24896 H 2343.38 1.0891 -1.55687 0
M  V30 24897 H 2341.53 3.57014 -1.5321 0
M  V30 24898 H 2343.2 2.46762 -3.89752 0
M  V30 24899 H 2341.45 2.26158 -3.70183 0
M  V30 24900 H 2342.12 3.87983 -3.92649 0
M  V30 24901 H 2344.59 3.64085 -2.01449 0
M  V30 24902 H 2343.47 5.0021 -2.2601 0
M  V30 24903 H 2343.73 4.37437 -0.640442 0
M  V30 24904 N 2342.79 1.08509 1.14296 0
M  V30 24905 C 2344.2 0.812926 1.37345 0
M  V30 24906 C 2344.4 -0.577291 1.93053 0
M  V30 24907 O 2343.46 -1.3339 2.14391 0
M  V30 24908 C 2344.77 1.89646 2.33356 0
M  V30 24909 C 2346.32 1.92259 2.46993 0
M  V30 24910 C 2346.8 2.9973 3.46303 0
M  V30 24911 N 2348.29 2.98908 3.53847 0
M  V30 24912 C 2349.02 3.78708 4.30544 0
M  V30 24913 N 2348.52 4.68389 5.10474 0
M  V30 24914 N 2350.31 3.67006 4.2575 0
M  V30 24915 H 2342.46 1.98152 0.764832 0
M  V30 24916 H 2344.73 0.859966 0.398951 0
M  V30 24917 H 2344.43 2.89601 1.9956 0
M  V30 24918 H 2344.31 1.76665 3.33271 0
M  V30 24919 H 2346.69 0.929495 2.80079 0
M  V30 24920 H 2346.77 2.09319 1.47035 0
M  V30 24921 H 2346.42 3.99247 3.1395 0
M  V30 24922 H 2346.35 2.79915 4.46044 0
M  V30 24923 H 2348.84 2.33909 2.96808 0
M  V30 24924 H 2349.15 5.25883 5.66275 0
M  V30 24925 H 2347.5 4.72431 5.09739 0
M  V30 24926 H 2350.69 2.96311 3.62378 0
M  V30 24927 H 2350.86 4.29436 4.85272 0
M  V30 24928 N 2344.27 -1.31351 0.870907 0
M  V30 24929 C 2345.49 -2.00847 0.496805 0
M  V30 24930 C 2345.91 -1.65369 -0.910969 0
M  V30 24931 O 2345.27 -0.883402 -1.59694 0
M  V30 24932 C 2345.32 -3.55693 0.64537 0
M  V30 24933 O 2345.04 -3.89902 1.99771 0
M  V30 24934 C 2346.54 -4.42462 0.272404 0
M  V30 24935 H 2343.76 -0.642502 0.193473 0
M  V30 24936 H 2346.3 -1.67561 1.17233 0
M  V30 24937 H 2344.46 -3.87396 0.0173857 0
M  V30 24938 H 2344.87 -4.84617 2.00615 0
M  V30 24939 H 2346.35 -5.50344 0.427305 0
M  V30 24940 H 2346.82 -4.32064 -0.788511 0
M  V30 24941 H 2347.43 -4.16178 0.876128 0
M  V30 24942 N 2345.74 -0.630439 -1.44441 0
M  V30 24943 C 2347.02 -0.0656 -1.9549 0
M  V30 24944 C 2347.4 1.40848 -1.57242 0
M  V30 24945 O 2346.75 2.12256 -0.846154 0
M  V30 24946 C 2346.96 -0.287752 -3.47812 0
M  V30 24947 C 2348.31 -0.180588 -4.24216 0
M  V30 24948 O 2349.33 -0.219082 -3.55526 0
M  V30 24949 O 2348.19 -0.0849453 -5.46434 0
M  V30 24950 H 2345.28 0.0227031 -0.826688 0
M  V30 24951 H 2347.83 -0.702095 -1.54495 0
M  V30 24952 H 2346.6 -1.31063 -3.68698 0
M  V30 24953 H 2346.23 0.382914 -3.95752 0
M  V30 24954 N 2347.22 1.53172 -0.370945 0
M  V30 24955 C 2348.46 2.03244 0.217071 0
M  V30 24956 C 2348.83 1.2521 1.45556 0
M  V30 24957 O 2350.03 1.65314 2.11954 0
M  V30 24958 C 2348.3 3.53933 0.496602 0
M  V30 24959 S 2349.86 4.25866 1.05752 0
M  V30 24960 H 2346.68 0.708224 0.0627702 0
M  V30 24961 H 2349.28 1.88593 -0.515052 0
M  V30 24962 H 2347.98 4.08325 -0.412168 0
M  V30 24963 H 2347.51 3.72756 1.25765 0
M  V30 24964 H 2349.53 4.37486 2.34137 0
M  V30 24965 N 2348.7 0.100255 1.57281 0
M  V30 24966 C 2349.65 -0.87429 2.15543 0
M  V30 24967 C 2350.64 -1.28857 1.09964 0
M  V30 24968 O 2351.85 -1.2625 1.283 0
M  V30 24969 H 2348.22 -0.299991 0.689572 0
M  V30 24970 H 2350.19 -0.358238 2.96242 0
M  V30 24971 C 2348.94 -2.12175 2.75458 0
M  V30 24972 H 2348.27 -1.81186 3.56387 0
M  V30 24973 H 2349.71 -2.78412 3.19786 0
M  V30 24974 C 2348.17 -2.89918 1.71607 0
M  V30 24975 O 2348.7 -3.84644 1.15811 0
M  V30 24976 N 2346.9 -2.53555 1.41979 0
M  V30 24977 H 2346.45 -1.76595 1.87542 0
M  V30 24978 H 2346.41 -3.05871 0.727328 0
M  V30 24979 N 2350.18 -1.56643 -0.17346 0
M  V30 24980 C 2351.13 -1.92653 -1.21937 0
M  V30 24981 C 2352.11 -0.794601 -1.3991 0
M  V30 24982 O 2353.31 -1.05776 -1.41917 0
M  V30 24983 C 2350.43 -2.28811 -2.55931 0
M  V30 24984 C 2349.52 -3.48512 -2.41661 0
M  V30 24985 N 2349.91 -4.65816 -1.97101 0
M  V30 24986 C 2348.21 -3.53077 -2.72493 0
M  V30 24987 C 2348.91 -5.47955 -1.95243 0
M  V30 24988 N 2347.89 -4.88941 -2.37566 0
M  V30 24989 H 2351.69 -2.80835 -0.866531 0
M  V30 24990 H 2349.2 -1.57849 -0.381748 0
M  V30 24991 H 2351.2 -2.52803 -3.31506 0
M  V30 24992 H 2349.86 -1.41967 -2.9202 0
M  V30 24993 H 2350.87 -4.90075 -1.67472 0
M  V30 24994 H 2347.55 -2.76706 -3.12634 0
M  V30 24995 H 2348.94 -6.51951 -1.62509 0
M  V30 24996 N 2351.66 0.44194 -1.51277 0
M  V30 24997 C 2352.91 1.18868 -1.62952 0
M  V30 24998 C 2353.22 1.92455 -0.349346 0
M  V30 24999 O 2354.43 2.69294 -0.345403 0
M  V30 25000 C 2352.88 2.1615 -2.87762 0
M  V30 25001 C 2352.49 1.48232 -4.22766 0
M  V30 25002 C 2354.23 2.91285 -3.08793 0
M  V30 25003 C 2352.14 2.43971 -5.38732 0
M  V30 25004 H 2351.07 0.447396 -0.606921 0
M  V30 25005 H 2353.72 0.456174 -1.77739 0
M  V30 25006 H 2352.1 2.92816 -2.66598 0
M  V30 25007 H 2353.28 0.771555 -4.54295 0
M  V30 25008 H 2351.59 0.85267 -4.07576 0
M  V30 25009 H 2354.19 3.62995 -3.92605 0
M  V30 25010 H 2354.53 3.52366 -2.21685 0
M  V30 25011 H 2355.07 2.21727 -3.30276 0
M  V30 25012 H 2351.8 1.87586 -6.28086 0
M  V30 25013 H 2351.32 3.13114 -5.11585 0
M  V30 25014 H 2353 3.05197 -5.70494 0
M  V30 25015 N 2353.14 1.41345 0.697083 0
M  V30 25016 C 2354.38 1.40621 1.45712 0
M  V30 25017 C 2354.71 0.0148248 1.94494 0
M  V30 25018 O 2353.97 -0.973036 1.69795 0
M  V30 25019 C 2354.26 2.35831 2.68549 0
M  V30 25020 C 2353.93 3.82703 2.38431 0
M  V30 25021 C 2352.59 4.22713 2.29928 0
M  V30 25022 C 2354.94 4.75439 2.13559 0
M  V30 25023 C 2352.27 5.5347 1.94647 0
M  V30 25024 C 2354.62 6.06514 1.79786 0
M  V30 25025 C 2353.29 6.45548 1.69778 0
M  V30 25026 H 2352.56 0.51457 0.533197 0
M  V30 25027 H 2355.21 1.74133 0.79687 0
M  V30 25028 H 2353.51 1.95569 3.395 0
M  V30 25029 H 2355.21 2.32545 3.26686 0
M  V30 25030 H 2351.8 3.51013 2.45943 0
M  V30 25031 H 2355.98 4.45332 2.19074 0
M  V30 25032 H 2351.24 5.82596 1.85449 0
M  V30 25033 H 2355.41 6.77874 1.5956 0
M  V30 25034 H 2353.04 7.46781 1.42207 0
M  V30 25035 N 2354.61 -0.931187 1.27148 0
M  V30 25036 C 2355.54 -2.0484 1.12085 0
M  V30 25037 C 2356.52 -1.70084 0.0232663 0
M  V30 25038 O 2357.71 -1.93197 0.197119 0
M  V30 25039 C 2354.84 -3.38801 0.763599 0
M  V30 25040 C 2353.79 -3.87656 1.81403 0
M  V30 25041 C 2353.12 -5.18383 1.31084 0
M  V30 25042 C 2354.42 -4.11432 3.21747 0
M  V30 25043 H 2356.11 -2.177 2.05541 0
M  V30 25044 H 2353.66 -1.04606 0.989621 0
M  V30 25045 H 2355.61 -4.16434 0.645055 0
M  V30 25046 H 2354.34 -3.25945 -0.20667 0
M  V30 25047 H 2353 -3.12213 1.92141 0
M  V30 25048 H 2352.64 -5.01916 0.330125 0
M  V30 25049 H 2352.34 -5.5204 2.01309 0
M  V30 25050 H 2353.87 -5.98588 1.20517 0
M  V30 25051 H 2355.28 -4.79645 3.14028 0
M  V30 25052 H 2353.68 -4.5639 3.89652 0
M  V30 25053 H 2354.75 -3.16852 3.67059 0
M  V30 25054 N 2356.09 -1.09114 -1.13719 0
M  V30 25055 C 2357.04 -0.722258 -2.21102 0
M  V30 25056 C 2358.03 0.275344 -1.67147 0
M  V30 25057 O 2359.24 0.137144 -1.79477 0
M  V30 25058 H 2355.61 -0.215565 -0.720441 0
M  V30 25059 H 2357.59 -1.63714 -2.4948 0
M  V30 25060 C 2356.33 -0.155491 -3.47352 0
M  V30 25061 H 2355.66 -0.914314 -3.89205 0
M  V30 25062 H 2357.1 0.0647221 -4.23951 0
M  V30 25063 C 2355.56 1.10847 -3.18142 0
M  V30 25064 O 2356.09 2.19221 -3.36608 0
M  V30 25065 N 2354.29 1.02171 -2.72047 0
M  V30 25066 H 2353.84 0.139719 -2.57221 0
M  V30 25067 H 2353.8 1.86815 -2.52878 0
M  V30 25068 N 2357.57 1.30887 -0.877861 0
M  V30 25069 C 2358.82 1.96414 -0.492731 0
M  V30 25070 C 2359.14 1.69348 0.956641 0
M  V30 25071 O 2358.4 0.986943 1.68991 0
M  V30 25072 C 2358.7 3.50361 -0.705809 0
M  V30 25073 C 2358.36 3.97463 -2.12917 0
M  V30 25074 C 2357.03 4.10036 -2.51842 0
M  V30 25075 C 2359.38 4.22127 -3.05709 0
M  V30 25076 C 2356.71 4.44628 -3.82783 0
M  V30 25077 C 2359.06 4.58186 -4.36174 0
M  V30 25078 C 2357.72 4.68967 -4.75002 0
M  V30 25079 H 2356.99 0.718729 -0.180303 0
M  V30 25080 H 2359.64 1.55881 -1.11236 0
M  V30 25081 H 2357.94 3.918 -0.00309945 0
M  V30 25082 H 2359.64 3.99123 -0.387526 0
M  V30 25083 H 2356.23 3.88179 -1.81701 0
M  V30 25084 H 2360.42 4.11901 -2.7686 0
M  V30 25085 H 2355.67 4.51173 -4.12617 0
M  V30 25086 H 2359.85 4.76222 -5.08119 0
M  V30 25087 H 2357.47 4.95527 -5.76504 0
M  V30 25088 N 2359.05 0.638091 1.44105 0
M  V30 25089 C 2360.29 0.145581 2.02277 0
M  V30 25090 C 2360.63 -1.23189 1.50127 0
M  V30 25091 O 2359.9 -1.81919 0.688165 0
M  V30 25092 C 2360.18 0.139854 3.59828 0
M  V30 25093 C 2360.04 1.55016 4.22244 0
M  V30 25094 C 2361.36 -0.531889 4.36874 0
M  V30 25095 H 2358.48 0.0543761 0.734991 0
M  V30 25096 H 2361.12 0.815893 1.7159 0
M  V30 25097 H 2359.27 -0.430939 3.86103 0
M  V30 25098 H 2360.94 2.17038 4.07053 0
M  V30 25099 H 2359.18 2.10197 3.79473 0
M  V30 25100 H 2359.85 1.49813 5.31282 0
M  V30 25101 H 2362.33 -0.046405 4.16074 0
M  V30 25102 H 2361.21 -0.50511 5.46571 0
M  V30 25103 H 2361.47 -1.60345 4.11997 0
M  V30 25104 N 2360.53 -1.52973 0.379063 0
M  V30 25105 C 2361.94 -1.86447 -0.0972197 0
M  V30 25106 C 2362.29 -1.29916 -1.47025 0
M  V30 25107 O 2361.41 -0.626469 -2.07134 0
M  V30 25108 C 2362.01 -3.38304 -0.183189 0
M  V30 25109 C 2360.57 -3.71526 -0.603747 0
M  V30 25110 C 2359.71 -2.76254 0.240681 0
M  V30 25111 H 2362.66 -1.47029 0.597341 0
M  V30 25112 H 2362.69 -3.67008 -1.00426 0
M  V30 25113 H 2362.2 -3.79419 0.816257 0
M  V30 25114 H 2360.3 -3.35976 -1.61093 0
M  V30 25115 H 2360.41 -4.77677 -0.369002 0
M  V30 25116 H 2358.78 -2.53015 -0.292503 0
M  V30 25117 H 2359.56 -3.20204 1.23792 0
M  V30 25118 N 2362 -0.108595 -1.57225 0
M  V30 25119 C 2363.23 0.559919 -1.9918 0
M  V30 25120 C 2363.65 1.60882 -0.988051 0
M  V30 25121 O 2363 1.82488 0.0205192 0
M  V30 25122 C 2363.05 1.19546 -3.41161 0
M  V30 25123 O 2362.78 0.1885 -4.37694 0
M  V30 25124 C 2364.28 1.9483 -3.98191 0
M  V30 25125 H 2361.5 0.149076 -0.65423 0
M  V30 25126 H 2364.04 -0.191866 -2.03598 0
M  V30 25127 H 2362.2 1.89809 -3.37715 0
M  V30 25128 H 2362.61 0.648922 -5.2047 0
M  V30 25129 H 2364.08 2.34639 -4.99648 0
M  V30 25130 H 2364.56 2.81945 -3.36755 0
M  V30 25131 H 2365.17 1.29353 -4.05152 0
M  V30 25132 N 2363.48 1.56732 0.16515 0
M  V30 25133 C 2364.73 1.82612 0.88208 0
M  V30 25134 C 2365.06 0.68741 1.81627 0
M  V30 25135 O 2364.34 -0.310234 1.9201 0
M  V30 25136 C 2364.62 3.18909 1.67239 0
M  V30 25137 C 2364.47 4.43317 0.76091 0
M  V30 25138 C 2365.79 3.52217 2.63878 0
M  V30 25139 H 2362.91 0.664275 0.319231 0
M  V30 25140 H 2365.55 1.89423 0.148019 0
M  V30 25141 H 2363.7 3.13234 2.29818 0
M  V30 25142 H 2365.37 4.61064 0.147515 0
M  V30 25143 H 2363.62 4.33745 0.069334 0
M  V30 25144 H 2364.29 5.35249 1.34953 0
M  V30 25145 H 2366.76 3.58385 2.11423 0
M  V30 25146 H 2365.64 4.48649 3.16237 0
M  V30 25147 H 2365.9 2.77237 3.44372 0
M  V30 25148 N 2364.96 -0.433911 1.51509 0
M  V30 25149 C 2366.21 -1.18002 1.6358 0
M  V30 25150 C 2366.52 -1.92267 0.359548 0
M  V30 25151 O 2367.73 -2.69107 0.359679 0
M  V30 25152 C 2366.18 -2.14621 2.88905 0
M  V30 25153 C 2365.79 -1.45988 4.23546 0
M  V30 25154 C 2367.54 -2.89644 3.10333 0
M  V30 25155 C 2365.44 -2.4111 5.40018 0
M  V30 25156 H 2364.37 -0.444171 0.609285 0
M  V30 25157 H 2367.02 -0.446741 1.77979 0
M  V30 25158 H 2365.41 -2.91398 2.68147 0
M  V30 25159 H 2366.58 -0.747452 4.54697 0
M  V30 25160 H 2364.89 -0.831043 4.08023 0
M  V30 25161 H 2367.49 -3.60908 3.94525 0
M  V30 25162 H 2367.84 -3.51185 2.2355 0
M  V30 25163 H 2368.37 -2.19972 3.31447 0
M  V30 25164 H 2365.11 -1.84253 6.29072 0
M  V30 25165 H 2364.63 -3.10397 5.13239 0
M  V30 25166 H 2366.31 -3.02167 5.72105 0
M  V30 25167 N 2366.44 -1.41713 -0.689577 0
M  V30 25168 C 2367.37 -1.38453 -1.814 0
M  V30 25169 C 2368.35 -0.250902 -1.60653 0
M  V30 25170 O 2369.53 -0.438772 -1.83322 0
M  V30 25171 C 2366.66 -1.16116 -3.18174 0
M  V30 25172 C 2365.71 -2.32277 -3.57701 0
M  V30 25173 S 2366.54 -3.94774 -3.6182 0
M  V30 25174 C 2367.7 -3.74751 -5.01311 0
M  V30 25175 H 2367.93 -2.33607 -1.83889 0
M  V30 25176 H 2365.46 -1.28308 -0.858856 0
M  V30 25177 H 2367.42 -1.03914 -3.9713 0
M  V30 25178 H 2366.08 -0.225723 -3.13288 0
M  V30 25179 H 2365.27 -2.12357 -4.57078 0
M  V30 25180 H 2364.88 -2.40916 -2.86069 0
M  V30 25181 H 2367.17 -3.34827 -5.8898 0
M  V30 25182 H 2368.11 -4.73752 -5.26274 0
M  V30 25183 H 2368.52 -3.07906 -4.73132 0
M  V30 25184 N 2367.92 0.924431 -1.2764 0
M  V30 25185 C 2369.19 1.65099 -1.04889 0
M  V30 25186 C 2369.57 2.06975 0.41529 0
M  V30 25187 O 2368.92 1.80651 1.3992 0
M  V30 25188 C 2369.13 2.85058 -2.01353 0
M  V30 25189 C 2370.48 3.56325 -2.30906 0
M  V30 25190 O 2371.5 2.9519 -1.99353 0
M  V30 25191 O 2370.36 4.6648 -2.84708 0
M  V30 25192 H 2367.46 0.723777 -0.400096 0
M  V30 25193 H 2370 0.974679 -1.38918 0
M  V30 25194 H 2368.77 2.51128 -3.00084 0
M  V30 25195 H 2368.4 3.60407 -1.67907 0
M  V30 25196 N 2369.39 1.09715 1.13139 0
M  V30 25197 C 2370.81 0.853914 1.66028 0
M  V30 25198 C 2371.16 -0.617109 1.86242 0
M  V30 25199 O 2370.28 -1.47501 1.58343 0
M  V30 25200 C 2370.88 1.54355 3.01596 0
M  V30 25201 C 2369.44 1.34721 3.51465 0
M  V30 25202 C 2368.58 1.59773 2.26645 0
M  V30 25203 H 2371.53 1.2559 0.970204 0
M  V30 25204 H 2371.55 0.978331 3.67708 0
M  V30 25205 H 2371.07 2.61415 2.86851 0
M  V30 25206 H 2369.17 0.297903 3.71407 0
M  V30 25207 H 2369.28 2.08408 4.31396 0
M  V30 25208 H 2367.64 1.02002 2.33383 0
M  V30 25209 H 2368.43 2.68069 2.14462 0
M  V30 25210 N 2370.87 -1.30419 0.88479 0
M  V30 25211 C 2372.12 -1.9615 0.50314 0
M  V30 25212 C 2372.45 -1.69853 -0.947647 0
M  V30 25213 O 2371.7 -0.995891 -1.68465 0
M  V30 25214 C 2372 -3.49982 0.72438 0
M  V30 25215 C 2371.67 -3.96328 2.15022 0
M  V30 25216 C 2370.33 -4.08694 2.54013 0
M  V30 25217 C 2372.68 -4.205 3.07944 0
M  V30 25218 C 2370.01 -4.42592 3.85135 0
M  V30 25219 C 2372.36 -4.55867 4.38598 0
M  V30 25220 C 2371.03 -4.66441 4.77482 0
M  V30 25221 H 2370.3 -0.717763 0.184112 0
M  V30 25222 H 2372.94 -1.55289 1.12061 0
M  V30 25223 H 2371.25 -3.91793 0.0238775 0
M  V30 25224 H 2372.94 -3.98912 0.408687 0
M  V30 25225 H 2369.53 -3.8721 1.83757 0
M  V30 25226 H 2373.72 -4.10427 2.79041 0
M  V30 25227 H 2368.97 -4.48979 4.15004 0
M  V30 25228 H 2373.15 -4.73521 5.10638 0
M  V30 25229 H 2370.78 -4.92463 5.79124 0
M  V30 25230 N 2372.35 -0.645724 -1.43764 0
M  V30 25231 C 2373.3 0.0504242 -2.30745 0
M  V30 25232 C 2374.27 0.822216 -1.44322 0
M  V30 25233 O 2375.45 0.800328 -1.73203 0
M  V30 25234 C 2372.59 1.01605 -3.29804 0
M  V30 25235 C 2371.71 0.241144 -4.31326 0
M  V30 25236 C 2370.84 1.19989 -5.17471 0
M  V30 25237 C 2369.88 0.414987 -6.10692 0
M  V30 25238 N 2369.02 1.32494 -6.89485 0
M  V30 25239 H 2373.86 -0.697206 -2.89729 0
M  V30 25240 H 2371.39 -0.355588 -1.42737 0
M  V30 25241 H 2373.35 1.58942 -3.85737 0
M  V30 25242 H 2371.98 1.73064 -2.72486 0
M  V30 25243 H 2371.03 -0.4484 -3.77748 0
M  V30 25244 H 2372.35 -0.369525 -4.97429 0
M  V30 25245 H 2371.5 1.84414 -5.77993 0
M  V30 25246 H 2370.24 1.84447 -4.51476 0
M  V30 25247 H 2369.24 -0.242662 -5.49264 0
M  V30 25248 H 2370.47 -0.225085 -6.78727 0
M  V30 25249 H 2368.41 1.95646 -6.26146 0
M  V30 25250 H 2368.33 0.76865 -7.52082 0
M  V30 25251 H 2369.6 1.95757 -7.54519 0
M  V30 25252 N 2373.83 1.5277 -0.38717 0
M  V30 25253 C 2375.08 2.00736 0.196934 0
M  V30 25254 C 2375.39 1.27796 1.4808 0
M  V30 25255 O 2376.6 1.66462 2.14482 0
M  V30 25256 C 2375.05 3.57653 0.401505 0
M  V30 25257 C 2374.66 4.39491 -0.868984 0
M  V30 25258 C 2376.4 4.13914 0.942091 0
M  V30 25259 C 2374.31 5.88005 -0.632808 0
M  V30 25260 H 2373.24 0.75002 0.0773695 0
M  V30 25261 H 2375.89 1.76292 -0.509241 0
M  V30 25262 H 2374.27 3.78337 1.16948 0
M  V30 25263 H 2375.45 4.30575 -1.64141 0
M  V30 25264 H 2373.76 3.94441 -1.33436 0
M  V30 25265 H 2376.36 5.22527 1.13446 0
M  V30 25266 H 2376.7 3.69871 1.91053 0
M  V30 25267 H 2377.24 3.97113 0.233744 0
M  V30 25268 H 2373.98 6.36367 -1.57219 0
M  V30 25269 H 2373.5 5.99715 0.10072 0
M  V30 25270 H 2375.17 6.46451 -0.266534 0
M  V30 25271 N 2375.31 0.116931 1.57166 0
M  V30 25272 C 2376.22 -0.847774 2.18746 0
M  V30 25273 C 2377.23 -1.29421 1.16302 0
M  V30 25274 O 2378.41 -1.35762 1.48763 0
M  V30 25275 C 2375.47 -2.08085 2.77311 0
M  V30 25276 C 2374.53 -1.68654 3.94784 0
M  V30 25277 C 2373.77 -2.86083 4.50546 0
M  V30 25278 O 2373.99 -4.01449 4.05209 0
M  V30 25279 O 2372.92 -2.63288 5.41261 0
M  V30 25280 H 2376.75 -0.353725 3.01633 0
M  V30 25281 H 2374.34 -0.108573 1.49005 0
M  V30 25282 H 2376.22 -2.80307 3.14652 0
M  V30 25283 H 2374.89 -2.56501 1.97457 0
M  V30 25284 H 2373.8 -0.935454 3.62215 0
M  V30 25285 H 2375.13 -1.24982 4.76068 0
M  V30 25286 N 2376.78 -1.56818 -0.156836 0
M  V30 25287 C 2377.69 -2.00773 -1.21356 0
M  V30 25288 C 2378.71 -0.921485 -1.47596 0
M  V30 25289 O 2379.89 -1.23022 -1.5946 0
M  V30 25290 C 2376.95 -2.37113 -2.52939 0
M  V30 25291 C 2376.01 -3.59638 -2.34433 0
M  V30 25292 C 2375.25 -3.94236 -3.59741 0
M  V30 25293 O 2375.47 -3.29617 -4.6552 0
M  V30 25294 O 2374.4 -4.87526 -3.5299 0
M  V30 25295 H 2378.23 -2.9096 -0.870417 0
M  V30 25296 H 2375.81 -1.44877 -0.364814 0
M  V30 25297 H 2377.7 -2.61391 -3.30534 0
M  V30 25298 H 2376.37 -1.50085 -2.86803 0
M  V30 25299 H 2375.28 -3.4056 -1.54822 0
M  V30 25300 H 2376.61 -4.47253 -2.05488 0
M  V30 25301 N 2378.26 0.425871 -1.51737 0
M  V30 25302 C 2379.49 1.20105 -1.69084 0
M  V30 25303 C 2379.91 1.83961 -0.39243 0
M  V30 25304 O 2379.27 1.69303 0.648551 0
M  V30 25305 C 2379.32 2.25232 -2.81608 0
M  V30 25306 O 2378.42 3.30988 -2.4601 0
M  V30 25307 H 2377.76 0.35137 -0.563414 0
M  V30 25308 H 2380.29 0.501477 -1.98359 0
M  V30 25309 H 2380.3 2.69833 -3.0603 0
M  V30 25310 H 2378.98 1.78135 -3.7582 0
M  V30 25311 H 2377.56 2.91783 -2.322 0
M  V30 25312 N 2379.74 1.42077 0.682052 0
M  V30 25313 C 2380.99 1.42369 1.44426 0
M  V30 25314 C 2381.32 0.0373397 1.94164 0
M  V30 25315 O 2380.59 -0.93721 1.70431 0
M  V30 25316 C 2380.88 2.44198 2.64649 0
M  V30 25317 C 2380.73 3.91995 2.20589 0
M  V30 25318 C 2382.05 2.43107 3.66861 0
M  V30 25319 H 2379.17 0.518437 0.523825 0
M  V30 25320 H 2381.81 1.73443 0.77573 0
M  V30 25321 H 2379.96 2.17831 3.21686 0
M  V30 25322 H 2381.63 4.29316 1.68776 0
M  V30 25323 H 2379.88 4.06211 1.52235 0
M  V30 25324 H 2380.55 4.58812 3.06913 0
M  V30 25325 H 2383.02 2.66537 3.19526 0
M  V30 25326 H 2381.9 3.16347 4.48571 0
M  V30 25327 H 2382.16 1.45444 4.17491 0
M  V30 25328 N 2381.22 -0.917649 1.28129 0
M  V30 25329 C 2382.64 -1.19536 1.05751 0
M  V30 25330 C 2382.84 -2.00479 -0.202598 0
M  V30 25331 O 2381.89 -2.35711 -0.905341 0
M  V30 25332 C 2383.2 -1.93374 2.30276 0
M  V30 25333 C 2384.75 -2.06272 2.35416 0
M  V30 25334 C 2385.23 -2.83517 3.59697 0
M  V30 25335 N 2386.72 -2.91081 3.60314 0
M  V30 25336 C 2387.45 -3.5134 4.53153 0
M  V30 25337 N 2386.95 -4.12909 5.56307 0
M  V30 25338 N 2388.74 -3.48841 4.40757 0
M  V30 25339 H 2380.89 -0.377148 2.09025 0
M  V30 25340 H 2383.16 -0.229494 0.919802 0
M  V30 25341 H 2382.86 -1.41323 3.22057 0
M  V30 25342 H 2382.74 -2.93943 2.36384 0
M  V30 25343 H 2385.12 -2.57506 1.44134 0
M  V30 25344 H 2385.2 -1.04891 2.33305 0
M  V30 25345 H 2384.85 -2.32965 4.5132 0
M  V30 25346 H 2384.78 -3.85205 3.59061 0
M  V30 25347 H 2387.27 -2.47333 2.85718 0
M  V30 25348 H 2387.58 -4.56858 6.23298 0
M  V30 25349 H 2385.93 -4.11425 5.60138 0
M  V30 25350 H 2389.12 -2.99948 3.59373 0
M  V30 25351 H 2389.29 -3.95511 5.13298 0
M  V30 25352 N 2382.7 -1.10314 -1.12555 0
M  V30 25353 C 2383.93 -0.865649 -1.8759 0
M  V30 25354 C 2384.34 0.587358 -1.79852 0
M  V30 25355 O 2383.68 1.41662 -1.16951 0
M  V30 25356 C 2383.74 -1.23387 -3.37662 0
M  V30 25357 C 2383.4 -2.69365 -3.69177 0
M  V30 25358 C 2384.4 -3.67604 -3.67646 0
M  V30 25359 C 2382.09 -3.05718 -3.98549 0
M  V30 25360 C 2384.08 -5.00219 -3.95044 0
M  V30 25361 C 2381.77 -4.38522 -4.25608 0
M  V30 25362 C 2382.77 -5.35581 -4.23842 0
M  V30 25363 O 2382.45 -6.65994 -4.5023 0
M  V30 25364 H 2382.19 -0.310567 -0.600436 0
M  V30 25365 H 2384.74 -1.47107 -1.43348 0
M  V30 25366 H 2382.97 -0.571534 -3.82453 0
M  V30 25367 H 2384.66 -0.974063 -3.94039 0
M  V30 25368 H 2385.42 -3.40863 -3.45018 0
M  V30 25369 H 2381.3 -2.30796 -3.99066 0
M  V30 25370 H 2384.85 -5.75969 -3.93581 0
M  V30 25371 H 2380.74 -4.65001 -4.4771 0
M  V30 25372 H 2381.51 -6.71606 -4.67855 0
M  V30 25373 N 2384.18 1.29948 -0.891694 0
M  V30 25374 C 2385.11 2.26111 -0.308034 0
M  V30 25375 C 2386.09 1.52085 0.575236 0
M  V30 25376 O 2387.27 1.81075 0.523833 0
M  V30 25377 C 2384.4 3.3401 0.561675 0
M  V30 25378 C 2383.44 4.25748 -0.253182 0
M  V30 25379 S 2384.28 5.09581 -1.64581 0
M  V30 25380 C 2385.43 6.20985 -0.782808 0
M  V30 25381 H 2385.67 2.75269 -1.12314 0
M  V30 25382 H 2383.2 1.38048 -0.691533 0
M  V30 25383 H 2385.16 3.96639 1.05771 0
M  V30 25384 H 2383.82 2.83564 1.35094 0
M  V30 25385 H 2383.01 5.02323 0.41082 0
M  V30 25386 H 2382.61 3.67728 -0.682069 0
M  V30 25387 H 2384.9 6.775 -0.00269385 0
M  V30 25388 H 2385.85 6.91585 -1.52038 0
M  V30 25389 H 2386.26 5.63471 -0.340737 0
M  V30 25390 N 2385.65 0.653339 1.4342 0
M  V30 25391 C 2386.9 0.167027 2.02111 0
M  V30 25392 C 2387.23 -1.21589 1.51425 0
M  V30 25393 O 2386.51 -1.81179 0.707421 0
M  V30 25394 C 2386.79 0.178011 3.5966 0
M  V30 25395 C 2386.64 1.59485 4.20576 0
M  V30 25396 C 2387.96 -0.485523 4.37414 0
M  V30 25397 H 2385.08 0.0621686 0.734373 0
M  V30 25398 H 2387.72 0.834046 1.70715 0
M  V30 25399 H 2385.87 -0.389964 3.86538 0
M  V30 25400 H 2387.55 2.21343 4.04728 0
M  V30 25401 H 2385.79 2.1421 3.77222 0
M  V30 25402 H 2386.46 1.55439 5.29663 0
M  V30 25403 H 2388.94 -0.00227214 4.161 0
M  V30 25404 H 2387.81 -0.44711 5.47076 0
M  V30 25405 H 2388.07 -1.55966 4.13675 0
M  V30 25406 N 2387.13 -1.52563 0.395266 0
M  V30 25407 C 2388.06 -2.23068 -0.481261 0
M  V30 25408 C 2389.04 -1.23364 -1.05925 0
M  V30 25409 O 2390.23 -1.5237 -1.10976 0
M  V30 25410 C 2387.35 -2.94853 -1.66671 0
M  V30 25411 C 2386.4 -4.08875 -1.21341 0
M  V30 25412 S 2387.23 -5.35163 -0.190008 0
M  V30 25413 C 2388.39 -6.10472 -1.3811 0
M  V30 25414 H 2388.62 -2.97068 0.117433 0
M  V30 25415 H 2386.15 -1.53353 0.179485 0
M  V30 25416 H 2388.11 -3.3682 -2.34654 0
M  V30 25417 H 2386.77 -2.20522 -2.23672 0
M  V30 25418 H 2385.97 -4.58226 -2.09869 0
M  V30 25419 H 2385.57 -3.68952 -0.612421 0
M  V30 25420 H 2387.86 -6.37006 -2.30715 0
M  V30 25421 H 2388.8 -7.01987 -0.928398 0
M  V30 25422 H 2389.21 -5.41332 -1.60062 0
M  V30 25423 N 2388.61 -0.125265 -1.57101 0
M  V30 25424 C 2390.03 0.231294 -1.57915 0
M  V30 25425 C 2390.23 1.66264 -1.13836 0
M  V30 25426 O 2389.28 2.38516 -0.828623 0
M  V30 25427 C 2390.59 -0.00771775 -3.00699 0
M  V30 25428 C 2392.14 0.0576933 -3.12947 0
M  V30 25429 C 2392.62 -0.153706 -4.57742 0
M  V30 25430 N 2394.11 -0.0998887 -4.63092 0
M  V30 25431 C 2394.84 -0.238274 -5.72905 0
M  V30 25432 N 2394.34 -0.433179 -6.91444 0
M  V30 25433 N 2396.13 -0.177406 -5.6182 0
M  V30 25434 H 2388.28 -1.0601 -1.84053 0
M  V30 25435 H 2390.55 -0.417944 -0.850898 0
M  V30 25436 H 2390.25 -0.99749 -3.37258 0
M  V30 25437 H 2390.13 0.721387 -3.70238 0
M  V30 25438 H 2392.51 1.038 -2.76242 0
M  V30 25439 H 2392.59 -0.703393 -2.45939 0
M  V30 25440 H 2392.24 -1.13101 -4.95147 0
M  V30 25441 H 2392.17 0.627442 -5.22849 0
M  V30 25442 H 2394.66 0.0469846 -3.77871 0
M  V30 25443 H 2394.97 -0.529468 -7.70984 0
M  V30 25444 H 2393.32 -0.469231 -6.93414 0
M  V30 25445 H 2396.51 -0.0260571 -4.68093 0
M  V30 25446 H 2396.68 -0.288696 -6.47357 0
M  V30 25447 N 2390.09 1.56899 0.148518 0
M  V30 25448 C 2391.32 1.87152 0.875085 0
M  V30 25449 C 2391.73 0.711293 1.7532 0
M  V30 25450 O 2391.07 -0.32812 1.80746 0
M  V30 25451 C 2391.13 3.12092 1.78434 0
M  V30 25452 C 2390.79 4.43969 1.08354 0
M  V30 25453 C 2391.79 5.1805 0.438156 0
M  V30 25454 C 2389.48 4.90695 1.07349 0
M  V30 25455 C 2391.47 6.37061 -0.207902 0
M  V30 25456 C 2389.16 6.0963 0.423623 0
M  V30 25457 C 2390.16 6.82659 -0.215949 0
M  V30 25458 O 2389.84 7.99335 -0.855519 0
M  V30 25459 H 2389.58 0.624626 0.258493 0
M  V30 25460 H 2392.13 2.04877 0.146484 0
M  V30 25461 H 2390.36 2.90372 2.55384 0
M  V30 25462 H 2392.05 3.28604 2.38273 0
M  V30 25463 H 2392.81 4.83021 0.437732 0
M  V30 25464 H 2388.69 4.33777 1.56072 0
M  V30 25465 H 2392.24 6.94001 -0.707702 0
M  V30 25466 H 2388.13 6.44121 0.421708 0
M  V30 25467 H 2388.9 8.14992 -0.757035 0
M  V30 25468 N 2391.57 -0.417818 1.51961 0
M  V30 25469 C 2392.81 -1.16326 1.65265 0
M  V30 25470 C 2393.13 -1.91248 0.380667 0
M  V30 25471 O 2392.4 -1.8635 -0.604181 0
M  V30 25472 H 2390.98 -0.432403 0.609128 0
M  V30 25473 H 2393.65 -0.477129 1.8897 0
M  V30 25474 H 2392.74 -1.88212 2.48963 0
M  V30 25475 N 2393.04 -1.42436 -0.674508 0
M  V30 25476 C 2394.27 -1.46527 -1.46781 0
M  V30 25477 C 2394.69 -0.0780991 -1.87938 0
M  V30 25478 O 2394.05 0.923512 -1.56016 0
M  V30 25479 C 2394.1 -2.39809 -2.69303 0
M  V30 25480 O 2393.2 -1.86966 -3.67583 0
M  V30 25481 H 2392.54 -0.496446 -0.44095 0
M  V30 25482 H 2395.07 -1.87128 -0.827293 0
M  V30 25483 H 2395.08 -2.56399 -3.1737 0
M  V30 25484 H 2393.76 -3.4059 -2.38686 0
M  V30 25485 H 2392.34 -1.79932 -3.26617 0
M  V30 25486 N 2394.52 0.910841 -1.28614 0
M  V30 25487 C 2395.94 1.18974 -1.06383 0
M  V30 25488 C 2396.14 2.00584 0.191963 0
M  V30 25489 O 2395.19 2.36188 0.892828 0
M  V30 25490 C 2396.51 1.9215 -2.31298 0
M  V30 25491 C 2398.05 2.05021 -2.36507 0
M  V30 25492 C 2398.53 2.81606 -3.61196 0
M  V30 25493 N 2400.02 2.89166 -3.61853 0
M  V30 25494 C 2400.76 3.48932 -4.5501 0
M  V30 25495 N 2400.25 4.09953 -5.58489 0
M  V30 25496 N 2402.04 3.46499 -4.426 0
M  V30 25497 H 2394.2 0.366057 -2.09222 0
M  V30 25498 H 2396.46 0.224613 -0.921007 0
M  V30 25499 H 2396.16 1.39613 -3.22802 0
M  V30 25500 H 2396.04 2.92686 -2.37939 0
M  V30 25501 H 2398.43 2.56738 -1.45498 0
M  V30 25502 H 2398.51 1.03653 -2.33858 0
M  V30 25503 H 2398.15 2.30568 -4.52549 0
M  V30 25504 H 2398.08 3.83295 -3.61099 0
M  V30 25505 H 2400.57 2.45814 -2.87026 0
M  V30 25506 H 2400.88 4.53546 -6.25712 0
M  V30 25507 H 2399.23 4.08449 -5.62312 0
M  V30 25508 H 2402.42 2.98038 -3.60958 0
M  V30 25509 H 2402.59 3.92784 -5.15388 0
M  V30 25510 N 2396 1.10909 1.11969 0
M  V30 25511 C 2396.93 0.784511 2.19927 0
M  V30 25512 C 2397.91 -0.244697 1.68331 0
M  V30 25513 O 2399.1 -0.109384 1.93892 0
M  V30 25514 C 2396.23 0.220888 3.46597 0
M  V30 25515 C 2395.18 1.18134 4.11374 0
M  V30 25516 C 2394.51 0.478688 5.32553 0
M  V30 25517 C 2395.81 2.52987 4.56941 0
M  V30 25518 H 2397.5 1.68719 2.47334 0
M  V30 25519 H 2395.05 0.812663 1.18877 0
M  V30 25520 H 2397 -0.0183538 4.21396 0
M  V30 25521 H 2395.72 -0.717057 3.18631 0
M  V30 25522 H 2394.38 1.40612 3.38561 0
M  V30 25523 H 2394.03 -0.463888 5.00856 0
M  V30 25524 H 2393.73 1.11922 5.76842 0
M  V30 25525 H 2395.25 0.248107 6.10096 0
M  V30 25526 H 2396.67 2.3463 5.23089 0
M  V30 25527 H 2395.07 3.12971 5.12025 0
M  V30 25528 H 2396.14 3.1262 3.70671 0
M  V30 25529 N 2397.48 -1.29474 0.898573 0
M  V30 25530 C 2398.72 -1.96262 0.534099 0
M  V30 25531 C 2399.08 -1.69552 -0.909385 0
M  V30 25532 O 2398.37 -0.997377 -1.63594 0
M  V30 25533 C 2398.57 -3.49194 0.761459 0
M  V30 25534 C 2398.4 -3.90771 2.22549 0
M  V30 25535 C 2397.17 -4.15696 2.87271 0
M  V30 25536 C 2399.36 -4.02576 3.20058 0
M  V30 25537 N 2397.35 -4.43833 4.24129 0
M  V30 25538 C 2398.72 -4.34751 4.42031 0
M  V30 25539 C 2400.77 -3.85047 3.15663 0
M  V30 25540 C 2399.47 -4.51225 5.60168 0
M  V30 25541 C 2401.5 -4.0273 4.33085 0
M  V30 25542 C 2400.86 -4.35263 5.53828 0
M  V30 25543 H 2396.96 -0.742621 0.245027 0
M  V30 25544 H 2399.55 -1.56435 1.15915 0
M  V30 25545 H 2397.72 -3.88046 0.1658 0
M  V30 25546 H 2399.45 -4.03073 0.362533 0
M  V30 25547 H 2396.2 -4.09413 2.38071 0
M  V30 25548 H 2396.63 -4.62012 4.94848 0
M  V30 25549 H 2401.27 -3.58958 2.23402 0
M  V30 25550 H 2398.99 -4.7615 6.52922 0
M  V30 25551 H 2402.57 -3.9062 4.31169 0
M  V30 25552 H 2401.45 -4.48661 6.43174 0
M  V30 25553 N 2398.96 -0.660936 -1.43071 0
M  V30 25554 C 2399.9 0.0259478 -2.30785 0
M  V30 25555 C 2400.87 0.806862 -1.45186 0
M  V30 25556 O 2402.06 0.781912 -1.74042 0
M  V30 25557 C 2399.2 0.981009 -3.30863 0
M  V30 25558 C 2398.31 0.195382 -4.31558 0
M  V30 25559 C 2397.45 1.14494 -5.18714 0
M  V30 25560 C 2396.49 0.350192 -6.11097 0
M  V30 25561 N 2395.62 1.25174 -6.90852 0
M  V30 25562 H 2400.46 -0.727897 -2.88973 0
M  V30 25563 H 2398 -0.370707 -1.42352 0
M  V30 25564 H 2399.96 1.54842 -3.87401 0
M  V30 25565 H 2398.59 1.70164 -2.74307 0
M  V30 25566 H 2397.64 -0.48844 -3.77251 0
M  V30 25567 H 2398.95 -0.422263 -4.97009 0
M  V30 25568 H 2398.11 1.78273 -5.79917 0
M  V30 25569 H 2396.84 1.79648 -4.53407 0
M  V30 25570 H 2395.85 -0.300905 -5.48976 0
M  V30 25571 H 2397.07 -0.29706 -6.7845 0
M  V30 25572 H 2395.02 1.88994 -6.28186 0
M  V30 25573 H 2394.94 0.688839 -7.52855 0
M  V30 25574 H 2396.21 1.87744 -7.56553 0
M  V30 25575 N 2400.43 1.52351 -0.403352 0
M  V30 25576 C 2401.36 2.29761 0.416165 0
M  V30 25577 C 2402.35 1.3373 1.0512 0
M  V30 25578 O 2403.53 1.62634 1.06131 0
M  V30 25579 C 2400.66 3.11478 1.53619 0
M  V30 25580 C 2399.61 4.15509 1.02645 0
M  V30 25581 C 2398.94 4.85535 2.23963 0
M  V30 25582 C 2400.24 5.22232 0.0845382 0
M  V30 25583 H 2401.93 2.98517 -0.229754 0
M  V30 25584 H 2399.48 1.43564 -0.111938 0
M  V30 25585 H 2401.43 3.64397 2.11644 0
M  V30 25586 H 2400.16 2.40481 2.2099 0
M  V30 25587 H 2398.82 3.63592 0.468646 0
M  V30 25588 H 2398.46 4.11073 2.89876 0
M  V30 25589 H 2398.16 5.55859 1.90511 0
M  V30 25590 H 2399.69 5.41264 2.82605 0
M  V30 25591 H 2401.1 5.70425 0.573409 0
M  V30 25592 H 2399.5 5.99884 -0.160889 0
M  V30 25593 H 2400.57 4.77168 -0.862454 0
M  V30 25594 N 2401.91 0.133594 1.57033 0
M  V30 25595 C 2403.33 -0.222916 1.58036 0
M  V30 25596 C 2403.53 -1.65658 1.14716 0
M  V30 25597 O 2402.58 -2.38074 0.84126 0
M  V30 25598 C 2403.9 0.0236644 3.00691 0
M  V30 25599 C 2405.45 -0.0410961 3.12973 0
M  V30 25600 C 2405.92 0.177979 4.57654 0
M  V30 25601 N 2407.41 0.124446 4.63033 0
M  V30 25602 C 2408.15 0.268653 5.7277 0
M  V30 25603 N 2407.64 0.469842 6.91205 0
M  V30 25604 N 2409.44 0.207199 5.61718 0
M  V30 25605 H 2401.59 1.06985 1.83489 0
M  V30 25606 H 2403.85 0.42245 0.848669 0
M  V30 25607 H 2403.56 1.01536 3.36724 0
M  V30 25608 H 2403.43 -0.701743 3.70615 0
M  V30 25609 H 2405.82 -1.02333 2.76789 0
M  V30 25610 H 2405.9 0.716426 2.45563 0
M  V30 25611 H 2405.54 1.15725 4.9454 0
M  V30 25612 H 2405.47 -0.599705 5.23174 0
M  V30 25613 H 2407.96 -0.0269446 3.7789 0
M  V30 25614 H 2408.28 0.570347 7.70692 0
M  V30 25615 H 2406.62 0.505997 6.93156 0
M  V30 25616 H 2409.81 0.0508808 4.68072 0
M  V30 25617 H 2409.98 0.323023 6.47194 0
M  V30 25618 N 2403.39 -1.56975 -0.140195 0
M  V30 25619 C 2404.64 -1.83992 -0.852917 0
M  V30 25620 C 2404.97 -0.716218 -1.8051 0
M  V30 25621 O 2404.24 0.279647 -1.92479 0
M  V30 25622 C 2404.53 -3.2153 -1.62144 0
M  V30 25623 C 2404.38 -4.44472 -0.690285 0
M  V30 25624 C 2405.7 -3.5637 -2.58241 0
M  V30 25625 H 2402.82 -0.669269 -0.308622 0
M  V30 25626 H 2405.46 -1.89634 -0.117865 0
M  V30 25627 H 2403.61 -3.16851 -2.24806 0
M  V30 25628 H 2405.28 -4.6124 -0.0741453 0
M  V30 25629 H 2403.53 -4.338 -0.000320181 0
M  V30 25630 H 2404.2 -5.37328 -1.26421 0
M  V30 25631 H 2406.67 -3.61703 -2.05694 0
M  V30 25632 H 2405.55 -4.53623 -3.09059 0
M  V30 25633 H 2405.81 -2.8268 -3.39918 0
M  V30 25634 N 2404.87 0.409753 -1.5218 0
M  V30 25635 C 2405.8 1.50606 -1.78438 0
M  V30 25636 C 2406.78 1.5779 -0.635323 0
M  V30 25637 O 2407.96 1.73074 -0.880853 0
M  V30 25638 C 2405.09 2.88435 -1.93449 0
M  V30 25639 C 2404.05 2.96102 -3.09043 0
M  V30 25640 C 2403.37 4.36179 -3.09276 0
M  V30 25641 C 2404.67 2.67645 -4.48513 0
M  V30 25642 H 2406.37 1.28884 -2.70239 0
M  V30 25643 H 2403.91 0.618582 -1.30037 0
M  V30 25644 H 2405.87 3.65116 -2.10401 0
M  V30 25645 H 2404.59 3.1145 -0.983184 0
M  V30 25646 H 2403.25 2.21866 -2.9184 0
M  V30 25647 H 2402.9 4.56202 -2.11869 0
M  V30 25648 H 2402.6 4.42234 -3.86915 0
M  V30 25649 H 2404.12 5.14795 -3.28357 0
M  V30 25650 H 2405.54 3.34048 -4.65924 0
M  V30 25651 H 2403.93 2.85076 -5.28064 0
M  V30 25652 H 2405 1.63087 -4.56652 0
M  V30 25653 N 2406.35 1.42792 0.666944 0
M  V30 25654 C 2407.28 1.42839 1.79248 0
M  V30 25655 C 2408.29 0.326361 1.59495 0
M  V30 25656 O 2409.48 0.589946 1.68469 0
M  V30 25657 C 2406.58 1.21234 3.16473 0
M  V30 25658 C 2405.75 2.44019 3.63006 0
M  V30 25659 C 2404.81 2.17843 4.7899 0
M  V30 25660 O 2403.84 2.911 4.89132 0
M  V30 25661 N 2405.04 1.18645 5.68246 0
M  V30 25662 H 2407.81 2.39857 1.79691 0
M  V30 25663 H 2405.37 1.37773 0.850314 0
M  V30 25664 H 2407.36 1.01627 3.91732 0
M  V30 25665 H 2405.93 0.327115 3.10884 0
M  V30 25666 H 2405.15 2.79142 2.78341 0
M  V30 25667 H 2406.44 3.25764 3.90839 0
M  V30 25668 H 2405.83 0.580714 5.62711 0
M  V30 25669 H 2404.39 1.05024 6.43283 0
M  V30 25670 N 2407.82 -0.904008 1.29095 0
M  V30 25671 C 2408.79 -1.98917 1.13863 0
M  V30 25672 C 2409.79 -1.60623 0.0753739 0
M  V30 25673 O 2410.98 -1.71199 0.321961 0
M  V30 25674 C 2408.11 -3.32766 0.740257 0
M  V30 25675 H 2409.3 -2.13858 2.1025 0
M  V30 25676 H 2406.86 -1.08795 1.1222 0
M  V30 25677 H 2407.59 -3.23526 -0.223941 0
M  V30 25678 H 2407.38 -3.61923 1.50844 0
M  V30 25679 H 2408.87 -4.12405 0.656619 0
M  V30 25680 N 2409.3 -1.11501 -1.11379 0
M  V30 25681 C 2410.21 -0.786667 -2.21017 0
M  V30 25682 C 2411.23 0.220477 -1.72598 0
M  V30 25683 O 2412.4 0.0564897 -2.01321 0
M  V30 25684 C 2409.47 -0.235394 -3.459 0
M  V30 25685 C 2408.53 -1.30122 -4.09105 0
M  V30 25686 C 2407.76 -0.776161 -5.28026 0
M  V30 25687 O 2407.99 0.393561 -5.69041 0
M  V30 25688 O 2406.92 -1.54125 -5.81833 0
M  V30 25689 H 2410.75 -1.70213 -2.51518 0
M  V30 25690 H 2408.33 -0.890949 -1.19927 0
M  V30 25691 H 2410.21 0.067641 -4.21346 0
M  V30 25692 H 2408.89 0.652773 -3.1705 0
M  V30 25693 H 2407.8 -1.65728 -3.35388 0
M  V30 25694 H 2409.13 -2.1628 -4.42135 0
M  V30 25695 N 2410.78 1.28995 -0.905426 0
M  V30 25696 C 2412.03 1.95614 -0.535073 0
M  V30 25697 C 2412.36 1.71166 0.917374 0
M  V30 25698 O 2411.64 1.02788 1.65121 0
M  V30 25699 C 2411.92 3.50286 -0.83498 0
M  V30 25700 C 2411.77 3.84168 -2.33955 0
M  V30 25701 C 2413.09 4.38895 -0.325395 0
M  V30 25702 H 2410.21 0.710495 -0.195874 0
M  V30 25703 H 2412.85 1.52511 -1.13315 0
M  V30 25704 H 2411 3.8713 -0.325972 0
M  V30 25705 H 2412.67 3.57238 -2.91854 0
M  V30 25706 H 2410.92 3.31508 -2.79795 0
M  V30 25707 H 2411.59 4.92145 -2.49995 0
M  V30 25708 H 2414.06 4.09076 -0.761328 0
M  V30 25709 H 2412.94 5.45991 -0.564391 0
M  V30 25710 H 2413.2 4.35271 0.774067 0
M  V30 25711 N 2412.26 0.668514 1.42719 0
M  V30 25712 C 2413.21 -0.0137083 2.30796 0
M  V30 25713 C 2414.18 -0.799151 1.45612 0
M  V30 25714 O 2415.36 -0.772671 1.74455 0
M  V30 25715 C 2412.5 -0.963448 3.31378 0
M  V30 25716 C 2411.61 -0.172493 4.31655 0
M  V30 25717 C 2410.75 -1.11741 5.19314 0
M  V30 25718 C 2409.79 -0.317779 6.11275 0
M  V30 25719 N 2408.93 -1.21508 6.91506 0
M  V30 25720 H 2413.77 0.743212 2.88583 0
M  V30 25721 H 2411.3 0.378251 1.42154 0
M  V30 25722 H 2413.26 -1.52785 3.88217 0
M  V30 25723 H 2411.89 -1.68707 2.75205 0
M  V30 25724 H 2410.94 0.50844 3.76987 0
M  V30 25725 H 2412.25 0.448615 4.96779 0
M  V30 25726 H 2411.41 -1.75195 5.80854 0
M  V30 25727 H 2410.15 -1.77241 4.54353 0
M  V30 25728 H 2409.15 0.330014 5.48809 0
M  V30 25729 H 2410.38 0.333036 6.78283 0
M  V30 25730 H 2408.32 -1.8566 6.29179 0
M  V30 25731 H 2408.24 -0.648903 7.5321 0
M  V30 25732 H 2409.51 -1.83729 7.57538 0
M  V30 25733 N 2413.74 -1.52135 0.411426 0
M  V30 25734 C 2414.99 -2.01024 -0.164974 0
M  V30 25735 C 2415.3 -1.30135 -1.46028 0
M  V30 25736 O 2416.51 -1.69853 -2.11807 0
M  V30 25737 C 2414.96 -3.58247 -0.344555 0
M  V30 25738 C 2414.57 -4.38053 0.938793 0
M  V30 25739 C 2416.31 -4.15361 -0.876122 0
M  V30 25740 C 2414.22 -5.86924 0.726275 0
M  V30 25741 H 2413.15 -0.751156 -0.0654275 0
M  V30 25742 H 2415.8 -1.7546 0.537223 0
M  V30 25743 H 2414.18 -3.8015 -1.10914 0
M  V30 25744 H 2415.36 -4.27909 1.7097 0
M  V30 25745 H 2413.67 -3.92268 1.39695 0
M  V30 25746 H 2416.27 -5.24265 -1.05119 0
M  V30 25747 H 2416.61 -3.72863 -1.85145 0
M  V30 25748 H 2417.15 -3.97434 -0.170537 0
M  V30 25749 H 2413.88 -6.33785 1.67323 0
M  V30 25750 H 2413.4 -5.998 -0.0052974 0
M  V30 25751 H 2415.08 -6.45945 0.369345 0
M  V30 25752 N 2415.22 -0.14192 -1.5696 0
M  V30 25753 C 2416.16 0.816836 -2.17786 0
M  V30 25754 C 2417.16 1.25897 -1.13342 0
M  V30 25755 O 2418.36 1.22804 -1.31602 0
M  V30 25756 H 2414.74 0.281603 -0.697283 0
M  V30 25757 H 2416.71 0.279569 -2.97087 0
M  V30 25758 C 2415.46 2.04797 -2.80987 0
M  V30 25759 H 2414.78 1.71674 -3.61065 0
M  V30 25760 H 2416.22 2.69835 -3.27055 0
M  V30 25761 C 2414.68 2.85267 -1.79233 0
M  V30 25762 O 2415.21 3.81438 -1.25968 0
M  V30 25763 N 2413.42 2.49702 -1.48652 0
M  V30 25764 H 2412.96 1.7156 -1.92158 0
M  V30 25765 H 2412.92 3.03835 -0.808168 0
M  V30 25766 N 2416.69 1.57047 0.131868 0
M  V30 25767 C 2417.94 1.83358 0.840408 0
M  V30 25768 C 2418.26 0.725567 1.81645 0
M  V30 25769 O 2419.46 0.874704 2.57024 0
M  V30 25770 C 2417.92 3.2504 1.54522 0
M  V30 25771 C 2417.53 4.43816 0.610823 0
M  V30 25772 C 2419.27 3.6061 2.23965 0
M  V30 25773 C 2417.18 5.76523 1.31813 0
M  V30 25774 H 2416.11 0.683853 0.317587 0
M  V30 25775 H 2418.76 1.83264 0.0931239 0
M  V30 25776 H 2417.14 3.19565 2.33867 0
M  V30 25777 H 2418.31 4.60561 -0.148488 0
M  V30 25778 H 2416.63 4.16393 0.0240284 0
M  V30 25779 H 2419.23 4.57023 2.7755 0
M  V30 25780 H 2419.57 2.87409 3.01168 0
M  V30 25781 H 2420.1 3.67812 1.51522 0
M  V30 25782 H 2416.84 6.52861 0.587656 0
M  V30 25783 H 2416.36 5.63688 2.04977 0
M  V30 25784 H 2418.04 6.19841 1.85489 0
M  V30 25785 N 2418.17 -0.401677 1.52395 0
M  V30 25786 C 2419.59 -0.740839 1.41364 0
M  V30 25787 C 2419.79 -1.94567 0.524017 0
M  V30 25788 O 2418.84 -2.52499 -0.00736765 0
M  V30 25789 C 2420.16 -0.987797 2.84012 0
M  V30 25790 C 2421.7 -1.09005 2.93406 0
M  V30 25791 C 2422.18 -1.36972 4.37038 0
M  V30 25792 N 2423.67 -1.43821 4.40306 0
M  V30 25793 C 2424.41 -1.67102 5.48511 0
M  V30 25794 N 2423.9 -1.87937 6.66822 0
M  V30 25795 N 2425.69 -1.69178 5.36037 0
M  V30 25796 H 2417.85 0.391299 2.08764 0
M  V30 25797 H 2420.11 0.112815 0.941263 0
M  V30 25798 H 2419.81 -0.174773 3.51265 0
M  V30 25799 H 2419.69 -1.90594 3.25505 0
M  V30 25800 H 2422.08 -1.89366 2.26328 0
M  V30 25801 H 2422.16 -0.150105 2.55359 0
M  V30 25802 H 2421.8 -0.571264 5.04677 0
M  V30 25803 H 2421.73 -2.32231 4.72627 0
M  V30 25804 H 2424.22 -1.2948 3.55026 0
M  V30 25805 H 2424.53 -2.05172 7.45067 0
M  V30 25806 H 2422.88 -1.85187 6.69874 0
M  V30 25807 H 2426.07 -1.52443 4.42582 0
M  V30 25808 H 2426.24 -1.86982 6.20437 0
M  V30 25809 N 2419.65 -1.43144 -0.659362 0
M  V30 25810 C 2420.58 -1.43787 -1.78488 0
M  V30 25811 C 2421.59 -0.334815 -1.5932 0
M  V30 25812 O 2422.78 -0.598872 -1.68154 0
M  V30 25813 C 2419.88 -1.22911 -3.15826 0
M  V30 25814 C 2419.06 -2.45941 -3.61707 0
M  V30 25815 C 2418.12 -2.2038 -4.77828 0
M  V30 25816 O 2417.14 -2.9369 -4.87581 0
M  V30 25817 N 2418.34 -1.21657 -5.67609 0
M  V30 25818 H 2421.11 -2.40807 -1.78416 0
M  V30 25819 H 2418.67 -1.38222 -0.842996 0
M  V30 25820 H 2420.66 -1.03704 -3.91188 0
M  V30 25821 H 2419.23 -0.343597 -3.10706 0
M  V30 25822 H 2418.45 -2.80614 -2.76856 0
M  V30 25823 H 2419.74 -3.27832 -3.89106 0
M  V30 25824 H 2419.14 -0.610548 -5.62396 0
M  V30 25825 H 2417.69 -1.08434 -6.42717 0
M  V30 25826 N 2421.13 0.897149 -1.29572 0
M  V30 25827 C 2422.36 1.68127 -1.20585 0
M  V30 25828 C 2422.77 1.87355 0.233148 0
M  V30 25829 O 2422.13 1.41238 1.15577 0
M  V30 25830 C 2422.18 3.06437 -1.91777 0
M  V30 25831 O 2421.9 2.88086 -3.30058 0
M  V30 25832 C 2423.4 4.00851 -1.89298 0
M  V30 25833 H 2420.62 0.525029 -0.417835 0
M  V30 25834 H 2423.16 1.12174 -1.70989 0
M  V30 25835 H 2421.32 3.59159 -1.45202 0
M  V30 25836 H 2421.73 3.75742 -3.65948 0
M  V30 25837 H 2423.21 4.95306 -2.43671 0
M  V30 25838 H 2423.68 4.30515 -0.869089 0
M  V30 25839 H 2424.29 3.54061 -2.35628 0
M  V30 25840 N 2422.61 1.1209 1.10786 0
M  V30 25841 C 2423.83 0.896684 1.8646 0
M  V30 25842 C 2424.25 -0.55388 1.80493 0
M  V30 25843 O 2423.61 -1.38276 1.19105 0
M  V30 25844 C 2423.66 1.35849 3.35004 0
M  V30 25845 O 2423.38 2.75219 3.40861 0
M  V30 25846 C 2424.88 1.17067 4.27563 0
M  V30 25847 H 2422.1 0.320664 0.58942 0
M  V30 25848 H 2424.64 1.48995 1.40074 0
M  V30 25849 H 2422.8 0.808525 3.78869 0
M  V30 25850 H 2423.21 2.95397 4.33406 0
M  V30 25851 H 2424.69 1.54272 5.30004 0
M  V30 25852 H 2425.16 0.110891 4.3906 0
M  V30 25853 H 2425.77 1.70796 3.89498 0
M  V30 25854 N 2424.08 -1.28513 0.912254 0
M  V30 25855 C 2425.31 -1.99165 0.560451 0
M  V30 25856 C 2425.73 -1.68183 -0.857897 0
M  V30 25857 O 2425.08 -0.933761 -1.56803 0
M  V30 25858 C 2425.13 -3.53459 0.758204 0
M  V30 25859 O 2424.86 -3.83349 2.12074 0
M  V30 25860 C 2426.36 -4.41372 0.413032 0
M  V30 25861 H 2423.58 -0.636022 0.213816 0
M  V30 25862 H 2426.12 -1.63746 1.22505 0
M  V30 25863 H 2424.28 -3.87145 0.140624 0
M  V30 25864 H 2424.69 -4.77989 2.15931 0
M  V30 25865 H 2426.16 -5.48706 0.602176 0
M  V30 25866 H 2426.64 -4.34354 -0.650654 0
M  V30 25867 H 2427.25 -4.1318 1.00809 0
M  V30 25868 N 2425.56 -0.676073 -1.42362 0
M  V30 25869 C 2426.81 -0.198473 -2.01123 0
M  V30 25870 C 2427.13 1.19963 -1.53733 0
M  V30 25871 O 2426.4 1.80576 -0.759549 0
M  V30 25872 H 2424.98 -0.0703852 -0.743677 0
M  V30 25873 H 2427.64 -0.872867 -1.74261 0
M  V30 25874 H 2426.74 -0.200741 -3.11454 0
M  V30 25875 N 2427.04 1.51915 -0.419488 0
M  V30 25876 C 2428.27 2.06823 0.154535 0
M  V30 25877 C 2428.69 1.28658 1.37218 0
M  V30 25878 O 2428.05 0.319614 1.78461 0
M  V30 25879 C 2428.1 3.57483 0.473109 0
M  V30 25880 O 2427.2 3.81655 1.56248 0
M  V30 25881 H 2426.54 0.663929 0.00968073 0
M  V30 25882 H 2429.07 1.95737 -0.595676 0
M  V30 25883 H 2429.08 4.01439 0.728754 0
M  V30 25884 H 2427.76 4.13805 -0.416946 0
M  V30 25885 H 2426.33 3.49573 1.29819 0
M  V30 25886 N 2428.52 0.150242 1.56882 0
M  V30 25887 C 2429.48 -0.774119 2.15731 0
M  V30 25888 C 2430.48 -1.17296 1.09992 0
M  V30 25889 O 2431.67 -1.09336 1.35615 0
M  V30 25890 C 2428.8 -2.05091 2.72306 0
M  V30 25891 H 2430 -0.262148 2.98752 0
M  V30 25892 H 2427.55 -0.0992206 1.55985 0
M  V30 25893 H 2428.28 -2.60647 1.9296 0
M  V30 25894 H 2428.07 -1.7741 3.49668 0
M  V30 25895 H 2429.56 -2.71103 3.17636 0
M  V30 25896 N 2430 -1.57115 -0.123538 0
M  V30 25897 C 2431.24 -1.84887 -0.833354 0
M  V30 25898 C 2431.58 -0.735324 -1.7974 0
M  V30 25899 O 2430.85 0.259216 -1.92765 0
M  V30 25900 C 2431.13 -3.23231 -1.58725 0
M  V30 25901 C 2430.99 -4.45179 -0.643104 0
M  V30 25902 C 2432.31 -3.59089 -2.54447 0
M  V30 25903 H 2429.42 -0.672505 -0.301507 0
M  V30 25904 H 2432.07 -1.89748 -0.0977447 0
M  V30 25905 H 2430.22 -3.19218 -2.21433 0
M  V30 25906 H 2431.89 -4.61293 -0.0252204 0
M  V30 25907 H 2430.13 -4.33776 0.0456901 0
M  V30 25908 H 2430.8 -5.38639 -1.20714 0
M  V30 25909 H 2433.28 -3.63864 -2.01846 0
M  V30 25910 H 2432.15 -4.56875 -3.0423 0
M  V30 25911 H 2432.42 -2.8627 -3.36901 0
M  V30 25912 N 2431.47 0.393589 -1.52606 0
M  V30 25913 C 2432.89 0.971733 -1.59418 0
M  V30 25914 C 2433.24 1.91105 -0.444207 0
M  V30 25915 O 2432.36 2.12017 0.433344 0
M  V30 25916 C 2432.96 1.76916 -2.8894 0
M  V30 25917 C 2431.52 2.29708 -2.98179 0
M  V30 25918 C 2430.66 1.1013 -2.54493 0
M  V30 25919 H 2433.61 0.173289 -1.57751 0
M  V30 25920 H 2433.63 2.62799 -2.75167 0
M  V30 25921 H 2433.15 1.08525 -3.72618 0
M  V30 25922 H 2431.25 3.01425 -2.19029 0
M  V30 25923 H 2431.36 2.59509 -4.0273 0
M  V30 25924 H 2429.72 1.45995 -2.08704 0
M  V30 25925 H 2430.51 0.432814 -3.40561 0
M  V30 25926 N 2432.95 1.43492 0.651762 0
M  V30 25927 C 2434.2 1.44472 1.40751 0
M  V30 25928 C 2434.51 0.0732189 1.95463 0
M  V30 25929 O 2435.72 -0.0395244 2.71471 0
M  V30 25930 C 2434.18 2.54244 2.54731 0
M  V30 25931 C 2433.78 3.97507 2.06621 0
M  V30 25932 C 2435.53 2.6442 3.32088 0
M  V30 25933 C 2433.44 4.98743 3.1782 0
M  V30 25934 H 2432.37 0.53743 0.528853 0
M  V30 25935 H 2435.02 1.69486 0.703335 0
M  V30 25936 H 2433.4 2.22434 3.27626 0
M  V30 25937 H 2434.57 4.38785 1.40727 0
M  V30 25938 H 2432.89 3.91389 1.42139 0
M  V30 25939 H 2435.48 3.3723 4.14946 0
M  V30 25940 H 2435.83 1.69538 3.80214 0
M  V30 25941 H 2436.36 2.95539 2.66274 0
M  V30 25942 H 2433.1 5.95182 2.74661 0
M  V30 25943 H 2432.62 4.62076 3.82421 0
M  V30 25944 H 2434.3 5.21512 3.82928 0
M  V30 25945 N 2434.43 -0.890264 1.30046 0
M  V30 25946 C 2435.85 -1.17266 1.08263 0
M  V30 25947 C 2436.05 -2.00864 -0.160028 0
M  V30 25948 O 2435.1 -2.37579 -0.855139 0
M  V30 25949 C 2436.42 -1.88446 2.34326 0
M  V30 25950 C 2437.96 -2.01232 2.39738 0
M  V30 25951 C 2438.44 -2.75824 3.6563 0
M  V30 25952 N 2439.93 -2.83373 3.66407 0
M  V30 25953 C 2440.66 -3.41649 4.60504 0
M  V30 25954 N 2440.16 -4.01016 5.6494 0
M  V30 25955 N 2441.95 -3.39413 4.48057 0
M  V30 25956 H 2434.1 -0.332726 2.09778 0
M  V30 25957 H 2436.37 -0.209932 0.924463 0
M  V30 25958 H 2436.07 -1.3446 3.24982 0
M  V30 25959 H 2435.95 -2.88863 2.42565 0
M  V30 25960 H 2438.33 -2.54391 1.49564 0
M  V30 25961 H 2438.42 -0.99919 2.35478 0
M  V30 25962 H 2438.06 -2.23339 4.5616 0
M  V30 25963 H 2437.99 -3.77502 3.67151 0
M  V30 25964 H 2440.48 -2.41217 2.909 0
M  V30 25965 H 2440.79 -4.43534 6.32849 0
M  V30 25966 H 2439.14 -3.99451 5.68739 0
M  V30 25967 H 2442.33 -2.92258 3.65654 0
M  V30 25968 H 2442.5 -3.84535 5.21572 0
M  V30 25969 N 2435.91 -1.12676 -1.1019 0
M  V30 25970 C 2436.84 -0.8194 -2.18651 0
M  V30 25971 C 2437.82 0.217886 -1.68699 0
M  V30 25972 O 2439 0.078524 -1.94041 0
M  V30 25973 C 2436.13 -0.276001 -3.46202 0
M  V30 25974 C 2435.09 -1.24664 -4.09442 0
M  V30 25975 C 2434.41 -0.563352 -5.31724 0
M  V30 25976 C 2435.71 -2.60225 -4.52858 0
M  V30 25977 H 2437.41 -1.72632 -2.44619 0
M  V30 25978 H 2434.95 -0.831472 -1.17569 0
M  V30 25979 H 2436.91 -0.048689 -4.21372 0
M  V30 25980 H 2435.63 0.666275 -3.19732 0
M  V30 25981 H 2434.29 -1.4598 -3.36282 0
M  V30 25982 H 2433.94 0.384147 -5.01531 0
M  V30 25983 H 2433.64 -1.21085 -5.74989 0
M  V30 25984 H 2435.16 -0.345137 -6.09624 0
M  V30 25985 H 2436.58 -2.42922 -5.1929 0
M  V30 25986 H 2434.97 -3.21077 -5.06981 0
M  V30 25987 H 2436.04 -3.18478 -3.6565 0
M  V30 25988 N 2437.39 1.28028 -0.919057 0
M  V30 25989 C 2438.63 1.94747 -0.554969 0
M  V30 25990 C 2438.96 1.72305 0.90228 0
M  V30 25991 O 2438.22 1.04021 1.65766 0
M  V30 25992 C 2438.52 3.47939 -0.816917 0
M  V30 25993 C 2438.18 3.90488 -2.25455 0
M  V30 25994 C 2436.84 4.01816 -2.64759 0
M  V30 25995 C 2439.2 4.12188 -3.18984 0
M  V30 25996 C 2436.52 4.32225 -3.96734 0
M  V30 25997 C 2438.88 4.44078 -4.5053 0
M  V30 25998 C 2437.54 4.53618 -4.89681 0
M  V30 25999 H 2436.81 0.712629 -0.203077 0
M  V30 26000 H 2439.46 1.52263 -1.16139 0
M  V30 26001 H 2437.76 3.91592 -0.127746 0
M  V30 26002 H 2439.46 3.97688 -0.514308 0
M  V30 26003 H 2436.05 3.82202 -1.93958 0
M  V30 26004 H 2440.23 4.02884 -2.89824 0
M  V30 26005 H 2435.49 4.37818 -4.26762 0
M  V30 26006 H 2439.66 4.59816 -5.23013 0
M  V30 26007 H 2437.29 4.76935 -5.91977 0
M  V30 26008 N 2438.86 0.683613 1.42002 0
M  V30 26009 C 2440.11 0.206716 2.00638 0
M  V30 26010 C 2440.43 -1.19668 1.54722 0
M  V30 26011 O 2441.63 -1.77041 2.05836 0
M  V30 26012 C 2440.09 0.318695 3.58486 0
M  V30 26013 C 2439.7 1.7267 4.13387 0
M  V30 26014 C 2441.44 -0.0990395 4.24384 0
M  V30 26015 C 2439.35 1.79097 5.63629 0
M  V30 26016 H 2438.28 0.0735239 0.750407 0
M  V30 26017 H 2440.93 0.850077 1.62622 0
M  V30 26018 H 2439.31 -0.392712 3.94048 0
M  V30 26019 H 2440.48 2.4659 3.89269 0
M  V30 26020 H 2438.8 2.09305 3.59972 0
M  V30 26021 H 2441.4 -0.0712894 5.34652 0
M  V30 26022 H 2441.74 -1.13579 4.00507 0
M  V30 26023 H 2442.27 0.561668 3.93815 0
M  V30 26024 H 2439.01 2.80784 5.92318 0
M  V30 26025 H 2438.53 1.09545 5.89712 0
M  V30 26026 H 2440.21 1.54841 6.28198 0
M  V30 26027 N 2440.34 -1.5169 0.427538 0
M  V30 26028 C 2441.57 -2.06418 -0.141155 0
M  V30 26029 C 2441.99 -1.29591 -1.37301 0
M  V30 26030 O 2441.34 -0.352764 -1.79058 0
M  V30 26031 C 2441.39 -3.5839 -0.473203 0
M  V30 26032 O 2441.12 -4.32313 0.709749 0
M  V30 26033 C 2442.62 -4.29598 -1.09363 0
M  V30 26034 H 2439.84 -0.670888 -0.012263 0
M  V30 26035 H 2442.38 -1.95383 0.603798 0
M  V30 26036 H 2440.54 -3.69371 -1.16805 0
M  V30 26037 H 2440.95 -5.22749 0.428162 0
M  V30 26038 H 2442.42 -5.37049 -1.27604 0
M  V30 26039 H 2442.9 -3.87256 -2.07193 0
M  V30 26040 H 2443.51 -4.23034 -0.438455 0
M  V30 26041 N 2441.82 -0.15856 -1.568 0
M  V30 26042 C 2442.77 0.79369 -2.1864 0
M  V30 26043 C 2443.76 1.24687 -1.14671 0
M  V30 26044 O 2444.97 1.21401 -1.32898 0
M  V30 26045 H 2441.34 0.274191 -0.700231 0
M  V30 26046 H 2443.32 0.248043 -2.97367 0
M  V30 26047 C 2442.06 2.01805 -2.83143 0
M  V30 26048 H 2441.39 1.67834 -3.62866 0
M  V30 26049 H 2442.83 2.66351 -3.29899 0
M  V30 26050 C 2441.29 2.8335 -1.82249 0
M  V30 26051 O 2441.82 3.8008 -1.30007 0
M  V30 26052 N 2440.02 2.48111 -1.51292 0
M  V30 26053 H 2439.57 1.69513 -1.93967 0
M  V30 26054 H 2439.53 3.02961 -0.840349 0
M  V30 26055 N 2443.3 1.57178 0.115204 0
M  V30 26056 C 2444.21 2.0392 1.1599 0
M  V30 26057 C 2445.23 0.960293 1.45101 0
M  V30 26058 O 2446.4 1.27207 1.56142 0
M  V30 26059 C 2443.47 2.43736 2.46563 0
M  V30 26060 C 2442.53 3.65727 2.24815 0
M  V30 26061 C 2441.76 4.03635 3.49163 0
M  V30 26062 O 2441.98 3.41843 4.56617 0
M  V30 26063 O 2440.92 4.96714 3.3994 0
M  V30 26064 H 2444.74 2.93165 0.792968 0
M  V30 26065 H 2442.33 1.45794 0.326274 0
M  V30 26066 H 2444.21 2.70063 3.23487 0
M  V30 26067 H 2442.89 1.57636 2.82723 0
M  V30 26068 H 2441.79 3.44545 1.45738 0
M  V30 26069 H 2443.13 4.52544 1.93558 0
M  V30 26070 N 2444.78 -0.38549 1.52813 0
M  V30 26071 C 2446 -1.1558 1.72209 0
M  V30 26072 C 2446.43 -1.82856 0.441066 0
M  V30 26073 O 2445.79 -1.70963 -0.603435 0
M  V30 26074 C 2445.83 -2.17687 2.8748 0
M  V30 26075 O 2444.94 -3.24349 2.54699 0
M  V30 26076 H 2444.28 -0.336309 0.572532 0
M  V30 26077 H 2446.81 -0.448709 1.99619 0
M  V30 26078 H 2446.82 -2.61624 3.13076 0
M  V30 26079 H 2445.49 -1.68108 3.80411 0
M  V30 26080 H 2444.07 -2.85524 2.39855 0
M  V30 26081 N 2446.26 -1.43835 -0.644143 0
M  V30 26082 C 2447.5 -1.45644 -1.40115 0
M  V30 26083 C 2447.82 -0.0852755 -1.94813 0
M  V30 26084 O 2447.09 0.880657 -1.74989 0
M  V30 26085 H 2445.67 -0.536253 -0.520041 0
M  V30 26086 H 2448.34 -1.79511 -0.759069 0
M  V30 26087 H 2447.43 -2.17431 -2.23898 0
M  V30 26088 N 2447.73 0.883355 -1.30517 0
M  V30 26089 C 2448.96 1.66597 -1.22184 0
M  V30 26090 C 2449.37 1.87946 0.217474 0
M  V30 26091 O 2448.71 1.42817 1.15538 0
M  V30 26092 C 2448.78 3.06332 -1.88152 0
M  V30 26093 C 2448.44 3.08148 -3.37482 0
M  V30 26094 C 2449.44 2.87086 -4.33448 0
M  V30 26095 C 2447.12 3.29694 -3.78955 0
M  V30 26096 C 2449.12 2.8753 -5.68863 0
M  V30 26097 C 2446.8 3.29767 -5.14487 0
M  V30 26098 C 2447.8 3.08709 -6.09252 0
M  V30 26099 O 2447.49 3.08601 -7.42307 0
M  V30 26100 H 2447.22 0.526572 -0.423907 0
M  V30 26101 H 2449.78 1.11185 -1.72705 0
M  V30 26102 H 2448.01 3.63414 -1.32163 0
M  V30 26103 H 2449.69 3.66753 -1.73917 0
M  V30 26104 H 2450.46 2.70236 -4.02738 0
M  V30 26105 H 2446.34 3.45119 -3.05637 0
M  V30 26106 H 2449.88 2.71012 -6.42805 0
M  V30 26107 H 2445.78 3.46153 -5.44838 0
M  V30 26108 H 2446.55 3.24756 -7.51316 0
M  V30 26109 N 2449.21 1.13259 1.09591 0
M  V30 26110 C 2450.44 0.915081 1.85229 0
M  V30 26111 C 2450.85 -0.539467 1.81346 0
M  V30 26112 O 2450.19 -1.38511 1.20666 0
M  V30 26113 C 2450.25 1.32296 3.34272 0
M  V30 26114 C 2449.92 2.79059 3.61905 0
M  V30 26115 C 2450.92 3.77222 3.5777 0
M  V30 26116 C 2448.6 3.16178 3.90304 0
M  V30 26117 C 2450.59 5.10517 3.81643 0
M  V30 26118 C 2448.28 4.49652 4.13832 0
M  V30 26119 C 2449.28 5.4663 4.09493 0
M  V30 26120 O 2448.97 6.77697 4.32414 0
M  V30 26121 H 2448.7 0.326378 0.591991 0
M  V30 26122 H 2451.25 1.50856 1.39397 0
M  V30 26123 H 2449.48 0.672734 3.80803 0
M  V30 26124 H 2451.17 1.07819 3.91318 0
M  V30 26125 H 2451.94 3.49891 3.35859 0
M  V30 26126 H 2447.82 2.41296 3.92807 0
M  V30 26127 H 2451.36 5.86201 3.78172 0
M  V30 26128 H 2447.26 4.76708 4.35224 0
M  V30 26129 H 2448.03 6.83774 4.49884 0
M  V30 26130 N 2450.69 -1.27539 0.925834 0
M  V30 26131 C 2451.62 -2.29302 0.440788 0
M  V30 26132 C 2452.6 -1.62649 -0.497942 0
M  V30 26133 O 2453.79 -1.89971 -0.403093 0
M  V30 26134 C 2450.92 -3.45923 -0.308987 0
M  V30 26135 C 2449.87 -4.24558 0.541735 0
M  V30 26136 C 2449.2 -5.33636 -0.337097 0
M  V30 26137 C 2450.5 -4.9011 1.80524 0
M  V30 26138 H 2452.19 -2.70124 1.29126 0
M  V30 26139 H 2449.74 -1.29857 0.622346 0
M  V30 26140 H 2451.69 -4.16211 -0.659242 0
M  V30 26141 H 2450.41 -3.04013 -1.19347 0
M  V30 26142 H 2449.07 -3.56013 0.874672 0
M  V30 26143 H 2448.72 -4.87969 -1.22048 0
M  V30 26144 H 2448.42 -5.87155 0.228601 0
M  V30 26145 H 2449.94 -6.06768 -0.682965 0
M  V30 26146 H 2451.36 -5.52696 1.52317 0
M  V30 26147 H 2449.75 -5.53679 2.3143 0
M  V30 26148 H 2450.82 -4.13917 2.52588 0
M  V30 26149 N 2452.17 -0.691135 -1.41637 0
M  V30 26150 C 2453.44 -0.148455 -1.95036 0
M  V30 26151 C 2453.82 1.34052 -1.63074 0
M  V30 26152 O 2453.17 2.08476 -0.935417 0
M  V30 26153 C 2453.38 -0.435012 -3.46278 0
M  V30 26154 C 2454.73 -0.36035 -4.23068 0
M  V30 26155 O 2455.75 -0.369675 -3.54277 0
M  V30 26156 O 2454.61 -0.31663 -5.45582 0
M  V30 26157 H 2451.71 -0.01238 -0.826907 0
M  V30 26158 H 2454.25 -0.76699 -1.51378 0
M  V30 26159 H 2453.03 -1.46583 -3.62807 0
M  V30 26160 H 2452.65 0.214718 -3.9702 0
M  V30 26161 N 2453.65 1.51461 -0.435577 0
M  V30 26162 C 2454.89 2.01261 0.132972 0
M  V30 26163 C 2455.21 1.32442 1.43939 0
M  V30 26164 O 2456.41 1.73201 2.09078 0
M  V30 26165 C 2454.87 3.5875 0.287518 0
M  V30 26166 C 2454.48 4.36504 -1.00836 0
M  V30 26167 C 2456.22 4.16702 0.809931 0
M  V30 26168 C 2454.13 5.85694 -0.819557 0
M  V30 26169 H 2453.06 0.752102 0.053469 0
M  V30 26170 H 2455.71 1.74583 -0.565069 0
M  V30 26171 H 2454.09 3.81867 1.04852 0
M  V30 26172 H 2455.27 4.25135 -1.77756 0
M  V30 26173 H 2453.58 3.89996 -1.45918 0
M  V30 26174 H 2456.18 5.25871 0.96765 0
M  V30 26175 H 2456.52 3.75762 1.7919 0
M  V30 26176 H 2457.05 3.97655 0.107287 0
M  V30 26177 H 2453.79 6.31043 -1.77385 0
M  V30 26178 H 2453.31 5.99732 -0.0901262 0
M  V30 26179 H 2454.99 6.45276 -0.472062 0
M  V30 26180 N 2455.12 0.166873 1.56714 0
M  V30 26181 C 2456.35 -0.488798 2.01558 0
M  V30 26182 C 2456.77 -1.56313 1.04633 0
M  V30 26183 O 2456.13 -1.81283 0.0251623 0
M  V30 26184 C 2456.18 -1.04812 3.45032 0
M  V30 26185 O 2455.28 -2.1623 3.51167 0
M  V30 26186 H 2454.63 -0.117515 0.653518 0
M  V30 26187 H 2457.16 0.269457 2.02818 0
M  V30 26188 H 2457.17 -1.37184 3.84245 0
M  V30 26189 H 2455.84 -0.261499 4.15077 0
M  V30 26190 H 2454.42 -1.84936 3.2381 0
M  V30 26191 N 2456.6 -1.57237 -0.106866 0
M  V30 26192 C 2457.53 -2.04256 -1.13145 0
M  V30 26193 C 2458.51 -0.929249 -1.42474 0
M  V30 26194 O 2459.7 -1.19976 -1.52707 0
M  V30 26195 C 2456.83 -2.4571 -2.45446 0
M  V30 26196 C 2455.78 -3.60597 -2.30552 0
M  V30 26197 C 2455.11 -3.87989 -3.67925 0
M  V30 26198 C 2456.41 -4.919 -1.75588 0
M  V30 26199 H 2458.1 -2.90103 -0.740323 0
M  V30 26200 H 2455.65 -1.39564 -0.354672 0
M  V30 26201 H 2457.6 -2.7721 -3.17384 0
M  V30 26202 H 2456.33 -1.56848 -2.86472 0
M  V30 26203 H 2454.98 -3.29325 -1.61061 0
M  V30 26204 H 2454.63 -2.96314 -4.06457 0
M  V30 26205 H 2454.33 -4.65328 -3.58808 0
M  V30 26206 H 2455.86 -4.21953 -4.41348 0
M  V30 26207 H 2457.27 -5.21858 -2.37355 0
M  V30 26208 H 2455.67 -5.73322 -1.77262 0
M  V30 26209 H 2456.74 -4.79609 -0.714367 0
M  V30 26210 N 2458.08 0.377381 -1.53015 0
M  V30 26211 C 2459.31 1.14051 -1.72267 0
M  V30 26212 C 2459.72 1.83867 -0.446042 0
M  V30 26213 O 2459.06 1.73965 0.590065 0
M  V30 26214 C 2459.12 2.22343 -2.82496 0
M  V30 26215 C 2458.79 1.72394 -4.23237 0
M  V30 26216 C 2459.78 1.19439 -5.05994 0
M  V30 26217 C 2457.47 1.78265 -4.69603 0
M  V30 26218 C 2459.46 0.730157 -6.33204 0
M  V30 26219 C 2457.15 1.31454 -5.96794 0
M  V30 26220 C 2458.15 0.789177 -6.78425 0
M  V30 26221 O 2457.84 0.327936 -8.03231 0
M  V30 26222 H 2457.57 0.347443 -0.579879 0
M  V30 26223 H 2460.12 0.445847 -2.00503 0
M  V30 26224 H 2458.35 2.95268 -2.49708 0
M  V30 26225 H 2460.04 2.83958 -2.90039 0
M  V30 26226 H 2460.81 1.14251 -4.71351 0
M  V30 26227 H 2456.69 2.18098 -4.06145 0
M  V30 26228 H 2460.23 0.31942 -6.96868 0
M  V30 26229 H 2456.13 1.36331 -6.30939 0
M  V30 26230 H 2456.9 0.44835 -8.17271 0
M  V30 26231 N 2459.56 1.44175 0.636506 0
M  V30 26232 C 2460.51 1.50627 1.74872 0
M  V30 26233 C 2461.48 0.354448 1.62274 0
M  V30 26234 O 2462.66 0.56394 1.82275 0
M  V30 26235 C 2459.8 1.45131 3.13099 0
M  V30 26236 C 2458.91 2.70646 3.36712 0
M  V30 26237 C 2458.05 2.57021 4.6488 0
M  V30 26238 C 2457.09 3.77725 4.81654 0
M  V30 26239 N 2456.22 3.62809 6.01094 0
M  V30 26240 H 2461.06 2.45655 1.68693 0
M  V30 26241 H 2458.6 1.21924 0.822983 0
M  V30 26242 H 2460.56 1.39936 3.93031 0
M  V30 26243 H 2459.19 0.536727 3.18307 0
M  V30 26244 H 2458.24 2.8605 2.50758 0
M  V30 26245 H 2459.55 3.60258 3.44987 0
M  V30 26246 H 2458.71 2.49629 5.52965 0
M  V30 26247 H 2457.45 1.64961 4.58955 0
M  V30 26248 H 2456.45 3.85508 3.92 0
M  V30 26249 H 2457.68 4.70815 4.89397 0
M  V30 26250 H 2455.62 2.73496 5.96268 0
M  V30 26251 H 2455.54 4.46034 6.10402 0
M  V30 26252 H 2456.81 3.59299 6.91755 0
M  V30 26253 N 2461.04 -0.876421 1.30983 0
M  V30 26254 C 2461.95 -2.01567 1.20033 0
M  V30 26255 C 2462.96 -1.73597 0.11841 0
M  V30 26256 O 2464.14 -1.98595 0.334984 0
M  V30 26257 C 2461.2 -3.34769 0.901696 0
M  V30 26258 C 2460.26 -3.76105 2.06986 0
M  V30 26259 C 2459.5 -5.02951 1.78538 0
M  V30 26260 O 2459.72 -5.65871 0.717396 0
M  V30 26261 O 2458.65 -5.409 2.64028 0
M  V30 26262 H 2462.48 -2.13735 2.15757 0
M  V30 26263 H 2460.07 -1.00373 1.1066 0
M  V30 26264 H 2461.95 -4.14659 0.750718 0
M  V30 26265 H 2460.62 -3.2369 -0.0255572 0
M  V30 26266 H 2459.53 -2.96883 2.27621 0
M  V30 26267 H 2460.86 -3.91801 2.97914 0
M  V30 26268 N 2462.51 -1.13839 -1.08989 0
M  V30 26269 C 2463.76 -0.904251 -1.81524 0
M  V30 26270 C 2464.09 0.568033 -1.85707 0
M  V30 26271 O 2463.37 1.42054 -1.32857 0
M  V30 26272 C 2463.65 -1.4984 -3.27444 0
M  V30 26273 C 2463.5 -3.04012 -3.31507 0
M  V30 26274 C 2464.82 -1.17033 -4.24254 0
M  V30 26275 H 2461.94 -0.329935 -0.659024 0
M  V30 26276 H 2464.58 -1.40739 -1.27642 0
M  V30 26277 H 2462.73 -1.07051 -3.7346 0
M  V30 26278 H 2464.41 -3.55589 -2.93861 0
M  V30 26279 H 2462.65 -3.38769 -2.70957 0
M  V30 26280 H 2463.32 -3.40687 -4.34323 0
M  V30 26281 H 2465.8 -1.54016 -3.86547 0
M  V30 26282 H 2464.67 -1.61246 -5.24682 0
M  V30 26283 H 2464.93 -0.0847051 -4.42019 0
M  V30 26284 N 2463.99 1.27046 -0.932584 0
M  V30 26285 C 2465.22 1.98248 -0.592066 0
M  V30 26286 C 2465.64 1.69527 0.831032 0
M  V30 26287 O 2464.99 0.958589 1.55298 0
M  V30 26288 C 2465.04 3.52208 -0.814341 0
M  V30 26289 O 2464.76 3.79926 -2.18146 0
M  V30 26290 C 2466.27 4.40659 -0.483198 0
M  V30 26291 H 2463.49 0.63254 -0.223907 0
M  V30 26292 H 2466.03 1.61777 -1.25094 0
M  V30 26293 H 2464.18 3.86872 -0.202198 0
M  V30 26294 H 2464.6 4.74494 -2.23508 0
M  V30 26295 H 2466.07 5.47678 -0.689394 0
M  V30 26296 H 2466.55 4.35334 0.58147 0
M  V30 26297 H 2467.16 4.11524 -1.07369 0
M  V30 26298 N 2465.47 0.698636 1.41269 0
M  V30 26299 C 2466.75 0.158796 1.94954 0
M  V30 26300 C 2467.13 -1.33185 1.63783 0
M  V30 26301 O 2466.48 -2.07977 0.94646 0
M  V30 26302 C 2466.69 0.45337 3.46043 0
M  V30 26303 C 2468.03 0.382781 4.22871 0
M  V30 26304 O 2469.06 0.388458 3.54075 0
M  V30 26305 O 2467.92 0.345559 5.45406 0
M  V30 26306 H 2465.01 0.0167651 0.82683 0
M  V30 26307 H 2467.56 0.775007 1.50969 0
M  V30 26308 H 2466.33 1.48505 3.62025 0
M  V30 26309 H 2465.95 -0.19366 3.97128 0
M  V30 26310 N 2466.95 -1.51228 0.443603 0
M  V30 26311 C 2468.17 -2.07043 -0.121612 0
M  V30 26312 C 2468.6 -1.30825 -1.35153 0
M  V30 26313 O 2467.96 -0.347965 -1.77929 0
M  V30 26314 C 2468 -3.5819 -0.416177 0
M  V30 26315 O 2467.11 -3.84092 -1.50156 0
M  V30 26316 H 2466.45 -0.663999 0.000883038 0
M  V30 26317 H 2468.98 -1.94764 0.626741 0
M  V30 26318 H 2468.99 -4.02547 -0.664797 0
M  V30 26319 H 2467.66 -4.13089 0.482725 0
M  V30 26320 H 2466.24 -3.51594 -1.24241 0
M  V30 26321 N 2468.43 -0.175182 -1.56623 0
M  V30 26322 C 2469.84 0.180938 -1.58571 0
M  V30 26323 C 2470.04 1.62558 -1.19068 0
M  V30 26324 O 2469.1 2.3576 -0.904086 0
M  V30 26325 C 2470.41 -0.103379 -3.00522 0
M  V30 26326 C 2471.96 -0.0418976 -3.12972 0
M  V30 26327 C 2472.43 -0.299255 -4.57021 0
M  V30 26328 N 2473.93 -0.247167 -4.6254 0
M  V30 26329 C 2474.66 -0.420419 -5.71857 0
M  V30 26330 N 2474.16 -0.652937 -6.89716 0
M  V30 26331 N 2475.95 -0.356055 -5.60971 0
M  V30 26332 H 2468.1 -1.11812 -1.80588 0
M  V30 26333 H 2470.36 -0.444803 -0.83717 0
M  V30 26334 H 2470.07 -1.10428 -3.33914 0
M  V30 26335 H 2469.94 0.603234 -3.72345 0
M  V30 26336 H 2472.33 0.949587 -2.79404 0
M  V30 26337 H 2472.41 -0.781281 -2.43577 0
M  V30 26338 H 2472.06 -1.28797 -4.91298 0
M  V30 26339 H 2471.99 0.460784 -5.2458 0
M  V30 26340 H 2474.48 -0.0732559 -3.77829 0
M  V30 26341 H 2474.79 -0.774482 -7.68909 0
M  V30 26342 H 2473.13 -0.689598 -6.9157 0
M  V30 26343 H 2476.33 -0.174964 -4.67773 0
M  V30 26344 H 2476.5 -0.494501 -6.4611 0
M  V30 26345 N 2469.91 1.57292 0.0985263 0
M  V30 26346 C 2471.13 1.90494 0.820163 0
M  V30 26347 C 2471.56 0.769125 1.71657 0
M  V30 26348 O 2470.91 -0.279463 1.79133 0
M  V30 26349 C 2470.96 3.22545 1.61236 0
M  V30 26350 O 2470.07 3.09893 2.72103 0
M  V30 26351 H 2469.41 0.624524 0.225536 0
M  V30 26352 H 2471.94 2.04463 0.0747799 0
M  V30 26353 H 2471.95 3.55769 1.99731 0
M  V30 26354 H 2470.62 4.048 0.954464 0
M  V30 26355 H 2469.2 2.88177 2.36662 0
M  V30 26356 N 2471.38 -0.369261 1.53213 0
M  V30 26357 C 2472.63 -1.11009 1.68883 0
M  V30 26358 C 2472.95 -1.8994 0.441319 0
M  V30 26359 O 2472.22 -1.88178 -0.54459 0
M  V30 26360 H 2470.8 -0.412805 0.622576 0
M  V30 26361 H 2473.46 -0.416768 1.90392 0
M  V30 26362 H 2472.56 -1.80196 2.54825 0
M  V30 26363 N 2472.86 -1.4451 -0.628851 0
M  V30 26364 C 2473.81 -1.51855 -1.7619 0
M  V30 26365 C 2474.8 -0.390071 -1.64848 0
M  V30 26366 O 2476.01 -0.565112 -1.70899 0
M  V30 26367 H 2472.38 -0.476557 -0.58172 0
M  V30 26368 H 2474.36 -2.47212 -1.67119 0
M  V30 26369 C 2473.1 -1.4821 -3.1453 0
M  V30 26370 H 2472.43 -2.3436 -3.23907 0
M  V30 26371 H 2473.87 -1.57409 -3.93698 0
M  V30 26372 C 2472.33 -0.203201 -3.36287 0
M  V30 26373 O 2472.86 0.725676 -3.95091 0
M  V30 26374 N 2471.06 -0.105614 -2.90408 0
M  V30 26375 H 2470.61 -0.862344 -2.42737 0
M  V30 26376 H 2470.57 0.749317 -3.0534 0
M  V30 26377 N 2474.34 0.869463 -1.31446 0
M  V30 26378 C 2475.59 1.61734 -1.2052 0
M  V30 26379 C 2475.9 1.94179 0.235307 0
M  V30 26380 O 2477.11 2.67466 0.466265 0
M  V30 26381 C 2475.56 2.91569 -2.10987 0
M  V30 26382 C 2475.17 2.66604 -3.60036 0
M  V30 26383 C 2476.92 3.69563 -2.08862 0
M  V30 26384 C 2474.82 3.9235 -4.4251 0
M  V30 26385 H 2473.75 0.606842 -0.447503 0
M  V30 26386 H 2476.4 0.961302 -1.56305 0
M  V30 26387 H 2474.79 3.5855 -1.68101 0
M  V30 26388 H 2475.96 2.08028 -4.1117 0
M  V30 26389 H 2474.27 2.01963 -3.64143 0
M  V30 26390 H 2476.87 4.62847 -2.67725 0
M  V30 26391 H 2477.21 4.02157 -1.07589 0
M  V30 26392 H 2477.75 3.09466 -2.49951 0
M  V30 26393 H 2474.49 3.64906 -5.4454 0
M  V30 26394 H 2474.01 4.50376 -3.96133 0
M  V30 26395 H 2475.69 4.6023 -4.54749 0
M  V30 26396 N 2475.82 1.14415 1.08383 0
M  V30 26397 C 2476.75 0.774908 2.1464 0
M  V30 26398 C 2477.73 -0.243848 1.60761 0
M  V30 26399 O 2478.91 -0.13285 1.88031 0
M  V30 26400 C 2476.04 0.150551 3.38365 0
M  V30 26401 C 2475.09 1.13952 4.10995 0
M  V30 26402 S 2475.92 2.67688 4.63793 0
M  V30 26403 C 2477.07 2.06642 5.90804 0
M  V30 26404 H 2477.31 1.67491 2.4563 0
M  V30 26405 H 2474.84 0.965401 1.20496 0
M  V30 26406 H 2476.8 -0.203261 4.09996 0
M  V30 26407 H 2475.46 -0.726886 3.05574 0
M  V30 26408 H 2474.65 0.650678 4.99782 0
M  V30 26409 H 2474.25 1.43733 3.45278 0
M  V30 26410 H 2476.55 1.42202 6.62408 0
M  V30 26411 H 2477.49 2.93553 6.44385 0
M  V30 26412 H 2477.9 1.51366 5.43828 0
M  V30 26413 N 2477.3 -1.26549 0.939309 0
M  V30 26414 C 2478.54 -1.93839 0.585881 0
M  V30 26415 C 2478.87 -1.73719 -0.874753 0
M  V30 26416 O 2478.13 -1.06645 -1.6409 0
M  V30 26417 C 2478.42 -3.46595 0.872167 0
M  V30 26418 C 2478.09 -3.86852 2.31638 0
M  V30 26419 C 2476.75 -3.97553 2.71118 0
M  V30 26420 C 2479.1 -4.07061 3.25501 0
M  V30 26421 C 2476.43 -4.25859 4.03561 0
M  V30 26422 C 2478.78 -4.36854 4.57538 0
M  V30 26423 C 2477.45 -4.4577 4.96836 0
M  V30 26424 H 2476.72 -0.709308 0.214389 0
M  V30 26425 H 2479.37 -1.50396 1.18546 0
M  V30 26426 H 2477.67 -3.91339 0.190029 0
M  V30 26427 H 2479.37 -3.9682 0.577512 0
M  V30 26428 H 2475.96 -3.79068 2.00014 0
M  V30 26429 H 2480.14 -3.98222 2.96197 0
M  V30 26430 H 2475.4 -4.30973 4.33673 0
M  V30 26431 H 2479.57 -4.51437 5.30262 0
M  V30 26432 H 2477.2 -4.67457 5.9949 0
M  V30 26433 N 2478.77 -0.706118 -1.40896 0
M  V30 26434 C 2479.72 -0.0241147 -2.27987 0
M  V30 26435 C 2480.71 0.742179 -1.4276 0
M  V30 26436 O 2481.9 0.615937 -1.65937 0
M  V30 26437 C 2479.03 0.903849 -3.31188 0
M  V30 26438 C 2478.11 0.133244 -4.23891 0
M  V30 26439 N 2478.51 -0.878531 -4.98112 0
M  V30 26440 C 2476.8 0.367191 -4.44486 0
M  V30 26441 C 2477.5 -1.34074 -5.66038 0
M  V30 26442 N 2476.48 -0.66466 -5.39521 0
M  V30 26443 H 2480.28 -0.799708 -2.82811 0
M  V30 26444 H 2477.8 -0.537871 -1.53234 0
M  V30 26445 H 2479.79 1.40768 -3.92416 0
M  V30 26446 H 2478.45 1.67892 -2.77925 0
M  V30 26447 H 2479.46 -1.2591 -5.02362 0
M  V30 26448 H 2476.14 1.11933 -4.02215 0
M  V30 26449 H 2477.53 -2.18091 -6.3552 0
M  V30 26450 N 2480.25 1.50991 -0.451617 0
M  V30 26451 C 2481.48 2.07105 0.11063 0
M  V30 26452 C 2481.9 1.3154 1.34458 0
M  V30 26453 O 2481.26 0.357396 1.77742 0
M  V30 26454 C 2481.31 3.58406 0.397175 0
M  V30 26455 O 2480.41 3.84883 1.48117 0
M  V30 26456 H 2479.75 0.663985 -0.00440438 0
M  V30 26457 H 2482.28 1.94429 -0.637061 0
M  V30 26458 H 2482.29 4.02894 0.643439 0
M  V30 26459 H 2480.97 4.12827 -0.504626 0
M  V30 26460 H 2479.54 3.52248 1.22375 0
M  V30 26461 N 2481.73 0.183486 1.56528 0
M  V30 26462 C 2482.98 -0.458323 1.97245 0
M  V30 26463 C 2483.3 -1.62427 1.06995 0
M  V30 26464 O 2482.56 -1.9541 0.106576 0
M  V30 26465 C 2482.86 -0.971577 3.43941 0
M  V30 26466 C 2482.52 0.0797577 4.50829 0
M  V30 26467 C 2481.19 0.368668 4.79786 0
M  V30 26468 C 2483.54 0.792729 5.15136 0
M  V30 26469 C 2480.87 1.37573 5.70343 0
M  V30 26470 C 2483.22 1.78886 6.06781 0
M  V30 26471 C 2481.88 2.08509 6.34098 0
M  V30 26472 H 2481.15 -0.167712 0.721771 0
M  V30 26473 H 2483.8 0.278009 1.89471 0
M  V30 26474 H 2482.1 -1.78596 3.48727 0
M  V30 26475 H 2483.8 -1.47737 3.72793 0
M  V30 26476 H 2480.39 -0.155593 4.28317 0
M  V30 26477 H 2484.58 0.582745 4.92867 0
M  V30 26478 H 2479.83 1.61128 5.89786 0
M  V30 26479 H 2484.01 2.34661 6.55673 0
M  V30 26480 H 2481.63 2.8669 7.04069 0
M  V30 26481 N 2483.21 -1.57342 -0.0901833 0
M  V30 26482 C 2484.46 -1.85969 -0.791209 0
M  V30 26483 C 2484.78 -0.77289 -1.79029 0
M  V30 26484 O 2484.05 0.200364 -1.94873 0
M  V30 26485 H 2482.63 -0.6862 -0.295193 0
M  V30 26486 H 2485.29 -1.94772 -0.070644 0
M  V30 26487 H 2484.38 -2.82869 -1.31877 0
M  V30 26488 N 2484.69 0.36113 -1.53407 0
M  V30 26489 C 2485.63 1.46293 -1.80834 0
M  V30 26490 C 2486.63 1.55252 -0.677727 0
M  V30 26491 O 2487.83 1.58086 -0.860751 0
M  V30 26492 H 2484.21 0.487435 -0.572635 0
M  V30 26493 H 2486.18 1.20366 -2.73047 0
M  V30 26494 C 2484.93 2.83067 -2.01912 0
M  V30 26495 H 2484.25 2.76933 -2.88354 0
M  V30 26496 H 2485.69 3.59327 -2.25079 0
M  V30 26497 C 2484.15 3.27276 -0.799506 0
M  V30 26498 O 2484.68 4.01699 0.00964701 0
M  V30 26499 N 2482.89 2.83872 -0.621687 0
M  V30 26500 H 2482.43 2.23474 -1.2813 0
M  V30 26501 H 2482.39 3.13808 0.192925 0
M  V30 26502 N 2486.16 1.44842 0.621179 0
M  V30 26503 C 2487.11 1.52473 1.73265 0
M  V30 26504 C 2488.08 0.37164 1.61889 0
M  V30 26505 O 2489.27 0.583242 1.81667 0
M  V30 26506 C 2486.41 1.48443 3.11542 0
M  V30 26507 C 2485.52 2.74202 3.33822 0
M  V30 26508 C 2484.65 2.61937 4.62128 0
M  V30 26509 C 2483.69 3.82812 4.7762 0
M  V30 26510 N 2482.83 3.69164 5.97212 0
M  V30 26511 H 2487.67 2.47431 1.66078 0
M  V30 26512 H 2485.21 1.2279 0.810005 0
M  V30 26513 H 2487.17 1.44097 3.91525 0
M  V30 26514 H 2485.8 0.570458 3.17719 0
M  V30 26515 H 2484.85 2.88694 2.4771 0
M  V30 26516 H 2486.16 3.63896 3.41146 0
M  V30 26517 H 2485.31 2.5548 5.50286 0
M  V30 26518 H 2484.05 1.69819 4.57179 0
M  V30 26519 H 2483.06 3.89644 3.87889 0
M  V30 26520 H 2484.28 4.75979 4.84376 0
M  V30 26521 H 2482.23 2.79805 5.93334 0
M  V30 26522 H 2482.15 4.52483 6.05636 0
M  V30 26523 H 2483.41 3.66615 6.87905 0
M  V30 26524 N 2487.64 -0.862479 1.31905 0
M  V30 26525 C 2488.57 -1.97673 1.16009 0
M  V30 26526 C 2489.59 -1.6251 0.0971519 0
M  V30 26527 O 2490.78 -1.75127 0.345367 0
M  V30 26528 C 2487.88 -3.30455 0.751849 0
M  V30 26529 C 2487.05 -3.93911 1.9014 0
M  V30 26530 C 2486.11 -5.05017 1.47799 0
M  V30 26531 O 2485.13 -5.25433 2.18881 0
M  V30 26532 N 2486.34 -5.79322 0.369593 0
M  V30 26533 H 2489.1 -2.11854 2.11986 0
M  V30 26534 H 2486.66 -1.03689 1.24339 0
M  V30 26535 H 2488.65 -4.02177 0.451155 0
M  V30 26536 H 2487.22 -3.12383 -0.116538 0
M  V30 26537 H 2486.44 -3.15074 2.36901 0
M  V30 26538 H 2487.73 -4.33042 2.67118 0
M  V30 26539 H 2487.13 -5.65263 -0.2222 0
M  V30 26540 H 2485.69 -6.51673 0.128469 0
M  V30 26541 N 2489.12 -1.14988 -1.07775 0
M  V30 26542 C 2490.37 -0.920266 -1.79932 0
M  V30 26543 C 2490.69 0.554303 -1.86956 0
M  V30 26544 O 2489.96 1.40289 -1.36733 0
M  V30 26545 H 2488.54 -0.337485 -0.666418 0
M  V30 26546 H 2491.2 -1.4497 -1.30267 0
M  V30 26547 H 2490.3 -1.32588 -2.82537 0
M  V30 26548 N 2490.6 1.26049 -0.946007 0
M  V30 26549 C 2492.01 1.75456 -0.638127 0
M  V30 26550 C 2492.36 1.76993 0.846641 0
M  V30 26551 O 2491.49 1.38516 1.66259 0
M  V30 26552 C 2492.08 3.18627 -1.15162 0
M  V30 26553 C 2490.64 3.65627 -0.894068 0
M  V30 26554 C 2489.79 2.44954 -1.29972 0
M  V30 26555 H 2492.74 1.12058 -1.12378 0
M  V30 26556 H 2492.76 3.77098 -0.507681 0
M  V30 26557 H 2492.27 3.17476 -2.23227 0
M  V30 26558 H 2490.37 3.72203 0.171992 0
M  V30 26559 H 2490.48 4.54199 -1.52447 0
M  V30 26560 H 2488.85 2.44367 -0.718121 0
M  V30 26561 H 2489.63 2.46501 -2.3894 0
M  V30 26562 N 2492.08 0.71358 1.4052 0
M  V30 26563 C 2493.01 0.0203529 2.29191 0
M  V30 26564 C 2494.02 -0.725838 1.45724 0
M  V30 26565 O 2495.21 -0.573551 1.69034 0
M  V30 26566 C 2492.31 -0.995429 3.23951 0
M  V30 26567 C 2491.48 -0.315179 4.36263 0
M  V30 26568 C 2490.54 -1.23607 5.11476 0
M  V30 26569 O 2489.57 -0.721619 5.64607 0
M  V30 26570 N 2490.77 -2.56733 5.20642 0
M  V30 26571 H 2493.54 0.781702 2.89326 0
M  V30 26572 H 2491.1 0.561048 1.51868 0
M  V30 26573 H 2493.09 -1.61362 3.71139 0
M  V30 26574 H 2491.66 -1.65816 2.64998 0
M  V30 26575 H 2490.88 0.483175 3.91228 0
M  V30 26576 H 2492.17 0.157093 5.08557 0
M  V30 26577 H 2491.56 -3.01029 4.78955 0
M  V30 26578 H 2490.12 -3.13701 5.71345 0
M  V30 26579 N 2493.55 -1.50749 0.459618 0
M  V30 26580 C 2494.5 -2.25158 -0.358886 0
M  V30 26581 C 2495.49 -1.28278 -0.971263 0
M  V30 26582 O 2496.68 -1.53245 -0.885712 0
M  V30 26583 C 2493.81 -3.11319 -1.4469 0
M  V30 26584 C 2492.9 -4.15641 -0.842821 0
M  V30 26585 N 2493.29 -5.05791 0.0300262 0
M  V30 26586 C 2491.58 -4.32017 -1.10802 0
M  V30 26587 C 2492.29 -5.80511 0.371665 0
M  V30 26588 N 2491.26 -5.43023 -0.250313 0
M  V30 26589 H 2495.06 -2.92221 0.313687 0
M  V30 26590 H 2492.58 -1.60088 0.27305 0
M  V30 26591 H 2494.57 -3.63222 -2.04635 0
M  V30 26592 H 2493.23 -2.45803 -2.12158 0
M  V30 26593 H 2494.25 -5.16368 0.398061 0
M  V30 26594 H 2490.92 -3.77723 -1.77854 0
M  V30 26595 H 2492.31 -6.63109 1.0833 0
M  V30 26596 N 2495.03 -0.191784 -1.56429 0
M  V30 26597 C 2496.28 0.446971 -1.97095 0
M  V30 26598 C 2496.6 1.62381 -1.0797 0
M  V30 26599 O 2495.87 1.95323 -0.150282 0
M  V30 26600 H 2494.45 0.168122 -0.727835 0
M  V30 26601 H 2497.11 -0.277744 -1.92911 0
M  V30 26602 H 2496.21 0.793318 -3.01849 0
M  V30 26603 N 2496.51 1.57387 0.0818378 0
M  V30 26604 C 2497.44 1.98268 1.12982 0
M  V30 26605 C 2498.42 0.857978 1.38121 0
M  V30 26606 O 2499.61 1.11942 1.51661 0
M  V30 26607 C 2496.73 2.3108 2.47628 0
M  V30 26608 C 2495.78 3.53456 2.38686 0
M  V30 26609 S 2496.61 5.04675 1.79062 0
M  V30 26610 C 2497.77 5.40678 3.15306 0
M  V30 26611 H 2498 2.86848 0.781384 0
M  V30 26612 H 2495.53 1.51652 0.290007 0
M  V30 26613 H 2497.49 2.5066 3.25084 0
M  V30 26614 H 2496.15 1.43048 2.79636 0
M  V30 26615 H 2495.35 3.73899 3.37958 0
M  V30 26616 H 2494.95 3.33455 1.69363 0
M  V30 26617 H 2497.24 5.38135 4.11604 0
M  V30 26618 H 2498.18 6.41571 2.99653 0
M  V30 26619 H 2498.59 4.68137 3.15449 0
M  V30 26620 N 2497.99 -0.35299 1.53596 0
M  V30 26621 C 2498.92 -1.4388 1.83904 0
M  V30 26622 C 2499.9 -1.55323 0.693448 0
M  V30 26623 O 2501.08 -1.69686 0.944482 0
M  V30 26624 C 2498.21 -2.81057 2.04021 0
M  V30 26625 C 2497.17 -2.84428 3.19819 0
M  V30 26626 C 2496.49 -4.244 3.25252 0
M  V30 26627 C 2497.79 -2.50814 4.58137 0
M  V30 26628 H 2499.49 -1.18765 2.74837 0
M  V30 26629 H 2497.03 -0.569894 1.32243 0
M  V30 26630 H 2498.99 -3.57055 2.23807 0
M  V30 26631 H 2497.71 -3.07586 1.0981 0
M  V30 26632 H 2496.37 -2.10882 2.99874 0
M  V30 26633 H 2496.02 -4.48025 2.28654 0
M  V30 26634 H 2495.72 -4.27569 4.03061 0
M  V30 26635 H 2497.24 -5.02254 3.47237 0
M  V30 26636 H 2498.66 -3.16526 4.78001 0
M  V30 26637 H 2497.05 -2.65281 5.38281 0
M  V30 26638 H 2498.12 -1.46026 4.6239 0
M  V30 26639 N 2499.47 -1.45169 -0.613489 0
M  V30 26640 C 2500.72 -1.48153 -1.36871 0
M  V30 26641 C 2501.03 -0.125017 -1.952 0
M  V30 26642 O 2502.24 -0.0324653 -2.71481 0
M  V30 26643 C 2500.69 -2.60909 -2.47901 0
M  V30 26644 C 2500.3 -4.02846 -1.96009 0
M  V30 26645 C 2502.04 -2.73132 -3.2496 0
M  V30 26646 C 2499.95 -5.06994 -3.04485 0
M  V30 26647 H 2498.88 -0.551262 -0.514418 0
M  V30 26648 H 2501.53 -1.71291 -0.658152 0
M  V30 26649 H 2499.91 -2.31042 -3.21614 0
M  V30 26650 H 2501.09 -4.42362 -1.29044 0
M  V30 26651 H 2499.4 -3.9502 -1.31712 0
M  V30 26652 H 2502 -3.48113 -4.05859 0
M  V30 26653 H 2502.34 -1.7956 -3.75585 0
M  V30 26654 H 2502.88 -3.02495 -2.58344 0
M  V30 26655 H 2499.61 -6.02255 -2.58784 0
M  V30 26656 H 2499.13 -4.72053 -3.70036 0
M  V30 26657 H 2500.81 -5.31481 -3.68967 0
M  V30 26658 N 2500.95 0.855472 -1.32361 0
M  V30 26659 C 2501.89 1.98538 -1.21183 0
M  V30 26660 C 2502.89 1.68997 -0.116818 0
M  V30 26661 O 2504.09 1.77814 -0.279688 0
M  V30 26662 H 2500.47 0.651471 -0.375619 0
M  V30 26663 H 2502.44 2.05094 -2.16747 0
M  V30 26664 C 2501.19 3.34444 -0.950908 0
M  V30 26665 H 2500.51 3.57705 -1.7857 0
M  V30 26666 H 2501.95 4.14055 -0.912936 0
M  V30 26667 C 2500.41 3.35115 0.346346 0
M  V30 26668 O 2500.94 3.78032 1.35848 0
M  V30 26669 N 2499.15 2.8826 0.368029 0
M  V30 26670 H 2498.69 2.53529 -0.456147 0
M  V30 26671 H 2498.65 2.89091 1.23586 0
M  V30 26672 N 2502.42 1.15558 1.07164 0
M  V30 26673 C 2503.65 0.955551 1.83512 0
M  V30 26674 C 2504.07 -0.496178 1.82163 0
M  V30 26675 O 2503.42 -1.34417 1.23443 0
M  V30 26676 C 2503.47 1.46438 3.30512 0
M  V30 26677 O 2503.2 2.85924 3.31932 0
M  V30 26678 C 2504.7 1.3061 4.23622 0
M  V30 26679 H 2501.92 0.339254 0.57892 0
M  V30 26680 H 2504.46 1.53376 1.35263 0
M  V30 26681 H 2502.62 0.92865 3.76105 0
M  V30 26682 H 2503.03 3.09036 4.23789 0
M  V30 26683 H 2504.5 1.71056 5.24828 0
M  V30 26684 H 2504.98 0.250518 4.38485 0
M  V30 26685 H 2505.59 1.83101 3.83867 0
M  V30 26686 N 2503.9 -1.25546 0.952678 0
M  V30 26687 C 2505.31 -1.75115 0.647423 0
M  V30 26688 C 2505.66 -1.77439 -0.837243 0
M  V30 26689 O 2504.79 -1.39396 -1.65523 0
M  V30 26690 C 2505.38 -3.18012 1.1685 0
M  V30 26691 C 2503.94 -3.65148 0.913446 0
M  V30 26692 C 2503.09 -2.44262 1.31269 0
M  V30 26693 H 2506.04 -1.1146 1.1297 0
M  V30 26694 H 2506.06 -3.76823 0.527672 0
M  V30 26695 H 2505.57 -3.16288 2.24908 0
M  V30 26696 H 2503.67 -3.72289 -0.15225 0
M  V30 26697 H 2503.79 -4.53384 1.54853 0
M  V30 26698 H 2502.15 -2.43982 0.731071 0
M  V30 26699 H 2502.93 -2.4523 2.40244 0
M  V30 26700 N 2505.38 -0.721022 -1.40139 0
M  V30 26701 C 2506.61 -0.272296 -2.04798 0
M  V30 26702 C 2507.02 1.09287 -1.54444 0
M  V30 26703 O 2506.36 1.69907 -0.698372 0
M  V30 26704 C 2506.42 -0.180333 -3.59047 0
M  V30 26705 C 2506.09 -1.48167 -4.32314 0
M  V30 26706 C 2507.08 -2.42466 -4.59898 0
M  V30 26707 C 2504.77 -1.7421 -4.71122 0
M  V30 26708 C 2506.76 -3.61051 -5.25282 0
M  V30 26709 C 2504.45 -2.93075 -5.36237 0
M  V30 26710 C 2505.45 -3.86318 -5.63247 0
M  V30 26711 O 2505.14 -5.03097 -6.27015 0
M  V30 26712 H 2504.87 -0.11915 -0.665417 0
M  V30 26713 H 2507.42 -0.981464 -1.80434 0
M  V30 26714 H 2505.65 0.584822 -3.82252 0
M  V30 26715 H 2507.34 0.234547 -4.05222 0
M  V30 26716 H 2508.11 -2.23612 -4.30375 0
M  V30 26717 H 2503.99 -1.02485 -4.49464 0
M  V30 26718 H 2507.53 -4.33847 -5.46281 0
M  V30 26719 H 2503.43 -3.11836 -5.6518 0
M  V30 26720 H 2504.19 -5.03247 -6.45511 0
M  V30 26721 N 2506.86 1.50503 -0.467606 0
M  V30 26722 C 2508.1 2.02606 0.0887176 0
M  V30 26723 C 2508.44 1.34915 1.39683 0
M  V30 26724 O 2507.71 0.473727 1.88643 0
M  V30 26725 C 2507.99 3.5904 0.276143 0
M  V30 26726 C 2507.85 4.37307 -1.05275 0
M  V30 26727 C 2509.17 4.27823 1.03227 0
M  V30 26728 H 2506.29 0.736357 0.0307684 0
M  V30 26729 H 2508.93 1.79856 -0.612517 0
M  V30 26730 H 2507.08 3.78554 0.873433 0
M  V30 26731 H 2508.75 4.29372 -1.68635 0
M  V30 26732 H 2506.99 4.01186 -1.65022 0
M  V30 26733 H 2507.66 5.45016 -0.875293 0
M  V30 26734 H 2510.14 4.12761 0.526038 0
M  V30 26735 H 2509.02 5.37096 1.13221 0
M  V30 26736 H 2509.28 3.90751 2.06799 0
M  V30 26737 N 2508.34 0.200077 1.56325 0
M  V30 26738 C 2509.56 -0.442839 2.02105 0
M  V30 26739 C 2509.98 -1.54848 1.08017 0
M  V30 26740 O 2509.34 -1.82298 0.0859117 0
M  V30 26741 C 2509.39 -0.994522 3.47551 0
M  V30 26742 O 2509.11 0.0670092 4.38049 0
M  V30 26743 C 2510.61 -1.71282 4.08873 0
M  V30 26744 H 2507.83 -0.110679 0.661809 0
M  V30 26745 H 2510.37 0.310243 2.02133 0
M  V30 26746 H 2508.53 -1.69797 3.48207 0
M  V30 26747 H 2508.94 -0.34437 5.23368 0
M  V30 26748 H 2510.42 -2.05109 5.12479 0
M  V30 26749 H 2510.89 -2.61831 3.5262 0
M  V30 26750 H 2511.5 -1.05511 4.12004 0
M  V30 26751 N 2509.81 -1.57429 -0.0734901 0
M  V30 26752 C 2510.76 -2.03572 -1.08752 0
M  V30 26753 C 2511.73 -0.916024 -1.38558 0
M  V30 26754 O 2512.92 -1.18357 -1.49654 0
M  V30 26755 C 2510.06 -2.48315 -2.39653 0
M  V30 26756 C 2509.17 -3.73896 -2.16392 0
M  V30 26757 C 2508.3 -4.07429 -3.40845 0
M  V30 26758 C 2507.34 -5.26056 -3.12941 0
M  V30 26759 N 2506.48 -5.55235 -4.29719 0
M  V30 26760 H 2511.32 -2.89972 -0.687053 0
M  V30 26761 H 2508.86 -1.43404 -0.327684 0
M  V30 26762 H 2510.81 -2.72308 -3.16076 0
M  V30 26763 H 2509.44 -1.64896 -2.77505 0
M  V30 26764 H 2508.5 -3.57253 -1.3067 0
M  V30 26765 H 2509.81 -4.60458 -1.9178 0
M  V30 26766 H 2508.96 -4.32314 -4.25664 0
M  V30 26767 H 2507.7 -3.19431 -3.68531 0
M  V30 26768 H 2506.71 -5.00969 -2.26517 0
M  V30 26769 H 2507.93 -6.1567 -2.86579 0
M  V30 26770 H 2505.88 -4.70196 -4.5744 0
M  V30 26771 H 2505.79 -6.36213 -4.08374 0
M  V30 26772 H 2507.06 -5.8467 -5.1554 0
M  V30 26773 N 2511.29 0.344839 -1.53781 0
M  V30 26774 C 2512.57 1.10217 -1.61591 0
M  V30 26775 C 2512.95 2.06541 -0.436352 0
M  V30 26776 O 2512.3 2.21238 0.571504 0
M  V30 26777 C 2512.51 1.82296 -2.97606 0
M  V30 26778 C 2513.85 2.36087 -3.52914 0
M  V30 26779 O 2514.88 1.92394 -2.99771 0
M  V30 26780 O 2513.74 3.16018 -4.45864 0
M  V30 26781 H 2510.83 0.506781 -0.653531 0
M  V30 26782 H 2513.38 0.346436 -1.66126 0
M  V30 26783 H 2512.15 1.12115 -3.74895 0
M  V30 26784 H 2511.77 2.6473 -2.96655 0
M  V30 26785 N 2512.77 1.45492 0.605781 0
M  V30 26786 C 2513.7 1.57146 1.72706 0
M  V30 26787 C 2514.68 0.422913 1.64759 0
M  V30 26788 O 2515.87 0.646279 1.83131 0
M  V30 26789 C 2513 1.53953 3.11313 0
M  V30 26790 C 2511.95 2.67543 3.34073 0
M  V30 26791 C 2511.28 2.49405 4.72971 0
M  V30 26792 C 2512.58 4.09541 3.24151 0
M  V30 26793 H 2514.27 2.51004 1.6321 0
M  V30 26794 H 2511.82 1.20802 0.783769 0
M  V30 26795 H 2513.77 1.60703 3.89554 0
M  V30 26796 H 2512.49 0.566261 3.21654 0
M  V30 26797 H 2511.15 2.60225 2.58222 0
M  V30 26798 H 2510.8 1.50213 4.80047 0
M  V30 26799 H 2510.5 3.25579 4.89154 0
M  V30 26800 H 2512.02 2.58011 5.5341 0
M  V30 26801 H 2513.44 4.18093 3.92264 0
M  V30 26802 H 2511.83 4.86119 3.51863 0
M  V30 26803 H 2512.9 4.31321 2.21563 0
M  V30 26804 N 2514.25 -0.848441 1.32813 0
M  V30 26805 C 2515.18 -1.97297 1.24885 0
M  V30 26806 C 2516.16 -1.69592 0.131386 0
M  V30 26807 O 2517.34 -1.91552 0.319586 0
M  V30 26808 C 2514.47 -3.33259 0.977518 0
M  V30 26809 C 2513.43 -3.75335 2.05689 0
M  V30 26810 C 2512.75 -5.08997 1.63786 0
M  V30 26811 C 2514.05 -3.90137 3.47261 0
M  V30 26812 H 2515.75 -2.04187 2.1897 0
M  V30 26813 H 2513.29 -0.98101 1.05414 0
M  V30 26814 H 2515.25 -4.11488 0.908585 0
M  V30 26815 H 2513.97 -3.266 0.00103742 0
M  V30 26816 H 2512.63 -2.99362 2.11608 0
M  V30 26817 H 2512.28 -4.988 0.648656 0
M  V30 26818 H 2511.98 -5.3812 2.36009 0
M  V30 26819 H 2513.5 -5.89712 1.58341 0
M  V30 26820 H 2514.92 -4.58703 3.43896 0
M  V30 26821 H 2513.31 -4.30685 4.17888 0
M  V30 26822 H 2514.38 -2.92867 3.86467 0
M  V30 26823 N 2515.73 -1.16125 -1.06549 0
M  V30 26824 C 2516.66 -0.823208 -2.13906 0
M  V30 26825 C 2517.67 0.168401 -1.61927 0
M  V30 26826 O 2518.86 -0.0559933 -1.78412 0
M  V30 26827 C 2515.96 -0.204483 -3.38283 0
M  V30 26828 C 2515.13 -1.23555 -4.19587 0
M  V30 26829 C 2514.19 -0.637103 -5.22329 0
M  V30 26830 O 2513.22 -1.30526 -5.54032 0
M  V30 26831 N 2514.42 0.577373 -5.77622 0
M  V30 26832 H 2517.19 -1.74715 -2.43505 0
M  V30 26833 H 2514.75 -1.05823 -1.22528 0
M  V30 26834 H 2516.74 0.208838 -4.04161 0
M  V30 26835 H 2515.31 0.622958 -3.0633 0
M  V30 26836 H 2514.53 -1.82514 -3.49403 0
M  V30 26837 H 2515.82 -1.93145 -4.70715 0
M  V30 26838 H 2515.21 1.13843 -5.54127 0
M  V30 26839 H 2513.77 0.932939 -6.45089 0
M  V30 26840 N 2517.2 1.25039 -0.959323 0
M  V30 26841 C 2518.17 2.23951 -0.487717 0
M  V30 26842 C 2519.17 1.55454 0.411162 0
M  V30 26843 O 2520.36 1.72956 0.207794 0
M  V30 26844 C 2517.49 3.39623 0.294748 0
M  V30 26845 H 2518.68 2.67187 -1.36203 0
M  V30 26846 H 2516.24 1.37507 -0.743066 0
M  V30 26847 H 2516.97 3.01815 1.18652 0
M  V30 26848 H 2516.76 3.90533 -0.350189 0
M  V30 26849 H 2518.25 4.13061 0.614017 0
M  V30 26850 N 2518.68 0.728444 1.39755 0
M  V30 26851 C 2519.63 0.0841924 2.30646 0
M  V30 26852 C 2520.6 -0.736673 1.4887 0
M  V30 26853 O 2521.78 -0.697984 1.77575 0
M  V30 26854 C 2518.92 -0.822033 3.35167 0
M  V30 26855 C 2518.04 0.0107422 4.31999 0
M  V30 26856 C 2517.17 -0.896149 5.23586 0
M  V30 26857 C 2516.21 -0.0582305 6.12072 0
M  V30 26858 N 2515.35 -0.920696 6.96037 0
M  V30 26859 H 2520.19 0.864941 2.85171 0
M  V30 26860 H 2517.73 0.438203 1.40421 0
M  V30 26861 H 2519.68 -1.36182 3.94348 0
M  V30 26862 H 2518.31 -1.56883 2.82113 0
M  V30 26863 H 2517.37 0.667875 3.74491 0
M  V30 26864 H 2518.68 0.658912 4.94429 0
M  V30 26865 H 2517.83 -1.50402 5.87762 0
M  V30 26866 H 2516.57 -1.57811 4.61462 0
M  V30 26867 H 2515.58 0.562486 5.46915 0
M  V30 26868 H 2516.8 0.620419 6.7626 0
M  V30 26869 H 2514.75 -1.58807 6.36487 0
M  V30 26870 H 2514.66 -0.328857 7.55284 0
M  V30 26871 H 2515.93 -1.51434 7.64649 0
M  V30 26872 N 2520.16 -1.50253 0.475581 0
M  V30 26873 C 2521.58 -1.5907 0.129998 0
M  V30 26874 C 2521.78 -1.48331 -1.36383 0
M  V30 26875 O 2520.83 -1.34411 -2.13752 0
M  V30 26876 C 2522.15 -2.92813 0.68419 0
M  V30 26877 C 2523.69 -3.06218 0.648018 0
M  V30 26878 C 2524.17 -4.42543 1.17983 0
M  V30 26879 N 2525.66 -4.48967 1.13943 0
M  V30 26880 C 2526.39 -5.52848 1.52138 0
M  V30 26881 N 2525.89 -6.63962 1.97804 0
M  V30 26882 N 2527.68 -5.43418 1.43713 0
M  V30 26883 H 2519.83 -1.55477 1.44709 0
M  V30 26884 H 2522.1 -0.735022 0.598704 0
M  V30 26885 H 2521.8 -3.06161 1.73085 0
M  V30 26886 H 2521.68 -3.76975 0.13027 0
M  V30 26887 H 2524.06 -2.92515 -0.389739 0
M  V30 26888 H 2524.15 -2.23802 1.23879 0
M  V30 26889 H 2523.79 -4.56996 2.21624 0
M  V30 26890 H 2523.72 -5.23558 0.56523 0
M  V30 26891 H 2526.21 -3.69236 0.804552 0
M  V30 26892 H 2526.52 -7.39295 2.25085 0
M  V30 26893 H 2524.87 -6.6507 2.0176 0
M  V30 26894 H 2528.06 -4.555 1.07875 0
M  V30 26895 H 2528.23 -6.24256 1.73805 0
M  V30 26896 N 2521.64 -0.208365 -1.56217 0
M  V30 26897 C 2522.89 0.426885 -1.97949 0
M  V30 26898 C 2523.21 1.60704 -1.09565 0
M  V30 26899 O 2522.47 1.95215 -0.13765 0
M  V30 26900 C 2522.77 0.916736 -3.45443 0
M  V30 26901 C 2522.43 -0.151471 -4.50646 0
M  V30 26902 C 2521.1 -0.444951 -4.79138 0
M  V30 26903 C 2523.45 -0.874582 -5.1381 0
M  V30 26904 C 2520.78 -1.46629 -5.68082 0
M  V30 26905 C 2523.13 -1.88516 -6.03858 0
M  V30 26906 C 2521.79 -2.1857 -6.30701 0
M  V30 26907 H 2521.06 0.156208 -0.724348 0
M  V30 26908 H 2523.71 -0.308117 -1.89005 0
M  V30 26909 H 2522.01 1.73026 -3.51524 0
M  V30 26910 H 2523.71 1.41788 -3.75096 0
M  V30 26911 H 2520.3 0.0874314 -4.28511 0
M  V30 26912 H 2524.48 -0.661083 -4.91877 0
M  V30 26913 H 2519.74 -1.70491 -5.87148 0
M  V30 26914 H 2523.91 -2.45063 -6.51857 0
M  V30 26915 H 2521.54 -2.97855 -6.99419 0
M  V30 26916 N 2523.12 1.57465 0.0651402 0
M  V30 26917 C 2524.05 2.00884 1.10356 0
M  V30 26918 C 2525.06 0.915811 1.34598 0
M  V30 26919 O 2526.25 1.19362 1.32721 0
M  V30 26920 C 2523.35 2.33832 2.45308 0
M  V30 26921 C 2522.52 3.65065 2.40928 0
M  V30 26922 C 2521.58 3.85608 3.5804 0
M  V30 26923 O 2520.61 4.57115 3.39167 0
M  V30 26924 N 2521.81 3.2847 4.78631 0
M  V30 26925 H 2524.58 2.90579 0.733756 0
M  V30 26926 H 2522.14 1.599 0.253691 0
M  V30 26927 H 2524.13 2.44742 3.22309 0
M  V30 26928 H 2522.7 1.49992 2.74265 0
M  V30 26929 H 2521.92 3.64847 1.49266 0
M  V30 26930 H 2523.21 4.51222 2.35109 0
M  V30 26931 H 2522.6 2.70442 4.96868 0
M  V30 26932 H 2521.16 3.44819 5.53121 0
M  V30 26933 N 2524.59 -0.336679 1.53962 0
M  V30 26934 C 2525.56 -1.39672 1.81726 0
M  V30 26935 C 2526.56 -1.45312 0.688558 0
M  V30 26936 O 2527.75 -1.45568 0.956854 0
M  V30 26937 C 2524.88 -2.78535 1.96548 0
M  V30 26938 H 2526.07 -1.16314 2.76426 0
M  V30 26939 H 2523.63 -0.571448 1.45479 0
M  V30 26940 H 2524.36 -3.07167 1.04015 0
M  V30 26941 H 2524.15 -2.75836 2.7867 0
M  V30 26942 H 2525.64 -3.55246 2.19522 0
M  V30 26943 N 2526.07 -1.45812 -0.598057 0
M  V30 26944 C 2527 -1.51228 -1.72229 0
M  V30 26945 C 2528.02 -0.402087 -1.57756 0
M  V30 26946 O 2529.21 -0.669653 -1.65463 0
M  V30 26947 C 2526.31 -1.36196 -3.10329 0
M  V30 26948 C 2525.48 -2.61061 -3.5095 0
M  V30 26949 C 2524.54 -2.40448 -4.68051 0
M  V30 26950 O 2523.56 -3.14105 -4.74686 0
M  V30 26951 N 2524.77 -1.45622 -5.61938 0
M  V30 26952 H 2527.53 -2.48157 -1.68042 0
M  V30 26953 H 2525.09 -1.41673 -0.783613 0
M  V30 26954 H 2527.08 -1.20202 -3.86437 0
M  V30 26955 H 2525.65 -0.475069 -3.08969 0
M  V30 26956 H 2524.87 -2.92104 -2.64705 0
M  V30 26957 H 2526.16 -3.4404 -3.74852 0
M  V30 26958 H 2525.56 -0.848529 -5.593 0
M  V30 26959 H 2524.12 -1.35597 -6.3754 0
M  V30 26960 N 2527.55 0.841385 -1.33261 0
M  V30 26961 C 2528.78 1.62861 -1.27608 0
M  V30 26962 C 2529.19 1.88175 0.153474 0
M  V30 26963 O 2528.55 1.46013 1.09482 0
M  V30 26964 C 2528.6 2.98028 -2.04602 0
M  V30 26965 O 2528.32 2.73828 -3.4198 0
M  V30 26966 C 2529.82 3.92461 -2.06129 0
M  V30 26967 H 2527.04 0.506834 -0.439727 0
M  V30 26968 H 2529.59 1.04821 -1.75593 0
M  V30 26969 H 2527.74 3.52677 -1.60305 0
M  V30 26970 H 2528.16 3.59883 -3.81556 0
M  V30 26971 H 2529.63 4.84526 -2.64459 0
M  V30 26972 H 2530.11 4.26442 -1.0509 0
M  V30 26973 H 2530.71 3.43749 -2.50433 0
M  V30 26974 N 2529.03 1.16688 1.05932 0
M  V30 26975 C 2529.96 0.899986 2.15459 0
M  V30 26976 C 2530.94 -0.155124 1.69391 0
M  V30 26977 O 2532.13 -0.00645279 1.94199 0
M  V30 26978 C 2529.26 0.404301 3.44939 0
M  V30 26979 C 2528.21 1.39774 4.04533 0
M  V30 26980 C 2527.54 0.760309 5.29267 0
M  V30 26981 C 2528.84 2.76853 4.42888 0
M  V30 26982 H 2530.53 1.81592 2.38043 0
M  V30 26983 H 2528.08 0.874534 1.14402 0
M  V30 26984 H 2530.03 0.205045 4.20901 0
M  V30 26985 H 2528.75 -0.54715 3.21984 0
M  V30 26986 H 2527.41 1.58361 3.30632 0
M  V30 26987 H 2527.06 -0.197743 5.02611 0
M  V30 26988 H 2526.76 1.42342 5.70099 0
M  V30 26989 H 2528.28 0.571157 6.07923 0
M  V30 26990 H 2529.7 2.62028 5.09916 0
M  V30 26991 H 2528.09 3.39672 4.94715 0
M  V30 26992 H 2529.16 3.31829 3.53578 0
M  V30 26993 N 2530.51 -1.24529 0.96594 0
M  V30 26994 C 2531.76 -1.92173 0.625627 0
M  V30 26995 C 2532.08 -1.75903 -0.841621 0
M  V30 26996 O 2531.35 -1.12951 -1.60059 0
M  V30 26997 H 2529.93 -0.711226 0.228401 0
M  V30 26998 H 2532.59 -1.51459 1.22663 0
M  V30 26999 H 2531.68 -2.99882 0.864706 0
M  V30 27000 N 2531.99 -0.735845 -1.39367 0
M  V30 27001 C 2533.21 -0.294429 -2.04794 0
M  V30 27002 C 2533.63 1.07104 -1.5548 0
M  V30 27003 O 2532.99 1.67694 -0.720067 0
M  V30 27004 C 2533.04 -0.288134 -3.6035 0
M  V30 27005 O 2532.76 -1.59971 -4.07849 0
M  V30 27006 C 2534.26 0.169344 -4.42976 0
M  V30 27007 H 2531.48 -0.128562 -0.658569 0
M  V30 27008 H 2534.02 -0.999732 -1.78397 0
M  V30 27009 H 2532.18 0.368287 -3.85645 0
M  V30 27010 H 2532.59 -1.51384 -5.02179 0
M  V30 27011 H 2534.07 0.12259 -5.51864 0
M  V30 27012 H 2534.54 1.21464 -4.2207 0
M  V30 27013 H 2535.15 -0.457543 -4.22832 0
M  V30 27014 N 2533.46 1.49999 -0.483543 0
M  V30 27015 C 2534.69 2.068 0.0644468 0
M  V30 27016 C 2535.11 1.34598 1.32397 0
M  V30 27017 O 2534.46 0.418977 1.77626 0
M  V30 27018 C 2534.51 3.59899 0.339863 0
M  V30 27019 O 2534.24 4.29381 -0.86971 0
M  V30 27020 C 2535.74 4.33361 0.933439 0
M  V30 27021 H 2532.96 0.670881 -0.0126451 0
M  V30 27022 H 2535.5 1.93007 -0.675897 0
M  V30 27023 H 2533.66 3.73452 1.03016 0
M  V30 27024 H 2534.07 5.208 -0.621882 0
M  V30 27025 H 2535.54 5.41415 1.07584 0
M  V30 27026 H 2536.02 3.94679 1.92678 0
M  V30 27027 H 2536.63 4.2437 0.281147 0
M  V30 27028 N 2534.94 0.216646 1.56104 0
M  V30 27029 C 2536.17 -0.420767 2.0227 0
M  V30 27030 C 2536.58 -1.54238 1.09577 0
M  V30 27031 O 2535.92 -1.83445 0.096763 0
M  V30 27032 C 2535.98 -1.01799 3.44786 0
M  V30 27033 C 2535.65 -0.0324351 4.56988 0
M  V30 27034 C 2536.65 0.766145 5.14224 0
M  V30 27035 C 2534.33 0.0848974 5.02228 0
M  V30 27036 C 2536.32 1.66881 6.15166 0
M  V30 27037 C 2534.01 0.9911 6.03009 0
M  V30 27038 C 2535.01 1.78161 6.59354 0
M  V30 27039 O 2534.7 2.67258 7.58174 0
M  V30 27040 H 2534.43 -0.107764 0.667355 0
M  V30 27041 H 2536.98 0.32907 2.02747 0
M  V30 27042 H 2535.21 -1.81683 3.41362 0
M  V30 27043 H 2536.9 -1.5623 3.74629 0
M  V30 27044 H 2537.67 0.68592 4.80125 0
M  V30 27045 H 2533.55 -0.520268 4.58055 0
M  V30 27046 H 2537.09 2.28626 6.59072 0
M  V30 27047 H 2532.99 1.07236 6.3653 0
M  V30 27048 H 2533.76 2.61279 7.75678 0
M  V30 27049 N 2536.42 -1.57498 -0.0567885 0
M  V30 27050 C 2537.67 -1.87159 -0.751968 0
M  V30 27051 C 2537.98 -0.811406 -1.77976 0
M  V30 27052 O 2539.19 -0.996338 -2.52558 0
M  V30 27053 C 2537.64 -3.32042 -1.38838 0
M  V30 27054 C 2537.25 -4.46225 -0.398377 0
M  V30 27055 C 2539 -3.70885 -2.06505 0
M  V30 27056 C 2536.9 -5.82156 -1.04156 0
M  V30 27057 H 2535.83 -0.698227 -0.284597 0
M  V30 27058 H 2538.48 -1.83499 -0.00558046 0
M  V30 27059 H 2536.87 -3.3036 -2.18354 0
M  V30 27060 H 2538.04 -4.59328 0.368058 0
M  V30 27061 H 2536.35 -4.16034 0.174665 0
M  V30 27062 H 2538.95 -4.69745 -2.55429 0
M  V30 27063 H 2539.29 -3.0145 -2.87112 0
M  V30 27064 H 2539.83 -3.74623 -1.33801 0
M  V30 27065 H 2536.57 -6.54921 -0.275498 0
M  V30 27066 H 2536.09 -5.72826 -1.7785 0
M  V30 27067 H 2537.77 -6.27985 -1.55704 0
M  V30 27068 N 2537.9 0.328509 -1.54138 0
M  V30 27069 C 2539.13 1.08512 -1.75808 0
M  V30 27070 C 2539.54 1.82355 -0.504312 0
M  V30 27071 O 2538.88 1.75754 0.53442 0
M  V30 27072 C 2538.94 2.13243 -2.89427 0
M  V30 27073 C 2538.6 1.58842 -4.28507 0
M  V30 27074 C 2539.6 1.0328 -5.09538 0
M  V30 27075 C 2537.29 1.63235 -4.75037 0
M  V30 27076 C 2539.28 0.528338 -6.35207 0
M  V30 27077 C 2536.97 1.12401 -6.00674 0
M  V30 27078 C 2537.97 0.572942 -6.80593 0
M  V30 27079 O 2537.65 0.0722279 -8.03868 0
M  V30 27080 H 2537.39 0.328818 -0.590639 0
M  V30 27081 H 2539.94 0.381833 -2.0182 0
M  V30 27082 H 2538.17 2.87174 -2.58975 0
M  V30 27083 H 2539.86 2.74587 -2.98926 0
M  V30 27084 H 2540.62 0.991977 -4.74747 0
M  V30 27085 H 2536.5 2.05067 -4.12878 0
M  V30 27086 H 2540.05 0.0975548 -6.97532 0
M  V30 27087 H 2535.94 1.16189 -6.34957 0
M  V30 27088 H 2536.71 0.188114 -8.18284 0
M  V30 27089 N 2539.38 1.46127 0.590316 0
M  V30 27090 C 2540.65 1.41518 1.35026 0
M  V30 27091 C 2541.03 0.0946843 2.10888 0
M  V30 27092 O 2540.38 -0.923656 2.09 0
M  V30 27093 C 2540.59 2.64001 2.28264 0
M  V30 27094 C 2541.94 3.09826 2.90332 0
M  V30 27095 O 2542.96 2.64496 2.3858 0
M  V30 27096 O 2541.82 3.88542 3.84314 0
M  V30 27097 H 2538.92 0.562424 0.606307 0
M  V30 27098 H 2541.46 1.58282 0.611966 0
M  V30 27099 H 2540.23 3.51674 1.71585 0
M  V30 27100 H 2539.86 2.49658 3.09446 0
M  V30 27101 N 2540.85 -0.834306 1.33705 0
M  V30 27102 C 2542.1 -1.58985 1.2542 0
M  V30 27103 C 2542.43 -1.93676 -0.178835 0
M  V30 27104 O 2541.68 -1.59267 -1.13721 0
M  V30 27105 C 2541.98 -2.90688 2.07931 0
M  V30 27106 C 2541.65 -2.75339 3.5707 0
M  V30 27107 C 2540.31 -2.7086 3.97729 0
M  V30 27108 C 2542.66 -2.5982 4.51822 0
M  V30 27109 C 2539.99 -2.48769 5.31348 0
M  V30 27110 C 2542.34 -2.39262 5.85608 0
M  V30 27111 C 2541.01 -2.33188 6.25444 0
M  V30 27112 H 2540.28 -0.581766 0.458944 0
M  V30 27113 H 2542.92 -0.966232 1.65337 0
M  V30 27114 H 2541.23 -3.5728 1.60806 0
M  V30 27115 H 2542.93 -3.4821 1.98874 0
M  V30 27116 H 2539.52 -2.79659 3.2479 0
M  V30 27117 H 2543.7 -2.62311 4.21315 0
M  V30 27118 H 2538.96 -2.42516 5.61245 0
M  V30 27119 H 2543.13 -2.26238 6.58627 0
M  V30 27120 H 2540.76 -2.1583 7.28918 0
M  V30 27121 N 2542.33 -1.17248 -1.05312 0
M  V30 27122 C 2543.74 -0.966258 -1.59751 0
M  V30 27123 C 2544.09 0.487344 -1.90051 0
M  V30 27124 O 2543.22 1.36242 -1.68128 0
M  V30 27125 C 2543.81 -1.74764 -2.90246 0
M  V30 27126 C 2542.37 -1.58612 -3.41349 0
M  V30 27127 C 2541.52 -1.75006 -2.151 0
M  V30 27128 H 2544.47 -1.31975 -0.881383 0
M  V30 27129 H 2544.49 -1.22931 -3.60095 0
M  V30 27130 H 2544 -2.80555 -2.68161 0
M  V30 27131 H 2542.1 -0.55305 -3.68473 0
M  V30 27132 H 2542.22 -2.37631 -4.16015 0
M  V30 27133 H 2540.58 -1.17837 -2.25802 0
M  V30 27134 H 2541.36 -2.82206 -1.95486 0
M  V30 27135 N 2543.81 1.24015 -0.972531 0
M  V30 27136 C 2544.72 2.28892 -0.51434 0
M  V30 27137 C 2545.74 1.68678 0.427048 0
M  V30 27138 O 2546.91 1.9917 0.298904 0
M  V30 27139 C 2543.98 3.46214 0.183537 0
M  V30 27140 C 2543.04 4.21813 -0.798276 0
M  V30 27141 C 2542.27 5.33533 -0.133608 0
M  V30 27142 O 2542.49 5.60139 1.07704 0
M  V30 27143 O 2541.43 5.96175 -0.828208 0
M  V30 27144 H 2545.25 2.70212 -1.38633 0
M  V30 27145 H 2542.84 1.29798 -0.739792 0
M  V30 27146 H 2544.72 4.17454 0.57536 0
M  V30 27147 H 2543.4 3.06862 1.03042 0
M  V30 27148 H 2542.3 3.52929 -1.24065 0
M  V30 27149 H 2543.64 4.64994 -1.61372 0
M  V30 27150 N 2545.29 0.743226 1.38974 0
M  V30 27151 C 2546.22 0.0572566 2.28128 0
M  V30 27152 C 2547.2 -0.739156 1.44828 0
M  V30 27153 O 2548.38 -0.719978 1.74208 0
M  V30 27154 C 2545.51 -0.925944 3.25797 0
M  V30 27155 C 2544.56 -0.217024 4.25947 0
M  V30 27156 S 2545.39 1.07486 5.24602 0
M  V30 27157 C 2546.55 0.0944645 6.25829 0
M  V30 27158 H 2546.78 0.813296 2.85959 0
M  V30 27159 H 2544.31 0.535366 1.44821 0
M  V30 27160 H 2546.27 -1.4879 3.82586 0
M  V30 27161 H 2544.93 -1.65488 2.66969 0
M  V30 27162 H 2544.12 -0.961285 4.94748 0
M  V30 27163 H 2543.73 0.273125 3.73001 0
M  V30 27164 H 2546.02 -0.743121 6.73412 0
M  V30 27165 H 2546.96 0.749837 7.04119 0
M  V30 27166 H 2547.37 -0.281607 5.63797 0
M  V30 27167 N 2546.77 -1.4974 0.491491 0
M  V30 27168 C 2548.01 -2.02421 -0.05639 0
M  V30 27169 C 2548.34 -1.37195 -1.37869 0
M  V30 27170 O 2547.6 -0.493542 -1.89374 0
M  V30 27171 C 2547.9 -3.56399 -0.267266 0
M  V30 27172 C 2547.56 -4.40213 0.975853 0
M  V30 27173 C 2546.22 -4.62837 1.31664 0
M  V30 27174 C 2548.58 -4.89036 1.80259 0
M  V30 27175 C 2545.9 -5.31528 2.48385 0
M  V30 27176 C 2548.26 -5.5901 2.96126 0
M  V30 27177 C 2546.92 -5.79882 3.30595 0
M  V30 27178 H 2546.19 -0.740713 -0.0206346 0
M  V30 27179 H 2548.84 -1.80141 0.649718 0
M  V30 27180 H 2547.14 -3.77306 -1.05581 0
M  V30 27181 H 2548.84 -3.94745 -0.70548 0
M  V30 27182 H 2545.43 -4.22839 0.700389 0
M  V30 27183 H 2549.61 -4.71394 1.55247 0
M  V30 27184 H 2544.87 -5.45892 2.7534 0
M  V30 27185 H 2549.04 -5.95817 3.6052 0
M  V30 27186 H 2546.67 -6.32884 4.21143 0
M  V30 27187 N 2548.24 -0.224922 -1.55987 0
M  V30 27188 C 2549.66 0.130398 -1.59066 0
M  V30 27189 C 2549.86 1.58688 -1.24179 0
M  V30 27190 O 2548.92 2.32764 -0.978633 0
M  V30 27191 C 2550.23 -0.198935 -3.00041 0
M  V30 27192 C 2551.78 -0.141446 -3.1268 0
M  V30 27193 C 2552.25 -0.444502 -4.55838 0
M  V30 27194 N 2553.74 -0.394196 -4.6152 0
M  V30 27195 C 2554.48 -0.602138 -5.7023 0
M  V30 27196 N 2553.97 -0.872035 -6.8729 0
M  V30 27197 N 2555.77 -0.534344 -5.59554 0
M  V30 27198 H 2547.92 -1.17501 -1.76939 0
M  V30 27199 H 2550.18 -0.471212 -0.822596 0
M  V30 27200 H 2549.89 -1.20995 -3.30232 0
M  V30 27201 H 2549.76 0.48447 -3.74076 0
M  V30 27202 H 2552.15 0.860215 -2.82284 0
M  V30 27203 H 2552.23 -0.858377 -2.40968 0
M  V30 27204 H 2551.87 -1.44362 -4.86952 0
M  V30 27205 H 2551.8 0.29366 -5.25781 0
M  V30 27206 H 2554.29 -0.193422 -3.77405 0
M  V30 27207 H 2554.61 -1.01871 -7.66056 0
M  V30 27208 H 2552.95 -0.909266 -6.89026 0
M  V30 27209 H 2556.14 -0.323694 -4.66979 0
M  V30 27210 H 2556.32 -0.699806 -6.4421 0
M  V30 27211 N 2549.72 1.57526 0.0484352 0
M  V30 27212 C 2550.65 2.02043 1.08219 0
M  V30 27213 C 2551.67 0.930036 1.3362 0
M  V30 27214 O 2552.86 1.20763 1.31448 0
M  V30 27215 C 2549.96 2.36421 2.42814 0
M  V30 27216 C 2549.13 3.676 2.37042 0
M  V30 27217 C 2548.19 3.89384 3.5393 0
M  V30 27218 O 2547.21 4.60687 3.343 0
M  V30 27219 N 2548.42 3.33528 4.7512 0
M  V30 27220 H 2551.18 2.91341 0.702895 0
M  V30 27221 H 2548.74 1.6016 0.236717 0
M  V30 27222 H 2550.73 2.48147 3.19695 0
M  V30 27223 H 2549.3 1.52893 2.72658 0
M  V30 27224 H 2548.52 3.66409 1.45388 0
M  V30 27225 H 2549.81 4.5369 2.3031 0
M  V30 27226 H 2549.21 2.75697 4.93971 0
M  V30 27227 H 2547.77 3.50666 5.49433 0
M  V30 27228 N 2551.2 -0.32033 1.5431 0
M  V30 27229 C 2552.16 -1.37736 1.83198 0
M  V30 27230 C 2553.16 -1.44573 0.703931 0
M  V30 27231 O 2554.35 -1.44545 0.97224 0
M  V30 27232 C 2551.49 -2.76434 1.99491 0
M  V30 27233 H 2552.68 -1.13375 2.77644 0
M  V30 27234 H 2550.23 -0.555986 1.46077 0
M  V30 27235 H 2550.97 -3.06046 1.07267 0
M  V30 27236 H 2550.75 -2.72865 2.8158 0
M  V30 27237 H 2552.24 -3.52898 2.23277 0
M  V30 27238 N 2552.68 -1.46438 -0.582558 0
M  V30 27239 C 2553.61 -1.59874 -1.70184 0
M  V30 27240 C 2554.59 -0.449071 -1.64065 0
M  V30 27241 O 2555.77 -0.675332 -1.82079 0
M  V30 27242 C 2552.9 -1.58886 -3.08824 0
M  V30 27243 C 2551.86 -2.72824 -3.29774 0
M  V30 27244 C 2551.18 -2.56898 -4.68943 0
M  V30 27245 C 2552.48 -4.14646 -3.17594 0
M  V30 27246 H 2554.18 -2.53569 -1.59196 0
M  V30 27247 H 2551.72 -1.22033 -0.764451 0
M  V30 27248 H 2553.68 -1.6688 -3.86948 0
M  V30 27249 H 2552.4 -0.617362 -3.20712 0
M  V30 27250 H 2551.06 -2.643 -2.54049 0
M  V30 27251 H 2550.71 -1.57831 -4.77596 0
M  V30 27252 H 2550.41 -3.3332 -4.83913 0
M  V30 27253 H 2551.93 -2.66783 -5.49235 0
M  V30 27254 H 2553.35 -4.24281 -3.85563 0
M  V30 27255 H 2551.74 -4.91656 -3.44085 0
M  V30 27256 H 2552.81 -4.34791 -2.14673 0
M  V30 27257 N 2554.16 0.827204 -1.34146 0
M  V30 27258 C 2555.4 1.58317 -1.26261 0
M  V30 27259 C 2555.73 1.93768 0.168561 0
M  V30 27260 O 2554.99 1.59868 1.12874 0
M  V30 27261 C 2555.29 2.89581 -2.09469 0
M  V30 27262 C 2554.95 2.73441 -3.58526 0
M  V30 27263 C 2553.61 2.68747 -3.9916 0
M  V30 27264 C 2555.97 2.5742 -4.53193 0
M  V30 27265 C 2553.29 2.45947 -5.3266 0
M  V30 27266 C 2555.65 2.36153 -5.86869 0
M  V30 27267 C 2554.31 2.29868 -6.26671 0
M  V30 27268 H 2553.58 0.579324 -0.462023 0
M  V30 27269 H 2556.23 0.95745 -1.65847 0
M  V30 27270 H 2554.53 3.56422 -1.62698 0
M  V30 27271 H 2556.23 3.4715 -2.00718 0
M  V30 27272 H 2552.82 2.77933 -3.26269 0
M  V30 27273 H 2557 2.60073 -4.227 0
M  V30 27274 H 2552.26 2.39536 -5.62523 0
M  V30 27275 H 2556.43 2.22742 -6.59817 0
M  V30 27276 H 2554.06 2.11962 -7.30052 0
M  V30 27277 N 2555.63 1.17805 1.04688 0
M  V30 27278 C 2556.58 0.899381 2.12555 0
M  V30 27279 C 2557.55 -0.158742 1.6534 0
M  V30 27280 O 2558.74 -0.0204462 1.90789 0
M  V30 27281 C 2555.88 0.424375 3.42481 0
M  V30 27282 C 2554.99 1.5472 4.03343 0
M  V30 27283 C 2554.12 1.02556 5.21206 0
M  V30 27284 C 2553.16 2.12349 5.74086 0
M  V30 27285 N 2552.3 1.61624 6.83244 0
M  V30 27286 H 2557.14 1.82305 2.35731 0
M  V30 27287 H 2554.68 0.909179 1.15639 0
M  V30 27288 H 2556.64 0.130495 4.16996 0
M  V30 27289 H 2555.27 -0.462321 3.19472 0
M  V30 27290 H 2554.32 1.9567 3.26217 0
M  V30 27291 H 2555.63 2.37509 4.38624 0
M  V30 27292 H 2554.78 0.685824 6.02811 0
M  V30 27293 H 2553.52 0.167169 4.87413 0
M  V30 27294 H 2552.53 2.47174 4.91106 0
M  V30 27295 H 2553.75 2.98612 6.09924 0
M  V30 27296 H 2551.7 0.780647 6.51339 0
M  V30 27297 H 2551.62 2.38016 7.17554 0
M  V30 27298 H 2552.88 1.30559 7.68489 0
M  V30 27299 N 2557.11 -1.23497 0.979094 0
M  V30 27300 C 2558.04 -2.27226 0.537646 0
M  V30 27301 C 2559.02 -1.64614 -0.42851 0
M  V30 27302 O 2560.21 -1.91509 -0.322157 0
M  V30 27303 C 2557.34 -3.46922 -0.161991 0
M  V30 27304 C 2556.29 -4.21878 0.721317 0
M  V30 27305 C 2555.62 -5.34586 -0.110461 0
M  V30 27306 C 2556.92 -4.82013 2.01149 0
M  V30 27307 H 2558.61 -2.64404 1.40467 0
M  V30 27308 H 2556.16 -1.27101 0.676863 0
M  V30 27309 H 2558.11 -4.18633 -0.482119 0
M  V30 27310 H 2556.84 -3.08801 -1.06345 0
M  V30 27311 H 2555.49 -3.51983 1.02488 0
M  V30 27312 H 2555.14 -4.92706 -1.01242 0
M  V30 27313 H 2554.84 -5.85657 0.477428 0
M  V30 27314 H 2556.37 -6.09119 -0.424999 0
M  V30 27315 H 2557.78 -5.45738 1.75622 0
M  V30 27316 H 2556.18 -5.43365 2.54705 0
M  V30 27317 H 2557.25 -4.02831 2.69916 0
M  V30 27318 N 2558.59 -0.750586 -1.38578 0
M  V30 27319 C 2559.84 -0.314806 -2.00949 0
M  V30 27320 C 2560.19 1.0905 -1.58511 0
M  V30 27321 O 2559.49 1.73579 -0.81123 0
M  V30 27322 C 2559.68 -0.372435 -3.55454 0
M  V30 27323 C 2559.51 -1.7818 -4.12895 0
M  V30 27324 C 2558.28 -2.39765 -4.44793 0
M  V30 27325 C 2560.48 -2.73797 -4.35361 0
M  V30 27326 N 2558.46 -3.72694 -4.87824 0
M  V30 27327 C 2559.83 -3.91487 -4.80768 0
M  V30 27328 C 2561.88 -2.71359 -4.17455 0
M  V30 27329 C 2560.59 -5.07093 -5.10146 0
M  V30 27330 C 2562.61 -3.8612 -4.47956 0
M  V30 27331 C 2561.98 -5.02548 -4.93584 0
M  V30 27332 H 2558.07 -0.161789 -0.765081 0
M  V30 27333 H 2560.66 -0.979896 -1.68244 0
M  V30 27334 H 2558.83 0.262372 -3.87513 0
M  V30 27335 H 2560.56 0.0833768 -4.04614 0
M  V30 27336 H 2557.32 -1.91556 -4.33132 0
M  V30 27337 H 2557.74 -4.40982 -5.13677 0
M  V30 27338 H 2562.38 -1.8253 -3.81369 0
M  V30 27339 H 2560.1 -5.96538 -5.45131 0
M  V30 27340 H 2563.69 -3.85549 -4.3571 0
M  V30 27341 H 2562.57 -5.89876 -5.16736 0
M  V30 27342 N 2560.07 1.49477 -0.499425 0
M  V30 27343 C 2561.32 2.02049 0.0455641 0
M  V30 27344 C 2561.64 1.38141 1.3763 0
M  V30 27345 O 2560.91 0.536199 1.88419 0
M  V30 27346 H 2559.49 0.746737 0.0198285 0
M  V30 27347 H 2562.15 1.83517 -0.656307 0
M  V30 27348 H 2561.25 3.11601 0.17639 0
M  V30 27349 N 2561.55 0.233191 1.55865 0
M  V30 27350 C 2562.77 -0.402871 2.0345 0
M  V30 27351 C 2563.2 -1.51734 1.11168 0
M  V30 27352 O 2562.56 -1.81013 0.102028 0
M  V30 27353 C 2562.6 -0.900839 3.49167 0
M  V30 27354 O 2561.71 -2.01141 3.60022 0
M  V30 27355 H 2561.05 -0.089691 0.657915 0
M  V30 27356 H 2563.58 0.355236 2.01493 0
M  V30 27357 H 2563.59 -1.20764 3.89718 0
M  V30 27358 H 2562.26 -0.0852158 4.15813 0
M  V30 27359 H 2560.84 -1.71036 3.31363 0
M  V30 27360 N 2563.03 -1.57549 -0.0400806 0
M  V30 27361 C 2564.44 -1.77197 -0.588066 0
M  V30 27362 C 2564.79 -0.862863 -1.76208 0
M  V30 27363 O 2563.91 -0.0548769 -2.1633 0
M  V30 27364 C 2564.51 -3.21341 -1.07358 0
M  V30 27365 C 2563.07 -3.42223 -1.56717 0
M  V30 27366 C 2562.21 -2.72748 -0.500362 0
M  V30 27367 H 2565.16 -1.57605 0.186147 0
M  V30 27368 H 2565.19 -3.27248 -1.94137 0
M  V30 27369 H 2564.7 -3.87482 -0.218906 0
M  V30 27370 H 2562.8 -2.81242 -2.44405 0
M  V30 27371 H 2562.91 -4.50799 -1.62226 0
M  V30 27372 H 2561.28 -2.36205 -0.952853 0
M  V30 27373 H 2562.06 -3.41565 0.344659 0
M  V30 27374 N 2564.5 0.312142 -1.54478 0
M  V30 27375 C 2565.78 1.06764 -1.63893 0
M  V30 27376 C 2566.16 2.05569 -0.480064 0
M  V30 27377 O 2565.51 2.224 0.524448 0
M  V30 27378 C 2565.72 1.75943 -3.01405 0
M  V30 27379 C 2567.07 2.28548 -3.57842 0
M  V30 27380 O 2568.09 1.85992 -3.03785 0
M  V30 27381 O 2566.95 3.06489 -4.52467 0
M  V30 27382 H 2564.04 0.492804 -0.664133 0
M  V30 27383 H 2566.59 0.31112 -1.66824 0
M  V30 27384 H 2565.36 1.04138 -3.77188 0
M  V30 27385 H 2564.98 2.58378 -3.02203 0
M  V30 27386 N 2565.98 1.46745 0.574784 0
M  V30 27387 C 2566.93 1.57908 1.68326 0
M  V30 27388 C 2567.9 0.422955 1.60625 0
M  V30 27389 O 2569.08 0.640742 1.7972 0
M  V30 27390 C 2566.22 1.5828 3.06662 0
M  V30 27391 C 2565.34 2.84683 3.2493 0
M  V30 27392 C 2564.47 2.76507 4.53561 0
M  V30 27393 C 2563.51 3.97814 4.652 0
M  V30 27394 N 2562.65 3.87977 5.85165 0
M  V30 27395 H 2567.49 2.52589 1.58122 0
M  V30 27396 H 2565.02 1.25305 0.77053 0
M  V30 27397 H 2566.98 1.5648 3.86743 0
M  V30 27398 H 2565.61 0.671249 3.15744 0
M  V30 27399 H 2564.66 2.96428 2.384 0
M  V30 27400 H 2565.98 3.74566 3.29397 0
M  V30 27401 H 2565.13 2.72857 5.4188 0
M  V30 27402 H 2563.87 1.84278 4.51545 0
M  V30 27403 H 2562.87 4.01787 3.75296 0
M  V30 27404 H 2564.1 4.91148 4.68988 0
M  V30 27405 H 2562.05 2.9854 5.84132 0
M  V30 27406 H 2561.96 4.71521 5.90935 0
M  V30 27407 H 2563.23 3.88315 6.75893 0
M  V30 27408 N 2567.46 -0.820078 1.34583 0
M  V30 27409 C 2568.69 -1.60578 1.29994 0
M  V30 27410 C 2569.1 -1.8877 -0.127555 0
M  V30 27411 O 2568.44 -1.48167 -1.08592 0
M  V30 27412 C 2568.5 -2.97006 2.02553 0
M  V30 27413 C 2568.17 -2.91695 3.51799 0
M  V30 27414 C 2569.16 -2.66079 4.46652 0
M  V30 27415 C 2566.85 -3.11238 3.94254 0
M  V30 27416 C 2568.84 -2.60061 5.81934 0
M  V30 27417 C 2566.53 -3.04844 5.29635 0
M  V30 27418 C 2567.53 -2.79289 6.23287 0
M  V30 27419 O 2567.22 -2.72834 7.56186 0
M  V30 27420 H 2566.95 -0.505748 0.448548 0
M  V30 27421 H 2569.5 -1.02819 1.77813 0
M  V30 27422 H 2567.73 -3.56695 1.49351 0
M  V30 27423 H 2569.42 -3.58037 1.91217 0
M  V30 27424 H 2570.19 -2.50713 4.15172 0
M  V30 27425 H 2566.07 -3.30144 3.21755 0
M  V30 27426 H 2569.61 -2.40035 6.55003 0
M  V30 27427 H 2565.51 -3.19764 5.60733 0
M  V30 27428 H 2566.27 -2.8854 7.65955 0
M  V30 27429 N 2568.94 -1.18359 -1.04062 0
M  V30 27430 C 2570.35 -0.983148 -1.58717 0
M  V30 27431 C 2570.7 0.46716 -1.90557 0
M  V30 27432 O 2569.82 1.34451 -1.69564 0
M  V30 27433 C 2570.42 -1.77833 -2.88376 0
M  V30 27434 C 2568.98 -1.62224 -3.39647 0
M  V30 27435 C 2568.13 -1.77278 -2.13232 0
M  V30 27436 H 2571.08 -1.32902 -0.867335 0
M  V30 27437 H 2571.1 -1.26744 -3.58771 0
M  V30 27438 H 2570.61 -2.83383 -2.65171 0
M  V30 27439 H 2568.71 -0.592101 -3.67865 0
M  V30 27440 H 2568.82 -2.4203 -4.13471 0
M  V30 27441 H 2567.19 -1.20225 -2.2454 0
M  V30 27442 H 2567.97 -2.84263 -1.92482 0
M  V30 27443 N 2570.42 1.22976 -0.98563 0
M  V30 27444 C 2571.36 2.24635 -0.529864 0
M  V30 27445 C 2572.33 1.6033 0.434 0
M  V30 27446 O 2573.52 1.87739 0.340381 0
M  V30 27447 C 2570.66 3.44745 0.156472 0
M  V30 27448 C 2569.77 4.2359 -0.848271 0
M  V30 27449 C 2568.91 5.31025 -0.136203 0
M  V30 27450 C 2567.94 6.01583 -1.12981 0
M  V30 27451 N 2567.08 7.00679 -0.446538 0
M  V30 27452 H 2571.92 2.62985 -1.40153 0
M  V30 27453 H 2569.46 1.29258 -0.702191 0
M  V30 27454 H 2571.42 4.13271 0.571252 0
M  V30 27455 H 2570.05 3.0718 0.991971 0
M  V30 27456 H 2569.1 3.54431 -1.38141 0
M  V30 27457 H 2570.41 4.72266 -1.6052 0
M  V30 27458 H 2569.56 6.05771 0.335677 0
M  V30 27459 H 2568.3 4.83305 0.653288 0
M  V30 27460 H 2567.31 5.25625 -1.61239 0
M  V30 27461 H 2568.53 6.51392 -1.92005 0
M  V30 27462 H 2566.48 6.55201 0.323648 0
M  V30 27463 H 2566.4 7.47324 -1.14204 0
M  V30 27464 H 2567.66 7.795 0.00277995 0
M  V30 27465 N 2571.89 0.757924 1.38178 0
M  V30 27466 C 2573.17 0.24134 1.94105 0
M  V30 27467 C 2573.55 -1.26119 1.69285 0
M  V30 27468 O 2572.9 -2.03775 1.03382 0
M  V30 27469 C 2573.11 0.59973 3.43808 0
M  V30 27470 C 2574.46 0.561791 4.20867 0
M  V30 27471 O 2575.48 0.538284 3.52109 0
M  V30 27472 O 2574.34 0.576574 5.4345 0
M  V30 27473 H 2571.43 0.0518187 0.825375 0
M  V30 27474 H 2573.98 0.838341 1.47546 0
M  V30 27475 H 2572.75 1.63726 3.55401 0
M  V30 27476 H 2572.37 -0.0250498 3.97592 0
M  V30 27477 N 2573.37 -1.4921 0.507345 0
M  V30 27478 C 2574.62 -2.01666 -0.0367961 0
M  V30 27479 C 2574.93 -1.39159 -1.37456 0
M  V30 27480 O 2576.14 -1.82979 -2.00576 0
M  V30 27481 C 2574.6 -3.59713 -0.116026 0
M  V30 27482 C 2574.2 -4.31196 1.21548 0
M  V30 27483 C 2575.95 -4.20092 -0.610195 0
M  V30 27484 C 2573.86 -5.81117 1.09807 0
M  V30 27485 H 2572.79 -0.753796 -0.0175244 0
M  V30 27486 H 2575.44 -1.71688 0.647721 0
M  V30 27487 H 2573.82 -3.86434 -0.865132 0
M  V30 27488 H 2574.99 -4.16169 1.97837 0
M  V30 27489 H 2573.31 -3.8259 1.64359 0
M  V30 27490 H 2575.9 -5.29889 -0.715649 0
M  V30 27491 H 2576.25 -3.83883 -1.61057 0
M  V30 27492 H 2576.78 -3.97714 0.0825615 0
M  V30 27493 H 2573.52 -6.21861 2.07291 0
M  V30 27494 H 2573.04 -5.98619 0.376164 0
M  V30 27495 H 2574.72 -6.42288 0.779394 0
M  V30 27496 N 2574.85 -0.241454 -1.55739 0
M  V30 27497 C 2575.78 0.654682 -2.24134 0
M  V30 27498 C 2576.76 1.18558 -1.21976 0
M  V30 27499 O 2577.95 1.22592 -1.50615 0
M  V30 27500 C 2575.08 1.85418 -2.93662 0
M  V30 27501 C 2574.03 1.45629 -4.02463 0
M  V30 27502 C 2573.36 2.73618 -4.59388 0
M  V30 27503 C 2574.66 0.631415 -5.18469 0
M  V30 27504 H 2576.35 0.0843827 -2.99281 0
M  V30 27505 H 2573.9 0.0391454 -1.43947 0
M  V30 27506 H 2575.85 2.4867 -3.40208 0
M  V30 27507 H 2574.57 2.44977 -2.15995 0
M  V30 27508 H 2573.23 0.84714 -3.56678 0
M  V30 27509 H 2572.88 3.31363 -3.78428 0
M  V30 27510 H 2572.58 2.47721 -5.3283 0
M  V30 27511 H 2574.1 3.37777 -5.08664 0
M  V30 27512 H 2575.52 1.1681 -5.61274 0
M  V30 27513 H 2573.92 0.468726 -5.98267 0
M  V30 27514 H 2574.99 -0.357591 -4.8358 0
M  V30 27515 N 2576.33 1.57568 0.0317248 0
M  V30 27516 C 2577.56 1.93408 0.734915 0
M  V30 27517 C 2577.97 0.84099 1.69035 0
M  V30 27518 O 2577.33 -0.182804 1.81582 0
M  V30 27519 C 2577.38 3.29172 1.49426 0
M  V30 27520 O 2577.1 4.34281 0.577184 0
M  V30 27521 C 2578.6 3.79277 2.29485 0
M  V30 27522 H 2575.82 0.638372 0.206694 0
M  V30 27523 H 2578.37 2.04498 -0.0099564 0
M  V30 27524 H 2576.52 3.19487 2.19104 0
M  V30 27525 H 2576.93 5.12632 1.10943 0
M  V30 27526 H 2578.41 4.7679 2.78164 0
M  V30 27527 H 2578.89 3.10334 3.10789 0
M  V30 27528 H 2579.49 3.92036 1.64887 0
M  V30 27529 N 2577.81 -0.303946 1.54641 0
M  V30 27530 C 2579.04 -1.05702 1.77513 0
M  V30 27531 C 2579.44 -1.8153 0.533259 0
M  V30 27532 O 2578.79 -1.76582 -0.506392 0
M  V30 27533 C 2578.85 -2.08611 2.92782 0
M  V30 27534 C 2578.51 -1.52005 4.3098 0
M  V30 27535 C 2579.51 -0.951611 5.11117 0
M  V30 27536 C 2577.2 -1.55657 4.77573 0
M  V30 27537 C 2579.19 -0.427216 6.35967 0
M  V30 27538 C 2576.88 -1.0283 6.02386 0
M  V30 27539 C 2577.87 -0.464593 6.81418 0
M  V30 27540 O 2577.56 0.0556696 8.03881 0
M  V30 27541 H 2577.29 -0.31938 0.595796 0
M  V30 27542 H 2579.85 -0.349677 2.02402 0
M  V30 27543 H 2578.08 -2.83018 2.63511 0
M  V30 27544 H 2579.77 -2.69797 3.03257 0
M  V30 27545 H 2580.53 -0.916323 4.76265 0
M  V30 27546 H 2576.41 -1.98472 4.16089 0
M  V30 27547 H 2579.96 0.0134288 6.97599 0
M  V30 27548 H 2575.85 -1.06073 6.36725 0
M  V30 27549 H 2576.62 -0.0579084 8.1848 0
M  V30 27550 N 2579.28 -1.47047 -0.566994 0
M  V30 27551 C 2580.51 -1.56768 -1.35024 0
M  V30 27552 C 2580.93 -0.214349 -1.87579 0
M  V30 27553 O 2580.28 0.79089 -1.64472 0
M  V30 27554 C 2580.34 -2.58511 -2.52694 0
M  V30 27555 O 2580.06 -3.88589 -2.02313 0
M  V30 27556 C 2581.56 -2.78322 -3.45038 0
M  V30 27557 H 2578.78 -0.529665 -0.411941 0
M  V30 27558 H 2581.32 -1.92587 -0.687798 0
M  V30 27559 H 2579.48 -2.25653 -3.14896 0
M  V30 27560 H 2579.89 -4.44101 -2.7906 0
M  V30 27561 H 2581.36 -3.53398 -4.24044 0
M  V30 27562 H 2581.84 -1.85791 -3.97968 0
M  V30 27563 H 2582.45 -3.12339 -2.8866 0
M  V30 27564 N 2580.76 0.812929 -1.35016 0
M  V30 27565 C 2581.67 1.9561 -1.29514 0
M  V30 27566 C 2582.69 1.72834 -0.201101 0
M  V30 27567 O 2583.86 1.9677 -0.429355 0
M  V30 27568 C 2580.93 3.30086 -1.06039 0
M  V30 27569 C 2579.99 3.65802 -2.24695 0
M  V30 27570 C 2579.22 4.9386 -2.02331 0
M  V30 27571 O 2579.45 5.61803 -0.986563 0
M  V30 27572 O 2578.38 5.27687 -2.89534 0
M  V30 27573 H 2582.21 2.03198 -2.25709 0
M  V30 27574 H 2579.79 0.94979 -1.15323 0
M  V30 27575 H 2581.67 4.10605 -0.947702 0
M  V30 27576 H 2580.35 3.23443 -0.128909 0
M  V30 27577 H 2579.26 2.85685 -2.41526 0
M  V30 27578 H 2580.59 3.77141 -3.16268 0
M  V30 27579 N 2582.24 1.18909 1.03433 0
M  V30 27580 C 2583.17 0.945486 2.13501 0
M  V30 27581 C 2584.15 -0.119159 1.69682 0
M  V30 27582 O 2585.34 0.0347411 1.94169 0
M  V30 27583 C 2582.47 0.477377 3.44003 0
M  V30 27584 C 2581.42 1.48323 4.01478 0
M  V30 27585 C 2580.75 0.872404 5.27535 0
M  V30 27586 C 2582.05 2.86185 4.36916 0
M  V30 27587 H 2583.74 1.86601 2.34138 0
M  V30 27588 H 2581.29 0.898604 1.12522 0
M  V30 27589 H 2583.24 0.294278 4.20371 0
M  V30 27590 H 2581.96 -0.478729 3.23072 0
M  V30 27591 H 2580.62 1.65338 3.27198 0
M  V30 27592 H 2580.27 -0.0910868 5.02918 0
M  V30 27593 H 2579.97 1.54403 5.66951 0
M  V30 27594 H 2581.49 0.699978 6.06575 0
M  V30 27595 H 2582.91 2.72785 5.04243 0
M  V30 27596 H 2581.31 3.50089 4.87399 0
M  V30 27597 H 2582.38 3.39254 3.4646 0
M  V30 27598 N 2583.72 -1.22452 0.992137 0
M  V30 27599 C 2584.96 -1.91463 0.668557 0
M  V30 27600 C 2585.3 -1.77079 -0.797281 0
M  V30 27601 O 2584.57 -1.13919 -1.57648 0
M  V30 27602 C 2584.86 -3.43702 1.0743 0
M  V30 27603 C 2584.71 -3.67139 2.59864 0
M  V30 27604 C 2586.03 -4.35611 0.626968 0
M  V30 27605 H 2583.15 -0.695313 0.244353 0
M  V30 27606 H 2585.79 -1.44343 1.23552 0
M  V30 27607 H 2583.94 -3.83965 0.591884 0
M  V30 27608 H 2585.61 -3.36284 3.1577 0
M  V30 27609 H 2583.85 -3.11446 3.01967 0
M  V30 27610 H 2584.52 -4.73754 2.83304 0
M  V30 27611 H 2587 -4.02859 1.04132 0
M  V30 27612 H 2585.88 -5.40806 0.939171 0
M  V30 27613 H 2586.14 -4.39569 -0.472379 0
M  V30 27614 N 2585.2 -0.765242 -1.37774 0
M  V30 27615 C 2586.13 -0.160994 -2.32944 0
M  V30 27616 C 2587.11 0.690488 -1.55455 0
M  V30 27617 O 2588.29 0.629286 -1.83722 0
M  V30 27618 C 2585.42 0.723971 -3.3967 0
M  V30 27619 C 2584.38 -0.0256925 -4.27992 0
M  V30 27620 C 2583.7 0.97829 -5.25674 0
M  V30 27621 C 2585 -1.20091 -5.08306 0
M  V30 27622 H 2586.7 -0.956019 -2.83726 0
M  V30 27623 H 2584.24 -0.461173 -1.36416 0
M  V30 27624 H 2586.2 1.15645 -4.05221 0
M  V30 27625 H 2584.92 1.55144 -2.87398 0
M  V30 27626 H 2583.58 -0.438876 -3.63964 0
M  V30 27627 H 2583.23 1.80014 -4.69685 0
M  V30 27628 H 2582.93 0.481275 -5.85626 0
M  V30 27629 H 2584.45 1.40984 -5.94101 0
M  V30 27630 H 2585.86 -0.845407 -5.67032 0
M  V30 27631 H 2584.26 -1.62957 -5.77551 0
M  V30 27632 H 2585.33 -2.00819 -4.41361 0
M  V30 27633 N 2586.67 1.48939 -0.515251 0
M  V30 27634 C 2587.95 1.95403 0.0878744 0
M  V30 27635 C 2588.33 1.45715 1.52743 0
M  V30 27636 O 2587.68 0.677131 2.18237 0
M  V30 27637 C 2587.89 3.48997 -0.0141669 0
M  V30 27638 C 2589.24 4.24326 0.152571 0
M  V30 27639 O 2590.26 3.56149 0.0603399 0
M  V30 27640 O 2589.12 5.45418 0.343744 0
M  V30 27641 H 2586.21 0.822363 0.0874492 0
M  V30 27642 H 2588.76 1.59524 -0.578803 0
M  V30 27643 H 2587.53 3.77839 -1.01752 0
M  V30 27644 H 2587.16 3.91531 0.692022 0
M  V30 27645 N 2588.15 0.249709 1.55609 0
M  V30 27646 C 2589.38 -0.381269 2.03865 0
M  V30 27647 C 2589.8 -1.50546 1.12771 0
M  V30 27648 O 2589.16 -1.80894 0.121221 0
M  V30 27649 C 2589.21 -0.863754 3.50102 0
M  V30 27650 O 2588.31 -1.97311 3.62135 0
M  V30 27651 H 2587.65 -0.0827079 0.658829 0
M  V30 27652 H 2590.18 0.376587 2.01104 0
M  V30 27653 H 2590.19 -1.16623 3.90977 0
M  V30 27654 H 2588.87 -0.0411085 4.1588 0
M  V30 27655 H 2587.45 -1.67512 3.33158 0
M  V30 27656 N 2589.63 -1.57583 -0.0233682 0
M  V30 27657 C 2590.56 -2.03739 -1.04991 0
M  V30 27658 C 2591.58 -0.951176 -1.32123 0
M  V30 27659 O 2592.77 -1.22839 -1.2951 0
M  V30 27660 C 2589.87 -2.40254 -2.39022 0
M  V30 27661 C 2589.04 -3.71324 -2.31164 0
M  V30 27662 C 2588.1 -3.94965 -3.47691 0
M  V30 27663 O 2587.12 -4.65947 -3.26928 0
M  V30 27664 N 2588.33 -3.41045 -4.69754 0
M  V30 27665 H 2591.09 -2.92422 -0.656456 0
M  V30 27666 H 2588.65 -1.60516 -0.211207 0
M  V30 27667 H 2590.64 -2.53202 -3.15707 0
M  V30 27668 H 2589.21 -1.57211 -2.70191 0
M  V30 27669 H 2588.43 -3.68676 -1.39541 0
M  V30 27670 H 2589.72 -4.57297 -2.23063 0
M  V30 27671 H 2589.12 -2.83521 -4.89523 0
M  V30 27672 H 2587.68 -3.59363 -5.43785 0
M  V30 27673 N 2591.11 0.29574 -1.548 0
M  V30 27674 C 2592.36 1.02825 -1.73987 0
M  V30 27675 C 2592.68 1.87619 -0.531439 0
M  V30 27676 O 2591.95 1.90562 0.454187 0
M  V30 27677 H 2590.53 0.382631 -0.641563 0
M  V30 27678 H 2593.19 0.325455 -1.92163 0
M  V30 27679 H 2592.29 1.67833 -2.63132 0
M  V30 27680 N 2592.59 1.47346 0.559187 0
M  V30 27681 C 2593.52 1.55741 1.68158 0
M  V30 27682 C 2594.53 0.443772 1.56635 0
M  V30 27683 O 2595.72 0.713287 1.63629 0
M  V30 27684 C 2592.82 1.44376 3.06609 0
M  V30 27685 C 2591.99 2.70274 3.43905 0
M  V30 27686 C 2591.05 2.52773 4.61511 0
M  V30 27687 O 2590.08 3.2658 4.66191 0
M  V30 27688 N 2591.28 1.6047 5.5788 0
M  V30 27689 H 2594.05 2.52525 1.61403 0
M  V30 27690 H 2591.61 1.437 0.745775 0
M  V30 27691 H 2593.6 1.30405 3.83114 0
M  V30 27692 H 2592.17 0.55682 3.07601 0
M  V30 27693 H 2591.39 2.99019 2.56868 0
M  V30 27694 H 2592.68 3.53858 3.65598 0
M  V30 27695 H 2592.08 0.99652 5.56854 0
M  V30 27696 H 2590.63 1.52452 6.3372 0
M  V30 27697 N 2594.07 -0.805758 1.35445 0
M  V30 27698 C 2595 -1.93224 1.31099 0
M  V30 27699 C 2595.98 -1.69088 0.185274 0
M  V30 27700 O 2597.16 -1.90439 0.380366 0
M  V30 27701 C 2594.29 -3.29981 1.08305 0
M  V30 27702 C 2593.25 -3.68601 2.17526 0
M  V30 27703 C 2592.57 -5.03529 1.79896 0
M  V30 27704 C 2593.87 -3.78892 3.59497 0
M  V30 27705 H 2595.57 -1.97118 2.25355 0
M  V30 27706 H 2593.11 -0.946977 1.08482 0
M  V30 27707 H 2595.06 -4.08389 1.03904 0
M  V30 27708 H 2593.79 -3.26431 0.104942 0
M  V30 27709 H 2592.45 -2.92478 2.21025 0
M  V30 27710 H 2592.1 -4.96484 0.807017 0
M  V30 27711 H 2591.8 -5.30339 2.5301 0
M  V30 27712 H 2593.32 -5.84376 1.77022 0
M  V30 27713 H 2594.73 -4.4753 3.58315 0
M  V30 27714 H 2593.13 -4.17173 4.31378 0
M  V30 27715 H 2594.2 -2.80424 3.95589 0
M  V30 27716 N 2595.54 -1.19456 -1.02801 0
M  V30 27717 C 2596.79 -0.999202 -1.76476 0
M  V30 27718 C 2597.12 0.468795 -1.88457 0
M  V30 27719 O 2596.4 1.34812 -1.402 0
M  V30 27720 C 2596.68 -1.66987 -3.19041 0
M  V30 27721 C 2596.53 -3.21157 -3.14926 0
M  V30 27722 C 2597.85 -1.39357 -4.17454 0
M  V30 27723 H 2594.97 -0.364404 -0.640608 0
M  V30 27724 H 2597.61 -1.47307 -1.20002 0
M  V30 27725 H 2595.76 -1.26697 -3.6726 0
M  V30 27726 H 2597.44 -3.70666 -2.74598 0
M  V30 27727 H 2595.68 -3.52656 -2.52619 0
M  V30 27728 H 2596.35 -3.6323 -4.15654 0
M  V30 27729 H 2598.83 -1.74289 -3.77839 0
M  V30 27730 H 2597.7 -1.88832 -5.15397 0
M  V30 27731 H 2597.96 -0.318891 -4.40948 0
M  V30 27732 N 2597.02 1.21924 -0.998617 0
M  V30 27733 C 2597.93 2.2775 -0.562776 0
M  V30 27734 C 2598.95 1.69546 0.391173 0
M  V30 27735 O 2600.12 1.99759 0.256589 0
M  V30 27736 C 2597.19 3.46525 0.110059 0
M  V30 27737 C 2596.25 4.20025 -0.887569 0
M  V30 27738 C 2595.48 5.33129 -0.246748 0
M  V30 27739 O 2595.71 5.62298 0.957989 0
M  V30 27740 O 2594.64 5.94284 -0.954479 0
M  V30 27741 H 2598.47 2.6721 -1.44334 0
M  V30 27742 H 2596.05 1.28199 -0.767158 0
M  V30 27743 H 2597.93 4.1858 0.486682 0
M  V30 27744 H 2596.61 3.08978 0.9651 0
M  V30 27745 H 2595.51 3.50218 -1.31523 0
M  V30 27746 H 2596.85 4.61467 -1.71199 0
M  V30 27747 N 2598.5 0.772537 1.37367 0
M  V30 27748 C 2599.43 0.105633 2.27955 0
M  V30 27749 C 2600.41 -0.70827 1.46364 0
M  V30 27750 O 2601.59 -0.682864 1.75696 0
M  V30 27751 C 2598.72 -0.856629 3.27688 0
M  V30 27752 C 2597.77 -0.126625 4.26312 0
M  V30 27753 S 2598.6 1.18589 5.22204 0
M  V30 27754 C 2599.76 0.227191 6.25488 0
M  V30 27755 H 2599.99 0.87377 2.8417 0
M  V30 27756 H 2597.52 0.565965 1.43653 0
M  V30 27757 H 2599.48 -1.40641 3.85656 0
M  V30 27758 H 2598.14 -1.59788 2.70419 0
M  V30 27759 H 2597.33 -0.856125 4.96675 0
M  V30 27760 H 2596.94 0.352183 3.72338 0
M  V30 27761 H 2599.23 -0.600113 6.74837 0
M  V30 27762 H 2600.17 0.899022 7.0237 0
M  V30 27763 H 2600.58 -0.161954 5.64268 0
M  V30 27764 N 2599.98 -1.48664 0.523142 0
M  V30 27765 C 2600.93 -2.31178 -0.256818 0
M  V30 27766 C 2601.92 -1.40796 -0.941965 0
M  V30 27767 O 2603.13 -1.57737 -0.867129 0
M  V30 27768 H 2599.5 -0.745093 -0.101687 0
M  V30 27769 H 2601.47 -2.94852 0.458791 0
M  V30 27770 C 2600.22 -3.22685 -1.29498 0
M  V30 27771 H 2599.54 -3.92173 -0.777179 0
M  V30 27772 H 2600.98 -3.83318 -1.81226 0
M  V30 27773 C 2599.44 -2.43817 -2.32497 0
M  V30 27774 O 2599.97 -2.15808 -3.38806 0
M  V30 27775 N 2598.18 -2.05436 -2.05534 0
M  V30 27776 H 2597.73 -2.28414 -1.191 0
M  V30 27777 H 2597.68 -1.52977 -2.74673 0
M  V30 27778 N 2601.46 -0.257958 -1.55475 0
M  V30 27779 C 2602.87 0.0966283 -1.59307 0
M  V30 27780 C 2603.07 1.56018 -1.27517 0
M  V30 27781 O 2602.13 2.30636 -1.02779 0
M  V30 27782 C 2603.44 -0.262534 -2.99552 0
M  V30 27783 C 2604.99 -0.207738 -3.1231 0
M  V30 27784 C 2605.46 -0.541092 -4.54792 0
M  V30 27785 N 2606.95 -0.492002 -4.6058 0
M  V30 27786 C 2607.69 -0.722957 -5.68824 0
M  V30 27787 N 2607.19 -1.01762 -6.85286 0
M  V30 27788 N 2608.98 -0.652913 -5.58295 0
M  V30 27789 H 2601.13 -1.21227 -1.74407 0
M  V30 27790 H 2603.39 -0.488554 -0.812415 0
M  V30 27791 H 2603.1 -1.27973 -3.27591 0
M  V30 27792 H 2602.97 0.405014 -3.75019 0
M  V30 27793 H 2605.36 0.800145 -2.84045 0
M  V30 27794 H 2605.44 -0.909297 -2.39093 0
M  V30 27795 H 2605.08 -1.54658 -4.8378 0
M  V30 27796 H 2605.01 0.182068 -5.26285 0
M  V30 27797 H 2607.51 -0.273432 -3.76909 0
M  V30 27798 H 2607.82 -1.18098 -7.63723 0
M  V30 27799 H 2606.16 -1.05521 -6.86943 0
M  V30 27800 H 2609.35 -0.422674 -4.66188 0
M  V30 27801 H 2609.53 -0.836295 -6.42581 0
M  V30 27802 N 2602.93 1.57593 0.0150108 0
M  V30 27803 C 2603.86 2.10505 1.01044 0
M  V30 27804 C 2604.85 1.01074 1.36814 0
M  V30 27805 O 2606.03 1.28675 1.45452 0
M  V30 27806 C 2603.16 2.59602 2.30703 0
M  V30 27807 C 2602.11 3.73425 2.09136 0
M  V30 27808 C 2601.44 4.0878 3.44678 0
M  V30 27809 C 2602.74 5.01301 1.4661 0
M  V30 27810 H 2604.43 2.93926 0.569926 0
M  V30 27811 H 2601.98 1.41394 0.272699 0
M  V30 27812 H 2603.93 2.95243 3.00682 0
M  V30 27813 H 2602.66 1.73284 2.7684 0
M  V30 27814 H 2601.32 3.38155 1.41586 0
M  V30 27815 H 2600.96 3.19507 3.8849 0
M  V30 27816 H 2600.66 4.85456 3.31068 0
M  V30 27817 H 2602.19 4.46967 4.15996 0
M  V30 27818 H 2603.6 5.34809 2.06525 0
M  V30 27819 H 2602 5.82682 1.43534 0
M  V30 27820 H 2603.07 4.82958 0.433526 0
M  V30 27821 N 2604.41 -0.287527 1.54955 0
M  V30 27822 C 2605.82 -0.859604 1.65734 0
M  V30 27823 C 2606.17 -1.87591 0.5748 0
M  V30 27824 O 2605.3 -2.14498 -0.286261 0
M  V30 27825 C 2605.89 -1.56592 3.00441 0
M  V30 27826 C 2604.45 -2.08622 3.13295 0
M  V30 27827 C 2603.6 -0.92337 2.61475 0
M  V30 27828 H 2606.55 -0.0642059 1.5857 0
M  V30 27829 H 2606.57 -2.43219 2.92617 0
M  V30 27830 H 2606.08 -0.825986 3.79208 0
M  V30 27831 H 2604.19 -2.85621 2.39273 0
M  V30 27832 H 2604.3 -2.3115 4.19651 0
M  V30 27833 H 2602.66 -1.31271 2.18266 0
M  V30 27834 H 2603.45 -0.197181 3.42733 0
M  V30 27835 N 2605.89 -1.47641 -0.551365 0
M  V30 27836 C 2607.14 -1.5426 -1.30569 0
M  V30 27837 C 2607.46 -0.208997 -1.93877 0
M  V30 27838 O 2606.73 0.767588 -1.80236 0
M  V30 27839 H 2605.31 -0.56824 -0.484884 0
M  V30 27840 H 2607.97 -1.83975 -0.64337 0
M  V30 27841 H 2607.07 -2.3123 -2.09617 0
M  V30 27842 N 2607.37 0.798563 -1.3587 0
M  V30 27843 C 2608.62 1.55296 -1.29335 0
M  V30 27844 C 2608.94 1.94568 0.129695 0
M  V30 27845 O 2608.21 1.64231 1.06793 0
M  V30 27846 H 2606.79 0.575911 -0.475747 0
M  V30 27847 H 2609.45 0.952063 -1.70064 0
M  V30 27848 H 2608.55 2.46472 -1.91462 0
M  V30 27849 N 2608.85 1.19999 1.02166 0
M  V30 27850 C 2609.79 0.941005 2.12715 0
M  V30 27851 C 2610.79 -0.105811 1.69069 0
M  V30 27852 O 2611.99 0.0440899 1.79946 0
M  V30 27853 H 2608.37 0.286942 0.695103 0
M  V30 27854 H 2610.34 1.87979 2.31747 0
M  V30 27855 C 2609.09 0.50411 3.44026 0
M  V30 27856 H 2608.41 1.30118 3.78033 0
M  V30 27857 H 2609.85 0.362065 4.22451 0
M  V30 27858 C 2608.31 -0.78282 3.27679 0
M  V30 27859 O 2608.84 -1.8425 3.56952 0
M  V30 27860 N 2607.05 -0.742872 2.80944 0
M  V30 27861 H 2606.59 0.119733 2.57322 0
M  V30 27862 H 2606.55 -1.6043 2.70388 0
M  V30 27863 N 2610.32 -1.21392 1.00507 0
M  V30 27864 C 2611.23 -2.27448 0.574846 0
M  V30 27865 C 2612.25 -1.69751 -0.382176 0
M  V30 27866 O 2613.43 -1.99892 -0.245992 0
M  V30 27867 C 2610.49 -3.46579 -0.0916805 0
M  V30 27868 C 2609.55 -4.19548 0.909831 0
M  V30 27869 C 2608.79 -5.32991 0.275017 0
M  V30 27870 O 2609.01 -5.62798 -0.928155 0
M  V30 27871 O 2607.94 -5.93769 0.985982 0
M  V30 27872 H 2611.77 -2.66441 1.45749 0
M  V30 27873 H 2609.35 -1.27791 0.773946 0
M  V30 27874 H 2611.24 -4.18832 -0.464477 0
M  V30 27875 H 2609.91 -3.09486 -0.9487 0
M  V30 27876 H 2608.82 -3.49515 1.33379 0
M  V30 27877 H 2610.15 -4.60552 1.73644 0
M  V30 27878 N 2611.8 -0.779811 -1.36955 0
M  V30 27879 C 2613.05 -0.348316 -1.99786 0
M  V30 27880 C 2613.38 1.07462 -1.61758 0
M  V30 27881 O 2612.66 1.74074 -0.867669 0
M  V30 27882 C 2612.94 -0.501102 -3.56596 0
M  V30 27883 C 2612.79 -1.96704 -4.04509 0
M  V30 27884 C 2614.11 0.0897324 -4.40009 0
M  V30 27885 H 2611.23 -0.128034 -0.725794 0
M  V30 27886 H 2613.87 -0.98436 -1.62513 0
M  V30 27887 H 2612.02 0.0403664 -3.88479 0
M  V30 27888 H 2613.69 -2.56883 -3.83156 0
M  V30 27889 H 2611.94 -2.47303 -3.56404 0
M  V30 27890 H 2612.61 -2.02495 -5.13517 0
M  V30 27891 H 2615.08 -0.372366 -4.14431 0
M  V30 27892 H 2613.96 -0.047257 -5.4888 0
M  V30 27893 H 2614.22 1.18088 -4.26037 0
M  V30 27894 N 2613.28 1.48384 -0.531019 0
M  V30 27895 C 2614.53 2.021 0.00269637 0
M  V30 27896 C 2614.85 1.41029 1.34669 0
M  V30 27897 O 2614.12 0.576045 1.87239 0
M  V30 27898 H 2612.7 0.746989 0.00398461 0
M  V30 27899 H 2615.36 1.82084 -0.695086 0
M  V30 27900 H 2614.46 3.11905 0.110255 0
M  V30 27901 N 2614.76 0.2662 1.55336 0
M  V30 27902 C 2615.69 -0.666258 2.18257 0
M  V30 27903 C 2616.67 -1.15878 1.14066 0
M  V30 27904 O 2617.85 -1.23339 1.42548 0
M  V30 27905 C 2614.98 -1.90763 2.7987 0
M  V30 27906 C 2614.03 -1.55134 3.97285 0
M  V30 27907 S 2614.86 -0.637219 5.31695 0
M  V30 27908 C 2616.02 -1.88716 5.96772 0
M  V30 27909 H 2616.25 -0.131595 2.97009 0
M  V30 27910 H 2613.78 0.050514 1.54317 0
M  V30 27911 H 2615.74 -2.62019 3.16 0
M  V30 27912 H 2614.4 -2.41342 2.01029 0
M  V30 27913 H 2613.59 -2.47482 4.39054 0
M  V30 27914 H 2613.2 -0.919049 3.62532 0
M  V30 27915 H 2615.49 -2.83217 6.15463 0
M  V30 27916 H 2616.43 -1.51264 6.91755 0
M  V30 27917 H 2616.84 -2.04804 5.26038 0
M  V30 27918 N 2616.24 -1.57599 -0.0066531 0
M  V30 27919 C 2617.48 -1.90559 -0.693914 0
M  V30 27920 C 2617.82 -0.866625 -1.73791 0
M  V30 27921 O 2617.09 0.115514 -1.94157 0
M  V30 27922 C 2617.37 -3.34115 -1.34311 0
M  V30 27923 C 2617.23 -4.48723 -0.31111 0
M  V30 27924 C 2618.55 -3.76974 -2.27109 0
M  V30 27925 H 2615.66 -0.693017 -0.250791 0
M  V30 27926 H 2618.31 -1.89951 0.0432754 0
M  V30 27927 H 2616.46 -3.34763 -1.97144 0
M  V30 27928 H 2618.13 -4.60209 0.317025 0
M  V30 27929 H 2616.37 -4.32242 0.367329 0
M  V30 27930 H 2617.04 -5.46109 -0.80427 0
M  V30 27931 H 2619.52 -3.77834 -1.743 0
M  V30 27932 H 2618.39 -4.78184 -2.69502 0
M  V30 27933 H 2618.66 -3.10472 -3.14738 0
M  V30 27934 N 2617.72 0.279305 -1.55105 0
M  V30 27935 C 2618.68 1.32831 -1.86785 0
M  V30 27936 C 2619.68 1.42656 -0.742015 0
M  V30 27937 O 2620.87 1.41916 -1.01022 0
M  V30 27938 C 2618 2.71048 -2.0675 0
M  V30 27939 H 2619.19 1.05974 -2.80552 0
M  V30 27940 H 2616.75 0.517061 -1.475 0
M  V30 27941 H 2617.48 3.03095 -1.15344 0
M  V30 27942 H 2617.27 2.65303 -2.88715 0
M  V30 27943 H 2618.76 3.46854 -2.32555 0
M  V30 27944 N 2619.19 1.47931 0.543528 0
M  V30 27945 C 2620.44 1.55257 1.30006 0
M  V30 27946 C 2620.77 0.220646 1.93244 0
M  V30 27947 O 2620.02 -0.787811 1.79142 0
M  V30 27948 C 2620.32 2.62936 2.42073 0
M  V30 27949 C 2619.99 4.05794 1.96576 0
M  V30 27950 C 2618.65 4.44679 1.83885 0
M  V30 27951 C 2621 4.95376 1.62026 0
M  V30 27952 C 2618.33 5.70967 1.34959 0
M  V30 27953 C 2620.68 6.22139 1.14566 0
M  V30 27954 C 2619.35 6.59894 1.00482 0
M  V30 27955 H 2618.62 0.568126 0.475725 0
M  V30 27956 H 2621.26 1.8159 0.608043 0
M  V30 27957 H 2619.57 2.30411 3.16888 0
M  V30 27958 H 2621.27 2.65823 3.00231 0
M  V30 27959 H 2617.86 3.75077 2.07401 0
M  V30 27960 H 2622.04 4.66022 1.70697 0
M  V30 27961 H 2617.3 5.98955 1.2273 0
M  V30 27962 H 2621.47 6.90957 0.868987 0
M  V30 27963 H 2619.1 7.57639 0.62349 0
M  V30 27964 N 2620.67 -0.791347 1.36292 0
M  V30 27965 C 2621.62 -1.9039 1.30461 0
M  V30 27966 C 2622.59 -1.6519 0.173661 0
M  V30 27967 O 2623.77 -1.87376 0.359863 0
M  V30 27968 C 2620.91 -3.27172 1.09783 0
M  V30 27969 C 2620.03 -3.64458 2.31936 0
M  V30 27970 C 2619.16 -4.90348 2.04284 0
M  V30 27971 C 2618.2 -5.20307 3.22409 0
M  V30 27972 N 2617.34 -6.37379 2.94435 0
M  V30 27973 H 2622.18 -1.9471 2.25593 0
M  V30 27974 H 2619.71 -0.952196 1.12123 0
M  V30 27975 H 2621.67 -4.06047 0.958204 0
M  V30 27976 H 2620.3 -3.2228 0.183071 0
M  V30 27977 H 2619.35 -2.80723 2.56708 0
M  V30 27978 H 2620.67 -3.82548 3.20092 0
M  V30 27979 H 2619.82 -5.77084 1.87241 0
M  V30 27980 H 2618.56 -4.74324 1.13436 0
M  V30 27981 H 2617.56 -4.32055 3.40013 0
M  V30 27982 H 2618.79 -5.38251 4.14081 0
M  V30 27983 H 2616.74 -6.22751 2.06196 0
M  V30 27984 H 2616.65 -6.55792 3.76129 0
M  V30 27985 H 2617.92 -7.27103 2.80966 0
M  V30 27986 N 2622.15 -1.2054 -1.01528 0
M  V30 27987 C 2623.08 -0.898732 -2.09757 0
M  V30 27988 C 2624.06 0.149705 -1.61909 0
M  V30 27989 O 2625.24 0.0229962 -1.88486 0
M  V30 27990 C 2622.37 -0.347571 -3.36912 0
M  V30 27991 C 2621.42 -1.3772 -4.03653 0
M  V30 27992 S 2622.25 -2.94273 -4.47397 0
M  V30 27993 C 2623.41 -2.40736 -5.77752 0
M  V30 27994 H 2623.64 -1.81527 -2.35447 0
M  V30 27995 H 2621.17 -1.03401 -1.14663 0
M  V30 27996 H 2623.13 -0.036124 -4.10484 0
M  V30 27997 H 2621.79 0.547492 -3.09292 0
M  V30 27998 H 2620.98 -0.940959 -4.95138 0
M  V30 27999 H 2620.59 -1.63619 -3.3631 0
M  V30 28000 H 2622.88 -1.8058 -6.52991 0
M  V30 28001 H 2623.82 -3.30623 -6.26174 0
M  V30 28002 H 2624.23 -1.82816 -5.34077 0
M  V30 28003 N 2623.63 1.20858 -1.01149 0
M  V30 28004 C 2625.04 1.4216 -0.725447 0
M  V30 28005 C 2625.24 1.89065 0.696886 0
M  V30 28006 O 2624.3 2.0563 1.46535 0
M  V30 28007 C 2625.61 2.44758 -1.74682 0
M  V30 28008 C 2627.16 2.58532 -1.76438 0
M  V30 28009 C 2627.64 3.64369 -2.77488 0
M  V30 28010 N 2629.13 3.71847 -2.76196 0
M  V30 28011 C 2629.86 4.53383 -3.51043 0
M  V30 28012 N 2629.36 5.38765 -4.3555 0
M  V30 28013 N 2631.15 4.47867 -3.39663 0
M  V30 28014 H 2623.3 0.887248 -1.92981 0
M  V30 28015 H 2625.56 0.451947 -0.833335 0
M  V30 28016 H 2625.27 2.1728 -2.76555 0
M  V30 28017 H 2625.14 3.43666 -1.55478 0
M  V30 28018 H 2627.53 2.85344 -0.75253 0
M  V30 28019 H 2627.61 1.59837 -1.99714 0
M  V30 28020 H 2627.26 3.38302 -3.78833 0
M  V30 28021 H 2627.19 4.62675 -2.51474 0
M  V30 28022 H 2629.68 3.10854 -2.14891 0
M  V30 28023 H 2629.99 5.98052 -4.89442 0
M  V30 28024 H 2628.34 5.38284 -4.3963 0
M  V30 28025 H 2631.53 3.80198 -2.7307 0
M  V30 28026 H 2631.7 5.11177 -3.98249 0
M  V30 28027 N 2625.11 0.787064 1.3654 0
M  V30 28028 C 2626.35 0.358376 1.99304 0
M  V30 28029 C 2626.68 -1.0693 1.62469 0
M  V30 28030 O 2625.94 -1.75296 0.87005 0
M  V30 28031 C 2626.23 0.466547 3.54342 0
M  V30 28032 C 2625.9 1.85469 4.10989 0
M  V30 28033 C 2624.56 2.2345 4.26173 0
M  V30 28034 C 2626.91 2.76374 4.4189 0
M  V30 28035 C 2624.24 3.51744 4.69567 0
M  V30 28036 C 2626.59 4.04093 4.86715 0
M  V30 28037 C 2625.26 4.42099 5.00104 0
M  V30 28038 H 2624.53 0.131139 0.729303 0
M  V30 28039 H 2627.18 1.00407 1.63067 0
M  V30 28040 H 2625.48 -0.262651 3.90919 0
M  V30 28041 H 2627.18 0.115924 4.00832 0
M  V30 28042 H 2623.77 1.54954 3.99609 0
M  V30 28043 H 2627.95 2.48285 4.2973 0
M  V30 28044 H 2623.21 3.81065 4.78121 0
M  V30 28045 H 2627.38 4.74649 5.0959 0
M  V30 28046 H 2625.01 5.41567 5.33488 0
M  V30 28047 N 2626.58 -1.48101 0.53888 0
M  V30 28048 C 2627.53 -2.29759 -0.219001 0
M  V30 28049 C 2628.5 -1.37924 -0.925538 0
M  V30 28050 O 2629.69 -1.66888 -0.924826 0
M  V30 28051 C 2626.83 -3.21492 -1.25447 0
M  V30 28052 C 2625.94 -4.28409 -0.555868 0
M  V30 28053 C 2625.07 -5.07313 -1.57503 0
M  V30 28054 C 2624.11 -6.06023 -0.860391 0
M  V30 28055 N 2623.25 -6.77952 -1.82552 0
M  V30 28056 H 2628.09 -2.94051 0.483501 0
M  V30 28057 H 2625.63 -1.44955 0.250272 0
M  V30 28058 H 2627.58 -3.73083 -1.86721 0
M  V30 28059 H 2626.21 -2.59103 -1.92524 0
M  V30 28060 H 2625.27 -3.80015 0.171005 0
M  V30 28061 H 2626.58 -4.988 0.00483384 0
M  V30 28062 H 2625.73 -5.62963 -2.26181 0
M  V30 28063 H 2624.47 -4.36781 -2.16964 0
M  V30 28064 H 2623.48 -5.49568 -0.15959 0
M  V30 28065 H 2624.7 -6.78556 -0.271777 0
M  V30 28066 H 2622.65 -6.10165 -2.40904 0
M  V30 28067 H 2622.56 -7.44449 -1.31649 0
M  V30 28068 H 2623.83 -7.38187 -2.50401 0
M  V30 28069 N 2628.06 -0.274434 -1.55192 0
M  V30 28070 C 2629.29 0.345907 -2.03988 0
M  V30 28071 C 2629.7 1.49518 -1.15282 0
M  V30 28072 O 2629.06 1.8168 -0.17279 0
M  V30 28073 C 2629.11 0.827569 -3.519 0
M  V30 28074 O 2628.83 -0.275932 -4.3723 0
M  V30 28075 C 2630.33 1.5158 -4.1658 0
M  V30 28076 H 2627.55 0.0789774 -0.666336 0
M  V30 28077 H 2630.1 -0.40633 -2.00423 0
M  V30 28078 H 2628.25 1.5299 -3.55911 0
M  V30 28079 H 2628.67 0.0942716 -5.24415 0
M  V30 28080 H 2630.14 1.80424 -5.21681 0
M  V30 28081 H 2630.62 2.44709 -3.64711 0
M  V30 28082 H 2631.22 0.857336 -4.16569 0
M  V30 28083 N 2629.54 1.576 -0.00170483 0
M  V30 28084 C 2630.47 2.05384 1.01736 0
M  V30 28085 C 2631.48 0.972075 1.30593 0
M  V30 28086 O 2632.67 1.24884 1.27539 0
M  V30 28087 C 2629.77 2.44026 2.35169 0
M  V30 28088 C 2628.95 3.74955 2.25227 0
M  V30 28089 C 2628.01 4.00447 3.41363 0
M  V30 28090 O 2627.03 4.71089 3.19474 0
M  V30 28091 N 2628.23 3.48475 4.64269 0
M  V30 28092 H 2631 2.9343 0.609851 0
M  V30 28093 H 2628.56 1.60832 0.185643 0
M  V30 28094 H 2630.55 2.58192 3.11639 0
M  V30 28095 H 2629.12 1.6149 2.67656 0
M  V30 28096 H 2628.34 3.70849 1.33658 0
M  V30 28097 H 2629.63 4.60788 2.15759 0
M  V30 28098 H 2629.03 2.91273 4.8495 0
M  V30 28099 H 2627.58 3.67968 5.37999 0
M  V30 28100 N 2631.02 -0.271076 1.55251 0
M  V30 28101 C 2631.93 -1.35711 1.91363 0
M  V30 28102 C 2632.94 -1.53939 0.811102 0
M  V30 28103 O 2634.12 -1.68028 1.11034 0
M  V30 28104 C 2631.18 -2.69599 2.17985 0
M  V30 28105 C 2630.25 -2.60101 3.41535 0
M  V30 28106 C 2629.48 -3.87604 3.66878 0
M  V30 28107 O 2629.7 -4.88374 2.94698 0
M  V30 28108 O 2628.64 -3.87691 4.60412 0
M  V30 28109 H 2632.46 -1.08083 2.83817 0
M  V30 28110 H 2630.05 -0.469767 1.41822 0
M  V30 28111 H 2631.93 -3.48761 2.36524 0
M  V30 28112 H 2630.6 -2.97009 1.28713 0
M  V30 28113 H 2629.51 -1.79308 3.28328 0
M  V30 28114 H 2630.84 -2.3764 4.31032 0
M  V30 28115 N 2632.5 -1.48217 -0.535675 0
M  V30 28116 C 2633.73 -1.59365 -1.31478 0
M  V30 28117 C 2634.13 -0.250877 -1.87529 0
M  V30 28118 O 2633.48 0.769145 -1.66823 0
M  V30 28119 C 2633.54 -2.57637 -2.50726 0
M  V30 28120 C 2633.2 -4.02837 -2.15804 0
M  V30 28121 C 2634.2 -4.90689 -1.71813 0
M  V30 28122 C 2631.89 -4.48333 -2.26502 0
M  V30 28123 C 2633.88 -6.22064 -1.38979 0
M  V30 28124 C 2631.57 -5.7973 -1.93279 0
M  V30 28125 C 2632.56 -6.66418 -1.49588 0
M  V30 28126 O 2632.25 -7.9537 -1.16798 0
M  V30 28127 H 2631.98 -0.54027 -0.406305 0
M  V30 28128 H 2634.54 -1.94726 -0.653535 0
M  V30 28129 H 2632.77 -2.17386 -3.19813 0
M  V30 28130 H 2634.46 -2.5868 -3.12793 0
M  V30 28131 H 2635.22 -4.5678 -1.63023 0
M  V30 28132 H 2631.1 -3.8105 -2.59465 0
M  V30 28133 H 2634.65 -6.89682 -1.04804 0
M  V30 28134 H 2630.54 -6.13176 -2.01708 0
M  V30 28135 H 2631.31 -8.08071 -1.30245 0
M  V30 28136 N 2633.97 0.784108 -1.3671 0
M  V30 28137 C 2635.39 1.35962 -1.2795 0
M  V30 28138 C 2635.74 1.96043 0.0783668 0
M  V30 28139 O 2634.86 1.9294 0.979955 0
M  V30 28140 C 2635.46 2.47191 -2.31693 0
M  V30 28141 C 2634.02 3.00544 -2.26606 0
M  V30 28142 C 2633.16 1.73662 -2.16187 0
M  V30 28143 H 2636.11 0.585332 -1.47511 0
M  V30 28144 H 2636.13 3.26349 -1.95644 0
M  V30 28145 H 2635.65 2.03433 -3.30509 0
M  V30 28146 H 2633.75 3.48709 -1.31274 0
M  V30 28147 H 2633.86 3.56998 -3.19514 0
M  V30 28148 H 2632.22 1.96104 -1.62528 0
M  V30 28149 H 2633.01 1.32025 -3.16898 0
M  V30 28150 N 2635.45 1.21076 1.00888 0
M  V30 28151 C 2636.36 0.982462 2.13037 0
M  V30 28152 C 2637.38 -0.0641856 1.73882 0
M  V30 28153 O 2638.55 0.124996 2.01012 0
M  V30 28154 C 2635.62 0.545864 3.42376 0
M  V30 28155 C 2634.68 1.66427 3.95728 0
M  V30 28156 C 2633.91 1.24841 5.18893 0
M  V30 28157 O 2634.14 0.120365 5.70273 0
M  V30 28158 O 2633.07 2.05883 5.65593 0
M  V30 28159 H 2636.9 1.92167 2.35171 0
M  V30 28160 H 2634.48 0.995305 1.11418 0
M  V30 28161 H 2636.36 0.311986 4.20244 0
M  V30 28162 H 2635.04 -0.364671 3.21639 0
M  V30 28163 H 2633.95 1.95251 3.19105 0
M  V30 28164 H 2635.28 2.55209 4.20867 0
M  V30 28165 N 2636.93 -1.2032 1.01789 0
M  V30 28166 C 2638.18 -1.89346 0.706571 0
M  V30 28167 C 2638.5 -1.79314 -0.766258 0
M  V30 28168 O 2637.77 -1.19638 -1.55124 0
M  V30 28169 H 2636.35 -0.700899 0.258361 0
M  V30 28170 H 2639.01 -1.4612 1.28976 0
M  V30 28171 H 2638.11 -2.95945 0.991118 0
M  V30 28172 N 2638.41 -0.794293 -1.3612 0
M  V30 28173 C 2639.82 -0.476551 -1.52319 0
M  V30 28174 C 2640.02 1.00433 -1.74687 0
M  V30 28175 O 2639.08 1.7897 -1.78118 0
M  V30 28176 C 2640.39 -1.31123 -2.70605 0
M  V30 28177 C 2641.94 -1.30542 -2.84478 0
M  V30 28178 C 2642.42 -2.12395 -4.05774 0
M  V30 28179 N 2643.91 -2.09866 -4.12929 0
M  V30 28180 C 2644.64 -2.69966 -5.05871 0
M  V30 28181 N 2644.14 -3.38944 -6.04226 0
M  V30 28182 N 2645.93 -2.59674 -4.98524 0
M  V30 28183 H 2638.08 -1.75352 -1.19856 0
M  V30 28184 H 2640.35 -0.745658 -0.585405 0
M  V30 28185 H 2640.05 -2.36163 -2.60615 0
M  V30 28186 H 2639.93 -0.955908 -3.64887 0
M  V30 28187 H 2642.31 -0.262927 -2.93926 0
M  V30 28188 H 2642.39 -1.70054 -1.9109 0
M  V30 28189 H 2642.04 -3.16677 -3.97087 0
M  V30 28190 H 2641.97 -1.7025 -4.9832 0
M  V30 28191 H 2644.46 -1.59668 -3.42512 0
M  V30 28192 H 2644.77 -3.8212 -6.71717 0
M  V30 28193 H 2643.12 -3.43047 -6.04437 0
M  V30 28194 H 2646.31 -2.05383 -4.20637 0
M  V30 28195 H 2646.48 -3.06803 -5.70768 0
M  V30 28196 N 2639.89 1.47813 -0.546727 0
M  V30 28197 C 2641.16 1.95545 0.0464069 0
M  V30 28198 C 2641.54 1.48922 1.49618 0
M  V30 28199 O 2640.89 0.72327 2.16751 0
M  V30 28200 C 2641.1 3.48889 -0.0881912 0
M  V30 28201 C 2642.45 4.24554 0.0625313 0
M  V30 28202 O 2643.47 3.56197 -0.0152181 0
M  V30 28203 O 2642.33 5.46024 0.227975 0
M  V30 28204 H 2639.43 0.824033 0.069986 0
M  V30 28205 H 2641.97 1.58261 -0.61251 0
M  V30 28206 H 2640.74 3.75596 -1.09744 0
M  V30 28207 H 2640.37 3.92911 0.608817 0
M  V30 28208 N 2641.36 0.28266 1.55044 0
M  V30 28209 C 2642.61 -0.332446 2.00057 0
M  V30 28210 C 2642.94 -1.54937 1.17082 0
M  V30 28211 O 2642.22 -1.92979 0.242734 0
M  V30 28212 C 2642.5 -0.707188 3.53088 0
M  V30 28213 C 2642.35 0.517599 4.46812 0
M  V30 28214 C 2643.67 -1.54076 4.12248 0
M  V30 28215 H 2640.79 -0.119361 0.72727 0
M  V30 28216 H 2643.43 0.391108 1.85931 0
M  V30 28217 H 2641.58 -1.32366 3.65256 0
M  V30 28218 H 2643.26 1.15615 4.46577 0
M  V30 28219 H 2641.5 1.15427 4.18161 0
M  V30 28220 H 2642.17 0.211523 5.51595 0
M  V30 28221 H 2644.65 -1.02006 4.03403 0
M  V30 28222 H 2643.52 -1.77177 5.19519 0
M  V30 28223 H 2643.78 -2.5242 3.62955 0
M  V30 28224 N 2642.84 -1.57597 0.0100627 0
M  V30 28225 C 2644.09 -1.90179 -0.671911 0
M  V30 28226 C 2644.4 -0.886162 -1.74375 0
M  V30 28227 O 2645.61 -1.10256 -2.48105 0
M  V30 28228 C 2644.07 -3.37632 -1.2463 0
M  V30 28229 C 2643.67 -4.47513 -0.20876 0
M  V30 28230 C 2645.42 -3.7931 -1.90589 0
M  V30 28231 C 2643.33 -5.8605 -0.793711 0
M  V30 28232 H 2642.26 -0.709669 -0.254727 0
M  V30 28233 H 2644.91 -1.83358 0.0722528 0
M  V30 28234 H 2643.29 -3.39323 -2.04146 0
M  V30 28235 H 2644.46 -4.57353 0.562543 0
M  V30 28236 H 2642.78 -4.14918 0.350962 0
M  V30 28237 H 2645.37 -4.80156 -2.35276 0
M  V30 28238 H 2645.72 -3.13357 -2.74068 0
M  V30 28239 H 2646.25 -3.7996 -1.17792 0
M  V30 28240 H 2642.99 -6.555 0.00252377 0
M  V30 28241 H 2642.51 -5.79854 -1.53394 0
M  V30 28242 H 2644.19 -6.34024 -1.28929 0
M  V30 28243 N 2644.32 0.262839 -1.55393 0
M  V30 28244 C 2645.57 0.994549 -1.76739 0
M  V30 28245 C 2645.9 1.8557 -0.572486 0
M  V30 28246 O 2645.17 1.89694 0.429698 0
M  V30 28247 C 2645.46 1.86854 -3.07827 0
M  V30 28248 C 2645.31 1.03665 -4.37691 0
M  V30 28249 C 2646.63 2.85387 -3.35026 0
M  V30 28250 H 2643.75 0.360146 -0.643012 0
M  V30 28251 H 2646.39 0.266183 -1.88126 0
M  V30 28252 H 2644.54 2.48956 -2.9825 0
M  V30 28253 H 2646.21 0.435549 -4.59239 0
M  V30 28254 H 2644.46 0.340437 -4.32462 0
M  V30 28255 H 2645.13 1.6816 -5.25762 0
M  V30 28256 H 2647.6 2.3342 -3.44462 0
M  V30 28257 H 2646.48 3.43674 -4.27995 0
M  V30 28258 H 2646.74 3.61035 -2.55159 0
M  V30 28259 N 2645.8 1.48499 0.527807 0
M  V30 28260 C 2647.05 1.55881 1.28001 0
M  V30 28261 C 2647.36 0.238611 1.94139 0
M  V30 28262 O 2648.57 0.190691 2.7083 0
M  V30 28263 C 2647.02 2.74918 2.32267 0
M  V30 28264 C 2646.63 4.13588 1.72188 0
M  V30 28265 C 2648.37 2.91613 3.08483 0
M  V30 28266 C 2646.28 5.23884 2.74408 0
M  V30 28267 H 2645.21 0.580317 0.481403 0
M  V30 28268 H 2647.86 1.74837 0.557165 0
M  V30 28269 H 2646.24 2.494 3.07596 0
M  V30 28270 H 2647.42 4.49133 1.03033 0
M  V30 28271 H 2645.73 4.02027 1.08457 0
M  V30 28272 H 2648.33 3.71183 3.84873 0
M  V30 28273 H 2648.67 2.01152 3.64477 0
M  V30 28274 H 2649.21 3.17042 2.40269 0
M  V30 28275 H 2645.95 6.16318 2.23231 0
M  V30 28276 H 2645.47 4.92824 3.41884 0
M  V30 28277 H 2647.14 5.52089 3.37352 0
M  V30 28278 N 2647.28 -0.776847 1.37123 0
M  V30 28279 C 2648.53 -1.53219 1.31789 0
M  V30 28280 C 2648.85 -1.9475 -0.0987246 0
M  V30 28281 O 2648.12 -1.6591 -1.04167 0
M  V30 28282 H 2646.7 -0.56827 0.484849 0
M  V30 28283 H 2649.36 -0.924886 1.71557 0
M  V30 28284 H 2648.45 -2.43395 1.95359 0
M  V30 28285 N 2648.76 -1.2161 -1.00244 0
M  V30 28286 C 2649.7 -0.974727 -2.11191 0
M  V30 28287 C 2650.7 0.0789006 -1.69216 0
M  V30 28288 O 2651.9 -0.0727122 -1.79853 0
M  V30 28289 H 2648.28 -0.297965 -0.69045 0
M  V30 28290 H 2650.25 -1.91642 -2.28727 0
M  V30 28291 C 2649 -0.558777 -3.43181 0
M  V30 28292 H 2648.32 -1.36116 -3.75915 0
M  V30 28293 H 2649.76 -0.429228 -4.21822 0
M  V30 28294 C 2648.22 0.73059 -3.28883 0
M  V30 28295 O 2648.75 1.78547 -3.59838 0
M  V30 28296 N 2646.96 0.698082 -2.82091 0
M  V30 28297 H 2646.5 -0.160655 -2.57099 0
M  V30 28298 H 2646.46 1.56108 -2.72906 0
M  V30 28299 N 2650.23 1.19778 -1.02425 0
M  V30 28300 C 2651.51 1.8508 -0.632834 0
M  V30 28301 C 2651.89 1.91481 0.888711 0
M  V30 28302 O 2651.24 1.42835 1.78355 0
M  V30 28303 C 2651.45 3.24303 -1.28953 0
M  V30 28304 C 2652.8 4.00511 -1.40983 0
M  V30 28305 O 2653.82 3.33684 -1.24634 0
M  V30 28306 O 2652.68 5.20206 -1.67476 0
M  V30 28307 H 2649.77 0.797377 -0.219362 0
M  V30 28308 H 2652.32 1.27305 -1.12211 0
M  V30 28309 H 2651.09 3.14452 -2.32886 0
M  V30 28310 H 2650.71 3.89717 -0.787816 0
M  V30 28311 N 2651.71 0.801501 1.35697 0
M  V30 28312 C 2652.96 0.376014 1.98164 0
M  V30 28313 C 2653.27 -1.06125 1.64307 0
M  V30 28314 O 2654.48 -1.5896 2.201 0
M  V30 28315 C 2652.94 0.621367 3.54495 0
M  V30 28316 C 2652.54 2.07083 3.97266 0
M  V30 28317 C 2654.29 0.260985 4.23697 0
M  V30 28318 C 2652.19 2.26221 5.46423 0
M  V30 28319 H 2651.12 0.136857 0.741476 0
M  V30 28320 H 2653.78 0.984842 1.54833 0
M  V30 28321 H 2652.16 -0.0573416 3.95958 0
M  V30 28322 H 2653.33 2.78694 3.66969 0
M  V30 28323 H 2651.65 2.3906 3.40939 0
M  V30 28324 H 2654.24 0.382088 5.33333 0
M  V30 28325 H 2654.59 -0.792272 4.08691 0
M  V30 28326 H 2655.12 0.893408 3.87638 0
M  V30 28327 H 2651.86 3.29973 5.6639 0
M  V30 28328 H 2651.38 1.59129 5.78306 0
M  V30 28329 H 2653.06 2.07524 6.12815 0
M  V30 28330 N 2653.19 -1.47521 0.554558 0
M  V30 28331 C 2654.42 -2.06872 0.0342934 0
M  V30 28332 C 2654.83 -1.40761 -1.25824 0
M  V30 28333 O 2654.19 -0.503247 -1.75424 0
M  V30 28334 C 2654.24 -3.61111 -0.167764 0
M  V30 28335 O 2653.96 -4.24742 1.07358 0
M  V30 28336 C 2655.46 -4.37321 -0.725613 0
M  V30 28337 H 2652.68 -0.669514 0.0446393 0
M  V30 28338 H 2655.23 -1.89563 0.767214 0
M  V30 28339 H 2653.38 -3.77942 -0.850806 0
M  V30 28340 H 2653.8 -5.1724 0.869654 0
M  V30 28341 H 2655.27 -5.45931 -0.816298 0
M  V30 28342 H 2655.75 -4.03423 -1.73628 0
M  V30 28343 H 2656.35 -4.25228 -0.0783544 0
M  V30 28344 N 2654.67 -0.290879 -1.54892 0
M  V30 28345 C 2655.91 0.321356 -1.99934 0
M  V30 28346 C 2656.24 1.5467 -1.1793 0
M  V30 28347 O 2655.5 1.94211 -0.240936 0
M  V30 28348 C 2655.8 0.732335 -3.49817 0
M  V30 28349 C 2655.46 -0.390135 -4.49209 0
M  V30 28350 C 2654.12 -0.698306 -4.76106 0
M  V30 28351 C 2656.48 -1.14571 -5.08451 0
M  V30 28352 C 2653.8 -1.76536 -5.59511 0
M  V30 28353 C 2656.16 -2.2026 -5.93016 0
M  V30 28354 C 2654.82 -2.51695 -6.18228 0
M  V30 28355 H 2654.09 0.117592 -0.73161 0
M  V30 28356 H 2656.74 -0.407872 -1.87106 0
M  V30 28357 H 2655.04 1.54149 -3.60202 0
M  V30 28358 H 2656.74 1.21705 -3.82085 0
M  V30 28359 H 2653.33 -0.139836 -4.28372 0
M  V30 28360 H 2657.51 -0.920887 -4.87682 0
M  V30 28361 H 2652.77 -2.01374 -5.77285 0
M  V30 28362 H 2656.94 -2.79272 -6.3795 0
M  V30 28363 H 2654.57 -3.34511 -6.82647 0
M  V30 28364 N 2656.15 1.57589 -0.0184203 0
M  V30 28365 C 2657.56 1.55983 0.33787 0
M  V30 28366 C 2657.76 1.02297 1.73602 0
M  V30 28367 O 2656.82 0.664938 2.43587 0
M  V30 28368 C 2658.13 3.00059 0.196253 0
M  V30 28369 C 2659.68 3.11835 0.26982 0
M  V30 28370 C 2660.15 4.5773 0.157117 0
M  V30 28371 N 2661.64 4.62703 0.214439 0
M  V30 28372 C 2662.38 5.73202 0.150854 0
M  V30 28373 N 2661.88 6.9279 0.0367994 0
M  V30 28374 N 2663.67 5.61729 0.204063 0
M  V30 28375 H 2655.82 1.9082 -0.932823 0
M  V30 28376 H 2658.08 0.877286 -0.359268 0
M  V30 28377 H 2657.79 3.43247 -0.766444 0
M  V30 28378 H 2657.66 3.64492 0.970844 0
M  V30 28379 H 2660.05 2.68566 1.22297 0
M  V30 28380 H 2660.13 2.50144 -0.534962 0
M  V30 28381 H 2659.77 5.01678 -0.792567 0
M  V30 28382 H 2659.7 5.17389 0.980626 0
M  V30 28383 H 2662.2 3.76682 0.303172 0
M  V30 28384 H 2662.51 7.728 -0.00531905 0
M  V30 28385 H 2660.85 6.95 0.00216644 0
M  V30 28386 H 2664.04 4.67192 0.291492 0
M  V30 28387 H 2664.22 6.47824 0.151046 0
M  V30 28388 N 2657.62 -0.254594 1.5553 0
M  V30 28389 C 2658.87 -0.981581 1.76204 0
M  V30 28390 C 2659.19 -1.86775 0.580916 0
M  V30 28391 O 2660.39 -2.63091 0.670494 0
M  V30 28392 C 2658.85 -1.79531 3.11924 0
M  V30 28393 C 2658.46 -0.956914 4.37661 0
M  V30 28394 C 2660.2 -2.51549 3.4194 0
M  V30 28395 C 2658.11 -1.76609 5.64414 0
M  V30 28396 H 2657.04 -0.370226 0.656848 0
M  V30 28397 H 2659.69 -0.236524 1.81969 0
M  V30 28398 H 2658.07 -2.58203 3.00245 0
M  V30 28399 H 2659.24 -0.213069 4.60307 0
M  V30 28400 H 2657.56 -0.350424 4.14923 0
M  V30 28401 H 2660.16 -3.12529 4.33855 0
M  V30 28402 H 2660.5 -3.22775 2.62911 0
M  V30 28403 H 2661.03 -1.79894 3.548 0
M  V30 28404 H 2657.77 -1.09772 6.46243 0
M  V30 28405 H 2657.29 -2.48542 5.45882 0
M  V30 28406 H 2658.97 -2.33516 6.0339 0
M  V30 28407 N 2659.1 -1.48777 -0.519925 0
M  V30 28408 C 2660.35 -1.56995 -1.27267 0
M  V30 28409 C 2660.67 -0.250074 -1.9339 0
M  V30 28410 O 2659.94 0.729184 -1.81823 0
M  V30 28411 H 2658.52 -0.578397 -0.472722 0
M  V30 28412 H 2661.18 -1.85298 -0.604201 0
M  V30 28413 H 2660.28 -2.35624 -2.04665 0
M  V30 28414 N 2660.58 0.769564 -1.37534 0
M  V30 28415 C 2661.8 1.56381 -1.36234 0
M  V30 28416 C 2662.23 1.88035 0.0495519 0
M  V30 28417 O 2661.59 1.49393 1.0272 0
M  V30 28418 C 2661.64 2.84948 -2.20991 0
M  V30 28419 O 2660.74 3.79418 -1.61604 0
M  V30 28420 H 2660.08 0.473607 -0.465395 0
M  V30 28421 H 2662.61 0.95231 -1.81086 0
M  V30 28422 H 2662.62 3.34029 -2.34283 0
M  V30 28423 H 2661.3 2.61238 -3.23617 0
M  V30 28424 H 2659.87 3.38069 -1.57365 0
M  V30 28425 N 2662.06 1.22139 0.995977 0
M  V30 28426 C 2663.31 1.04409 1.73508 0
M  V30 28427 C 2663.63 -0.42121 1.89884 0
M  V30 28428 O 2662.89 -1.32865 1.43685 0
M  V30 28429 C 2663.19 1.69685 3.1455 0
M  V30 28430 C 2662.85 3.19571 3.18097 0
M  V30 28431 C 2661.52 3.60469 3.18772 0
M  V30 28432 C 2663.87 4.15522 3.14629 0
M  V30 28433 C 2661.2 4.95807 3.13676 0
M  V30 28434 C 2663.55 5.50832 3.11074 0
M  V30 28435 C 2662.21 5.91115 3.10063 0
M  V30 28436 H 2661.48 0.382061 0.63491 0
M  V30 28437 H 2664.13 1.51859 1.16667 0
M  V30 28438 H 2662.43 1.14553 3.7468 0
M  V30 28439 H 2664.13 1.5346 3.70474 0
M  V30 28440 H 2660.72 2.87003 3.18319 0
M  V30 28441 H 2664.9 3.84944 3.1326 0
M  V30 28442 H 2660.16 5.26253 3.11236 0
M  V30 28443 H 2664.33 6.24909 3.07346 0
M  V30 28444 H 2661.96 6.95951 3.05869 0
M  V30 28445 N 2663.54 -1.19233 1.03059 0
M  V30 28446 C 2664.78 -1.88586 0.726614 0
M  V30 28447 C 2665.11 -1.80117 -0.747196 0
M  V30 28448 O 2664.38 -1.21277 -1.53847 0
M  V30 28449 H 2662.96 -0.698119 0.26578 0
M  V30 28450 H 2665.62 -1.44744 1.30519 0
M  V30 28451 H 2664.71 -2.94877 1.02245 0
M  V30 28452 N 2665.01 -0.808686 -1.3527 0
M  V30 28453 C 2666.43 -0.45072 -1.81178 0
M  V30 28454 C 2666.78 1.02748 -1.67144 0
M  V30 28455 O 2665.9 1.79861 -1.20328 0
M  V30 28456 C 2666.5 -0.811333 -3.28942 0
M  V30 28457 C 2665.06 -0.505936 -3.72984 0
M  V30 28458 C 2664.2 -1.03583 -2.57227 0
M  V30 28459 H 2667.15 -1.00014 -1.23219 0
M  V30 28460 H 2667.17 -0.109655 -3.80342 0
M  V30 28461 H 2666.69 -1.88724 -3.39124 0
M  V30 28462 H 2664.79 0.561144 -3.6835 0
M  V30 28463 H 2664.9 -1.04003 -4.67675 0
M  V30 28464 H 2663.26 -0.458049 -2.50547 0
M  V30 28465 H 2664.05 -2.11788 -2.70186 0
M  V30 28466 N 2666.49 1.47225 -0.562374 0
M  V30 28467 C 2667.74 2.0206 -0.0401726 0
M  V30 28468 C 2668.06 1.43854 1.31648 0
M  V30 28469 O 2667.33 0.615632 1.85975 0
M  V30 28470 H 2665.91 0.746906 -0.011861 0
M  V30 28471 H 2668.57 1.80569 -0.733552 0
M  V30 28472 H 2667.67 3.12069 0.0440705 0
M  V30 28473 N 2667.97 0.299089 1.54736 0
M  V30 28474 C 2668.88 -0.587373 2.27128 0
M  V30 28475 C 2669.9 -1.15003 1.30577 0
M  V30 28476 O 2671.07 -1.17522 1.63556 0
M  V30 28477 C 2668.14 -1.7439 2.99648 0
M  V30 28478 C 2667.2 -1.21551 4.11733 0
M  V30 28479 C 2666.43 -2.31692 4.80786 0
M  V30 28480 O 2666.65 -3.51551 4.49186 0
M  V30 28481 O 2665.59 -1.98491 5.6823 0
M  V30 28482 H 2669.41 -0.000196726 3.037 0
M  V30 28483 H 2667 0.0656181 1.49256 0
M  V30 28484 H 2668.88 -2.41774 3.45142 0
M  V30 28485 H 2667.56 -2.31771 2.25973 0
M  V30 28486 H 2666.46 -0.507449 3.70642 0
M  V30 28487 H 2667.8 -0.687147 4.8738 0
M  V30 28488 N 2669.45 -1.57577 0.0267774 0
M  V30 28489 C 2670.73 -1.82992 -0.690894 0
M  V30 28490 C 2671.11 -0.910198 -1.90469 0
M  V30 28491 O 2670.45 0.0347584 -2.28474 0
M  V30 28492 C 2670.66 -3.3215 -1.07133 0
M  V30 28493 C 2672.01 -3.98564 -1.46395 0
M  V30 28494 O 2673.04 -3.36632 -1.16437 0
M  V30 28495 O 2671.89 -5.07716 -2.02205 0
M  V30 28496 H 2668.99 -0.754446 -0.338734 0
M  V30 28497 H 2671.53 -1.69613 0.0542804 0
M  V30 28498 H 2670.31 -3.9075 -0.207325 0
M  V30 28499 H 2669.93 -3.50627 -1.87475 0
M  V30 28500 N 2670.93 0.246342 -1.55663 0
M  V30 28501 C 2671.86 1.3087 -1.93379 0
M  V30 28502 C 2672.84 1.50177 -0.798799 0
M  V30 28503 O 2674.02 1.62776 -1.05913 0
M  V30 28504 C 2671.15 2.66334 -2.22897 0
M  V30 28505 C 2670.11 2.61721 -3.38653 0
M  V30 28506 C 2669.43 4.00986 -3.53715 0
M  V30 28507 C 2670.73 2.18658 -4.74327 0
M  V30 28508 H 2672.43 0.995502 -2.82365 0
M  V30 28509 H 2669.97 0.47744 -1.35855 0
M  V30 28510 H 2671.93 3.4079 -2.47872 0
M  V30 28511 H 2670.65 2.99291 -1.30738 0
M  V30 28512 H 2669.31 1.89723 -3.13689 0
M  V30 28513 H 2668.96 4.31209 -2.58975 0
M  V30 28514 H 2668.66 3.98787 -4.31558 0
M  V30 28515 H 2670.18 4.7714 -3.81011 0
M  V30 28516 H 2671.59 2.82845 -4.9867 0
M  V30 28517 H 2669.99 2.27569 -5.55277 0
M  V30 28518 H 2671.06 1.13826 -4.71351 0
M  V30 28519 N 2672.4 1.4905 0.512027 0
M  V30 28520 C 2673.33 1.67812 1.62362 0
M  V30 28521 C 2674.32 0.526837 1.61736 0
M  V30 28522 O 2675.5 0.761435 1.7865 0
M  V30 28523 C 2672.63 1.7344 3.00892 0
M  V30 28524 C 2671.58 2.88248 3.16382 0
M  V30 28525 C 2670.91 2.7898 4.56152 0
M  V30 28526 C 2672.21 4.29327 2.97449 0
M  V30 28527 H 2673.9 2.60875 1.46916 0
M  V30 28528 H 2671.45 1.25542 0.705357 0
M  V30 28529 H 2673.4 1.85152 3.78546 0
M  V30 28530 H 2672.13 0.769675 3.17401 0
M  V30 28531 H 2670.79 2.7612 2.4115 0
M  V30 28532 H 2670.43 1.80438 4.69522 0
M  V30 28533 H 2670.13 3.56029 4.67458 0
M  V30 28534 H 2671.66 2.92684 5.35881 0
M  V30 28535 H 2673.07 4.42193 3.64881 0
M  V30 28536 H 2671.47 5.07513 3.20236 0
M  V30 28537 H 2672.54 4.44539 1.93684 0
M  V30 28538 N 2673.88 -0.762259 1.3794 0
M  V30 28539 C 2675.11 -1.5492 1.36688 0
M  V30 28540 C 2675.52 -1.89141 -0.0473767 0
M  V30 28541 O 2674.86 -1.52639 -1.0221 0
M  V30 28542 C 2674.93 -2.88148 2.14968 0
M  V30 28543 C 2674.59 -2.76512 3.63855 0
M  V30 28544 C 2675.59 -2.46896 4.57535 0
M  V30 28545 C 2673.27 -2.94236 4.071 0
M  V30 28546 C 2675.27 -2.35145 5.9244 0
M  V30 28547 C 2672.95 -2.82106 5.42088 0
M  V30 28548 C 2673.95 -2.52602 6.34572 0
M  V30 28549 O 2673.64 -2.40516 7.67077 0
M  V30 28550 H 2673.37 -0.486268 0.469595 0
M  V30 28551 H 2675.92 -0.951844 1.82014 0
M  V30 28552 H 2674.15 -3.50039 1.64346 0
M  V30 28553 H 2675.84 -3.49605 2.06231 0
M  V30 28554 H 2676.61 -2.32879 4.25432 0
M  V30 28555 H 2672.49 -3.162 3.35468 0
M  V30 28556 H 2676.03 -2.12038 6.64594 0
M  V30 28557 H 2671.93 -2.95694 5.7379 0
M  V30 28558 H 2672.7 -2.55794 7.77504 0
M  V30 28559 N 2675.36 -1.22666 -0.989486 0
M  V30 28560 C 2676.29 -1.02407 -2.09845 0
M  V30 28561 C 2677.27 0.0561004 -1.70007 0
M  V30 28562 O 2678.46 -0.106782 -1.93906 0
M  V30 28563 C 2675.59 -0.604723 -3.41995 0
M  V30 28564 C 2674.54 -1.63122 -3.95696 0
M  V30 28565 C 2673.87 -1.06759 -5.23934 0
M  V30 28566 C 2675.17 -3.02204 -4.25993 0
M  V30 28567 H 2676.86 -1.95162 -2.27051 0
M  V30 28568 H 2674.41 -0.939747 -1.09109 0
M  V30 28569 H 2676.36 -0.450093 -4.18989 0
M  V30 28570 H 2675.08 0.358493 -3.24627 0
M  V30 28571 H 2673.74 -1.77368 -3.20837 0
M  V30 28572 H 2673.39 -0.0956306 -5.02909 0
M  V30 28573 H 2673.09 -1.75338 -5.6083 0
M  V30 28574 H 2674.61 -0.924622 -6.03559 0
M  V30 28575 H 2676.03 -2.91311 -4.93772 0
M  V30 28576 H 2674.43 -3.67938 -4.74069 0
M  V30 28577 H 2675.5 -3.51879 -3.3363 0
M  V30 28578 N 2676.84 1.18685 -1.0369 0
M  V30 28579 C 2678.26 1.40589 -0.755438 0
M  V30 28580 C 2678.46 1.90501 0.656626 0
M  V30 28581 O 2677.51 2.08692 1.42141 0
M  V30 28582 C 2678.82 2.40998 -1.79835 0
M  V30 28583 C 2680.37 2.54731 -1.81882 0
M  V30 28584 C 2680.85 3.58401 -2.85154 0
M  V30 28585 N 2682.34 3.65905 -2.84021 0
M  V30 28586 C 2683.07 4.45835 -3.60581 0
M  V30 28587 N 2682.57 5.29405 -4.4688 0
M  V30 28588 N 2684.36 4.40562 -3.49087 0
M  V30 28589 H 2676.51 0.846114 -1.9482 0
M  V30 28590 H 2678.78 0.434169 -0.842734 0
M  V30 28591 H 2678.48 2.11365 -2.81101 0
M  V30 28592 H 2678.36 3.40291 -1.62733 0
M  V30 28593 H 2680.74 2.83683 -0.812886 0
M  V30 28594 H 2680.82 1.55565 -2.0306 0
M  V30 28595 H 2680.47 3.3019 -3.85924 0
M  V30 28596 H 2680.4 4.57237 -2.61232 0
M  V30 28597 H 2682.89 3.06226 -2.21436 0
M  V30 28598 H 2683.2 5.87536 -5.02018 0
M  V30 28599 H 2681.55 5.28838 -4.50949 0
M  V30 28600 H 2684.74 3.7432 -2.81073 0
M  V30 28601 H 2684.91 5.02614 -4.09003 0
M  V30 28602 N 2678.32 0.815849 1.34839 0
M  V30 28603 C 2679.28 0.238225 2.27959 0
M  V30 28604 C 2680.28 -0.579789 1.49984 0
M  V30 28605 O 2681.47 -0.396923 1.69618 0
M  V30 28606 C 2678.6 -0.666817 3.34315 0
M  V30 28607 H 2679.8 1.05963 2.80556 0
M  V30 28608 H 2677.35 0.587181 1.44851 0
M  V30 28609 H 2678.08 -1.51155 2.86919 0
M  V30 28610 H 2677.87 -0.0818416 3.92015 0
M  V30 28611 H 2679.36 -1.06499 4.03792 0
M  V30 28612 N 2679.8 -1.46924 0.570174 0
M  V30 28613 C 2681.02 -2.07329 0.0542956 0
M  V30 28614 C 2681.45 -1.41809 -1.2358 0
M  V30 28615 O 2680.8 -0.49751 -1.7434 0
M  V30 28616 C 2680.85 -3.60429 -0.111112 0
M  V30 28617 O 2679.96 -3.95436 -1.17064 0
M  V30 28618 H 2679.3 -0.661536 0.0571541 0
M  V30 28619 H 2681.83 -1.88752 0.789549 0
M  V30 28620 H 2681.84 -4.06733 -0.321244 0
M  V30 28621 H 2680.51 -4.07512 0.831084 0
M  V30 28622 H 2679.09 -3.60859 -0.939966 0
M  V30 28623 N 2681.27 -0.307291 -1.54575 0
M  V30 28624 C 2682.18 0.57532 -2.27436 0
M  V30 28625 C 2683.2 1.14309 -1.31185 0
M  V30 28626 O 2684.38 1.16653 -1.64177 0
M  V30 28627 C 2681.44 1.72798 -3.00569 0
M  V30 28628 C 2680.5 1.19366 -4.12371 0
M  V30 28629 C 2679.73 2.29139 -4.82007 0
M  V30 28630 O 2679.96 3.49164 -4.51044 0
M  V30 28631 O 2678.89 1.95475 -5.69274 0
M  V30 28632 H 2682.72 -0.0159092 -3.03696 0
M  V30 28633 H 2680.3 -0.0735326 -1.49219 0
M  V30 28634 H 2682.18 2.3994 -3.4642 0
M  V30 28635 H 2680.86 2.3057 -2.27199 0
M  V30 28636 H 2679.77 0.487786 -3.70906 0
M  V30 28637 H 2681.1 0.66129 -4.87737 0
M  V30 28638 N 2682.75 1.57561 -0.0351337 0
M  V30 28639 C 2683.68 2.06103 0.979637 0
M  V30 28640 C 2684.66 0.958069 1.31377 0
M  V30 28641 O 2685.85 1.22884 1.4294 0
M  V30 28642 C 2682.97 2.48812 2.29805 0
M  V30 28643 C 2682.02 3.70187 2.1181 0
M  V30 28644 S 2682.85 5.16567 1.41133 0
M  V30 28645 C 2684.01 5.62577 2.74331 0
M  V30 28646 H 2684.24 2.91854 0.566455 0
M  V30 28647 H 2681.77 1.53385 0.176717 0
M  V30 28648 H 2683.73 2.74084 3.05595 0
M  V30 28649 H 2682.39 1.63396 2.68254 0
M  V30 28650 H 2681.59 3.97938 3.09292 0
M  V30 28651 H 2681.19 3.45099 1.44162 0
M  V30 28652 H 2683.48 5.67184 3.70552 0
M  V30 28653 H 2684.42 6.62031 2.51237 0
M  V30 28654 H 2684.83 4.90247 2.79854 0
M  V30 28655 N 2684.23 -0.238084 1.55791 0
M  V30 28656 C 2685.19 -1.27832 1.90241 0
M  V30 28657 C 2686.19 -1.40639 0.779577 0
M  V30 28658 O 2687.38 -1.39188 1.04749 0
M  V30 28659 C 2684.51 -2.65471 2.13864 0
M  V30 28660 H 2685.71 -0.984984 2.83263 0
M  V30 28661 H 2683.26 -0.477772 1.48819 0
M  V30 28662 H 2684 -2.9993 1.23339 0
M  V30 28663 H 2683.78 -2.57555 2.95648 0
M  V30 28664 H 2685.27 -3.40566 2.4167 0
M  V30 28665 N 2685.71 -1.4932 -0.504115 0
M  V30 28666 C 2687.12 -1.36013 -0.835015 0
M  V30 28667 C 2687.32 -0.390842 -1.97673 0
M  V30 28668 O 2686.38 0.178611 -2.51867 0
M  V30 28669 C 2687.69 -2.76659 -1.17816 0
M  V30 28670 C 2689.24 -2.85336 -1.28655 0
M  V30 28671 C 2689.72 -4.26742 -1.663 0
M  V30 28672 N 2691.21 -4.29537 -1.73355 0
M  V30 28673 C 2691.94 -5.35914 -2.03921 0
M  V30 28674 N 2691.44 -6.52539 -2.32732 0
M  V30 28675 N 2693.23 -5.23328 -2.05145 0
M  V30 28676 H 2685.38 -2.10938 0.248801 0
M  V30 28677 H 2687.64 -0.946748 0.0487128 0
M  V30 28678 H 2687.35 -3.49271 -0.41262 0
M  V30 28679 H 2687.22 -3.11828 -2.12233 0
M  V30 28680 H 2689.61 -2.12963 -2.04281 0
M  V30 28681 H 2689.69 -2.53753 -0.322959 0
M  V30 28682 H 2689.34 -4.9964 -0.912252 0
M  V30 28683 H 2689.27 -4.55787 -2.63753 0
M  V30 28684 H 2691.76 -3.45426 -1.53262 0
M  V30 28685 H 2692.07 -7.29435 -2.55235 0
M  V30 28686 H 2690.42 -6.55771 -2.30195 0
M  V30 28687 H 2693.61 -4.31223 -1.82111 0
M  V30 28688 H 2693.78 -6.06326 -2.28633 0
M  V30 28689 N 2687.19 0.754933 -1.38342 0
M  V30 28690 C 2688.15 1.8503 -1.35265 0
M  V30 28691 C 2689.15 1.5879 -0.253421 0
M  V30 28692 O 2690.34 1.6656 -0.510235 0
M  V30 28693 C 2687.47 3.22477 -1.1055 0
M  V30 28694 H 2688.66 1.89166 -2.32715 0
M  V30 28695 H 2686.22 0.956493 -1.23616 0
M  V30 28696 H 2686.95 3.2401 -0.137009 0
M  V30 28697 H 2686.74 3.42917 -1.90133 0
M  V30 28698 H 2688.23 4.02553 -1.11089 0
M  V30 28699 N 2688.66 1.23189 0.982967 0
M  V30 28700 C 2689.57 1.02743 2.10905 0
M  V30 28701 C 2690.59 -0.0272883 1.73979 0
M  V30 28702 O 2691.77 0.167605 2.00701 0
M  V30 28703 C 2688.83 0.618364 3.41141 0
M  V30 28704 C 2687.89 1.74784 3.92109 0
M  V30 28705 C 2687.12 1.35819 5.16129 0
M  V30 28706 O 2687.35 0.241301 5.69889 0
M  V30 28707 O 2686.28 2.17834 5.61099 0
M  V30 28708 H 2690.11 1.97112 2.31042 0
M  V30 28709 H 2687.69 1.01871 1.09282 0
M  V30 28710 H 2689.57 0.401056 4.19487 0
M  V30 28711 H 2688.25 -0.296364 3.2234 0
M  V30 28712 H 2687.16 2.01976 3.14891 0
M  V30 28713 H 2688.49 2.64079 4.15359 0
M  V30 28714 N 2690.14 -1.18133 1.04318 0
M  V30 28715 C 2691.39 -1.87805 0.746575 0
M  V30 28716 C 2691.71 -1.80899 -0.72805 0
M  V30 28717 O 2690.98 -1.22901 -1.52552 0
M  V30 28718 H 2689.56 -0.695261 0.27317 0
M  V30 28719 H 2692.22 -1.43351 1.32047 0
M  V30 28720 H 2691.32 -2.93776 1.05367 0
M  V30 28721 N 2691.62 -0.822988 -1.34405 0
M  V30 28722 C 2692.87 -0.407492 -1.97541 0
M  V30 28723 C 2693.18 1.03497 -1.65975 0
M  V30 28724 O 2694.39 1.55438 -2.22601 0
M  V30 28725 C 2692.84 -0.677685 -3.53462 0
M  V30 28726 C 2692.45 -2.13377 -3.93921 0
M  V30 28727 C 2694.2 -0.328358 -4.23228 0
M  V30 28728 C 2692.1 -2.34885 -5.42755 0
M  V30 28729 H 2691.03 -0.148636 -0.739205 0
M  V30 28730 H 2693.68 -1.00935 -1.53246 0
M  V30 28731 H 2692.07 -0.00565926 -3.96 0
M  V30 28732 H 2693.24 -2.84496 -3.62489 0
M  V30 28733 H 2691.56 -2.44454 -3.37092 0
M  V30 28734 H 2694.15 -0.466888 -5.32658 0
M  V30 28735 H 2694.5 0.727152 -4.099 0
M  V30 28736 H 2695.03 -0.954964 -3.86167 0
M  V30 28737 H 2691.77 -3.38942 -5.61069 0
M  V30 28738 H 2691.29 -1.6831 -5.75701 0
M  V30 28739 H 2692.97 -2.17247 -6.09436 0
M  V30 28740 N 2693.1 1.4662 -0.577957 0
M  V30 28741 C 2694.51 1.86096 -0.150104 0
M  V30 28742 C 2694.86 1.48212 1.2856 0
M  V30 28743 O 2693.99 0.894788 1.97034 0
M  V30 28744 C 2694.58 3.37757 -0.265636 0
M  V30 28745 C 2693.14 3.76247 0.107314 0
M  V30 28746 C 2692.29 2.70647 -0.603758 0
M  V30 28747 H 2695.24 1.37842 -0.786462 0
M  V30 28748 H 2695.26 3.77063 0.510286 0
M  V30 28749 H 2694.77 3.65299 -1.31066 0
M  V30 28750 H 2692.87 3.54323 1.15266 0
M  V30 28751 H 2692.98 4.78363 -0.265694 0
M  V30 28752 H 2691.35 2.54661 -0.0445331 0
M  V30 28753 H 2692.13 3.01029 -1.65034 0
M  V30 28754 N 2694.58 0.315484 1.5441 0
M  V30 28755 C 2695.52 -0.554127 2.24049 0
M  V30 28756 C 2696.49 -1.1181 1.22832 0
M  V30 28757 O 2697.68 -1.15994 1.51493 0
M  V30 28758 C 2694.82 -1.71311 2.99577 0
M  V30 28759 C 2693.93 -1.17914 4.15596 0
M  V30 28760 C 2693.07 -2.30316 4.78673 0
M  V30 28761 C 2692.11 -1.74127 5.8681 0
M  V30 28762 N 2691.24 -2.80159 6.43782 0
M  V30 28763 H 2696.08 0.0463126 2.97964 0
M  V30 28764 H 2693.62 0.0346267 1.47059 0
M  V30 28765 H 2695.58 -2.39499 3.41608 0
M  V30 28766 H 2694.21 -2.28496 2.28012 0
M  V30 28767 H 2693.26 -0.38907 3.78405 0
M  V30 28768 H 2694.57 -0.727925 4.9346 0
M  V30 28769 H 2693.73 -3.06423 5.23631 0
M  V30 28770 H 2692.46 -2.78771 4.00173 0
M  V30 28771 H 2691.47 -0.96514 5.41262 0
M  V30 28772 H 2692.69 -1.26559 6.67203 0
M  V30 28773 H 2690.64 -3.2792 5.68159 0
M  V30 28774 H 2690.56 -2.39576 7.17035 0
M  V30 28775 H 2691.83 -3.5612 6.93397 0
M  V30 28776 N 2696.05 -1.5754 0.0434891 0
M  V30 28777 C 2697.3 -1.91562 -0.63142 0
M  V30 28778 C 2697.62 -0.92295 -1.72456 0
M  V30 28779 O 2698.82 -1.15494 -2.4571 0
M  V30 28780 C 2697.28 -3.402 -1.17441 0
M  V30 28781 C 2696.89 -4.47855 -0.113788 0
M  V30 28782 C 2698.63 -3.83267 -1.825 0
M  V30 28783 C 2696.54 -5.87601 -0.669222 0
M  V30 28784 H 2695.47 -0.714912 -0.239617 0
M  V30 28785 H 2698.12 -1.83163 0.111129 0
M  V30 28786 H 2696.5 -3.43577 -1.96903 0
M  V30 28787 H 2697.67 -4.56057 0.659428 0
M  V30 28788 H 2695.99 -4.14081 0.438894 0
M  V30 28789 H 2698.59 -4.85038 -2.25038 0
M  V30 28790 H 2698.93 -3.191 -2.6736 0
M  V30 28791 H 2699.46 -3.82374 -1.09706 0
M  V30 28792 H 2696.2 -6.55347 0.141564 0
M  V30 28793 H 2695.72 -5.82977 -1.4106 0
M  V30 28794 H 2697.4 -6.36616 -1.15451 0
M  V30 28795 N 2697.53 0.229818 -1.55915 0
M  V30 28796 C 2698.76 0.97112 -1.82354 0
M  V30 28797 C 2699.17 1.78779 -0.619262 0
M  V30 28798 O 2698.51 1.78797 0.421565 0
M  V30 28799 C 2698.58 1.94405 -3.02402 0
M  V30 28800 C 2698.24 1.31269 -4.37741 0
M  V30 28801 C 2699.24 0.706666 -5.15075 0
M  V30 28802 C 2696.92 1.32694 -4.84456 0
M  V30 28803 C 2698.92 0.123301 -6.37281 0
M  V30 28804 C 2696.6 0.739724 -6.06606 0
M  V30 28805 C 2697.6 0.138951 -6.82859 0
M  V30 28806 O 2697.29 -0.439148 -8.027 0
M  V30 28807 H 2697.02 0.29059 -0.610355 0
M  V30 28808 H 2699.57 0.25271 -2.03839 0
M  V30 28809 H 2697.8 2.70123 -2.76714 0
M  V30 28810 H 2699.49 2.5502 -3.15784 0
M  V30 28811 H 2700.26 0.688047 -4.80095 0
M  V30 28812 H 2696.14 1.78394 -4.25084 0
M  V30 28813 H 2699.68 -0.346247 -6.9674 0
M  V30 28814 H 2695.58 0.755729 -6.41061 0
M  V30 28815 H 2696.35 -0.332665 -8.17824 0
M  V30 28816 N 2699.01 1.49585 0.49619 0
M  V30 28817 C 2700.26 1.59551 1.25186 0
M  V30 28818 C 2700.59 0.2835 1.9212 0
M  V30 28819 O 2699.86 -0.713292 1.80949 0
M  V30 28820 C 2700.15 2.75816 2.31511 0
M  V30 28821 C 2700 4.16825 1.69047 0
M  V30 28822 C 2701.32 2.87708 3.33035 0
M  V30 28823 H 2698.44 0.580735 0.45378 0
M  V30 28824 H 2701.08 1.81887 0.549295 0
M  V30 28825 H 2699.23 2.56902 2.91433 0
M  V30 28826 H 2700.9 4.47267 1.12915 0
M  V30 28827 H 2699.15 4.22249 0.994411 0
M  V30 28828 H 2699.82 4.94059 2.46191 0
M  V30 28829 H 2702.29 3.04941 2.83109 0
M  V30 28830 H 2701.17 3.70727 4.04787 0
M  V30 28831 H 2701.43 1.97262 3.95652 0
M  V30 28832 N 2700.49 -0.747586 1.3874 0
M  V30 28833 C 2701.45 -1.8431 1.36245 0
M  V30 28834 C 2702.45 -1.58654 0.261839 0
M  V30 28835 O 2703.64 -1.66287 0.51906 0
M  V30 28836 C 2700.77 -3.21886 1.12259 0
M  V30 28837 H 2701.97 -1.87929 2.33715 0
M  V30 28838 H 2699.52 -0.949924 1.24121 0
M  V30 28839 H 2700.25 -3.23933 0.15419 0
M  V30 28840 H 2700.04 -3.41903 1.91949 0
M  V30 28841 H 2701.53 -4.01958 1.13223 0
M  V30 28842 N 2701.97 -1.23709 -0.97642 0
M  V30 28843 C 2702.93 -1.02291 -2.05108 0
M  V30 28844 C 2703.93 0.0166912 -1.60791 0
M  V30 28845 O 2705.12 -0.223438 -1.72761 0
M  V30 28846 C 2702.25 -0.548566 -3.36457 0
M  V30 28847 H 2703.44 -1.97664 -2.25542 0
M  V30 28848 H 2701 -1.05808 -1.1504 0
M  V30 28849 H 2701.73 0.408761 -3.21714 0
M  V30 28850 H 2701.52 -1.2988 -3.69964 0
M  V30 28851 H 2703.01 -0.419479 -4.15488 0
M  V30 28852 N 2703.44 1.17579 -1.04943 0
M  V30 28853 C 2704.39 2.23562 -0.642079 0
M  V30 28854 C 2705.39 1.66046 0.335423 0
M  V30 28855 O 2706.59 1.78866 0.201758 0
M  V30 28856 H 2702.97 0.727744 -0.189453 0
M  V30 28857 H 2704.94 2.5522 -1.54613 0
M  V30 28858 C 2703.69 3.47687 -0.0301662 0
M  V30 28859 H 2703.01 3.92248 -0.773408 0
M  V30 28860 H 2704.45 4.23442 0.217518 0
M  V30 28861 C 2702.91 3.1394 1.22244 0
M  V30 28862 O 2703.44 3.28486 2.31214 0
M  V30 28863 N 2701.65 2.68187 1.11912 0
M  V30 28864 H 2701.19 2.5655 0.232358 0
M  V30 28865 H 2701.15 2.45979 1.9581 0
M  V30 28866 N 2704.92 0.830104 1.33967 0
M  V30 28867 C 2706.15 0.433831 2.02812 0
M  V30 28868 C 2706.57 -0.954586 1.62078 0
M  V30 28869 O 2705.93 -1.6225 0.808983 0
M  V30 28870 C 2705.98 0.552178 3.56347 0
M  V30 28871 O 2705.08 -0.425119 4.10203 0
M  V30 28872 H 2704.42 0.177578 0.639814 0
M  V30 28873 H 2706.95 1.12251 1.71058 0
M  V30 28874 H 2706.96 0.430585 4.05722 0
M  V30 28875 H 2705.64 1.56477 3.85341 0
M  V30 28876 H 2704.22 -0.261812 3.7198 0
M  V30 28877 N 2706.4 -1.46311 0.585725 0
M  V30 28878 C 2707.65 -2.01971 0.0723135 0
M  V30 28879 C 2707.97 -1.4593 -1.29342 0
M  V30 28880 O 2707.24 -0.645141 -1.84972 0
M  V30 28881 H 2705.82 -0.746623 0.0237422 0
M  V30 28882 H 2708.48 -1.79379 0.762186 0
M  V30 28883 H 2707.58 -3.121 0.00558253 0
M  V30 28884 N 2707.88 -0.323668 -1.54241 0
M  V30 28885 C 2708.84 0.529563 -2.22998 0
M  V30 28886 C 2709.84 1.04345 -1.22347 0
M  V30 28887 O 2711.03 0.935863 -1.46926 0
M  V30 28888 C 2708.16 1.73557 -2.93412 0
M  V30 28889 H 2709.36 -0.0715045 -2.99815 0
M  V30 28890 H 2706.91 -0.0747533 -1.56121 0
M  V30 28891 H 2707.65 2.37587 -2.20733 0
M  V30 28892 H 2707.43 1.37449 -3.67219 0
M  V30 28893 H 2708.92 2.34122 -3.45799 0
M  V30 28894 N 2709.36 1.57515 -0.0518432 0
M  V30 28895 C 2710.77 1.56664 0.304707 0
M  V30 28896 C 2710.97 1.05956 1.71393 0
M  V30 28897 O 2710.03 0.716457 2.42122 0
M  V30 28898 C 2711.34 3.00408 0.132562 0
M  V30 28899 C 2712.89 3.12337 0.203615 0
M  V30 28900 C 2713.37 4.57961 0.0599901 0
M  V30 28901 N 2714.86 4.63054 0.116245 0
M  V30 28902 C 2715.59 5.73393 0.0292355 0
M  V30 28903 N 2715.09 6.92712 -0.11016 0
M  V30 28904 N 2716.88 5.62036 0.0848663 0
M  V30 28905 H 2709.03 1.88798 -0.973089 0
M  V30 28906 H 2711.29 0.869468 -0.377796 0
M  V30 28907 H 2711 3.41544 -0.839079 0
M  V30 28908 H 2710.87 3.66469 0.893311 0
M  V30 28909 H 2713.26 2.71099 1.16573 0
M  V30 28910 H 2713.34 2.48953 -0.587901 0
M  V30 28911 H 2712.99 4.99884 -0.898802 0
M  V30 28912 H 2712.92 5.19353 0.870659 0
M  V30 28913 H 2715.41 3.7724 0.223204 0
M  V30 28914 H 2715.72 7.72615 -0.16924 0
M  V30 28915 H 2714.07 6.94848 -0.145254 0
M  V30 28916 H 2717.26 4.67705 0.192329 0
M  V30 28917 H 2717.43 6.47999 0.0135992 0
M  V30 28918 N 2710.84 -0.221546 1.56035 0
M  V30 28919 C 2712.08 -0.943985 1.78247 0
M  V30 28920 C 2712.4 -1.855 0.620403 0
M  V30 28921 O 2713.6 -2.61609 0.726149 0
M  V30 28922 C 2712.06 -1.72874 3.15662 0
M  V30 28923 C 2711.67 -0.863865 4.39592 0
M  V30 28924 C 2713.41 -2.4424 3.47199 0
M  V30 28925 C 2711.32 -1.64597 5.68033 0
M  V30 28926 H 2710.25 -0.35621 0.664553 0
M  V30 28927 H 2712.9 -0.197872 1.8243 0
M  V30 28928 H 2711.28 -2.51776 3.05655 0
M  V30 28929 H 2712.46 -0.115383 4.60656 0
M  V30 28930 H 2710.77 -0.262334 4.15573 0
M  V30 28931 H 2713.37 -3.03256 4.40386 0
M  V30 28932 H 2713.71 -3.17125 2.69698 0
M  V30 28933 H 2714.24 -1.72328 3.58536 0
M  V30 28934 H 2710.98 -0.960393 6.48426 0
M  V30 28935 H 2710.5 -2.36907 5.51031 0
M  V30 28936 H 2712.18 -2.20665 6.08207 0
M  V30 28937 N 2712.31 -1.49846 -0.48825 0
M  V30 28938 C 2713.56 -1.59659 -1.23909 0
M  V30 28939 C 2713.88 -0.291039 -1.92816 0
M  V30 28940 O 2713.15 0.690453 -1.83329 0
M  V30 28941 H 2711.73 -0.588294 -0.460347 0
M  V30 28942 H 2714.39 -1.86538 -0.564761 0
M  V30 28943 H 2713.49 -2.39912 -1.99621 0
M  V30 28944 N 2713.79 0.740218 -1.39135 0
M  V30 28945 C 2714.72 1.86274 -1.31823 0
M  V30 28946 C 2715.7 1.61453 -0.192822 0
M  V30 28947 O 2716.89 1.84785 -0.372398 0
M  V30 28948 C 2714.01 3.22153 -1.0457 0
M  V30 28949 C 2713.06 3.65842 -2.1923 0
M  V30 28950 S 2713.89 3.75817 -3.81473 0
M  V30 28951 C 2715.05 5.14495 -3.56434 0
M  V30 28952 H 2715.28 1.92191 -2.26826 0
M  V30 28953 H 2712.81 0.904554 -1.25129 0
M  V30 28954 H 2714.77 4.00618 -0.895298 0
M  V30 28955 H 2713.43 3.13898 -0.112633 0
M  V30 28956 H 2712.63 4.64437 -1.95741 0
M  V30 28957 H 2712.23 2.94568 -2.30446 0
M  V30 28958 H 2714.52 6.00668 -3.13376 0
M  V30 28959 H 2715.46 5.43011 -4.54471 0
M  V30 28960 H 2715.87 4.83925 -2.90649 0
M  V30 28961 N 2715.27 1.24225 0.969846 0
M  V30 28962 C 2716.23 1.03377 2.04563 0
M  V30 28963 C 2717.23 -0.0081638 1.60798 0
M  V30 28964 O 2718.42 0.232597 1.7264 0
M  V30 28965 C 2715.55 0.566402 3.36162 0
M  V30 28966 H 2716.75 1.98857 2.2449 0
M  V30 28967 H 2714.3 1.06417 1.14478 0
M  V30 28968 H 2715.04 -0.391694 3.21926 0
M  V30 28969 H 2714.82 1.3184 3.6927 0
M  V30 28970 H 2716.31 0.441508 4.1526 0
M  V30 28971 N 2716.75 -1.1702 1.05565 0
M  V30 28972 C 2717.66 -2.24805 0.670797 0
M  V30 28973 C 2718.67 -1.71219 -0.309835 0
M  V30 28974 O 2719.85 -2.00756 -0.16099 0
M  V30 28975 C 2716.91 -3.46656 0.0553979 0
M  V30 28976 C 2715.98 -4.15312 1.08696 0
M  V30 28977 C 2715.21 -5.31345 0.50083 0
M  V30 28978 O 2715.43 -5.66228 -0.688618 0
M  V30 28979 O 2714.37 -5.89053 1.23693 0
M  V30 28980 H 2718.19 -2.6002 1.56918 0
M  V30 28981 H 2715.78 -1.24393 0.82745 0
M  V30 28982 H 2717.66 -4.20426 -0.286418 0
M  V30 28983 H 2716.33 -3.13231 -0.816583 0
M  V30 28984 H 2715.24 -3.43544 1.48083 0
M  V30 28985 H 2716.57 -4.52773 1.93022 0
M  V30 28986 N 2718.23 -0.837197 -1.33524 0
M  V30 28987 C 2719.14 -0.271609 -2.33022 0
M  V30 28988 C 2720.15 0.601485 -1.63273 0
M  V30 28989 O 2721.33 0.506004 -1.9494 0
M  V30 28990 C 2718.39 0.545388 -3.42383 0
M  V30 28991 C 2717.45 -0.351784 -4.27856 0
M  V30 28992 C 2716.69 0.426315 -5.31995 0
M  V30 28993 O 2716.91 1.65819 -5.45766 0
M  V30 28994 O 2715.84 -0.198805 -6.01572 0
M  V30 28995 H 2719.67 -1.09549 -2.83254 0
M  V30 28996 H 2717.25 -0.599679 -1.36836 0
M  V30 28997 H 2719.14 1.00972 -4.09124 0
M  V30 28998 H 2717.81 1.34636 -2.94372 0
M  V30 28999 H 2716.72 -0.863917 -3.63988 0
M  V30 29000 H 2718.05 -1.11748 -4.79347 0
M  V30 29001 N 2719.7 1.45999 -0.593476 0
M  V30 29002 C 2720.95 2.01538 -0.0808438 0
M  V30 29003 C 2721.27 1.46936 1.29109 0
M  V30 29004 O 2722.47 1.94362 1.89567 0
M  V30 29005 C 2720.93 3.59777 -0.0938943 0
M  V30 29006 C 2720.54 4.23376 -1.46481 0
M  V30 29007 C 2722.28 4.22935 0.364231 0
M  V30 29008 C 2720.19 5.73726 -1.43501 0
M  V30 29009 H 2719.12 0.753536 -0.0264539 0
M  V30 29010 H 2721.77 1.6762 -0.746719 0
M  V30 29011 H 2720.15 3.90821 0.638358 0
M  V30 29012 H 2721.32 4.03927 -2.21765 0
M  V30 29013 H 2719.64 3.72357 -1.86385 0
M  V30 29014 H 2722.24 5.3316 0.405491 0
M  V30 29015 H 2722.58 3.9262 1.38402 0
M  V30 29016 H 2723.11 3.96556 -0.3143 0
M  V30 29017 H 2719.85 6.08717 -2.43194 0
M  V30 29018 H 2719.37 5.95408 -0.724536 0
M  V30 29019 H 2721.05 6.36652 -1.15254 0
M  V30 29020 N 2721.18 0.331843 1.54067 0
M  V30 29021 C 2722.13 -0.530332 2.24624 0
M  V30 29022 C 2723.1 -1.10501 1.24011 0
M  V30 29023 O 2724.28 -1.14381 1.52714 0
M  V30 29024 C 2721.42 -1.68124 3.01377 0
M  V30 29025 C 2720.54 -1.135 4.16823 0
M  V30 29026 C 2719.67 -2.25226 4.81089 0
M  V30 29027 C 2718.71 -1.67893 5.88624 0
M  V30 29028 N 2717.85 -2.73315 6.46717 0
M  V30 29029 H 2722.69 0.077913 2.97898 0
M  V30 29030 H 2720.23 0.0502224 1.47014 0
M  V30 29031 H 2722.18 -2.35862 3.44129 0
M  V30 29032 H 2720.81 -2.26065 2.30423 0
M  V30 29033 H 2719.87 -0.348913 3.78796 0
M  V30 29034 H 2721.18 -0.675546 4.94204 0
M  V30 29035 H 2720.33 -3.00852 5.26852 0
M  V30 29036 H 2719.07 -2.74511 4.03107 0
M  V30 29037 H 2718.08 -0.907678 5.42256 0
M  V30 29038 H 2719.3 -1.19475 6.68508 0
M  V30 29039 H 2717.25 -3.21876 5.71605 0
M  V30 29040 H 2717.16 -2.31957 7.19536 0
M  V30 29041 H 2718.43 -3.48745 6.97135 0
M  V30 29042 N 2722.66 -1.57485 0.0601958 0
M  V30 29043 C 2723.61 -2.08573 -0.920932 0
M  V30 29044 C 2724.59 -0.992849 -1.26615 0
M  V30 29045 O 2725.79 -1.25608 -1.24706 0
M  V30 29046 C 2722.92 -2.64157 -2.19262 0
M  V30 29047 C 2722 -3.8043 -1.8744 0
M  V30 29048 N 2722.39 -4.8985 -1.26017 0
M  V30 29049 C 2720.69 -3.89506 -2.17258 0
M  V30 29050 C 2721.39 -5.70811 -1.12026 0
M  V30 29051 N 2720.37 -5.18707 -1.62615 0
M  V30 29052 H 2724.17 -2.90565 -0.44151 0
M  V30 29053 H 2721.68 -1.6176 -0.144014 0
M  V30 29054 H 2723.68 -2.99066 -2.90457 0
M  V30 29055 H 2722.34 -1.83608 -2.67803 0
M  V30 29056 H 2723.35 -5.09459 -0.931247 0
M  V30 29057 H 2720.03 -3.19914 -2.68256 0
M  V30 29058 H 2721.42 -6.68819 -0.642665 0
M  V30 29059 N 2724.14 0.213268 -1.5615 0
M  V30 29060 C 2725.07 1.29179 -1.88117 0
M  V30 29061 C 2726.05 1.44817 -0.739374 0
M  V30 29062 O 2727.23 1.60498 -0.988569 0
M  V30 29063 C 2724.36 2.66098 -2.09546 0
M  V30 29064 C 2723.41 2.6743 -3.3224 0
M  V30 29065 S 2724.24 2.2067 -4.87919 0
M  V30 29066 C 2725.4 3.59449 -5.12393 0
M  V30 29067 H 2725.63 1.01871 -2.79302 0
M  V30 29068 H 2723.16 0.415908 -1.48693 0
M  V30 29069 H 2725.12 3.44921 -2.22575 0
M  V30 29070 H 2723.78 2.90626 -1.19143 0
M  V30 29071 H 2722.97 3.68064 -3.44304 0
M  V30 29072 H 2722.58 1.96676 -3.18111 0
M  V30 29073 H 2724.87 4.55196 -5.01799 0
M  V30 29074 H 2725.81 3.52295 -6.14243 0
M  V30 29075 H 2726.22 3.5352 -4.40095 0
M  V30 29076 N 2725.62 1.50103 0.480296 0
M  V30 29077 C 2726.86 1.60631 1.23304 0
M  V30 29078 C 2727.19 0.302409 1.92135 0
M  V30 29079 O 2726.45 -0.711122 1.82323 0
M  V30 29080 C 2726.75 2.72967 2.30703 0
M  V30 29081 C 2726.41 4.13766 1.79188 0
M  V30 29082 C 2725.07 4.52078 1.64859 0
M  V30 29083 C 2727.43 5.01802 1.40869 0
M  V30 29084 C 2724.75 5.76177 1.10621 0
M  V30 29085 C 2727.11 6.26439 0.880762 0
M  V30 29086 C 2725.77 6.63562 0.72403 0
M  V30 29087 H 2725.04 0.587792 0.451201 0
M  V30 29088 H 2727.69 1.84006 0.530477 0
M  V30 29089 H 2725.99 2.43644 3.0683 0
M  V30 29090 H 2727.69 2.78318 2.88687 0
M  V30 29091 H 2724.28 3.83536 1.91306 0
M  V30 29092 H 2728.46 4.72842 1.50778 0
M  V30 29093 H 2723.72 6.03622 0.972156 0
M  V30 29094 H 2727.89 6.94021 0.575147 0
M  V30 29095 H 2725.52 7.59602 0.301589 0
M  V30 29096 N 2727.09 -0.732829 1.39526 0
M  V30 29097 C 2728.04 -1.83804 1.34908 0
M  V30 29098 C 2729.03 -1.59254 0.229574 0
M  V30 29099 O 2730.22 -1.7072 0.467285 0
M  V30 29100 C 2727.35 -3.21754 1.19704 0
M  V30 29101 C 2726.44 -3.52126 2.36365 0
M  V30 29102 N 2726.83 -3.5342 3.6184 0
M  V30 29103 C 2725.12 -3.82499 2.2937 0
M  V30 29104 C 2725.83 -3.81648 4.38999 0
M  V30 29105 N 2724.8 -3.99531 3.68613 0
M  V30 29106 H 2728.6 -1.83112 2.29885 0
M  V30 29107 H 2726.12 -0.93117 1.33053 0
M  V30 29108 H 2728.11 -4.00874 1.14479 0
M  V30 29109 H 2726.77 -3.23683 0.256796 0
M  V30 29110 H 2727.79 -3.3468 3.95234 0
M  V30 29111 H 2724.46 -3.9202 1.43619 0
M  V30 29112 H 2725.85 -3.89098 5.4777 0
M  V30 29113 N 2728.57 -1.24737 -0.963244 0
M  V30 29114 C 2729.82 -1.09134 -1.70931 0
M  V30 29115 C 2730.15 0.368239 -1.90677 0
M  V30 29116 O 2729.43 1.2719 -1.47149 0
M  V30 29117 C 2729.71 -1.83664 -3.09741 0
M  V30 29118 C 2729.56 -3.37399 -2.97459 0
M  V30 29119 C 2730.88 -1.61289 -4.0948 0
M  V30 29120 H 2728 -0.397849 -0.620391 0
M  V30 29121 H 2730.64 -1.53461 -1.12025 0
M  V30 29122 H 2728.79 -1.45986 -3.60028 0
M  V30 29123 H 2730.46 -3.84701 -2.54564 0
M  V30 29124 H 2728.71 -3.65551 -2.3357 0
M  V30 29125 H 2729.38 -3.84752 -3.95815 0
M  V30 29126 H 2731.85 -1.94073 -3.68069 0
M  V30 29127 H 2730.73 -2.15886 -5.04662 0
M  V30 29128 H 2730.99 -0.552179 -4.38638 0
M  V30 29129 N 2730.05 1.16459 -1.06184 0
M  V30 29130 C 2731.01 2.19012 -0.675761 0
M  V30 29131 C 2732.01 1.5838 0.277935 0
M  V30 29132 O 2733.2 1.74095 0.0604656 0
M  V30 29133 C 2730.34 3.40899 0.00585467 0
M  V30 29134 H 2731.53 2.54682 -1.58357 0
M  V30 29135 H 2729.08 1.30715 -0.856931 0
M  V30 29136 H 2729.82 3.10785 0.926465 0
M  V30 29137 H 2729.6 3.8616 -0.679908 0
M  V30 29138 H 2731.09 4.16779 0.261736 0
M  V30 29139 N 2731.53 0.844266 1.33079 0
M  V30 29140 C 2732.77 0.452487 1.98303 0
M  V30 29141 C 2733.13 -0.978717 1.65647 0
M  V30 29142 O 2732.42 -1.67578 0.928878 0
M  V30 29143 C 2732.62 0.616416 3.52044 0
M  V30 29144 C 2732.45 2.062 3.99639 0
M  V30 29145 C 2731.22 2.69836 4.27219 0
M  V30 29146 C 2733.41 3.03138 4.15466 0
M  V30 29147 N 2731.4 4.05414 4.60991 0
M  V30 29148 C 2732.77 4.23676 4.52657 0
M  V30 29149 C 2734.82 2.99472 3.9777 0
M  V30 29150 C 2733.52 5.41031 4.74002 0
M  V30 29151 C 2735.55 4.16062 4.20293 0
M  V30 29152 C 2734.91 5.35356 4.57792 0
M  V30 29153 H 2731.01 0.214109 0.752118 0
M  V30 29154 H 2733.6 1.09347 1.61094 0
M  V30 29155 H 2731.77 0.00520032 3.884 0
M  V30 29156 H 2733.5 0.195551 4.04227 0
M  V30 29157 H 2730.25 2.20938 4.18907 0
M  V30 29158 H 2730.68 4.7532 4.82079 0
M  V30 29159 H 2735.32 2.08368 3.67889 0
M  V30 29160 H 2733.04 6.32674 5.02741 0
M  V30 29161 H 2736.62 4.14649 4.08115 0
M  V30 29162 H 2735.5 6.24072 4.74873 0
M  V30 29163 N 2733.01 -1.45682 0.60121 0
M  V30 29164 C 2734.25 -2.02582 0.0940558 0
M  V30 29165 C 2734.59 -1.46944 -1.26969 0
M  V30 29166 O 2733.86 -0.641644 -1.83611 0
M  V30 29167 C 2734.14 -3.60068 0.0482348 0
M  V30 29168 C 2734 -4.26052 1.4422 0
M  V30 29169 C 2735.32 -4.35379 -0.642899 0
M  V30 29170 H 2732.43 -0.736137 0.0356534 0
M  V30 29171 H 2735.08 -1.73611 0.77196 0
M  V30 29172 H 2733.23 -3.84881 -0.52906 0
M  V30 29173 H 2734.9 -4.12445 2.06608 0
M  V30 29174 H 2733.14 -3.84699 2.00472 0
M  V30 29175 H 2733.81 -5.34922 1.36244 0
M  V30 29176 H 2736.29 -4.15821 -0.152278 0
M  V30 29177 H 2735.16 -5.45108 -0.644046 0
M  V30 29178 H 2735.43 -4.07783 -1.70778 0
M  V30 29179 N 2734.48 -0.340009 -1.53889 0
M  V30 29180 C 2735.76 0.312685 -1.93085 0
M  V30 29181 C 2736.14 1.68531 -1.27123 0
M  V30 29182 O 2735.49 2.24591 -0.420875 0
M  V30 29183 C 2735.7 0.388497 -3.46831 0
M  V30 29184 C 2737.05 0.641014 -4.19733 0
M  V30 29185 O 2738.07 0.470756 -3.53076 0
M  V30 29186 O 2736.93 0.970591 -5.37812 0
M  V30 29187 H 2734.02 0.181725 -0.806787 0
M  V30 29188 H 2736.57 -0.390927 -1.65136 0
M  V30 29189 H 2735.34 -0.574889 -3.87054 0
M  V30 29190 H 2734.97 1.13904 -3.80935 0
M  V30 29191 N 2735.96 1.57451 -0.0685468 0
M  V30 29192 C 2737.37 1.80827 0.464602 0
M  V30 29193 C 2737.73 0.982198 1.69845 0
M  V30 29194 O 2736.85 0.203772 2.15438 0
M  V30 29195 C 2737.45 3.27973 0.849663 0
M  V30 29196 C 2736 3.52206 1.32769 0
M  V30 29197 C 2735.15 2.75547 0.311283 0
M  V30 29198 H 2738.1 1.55948 -0.294275 0
M  V30 29199 H 2738.12 3.39844 1.71132 0
M  V30 29200 H 2737.64 3.8807 -0.0485419 0
M  V30 29201 H 2735.74 2.9741 2.24451 0
M  V30 29202 H 2735.85 4.60903 1.30786 0
M  V30 29203 H 2734.21 2.42208 0.787873 0
M  V30 29204 H 2735 3.3838 -0.579138 0
M  V30 29205 N 2737.44 -0.204984 1.56261 0
M  V30 29206 C 2738.35 -1.27473 1.96946 0
M  V30 29207 C 2739.37 -1.5036 0.875662 0
M  V30 29208 O 2740.54 -1.63167 1.18061 0
M  V30 29209 C 2737.61 -2.60111 2.29223 0
M  V30 29210 C 2736.67 -2.45381 3.52259 0
M  V30 29211 C 2735.9 -3.71694 3.82987 0
M  V30 29212 O 2736.13 -4.75436 3.15146 0
M  V30 29213 O 2735.06 -3.67815 4.76441 0
M  V30 29214 H 2738.89 -0.959477 2.88145 0
M  V30 29215 H 2736.47 -0.409192 1.43687 0
M  V30 29216 H 2738.35 -3.38415 2.51104 0
M  V30 29217 H 2737.03 -2.91283 1.41195 0
M  V30 29218 H 2735.93 -1.65221 3.35638 0
M  V30 29219 H 2737.27 -2.19144 4.40723 0
M  V30 29220 N 2738.92 -1.50356 -0.472329 0
M  V30 29221 C 2740.2 -1.518 -1.23353 0
M  V30 29222 C 2740.58 -0.261967 -2.09468 0
M  V30 29223 O 2739.92 0.754653 -2.15679 0
M  V30 29224 C 2740.13 -2.81305 -2.06563 0
M  V30 29225 C 2741.48 -3.31918 -2.64794 0
M  V30 29226 O 2742.51 -2.82618 -2.16807 0
M  V30 29227 O 2741.37 -4.17853 -3.52224 0
M  V30 29228 H 2738.46 -0.608826 -0.559697 0
M  V30 29229 H 2741.01 -1.62644 -0.484252 0
M  V30 29230 H 2739.78 -3.64197 -1.43096 0
M  V30 29231 H 2739.4 -2.73459 -2.88628 0
M  V30 29232 N 2740.4 0.725419 -1.39912 0
M  V30 29233 C 2741.81 1.30413 -1.33601 0
M  V30 29234 C 2742.16 1.96199 -0.00485241 0
M  V30 29235 O 2741.28 1.96923 0.897241 0
M  V30 29236 C 2741.88 2.37142 -2.41969 0
M  V30 29237 C 2740.44 2.90662 -2.39149 0
M  V30 29238 C 2739.59 1.64337 -2.23358 0
M  V30 29239 H 2742.54 0.522241 -1.49861 0
M  V30 29240 H 2742.56 3.17757 -2.0931 0
M  V30 29241 H 2742.07 1.89232 -3.3884 0
M  V30 29242 H 2740.17 3.42827 -1.45946 0
M  V30 29243 H 2740.28 3.43125 -3.34368 0
M  V30 29244 H 2738.65 1.89034 -1.70699 0
M  V30 29245 H 2739.43 1.18466 -3.22212 0
M  V30 29246 N 2741.88 1.25246 0.956615 0
M  V30 29247 C 2742.83 1.02145 2.03839 0
M  V30 29248 C 2743.81 -0.0409776 1.60848 0
M  V30 29249 O 2745 0.174115 1.76142 0
M  V30 29250 C 2742.13 0.640022 3.37281 0
M  V30 29251 C 2741.22 1.7391 3.86802 0
M  V30 29252 N 2741.61 2.97388 4.09138 0
M  V30 29253 C 2739.91 1.61916 4.15571 0
M  V30 29254 C 2740.61 3.68714 4.49916 0
M  V30 29255 N 2739.58 2.96326 4.55732 0
M  V30 29256 H 2743.38 1.9589 2.19099 0
M  V30 29257 H 2740.9 1.15536 1.14128 0
M  V30 29258 H 2742.9 0.455716 4.14402 0
M  V30 29259 H 2741.56 -0.290123 3.23401 0
M  V30 29260 H 2742.57 3.33454 3.96269 0
M  V30 29261 H 2739.24 0.757836 4.10564 0
M  V30 29262 H 2740.63 4.74692 4.75518 0
M  V30 29263 N 2743.35 -1.15894 1.068 0
M  V30 29264 C 2744.3 -2.20452 0.683352 0
M  V30 29265 C 2745.27 -1.62939 -0.322521 0
M  V30 29266 O 2746.46 -1.89638 -0.210242 0
M  V30 29267 C 2743.6 -3.45004 0.0813872 0
M  V30 29268 C 2742.71 -4.1674 1.13806 0
M  V30 29269 C 2741.84 -5.28826 0.501691 0
M  V30 29270 C 2740.88 -5.92371 1.54154 0
M  V30 29271 N 2740.02 -6.95938 0.92816 0
M  V30 29272 H 2744.86 -2.52706 1.57936 0
M  V30 29273 H 2742.4 -1.24114 0.789566 0
M  V30 29274 H 2744.35 -4.16224 -0.285201 0
M  V30 29275 H 2742.98 -3.13284 -0.778005 0
M  V30 29276 H 2742.04 -3.44073 1.62229 0
M  V30 29277 H 2743.35 -4.60086 1.92672 0
M  V30 29278 H 2742.5 -6.06644 0.0824228 0
M  V30 29279 H 2741.24 -4.86657 -0.318797 0
M  V30 29280 H 2740.25 -5.13269 1.97065 0
M  V30 29281 H 2741.47 -6.36617 2.36422 0
M  V30 29282 H 2739.42 -6.55874 0.128475 0
M  V30 29283 H 2739.33 -7.37682 1.65414 0
M  V30 29284 H 2740.6 -7.77667 0.534208 0
M  V30 29285 N 2744.83 -0.851312 -1.32629 0
M  V30 29286 C 2746.08 -0.452163 -1.96977 0
M  V30 29287 C 2746.4 0.99479 -1.67717 0
M  V30 29288 O 2745.67 1.69474 -0.98262 0
M  V30 29289 H 2744.25 -0.164214 -0.728727 0
M  V30 29290 H 2746.91 -1.08701 -1.61772 0
M  V30 29291 H 2746.01 -0.594461 -3.06386 0
M  V30 29292 N 2746.31 1.45361 -0.608928 0
M  V30 29293 C 2747.56 2.02229 -0.104643 0
M  V30 29294 C 2747.88 1.47717 1.26531 0
M  V30 29295 O 2747.14 0.642468 1.84854 0
M  V30 29296 C 2747.44 3.57396 -0.0167924 0
M  V30 29297 C 2747.1 4.31067 -1.32258 0
M  V30 29298 C 2745.77 4.50911 -1.68027 0
M  V30 29299 C 2748.12 4.73165 -2.18551 0
M  V30 29300 C 2745.45 5.10109 -2.89837 0
M  V30 29301 C 2747.8 5.33711 -3.39611 0
M  V30 29302 C 2746.46 5.51777 -3.7563 0
M  V30 29303 H 2745.73 0.74001 -0.0382915 0
M  V30 29304 H 2748.38 1.74409 -0.790813 0
M  V30 29305 H 2746.68 3.84503 0.752648 0
M  V30 29306 H 2748.38 3.99103 0.389564 0
M  V30 29307 H 2744.97 4.15936 -1.03418 0
M  V30 29308 H 2749.16 4.57566 -1.92216 0
M  V30 29309 H 2744.41 5.22286 -3.17848 0
M  V30 29310 H 2748.59 5.65285 -4.06726 0
M  V30 29311 H 2746.21 5.97417 -4.70104 0
M  V30 29312 N 2747.79 0.348166 1.53706 0
M  V30 29313 C 2748.73 -0.506478 2.25174 0
M  V30 29314 C 2749.7 -1.09179 1.25176 0
M  V30 29315 O 2750.89 -1.12755 1.53919 0
M  V30 29316 C 2748.03 -1.64918 3.03144 0
M  V30 29317 C 2747.14 -1.09073 4.18004 0
M  V30 29318 C 2746.28 -2.20111 4.83451 0
M  V30 29319 C 2745.32 -1.61641 5.90372 0
M  V30 29320 N 2744.45 -2.6644 6.4958 0
M  V30 29321 H 2749.29 0.109505 2.97799 0
M  V30 29322 H 2746.83 0.0658124 1.46953 0
M  V30 29323 H 2748.79 -2.32199 3.46612 0
M  V30 29324 H 2747.42 -2.23608 2.32807 0
M  V30 29325 H 2746.47 -0.308717 3.79145 0
M  V30 29326 H 2747.78 -0.623091 4.94893 0
M  V30 29327 H 2746.94 -2.95248 5.30013 0
M  V30 29328 H 2745.68 -2.7022 4.05996 0
M  V30 29329 H 2744.68 -0.850114 5.43188 0
M  V30 29330 H 2745.91 -1.12378 6.69737 0
M  V30 29331 H 2743.85 -3.15795 5.74987 0
M  V30 29332 H 2743.77 -2.24312 7.21956 0
M  V30 29333 H 2745.04 -3.41332 7.00795 0
M  V30 29334 N 2749.27 -1.57412 0.0768958 0
M  V30 29335 C 2750.5 -1.97724 -0.599065 0
M  V30 29336 C 2750.9 -0.954195 -1.63376 0
M  V30 29337 O 2750.25 0.0668383 -1.83578 0
M  V30 29338 C 2750.31 -3.34361 -1.32073 0
M  V30 29339 C 2749.97 -4.54887 -0.438905 0
M  V30 29340 C 2750.97 -5.19001 0.305583 0
M  V30 29341 C 2748.65 -5.00992 -0.36229 0
M  V30 29342 C 2750.65 -6.27574 1.11486 0
M  V30 29343 C 2748.34 -6.09436 0.450651 0
M  V30 29344 C 2749.33 -6.72591 1.18789 0
M  V30 29345 O 2749.02 -7.78946 1.98741 0
M  V30 29346 H 2748.75 -0.65512 -0.166714 0
M  V30 29347 H 2751.31 -2.04871 0.147373 0
M  V30 29348 H 2749.54 -3.23843 -2.11335 0
M  V30 29349 H 2751.23 -3.59243 -1.88943 0
M  V30 29350 H 2751.99 -4.84324 0.256015 0
M  V30 29351 H 2747.87 -4.51609 -0.925753 0
M  V30 29352 H 2751.42 -6.768 1.69079 0
M  V30 29353 H 2747.31 -6.43547 0.501764 0
M  V30 29354 H 2748.08 -7.95848 1.91228 0
M  V30 29355 N 2750.74 0.196695 -1.56368 0
M  V30 29356 C 2751.67 1.24651 -1.97445 0
M  V30 29357 C 2752.66 1.4756 -0.846173 0
M  V30 29358 O 2753.84 1.59324 -1.11038 0
M  V30 29359 C 2750.97 2.59108 -2.31258 0
M  V30 29360 C 2749.92 2.50815 -3.46808 0
M  V30 29361 C 2749.25 3.8953 -3.66293 0
M  V30 29362 C 2750.55 2.03457 -4.81043 0
M  V30 29363 H 2752.24 0.905166 -2.85389 0
M  V30 29364 H 2749.79 0.433977 -1.37305 0
M  V30 29365 H 2751.74 3.32731 -2.58588 0
M  V30 29366 H 2750.47 2.9498 -1.40194 0
M  V30 29367 H 2749.13 1.79648 -3.19566 0
M  V30 29368 H 2748.77 4.22752 -2.72562 0
M  V30 29369 H 2748.47 3.84856 -4.44027 0
M  V30 29370 H 2750 4.64777 -3.95998 0
M  V30 29371 H 2751.41 2.66837 -5.07416 0
M  V30 29372 H 2749.81 2.09788 -5.62236 0
M  V30 29373 H 2750.88 0.987726 -4.74734 0
M  V30 29374 N 2752.22 1.50604 0.464349 0
M  V30 29375 C 2753.45 1.65456 1.23724 0
M  V30 29376 C 2753.86 0.340064 1.86119 0
M  V30 29377 O 2753.2 -0.688676 1.70303 0
M  V30 29378 C 2753.27 2.69306 2.38149 0
M  V30 29379 C 2752.93 4.12675 1.96338 0
M  V30 29380 C 2753.93 4.98328 1.48206 0
M  V30 29381 C 2751.61 4.58629 2.04853 0
M  V30 29382 C 2753.61 6.27986 1.09141 0
M  V30 29383 C 2751.29 5.88291 1.65399 0
M  V30 29384 C 2752.29 6.72796 1.17622 0
M  V30 29385 O 2751.98 8.00037 0.787171 0
M  V30 29386 H 2751.71 0.559041 0.380065 0
M  V30 29387 H 2754.26 1.97622 0.559885 0
M  V30 29388 H 2752.49 2.32397 3.09077 0
M  V30 29389 H 2754.18 2.7331 3.00094 0
M  V30 29390 H 2754.95 4.64038 1.41044 0
M  V30 29391 H 2750.83 3.92995 2.40989 0
M  V30 29392 H 2754.37 6.93897 0.717787 0
M  V30 29393 H 2750.27 6.22101 1.72223 0
M  V30 29394 H 2751.04 8.13365 0.915424 0
M  V30 29395 N 2753.7 -0.717989 1.40295 0
M  V30 29396 C 2754.63 -1.84495 1.43122 0
M  V30 29397 C 2755.61 -1.67567 0.292433 0
M  V30 29398 O 2756.8 -1.87634 0.500707 0
M  V30 29399 C 2753.93 -3.22425 1.29071 0
M  V30 29400 C 2752.88 -3.54021 2.40527 0
M  V30 29401 C 2752.21 -4.91069 2.11555 0
M  V30 29402 C 2753.51 -3.55262 3.82865 0
M  V30 29403 H 2755.2 -1.82387 2.37435 0
M  V30 29404 H 2752.75 -0.87607 1.14285 0
M  V30 29405 H 2754.7 -4.00955 1.29665 0
M  V30 29406 H 2753.42 -3.25103 0.312328 0
M  V30 29407 H 2752.08 -2.7783 2.39178 0
M  V30 29408 H 2751.73 -4.90347 1.12113 0
M  V30 29409 H 2751.43 -5.13175 2.86225 0
M  V30 29410 H 2752.95 -5.71935 2.13827 0
M  V30 29411 H 2754.37 -4.23837 3.86051 0
M  V30 29412 H 2752.77 -3.88894 4.57035 0
M  V30 29413 H 2753.84 -2.54698 4.12622 0
M  V30 29414 N 2755.18 -1.25752 -0.94996 0
M  V30 29415 C 2756.41 -1.1353 -1.7297 0
M  V30 29416 C 2756.82 0.31042 -1.86231 0
M  V30 29417 O 2756.18 1.21318 -1.36339 0
M  V30 29418 C 2756.23 -1.78942 -3.14105 0
M  V30 29419 O 2755.95 -3.17863 -3.01487 0
M  V30 29420 C 2757.45 -1.72561 -4.08335 0
M  V30 29421 H 2754.67 -0.395768 -0.541857 0
M  V30 29422 H 2757.22 -1.66205 -1.19148 0
M  V30 29423 H 2755.37 -1.30227 -3.64856 0
M  V30 29424 H 2755.78 -3.50098 -3.90553 0
M  V30 29425 H 2757.26 -2.22981 -5.04959 0
M  V30 29426 H 2757.74 -0.690327 -4.33741 0
M  V30 29427 H 2758.34 -2.20786 -3.63502 0
M  V30 29428 N 2756.66 1.15326 -1.07413 0
M  V30 29429 C 2758.07 1.67714 -0.82029 0
M  V30 29430 C 2758.42 1.84961 0.654507 0
M  V30 29431 O 2757.54 1.55339 1.50661 0
M  V30 29432 C 2758.14 3.04644 -1.48247 0
M  V30 29433 C 2756.7 3.54107 -1.27612 0
M  V30 29434 C 2755.84 2.29818 -1.55174 0
M  V30 29435 H 2758.8 0.99531 -1.23609 0
M  V30 29436 H 2758.82 3.69604 -0.904049 0
M  V30 29437 H 2758.33 2.9206 -2.55583 0
M  V30 29438 H 2756.43 3.71932 -0.223013 0
M  V30 29439 H 2756.54 4.35508 -1.99675 0
M  V30 29440 H 2754.91 2.35391 -0.972788 0
M  V30 29441 H 2755.69 2.1982 -2.63693 0
M  V30 29442 N 2758.13 0.858334 1.32176 0
M  V30 29443 C 2759.07 0.262875 2.27688 0
M  V30 29444 C 2760.08 -0.567487 1.52589 0
M  V30 29445 O 2761.27 -0.391377 1.74157 0
M  V30 29446 C 2758.37 -0.646879 3.32669 0
M  V30 29447 C 2757.54 0.148449 4.37148 0
M  V30 29448 C 2756.6 -0.687637 5.21688 0
M  V30 29449 O 2755.63 -0.119834 5.69074 0
M  V30 29450 N 2756.83 -2.00172 5.44896 0
M  V30 29451 H 2759.59 1.08361 2.79424 0
M  V30 29452 H 2757.15 0.718673 1.45075 0
M  V30 29453 H 2759.15 -1.21164 3.86137 0
M  V30 29454 H 2757.72 -1.36829 2.81063 0
M  V30 29455 H 2756.94 0.894639 3.83914 0
M  V30 29456 H 2758.22 0.694603 5.04036 0
M  V30 29457 H 2757.62 -2.48632 5.08133 0
M  V30 29458 H 2756.18 -2.51452 6.01344 0
M  V30 29459 N 2759.61 -1.45036 0.616628 0
M  V30 29460 C 2760.89 -1.95544 0.046943 0
M  V30 29461 C 2761.27 -1.55891 -1.42342 0
M  V30 29462 O 2760.62 -0.825861 -2.13053 0
M  V30 29463 C 2760.83 -3.4807 0.25455 0
M  V30 29464 C 2762.18 -4.24369 0.1401 0
M  V30 29465 O 2763.2 -3.55718 0.185147 0
M  V30 29466 O 2762.06 -5.4649 0.0327995 0
M  V30 29467 H 2759.15 -0.826434 -0.0305906 0
M  V30 29468 H 2761.7 -1.55158 0.687321 0
M  V30 29469 H 2760.47 -3.69932 1.27539 0
M  V30 29470 H 2760.09 -3.95368 -0.42066 0
M  V30 29471 N 2761.09 -0.356312 -1.53519 0
M  V30 29472 C 2762.32 0.236947 -2.05237 0
M  V30 29473 C 2762.73 1.43746 -1.23019 0
M  V30 29474 O 2762.07 1.81829 -0.261532 0
M  V30 29475 C 2762.13 0.703438 -3.52551 0
M  V30 29476 C 2761.8 -0.379139 -4.55425 0
M  V30 29477 C 2762.79 -1.22601 -5.05238 0
M  V30 29478 C 2760.48 -0.536726 -4.99424 0
M  V30 29479 C 2762.47 -2.21589 -5.97643 0
M  V30 29480 C 2760.16 -1.52999 -5.91637 0
M  V30 29481 C 2761.16 -2.36801 -6.40636 0
M  V30 29482 O 2760.85 -3.34434 -7.31033 0
M  V30 29483 H 2760.58 0.0472422 -0.674347 0
M  V30 29484 H 2763.13 -0.510273 -1.98961 0
M  V30 29485 H 2761.36 1.50211 -3.56333 0
M  V30 29486 H 2763.05 1.21867 -3.87174 0
M  V30 29487 H 2763.82 -1.11541 -4.72 0
M  V30 29488 H 2759.7 0.105753 -4.60879 0
M  V30 29489 H 2763.24 -2.87036 -6.35811 0
M  V30 29490 H 2759.14 -1.6411 -6.2429 0
M  V30 29491 H 2759.91 -3.30054 -7.49004 0
M  V30 29492 N 2762.57 1.57369 -0.0852427 0
M  V30 29493 C 2763.8 1.98326 0.589425 0
M  V30 29494 C 2764.21 0.964059 1.62331 0
M  V30 29495 O 2763.57 -0.0476075 1.82438 0
M  V30 29496 C 2763.62 3.39349 1.24598 0
M  V30 29497 O 2763.34 4.37366 0.253455 0
M  V30 29498 C 2764.84 3.95255 2.00719 0
M  V30 29499 H 2762.06 0.651945 0.158772 0
M  V30 29500 H 2764.61 2.0386 -0.16162 0
M  V30 29501 H 2762.76 3.3486 1.94802 0
M  V30 29502 H 2763.17 5.1945 0.726115 0
M  V30 29503 H 2764.65 4.9611 2.4203 0
M  V30 29504 H 2765.13 3.32532 2.86913 0
M  V30 29505 H 2765.73 4.03187 1.35353 0
M  V30 29506 N 2764.05 -0.188399 1.5647 0
M  V30 29507 C 2765.46 -0.539505 1.50205 0
M  V30 29508 C 2765.66 -1.85518 0.786472 0
M  V30 29509 O 2764.72 -2.50204 0.339758 0
M  V30 29510 C 2766.03 -0.588051 2.94894 0
M  V30 29511 C 2767.58 -0.676426 3.05603 0
M  V30 29512 C 2768.05 -0.756022 4.51717 0
M  V30 29513 N 2769.55 -0.819371 4.55895 0
M  V30 29514 C 2770.28 -0.90124 5.66273 0
M  V30 29515 N 2769.78 -0.944998 6.86325 0
M  V30 29516 N 2771.57 -0.938946 5.54202 0
M  V30 29517 H 2763.72 0.674529 2.01405 0
M  V30 29518 H 2765.98 0.241119 0.916824 0
M  V30 29519 H 2765.69 0.309695 3.50334 0
M  V30 29520 H 2765.56 -1.44045 3.48613 0
M  V30 29521 H 2767.95 -1.5646 2.50208 0
M  V30 29522 H 2768.03 0.202307 2.54999 0
M  V30 29523 H 2767.68 0.127829 5.07739 0
M  V30 29524 H 2767.61 -1.65065 5.00061 0
M  V30 29525 H 2770.1 -0.794529 3.69453 0
M  V30 29526 H 2770.41 -1.00817 7.66196 0
M  V30 29527 H 2768.75 -0.913562 6.8897 0
M  V30 29528 H 2771.95 -0.901644 4.59334 0
M  V30 29529 H 2772.12 -0.99929 6.40249 0
M  V30 29530 N 2765.53 -1.50848 -0.456355 0
M  V30 29531 C 2766.77 -1.6181 -1.20418 0
M  V30 29532 C 2767.09 -0.330966 -1.9278 0
M  V30 29533 O 2768.29 -0.31969 -2.69611 0
M  V30 29534 C 2766.75 -2.85687 -2.18886 0
M  V30 29535 C 2766.36 -4.21333 -1.52259 0
M  V30 29536 C 2768.1 -3.05999 -2.94219 0
M  V30 29537 C 2766.01 -5.3638 -2.491 0
M  V30 29538 H 2764.94 -0.602624 -0.453167 0
M  V30 29539 H 2767.59 -1.77296 -0.473113 0
M  V30 29540 H 2765.97 -2.63792 -2.95347 0
M  V30 29541 H 2767.15 -4.53538 -0.81487 0
M  V30 29542 H 2765.46 -4.06744 -0.891523 0
M  V30 29543 H 2768.06 -3.89123 -3.66725 0
M  V30 29544 H 2768.4 -2.18312 -3.54465 0
M  V30 29545 H 2768.93 -3.28145 -2.24868 0
M  V30 29546 H 2765.67 -6.26267 -1.93571 0
M  V30 29547 H 2765.19 -5.08574 -3.17982 0
M  V30 29548 H 2766.87 -5.67556 -3.10627 0
M  V30 29549 N 2767 0.710538 -1.40674 0
M  V30 29550 C 2768.23 1.50462 -1.42744 0
M  V30 29551 C 2768.65 1.88076 -0.0302447 0
M  V30 29552 O 2768.01 1.53615 0.962918 0
M  V30 29553 C 2768.06 2.75318 -2.32878 0
M  V30 29554 O 2767.16 3.72222 -1.77551 0
M  V30 29555 H 2766.5 0.453441 -0.485064 0
M  V30 29556 H 2769.03 0.874648 -1.84962 0
M  V30 29557 H 2769.04 3.23792 -2.48239 0
M  V30 29558 H 2767.72 2.47277 -3.34405 0
M  V30 29559 H 2766.3 3.3109 -1.71562 0
M  V30 29560 N 2768.48 1.26254 0.943277 0
M  V30 29561 C 2769.71 1.1455 1.72896 0
M  V30 29562 C 2770.13 -0.29571 1.85761 0
M  V30 29563 O 2769.49 -1.21425 1.34632 0
M  V30 29564 C 2769.54 1.81715 3.11467 0
M  V30 29565 O 2768.64 1.10452 3.97334 0
M  V30 29566 H 2767.98 0.399268 0.530548 0
M  V30 29567 H 2770.51 1.67034 1.18156 0
M  V30 29568 H 2770.52 1.88455 3.61868 0
M  V30 29569 H 2769.2 2.86563 3.0142 0
M  V30 29570 H 2767.77 1.11672 3.55786 0
M  V30 29571 N 2769.96 -1.14755 1.08024 0
M  V30 29572 C 2770.89 -2.21852 0.728287 0
M  V30 29573 C 2771.87 -1.67654 -0.287457 0
M  V30 29574 O 2773.06 -1.93551 -0.158693 0
M  V30 29575 C 2770.19 -3.47047 0.13261 0
M  V30 29576 C 2769.14 -4.14247 1.07627 0
M  V30 29577 C 2768.47 -5.33599 0.343001 0
M  V30 29578 C 2769.77 -4.63231 2.41276 0
M  V30 29579 H 2771.46 -2.51548 1.6237 0
M  V30 29580 H 2769.01 -1.20907 0.782146 0
M  V30 29581 H 2770.96 -4.21213 -0.125591 0
M  V30 29582 H 2769.68 -3.16703 -0.797915 0
M  V30 29583 H 2768.34 -3.4203 1.3195 0
M  V30 29584 H 2767.99 -4.99514 -0.591203 0
M  V30 29585 H 2767.69 -5.79504 0.972057 0
M  V30 29586 H 2769.21 -6.1053 0.0927611 0
M  V30 29587 H 2770.63 -5.28891 2.21241 0
M  V30 29588 H 2769.02 -5.19824 2.99839 0
M  V30 29589 H 2770.09 -3.78506 3.03086 0
M  V30 29590 N 2771.44 -0.865331 -1.31719 0
M  V30 29591 C 2772.39 -0.306715 -2.30569 0
M  V30 29592 C 2773.38 0.575696 -1.59318 0
M  V30 29593 O 2774.59 0.462312 -1.73962 0
M  V30 29594 H 2770.96 -0.0804965 -0.747679 0
M  V30 29595 H 2772.93 -1.15446 -2.75163 0
M  V30 29596 C 2771.68 0.480892 -3.44358 0
M  V30 29597 H 2771 -0.18883 -3.99354 0
M  V30 29598 H 2772.44 0.837168 -4.15653 0
M  V30 29599 C 2770.9 1.67034 -2.92577 0
M  V30 29600 O 2771.43 2.76958 -2.90959 0
M  V30 29601 N 2769.64 1.50093 -2.48838 0
M  V30 29602 H 2769.19 0.606694 -2.50354 0
M  V30 29603 H 2769.14 2.29819 -2.14548 0
M  V30 29604 N 2772.92 1.44707 -0.624311 0
M  V30 29605 C 2774.14 2.06985 -0.131207 0
M  V30 29606 C 2774.57 1.46298 1.18231 0
M  V30 29607 O 2773.92 0.561872 1.72374 0
M  V30 29608 C 2773.97 3.60593 -0.0227358 0
M  V30 29609 O 2773.08 3.99508 1.02307 0
M  V30 29610 H 2772.42 0.658959 -0.0816672 0
M  V30 29611 H 2774.95 1.85691 -0.85906 0
M  V30 29612 H 2774.96 4.07645 0.170066 0
M  V30 29613 H 2773.63 4.04146 -0.981757 0
M  V30 29614 H 2772.21 3.64099 0.805388 0
M  V30 29615 N 2774.39 0.364449 1.53328 0
M  V30 29616 C 2775.64 -0.225933 2.01538 0
M  V30 29617 C 2775.97 -1.48513 1.2513 0
M  V30 29618 O 2775.25 -1.91421 0.344687 0
M  V30 29619 C 2775.53 -0.51903 3.5634 0
M  V30 29620 C 2775.38 0.753717 4.4344 0
M  V30 29621 C 2776.7 -1.32007 4.19836 0
M  V30 29622 H 2773.82 -0.0806419 0.732575 0
M  V30 29623 H 2776.46 0.489117 1.83596 0
M  V30 29624 H 2774.61 -1.12818 3.71758 0
M  V30 29625 H 2776.29 1.39124 4.39821 0
M  V30 29626 H 2774.53 1.37431 4.11455 0
M  V30 29627 H 2775.2 0.503613 5.49698 0
M  V30 29628 H 2777.68 -0.804787 4.08243 0
M  V30 29629 H 2776.55 -1.49389 5.2818 0
M  V30 29630 H 2776.81 -2.32826 3.75825 0
M  V30 29631 N 2775.87 -1.57322 0.0935872 0
M  V30 29632 C 2776.82 -2.1048 -0.876484 0
M  V30 29633 C 2777.81 -1.01948 -1.2448 0
M  V30 29634 O 2779 -1.28225 -1.22014 0
M  V30 29635 C 2776.13 -2.68748 -2.1361 0
M  V30 29636 C 2775.21 -3.8432 -1.79328 0
M  V30 29637 N 2775.6 -4.92413 -1.15598 0
M  V30 29638 C 2773.9 -3.94027 -2.08947 0
M  V30 29639 C 2774.6 -5.73059 -0.998935 0
M  V30 29640 N 2773.58 -5.2204 -1.51576 0
M  V30 29641 H 2777.38 -2.91436 -0.379777 0
M  V30 29642 H 2774.89 -1.62029 -0.10967 0
M  V30 29643 H 2776.89 -3.0516 -2.84048 0
M  V30 29644 H 2775.55 -1.89247 -2.63848 0
M  V30 29645 H 2776.56 -5.11319 -0.822973 0
M  V30 29646 H 2773.24 -3.25532 -2.6141 0
M  V30 29647 H 2774.63 -6.70032 -0.500654 0
M  V30 29648 N 2777.35 0.180099 -1.56568 0
M  V30 29649 C 2778.59 0.904729 -1.83287 0
M  V30 29650 C 2778.95 1.79809 -0.673257 0
M  V30 29651 O 2780.15 2.55965 -0.82069 0
M  V30 29652 C 2778.43 1.68683 -3.15089 0
M  V30 29653 S 2779.98 2.46142 -3.63262 0
M  V30 29654 H 2776.8 0.303181 -0.643119 0
M  V30 29655 H 2779.4 0.167 -1.94785 0
M  V30 29656 H 2778.11 1.02141 -3.97486 0
M  V30 29657 H 2777.64 2.4661 -3.06508 0
M  V30 29658 H 2779.65 3.70657 -3.2989 0
M  V30 29659 N 2778.83 1.51088 0.448349 0
M  V30 29660 C 2779.77 1.71606 1.54338 0
M  V30 29661 C 2780.74 0.557564 1.56462 0
M  V30 29662 O 2781.93 0.79075 1.73643 0
M  V30 29663 C 2779.07 1.837 2.92144 0
M  V30 29664 C 2778.18 3.11197 2.99634 0
M  V30 29665 C 2777.32 3.13952 4.28495 0
M  V30 29666 C 2776.36 4.35808 4.29811 0
M  V30 29667 N 2775.49 4.36174 5.50179 0
M  V30 29668 H 2780.33 2.65081 1.36146 0
M  V30 29669 H 2777.87 1.31384 0.661562 0
M  V30 29670 H 2779.83 1.88694 3.72089 0
M  V30 29671 H 2778.46 0.936428 3.08919 0
M  V30 29672 H 2777.51 3.15566 2.1242 0
M  V30 29673 H 2778.82 4.01134 2.96467 0
M  V30 29674 H 2777.98 3.178 5.16805 0
M  V30 29675 H 2776.72 2.21884 4.34303 0
M  V30 29676 H 2775.72 4.32148 3.39895 0
M  V30 29677 H 2776.95 5.29128 4.25676 0
M  V30 29678 H 2774.89 3.46971 5.56729 0
M  V30 29679 H 2774.81 5.19907 5.48847 0
M  V30 29680 H 2776.08 4.442 6.40552 0
M  V30 29681 N 2780.31 -0.703068 1.41049 0
M  V30 29682 C 2781.26 -1.80901 1.38777 0
M  V30 29683 C 2782.24 -1.58731 0.263303 0
M  V30 29684 O 2783.43 -1.69691 0.503392 0
M  V30 29685 C 2780.56 -3.19143 1.26502 0
M  V30 29686 C 2779.65 -3.47033 2.43781 0
M  V30 29687 N 2780.04 -3.45665 3.69255 0
M  V30 29688 C 2778.34 -3.77548 2.37431 0
M  V30 29689 C 2779.04 -3.7225 4.46995 0
M  V30 29690 N 2778.01 -3.91622 3.77005 0
M  V30 29691 H 2781.82 -1.78195 2.33717 0
M  V30 29692 H 2779.33 -0.902738 1.34998 0
M  V30 29693 H 2781.33 -3.98356 1.22957 0
M  V30 29694 H 2779.99 -3.23065 0.325396 0
M  V30 29695 H 2781 -3.26221 4.02244 0
M  V30 29696 H 2777.67 -3.88886 1.51902 0
M  V30 29697 H 2779.06 -3.77392 5.559 0
M  V30 29698 N 2781.78 -1.26752 -0.936569 0
M  V30 29699 C 2783.03 -1.11956 -1.67776 0
M  V30 29700 C 2783.35 0.335856 -1.92695 0
M  V30 29701 O 2784.55 0.604571 -2.64683 0
M  V30 29702 C 2783.01 -1.95557 -3.02135 0
M  V30 29703 C 2782.62 -3.45702 -2.84946 0
M  V30 29704 C 2784.36 -1.89383 -3.79913 0
M  V30 29705 C 2782.27 -4.21532 -4.14807 0
M  V30 29706 H 2781.2 -0.415377 -0.629268 0
M  V30 29707 H 2783.85 -1.511 -1.0412 0
M  V30 29708 H 2782.23 -1.4925 -3.66798 0
M  V30 29709 H 2783.4 -3.99809 -2.29105 0
M  V30 29710 H 2781.72 -3.5316 -2.20606 0
M  V30 29711 H 2784.32 -2.4332 -4.76129 0
M  V30 29712 H 2784.66 -0.865536 -4.07203 0
M  V30 29713 H 2785.19 -2.33538 -3.22032 0
M  V30 29714 H 2781.93 -5.2485 -3.927 0
M  V30 29715 H 2781.45 -3.72204 -4.70345 0
M  V30 29716 H 2783.13 -4.30229 -4.83231 0
M  V30 29717 N 2783.26 1.1418 -1.08631 0
M  V30 29718 C 2784.17 2.22948 -0.730165 0
M  V30 29719 C 2785.19 1.71981 0.26433 0
M  V30 29720 O 2786.36 2.01112 0.107706 0
M  V30 29721 C 2783.43 3.46387 -0.147288 0
M  V30 29722 C 2782.49 4.12284 -1.19669 0
M  V30 29723 C 2781.72 5.2983 -0.64153 0
M  V30 29724 O 2781.95 5.67855 0.538251 0
M  V30 29725 O 2780.88 5.85567 -1.39267 0
M  V30 29726 H 2784.71 2.55768 -1.63757 0
M  V30 29727 H 2782.29 1.22155 -0.860139 0
M  V30 29728 H 2784.17 4.21037 0.174849 0
M  V30 29729 H 2782.85 3.15286 0.733248 0
M  V30 29730 H 2781.76 3.39497 -1.57139 0
M  V30 29731 H 2783.09 4.47496 -2.04958 0
M  V30 29732 N 2784.74 0.872304 1.31258 0
M  V30 29733 C 2785.65 0.333295 2.3222 0
M  V30 29734 C 2786.67 -0.557984 1.64811 0
M  V30 29735 O 2787.84 -0.454141 1.96213 0
M  V30 29736 C 2784.91 -0.454419 3.43709 0
M  V30 29737 C 2783.97 0.465099 4.26773 0
M  V30 29738 C 2783.2 -0.285116 5.32938 0
M  V30 29739 O 2783.42 -1.5129 5.4997 0
M  V30 29740 O 2782.36 0.358232 6.00833 0
M  V30 29741 H 2786.18 1.17021 2.8025 0
M  V30 29742 H 2783.77 0.635748 1.35198 0
M  V30 29743 H 2785.65 -0.90089 4.11658 0
M  V30 29744 H 2784.33 -1.26784 2.97838 0
M  V30 29745 H 2783.23 0.960119 3.6157 0
M  V30 29746 H 2784.57 1.24418 4.76215 0
M  V30 29747 N 2786.22 -1.44374 0.631976 0
M  V30 29748 C 2787.47 -2.01638 0.136532 0
M  V30 29749 C 2787.79 -1.49971 -1.24634 0
M  V30 29750 O 2787.06 -0.703662 -1.82826 0
M  V30 29751 H 2785.64 -0.745489 0.0474834 0
M  V30 29752 H 2788.3 -1.76863 0.818868 0
M  V30 29753 H 2787.4 -3.11924 0.104872 0
M  V30 29754 N 2787.7 -0.372575 -1.53133 0
M  V30 29755 C 2788.94 0.214499 -2.00958 0
M  V30 29756 C 2789.27 1.48709 -1.26138 0
M  V30 29757 O 2788.54 1.92245 -0.37663 0
M  V30 29758 H 2787.12 0.0822534 -0.742458 0
M  V30 29759 H 2789.78 -0.500418 -1.88366 0
M  V30 29760 H 2788.87 0.43655 -3.09032 0
M  V30 29761 N 2789.17 1.5727 -0.101929 0
M  V30 29762 C 2790.08 2.17927 0.868608 0
M  V30 29763 C 2791.1 1.15062 1.30525 0
M  V30 29764 O 2792.28 1.47461 1.37176 0
M  V30 29765 C 2789.34 2.75313 2.10722 0
M  V30 29766 C 2788.4 3.93157 1.72413 0
M  V30 29767 C 2787.64 4.47796 2.9037 0
M  V30 29768 O 2787.86 4.0136 4.05298 0
M  V30 29769 O 2786.79 5.38724 2.68441 0
M  V30 29770 H 2790.62 3.01282 0.382491 0
M  V30 29771 H 2788.2 1.48895 0.122786 0
M  V30 29772 H 2790.09 3.11963 2.83297 0
M  V30 29773 H 2788.76 1.95 2.58373 0
M  V30 29774 H 2787.67 3.61306 0.969975 0
M  V30 29775 H 2789 4.74853 1.29519 0
M  V30 29776 N 2790.65 -0.171793 1.56661 0
M  V30 29777 C 2791.88 -0.908132 1.86461 0
M  V30 29778 C 2792.3 -1.75058 0.688212 0
M  V30 29779 O 2791.66 -1.77635 -0.362722 0
M  V30 29780 C 2791.71 -1.76107 3.14672 0
M  V30 29781 O 2790.81 -2.86263 2.96863 0
M  V30 29782 H 2790.15 -0.254423 0.613323 0
M  V30 29783 H 2792.68 -0.170077 2.03892 0
M  V30 29784 H 2792.69 -2.16109 3.46065 0
M  V30 29785 H 2791.37 -1.14226 3.99907 0
M  V30 29786 H 2789.95 -2.49847 2.76823 0
M  V30 29787 N 2792.13 -1.51324 -0.44033 0
M  V30 29788 C 2793.55 -1.39433 -0.776576 0
M  V30 29789 C 2793.75 -0.474331 -1.95838 0
M  V30 29790 O 2792.8 0.0716248 -2.52398 0
M  V30 29791 C 2794.12 -2.81407 -1.05976 0
M  V30 29792 C 2795.66 -2.90536 -1.16437 0
M  V30 29793 C 2796.14 -4.33411 -1.4805 0
M  V30 29794 N 2797.63 -4.36503 -1.5498 0
M  V30 29795 C 2798.36 -5.44081 -1.81007 0
M  V30 29796 N 2797.86 -6.61823 -2.04847 0
M  V30 29797 N 2799.65 -5.31558 -1.82765 0
M  V30 29798 H 2791.8 -2.09693 0.338043 0
M  V30 29799 H 2794.07 -0.94383 0.0888238 0
M  V30 29800 H 2793.77 -3.50707 -0.264111 0
M  V30 29801 H 2793.65 -3.20549 -1.98816 0
M  V30 29802 H 2796.03 -2.21436 -1.95065 0
M  V30 29803 H 2796.12 -2.54894 -0.215044 0
M  V30 29804 H 2795.76 -5.0306 -0.699516 0
M  V30 29805 H 2795.69 -4.66564 -2.44184 0
M  V30 29806 H 2798.18 -3.51616 -1.38473 0
M  V30 29807 H 2798.49 -7.39604 -2.24067 0
M  V30 29808 H 2796.84 -6.64944 -2.02175 0
M  V30 29809 H 2800.03 -4.38559 -1.63658 0
M  V30 29810 H 2800.2 -6.15477 -2.02711 0
M  V30 29811 N 2793.61 0.695578 -1.41419 0
M  V30 29812 C 2794.84 1.48222 -1.43923 0
M  V30 29813 C 2795.25 1.89151 -0.0429187 0
M  V30 29814 O 2794.59 1.57342 0.948111 0
M  V30 29815 C 2794.65 2.77563 -2.28471 0
M  V30 29816 C 2794.32 2.58837 -3.76633 0
M  V30 29817 C 2795.31 2.24785 -4.68794 0
M  V30 29818 C 2793 2.74478 -4.20675 0
M  V30 29819 C 2794.99 2.06611 -6.02985 0
M  V30 29820 C 2792.68 2.55921 -5.5493 0
M  V30 29821 C 2793.68 2.22039 -6.45901 0
M  V30 29822 O 2793.36 2.03643 -7.77679 0
M  V30 29823 H 2793.1 0.463309 -0.492261 0
M  V30 29824 H 2795.65 0.863919 -1.86348 0
M  V30 29825 H 2793.88 3.41799 -1.80859 0
M  V30 29826 H 2795.57 3.39367 -2.22676 0
M  V30 29827 H 2796.34 2.12315 -4.36059 0
M  V30 29828 H 2792.21 2.99834 -3.50172 0
M  V30 29829 H 2795.76 1.80088 -6.73954 0
M  V30 29830 H 2791.66 2.67981 -5.87245 0
M  V30 29831 H 2792.42 2.18406 -7.88822 0
M  V30 29832 N 2795.09 1.27247 0.929833 0
M  V30 29833 C 2796.02 1.04109 2.03068 0
M  V30 29834 C 2797 -0.0378131 1.62556 0
M  V30 29835 O 2798.18 0.106902 1.88197 0
M  V30 29836 C 2795.31 0.578837 3.33717 0
M  V30 29837 C 2794.36 1.652 3.93206 0
M  V30 29838 S 2795.19 3.24394 4.26062 0
M  V30 29839 C 2796.34 2.79964 5.59795 0
M  V30 29840 H 2796.58 1.97315 2.22382 0
M  V30 29841 H 2794.11 1.11054 1.07267 0
M  V30 29842 H 2796.07 0.318812 4.0926 0
M  V30 29843 H 2794.73 -0.333127 3.12328 0
M  V30 29844 H 2793.92 1.27981 4.8748 0
M  V30 29845 H 2793.52 1.86398 3.2424 0
M  V30 29846 H 2795.82 2.25134 6.39 0
M  V30 29847 H 2796.76 3.72974 6.01911 0
M  V30 29848 H 2797.17 2.19173 5.20215 0
M  V30 29849 N 2796.57 -1.13603 1.09235 0
M  V30 29850 C 2797.81 -1.84187 0.822082 0
M  V30 29851 C 2798.13 -1.84324 -0.654515 0
M  V30 29852 O 2799.33 -2.50781 -1.04024 0
M  V30 29853 C 2797.79 -3.30672 1.42072 0
M  V30 29854 C 2797.4 -3.38927 2.92971 0
M  V30 29855 C 2799.14 -4.0631 1.22931 0
M  V30 29856 C 2797.05 -4.79673 3.4593 0
M  V30 29857 H 2795.98 -0.690059 0.303866 0
M  V30 29858 H 2798.63 -1.28004 1.31481 0
M  V30 29859 H 2797.01 -3.86645 0.855681 0
M  V30 29860 H 2798.19 -2.9296 3.55684 0
M  V30 29861 H 2796.5 -2.76752 3.11123 0
M  V30 29862 H 2799.1 -5.10214 1.59954 0
M  V30 29863 H 2799.44 -4.15954 0.169799 0
M  V30 29864 H 2799.97 -3.56662 1.76174 0
M  V30 29865 H 2796.71 -4.75221 4.51492 0
M  V30 29866 H 2796.23 -5.26144 2.8798 0
M  V30 29867 H 2797.91 -5.48586 3.43019 0
M  V30 29868 N 2798.04 -0.879253 -1.30793 0
M  V30 29869 C 2799.27 -0.509584 -2.00526 0
M  V30 29870 C 2799.69 0.900421 -1.65945 0
M  V30 29871 O 2799.04 1.59129 -0.893553 0
M  V30 29872 C 2799.09 -0.668005 -3.55274 0
M  V30 29873 O 2798.82 -2.02249 -3.88622 0
M  V30 29874 C 2800.32 -0.300572 -4.4228 0
M  V30 29875 H 2797.54 -0.19756 -0.641257 0
M  V30 29876 H 2800.08 -1.18298 -1.66811 0
M  V30 29877 H 2798.24 -0.0420524 -3.87377 0
M  V30 29878 H 2798.65 -2.03697 -4.8333 0
M  V30 29879 H 2800.12 -0.462339 -5.5006 0
M  V30 29880 H 2800.6 0.760984 -4.32557 0
M  V30 29881 H 2801.21 -0.902609 -4.15612 0
M  V30 29882 N 2799.52 1.44037 -0.639624 0
M  V30 29883 C 2800.8 1.95444 -0.0780463 0
M  V30 29884 C 2801.18 1.58136 1.39844 0
M  V30 29885 O 2800.53 0.859652 2.11713 0
M  V30 29886 C 2800.74 3.47621 -0.309893 0
M  V30 29887 C 2802.08 4.24092 -0.207596 0
M  V30 29888 O 2803.11 3.55379 -0.241715 0
M  V30 29889 O 2801.97 5.46369 -0.119737 0
M  V30 29890 H 2799.06 0.826816 0.0174388 0
M  V30 29891 H 2801.61 1.54045 -0.711918 0
M  V30 29892 H 2800.38 3.67856 -1.33408 0
M  V30 29893 H 2800 3.95988 0.357707 0
M  V30 29894 N 2801 0.380691 1.52933 0
M  V30 29895 C 2802.25 -0.205442 2.00651 0
M  V30 29896 C 2802.56 -1.4862 1.27167 0
M  V30 29897 O 2803.77 -2.15186 1.65551 0
M  V30 29898 C 2802.22 -0.416663 3.5748 0
M  V30 29899 C 2801.83 0.850346 4.39856 0
M  V30 29900 C 2803.58 -0.959629 4.13511 0
M  V30 29901 C 2801.48 0.607877 5.88268 0
M  V30 29902 H 2800.41 -0.0805482 0.749685 0
M  V30 29903 H 2803.06 0.501763 1.76507 0
M  V30 29904 H 2801.45 -1.1855 3.77838 0
M  V30 29905 H 2802.62 1.62314 4.31266 0
M  V30 29906 H 2800.93 1.31763 3.95003 0
M  V30 29907 H 2803.53 -1.1566 5.22041 0
M  V30 29908 H 2803.87 -1.9262 3.69057 0
M  V30 29909 H 2804.41 -0.250576 3.9701 0
M  V30 29910 H 2801.15 1.5452 6.37027 0
M  V30 29911 H 2800.67 -0.126141 5.99667 0
M  V30 29912 H 2802.35 0.239128 6.46558 0
M  V30 29913 N 2802.48 -1.57214 0.110268 0
M  V30 29914 C 2803.73 -1.94068 -0.549604 0
M  V30 29915 C 2804.04 -0.995264 -1.68386 0
M  V30 29916 O 2805.25 -1.25811 -2.4059 0
M  V30 29917 C 2803.7 -3.44874 -1.02906 0
M  V30 29918 C 2803.31 -4.47935 0.0762649 0
M  V30 29919 C 2805.05 -3.90663 -1.6608 0
M  V30 29920 C 2802.96 -5.89911 -0.419398 0
M  V30 29921 H 2801.89 -0.724432 -0.209079 0
M  V30 29922 H 2804.54 -1.82527 0.188715 0
M  V30 29923 H 2802.92 -3.51619 -1.82153 0
M  V30 29924 H 2804.1 -4.5285 0.852264 0
M  V30 29925 H 2802.41 -4.11846 0.614124 0
M  V30 29926 H 2805.01 -4.94146 -2.04263 0
M  V30 29927 H 2805.35 -3.30152 -2.53585 0
M  V30 29928 H 2805.89 -3.86682 -0.933891 0
M  V30 29929 H 2802.62 -6.54157 0.419392 0
M  V30 29930 H 2802.14 -5.88435 -1.16207 0
M  V30 29931 H 2803.82 -6.4094 -0.883465 0
M  V30 29932 N 2803.96 0.163482 -1.5675 0
M  V30 29933 C 2805.2 0.877098 -1.82075 0
M  V30 29934 C 2805.52 1.8244 -0.688535 0
M  V30 29935 O 2804.79 1.93726 0.291051 0
M  V30 29936 H 2803.37 0.326882 -0.671683 0
M  V30 29937 H 2806.04 0.161425 -1.9423 0
M  V30 29938 H 2805.13 1.44929 -2.76409 0
M  V30 29939 N 2805.43 1.51555 0.432299 0
M  V30 29940 C 2806.38 1.73233 1.52509 0
M  V30 29941 C 2807.35 0.574127 1.55862 0
M  V30 29942 O 2808.54 0.809123 1.72794 0
M  V30 29943 C 2805.68 1.86788 2.90179 0
M  V30 29944 C 2804.79 3.14358 2.96316 0
M  V30 29945 C 2803.92 3.18479 4.25141 0
M  V30 29946 C 2802.96 4.40343 4.25164 0
M  V30 29947 N 2802.1 4.41985 5.45522 0
M  V30 29948 H 2806.94 2.66511 1.33327 0
M  V30 29949 H 2804.48 1.32078 0.647589 0
M  V30 29950 H 2806.43 1.9263 3.70067 0
M  V30 29951 H 2805.06 0.969141 3.07908 0
M  V30 29952 H 2804.12 3.17801 2.09061 0
M  V30 29953 H 2805.43 4.04256 2.92196 0
M  V30 29954 H 2804.58 3.23264 5.13406 0
M  V30 29955 H 2803.32 2.26478 4.31925 0
M  V30 29956 H 2802.33 4.35729 3.35292 0
M  V30 29957 H 2803.55 5.33614 4.2004 0
M  V30 29958 H 2801.5 3.52856 5.53018 0
M  V30 29959 H 2801.41 5.25699 5.43302 0
M  V30 29960 H 2802.68 4.50969 6.35804 0
M  V30 29961 N 2806.91 -0.688069 1.41786 0
M  V30 29962 C 2808.19 -1.44314 1.32034 0
M  V30 29963 C 2808.57 -2.11044 -0.0485708 0
M  V30 29964 O 2807.92 -2.02254 -1.06329 0
M  V30 29965 C 2808.13 -2.45645 2.47911 0
M  V30 29966 C 2809.47 -3.10678 2.89421 0
M  V30 29967 O 2810.5 -2.5597 2.47705 0
M  V30 29968 O 2809.36 -4.09783 3.6158 0
M  V30 29969 H 2806.45 -0.643058 0.520005 0
M  V30 29970 H 2809 -0.717913 1.53766 0
M  V30 29971 H 2807.77 -1.95042 3.39226 0
M  V30 29972 H 2807.39 -3.25667 2.28094 0
M  V30 29973 N 2808.39 -1.27739 -0.923072 0
M  V30 29974 C 2809.67 -1.05065 -1.64987 0
M  V30 29975 C 2810.05 0.413087 -2.07019 0
M  V30 29976 O 2809.39 1.39728 -1.80799 0
M  V30 29977 C 2809.6 -2.01657 -2.84843 0
M  V30 29978 C 2810.95 -2.31285 -3.56079 0
M  V30 29979 O 2811.98 -1.99667 -2.94977 0
M  V30 29980 O 2810.84 -2.85204 -4.66177 0
M  V30 29981 H 2807.93 -0.400865 -0.72335 0
M  V30 29982 H 2810.48 -1.39021 -0.9732 0
M  V30 29983 H 2809.25 -3.00351 -2.50808 0
M  V30 29984 H 2808.87 -1.6829 -3.60228 0
M  V30 29985 N 2809.87 1.13022 -1.09836 0
M  V30 29986 C 2811.12 1.84029 -0.835329 0
M  V30 29987 C 2811.44 1.84167 0.640912 0
M  V30 29988 O 2810.71 1.3004 1.46514 0
M  V30 29989 H 2809.29 0.681436 -0.30603 0
M  V30 29990 H 2811.95 1.36888 -1.38736 0
M  V30 29991 H 2811.05 2.88414 -1.19263 0
M  V30 29992 N 2811.35 0.886177 1.30325 0
M  V30 29993 C 2812.28 0.370068 2.30549 0
M  V30 29994 C 2813.26 -0.547722 1.6104 0
M  V30 29995 O 2814.44 -0.461319 1.88641 0
M  V30 29996 C 2811.57 -0.415214 3.44809 0
M  V30 29997 C 2810.53 0.410925 4.26023 0
M  V30 29998 C 2809.85 -0.501034 5.32347 0
M  V30 29999 C 2811.15 1.65368 4.9543 0
M  V30 30000 H 2812.85 1.20758 2.73967 0
M  V30 30001 H 2810.39 0.58212 1.31709 0
M  V30 30002 H 2812.35 -0.786917 4.13987 0
M  V30 30003 H 2811.07 -1.28639 3.00199 0
M  V30 30004 H 2809.73 0.764782 3.58534 0
M  V30 30005 H 2809.38 -1.36995 4.83985 0
M  V30 30006 H 2809.08 0.0479389 5.8758 0
M  V30 30007 H 2810.6 -0.869227 6.04381 0
M  V30 30008 H 2812.01 1.35249 5.57118 0
M  V30 30009 H 2810.41 2.14294 5.60534 0
M  V30 30010 H 2811.48 2.3974 4.21488 0
M  V30 30011 N 2812.82 -1.43695 0.647253 0
M  V30 30012 C 2814.07 -2.01482 0.157911 0
M  V30 30013 C 2814.39 -1.51285 -1.23036 0
M  V30 30014 O 2813.66 -0.723014 -1.8207 0
M  V30 30015 H 2812.24 -0.744944 0.0553876 0
M  V30 30016 H 2814.91 -1.75985 0.837581 0
M  V30 30017 H 2814 -3.11795 0.13795 0
M  V30 30018 N 2814.3 -0.388796 -1.52729 0
M  V30 30019 C 2815.55 0.193842 -2.01871 0
M  V30 30020 C 2815.88 1.46503 -1.27477 0
M  V30 30021 O 2815.16 1.90849 -0.375096 0
M  V30 30022 C 2815.44 0.462273 -3.5712 0
M  V30 30023 C 2815.29 -0.824169 -4.42185 0
M  V30 30024 C 2816.61 1.25311 -4.21883 0
M  V30 30025 H 2813.73 0.068977 -0.733765 0
M  V30 30026 H 2816.37 -0.518263 -1.82795 0
M  V30 30027 H 2814.52 1.06889 -3.73506 0
M  V30 30028 H 2816.19 -1.46104 -4.37552 0
M  V30 30029 H 2814.44 -1.43959 -4.09216 0
M  V30 30030 H 2815.11 -0.591002 -5.48827 0
M  V30 30031 H 2817.58 0.739738 -4.09472 0
M  V30 30032 H 2816.46 1.40968 -5.3049 0
M  V30 30033 H 2816.72 2.26817 -3.79482 0
M  V30 30034 N 2815.78 1.57153 -0.118604 0
M  V30 30035 C 2816.69 2.18836 0.845446 0
M  V30 30036 C 2817.71 1.1644 1.29297 0
M  V30 30037 O 2818.88 1.48908 1.35604 0
M  V30 30038 C 2815.95 2.77532 2.0779 0
M  V30 30039 C 2815.01 3.94963 1.68233 0
M  V30 30040 C 2814.24 4.5085 2.85604 0
M  V30 30041 O 2814.46 4.05636 4.01018 0
M  V30 30042 O 2813.4 5.4154 2.62712 0
M  V30 30043 H 2817.22 3.0167 0.350515 0
M  V30 30044 H 2814.81 1.49016 0.106987 0
M  V30 30045 H 2816.69 3.1495 2.79972 0
M  V30 30046 H 2815.37 1.9773 2.5629 0
M  V30 30047 H 2814.27 3.62315 0.931599 0
M  V30 30048 H 2815.61 4.762 1.24475 0
M  V30 30049 N 2817.26 -0.155167 1.56834 0
M  V30 30050 C 2818.21 -1.21104 1.98586 0
M  V30 30051 C 2819.2 -1.44931 0.877012 0
M  V30 30052 O 2820.41 -1.4532 1.06218 0
M  V30 30053 H 2816.78 -0.407458 0.632046 0
M  V30 30054 H 2818.75 -0.832145 2.86562 0
M  V30 30055 C 2817.5 -2.53891 2.3756 0
M  V30 30056 H 2816.82 -2.36384 3.22432 0
M  V30 30057 H 2818.26 -3.26419 2.70604 0
M  V30 30058 C 2816.72 -3.13835 1.22513 0
M  V30 30059 O 2817.25 -3.98301 0.521458 0
M  V30 30060 N 2815.46 -2.73163 0.991492 0
M  V30 30061 H 2815.01 -2.04574 1.56547 0
M  V30 30062 H 2814.96 -3.13604 0.223601 0
M  V30 30063 N 2818.74 -1.51782 -0.424256 0
M  V30 30064 C 2819.67 -1.76992 -1.52302 0
M  V30 30065 C 2820.65 -0.620237 -1.58389 0
M  V30 30066 O 2821.83 -0.864298 -1.73907 0
M  V30 30067 C 2818.96 -1.90688 -2.90268 0
M  V30 30068 C 2817.92 -3.06203 -2.99038 0
M  V30 30069 C 2817.24 -3.051 -4.39111 0
M  V30 30070 C 2818.54 -4.45938 -2.71912 0
M  V30 30071 H 2820.24 -2.68997 -1.31457 0
M  V30 30072 H 2817.78 -1.29441 -0.630962 0
M  V30 30073 H 2819.74 -2.06907 -3.67107 0
M  V30 30074 H 2818.46 -0.95342 -3.12374 0
M  V30 30075 H 2817.12 -2.8971 -2.24641 0
M  V30 30076 H 2816.77 -2.07506 -4.58203 0
M  V30 30077 H 2816.47 -3.82677 -4.45906 0
M  V30 30078 H 2817.99 -3.23429 -5.17905 0
M  V30 30079 H 2819.4 -4.62715 -3.38479 0
M  V30 30080 H 2817.8 -5.2532 -2.90102 0
M  V30 30081 H 2818.87 -4.55075 -1.67437 0
M  V30 30082 N 2820.21 0.68054 -1.42149 0
M  V30 30083 C 2821.63 0.992973 -1.24949 0
M  V30 30084 C 2821.83 2.00944 -0.149562 0
M  V30 30085 O 2820.89 2.47874 0.481101 0
M  V30 30086 C 2822.2 1.50325 -2.60428 0
M  V30 30087 C 2823.75 1.62132 -2.67735 0
M  V30 30088 C 2824.22 2.16558 -4.03568 0
M  V30 30089 N 2825.71 2.23898 -4.05492 0
M  V30 30090 C 2826.45 2.67072 -5.07405 0
M  V30 30091 N 2825.94 3.0974 -6.19704 0
M  V30 30092 N 2827.74 2.6677 -4.94763 0
M  V30 30093 H 2819.89 0.00744146 -2.12399 0
M  V30 30094 H 2822.15 0.0658363 -0.945711 0
M  V30 30095 H 2821.86 0.830887 -3.41744 0
M  V30 30096 H 2821.73 2.48295 -2.83953 0
M  V30 30097 H 2824.12 2.28476 -1.86769 0
M  V30 30098 H 2824.2 0.62667 -2.48005 0
M  V30 30099 H 2823.84 1.50824 -4.84989 0
M  V30 30100 H 2823.77 3.16803 -4.20646 0
M  V30 30101 H 2826.26 1.93807 -3.24419 0
M  V30 30102 H 2826.58 3.41353 -6.93324 0
M  V30 30103 H 2824.92 3.07612 -6.23218 0
M  V30 30104 H 2828.11 2.32794 -4.06109 0
M  V30 30105 H 2828.29 3.00097 -5.74322 0
M  V30 30106 N 2821.69 1.28226 0.916285 0
M  V30 30107 C 2822.94 1.15005 1.66188 0
M  V30 30108 C 2823.26 -0.302295 1.92643 0
M  V30 30109 O 2822.53 -1.20982 1.54078 0
M  V30 30110 H 2821.11 0.422619 0.615956 0
M  V30 30111 H 2823.77 1.60919 1.0996 0
M  V30 30112 H 2822.87 1.68774 2.6253 0
M  V30 30113 N 2823.17 -1.12438 1.10433 0
M  V30 30114 C 2824.4 -1.88311 0.869122 0
M  V30 30115 C 2824.82 -1.791 -0.57488 0
M  V30 30116 O 2824.18 -1.14592 -1.40494 0
M  V30 30117 C 2824.23 -3.35487 1.32214 0
M  V30 30118 O 2823.33 -4.09512 0.487164 0
M  V30 30119 H 2822.67 -0.585116 0.313904 0
M  V30 30120 H 2825.2 -1.42193 1.47114 0
M  V30 30121 H 2825.21 -3.86327 1.31208 0
M  V30 30122 H 2823.89 -3.41509 2.3737 0
M  V30 30123 H 2822.46 -3.68634 0.562436 0
M  V30 30124 N 2824.65 -0.893076 -1.29853 0
M  V30 30125 C 2825.9 -0.514601 -1.95439 0
M  V30 30126 C 2826.22 0.940929 -1.70797 0
M  V30 30127 O 2825.49 1.66262 -1.03604 0
M  V30 30128 H 2824.07 -0.187315 -0.723133 0
M  V30 30129 H 2826.73 -1.13792 -1.58232 0
M  V30 30130 H 2825.83 -0.691634 -3.0434 0
M  V30 30131 N 2826.13 1.4335 -0.654865 0
M  V30 30132 C 2827.06 2.2804 0.0855136 0
M  V30 30133 C 2828.04 1.39923 0.828277 0
M  V30 30134 O 2829.22 1.69365 0.827509 0
M  V30 30135 C 2826.35 3.19369 1.12787 0
M  V30 30136 C 2825.4 4.23757 0.482962 0
M  V30 30137 S 2826.23 5.30297 -0.744698 0
M  V30 30138 C 2827.38 6.25195 0.297077 0
M  V30 30139 H 2827.62 2.90486 -0.632882 0
M  V30 30140 H 2825.15 1.47886 -0.443756 0
M  V30 30141 H 2827.11 3.72532 1.72424 0
M  V30 30142 H 2825.77 2.56098 1.81859 0
M  V30 30143 H 2824.96 4.87768 1.26879 0
M  V30 30144 H 2824.56 3.73979 -0.039337 0
M  V30 30145 H 2826.86 6.67447 1.16278 0
M  V30 30146 H 2827.8 7.0743 -0.308054 0
M  V30 30147 H 2828.21 5.60933 0.633622 0
M  V30 30148 N 2827.61 0.39689 1.52521 0
M  V30 30149 C 2828.85 -0.184149 2.00858 0
M  V30 30150 C 2829.17 -1.47263 1.28736 0
M  V30 30151 O 2830.37 -2.13418 1.67824 0
M  V30 30152 C 2828.83 -0.378724 3.57902 0
M  V30 30153 C 2828.44 0.89695 4.38929 0
M  V30 30154 C 2830.18 -0.915717 4.14506 0
M  V30 30155 C 2828.09 0.670236 5.8759 0
M  V30 30156 H 2827.02 -0.0725923 0.750497 0
M  V30 30157 H 2829.67 0.520456 1.75965 0
M  V30 30158 H 2828.05 -1.14536 3.79074 0
M  V30 30159 H 2829.23 1.66879 4.29521 0
M  V30 30160 H 2827.54 1.35945 3.93583 0
M  V30 30161 H 2830.14 -1.10117 5.23238 0
M  V30 30162 H 2830.48 -1.88694 3.7108 0
M  V30 30163 H 2831.01 -0.208453 3.97253 0
M  V30 30164 H 2827.75 1.61268 6.35353 0
M  V30 30165 H 2827.27 -0.0625314 5.99767 0
M  V30 30166 H 2828.95 0.307691 6.46268 0
M  V30 30167 N 2829.08 -1.57088 0.126936 0
M  V30 30168 C 2830.05 -2.14558 -0.806059 0
M  V30 30169 C 2831.05 -1.08239 -1.18916 0
M  V30 30170 O 2832.24 -1.33977 -1.11337 0
M  V30 30171 C 2829.37 -2.69231 -2.09111 0
M  V30 30172 H 2830.56 -2.9833 -0.306469 0
M  V30 30173 H 2828.11 -1.5582 -0.122366 0
M  V30 30174 H 2828.85 -1.8907 -2.63483 0
M  V30 30175 H 2828.63 -3.46996 -1.82581 0
M  V30 30176 H 2830.12 -3.13577 -2.75789 0
M  V30 30177 N 2830.56 0.146848 -1.56914 0
M  V30 30178 C 2831.81 0.857738 -1.82995 0
M  V30 30179 C 2832.13 1.81699 -0.707846 0
M  V30 30180 O 2831.4 1.94024 0.270487 0
M  V30 30181 H 2829.98 0.319739 -0.675112 0
M  V30 30182 H 2832.64 0.140815 -1.94391 0
M  V30 30183 H 2831.74 1.41989 -2.77931 0
M  V30 30184 N 2832.04 1.52005 0.4162 0
M  V30 30185 C 2832.95 1.77719 1.53144 0
M  V30 30186 C 2833.97 0.662396 1.60898 0
M  V30 30187 O 2835.14 0.947023 1.77745 0
M  V30 30188 C 2832.21 1.91604 2.88945 0
M  V30 30189 C 2831.27 3.15499 2.91134 0
M  V30 30190 C 2830.5 3.28711 4.20458 0
M  V30 30191 O 2830.72 2.47354 5.13977 0
M  V30 30192 O 2829.66 4.21821 4.29361 0
M  V30 30193 H 2833.48 2.72366 1.34352 0
M  V30 30194 H 2831.07 1.36763 0.601349 0
M  V30 30195 H 2832.95 2.02599 3.69502 0
M  V30 30196 H 2831.63 1.00146 3.07819 0
M  V30 30197 H 2830.53 3.09966 2.09456 0
M  V30 30198 H 2831.87 4.06714 2.77208 0
M  V30 30199 N 2833.52 -0.672992 1.42508 0
M  V30 30200 C 2834.74 -1.46625 1.46683 0
M  V30 30201 C 2835.17 -1.87929 0.080099 0
M  V30 30202 O 2834.53 -1.56114 -0.921851 0
M  V30 30203 C 2834.57 -2.69047 2.40096 0
M  V30 30204 O 2833.68 -3.67384 1.87357 0
M  V30 30205 H 2833.02 -0.440421 0.496915 0
M  V30 30206 H 2835.55 -0.825302 1.87216 0
M  V30 30207 H 2835.56 -3.17097 2.56737 0
M  V30 30208 H 2834.23 -2.38324 3.40844 0
M  V30 30209 H 2832.81 -3.26425 1.8028 0
M  V30 30210 N 2835 -1.2871 -0.909472 0
M  V30 30211 C 2836.22 -1.19093 -1.69798 0
M  V30 30212 C 2836.65 0.246355 -1.8648 0
M  V30 30213 O 2836 1.17812 -1.37804 0
M  V30 30214 C 2836.05 -1.89909 -3.0654 0
M  V30 30215 O 2835.16 -1.20947 -3.94266 0
M  V30 30216 H 2834.5 -0.413194 -0.519776 0
M  V30 30217 H 2837.03 -1.70108 -1.13686 0
M  V30 30218 H 2837.04 -1.97983 -3.56745 0
M  V30 30219 H 2835.71 -2.94454 -2.93717 0
M  V30 30220 H 2834.29 -1.21066 -3.527 0
M  V30 30221 N 2836.47 1.1185 -1.11028 0
M  V30 30222 C 2837.4 2.19843 -0.786851 0
M  V30 30223 C 2838.38 1.68357 0.242905 0
M  V30 30224 O 2839.57 1.93903 0.107321 0
M  V30 30225 C 2836.7 3.46573 -0.224577 0
M  V30 30226 C 2835.65 4.11248 -1.18572 0
M  V30 30227 C 2834.98 5.32502 -0.484355 0
M  V30 30228 C 2836.28 4.56671 -2.53473 0
M  V30 30229 H 2837.97 2.47155 -1.68982 0
M  V30 30230 H 2835.52 1.18791 -0.813927 0
M  V30 30231 H 2837.47 4.21398 0.0138694 0
M  V30 30232 H 2836.2 3.18707 0.713666 0
M  V30 30233 H 2834.86 3.38412 -1.40972 0
M  V30 30234 H 2834.5 5.00905 0.458558 0
M  V30 30235 H 2834.2 5.76723 -1.12536 0
M  V30 30236 H 2835.73 6.10069 -0.2546 0
M  V30 30237 H 2837.14 5.22839 -2.35186 0
M  V30 30238 H 2835.54 5.11691 -3.13516 0
M  V30 30239 H 2836.61 3.70338 -3.13014 0
M  V30 30240 N 2837.95 0.89995 1.29378 0
M  V30 30241 C 2838.91 0.382716 2.25982 0
M  V30 30242 C 2839.91 -0.483232 1.53367 0
M  V30 30243 O 2841.1 -0.288249 1.71799 0
M  V30 30244 C 2838.24 -0.452855 3.37879 0
M  V30 30245 H 2839.43 1.23591 2.7325 0
M  V30 30246 H 2836.98 0.678113 1.40824 0
M  V30 30247 H 2837.72 -1.32602 2.95951 0
M  V30 30248 H 2837.5 0.167631 3.91742 0
M  V30 30249 H 2838.99 -0.806035 4.09747 0
M  V30 30250 N 2839.43 -1.43001 0.662458 0
M  V30 30251 C 2840.66 -2.05749 0.187379 0
M  V30 30252 C 2841.07 -1.49793 -1.1558 0
M  V30 30253 O 2840.41 -0.627517 -1.7265 0
M  V30 30254 C 2840.47 -3.59486 0.0317125 0
M  V30 30255 C 2840.14 -4.38071 1.30164 0
M  V30 30256 C 2841.13 -4.69531 2.23242 0
M  V30 30257 C 2838.82 -4.77923 1.5458 0
M  V30 30258 C 2840.81 -5.39762 3.39022 0
M  V30 30259 C 2838.5 -5.47897 2.70651 0
M  V30 30260 C 2839.5 -5.7874 3.62697 0
M  V30 30261 O 2839.19 -6.47282 4.7674 0
M  V30 30262 H 2838.92 -0.669774 0.0915332 0
M  V30 30263 H 2841.47 -1.84338 0.906015 0
M  V30 30264 H 2839.7 -3.79507 -0.742384 0
M  V30 30265 H 2841.39 -4.03905 -0.401906 0
M  V30 30266 H 2842.16 -4.39254 2.05624 0
M  V30 30267 H 2838.04 -4.53317 0.838119 0
M  V30 30268 H 2841.58 -5.63753 4.10887 0
M  V30 30269 H 2837.48 -5.77591 2.88199 0
M  V30 30270 H 2838.25 -6.65769 4.76124 0
M  V30 30271 N 2840.91 -0.404973 -1.52308 0
M  V30 30272 C 2841.82 0.429514 -2.30635 0
M  V30 30273 C 2842.83 1.05734 -1.38189 0
M  V30 30274 O 2844.01 1.05976 -1.71263 0
M  V30 30275 C 2841.08 1.53333 -3.1095 0
M  V30 30276 C 2840.14 0.928991 -4.19128 0
M  V30 30277 C 2839.37 1.98021 -4.95604 0
M  V30 30278 O 2839.59 3.19772 -4.72337 0
M  V30 30279 O 2838.53 1.58876 -5.80553 0
M  V30 30280 H 2842.35 -0.209016 -3.0298 0
M  V30 30281 H 2839.94 -0.168281 -1.48449 0
M  V30 30282 H 2841.82 2.17423 -3.60978 0
M  V30 30283 H 2840.49 2.15654 -2.41402 0
M  V30 30284 H 2839.4 0.250916 -3.73258 0
M  V30 30285 H 2840.73 0.349769 -4.90956 0
M  V30 30286 N 2842.39 1.57018 -0.135265 0
M  V30 30287 C 2843.3 2.19721 0.822187 0
M  V30 30288 C 2844.31 1.17805 1.28055 0
M  V30 30289 O 2845.49 1.50338 1.34017 0
M  V30 30290 C 2842.55 2.79721 2.04835 0
M  V30 30291 C 2841.61 3.96725 1.64035 0
M  V30 30292 C 2840.85 4.53854 2.80806 0
M  V30 30293 O 2841.07 4.09867 3.96693 0
M  V30 30294 O 2840 5.44296 2.56953 0
M  V30 30295 H 2843.83 3.02025 0.318499 0
M  V30 30296 H 2841.42 1.49122 0.0911759 0
M  V30 30297 H 2843.3 3.17902 2.76616 0
M  V30 30298 H 2841.97 2.00437 2.54179 0
M  V30 30299 H 2840.88 3.63283 0.893119 0
M  V30 30300 H 2842.21 4.77494 1.19418 0
M  V30 30301 N 2843.86 -0.138524 1.5699 0
M  V30 30302 C 2845.11 -0.848173 1.83 0
M  V30 30303 C 2845.43 -1.81951 0.717861 0
M  V30 30304 O 2846.63 -2.57392 0.863801 0
M  V30 30305 C 2845.09 -1.55899 3.24382 0
M  V30 30306 C 2844.7 -0.629632 4.43553 0
M  V30 30307 C 2846.44 -2.25492 3.59658 0
M  V30 30308 C 2844.35 -1.34256 5.7596 0
M  V30 30309 H 2843.28 -0.320483 0.6825 0
M  V30 30310 H 2845.93 -0.100892 1.83222 0
M  V30 30311 H 2844.31 -2.3522 3.18571 0
M  V30 30312 H 2845.48 0.128963 4.6062 0
M  V30 30313 H 2843.8 -0.0416794 4.16379 0
M  V30 30314 H 2846.4 -2.79485 4.55842 0
M  V30 30315 H 2846.74 -3.02383 2.86129 0
M  V30 30316 H 2847.27 -1.5308 3.67167 0
M  V30 30317 H 2844.01 -0.615326 6.52606 0
M  V30 30318 H 2843.53 -2.07365 5.62814 0
M  V30 30319 H 2845.21 -1.88115 6.19049 0
M  V30 30320 N 2845.34 -1.52224 -0.408133 0
M  V30 30321 C 2846.59 -1.66578 -1.15671 0
M  V30 30322 C 2846.92 -0.395029 -1.9014 0
M  V30 30323 O 2846.2 0.606581 -1.84799 0
M  V30 30324 C 2846.48 -2.88845 -2.15037 0
M  V30 30325 C 2846.33 -4.25972 -1.44457 0
M  V30 30326 C 2847.65 -3.06635 -3.15694 0
M  V30 30327 H 2844.77 -0.606204 -0.419149 0
M  V30 30328 H 2847.41 -1.8478 -0.442315 0
M  V30 30329 H 2845.56 -2.73457 -2.75959 0
M  V30 30330 H 2847.23 -4.53089 -0.866464 0
M  V30 30331 H 2845.48 -4.27328 -0.746537 0
M  V30 30332 H 2846.15 -5.07572 -2.16967 0
M  V30 30333 H 2848.62 -3.20928 -2.64848 0
M  V30 30334 H 2847.5 -3.93697 -3.82484 0
M  V30 30335 H 2847.76 -2.19994 -3.83478 0
M  V30 30336 N 2846.82 0.665425 -1.42863 0
M  V30 30337 C 2848.05 1.45346 -1.47248 0
M  V30 30338 C 2848.46 1.88601 -0.0866275 0
M  V30 30339 O 2847.82 1.58729 0.900624 0
M  V30 30340 C 2847.87 2.69646 -2.40777 0
M  V30 30341 O 2847.59 2.28203 -3.73972 0
M  V30 30342 C 2849.09 3.63121 -2.54279 0
M  V30 30343 H 2846.31 0.446918 -0.500505 0
M  V30 30344 H 2848.86 0.816838 -1.87478 0
M  V30 30345 H 2847.01 3.29476 -2.03775 0
M  V30 30346 H 2847.43 3.08539 -4.24151 0
M  V30 30347 H 2848.9 4.47037 -3.23823 0
M  V30 30348 H 2849.38 4.09653 -1.58371 0
M  V30 30349 H 2849.98 3.0918 -2.92041 0
M  V30 30350 N 2848.3 1.29191 0.902633 0
M  V30 30351 C 2849.55 1.16365 1.64748 0
M  V30 30352 C 2849.86 -0.284648 1.93518 0
M  V30 30353 O 2851.07 -0.534182 2.66193 0
M  V30 30354 C 2849.52 2.03499 2.96844 0
M  V30 30355 C 2849.13 3.53135 2.75681 0
M  V30 30356 C 2850.87 1.99389 3.74759 0
M  V30 30357 C 2848.78 4.32382 4.03485 0
M  V30 30358 H 2847.71 0.431915 0.618034 0
M  V30 30359 H 2850.36 1.53808 1.00077 0
M  V30 30360 H 2848.74 1.58922 3.62712 0
M  V30 30361 H 2849.92 4.05743 2.18424 0
M  V30 30362 H 2848.23 3.58885 2.11165 0
M  V30 30363 H 2850.83 2.55859 4.69511 0
M  V30 30364 H 2851.17 0.973194 4.04765 0
M  V30 30365 H 2851.71 2.41994 3.15727 0
M  V30 30366 H 2848.45 5.35077 3.78646 0
M  V30 30367 H 2847.97 3.84543 4.60311 0
M  V30 30368 H 2849.64 4.42889 4.71654 0
M  V30 30369 N 2849.78 -1.1126 1.1162 0
M  V30 30370 C 2851 -1.87379 0.889046 0
M  V30 30371 C 2851.43 -1.79699 -0.555852 0
M  V30 30372 O 2850.78 -1.16075 -1.3927 0
M  V30 30373 C 2850.83 -3.34066 1.35765 0
M  V30 30374 O 2849.94 -4.08973 0.530571 0
M  V30 30375 H 2849.28 -0.581753 0.320092 0
M  V30 30376 H 2851.81 -1.40624 1.48613 0
M  V30 30377 H 2851.82 -3.84914 1.35298 0
M  V30 30378 H 2850.49 -3.38972 2.40979 0
M  V30 30379 H 2849.07 -3.68017 0.601503 0
M  V30 30380 N 2851.25 -0.906798 -1.28899 0
M  V30 30381 C 2852.18 -0.4067 -2.29931 0
M  V30 30382 C 2853.17 0.522033 -1.61891 0
M  V30 30383 O 2854.35 0.43125 -1.89351 0
M  V30 30384 C 2851.48 0.360305 -3.45426 0
M  V30 30385 C 2850.43 -0.478649 -4.25315 0
M  V30 30386 C 2849.76 0.416279 -5.33077 0
M  V30 30387 C 2851.06 -1.73229 -4.92736 0
M  V30 30388 H 2852.75 -1.25102 -2.72011 0
M  V30 30389 H 2850.3 -0.603 -1.30767 0
M  V30 30390 H 2852.25 0.720956 -4.15187 0
M  V30 30391 H 2850.98 1.23847 -3.02208 0
M  V30 30392 H 2849.64 -0.821725 -3.57272 0
M  V30 30393 H 2849.28 1.29278 -4.86103 0
M  V30 30394 H 2848.98 -0.141412 -5.8743 0
M  V30 30395 H 2850.51 0.772965 -6.05688 0
M  V30 30396 H 2851.92 -1.44095 -5.54896 0
M  V30 30397 H 2850.32 -2.23185 -5.57054 0
M  V30 30398 H 2851.39 -2.46416 -4.17621 0
M  V30 30399 N 2852.73 1.42648 -0.670032 0
M  V30 30400 C 2853.98 2.01902 -0.190603 0
M  V30 30401 C 2854.31 1.52834 1.19814 0
M  V30 30402 O 2853.59 0.728517 1.80341 0
M  V30 30403 C 2853.87 3.59428 -0.219973 0
M  V30 30404 C 2853.72 4.18686 -1.64383 0
M  V30 30405 C 2855.04 4.3795 0.434442 0
M  V30 30406 H 2852.16 0.733598 -0.0707348 0
M  V30 30407 H 2854.8 1.6973 -0.853913 0
M  V30 30408 H 2852.95 3.86967 0.344826 0
M  V30 30409 H 2854.62 4.02118 -2.26051 0
M  V30 30410 H 2852.87 3.74696 -2.18598 0
M  V30 30411 H 2853.54 5.27813 -1.6161 0
M  V30 30412 H 2856.01 4.16074 -0.0462887 0
M  V30 30413 H 2854.89 5.47561 0.383234 0
M  V30 30414 H 2855.15 4.15467 1.51128 0
M  V30 30415 N 2854.21 0.413044 1.52091 0
M  V30 30416 C 2855.44 -0.160845 2.06274 0
M  V30 30417 C 2855.85 -1.38531 1.28275 0
M  V30 30418 O 2855.21 -1.79387 0.335662 0
M  V30 30419 C 2855.26 -0.50738 3.57922 0
M  V30 30420 O 2854.98 0.668464 4.3297 0
M  V30 30421 C 2856.48 -1.13458 4.28535 0
M  V30 30422 H 2853.7 -0.0186642 0.67074 0
M  V30 30423 H 2856.25 0.585127 1.9595 0
M  V30 30424 H 2854.4 -1.20325 3.6824 0
M  V30 30425 H 2854.82 0.378261 5.23134 0
M  V30 30426 H 2856.29 -1.32723 5.35807 0
M  V30 30427 H 2856.77 -2.10879 3.85262 0
M  V30 30428 H 2857.37 -0.478802 4.22596 0
M  V30 30429 N 2855.69 -1.56945 0.143591 0
M  V30 30430 C 2856.93 -1.97905 -0.511163 0
M  V30 30431 C 2857.29 -1.02643 -1.6226 0
M  V30 30432 O 2858.49 -1.32635 -2.33798 0
M  V30 30433 C 2856.77 -3.42906 -1.00747 0
M  V30 30434 S 2858.32 -4.0589 -1.6673 0
M  V30 30435 H 2855.14 -0.691497 -0.165387 0
M  V30 30436 H 2857.74 -1.94089 0.234498 0
M  V30 30437 H 2856.45 -4.0997 -0.187745 0
M  V30 30438 H 2855.98 -3.50428 -1.78783 0
M  V30 30439 H 2857.99 -3.98662 -2.95437 0
M  V30 30440 N 2857.17 0.130197 -1.57061 0
M  V30 30441 C 2858.58 0.483386 -1.52104 0
M  V30 30442 C 2858.78 1.82471 -0.854784 0
M  V30 30443 O 2857.84 2.4877 -0.432386 0
M  V30 30444 C 2859.15 0.478198 -2.96873 0
M  V30 30445 C 2860.7 0.562538 -3.07903 0
M  V30 30446 C 2861.18 0.587849 -4.54212 0
M  V30 30447 N 2862.67 0.649603 -4.58622 0
M  V30 30448 C 2863.4 0.690451 -5.69228 0
M  V30 30449 N 2862.9 0.689622 -6.89359 0
M  V30 30450 N 2864.69 0.73261 -5.57305 0
M  V30 30451 H 2856.84 -0.748814 -1.98763 0
M  V30 30452 H 2859.1 -0.274981 -0.907243 0
M  V30 30453 H 2858.81 -0.439506 -3.48943 0
M  V30 30454 H 2858.68 1.31007 -3.53719 0
M  V30 30455 H 2861.07 1.47066 -2.55843 0
M  V30 30456 H 2861.15 -0.296809 -2.54072 0
M  V30 30457 H 2860.8 -0.316185 -5.06915 0
M  V30 30458 H 2860.73 1.46392 -5.05843 0
M  V30 30459 H 2863.22 0.656862 -3.72147 0
M  V30 30460 H 2863.53 0.723104 -7.6941 0
M  V30 30461 H 2861.88 0.657226 -6.91885 0
M  V30 30462 H 2865.07 0.730544 -4.62364 0
M  V30 30463 H 2865.24 0.760977 -6.43516 0
M  V30 30464 N 2858.65 1.52438 0.400055 0
M  V30 30465 C 2859.61 1.75795 1.47067 0
M  V30 30466 C 2860.61 0.627882 1.48035 0
M  V30 30467 O 2861.8 0.895843 1.494 0
M  V30 30468 C 2858.93 1.84863 2.86424 0
M  V30 30469 H 2860.12 2.7138 1.27644 0
M  V30 30470 H 2857.68 1.42992 0.631116 0
M  V30 30471 H 2858.41 0.912249 3.11205 0
M  V30 30472 H 2858.2 2.67026 2.87123 0
M  V30 30473 H 2859.69 2.04645 3.6402 0
M  V30 30474 N 2860.12 -0.657839 1.43214 0
M  V30 30475 C 2861.37 -1.41362 1.43874 0
M  V30 30476 C 2861.69 -1.95492 0.0649324 0
M  V30 30477 O 2862.89 -2.71452 -0.0510319 0
M  V30 30478 C 2861.35 -2.55806 2.53162 0
M  V30 30479 C 2860.96 -2.08304 3.96628 0
M  V30 30480 C 2862.7 -3.33206 2.6301 0
M  V30 30481 C 2860.61 -3.19932 4.97391 0
M  V30 30482 H 2859.54 -0.531126 0.535183 0
M  V30 30483 H 2862.19 -0.710514 1.69186 0
M  V30 30484 H 2860.57 -3.28566 2.21043 0
M  V30 30485 H 2861.74 -1.42585 4.38185 0
M  V30 30486 H 2860.06 -1.43797 3.90783 0
M  V30 30487 H 2862.66 -4.16372 3.35468 0
M  V30 30488 H 2863 -3.80929 1.67925 0
M  V30 30489 H 2863.53 -2.67524 2.94407 0
M  V30 30490 H 2860.27 -2.77182 5.94012 0
M  V30 30491 H 2859.79 -3.84377 4.6045 0
M  V30 30492 H 2861.47 -3.85136 5.19884 0
M  V30 30493 N 2861.6 -1.29668 -0.895769 0
M  V30 30494 C 2862.85 -1.17634 -1.64337 0
M  V30 30495 C 2863.17 0.271609 -1.93099 0
M  V30 30496 O 2862.44 1.18516 -1.55984 0
M  V30 30497 H 2861.02 -0.432365 -0.609155 0
M  V30 30498 H 2863.68 -1.62648 -1.07386 0
M  V30 30499 H 2862.78 -1.72929 -2.59812 0
M  V30 30500 N 2863.08 1.10667 -1.12208 0
M  V30 30501 C 2864.33 1.81942 -0.870627 0
M  V30 30502 C 2864.64 1.85995 0.605415 0
M  V30 30503 O 2865.85 2.53451 0.973389 0
M  V30 30504 C 2864.3 3.26789 -1.50789 0
M  V30 30505 C 2863.91 3.31041 -3.01854 0
M  V30 30506 C 2865.66 4.02908 -1.33661 0
M  V30 30507 C 2863.56 4.70333 -3.58526 0
M  V30 30508 H 2862.49 0.68176 -0.322055 0
M  V30 30509 H 2865.14 1.24473 -1.34829 0
M  V30 30510 H 2863.53 3.8424 -0.957892 0
M  V30 30511 H 2864.7 2.83427 -3.63326 0
M  V30 30512 H 2863.01 2.68405 -3.18351 0
M  V30 30513 H 2865.61 5.05794 -1.73425 0
M  V30 30514 H 2865.95 4.15357 -0.280022 0
M  V30 30515 H 2866.49 3.51865 -1.85569 0
M  V30 30516 H 2863.23 4.63083 -4.63933 0
M  V30 30517 H 2862.75 5.18324 -3.01828 0
M  V30 30518 H 2864.43 5.39299 -3.57443 0
M  V30 30519 N 2864.56 0.913621 1.28416 0
M  V30 30520 C 2865.81 0.545628 1.94595 0
M  V30 30521 C 2866.13 -0.913637 1.72272 0
M  V30 30522 O 2865.4 -1.64593 1.06236 0
M  V30 30523 H 2863.98 0.198796 0.720062 0
M  V30 30524 H 2866.64 1.16295 1.56402 0
M  V30 30525 H 2865.73 0.739965 3.03201 0
M  V30 30526 N 2866.04 -1.4229 0.677588 0
M  V30 30527 C 2867 -2.29198 0.0101488 0
M  V30 30528 C 2868 -1.43468 -0.726193 0
M  V30 30529 O 2869.19 -1.64825 -0.563778 0
M  V30 30530 C 2866.32 -3.26018 -0.996259 0
M  V30 30531 H 2867.51 -2.8971 0.775122 0
M  V30 30532 H 2865.07 -1.49976 0.440091 0
M  V30 30533 H 2865.8 -2.70449 -1.78963 0
M  V30 30534 H 2865.59 -3.89253 -0.471618 0
M  V30 30535 H 2867.08 -3.91187 -1.4616 0
M  V30 30536 N 2867.51 -0.421104 -1.5187 0
M  V30 30537 C 2868.74 0.149686 -2.06057 0
M  V30 30538 C 2869.15 1.38399 -1.29005 0
M  V30 30539 O 2868.49 1.80556 -0.338416 0
M  V30 30540 C 2868.56 0.553276 -3.55217 0
M  V30 30541 C 2868.22 -0.571959 -4.53407 0
M  V30 30542 C 2869.22 -1.43919 -4.99583 0
M  V30 30543 C 2866.9 -0.748066 -4.96698 0
M  V30 30544 C 2868.9 -2.46738 -5.87707 0
M  V30 30545 C 2866.58 -1.77954 -5.84616 0
M  V30 30546 C 2867.58 -2.63759 -6.30016 0
M  V30 30547 O 2867.27 -3.65139 -7.16191 0
M  V30 30548 H 2867 0.0185983 -0.675744 0
M  V30 30549 H 2869.56 -0.5942 -1.96617 0
M  V30 30550 H 2867.79 1.34963 -3.62384 0
M  V30 30551 H 2869.47 1.05335 -3.91994 0
M  V30 30552 H 2870.24 -1.3146 -4.66844 0
M  V30 30553 H 2866.12 -0.0898167 -4.60912 0
M  V30 30554 H 2869.66 -3.13745 -6.23065 0
M  V30 30555 H 2865.56 -1.9044 -6.16768 0
M  V30 30556 H 2866.33 -3.61525 -7.34331 0
M  V30 30557 N 2868.99 1.56866 -0.151912 0
M  V30 30558 C 2869.92 2.20019 0.781904 0
M  V30 30559 C 2870.9 1.1499 1.25345 0
M  V30 30560 O 2872.09 1.4335 1.31013 0
M  V30 30561 C 2869.22 2.82567 2.01923 0
M  V30 30562 C 2868.17 3.93467 1.68427 0
M  V30 30563 C 2867.5 4.42973 2.99465 0
M  V30 30564 C 2868.8 5.14005 0.927154 0
M  V30 30565 H 2870.49 2.98307 0.255554 0
M  V30 30566 H 2868.04 1.43487 0.121477 0
M  V30 30567 H 2869.99 3.25416 2.67736 0
M  V30 30568 H 2868.72 2.01618 2.56939 0
M  V30 30569 H 2867.37 3.51244 1.04991 0
M  V30 30570 H 2867.02 3.5884 3.52481 0
M  V30 30571 H 2866.72 5.17777 2.77814 0
M  V30 30572 H 2868.25 4.88495 3.6634 0
M  V30 30573 H 2869.66 5.53667 1.48746 0
M  V30 30574 H 2868.06 5.94603 0.810408 0
M  V30 30575 H 2869.13 4.84834 -0.0802016 0
M  V30 30576 N 2870.47 -0.121866 1.57128 0
M  V30 30577 C 2871.72 -0.831386 1.84975 0
M  V30 30578 C 2872.05 -1.79662 0.737236 0
M  V30 30579 O 2871.32 -1.92792 -0.257165 0
M  V30 30580 C 2871.61 -1.58381 3.234 0
M  V30 30581 C 2871.46 -0.638367 4.45247 0
M  V30 30582 C 2872.78 -2.54064 3.5936 0
M  V30 30583 H 2869.9 -0.300791 0.672825 0
M  V30 30584 H 2872.54 -0.0957254 1.89759 0
M  V30 30585 H 2870.69 -2.21093 3.19453 0
M  V30 30586 H 2872.36 -0.0203115 4.61296 0
M  V30 30587 H 2870.61 0.0503062 4.33771 0
M  V30 30588 H 2871.28 -1.20141 5.38767 0
M  V30 30589 H 2873.75 -2.01459 3.64079 0
M  V30 30590 H 2872.63 -3.03744 4.57199 0
M  V30 30591 H 2872.89 -3.36596 2.86628 0
M  V30 30592 N 2871.95 -1.52648 -0.391965 0
M  V30 30593 C 2873.36 -1.41833 -0.731823 0
M  V30 30594 C 2873.56 -0.536395 -1.94229 0
M  V30 30595 O 2872.62 -0.0087101 -2.52498 0
M  V30 30596 C 2873.93 -2.84636 -0.969693 0
M  V30 30597 C 2875.48 -2.94094 -1.07135 0
M  V30 30598 C 2875.96 -4.37902 -1.34187 0
M  V30 30599 N 2877.45 -4.41213 -1.41015 0
M  V30 30600 C 2878.18 -5.49564 -1.63606 0
M  V30 30601 N 2877.68 -6.68005 -1.83687 0
M  V30 30602 N 2879.47 -5.37103 -1.65761 0
M  V30 30603 H 2871.62 -2.08511 0.404584 0
M  V30 30604 H 2873.89 -0.940526 0.118806 0
M  V30 30605 H 2873.59 -3.5137 -0.152403 0
M  V30 30606 H 2873.47 -3.26712 -1.88518 0
M  V30 30607 H 2875.85 -2.2753 -1.87921 0
M  V30 30608 H 2875.93 -2.5545 -0.133842 0
M  V30 30609 H 2875.58 -5.05031 -0.539118 0
M  V30 30610 H 2875.51 -4.74096 -2.29217 0
M  V30 30611 H 2878 -3.55843 -1.27216 0
M  V30 30612 H 2878.31 -7.46358 -2.00424 0
M  V30 30613 H 2876.66 -6.71039 -1.80918 0
M  V30 30614 H 2879.85 -4.43543 -1.49622 0
M  V30 30615 H 2880.02 -6.21615 -1.83027 0
M  V30 30616 N 2873.43 0.650235 -1.43561 0
M  V30 30617 C 2874.36 1.77457 -1.51761 0
M  V30 30618 C 2875.34 1.65981 -0.372048 0
M  V30 30619 O 2876.52 1.85031 -0.58966 0
M  V30 30620 C 2873.65 3.159 -1.44307 0
M  V30 30621 C 2872.61 3.42142 -2.57144 0
M  V30 30622 C 2871.93 4.80416 -2.34743 0
M  V30 30623 C 2873.23 3.36591 -3.99379 0
M  V30 30624 H 2874.93 1.70851 -2.45866 0
M  V30 30625 H 2872.47 0.820545 -1.18335 0
M  V30 30626 H 2874.43 3.94312 -1.48648 0
M  V30 30627 H 2873.15 3.23243 -0.467083 0
M  V30 30628 H 2871.81 2.66102 -2.52161 0
M  V30 30629 H 2871.46 4.84439 -1.3538 0
M  V30 30630 H 2871.16 4.98935 -3.10384 0
M  V30 30631 H 2872.68 5.61082 -2.40872 0
M  V30 30632 H 2874.09 4.04935 -4.05833 0
M  V30 30633 H 2872.49 3.66646 -4.7507 0
M  V30 30634 H 2873.56 2.34721 -4.24304 0
M  V30 30635 N 2874.9 1.30141 0.88888 0
M  V30 30636 C 2876.15 1.18504 1.63711 0
M  V30 30637 C 2876.47 -0.261365 1.9324 0
M  V30 30638 O 2875.74 -1.17687 1.5661 0
M  V30 30639 H 2874.32 0.43559 0.606853 0
M  V30 30640 H 2876.99 1.63215 1.06522 0
M  V30 30641 H 2876.08 1.74304 2.58891 0
M  V30 30642 N 2876.38 -1.1007 1.12794 0
M  V30 30643 C 2877.31 -2.16337 0.757041 0
M  V30 30644 C 2878.33 -1.61332 -0.218115 0
M  V30 30645 O 2879.52 -1.785 0.00110408 0
M  V30 30646 C 2876.62 -3.38751 0.100363 0
M  V30 30647 C 2875.79 -4.23188 1.10594 0
M  V30 30648 C 2874.85 -5.24041 0.476182 0
M  V30 30649 O 2873.87 -5.57784 1.13428 0
M  V30 30650 N 2875.08 -5.75573 -0.754722 0
M  V30 30651 H 2877.84 -2.48763 1.67144 0
M  V30 30652 H 2875.4 -1.25724 1.02005 0
M  V30 30653 H 2877.39 -4.03327 -0.333021 0
M  V30 30654 H 2875.96 -3.04269 -0.716862 0
M  V30 30655 H 2875.18 -3.5485 1.71683 0
M  V30 30656 H 2876.47 -4.76431 1.78579 0
M  V30 30657 H 2875.87 -5.50364 -1.30829 0
M  V30 30658 H 2874.43 -6.41915 -1.13087 0
M  V30 30659 N 2877.86 -0.920419 -1.2793 0
M  V30 30660 C 2879.28 -0.619563 -1.47084 0
M  V30 30661 C 2879.48 0.833258 -1.83464 0
M  V30 30662 O 2878.53 1.61178 -1.94365 0
M  V30 30663 C 2879.85 -1.56319 -2.56875 0
M  V30 30664 C 2881.39 -1.57062 -2.7074 0
M  V30 30665 C 2881.87 -2.50104 -3.83682 0
M  V30 30666 N 2883.36 -2.48269 -3.91046 0
M  V30 30667 C 2884.09 -3.16954 -4.77837 0
M  V30 30668 N 2883.59 -3.94992 -5.69169 0
M  V30 30669 N 2885.38 -3.06008 -4.71504 0
M  V30 30670 H 2877.53 -1.85977 -1.02597 0
M  V30 30671 H 2879.8 -0.79806 -0.511668 0
M  V30 30672 H 2879.5 -2.59928 -2.36919 0
M  V30 30673 H 2879.38 -1.29934 -3.54114 0
M  V30 30674 H 2881.76 -0.541883 -2.90082 0
M  V30 30675 H 2881.85 -1.87493 -1.74011 0
M  V30 30676 H 2881.49 -3.53084 -3.65095 0
M  V30 30677 H 2881.42 -2.16972 -4.79824 0
M  V30 30678 H 2883.91 -1.91587 -3.25734 0
M  V30 30679 H 2884.22 -4.44405 -6.32238 0
M  V30 30680 H 2882.57 -3.99096 -5.68988 0
M  V30 30681 H 2885.76 -2.4454 -3.99146 0
M  V30 30682 H 2885.93 -3.59808 -5.38927 0
M  V30 30683 N 2879.34 1.41929 -0.685124 0
M  V30 30684 C 2880.58 2.01689 -0.212007 0
M  V30 30685 C 2880.92 1.54096 1.18186 0
M  V30 30686 O 2880.19 0.747604 1.79558 0
M  V30 30687 C 2880.48 3.59174 -0.258083 0
M  V30 30688 C 2880.33 4.16919 -1.68814 0
M  V30 30689 C 2881.65 4.38387 0.387967 0
M  V30 30690 H 2878.77 0.732806 -0.0785116 0
M  V30 30691 H 2881.41 1.68815 -0.871867 0
M  V30 30692 H 2879.56 3.87311 0.303764 0
M  V30 30693 H 2881.23 3.99697 -2.30303 0
M  V30 30694 H 2879.47 3.72357 -2.2256 0
M  V30 30695 H 2880.14 5.26069 -1.67199 0
M  V30 30696 H 2882.62 4.16002 -0.0904163 0
M  V30 30697 H 2881.5 5.47936 0.325136 0
M  V30 30698 H 2881.76 4.17046 1.46713 0
M  V30 30699 N 2880.82 0.429152 1.51644 0
M  V30 30700 C 2882.07 -0.141502 2.01203 0
M  V30 30701 C 2882.38 -1.44499 1.31831 0
M  V30 30702 O 2883.58 -2.0981 1.72313 0
M  V30 30703 C 2882.04 -0.302723 3.58625 0
M  V30 30704 C 2881.65 0.989852 4.36928 0
M  V30 30705 C 2883.39 -0.827588 4.16355 0
M  V30 30706 C 2881.3 0.794722 5.86036 0
M  V30 30707 H 2880.23 -0.0566568 0.751868 0
M  V30 30708 H 2882.88 0.557663 1.74821 0
M  V30 30709 H 2881.26 -1.0647 3.81419 0
M  V30 30710 H 2882.44 1.75952 4.25884 0
M  V30 30711 H 2880.75 1.44263 3.90611 0
M  V30 30712 H 2883.35 -0.989934 5.25456 0
M  V30 30713 H 2883.69 -1.80781 3.74999 0
M  V30 30714 H 2884.22 -0.124143 3.97606 0
M  V30 30715 H 2880.96 1.74708 6.31789 0
M  V30 30716 H 2880.48 0.0647022 5.99765 0
M  V30 30717 H 2882.16 0.444704 6.4547 0
M  V30 30718 N 2882.29 -1.56783 0.160229 0
M  V30 30719 C 2883.23 -2.14576 -0.805602 0
M  V30 30720 C 2884.24 -1.09851 -1.20152 0
M  V30 30721 O 2885.43 -1.3708 -1.1433 0
M  V30 30722 C 2882.53 -2.66444 -2.0943 0
M  V30 30723 C 2881.7 -3.95709 -1.86368 0
M  V30 30724 C 2880.76 -4.32754 -2.9935 0
M  V30 30725 O 2879.79 -5.00836 -2.70466 0
M  V30 30726 N 2880.99 -3.93409 -4.2686 0
M  V30 30727 H 2883.75 -2.98076 -0.311592 0
M  V30 30728 H 2881.31 -1.61884 -0.0229181 0
M  V30 30729 H 2883.31 -2.88231 -2.84086 0
M  V30 30730 H 2881.88 -1.87595 -2.50054 0
M  V30 30731 H 2881.1 -3.82413 -0.956754 0
M  V30 30732 H 2882.38 -4.80154 -1.68313 0
M  V30 30733 H 2881.78 -3.38577 -4.53191 0
M  V30 30734 H 2880.34 -4.2022 -4.98255 0
M  V30 30735 N 2883.77 0.113531 -1.57191 0
M  V30 30736 C 2885.02 0.821564 -1.85413 0
M  V30 30737 C 2885.35 1.79269 -0.746753 0
M  V30 30738 O 2884.63 1.92926 0.246937 0
M  V30 30739 C 2884.91 1.56663 -3.24235 0
M  V30 30740 C 2884.76 0.614745 -4.45579 0
M  V30 30741 C 2886.08 2.52155 -3.60702 0
M  V30 30742 H 2883.2 0.297218 -0.674411 0
M  V30 30743 H 2885.84 0.0856606 -1.89807 0
M  V30 30744 H 2883.99 2.19396 -3.20621 0
M  V30 30745 H 2885.67 -0.00415246 -4.613 0
M  V30 30746 H 2883.91 -0.0733094 -4.33738 0
M  V30 30747 H 2884.58 1.17282 -5.39397 0
M  V30 30748 H 2887.06 1.99525 -3.65142 0
M  V30 30749 H 2885.93 3.01315 -4.58803 0
M  V30 30750 H 2886.19 3.35071 -2.88409 0
M  V30 30751 N 2885.25 1.52854 0.383864 0
M  V30 30752 C 2886.16 1.80928 1.49339 0
M  V30 30753 C 2887.18 0.696376 1.59457 0
M  V30 30754 O 2888.35 0.984512 1.75697 0
M  V30 30755 C 2885.42 1.97689 2.84815 0
M  V30 30756 C 2884.48 3.21603 2.84377 0
M  V30 30757 C 2883.71 3.37555 4.13391 0
M  V30 30758 O 2883.94 2.58201 5.08614 0
M  V30 30759 O 2882.87 4.30833 4.20317 0
M  V30 30760 H 2886.7 2.75154 1.28545 0
M  V30 30761 H 2884.28 1.38008 0.572204 0
M  V30 30762 H 2886.16 2.10391 3.65121 0
M  V30 30763 H 2884.84 1.06653 3.05625 0
M  V30 30764 H 2883.74 3.14339 2.02834 0
M  V30 30765 H 2885.08 4.12503 2.68519 0
M  V30 30766 N 2886.73 -0.642612 1.43904 0
M  V30 30767 C 2887.68 -1.77631 1.50167 0
M  V30 30768 C 2888.67 -1.65213 0.374324 0
M  V30 30769 O 2889.88 -1.71431 0.548778 0
M  V30 30770 H 2886.25 -0.586241 0.470984 0
M  V30 30771 H 2888.22 -1.6947 2.45606 0
M  V30 30772 C 2886.97 -3.1593 1.45202 0
M  V30 30773 H 2886.3 -3.26128 2.31258 0
M  V30 30774 H 2887.74 -3.95183 1.53645 0
M  V30 30775 C 2886.19 -3.36465 0.171102 0
M  V30 30776 O 2886.72 -3.9438 -0.763343 0
M  V30 30777 N 2884.93 -2.90496 0.077898 0
M  V30 30778 H 2884.48 -2.43549 0.839142 0
M  V30 30779 H 2884.44 -3.04611 -0.778419 0
M  V30 30780 N 2888.21 -1.30611 -0.881966 0
M  V30 30781 C 2889.43 -1.22668 -1.67234 0
M  V30 30782 C 2889.86 0.206745 -1.8696 0
M  V30 30783 O 2889.22 1.14863 -1.40272 0
M  V30 30784 C 2889.26 -1.96369 -3.02443 0
M  V30 30785 O 2888.37 -1.29283 -3.91612 0
M  V30 30786 H 2887.71 -0.424126 -0.510894 0
M  V30 30787 H 2890.24 -1.72481 -1.10052 0
M  V30 30788 H 2890.25 -2.05506 -3.52465 0
M  V30 30789 H 2888.92 -3.00618 -2.87405 0
M  V30 30790 H 2887.5 -1.2852 -3.50053 0
M  V30 30791 N 2889.69 1.0947 -1.13376 0
M  V30 30792 C 2890.64 2.14261 -0.779497 0
M  V30 30793 C 2891.62 1.59301 0.226243 0
M  V30 30794 O 2892.81 1.76974 0.0302269 0
M  V30 30795 C 2889.94 3.42412 -0.246695 0
M  V30 30796 C 2889.03 4.04281 -1.28132 0
M  V30 30797 N 2889.42 4.40711 -2.48209 0
M  V30 30798 C 2887.72 4.31474 -1.12899 0
M  V30 30799 C 2888.42 4.89444 -3.14355 0
M  V30 30800 N 2887.39 4.86871 -2.41779 0
M  V30 30801 H 2891.19 2.40232 -1.69309 0
M  V30 30802 H 2888.71 1.26693 -1.016 0
M  V30 30803 H 2890.71 4.16892 0.0253399 0
M  V30 30804 H 2889.37 3.17896 0.661231 0
M  V30 30805 H 2890.38 4.32088 -2.85518 0
M  V30 30806 H 2887.05 4.16565 -0.27919 0
M  V30 30807 H 2888.44 5.27099 -4.16672 0
M  V30 30808 N 2891.16 0.92719 1.2744 0
M  V30 30809 C 2892.41 0.56318 1.93678 0
M  V30 30810 C 2892.73 -0.899806 1.73675 0
M  V30 30811 O 2893.93 -1.37257 2.34249 0
M  V30 30812 C 2892.39 0.956421 3.46959 0
M  V30 30813 C 2892 2.44006 3.7572 0
M  V30 30814 C 2893.74 0.663639 4.1928 0
M  V30 30815 C 2891.65 2.77273 5.22373 0
M  V30 30816 H 2890.58 0.206907 0.725056 0
M  V30 30817 H 2893.23 1.12793 1.44741 0
M  V30 30818 H 2891.61 0.320323 3.94702 0
M  V30 30819 H 2892.78 3.12402 3.38735 0
M  V30 30820 H 2891.1 2.70468 3.16601 0
M  V30 30821 H 2893.7 0.888689 5.27263 0
M  V30 30822 H 2894.04 -0.399125 4.14382 0
M  V30 30823 H 2894.57 1.25881 3.77358 0
M  V30 30824 H 2891.31 3.82456 5.32361 0
M  V30 30825 H 2890.83 2.13526 5.60506 0
M  V30 30826 H 2892.51 2.64989 5.90246 0
M  V30 30827 N 2892.64 -1.41564 0.692641 0
M  V30 30828 C 2893.89 -2.00502 0.219487 0
M  V30 30829 C 2894.2 -1.55481 -1.1868 0
M  V30 30830 O 2895.41 -2.06959 -1.75727 0
M  V30 30831 C 2893.87 -3.58276 0.341514 0
M  V30 30832 C 2893.47 -4.1228 1.75299 0
M  V30 30833 C 2895.22 -4.24439 -0.0720153 0
M  V30 30834 C 2893.12 -5.62478 1.82682 0
M  V30 30835 H 2892.05 -0.749923 0.0783006 0
M  V30 30836 H 2894.71 -1.62078 0.860414 0
M  V30 30837 H 2893.09 -3.9429 -0.367614 0
M  V30 30838 H 2894.26 -3.87691 2.49064 0
M  V30 30839 H 2892.58 -3.58632 2.11593 0
M  V30 30840 H 2895.17 -5.34687 -0.0372445 0
M  V30 30841 H 2895.52 -4.01222 -1.11026 0
M  V30 30842 H 2896.05 -3.93449 0.586733 0
M  V30 30843 H 2892.79 -5.90518 2.8455 0
M  V30 30844 H 2892.31 -5.89002 1.13298 0
M  V30 30845 H 2893.99 -6.272 1.58838 0
M  V30 30846 N 2894.12 -0.437188 -1.51415 0
M  V30 30847 C 2895.05 0.364881 -2.30631 0
M  V30 30848 C 2896.03 1.02116 -1.36038 0
M  V30 30849 O 2897.22 1.02482 -1.64958 0
M  V30 30850 C 2894.35 1.46642 -3.14823 0
M  V30 30851 C 2893.3 0.933644 -4.17693 0
M  V30 30852 C 2892.63 2.13092 -4.90404 0
M  V30 30853 C 2893.93 -0.0318119 -5.2229 0
M  V30 30854 H 2895.62 -0.296193 -2.97931 0
M  V30 30855 H 2893.17 -0.14389 -1.43279 0
M  V30 30856 H 2895.12 2.03474 -3.69021 0
M  V30 30857 H 2893.84 2.15578 -2.45344 0
M  V30 30858 H 2892.5 0.387538 -3.64546 0
M  V30 30859 H 2892.15 2.80647 -4.17428 0
M  V30 30860 H 2891.85 1.78082 -5.59965 0
M  V30 30861 H 2893.37 2.70478 -5.47425 0
M  V30 30862 H 2894.79 0.446202 -5.71561 0
M  V30 30863 H 2893.18 -0.294475 -5.99377 0
M  V30 30864 H 2894.25 -0.968531 -4.75129 0
M  V30 30865 N 2895.6 1.56696 -0.168541 0
M  V30 30866 C 2896.83 2.01172 0.483468 0
M  V30 30867 C 2897.24 1.04875 1.56992 0
M  V30 30868 O 2896.6 0.0491658 1.82434 0
M  V30 30869 C 2896.65 3.45476 1.06434 0
M  V30 30870 O 2896.37 4.38095 0.0212604 0
M  V30 30871 C 2897.87 4.05339 1.79485 0
M  V30 30872 H 2895.09 0.659445 0.123991 0
M  V30 30873 H 2897.63 2.02717 -0.269455 0
M  V30 30874 H 2895.79 3.44715 1.76778 0
M  V30 30875 H 2896.2 5.22568 0.449745 0
M  V30 30876 H 2897.68 5.08242 2.15392 0
M  V30 30877 H 2898.15 3.47273 2.68883 0
M  V30 30878 H 2898.76 4.09795 1.1379 0
M  V30 30879 N 2897.08 -0.105193 1.57249 0
M  V30 30880 C 2898.32 -0.808918 1.85205 0
M  V30 30881 C 2898.64 -1.79758 0.755772 0
M  V30 30882 O 2897.91 -1.94673 -0.21895 0
M  V30 30883 H 2896.49 -0.301727 0.683352 0
M  V30 30884 H 2899.16 -0.0892263 1.94696 0
M  V30 30885 H 2898.25 -1.3457 2.81598 0
M  V30 30886 N 2898.55 -1.53055 -0.375752 0
M  V30 30887 C 2899.52 -1.78113 -1.44251 0
M  V30 30888 C 2900.52 -0.651354 -1.47017 0
M  V30 30889 O 2901.71 -0.919498 -1.47956 0
M  V30 30890 C 2898.84 -1.89396 -2.83447 0
M  V30 30891 H 2900.03 -2.73376 -1.23311 0
M  V30 30892 H 2897.59 -1.43978 -0.608287 0
M  V30 30893 H 2898.32 -0.961643 -3.09714 0
M  V30 30894 H 2898.11 -2.7156 -2.82839 0
M  V30 30895 H 2899.6 -2.1041 -3.60718 0
M  V30 30896 N 2900.03 0.634971 -1.44242 0
M  V30 30897 C 2901.26 1.42684 -1.50519 0
M  V30 30898 C 2901.68 1.87651 -0.129897 0
M  V30 30899 O 2901.04 1.58503 0.880136 0
M  V30 30900 C 2901.09 2.62587 -2.47145 0
M  V30 30901 O 2900.19 3.62288 -1.97032 0
M  V30 30902 H 2899.53 0.427092 -0.508418 0
M  V30 30903 H 2902.06 0.775374 -1.89339 0
M  V30 30904 H 2902.07 3.10178 -2.65054 0
M  V30 30905 H 2900.75 2.29203 -3.47043 0
M  V30 30906 H 2899.33 3.21531 -1.88871 0
M  V30 30907 N 2901.51 1.31076 0.875027 0
M  V30 30908 C 2902.47 1.18266 1.96331 0
M  V30 30909 C 2903.47 0.111135 1.60415 0
M  V30 30910 O 2904.66 0.360017 1.70439 0
M  V30 30911 C 2901.8 0.814198 3.31034 0
M  V30 30912 H 2902.99 2.14961 2.09121 0
M  V30 30913 H 2900.54 1.14615 1.06269 0
M  V30 30914 H 2901.28 -0.151818 3.23944 0
M  V30 30915 H 2901.06 1.58869 3.58473 0
M  V30 30916 H 2902.55 0.748321 4.10841 0
M  V30 30917 N 2902.99 -1.08867 1.13955 0
M  V30 30918 C 2903.92 -2.17679 0.844862 0
M  V30 30919 C 2904.9 -1.68942 -0.198183 0
M  V30 30920 O 2906.08 -1.9412 -0.0558732 0
M  V30 30921 C 2903.21 -3.45856 0.316385 0
M  V30 30922 C 2902.17 -4.0796 1.29434 0
M  V30 30923 C 2901.49 -5.3103 0.625368 0
M  V30 30924 C 2902.79 -4.4979 2.65492 0
M  V30 30925 H 2904.49 -2.42588 1.75475 0
M  V30 30926 H 2902.03 -1.16591 0.845136 0
M  V30 30927 H 2903.99 -4.21286 0.0978616 0
M  V30 30928 H 2902.71 -3.20487 -0.628916 0
M  V30 30929 H 2901.37 -3.34555 1.49895 0
M  V30 30930 H 2901.02 -5.01945 -0.32559 0
M  V30 30931 H 2900.72 -5.73537 1.27787 0
M  V30 30932 H 2902.24 -6.09179 0.416259 0
M  V30 30933 H 2903.66 -5.16419 2.48966 0
M  V30 30934 H 2902.05 -5.03199 3.26972 0
M  V30 30935 H 2903.12 -3.61908 3.22723 0
M  V30 30936 N 2904.47 -0.933936 -1.26946 0
M  V30 30937 C 2905.41 -0.428503 -2.28619 0
M  V30 30938 C 2906.41 0.490436 -1.62145 0
M  V30 30939 O 2907.61 0.369449 -1.76168 0
M  V30 30940 H 2903.99 -0.120016 -0.742361 0
M  V30 30941 H 2905.96 -1.29869 -2.68657 0
M  V30 30942 C 2904.71 0.297679 -3.46423 0
M  V30 30943 H 2904.03 -0.400253 -3.97791 0
M  V30 30944 H 2905.47 0.615663 -4.19506 0
M  V30 30945 C 2903.93 1.5129 -3.0102 0
M  V30 30946 O 2904.46 2.61146 -3.05231 0
M  V30 30947 N 2902.67 1.36692 -2.56444 0
M  V30 30948 H 2902.21 0.473134 -2.53218 0
M  V30 30949 H 2902.17 2.18123 -2.26428 0
M  V30 30950 N 2905.94 1.41194 -0.700139 0
M  V30 30951 C 2906.89 2.30769 -0.0377058 0
M  V30 30952 C 2907.86 1.47356 0.766518 0
M  V30 30953 O 2909.05 1.76133 0.733619 0
M  V30 30954 C 2906.19 3.33442 0.889394 0
M  V30 30955 C 2905.3 4.31933 0.0762971 0
M  V30 30956 C 2904.43 5.21675 1.00146 0
M  V30 30957 C 2903.47 6.11831 0.181536 0
M  V30 30958 N 2902.61 6.94041 1.06074 0
M  V30 30959 H 2907.45 2.86856 -0.80731 0
M  V30 30960 H 2904.99 1.41276 -0.409823 0
M  V30 30961 H 2906.95 3.91524 1.441 0
M  V30 30962 H 2905.58 2.78895 1.62535 0
M  V30 30963 H 2904.63 3.75761 -0.592289 0
M  V30 30964 H 2905.94 4.95656 -0.559163 0
M  V30 30965 H 2905.09 5.84613 1.62213 0
M  V30 30966 H 2903.83 4.58189 1.67077 0
M  V30 30967 H 2902.84 5.47937 -0.452181 0
M  V30 30968 H 2904.06 6.77373 -0.484044 0
M  V30 30969 H 2902.01 6.33159 1.71599 0
M  V30 30970 H 2901.93 7.54469 0.480962 0
M  V30 30971 H 2903.19 7.61443 1.66809 0
M  V30 30972 N 2907.42 0.445212 1.51181 0
M  V30 30973 C 2908.67 -0.118785 2.02452 0
M  V30 30974 C 2909 -1.41671 1.32827 0
M  V30 30975 O 2908.28 -1.89325 0.44567 0
M  V30 30976 C 2908.56 -0.329412 3.5859 0
M  V30 30977 C 2908.41 0.987715 4.38821 0
M  V30 30978 C 2909.73 -1.09567 4.26243 0
M  V30 30979 H 2906.85 -0.0416963 0.73582 0
M  V30 30980 H 2909.49 0.585749 1.80746 0
M  V30 30981 H 2907.64 -0.929534 3.77216 0
M  V30 30982 H 2909.31 1.62242 4.31828 0
M  V30 30983 H 2907.56 1.59048 4.03592 0
M  V30 30984 H 2908.23 0.794288 5.46255 0
M  V30 30985 H 2910.7 -0.587255 4.11935 0
M  V30 30986 H 2909.58 -1.21182 5.35356 0
M  V30 30987 H 2909.84 -2.12577 3.87638 0
M  V30 30988 N 2908.9 -1.56605 0.176849 0
M  V30 30989 C 2909.83 -2.21235 -0.746802 0
M  V30 30990 C 2910.81 -1.16969 -1.235 0
M  V30 30991 O 2912 -1.45417 -1.28715 0
M  V30 30992 C 2909.13 -2.85744 -1.97402 0
M  V30 30993 C 2908.08 -3.96097 -1.62146 0
M  V30 30994 C 2907.41 -4.47681 -2.92379 0
M  V30 30995 C 2908.71 -5.15415 -0.845263 0
M  V30 30996 H 2910.4 -2.98676 -0.208064 0
M  V30 30997 H 2907.95 -1.43662 -0.0986342 0
M  V30 30998 H 2909.9 -3.29634 -2.62525 0
M  V30 30999 H 2908.62 -2.0568 -2.53699 0
M  V30 31000 H 2907.28 -3.5287 -0.993902 0
M  V30 31001 H 2906.93 -3.64402 -3.46728 0
M  V30 31002 H 2906.63 -5.22131 -2.69542 0
M  V30 31003 H 2908.15 -4.94262 -3.58522 0
M  V30 31004 H 2909.57 -5.55964 -1.39919 0
M  V30 31005 H 2907.97 -5.95817 -0.71571 0
M  V30 31006 H 2909.04 -4.84645 0.157324 0
M  V30 31007 N 2910.38 0.0968524 -1.57302 0
M  V30 31008 C 2911.63 0.799085 -1.85631 0
M  V30 31009 C 2911.95 1.79355 -0.765294 0
M  V30 31010 O 2911.22 1.94786 0.208623 0
M  V30 31011 H 2909.8 0.298099 -0.684942 0
M  V30 31012 H 2912.46 0.0788999 -1.9474 0
M  V30 31013 H 2911.56 1.33075 -2.82307 0
M  V30 31014 N 2911.86 1.53252 0.36763 0
M  V30 31015 C 2913.27 1.42979 0.709166 0
M  V30 31016 C 2913.47 0.567227 1.93351 0
M  V30 31017 O 2912.53 0.0488793 2.52453 0
M  V30 31018 C 2913.84 2.86142 0.924287 0
M  V30 31019 C 2915.39 2.95761 1.02443 0
M  V30 31020 C 2915.86 4.39981 1.27203 0
M  V30 31021 N 2917.36 4.43401 1.33978 0
M  V30 31022 C 2918.09 5.52097 1.54842 0
M  V30 31023 N 2917.59 6.70843 1.73037 0
M  V30 31024 N 2919.38 5.39672 1.57195 0
M  V30 31025 H 2911.53 2.07841 -0.437705 0
M  V30 31026 H 2913.79 0.938517 -0.133754 0
M  V30 31027 H 2913.5 3.51568 0.0964837 0
M  V30 31028 H 2913.37 3.2967 1.83296 0
M  V30 31029 H 2915.76 2.3049 1.84277 0
M  V30 31030 H 2915.84 2.5563 0.0931852 0
M  V30 31031 H 2915.49 5.05824 0.458704 0
M  V30 31032 H 2915.42 4.77683 2.21646 0
M  V30 31033 H 2917.91 3.57822 1.21539 0
M  V30 31034 H 2918.22 7.49452 1.88525 0
M  V30 31035 H 2916.56 6.73833 1.70219 0
M  V30 31036 H 2919.76 4.45868 1.42547 0
M  V30 31037 H 2919.93 6.24448 1.73115 0
M  V30 31038 N 2913.34 -0.627313 1.44577 0
M  V30 31039 C 2914.25 -1.76773 1.54235 0
M  V30 31040 C 2915.26 -1.68659 0.427811 0
M  V30 31041 O 2916.44 -1.89368 0.685705 0
M  V30 31042 C 2913.5 -3.13171 1.48744 0
M  V30 31043 C 2912.56 -3.32888 2.71079 0
M  V30 31044 C 2911.8 -4.62779 2.6584 0
M  V30 31045 O 2912.02 -5.43831 1.72057 0
M  V30 31046 O 2910.95 -4.84781 3.5675 0
M  V30 31047 H 2914.78 -1.71577 2.50589 0
M  V30 31048 H 2912.36 -0.789006 1.26866 0
M  V30 31049 H 2914.25 -3.94474 1.48218 0
M  V30 31050 H 2912.92 -3.18901 0.555348 0
M  V30 31051 H 2911.83 -2.5125 2.77172 0
M  V30 31052 H 2913.16 -3.32023 3.63348 0
M  V30 31053 N 2914.81 -1.31539 -0.868063 0
M  V30 31054 C 2916.06 -1.21513 -1.62365 0
M  V30 31055 C 2916.39 0.225786 -1.92883 0
M  V30 31056 O 2915.67 1.15925 -1.56178 0
M  V30 31057 C 2915.95 -2.06134 -2.95264 0
M  V30 31058 C 2915.8 -3.58534 -2.71612 0
M  V30 31059 C 2917.12 -1.91219 -3.96388 0
M  V30 31060 H 2914.24 -0.442772 -0.58917 0
M  V30 31061 H 2916.88 -1.61348 -1.00333 0
M  V30 31062 H 2915.03 -1.7229 -3.48207 0
M  V30 31063 H 2916.71 -4.02524 -2.25327 0
M  V30 31064 H 2914.95 -3.8187 -2.05811 0
M  V30 31065 H 2915.62 -4.13053 -3.66185 0
M  V30 31066 H 2918.1 -2.2084 -3.5266 0
M  V30 31067 H 2916.97 -2.52726 -4.87258 0
M  V30 31068 H 2917.23 -0.876029 -4.33334 0
M  V30 31069 N 2916.29 1.08262 -1.1453 0
M  V30 31070 C 2917.52 1.84149 -0.936636 0
M  V30 31071 C 2917.93 1.81963 0.518266 0
M  V30 31072 O 2917.27 1.22274 1.37094 0
M  V30 31073 C 2917.33 3.32706 -1.36188 0
M  V30 31074 C 2917 3.58624 -2.83263 0
M  V30 31075 C 2918 3.53343 -3.81372 0
M  V30 31076 C 2915.68 3.86587 -3.20711 0
M  V30 31077 C 2917.67 3.75659 -5.14936 0
M  V30 31078 C 2915.36 4.08556 -4.54451 0
M  V30 31079 C 2916.36 4.03085 -5.51372 0
M  V30 31080 O 2916.05 4.24476 -6.82697 0
M  V30 31081 H 2915.78 0.588142 -0.333264 0
M  V30 31082 H 2918.33 1.37627 -1.52473 0
M  V30 31083 H 2916.56 3.79992 -0.71713 0
M  V30 31084 H 2918.25 3.90033 -1.12379 0
M  V30 31085 H 2919.02 3.31753 -3.53787 0
M  V30 31086 H 2914.9 3.89964 -2.45864 0
M  V30 31087 H 2918.44 3.71305 -5.90575 0
M  V30 31088 H 2914.34 4.29631 -4.81755 0
M  V30 31089 H 2915.11 4.41873 -6.88978 0
M  V30 31090 N 2917.77 0.940655 1.26449 0
M  V30 31091 C 2919 0.604677 1.97867 0
M  V30 31092 C 2919.41 -0.820221 1.70052 0
M  V30 31093 O 2918.77 -1.54684 0.968457 0
M  V30 31094 C 2918.82 0.836751 3.51683 0
M  V30 31095 O 2918.54 2.20561 3.7853 0
M  V30 31096 C 2920.04 0.511247 4.40342 0
M  V30 31097 H 2917.26 0.22793 0.631101 0
M  V30 31098 H 2919.81 1.26122 1.60977 0
M  V30 31099 H 2917.96 0.226827 3.86735 0
M  V30 31100 H 2918.38 2.26525 4.73061 0
M  V30 31101 H 2919.85 0.724253 5.47228 0
M  V30 31102 H 2920.33 -0.553739 4.35695 0
M  V30 31103 H 2920.93 1.09988 4.10832 0
M  V30 31104 N 2919.25 -1.40821 0.707617 0
M  V30 31105 C 2920.47 -2.05867 0.251662 0
M  V30 31106 C 2920.9 -1.52942 -1.09501 0
M  V30 31107 O 2920.26 -0.661415 -1.68805 0
M  V30 31108 C 2920.3 -3.59847 0.232933 0
M  V30 31109 O 2919.41 -4.04794 -0.788405 0
M  V30 31110 H 2918.75 -0.653076 0.119947 0
M  V30 31111 H 2921.28 -1.80367 0.965862 0
M  V30 31112 H 2921.29 -4.07944 0.0678921 0
M  V30 31113 H 2919.96 -3.97735 1.21572 0
M  V30 31114 H 2918.54 -3.68175 -0.591738 0
M  V30 31115 N 2920.73 -0.453223 -1.50943 0
M  V30 31116 C 2921.67 0.364379 -2.29728 0
M  V30 31117 C 2922.67 1.00662 -1.36248 0
M  V30 31118 O 2923.87 0.939767 -1.5352 0
M  V30 31119 H 2920.25 0.136334 -0.739538 0
M  V30 31120 H 2922.22 -0.320748 -2.96671 0
M  V30 31121 C 2920.97 1.44409 -3.16293 0
M  V30 31122 H 2920.29 0.959275 -3.88121 0
M  V30 31123 H 2921.73 1.9891 -3.74447 0
M  V30 31124 C 2920.19 2.43618 -2.32706 0
M  V30 31125 O 2920.72 3.48504 -1.99769 0
M  V30 31126 N 2918.93 2.14894 -1.95625 0
M  V30 31127 H 2918.47 1.29625 -2.2261 0
M  V30 31128 H 2918.43 2.8151 -1.39998 0
M  V30 31129 N 2922.2 1.56509 -0.185151 0
M  V30 31130 C 2923.15 2.19955 0.756466 0
M  V30 31131 C 2924.15 1.16771 1.22723 0
M  V30 31132 O 2925.35 1.34939 1.19128 0
M  V30 31133 H 2921.73 0.704784 0.262267 0
M  V30 31134 H 2923.7 2.97745 0.197535 0
M  V30 31135 C 2922.45 2.86527 1.9697 0
M  V30 31136 H 2921.77 3.65662 1.61651 0
M  V30 31137 H 2923.21 3.34372 2.60713 0
M  V30 31138 C 2921.67 1.87032 2.80215 0
M  V30 31139 O 2922.2 1.36439 3.77819 0
M  V30 31140 N 2920.4 1.55481 2.45507 0
M  V30 31141 H 2919.95 1.96816 1.66196 0
M  V30 31142 H 2919.91 0.89165 3.01491 0
M  V30 31143 N 2923.68 -0.0885089 1.57351 0
M  V30 31144 C 2924.61 -1.13326 1.99223 0
M  V30 31145 C 2925.63 -1.35943 0.895729 0
M  V30 31146 O 2926.82 -1.34479 1.17379 0
M  V30 31147 C 2923.92 -2.48752 2.30165 0
M  V30 31148 C 2923.09 -2.46321 3.61448 0
M  V30 31149 C 2922.15 -3.63725 3.8025 0
M  V30 31150 O 2921.17 -3.45916 4.5203 0
M  V30 31151 N 2922.38 -4.83454 3.21329 0
M  V30 31152 H 2925.14 -0.776811 2.89458 0
M  V30 31153 H 2922.7 -0.2774 1.59506 0
M  V30 31154 H 2924.69 -3.25907 2.39931 0
M  V30 31155 H 2923.26 -2.76461 1.45904 0
M  V30 31156 H 2922.48 -1.54666 3.62591 0
M  V30 31157 H 2923.77 -2.41781 4.47682 0
M  V30 31158 H 2923.17 -5.00828 2.63036 0
M  V30 31159 H 2921.73 -5.58179 3.3657 0
M  V30 31160 N 2925.16 -1.53445 -0.359498 0
M  V30 31161 C 2926.09 -1.83293 -1.44658 0
M  V30 31162 C 2927.07 -0.686857 -1.55616 0
M  V30 31163 O 2928.26 -0.93728 -1.70084 0
M  V30 31164 C 2925.39 -2.02827 -2.81919 0
M  V30 31165 C 2924.34 -3.18611 -2.85782 0
M  V30 31166 C 2923.67 -3.2345 -4.25775 0
M  V30 31167 C 2924.97 -4.5707 -2.52754 0
M  V30 31168 H 2926.66 -2.74331 -1.19929 0
M  V30 31169 H 2924.21 -1.32 -0.575494 0
M  V30 31170 H 2926.16 -2.22291 -3.58001 0
M  V30 31171 H 2924.88 -1.08505 -3.08049 0
M  V30 31172 H 2923.54 -2.98977 -2.12151 0
M  V30 31173 H 2923.19 -2.26753 -4.4899 0
M  V30 31174 H 2922.89 -4.01245 -4.29274 0
M  V30 31175 H 2924.41 -3.45105 -5.03721 0
M  V30 31176 H 2925.83 -4.76654 -3.18549 0
M  V30 31177 H 2924.22 -5.37151 -2.6756 0
M  V30 31178 H 2925.29 -4.61767 -1.47985 0
M  V30 31179 N 2926.64 0.619637 -1.44908 0
M  V30 31180 C 2927.89 1.37623 -1.48001 0
M  V30 31181 C 2928.21 1.94641 -0.118329 0
M  V30 31182 O 2927.48 1.76459 0.850829 0
M  V30 31183 H 2926.06 0.510864 -0.545002 0
M  V30 31184 H 2928.72 0.728491 -1.80773 0
M  V30 31185 H 2927.81 2.20175 -2.212 0
M  V30 31186 N 2928.12 1.31997 0.861075 0
M  V30 31187 C 2929.36 1.2195 1.6116 0
M  V30 31188 C 2929.69 -0.220317 1.93751 0
M  V30 31189 O 2928.96 -1.14338 1.59071 0
M  V30 31190 H 2927.54 0.448364 0.597477 0
M  V30 31191 H 2930.2 1.65438 1.03036 0
M  V30 31192 H 2929.29 1.79756 2.55135 0
M  V30 31193 N 2929.59 -1.07653 1.15103 0
M  V30 31194 C 2930.84 -1.80457 0.925375 0
M  V30 31195 C 2931.17 -1.86357 -0.546322 0
M  V30 31196 O 2930.45 -1.34506 -1.40494 0
M  V30 31197 C 2930.73 -3.25673 1.53652 0
M  V30 31198 C 2930.58 -3.27936 3.0786 0
M  V30 31199 C 2931.9 -4.22859 1.21976 0
M  V30 31200 H 2929.02 -0.655128 0.337603 0
M  V30 31201 H 2931.66 -1.25991 1.42219 0
M  V30 31202 H 2929.81 -3.72185 1.11402 0
M  V30 31203 H 2931.49 -2.89691 3.58994 0
M  V30 31204 H 2929.73 -2.66985 3.41909 0
M  V30 31205 H 2930.4 -4.30318 3.45732 0
M  V30 31206 H 2932.88 -3.84723 1.58516 0
M  V30 31207 H 2931.75 -5.22764 1.67359 0
M  V30 31208 H 2932.01 -4.4189 0.136285 0
M  V30 31209 N 2931.07 -0.947348 -1.25949 0
M  V30 31210 C 2932 -0.4191 -2.25336 0
M  V30 31211 C 2933.02 0.461023 -1.56136 0
M  V30 31212 O 2934.21 0.270474 -1.76439 0
M  V30 31213 C 2931.31 0.416174 -3.36335 0
M  V30 31214 C 2930.48 -0.449238 -4.35087 0
M  V30 31215 C 2929.54 0.326624 -5.25185 0
M  V30 31216 O 2928.56 -0.272474 -5.68547 0
M  V30 31217 N 2929.77 1.6216 -5.57391 0
M  V30 31218 H 2932.53 -1.27352 -2.71296 0
M  V30 31219 H 2930.09 -0.816905 -1.39779 0
M  V30 31220 H 2932.08 0.942757 -3.93566 0
M  V30 31221 H 2930.65 1.17142 -2.89821 0
M  V30 31222 H 2929.87 -1.15698 -3.76839 0
M  V30 31223 H 2931.16 -1.04017 -4.98054 0
M  V30 31224 H 2930.56 2.13037 -5.24053 0
M  V30 31225 H 2929.12 2.0943 -6.17238 0
M  V30 31226 N 2932.55 1.40444 -0.715075 0
M  V30 31227 C 2933.8 2.00128 -0.251357 0
M  V30 31228 C 2934.11 1.57349 1.16192 0
M  V30 31229 O 2935.32 2.09729 1.72412 0
M  V30 31230 C 2933.77 3.57687 -0.39847 0
M  V30 31231 C 2933.38 4.09439 -1.81835 0
M  V30 31232 C 2935.13 4.245 0.00448163 0
M  V30 31233 C 2933.03 5.595 -1.91608 0
M  V30 31234 H 2931.96 0.748583 -0.0902213 0
M  V30 31235 H 2934.61 1.60688 -0.886091 0
M  V30 31236 H 2933 3.94825 0.304839 0
M  V30 31237 H 2934.17 3.83679 -2.552 0
M  V30 31238 H 2932.49 3.55221 -2.17272 0
M  V30 31239 H 2935.08 5.34679 -0.0478243 0
M  V30 31240 H 2935.43 4.02937 1.04629 0
M  V30 31241 H 2935.96 3.92466 -0.649253 0
M  V30 31242 H 2932.7 5.85916 -2.93908 0
M  V30 31243 H 2932.22 5.87125 -1.22654 0
M  V30 31244 H 2933.9 6.24593 -1.68796 0
M  V30 31245 N 2934.03 0.461222 1.507 0
M  V30 31246 C 2934.96 -0.383824 2.24949 0
M  V30 31247 C 2935.94 -1.00462 1.27852 0
M  V30 31248 O 2937.12 -1.04247 1.57051 0
M  V30 31249 C 2934.25 -1.53694 3.01821 0
M  V30 31250 C 2933.3 -1.0345 4.13764 0
M  V30 31251 S 2934.13 0.0428427 5.35483 0
M  V30 31252 C 2935.29 -1.11438 6.159 0
M  V30 31253 H 2935.52 0.246478 2.96277 0
M  V30 31254 H 2933.05 0.245988 1.52428 0
M  V30 31255 H 2935.01 -2.19788 3.46704 0
M  V30 31256 H 2933.67 -2.13873 2.30038 0
M  V30 31257 H 2932.86 -1.89749 4.66917 0
M  V30 31258 H 2932.47 -0.451434 3.71265 0
M  V30 31259 H 2934.76 -2.02802 6.46435 0
M  V30 31260 H 2935.7 -0.62232 7.0536 0
M  V30 31261 H 2936.11 -1.36375 5.47779 0
M  V30 31262 N 2935.51 -1.56408 0.193449 0
M  V30 31263 C 2936.46 -2.15628 -0.740852 0
M  V30 31264 C 2937.44 -1.09658 -1.17745 0
M  V30 31265 O 2938.63 -1.35725 -1.13612 0
M  V30 31266 C 2935.76 -2.81789 -1.96086 0
M  V30 31267 C 2934.85 -3.94947 -1.54524 0
M  V30 31268 N 2935.24 -4.98768 -0.840481 0
M  V30 31269 C 2933.54 -4.06517 -1.83466 0
M  V30 31270 C 2934.24 -5.78251 -0.632469 0
M  V30 31271 N 2933.21 -5.30623 -1.18069 0
M  V30 31272 H 2937.02 -2.93261 -0.193666 0
M  V30 31273 H 2934.53 -1.62399 -0.00640356 0
M  V30 31274 H 2936.53 -3.22606 -2.64066 0
M  V30 31275 H 2935.19 -2.05643 -2.51278 0
M  V30 31276 H 2936.2 -5.15518 -0.496127 0
M  V30 31277 H 2932.87 -3.41498 -2.40178 0
M  V30 31278 H 2934.26 -6.7186 -0.0735252 0
M  V30 31279 N 2936.98 0.0801629 -1.57396 0
M  V30 31280 C 2938.21 0.79289 -1.90779 0
M  V30 31281 C 2938.62 1.72062 -0.786844 0
M  V30 31282 O 2937.97 1.82002 0.249227 0
M  V30 31283 C 2938.03 1.64697 -3.19555 0
M  V30 31284 C 2937.69 0.889488 -4.4826 0
M  V30 31285 C 2938.69 0.212511 -5.19465 0
M  V30 31286 C 2936.37 0.859142 -4.94898 0
M  V30 31287 C 2938.37 -0.484677 -6.35555 0
M  V30 31288 C 2936.05 0.158176 -6.10895 0
M  V30 31289 C 2937.05 -0.512541 -6.81074 0
M  V30 31290 O 2936.74 -1.20223 -7.94859 0
M  V30 31291 H 2936.47 0.231092 -0.635274 0
M  V30 31292 H 2939.03 0.057272 -2.0532 0
M  V30 31293 H 2937.26 2.42518 -3.01201 0
M  V30 31294 H 2938.95 2.23761 -3.38653 0
M  V30 31295 H 2939.71 0.227317 -4.84467 0
M  V30 31296 H 2935.59 1.37066 -4.40152 0
M  V30 31297 H 2939.13 -1.00876 -6.90268 0
M  V30 31298 H 2935.03 0.141268 -6.45345 0
M  V30 31299 H 2935.8 -1.11065 -8.1093 0
M  V30 31300 N 2938.46 1.53634 0.351355 0
M  V30 31301 C 2939.41 1.81762 1.45139 0
M  V30 31302 C 2940.4 0.687598 1.54817 0
M  V30 31303 O 2941.61 0.8708 1.57534 0
M  V30 31304 H 2937.99 0.575728 0.483779 0
M  V30 31305 H 2939.96 2.73808 1.18625 0
M  V30 31306 C 2938.71 2.03711 2.81775 0
M  V30 31307 H 2938.03 2.90111 2.75092 0
M  V30 31308 H 2939.47 2.27362 3.57886 0
M  V30 31309 C 2937.93 0.820329 3.2676 0
M  V30 31310 O 2938.46 0.0159309 4.01697 0
M  V30 31311 N 2936.66 0.639749 2.83471 0
M  V30 31312 H 2936.21 1.2955 2.22653 0
M  V30 31313 H 2936.17 -0.17294 3.13924 0
M  V30 31314 N 2939.94 -0.611943 1.45234 0
M  V30 31315 C 2941.19 -1.36836 1.48729 0
M  V30 31316 C 2941.51 -1.94575 0.12865 0
M  V30 31317 O 2940.78 -1.76908 -0.841459 0
M  V30 31318 H 2939.36 -0.507966 0.547704 0
M  V30 31319 H 2942.02 -0.718893 1.81157 0
M  V30 31320 H 2941.12 -2.18999 2.22364 0
M  V30 31321 N 2941.42 -1.32452 -0.854063 0
M  V30 31322 C 2942.66 -1.23228 -1.61067 0
M  V30 31323 C 2943 0.205315 -1.93112 0
M  V30 31324 O 2942.27 1.14262 -1.57399 0
M  V30 31325 C 2942.56 -2.09254 -2.93061 0
M  V30 31326 C 2942.41 -3.61395 -2.67794 0
M  V30 31327 C 2943.73 -1.95413 -3.94337 0
M  V30 31328 H 2940.85 -0.448996 -0.584441 0
M  V30 31329 H 2943.49 -1.62403 -0.98616 0
M  V30 31330 H 2941.64 -1.75974 -3.4636 0
M  V30 31331 H 2943.31 -4.04891 -2.21045 0
M  V30 31332 H 2941.55 -3.84031 -2.01749 0
M  V30 31333 H 2942.22 -4.16914 -3.61783 0
M  V30 31334 H 2944.7 -2.24568 -3.50297 0
M  V30 31335 H 2943.58 -2.5788 -4.8455 0
M  V30 31336 H 2943.84 -0.921941 -4.3238 0
M  V30 31337 N 2942.9 1.07041 -1.15672 0
M  V30 31338 C 2944.12 1.8395 -0.957978 0
M  V30 31339 C 2944.55 1.81639 0.488775 0
M  V30 31340 O 2943.91 1.21164 1.34866 0
M  V30 31341 C 2943.95 3.28797 -1.4807 0
M  V30 31342 O 2943.06 4.06722 -0.681993 0
M  V30 31343 H 2942.4 0.569473 -0.341463 0
M  V30 31344 H 2944.93 1.35012 -1.5373 0
M  V30 31345 H 2944.94 3.79627 -1.4949 0
M  V30 31346 H 2943.61 3.29794 -2.53394 0
M  V30 31347 H 2942.19 3.65531 -0.737676 0
M  V30 31348 N 2944.38 0.954014 1.25445 0
M  V30 31349 C 2945.33 0.444452 2.23626 0
M  V30 31350 C 2946.31 -0.465966 1.54005 0
M  V30 31351 O 2947.5 -0.299119 1.74454 0
M  V30 31352 C 2944.63 -0.277115 3.4218 0
M  V30 31353 C 2943.72 0.651337 4.19069 0
M  V30 31354 N 2944.11 1.78271 4.73343 0
M  V30 31355 C 2942.41 0.459416 4.43628 0
M  V30 31356 C 2943.11 2.36233 5.31572 0
M  V30 31357 N 2942.08 1.64893 5.17988 0
M  V30 31358 H 2945.88 1.3079 2.63194 0
M  V30 31359 H 2943.4 0.811427 1.40676 0
M  V30 31360 H 2945.4 -0.659294 4.11654 0
M  V30 31361 H 2944.06 -1.13717 3.04136 0
M  V30 31362 H 2945.07 2.16458 4.70496 0
M  V30 31363 H 2941.74 -0.357812 4.15964 0
M  V30 31364 H 2943.13 3.3163 5.84355 0
M  V30 31365 N 2945.85 -1.40063 0.722513 0
M  V30 31366 C 2947.1 -1.99992 0.261967 0
M  V30 31367 C 2947.42 -1.57963 -1.15356 0
M  V30 31368 O 2948.62 -2.1064 -1.71298 0
M  V30 31369 C 2947.08 -3.57471 0.417433 0
M  V30 31370 C 2946.69 -4.08468 1.84004 0
M  V30 31371 C 2948.43 -4.24496 0.0180307 0
M  V30 31372 C 2946.34 -5.58476 1.94572 0
M  V30 31373 H 2945.27 -0.748094 0.0941899 0
M  V30 31374 H 2947.92 -1.60216 0.8946 0
M  V30 31375 H 2946.3 -3.94981 -0.283896 0
M  V30 31376 H 2947.47 -3.8232 2.57231 0
M  V30 31377 H 2945.79 -3.54064 2.19153 0
M  V30 31378 H 2948.39 -5.34646 0.0761789 0
M  V30 31379 H 2948.73 -4.03486 -1.02491 0
M  V30 31380 H 2949.26 -3.92116 0.670057 0
M  V30 31381 H 2946 -5.8435 2.97012 0
M  V30 31382 H 2945.52 -5.86467 1.25766 0
M  V30 31383 H 2947.2 -6.23689 1.72106 0
M  V30 31384 N 2947.33 -0.469207 -1.50453 0
M  V30 31385 C 2948.56 0.0841771 -2.06729 0
M  V30 31386 C 2948.97 1.33675 -1.33328 0
M  V30 31387 O 2948.33 1.78017 -0.402009 0
M  V30 31388 C 2948.38 0.37419 -3.59558 0
M  V30 31389 O 2948.1 -0.828698 -4.30191 0
M  V30 31390 C 2949.6 0.974748 -4.32451 0
M  V30 31391 H 2946.82 -0.00624279 -0.670971 0
M  V30 31392 H 2949.37 -0.657449 -1.93644 0
M  V30 31393 H 2947.52 1.06575 -3.72452 0
M  V30 31394 H 2947.94 -0.572158 -5.2137 0
M  V30 31395 H 2949.41 1.12745 -5.40363 0
M  V30 31396 H 2949.89 1.96435 -3.92823 0
M  V30 31397 H 2950.49 0.321628 -4.24082 0
M  V30 31398 N 2948.81 1.56303 -0.201741 0
M  V30 31399 C 2950.06 1.9806 0.435917 0
M  V30 31400 C 2950.39 1.08876 1.60809 0
M  V30 31401 O 2949.66 0.142163 1.9398 0
M  V30 31402 C 2949.95 3.48937 0.889645 0
M  V30 31403 C 2949.8 4.48897 -0.284803 0
M  V30 31404 C 2951.12 4.03688 1.75283 0
M  V30 31405 H 2948.24 0.720088 0.156978 0
M  V30 31406 H 2950.88 1.87712 -0.293998 0
M  V30 31407 H 2949.03 3.57887 1.5116 0
M  V30 31408 H 2950.7 4.5198 -0.92261 0
M  V30 31409 H 2948.94 4.23593 -0.935501 0
M  V30 31410 H 2949.62 5.51949 0.0752895 0
M  V30 31411 H 2952.09 3.9756 1.22823 0
M  V30 31412 H 2950.97 5.09614 2.03924 0
M  V30 31413 H 2951.23 3.49353 2.70933 0
M  V30 31414 N 2950.29 -0.0718147 1.57436 0
M  V30 31415 C 2951.7 -0.623647 1.75976 0
M  V30 31416 C 2952.05 -1.7791 0.827186 0
M  V30 31417 O 2951.17 -2.16397 0.0112805 0
M  V30 31418 C 2951.77 -1.1381 3.19112 0
M  V30 31419 C 2950.33 -1.6358 3.38996 0
M  V30 31420 C 2949.48 -0.555213 2.71685 0
M  V30 31421 H 2952.43 0.154356 1.57948 0
M  V30 31422 H 2952.45 -2.00691 3.2327 0
M  V30 31423 H 2951.96 -0.29693 3.86962 0
M  V30 31424 H 2950.06 -2.50022 2.7626 0
M  V30 31425 H 2950.17 -1.71276 4.47439 0
M  V30 31426 H 2948.54 -1.00025 2.34237 0
M  V30 31427 H 2949.32 0.275772 3.42191 0
M  V30 31428 N 2951.77 -1.53818 -0.343203 0
M  V30 31429 C 2953.04 -1.61708 -1.10045 0
M  V30 31430 C 2953.42 -0.43855 -2.06494 0
M  V30 31431 O 2952.77 0.569149 -2.21298 0
M  V30 31432 C 2952.98 -2.97799 -1.81979 0
M  V30 31433 C 2954.33 -3.53165 -2.35711 0
M  V30 31434 O 2955.35 -2.99976 -1.92075 0
M  V30 31435 O 2954.21 -4.462 -3.15543 0
M  V30 31436 H 2951.31 -0.65407 -0.506085 0
M  V30 31437 H 2953.85 -1.66163 -0.344668 0
M  V30 31438 H 2952.62 -3.75014 -1.11716 0
M  V30 31439 H 2952.25 -2.96936 -2.64414 0
M  V30 31440 N 2953.24 0.604233 -1.45557 0
M  V30 31441 C 2954.52 1.3637 -1.40223 0
M  V30 31442 C 2954.9 2.10968 -0.0745566 0
M  V30 31443 O 2954.25 2.08109 0.943557 0
M  V30 31444 C 2954.46 2.30773 -2.61811 0
M  V30 31445 C 2955.81 2.93276 -3.07042 0
M  V30 31446 O 2956.83 2.41093 -2.62207 0
M  V30 31447 O 2955.69 3.88004 -3.84857 0
M  V30 31448 H 2952.78 0.611646 -0.556613 0
M  V30 31449 H 2955.33 0.627041 -1.5769 0
M  V30 31450 H 2954.1 1.74933 -3.5002 0
M  V30 31451 H 2953.72 3.11814 -2.46694 0
M  V30 31452 N 2954.72 1.32903 0.847027 0
M  V30 31453 C 2955.97 1.23897 1.60174 0
M  V30 31454 C 2956.3 -0.197307 1.93497 0
M  V30 31455 O 2955.55 -1.15235 1.58175 0
M  V30 31456 C 2955.85 2.05147 2.92659 0
M  V30 31457 C 2955.52 3.54427 2.78734 0
M  V30 31458 C 2954.18 3.95126 2.74643 0
M  V30 31459 C 2956.53 4.49322 2.6412 0
M  V30 31460 C 2953.86 5.2895 2.53828 0
M  V30 31461 C 2956.21 5.83298 2.44839 0
M  V30 31462 C 2954.87 6.2319 2.39145 0
M  V30 31463 H 2954.14 0.453372 0.586119 0
M  V30 31464 H 2956.79 1.64407 0.981965 0
M  V30 31465 H 2955.1 1.57389 3.58798 0
M  V30 31466 H 2956.79 1.95543 3.50091 0
M  V30 31467 H 2953.38 3.22107 2.82746 0
M  V30 31468 H 2957.57 4.18793 2.6632 0
M  V30 31469 H 2952.82 5.58905 2.47861 0
M  V30 31470 H 2957 6.56438 2.32513 0
M  V30 31471 H 2954.62 7.26825 2.22776 0
M  V30 31472 N 2956.2 -1.06426 1.16238 0
M  V30 31473 C 2957.11 -2.17388 0.882014 0
M  V30 31474 C 2958.13 -1.73393 -0.145228 0
M  V30 31475 O 2959.3 -2.01376 0.0310912 0
M  V30 31476 C 2956.37 -3.44549 0.385557 0
M  V30 31477 C 2955.43 -4.03061 1.47786 0
M  V30 31478 C 2954.66 -5.24152 1.005 0
M  V30 31479 O 2954.88 -5.70214 -0.145789 0
M  V30 31480 O 2953.82 -5.74582 1.79275 0
M  V30 31481 H 2957.64 -2.43879 1.80988 0
M  V30 31482 H 2955.23 -1.1594 0.942246 0
M  V30 31483 H 2957.11 -4.21241 0.11561 0
M  V30 31484 H 2955.79 -3.19588 -0.514313 0
M  V30 31485 H 2954.69 -3.27865 1.80153 0
M  V30 31486 H 2956.03 -4.32314 2.35298 0
M  V30 31487 N 2957.68 -0.960653 -1.24937 0
M  V30 31488 C 2958.93 -0.617475 -1.92436 0
M  V30 31489 C 2959.25 0.84907 -1.75544 0
M  V30 31490 O 2958.52 1.60536 -1.12271 0
M  V30 31491 H 2957.1 -0.225384 -0.712188 0
M  V30 31492 H 2959.76 -1.2202 -1.51978 0
M  V30 31493 H 2958.86 -0.851986 -3.00246 0
M  V30 31494 N 2959.16 1.39677 -0.729931 0
M  V30 31495 C 2960.4 2.00912 -0.276065 0
M  V30 31496 C 2960.74 1.57778 1.13224 0
M  V30 31497 O 2960.01 0.80435 1.77089 0
M  V30 31498 C 2960.29 3.58171 -0.37222 0
M  V30 31499 C 2960.15 4.11338 -1.81993 0
M  V30 31500 C 2961.47 4.39399 0.248301 0
M  V30 31501 H 2958.58 0.729937 -0.101786 0
M  V30 31502 H 2961.23 1.65956 -0.925133 0
M  V30 31503 H 2959.38 3.88081 0.18039 0
M  V30 31504 H 2961.05 3.92168 -2.42903 0
M  V30 31505 H 2959.29 3.65088 -2.34294 0
M  V30 31506 H 2959.96 5.20483 -1.83851 0
M  V30 31507 H 2962.44 4.15504 -0.222718 0
M  V30 31508 H 2961.31 5.48693 0.15065 0
M  V30 31509 H 2961.58 4.21503 1.33371 0
M  V30 31510 N 2960.63 0.47718 1.50202 0
M  V30 31511 C 2961.86 -0.0731064 2.06471 0
M  V30 31512 C 2962.27 -1.33516 1.34053 0
M  V30 31513 O 2961.62 -1.79175 0.405195 0
M  V30 31514 C 2961.68 -0.421059 3.57026 0
M  V30 31515 C 2961.34 0.739844 4.50972 0
M  V30 31516 C 2962.34 1.62362 4.93897 0
M  V30 31517 C 2960.02 0.931897 4.9358 0
M  V30 31518 C 2962.02 2.6838 5.78144 0
M  V30 31519 C 2959.7 1.99529 5.77608 0
M  V30 31520 C 2960.7 2.8696 6.19793 0
M  V30 31521 O 2960.39 3.91468 7.02145 0
M  V30 31522 H 2960.12 0.00649431 0.675969 0
M  V30 31523 H 2962.68 0.666764 1.94277 0
M  V30 31524 H 2960.91 -1.2142 3.67143 0
M  V30 31525 H 2962.6 -0.907143 3.95633 0
M  V30 31526 H 2963.36 1.48696 4.61643 0
M  V30 31527 H 2959.24 0.260819 4.60262 0
M  V30 31528 H 2962.78 3.36653 6.10991 0
M  V30 31529 H 2958.68 2.132 6.09275 0
M  V30 31530 H 2959.45 3.8853 7.20407 0
M  V30 31531 N 2962.11 -1.56194 0.210027 0
M  V30 31532 C 2963.34 -2.02383 -0.429961 0
M  V30 31533 C 2963.76 -1.09001 -1.54157 0
M  V30 31534 O 2963.11 -0.0975176 -1.82239 0
M  V30 31535 C 2963.16 -3.48177 -0.972372 0
M  V30 31536 O 2962.88 -4.37997 0.0949001 0
M  V30 31537 C 2964.39 -4.09955 -1.68676 0
M  V30 31538 H 2961.61 -0.6625 -0.106463 0
M  V30 31539 H 2964.15 -2.01931 0.323107 0
M  V30 31540 H 2962.3 -3.49281 -1.67576 0
M  V30 31541 H 2962.72 -5.23577 -0.311038 0
M  V30 31542 H 2964.19 -5.13774 -2.01842 0
M  V30 31543 H 2964.67 -3.5428 -2.59581 0
M  V30 31544 H 2965.28 -4.12668 -1.02885 0
M  V30 31545 N 2963.59 0.0634645 -1.57472 0
M  V30 31546 C 2964.84 0.759895 -1.86838 0
M  V30 31547 C 2965.15 1.78319 -0.803854 0
M  V30 31548 O 2966.36 2.52978 -0.985622 0
M  V30 31549 C 2964.81 1.40245 -3.31451 0
M  V30 31550 C 2964.42 0.41729 -4.46052 0
M  V30 31551 C 2966.17 2.08075 -3.70007 0
M  V30 31552 C 2964.07 1.06623 -5.81709 0
M  V30 31553 H 2963 0.287555 -0.697014 0
M  V30 31554 H 2965.65 0.0133591 -1.83495 0
M  V30 31555 H 2964.04 2.19753 -3.29431 0
M  V30 31556 H 2965.21 -0.348583 -4.5948 0
M  V30 31557 H 2963.53 -0.157028 -4.16104 0
M  V30 31558 H 2966.12 2.57418 -4.68658 0
M  V30 31559 H 2966.47 2.88387 -3.00231 0
M  V30 31560 H 2967 1.35388 -3.74052 0
M  V30 31561 H 2963.74 0.303259 -6.54798 0
M  V30 31562 H 2963.26 1.80276 -5.72067 0
M  V30 31563 H 2964.94 1.58365 -6.27319 0
M  V30 31564 N 2965.07 1.53998 0.33504 0
M  V30 31565 C 2966 1.85571 1.41724 0
M  V30 31566 C 2966.98 0.711528 1.54503 0
M  V30 31567 O 2968.16 0.964221 1.68572 0
M  V30 31568 C 2965.29 2.07287 2.78657 0
M  V30 31569 C 2964.25 3.23117 2.80677 0
M  V30 31570 C 2963.57 3.30182 4.20575 0
M  V30 31571 C 2964.87 4.61033 2.4545 0
M  V30 31572 H 2966.57 2.76204 1.1555 0
M  V30 31573 H 2964.11 1.32899 0.554421 0
M  V30 31574 H 2966.07 2.27959 3.54419 0
M  V30 31575 H 2964.79 1.13392 3.06284 0
M  V30 31576 H 2963.45 3.02314 2.07368 0
M  V30 31577 H 2963.1 2.33867 4.45326 0
M  V30 31578 H 2962.8 4.08024 4.22836 0
M  V30 31579 H 2964.32 3.53075 4.98167 0
M  V30 31580 H 2965.74 4.81662 3.10925 0
M  V30 31581 H 2964.13 5.4134 2.58981 0
M  V30 31582 H 2965.2 4.64063 1.4062 0
M  V30 31583 N 2966.55 -0.596505 1.45875 0
M  V30 31584 C 2967.46 -1.73461 1.5795 0
M  V30 31585 C 2968.47 -1.67713 0.46349 0
M  V30 31586 O 2969.65 -1.8787 0.725718 0
M  V30 31587 C 2966.71 -3.09946 1.55353 0
M  V30 31588 C 2965.77 -3.27063 2.7808 0
M  V30 31589 C 2965.01 -4.57036 2.75597 0
M  V30 31590 O 2965.23 -5.40059 1.83554 0
M  V30 31591 O 2964.16 -4.77105 3.66953 0
M  V30 31592 H 2967.99 -1.66223 2.54172 0
M  V30 31593 H 2965.58 -0.761918 1.28511 0
M  V30 31594 H 2967.46 -3.91241 1.56552 0
M  V30 31595 H 2966.13 -3.17651 0.622867 0
M  V30 31596 H 2965.04 -2.45314 2.82439 0
M  V30 31597 H 2966.37 -3.24241 3.70309 0
M  V30 31598 N 2968.02 -1.3335 -0.839967 0
M  V30 31599 C 2969.27 -1.25939 -1.59721 0
M  V30 31600 C 2969.63 0.17353 -1.91616 0
M  V30 31601 O 2968.92 1.11531 -1.55793 0
M  V30 31602 C 2969.11 -2.06697 -2.91567 0
M  V30 31603 C 2968.94 -3.57696 -2.7255 0
M  V30 31604 C 2967.71 -4.27011 -2.70166 0
M  V30 31605 C 2969.91 -4.52051 -2.45264 0
M  V30 31606 N 2967.89 -5.63968 -2.42515 0
M  V30 31607 C 2969.26 -5.76889 -2.27153 0
M  V30 31608 C 2971.32 -4.41148 -2.30852 0
M  V30 31609 C 2970.02 -6.92055 -1.96093 0
M  V30 31610 C 2972.05 -5.56129 -2.01184 0
M  V30 31611 C 2971.41 -6.79975 -1.83885 0
M  V30 31612 H 2967.51 -0.516041 -0.587559 0
M  V30 31613 H 2970.09 -1.67879 -0.98614 0
M  V30 31614 H 2968.26 -1.67079 -3.50627 0
M  V30 31615 H 2969.99 -1.91064 -3.56759 0
M  V30 31616 H 2966.75 -3.79275 -2.83633 0
M  V30 31617 H 2967.17 -6.36161 -2.31577 0
M  V30 31618 H 2971.82 -3.46035 -2.42939 0
M  V30 31619 H 2969.53 -7.87166 -1.82742 0
M  V30 31620 H 2973.12 -5.49628 -1.90789 0
M  V30 31621 H 2972 -7.67441 -1.61258 0
M  V30 31622 N 2969.5 1.05808 -1.16801 0
M  V30 31623 C 2970.43 2.15363 -0.902279 0
M  V30 31624 C 2971.41 1.69408 0.153321 0
M  V30 31625 O 2972.6 1.942 0.00438619 0
M  V30 31626 C 2969.73 3.44895 -0.407972 0
M  V30 31627 C 2968.68 4.04384 -1.40204 0
M  V30 31628 C 2968.01 5.29186 -0.765941 0
M  V30 31629 C 2969.31 4.42593 -2.77324 0
M  V30 31630 H 2971 2.3785 -1.81846 0
M  V30 31631 H 2968.55 1.14309 -0.875751 0
M  V30 31632 H 2970.5 4.20879 -0.209524 0
M  V30 31633 H 2969.23 3.22042 0.543723 0
M  V30 31634 H 2967.88 3.30463 -1.58712 0
M  V30 31635 H 2967.53 5.02632 0.192394 0
M  V30 31636 H 2967.23 5.69947 -1.42949 0
M  V30 31637 H 2968.76 6.07862 -0.577626 0
M  V30 31638 H 2970.17 5.09637 -2.6257 0
M  V30 31639 H 2968.57 4.94353 -3.40198 0
M  V30 31640 H 2969.64 3.53225 -3.32205 0
M  V30 31641 N 2970.98 0.967265 1.24426 0
M  V30 31642 C 2972.21 0.646103 1.97079 0
M  V30 31643 C 2972.63 -0.777635 1.71273 0
M  V30 31644 O 2971.99 -1.52774 0.976206 0
M  V30 31645 C 2972.04 0.926328 3.48499 0
M  V30 31646 O 2971.14 0.0115378 4.12398 0
M  V30 31647 H 2970.48 0.244315 0.617419 0
M  V30 31648 H 2973.01 1.2973 1.58213 0
M  V30 31649 H 2973.02 0.857689 3.98883 0
M  V30 31650 H 2971.7 1.96393 3.6661 0
M  V30 31651 H 2970.27 0.133461 3.72661 0
M  V30 31652 N 2972.46 -1.39288 0.737328 0
M  V30 31653 C 2973.69 -2.04466 0.296178 0
M  V30 31654 C 2974.1 -1.55709 -1.07477 0
M  V30 31655 O 2973.44 -0.718153 -1.69081 0
M  V30 31656 C 2973.5 -3.58813 0.222224 0
M  V30 31657 C 2973.17 -4.30556 1.53202 0
M  V30 31658 C 2974.16 -4.57037 2.47817 0
M  V30 31659 C 2971.85 -4.69057 1.79696 0
M  V30 31660 C 2973.84 -5.21032 3.67157 0
M  V30 31661 C 2971.53 -5.3278 2.99313 0
M  V30 31662 C 2972.53 -5.58701 3.92865 0
M  V30 31663 O 2972.22 -6.21101 5.10381 0
M  V30 31664 H 2971.95 -0.663981 0.126908 0
M  V30 31665 H 2974.5 -1.79276 1.00245 0
M  V30 31666 H 2972.73 -3.82909 -0.540172 0
M  V30 31667 H 2974.42 -4.05468 -0.18724 0
M  V30 31668 H 2975.19 -4.27736 2.28619 0
M  V30 31669 H 2971.07 -4.48237 1.07723 0
M  V30 31670 H 2974.61 -5.41181 4.40192 0
M  V30 31671 H 2970.51 -5.61502 3.18411 0
M  V30 31672 H 2971.27 -6.39594 5.10746 0
M  V30 31673 N 2973.94 -0.485139 -1.49947 0
M  V30 31674 C 2974.87 0.347988 -2.25531 0
M  V30 31675 C 2975.85 0.984149 -1.29434 0
M  V30 31676 O 2977.03 1.01735 -1.58689 0
M  V30 31677 C 2974.16 1.48873 -3.04228 0
M  V30 31678 C 2973.21 0.968543 -4.15357 0
M  V30 31679 S 2974.04 -0.128028 -5.35347 0
M  V30 31680 C 2975.19 1.01626 -6.17595 0
M  V30 31681 H 2975.43 -0.293581 -2.95847 0
M  V30 31682 H 2972.96 -0.270207 -1.52017 0
M  V30 31683 H 2974.92 2.14244 -3.50157 0
M  V30 31684 H 2973.58 2.10186 -2.33411 0
M  V30 31685 H 2972.77 1.82296 -4.69877 0
M  V30 31686 H 2972.37 0.392312 -3.71937 0
M  V30 31687 H 2974.67 1.92492 -6.49579 0
M  V30 31688 H 2975.61 0.510025 -7.06261 0
M  V30 31689 H 2976.02 1.27643 -5.4988 0
M  V30 31690 N 2975.42 1.56081 -0.218307 0
M  V30 31691 C 2976.83 1.84432 0.290134 0
M  V30 31692 C 2977.18 1.13961 1.5971 0
M  V30 31693 O 2976.3 0.408187 2.12515 0
M  V30 31694 C 2976.9 3.34578 0.533191 0
M  V30 31695 C 2975.46 3.63258 0.985947 0
M  V30 31696 C 2974.6 2.7726 0.047231 0
M  V30 31697 H 2977.55 1.52433 -0.441575 0
M  V30 31698 H 2977.58 3.54608 1.37961 0
M  V30 31699 H 2977.09 3.8584 -0.418205 0
M  V30 31700 H 2975.19 3.17449 1.95081 0
M  V30 31701 H 2975.3 4.71271 0.862601 0
M  V30 31702 H 2973.67 2.48615 0.553428 0
M  V30 31703 H 2974.45 3.31319 -0.899024 0
M  V30 31704 N 2976.89 -0.0551124 1.57504 0
M  V30 31705 C 2977.84 -1.06369 2.04827 0
M  V30 31706 C 2978.81 -1.37479 0.932132 0
M  V30 31707 O 2980 -1.48263 1.20095 0
M  V30 31708 C 2977.14 -2.36739 2.51095 0
M  V30 31709 C 2976.25 -2.12014 3.76396 0
M  V30 31710 C 2975.38 -3.36066 4.11379 0
M  V30 31711 C 2974.42 -3.0678 5.29672 0
M  V30 31712 N 2973.56 -4.2321 5.60212 0
M  V30 31713 H 2978.4 -0.653165 2.90754 0
M  V30 31714 H 2975.94 -0.310926 1.43776 0
M  V30 31715 H 2977.89 -3.12877 2.75978 0
M  V30 31716 H 2976.52 -2.75562 1.68123 0
M  V30 31717 H 2975.58 -1.26492 3.58753 0
M  V30 31718 H 2976.89 -1.86393 4.62665 0
M  V30 31719 H 2976.04 -4.2059 4.37252 0
M  V30 31720 H 2974.78 -3.64778 3.2371 0
M  V30 31721 H 2973.79 -2.20656 5.03578 0
M  V30 31722 H 2975.01 -2.79374 6.18973 0
M  V30 31723 H 2972.96 -4.51922 4.75503 0
M  V30 31724 H 2972.87 -4.00921 6.40935 0
M  V30 31725 H 2974.14 -5.08682 5.90646 0
M  V30 31726 N 2978.37 -1.54173 -0.326869 0
M  V30 31727 C 2979.65 -1.62866 -1.08323 0
M  V30 31728 C 2980.03 -0.460427 -2.06018 0
M  V30 31729 O 2979.38 0.545646 -2.2189 0
M  V30 31730 C 2979.59 -2.99713 -1.78811 0
M  V30 31731 C 2980.93 -3.55645 -2.31952 0
M  V30 31732 O 2981.96 -3.01996 -1.88883 0
M  V30 31733 O 2980.82 -4.49522 -3.10793 0
M  V30 31734 H 2977.91 -0.659401 -0.499119 0
M  V30 31735 H 2980.46 -1.66519 -0.327025 0
M  V30 31736 H 2979.23 -3.76177 -1.07732 0
M  V30 31737 H 2978.85 -2.99724 -2.6125 0
M  V30 31738 N 2979.85 0.58876 -1.4619 0
M  V30 31739 C 2980.8 1.71935 -1.56656 0
M  V30 31740 C 2981.79 1.63709 -0.435383 0
M  V30 31741 O 2983 1.69276 -0.612026 0
M  V30 31742 H 2979.37 0.568356 -0.492418 0
M  V30 31743 H 2981.34 1.60238 -2.51727 0
M  V30 31744 C 2980.09 3.10323 -1.56827 0
M  V30 31745 H 2979.42 3.1732 -2.43203 0
M  V30 31746 H 2980.86 3.89208 -1.68206 0
M  V30 31747 C 2979.31 3.35598 -0.295861 0
M  V30 31748 O 2979.84 3.96942 0.616446 0
M  V30 31749 N 2978.05 2.90006 -0.18566 0
M  V30 31750 H 2977.6 2.40267 -0.928956 0
M  V30 31751 H 2977.56 3.0729 0.664829 0
M  V30 31752 N 2981.33 1.33794 0.832883 0
M  V30 31753 C 2982.28 1.21108 1.93176 0
M  V30 31754 C 2983.26 0.112519 1.60506 0
M  V30 31755 O 2984.45 0.34121 1.7368 0
M  V30 31756 C 2981.58 0.958584 3.29645 0
M  V30 31757 C 2980.67 2.09986 3.68465 0
M  V30 31758 N 2981.06 3.35031 3.7893 0
M  V30 31759 C 2979.36 2.00789 3.98246 0
M  V30 31760 C 2980.06 4.09919 4.12724 0
M  V30 31761 N 2979.03 3.38415 4.25413 0
M  V30 31762 H 2982.84 2.15881 1.9943 0
M  V30 31763 H 2980.35 1.25888 1.02596 0
M  V30 31764 H 2982.35 0.848624 4.08172 0
M  V30 31765 H 2981.01 0.019444 3.24694 0
M  V30 31766 H 2982.02 3.69706 3.62682 0
M  V30 31767 H 2978.7 1.14571 4.01472 0
M  V30 31768 H 2980.09 5.17854 4.28108 0
M  V30 31769 N 2982.81 -1.05187 1.1736 0
M  V30 31770 C 2984.03 -1.82402 0.987122 0
M  V30 31771 C 2984.46 -1.82393 -0.459816 0
M  V30 31772 O 2983.81 -1.23294 -1.32922 0
M  V30 31773 C 2983.86 -3.264 1.53282 0
M  V30 31774 O 2982.97 -4.05585 0.746612 0
M  V30 31775 H 2982.31 -0.563968 0.35048 0
M  V30 31776 H 2984.84 -1.32549 1.55859 0
M  V30 31777 H 2984.85 -3.77201 1.55511 0
M  V30 31778 H 2983.52 -3.25721 2.58608 0
M  V30 31779 H 2982.1 -3.64311 0.795735 0
M  V30 31780 N 2984.28 -0.97385 -1.23911 0
M  V30 31781 C 2985.69 -0.677052 -1.73991 0
M  V30 31782 C 2986.05 0.807005 -1.78835 0
M  V30 31783 O 2985.17 1.63133 -1.42185 0
M  V30 31784 C 2985.77 -1.22231 -3.15983 0
M  V30 31785 C 2984.32 -0.975291 -3.63545 0
M  V30 31786 C 2983.47 -1.35396 -2.41998 0
M  V30 31787 H 2986.42 -1.14846 -1.09527 0
M  V30 31788 H 2986.44 -0.591555 -3.75873 0
M  V30 31789 H 2985.96 -2.30244 -3.12425 0
M  V30 31790 H 2984.06 0.0890392 -3.72494 0
M  V30 31791 H 2984.17 -1.62526 -4.50691 0
M  V30 31792 H 2982.53 -0.772377 -2.42706 0
M  V30 31793 H 2983.32 -2.44371 -2.41117 0
M  V30 31794 N 2985.76 1.38895 -0.744705 0
M  V30 31795 C 2987.01 2.00608 -0.297359 0
M  V30 31796 C 2987.34 1.5897 1.11544 0
M  V30 31797 O 2986.62 0.823088 1.76226 0
M  V30 31798 C 2986.9 3.57756 -0.410188 0
M  V30 31799 C 2986.75 4.09384 -1.86345 0
M  V30 31800 C 2988.07 4.39638 0.201683 0
M  V30 31801 H 2985.19 0.728817 -0.109522 0
M  V30 31802 H 2987.83 1.64965 -0.942682 0
M  V30 31803 H 2985.98 3.8825 0.139219 0
M  V30 31804 H 2987.65 3.8957 -2.47049 0
M  V30 31805 H 2985.9 3.62582 -2.38153 0
M  V30 31806 H 2986.57 5.18504 -1.89361 0
M  V30 31807 H 2989.04 4.15244 -0.266776 0
M  V30 31808 H 2987.92 5.48822 0.0924451 0
M  V30 31809 H 2988.18 4.22894 1.28892 0
M  V30 31810 N 2987.24 0.493084 1.49688 0
M  V30 31811 C 2988.65 0.043336 1.8665 0
M  V30 31812 C 2989 -1.36833 1.4061 0
M  V30 31813 O 2988.13 -2.01833 0.780538 0
M  V30 31814 C 2988.72 0.0718665 3.38724 0
M  V30 31815 C 2987.28 -0.322504 3.75016 0
M  V30 31816 C 2986.43 0.447848 2.7366 0
M  V30 31817 H 2989.38 0.706271 1.42118 0
M  V30 31818 H 2989.4 -0.725282 3.73524 0
M  V30 31819 H 2988.91 1.09941 3.72202 0
M  V30 31820 H 2987.01 -1.35358 3.47144 0
M  V30 31821 H 2987.13 -0.00855838 4.79099 0
M  V30 31822 H 2985.49 -0.101309 2.54498 0
M  V30 31823 H 2986.27 1.47532 3.09982 0
M  V30 31824 N 2988.72 -1.55963 0.226582 0
M  V30 31825 C 2989.97 -1.9761 -0.404135 0
M  V30 31826 C 2990.28 -1.11743 -1.6054 0
M  V30 31827 O 2991.49 -1.43311 -2.30595 0
M  V30 31828 C 2989.94 -3.51558 -0.770404 0
M  V30 31829 C 2989.55 -4.46135 0.408322 0
M  V30 31830 C 2991.29 -4.01906 -1.36644 0
M  V30 31831 C 2989.2 -5.91397 0.0193386 0
M  V30 31832 H 2988.13 -0.737945 -0.154767 0
M  V30 31833 H 2990.78 -1.80624 0.323589 0
M  V30 31834 H 2989.16 -3.64162 -1.55569 0
M  V30 31835 H 2990.34 -4.45281 1.18583 0
M  V30 31836 H 2988.65 -4.06156 0.91793 0
M  V30 31837 H 2991.25 -5.07937 -1.67046 0
M  V30 31838 H 2991.59 -3.48053 -2.28397 0
M  V30 31839 H 2992.13 -3.92545 -0.644487 0
M  V30 31840 H 2988.87 -6.49244 0.903474 0
M  V30 31841 H 2988.39 -5.95434 -0.722381 0
M  V30 31842 H 2990.06 -6.45727 -0.405597 0
M  V30 31843 N 2990.2 0.0467589 -1.57531 0
M  V30 31844 C 2991.45 0.740036 -1.87634 0
M  V30 31845 C 2991.76 1.77456 -0.822722 0
M  V30 31846 O 2992.96 2.51918 -1.0124 0
M  V30 31847 C 2991.42 1.36721 -3.32919 0
M  V30 31848 C 2991.03 0.369956 -4.4647 0
M  V30 31849 C 2992.77 2.04139 -3.72193 0
M  V30 31850 C 2990.68 1.00447 -5.82807 0
M  V30 31851 H 2989.61 0.280146 -0.700025 0
M  V30 31852 H 2992.26 -0.00610376 -1.83499 0
M  V30 31853 H 2990.64 2.16246 -3.31743 0
M  V30 31854 H 2991.82 -0.397298 -4.59084 0
M  V30 31855 H 2990.13 -0.201152 -4.15914 0
M  V30 31856 H 2992.73 2.52433 -4.71362 0
M  V30 31857 H 2993.07 2.85187 -3.03273 0
M  V30 31858 H 2993.6 1.31413 -3.75467 0
M  V30 31859 H 2990.34 0.233791 -6.55083 0
M  V30 31860 H 2989.86 1.74198 -5.73947 0
M  V30 31861 H 2991.54 1.51702 -6.28964 0
M  V30 31862 N 2991.67 1.54344 0.318688 0
M  V30 31863 C 2992.9 1.76752 1.07547 0
M  V30 31864 C 2993.32 0.518454 1.81542 0
M  V30 31865 O 2992.67 -0.511047 1.75199 0
M  V30 31866 C 2992.73 2.96382 2.06978 0
M  V30 31867 O 2992.45 4.1646 1.35988 0
M  V30 31868 C 2993.95 3.31039 2.94835 0
M  V30 31869 H 2991.17 0.589943 0.319701 0
M  V30 31870 H 2993.71 2.01246 0.363333 0
M  V30 31871 H 2991.87 2.74147 2.73719 0
M  V30 31872 H 2992.28 4.83785 2.02615 0
M  V30 31873 H 2993.75 4.18033 3.60489 0
M  V30 31874 H 2994.23 2.48418 3.62195 0
M  V30 31875 H 2994.84 3.5537 2.3365 0
M  V30 31876 N 2993.15 -0.580999 1.465 0
M  V30 31877 C 2994.56 -1.16312 1.46042 0
M  V30 31878 C 2994.91 -1.95155 0.202188 0
M  V30 31879 O 2994.04 -2.04949 -0.694602 0
M  V30 31880 C 2994.63 -2.11599 2.64596 0
M  V30 31881 C 2993.19 -2.65132 2.67174 0
M  V30 31882 C 2992.34 -1.41036 2.38756 0
M  V30 31883 H 2995.29 -0.368844 1.54354 0
M  V30 31884 H 2995.31 -2.95091 2.40212 0
M  V30 31885 H 2994.82 -1.54188 3.56157 0
M  V30 31886 H 2992.93 -3.26408 1.79691 0
M  V30 31887 H 2993.04 -3.0775 3.67188 0
M  V30 31888 H 2991.4 -1.70905 1.88848 0
M  V30 31889 H 2992.19 -0.854529 3.32495 0
M  V30 31890 N 2994.63 -1.34234 -0.825776 0
M  V30 31891 C 2995.86 -1.295 -1.61361 0
M  V30 31892 C 2996.27 0.131503 -1.88341 0
M  V30 31893 O 2995.63 1.07771 -1.47281 0
M  V30 31894 C 2995.68 -2.08066 -2.95619 0
M  V30 31895 O 2995.4 -3.45152 -2.69818 0
M  V30 31896 C 2996.9 -2.10695 -3.90029 0
M  V30 31897 H 2994.12 -0.445612 -0.501668 0
M  V30 31898 H 2996.67 -1.76804 -1.02764 0
M  V30 31899 H 2994.82 -1.6441 -3.50782 0
M  V30 31900 H 2995.24 -3.8573 -3.55405 0
M  V30 31901 H 2996.71 -2.70096 -4.81407 0
M  V30 31902 H 2997.19 -1.1006 -4.25186 0
M  V30 31903 H 2997.79 -2.54428 -3.40803 0
M  V30 31904 N 2996.11 1.04563 -1.17917 0
M  V30 31905 C 2997.39 1.74625 -0.881218 0
M  V30 31906 C 2997.77 2.01879 0.617088 0
M  V30 31907 O 2997.11 1.65994 1.57029 0
M  V30 31908 C 2997.32 3.035 -1.72304 0
M  V30 31909 C 2998.67 3.77332 -1.94695 0
M  V30 31910 O 2999.7 3.13386 -1.69315 0
M  V30 31911 O 2998.55 4.92249 -2.37388 0
M  V30 31912 H 2995.65 0.759658 -0.326878 0
M  V30 31913 H 2998.19 1.10674 -1.28644 0
M  V30 31914 H 2996.97 2.79458 -2.73896 0
M  V30 31915 H 2996.59 3.7519 -1.316 0
M  V30 31916 N 2997.59 0.980408 1.23393 0
M  V30 31917 C 2999 0.68627 1.7363 0
M  V30 31918 C 2999.35 -0.79751 1.7926 0
M  V30 31919 O 2998.47 -1.62376 1.43049 0
M  V30 31920 C 2999.07 1.23905 3.1533 0
M  V30 31921 C 2997.63 0.994557 3.63023 0
M  V30 31922 C 2996.77 1.36677 2.41277 0
M  V30 31923 H 2999.73 1.15425 1.08916 0
M  V30 31924 H 2999.75 0.61148 3.75554 0
M  V30 31925 H 2999.26 2.31897 3.112 0
M  V30 31926 H 2997.36 -0.0692837 3.72536 0
M  V30 31927 H 2997.47 1.64914 4.49822 0
M  V30 31928 H 2995.84 0.785237 2.42293 0
M  V30 31929 H 2996.62 2.45647 2.39818 0
M  V30 31930 N 2999.06 -1.38498 0.75206 0
M  V30 31931 C 3000.31 -1.99391 0.304329 0
M  V30 31932 C 3000.63 -1.60375 -1.11979 0
M  V30 31933 O 3001.83 -2.14226 -1.66791 0
M  V30 31934 C 3000.29 -3.56505 0.493164 0
M  V30 31935 C 2999.9 -4.04474 1.92627 0
M  V30 31936 C 3001.64 -4.24362 0.108069 0
M  V30 31937 C 2999.55 -5.54223 2.06375 0
M  V30 31938 H 2998.48 -0.745928 0.110037 0
M  V30 31939 H 3001.13 -1.58282 0.928383 0
M  V30 31940 H 2999.51 -3.95494 -0.200051 0
M  V30 31941 H 3000.68 -3.76778 2.65283 0
M  V30 31942 H 2999 -3.49335 2.26614 0
M  V30 31943 H 3001.6 -5.34364 0.189568 0
M  V30 31944 H 3001.94 -4.0557 -0.939094 0
M  V30 31945 H 3002.47 -3.90607 0.75308 0
M  V30 31946 H 2999.21 -5.77918 3.0934 0
M  V30 31947 H 2998.73 -5.83667 1.38178 0
M  V30 31948 H 3000.41 -6.19899 1.85297 0
M  V30 31949 N 3000.54 -0.501015 -1.49424 0
M  V30 31950 C 3001.82 0.106516 -1.9531 0
M  V30 31951 C 3002.2 1.54126 -1.44251 0
M  V30 31952 O 3001.55 2.18873 -0.656276 0
M  V30 31953 C 3001.76 0.0191358 -3.48995 0
M  V30 31954 C 3003.11 0.193055 -4.24161 0
M  V30 31955 O 3004.13 0.0943217 -3.56075 0
M  V30 31956 O 3002.99 0.395773 -5.45065 0
M  V30 31957 H 3000.08 0.0952924 -0.821492 0
M  V30 31958 H 3002.63 -0.563554 -1.60069 0
M  V30 31959 H 3001.4 -0.98142 -3.78793 0
M  V30 31960 H 3001.02 0.729351 -3.90853 0
M  V30 31961 N 3002.02 1.5584 -0.234849 0
M  V30 31962 C 3003.44 1.59146 0.120267 0
M  V30 31963 C 3003.64 1.25187 1.57894 0
M  V30 31964 O 3002.69 0.993434 2.32136 0
M  V30 31965 C 3004.01 2.99908 -0.218036 0
M  V30 31966 C 3005.55 3.12584 -0.161353 0
M  V30 31967 C 3006.03 4.55546 -0.473518 0
M  V30 31968 N 3007.52 4.61259 -0.423575 0
M  V30 31969 C 3008.26 5.69835 -0.638434 0
M  V30 31970 N 3007.75 6.86721 -0.915779 0
M  V30 31971 N 3009.54 5.59203 -0.569962 0
M  V30 31972 H 3001.7 1.76187 -1.18625 0
M  V30 31973 H 3003.96 0.819579 -0.47644 0
M  V30 31974 H 3003.66 3.29455 -1.23096 0
M  V30 31975 H 3003.54 3.74377 0.460641 0
M  V30 31976 H 3005.93 2.82826 0.842224 0
M  V30 31977 H 3006.01 2.40416 -0.873703 0
M  V30 31978 H 3005.65 4.86023 -1.47459 0
M  V30 31979 H 3005.58 5.25957 0.260175 0
M  V30 31980 H 3008.07 3.77274 -0.217449 0
M  V30 31981 H 3008.38 7.65392 -1.06747 0
M  V30 31982 H 3006.73 6.88433 -0.953121 0
M  V30 31983 H 3009.92 4.66764 -0.353422 0
M  V30 31984 H 3010.09 6.43751 -0.740811 0
M  V30 31985 N 3003.5 -0.038404 1.57553 0
M  V30 31986 C 3004.41 -1.05906 2.09335 0
M  V30 31987 C 3005.43 -1.40245 1.02992 0
M  V30 31988 O 3006.6 -1.49752 1.34671 0
M  V30 31989 C 3003.67 -2.34382 2.55472 0
M  V30 31990 C 3002.73 -2.0671 3.76257 0
M  V30 31991 C 3001.96 -3.2906 4.20185 0
M  V30 31992 O 3002.18 -4.39401 3.63708 0
M  V30 31993 O 3001.12 -3.15308 5.12703 0
M  V30 31994 H 3004.94 -0.649035 2.96684 0
M  V30 31995 H 3002.53 -0.254776 1.47212 0
M  V30 31996 H 3004.41 -3.0993 2.85519 0
M  V30 31997 H 3003.09 -2.74698 1.71238 0
M  V30 31998 H 3001.99 -1.2876 3.51243 0
M  V30 31999 H 3003.33 -1.71255 4.61446 0
M  V30 32000 N 3004.98 -1.54511 -0.310498 0
M  V30 32001 C 3006.23 -1.72551 -1.04447 0
M  V30 32002 C 3006.54 -0.513205 -1.88747 0
M  V30 32003 O 3007.75 -0.575212 -2.65337 0
M  V30 32004 C 3006.2 -3.05249 -1.9066 0
M  V30 32005 C 3005.81 -4.33927 -1.11407 0
M  V30 32006 C 3007.55 -3.32649 -2.63713 0
M  V30 32007 C 3005.46 -5.5768 -1.96842 0
M  V30 32008 H 3004.39 -0.643074 -0.393665 0
M  V30 32009 H 3007.04 -1.80998 -0.301972 0
M  V30 32010 H 3005.42 -2.90742 -2.68859 0
M  V30 32011 H 3006.6 -4.5924 -0.378875 0
M  V30 32012 H 3004.91 -4.1339 -0.49978 0
M  V30 32013 H 3007.51 -4.22306 -3.27966 0
M  V30 32014 H 3007.85 -2.51104 -3.32043 0
M  V30 32015 H 3008.39 -3.48084 -1.92568 0
M  V30 32016 H 3005.12 -6.41866 -1.32998 0
M  V30 32017 H 3004.64 -5.36567 -2.6806 0
M  V30 32018 H 3006.32 -5.94579 -2.55117 0
M  V30 32019 N 3006.46 0.573222 -1.46806 0
M  V30 32020 C 3007.37 1.70927 -1.6069 0
M  V30 32021 C 3008.38 1.66955 -0.490113 0
M  V30 32022 O 3009.56 1.86692 -0.755515 0
M  V30 32023 C 3006.62 3.07435 -1.60264 0
M  V30 32024 C 3005.68 3.22598 -2.83248 0
M  V30 32025 C 3004.92 4.52594 -2.82833 0
M  V30 32026 O 3005.14 5.37071 -1.92123 0
M  V30 32027 O 3004.07 4.71207 -3.74497 0
M  V30 32028 H 3007.9 1.62159 -2.56784 0
M  V30 32029 H 3005.48 0.741376 -1.29707 0
M  V30 32030 H 3007.37 3.88701 -1.62756 0
M  V30 32031 H 3006.04 3.1662 -0.673324 0
M  V30 32032 H 3004.95 2.40789 -2.86306 0
M  V30 32033 H 3006.28 3.18309 -3.7542 0
M  V30 32034 N 3007.93 1.3467 0.818645 0
M  V30 32035 C 3009.18 1.27267 1.5751 0
M  V30 32036 C 3009.51 -0.156219 1.93872 0
M  V30 32037 O 3008.76 -1.11854 1.60584 0
M  V30 32038 C 3009.06 2.11309 2.88242 0
M  V30 32039 C 3008.73 3.60259 2.71153 0
M  V30 32040 C 3007.39 4.00863 2.662 0
M  V30 32041 C 3009.74 4.54823 2.5453 0
M  V30 32042 C 3007.07 5.34215 2.42551 0
M  V30 32043 C 3009.42 5.8836 2.32411 0
M  V30 32044 C 3008.09 6.28122 2.25873 0
M  V30 32045 H 3007.36 0.465702 0.57637 0
M  V30 32046 H 3010 1.66453 0.946871 0
M  V30 32047 H 3008.31 1.64965 3.55379 0
M  V30 32048 H 3010.01 2.02925 3.45865 0
M  V30 32049 H 3006.6 3.28032 2.7585 0
M  V30 32050 H 3010.78 4.24348 2.57376 0
M  V30 32051 H 3006.04 5.64037 2.3595 0
M  V30 32052 H 3010.21 6.61222 2.18536 0
M  V30 32053 H 3007.84 7.31387 2.07309 0
M  V30 32054 N 3009.41 -1.03936 1.1847 0
M  V30 32055 C 3010.34 -2.139 0.936427 0
M  V30 32056 C 3011.32 -1.6963 -0.126351 0
M  V30 32057 O 3012.51 -1.94182 0.0265098 0
M  V30 32058 C 3009.64 -3.44203 0.46279 0
M  V30 32059 C 3008.59 -4.02103 1.4662 0
M  V30 32060 C 3007.92 -5.279 0.850033 0
M  V30 32061 C 3009.22 -4.38125 2.8433 0
M  V30 32062 H 3010.91 -2.34927 1.85607 0
M  V30 32063 H 3008.46 -1.12902 0.893826 0
M  V30 32064 H 3010.41 -4.20492 0.276456 0
M  V30 32065 H 3009.13 -3.22867 -0.49242 0
M  V30 32066 H 3007.79 -3.27896 1.6395 0
M  V30 32067 H 3007.44 -5.02874 -0.112405 0
M  V30 32068 H 3007.14 -5.67601 1.51998 0
M  V30 32069 H 3008.67 -6.06866 0.674258 0
M  V30 32070 H 3010.08 -5.05395 2.70645 0
M  V30 32071 H 3008.48 -4.88878 3.4802 0
M  V30 32072 H 3009.55 -3.47895 3.37783 0
M  V30 32073 N 3010.89 -0.986938 -1.22871 0
M  V30 32074 C 3012.3 -0.695468 -1.73263 0
M  V30 32075 C 3012.65 0.787992 -1.79681 0
M  V30 32076 O 3011.78 1.61615 -1.43908 0
M  V30 32077 C 3012.37 -1.25576 -3.14668 0
M  V30 32078 C 3010.93 -1.0138 -3.6249 0
M  V30 32079 C 3010.08 -1.37955 -2.40549 0
M  V30 32080 H 3013.03 -1.16001 -1.08302 0
M  V30 32081 H 3013.05 -0.631388 -3.75225 0
M  V30 32082 H 3012.56 -2.33544 -3.09965 0
M  V30 32083 H 3010.66 0.0495263 -3.72567 0
M  V30 32084 H 3010.78 -1.67297 -4.48941 0
M  V30 32085 H 3009.14 -0.798076 -2.41874 0
M  V30 32086 H 3009.92 -2.46915 -2.38512 0
M  V30 32087 N 3012.37 1.38098 -0.759394 0
M  V30 32088 C 3013.59 2.04792 -0.327895 0
M  V30 32089 C 3014.02 1.56901 1.03749 0
M  V30 32090 O 3013.38 0.72361 1.66233 0
M  V30 32091 C 3013.42 3.58734 -0.366327 0
M  V30 32092 O 3012.53 4.07441 0.637626 0
M  V30 32093 H 3011.87 0.648175 -0.144103 0
M  V30 32094 H 3014.4 1.76658 -1.03214 0
M  V30 32095 H 3014.41 4.0741 -0.219251 0
M  V30 32096 H 3013.08 3.92949 -1.36249 0
M  V30 32097 H 3011.66 3.70118 0.454684 0
M  V30 32098 N 3013.85 0.508932 1.49156 0
M  V30 32099 C 3015.26 0.1654 1.58741 0
M  V30 32100 C 3015.46 -1.33045 1.51332 0
M  V30 32101 O 3014.52 -2.10705 1.39139 0
M  V30 32102 C 3015.83 0.749246 2.91216 0
M  V30 32103 C 3017.38 0.716069 3.04699 0
M  V30 32104 C 3017.85 1.27812 4.39805 0
M  V30 32105 N 3019.34 1.23916 4.46317 0
M  V30 32106 C 3020.08 1.64416 5.49322 0
M  V30 32107 N 3019.58 2.12545 6.59391 0
M  V30 32108 N 3021.37 1.55783 5.40082 0
M  V30 32109 H 3013.52 1.48136 1.52215 0
M  V30 32110 H 3015.78 0.614928 0.721504 0
M  V30 32111 H 3015.49 1.79862 3.0223 0
M  V30 32112 H 3015.36 0.21421 3.76591 0
M  V30 32113 H 3017.75 -0.324483 2.93311 0
M  V30 32114 H 3017.83 1.28834 2.20987 0
M  V30 32115 H 3017.47 2.31749 4.51946 0
M  V30 32116 H 3017.4 0.681714 5.22169 0
M  V30 32117 H 3019.9 0.886602 3.67352 0
M  V30 32118 H 3020.21 2.41497 7.34097 0
M  V30 32119 H 3018.55 2.16525 6.6041 0
M  V30 32120 H 3021.74 1.17995 4.52984 0
M  V30 32121 H 3021.92 1.87668 6.2023 0
M  V30 32122 N 3015.32 -1.55714 0.243111 0
M  V30 32123 C 3016.29 -2.19946 -0.644684 0
M  V30 32124 C 3017.29 -1.16761 -1.1056 0
M  V30 32125 O 3018.48 -1.41866 -1.01092 0
M  V30 32126 C 3015.61 -2.84001 -1.88564 0
M  V30 32127 H 3016.8 -2.99781 -0.0843312 0
M  V30 32128 H 3014.35 -1.56299 -0.00644499 0
M  V30 32129 H 3015.09 -2.08093 -2.48732 0
M  V30 32130 H 3014.87 -3.59584 -1.56339 0
M  V30 32131 H 3016.36 -3.3317 -2.51769 0
M  V30 32132 N 3016.8 0.030048 -1.57571 0
M  V30 32133 C 3018.21 0.576771 -1.77568 0
M  V30 32134 C 3018.56 1.75655 -0.874065 0
M  V30 32135 O 3017.69 2.16291 -0.0686504 0
M  V30 32136 C 3018.28 1.0531 -3.22018 0
M  V30 32137 C 3016.84 1.54534 -3.43214 0
M  V30 32138 C 3015.99 0.482985 -2.73061 0
M  V30 32139 H 3018.94 -0.196178 -1.57483 0
M  V30 32140 H 3018.96 1.92049 -3.28477 0
M  V30 32141 H 3018.47 0.194229 -3.87614 0
M  V30 32142 H 3016.58 2.4261 -2.82792 0
M  V30 32143 H 3016.69 1.59352 -4.51823 0
M  V30 32144 H 3015.05 0.937793 -2.36807 0
M  V30 32145 H 3015.84 -0.366401 -3.41339 0
M  V30 32146 N 3018.28 1.54674 0.3023 0
M  V30 32147 C 3019.51 1.77625 1.05513 0
M  V30 32148 C 3019.92 0.535191 1.81473 0
M  V30 32149 O 3019.26 -0.504512 1.76636 0
M  V30 32150 C 3019.32 2.93004 2.083 0
M  V30 32151 C 3018.99 4.31141 1.51546 0
M  V30 32152 C 3019.98 5.11218 0.946171 0
M  V30 32153 C 3017.67 4.77739 1.55148 0
M  V30 32154 C 3019.66 6.36012 0.420448 0
M  V30 32155 C 3017.35 6.02495 1.02189 0
M  V30 32156 C 3018.35 6.81467 0.457342 0
M  V30 32157 O 3018.04 8.03874 -0.0642243 0
M  V30 32158 H 3017.77 0.596135 0.318746 0
M  V30 32159 H 3020.32 2.02439 0.347522 0
M  V30 32160 H 3018.55 2.63812 2.82737 0
M  V30 32161 H 3020.24 3.03544 2.69474 0
M  V30 32162 H 3021.01 4.76362 0.911254 0
M  V30 32163 H 3016.89 4.163 1.98029 0
M  V30 32164 H 3020.43 6.97597 -0.0208524 0
M  V30 32165 H 3016.33 6.36838 1.05395 0
M  V30 32166 H 3017.1 8.18485 0.0491983 0
M  V30 32167 N 3019.76 -0.565428 1.47108 0
M  V30 32168 C 3021.04 -1.32605 1.43789 0
M  V30 32169 C 3021.42 -2.10696 0.130465 0
M  V30 32170 O 3020.76 -2.10537 -0.888049 0
M  V30 32171 C 3020.97 -2.2375 2.67837 0
M  V30 32172 C 3022.32 -2.85032 3.14709 0
M  V30 32173 O 3023.35 -2.34056 2.68507 0
M  V30 32174 O 3022.2 -3.77664 3.95009 0
M  V30 32175 H 3019.3 -0.596674 0.572634 0
M  V30 32176 H 3021.84 -0.585012 1.59298 0
M  V30 32177 H 3020.62 -1.65591 3.54535 0
M  V30 32178 H 3020.24 -3.05164 2.54874 0
M  V30 32179 N 3021.24 -1.35102 -0.811492 0
M  V30 32180 C 3022.65 -1.25185 -1.38513 0
M  V30 32181 C 3023 0.117849 -1.95846 0
M  V30 32182 O 3022.12 1.01863 -1.90926 0
M  V30 32183 C 3022.72 -2.26666 -2.51809 0
M  V30 32184 C 3021.28 -2.20505 -3.05049 0
M  V30 32185 C 3020.42 -2.12644 -1.77983 0
M  V30 32186 H 3023.38 -1.46302 -0.614933 0
M  V30 32187 H 3023.4 -1.89029 -3.30224 0
M  V30 32188 H 3022.91 -3.26344 -2.10051 0
M  V30 32189 H 3021.01 -1.24222 -3.51283 0
M  V30 32190 H 3021.12 -3.12257 -3.63363 0
M  V30 32191 H 3019.49 -1.58544 -1.99339 0
M  V30 32192 H 3020.27 -3.14174 -1.38383 0
M  V30 32193 N 3022.71 1.03306 -1.19019 0
M  V30 32194 C 3024.13 1.28871 -0.941506 0
M  V30 32195 C 3024.33 1.97718 0.388553 0
M  V30 32196 O 3023.39 2.26248 1.12107 0
M  V30 32197 C 3024.7 2.13993 -2.11253 0
M  V30 32198 C 3026.25 2.27314 -2.15168 0
M  V30 32199 C 3026.72 3.15805 -3.31709 0
M  V30 32200 N 3028.21 3.23394 -3.31619 0
M  V30 32201 C 3028.95 3.92042 -4.18438 0
M  V30 32202 N 3028.44 4.62957 -5.15405 0
M  V30 32203 N 3030.24 3.88399 -4.06328 0
M  V30 32204 H 3022.39 0.570307 -2.046 0
M  V30 32205 H 3024.65 0.314216 -0.894412 0
M  V30 32206 H 3024.36 1.70722 -3.07485 0
M  V30 32207 H 3024.23 3.14694 -2.07961 0
M  V30 32208 H 3026.62 2.69818 -1.19509 0
M  V30 32209 H 3026.7 1.26178 -2.22515 0
M  V30 32210 H 3026.34 2.74011 -4.27645 0
M  V30 32211 H 3026.27 4.16991 -3.21599 0
M  V30 32212 H 3028.76 2.72884 -2.61425 0
M  V30 32213 H 3029.08 5.12958 -5.78009 0
M  V30 32214 H 3027.42 4.61836 -5.19357 0
M  V30 32215 H 3030.61 3.32135 -3.29855 0
M  V30 32216 H 3030.79 4.41627 -4.74204 0
M  V30 32217 N 3024.19 0.99344 1.22346 0
M  V30 32218 C 3025.44 0.680251 1.91688 0
M  V30 32219 C 3025.79 -0.779238 1.75914 0
M  V30 32220 O 3025.09 -1.55626 1.11764 0
M  V30 32221 C 3025.28 1.02203 3.42475 0
M  V30 32222 C 3025.11 2.51319 3.72919 0
M  V30 32223 C 3023.88 3.17733 3.92904 0
M  V30 32224 C 3026.08 3.4944 3.77354 0
M  V30 32225 N 3024.06 4.5632 4.10664 0
M  V30 32226 C 3025.43 4.73488 4.00261 0
M  V30 32227 C 3027.49 3.43739 3.60205 0
M  V30 32228 C 3026.19 5.9253 4.07799 0
M  V30 32229 C 3028.21 4.62159 3.69003 0
M  V30 32230 C 3027.58 5.85007 3.9236 0
M  V30 32231 H 3023.68 0.300206 0.722081 0
M  V30 32232 H 3026.26 1.27356 1.4727 0
M  V30 32233 H 3024.43 0.457291 3.85699 0
M  V30 32234 H 3026.16 0.664772 3.99203 0
M  V30 32235 H 3022.92 2.682 3.9034 0
M  V30 32236 H 3023.34 5.28206 4.23471 0
M  V30 32237 H 3027.98 2.49777 3.41132 0
M  V30 32238 H 3025.7 6.86896 4.25676 0
M  V30 32239 H 3029.29 4.59337 3.57072 0
M  V30 32240 H 3028.17 6.75108 3.98998 0
M  V30 32241 N 3025.67 -1.37693 0.766707 0
M  V30 32242 C 3026.6 -2.27998 0.0959689 0
M  V30 32243 C 3027.58 -1.46062 -0.714468 0
M  V30 32244 O 3028.77 -1.75405 -0.690306 0
M  V30 32245 C 3025.89 -3.27322 -0.870512 0
M  V30 32246 C 3024.94 -4.26254 -0.144696 0
M  V30 32247 S 3025.77 -5.22702 1.16374 0
M  V30 32248 C 3026.93 -6.25578 0.200674 0
M  V30 32249 H 3027.16 -2.84538 0.861716 0
M  V30 32250 H 3024.69 -1.43892 0.55987 0
M  V30 32251 H 3026.65 -3.85056 -1.42275 0
M  V30 32252 H 3025.31 -2.6974 -1.60933 0
M  V30 32253 H 3024.51 -4.96308 -0.877172 0
M  V30 32254 H 3024.11 -3.72484 0.336396 0
M  V30 32255 H 3026.4 -6.74576 -0.628714 0
M  V30 32256 H 3027.34 -7.02744 0.86924 0
M  V30 32257 H 3027.75 -5.64194 -0.185872 0
M  V30 32258 N 3027.15 -0.516835 -1.48884 0
M  V30 32259 C 3028.08 0.242116 -2.32241 0
M  V30 32260 C 3029.06 0.947609 -1.4126 0
M  V30 32261 O 3030.24 0.935943 -1.70158 0
M  V30 32262 C 3027.37 1.29748 -3.22153 0
M  V30 32263 C 3026.33 0.710921 -4.22054 0
M  V30 32264 C 3025.65 1.86797 -5.0101 0
M  V30 32265 C 3026.95 -0.308622 -5.21387 0
M  V30 32266 H 3028.65 -0.453703 -2.95942 0
M  V30 32267 H 3026.19 -0.219637 -1.42315 0
M  V30 32268 H 3028.15 1.83627 -3.79288 0
M  V30 32269 H 3026.87 2.0227 -2.56426 0
M  V30 32270 H 3025.53 0.193755 -3.66088 0
M  V30 32271 H 3025.18 2.58126 -4.31718 0
M  V30 32272 H 3024.88 1.48149 -5.68617 0
M  V30 32273 H 3026.4 2.4108 -5.60993 0
M  V30 32274 H 3027.82 0.142603 -5.73123 0
M  V30 32275 H 3026.21 -0.611778 -5.96973 0
M  V30 32276 H 3027.28 -1.21902 -4.69327 0
M  V30 32277 N 3028.63 1.55583 -0.251365 0
M  V30 32278 C 3029.59 2.20285 0.633011 0
M  V30 32279 C 3030.59 1.17346 1.09939 0
M  V30 32280 O 3031.78 1.424 1.00338 0
M  V30 32281 C 3028.91 2.84997 1.87055 0
M  V30 32282 H 3030.1 2.99822 0.0684319 0
M  V30 32283 H 3027.66 1.563 -0.001844 0
M  V30 32284 H 3028.39 2.0941 2.47625 0
M  V30 32285 H 3028.18 3.60408 1.5443 0
M  V30 32286 H 3029.67 3.34501 2.49998 0
M  V30 32287 N 3030.1 -0.0216912 1.57585 0
M  V30 32288 C 3031.35 -0.709608 1.89233 0
M  V30 32289 C 3031.67 -1.755 0.849995 0
M  V30 32290 O 3030.94 -1.9556 -0.115451 0
M  V30 32291 H 3029.52 -0.26508 0.698385 0
M  V30 32292 H 3032.19 0.0141031 1.94895 0
M  V30 32293 H 3031.28 -1.19454 2.88335 0
M  V30 32294 N 3031.58 -1.54832 -0.294093 0
M  V30 32295 C 3033 -1.462 -0.640141 0
M  V30 32296 C 3033.2 -0.658832 -1.90425 0
M  V30 32297 O 3032.26 -0.169272 -2.51932 0
M  V30 32298 C 3033.57 -2.90226 -0.786712 0
M  V30 32299 C 3035.12 -3.00312 -0.882148 0
M  V30 32300 C 3035.59 -4.45549 -1.06066 0
M  V30 32301 N 3037.08 -4.49288 -1.1267 0
M  V30 32302 C 3037.82 -5.58856 -1.28325 0
M  V30 32303 N 3037.31 -6.78335 -1.40833 0
M  V30 32304 N 3039.11 -5.46558 -1.31268 0
M  V30 32305 H 3031.26 -2.05516 0.53637 0
M  V30 32306 H 3033.52 -0.931066 0.178379 0
M  V30 32307 H 3033.23 -3.51628 0.0713636 0
M  V30 32308 H 3033.1 -3.3804 -1.67358 0
M  V30 32309 H 3035.49 -2.3902 -1.73071 0
M  V30 32310 H 3035.57 -2.55784 0.0288854 0
M  V30 32311 H 3035.21 -5.07437 -0.216846 0
M  V30 32312 H 3035.14 -4.87714 -1.98603 0
M  V30 32313 H 3037.63 -3.63213 -1.04329 0
M  V30 32314 H 3037.95 -7.57593 -1.52553 0
M  V30 32315 H 3036.29 -6.81187 -1.37876 0
M  V30 32316 H 3039.48 -4.52161 -1.21112 0
M  V30 32317 H 3039.66 -6.31996 -1.43124 0
M  V30 32318 N 3033.06 0.557619 -1.47405 0
M  V30 32319 C 3034.47 1.13974 -1.47874 0
M  V30 32320 C 3034.82 1.94809 -0.23321 0
M  V30 32321 O 3033.95 2.06028 0.661908 0
M  V30 32322 C 3034.54 2.07363 -2.67929 0
M  V30 32323 C 3033.1 2.60848 -2.71359 0
M  V30 32324 C 3032.25 1.37219 -2.40969 0
M  V30 32325 H 3035.2 0.344241 -1.54921 0
M  V30 32326 H 3035.22 2.91232 -2.44876 0
M  V30 32327 H 3034.73 1.48502 -3.58565 0
M  V30 32328 H 3032.83 3.23508 -1.84861 0
M  V30 32329 H 3032.95 3.01869 -3.72037 0
M  V30 32330 H 3031.31 1.67878 -1.91543 0
M  V30 32331 H 3032.09 0.801524 -3.33812 0
M  V30 32332 N 3034.54 1.35531 0.804316 0
M  V30 32333 C 3035.49 1.25178 1.90563 0
M  V30 32334 C 3036.47 0.14654 1.60231 0
M  V30 32335 O 3037.67 0.377973 1.72917 0
M  V30 32336 C 3034.79 1.02829 3.27538 0
M  V30 32337 C 3033.88 2.17755 3.63928 0
M  V30 32338 N 3034.27 3.42993 3.71738 0
M  V30 32339 C 3032.57 2.09191 3.93897 0
M  V30 32340 C 3033.27 4.18581 4.03936 0
M  V30 32341 N 3032.25 3.47362 4.18139 0
M  V30 32342 H 3036.05 2.20063 1.94806 0
M  V30 32343 H 3033.56 1.28036 0.999028 0
M  V30 32344 H 3035.56 0.935012 4.0628 0
M  V30 32345 H 3034.22 0.0883121 3.2458 0
M  V30 32346 H 3035.23 3.77316 3.54758 0
M  V30 32347 H 3031.91 1.23061 3.98951 0
M  V30 32348 H 3033.3 5.26819 4.17027 0
M  V30 32349 N 3036.02 -1.02674 1.19565 0
M  V30 32350 C 3037.43 -1.57559 1.0016 0
M  V30 32351 C 3037.78 -1.91089 -0.444889 0
M  V30 32352 O 3036.9 -1.71121 -1.32463 0
M  V30 32353 C 3037.5 -2.86281 1.81186 0
M  V30 32354 C 3036.06 -3.37731 1.66177 0
M  V30 32355 C 3035.21 -2.11149 1.79754 0
M  V30 32356 H 3038.16 -0.851766 1.33905 0
M  V30 32357 H 3038.18 -3.57267 1.30922 0
M  V30 32358 H 3037.69 -2.61845 2.86459 0
M  V30 32359 H 3035.79 -3.67149 0.634992 0
M  V30 32360 H 3035.9 -4.10618 2.46839 0
M  V30 32361 H 3034.27 -2.23121 1.22837 0
M  V30 32362 H 3035.05 -1.89152 2.8649 0
M  V30 32363 N 3037.5 -0.999914 -1.21817 0
M  V30 32364 C 3038.72 -0.698393 -1.94756 0
M  V30 32365 C 3039.14 0.738153 -1.73772 0
M  V30 32366 O 3038.5 1.49887 -1.04116 0
M  V30 32367 C 3038.55 -1.00359 -3.4729 0
M  V30 32368 O 3038.27 -2.38369 -3.67575 0
M  V30 32369 C 3039.77 -0.720757 -4.37401 0
M  V30 32370 H 3036.99 -0.257781 -0.619508 0
M  V30 32371 H 3039.53 -1.33659 -1.54776 0
M  V30 32372 H 3037.69 -0.411085 -3.85213 0
M  V30 32373 H 3038.1 -2.48837 -4.61714 0
M  V30 32374 H 3039.58 -0.984518 -5.43149 0
M  V30 32375 H 3040.05 0.345232 -4.37841 0
M  V30 32376 H 3040.66 -1.29464 -4.05116 0
M  V30 32377 N 3038.97 1.37284 -0.773999 0
M  V30 32378 C 3039.9 2.32837 -0.175823 0
M  V30 32379 C 3040.88 1.55892 0.680576 0
M  V30 32380 O 3042.07 1.84119 0.617575 0
M  V30 32381 C 3039.2 3.40124 0.702328 0
M  V30 32382 C 3038.15 4.27967 -0.052944 0
M  V30 32383 C 3037.48 5.26287 0.944799 0
M  V30 32384 C 3038.78 5.07531 -1.23325 0
M  V30 32385 H 3040.47 2.83112 -0.974066 0
M  V30 32386 H 3038.02 1.36119 -0.46985 0
M  V30 32387 H 3039.97 4.05949 1.13062 0
M  V30 32388 H 3038.7 2.8838 1.53311 0
M  V30 32389 H 3037.36 3.63677 -0.462042 0
M  V30 32390 H 3037 4.70822 1.7702 0
M  V30 32391 H 3036.7 5.8592 0.443976 0
M  V30 32392 H 3038.23 5.94986 1.37199 0
M  V30 32393 H 3039.64 5.66483 -0.881495 0
M  V30 32394 H 3038.04 5.76502 -1.66631 0
M  V30 32395 H 3039.11 4.40074 -2.03625 0
M  V30 32396 N 3040.45 0.524724 1.48608 0
M  V30 32397 C 3041.4 -0.240915 2.29539 0
M  V30 32398 C 3042.37 -0.938657 1.37034 0
M  V30 32399 O 3043.55 -0.940708 1.65998 0
M  V30 32400 C 3040.69 -1.28509 3.2028 0
M  V30 32401 C 3039.81 -0.596722 4.27859 0
M  V30 32402 C 3038.94 -1.62337 5.05787 0
M  V30 32403 C 3037.98 -0.91818 6.05174 0
M  V30 32404 N 3037.12 -1.89013 6.76179 0
M  V30 32405 H 3041.96 0.45542 2.94499 0
M  V30 32406 H 3039.49 0.236429 1.45188 0
M  V30 32407 H 3041.45 -1.90272 3.71285 0
M  V30 32408 H 3040.08 -1.94987 2.57254 0
M  V30 32409 H 3039.13 0.134735 3.80161 0
M  V30 32410 H 3040.45 -0.042763 4.98782 0
M  V30 32411 H 3039.6 -2.31543 5.60779 0
M  V30 32412 H 3038.34 -2.21122 4.34691 0
M  V30 32413 H 3037.34 -0.212023 5.49391 0
M  V30 32414 H 3038.57 -0.336514 6.78266 0
M  V30 32415 H 3036.52 -2.46715 6.07838 0
M  V30 32416 H 3036.43 -1.38746 7.43159 0
M  V30 32417 H 3037.7 -2.57433 7.35764 0
M  V30 32418 N 3041.93 -1.55447 0.259613 0
M  V30 32419 C 3043.18 -1.98852 -0.360858 0
M  V30 32420 C 3043.5 -1.14927 -1.57533 0
M  V30 32421 O 3042.77 -0.23506 -1.94485 0
M  V30 32422 H 3041.35 -0.734456 -0.136319 0
M  V30 32423 H 3044.01 -1.91521 0.361353 0
M  V30 32424 H 3043.11 -3.05013 -0.661335 0
M  V30 32425 N 3043.41 0.0133338 -1.57594 0
M  V30 32426 C 3044.64 0.712294 -1.94252 0
M  V30 32427 C 3045.05 1.68042 -0.860659 0
M  V30 32428 O 3044.41 1.81783 0.1616 0
M  V30 32429 C 3044.46 1.45575 -3.30893 0
M  V30 32430 O 3044.18 0.526463 -4.34925 0
M  V30 32431 C 3045.68 2.25043 -3.8193 0
M  V30 32432 H 3042.9 0.19923 -0.64074 0
M  V30 32433 H 3045.44 -0.0338215 -2.04472 0
M  V30 32434 H 3043.6 2.15361 -3.22023 0
M  V30 32435 H 3044.01 1.04953 -5.13892 0
M  V30 32436 H 3045.49 2.72581 -4.80004 0
M  V30 32437 H 3045.96 3.07146 -3.13939 0
M  V30 32438 H 3046.57 1.60301 -3.93934 0
M  V30 32439 N 3044.89 1.54985 0.285878 0
M  V30 32440 C 3046.13 1.76169 1.01666 0
M  V30 32441 C 3046.49 0.549051 1.844 0
M  V30 32442 O 3045.78 -0.45843 1.86035 0
M  V30 32443 C 3045.97 3.00043 1.94188 0
M  V30 32444 C 3045.8 4.33239 1.20558 0
M  V30 32445 C 3044.57 4.96733 0.926523 0
M  V30 32446 C 3046.77 5.1076 0.602424 0
M  V30 32447 N 3044.75 6.13686 0.162077 0
M  V30 32448 C 3046.12 6.19993 -0.0284933 0
M  V30 32449 C 3048.18 4.95292 0.50898 0
M  V30 32450 C 3046.88 7.15444 -0.743832 0
M  V30 32451 C 3048.91 5.91086 -0.192737 0
M  V30 32452 C 3048.27 6.99699 -0.812444 0
M  V30 32453 H 3044.37 0.697063 0.354439 0
M  V30 32454 H 3046.95 1.92473 0.293659 0
M  V30 32455 H 3045.12 2.85138 2.63725 0
M  V30 32456 H 3046.86 3.09687 2.6053 0
M  V30 32457 H 3043.61 4.57388 1.22853 0
M  V30 32458 H 3044.03 6.76683 -0.207101 0
M  V30 32459 H 3048.68 4.11433 0.973784 0
M  V30 32460 H 3046.39 7.98832 -1.22036 0
M  V30 32461 H 3049.98 5.81195 -0.265184 0
M  V30 32462 H 3048.86 7.72549 -1.34679 0
M  V30 32463 N 3046.36 -0.549794 1.47699 0
M  V30 32464 C 3047.3 -1.67163 1.56809 0
M  V30 32465 C 3048.31 -1.56349 0.453736 0
M  V30 32466 O 3049.5 -1.63172 0.723691 0
M  V30 32467 C 3046.6 -3.05683 1.46325 0
M  V30 32468 C 3045.77 -3.42178 2.72458 0
M  V30 32469 C 3044.83 -4.59892 2.55706 0
M  V30 32470 O 3043.86 -4.64102 3.29542 0
M  V30 32471 N 3045.06 -5.56847 1.64019 0
M  V30 32472 H 3047.82 -1.59792 2.53548 0
M  V30 32473 H 3045.38 -0.73661 1.44172 0
M  V30 32474 H 3047.38 -3.82276 1.32842 0
M  V30 32475 H 3045.95 -3.0724 0.576394 0
M  V30 32476 H 3045.17 -2.54959 3.00649 0
M  V30 32477 H 3046.45 -3.63338 3.56178 0
M  V30 32478 H 3045.85 -5.56208 1.03196 0
M  V30 32479 H 3044.41 -6.32737 1.56484 0
M  V30 32480 N 3047.84 -1.35955 -0.797117 0
M  V30 32481 C 3049.07 -1.33055 -1.59094 0
M  V30 32482 C 3049.49 0.0874262 -1.87897 0
M  V30 32483 O 3048.85 1.0571 -1.47293 0
M  V30 32484 C 3048.9 -2.15205 -2.89342 0
M  V30 32485 O 3048 -1.53926 -3.82597 0
M  V30 32486 H 3047.34 -0.455759 -0.482887 0
M  V30 32487 H 3049.87 -1.79131 -0.988601 0
M  V30 32488 H 3049.88 -2.27505 -3.38682 0
M  V30 32489 H 3048.56 -3.18288 -2.67705 0
M  V30 32490 H 3047.14 -1.50522 -3.41171 0
M  V30 32491 N 3049.32 1.02038 -1.20108 0
M  V30 32492 C 3050.57 1.75229 -1.00693 0
M  V30 32493 C 3050.89 1.89437 0.462457 0
M  V30 32494 O 3050.16 1.43413 1.33453 0
M  V30 32495 H 3048.74 0.649164 -0.369587 0
M  V30 32496 H 3051.4 1.23041 -1.51152 0
M  V30 32497 H 3050.5 2.75734 -1.4621 0
M  V30 32498 N 3050.8 1.00636 1.21285 0
M  V30 32499 C 3052.05 0.689834 1.90388 0
M  V30 32500 C 3052.37 -0.779543 1.78195 0
M  V30 32501 O 3051.63 -1.58083 1.15361 0
M  V30 32502 C 3051.93 1.0583 3.41372 0
M  V30 32503 C 3051.59 2.52217 3.73761 0
M  V30 32504 C 3050.26 2.92217 3.82312 0
M  V30 32505 C 3052.61 3.47035 3.88865 0
M  V30 32506 C 3049.94 4.25997 4.03415 0
M  V30 32507 C 3052.29 4.8049 4.11476 0
M  V30 32508 C 3050.95 5.20212 4.18253 0
M  V30 32509 H 3050.22 0.252428 0.696679 0
M  V30 32510 H 3052.87 1.26505 1.43766 0
M  V30 32511 H 3051.17 0.401349 3.89739 0
M  V30 32512 H 3052.87 0.791229 3.93116 0
M  V30 32513 H 3049.46 2.20218 3.67698 0
M  V30 32514 H 3053.64 3.17296 3.81624 0
M  V30 32515 H 3048.9 4.56341 4.06894 0
M  V30 32516 H 3053.07 5.53895 4.22105 0
M  V30 32517 H 3050.7 6.23888 4.34358 0
M  V30 32518 N 3052.28 -1.36872 0.781268 0
M  V30 32519 C 3053.52 -1.99454 0.349924 0
M  V30 32520 C 3053.85 -1.62014 -1.07618 0
M  V30 32521 O 3053.11 -0.862611 -1.75663 0
M  V30 32522 C 3053.41 -3.54536 0.451522 0
M  V30 32523 C 3053.07 -4.11772 1.83725 0
M  V30 32524 C 3051.73 -4.27116 2.21642 0
M  V30 32525 C 3054.09 -4.43058 2.74498 0
M  V30 32526 C 3051.41 -4.71054 3.4975 0
M  V30 32527 C 3053.77 -4.88424 4.02026 0
M  V30 32528 C 3052.43 -5.01974 4.39975 0
M  V30 32529 H 3051.7 -0.729853 0.128046 0
M  V30 32530 H 3054.35 -1.63491 0.997145 0
M  V30 32531 H 3052.65 -3.90804 -0.27922 0
M  V30 32532 H 3054.35 -4.00878 0.0989314 0
M  V30 32533 H 3050.94 -4.00262 1.53258 0
M  V30 32534 H 3055.12 -4.30779 2.46461 0
M  V30 32535 H 3050.38 -4.79732 3.79035 0
M  V30 32536 H 3054.55 -5.11597 4.72484 0
M  V30 32537 H 3052.18 -5.35779 5.393 0
M  V30 32538 N 3053.75 -0.532597 -1.48328 0
M  V30 32539 C 3055.03 0.0650641 -1.95492 0
M  V30 32540 C 3055.41 1.51032 -1.47488 0
M  V30 32541 O 3054.76 2.17431 -0.702554 0
M  V30 32542 C 3054.97 -0.0548954 -3.48957 0
M  V30 32543 C 3056.32 0.10304 -4.24475 0
M  V30 32544 O 3057.34 0.0187717 -3.56195 0
M  V30 32545 O 3056.2 0.280068 -5.45782 0
M  V30 32546 H 3053.29 0.0778459 -0.823328 0
M  V30 32547 H 3055.84 -0.597381 -1.58838 0
M  V30 32548 H 3054.61 -1.06155 -3.76626 0
M  V30 32549 H 3054.24 0.646281 -3.92312 0
M  V30 32550 N 3055.23 1.55307 -0.267853 0
M  V30 32551 C 3056.18 2.18917 0.637129 0
M  V30 32552 C 3057.17 1.15151 1.12379 0
M  V30 32553 O 3058.36 1.40991 1.07007 0
M  V30 32554 C 3055.49 2.90824 1.82418 0
M  V30 32555 C 3054.57 4.0187 1.35505 0
M  V30 32556 N 3054.96 5.0221 0.601556 0
M  V30 32557 C 3053.26 4.14808 1.63861 0
M  V30 32558 C 3053.96 5.8061 0.355858 0
M  V30 32559 N 3052.94 5.35652 0.926177 0
M  V30 32560 H 3056.74 2.93851 0.053527 0
M  V30 32561 H 3054.26 1.62244 -0.0710863 0
M  V30 32562 H 3056.25 3.34838 2.48373 0
M  V30 32563 H 3054.91 2.17398 2.41181 0
M  V30 32564 H 3055.92 5.17298 0.249602 0
M  V30 32565 H 3052.6 3.52568 2.23611 0
M  V30 32566 H 3053.99 6.71445 -0.247112 0
M  V30 32567 N 3056.71 -0.00497598 1.57599 0
M  V30 32568 C 3057.96 -0.689497 1.89975 0
M  V30 32569 C 3058.28 -1.74588 0.868561 0
M  V30 32570 O 3057.55 -1.95671 -0.0947023 0
M  V30 32571 H 3056.13 -0.257658 0.701157 0
M  V30 32572 H 3058.79 0.0347735 1.94869 0
M  V30 32573 H 3057.89 -1.16389 2.89586 0
M  V30 32574 N 3058.19 -1.55135 -0.277654 0
M  V30 32575 C 3059.41 -1.79872 -1.03251 0
M  V30 32576 C 3059.84 -0.567892 -1.79323 0
M  V30 32577 O 3059.2 0.482369 -1.74765 0
M  V30 32578 C 3059.24 -3.02003 -1.97044 0
M  V30 32579 O 3058.35 -2.76763 -3.05739 0
M  V30 32580 H 3057.69 -0.594654 -0.295436 0
M  V30 32581 H 3060.22 -2.02269 -0.307978 0
M  V30 32582 H 3060.23 -3.3061 -2.39084 0
M  V30 32583 H 3058.9 -3.91238 -1.41087 0
M  V30 32584 H 3057.48 -2.59239 -2.68047 0
M  V30 32585 N 3059.67 0.541953 -1.47989 0
M  V30 32586 C 3060.91 1.2984 -1.55395 0
M  V30 32587 C 3061.24 1.93221 -0.222702 0
M  V30 32588 O 3060.5 1.79226 0.785905 0
M  V30 32589 C 3060.8 2.41793 -2.63194 0
M  V30 32590 C 3060.46 1.96144 -4.06003 0
M  V30 32591 C 3059.12 1.83412 -4.44875 0
M  V30 32592 C 3061.48 1.61498 -4.95548 0
M  V30 32593 C 3058.8 1.34351 -5.7111 0
M  V30 32594 C 3061.16 1.13904 -6.22261 0
M  V30 32595 C 3059.82 0.997795 -6.6 0
M  V30 32596 H 3059.09 0.47512 -0.568632 0
M  V30 32597 H 3061.74 0.606111 -1.81655 0
M  V30 32598 H 3060.04 3.16642 -2.30748 0
M  V30 32599 H 3061.74 2.99948 -2.66143 0
M  V30 32600 H 3058.33 2.07001 -3.75298 0
M  V30 32601 H 3062.51 1.70201 -4.66203 0
M  V30 32602 H 3057.77 1.22092 -5.99085 0
M  V30 32603 H 3061.94 0.861634 -6.91049 0
M  V30 32604 H 3059.57 0.615428 -7.57705 0
M  V30 32605 N 3061.15 1.36376 0.789896 0
M  V30 32606 C 3062.09 1.30664 1.90252 0
M  V30 32607 C 3063.06 0.175419 1.65171 0
M  V30 32608 O 3064.25 0.361856 1.87337 0
M  V30 32609 C 3061.39 1.10131 3.27055 0
M  V30 32610 C 3060.5 2.32323 3.64211 0
M  V30 32611 C 3059.64 2.04806 4.9013 0
M  V30 32612 C 3058.67 3.22962 5.19963 0
M  V30 32613 N 3057.81 2.95113 6.37066 0
M  V30 32614 H 3062.65 2.258 1.9447 0
M  V30 32615 H 3060.19 1.12225 0.951002 0
M  V30 32616 H 3062.15 0.962525 4.05945 0
M  V30 32617 H 3060.78 0.1865 3.22261 0
M  V30 32618 H 3059.83 2.57007 2.80449 0
M  V30 32619 H 3061.14 3.20499 3.82207 0
M  V30 32620 H 3060.29 1.87855 5.76884 0
M  V30 32621 H 3059.03 1.13941 4.74203 0
M  V30 32622 H 3058.04 3.40473 4.31693 0
M  V30 32623 H 3059.26 4.14653 5.3781 0
M  V30 32624 H 3057.21 2.06859 6.22532 0
M  V30 32625 H 3057.13 3.76827 6.55391 0
M  V30 32626 H 3058.39 2.8174 7.26803 0
M  V30 32627 N 3062.62 -1.014 1.20647 0
M  V30 32628 C 3063.53 -2.13452 0.973422 0
M  V30 32629 C 3064.55 -1.73853 -0.071556 0
M  V30 32630 O 3065.73 -2.01063 0.116474 0
M  V30 32631 C 3062.79 -3.42604 0.531345 0
M  V30 32632 C 3061.85 -3.9643 1.64748 0
M  V30 32633 C 3061.08 -5.19418 1.2264 0
M  V30 32634 O 3061.31 -5.70319 0.0961893 0
M  V30 32635 O 3060.24 -5.66461 2.03484 0
M  V30 32636 H 3064.07 -2.35984 1.91168 0
M  V30 32637 H 3061.65 -1.11839 0.990573 0
M  V30 32638 H 3063.53 -4.20372 0.294169 0
M  V30 32639 H 3062.21 -3.21482 -0.378302 0
M  V30 32640 H 3061.12 -3.19929 1.93897 0
M  V30 32641 H 3062.45 -4.21945 2.53423 0
M  V30 32642 N 3064.1 -1.01278 -1.2075 0
M  V30 32643 C 3065.35 -0.695263 -1.89338 0
M  V30 32644 C 3065.66 0.778028 -1.79461 0
M  V30 32645 O 3066.87 1.20794 -2.43148 0
M  V30 32646 C 3065.33 -1.19316 -3.39546 0
M  V30 32647 C 3064.93 -2.69308 -3.58018 0
M  V30 32648 C 3066.68 -0.950896 -4.13713 0
M  V30 32649 C 3064.58 -3.12599 -5.02032 0
M  V30 32650 H 3063.51 -0.256363 -0.70908 0
M  V30 32651 H 3066.17 -1.22496 -1.36627 0
M  V30 32652 H 3064.55 -0.591464 -3.91558 0
M  V30 32653 H 3065.72 -3.34995 -3.1641 0
M  V30 32654 H 3064.04 -2.91636 -2.97217 0
M  V30 32655 H 3066.63 -1.2498 -5.19889 0
M  V30 32656 H 3066.98 0.112718 -4.16147 0
M  V30 32657 H 3067.51 -1.51578 -3.67789 0
M  V30 32658 H 3064.25 -4.1822 -5.04749 0
M  V30 32659 H 3063.77 -2.5163 -5.44465 0
M  V30 32660 H 3065.45 -3.0502 -5.70589 0
M  V30 32661 N 3065.58 1.36456 -0.788516 0
M  V30 32662 C 3066.51 2.27817 -0.132229 0
M  V30 32663 C 3067.49 1.4718 0.69114 0
M  V30 32664 O 3068.67 1.76481 0.662313 0
M  V30 32665 C 3065.8 3.28666 0.818328 0
M  V30 32666 C 3064.85 4.26431 0.0768642 0
M  V30 32667 S 3065.68 5.20784 -1.24675 0
M  V30 32668 C 3066.84 6.2518 -0.300172 0
M  V30 32669 H 3067.07 2.83131 -0.906874 0
M  V30 32670 H 3064.6 1.42983 -0.582691 0
M  V30 32671 H 3066.56 3.87271 1.36131 0
M  V30 32672 H 3065.22 2.72266 1.56621 0
M  V30 32673 H 3064.41 4.97641 0.798103 0
M  V30 32674 H 3064.02 3.71902 -0.395612 0
M  V30 32675 H 3066.31 6.75491 0.521315 0
M  V30 32676 H 3067.25 7.01273 -0.980931 0
M  V30 32677 H 3067.66 5.64418 0.0960906 0
M  V30 32678 N 3067.06 0.540456 1.48043 0
M  V30 32679 C 3068.02 -0.205926 2.28273 0
M  V30 32680 C 3069.02 -0.858185 1.35985 0
M  V30 32681 O 3070.21 -0.716623 1.58777 0
M  V30 32682 C 3067.34 -1.29911 3.15176 0
M  V30 32683 H 3068.54 0.498607 2.95726 0
M  V30 32684 H 3066.09 0.296772 1.53457 0
M  V30 32685 H 3066.82 -2.03657 2.52377 0
M  V30 32686 H 3066.61 -0.836408 3.83075 0
M  V30 32687 H 3068.1 -1.82381 3.75669 0
M  V30 32688 N 3068.54 -1.55163 0.276085 0
M  V30 32689 C 3069.95 -1.85382 -0.221483 0
M  V30 32690 C 3070.3 -1.1981 -1.5537 0
M  V30 32691 O 3069.42 -0.48678 -2.10854 0
M  V30 32692 C 3070.02 -3.36327 -0.408647 0
M  V30 32693 C 3068.58 -3.66667 -0.850447 0
M  V30 32694 C 3067.72 -2.77244 0.0557047 0
M  V30 32695 H 3070.67 -1.50689 0.497845 0
M  V30 32696 H 3070.7 -3.59484 -1.24705 0
M  V30 32697 H 3070.21 -3.84022 0.561119 0
M  V30 32698 H 3068.31 -3.24471 -1.83165 0
M  V30 32699 H 3068.42 -4.74147 -0.687097 0
M  V30 32700 H 3066.79 -2.50497 -0.460775 0
M  V30 32701 H 3067.57 -3.27754 1.02137 0
M  V30 32702 N 3070.01 -0.00338196 -1.576 0
M  V30 32703 C 3071.26 0.676115 -1.91834 0
M  V30 32704 C 3071.61 1.71193 -0.878109 0
M  V30 32705 O 3070.91 1.91288 0.109263 0
M  V30 32706 C 3071.1 1.35831 -3.30582 0
M  V30 32707 C 3070.93 0.390092 -4.48005 0
M  V30 32708 C 3069.7 -0.000737312 -5.053 0
M  V30 32709 C 3071.9 -0.345072 -5.13141 0
M  V30 32710 N 3069.88 -0.966816 -6.06239 0
M  V30 32711 C 3071.25 -1.16572 -6.08942 0
M  V30 32712 C 3073.31 -0.408545 -4.96221 0
M  V30 32713 C 3072.01 -2.04407 -6.89645 0
M  V30 32714 C 3074.04 -1.27413 -5.77512 0
M  V30 32715 C 3073.4 -2.08263 -6.72909 0
M  V30 32716 H 3069.5 0.220506 -0.750267 0
M  V30 32717 H 3072.08 -0.0645233 -1.94593 0
M  V30 32718 H 3070.25 2.06922 -3.28691 0
M  V30 32719 H 3071.98 1.99277 -3.52237 0
M  V30 32720 H 3068.74 0.368345 -4.72165 0
M  V30 32721 H 3069.16 -1.44533 -6.61392 0
M  V30 32722 H 3073.8 0.20225 -4.22316 0
M  V30 32723 H 3071.52 -2.66553 -7.62873 0
M  V30 32724 H 3075.11 -1.3272 -5.6646 0
M  V30 32725 H 3073.99 -2.74158 -7.34716 0
M  V30 32726 N 3071.49 1.5528 0.269423 0
M  V30 32727 C 3072.45 1.87627 1.31639 0
M  V30 32728 C 3073.45 0.751083 1.42181 0
M  V30 32729 O 3074.64 1.01924 1.4127 0
M  V30 32730 C 3071.78 2.08472 2.69726 0
M  V30 32731 H 3072.97 2.81221 1.04185 0
M  V30 32732 H 3070.52 1.47826 0.507659 0
M  V30 32733 H 3071.26 1.17271 3.02354 0
M  V30 32734 H 3071.04 2.90399 2.6346 0
M  V30 32735 H 3072.53 2.34759 3.45366 0
M  V30 32736 N 3072.97 -0.534097 1.48274 0
M  V30 32737 C 3073.9 -1.65491 1.58573 0
M  V30 32738 C 3074.91 -1.55859 0.470294 0
M  V30 32739 O 3076.1 -1.62395 0.740957 0
M  V30 32740 C 3073.2 -3.04114 1.49559 0
M  V30 32741 C 3072.38 -3.39269 2.76072 0
M  V30 32742 C 3071.44 -4.57154 2.6057 0
M  V30 32743 O 3070.46 -4.60581 3.34446 0
M  V30 32744 N 3071.66 -5.55076 1.69915 0
M  V30 32745 H 3074.43 -1.57094 2.55228 0
M  V30 32746 H 3071.99 -0.721277 1.44946 0
M  V30 32747 H 3073.98 -3.80846 1.36889 0
M  V30 32748 H 3072.55 -3.06611 0.608949 0
M  V30 32749 H 3071.77 -2.51755 3.03336 0
M  V30 32750 H 3073.06 -3.5954 3.60012 0
M  V30 32751 H 3072.46 -5.55082 1.09089 0
M  V30 32752 H 3071.01 -6.31042 1.63186 0
M  V30 32753 N 3074.45 -1.36793 -0.782652 0
M  V30 32754 C 3075.68 -1.34568 -1.5716 0
M  V30 32755 C 3076.09 0.0715169 -1.88664 0
M  V30 32756 O 3075.45 1.0303 -1.50635 0
M  V30 32757 C 3075.5 -2.17365 -2.8885 0
M  V30 32758 O 3075.22 -3.53561 -2.587 0
M  V30 32759 C 3076.72 -2.22997 -3.83128 0
M  V30 32760 H 3073.94 -0.461347 -0.487237 0
M  V30 32761 H 3076.48 -1.79984 -0.970873 0
M  V30 32762 H 3074.64 -1.75487 -3.45374 0
M  V30 32763 H 3075.05 -3.96841 -3.42954 0
M  V30 32764 H 3076.53 -2.85275 -4.7257 0
M  V30 32765 H 3077 -1.23531 -4.2147 0
M  V30 32766 H 3077.61 -2.65141 -3.32536 0
M  V30 32767 N 3075.93 1.00759 -1.21184 0
M  V30 32768 C 3077.17 1.74755 -1.02901 0
M  V30 32769 C 3077.51 1.89225 0.436741 0
M  V30 32770 O 3076.78 1.42468 1.32412 0
M  V30 32771 C 3077.06 3.16161 -1.72378 0
M  V30 32772 C 3076.92 3.0943 -3.26456 0
M  V30 32773 C 3078.24 4.15028 -1.46422 0
M  V30 32774 H 3075.35 0.634331 -0.375225 0
M  V30 32775 H 3078 1.17485 -1.49323 0
M  V30 32776 H 3076.15 3.65057 -1.32912 0
M  V30 32777 H 3077.82 2.68268 -3.75274 0
M  V30 32778 H 3076.06 2.46597 -3.56893 0
M  V30 32779 H 3076.73 4.09429 -3.70233 0
M  V30 32780 H 3079.21 3.74827 -1.80677 0
M  V30 32781 H 3078.08 5.12117 -1.97553 0
M  V30 32782 H 3078.35 4.40344 -0.393688 0
M  V30 32783 N 3077.4 1.01917 1.20211 0
M  V30 32784 C 3078.65 0.71104 1.89926 0
M  V30 32785 C 3078.98 -0.757638 1.78811 0
M  V30 32786 O 3078.26 -1.55071 1.17402 0
M  V30 32787 C 3078.54 1.15059 3.41223 0
M  V30 32788 C 3078.39 2.67977 3.61259 0
M  V30 32789 C 3079.71 0.723846 4.34107 0
M  V30 32790 H 3076.83 0.259781 0.689698 0
M  V30 32791 H 3079.47 1.26737 1.41555 0
M  V30 32792 H 3077.62 0.677267 3.82551 0
M  V30 32793 H 3079.3 3.23182 3.29167 0
M  V30 32794 H 3077.54 3.08829 3.04642 0
M  V30 32795 H 3078.21 2.93787 4.67326 0
M  V30 32796 H 3080.69 1.1308 4.0044 0
M  V30 32797 H 3079.56 1.0594 5.38579 0
M  V30 32798 H 3079.82 -0.374346 4.40512 0
M  V30 32799 N 3078.88 -1.36036 0.795742 0
M  V30 32800 C 3080.11 -2.03321 0.383189 0
M  V30 32801 C 3080.53 -1.5999 -1.00243 0
M  V30 32802 O 3079.88 -0.792294 -1.64405 0
M  V30 32803 C 3079.93 -3.58756 0.44453 0
M  V30 32804 O 3079.65 -4.00509 1.77551 0
M  V30 32805 C 3081.16 -4.43294 0.023407 0
M  V30 32806 H 3078.38 -0.652357 0.157073 0
M  V30 32807 H 3080.92 -1.73882 1.07635 0
M  V30 32808 H 3079.07 -3.86882 -0.200273 0
M  V30 32809 H 3079.49 -4.95122 1.73073 0
M  V30 32810 H 3080.96 -5.51875 0.117458 0
M  V30 32811 H 3081.44 -4.26952 -1.02999 0
M  V30 32812 H 3082.05 -4.20443 0.640943 0
M  V30 32813 N 3080.36 -0.5483 -1.47755 0
M  V30 32814 C 3081.61 -0.0208898 -2.02089 0
M  V30 32815 C 3081.93 1.33014 -1.42591 0
M  V30 32816 O 3081.2 1.86554 -0.597858 0
M  V30 32817 H 3079.78 -0.00473336 -0.746985 0
M  V30 32818 H 3082.44 -0.716288 -1.8126 0
M  V30 32819 H 3081.54 0.0738468 -3.12013 0
M  V30 32820 N 3081.84 1.55014 -0.28431 0
M  V30 32821 C 3083.25 1.59448 0.0695749 0
M  V30 32822 C 3083.45 1.30147 1.53831 0
M  V30 32823 O 3082.51 1.06678 2.28858 0
M  V30 32824 C 3083.82 2.99063 -0.313339 0
M  V30 32825 C 3085.37 3.11912 -0.260717 0
M  V30 32826 C 3085.85 4.53809 -0.618206 0
M  V30 32827 N 3087.34 4.59678 -0.570106 0
M  V30 32828 C 3088.07 5.67515 -0.8194 0
M  V30 32829 N 3087.57 6.8346 -1.13379 0
M  V30 32830 N 3089.36 5.57107 -0.74758 0
M  V30 32831 H 3081.51 1.72324 -1.2417 0
M  V30 32832 H 3083.78 0.804006 -0.502273 0
M  V30 32833 H 3083.48 3.25372 -1.33515 0
M  V30 32834 H 3083.36 3.75653 0.341303 0
M  V30 32835 H 3085.74 2.85362 0.751819 0
M  V30 32836 H 3085.82 2.37515 -0.949748 0
M  V30 32837 H 3085.47 4.81085 -1.62847 0
M  V30 32838 H 3085.4 5.26518 0.0927144 0
M  V30 32839 H 3087.89 3.76391 -0.337366 0
M  V30 32840 H 3088.2 7.61608 -1.31043 0
M  V30 32841 H 3086.55 6.85053 -1.17166 0
M  V30 32842 H 3089.74 4.65403 -0.50174 0
M  V30 32843 H 3089.91 6.41069 -0.945241 0
M  V30 32844 N 3083.32 0.0117398 1.57596 0
M  V30 32845 C 3084.28 -0.960779 2.08091 0
M  V30 32846 C 3085.28 -1.26512 0.992542 0
M  V30 32847 O 3086.47 -1.20835 1.25478 0
M  V30 32848 C 3083.6 -2.28236 2.53221 0
M  V30 32849 H 3084.79 -0.523777 2.95291 0
M  V30 32850 H 3082.35 -0.235968 1.54509 0
M  V30 32851 H 3083.08 -2.76602 1.69299 0
M  V30 32852 H 3082.87 -2.07464 3.32718 0
M  V30 32853 H 3084.36 -2.97978 2.92573 0
M  V30 32854 N 3084.79 -1.55421 -0.261185 0
M  V30 32855 C 3086.21 -1.47525 -0.608986 0
M  V30 32856 C 3086.41 -0.699075 -1.88985 0
M  V30 32857 O 3085.47 -0.222673 -2.51516 0
M  V30 32858 C 3086.78 -2.9183 -0.724974 0
M  V30 32859 C 3088.33 -3.02115 -0.818249 0
M  V30 32860 C 3088.8 -4.47699 -0.965917 0
M  V30 32861 N 3090.29 -4.51577 -1.03115 0
M  V30 32862 C 3091.03 -5.61453 -1.16442 0
M  V30 32863 N 3090.52 -6.81169 -1.26413 0
M  V30 32864 N 3092.32 -5.49219 -1.19645 0
M  V30 32865 H 3084.47 -2.04332 0.579843 0
M  V30 32866 H 3086.73 -0.927073 0.198089 0
M  V30 32867 H 3086.44 -3.51397 0.145933 0
M  V30 32868 H 3086.31 -3.41514 -1.6015 0
M  V30 32869 H 3088.7 -2.42637 -1.67962 0
M  V30 32870 H 3088.78 -2.55665 0.0831345 0
M  V30 32871 H 3088.42 -5.07783 -0.109162 0
M  V30 32872 H 3088.35 -4.91817 -1.88213 0
M  V30 32873 H 3090.84 -3.65345 -0.966008 0
M  V30 32874 H 3091.16 -7.60659 -1.36449 0
M  V30 32875 H 3089.5 -6.83958 -1.23396 0
M  V30 32876 H 3092.69 -4.54628 -1.11493 0
M  V30 32877 H 3092.87 -6.3489 -1.29687 0
M  V30 32878 N 3086.27 0.526227 -1.48555 0
M  V30 32879 C 3087.2 1.63956 -1.66255 0
M  V30 32880 C 3088.18 1.62231 -0.51138 0
M  V30 32881 O 3089.37 1.79368 -0.744354 0
M  V30 32882 C 3086.5 3.02533 -1.70561 0
M  V30 32883 C 3085.45 3.19118 -2.85215 0
M  V30 32884 C 3084.78 4.58793 -2.74614 0
M  V30 32885 C 3086.08 3.01532 -4.26469 0
M  V30 32886 H 3087.77 1.49399 -2.59462 0
M  V30 32887 H 3085.32 0.717304 -1.24863 0
M  V30 32888 H 3087.27 3.80295 -1.81531 0
M  V30 32889 H 3086 3.18121 -0.739353 0
M  V30 32890 H 3084.65 2.43774 -2.73806 0
M  V30 32891 H 3084.3 4.71223 -1.7595 0
M  V30 32892 H 3084 4.70834 -3.51552 0
M  V30 32893 H 3085.53 5.38649 -2.87557 0
M  V30 32894 H 3086.94 3.69084 -4.38691 0
M  V30 32895 H 3085.34 3.25064 -5.04434 0
M  V30 32896 H 3086.41 1.97917 -4.4267 0
M  V30 32897 N 3087.75 1.37206 0.775387 0
M  V30 32898 C 3089 1.31952 1.53078 0
M  V30 32899 C 3089.32 -0.0966521 1.9476 0
M  V30 32900 O 3088.59 -1.03991 1.6602 0
M  V30 32901 H 3087.17 0.485454 0.567753 0
M  V30 32902 H 3089.83 1.71655 0.92306 0
M  V30 32903 H 3088.93 1.95618 2.43187 0
M  V30 32904 N 3089.23 -1.00115 1.21716 0
M  V30 32905 C 3090.48 -1.73605 1.03468 0
M  V30 32906 C 3090.8 -1.90149 -0.432261 0
M  V30 32907 O 3090.07 -1.45518 -1.31154 0
M  V30 32908 H 3088.65 -0.643202 0.379868 0
M  V30 32909 H 3091.31 -1.20621 1.5309 0
M  V30 32910 H 3090.41 -2.73373 1.50578 0
M  V30 32911 N 3090.71 -1.02553 -1.19669 0
M  V30 32912 C 3091.96 -0.715305 -1.8859 0
M  V30 32913 C 3092.27 0.75895 -1.80276 0
M  V30 32914 O 3093.48 1.18209 -2.44416 0
M  V30 32915 C 3091.93 -1.22911 -3.38262 0
M  V30 32916 C 3091.54 -2.73091 -3.55142 0
M  V30 32917 C 3093.28 -0.994722 -4.12681 0
M  V30 32918 C 3091.19 -3.17906 -4.98688 0
M  V30 32919 H 3090.12 -0.263869 -0.706321 0
M  V30 32920 H 3092.77 -1.23939 -1.3532 0
M  V30 32921 H 3091.15 -0.632961 -3.90909 0
M  V30 32922 H 3092.33 -3.38332 -3.12839 0
M  V30 32923 H 3090.64 -2.94771 -2.94107 0
M  V30 32924 H 3093.24 -1.30487 -5.18534 0
M  V30 32925 H 3093.58 0.0685734 -4.16244 0
M  V30 32926 H 3094.12 -1.5547 -3.66161 0
M  V30 32927 H 3090.85 -4.2355 -5.00285 0
M  V30 32928 H 3090.37 -2.57391 -5.41766 0
M  V30 32929 H 3092.05 -3.11055 -5.67322 0
M  V30 32930 N 3092.19 1.35612 -0.802945 0
M  V30 32931 C 3093.6 1.81367 -0.443035 0
M  V30 32932 C 3093.95 1.66707 1.03456 0
M  V30 32933 O 3093.07 1.19564 1.8037 0
M  V30 32934 C 3093.67 3.29283 -0.797382 0
M  V30 32935 C 3092.23 3.73195 -0.49012 0
M  V30 32936 C 3091.37 2.57664 -1.02491 0
M  V30 32937 H 3094.32 1.23642 -0.99491 0
M  V30 32938 H 3094.35 3.80385 -0.0935307 0
M  V30 32939 H 3093.86 3.39921 -1.87284 0
M  V30 32940 H 3091.96 3.68109 0.576754 0
M  V30 32941 H 3092.07 4.68112 -1.0202 0
M  V30 32942 H 3090.44 2.50739 -0.447424 0
M  V30 32943 H 3091.22 2.71081 -2.10641 0
M  V30 32944 N 3093.66 0.556128 1.47462 0
M  V30 32945 C 3094.91 0.0317162 2.02775 0
M  V30 32946 C 3095.24 -1.31428 1.4297 0
M  V30 32947 O 3094.52 -1.85498 0.584879 0
M  V30 32948 C 3094.8 -0.0625109 3.60046 0
M  V30 32949 C 3094.65 1.3105 4.30286 0
M  V30 32950 C 3095.97 -0.776476 4.33196 0
M  V30 32951 H 3093.09 0.0129999 0.736885 0
M  V30 32952 H 3095.73 0.718208 1.75903 0
M  V30 32953 H 3093.88 -0.647163 3.83072 0
M  V30 32954 H 3095.56 1.93827 4.18603 0
M  V30 32955 H 3093.8 1.88547 3.90682 0
M  V30 32956 H 3094.47 1.1973 5.38859 0
M  V30 32957 H 3096.95 -0.280074 4.15156 0
M  V30 32958 H 3095.82 -0.811365 5.4287 0
M  V30 32959 H 3096.08 -1.83237 4.02339 0
M  V30 32960 N 3095.14 -1.54861 0.292527 0
M  V30 32961 C 3096.39 -1.99573 -0.318598 0
M  V30 32962 C 3096.71 -1.18243 -1.5506 0
M  V30 32963 O 3095.98 -0.27626 -1.93942 0
M  V30 32964 H 3094.56 -0.737183 -0.120709 0
M  V30 32965 H 3097.22 -1.90711 0.401896 0
M  V30 32966 H 3096.32 -3.06347 -0.596488 0
M  V30 32967 N 3096.62 -0.0200973 -1.57587 0
M  V30 32968 C 3097.87 0.66147 -1.91709 0
M  V30 32969 C 3098.2 1.72295 -0.895998 0
M  V30 32970 O 3097.47 1.94325 0.0825428 0
M  V30 32971 C 3097.76 1.28621 -3.36346 0
M  V30 32972 C 3097.61 0.234903 -4.49186 0
M  V30 32973 C 3098.93 2.20678 -3.80774 0
M  V30 32974 H 3096.05 0.238992 -0.697174 0
M  V30 32975 H 3098.69 -0.0755098 -1.8985 0
M  V30 32976 H 3096.84 1.91433 -3.38061 0
M  V30 32977 H 3098.51 -0.395091 -4.59605 0
M  V30 32978 H 3096.75 -0.440641 -4.31556 0
M  V30 32979 H 3097.43 0.711462 -5.47396 0
M  V30 32980 H 3099.9 1.67862 -3.80738 0
M  V30 32981 H 3098.78 2.61347 -4.82689 0
M  V30 32982 H 3099.04 3.09423 -3.15769 0
M  V30 32983 N 3098.1 1.55557 0.252939 0
M  V30 32984 C 3099.35 1.76308 0.979705 0
M  V30 32985 C 3099.66 0.582904 1.86713 0
M  V30 32986 O 3100.87 0.673293 2.63019 0
M  V30 32987 C 3099.32 3.12115 1.79199 0
M  V30 32988 C 3098.93 4.37763 0.952256 0
M  V30 32989 C 3100.67 3.42208 2.51185 0
M  V30 32990 C 3098.58 5.64602 1.76008 0
M  V30 32991 H 3097.51 0.657241 0.369527 0
M  V30 32992 H 3100.16 1.81994 0.234587 0
M  V30 32993 H 3098.54 3.0052 2.57883 0
M  V30 32994 H 3099.72 4.6033 0.20817 0
M  V30 32995 H 3098.03 4.1496 0.346009 0
M  V30 32996 H 3100.63 4.34187 3.12067 0
M  V30 32997 H 3100.97 2.63254 3.22495 0
M  V30 32998 H 3101.51 3.54991 1.79516 0
M  V30 32999 H 3098.24 6.4636 1.09084 0
M  V30 33000 H 3097.76 5.46146 2.47961 0
M  V30 33001 H 3099.44 6.03638 2.32874 0
M  V30 33002 N 3099.58 -0.518341 1.48832 0
M  V30 33003 C 3100.54 -1.60397 1.63724 0
M  V30 33004 C 3101.54 -1.52502 0.509884 0
M  V30 33005 O 3102.73 -1.55964 0.77595 0
M  V30 33006 C 3099.86 -3.00036 1.61837 0
M  V30 33007 H 3101.05 -1.48529 2.60536 0
M  V30 33008 H 3098.61 -0.741284 1.37603 0
M  V30 33009 H 3099.34 -3.17399 0.665443 0
M  V30 33010 H 3099.13 -3.07175 2.43692 0
M  V30 33011 H 3100.62 -3.78944 1.75474 0
M  V30 33012 N 3101.05 -1.37615 -0.7681 0
M  V30 33013 C 3102.3 -1.33222 -1.52904 0
M  V30 33014 C 3102.63 0.0820876 -1.94026 0
M  V30 33015 O 3101.91 1.0402 -1.64347 0
M  V30 33016 C 3102.19 -2.27468 -2.7916 0
M  V30 33017 C 3102.04 -3.77694 -2.44269 0
M  V30 33018 C 3103.36 -2.20095 -3.81112 0
M  V30 33019 H 3100.48 -0.485256 -0.554703 0
M  V30 33020 H 3103.12 -1.68346 -0.880882 0
M  V30 33021 H 3101.27 -1.97645 -3.34468 0
M  V30 33022 H 3102.95 -4.18129 -1.94848 0
M  V30 33023 H 3101.19 -3.96084 -1.76918 0
M  V30 33024 H 3101.86 -4.39078 -3.34537 0
M  V30 33025 H 3104.34 -2.46391 -3.35307 0
M  V30 33026 H 3103.21 -2.88174 -4.67169 0
M  V30 33027 H 3103.47 -1.19505 -4.25642 0
M  V30 33028 N 3102.53 0.994677 -1.22245 0
M  V30 33029 C 3103.44 2.11876 -1.00726 0
M  V30 33030 C 3104.46 1.73945 0.0438884 0
M  V30 33031 O 3105.63 2.00852 -0.148446 0
M  V30 33032 C 3102.7 3.41715 -0.585783 0
M  V30 33033 C 3101.76 3.93759 -1.71034 0
M  V30 33034 C 3100.99 5.17401 -1.30888 0
M  V30 33035 O 3101.22 5.70094 -0.18691 0
M  V30 33036 O 3100.15 5.63152 -2.1247 0
M  V30 33037 H 3103.98 2.32913 -1.94899 0
M  V30 33038 H 3101.56 1.10249 -1.00824 0
M  V30 33039 H 3103.44 4.19851 -0.361009 0
M  V30 33040 H 3102.12 3.22043 0.327109 0
M  V30 33041 H 3101.02 3.16804 -1.98962 0
M  V30 33042 H 3102.36 4.1786 -2.60103 0
M  V30 33043 N 3104.01 1.03186 1.19123 0
M  V30 33044 C 3105.24 0.749784 1.92836 0
M  V30 33045 C 3105.65 -0.69182 1.75668 0
M  V30 33046 O 3105.01 -1.47074 1.08053 0
M  V30 33047 C 3105.06 1.09532 3.44507 0
M  V30 33048 O 3104.78 2.48031 3.61126 0
M  V30 33049 C 3106.28 0.836473 4.35337 0
M  V30 33050 H 3103.5 0.274116 0.612455 0
M  V30 33051 H 3106.05 1.37715 1.51178 0
M  V30 33052 H 3104.2 0.513073 3.83987 0
M  V30 33053 H 3104.62 2.60992 4.54955 0
M  V30 33054 H 3106.09 1.12818 5.40348 0
M  V30 33055 H 3106.57 -0.229025 4.38602 0
M  V30 33056 H 3107.17 1.40159 4.01541 0
M  V30 33057 N 3105.49 -1.35184 0.810125 0
M  V30 33058 C 3106.9 -1.51753 0.494295 0
M  V30 33059 C 3107.1 -1.75847 -0.983876 0
M  V30 33060 O 3106.16 -1.80195 -1.76879 0
M  V30 33061 C 3107.47 -2.69056 1.34272 0
M  V30 33062 C 3109.02 -2.82935 1.33853 0
M  V30 33063 C 3109.5 -4.03268 2.17116 0
M  V30 33064 N 3110.99 -4.10452 2.14671 0
M  V30 33065 C 3111.72 -5.02686 2.75852 0
M  V30 33066 N 3111.22 -6.00229 3.45973 0
M  V30 33067 N 3113.01 -4.95459 2.65474 0
M  V30 33068 H 3105.16 -1.17802 1.76738 0
M  V30 33069 H 3107.43 -0.576663 0.752439 0
M  V30 33070 H 3107.13 -2.57841 2.39188 0
M  V30 33071 H 3107.01 -3.63746 0.998426 0
M  V30 33072 H 3109.39 -2.93599 0.297212 0
M  V30 33073 H 3109.47 -1.89092 1.72272 0
M  V30 33074 H 3109.12 -3.93364 3.2129 0
M  V30 33075 H 3109.05 -4.96299 1.76054 0
M  V30 33076 H 3111.54 -3.40626 1.63654 0
M  V30 33077 H 3111.85 -6.67212 3.89934 0
M  V30 33078 H 3110.2 -6.00392 3.50078 0
M  V30 33079 H 3113.39 -4.18212 2.10278 0
M  V30 33080 H 3113.56 -5.67149 3.13443 0
M  V30 33081 N 3106.97 -0.56394 -1.47165 0
M  V30 33082 C 3108.19 -0.047465 -2.06846 0
M  V30 33083 C 3108.61 1.24925 -1.4156 0
M  V30 33084 O 3107.97 1.751 -0.514407 0
M  V30 33085 C 3108.02 0.144767 -3.6121 0
M  V30 33086 O 3107.74 -1.10061 -4.2405 0
M  V30 33087 C 3109.24 0.697753 -4.37774 0
M  V30 33088 H 3106.46 -0.0489014 -0.669216 0
M  V30 33089 H 3109 -0.779269 -1.8907 0
M  V30 33090 H 3107.16 0.826723 -3.78476 0
M  V30 33091 H 3107.57 -0.902571 -5.16676 0
M  V30 33092 H 3109.05 0.78152 -5.4644 0
M  V30 33093 H 3109.52 1.71056 -4.0452 0
M  V30 33094 H 3110.13 0.0512769 -4.25269 0
M  V30 33095 N 3108.44 1.54704 -0.300735 0
M  V30 33096 C 3109.69 2.00431 0.309076 0
M  V30 33097 C 3110.02 1.18882 1.5356 0
M  V30 33098 O 3109.3 0.265239 1.92683 0
M  V30 33099 C 3109.58 3.53889 0.665933 0
M  V30 33100 C 3109.43 4.46177 -0.569709 0
M  V30 33101 C 3110.75 4.14018 1.49255 0
M  V30 33102 H 3107.87 0.728614 0.110865 0
M  V30 33103 H 3110.51 1.85462 -0.412781 0
M  V30 33104 H 3108.66 3.66775 1.28094 0
M  V30 33105 H 3110.34 4.45197 -1.20818 0
M  V30 33106 H 3108.58 4.16786 -1.203 0
M  V30 33107 H 3109.25 5.5131 -0.275882 0
M  V30 33108 H 3111.73 4.04566 0.972908 0
M  V30 33109 H 3110.6 5.21551 1.71102 0
M  V30 33110 H 3110.86 3.65876 2.48167 0
M  V30 33111 N 3109.92 0.0284543 1.57574 0
M  V30 33112 C 3110.83 -0.969322 2.13638 0
M  V30 33113 C 3111.85 -1.3575 1.08848 0
M  V30 33114 O 3113.02 -1.43905 1.40902 0
M  V30 33115 C 3110.09 -2.23335 2.65183 0
M  V30 33116 C 3109.15 -1.90565 3.84686 0
M  V30 33117 C 3108.38 -3.10942 4.33763 0
M  V30 33118 O 3108.61 -4.23579 3.82017 0
M  V30 33119 O 3107.54 -2.93279 5.25615 0
M  V30 33120 H 3111.37 -0.522617 2.9917 0
M  V30 33121 H 3108.95 -0.192109 1.4816 0
M  V30 33122 H 3110.83 -2.97541 2.98408 0
M  V30 33123 H 3109.51 -2.67188 1.82735 0
M  V30 33124 H 3108.42 -1.13746 3.56388 0
M  V30 33125 H 3109.75 -1.51529 4.68294 0
M  V30 33126 N 3111.4 -1.55689 -0.244686 0
M  V30 33127 C 3112.65 -1.77887 -0.973855 0
M  V30 33128 C 3112.98 -0.594104 -1.84889 0
M  V30 33129 O 3112.25 0.407531 -1.90183 0
M  V30 33130 C 3112.54 -3.09987 -1.83249 0
M  V30 33131 C 3112.39 -4.38871 -0.985494 0
M  V30 33132 C 3113.71 -3.38334 -2.81458 0
M  V30 33133 H 3110.83 -0.647171 -0.352617 0
M  V30 33134 H 3113.47 -1.88424 -0.24421 0
M  V30 33135 H 3111.62 -3.01135 -2.45459 0
M  V30 33136 H 3113.29 -4.59716 -0.381924 0
M  V30 33137 H 3111.54 -4.3283 -0.289944 0
M  V30 33138 H 3112.21 -5.27689 -1.62013 0
M  V30 33139 H 3114.68 -3.47163 -2.29384 0
M  V30 33140 H 3113.56 -4.31977 -3.38655 0
M  V30 33141 H 3113.82 -2.59355 -3.58033 0
M  V30 33142 N 3112.88 0.510441 -1.49105 0
M  V30 33143 C 3113.84 1.59526 -1.64572 0
M  V30 33144 C 3114.84 1.52229 -0.517964 0
M  V30 33145 O 3116.03 1.5555 -0.78421 0
M  V30 33146 C 3113.16 2.99174 -1.63426 0
M  V30 33147 H 3114.36 1.47145 -2.6132 0
M  V30 33148 H 3111.91 0.733976 -1.37994 0
M  V30 33149 H 3112.64 3.17042 -0.682266 0
M  V30 33150 H 3112.43 3.05879 -2.45317 0
M  V30 33151 H 3113.92 3.78008 -1.77481 0
M  V30 33152 N 3114.36 1.38021 0.760791 0
M  V30 33153 C 3115.6 1.34031 1.52196 0
M  V30 33154 C 3115.94 -0.0717968 1.94067 0
M  V30 33155 O 3115.21 -1.03147 1.64897 0
M  V30 33156 C 3115.49 2.28945 2.7795 0
M  V30 33157 C 3115.35 3.78984 2.42263 0
M  V30 33158 C 3116.67 2.22113 3.79939 0
M  V30 33159 H 3113.78 0.488191 0.552122 0
M  V30 33160 H 3116.43 1.68811 0.871941 0
M  V30 33161 H 3114.58 1.99416 3.33415 0
M  V30 33162 H 3116.25 4.19157 1.92628 0
M  V30 33163 H 3114.49 3.97017 1.74815 0
M  V30 33164 H 3115.16 4.40846 3.32203 0
M  V30 33165 H 3117.64 2.48166 3.33995 0
M  V30 33166 H 3116.51 2.90647 4.65634 0
M  V30 33167 H 3116.78 1.21761 4.25002 0
M  V30 33168 N 3115.83 -0.98818 1.22771 0
M  V30 33169 C 3117.25 -1.54293 1.05122 0
M  V30 33170 C 3117.6 -1.92408 -0.38387 0
M  V30 33171 O 3116.72 -1.75249 -1.26952 0
M  V30 33172 C 3117.32 -2.80372 1.90203 0
M  V30 33173 C 3115.88 -3.32273 1.76837 0
M  V30 33174 C 3115.02 -2.05323 1.86381 0
M  V30 33175 H 3117.97 -0.808734 1.36547 0
M  V30 33176 H 3117.99 -3.52921 1.42222 0
M  V30 33177 H 3117.51 -2.52599 2.94644 0
M  V30 33178 H 3115.61 -3.64943 0.751476 0
M  V30 33179 H 3115.72 -4.02557 2.59778 0
M  V30 33180 H 3114.08 -2.191 1.29873 0
M  V30 33181 H 3114.87 -1.79941 2.92363 0
M  V30 33182 N 3117.31 -1.03816 -1.18575 0
M  V30 33183 C 3118.28 -0.631499 -2.20329 0
M  V30 33184 C 3119.28 0.309788 -1.57788 0
M  V30 33185 O 3120.47 0.0955292 -1.73938 0
M  V30 33186 C 3117.6 0.0745363 -3.40819 0
M  V30 33187 H 3118.79 -1.53194 -2.57821 0
M  V30 33188 H 3116.34 -0.830421 -1.32415 0
M  V30 33189 H 3117.08 0.988892 -3.08855 0
M  V30 33190 H 3116.86 -0.601968 -3.87452 0
M  V30 33191 H 3118.35 0.345654 -4.16167 0
M  V30 33192 N 3118.79 1.34753 -0.817283 0
M  V30 33193 C 3120.07 1.92873 -0.325502 0
M  V30 33194 C 3120.45 1.74608 1.1864 0
M  V30 33195 O 3119.8 1.12144 1.99088 0
M  V30 33196 C 3120.01 3.40876 -0.74864 0
M  V30 33197 C 3121.35 4.18027 -0.744238 0
M  V30 33198 O 3122.38 3.49436 -0.69086 0
M  V30 33199 O 3121.24 5.40429 -0.812302 0
M  V30 33200 H 3118.33 0.822342 -0.0876542 0
M  V30 33201 H 3120.88 1.43762 -0.901696 0
M  V30 33202 H 3119.65 3.47946 -1.79023 0
M  V30 33203 H 3119.27 3.97325 -0.147833 0
M  V30 33204 N 3120.27 0.571737 1.46864 0
M  V30 33205 C 3121.68 0.142214 1.86158 0
M  V30 33206 C 3122.03 -1.29187 1.47665 0
M  V30 33207 O 3121.16 -1.97412 0.886428 0
M  V30 33208 C 3121.75 0.251316 3.37867 0
M  V30 33209 C 3120.31 -0.123263 3.76198 0
M  V30 33210 C 3119.46 0.59228 2.70901 0
M  V30 33211 H 3122.41 0.780612 1.38174 0
M  V30 33212 H 3122.43 -0.526265 3.76843 0
M  V30 33213 H 3121.94 1.29516 3.65851 0
M  V30 33214 H 3120.04 -1.16767 3.53831 0
M  V30 33215 H 3120.16 0.245414 4.78471 0
M  V30 33216 H 3118.52 0.0337374 2.54678 0
M  V30 33217 H 3119.3 1.63757 3.01726 0
M  V30 33218 N 3121.75 -1.54542 0.308935 0
M  V30 33219 C 3122.71 -2.22483 -0.550818 0
M  V30 33220 C 3123.71 -1.21345 -1.05508 0
M  V30 33221 O 3124.9 -1.46026 -0.94984 0
M  V30 33222 C 3122.03 -2.91743 -1.76349 0
M  V30 33223 H 3123.23 -2.99869 0.0428922 0
M  V30 33224 H 3120.78 -1.56185 0.0598524 0
M  V30 33225 H 3121.51 -2.18456 -2.39682 0
M  V30 33226 H 3121.3 -3.65891 -1.40947 0
M  V30 33227 H 3122.79 -3.43549 -2.37411 0
M  V30 33228 N 3123.23 -0.0368104 -1.57557 0
M  V30 33229 C 3124.17 0.960416 -2.11846 0
M  V30 33230 C 3125.17 1.33183 -1.04684 0
M  V30 33231 O 3126.37 1.31316 -1.2311 0
M  V30 33232 H 3122.75 0.327528 -0.676926 0
M  V30 33233 H 3124.72 0.477294 -2.94558 0
M  V30 33234 C 3123.47 2.231 -2.66687 0
M  V30 33235 H 3122.79 1.95397 -3.48798 0
M  V30 33236 H 3124.23 2.91069 -3.0831 0
M  V30 33237 C 3122.69 2.96597 -1.59788 0
M  V30 33238 O 3123.22 3.88997 -1.00221 0
M  V30 33239 N 3121.43 2.59069 -1.31649 0
M  V30 33240 H 3120.97 1.84007 -1.80275 0
M  V30 33241 H 3120.93 3.08553 -0.603511 0
M  V30 33242 N 3124.7 1.55817 0.236426 0
M  V30 33243 C 3125.63 1.94208 1.29636 0
M  V30 33244 C 3126.61 0.808346 1.49666 0
M  V30 33245 O 3127.8 1.06947 1.62098 0
M  V30 33246 C 3124.93 2.24589 2.6491 0
M  V30 33247 C 3123.88 3.40313 2.59559 0
M  V30 33248 C 3123.21 3.56261 3.98726 0
M  V30 33249 C 3124.51 4.7571 2.15633 0
M  V30 33250 H 3126.2 2.82993 0.977503 0
M  V30 33251 H 3123.75 1.36156 0.46878 0
M  V30 33252 H 3125.7 2.50037 3.39204 0
M  V30 33253 H 3124.43 1.32641 2.98453 0
M  V30 33254 H 3123.09 3.1489 1.87722 0
M  V30 33255 H 3122.73 2.61715 4.29551 0
M  V30 33256 H 3122.43 4.34089 3.96031 0
M  V30 33257 H 3123.96 3.84041 4.74705 0
M  V30 33258 H 3125.37 5.00461 2.79664 0
M  V30 33259 H 3123.77 5.56714 2.24029 0
M  V30 33260 H 3124.84 4.72066 1.10822 0
M  V30 33261 N 3126.18 -0.502526 1.49373 0
M  V30 33262 C 3127.46 -1.26387 1.49284 0
M  V30 33263 C 3127.84 -2.09954 0.219711 0
M  V30 33264 O 3127.19 -2.14114 -0.797954 0
M  V30 33265 C 3127.4 -2.12189 2.77086 0
M  V30 33266 C 3128.74 -2.71427 3.26515 0
M  V30 33267 O 3129.77 -2.22457 2.78193 0
M  V30 33268 O 3128.63 -3.60571 4.10671 0
M  V30 33269 H 3125.72 -0.57185 0.597425 0
M  V30 33270 H 3128.27 -0.516922 1.61635 0
M  V30 33271 H 3127.04 -1.50405 3.6124 0
M  V30 33272 H 3126.66 -2.94079 2.67588 0
M  V30 33273 N 3127.66 -1.38422 -0.75346 0
M  V30 33274 C 3128.88 -1.3805 -1.54781 0
M  V30 33275 C 3129.31 0.027604 -1.8808 0
M  V30 33276 O 3128.67 1.0097 -1.50581 0
M  V30 33277 C 3128.72 -2.24302 -2.82349 0
M  V30 33278 O 3127.82 -1.6602 -3.77506 0
M  V30 33279 H 3127.16 -0.470891 -0.468143 0
M  V30 33280 H 3129.69 -1.82185 -0.931112 0
M  V30 33281 H 3129.7 -2.38165 -3.31273 0
M  V30 33282 H 3128.38 -3.26643 -2.57443 0
M  V30 33283 H 3126.95 -1.613 -3.3621 0
M  V30 33284 N 3129.14 0.981655 -1.23294 0
M  V30 33285 C 3130.05 2.10796 -1.02967 0
M  V30 33286 C 3131.06 1.73981 0.0254368 0
M  V30 33287 O 3132.24 2.00683 -0.169741 0
M  V30 33288 C 3129.3 3.41075 -0.621994 0
M  V30 33289 C 3128.37 3.91922 -1.75201 0
M  V30 33290 C 3127.6 5.15984 -1.36368 0
M  V30 33291 O 3127.82 5.69863 -0.247365 0
M  V30 33292 O 3126.76 5.60867 -2.18431 0
M  V30 33293 H 3130.58 2.30832 -1.97358 0
M  V30 33294 H 3128.17 1.09174 -1.01988 0
M  V30 33295 H 3130.05 4.19444 -0.405519 0
M  V30 33296 H 3128.72 3.22372 0.292934 0
M  V30 33297 H 3127.63 3.14676 -2.02311 0
M  V30 33298 H 3128.96 4.15078 -2.64521 0
M  V30 33299 N 3130.62 1.04444 1.18022 0
M  V30 33300 C 3131.58 0.643174 2.19991 0
M  V30 33301 C 3132.58 -0.301416 1.5795 0
M  V30 33302 O 3133.77 -0.0863035 1.73986 0
M  V30 33303 C 3130.9 -0.0564609 3.40853 0
M  V30 33304 H 3132.09 1.54559 2.57005 0
M  V30 33305 H 3129.65 0.837432 1.31973 0
M  V30 33306 H 3130.38 -0.972499 3.09375 0
M  V30 33307 H 3130.17 0.622507 3.87127 0
M  V30 33308 H 3131.66 -0.323579 4.16344 0
M  V30 33309 N 3132.09 -1.34317 0.824418 0
M  V30 33310 C 3133.04 -2.29493 0.245322 0
M  V30 33311 C 3134.01 -1.53659 -0.630735 0
M  V30 33312 O 3135.2 -1.82022 -0.572062 0
M  V30 33313 C 3132.34 -3.40096 -0.585572 0
M  V30 33314 C 3131.45 -4.30865 0.312897 0
M  V30 33315 C 3130.58 -5.28572 -0.527708 0
M  V30 33316 C 3129.62 -6.1098 0.370054 0
M  V30 33317 N 3128.76 -7.00772 -0.431566 0
M  V30 33318 H 3133.6 -2.78423 1.0623 0
M  V30 33319 H 3131.14 -1.37012 0.535354 0
M  V30 33320 H 3133.09 -4.02908 -1.08264 0
M  V30 33321 H 3131.72 -2.92396 -1.36765 0
M  V30 33322 H 3130.78 -3.68902 0.928194 0
M  V30 33323 H 3132.09 -4.88609 1.00315 0
M  V30 33324 H 3131.24 -5.96843 -1.0892 0
M  V30 33325 H 3129.98 -4.7137 -1.25146 0
M  V30 33326 H 3128.99 -5.41641 0.943672 0
M  V30 33327 H 3130.21 -6.70264 1.09194 0
M  V30 33328 H 3128.16 -6.46037 -1.13896 0
M  V30 33329 H 3128.07 -7.55735 0.200266 0
M  V30 33330 H 3129.34 -7.73369 -0.975759 0
M  V30 33331 N 3133.57 -0.579517 -1.46558 0
M  V30 33332 C 3134.82 -0.061609 -2.01606 0
M  V30 33333 C 3135.13 1.30505 -1.45697 0
M  V30 33334 O 3136.34 1.91413 -1.92545 0
M  V30 33335 C 3134.8 -0.0595593 -3.59851 0
M  V30 33336 C 3134.4 -1.42434 -4.24755 0
M  V30 33337 C 3136.15 0.404572 -4.22568 0
M  V30 33338 C 3134.05 -1.38019 -5.75069 0
M  V30 33339 H 3132.98 -0.0192623 -0.753754 0
M  V30 33340 H 3135.64 -0.73069 -1.68325 0
M  V30 33341 H 3134.02 0.675622 -3.90194 0
M  V30 33342 H 3135.19 -2.179 -4.06025 0
M  V30 33343 H 3133.51 -1.82824 -3.74118 0
M  V30 33344 H 3136.1 0.456347 -5.32749 0
M  V30 33345 H 3136.45 1.42142 -3.91282 0
M  V30 33346 H 3136.98 -0.276445 -3.96838 0
M  V30 33347 H 3133.72 -2.37375 -6.1101 0
M  V30 33348 H 3133.24 -0.667688 -5.96072 0
M  V30 33349 H 3134.92 -1.09174 -6.37723 0
M  V30 33350 N 3135.05 1.54376 -0.317127 0
M  V30 33351 C 3136.3 1.9963 0.288236 0
M  V30 33352 C 3136.61 1.20912 1.53752 0
M  V30 33353 O 3137.82 1.56512 2.21848 0
M  V30 33354 C 3136.27 3.55451 0.564125 0
M  V30 33355 C 3135.88 4.42996 -0.667737 0
M  V30 33356 C 3137.63 4.09189 1.1298 0
M  V30 33357 C 3135.53 5.90278 -0.364107 0
M  V30 33358 H 3134.46 0.745713 0.111479 0
M  V30 33359 H 3137.11 1.7843 -0.428348 0
M  V30 33360 H 3135.5 3.72613 1.34073 0
M  V30 33361 H 3136.67 4.37609 -1.44342 0
M  V30 33362 H 3134.99 4.00114 -1.15317 0
M  V30 33363 H 3137.58 5.16812 1.37148 0
M  V30 33364 H 3137.93 3.60777 2.07716 0
M  V30 33365 H 3138.46 3.95634 0.414526 0
M  V30 33366 H 3135.2 6.42872 -1.28047 0
M  V30 33367 H 3134.72 5.98633 0.373997 0
M  V30 33368 H 3136.4 6.46994 0.0284296 0
M  V30 33369 N 3136.53 0.0451655 1.57535 0
M  V30 33370 C 3137.46 -0.960336 2.08111 0
M  V30 33371 C 3138.47 -1.27863 1.00772 0
M  V30 33372 O 3139.66 -1.24047 1.28353 0
M  V30 33373 C 3136.76 -2.2835 2.50418 0
M  V30 33374 C 3135.94 -2.14802 3.81024 0
M  V30 33375 C 3134.99 -3.3019 4.09708 0
M  V30 33376 O 3134.02 -3.06362 4.7972 0
M  V30 33377 N 3135.22 -4.54482 3.61146 0
M  V30 33378 H 3137.99 -0.5287 2.95 0
M  V30 33379 H 3135.55 -0.14122 1.61283 0
M  V30 33380 H 3137.54 -3.044 2.66688 0
M  V30 33381 H 3136.11 -2.63101 1.6881 0
M  V30 33382 H 3135.33 -1.2338 3.74394 0
M  V30 33383 H 3136.62 -2.0297 4.66563 0
M  V30 33384 H 3136.02 -4.76733 3.04535 0
M  V30 33385 H 3134.57 -5.27647 3.82665 0
M  V30 33386 N 3138.01 -1.5594 -0.228159 0
M  V30 33387 C 3138.94 -1.8835 -1.30602 0
M  V30 33388 C 3139.95 -0.771223 -1.43374 0
M  V30 33389 O 3141.14 -1.04948 -1.44389 0
M  V30 33390 C 3138.24 -2.07119 -2.68244 0
M  V30 33391 C 3137.41 -3.38099 -2.77503 0
M  V30 33392 C 3136.47 -3.4638 -3.96115 0
M  V30 33393 O 3135.5 -4.1946 -3.84763 0
M  V30 33394 N 3136.7 -2.7704 -5.10127 0
M  V30 33395 H 3139.47 -2.81398 -1.03127 0
M  V30 33396 H 3137.03 -1.56405 -0.418218 0
M  V30 33397 H 3139.02 -2.09982 -3.45962 0
M  V30 33398 H 3137.59 -1.20728 -2.88346 0
M  V30 33399 H 3136.81 -3.47391 -1.86314 0
M  V30 33400 H 3138.1 -4.24394 -2.80654 0
M  V30 33401 H 3137.49 -2.17433 -5.22245 0
M  V30 33402 H 3136.05 -2.85572 -5.85911 0
M  V30 33403 N 3139.48 0.494597 -1.49638 0
M  V30 33404 C 3140.45 1.57772 -1.66255 0
M  V30 33405 C 3141.45 1.51671 -0.534081 0
M  V30 33406 O 3142.64 1.54709 -0.800664 0
M  V30 33407 C 3139.77 2.97423 -1.6659 0
M  V30 33408 H 3140.96 1.44365 -2.62866 0
M  V30 33409 H 3138.52 0.719299 -1.38765 0
M  V30 33410 H 3139.25 3.16301 -0.715854 0
M  V30 33411 H 3139.04 3.0326 -2.48548 0
M  V30 33412 H 3140.53 3.76105 -1.8148 0
M  V30 33413 N 3140.96 1.3882 0.746109 0
M  V30 33414 C 3142.21 1.3517 1.50245 0
M  V30 33415 C 3142.53 -0.0553188 1.94922 0
M  V30 33416 O 3141.8 -1.00446 1.68189 0
M  V30 33417 H 3140.38 0.497387 0.557328 0
M  V30 33418 H 3143.04 1.73575 0.886442 0
M  V30 33419 H 3142.14 2.00733 2.38983 0
M  V30 33420 N 3142.44 -0.975103 1.23812 0
M  V30 33421 C 3143.37 -2.07106 0.981815 0
M  V30 33422 C 3144.39 -1.62735 -0.0460925 0
M  V30 33423 O 3145.57 -1.77485 0.19007 0
M  V30 33424 C 3142.67 -3.35785 0.458423 0
M  V30 33425 C 3141.85 -4.09101 1.54774 0
M  V30 33426 C 3140.91 -5.16055 1.02829 0
M  V30 33427 O 3139.93 -5.42641 1.71841 0
M  V30 33428 N 3141.13 -5.80328 -0.141141 0
M  V30 33429 H 3143.9 -2.2967 1.92541 0
M  V30 33430 H 3141.46 -1.14219 1.14742 0
M  V30 33431 H 3143.45 -4.04587 0.0958397 0
M  V30 33432 H 3142.02 -3.10149 -0.390714 0
M  V30 33433 H 3141.24 -3.3468 2.08285 0
M  V30 33434 H 3142.53 -4.54849 2.28014 0
M  V30 33435 H 3141.93 -5.61121 -0.718283 0
M  V30 33436 H 3140.49 -6.5028 -0.444938 0
M  V30 33437 N 3143.92 -1.05068 -1.17467 0
M  V30 33438 C 3145.16 -0.761146 -1.87975 0
M  V30 33439 C 3145.5 0.709963 -1.80757 0
M  V30 33440 O 3144.77 1.51904 -1.21472 0
M  V30 33441 C 3145.06 -1.24066 -3.38053 0
M  V30 33442 C 3144.91 -2.77461 -3.54027 0
M  V30 33443 C 3146.23 -0.838688 -4.32035 0
M  V30 33444 H 3143.35 -0.277975 -0.682568 0
M  V30 33445 H 3145.99 -1.30445 -1.38145 0
M  V30 33446 H 3144.14 -0.778455 -3.80621 0
M  V30 33447 H 3145.81 -3.31796 -3.20483 0
M  V30 33448 H 3144.05 -3.16798 -2.96347 0
M  V30 33449 H 3144.72 -3.06074 -4.59372 0
M  V30 33450 H 3147.2 -1.23658 -3.97301 0
M  V30 33451 H 3146.08 -1.20183 -5.35581 0
M  V30 33452 H 3146.34 0.257421 -4.4135 0
M  V30 33453 N 3145.4 1.33878 -0.831529 0
M  V30 33454 C 3146.64 1.98726 -0.433544 0
M  V30 33455 C 3147 1.64705 0.994479 0
M  V30 33456 O 3146.29 0.912845 1.68457 0
M  V30 33457 C 3146.48 3.52616 -0.582795 0
M  V30 33458 C 3146.31 4.01589 -2.02378 0
M  V30 33459 C 3145.08 4.29775 -2.65747 0
M  V30 33460 C 3147.28 4.1834 -2.9916 0
M  V30 33461 N 3145.26 4.64839 -4.00997 0
M  V30 33462 C 3146.63 4.5668 -4.19337 0
M  V30 33463 C 3148.69 4.0061 -2.95662 0
M  V30 33464 C 3147.39 4.79143 -5.36483 0
M  V30 33465 C 3149.42 4.24244 -4.12032 0
M  V30 33466 C 3148.78 4.6288 -5.30963 0
M  V30 33467 H 3144.88 0.754127 -0.206923 0
M  V30 33468 H 3147.46 1.6213 -1.07805 0
M  V30 33469 H 3145.63 3.88387 0.0318619 0
M  V30 33470 H 3147.37 4.04395 -0.15697 0
M  V30 33471 H 3144.12 4.20996 -2.16931 0
M  V30 33472 H 3144.55 4.86592 -4.70698 0
M  V30 33473 H 3149.19 3.69861 -2.04848 0
M  V30 33474 H 3146.91 5.08756 -6.27848 0
M  V30 33475 H 3150.49 4.12053 -4.10735 0
M  V30 33476 H 3149.37 4.80806 -6.19512 0
M  V30 33477 N 3146.87 0.587281 1.46249 0
M  V30 33478 C 3148.12 0.0746102 2.02363 0
M  V30 33479 C 3148.45 -1.2871 1.45822 0
M  V30 33480 O 3147.7 -1.85787 0.614955 0
M  V30 33481 C 3148 -0.0362652 3.57382 0
M  V30 33482 C 3147.67 1.25845 4.32983 0
M  V30 33483 C 3146.33 1.61314 4.53355 0
M  V30 33484 C 3148.68 2.11502 4.76357 0
M  V30 33485 C 3146.01 2.82232 5.14356 0
M  V30 33486 C 3148.36 3.31651 5.38693 0
M  V30 33487 C 3147.03 3.67397 5.57293 0
M  V30 33488 H 3146.3 0.0273018 0.740497 0
M  V30 33489 H 3148.94 0.764834 1.75563 0
M  V30 33490 H 3147.25 -0.809644 3.83343 0
M  V30 33491 H 3148.95 -0.448768 3.98481 0
M  V30 33492 H 3145.54 0.972324 4.17425 0
M  V30 33493 H 3149.72 1.85402 4.60369 0
M  V30 33494 H 3144.98 3.1006 5.26947 0
M  V30 33495 H 3149.15 3.9829 5.7126 0
M  V30 33496 H 3146.78 4.61183 6.04329 0
M  V30 33497 N 3148.35 -1.54206 0.325309 0
M  V30 33498 C 3149.76 -1.85992 -0.162393 0
M  V30 33499 C 3150.11 -1.24693 -1.5148 0
M  V30 33500 O 3149.24 -0.553615 -2.09199 0
M  V30 33501 C 3149.83 -3.37456 -0.301441 0
M  V30 33502 C 3148.39 -3.69187 -0.733365 0
M  V30 33503 C 3147.54 -2.76926 0.14388 0
M  V30 33504 H 3150.49 -1.49029 0.545534 0
M  V30 33505 H 3150.51 -3.6327 -1.13205 0
M  V30 33506 H 3150.02 -3.82043 0.683009 0
M  V30 33507 H 3148.13 -3.30134 -1.7275 0
M  V30 33508 H 3148.24 -4.76093 -0.535903 0
M  V30 33509 H 3146.6 -2.51837 -0.380848 0
M  V30 33510 H 3147.39 -3.24339 1.12513 0
M  V30 33511 N 3149.83 -0.0535194 -1.57509 0
M  V30 33512 C 3151.11 0.659735 -1.84138 0
M  V30 33513 C 3151.49 1.88897 -0.942395 0
M  V30 33514 O 3150.84 2.285 -0.00402583 0
M  V30 33515 C 3151.05 1.0148 -3.3392 0
M  V30 33516 C 3152.39 1.39609 -4.00992 0
M  V30 33517 O 3153.42 1.10707 -3.38559 0
M  V30 33518 O 3152.28 1.93558 -5.11075 0
M  V30 33519 H 3149.37 0.32588 -0.760086 0
M  V30 33520 H 3151.92 -0.0830613 -1.69497 0
M  V30 33521 H 3150.69 0.140972 -3.91046 0
M  V30 33522 H 3150.31 1.81496 -3.53758 0
M  V30 33523 N 3151.31 1.56059 0.219886 0
M  V30 33524 C 3152.53 1.8358 0.965041 0
M  V30 33525 C 3152.96 0.634055 1.77091 0
M  V30 33526 O 3152.32 -0.417174 1.76435 0
M  V30 33527 C 3152.37 3.09108 1.857 0
M  V30 33528 O 3151.47 2.87919 2.95256 0
M  V30 33529 H 3150.81 0.605209 0.273163 0
M  V30 33530 H 3153.34 2.03272 0.232695 0
M  V30 33531 H 3153.35 3.39256 2.26649 0
M  V30 33532 H 3152.03 3.96205 1.26469 0
M  V30 33533 H 3150.6 2.69009 2.58241 0
M  V30 33534 N 3152.79 -0.486655 1.49898 0
M  V30 33535 C 3153.75 -1.56888 1.67089 0
M  V30 33536 C 3154.75 -1.51386 0.542117 0
M  V30 33537 O 3155.94 -1.54283 0.808858 0
M  V30 33538 C 3153.07 -2.96536 1.68165 0
M  V30 33539 H 3154.27 -1.42969 2.63628 0
M  V30 33540 H 3151.82 -0.71193 1.39145 0
M  V30 33541 H 3152.55 -3.15916 0.732618 0
M  V30 33542 H 3152.34 -3.01937 2.50153 0
M  V30 33543 H 3153.83 -3.75137 1.83472 0
M  V30 33544 N 3154.27 -1.39214 -0.738737 0
M  V30 33545 C 3155.5 -1.39297 -1.52577 0
M  V30 33546 C 3155.9 0.0152667 -1.89194 0
M  V30 33547 O 3155.25 0.996046 -1.54352 0
M  V30 33548 C 3155.31 -2.19827 -2.84458 0
M  V30 33549 C 3154.97 -3.68496 -2.70296 0
M  V30 33550 C 3155.97 -4.6166 -2.39094 0
M  V30 33551 C 3153.65 -4.12035 -2.87284 0
M  V30 33552 C 3155.65 -5.96346 -2.25056 0
M  V30 33553 C 3153.34 -5.46798 -2.72865 0
M  V30 33554 C 3154.33 -6.38768 -2.41795 0
M  V30 33555 O 3154.02 -7.71049 -2.27461 0
M  V30 33556 H 3153.75 -0.477781 -0.478228 0
M  V30 33557 H 3156.31 -1.83603 -0.920813 0
M  V30 33558 H 3154.54 -1.70263 -3.47199 0
M  V30 33559 H 3156.23 -2.12135 -3.46054 0
M  V30 33560 H 3156.99 -4.29324 -2.25624 0
M  V30 33561 H 3152.87 -3.40786 -3.1046 0
M  V30 33562 H 3156.42 -6.68098 -2.00727 0
M  V30 33563 H 3152.31 -5.78727 -2.85912 0
M  V30 33564 H 3153.08 -7.81733 -2.4256 0
M  V30 33565 N 3155.74 0.968523 -1.24328 0
M  V30 33566 C 3156.69 2.06295 -1.03493 0
M  V30 33567 C 3157.66 1.6602 0.0515041 0
M  V30 33568 O 3158.85 1.90522 -0.102957 0
M  V30 33569 C 3155.99 3.3902 -0.644929 0
M  V30 33570 C 3155.1 3.92495 -1.80476 0
M  V30 33571 C 3154.23 5.13484 -1.36041 0
M  V30 33572 C 3153.27 5.59154 -2.49024 0
M  V30 33573 N 3152.41 6.71364 -2.05463 0
M  V30 33574 H 3157.25 2.2345 -1.97165 0
M  V30 33575 H 3154.79 1.09518 -0.982047 0
M  V30 33576 H 3156.74 4.1528 -0.399844 0
M  V30 33577 H 3155.37 3.21793 0.254788 0
M  V30 33578 H 3154.43 3.12883 -2.16353 0
M  V30 33579 H 3155.74 4.22349 -2.65373 0
M  V30 33580 H 3154.89 5.97115 -1.07416 0
M  V30 33581 H 3153.63 4.85313 -0.481972 0
M  V30 33582 H 3152.64 4.74097 -2.7841 0
M  V30 33583 H 3153.86 5.8934 -3.37424 0
M  V30 33584 H 3151.81 6.44928 -1.20016 0
M  V30 33585 H 3151.72 7.00663 -2.83914 0
M  V30 33586 H 3152.99 7.58439 -1.79975 0
M  V30 33587 N 3157.22 1.0569 1.16908 0
M  V30 33588 C 3158.45 0.790519 1.91203 0
M  V30 33589 C 3158.86 -0.654403 1.77096 0
M  V30 33590 O 3158.22 -1.44749 1.11148 0
M  V30 33591 C 3158.27 1.16814 3.42106 0
M  V30 33592 O 3157.99 2.55636 3.55784 0
M  V30 33593 C 3159.49 0.928626 4.33464 0
M  V30 33594 H 3156.71 0.287045 0.606503 0
M  V30 33595 H 3159.26 1.40891 1.48223 0
M  V30 33596 H 3157.41 0.594407 3.82813 0
M  V30 33597 H 3157.83 2.70583 4.49316 0
M  V30 33598 H 3159.3 1.24254 5.37834 0
M  V30 33599 H 3159.78 -0.135939 4.3899 0
M  V30 33600 H 3160.38 1.48645 3.98478 0
M  V30 33601 N 3158.7 -1.33435 0.838617 0
M  V30 33602 C 3159.66 -2.27521 0.276883 0
M  V30 33603 C 3160.66 -1.50946 -0.554249 0
M  V30 33604 O 3161.85 -1.70267 -0.368077 0
M  V30 33605 C 3158.98 -3.35398 -0.609977 0
M  V30 33606 H 3160.18 -2.78717 1.1071 0
M  V30 33607 H 3157.73 -1.43834 0.611682 0
M  V30 33608 H 3158.47 -2.89443 -1.46264 0
M  V30 33609 H 3158.25 -3.92097 -0.0152926 0
M  V30 33610 H 3159.74 -4.05541 -0.996297 0
M  V30 33611 N 3160.18 -0.595029 -1.45935 0
M  V30 33612 C 3161.11 0.169096 -2.28575 0
M  V30 33613 C 3162.12 0.843767 -1.39228 0
M  V30 33614 O 3163.31 0.711262 -1.63717 0
M  V30 33615 C 3160.41 1.2597 -3.14618 0
M  V30 33616 C 3159.58 0.674584 -4.32167 0
M  V30 33617 C 3158.64 1.65447 -4.99514 0
M  V30 33618 O 3157.67 1.18568 -5.56714 0
M  V30 33619 N 3158.87 2.98876 -4.97648 0
M  V30 33620 H 3161.64 -0.53996 -2.94796 0
M  V30 33621 H 3159.2 -0.433642 -1.55984 0
M  V30 33622 H 3161.19 1.91477 -3.56537 0
M  V30 33623 H 3159.76 1.87145 -2.5039 0
M  V30 33624 H 3158.98 -0.158253 -3.93882 0
M  V30 33625 H 3160.27 0.263663 -5.08116 0
M  V30 33626 H 3159.67 3.39575 -4.52444 0
M  V30 33627 H 3158.22 3.59839 -5.4347 0
M  V30 33628 N 3161.66 1.54031 -0.333483 0
M  V30 33629 C 3162.62 2.23331 0.515353 0
M  V30 33630 C 3163.62 1.23009 1.03564 0
M  V30 33631 O 3164.81 1.47519 0.926488 0
M  V30 33632 C 3161.94 2.94511 1.71685 0
M  V30 33633 H 3163.13 2.99763 -0.0905934 0
M  V30 33634 H 3160.69 1.5607 -0.0846926 0
M  V30 33635 H 3161.42 2.22241 2.36177 0
M  V30 33636 H 3161.21 3.68087 1.35108 0
M  V30 33637 H 3162.7 3.47282 2.31915 0
M  V30 33638 N 3163.13 0.0618717 1.57479 0
M  V30 33639 C 3164.38 -0.610409 1.93396 0
M  V30 33640 C 3164.71 -1.69859 0.941364 0
M  V30 33641 O 3163.99 -1.94475 -0.030992 0
M  V30 33642 C 3164.27 -1.19658 3.39638 0
M  V30 33643 C 3164.12 -0.115726 4.49651 0
M  V30 33644 C 3165.44 -2.10505 3.86491 0
M  V30 33645 H 3162.56 -0.220424 0.703265 0
M  V30 33646 H 3165.2 0.125819 1.89583 0
M  V30 33647 H 3163.35 -1.82403 3.43018 0
M  V30 33648 H 3165.03 0.516809 4.58396 0
M  V30 33649 H 3163.27 0.554905 4.30236 0
M  V30 33650 H 3163.94 -0.566079 5.4909 0
M  V30 33651 H 3166.42 -1.57708 3.85055 0
M  V30 33652 H 3165.29 -2.48458 4.89449 0
M  V30 33653 H 3165.55 -3.00942 3.23862 0
M  V30 33654 N 3164.61 -1.56173 -0.211607 0
M  V30 33655 C 3165.56 -1.93223 -1.26228 0
M  V30 33656 C 3166.53 -0.790666 -1.46074 0
M  V30 33657 O 3167.71 -1.04742 -1.5948 0
M  V30 33658 C 3164.85 -2.26285 -2.60555 0
M  V30 33659 C 3163.97 -3.53425 -2.48425 0
M  V30 33660 C 3163.1 -3.75887 -3.75343 0
M  V30 33661 C 3162.14 -4.96507 -3.57977 0
M  V30 33662 N 3161.28 -5.15307 -4.76868 0
M  V30 33663 H 3166.12 -2.82809 -0.939317 0
M  V30 33664 H 3163.66 -1.39968 -0.452487 0
M  V30 33665 H 3165.61 -2.43467 -3.38792 0
M  V30 33666 H 3164.24 -1.39861 -2.90928 0
M  V30 33667 H 3163.3 -3.44382 -1.61571 0
M  V30 33668 H 3164.61 -4.41815 -2.31518 0
M  V30 33669 H 3163.76 -3.93218 -4.62022 0
M  V30 33670 H 3162.5 -2.85795 -3.95186 0
M  V30 33671 H 3161.51 -4.79115 -2.69682 0
M  V30 33672 H 3162.73 -5.88092 -3.39595 0
M  V30 33673 H 3160.68 -4.28161 -4.97006 0
M  V30 33674 H 3160.59 -5.97848 -4.62725 0
M  V30 33675 H 3161.86 -5.37083 -5.64944 0
M  V30 33676 N 3166.09 0.478699 -1.50154 0
M  V30 33677 C 3167.37 1.23996 -1.51276 0
M  V30 33678 C 3167.75 2.09577 -0.253085 0
M  V30 33679 O 3167.1 2.15357 0.763789 0
M  V30 33680 C 3167.31 2.07754 -2.80427 0
M  V30 33681 C 3168.65 2.66199 -3.30792 0
M  V30 33682 O 3169.68 2.18003 -2.81697 0
M  V30 33683 O 3168.54 3.53992 -4.16356 0
M  V30 33684 H 3165.63 0.562273 -0.606447 0
M  V30 33685 H 3168.18 0.491142 -1.62437 0
M  V30 33686 H 3166.95 1.44639 -3.63587 0
M  V30 33687 H 3166.57 2.89785 -2.72233 0
M  V30 33688 N 3167.57 1.39603 0.731343 0
M  V30 33689 C 3168.82 1.37026 1.49098 0
M  V30 33690 C 3169.14 -0.0326082 1.94473 0
M  V30 33691 O 3168.4 -1.01415 1.67372 0
M  V30 33692 C 3168.7 2.29212 2.7422 0
M  V30 33693 C 3168.36 3.76775 2.47693 0
M  V30 33694 C 3167.03 4.16981 2.40168 0
M  V30 33695 C 3169.38 4.7009 2.25089 0
M  V30 33696 C 3166.71 5.48559 2.08086 0
M  V30 33697 C 3169.06 6.0195 1.94523 0
M  V30 33698 C 3167.72 6.41216 1.85469 0
M  V30 33699 H 3166.99 0.501414 0.545586 0
M  V30 33700 H 3169.64 1.72138 0.839096 0
M  V30 33701 H 3167.94 1.87231 3.44168 0
M  V30 33702 H 3169.64 2.2451 3.3226 0
M  V30 33703 H 3166.23 3.44911 2.5443 0
M  V30 33704 H 3170.41 4.39857 2.29868 0
M  V30 33705 H 3165.67 5.77901 1.99601 0
M  V30 33706 H 3169.84 6.73782 1.76043 0
M  V30 33707 H 3167.47 7.43091 1.60376 0
M  V30 33708 N 3169.05 -0.961916 1.2484 0
M  V30 33709 C 3169.99 -2.07873 1.04364 0
M  V30 33710 C 3170.99 -1.69384 -0.0232233 0
M  V30 33711 O 3172.19 -1.79517 0.131805 0
M  V30 33712 H 3168.57 -0.68028 0.320504 0
M  V30 33713 H 3170.54 -2.22302 1.99058 0
M  V30 33714 C 3169.29 -3.41158 0.671306 0
M  V30 33715 H 3168.61 -3.71237 1.48402 0
M  V30 33716 H 3170.05 -4.20183 0.567682 0
M  V30 33717 C 3168.51 -3.31107 -0.622065 0
M  V30 33718 O 3169.04 -3.65514 -1.6662 0
M  V30 33719 N 3167.25 -2.84233 -0.604959 0
M  V30 33720 H 3166.79 -2.56431 0.245097 0
M  V30 33721 H 3166.75 -2.77891 -1.47051 0
M  V30 33722 N 3170.52 -1.06308 -1.16346 0
M  V30 33723 C 3171.94 -0.786567 -1.38871 0
M  V30 33724 C 3172.14 0.614028 -1.91917 0
M  V30 33725 O 3171.2 1.37457 -2.11806 0
M  V30 33726 C 3172.51 -1.85158 -2.36932 0
M  V30 33727 C 3174.06 -1.87511 -2.50617 0
M  V30 33728 C 3174.53 -2.93067 -3.5196 0
M  V30 33729 N 3176.02 -2.92101 -3.59487 0
M  V30 33730 C 3176.76 -3.70423 -4.37692 0
M  V30 33731 N 3176.25 -4.58562 -5.19319 0
M  V30 33732 N 3178.05 -3.58814 -4.32677 0
M  V30 33733 H 3170.2 -1.96656 -0.802507 0
M  V30 33734 H 3172.46 -0.852196 -0.41529 0
M  V30 33735 H 3172.17 -2.8574 -2.05051 0
M  V30 33736 H 3172.04 -1.70272 -3.36582 0
M  V30 33737 H 3174.43 -0.875876 -2.81802 0
M  V30 33738 H 3174.51 -2.06475 -1.51003 0
M  V30 33739 H 3174.15 -3.93183 -3.21511 0
M  V30 33740 H 3174.08 -2.71352 -4.51304 0
M  V30 33741 H 3176.57 -2.28202 -3.01218 0
M  V30 33742 H 3176.89 -5.14981 -5.76207 0
M  V30 33743 H 3175.23 -4.62618 -5.18662 0
M  V30 33744 H 3178.42 -2.89341 -3.67966 0
M  V30 33745 H 3178.6 -4.20097 -4.93379 0
M  V30 33746 N 3172 1.32989 -0.845682 0
M  V30 33747 C 3172.91 2.32845 -0.286441 0
M  V30 33748 C 3173.93 1.63653 0.591076 0
M  V30 33749 O 3175.1 1.95258 0.493581 0
M  V30 33750 C 3172.17 3.42724 0.523576 0
M  V30 33751 C 3171.23 4.27624 -0.37902 0
M  V30 33752 C 3170.46 5.32255 0.392432 0
M  V30 33753 O 3170.69 5.46811 1.6234 0
M  V30 33754 O 3169.62 6.01433 -0.237106 0
M  V30 33755 H 3173.45 2.8255 -1.11351 0
M  V30 33756 H 3171.03 1.36452 -0.60838 0
M  V30 33757 H 3172.91 4.09759 0.983646 0
M  V30 33758 H 3171.59 2.95223 1.32759 0
M  V30 33759 H 3170.5 3.63431 -0.887076 0
M  V30 33760 H 3171.83 4.78625 -1.14798 0
M  V30 33761 N 3173.48 0.60276 1.45618 0
M  V30 33762 C 3174.43 -0.118903 2.30494 0
M  V30 33763 C 3175.4 -0.864698 1.41817 0
M  V30 33764 O 3176.58 -0.851394 1.70751 0
M  V30 33765 C 3173.72 -1.11351 3.26642 0
M  V30 33766 C 3172.84 -0.369085 4.3042 0
M  V30 33767 C 3171.97 -1.35298 5.13681 0
M  V30 33768 C 3171.01 -0.5961 6.0919 0
M  V30 33769 N 3170.15 -1.52904 6.85248 0
M  V30 33770 H 3174.99 0.610887 2.91671 0
M  V30 33771 H 3172.52 0.313057 1.4373 0
M  V30 33772 H 3174.48 -1.70324 3.80849 0
M  V30 33773 H 3173.11 -1.81077 2.67228 0
M  V30 33774 H 3172.16 0.336061 3.78913 0
M  V30 33775 H 3173.48 0.22169 4.98307 0
M  V30 33776 H 3172.63 -2.01492 5.72264 0
M  V30 33777 H 3171.37 -1.97769 4.45801 0
M  V30 33778 H 3170.37 0.079495 5.49743 0
M  V30 33779 H 3171.6 0.0234928 6.79096 0
M  V30 33780 H 3169.54 -2.14148 6.20062 0
M  V30 33781 H 3169.46 -0.991582 7.49469 0
M  V30 33782 H 3170.73 -2.1807 7.48375 0
M  V30 33783 N 3174.96 -1.53852 0.341647 0
M  V30 33784 C 3175.89 -2.27898 -0.508391 0
M  V30 33785 C 3176.87 -1.29386 -1.10423 0
M  V30 33786 O 3178.05 -1.58226 -1.12597 0
M  V30 33787 C 3175.18 -3.05036 -1.66042 0
M  V30 33788 C 3174.14 -4.11037 -1.19302 0
M  V30 33789 C 3173.46 -4.76119 -2.43342 0
M  V30 33790 C 3174.76 -5.21467 -0.29486 0
M  V30 33791 H 3176.46 -2.992 0.109304 0
M  V30 33792 H 3174 -1.43899 0.05401 0
M  V30 33793 H 3175.96 -3.55574 -2.26152 0
M  V30 33794 H 3174.68 -2.31383 -2.30499 0
M  V30 33795 H 3173.34 -3.61409 -0.614745 0
M  V30 33796 H 3172.99 -3.99061 -3.06201 0
M  V30 33797 H 3172.69 -5.47733 -2.12751 0
M  V30 33798 H 3174.21 -5.29439 -3.04181 0
M  V30 33799 H 3175.63 -5.67652 -0.80275 0
M  V30 33800 H 3174.02 -6.00045 -0.0809166 0
M  V30 33801 H 3175.09 -4.80256 0.669517 0
M  V30 33802 N 3176.44 -0.0702223 -1.57443 0
M  V30 33803 C 3177.85 0.462677 -1.80876 0
M  V30 33804 C 3178.2 1.6974 -0.984005 0
M  V30 33805 O 3177.32 2.15417 -0.206064 0
M  V30 33806 C 3177.92 0.846172 -3.28063 0
M  V30 33807 C 3176.48 1.32394 -3.52347 0
M  V30 33808 C 3175.62 0.308351 -2.7558 0
M  V30 33809 H 3178.58 -0.295934 -1.55916 0
M  V30 33810 H 3178.6 1.7077 -3.40026 0
M  V30 33811 H 3178.11 -0.0526715 -3.88064 0
M  V30 33812 H 3176.21 2.24134 -2.97649 0
M  V30 33813 H 3176.32 1.30295 -4.61042 0
M  V30 33814 H 3174.69 0.785295 -2.42292 0
M  V30 33815 H 3175.47 -0.582738 -3.38318 0
M  V30 33816 N 3177.91 1.56283 0.203321 0
M  V30 33817 C 3178.84 1.96914 1.25487 0
M  V30 33818 C 3179.83 0.83991 1.47917 0
M  V30 33819 O 3181.01 1.10362 1.59793 0
M  V30 33820 C 3178.14 2.30157 2.60086 0
M  V30 33821 C 3177.09 3.45742 2.52282 0
M  V30 33822 C 3176.42 3.64638 3.91079 0
M  V30 33823 C 3177.72 4.80176 2.05494 0
M  V30 33824 H 3179.41 2.85003 0.917256 0
M  V30 33825 H 3176.96 1.3712 0.439794 0
M  V30 33826 H 3178.91 2.57176 3.33824 0
M  V30 33827 H 3177.64 1.38942 2.95572 0
M  V30 33828 H 3176.3 3.18801 1.81001 0
M  V30 33829 H 3175.94 2.70767 4.23903 0
M  V30 33830 H 3175.64 4.42391 3.86735 0
M  V30 33831 H 3177.17 3.94024 4.66452 0
M  V30 33832 H 3178.58 5.0628 2.68986 0
M  V30 33833 H 3176.98 5.61341 2.1217 0
M  V30 33834 H 3178.05 4.74311 1.00784 0
M  V30 33835 N 3179.39 -0.470729 1.50406 0
M  V30 33836 C 3180.33 -1.58746 1.63936 0
M  V30 33837 C 3181.3 -1.55121 0.487472 0
M  V30 33838 O 3182.49 -1.74738 0.707022 0
M  V30 33839 C 3179.62 -2.97321 1.62227 0
M  V30 33840 C 3178.66 -3.19099 2.82981 0
M  V30 33841 S 3179.49 -2.98961 4.44278 0
M  V30 33842 C 3180.65 -4.39878 4.45262 0
M  V30 33843 H 3180.88 -1.47029 2.58398 0
M  V30 33844 H 3178.42 -0.658091 1.39673 0
M  V30 33845 H 3180.37 -3.77214 1.61926 0
M  V30 33846 H 3179.04 -3.06428 0.689998 0
M  V30 33847 H 3178.23 -4.20335 2.7809 0
M  V30 33848 H 3177.83 -2.46979 2.80851 0
M  V30 33849 H 3180.12 -5.32516 4.18847 0
M  V30 33850 H 3181.07 -4.49811 5.46878 0
M  V30 33851 H 3181.47 -4.21973 3.74965 0
M  V30 33852 N 3180.87 -1.39989 -0.72393 0
M  V30 33853 C 3182.12 -1.37123 -1.4792 0
M  V30 33854 C 3182.43 0.0263321 -1.95582 0
M  V30 33855 O 3183.64 0.177604 -2.70918 0
M  V30 33856 C 3182.1 -2.40954 -2.67338 0
M  V30 33857 C 3181.7 -3.86479 -2.26579 0
M  V30 33858 C 3183.45 -2.4718 -3.45112 0
M  V30 33859 C 3181.35 -4.81925 -3.42786 0
M  V30 33860 H 3180.28 -0.509824 -0.555513 0
M  V30 33861 H 3182.94 -1.65688 -0.788663 0
M  V30 33862 H 3181.32 -2.05476 -3.3852 0
M  V30 33863 H 3182.49 -4.31057 -1.62871 0
M  V30 33864 H 3180.81 -3.8365 -1.6187 0
M  V30 33865 H 3183.4 -3.1568 -4.31568 0
M  V30 33866 H 3183.75 -1.49973 -3.88348 0
M  V30 33867 H 3184.28 -2.81607 -2.80966 0
M  V30 33868 H 3181.02 -5.80436 -3.04589 0
M  V30 33869 H 3180.54 -4.42019 -4.05437 0
M  V30 33870 H 3182.22 -5.01352 -4.08968 0
M  V30 33871 N 3182.35 0.955282 -1.25348 0
M  V30 33872 C 3183.6 1.69981 -1.10057 0
M  V30 33873 C 3183.92 1.91167 0.358553 0
M  V30 33874 O 3183.18 1.47976 1.28069 0
M  V30 33875 C 3183.48 3.08801 -1.79935 0
M  V30 33876 C 3183.14 3.07418 -3.29856 0
M  V30 33877 C 3181.81 3.06748 -3.70755 0
M  V30 33878 C 3184.16 3.00797 -4.25641 0
M  V30 33879 C 3181.49 2.97205 -5.05852 0
M  V30 33880 C 3183.84 2.92796 -5.60761 0
M  V30 33881 C 3182.5 2.90461 -6.0099 0
M  V30 33882 H 3181.77 0.622005 -0.402729 0
M  V30 33883 H 3184.42 1.11611 -1.55612 0
M  V30 33884 H 3182.72 3.70711 -1.26809 0
M  V30 33885 H 3184.42 3.65228 -1.65557 0
M  V30 33886 H 3181.01 3.08711 -2.97314 0
M  V30 33887 H 3185.2 3.00434 -3.95036 0
M  V30 33888 H 3180.45 2.93766 -5.36201 0
M  V30 33889 H 3184.63 2.86634 -6.34676 0
M  V30 33890 H 3182.25 2.82823 -7.05631 0
M  V30 33891 N 3183.83 1.06924 1.1578 0
M  V30 33892 C 3184.79 0.689693 2.18577 0
M  V30 33893 C 3185.79 -0.267844 1.58554 0
M  V30 33894 O 3186.98 -0.049379 1.7413 0
M  V30 33895 C 3184.11 0.0158519 3.40896 0
M  V30 33896 H 3185.31 1.59976 2.53669 0
M  V30 33897 H 3182.86 0.865237 1.30167 0
M  V30 33898 H 3183.59 -0.906657 3.11368 0
M  V30 33899 H 3183.38 0.704482 3.85719 0
M  V30 33900 H 3184.87 -0.235193 4.16937 0
M  V30 33901 N 3185.31 -1.32538 0.852723 0
M  V30 33902 C 3186.25 -2.30851 0.284699 0
M  V30 33903 C 3187.25 -1.58761 -0.590872 0
M  V30 33904 O 3188.45 -1.73513 -0.478891 0
M  V30 33905 H 3184.83 -0.748413 0.0733583 0
M  V30 33906 H 3186.8 -2.76252 1.12815 0
M  V30 33907 C 3185.55 -3.43884 -0.513729 0
M  V30 33908 H 3184.87 -3.99516 0.150714 0
M  V30 33909 H 3186.31 -4.14835 -0.876793 0
M  V30 33910 C 3184.77 -2.9097 -1.69818 0
M  V30 33911 O 3185.3 -2.88303 -2.79722 0
M  V30 33912 N 3183.51 -2.47395 -1.52461 0
M  V30 33913 H 3183.05 -2.49763 -0.630555 0
M  V30 33914 H 3183.01 -2.12345 -2.31856 0
M  V30 33915 N 3186.78 -0.610474 -1.45296 0
M  V30 33916 C 3188.03 -0.115393 -2.03072 0
M  V30 33917 C 3188.38 1.24129 -1.47002 0
M  V30 33918 O 3187.68 1.80724 -0.636358 0
M  V30 33919 C 3187.87 -0.0205957 -3.57394 0
M  V30 33920 C 3187.7 -1.36655 -4.28434 0
M  V30 33921 C 3186.47 -1.94799 -4.66242 0
M  V30 33922 C 3188.67 -2.29595 -4.60207 0
M  V30 33923 N 3186.65 -3.22845 -5.22154 0
M  V30 33924 C 3188.02 -3.42241 -5.16983 0
M  V30 33925 C 3190.08 -2.28931 -4.42148 0
M  V30 33926 C 3188.78 -4.54392 -5.57602 0
M  V30 33927 C 3190.81 -3.40132 -4.83802 0
M  V30 33928 C 3190.17 -4.515 -5.40673 0
M  V30 33929 H 3186.27 -0.0856622 -0.777294 0
M  V30 33930 H 3188.85 -0.809457 -1.77076 0
M  V30 33931 H 3187.02 0.642696 -3.83046 0
M  V30 33932 H 3188.75 0.481411 -4.01826 0
M  V30 33933 H 3185.51 -1.47973 -4.4989 0
M  V30 33934 H 3185.93 -3.88254 -5.54606 0
M  V30 33935 H 3190.57 -1.44088 -3.9749 0
M  V30 33936 H 3188.29 -5.39958 -6.01225 0
M  V30 33937 H 3191.88 -3.40769 -4.71559 0
M  V30 33938 H 3190.76 -5.36124 -5.72311 0
M  V30 33939 N 3188.26 1.53669 -0.349801 0
M  V30 33940 C 3189.68 1.596 0.00188487 0
M  V30 33941 C 3189.88 1.36554 1.48173 0
M  V30 33942 O 3188.93 1.16289 2.24127 0
M  V30 33943 C 3190.25 2.97465 -0.4399 0
M  V30 33944 C 3191.79 3.10526 -0.392775 0
M  V30 33945 C 3192.27 4.50778 -0.810126 0
M  V30 33946 N 3193.76 4.56847 -0.764559 0
M  V30 33947 C 3194.5 5.63529 -1.05937 0
M  V30 33948 N 3193.99 6.78036 -1.42265 0
M  V30 33949 N 3195.78 5.53434 -0.983195 0
M  V30 33950 H 3187.94 1.66902 -1.31367 0
M  V30 33951 H 3190.2 0.78198 -0.535922 0
M  V30 33952 H 3189.9 3.19416 -1.47195 0
M  V30 33953 H 3189.78 3.76762 0.181668 0
M  V30 33954 H 3192.17 2.88294 0.63011 0
M  V30 33955 H 3192.25 2.33273 -1.04963 0
M  V30 33956 H 3191.89 4.73746 -1.83105 0
M  V30 33957 H 3191.82 5.26438 -0.130683 0
M  V30 33958 H 3194.31 3.74622 -0.496703 0
M  V30 33959 H 3194.62 7.55365 -1.63228 0
M  V30 33960 H 3192.97 6.79467 -1.46116 0
M  V30 33961 H 3196.16 4.62856 -0.698682 0
M  V30 33962 H 3196.33 6.36483 -1.21629 0
M  V30 33963 N 3189.74 0.0785709 1.57404 0
M  V30 33964 C 3190.99 -0.587826 1.93362 0
M  V30 33965 C 3191.31 -1.69739 0.959886 0
M  V30 33966 O 3190.58 -1.95898 0.00915174 0
M  V30 33967 H 3189.16 -0.220129 0.713829 0
M  V30 33968 H 3191.82 0.13802 1.94411 0
M  V30 33969 H 3190.92 -1.00875 2.95348 0
M  V30 33970 N 3191.22 -1.56389 -0.19503 0
M  V30 33971 C 3192.46 -1.80628 -0.915412 0
M  V30 33972 C 3192.79 -0.6518 -1.83253 0
M  V30 33973 O 3192.05 0.36243 -1.92315 0
M  V30 33974 C 3192.35 -3.10854 -1.76364 0
M  V30 33975 C 3192.01 -4.39728 -0.997494 0
M  V30 33976 C 3190.67 -4.74738 -0.78596 0
M  V30 33977 C 3193.03 -5.1918 -0.458419 0
M  V30 33978 C 3190.35 -5.86695 -0.0238689 0
M  V30 33979 C 3192.71 -6.31933 0.290461 0
M  V30 33980 C 3191.37 -6.65526 0.513012 0
M  V30 33981 H 3190.64 -0.660964 -0.334973 0
M  V30 33982 H 3193.29 -1.90635 -0.181782 0
M  V30 33983 H 3191.59 -2.96085 -2.56595 0
M  V30 33984 H 3193.29 -3.26815 -2.32364 0
M  V30 33985 H 3189.88 -4.12254 -1.17238 0
M  V30 33986 H 3194.06 -4.92546 -0.609248 0
M  V30 33987 H 3189.32 -6.11194 0.158528 0
M  V30 33988 H 3193.49 -6.92714 0.715551 0
M  V30 33989 H 3191.12 -7.5212 1.10544 0
M  V30 33990 N 3192.7 0.462746 -1.50653 0
M  V30 33991 C 3193.92 1.24193 -1.66105 0
M  V30 33992 C 3194.35 1.84863 -0.347453 0
M  V30 33993 O 3193.7 1.67671 0.689643 0
M  V30 33994 C 3193.75 2.32032 -2.76031 0
M  V30 33995 O 3192.86 3.36889 -2.37865 0
M  V30 33996 H 3192.2 0.365005 -0.554678 0
M  V30 33997 H 3194.73 0.549699 -1.97077 0
M  V30 33998 H 3194.74 2.77215 -2.99359 0
M  V30 33999 H 3193.41 1.87247 -3.71364 0
M  V30 34000 H 3191.99 2.97359 -2.25016 0
M  V30 34001 N 3194.17 1.40371 0.716495 0
M  V30 34002 C 3195.42 1.38326 1.47344 0
M  V30 34003 C 3195.74 -0.0139606 1.94995 0
M  V30 34004 O 3195.01 -0.968555 1.70282 0
M  V30 34005 H 3193.59 0.509097 0.546653 0
M  V30 34006 H 3196.26 1.75416 0.849425 0
M  V30 34007 H 3195.35 2.05757 2.34671 0
M  V30 34008 N 3195.65 -0.948621 1.25853 0
M  V30 34009 C 3196.9 -1.69061 1.10738 0
M  V30 34010 C 3197.22 -1.91811 -0.351224 0
M  V30 34011 O 3196.49 -1.50949 -1.24864 0
M  V30 34012 H 3195.07 -0.626512 0.406807 0
M  V30 34013 H 3197.73 -1.1402 1.58068 0
M  V30 34014 H 3196.83 -2.6674 1.62038 0
M  V30 34015 N 3197.13 -1.07536 -1.15212 0
M  V30 34016 C 3198.06 -0.641499 -2.18998 0
M  V30 34017 C 3199.04 0.34221 -1.58958 0
M  V30 34018 O 3200.23 0.248185 -1.86859 0
M  V30 34019 C 3197.35 0.0577344 -3.38651 0
M  V30 34020 C 3196.4 -0.884715 -4.17223 0
M  V30 34021 S 3197.23 -2.38671 -4.79371 0
M  V30 34022 C 3198.39 -1.69933 -6.0239 0
M  V30 34023 H 3198.62 -1.52075 -2.55461 0
M  V30 34024 H 3196.15 -0.889503 -1.26203 0
M  V30 34025 H 3198.11 0.45491 -4.07972 0
M  V30 34026 H 3196.77 0.913354 -3.00527 0
M  V30 34027 H 3195.97 -0.342221 -5.02837 0
M  V30 34028 H 3195.57 -1.22236 -3.5346 0
M  V30 34029 H 3197.86 -1.01213 -6.69897 0
M  V30 34030 H 3198.8 -2.53386 -6.61212 0
M  V30 34031 H 3199.21 -1.1765 -5.52104 0
M  V30 34032 N 3198.61 1.32084 -0.85974 0
M  V30 34033 C 3199.56 2.28761 -0.306082 0
M  V30 34034 C 3200.53 1.55277 0.589774 0
M  V30 34035 O 3201.71 1.83475 0.5236 0
M  V30 34036 C 3198.85 3.41529 0.495196 0
M  V30 34037 C 3197.96 4.29884 -0.427023 0
M  V30 34038 C 3197.1 5.29786 0.387381 0
M  V30 34039 C 3196.14 6.09784 -0.531914 0
M  V30 34040 N 3195.27 7.0167 0.245617 0
M  V30 34041 H 3200.11 2.75508 -1.13574 0
M  V30 34042 H 3197.65 1.35545 -0.571492 0
M  V30 34043 H 3199.61 4.05637 0.975439 0
M  V30 34044 H 3198.24 2.95919 1.28964 0
M  V30 34045 H 3197.29 3.66311 -1.02568 0
M  V30 34046 H 3198.6 4.85777 -1.13234 0
M  V30 34047 H 3197.76 5.99521 0.930572 0
M  V30 34048 H 3196.5 4.74522 1.12604 0
M  V30 34049 H 3195.5 5.38949 -1.08695 0
M  V30 34050 H 3196.73 6.67133 -1.26926 0
M  V30 34051 H 3194.67 6.4883 0.967277 0
M  V30 34052 H 3194.59 7.54938 -0.400565 0
M  V30 34053 H 3195.86 7.75684 0.77037 0
M  V30 34054 N 3200.09 0.618171 1.4497 0
M  V30 34055 C 3201.36 0.0490238 1.95539 0
M  V30 34056 C 3201.74 -1.42176 1.56042 0
M  V30 34057 O 3201.09 -2.12965 0.828128 0
M  V30 34058 C 3201.3 0.258254 3.48043 0
M  V30 34059 C 3202.65 0.144616 4.24354 0
M  V30 34060 O 3203.67 0.188932 3.55699 0
M  V30 34061 O 3202.53 0.038615 5.46486 0
M  V30 34062 H 3199.63 -0.0297111 0.826466 0
M  V30 34063 H 3202.17 0.688971 1.55085 0
M  V30 34064 H 3200.94 1.27932 3.69796 0
M  V30 34065 H 3200.57 -0.416453 3.95413 0
M  V30 34066 N 3201.56 -1.53481 0.357946 0
M  V30 34067 C 3202.5 -2.21828 -0.535514 0
M  V30 34068 C 3203.48 -1.20744 -1.08902 0
M  V30 34069 O 3204.66 -1.49618 -1.14659 0
M  V30 34070 C 3201.79 -2.90701 -1.73812 0
M  V30 34071 C 3200.83 -4.05794 -1.31276 0
M  V30 34072 S 3201.67 -5.3454 -0.320454 0
M  V30 34073 C 3202.82 -6.06923 -1.52956 0
M  V30 34074 H 3203.05 -2.97266 0.0449568 0
M  V30 34075 H 3200.59 -1.53745 0.142036 0
M  V30 34076 H 3202.55 -3.30998 -2.42797 0
M  V30 34077 H 3201.21 -2.15002 -2.28983 0
M  V30 34078 H 3200.4 -4.52972 -2.20981 0
M  V30 34079 H 3200 -3.67349 -0.70221 0
M  V30 34080 H 3202.29 -6.31191 -2.4618 0
M  V30 34081 H 3203.24 -6.99515 -1.09931 0
M  V30 34082 H 3203.64 -5.37268 -1.73215 0
M  V30 34083 N 3203.04 -0.0869173 -1.5736 0
M  V30 34084 C 3204.27 0.586463 -1.98101 0
M  V30 34085 C 3204.68 1.62765 -0.964578 0
M  V30 34086 O 3204.02 1.83617 0.0551478 0
M  V30 34087 C 3204.09 1.29941 -3.35195 0
M  V30 34088 C 3203.75 0.409932 -4.55158 0
M  V30 34089 C 3204.75 -0.338624 -5.18796 0
M  V30 34090 C 3202.43 0.330382 -5.01212 0
M  V30 34091 C 3204.43 -1.15479 -6.26852 0
M  V30 34092 C 3202.11 -0.489447 -6.09137 0
M  V30 34093 C 3203.11 -1.23069 -6.71821 0
M  V30 34094 O 3202.8 -2.03697 -7.77665 0
M  V30 34095 H 3202.53 0.162539 -0.656168 0
M  V30 34096 H 3205.08 -0.160415 -2.04773 0
M  V30 34097 H 3203.31 2.09268 -3.25182 0
M  V30 34098 H 3205 1.86651 -3.60439 0
M  V30 34099 H 3205.77 -0.286849 -4.84151 0
M  V30 34100 H 3201.65 0.896978 -4.52189 0
M  V30 34101 H 3205.19 -1.73386 -6.75709 0
M  V30 34102 H 3201.09 -0.542731 -6.43214 0
M  V30 34103 H 3201.86 -1.96291 -7.94614 0
M  V30 34104 N 3204.52 1.5649 0.186734 0
M  V30 34105 C 3205.8 1.71958 0.932199 0
M  V30 34106 C 3206.18 0.644042 2.01036 0
M  V30 34107 O 3205.53 -0.343655 2.25901 0
M  V30 34108 C 3205.74 3.14595 1.511 0
M  V30 34109 C 3207.08 3.75084 1.9899 0
M  V30 34110 O 3208.11 3.17776 1.60926 0
M  V30 34111 O 3206.97 4.75678 2.69059 0
M  V30 34112 H 3204.06 0.70166 0.437724 0
M  V30 34113 H 3206.61 1.68787 0.175774 0
M  V30 34114 H 3205.38 3.84349 0.734259 0
M  V30 34115 H 3205 3.22028 2.33203 0
M  V30 34116 N 3206 -0.45475 1.50897 0
M  V30 34117 C 3206.93 -1.56852 1.67123 0
M  V30 34118 C 3207.94 -1.53147 0.55225 0
M  V30 34119 O 3209.13 -1.58239 0.825997 0
M  V30 34120 C 3206.23 -2.95759 1.65469 0
M  V30 34121 C 3205.41 -3.24158 2.93668 0
M  V30 34122 C 3204.46 -4.42699 2.84436 0
M  V30 34123 O 3203.49 -4.42205 3.5839 0
M  V30 34124 N 3204.69 -5.45288 1.991 0
M  V30 34125 H 3207.46 -1.43344 2.63197 0
M  V30 34126 H 3205.02 -0.643431 1.48565 0
M  V30 34127 H 3207.01 -3.73054 1.56884 0
M  V30 34128 H 3205.58 -3.02952 0.770621 0
M  V30 34129 H 3204.8 -2.35322 3.16255 0
M  V30 34130 H 3206.09 -3.39951 3.78564 0
M  V30 34131 H 3205.49 -5.48519 1.38359 0
M  V30 34132 H 3204.04 -6.21504 1.96407 0
M  V30 34133 N 3207.48 -1.40749 -0.709041 0
M  V30 34134 C 3208.72 -1.39587 -1.47116 0
M  V30 34135 C 3209.06 -0.000279458 -1.942 0
M  V30 34136 O 3208.33 0.969563 -1.68611 0
M  V30 34137 C 3208.61 -2.39103 -2.69261 0
M  V30 34138 C 3208.47 -3.87714 -2.2803 0
M  V30 34139 C 3209.79 -2.36062 -3.71434 0
M  V30 34140 H 3206.9 -0.508346 -0.533623 0
M  V30 34141 H 3209.55 -1.71931 -0.808687 0
M  V30 34142 H 3207.7 -2.11653 -3.25784 0
M  V30 34143 H 3209.37 -4.26017 -1.76938 0
M  V30 34144 H 3207.61 -4.03231 -1.59959 0
M  V30 34145 H 3208.28 -4.52871 -3.15613 0
M  V30 34146 H 3210.76 -2.60391 -3.24555 0
M  V30 34147 H 3209.63 -3.07729 -4.54526 0
M  V30 34148 H 3209.9 -1.37451 -4.2019 0
M  V30 34149 N 3208.96 0.941933 -1.26354 0
M  V30 34150 C 3209.89 2.05782 -1.10344 0
M  V30 34151 C 3210.87 1.70098 -0.00884555 0
M  V30 34152 O 3212.05 1.93357 -0.180733 0
M  V30 34153 C 3209.18 3.39437 -0.734848 0
M  V30 34154 C 3208.14 3.8918 -1.7811 0
M  V30 34155 C 3207.46 5.19476 -1.26684 0
M  V30 34156 C 3208.76 4.14145 -3.18247 0
M  V30 34157 H 3210.46 2.19435 -2.03688 0
M  V30 34158 H 3208 1.05442 -0.980717 0
M  V30 34159 H 3209.95 4.16966 -0.609726 0
M  V30 34160 H 3208.68 3.25759 0.234297 0
M  V30 34161 H 3207.34 3.13831 -1.89488 0
M  V30 34162 H 3206.99 5.02177 -0.28756 0
M  V30 34163 H 3206.69 5.53727 -1.96622 0
M  V30 34164 H 3208.21 5.99589 -1.15437 0
M  V30 34165 H 3209.62 4.8229 -3.0995 0
M  V30 34166 H 3208.02 4.59677 -3.85768 0
M  V30 34167 H 3209.09 3.19953 -3.6436 0
M  V30 34168 N 3210.43 1.08146 1.1464 0
M  V30 34169 C 3211.38 0.709033 2.19639 0
M  V30 34170 C 3212.35 -0.303483 1.63304 0
M  V30 34171 O 3213.54 -0.188096 1.89871 0
M  V30 34172 C 3210.68 0.121645 3.44886 0
M  V30 34173 C 3209.79 1.18662 4.15383 0
M  V30 34174 C 3208.92 0.563373 5.28204 0
M  V30 34175 C 3207.96 1.61057 5.90531 0
M  V30 34176 N 3207.1 1.00932 6.94807 0
M  V30 34177 H 3211.94 1.60875 2.50845 0
M  V30 34178 H 3209.48 0.803997 1.23184 0
M  V30 34179 H 3211.43 -0.236607 4.16529 0
M  V30 34180 H 3210.06 -0.74139 3.14171 0
M  V30 34181 H 3209.12 1.66233 3.42156 0
M  V30 34182 H 3210.43 1.98028 4.57806 0
M  V30 34183 H 3209.58 0.153215 6.06507 0
M  V30 34184 H 3208.32 -0.261981 4.86996 0
M  V30 34185 H 3207.33 2.03042 5.10935 0
M  V30 34186 H 3208.55 2.43835 6.33815 0
M  V30 34187 H 3206.5 0.20501 6.5568 0
M  V30 34188 H 3206.41 1.74012 7.35701 0
M  V30 34189 H 3207.68 0.624928 7.76991 0
M  V30 34190 N 3211.91 -1.31626 0.866732 0
M  V30 34191 C 3213.16 -1.96825 0.476061 0
M  V30 34192 C 3213.49 -1.68531 -0.970964 0
M  V30 34193 O 3212.74 -0.97258 -1.69822 0
M  V30 34194 C 3213.04 -3.50947 0.67608 0
M  V30 34195 C 3212.71 -3.99254 2.0954 0
M  V30 34196 C 3211.37 -4.12156 2.48356 0
M  V30 34197 C 3213.72 -4.24704 3.02119 0
M  V30 34198 C 3211.05 -4.47858 3.78999 0
M  V30 34199 C 3213.4 -4.61868 4.32274 0
M  V30 34200 C 3212.06 -4.72977 4.71009 0
M  V30 34201 H 3211.33 -0.720232 0.174203 0
M  V30 34202 H 3213.98 -1.56818 1.0991 0
M  V30 34203 H 3212.29 -3.91788 -0.0301178 0
M  V30 34204 H 3213.98 -3.99437 0.353675 0
M  V30 34205 H 3210.57 -3.89705 1.78403 0
M  V30 34206 H 3214.76 -4.14233 2.73358 0
M  V30 34207 H 3210.01 -4.54655 4.08777 0
M  V30 34208 H 3214.19 -4.80513 5.04064 0
M  V30 34209 H 3211.81 -5.00397 5.72282 0
M  V30 34210 N 3213.39 -0.62585 -1.4464 0
M  V30 34211 C 3214.64 -0.127983 -2.01694 0
M  V30 34212 C 3214.96 1.25269 -1.49441 0
M  V30 34213 O 3214.23 1.83123 -0.695906 0
M  V30 34214 H 3212.81 -0.0443228 -0.745684 0
M  V30 34215 H 3215.47 -0.811364 -1.77209 0
M  V30 34216 H 3214.57 -0.0916481 -3.11965 0
M  V30 34217 N 3214.87 1.53289 -0.36608 0
M  V30 34218 C 3215.83 2.24374 0.467865 0
M  V30 34219 C 3216.83 1.25178 1.00932 0
M  V30 34220 O 3218.02 1.49451 0.894989 0
M  V30 34221 C 3215.15 2.98087 1.65399 0
M  V30 34222 H 3216.35 2.99504 -0.154157 0
M  V30 34223 H 3213.9 1.55856 -0.117778 0
M  V30 34224 H 3214.63 2.27201 2.31409 0
M  V30 34225 H 3214.42 3.7087 1.2727 0
M  V30 34226 H 3215.91 3.52123 2.24497 0
M  V30 34227 N 3216.35 0.0952613 1.57312 0
M  V30 34228 C 3217.58 -0.575949 1.9841 0
M  V30 34229 C 3217.98 -1.62251 0.973197 0
M  V30 34230 O 3217.33 -1.83644 -0.0454093 0
M  V30 34231 C 3217.39 -1.28161 3.35879 0
M  V30 34232 C 3217.05 -0.385788 4.55369 0
M  V30 34233 C 3218.05 0.366132 5.18609 0
M  V30 34234 C 3215.73 -0.303797 5.0138 0
M  V30 34235 C 3217.73 1.18802 6.26231 0
M  V30 34236 C 3215.42 0.521744 6.08869 0
M  V30 34237 C 3216.41 1.2663 6.71159 0
M  V30 34238 O 3216.1 2.07818 7.76574 0
M  V30 34239 H 3215.83 -0.159057 0.657021 0
M  V30 34240 H 3218.39 0.171273 2.04685 0
M  V30 34241 H 3216.62 -2.07541 3.26288 0
M  V30 34242 H 3218.31 -1.84737 3.61424 0
M  V30 34243 H 3219.07 0.31252 4.83992 0
M  V30 34244 H 3214.95 -0.872985 4.52659 0
M  V30 34245 H 3218.5 1.76967 6.7478 0
M  V30 34246 H 3214.39 0.576835 6.42917 0
M  V30 34247 H 3215.16 2.00502 7.93562 0
M  V30 34248 N 3217.82 -1.56587 -0.178432 0
M  V30 34249 C 3219.07 -1.80782 -0.894471 0
M  V30 34250 C 3219.39 -0.671323 -1.83719 0
M  V30 34251 O 3220.59 -0.798016 -2.59507 0
M  V30 34252 C 3219.05 -3.20309 -1.64104 0
M  V30 34253 C 3218.66 -4.41807 -0.74231 0
M  V30 34254 C 3220.4 -3.53802 -2.34572 0
M  V30 34255 C 3218.31 -5.72356 -1.4887 0
M  V30 34256 H 3217.24 -0.674123 -0.337748 0
M  V30 34257 H 3219.89 -1.82906 -0.147488 0
M  V30 34258 H 3218.27 -3.12482 -2.43251 0
M  V30 34259 H 3219.44 -4.60799 0.011696 0
M  V30 34260 H 3217.76 -4.16138 -0.147632 0
M  V30 34261 H 3220.36 -4.48582 -2.90996 0
M  V30 34262 H 3220.7 -2.78341 -3.09567 0
M  V30 34263 H 3221.23 -3.63152 -1.62375 0
M  V30 34264 H 3217.97 -6.50828 -0.781211 0
M  V30 34265 H 3217.49 -5.57355 -2.21621 0
M  V30 34266 H 3219.17 -6.14061 -2.03808 0
M  V30 34267 N 3219.3 0.446741 -1.51136 0
M  V30 34268 C 3220.55 1.19872 -1.6358 0
M  V30 34269 C 3220.88 1.91084 -0.346511 0
M  V30 34270 O 3220.16 1.83196 0.653414 0
M  V30 34271 C 3220.44 2.22318 -2.83279 0
M  V30 34272 C 3220.29 1.55251 -4.22158 0
M  V30 34273 C 3221.61 3.23396 -2.98502 0
M  V30 34274 H 3218.73 0.434441 -0.59534 0
M  V30 34275 H 3221.37 0.489198 -1.83594 0
M  V30 34276 H 3219.52 2.82829 -2.66345 0
M  V30 34277 H 3221.19 0.981492 -4.50738 0
M  V30 34278 H 3219.44 0.855047 -4.2529 0
M  V30 34279 H 3220.11 2.29814 -5.01886 0
M  V30 34280 H 3222.58 2.7293 -3.14084 0
M  V30 34281 H 3221.46 3.9238 -3.83835 0
M  V30 34282 H 3221.72 3.88952 -2.10164 0
M  V30 34283 N 3220.78 1.41123 0.701567 0
M  V30 34284 C 3222.06 1.3065 1.45567 0
M  V30 34285 C 3222.44 -0.0687069 2.10988 0
M  V30 34286 O 3221.78 -1.08254 2.0123 0
M  V30 34287 C 3221.99 2.45555 2.47999 0
M  V30 34288 C 3223.34 2.86443 3.13426 0
M  V30 34289 O 3224.37 2.45251 2.58322 0
M  V30 34290 O 3223.23 3.57654 4.13214 0
M  V30 34291 H 3220.32 0.513845 0.647991 0
M  V30 34292 H 3222.87 1.53074 0.732553 0
M  V30 34293 H 3221.64 3.37349 1.98271 0
M  V30 34294 H 3221.26 2.24977 3.27828 0
M  V30 34295 N 3222.26 -0.935219 1.26852 0
M  V30 34296 C 3223.51 -1.67876 1.12525 0
M  V30 34297 C 3223.83 -1.92173 -0.33086 0
M  V30 34298 O 3223.1 -1.52265 -1.23256 0
M  V30 34299 H 3221.68 -0.622162 0.413429 0
M  V30 34300 H 3224.34 -1.12337 1.59269 0
M  V30 34301 H 3223.43 -2.65006 1.64858 0
M  V30 34302 N 3223.74 -1.08752 -1.14065 0
M  V30 34303 C 3224.67 -0.742398 -2.21384 0
M  V30 34304 C 3225.65 0.276776 -1.67833 0
M  V30 34305 O 3226.83 0.146366 -1.93648 0
M  V30 34306 C 3223.96 -0.154705 -3.46955 0
M  V30 34307 C 3222.92 -1.10262 -4.13553 0
M  V30 34308 C 3222.24 -0.37697 -5.33369 0
M  V30 34309 C 3223.54 -2.44221 -4.61685 0
M  V30 34310 H 3225.24 -1.63968 -2.50509 0
M  V30 34311 H 3222.78 -0.789829 -1.20406 0
M  V30 34312 H 3224.74 0.0987679 -4.21284 0
M  V30 34313 H 3223.46 0.777733 -3.17205 0
M  V30 34314 H 3222.12 -1.34125 -3.41183 0
M  V30 34315 H 3221.77 0.559385 -4.9988 0
M  V30 34316 H 3221.47 -1.00894 -5.78873 0
M  V30 34317 H 3222.99 -0.131634 -6.10458 0
M  V30 34318 H 3224.4 -2.24605 -5.27471 0
M  V30 34319 H 3222.8 -3.03143 -5.17904 0
M  V30 34320 H 3223.87 -3.05489 -3.76569 0
M  V30 34321 N 3225.21 1.31165 -0.873701 0
M  V30 34322 C 3226.63 1.49222 -0.566135 0
M  V30 34323 C 3226.83 1.80341 0.898857 0
M  V30 34324 O 3225.89 1.88428 1.6808 0
M  V30 34325 C 3227.2 2.62344 -1.46957 0
M  V30 34326 C 3228.75 2.76227 -1.472 0
M  V30 34327 C 3229.22 3.9245 -2.36109 0
M  V30 34328 N 3230.71 3.99742 -2.3401 0
M  V30 34329 C 3231.45 4.88953 -2.99521 0
M  V30 34330 N 3230.94 5.83039 -3.74216 0
M  V30 34331 N 3232.74 4.82229 -2.88811 0
M  V30 34332 H 3224.89 1.09235 -1.82158 0
M  V30 34333 H 3227.15 0.540106 -0.779095 0
M  V30 34334 H 3226.86 2.46135 -2.51218 0
M  V30 34335 H 3226.73 3.58568 -1.17084 0
M  V30 34336 H 3229.12 2.91847 -0.436954 0
M  V30 34337 H 3229.2 1.80657 -1.81098 0
M  V30 34338 H 3228.84 3.77587 -3.39692 0
M  V30 34339 H 3228.77 4.87334 -1.99533 0
M  V30 34340 H 3231.26 3.3243 -1.79719 0
M  V30 34341 H 3231.58 6.47848 -4.21323 0
M  V30 34342 H 3229.92 5.83006 -3.78324 0
M  V30 34343 H 3233.11 4.07703 -2.29992 0
M  V30 34344 H 3233.29 5.51548 -3.40145 0
M  V30 34345 N 3226.69 0.633512 1.44307 0
M  V30 34346 C 3227.62 -0.108434 2.28943 0
M  V30 34347 C 3228.64 -0.806557 1.41416 0
M  V30 34348 O 3229.83 -0.667605 1.65545 0
M  V30 34349 C 3226.93 -1.17585 3.17848 0
M  V30 34350 C 3226.1 -0.559765 4.33803 0
M  V30 34351 C 3225.16 -1.52145 5.03724 0
M  V30 34352 O 3224.18 -1.03766 5.59662 0
M  V30 34353 N 3225.39 -2.85577 5.05397 0
M  V30 34354 H 3228.15 0.61793 2.9326 0
M  V30 34355 H 3225.71 0.474846 1.5478 0
M  V30 34356 H 3227.7 -1.81957 3.61488 0
M  V30 34357 H 3226.27 -1.80441 2.55264 0
M  V30 34358 H 3225.49 0.262628 3.93324 0
M  V30 34359 H 3226.78 -0.128853 5.08637 0
M  V30 34360 H 3226.18 -3.2746 4.61288 0
M  V30 34361 H 3224.74 -3.45303 5.52819 0
M  V30 34362 N 3228.17 -1.53093 0.374204 0
M  V30 34363 C 3229.4 -2.05499 -0.212979 0
M  V30 34364 C 3229.81 -1.24688 -1.42301 0
M  V30 34365 O 3229.15 -0.282734 -1.81511 0
M  V30 34366 C 3229.21 -3.53348 -0.662246 0
M  V30 34367 C 3228.88 -4.54951 0.432263 0
M  V30 34368 C 3229.87 -5.03772 1.28489 0
M  V30 34369 C 3227.56 -4.98764 0.594975 0
M  V30 34370 C 3229.55 -5.95016 2.28548 0
M  V30 34371 C 3227.24 -5.89811 1.59893 0
M  V30 34372 C 3228.24 -6.37829 2.44261 0
M  V30 34373 O 3227.93 -7.2708 3.42943 0
M  V30 34374 H 3227.66 -0.674853 -0.039369 0
M  V30 34375 H 3230.21 -1.98352 0.533458 0
M  V30 34376 H 3228.44 -3.58062 -1.46042 0
M  V30 34377 H 3230.13 -3.88569 -1.1734 0
M  V30 34378 H 3230.9 -4.70666 1.17042 0
M  V30 34379 H 3226.78 -4.60971 -0.0519591 0
M  V30 34380 H 3230.32 -6.32418 2.94437 0
M  V30 34381 H 3226.22 -6.22332 1.71384 0
M  V30 34382 H 3226.99 -7.45101 3.38773 0
M  V30 34383 N 3229.65 -0.103603 -1.57259 0
M  V30 34384 C 3230.6 0.852257 -2.14488 0
M  V30 34385 C 3231.57 1.27405 -1.0657 0
M  V30 34386 O 3232.75 1.3543 -1.344 0
M  V30 34387 C 3229.89 2.1028 -2.73636 0
M  V30 34388 C 3229 1.73076 -3.95814 0
M  V30 34389 C 3228.14 2.92981 -4.43098 0
M  V30 34390 C 3227.18 2.51944 -5.57845 0
M  V30 34391 N 3226.31 3.6471 -5.99942 0
M  V30 34392 H 3231.15 0.357378 -2.95849 0
M  V30 34393 H 3228.69 0.164722 -1.46175 0
M  V30 34394 H 3230.65 2.83528 -3.06051 0
M  V30 34395 H 3229.28 2.57253 -1.94989 0
M  V30 34396 H 3228.33 0.897623 -3.69658 0
M  V30 34397 H 3229.64 1.38908 -4.79068 0
M  V30 34398 H 3228.8 3.74472 -4.77342 0
M  V30 34399 H 3227.54 3.30365 -3.58762 0
M  V30 34400 H 3226.54 1.68881 -5.2322 0
M  V30 34401 H 3227.77 2.15693 -6.43936 0
M  V30 34402 H 3225.71 4.01798 -5.18551 0
M  V30 34403 H 3225.63 3.34415 -6.78014 0
M  V30 34404 H 3226.9 4.46687 -6.3882 0
M  V30 34405 N 3231.13 1.56679 0.170126 0
M  V30 34406 C 3232.06 1.93068 1.23521 0
M  V30 34407 C 3233.07 0.823904 1.40412 0
M  V30 34408 O 3234.26 1.10235 1.40394 0
M  V30 34409 C 3231.36 2.16932 2.60372 0
M  V30 34410 C 3230.53 3.48165 2.64764 0
M  V30 34411 C 3229.59 3.60843 3.82986 0
M  V30 34412 O 3228.62 4.33451 3.6893 0
M  V30 34413 N 3229.82 2.95782 4.99493 0
M  V30 34414 H 3232.59 2.85032 0.926122 0
M  V30 34415 H 3230.15 1.5785 0.359881 0
M  V30 34416 H 3232.14 2.22677 3.3793 0
M  V30 34417 H 3230.71 1.31347 2.83667 0
M  V30 34418 H 3229.93 3.54067 1.73292 0
M  V30 34419 H 3231.22 4.34518 2.6471 0
M  V30 34420 H 3230.61 2.36666 5.13815 0
M  V30 34421 H 3229.17 3.07121 5.74909 0
M  V30 34422 N 3232.6 -0.43872 1.5137 0
M  V30 34423 C 3234.02 -1.01863 1.56463 0
M  V30 34424 C 3234.37 -1.9234 0.387278 0
M  V30 34425 O 3233.49 -2.10637 -0.496094 0
M  V30 34426 C 3234.09 -1.85416 2.8356 0
M  V30 34427 C 3232.65 -2.38459 2.91229 0
M  V30 34428 C 3231.79 -1.17637 2.51111 0
M  V30 34429 H 3234.74 -0.220044 1.57167 0
M  V30 34430 H 3234.76 -2.70852 2.67244 0
M  V30 34431 H 3234.28 -1.19539 3.69232 0
M  V30 34432 H 3232.38 -3.07795 2.09984 0
M  V30 34433 H 3232.49 -2.71351 3.94849 0
M  V30 34434 H 3230.85 -1.52127 2.04278 0
M  V30 34435 H 3231.64 -0.533725 3.39126 0
M  V30 34436 N 3234.08 -1.41493 -0.694073 0
M  V30 34437 C 3235.33 -1.40229 -1.44978 0
M  V30 34438 C 3235.64 -0.0151597 -1.95594 0
M  V30 34439 O 3236.85 0.120098 -2.71234 0
M  V30 34440 C 3235.31 -2.4657 -2.62166 0
M  V30 34441 C 3234.91 -3.91198 -2.1833 0
M  V30 34442 C 3236.66 -2.54445 -3.39791 0
M  V30 34443 C 3234.57 -4.89088 -3.32486 0
M  V30 34444 H 3233.5 -0.521493 -0.544574 0
M  V30 34445 H 3236.15 -1.67323 -0.75334 0
M  V30 34446 H 3234.53 -2.1261 -3.34085 0
M  V30 34447 H 3235.7 -4.34414 -1.53691 0
M  V30 34448 H 3234.02 -3.86997 -1.53695 0
M  V30 34449 H 3236.61 -3.24763 -4.24774 0
M  V30 34450 H 3236.96 -1.58176 -3.85079 0
M  V30 34451 H 3237.49 -2.87504 -2.7493 0
M  V30 34452 H 3234.23 -5.86766 -2.92209 0
M  V30 34453 H 3233.75 -4.50519 -3.9597 0
M  V30 34454 H 3235.43 -5.09914 -3.98242 0
M  V30 34455 N 3235.56 0.928479 -1.27346 0
M  V30 34456 C 3236.49 2.04601 -1.12521 0
M  V30 34457 C 3237.47 1.70079 -0.0268862 0
M  V30 34458 O 3238.66 1.93155 -0.201231 0
M  V30 34459 C 3235.79 3.38638 -0.770808 0
M  V30 34460 C 3234.74 3.87269 -1.82227 0
M  V30 34461 C 3234.07 5.18103 -1.32187 0
M  V30 34462 C 3235.37 4.10746 -3.22621 0
M  V30 34463 H 3237.06 2.17262 -2.06004 0
M  V30 34464 H 3234.61 1.04396 -0.991845 0
M  V30 34465 H 3236.56 4.16295 -0.653916 0
M  V30 34466 H 3235.28 3.25989 0.199732 0
M  V30 34467 H 3233.94 3.11804 -1.92805 0
M  V30 34468 H 3233.59 5.01844 -0.340807 0
M  V30 34469 H 3233.29 5.5161 -2.02484 0
M  V30 34470 H 3234.81 5.98331 -1.2179 0
M  V30 34471 H 3236.23 4.78976 -3.15048 0
M  V30 34472 H 3234.63 4.55559 -3.90622 0
M  V30 34473 H 3235.7 3.1607 -3.67733 0
M  V30 34474 N 3237.04 1.09355 1.13486 0
M  V30 34475 C 3238.29 0.824042 1.84099 0
M  V30 34476 C 3238.6 -0.652553 1.84394 0
M  V30 34477 O 3239.81 -1.03758 2.50892 0
M  V30 34478 C 3238.26 1.42423 3.3052 0
M  V30 34479 C 3237.87 2.93332 3.38615 0
M  V30 34480 C 3239.61 1.23363 4.06179 0
M  V30 34481 C 3237.52 3.4644 4.79305 0
M  V30 34482 H 3236.45 0.304601 0.689735 0
M  V30 34483 H 3239.1 1.31617 1.27864 0
M  V30 34484 H 3237.48 0.859795 3.86553 0
M  V30 34485 H 3238.66 3.55996 2.92581 0
M  V30 34486 H 3236.97 3.11417 2.7642 0
M  V30 34487 H 3239.57 1.60497 5.10044 0
M  V30 34488 H 3239.91 0.174225 4.15935 0
M  V30 34489 H 3240.45 1.76554 3.56474 0
M  V30 34490 H 3237.19 4.51998 4.7474 0
M  V30 34491 H 3236.71 2.8854 5.25837 0
M  V30 34492 H 3238.38 3.43602 5.48221 0
M  V30 34493 N 3238.52 -1.307 0.880644 0
M  V30 34494 C 3239.75 -2.00181 0.510975 0
M  V30 34495 C 3240.16 -1.66212 -0.903884 0
M  V30 34496 O 3239.5 -0.893117 -1.60528 0
M  V30 34497 C 3239.56 -3.54443 0.600837 0
M  V30 34498 C 3239.22 -4.11917 1.97923 0
M  V30 34499 C 3240.22 -4.28233 2.94809 0
M  V30 34500 C 3237.91 -4.47397 2.28344 0
M  V30 34501 C 3239.9 -4.79235 4.20253 0
M  V30 34502 C 3237.59 -4.98099 3.54035 0
M  V30 34503 C 3238.59 -5.1397 4.49805 0
M  V30 34504 O 3238.27 -5.63579 5.73266 0
M  V30 34505 H 3238.01 -0.646814 0.196488 0
M  V30 34506 H 3240.56 -1.67656 1.18661 0
M  V30 34507 H 3238.79 -3.86475 -0.131764 0
M  V30 34508 H 3240.48 -4.05172 0.243067 0
M  V30 34509 H 3241.24 -4.01129 2.72617 0
M  V30 34510 H 3237.12 -4.34314 1.54571 0
M  V30 34511 H 3240.67 -4.91538 4.95012 0
M  V30 34512 H 3236.56 -5.24638 3.76066 0
M  V30 34513 H 3237.33 -5.81929 5.75587 0
M  V30 34514 N 3240 -0.641156 -1.43969 0
M  V30 34515 C 3241.24 -0.147061 -2.01163 0
M  V30 34516 C 3241.56 1.24208 -1.51101 0
M  V30 34517 O 3242.76 1.83074 -2.0049 0
M  V30 34518 C 3241.22 -0.212131 -3.59274 0
M  V30 34519 C 3240.83 -1.60322 -4.18331 0
M  V30 34520 C 3242.57 0.224983 -4.23903 0
M  V30 34521 C 3240.48 -1.62286 -5.68698 0
M  V30 34522 H 3239.41 -0.0512142 -0.752259 0
M  V30 34523 H 3242.06 -0.801425 -1.65074 0
M  V30 34524 H 3240.44 0.50952 -3.92708 0
M  V30 34525 H 3241.62 -2.34925 -3.96417 0
M  V30 34526 H 3239.93 -1.98527 -3.66027 0
M  V30 34527 H 3242.53 0.22998 -5.34205 0
M  V30 34528 H 3242.87 1.25419 -3.96958 0
M  V30 34529 H 3243.4 -0.444509 -3.95309 0
M  V30 34530 H 3240.14 -2.63076 -6.00393 0
M  V30 34531 H 3239.66 -0.919902 -5.92704 0
M  V30 34532 H 3241.34 -1.36124 -6.32518 0
M  V30 34533 N 3241.47 1.52892 -0.382318 0
M  V30 34534 C 3242.88 1.86467 0.0932513 0
M  V30 34535 C 3243.24 1.30229 1.46748 0
M  V30 34536 O 3242.36 0.630876 2.07 0
M  V30 34537 C 3242.96 3.38343 0.175988 0
M  V30 34538 C 3241.51 3.71654 0.595838 0
M  V30 34539 C 3240.66 2.76202 -0.24656 0
M  V30 34540 H 3243.61 1.46902 -0.600469 0
M  V30 34541 H 3243.63 3.67221 0.996447 0
M  V30 34542 H 3243.15 3.79245 -0.824331 0
M  V30 34543 H 3241.25 3.36318 1.60378 0
M  V30 34544 H 3241.36 4.77754 0.358835 0
M  V30 34545 H 3239.72 2.53077 0.287118 0
M  V30 34546 H 3240.51 3.1994 -1.24473 0
M  V30 34547 N 3242.95 0.111941 1.57202 0
M  V30 34548 C 3244.36 -0.414559 1.82039 0
M  V30 34549 C 3244.71 -1.67072 1.02866 0
M  V30 34550 O 3243.84 -2.14795 0.263106 0
M  V30 34551 C 3244.43 -0.758895 3.30191 0
M  V30 34552 C 3242.99 -1.23006 3.55734 0
M  V30 34553 C 3242.14 -0.235177 2.76301 0
M  V30 34554 H 3245.09 0.337169 1.55077 0
M  V30 34555 H 3245.11 -1.61695 3.44434 0
M  V30 34556 H 3244.62 0.155541 3.87788 0
M  V30 34557 H 3242.72 -2.16164 3.03487 0
M  V30 34558 H 3242.84 -1.18026 4.64335 0
M  V30 34559 H 3241.2 -0.720779 2.44288 0
M  V30 34560 H 3241.98 0.672233 3.36654 0
M  V30 34561 N 3244.43 -1.56767 -0.161814 0
M  V30 34562 C 3245.66 -1.86403 -0.890921 0
M  V30 34563 C 3246.07 -0.696404 -1.75917 0
M  V30 34564 O 3245.41 0.343432 -1.80461 0
M  V30 34565 C 3245.47 -3.10568 -1.81074 0
M  V30 34566 C 3245.14 -4.43034 -1.12114 0
M  V30 34567 C 3246.13 -5.1766 -0.482061 0
M  V30 34568 C 3243.82 -4.89767 -1.11506 0
M  V30 34569 C 3245.81 -6.37214 0.153884 0
M  V30 34570 C 3243.5 -6.09249 -0.475293 0
M  V30 34571 C 3244.5 -6.82817 0.158064 0
M  V30 34572 O 3244.19 -8.00031 0.787719 0
M  V30 34573 H 3243.92 -0.622412 -0.263779 0
M  V30 34574 H 3246.47 -2.04745 -0.163848 0
M  V30 34575 H 3244.7 -2.88196 -2.57837 0
M  V30 34576 H 3246.39 -3.26573 -2.4105 0
M  V30 34577 H 3247.16 -4.82632 -0.478668 0
M  V30 34578 H 3243.04 -4.32438 -1.59744 0
M  V30 34579 H 3246.58 -6.94576 0.648838 0
M  V30 34580 H 3242.48 -6.4374 -0.476303 0
M  V30 34581 H 3243.24 -8.15604 0.687912 0
M  V30 34582 N 3245.91 0.430686 -1.51601 0
M  V30 34583 C 3246.87 1.50579 -1.72797 0
M  V30 34584 C 3247.87 1.4927 -0.597929 0
M  V30 34585 O 3249.06 1.51174 -0.865561 0
M  V30 34586 C 3246.19 2.9009 -1.79054 0
M  V30 34587 H 3247.39 1.33086 -2.68753 0
M  V30 34588 H 3244.94 0.659797 -1.41691 0
M  V30 34589 H 3245.67 3.1298 -0.849364 0
M  V30 34590 H 3245.46 2.92445 -2.61187 0
M  V30 34591 H 3246.95 3.68069 -1.97269 0
M  V30 34592 N 3247.39 1.4186 0.686559 0
M  V30 34593 C 3248.3 1.46794 1.82999 0
M  V30 34594 C 3249.31 0.357705 1.70284 0
M  V30 34595 O 3250.49 0.606814 1.92041 0
M  V30 34596 C 3247.55 1.35667 3.19054 0
M  V30 34597 C 3246.61 2.57083 3.43812 0
M  V30 34598 C 3245.85 2.46477 4.73376 0
M  V30 34599 O 3246.07 1.49423 5.50481 0
M  V30 34600 O 3245 3.36399 4.99118 0
M  V30 34601 H 3248.83 2.4328 1.81792 0
M  V30 34602 H 3246.41 1.23495 0.84079 0
M  V30 34603 H 3248.3 1.3178 4.00265 0
M  V30 34604 H 3246.97 0.423008 3.20924 0
M  V30 34605 H 3245.88 2.66546 2.62496 0
M  V30 34606 H 3247.21 3.49308 3.46763 0
M  V30 34607 N 3248.86 -0.921712 1.27837 0
M  V30 34608 C 3249.79 -2.04001 1.13604 0
M  V30 34609 C 3250.77 -1.70062 0.0359055 0
M  V30 34610 O 3251.96 -1.93045 0.211472 0
M  V30 34611 C 3249.09 -3.38225 0.788756 0
M  V30 34612 C 3248.04 -3.86297 1.84278 0
M  V30 34613 C 3247.37 -5.17395 1.34933 0
M  V30 34614 C 3248.67 -4.0903 3.24795 0
M  V30 34615 H 3250.36 -2.16166 2.07153 0
M  V30 34616 H 3247.91 -1.03868 0.997368 0
M  V30 34617 H 3249.86 -4.15943 0.675984 0
M  V30 34618 H 3248.59 -3.2609 -0.182442 0
M  V30 34619 H 3247.25 -3.10777 1.94456 0
M  V30 34620 H 3246.89 -5.01656 0.367416 0
M  V30 34621 H 3246.59 -5.50529 2.05406 0
M  V30 34622 H 3248.12 -5.97676 1.24962 0
M  V30 34623 H 3249.53 -4.77298 3.17584 0
M  V30 34624 H 3247.93 -4.53481 3.93033 0
M  V30 34625 H 3249 -3.14116 3.69404 0
M  V30 34626 N 3250.34 -1.09956 -1.12905 0
M  V30 34627 C 3251.76 -0.83035 -1.36299 0
M  V30 34628 C 3251.96 0.55266 -1.93773 0
M  V30 34629 O 3251.01 1.30649 -2.16072 0
M  V30 34630 C 3252.33 -1.92602 -2.30922 0
M  V30 34631 C 3253.87 -1.95389 -2.44524 0
M  V30 34632 C 3254.35 -3.04116 -3.42458 0
M  V30 34633 N 3255.84 -3.0339 -3.50012 0
M  V30 34634 C 3256.58 -3.8416 -4.25686 0
M  V30 34635 N 3256.07 -4.74852 -5.04468 0
M  V30 34636 N 3257.86 -3.72398 -4.21042 0
M  V30 34637 H 3250.02 -1.9911 -0.739536 0
M  V30 34638 H 3252.28 -0.864977 -0.387967 0
M  V30 34639 H 3251.98 -2.92119 -1.95856 0
M  V30 34640 H 3251.86 -1.80894 -3.30994 0
M  V30 34641 H 3254.25 -0.965086 -2.78873 0
M  V30 34642 H 3254.33 -2.11174 -1.44357 0
M  V30 34643 H 3253.97 -4.03213 -3.0884 0
M  V30 34644 H 3253.9 -2.85573 -4.42443 0
M  V30 34645 H 3256.39 -2.3767 -2.93805 0
M  V30 34646 H 3256.7 -5.33051 -5.59532 0
M  V30 34647 H 3255.05 -4.78884 -5.03681 0
M  V30 34648 H 3258.24 -3.00901 -3.58575 0
M  V30 34649 H 3258.41 -4.35581 -4.79764 0
M  V30 34650 N 3251.82 1.30231 -0.887563 0
M  V30 34651 C 3253.07 1.95655 -0.506311 0
M  V30 34652 C 3253.39 1.70396 0.948161 0
M  V30 34653 O 3252.66 1.02898 1.667 0
M  V30 34654 H 3251.24 0.723921 -0.184248 0
M  V30 34655 H 3253.9 1.58713 -1.1312 0
M  V30 34656 H 3253 3.0463 -0.678727 0
M  V30 34657 N 3253.3 0.648782 1.43627 0
M  V30 34658 C 3254.55 0.160055 2.01465 0
M  V30 34659 C 3254.87 -1.22875 1.51415 0
M  V30 34660 O 3254.14 -1.81993 0.724951 0
M  V30 34661 H 3252.72 0.0561803 0.744884 0
M  V30 34662 H 3255.38 0.839453 1.75895 0
M  V30 34663 H 3254.48 0.141268 3.1178 0
M  V30 34664 N 3254.78 -1.52688 0.390421 0
M  V30 34665 C 3256 -2.06491 -0.193977 0
M  V30 34666 C 3256.43 -1.26016 -1.39648 0
M  V30 34667 O 3255.78 -0.285499 -1.79038 0
M  V30 34668 C 3255.83 -3.56515 -0.541244 0
M  V30 34669 O 3254.94 -3.78603 -1.63503 0
M  V30 34670 H 3254.28 -0.663624 -0.0223491 0
M  V30 34671 H 3256.81 -1.96838 0.558214 0
M  V30 34672 H 3256.82 -3.99975 -0.805231 0
M  V30 34673 H 3255.49 -4.14525 0.337901 0
M  V30 34674 H 3254.07 -3.47032 -1.36467 0
M  V30 34675 N 3256.25 -0.120276 -1.5714 0
M  V30 34676 C 3257.5 0.531955 -1.96321 0
M  V30 34677 C 3257.86 1.64208 -1.00268 0
M  V30 34678 O 3257.15 1.91572 -0.0329306 0
M  V30 34679 C 3257.34 1.10935 -3.39747 0
M  V30 34680 C 3257.17 0.0566982 -4.49664 0
M  V30 34681 C 3255.94 -0.375554 -5.03902 0
M  V30 34682 C 3258.14 -0.724757 -5.09168 0
M  V30 34683 N 3256.12 -1.41385 -5.97397 0
M  V30 34684 C 3257.49 -1.61421 -5.98618 0
M  V30 34685 C 3259.55 -0.775504 -4.91823 0
M  V30 34686 C 3258.25 -2.55 -6.72583 0
M  V30 34687 C 3260.28 -1.69901 -5.6647 0
M  V30 34688 C 3259.64 -2.57604 -6.55606 0
M  V30 34689 H 3255.74 0.164246 -0.764557 0
M  V30 34690 H 3258.32 -0.20869 -1.93578 0
M  V30 34691 H 3256.49 1.81971 -3.43134 0
M  V30 34692 H 3258.22 1.726 -3.66048 0
M  V30 34693 H 3254.98 0.017089 -4.73597 0
M  V30 34694 H 3255.4 -1.93195 -6.48849 0
M  V30 34695 H 3260.05 -0.111571 -4.22653 0
M  V30 34696 H 3257.76 -3.22406 -7.40999 0
M  V30 34697 H 3261.35 -1.74373 -5.55054 0
M  V30 34698 H 3260.23 -3.27902 -7.12355 0
M  V30 34699 N 3257.73 1.56851 0.153498 0
M  V30 34700 C 3258.98 1.83263 0.868485 0
M  V30 34701 C 3259.31 0.700889 1.81111 0
M  V30 34702 O 3258.59 -0.295956 1.92235 0
M  V30 34703 C 3258.87 3.20143 1.64864 0
M  V30 34704 C 3258.72 4.43871 0.727943 0
M  V30 34705 C 3260.04 3.54168 2.61253 0
M  V30 34706 H 3257.16 0.666629 0.314285 0
M  V30 34707 H 3259.8 1.89527 0.133938 0
M  V30 34708 H 3257.95 3.14934 2.27484 0
M  V30 34709 H 3259.62 4.61161 0.113247 0
M  V30 34710 H 3257.87 4.33784 0.0370982 0
M  V30 34711 H 3258.54 5.36237 1.30972 0
M  V30 34712 H 3261.01 3.59946 2.08753 0
M  V30 34713 H 3259.89 4.50986 3.12894 0
M  V30 34714 H 3260.15 2.79788 3.42302 0
M  V30 34715 N 3259.21 -0.42264 1.51827 0
M  V30 34716 C 3260.46 -1.17255 1.65466 0
M  V30 34717 C 3260.79 -1.90508 0.376867 0
M  V30 34718 O 3260.06 -1.84212 -0.624187 0
M  V30 34719 C 3260.35 -2.17783 2.8678 0
M  V30 34720 C 3260.2 -1.48516 4.24574 0
M  V30 34721 C 3261.52 -3.18606 3.03609 0
M  V30 34722 H 3258.64 -0.424915 0.602176 0
M  V30 34723 H 3261.28 -0.459927 1.84349 0
M  V30 34724 H 3259.43 -2.78556 2.70811 0
M  V30 34725 H 3261.1 -0.909659 4.52242 0
M  V30 34726 H 3259.35 -0.787279 4.26596 0
M  V30 34727 H 3260.02 -2.21801 5.05478 0
M  V30 34728 H 3262.49 -2.67898 3.18386 0
M  V30 34729 H 3261.37 -3.86223 3.90029 0
M  V30 34730 H 3261.63 -3.85559 2.16325 0
M  V30 34731 N 3260.69 -1.42222 -0.679027 0
M  V30 34732 C 3261.94 -1.41759 -1.43482 0
M  V30 34733 C 3262.25 -0.0359042 -1.95567 0
M  V30 34734 O 3263.46 0.0913236 -2.71346 0
M  V30 34735 C 3261.91 -2.49337 -2.59537 0
M  V30 34736 C 3261.52 -3.93492 -2.14169 0
M  V30 34737 C 3263.26 -2.58035 -3.37073 0
M  V30 34738 C 3261.17 -4.92587 -3.2728 0
M  V30 34739 H 3260.1 -0.527239 -0.539013 0
M  V30 34740 H 3262.75 -1.68113 -0.735551 0
M  V30 34741 H 3261.13 -2.16141 -3.31812 0
M  V30 34742 H 3262.31 -4.3602 -1.49075 0
M  V30 34743 H 3260.62 -3.88605 -1.49582 0
M  V30 34744 H 3263.22 -3.2925 -4.21306 0
M  V30 34745 H 3263.56 -1.62252 -3.8338 0
M  V30 34746 H 3264.1 -2.90404 -2.71865 0
M  V30 34747 H 3260.84 -5.89832 -2.85969 0
M  V30 34748 H 3260.36 -4.54694 -3.9117 0
M  V30 34749 H 3262.03 -5.1411 -3.92811 0
M  V30 34750 N 3262.17 0.91492 -1.28324 0
M  V30 34751 C 3263.44 1.64315 -1.06114 0
M  V30 34752 C 3263.82 2.07278 0.399897 0
M  V30 34753 O 3263.17 1.81686 1.38574 0
M  V30 34754 C 3263.38 2.83553 -2.03466 0
M  V30 34755 C 3264.73 3.54599 -2.33547 0
M  V30 34756 O 3265.75 2.937 -2.01541 0
M  V30 34757 O 3264.61 4.64352 -2.88166 0
M  V30 34758 H 3261.71 0.720783 -0.405463 0
M  V30 34759 H 3264.25 0.964328 -1.39638 0
M  V30 34760 H 3263.02 2.48891 -3.01942 0
M  V30 34761 H 3262.65 3.59149 -1.7058 0
M  V30 34762 N 3263.64 1.10553 1.1232 0
M  V30 34763 C 3264.61 0.758882 2.16272 0
M  V30 34764 C 3265.61 -0.217266 1.59325 0
M  V30 34765 O 3266.8 0.00604408 1.74199 0
M  V30 34766 C 3263.93 0.124297 3.40673 0
M  V30 34767 H 3265.12 1.67965 2.48451 0
M  V30 34768 H 3262.68 0.90621 1.27348 0
M  V30 34769 H 3263.41 -0.807139 3.14095 0
M  V30 34770 H 3263.2 0.826839 3.83283 0
M  V30 34771 H 3264.69 -0.102429 4.17474 0
M  V30 34772 N 3265.12 -1.29758 0.894457 0
M  V30 34773 C 3266.35 -1.99918 0.532951 0
M  V30 34774 C 3266.77 -1.66985 -0.880993 0
M  V30 34775 O 3266.12 -0.912063 -1.58075 0
M  V30 34776 C 3266.17 -3.54471 0.709422 0
M  V30 34777 O 3265.89 -3.86235 2.06771 0
M  V30 34778 C 3267.4 -4.41899 0.352167 0
M  V30 34779 H 3264.62 -0.638908 0.20503 0
M  V30 34780 H 3267.16 -1.65419 1.20236 0
M  V30 34781 H 3265.31 -3.87302 0.0872582 0
M  V30 34782 H 3265.73 -4.8092 2.09324 0
M  V30 34783 H 3267.2 -5.49483 0.526502 0
M  V30 34784 H 3267.68 -4.33416 -0.710451 0
M  V30 34785 H 3268.29 -4.1453 0.951052 0
M  V30 34786 N 3266.6 -0.65639 -1.4328 0
M  V30 34787 C 3267.85 -0.168389 -2.00996 0
M  V30 34788 C 3268.16 1.22599 -1.5241 0
M  V30 34789 O 3269.37 1.80937 -2.0242 0
M  V30 34790 C 3267.82 -0.250225 -3.59029 0
M  V30 34791 C 3267.43 -1.64749 -4.16607 0
M  V30 34792 C 3269.18 0.180009 -4.24118 0
M  V30 34793 C 3267.08 -1.68309 -5.66945 0
M  V30 34794 H 3266.01 -0.0591901 -0.751673 0
M  V30 34795 H 3268.66 -0.818888 -1.64215 0
M  V30 34796 H 3267.05 0.467839 -3.93227 0
M  V30 34797 H 3268.22 -2.39116 -3.93903 0
M  V30 34798 H 3266.54 -2.02398 -3.63901 0
M  V30 34799 H 3269.13 0.173307 -5.34419 0
M  V30 34800 H 3269.48 1.21201 -3.98266 0
M  V30 34801 H 3270.01 -0.486412 -3.94815 0
M  V30 34802 H 3266.75 -2.69429 -5.97568 0
M  V30 34803 H 3266.27 -0.982714 -5.91695 0
M  V30 34804 H 3267.95 -1.42825 -6.31039 0
M  V30 34805 N 3268.08 1.52478 -0.398513 0
M  V30 34806 C 3269.03 2.28265 0.446961 0
M  V30 34807 C 3270.02 1.32531 1.05508 0
M  V30 34808 O 3271.23 1.50032 0.994501 0
M  V30 34809 H 3267.6 0.734143 0.162906 0
M  V30 34810 H 3269.57 2.97635 -0.213587 0
M  V30 34811 C 3268.32 3.10881 1.55718 0
M  V30 34812 H 3267.65 3.8441 1.09857 0
M  V30 34813 H 3269.09 3.67033 2.1228 0
M  V30 34814 C 3267.54 2.23772 2.51849 0
M  V30 34815 O 3268.07 1.87075 3.5548 0
M  V30 34816 N 3266.28 1.8775 2.21807 0
M  V30 34817 H 3265.83 2.17792 1.37566 0
M  V30 34818 H 3265.79 1.29758 2.86374 0
M  V30 34819 N 3269.56 0.128608 1.57074 0
M  V30 34820 C 3270.97 -0.395227 1.82469 0
M  V30 34821 C 3271.32 -1.65971 1.04633 0
M  V30 34822 O 3270.44 -2.14503 0.285873 0
M  V30 34823 C 3271.04 -0.723831 3.30978 0
M  V30 34824 C 3269.6 -1.19226 3.57018 0
M  V30 34825 C 3268.75 -0.205858 2.76535 0
M  V30 34826 H 3271.7 0.353598 1.54711 0
M  V30 34827 H 3271.72 -1.58033 3.4613 0
M  V30 34828 H 3271.23 0.196663 3.87601 0
M  V30 34829 H 3269.33 -2.12932 3.05762 0
M  V30 34830 H 3269.44 -1.13094 4.6556 0
M  V30 34831 H 3267.81 -0.694829 2.45039 0
M  V30 34832 H 3268.59 0.707902 3.35922 0
M  V30 34833 N 3271.04 -1.5693 -0.145178 0
M  V30 34834 C 3271.97 -2.01436 -1.18092 0
M  V30 34835 C 3272.95 -0.89423 -1.44698 0
M  V30 34836 O 3274.13 -1.16216 -1.55587 0
M  V30 34837 C 3271.26 -2.39652 -2.51365 0
M  V30 34838 C 3270.22 -3.54867 -2.39277 0
M  V30 34839 C 3269.54 -3.78902 -3.77276 0
M  V30 34840 C 3270.84 -4.87472 -1.87531 0
M  V30 34841 H 3272.54 -2.88211 -0.810847 0
M  V30 34842 H 3270.08 -1.38657 -0.3886 0
M  V30 34843 H 3272.03 -2.69388 -3.24049 0
M  V30 34844 H 3270.76 -1.49816 -2.90211 0
M  V30 34845 H 3269.42 -3.25299 -1.69044 0
M  V30 34846 H 3269.07 -2.86314 -4.13562 0
M  V30 34847 H 3268.77 -4.5644 -3.70049 0
M  V30 34848 H 3270.29 -4.11065 -4.51506 0
M  V30 34849 H 3271.7 -5.15915 -2.5001 0
M  V30 34850 H 3270.1 -5.68829 -1.9119 0
M  V30 34851 H 3271.17 -4.77724 -0.83111 0
M  V30 34852 N 3272.51 0.414582 -1.52049 0
M  V30 34853 C 3273.75 1.17126 -1.67514 0
M  V30 34854 C 3274.12 1.87917 -0.393863 0
M  V30 34855 O 3275.32 2.65426 -0.424542 0
M  V30 34856 C 3273.59 2.14352 -2.85986 0
M  V30 34857 S 3275.15 2.982 -3.21904 0
M  V30 34858 H 3271.97 0.396867 -0.58993 0
M  V30 34859 H 3274.57 0.459375 -1.90026 0
M  V30 34860 H 3273.27 1.61023 -3.77491 0
M  V30 34861 H 3272.8 2.90088 -2.6573 0
M  V30 34862 H 3274.82 4.16244 -2.70102 0
M  V30 34863 N 3273.99 1.4258 0.671475 0
M  V30 34864 C 3275.24 1.42518 1.42729 0
M  V30 34865 C 3275.55 0.0462751 1.95545 0
M  V30 34866 O 3276.76 -0.0769321 2.71391 0
M  V30 34867 C 3275.22 2.5071 2.58211 0
M  V30 34868 C 3274.82 3.94622 2.12079 0
M  V30 34869 C 3276.57 2.59819 3.357 0
M  V30 34870 C 3274.47 4.94315 3.24663 0
M  V30 34871 H 3273.4 0.530091 0.536209 0
M  V30 34872 H 3276.06 1.685 0.726625 0
M  V30 34873 H 3274.44 2.17898 3.30661 0
M  V30 34874 H 3275.61 4.36804 1.4676 0
M  V30 34875 H 3273.93 3.89393 1.47519 0
M  V30 34876 H 3276.52 3.31479 4.19554 0
M  V30 34877 H 3276.87 1.64283 3.82514 0
M  V30 34878 H 3277.4 2.91841 2.70321 0
M  V30 34879 H 3274.14 5.9134 2.82837 0
M  V30 34880 H 3273.66 4.56762 3.88753 0
M  V30 34881 H 3275.34 5.16185 3.90079 0
M  V30 34882 N 3275.47 -0.908102 1.28807 0
M  V30 34883 C 3276.38 -2.04434 1.15082 0
M  V30 34884 C 3277.4 -1.73834 0.0760426 0
M  V30 34885 O 3278.57 -1.99352 0.286456 0
M  V30 34886 C 3275.64 -3.36868 0.819792 0
M  V30 34887 C 3274.7 -3.81041 1.97753 0
M  V30 34888 C 3273.93 -5.07155 1.6622 0
M  V30 34889 O 3274.15 -5.67452 0.579191 0
M  V30 34890 O 3273.09 -5.47178 2.50759 0
M  V30 34891 H 3276.91 -2.18933 2.1048 0
M  V30 34892 H 3274.5 -1.03042 1.08179 0
M  V30 34893 H 3276.38 -4.16366 0.649378 0
M  V30 34894 H 3275.06 -3.23531 -0.104483 0
M  V30 34895 H 3273.96 -3.02346 2.20313 0
M  V30 34896 H 3275.3 -3.9895 2.88271 0
M  V30 34897 N 3276.95 -1.11147 -1.11732 0
M  V30 34898 C 3277.88 -0.710847 -2.16846 0
M  V30 34899 C 3278.86 0.291465 -1.59966 0
M  V30 34900 O 3280.04 0.188612 -1.87554 0
M  V30 34901 C 3277.17 -0.050034 -3.38663 0
M  V30 34902 C 3276.22 -1.017 -4.14197 0
M  V30 34903 S 3277.05 -2.53801 -4.71535 0
M  V30 34904 C 3278.2 -1.89012 -5.96679 0
M  V30 34905 H 3278.44 -1.60125 -2.50494 0
M  V30 34906 H 3275.97 -0.929204 -1.23309 0
M  V30 34907 H 3277.93 0.324887 -4.09212 0
M  V30 34908 H 3276.59 0.817281 -3.03281 0
M  V30 34909 H 3275.78 -0.502022 -5.01494 0
M  V30 34910 H 3275.38 -1.3342 -3.49393 0
M  V30 34911 H 3277.68 -1.22474 -6.66338 0
M  V30 34912 H 3278.62 -2.74294 -6.52816 0
M  V30 34913 H 3279.03 -1.35155 -5.48082 0
M  V30 34914 N 3278.43 1.29282 -0.901326 0
M  V30 34915 C 3279.66 1.99343 -0.542758 0
M  V30 34916 C 3280.06 1.67629 0.877327 0
M  V30 34917 O 3279.41 0.918543 1.59086 0
M  V30 34918 C 3279.47 3.53443 -0.65715 0
M  V30 34919 C 3279.13 4.08716 -2.04451 0
M  V30 34920 C 3280.13 4.23489 -3.01585 0
M  V30 34921 C 3277.81 4.43708 -2.35433 0
M  V30 34922 C 3279.81 4.72488 -4.27824 0
M  V30 34923 C 3277.5 4.92403 -3.61915 0
M  V30 34924 C 3278.49 5.06749 -4.57924 0
M  V30 34925 O 3278.18 5.54387 -5.8216 0
M  V30 34926 H 3277.91 0.643606 -0.206753 0
M  V30 34927 H 3280.47 1.65747 -1.21314 0
M  V30 34928 H 3278.7 3.86636 0.0702625 0
M  V30 34929 H 3280.39 4.04734 -0.307496 0
M  V30 34930 H 3281.15 3.96742 -2.78964 0
M  V30 34931 H 3277.03 4.318 -1.61461 0
M  V30 34932 H 3280.58 4.836 -5.02769 0
M  V30 34933 H 3276.47 5.18588 -3.84365 0
M  V30 34934 H 3277.24 5.72698 -5.84772 0
M  V30 34935 N 3279.9 0.663979 1.4293 0
M  V30 34936 C 3280.87 -0.0117223 2.29197 0
M  V30 34937 C 3281.87 -0.73985 1.42769 0
M  V30 34938 O 3283.06 -0.57948 1.64279 0
M  V30 34939 C 3280.19 -1.02732 3.25052 0
M  V30 34940 H 3281.38 0.747442 2.90436 0
M  V30 34941 H 3278.93 0.42576 1.50389 0
M  V30 34942 H 3279.67 -1.81535 2.68729 0
M  V30 34943 H 3279.45 -0.50874 3.88786 0
M  V30 34944 H 3280.94 -1.49887 3.89774 0
M  V30 34945 N 3281.38 -1.52265 0.406593 0
M  V30 34946 C 3282.66 -1.94261 -0.228443 0
M  V30 34947 C 3283.04 -1.3433 -1.62845 0
M  V30 34948 O 3282.39 -0.518121 -2.22548 0
M  V30 34949 C 3282.6 -3.48192 -0.23734 0
M  V30 34950 C 3283.94 -4.22123 -0.457922 0
M  V30 34951 O 3284.97 -3.54788 -0.316806 0
M  V30 34952 O 3283.83 -5.41523 -0.735851 0
M  V30 34953 H 3280.92 -0.813925 -0.146477 0
M  V30 34954 H 3283.47 -1.6328 0.462353 0
M  V30 34955 H 3282.24 -3.84188 0.742624 0
M  V30 34956 H 3281.86 -3.85527 -0.972341 0
M  V30 34957 N 3282.86 -0.136936 -1.57004 0
M  V30 34958 C 3283.81 0.806569 -2.16248 0
M  V30 34959 C 3284.78 1.25116 -1.09248 0
M  V30 34960 O 3285.96 1.32549 -1.37242 0
M  V30 34961 C 3283.1 2.04428 -2.78034 0
M  V30 34962 C 3282.22 1.64642 -3.99396 0
M  V30 34963 C 3281.35 2.83516 -4.49213 0
M  V30 34964 C 3280.39 2.40054 -5.63063 0
M  V30 34965 N 3279.53 3.51903 -6.07543 0
M  V30 34966 H 3284.37 0.294544 -2.96541 0
M  V30 34967 H 3281.9 0.133679 -1.46491 0
M  V30 34968 H 3283.86 2.76973 -3.11997 0
M  V30 34969 H 3282.49 2.53059 -2.00402 0
M  V30 34970 H 3281.54 0.819012 -3.71479 0
M  V30 34971 H 3282.86 1.28715 -4.81907 0
M  V30 34972 H 3282.01 3.64263 -4.85178 0
M  V30 34973 H 3280.75 3.22681 -3.65689 0
M  V30 34974 H 3279.75 1.57744 -5.26685 0
M  V30 34975 H 3280.98 2.01986 -6.48366 0
M  V30 34976 H 3278.92 3.90708 -5.26957 0
M  V30 34977 H 3278.84 3.19958 -6.84955 0
M  V30 34978 H 3280.11 4.33037 -6.48151 0
M  V30 34979 N 3284.34 1.57005 0.136853 0
M  V30 34980 C 3285.25 2.02302 1.18789 0
M  V30 34981 C 3286.26 0.940206 1.46411 0
M  V30 34982 O 3287.44 1.25043 1.5788 0
M  V30 34983 C 3284.51 2.40315 2.49899 0
M  V30 34984 C 3283.57 3.62594 2.29834 0
M  V30 34985 C 3282.8 3.98785 3.54692 0
M  V30 34986 O 3283.02 3.35518 4.61285 0
M  V30 34987 O 3281.96 4.91982 3.46753 0
M  V30 34988 H 3285.78 2.92044 0.833294 0
M  V30 34989 H 3283.37 1.4533 0.346335 0
M  V30 34990 H 3285.25 2.65579 3.27178 0
M  V30 34991 H 3283.92 1.53725 2.84869 0
M  V30 34992 H 3282.83 3.42504 1.50472 0
M  V30 34993 H 3284.16 4.49834 1.99776 0
M  V30 34994 N 3285.82 -0.406513 1.52267 0
M  V30 34995 C 3287.04 -1.17942 1.706 0
M  V30 34996 C 3287.47 -1.83446 0.415825 0
M  V30 34997 O 3286.82 -1.70115 -0.626938 0
M  V30 34998 C 3286.87 -2.21628 2.84453 0
M  V30 34999 O 3285.98 -3.27828 2.50205 0
M  V30 35000 H 3285.32 -0.344167 0.567843 0
M  V30 35001 H 3287.85 -0.476176 1.98982 0
M  V30 35002 H 3287.86 -2.65914 3.09441 0
M  V30 35003 H 3286.53 -1.73335 3.78058 0
M  V30 35004 H 3285.11 -2.88803 2.35897 0
M  V30 35005 N 3287.29 -1.42934 -0.663904 0
M  V30 35006 C 3288.71 -1.26099 -0.978324 0
M  V30 35007 C 3288.91 -0.173003 -2.00756 0
M  V30 35008 O 3287.97 0.45214 -2.48419 0
M  V30 35009 C 3289.28 -2.62165 -1.47276 0
M  V30 35010 C 3290.83 -2.69609 -1.58996 0
M  V30 35011 C 3291.3 -4.06067 -2.11833 0
M  V30 35012 N 3292.79 -4.08077 -2.19151 0
M  V30 35013 C 3293.53 -5.10488 -2.61132 0
M  V30 35014 N 3293.02 -6.23276 -3.02487 0
M  V30 35015 N 3294.82 -4.97843 -2.60977 0
M  V30 35016 H 3286.97 -2.12393 0.0173469 0
M  V30 35017 H 3289.23 -0.946415 -0.054795 0
M  V30 35018 H 3288.94 -3.42691 -0.790947 0
M  V30 35019 H 3288.81 -2.86831 -2.44964 0
M  V30 35020 H 3291.2 -1.89422 -2.26281 0
M  V30 35021 H 3291.28 -2.48719 -0.597684 0
M  V30 35022 H 3290.92 -4.86716 -1.45154 0
M  V30 35023 H 3290.85 -4.24315 -3.11872 0
M  V30 35024 H 3293.34 -3.26658 -1.90007 0
M  V30 35025 H 3293.66 -6.9726 -3.33239 0
M  V30 35026 H 3292 -6.26765 -3.00317 0
M  V30 35027 H 3295.19 -4.08798 -2.28039 0
M  V30 35028 H 3295.37 -5.77785 -2.93374 0
M  V30 35029 N 3288.77 0.901258 -1.29287 0
M  V30 35030 C 3290.02 1.64834 -1.16936 0
M  V30 35031 C 3290.34 1.92982 0.279792 0
M  V30 35032 O 3289.61 1.5548 1.19176 0
M  V30 35033 H 3288.19 0.610982 -0.429779 0
M  V30 35034 H 3290.85 1.08074 -1.62191 0
M  V30 35035 H 3289.95 2.60542 -1.71826 0
M  V30 35036 N 3290.25 1.11738 1.11141 0
M  V30 35037 C 3291.5 0.866444 1.82585 0
M  V30 35038 C 3291.82 -0.60956 1.85228 0
M  V30 35039 O 3291.09 -1.44286 1.32508 0
M  V30 35040 H 3289.67 0.317552 0.676143 0
M  V30 35041 H 3292.33 1.41039 1.34514 0
M  V30 35042 H 3291.43 1.24141 2.86348 0
M  V30 35043 N 3291.73 -1.28802 0.90817 0
M  V30 35044 C 3292.97 -1.955 0.539236 0
M  V30 35045 C 3293.31 -1.71361 -0.913728 0
M  V30 35046 O 3292.58 -1.03139 -1.64902 0
M  V30 35047 C 3292.87 -3.50107 0.842433 0
M  V30 35048 C 3292.72 -3.83669 2.34772 0
M  V30 35049 C 3294.04 -4.38825 0.334736 0
M  V30 35050 H 3291.16 -0.710076 0.197385 0
M  V30 35051 H 3293.8 -1.5227 1.1364 0
M  V30 35052 H 3291.95 -3.8706 0.334211 0
M  V30 35053 H 3293.62 -3.56616 2.92613 0
M  V30 35054 H 3291.86 -3.30912 2.805 0
M  V30 35055 H 3292.53 -4.91611 2.51042 0
M  V30 35056 H 3295.01 -4.08913 0.770033 0
M  V30 35057 H 3293.89 -5.45869 0.57601 0
M  V30 35058 H 3294.15 -4.35434 -0.764801 0
M  V30 35059 N 3293.21 -0.67155 -1.42576 0
M  V30 35060 C 3294.14 -0.00511088 -2.33499 0
M  V30 35061 C 3295.12 0.792736 -1.50498 0
M  V30 35062 O 3296.3 0.750543 -1.7911 0
M  V30 35063 C 3293.43 0.949135 -3.34079 0
M  V30 35064 C 3292.39 0.260111 -4.27209 0
M  V30 35065 C 3291.71 1.32707 -5.1797 0
M  V30 35066 C 3293.01 -0.858863 -5.1519 0
M  V30 35067 H 3294.71 -0.764457 -2.89476 0
M  V30 35068 H 3292.25 -0.369067 -1.3919 0
M  V30 35069 H 3294.21 1.42441 -3.96596 0
M  V30 35070 H 3292.93 1.73986 -2.76399 0
M  V30 35071 H 3291.59 -0.194898 -3.66082 0
M  V30 35072 H 3291.24 2.1097 -4.56619 0
M  V30 35073 H 3290.94 0.871191 -5.81106 0
M  V30 35074 H 3292.46 1.80334 -5.83363 0
M  V30 35075 H 3293.87 -0.464944 -5.71412 0
M  V30 35076 H 3292.27 -1.24034 -5.87142 0
M  V30 35077 H 3293.34 -1.70903 -4.53784 0
M  V30 35078 N 3294.68 1.52047 -0.414663 0
M  V30 35079 C 3295.59 2.30903 0.41482 0
M  V30 35080 C 3296.61 1.3886 1.04852 0
M  V30 35081 O 3297.79 1.71934 1.04883 0
M  V30 35082 C 3294.85 3.1192 1.5135 0
M  V30 35083 C 3293.91 4.19711 0.902285 0
M  V30 35084 C 3293.15 4.96855 1.94861 0
M  V30 35085 O 3293.37 4.74363 3.16758 0
M  V30 35086 O 3292.3 5.81553 1.55176 0
M  V30 35087 H 3296.13 3.02841 -0.228304 0
M  V30 35088 H 3293.71 1.48339 -0.17773 0
M  V30 35089 H 3295.6 3.62355 2.15121 0
M  V30 35090 H 3294.27 2.42771 2.14112 0
M  V30 35091 H 3293.18 3.7341 0.227144 0
M  V30 35092 H 3294.51 4.91168 0.318501 0
M  V30 35093 N 3296.16 0.145261 1.56929 0
M  V30 35094 C 3297.57 -0.375852 1.82878 0
M  V30 35095 C 3297.92 -1.64852 1.06387 0
M  V30 35096 O 3297.05 -2.14188 0.308608 0
M  V30 35097 C 3297.64 -0.688686 3.31727 0
M  V30 35098 C 3296.2 -1.15433 3.58263 0
M  V30 35099 C 3295.35 -0.176517 2.76738 0
M  V30 35100 H 3298.3 0.369987 1.54327 0
M  V30 35101 H 3298.32 -1.54353 3.47787 0
M  V30 35102 H 3297.83 0.237762 3.87371 0
M  V30 35103 H 3295.94 -2.09677 3.08003 0
M  V30 35104 H 3296.05 -1.0815 4.66734 0
M  V30 35105 H 3294.41 -0.6688 2.45762 0
M  V30 35106 H 3295.2 0.743491 3.35152 0
M  V30 35107 N 3297.64 -1.57075 -0.128525 0
M  V30 35108 C 3298.55 -2.02929 -1.17715 0
M  V30 35109 C 3299.57 -0.947957 -1.4591 0
M  V30 35110 O 3300.74 -1.25879 -1.57215 0
M  V30 35111 C 3297.81 -2.41637 -2.48621 0
M  V30 35112 C 3296.87 -3.63808 -2.27908 0
M  V30 35113 C 3296.1 -4.0066 -3.52572 0
M  V30 35114 O 3296.33 -3.3796 -4.59499 0
M  V30 35115 O 3295.26 -4.93814 -3.44139 0
M  V30 35116 H 3299.09 -2.92482 -0.817794 0
M  V30 35117 H 3296.67 -1.45512 -0.338623 0
M  V30 35118 H 3298.55 -2.67311 -3.25765 0
M  V30 35119 H 3297.23 -1.55234 -2.8405 0
M  V30 35120 H 3296.13 -3.43297 -1.48654 0
M  V30 35121 H 3297.47 -4.50887 -1.97388 0
M  V30 35122 N 3299.12 0.398432 -1.5248 0
M  V30 35123 C 3300.37 1.14212 -1.66733 0
M  V30 35124 C 3300.69 1.90748 -0.404991 0
M  V30 35125 O 3299.96 1.87105 0.580402 0
M  V30 35126 H 3298.54 0.424611 -0.614585 0
M  V30 35127 H 3301.2 0.453026 -1.89562 0
M  V30 35128 H 3300.3 1.85027 -2.5134 0
M  V30 35129 N 3300.6 1.43284 0.656314 0
M  V30 35130 C 3301.83 1.48171 1.44406 0
M  V30 35131 C 3302.24 0.0986348 1.88542 0
M  V30 35132 O 3301.6 -0.890499 1.593 0
M  V30 35133 C 3301.65 2.42489 2.68107 0
M  V30 35134 O 3301.37 3.75417 2.25817 0
M  V30 35135 C 3302.87 2.56586 3.61495 0
M  V30 35136 H 3300.09 0.503341 0.443722 0
M  V30 35137 H 3302.63 1.87994 0.804884 0
M  V30 35138 H 3300.79 2.05869 3.28172 0
M  V30 35139 H 3301.2 4.26107 3.05832 0
M  V30 35140 H 3302.68 3.26663 4.44966 0
M  V30 35141 H 3303.15 1.60976 4.08636 0
M  V30 35142 H 3303.76 2.94004 3.07314 0
M  V30 35143 N 3302.08 -0.894389 1.29763 0
M  V30 35144 C 3303.32 -1.6478 1.18217 0
M  V30 35145 C 3303.65 -1.92389 -0.264601 0
M  V30 35146 O 3302.93 -1.53811 -1.19048 0
M  V30 35147 C 3303.21 -2.99357 2.00143 0
M  V30 35148 C 3303.07 -2.78781 3.52989 0
M  V30 35149 C 3304.38 -4.0016 1.83194 0
M  V30 35150 H 3301.5 -0.597972 0.430812 0
M  V30 35151 H 3304.15 -1.03563 1.59294 0
M  V30 35152 H 3302.3 -3.51608 1.6524 0
M  V30 35153 H 3303.97 -2.33391 3.97903 0
M  V30 35154 H 3302.21 -2.13463 3.77645 0
M  V30 35155 H 3302.88 -3.74432 4.05591 0
M  V30 35156 H 3305.36 -3.57037 2.1369 0
M  V30 35157 H 3304.23 -4.92251 2.42858 0
M  V30 35158 H 3304.49 -4.35011 0.788545 0
M  V30 35159 N 3303.55 -1.12326 -1.10547 0
M  V30 35160 C 3304.46 -0.803071 -2.20427 0
M  V30 35161 C 3305.48 0.207644 -1.72757 0
M  V30 35162 O 3306.66 0.0415269 -2.01357 0
M  V30 35163 C 3303.72 -0.261093 -3.45715 0
M  V30 35164 C 3302.78 -1.33159 -4.08126 0
M  V30 35165 C 3302.01 -0.81538 -5.27435 0
M  V30 35166 O 3302.24 0.351261 -5.69317 0
M  V30 35167 O 3301.17 -1.58444 -5.80671 0
M  V30 35168 H 3305 -1.72078 -2.50246 0
M  V30 35169 H 3302.58 -0.899836 -1.19261 0
M  V30 35170 H 3304.46 0.0363266 -4.21384 0
M  V30 35171 H 3303.14 0.629193 -3.17526 0
M  V30 35172 H 3302.05 -1.68216 -3.34147 0
M  V30 35173 H 3303.38 -2.1956 -4.40516 0
M  V30 35174 N 3305.03 1.28319 -0.914988 0
M  V30 35175 C 3306.28 1.94207 -0.544673 0
M  V30 35176 C 3306.59 1.72808 0.916338 0
M  V30 35177 O 3307.8 2.32929 1.39486 0
M  V30 35178 C 3306.26 3.47856 -0.92327 0
M  V30 35179 C 3305.86 3.78031 -2.40409 0
M  V30 35180 C 3307.61 4.19895 -0.6236 0
M  V30 35181 C 3305.51 5.24995 -2.72275 0
M  V30 35182 H 3304.44 0.726997 -0.199979 0
M  V30 35183 H 3307.1 1.4581 -1.11407 0
M  V30 35184 H 3305.48 3.9499 -0.282645 0
M  V30 35185 H 3306.65 3.41701 -3.09155 0
M  V30 35186 H 3304.97 3.19167 -2.67435 0
M  V30 35187 H 3307.56 5.28087 -0.838336 0
M  V30 35188 H 3307.91 4.13983 0.438648 0
M  V30 35189 H 3308.44 3.78542 -1.22275 0
M  V30 35190 H 3305.18 5.35986 -3.77358 0
M  V30 35191 H 3304.7 5.62518 -2.08167 0
M  V30 35192 H 3306.38 5.92747 -2.59345 0
M  V30 35193 N 3306.51 0.679102 1.42218 0
M  V30 35194 C 3307.46 0.00344373 2.308 0
M  V30 35195 C 3308.43 -0.788308 1.46202 0
M  V30 35196 O 3309.61 -0.759685 1.75024 0
M  V30 35197 C 3306.75 -0.938795 3.32085 0
M  V30 35198 C 3305.86 -0.140409 4.31772 0
M  V30 35199 C 3305 -1.07879 5.2013 0
M  V30 35200 C 3304.04 -0.272343 6.11494 0
M  V30 35201 N 3303.18 -1.16366 6.9239 0
M  V30 35202 H 3308.02 0.764637 2.88023 0
M  V30 35203 H 3305.55 0.388805 1.41869 0
M  V30 35204 H 3307.51 -1.49896 3.89342 0
M  V30 35205 H 3306.14 -1.66657 2.76451 0
M  V30 35206 H 3305.19 0.536442 3.76599 0
M  V30 35207 H 3306.5 0.485521 4.96431 0
M  V30 35208 H 3305.66 -1.70874 5.8214 0
M  V30 35209 H 3304.4 -1.7386 4.55658 0
M  V30 35210 H 3303.4 0.37079 5.48548 0
M  V30 35211 H 3304.63 0.383434 6.78017 0
M  V30 35212 H 3302.57 -1.80979 6.30542 0
M  V30 35213 H 3302.49 -0.59291 7.53671 0
M  V30 35214 H 3303.76 -1.78094 7.58883 0
M  V30 35215 N 3307.99 -1.51825 0.42272 0
M  V30 35216 C 3309.23 -2.01954 -0.148606 0
M  V30 35217 C 3309.56 -1.30767 -1.4398 0
M  V30 35218 O 3308.82 -0.406702 -1.91427 0
M  V30 35219 C 3309.12 -3.5481 -0.429454 0
M  V30 35220 C 3308.78 -4.44204 0.774166 0
M  V30 35221 C 3307.44 -4.68358 1.10428 0
M  V30 35222 C 3309.8 -4.96745 1.57779 0
M  V30 35223 C 3307.12 -5.42298 2.23897 0
M  V30 35224 C 3309.48 -5.71928 2.70335 0
M  V30 35225 C 3308.14 -5.9435 3.03817 0
M  V30 35226 H 3307.41 -0.739002 -0.0543787 0
M  V30 35227 H 3310.06 -1.82916 0.566924 0
M  V30 35228 H 3308.36 -3.72101 -1.22671 0
M  V30 35229 H 3310.06 -3.91119 -0.884692 0
M  V30 35230 H 3306.65 -4.25592 0.506909 0
M  V30 35231 H 3310.83 -4.77981 1.33597 0
M  V30 35232 H 3306.09 -5.57876 2.50169 0
M  V30 35233 H 3310.26 -6.11632 3.32984 0
M  V30 35234 H 3307.89 -6.51424 3.91855 0
M  V30 35235 N 3309.47 -0.153581 -1.5685 0
M  V30 35236 C 3310.88 0.202773 -1.58307 0
M  V30 35237 C 3311.08 1.64184 -1.16816 0
M  V30 35238 O 3310.14 2.36983 -0.87151 0
M  V30 35239 C 3311.45 -0.0619541 -3.00636 0
M  V30 35240 C 3313 0.00123717 -3.13 0
M  V30 35241 C 3313.47 -0.236245 -4.5739 0
M  V30 35242 N 3314.96 -0.183401 -4.62837 0
M  V30 35243 C 3315.7 -0.341571 -5.72382 0
M  V30 35244 N 3315.2 -0.557825 -6.90551 0
M  V30 35245 N 3316.99 -0.278714 -5.61409 0
M  V30 35246 H 3309.14 -1.09313 -1.82111 0
M  V30 35247 H 3311.4 -0.433224 -0.843221 0
M  V30 35248 H 3311.11 -1.05816 -3.35404 0
M  V30 35249 H 3310.98 0.65449 -3.71478 0
M  V30 35250 H 3313.37 0.988001 -2.78069 0
M  V30 35251 H 3313.45 -0.747639 -2.4463 0
M  V30 35252 H 3313.09 -1.22014 -4.93026 0
M  V30 35253 H 3313.02 0.533033 -5.23895 0
M  V30 35254 H 3315.52 -0.0211802 -3.77894 0
M  V30 35255 H 3315.83 -0.668445 -7.69904 0
M  V30 35256 H 3314.17 -0.594227 -6.92455 0
M  V30 35257 H 3317.36 -0.110484 -4.6797 0
M  V30 35258 H 3317.54 -0.405414 -6.46731 0
M  V30 35259 N 3310.94 1.57141 0.120193 0
M  V30 35260 C 3311.89 2.00254 1.14748 0
M  V30 35261 C 3312.86 0.874487 1.41216 0
M  V30 35262 O 3314.05 1.13862 1.53102 0
M  V30 35263 C 3311.19 2.41091 2.46919 0
M  V30 35264 C 3310.3 3.67307 2.27397 0
M  V30 35265 C 3309.43 3.97131 3.5279 0
M  V30 35266 C 3308.47 5.16533 3.2842 0
M  V30 35267 N 3307.61 5.42233 4.46013 0
M  V30 35268 H 3312.45 2.87804 0.772834 0
M  V30 35269 H 3309.99 1.42368 0.370112 0
M  V30 35270 H 3311.94 2.62805 3.24021 0
M  V30 35271 H 3310.57 1.56585 2.82278 0
M  V30 35272 H 3309.63 3.53216 1.41218 0
M  V30 35273 H 3310.94 4.54562 2.05365 0
M  V30 35274 H 3310.09 4.19487 4.3831 0
M  V30 35275 H 3308.83 3.0835 3.77852 0
M  V30 35276 H 3307.84 4.94024 2.4129 0
M  V30 35277 H 3309.06 6.06891 3.0473 0
M  V30 35278 H 3307.01 4.56409 4.71197 0
M  V30 35279 H 3306.92 6.23809 4.27081 0
M  V30 35280 H 3308.19 5.69107 5.3267 0
M  V30 35281 N 3312.42 -0.39034 1.5269 0
M  V30 35282 C 3313.37 -1.47674 1.77373 0
M  V30 35283 C 3314.34 -1.5422 0.616891 0
M  V30 35284 O 3315.52 -1.70497 0.856467 0
M  V30 35285 C 3312.66 -2.84918 1.9472 0
M  V30 35286 C 3311.78 -2.87534 3.2241 0
M  V30 35287 C 3310.91 -4.16197 3.30082 0
M  V30 35288 C 3309.95 -4.12859 4.519 0
M  V30 35289 N 3309.09 -5.33125 4.56861 0
M  V30 35290 H 3313.93 -1.25927 2.70086 0
M  V30 35291 H 3311.47 -0.61092 1.33814 0
M  V30 35292 H 3313.42 -3.64614 2.02762 0
M  V30 35293 H 3312.05 -3.05119 1.05368 0
M  V30 35294 H 3311.11 -2.00217 3.23446 0
M  V30 35295 H 3312.42 -2.80936 4.1216 0
M  V30 35296 H 3311.57 -5.04296 3.37299 0
M  V30 35297 H 3310.31 -4.25515 2.38303 0
M  V30 35298 H 3309.32 -3.23148 4.44809 0
M  V30 35299 H 3310.54 -4.05165 5.44994 0
M  V30 35300 H 3308.49 -5.43076 3.67973 0
M  V30 35301 H 3308.4 -5.28598 5.40482 0
M  V30 35302 H 3309.67 -6.23126 4.68331 0
M  V30 35303 N 3313.9 -1.4363 -0.648706 0
M  V30 35304 C 3315.18 -1.35963 -1.40618 0
M  V30 35305 C 3315.56 -0.00964733 -2.11098 0
M  V30 35306 O 3314.91 1.00711 -2.05109 0
M  V30 35307 C 3315.12 -2.54591 -2.38715 0
M  V30 35308 C 3316.46 -2.97878 -3.02579 0
M  V30 35309 O 3317.49 -2.5467 -2.49042 0
M  V30 35310 O 3316.35 -3.72743 -3.99656 0
M  V30 35311 H 3313.44 -0.537541 -0.628473 0
M  V30 35312 H 3315.99 -1.55688 -0.675236 0
M  V30 35313 H 3314.76 -3.44475 -1.85613 0
M  V30 35314 H 3314.38 -2.36989 -3.19252 0
M  V30 35315 N 3315.38 0.887495 -1.30236 0
M  V30 35316 C 3316.31 2.00917 -1.18973 0
M  V30 35317 C 3317.29 1.69907 -0.0809818 0
M  V30 35318 O 3318.47 1.92417 -0.26258 0
M  V30 35319 C 3315.6 3.36015 -0.878153 0
M  V30 35320 C 3314.56 3.81275 -1.94456 0
M  V30 35321 C 3313.88 5.13635 -1.48603 0
M  V30 35322 C 3315.18 4.00275 -3.35526 0
M  V30 35323 H 3316.88 2.10598 -2.12812 0
M  V30 35324 H 3314.42 1.01187 -1.02456 0
M  V30 35325 H 3316.38 4.14004 -0.786027 0
M  V30 35326 H 3315.1 3.26459 0.0959205 0
M  V30 35327 H 3313.76 3.05512 -2.02628 0
M  V30 35328 H 3313.41 5.00506 -0.500292 0
M  V30 35329 H 3313.11 5.44889 -2.1993 0
M  V30 35330 H 3314.63 5.94153 -1.40764 0
M  V30 35331 H 3316.05 4.6871 -3.30127 0
M  V30 35332 H 3314.44 4.42901 -4.04918 0
M  V30 35333 H 3315.51 3.04211 -3.77602 0
M  V30 35334 N 3316.86 1.12911 1.0995 0
M  V30 35335 C 3318.11 0.882195 1.81384 0
M  V30 35336 C 3318.42 -0.593559 1.86377 0
M  V30 35337 O 3319.62 -0.957231 2.54066 0
M  V30 35338 C 3318.08 1.52867 3.25822 0
M  V30 35339 C 3317.69 3.03956 3.29112 0
M  V30 35340 C 3319.43 1.36223 4.02049 0
M  V30 35341 C 3317.34 3.61514 4.6804 0
M  V30 35342 H 3316.27 0.32639 0.679695 0
M  V30 35343 H 3318.92 1.35619 1.23612 0
M  V30 35344 H 3317.3 0.982339 3.83622 0
M  V30 35345 H 3318.48 3.65124 2.81107 0
M  V30 35346 H 3316.79 3.20054 2.66373 0
M  V30 35347 H 3319.39 1.76642 5.0468 0
M  V30 35348 H 3319.73 0.306464 4.1517 0
M  V30 35349 H 3320.26 1.87805 3.50676 0
M  V30 35350 H 3317 4.66873 4.6012 0
M  V30 35351 H 3316.52 3.05123 5.16392 0
M  V30 35352 H 3318.2 3.6087 5.37012 0
M  V30 35353 N 3318.33 -1.27832 0.92178 0
M  V30 35354 C 3319.28 -2.27041 0.414878 0
M  V30 35355 C 3320.25 -1.57914 -0.515017 0
M  V30 35356 O 3321.44 -1.85764 -0.435466 0
M  V30 35357 C 3318.58 -3.43502 -0.331684 0
M  V30 35358 C 3317.69 -4.27357 0.63164 0
M  V30 35359 C 3316.82 -5.31031 -0.134172 0
M  V30 35360 C 3315.86 -6.06552 0.822244 0
M  V30 35361 N 3315 -7.02043 0.0894383 0
M  V30 35362 H 3319.84 -2.69776 1.2659 0
M  V30 35363 H 3317.38 -1.32664 0.635512 0
M  V30 35364 H 3319.34 -4.09829 -0.780793 0
M  V30 35365 H 3317.97 -3.01735 -1.14699 0
M  V30 35366 H 3317.02 -3.61001 1.19928 0
M  V30 35367 H 3318.33 -4.79821 1.36282 0
M  V30 35368 H 3317.48 -6.03278 -0.643473 0
M  V30 35369 H 3316.22 -4.79355 -0.898358 0
M  V30 35370 H 3315.23 -5.33149 1.34285 0
M  V30 35371 H 3316.45 -6.60317 1.58612 0
M  V30 35372 H 3314.4 -6.52706 -0.656611 0
M  V30 35373 H 3314.32 -7.52167 0.7603 0
M  V30 35374 H 3315.58 -7.78476 -0.399404 0
M  V30 35375 N 3319.81 -0.686634 -1.41856 0
M  V30 35376 C 3321.04 -0.221073 -2.06218 0
M  V30 35377 C 3321.46 1.11759 -1.51299 0
M  V30 35378 O 3320.82 1.69768 -0.636283 0
M  V30 35379 C 3320.87 -0.179488 -3.60153 0
M  V30 35380 O 3319.97 0.848411 -4.03579 0
M  V30 35381 H 3319.31 -0.110239 -0.654785 0
M  V30 35382 H 3321.84 -0.93898 -1.81781 0
M  V30 35383 H 3321.85 -0.00732504 -4.07999 0
M  V30 35384 H 3320.53 -1.15654 -3.99496 0
M  V30 35385 H 3319.11 0.646328 -3.67256 0
M  V30 35386 N 3321.29 1.51599 -0.430766 0
M  V30 35387 C 3322.22 2.2413 0.429067 0
M  V30 35388 C 3323.2 1.25802 1.03017 0
M  V30 35389 O 3324.39 1.54918 1.0739 0
M  V30 35390 C 3321.51 2.98663 1.59744 0
M  V30 35391 C 3320.56 4.11595 1.11765 0
M  V30 35392 S 3321.39 5.3546 0.0650527 0
M  V30 35393 C 3322.55 6.13529 1.23825 0
M  V30 35394 H 3322.78 2.96713 -0.186735 0
M  V30 35395 H 3320.31 1.52893 -0.215228 0
M  V30 35396 H 3322.27 3.42205 2.26729 0
M  V30 35397 H 3320.93 2.25682 2.18464 0
M  V30 35398 H 3320.13 4.62999 1.99117 0
M  V30 35399 H 3319.73 3.70281 0.526144 0
M  V30 35400 H 3322.02 6.42217 2.15785 0
M  V30 35401 H 3322.96 7.03963 0.764306 0
M  V30 35402 H 3323.37 5.4492 1.47384 0
M  V30 35403 N 3322.77 0.161897 1.56766 0
M  V30 35404 C 3324.18 -0.194375 1.58412 0
M  V30 35405 C 3324.38 -1.63562 1.17685 0
M  V30 35406 O 3323.44 -2.36518 0.884065 0
M  V30 35407 C 3324.75 0.0778967 3.00599 0
M  V30 35408 C 3326.3 0.015362 3.12996 0
M  V30 35409 C 3326.78 0.260498 4.57259 0
M  V30 35410 N 3328.27 0.207944 4.62733 0
M  V30 35411 C 3329 0.371921 5.72193 0
M  V30 35412 N 3328.5 0.594439 6.90245 0
M  V30 35413 N 3330.29 0.308483 5.61253 0
M  V30 35414 H 3322.44 1.10277 1.81529 0
M  V30 35415 H 3324.71 0.437689 0.840911 0
M  V30 35416 H 3324.41 1.07593 3.34838 0
M  V30 35417 H 3324.29 -0.63478 3.7182 0
M  V30 35418 H 3326.67 -0.973241 2.78589 0
M  V30 35419 H 3326.75 0.760602 2.4423 0
M  V30 35420 H 3326.4 1.24627 4.92372 0
M  V30 35421 H 3326.33 -0.505242 5.24171 0
M  V30 35422 H 3328.82 0.0412205 3.77878 0
M  V30 35423 H 3329.13 0.709266 7.69538 0
M  V30 35424 H 3327.48 0.630941 6.9213 0
M  V30 35425 H 3330.67 0.1353 4.67904 0
M  V30 35426 H 3330.84 0.439706 6.46506 0
M  V30 35427 N 3324.25 -1.57203 -0.111858 0
M  V30 35428 C 3325.66 -1.52657 -0.465602 0
M  V30 35429 C 3325.86 -0.876021 -1.81461 0
M  V30 35430 O 3324.92 -0.461389 -2.48249 0
M  V30 35431 C 3326.23 -2.97411 -0.443519 0
M  V30 35432 C 3327.78 -3.08539 -0.526566 0
M  V30 35433 C 3328.25 -4.54867 -0.534801 0
M  V30 35434 N 3329.75 -4.59349 -0.596036 0
M  V30 35435 C 3330.48 -5.69995 -0.623972 0
M  V30 35436 N 3329.98 -6.90117 -0.609124 0
M  V30 35437 N 3331.77 -5.58122 -0.66752 0
M  V30 35438 H 3323.92 -1.97875 0.77196 0
M  V30 35439 H 3326.18 -0.903972 0.28555 0
M  V30 35440 H 3325.89 -3.48406 0.480199 0
M  V30 35441 H 3325.76 -3.55224 -1.2687 0
M  V30 35442 H 3328.15 -2.57542 -1.4407 0
M  V30 35443 H 3328.23 -2.53709 0.32644 0
M  V30 35444 H 3327.88 -5.06511 0.375322 0
M  V30 35445 H 3327.81 -5.07517 -1.40479 0
M  V30 35446 H 3330.3 -3.72889 -0.613386 0
M  V30 35447 H 3330.61 -7.70201 -0.633261 0
M  V30 35448 H 3328.95 -6.92605 -0.576435 0
M  V30 35449 H 3332.15 -4.63185 -0.676534 0
M  V30 35450 H 3332.32 -6.4436 -0.685824 0
M  V30 35451 N 3325.72 0.382237 -1.52894 0
M  V30 35452 C 3326.97 1.12382 -1.67491 0
M  V30 35453 C 3327.29 1.90936 -0.424599 0
M  V30 35454 O 3328.49 2.67731 -0.45081 0
M  V30 35455 C 3326.95 2.04691 -2.96023 0
M  V30 35456 C 3326.56 1.31528 -4.28257 0
M  V30 35457 C 3328.3 2.78943 -3.19986 0
M  V30 35458 C 3326.21 2.22642 -5.47891 0
M  V30 35459 H 3325.14 0.423235 -0.62401 0
M  V30 35460 H 3327.79 0.386075 -1.79393 0
M  V30 35461 H 3326.17 2.82129 -2.77883 0
M  V30 35462 H 3327.34 0.59269 -4.56972 0
M  V30 35463 H 3325.66 0.692075 -4.10608 0
M  V30 35464 H 3328.26 3.47309 -4.06547 0
M  V30 35465 H 3328.6 3.43395 -2.35341 0
M  V30 35466 H 3329.13 2.08596 -3.38722 0
M  V30 35467 H 3325.87 1.62795 -6.34963 0
M  V30 35468 H 3325.39 2.92798 -5.23478 0
M  V30 35469 H 3327.07 2.82575 -5.82031 0
M  V30 35470 N 3327.2 1.43972 0.64108 0
M  V30 35471 C 3328.48 1.36707 1.39895 0
M  V30 35472 C 3328.86 0.0208422 2.1109 0
M  V30 35473 O 3328.21 -0.996214 2.0564 0
M  V30 35474 C 3328.42 2.55853 2.37361 0
M  V30 35475 C 3329.77 2.99479 3.00995 0
M  V30 35476 O 3330.79 2.55987 2.47688 0
M  V30 35477 O 3329.65 3.74858 3.97673 0
M  V30 35478 H 3326.74 0.540866 0.625614 0
M  V30 35479 H 3329.29 1.56044 0.66697 0
M  V30 35480 H 3328.06 3.45455 1.83784 0
M  V30 35481 H 3327.68 2.38678 3.17991 0
M  V30 35482 N 3328.68 -0.880575 1.30704 0
M  V30 35483 C 3330.09 -1.44828 1.1782 0
M  V30 35484 C 3330.44 -1.94969 -0.219422 0
M  V30 35485 O 3329.57 -1.85377 -1.11643 0
M  V30 35486 C 3330.16 -2.63243 2.1328 0
M  V30 35487 C 3328.72 -3.16091 2.04361 0
M  V30 35488 C 3327.87 -1.88788 2.03111 0
M  V30 35489 H 3330.82 -0.6901 1.4291 0
M  V30 35490 H 3330.84 -3.39598 1.71621 0
M  V30 35491 H 3330.35 -2.26719 3.14992 0
M  V30 35492 H 3328.45 -3.57261 1.05806 0
M  V30 35493 H 3328.57 -3.79093 2.9296 0
M  V30 35494 H 3326.93 -2.07305 1.47975 0
M  V30 35495 H 3327.71 -1.54516 3.06561 0
M  V30 35496 N 3330.16 -1.13492 -1.09349 0
M  V30 35497 C 3331.12 -0.815956 -2.14184 0
M  V30 35498 C 3332.12 0.174948 -1.59845 0
M  V30 35499 O 3333.31 -0.0522277 -1.74122 0
M  V30 35500 C 3330.44 -0.214577 -3.40224 0
M  V30 35501 H 3331.64 -1.74493 -2.4391 0
M  V30 35502 H 3329.19 -0.939656 -1.24901 0
M  V30 35503 H 3329.93 0.723578 -3.16125 0
M  V30 35504 H 3329.71 -0.928169 -3.80956 0
M  V30 35505 H 3331.2 -0.00829339 -4.17599 0
M  V30 35506 N 3331.64 1.27341 -0.928546 0
M  V30 35507 C 3332.87 1.98147 -0.584919 0
M  V30 35508 C 3333.28 1.69453 0.841573 0
M  V30 35509 O 3332.62 0.952081 1.57102 0
M  V30 35510 C 3332.68 3.51969 -0.731973 0
M  V30 35511 C 3332.34 4.04287 -2.13074 0
M  V30 35512 C 3333.34 4.16996 -3.105 0
M  V30 35513 C 3331.03 4.38614 -2.44791 0
M  V30 35514 C 3333.02 4.63307 -4.3775 0
M  V30 35515 C 3330.71 4.84616 -3.72278 0
M  V30 35516 C 3331.71 4.96921 -4.6857 0
M  V30 35517 O 3331.39 5.41914 -5.93788 0
M  V30 35518 H 3331.13 0.639076 -0.220359 0
M  V30 35519 H 3333.68 1.63137 -1.24802 0
M  V30 35520 H 3331.91 3.86698 -0.0117645 0
M  V30 35521 H 3333.6 4.0399 -0.393277 0
M  V30 35522 H 3334.36 3.90735 -2.87317 0
M  V30 35523 H 3330.24 4.28278 -1.70584 0
M  V30 35524 H 3333.79 4.72827 -5.12914 0
M  V30 35525 H 3329.68 5.10319 -3.95278 0
M  V30 35526 H 3330.45 5.60166 -5.96789 0
M  V30 35527 N 3333.12 0.694147 1.4149 0
M  V30 35528 C 3334.06 0.0279229 2.30783 0
M  V30 35529 C 3335.03 -0.772757 1.47029 0
M  V30 35530 O 3336.22 -0.741079 1.7582 0
M  V30 35531 C 3333.36 -0.90352 3.33062 0
M  V30 35532 C 3332.47 -0.0946064 4.31896 0
M  V30 35533 C 3331.61 -1.02356 5.21245 0
M  V30 35534 C 3330.64 -0.207471 6.11748 0
M  V30 35535 N 3329.78 -1.09015 6.93585 0
M  V30 35536 H 3334.62 0.795143 2.87196 0
M  V30 35537 H 3332.16 0.40383 1.41448 0
M  V30 35538 H 3334.12 -1.45758 3.9091 0
M  V30 35539 H 3332.75 -1.63715 2.78203 0
M  V30 35540 H 3331.8 0.576355 3.76008 0
M  V30 35541 H 3333.11 0.538146 4.95889 0
M  V30 35542 H 3332.26 -1.6469 5.8392 0
M  V30 35543 H 3331 -1.69017 4.57476 0
M  V30 35544 H 3330.01 0.42895 5.48124 0
M  V30 35545 H 3331.23 0.455325 6.77572 0
M  V30 35546 H 3329.18 -1.74281 6.32426 0
M  V30 35547 H 3329.1 -0.51294 7.54258 0
M  V30 35548 H 3330.36 -1.70035 7.60729 0
M  V30 35549 N 3334.59 -1.51368 0.438799 0
M  V30 35550 C 3335.54 -2.27784 -0.37191 0
M  V30 35551 C 3336.51 -1.31437 -1.01556 0
M  V30 35552 O 3337.7 -1.60341 -1.03418 0
M  V30 35553 C 3334.84 -3.12399 -1.46631 0
M  V30 35554 C 3333.95 -4.23742 -0.840653 0
M  V30 35555 C 3333.08 -4.95665 -1.91022 0
M  V30 35556 C 3332.12 -5.98926 -1.26308 0
M  V30 35557 N 3331.26 -6.64252 -2.27408 0
M  V30 35558 H 3336.1 -2.96623 0.2861 0
M  V30 35559 H 3333.64 -1.46303 0.152935 0
M  V30 35560 H 3335.59 -3.59785 -2.11213 0
M  V30 35561 H 3334.22 -2.45671 -2.09393 0
M  V30 35562 H 3333.28 -3.80309 -0.083092 0
M  V30 35563 H 3334.59 -4.97719 -0.328198 0
M  V30 35564 H 3333.74 -5.46606 -2.63262 0
M  V30 35565 H 3332.48 -4.21321 -2.45641 0
M  V30 35566 H 3331.49 -5.47277 -0.52615 0
M  V30 35567 H 3332.71 -6.75227 -0.724205 0
M  V30 35568 H 3330.66 -5.9272 -2.81104 0
M  V30 35569 H 3330.57 -7.33999 -1.81058 0
M  V30 35570 H 3331.84 -7.19822 -2.99127 0
M  V30 35571 N 3336.07 -0.170208 -1.56678 0
M  V30 35572 C 3337 0.756174 -2.20917 0
M  V30 35573 C 3337.98 1.23995 -1.16445 0
M  V30 35574 O 3339.17 1.29331 -1.4487 0
M  V30 35575 C 3336.3 1.98612 -2.84905 0
M  V30 35576 C 3335.25 1.63824 -3.95406 0
M  V30 35577 C 3334.58 2.94275 -4.46438 0
M  V30 35578 C 3335.88 0.867104 -5.15052 0
M  V30 35579 H 3337.57 0.220723 -2.98585 0
M  V30 35580 H 3335.12 0.104723 -1.43619 0
M  V30 35581 H 3337.07 2.6392 -3.28518 0
M  V30 35582 H 3335.79 2.54569 -2.04603 0
M  V30 35583 H 3334.45 1.00885 -3.52445 0
M  V30 35584 H 3334.1 3.48269 -3.62929 0
M  V30 35585 H 3333.8 2.71752 -5.20984 0
M  V30 35586 H 3335.33 3.60614 -4.92737 0
M  V30 35587 H 3336.74 1.42275 -5.55365 0
M  V30 35588 H 3335.14 0.74096 -5.95508 0
M  V30 35589 H 3336.21 -0.136778 -4.84707 0
M  V30 35590 N 3337.55 1.5726 0.10352 0
M  V30 35591 C 3338.48 1.96692 1.15704 0
M  V30 35592 C 3339.46 0.838862 1.39291 0
M  V30 35593 O 3340.64 1.09842 1.5319 0
M  V30 35594 C 3337.77 2.27646 2.50789 0
M  V30 35595 C 3336.82 3.50133 2.43535 0
M  V30 35596 S 3337.65 5.02159 1.86 0
M  V30 35597 C 3338.81 5.36282 3.22727 0
M  V30 35598 H 3339.04 2.85744 0.820841 0
M  V30 35599 H 3336.57 1.51238 0.310879 0
M  V30 35600 H 3338.53 2.46156 3.28508 0
M  V30 35601 H 3337.19 1.39181 2.8158 0
M  V30 35602 H 3336.38 3.69206 3.43078 0
M  V30 35603 H 3335.99 3.31089 1.73942 0
M  V30 35604 H 3338.28 5.32411 4.18981 0
M  V30 35605 H 3339.22 6.37381 3.08466 0
M  V30 35606 H 3339.63 4.63746 3.2187 0
M  V30 35607 N 3339.03 -0.374123 1.53095 0
M  V30 35608 C 3339.94 -1.48184 1.81875 0
M  V30 35609 C 3340.95 -1.59011 0.706515 0
M  V30 35610 O 3342.13 -1.75066 0.995679 0
M  V30 35611 C 3339.19 -2.83551 1.99499 0
M  V30 35612 C 3338.26 -2.82323 3.23407 0
M  V30 35613 C 3337.49 -4.11233 3.40181 0
M  V30 35614 O 3337.71 -5.0696 2.61434 0
M  V30 35615 O 3336.65 -4.17565 4.33501 0
M  V30 35616 H 3340.47 -1.2679 2.75967 0
M  V30 35617 H 3338.06 -0.563405 1.38369 0
M  V30 35618 H 3339.94 -3.63774 2.12712 0
M  V30 35619 H 3338.61 -3.0494 1.08597 0
M  V30 35620 H 3337.52 -2.00828 3.15624 0
M  V30 35621 H 3338.85 -2.65887 4.14204 0
M  V30 35622 N 3340.51 -1.4431 -0.633436 0
M  V30 35623 C 3341.44 -1.46983 -1.75865 0
M  V30 35624 C 3342.45 -0.363497 -1.5869 0
M  V30 35625 O 3343.64 -0.629104 -1.67046 0
M  V30 35626 C 3340.74 -1.28588 -3.13558 0
M  V30 35627 C 3339.91 -2.52425 -3.57212 0
M  V30 35628 C 3338.97 -2.28963 -4.73775 0
M  V30 35629 O 3338 -3.02436 -4.82204 0
M  V30 35630 N 3339.2 -1.31876 -5.65322 0
M  V30 35631 H 3341.96 -2.43986 -1.74043 0
M  V30 35632 H 3339.53 -1.3972 -0.817927 0
M  V30 35633 H 3341.52 -1.10743 -3.89253 0
M  V30 35634 H 3340.09 -0.399584 -3.10036 0
M  V30 35635 H 3339.31 -2.85562 -2.7175 0
M  V30 35636 H 3340.6 -3.34797 -3.8313 0
M  V30 35637 H 3339.99 -0.711888 -5.61203 0
M  V30 35638 H 3338.55 -1.20009 -6.40657 0
M  V30 35639 N 3341.98 0.873632 -1.3117 0
M  V30 35640 C 3342.91 1.99644 -1.21097 0
M  V30 35641 C 3343.9 1.69812 -0.0989982 0
M  V30 35642 O 3345.08 1.92127 -0.282973 0
M  V30 35643 C 3342.21 3.35064 -0.913743 0
M  V30 35644 C 3341.16 3.79192 -1.98489 0
M  V30 35645 C 3340.49 5.1203 -1.54042 0
M  V30 35646 C 3341.79 3.96693 -3.39752 0
M  V30 35647 H 3343.48 2.08329 -2.15033 0
M  V30 35648 H 3341.03 1.00095 -1.03523 0
M  V30 35649 H 3342.98 4.13147 -0.829893 0
M  V30 35650 H 3341.71 3.26542 0.0612897 0
M  V30 35651 H 3340.37 3.03346 -2.05857 0
M  V30 35652 H 3340.01 4.99947 -0.553349 0
M  V30 35653 H 3339.71 5.42526 -2.25697 0
M  V30 35654 H 3341.24 5.92627 -1.47058 0
M  V30 35655 H 3342.65 4.65182 -3.3508 0
M  V30 35656 H 3341.05 4.38582 -4.09592 0
M  V30 35657 H 3342.12 3.00189 -3.80808 0
M  V30 35658 N 3343.46 1.1407 1.08746 0
M  V30 35659 C 3344.71 0.904978 1.80706 0
M  V30 35660 C 3345.03 -0.570134 1.86479 0
M  V30 35661 O 3344.3 -1.41443 1.35539 0
M  V30 35662 H 3342.88 0.331823 0.669255 0
M  V30 35663 H 3345.54 1.43861 1.31492 0
M  V30 35664 H 3344.64 1.30187 2.83651 0
M  V30 35665 N 3344.94 -1.26847 0.935286 0
M  V30 35666 C 3345.85 -2.30318 0.446162 0
M  V30 35667 C 3346.87 -1.67336 -0.476935 0
M  V30 35668 O 3348.04 -1.98194 -0.357899 0
M  V30 35669 C 3345.11 -3.45516 -0.286237 0
M  V30 35670 C 3344.17 -4.23997 0.672701 0
M  V30 35671 C 3343.4 -5.33694 -0.0248406 0
M  V30 35672 O 3343.62 -5.56695 -1.24286 0
M  V30 35673 O 3342.56 -5.98371 0.650857 0
M  V30 35674 H 3346.38 -2.74208 1.30551 0
M  V30 35675 H 3343.97 -1.31937 0.700933 0
M  V30 35676 H 3345.85 -4.15562 -0.699035 0
M  V30 35677 H 3344.53 -3.03667 -1.12106 0
M  V30 35678 H 3343.43 -3.56456 1.13533 0
M  V30 35679 H 3344.77 -4.6958 1.47497 0
M  V30 35680 N 3346.42 -0.701641 -1.4112 0
M  V30 35681 C 3347.83 -0.309241 -1.84121 0
M  V30 35682 C 3348.18 1.15368 -1.58697 0
M  V30 35683 O 3347.31 1.88629 -1.06056 0
M  V30 35684 C 3347.9 -0.554488 -3.34232 0
M  V30 35685 C 3346.46 -0.215942 -3.7578 0
M  V30 35686 C 3345.61 -0.833776 -2.64468 0
M  V30 35687 H 3348.56 -0.901845 -1.30585 0
M  V30 35688 H 3348.58 0.184843 -3.80051 0
M  V30 35689 H 3348.09 -1.61929 -3.52705 0
M  V30 35690 H 3346.19 0.844358 -3.62907 0
M  V30 35691 H 3346.3 -0.675201 -4.74318 0
M  V30 35692 H 3344.67 -0.262896 -2.5334 0
M  V30 35693 H 3345.45 -1.90257 -2.85757 0
M  V30 35694 N 3347.9 1.51133 -0.446821 0
M  V30 35695 C 3349.17 1.94799 0.176858 0
M  V30 35696 C 3349.55 1.38601 1.59226 0
M  V30 35697 O 3348.9 0.576944 2.21096 0
M  V30 35698 C 3349.11 3.48699 0.144939 0
M  V30 35699 C 3350.46 4.23189 0.345843 0
M  V30 35700 O 3351.48 3.55504 0.222629 0
M  V30 35701 O 3350.34 5.43284 0.592017 0
M  V30 35702 H 3347.44 0.817522 0.124846 0
M  V30 35703 H 3349.98 1.61997 -0.505482 0
M  V30 35704 H 3348.75 3.82084 -0.844223 0
M  V30 35705 H 3348.38 3.8797 0.869783 0
M  V30 35706 N 3349.37 0.178515 1.56586 0
M  V30 35707 C 3350.3 -0.744447 2.21315 0
M  V30 35708 C 3351.29 -1.23375 1.17101 0
M  V30 35709 O 3352.47 -1.28561 1.45553 0
M  V30 35710 C 3349.6 -1.97098 2.85954 0
M  V30 35711 C 3348.55 -1.61725 3.96269 0
M  V30 35712 C 3347.88 -2.91903 4.47992 0
M  V30 35713 C 3349.18 -0.839778 5.15505 0
M  V30 35714 H 3350.87 -0.204885 2.98698 0
M  V30 35715 H 3348.42 -0.0971053 1.43672 0
M  V30 35716 H 3350.37 -2.62174 3.29913 0
M  V30 35717 H 3349.1 -2.5348 2.0595 0
M  V30 35718 H 3347.76 -0.990146 3.52975 0
M  V30 35719 H 3347.4 -3.4634 3.64771 0
M  V30 35720 H 3347.1 -2.68986 5.22418 0
M  V30 35721 H 3348.63 -3.57996 4.94643 0
M  V30 35722 H 3350.04 -1.39328 5.56112 0
M  V30 35723 H 3348.44 -0.709369 5.95893 0
M  V30 35724 H 3349.51 0.162482 4.84628 0
M  V30 35725 N 3350.85 -1.57312 -0.0951784 0
M  V30 35726 C 3352.08 -1.90668 -0.816107 0
M  V30 35727 C 3352.5 -0.772776 -1.71493 0
M  V30 35728 O 3351.86 0.27565 -1.79192 0
M  V30 35729 C 3351.91 -3.22887 -1.60549 0
M  V30 35730 O 3351.01 -3.10471 -2.71443 0
M  V30 35731 H 3350.35 -0.625002 -0.224206 0
M  V30 35732 H 3352.88 -2.04479 -0.0704281 0
M  V30 35733 H 3352.89 -3.56193 -1.98973 0
M  V30 35734 H 3351.57 -4.05002 -0.945847 0
M  V30 35735 H 3350.15 -2.8868 -2.36048 0
M  V30 35736 N 3352.33 0.365999 -1.53291 0
M  V30 35737 C 3353.61 1.12433 -1.60057 0
M  V30 35738 C 3353.99 2.07123 -0.407847 0
M  V30 35739 O 3353.34 2.20429 0.601938 0
M  V30 35740 C 3353.55 1.8638 -2.95065 0
M  V30 35741 C 3354.89 2.40928 -3.49627 0
M  V30 35742 O 3355.92 1.96507 -2.97092 0
M  V30 35743 O 3354.78 3.22132 -4.41467 0
M  V30 35744 H 3351.87 0.515739 -0.646485 0
M  V30 35745 H 3354.42 0.369297 -1.65633 0
M  V30 35746 H 3353.19 1.17271 -3.73314 0
M  V30 35747 H 3352.81 2.68793 -2.92978 0
M  V30 35748 N 3353.81 1.44644 0.625774 0
M  V30 35749 C 3354.76 1.51922 1.73748 0
M  V30 35750 C 3355.73 0.366498 1.62006 0
M  V30 35751 O 3356.91 0.577471 1.81851 0
M  V30 35752 C 3354.05 1.47454 3.12012 0
M  V30 35753 C 3353.16 2.73141 3.34691 0
M  V30 35754 C 3352.3 2.60469 4.62957 0
M  V30 35755 C 3351.34 3.81294 4.78833 0
M  V30 35756 N 3350.47 3.67266 5.98381 0
M  V30 35757 H 3355.31 2.46902 1.66863 0
M  V30 35758 H 3352.85 1.22532 0.813899 0
M  V30 35759 H 3354.81 1.42853 3.91981 0
M  V30 35760 H 3353.44 0.560368 3.17899 0
M  V30 35761 H 3352.49 2.87906 2.48625 0
M  V30 35762 H 3353.8 3.62812 3.423 0
M  V30 35763 H 3352.96 2.53731 5.51095 0
M  V30 35764 H 3351.7 1.68367 4.57716 0
M  V30 35765 H 3350.7 3.8841 3.89124 0
M  V30 35766 H 3351.93 4.74439 4.85885 0
M  V30 35767 H 3349.87 2.7792 5.94219 0
M  V30 35768 H 3349.79 4.50557 6.0707 0
M  V30 35769 H 3351.06 3.6443 6.89066 0
M  V30 35770 N 3355.29 -0.866663 1.31631 0
M  V30 35771 C 3356.56 -1.60263 1.12139 0
M  V30 35772 C 3356.94 -2.08619 -0.322692 0
M  V30 35773 O 3356.29 -1.86703 -1.31735 0
M  V30 35774 C 3356.5 -2.75807 2.1385 0
M  V30 35775 C 3357.85 -3.45687 2.46547 0
M  V30 35776 O 3358.87 -2.86018 2.12303 0
M  V30 35777 O 3357.73 -4.53336 3.05202 0
M  V30 35778 H 3354.83 -0.705238 0.431935 0
M  V30 35779 H 3357.37 -0.911838 1.43121 0
M  V30 35780 H 3356.14 -2.37513 3.10972 0
M  V30 35781 H 3355.77 -3.52571 1.83792 0
M  V30 35782 N 3356.77 -1.14645 -1.0814 0
M  V30 35783 C 3358.18 -0.887412 -1.32654 0
M  V30 35784 C 3358.38 0.469977 -1.95943 0
M  V30 35785 O 3357.44 1.21367 -2.21419 0
M  V30 35786 C 3358.75 -2.02223 -2.22545 0
M  V30 35787 C 3360.3 -2.05584 -2.36017 0
M  V30 35788 C 3360.77 -3.18367 -3.29252 0
M  V30 35789 N 3362.26 -3.17963 -3.36829 0
M  V30 35790 C 3363 -4.01869 -4.0901 0
M  V30 35791 N 3362.5 -4.95821 -4.83873 0
M  V30 35792 N 3364.29 -3.8992 -4.04869 0
M  V30 35793 H 3356.44 -2.02067 -0.654422 0
M  V30 35794 H 3358.7 -0.880654 -0.350932 0
M  V30 35795 H 3358.41 -3.00163 -1.8329 0
M  V30 35796 H 3358.28 -1.9477 -3.23024 0
M  V30 35797 H 3360.67 -1.0825 -2.74529 0
M  V30 35798 H 3360.75 -2.17107 -1.35271 0
M  V30 35799 H 3360.39 -4.15949 -2.9146 0
M  V30 35800 H 3360.32 -3.04081 -4.29933 0
M  V30 35801 H 3362.82 -2.49917 -2.8346 0
M  V30 35802 H 3363.13 -5.56303 -5.3642 0
M  V30 35803 H 3361.47 -4.99816 -4.82917 0
M  V30 35804 H 3364.66 -3.15839 -3.4549 0
M  V30 35805 H 3364.84 -4.55537 -4.60858 0
M  V30 35806 N 3358.24 1.26349 -0.942 0
M  V30 35807 C 3359.19 2.26352 -0.450946 0
M  V30 35808 C 3360.16 1.58713 0.489829 0
M  V30 35809 O 3361.35 1.86433 0.405857 0
M  V30 35810 C 3358.49 3.43987 0.276994 0
M  V30 35811 C 3357.6 4.26298 -0.699549 0
M  V30 35812 C 3356.73 5.31177 0.0496727 0
M  V30 35813 C 3355.77 6.05167 -0.918638 0
M  V30 35814 N 3354.91 7.01812 -0.201116 0
M  V30 35815 H 3359.75 2.67728 -1.30866 0
M  V30 35816 H 3357.29 1.31636 -0.656537 0
M  V30 35817 H 3359.24 4.11019 0.715494 0
M  V30 35818 H 3357.87 3.03522 1.09884 0
M  V30 35819 H 3356.93 3.59047 -1.25656 0
M  V30 35820 H 3358.24 4.77593 -1.43899 0
M  V30 35821 H 3357.39 6.04225 0.547415 0
M  V30 35822 H 3356.13 4.80723 0.821983 0
M  V30 35823 H 3355.14 5.30945 -1.4275 0
M  V30 35824 H 3356.36 6.57711 -1.69097 0
M  V30 35825 H 3354.31 6.53668 0.552688 0
M  V30 35826 H 3354.22 7.50862 -0.879867 0
M  V30 35827 H 3355.49 7.79013 0.275505 0
M  V30 35828 N 3359.72 0.709115 1.40746 0
M  V30 35829 C 3361 0.17328 1.94831 0
M  V30 35830 C 3361.38 -1.31964 1.64768 0
M  V30 35831 O 3360.73 -2.07268 0.96189 0
M  V30 35832 C 3360.94 0.479074 3.45696 0
M  V30 35833 C 3362.28 0.414196 4.22575 0
M  V30 35834 O 3363.31 0.414761 3.53777 0
M  V30 35835 O 3362.17 0.386082 5.45135 0
M  V30 35836 H 3359.26 0.0229092 0.826683 0
M  V30 35837 H 3361.81 0.786205 1.50389 0
M  V30 35838 H 3360.58 1.51191 3.60911 0
M  V30 35839 H 3360.2 -0.164142 3.97261 0
M  V30 35840 N 3361.2 -1.50894 0.454829 0
M  V30 35841 C 3362.13 -2.31042 -0.337941 0
M  V30 35842 C 3363.11 -1.37221 -1.00521 0
M  V30 35843 O 3364.3 -1.66142 -1.0055 0
M  V30 35844 C 3361.43 -3.16513 -1.42958 0
M  V30 35845 C 3360.38 -4.18754 -0.884833 0
M  V30 35846 C 3359.71 -4.92857 -2.07354 0
M  V30 35847 C 3361.01 -5.22218 0.0927634 0
M  V30 35848 H 3362.7 -2.97565 0.330942 0
M  V30 35849 H 3360.25 -1.43102 0.160602 0
M  V30 35850 H 3362.2 -3.7137 -1.99154 0
M  V30 35851 H 3360.92 -2.47843 -2.127 0
M  V30 35852 H 3359.58 -3.64973 -0.344967 0
M  V30 35853 H 3359.23 -4.20675 -2.75756 0
M  V30 35854 H 3358.93 -5.62005 -1.71535 0
M  V30 35855 H 3360.45 -5.50544 -2.64071 0
M  V30 35856 H 3361.87 -5.72043 -0.379468 0
M  V30 35857 H 3360.26 -5.98993 0.364405 0
M  V30 35858 H 3361.33 -4.73966 1.02391 0
M  V30 35859 N 3362.68 -0.186817 -1.56489 0
M  V30 35860 C 3363.59 0.749503 -2.22305 0
M  V30 35861 C 3364.6 1.24113 -1.21951 0
M  V30 35862 O 3365.78 1.29002 -1.54663 0
M  V30 35863 C 3362.84 1.95527 -2.86304 0
M  V30 35864 C 3361.91 1.50903 -4.01904 0
M  V30 35865 C 3361.14 2.65732 -4.62841 0
M  V30 35866 O 3361.36 3.83003 -4.22688 0
M  V30 35867 O 3360.3 2.38919 -5.5245 0
M  V30 35868 H 3364.12 0.219027 -3.02909 0
M  V30 35869 H 3361.71 0.0420986 -1.49341 0
M  V30 35870 H 3363.59 2.66015 -3.26824 0
M  V30 35871 H 3362.26 2.47451 -2.08685 0
M  V30 35872 H 3361.17 0.773196 -3.66023 0
M  V30 35873 H 3362.5 1.03654 -4.81162 0
M  V30 35874 N 3364.16 1.57361 0.0868344 0
M  V30 35875 C 3365.4 1.86137 0.787249 0
M  V30 35876 C 3365.72 0.776699 1.78864 0
M  V30 35877 O 3364.99 -0.196216 1.94915 0
M  V30 35878 H 3363.57 0.686827 0.293732 0
M  V30 35879 H 3366.24 1.94787 0.0664984 0
M  V30 35880 H 3365.33 2.83149 1.31275 0
M  V30 35881 N 3365.63 -0.357865 1.53483 0
M  V30 35882 C 3367.05 -0.700048 1.43428 0
M  V30 35883 C 3367.25 -1.92986 0.579527 0
M  V30 35884 O 3366.31 -2.52416 0.064953 0
M  V30 35885 C 3367.62 -0.906049 2.86725 0
M  V30 35886 C 3369.17 -1.00557 2.96407 0
M  V30 35887 C 3369.64 -1.24399 4.40782 0
M  V30 35888 N 3371.13 -1.31152 4.44245 0
M  V30 35889 C 3371.87 -1.51324 5.53072 0
M  V30 35890 N 3371.36 -1.68762 6.71931 0
M  V30 35891 N 3373.16 -1.53756 5.40662 0
M  V30 35892 H 3365.31 0.45093 2.07558 0
M  V30 35893 H 3367.57 0.139727 0.937646 0
M  V30 35894 H 3367.28 -0.0740961 3.51622 0
M  V30 35895 H 3367.15 -1.81193 3.30831 0
M  V30 35896 H 3369.54 -1.82806 2.31659 0
M  V30 35897 H 3369.62 -0.0769063 2.55684 0
M  V30 35898 H 3369.26 -0.426486 5.06106 0
M  V30 35899 H 3369.19 -2.186 4.79084 0
M  V30 35900 H 3371.68 -1.19258 3.58589 0
M  V30 35901 H 3372 -1.83749 7.50637 0
M  V30 35902 H 3370.34 -1.65925 6.74903 0
M  V30 35903 H 3373.53 -1.39705 4.46766 0
M  V30 35904 H 3373.71 -1.69135 6.25538 0
M  V30 35905 N 3367.11 -1.44974 -0.618094 0
M  V30 35906 C 3368.04 -1.55676 -1.74032 0
M  V30 35907 C 3369.02 -0.408929 -1.65111 0
M  V30 35908 O 3370.21 -0.63073 -1.83672 0
M  V30 35909 C 3367.34 -1.51308 -3.12607 0
M  V30 35910 C 3366.29 -2.64701 -3.36329 0
M  V30 35911 C 3365.62 -2.45386 -4.75068 0
M  V30 35912 C 3366.92 -4.06778 -3.27611 0
M  V30 35913 H 3368.61 -2.49611 -1.65332 0
M  V30 35914 H 3366.16 -1.20133 -0.793982 0
M  V30 35915 H 3368.11 -1.57394 -3.90903 0
M  V30 35916 H 3366.83 -0.538971 -3.22122 0
M  V30 35917 H 3365.49 -2.58026 -2.60419 0
M  V30 35918 H 3365.14 -1.46138 -4.81303 0
M  V30 35919 H 3364.84 -3.21421 -4.91897 0
M  V30 35920 H 3366.37 -2.5331 -5.55577 0
M  V30 35921 H 3367.78 -4.14753 -3.95794 0
M  V30 35922 H 3366.18 -4.83119 -3.55972 0
M  V30 35923 H 3367.25 -4.29427 -2.25212 0
M  V30 35924 N 3368.59 0.85967 -1.32089 0
M  V30 35925 C 3369.54 1.96782 -1.20605 0
M  V30 35926 C 3370.51 1.65859 -0.0893841 0
M  V30 35927 O 3371.69 1.88964 -0.264055 0
M  V30 35928 C 3368.83 3.32335 -0.92993 0
M  V30 35929 C 3367.94 3.75788 -2.13091 0
M  V30 35930 C 3367.08 5.00107 -1.7907 0
M  V30 35931 C 3366.12 5.36038 -2.95517 0
M  V30 35932 N 3365.26 6.51535 -2.61622 0
M  V30 35933 H 3370.1 2.05936 -2.15393 0
M  V30 35934 H 3367.63 1.00801 -1.07133 0
M  V30 35935 H 3369.59 4.10397 -0.750357 0
M  V30 35936 H 3368.22 3.22794 -0.0188496 0
M  V30 35937 H 3367.27 2.93421 -2.42092 0
M  V30 35938 H 3368.58 3.98339 -3.00212 0
M  V30 35939 H 3367.74 5.85864 -1.57635 0
M  V30 35940 H 3366.48 4.79482 -0.891543 0
M  V30 35941 H 3365.48 4.48796 -3.17589 0
M  V30 35942 H 3366.71 5.58623 -3.86157 0
M  V30 35943 H 3364.65 6.32436 -1.74242 0
M  V30 35944 H 3364.57 6.74081 -3.42274 0
M  V30 35945 H 3365.84 7.40457 -2.43605 0
M  V30 35946 N 3370.07 1.15217 1.0753 0
M  V30 35947 C 3371.03 0.849928 2.12859 0
M  V30 35948 C 3372.03 -0.149495 1.60104 0
M  V30 35949 O 3373.22 0.0799224 1.74017 0
M  V30 35950 C 3370.35 0.268677 3.3984 0
M  V30 35951 H 3371.55 1.78351 2.41103 0
M  V30 35952 H 3369.1 0.959407 1.2339 0
M  V30 35953 H 3369.83 -0.673194 3.17236 0
M  V30 35954 H 3369.62 0.988659 3.79431 0
M  V30 35955 H 3371.11 0.0747288 4.17533 0
M  V30 35956 N 3371.55 -1.25848 0.948687 0
M  V30 35957 C 3372.96 -1.45667 0.652173 0
M  V30 35958 C 3373.16 -1.85275 -0.792184 0
M  V30 35959 O 3372.22 -1.97907 -1.56808 0
M  V30 35960 C 3373.53 -2.5333 1.62002 0
M  V30 35961 C 3375.08 -2.67175 1.63054 0
M  V30 35962 C 3375.55 -3.78016 2.58588 0
M  V30 35963 N 3377.05 -3.85419 2.56918 0
M  V30 35964 C 3377.78 -4.70658 3.27519 0
M  V30 35965 N 3377.28 -5.60229 4.07573 0
M  V30 35966 N 3379.07 -4.6457 3.16435 0
M  V30 35967 H 3371.22 -0.984292 1.88217 0
M  V30 35968 H 3373.48 -0.493764 0.80926 0
M  V30 35969 H 3373.19 -2.3107 2.65141 0
M  V30 35970 H 3373.06 -3.51132 1.3779 0
M  V30 35971 H 3375.45 -2.88803 0.606366 0
M  V30 35972 H 3375.53 -1.69792 1.91323 0
M  V30 35973 H 3375.18 -3.57139 3.61129 0
M  V30 35974 H 3375.11 -4.74871 2.27607 0
M  V30 35975 H 3377.6 -3.21386 1.98795 0
M  V30 35976 H 3377.91 -6.22181 4.58378 0
M  V30 35977 H 3376.25 -5.59957 4.11672 0
M  V30 35978 H 3379.45 -3.936 2.53371 0
M  V30 35979 H 3379.62 -5.30778 3.71724 0
M  V30 35980 N 3373.02 -0.716569 -1.40368 0
M  V30 35981 C 3373.93 -0.0656992 -2.34508 0
M  V30 35982 C 3374.95 0.742695 -1.57353 0
M  V30 35983 O 3376.13 0.675423 -1.89737 0
M  V30 35984 C 3373.19 0.844277 -3.36263 0
M  V30 35985 C 3372.25 0.0257217 -4.29292 0
M  V30 35986 C 3371.49 0.89236 -5.26187 0
M  V30 35987 O 3371.71 2.13157 -5.29075 0
M  V30 35988 O 3370.64 0.330827 -6.0099 0
M  V30 35989 H 3374.47 -0.842235 -2.91788 0
M  V30 35990 H 3372.05 -0.477059 -1.41579 0
M  V30 35991 H 3373.94 1.36548 -3.98663 0
M  V30 35992 H 3372.61 1.59994 -2.81396 0
M  V30 35993 H 3371.52 -0.540577 -3.70174 0
M  V30 35994 H 3372.85 -0.691746 -4.87315 0
M  V30 35995 N 3374.5 1.50651 -0.462825 0
M  V30 35996 C 3375.78 1.94975 0.156187 0
M  V30 35997 C 3376.16 1.40282 1.57747 0
M  V30 35998 O 3375.51 0.600361 2.20472 0
M  V30 35999 C 3375.72 3.48833 0.107947 0
M  V30 36000 C 3377.07 4.23532 0.300939 0
M  V30 36001 O 3378.09 3.5572 0.18491 0
M  V30 36002 O 3376.95 5.43881 0.534361 0
M  V30 36003 H 3374.04 0.8188 0.116168 0
M  V30 36004 H 3376.59 1.61452 -0.522635 0
M  V30 36005 H 3375.36 3.81168 -0.884701 0
M  V30 36006 H 3374.98 3.8887 0.828585 0
M  V30 36007 N 3375.98 0.195113 1.56388 0
M  V30 36008 C 3376.91 -0.720932 2.22092 0
M  V30 36009 C 3377.89 -1.22126 1.18403 0
M  V30 36010 O 3379.08 -1.2701 1.46909 0
M  V30 36011 C 3376.21 -1.94054 2.88028 0
M  V30 36012 C 3375.16 -1.57513 3.97962 0
M  V30 36013 C 3374.49 -2.87135 4.51063 0
M  V30 36014 C 3375.79 -0.785054 5.16366 0
M  V30 36015 H 3377.48 -0.173193 2.98899 0
M  V30 36016 H 3375.03 -0.0818615 1.43767 0
M  V30 36017 H 3376.98 -2.5866 3.32676 0
M  V30 36018 H 3375.7 -2.51281 2.08627 0
M  V30 36019 H 3374.36 -0.952653 3.54006 0
M  V30 36020 H 3374.01 -3.42451 3.68424 0
M  V30 36021 H 3373.71 -2.6343 5.25241 0
M  V30 36022 H 3375.23 -3.52729 4.98412 0
M  V30 36023 H 3376.65 -1.33421 5.57559 0
M  V30 36024 H 3375.05 -0.646126 5.96611 0
M  V30 36025 H 3376.12 0.213874 4.84428 0
M  V30 36026 N 3377.46 -1.57404 -0.0784879 0
M  V30 36027 C 3378.39 -2.06264 -1.09442 0
M  V30 36028 C 3379.37 -0.954797 -1.40775 0
M  V30 36029 O 3380.55 -1.22711 -1.50518 0
M  V30 36030 C 3377.68 -2.50097 -2.40974 0
M  V30 36031 C 3376.64 -3.64696 -2.2401 0
M  V30 36032 C 3375.96 -3.94562 -3.60866 0
M  V30 36033 C 3377.26 -4.94988 -1.66687 0
M  V30 36034 H 3378.96 -2.91391 -0.687877 0
M  V30 36035 H 3376.5 -1.40181 -0.329441 0
M  V30 36036 H 3378.46 -2.8289 -3.12332 0
M  V30 36037 H 3377.18 -1.6199 -2.83596 0
M  V30 36038 H 3375.84 -3.32176 -1.55095 0
M  V30 36039 H 3375.49 -3.03597 -4.01046 0
M  V30 36040 H 3375.19 -4.71724 -3.50357 0
M  V30 36041 H 3376.71 -4.29845 -4.33665 0
M  V30 36042 H 3378.13 -5.26054 -2.27904 0
M  V30 36043 H 3376.52 -5.76426 -1.66892 0
M  V30 36044 H 3377.59 -4.8082 -0.627743 0
M  V30 36045 N 3378.94 0.34972 -1.53671 0
M  V30 36046 C 3379.87 1.43488 -1.8421 0
M  V30 36047 C 3380.85 1.55175 -0.696752 0
M  V30 36048 O 3382.03 1.69484 -0.948091 0
M  V30 36049 C 3379.16 2.80622 -2.04618 0
M  V30 36050 C 3378.12 2.83747 -3.20424 0
M  V30 36051 C 3377.44 4.23707 -3.26154 0
M  V30 36052 C 3378.74 2.49838 -4.5867 0
M  V30 36053 H 3380.44 1.1818 -2.75089 0
M  V30 36054 H 3377.98 0.567078 -1.32364 0
M  V30 36055 H 3379.94 3.56578 -2.24566 0
M  V30 36056 H 3378.66 3.07352 -1.10464 0
M  V30 36057 H 3377.32 2.10243 -3.00322 0
M  V30 36058 H 3376.97 4.47537 -2.29607 0
M  V30 36059 H 3376.67 4.2671 -4.0397 0
M  V30 36060 H 3378.19 5.01514 -3.48305 0
M  V30 36061 H 3379.6 3.15507 -4.78673 0
M  V30 36062 H 3378 2.64134 -5.38844 0
M  V30 36063 H 3379.07 1.45041 -4.627 0
M  V30 36064 N 3380.41 1.45299 0.610397 0
M  V30 36065 C 3381.83 1.43669 1.19231 0
M  V30 36066 C 3382.18 0.162828 1.95523 0
M  V30 36067 O 3381.3 -0.735753 2.03508 0
M  V30 36068 C 3381.9 2.6028 2.16887 0
M  V30 36069 C 3380.46 2.61778 2.70461 0
M  V30 36070 C 3379.6 2.35866 1.45817 0
M  V30 36071 H 3382.55 1.5358 0.399868 0
M  V30 36072 H 3382.57 2.34218 2.99871 0
M  V30 36073 H 3382.09 3.52978 1.61332 0
M  V30 36074 H 3380.19 1.73078 3.29962 0
M  V30 36075 H 3380.3 3.60913 3.15086 0
M  V30 36076 H 3378.66 1.85367 1.74675 0
M  V30 36077 H 3379.45 3.30705 0.921345 0
M  V30 36078 N 3381.89 -0.852653 1.32543 0
M  V30 36079 C 3383.14 -1.60186 1.2257 0
M  V30 36080 C 3383.45 -1.94463 -0.21056 0
M  V30 36081 O 3384.66 -2.68038 -0.432166 0
M  V30 36082 C 3383.12 -2.88858 2.14683 0
M  V30 36083 C 3382.72 -2.61998 3.63402 0
M  V30 36084 C 3384.47 -3.66873 2.13552 0
M  V30 36085 C 3382.38 -3.86683 4.47471 0
M  V30 36086 H 3381.31 -0.601094 0.455195 0
M  V30 36087 H 3383.96 -0.94132 1.57516 0
M  V30 36088 H 3382.34 -3.5638 1.72654 0
M  V30 36089 H 3383.51 -2.02775 4.13786 0
M  V30 36090 H 3381.83 -1.9731 3.66685 0
M  V30 36091 H 3384.42 -4.594 2.73597 0
M  V30 36092 H 3384.77 -4.00754 1.12701 0
M  V30 36093 H 3385.3 -3.06258 2.53871 0
M  V30 36094 H 3382.04 -3.57942 5.49143 0
M  V30 36095 H 3381.56 -4.45295 4.01837 0
M  V30 36096 H 3383.24 -4.54402 4.60573 0
M  V30 36097 N 3383.37 -1.15786 -1.06918 0
M  V30 36098 C 3384.6 -0.958063 -1.83043 0
M  V30 36099 C 3385.01 0.496995 -1.82556 0
M  V30 36100 O 3384.35 1.35657 -1.23866 0
M  V30 36101 C 3384.41 -1.40062 -3.31094 0
M  V30 36102 C 3384.08 -2.87429 -3.55294 0
M  V30 36103 C 3385.07 -3.8547 -3.48869 0
M  V30 36104 C 3382.76 -3.25201 -3.82818 0
M  V30 36105 C 3384.75 -5.19285 -3.69624 0
M  V30 36106 C 3382.44 -4.59188 -4.03224 0
M  V30 36107 C 3383.44 -5.56039 -3.96623 0
M  V30 36108 O 3383.13 -6.87605 -4.16479 0
M  V30 36109 H 3382.86 -0.340106 -0.584212 0
M  V30 36110 H 3385.41 -1.54069 -1.35838 0
M  V30 36111 H 3383.64 -0.761428 -3.79129 0
M  V30 36112 H 3385.33 -1.16923 -3.88695 0
M  V30 36113 H 3386.1 -3.57634 -3.27601 0
M  V30 36114 H 3381.98 -2.50398 -3.87068 0
M  V30 36115 H 3385.52 -5.94868 -3.64387 0
M  V30 36116 H 3381.42 -4.86736 -4.23979 0
M  V30 36117 H 3382.19 -6.94087 -4.33803 0
M  V30 36118 N 3384.85 1.25343 -0.955348 0
M  V30 36119 C 3385.8 2.23579 -0.446831 0
M  V30 36120 C 3386.78 1.54055 0.464327 0
M  V30 36121 O 3387.97 1.74486 0.297263 0
M  V30 36122 C 3385.1 3.42209 0.273473 0
M  V30 36123 C 3384.19 4.18999 -0.655796 0
M  V30 36124 N 3384.58 4.73153 -1.78774 0
M  V30 36125 C 3382.88 4.43578 -0.464137 0
M  V30 36126 C 3383.58 5.3132 -2.36799 0
M  V30 36127 N 3382.56 5.17812 -1.65444 0
M  V30 36128 H 3386.36 2.63055 -1.3107 0
M  V30 36129 H 3383.87 1.40589 -0.812923 0
M  V30 36130 H 3385.87 4.11724 0.654913 0
M  V30 36131 H 3384.53 3.04256 1.13394 0
M  V30 36132 H 3385.54 4.70265 -2.16959 0
M  V30 36133 H 3382.22 4.16002 0.353386 0
M  V30 36134 H 3383.61 5.84002 -3.32252 0
M  V30 36135 N 3386.33 0.724003 1.39986 0
M  V30 36136 C 3387.26 0.0373847 2.2917 0
M  V30 36137 C 3388.27 -0.714989 1.46259 0
M  V30 36138 O 3389.46 -0.560973 1.69456 0
M  V30 36139 C 3386.56 -0.971327 3.24682 0
M  V30 36140 C 3385.73 -0.282749 4.36485 0
M  V30 36141 C 3384.79 -1.19802 5.12381 0
M  V30 36142 O 3383.82 -0.67964 5.65128 0
M  V30 36143 N 3385.02 -2.52857 5.22536 0
M  V30 36144 H 3387.79 0.803182 2.88737 0
M  V30 36145 H 3385.35 0.572319 1.51447 0
M  V30 36146 H 3387.34 -1.58599 3.72328 0
M  V30 36147 H 3385.91 -1.63842 2.66223 0
M  V30 36148 H 3385.13 0.512236 3.90858 0
M  V30 36149 H 3386.42 0.194882 5.08427 0
M  V30 36150 H 3385.82 -2.97461 4.81179 0
M  V30 36151 H 3384.37 -3.09447 5.7366 0
M  V30 36152 N 3387.81 -1.50403 0.470808 0
M  V30 36153 C 3389.05 -2.02624 -0.0844053 0
M  V30 36154 C 3389.38 -1.35212 -1.39396 0
M  V30 36155 O 3388.66 -0.477741 -1.88541 0
M  V30 36156 C 3388.94 -3.59098 -0.2685 0
M  V30 36157 C 3388.8 -4.37082 1.06205 0
M  V30 36158 C 3390.11 -4.28041 -1.02317 0
M  V30 36159 H 3387.23 -0.736421 -0.0292011 0
M  V30 36160 H 3389.88 -1.79725 0.616343 0
M  V30 36161 H 3388.03 -3.78739 -0.865374 0
M  V30 36162 H 3389.7 -4.29012 1.69549 0
M  V30 36163 H 3387.94 -4.00834 1.65875 0
M  V30 36164 H 3388.61 -5.44829 0.886891 0
M  V30 36165 H 3391.09 -4.12873 -0.517252 0
M  V30 36166 H 3389.96 -5.37336 -1.12078 0
M  V30 36167 H 3390.22 -3.91191 -2.05967 0
M  V30 36168 N 3389.28 -0.203404 -1.56282 0
M  V30 36169 C 3390.25 0.700451 -2.18235 0
M  V30 36170 C 3391.25 1.13495 -1.1391 0
M  V30 36171 O 3392.44 1.0467 -1.39248 0
M  V30 36172 C 3389.57 1.95731 -2.7911 0
M  V30 36173 H 3390.76 0.160597 -2.9947 0
M  V30 36174 H 3388.31 0.04622 -1.56232 0
M  V30 36175 H 3389.05 2.53947 -2.01696 0
M  V30 36176 H 3388.83 1.6544 -3.55489 0
M  V30 36177 H 3390.32 2.60166 -3.26655 0
M  V30 36178 N 3390.76 1.57444 0.0701393 0
M  V30 36179 C 3392.01 1.87609 0.77012 0
M  V30 36180 C 3392.34 0.795906 1.77141 0
M  V30 36181 O 3391.62 -0.19364 1.93534 0
M  V30 36182 C 3391.9 3.28432 1.47662 0
M  V30 36183 C 3391.75 4.47105 0.491634 0
M  V30 36184 C 3393.07 3.67518 2.42112 0
M  V30 36185 H 3390.19 0.682351 0.278507 0
M  V30 36186 H 3392.83 1.89971 0.033285 0
M  V30 36187 H 3390.98 3.26549 2.1047 0
M  V30 36188 H 3392.65 4.61113 -0.131364 0
M  V30 36189 H 3390.9 4.33371 -0.192894 0
M  V30 36190 H 3391.57 5.42426 1.02363 0
M  V30 36191 H 3394.04 3.70506 1.8938 0
M  V30 36192 H 3392.92 4.66938 2.88548 0
M  V30 36193 H 3393.18 2.9754 3.2699 0
M  V30 36194 N 3392.24 -0.341566 1.53854 0
M  V30 36195 C 3393.17 -1.44024 1.78297 0
M  V30 36196 C 3394.18 -1.48629 0.664329 0
M  V30 36197 O 3395.37 -1.51676 0.941099 0
M  V30 36198 C 3392.47 -2.8267 1.86952 0
M  V30 36199 C 3391.65 -3.01481 3.16904 0
M  V30 36200 C 3390.71 -4.20381 3.16491 0
M  V30 36201 O 3389.73 -4.14402 3.90204 0
M  V30 36202 N 3390.93 -5.29017 2.39 0
M  V30 36203 H 3393.7 -1.23426 2.73105 0
M  V30 36204 H 3391.26 -0.531456 1.52929 0
M  V30 36205 H 3393.25 -3.60389 1.84124 0
M  V30 36206 H 3391.82 -2.96402 0.993221 0
M  V30 36207 H 3391.04 -2.11215 3.32839 0
M  V30 36208 H 3392.33 -3.10933 4.02738 0
M  V30 36209 H 3391.73 -5.36745 1.78666 0
M  V30 36210 H 3390.28 -6.05223 2.41968 0
M  V30 36211 N 3393.72 -1.45621 -0.602683 0
M  V30 36212 C 3394.96 -1.49893 -1.36155 0
M  V30 36213 C 3395.29 -0.142615 -1.93976 0
M  V30 36214 O 3394.55 0.859343 -1.75823 0
M  V30 36215 C 3394.85 -2.5297 -2.52469 0
M  V30 36216 C 3394.51 -3.97545 -2.12765 0
M  V30 36217 C 3393.17 -4.3691 -2.0165 0
M  V30 36218 C 3395.53 -4.88446 -1.81851 0
M  V30 36219 C 3392.85 -5.65066 -1.57852 0
M  V30 36220 C 3395.21 -6.17019 -1.39537 0
M  V30 36221 C 3393.87 -6.5531 -1.26985 0
M  V30 36222 H 3393.14 -0.548499 -0.498227 0
M  V30 36223 H 3395.79 -1.78993 -0.680707 0
M  V30 36224 H 3394.09 -2.17458 -3.25913 0
M  V30 36225 H 3395.79 -2.53512 -3.10697 0
M  V30 36226 H 3392.38 -3.66417 -2.22343 0
M  V30 36227 H 3396.56 -4.58766 -1.89333 0
M  V30 36228 H 3391.82 -5.93525 -1.4676 0
M  V30 36229 H 3395.99 -6.86895 -1.14665 0
M  V30 36230 H 3393.62 -7.54512 -0.928214 0
M  V30 36231 N 3395.2 0.845612 -1.32993 0
M  V30 36232 C 3396.16 1.93648 -1.2261 0
M  V30 36233 C 3397.16 1.60128 -0.14684 0
M  V30 36234 O 3398.35 1.69595 -0.397893 0
M  V30 36235 C 3395.48 3.29138 -0.887735 0
M  V30 36236 H 3396.67 2.04281 -2.19566 0
M  V30 36237 H 3394.23 1.03689 -1.16954 0
M  V30 36238 H 3394.96 3.24202 0.0796207 0
M  V30 36239 H 3394.75 3.54846 -1.66814 0
M  V30 36240 H 3396.24 4.09072 -0.839651 0
M  V30 36241 N 3396.67 1.16351 1.06302 0
M  V30 36242 C 3397.95 0.855197 1.75914 0
M  V30 36243 C 3398.33 -0.646989 2.00941 0
M  V30 36244 O 3397.68 -1.59476 1.63645 0
M  V30 36245 C 3397.89 1.67779 3.06025 0
M  V30 36246 C 3399.24 1.89072 3.8018 0
M  V30 36247 O 3400.26 1.64644 3.15865 0
M  V30 36248 O 3399.12 2.30054 4.95719 0
M  V30 36249 H 3396.21 0.315565 0.764427 0
M  V30 36250 H 3398.76 1.26987 1.12571 0
M  V30 36251 H 3397.53 2.69717 2.83493 0
M  V30 36252 H 3397.15 1.26016 3.77102 0
M  V30 36253 N 3398.15 -1.24835 0.961982 0
M  V30 36254 C 3399.4 -1.92751 0.620749 0
M  V30 36255 C 3399.73 -1.75269 -0.843277 0
M  V30 36256 O 3398.98 -1.09587 -1.62139 0
M  V30 36257 C 3399.28 -3.44965 0.934541 0
M  V30 36258 C 3398.95 -3.82611 2.38578 0
M  V30 36259 C 3397.61 -3.92598 2.78245 0
M  V30 36260 C 3399.96 -4.01123 3.32791 0
M  V30 36261 C 3397.29 -4.1851 4.11176 0
M  V30 36262 C 3399.64 -4.2853 4.65343 0
M  V30 36263 C 3398.3 -4.36736 5.04795 0
M  V30 36264 H 3397.57 -0.705326 0.227148 0
M  V30 36265 H 3400.22 -1.48234 1.2124 0
M  V30 36266 H 3398.53 -3.90932 0.260584 0
M  V30 36267 H 3400.22 -3.95713 0.648993 0
M  V30 36268 H 3396.81 -3.75398 2.06819 0
M  V30 36269 H 3401 -3.92815 3.03332 0
M  V30 36270 H 3396.25 -4.23081 4.41376 0
M  V30 36271 H 3400.43 -4.41799 5.38318 0
M  V30 36272 H 3398.05 -4.56568 6.07824 0
M  V30 36273 N 3399.63 -0.731417 -1.396 0
M  V30 36274 C 3400.58 -0.0652332 -2.27907 0
M  V30 36275 C 3401.56 0.716309 -1.44076 0
M  V30 36276 O 3402.76 0.585907 -1.67021 0
M  V30 36277 C 3399.88 0.843965 -3.32764 0
M  V30 36278 C 3398.97 0.0567643 -4.24062 0
M  V30 36279 N 3399.36 -0.968233 -4.96446 0
M  V30 36280 C 3397.66 0.286959 -4.45076 0
M  V30 36281 C 3398.36 -1.44261 -5.63528 0
M  V30 36282 N 3397.34 -0.761866 -5.38235 0
M  V30 36283 H 3401.14 -0.850589 -2.81322 0
M  V30 36284 H 3398.65 -0.565423 -1.52239 0
M  V30 36285 H 3400.65 1.33667 -3.94891 0
M  V30 36286 H 3399.31 1.62852 -2.80908 0
M  V30 36287 H 3400.32 -1.3495 -5.00009 0
M  V30 36288 H 3397 1.0466 -4.04169 0
M  V30 36289 H 3398.39 -2.29519 -6.31483 0
M  V30 36290 N 3401.11 1.50152 -0.478778 0
M  V30 36291 C 3402.39 1.9513 0.135498 0
M  V30 36292 C 3402.77 1.41947 1.56251 0
M  V30 36293 O 3402.11 0.623712 2.19823 0
M  V30 36294 C 3402.32 3.48928 0.0709423 0
M  V30 36295 C 3403.67 4.23828 0.256 0
M  V30 36296 O 3404.7 3.55896 0.147171 0
M  V30 36297 O 3403.55 5.44417 0.476645 0
M  V30 36298 H 3400.65 0.819986 0.107477 0
M  V30 36299 H 3403.19 1.60888 -0.53973 0
M  V30 36300 H 3401.97 3.80208 -0.925079 0
M  V30 36301 H 3401.59 3.89727 0.787293 0
M  V30 36302 N 3402.59 0.211689 1.56172 0
M  V30 36303 C 3403.81 -0.427807 2.02429 0
M  V30 36304 C 3404.23 -1.54041 1.09165 0
M  V30 36305 O 3403.59 -1.82229 0.0994569 0
M  V30 36306 C 3403.64 -0.968666 3.4828 0
M  V30 36307 O 3403.36 0.0995611 4.37987 0
M  V30 36308 C 3404.86 -1.68239 4.10135 0
M  V30 36309 H 3402.08 -0.105758 0.662613 0
M  V30 36310 H 3404.62 0.325256 2.01897 0
M  V30 36311 H 3402.78 -1.67204 3.49459 0
M  V30 36312 H 3403.19 -0.305466 5.2361 0
M  V30 36313 H 3404.67 -2.01295 5.13989 0
M  V30 36314 H 3405.14 -2.59204 3.54556 0
M  V30 36315 H 3405.75 -1.02446 4.12777 0
M  V30 36316 N 3404.06 -1.57479 -0.0617887 0
M  V30 36317 C 3405.48 -1.76369 -0.61243 0
M  V30 36318 C 3405.83 -0.838497 -1.7738 0
M  V30 36319 O 3404.95 -0.0250591 -2.16385 0
M  V30 36320 C 3405.55 -3.19831 -1.11776 0
M  V30 36321 C 3404.11 -3.40031 -1.61418 0
M  V30 36322 C 3403.25 -2.72033 -0.537902 0
M  V30 36323 H 3406.2 -1.57846 0.16441 0
M  V30 36324 H 3406.22 -3.24541 -1.98628 0
M  V30 36325 H 3405.74 -3.87144 -0.272285 0
M  V30 36326 H 3403.84 -2.77847 -2.48258 0
M  V30 36327 H 3403.95 -4.4852 -1.68423 0
M  V30 36328 H 3402.31 -2.34869 -0.985314 0
M  V30 36329 H 3403.1 -3.42008 0.297555 0
M  V30 36330 N 3405.54 0.333401 -1.54033 0
M  V30 36331 C 3406.79 1.07037 -1.71428 0
M  V30 36332 C 3407.11 1.88859 -0.485529 0
M  V30 36333 O 3406.38 1.89398 0.500522 0
M  V30 36334 H 3404.96 0.398162 -0.632041 0
M  V30 36335 H 3407.62 0.372219 -1.91313 0
M  V30 36336 H 3406.72 1.742 -2.58961 0
M  V30 36337 N 3407.02 1.45939 0.594952 0
M  V30 36338 C 3408.44 1.30623 0.917046 0
M  V30 36339 C 3408.64 0.268589 1.99702 0
M  V30 36340 O 3407.69 -0.333102 2.50293 0
M  V30 36341 C 3409.01 2.68893 1.346 0
M  V30 36342 C 3410.55 2.76888 1.45952 0
M  V30 36343 C 3411.03 4.15712 1.92218 0
M  V30 36344 N 3412.52 4.18069 1.99431 0
M  V30 36345 C 3413.25 5.22365 2.36479 0
M  V30 36346 N 3412.75 6.36999 2.72405 0
M  V30 36347 N 3414.54 5.09727 2.36927 0
M  V30 36348 H 3406.69 2.12068 -0.118663 0
M  V30 36349 H 3408.96 0.947952 0.00957787 0
M  V30 36350 H 3408.66 3.46074 0.626544 0
M  V30 36351 H 3408.54 2.98192 2.31 0
M  V30 36352 H 3410.92 2.00003 2.16986 0
M  V30 36353 H 3411.01 2.51288 0.478336 0
M  V30 36354 H 3410.65 4.93088 1.21767 0
M  V30 36355 H 3410.58 4.38712 2.91272 0
M  V30 36356 H 3413.07 3.35352 1.74206 0
M  V30 36357 H 3413.38 7.12365 2.99592 0
M  V30 36358 H 3411.73 6.4038 2.70072 0
M  V30 36359 H 3414.92 4.19213 2.08275 0
M  V30 36360 H 3415.09 5.91125 2.65473 0
M  V30 36361 N 3408.5 -0.838547 1.3344 0
M  V30 36362 C 3409.43 -1.95288 1.18059 0
M  V30 36363 C 3410.41 -1.62422 0.0759866 0
M  V30 36364 O 3411.59 -1.86988 0.238283 0
M  V30 36365 C 3408.72 -3.28851 0.810852 0
M  V30 36366 C 3407.77 -3.80688 1.923 0
M  V30 36367 S 3408.6 -4.02327 3.53402 0
M  V30 36368 C 3409.76 -5.38841 3.18436 0
M  V30 36369 H 3409.99 -2.08036 2.12388 0
M  V30 36370 H 3407.52 -0.992364 1.18286 0
M  V30 36371 H 3409.48 -4.06028 0.604306 0
M  V30 36372 H 3408.14 -3.13894 -0.113839 0
M  V30 36373 H 3407.33 -4.77334 1.61767 0
M  V30 36374 H 3406.94 -3.10407 2.08622 0
M  V30 36375 H 3409.23 -6.21687 2.6928 0
M  V30 36376 H 3410.17 -5.74347 4.14163 0
M  V30 36377 H 3410.58 -5.0361 2.55025 0
M  V30 36378 N 3409.98 -1.16914 -1.05683 0
M  V30 36379 C 3410.91 -0.90457 -2.15267 0
M  V30 36380 C 3411.89 0.151519 -1.69424 0
M  V30 36381 O 3413.07 0.00231957 -1.942 0
M  V30 36382 C 3410.2 -0.411642 -3.44852 0
M  V30 36383 C 3409.16 -1.40635 -4.04235 0
M  V30 36384 C 3408.48 -0.771572 -5.29104 0
M  V30 36385 C 3409.78 -2.77795 -4.42298 0
M  V30 36386 H 3411.48 -1.82099 -2.37656 0
M  V30 36387 H 3409.02 -0.876967 -1.14216 0
M  V30 36388 H 3410.98 -0.214003 -4.20856 0
M  V30 36389 H 3409.7 0.540296 -3.221 0
M  V30 36390 H 3408.36 -1.59064 -3.30294 0
M  V30 36391 H 3408.01 0.187045 -5.02652 0
M  V30 36392 H 3407.71 -1.43555 -5.69794 0
M  V30 36393 H 3409.23 -0.584094 -6.078 0
M  V30 36394 H 3410.64 -2.63112 -5.09357 0
M  V30 36395 H 3409.04 -3.40724 -4.93991 0
M  V30 36396 H 3410.11 -3.32581 -3.52871 0
M  V30 36397 N 3411.45 1.24323 -0.968589 0
M  V30 36398 C 3412.36 2.29054 -0.50707 0
M  V30 36399 C 3413.38 1.68542 0.432401 0
M  V30 36400 O 3414.56 1.99074 0.305225 0
M  V30 36401 C 3411.62 3.46154 0.194529 0
M  V30 36402 C 3410.68 4.22064 -0.784879 0
M  V30 36403 C 3409.92 5.33572 -0.116668 0
M  V30 36404 O 3410.14 5.59794 1.09482 0
M  V30 36405 O 3409.07 5.96435 -0.809275 0
M  V30 36406 H 3412.9 2.70651 -1.37775 0
M  V30 36407 H 3410.48 1.30032 -0.735667 0
M  V30 36408 H 3412.37 4.17269 0.588611 0
M  V30 36409 H 3411.04 3.06533 1.04016 0
M  V30 36410 H 3409.95 3.53321 -1.22944 0
M  V30 36411 H 3411.28 4.65504 -1.59895 0
M  V30 36412 N 3412.93 0.73881 1.3921 0
M  V30 36413 C 3413.88 0.101331 2.30577 0
M  V30 36414 C 3414.85 -0.72559 1.49414 0
M  V30 36415 O 3416.03 -0.684768 1.78089 0
M  V30 36416 C 3413.17 -0.797102 3.35768 0
M  V30 36417 C 3412.29 0.042846 4.31979 0
M  V30 36418 C 3411.42 -0.857214 5.24238 0
M  V30 36419 C 3410.46 -0.0127425 6.12099 0
M  V30 36420 N 3409.6 -0.868944 6.96702 0
M  V30 36421 H 3414.44 0.88611 2.84521 0
M  V30 36422 H 3411.98 0.448627 1.40092 0
M  V30 36423 H 3413.93 -1.33248 3.95349 0
M  V30 36424 H 3412.56 -1.54782 2.83271 0
M  V30 36425 H 3411.62 0.695687 3.73984 0
M  V30 36426 H 3412.93 0.695637 4.93925 0
M  V30 36427 H 3412.08 -1.4603 5.88864 0
M  V30 36428 H 3410.82 -1.54378 4.62622 0
M  V30 36429 H 3409.83 0.603114 5.46482 0
M  V30 36430 H 3411.05 0.670659 6.7578 0
M  V30 36431 H 3409 -1.54073 6.3765 0
M  V30 36432 H 3408.91 -0.272719 7.55508 0
M  V30 36433 H 3410.18 -1.45747 7.65753 0
M  V30 36434 N 3414.41 -1.49895 0.486734 0
M  V30 36435 C 3415.66 -2.02003 -0.0626924 0
M  V30 36436 C 3415.98 -1.36969 -1.38797 0
M  V30 36437 O 3415.25 -0.520206 -1.88867 0
M  V30 36438 H 3413.83 -0.746542 -0.0261587 0
M  V30 36439 H 3416.49 -1.84067 0.640724 0
M  V30 36440 H 3415.59 -3.1144 -0.202801 0
M  V30 36441 N 3415.89 -0.219968 -1.56057 0
M  V30 36442 C 3417.14 0.412773 -1.98555 0
M  V30 36443 C 3417.47 1.59528 -1.10745 0
M  V30 36444 O 3416.74 1.93801 -0.164791 0
M  V30 36445 C 3417.03 0.848862 -3.49952 0
M  V30 36446 C 3416.88 -0.337172 -4.48534 0
M  V30 36447 C 3418.2 1.70559 -4.05706 0
M  V30 36448 H 3415.32 0.148563 -0.721871 0
M  V30 36449 H 3417.96 -0.315885 -1.87356 0
M  V30 36450 H 3416.11 1.46973 -3.59626 0
M  V30 36451 H 3417.78 -0.975295 -4.50872 0
M  V30 36452 H 3416.02 -0.984873 -4.22472 0
M  V30 36453 H 3416.7 0.0108695 -5.51999 0
M  V30 36454 H 3419.17 1.18175 -3.98966 0
M  V30 36455 H 3418.05 1.97963 -5.11959 0
M  V30 36456 H 3418.31 2.66838 -3.52491 0
M  V30 36457 N 3417.37 1.57509 0.0534363 0
M  V30 36458 C 3418.62 1.87318 0.747983 0
M  V30 36459 C 3418.93 0.815192 1.77803 0
M  V30 36460 O 3420.14 1.00171 2.52345 0
M  V30 36461 C 3418.59 3.32337 1.38131 0
M  V30 36462 C 3418.2 4.46309 0.388879 0
M  V30 36463 C 3419.94 3.71324 2.05715 0
M  V30 36464 C 3417.85 5.82376 1.02917 0
M  V30 36465 H 3416.78 0.698831 0.283111 0
M  V30 36466 H 3419.43 1.835 0.00167497 0
M  V30 36467 H 3417.81 3.30823 2.17651 0
M  V30 36468 H 3418.99 4.59248 -0.377833 0
M  V30 36469 H 3417.3 4.15995 -0.18352 0
M  V30 36470 H 3419.9 4.70287 2.54429 0
M  V30 36471 H 3420.24 3.02061 2.8647 0
M  V30 36472 H 3420.78 3.74907 1.33003 0
M  V30 36473 H 3417.51 6.54978 0.261559 0
M  V30 36474 H 3417.03 5.73203 1.7663 0
M  V30 36475 H 3418.71 6.28315 1.54367 0
M  V30 36476 N 3418.85 -0.325228 1.54208 0
M  V30 36477 C 3420.07 -1.08733 1.76612 0
M  V30 36478 C 3420.5 -1.80984 0.512481 0
M  V30 36479 O 3419.85 -1.73199 -0.535882 0
M  V30 36480 C 3419.9 -2.06238 2.95801 0
M  V30 36481 O 3419.01 -3.14105 2.6723 0
M  V30 36482 H 3418.35 -0.313583 0.585288 0
M  V30 36483 H 3420.88 -0.370031 2.01226 0
M  V30 36484 H 3420.89 -2.49137 3.23102 0
M  V30 36485 H 3419.56 -1.53051 3.86715 0
M  V30 36486 H 3418.14 -2.75892 2.50874 0
M  V30 36487 N 3420.32 -1.46252 -0.587204 0
M  V30 36488 C 3421.6 -1.41805 -1.34725 0
M  V30 36489 C 3421.98 -0.0991724 -2.10867 0
M  V30 36490 O 3421.33 0.919205 -2.09196 0
M  V30 36491 C 3421.54 -2.64486 -2.27702 0
M  V30 36492 C 3422.89 -3.10443 -2.89672 0
M  V30 36493 O 3423.91 -2.65003 -2.38016 0
M  V30 36494 O 3422.77 -3.89359 -3.83487 0
M  V30 36495 H 3419.86 -0.563713 -0.605109 0
M  V30 36496 H 3422.41 -1.58412 -0.608596 0
M  V30 36497 H 3421.18 -3.52038 -1.70836 0
M  V30 36498 H 3420.8 -2.50316 -3.08914 0
M  V30 36499 N 3421.8 0.831459 -1.33883 0
M  V30 36500 C 3423.05 1.58215 -1.25103 0
M  V30 36501 C 3423.36 1.94774 0.179596 0
M  V30 36502 O 3424.57 2.68692 0.389469 0
M  V30 36503 C 3423.03 2.85406 -2.19251 0
M  V30 36504 C 3422.63 2.56183 -3.67524 0
M  V30 36505 C 3424.38 3.63429 -2.19361 0
M  V30 36506 C 3422.28 3.79515 -4.53566 0
M  V30 36507 H 3421.21 0.593776 -0.4647 0
M  V30 36508 H 3423.87 0.916141 -1.58994 0
M  V30 36509 H 3422.25 3.53588 -1.78302 0
M  V30 36510 H 3423.42 1.96166 -4.1696 0
M  V30 36511 H 3421.74 1.91451 -3.69778 0
M  V30 36512 H 3424.33 4.5499 -2.80871 0
M  V30 36513 H 3424.68 3.98911 -1.19063 0
M  V30 36514 H 3425.21 3.02181 -2.58711 0
M  V30 36515 H 3421.95 3.4916 -5.54768 0
M  V30 36516 H 3421.47 4.38846 -4.0887 0
M  V30 36517 H 3423.15 4.47017 -4.67744 0
M  V30 36518 N 3423.28 1.17472 1.05062 0
M  V30 36519 C 3424.21 0.915974 2.14784 0
M  V30 36520 C 3425.19 -0.142532 1.69502 0
M  V30 36521 O 3426.38 0.00797935 1.94198 0
M  V30 36522 C 3423.51 0.429924 3.44629 0
M  V30 36523 C 3422.46 1.42776 4.03483 0
M  V30 36524 C 3421.79 0.799621 5.28687 0
M  V30 36525 C 3423.09 2.80137 4.40818 0
M  V30 36526 H 3424.78 1.83356 2.36687 0
M  V30 36527 H 3422.33 0.883012 1.13749 0
M  V30 36528 H 3424.28 0.236319 4.20737 0
M  V30 36529 H 3423 -0.523206 3.22382 0
M  V30 36530 H 3421.66 1.60813 3.29446 0
M  V30 36531 H 3421.31 -0.160385 5.02744 0
M  V30 36532 H 3421.01 1.46575 5.69025 0
M  V30 36533 H 3422.53 0.616319 6.07482 0
M  V30 36534 H 3423.95 2.6581 5.07955 0
M  V30 36535 H 3422.34 3.43339 4.92177 0
M  V30 36536 H 3423.41 3.34448 3.51102 0
M  V30 36537 N 3424.76 -1.23807 0.975168 0
M  V30 36538 C 3425.67 -2.28782 0.519211 0
M  V30 36539 C 3426.68 -1.68769 -0.423457 0
M  V30 36540 O 3427.86 -1.99233 -0.294664 0
M  V30 36541 C 3424.92 -3.46252 -0.176168 0
M  V30 36542 C 3423.99 -4.21642 0.807252 0
M  V30 36543 C 3423.22 -5.33503 0.144963 0
M  V30 36544 O 3423.44 -5.60367 -1.06512 0
M  V30 36545 O 3422.38 -5.95997 0.840894 0
M  V30 36546 H 3426.2 -2.69916 1.39208 0
M  V30 36547 H 3423.79 -1.2964 0.742553 0
M  V30 36548 H 3425.67 -4.17575 -0.566474 0
M  V30 36549 H 3424.34 -3.0708 -1.02389 0
M  V30 36550 H 3423.25 -3.52664 1.24816 0
M  V30 36551 H 3424.58 -4.6465 1.62362 0
M  V30 36552 N 3426.24 -0.746182 -1.38816 0
M  V30 36553 C 3427.48 -0.308424 -2.01048 0
M  V30 36554 C 3427.84 1.09553 -1.58164 0
M  V30 36555 O 3427.13 1.73836 -0.805715 0
M  V30 36556 C 3427.32 -0.361148 -3.55571 0
M  V30 36557 C 3427.15 -1.76868 -4.13458 0
M  V30 36558 C 3425.92 -2.38352 -4.45552 0
M  V30 36559 C 3428.12 -2.72414 -4.36228 0
M  V30 36560 N 3426.1 -3.71143 -4.89005 0
M  V30 36561 C 3427.47 -3.89958 -4.82009 0
M  V30 36562 C 3429.53 -2.70032 -4.18315 0
M  V30 36563 C 3428.23 -5.05471 -5.11754 0
M  V30 36564 C 3430.26 -3.84696 -4.4918 0
M  V30 36565 C 3429.62 -5.00978 -4.95177 0
M  V30 36566 H 3425.72 -0.159359 -0.76559 0
M  V30 36567 H 3428.3 -0.97455 -1.68554 0
M  V30 36568 H 3426.47 0.274674 -3.87428 0
M  V30 36569 H 3428.21 0.0962225 -4.04586 0
M  V30 36570 H 3424.96 -1.9018 -4.33738 0
M  V30 36571 H 3425.38 -4.39348 -5.15075 0
M  V30 36572 H 3430.03 -1.81319 -3.81947 0
M  V30 36573 H 3427.74 -5.94805 -5.47022 0
M  V30 36574 H 3431.33 -3.84164 -4.36932 0
M  V30 36575 H 3430.21 -5.88233 -5.18606 0
M  V30 36576 N 3427.71 1.49635 -0.494676 0
M  V30 36577 C 3428.66 2.29007 0.287113 0
M  V30 36578 C 3429.63 1.35115 0.966075 0
M  V30 36579 O 3430.82 1.64069 0.973962 0
M  V30 36580 C 3427.96 3.17626 1.34935 0
M  V30 36581 C 3427.07 4.2657 0.682804 0
M  V30 36582 C 3426.2 5.02413 1.72495 0
M  V30 36583 C 3425.24 6.03201 1.03992 0
M  V30 36584 N 3424.38 6.72234 2.02598 0
M  V30 36585 H 3429.22 2.95357 -0.395993 0
M  V30 36586 H 3426.76 1.45634 -0.207129 0
M  V30 36587 H 3428.71 3.67376 1.97714 0
M  V30 36588 H 3427.34 2.53274 2.00131 0
M  V30 36589 H 3426.4 3.80356 -0.0581146 0
M  V30 36590 H 3427.71 4.98594 0.143247 0
M  V30 36591 H 3426.86 5.56 2.42794 0
M  V30 36592 H 3425.6 4.30148 2.29835 0
M  V30 36593 H 3424.61 5.48852 0.322669 0
M  V30 36594 H 3425.83 6.7745 0.4731 0
M  V30 36595 H 3423.78 6.02744 2.58912 0
M  V30 36596 H 3423.69 7.40213 1.53691 0
M  V30 36597 H 3424.96 7.30428 2.72205 0
M  V30 36598 N 3429.19 0.228241 1.55939 0
M  V30 36599 C 3430.42 -0.406313 2.02871 0
M  V30 36600 C 3430.83 -1.52874 1.10792 0
M  V30 36601 O 3430.19 -1.82113 0.118779 0
M  V30 36602 C 3430.24 -0.931672 3.49288 0
M  V30 36603 O 3429.96 0.14601 4.37857 0
M  V30 36604 C 3431.46 -1.6388 4.11896 0
M  V30 36605 H 3428.68 -0.0987241 0.663698 0
M  V30 36606 H 3431.23 0.346651 2.01541 0
M  V30 36607 H 3429.38 -1.63488 3.51213 0
M  V30 36608 H 3429.8 -0.249913 5.23904 0
M  V30 36609 H 3431.27 -1.95832 5.16095 0
M  V30 36610 H 3431.75 -2.55429 3.57285 0
M  V30 36611 H 3432.35 -0.980624 4.1384 0
M  V30 36612 N 3430.67 -1.57536 -0.0450825 0
M  V30 36613 C 3431.63 -2.04492 -1.03517 0
M  V30 36614 C 3432.63 -0.946288 -1.30008 0
M  V30 36615 O 3433.82 -1.2104 -1.2528 0
M  V30 36616 C 3430.96 -2.44828 -2.37217 0
M  V30 36617 H 3432.15 -2.9321 -0.629891 0
M  V30 36618 H 3429.7 -1.53557 -0.291517 0
M  V30 36619 H 3430.44 -1.59217 -2.82525 0
M  V30 36620 H 3430.22 -3.25022 -2.19324 0
M  V30 36621 H 3431.71 -2.8164 -3.08332 0
M  V30 36622 N 3432.15 0.317045 -1.54378 0
M  V30 36623 C 3433.56 0.661774 -1.45233 0
M  V30 36624 C 3433.76 1.91382 -0.63049 0
M  V30 36625 O 3432.82 2.52155 -0.131854 0
M  V30 36626 C 3434.13 0.82971 -2.89026 0
M  V30 36627 C 3435.68 0.926632 -2.98969 0
M  V30 36628 C 3436.16 1.12669 -4.43925 0
M  V30 36629 N 3437.65 1.19327 -4.47566 0
M  V30 36630 C 3438.38 1.36607 -5.5689 0
M  V30 36631 N 3437.88 1.50887 -6.76169 0
M  V30 36632 N 3439.67 1.39367 -5.44549 0
M  V30 36633 H 3431.82 -0.505802 -2.0629 0
M  V30 36634 H 3434.09 -0.164538 -0.933612 0
M  V30 36635 H 3433.79 -0.0191563 -3.51695 0
M  V30 36636 H 3433.67 1.72358 -3.35518 0
M  V30 36637 H 3436.05 1.766 -2.36424 0
M  V30 36638 H 3436.13 0.00908906 -2.55798 0
M  V30 36639 H 3435.78 0.292151 -5.07059 0
M  V30 36640 H 3435.71 2.05821 -4.84712 0
M  V30 36641 H 3438.2 1.09709 -3.61625 0
M  V30 36642 H 3438.51 1.63782 -7.55245 0
M  V30 36643 H 3436.86 1.47973 -6.79065 0
M  V30 36644 H 3440.05 1.27811 -4.50313 0
M  V30 36645 H 3440.22 1.52491 -6.29802 0
M  V30 36646 N 3433.63 1.46561 0.57944 0
M  V30 36647 C 3434.85 1.55617 1.36348 0
M  V30 36648 C 3435.27 0.198438 1.87754 0
M  V30 36649 O 3434.63 -0.804805 1.63796 0
M  V30 36650 C 3434.68 2.5636 2.54876 0
M  V30 36651 O 3434.4 3.8686 2.056 0
M  V30 36652 C 3435.9 2.75387 3.47386 0
M  V30 36653 H 3433.12 0.526154 0.416417 0
M  V30 36654 H 3435.66 1.91997 0.704101 0
M  V30 36655 H 3433.82 2.22975 3.16798 0
M  V30 36656 H 3434.23 4.41719 2.82815 0
M  V30 36657 H 3435.71 3.49791 4.27025 0
M  V30 36658 H 3436.18 1.82411 3.99529 0
M  V30 36659 H 3436.79 3.0988 2.91297 0
M  V30 36660 N 3435.1 -0.824347 1.34322 0
M  V30 36661 C 3436.35 -1.58048 1.26598 0
M  V30 36662 C 3436.68 -1.93804 -0.164436 0
M  V30 36663 O 3435.93 -1.60108 -1.12534 0
M  V30 36664 C 3436.23 -2.89135 2.10085 0
M  V30 36665 C 3435.9 -2.72678 3.59107 0
M  V30 36666 C 3434.56 -2.67897 3.99731 0
M  V30 36667 C 3436.91 -2.56455 4.5374 0
M  V30 36668 C 3434.24 -2.44813 5.33182 0
M  V30 36669 C 3436.59 -2.34903 5.8737 0
M  V30 36670 C 3435.26 -2.28533 6.27159 0
M  V30 36671 H 3434.53 -0.578339 0.463255 0
M  V30 36672 H 3437.17 -0.953918 1.6605 0
M  V30 36673 H 3435.48 -3.56075 1.63457 0
M  V30 36674 H 3437.18 -3.46722 2.01457 0
M  V30 36675 H 3433.77 -2.77238 3.26859 0
M  V30 36676 H 3437.95 -2.59173 4.23253 0
M  V30 36677 H 3433.21 -2.38338 5.63032 0
M  V30 36678 H 3437.38 -2.21337 6.6029 0
M  V30 36679 H 3435.01 -2.10407 7.30502 0
M  V30 36680 N 3436.58 -1.18028 -1.04437 0
M  V30 36681 C 3437.51 -0.927351 -2.14295 0
M  V30 36682 C 3438.49 0.13354 -1.69575 0
M  V30 36683 O 3439.68 -0.018278 -1.94191 0
M  V30 36684 C 3436.81 -0.448195 -3.44396 0
M  V30 36685 C 3435.76 -1.44914 -4.02721 0
M  V30 36686 C 3435.09 -0.827647 -5.28256 0
M  V30 36687 C 3436.39 -2.8247 -4.39326 0
M  V30 36688 H 3438.08 -1.84609 -2.35711 0
M  V30 36689 H 3435.63 -0.889032 -1.13279 0
M  V30 36690 H 3437.58 -0.258628 -4.20606 0
M  V30 36691 H 3436.31 0.506102 -3.22655 0
M  V30 36692 H 3434.96 -1.62558 -3.28588 0
M  V30 36693 H 3434.61 0.133721 -5.02822 0
M  V30 36694 H 3434.31 -1.4959 -5.6824 0
M  V30 36695 H 3435.84 -0.648527 -6.07146 0
M  V30 36696 H 3437.25 -2.685 -5.06538 0
M  V30 36697 H 3435.65 -3.45945 -4.90349 0
M  V30 36698 H 3436.72 -3.36305 -3.49324 0
M  V30 36699 N 3438.06 1.23288 -0.98172 0
M  V30 36700 C 3439.29 1.95488 -0.668434 0
M  V30 36701 C 3439.7 1.7287 0.768945 0
M  V30 36702 O 3439.04 1.01786 1.52923 0
M  V30 36703 C 3439.1 3.48548 -0.880596 0
M  V30 36704 C 3438.77 3.94886 -2.3003 0
M  V30 36705 C 3439.76 4.03452 -3.27906 0
M  V30 36706 C 3437.45 4.27837 -2.63174 0
M  V30 36707 C 3439.44 4.44324 -4.57007 0
M  V30 36708 C 3437.13 4.6839 -3.92497 0
M  V30 36709 C 3438.13 4.76601 -4.89225 0
M  V30 36710 O 3437.82 5.16242 -6.16238 0
M  V30 36711 H 3437.55 0.629155 -0.247266 0
M  V30 36712 H 3440.1 1.57697 -1.31609 0
M  V30 36713 H 3438.33 3.863 -0.175766 0
M  V30 36714 H 3440.02 4.01959 -0.564269 0
M  V30 36715 H 3440.79 3.78197 -3.03631 0
M  V30 36716 H 3436.67 4.20658 -1.88595 0
M  V30 36717 H 3440.21 4.50647 -5.32506 0
M  V30 36718 H 3436.11 4.93094 -4.16567 0
M  V30 36719 H 3436.88 5.3435 -6.2001 0
M  V30 36720 N 3439.54 0.753533 1.38418 0
M  V30 36721 C 3440.78 0.319082 2.00882 0
M  V30 36722 C 3441.14 -1.08713 1.58743 0
M  V30 36723 O 3440.43 -1.73406 0.814923 0
M  V30 36724 C 3440.63 0.38 3.55374 0
M  V30 36725 C 3440.46 1.79059 4.12514 0
M  V30 36726 C 3439.23 2.40711 4.44282 0
M  V30 36727 C 3441.42 2.74723 4.34778 0
M  V30 36728 N 3439.41 3.73731 4.8703 0
M  V30 36729 C 3440.78 3.92509 4.79934 0
M  V30 36730 C 3442.83 2.72246 4.16877 0
M  V30 36731 C 3441.53 5.08177 5.09066 0
M  V30 36732 C 3443.56 3.87073 4.47134 0
M  V30 36733 C 3442.92 5.03597 4.92513 0
M  V30 36734 H 3439.02 0.163417 0.764735 0
M  V30 36735 H 3441.61 0.983475 1.68035 0
M  V30 36736 H 3439.78 -0.254124 3.87568 0
M  V30 36737 H 3441.51 -0.074765 4.04631 0
M  V30 36738 H 3438.26 1.92477 4.32723 0
M  V30 36739 H 3438.69 4.42074 5.12738 0
M  V30 36740 H 3443.33 1.83342 3.8098 0
M  V30 36741 H 3441.05 5.97697 5.4386 0
M  V30 36742 H 3444.63 3.86476 4.34888 0
M  V30 36743 H 3443.51 5.90975 5.15479 0
M  V30 36744 N 3441.02 -1.49371 0.502605 0
M  V30 36745 C 3442.43 -1.58809 0.158669 0
M  V30 36746 C 3442.63 -1.50767 -1.33685 0
M  V30 36747 O 3441.69 -1.38245 -2.11293 0
M  V30 36748 C 3443 -2.91531 0.736894 0
M  V30 36749 C 3444.55 -3.05 0.703146 0
M  V30 36750 C 3445.02 -4.40343 1.25946 0
M  V30 36751 N 3446.52 -4.46838 1.22023 0
M  V30 36752 C 3447.25 -5.50014 1.62086 0
M  V30 36753 N 3446.75 -6.60286 2.09748 0
M  V30 36754 N 3448.54 -5.40737 1.53492 0
M  V30 36755 H 3440.69 -1.52841 1.4749 0
M  V30 36756 H 3442.95 -0.724104 0.611864 0
M  V30 36757 H 3442.66 -3.02989 1.78579 0
M  V30 36758 H 3442.53 -3.76679 0.198244 0
M  V30 36759 H 3444.92 -2.9317 -0.336914 0
M  V30 36760 H 3445 -2.21532 1.27896 0
M  V30 36761 H 3444.65 -4.52924 2.29831 0
M  V30 36762 H 3444.58 -5.22453 0.659573 0
M  V30 36763 H 3447.07 -3.67725 0.871021 0
M  V30 36764 H 3447.38 -7.35114 2.38383 0
M  V30 36765 H 3445.72 -6.61322 2.13723 0
M  V30 36766 H 3448.92 -4.53481 1.16073 0
M  V30 36767 H 3449.09 -6.2102 1.85037 0
M  V30 36768 N 3442.49 -0.236508 -1.55815 0
M  V30 36769 C 3443.42 0.661795 -2.23925 0
M  V30 36770 C 3444.41 1.18944 -1.21599 0
M  V30 36771 O 3445.59 1.2307 -1.50225 0
M  V30 36772 C 3442.72 1.86349 -2.93072 0
M  V30 36773 C 3441.67 1.46906 -4.01998 0
M  V30 36774 C 3441 2.75075 -4.58517 0
M  V30 36775 C 3442.3 0.647873 -5.18266 0
M  V30 36776 H 3443.99 0.0938842 -2.99253 0
M  V30 36777 H 3441.54 0.0437154 -1.43934 0
M  V30 36778 H 3443.49 2.49749 -3.39416 0
M  V30 36779 H 3442.22 2.45662 -2.15216 0
M  V30 36780 H 3440.88 0.85846 -3.56407 0
M  V30 36781 H 3440.52 3.32563 -3.77374 0
M  V30 36782 H 3440.22 2.49411 -5.32041 0
M  V30 36783 H 3441.75 3.39391 -5.07589 0
M  V30 36784 H 3443.16 1.18592 -5.609 0
M  V30 36785 H 3441.56 0.487718 -5.98115 0
M  V30 36786 H 3442.63 -0.342236 -4.83691 0
M  V30 36787 N 3443.97 1.57557 0.0367273 0
M  V30 36788 C 3445.39 1.54705 0.392237 0
M  V30 36789 C 3445.59 0.961601 1.77075 0
M  V30 36790 O 3444.64 0.579306 2.45765 0
M  V30 36791 C 3445.96 2.99189 0.301115 0
M  V30 36792 C 3447.51 3.107 0.378758 0
M  V30 36793 C 3447.98 4.569 0.317169 0
M  V30 36794 N 3449.47 4.6167 0.376196 0
M  V30 36795 C 3450.21 5.72323 0.35131 0
M  V30 36796 N 3449.7 6.92237 0.279166 0
M  V30 36797 N 3451.5 5.60672 0.400473 0
M  V30 36798 H 3443.65 1.93967 -0.865489 0
M  V30 36799 H 3445.91 0.889319 -0.328354 0
M  V30 36800 H 3445.62 3.45718 -0.645881 0
M  V30 36801 H 3445.49 3.60872 1.09778 0
M  V30 36802 H 3447.88 2.64122 1.31619 0
M  V30 36803 H 3447.96 2.51862 -0.447116 0
M  V30 36804 H 3447.6 5.04144 -0.616558 0
M  V30 36805 H 3447.53 5.13641 1.16105 0
M  V30 36806 H 3450.02 3.75391 0.434777 0
M  V30 36807 H 3450.34 7.72345 0.265067 0
M  V30 36808 H 3448.68 6.94567 0.245327 0
M  V30 36809 H 3451.87 4.65886 0.454772 0
M  V30 36810 H 3452.04 6.46899 0.37761 0
M  V30 36811 N 3445.45 -0.308854 1.54544 0
M  V30 36812 C 3446.87 -0.654063 1.45582 0
M  V30 36813 C 3447.07 -1.91045 0.640631 0
M  V30 36814 O 3446.12 -2.52082 0.145224 0
M  V30 36815 C 3447.44 -0.814371 2.89462 0
M  V30 36816 C 3448.98 -0.910764 2.99456 0
M  V30 36817 C 3449.46 -1.10313 4.44517 0
M  V30 36818 N 3450.95 -1.16952 4.48192 0
M  V30 36819 C 3451.69 -1.33652 5.57606 0
M  V30 36820 N 3451.18 -1.47299 6.7696 0
M  V30 36821 N 3452.97 -1.36477 5.4528 0
M  V30 36822 H 3445.13 0.516735 2.06018 0
M  V30 36823 H 3447.39 0.169487 0.932726 0
M  V30 36824 H 3447.09 0.0378073 3.5168 0
M  V30 36825 H 3446.97 -1.70576 3.36428 0
M  V30 36826 H 3449.36 -1.75344 2.37358 0
M  V30 36827 H 3449.44 0.00447668 2.558 0
M  V30 36828 H 3449.08 -0.265257 5.07207 0
M  V30 36829 H 3449.01 -2.03247 4.85796 0
M  V30 36830 H 3451.5 -1.0779 3.62201 0
M  V30 36831 H 3451.81 -1.59775 7.56103 0
M  V30 36832 H 3450.16 -1.4437 6.7984 0
M  V30 36833 H 3453.35 -1.25421 4.50985 0
M  V30 36834 H 3453.52 -1.49149 6.30602 0
M  V30 36835 N 3446.93 -1.46867 -0.571659 0
M  V30 36836 C 3447.86 -1.61134 -1.68991 0
M  V30 36837 C 3448.84 -0.461251 -1.63727 0
M  V30 36838 O 3450.03 -0.688845 -1.81572 0
M  V30 36839 C 3447.16 -1.61177 -3.07635 0
M  V30 36840 C 3446.11 -2.75267 -3.27737 0
M  V30 36841 C 3445.44 -2.60376 -4.67021 0
M  V30 36842 C 3446.74 -4.16995 -3.14504 0
M  V30 36843 H 3448.43 -2.54745 -1.57307 0
M  V30 36844 H 3445.98 -1.22598 -0.755361 0
M  V30 36845 H 3447.93 -1.69751 -3.85697 0
M  V30 36846 H 3446.65 -0.641179 -3.20244 0
M  V30 36847 H 3445.31 -2.66181 -2.52078 0
M  V30 36848 H 3444.96 -1.61376 -4.7641 0
M  V30 36849 H 3444.66 -3.36907 -4.81422 0
M  V30 36850 H 3446.18 -2.70857 -5.47237 0
M  V30 36851 H 3447.6 -4.27134 -3.82399 0
M  V30 36852 H 3445.99 -4.94199 -3.40422 0
M  V30 36853 H 3447.06 -4.36375 -2.11436 0
M  V30 36854 N 3448.41 0.817212 -1.34757 0
M  V30 36855 C 3449.34 1.94328 -1.29456 0
M  V30 36856 C 3450.32 1.69239 -0.170932 0
M  V30 36857 O 3451.5 1.90754 -0.364206 0
M  V30 36858 C 3448.63 3.30887 -1.05503 0
M  V30 36859 C 3447.59 3.70432 -2.14393 0
M  V30 36860 C 3446.91 5.05036 -1.75621 0
M  V30 36861 C 3448.21 3.81926 -3.56272 0
M  V30 36862 H 3449.91 1.99021 -2.23676 0
M  V30 36863 H 3447.45 0.95614 -1.07675 0
M  V30 36864 H 3449.41 4.09256 -1.00438 0
M  V30 36865 H 3448.13 3.26509 -0.0772633 0
M  V30 36866 H 3446.79 2.94342 -2.18537 0
M  V30 36867 H 3446.44 4.9715 -0.764896 0
M  V30 36868 H 3446.14 5.32465 -2.48504 0
M  V30 36869 H 3447.66 5.85856 -1.72061 0
M  V30 36870 H 3449.08 4.50552 -3.54508 0
M  V30 36871 H 3447.47 4.20815 -4.27826 0
M  V30 36872 H 3448.54 2.83768 -3.93197 0
M  V30 36873 N 3449.89 1.1858 1.0381 0
M  V30 36874 C 3450.82 0.938703 2.138 0
M  V30 36875 C 3451.8 -0.124546 1.69643 0
M  V30 36876 O 3452.98 0.0285762 1.94179 0
M  V30 36877 C 3450.11 0.466453 3.44153 0
M  V30 36878 C 3449.07 1.47048 4.01946 0
M  V30 36879 C 3448.39 0.855651 5.27809 0
M  V30 36880 C 3449.69 2.84796 4.37822 0
M  V30 36881 H 3451.39 1.85856 2.34729 0
M  V30 36882 H 3448.93 0.895027 1.12806 0
M  V30 36883 H 3450.88 0.28093 4.20463 0
M  V30 36884 H 3449.61 -0.488984 3.22919 0
M  V30 36885 H 3448.27 1.64299 3.27722 0
M  V30 36886 H 3447.92 -0.107054 5.02886 0
M  V30 36887 H 3447.62 1.52602 5.67438 0
M  V30 36888 H 3449.14 0.680716 6.06794 0
M  V30 36889 H 3450.55 2.71182 5.05107 0
M  V30 36890 H 3448.95 3.4854 4.88508 0
M  V30 36891 H 3450.02 3.38153 3.47535 0
M  V30 36892 N 3451.36 -1.22766 0.988245 0
M  V30 36893 C 3452.27 -2.28219 0.543447 0
M  V30 36894 C 3453.29 -1.69208 -0.405533 0
M  V30 36895 O 3454.47 -1.99534 -0.273516 0
M  V30 36896 C 3451.53 -3.4642 -0.139434 0
M  V30 36897 C 3450.59 -4.20762 0.851927 0
M  V30 36898 C 3449.82 -5.33319 0.20154 0
M  V30 36899 O 3450.05 -5.61465 -1.00563 0
M  V30 36900 O 3448.98 -5.95072 0.904061 0
M  V30 36901 H 3452.81 -2.68425 1.42063 0
M  V30 36902 H 3450.39 -1.28845 0.756261 0
M  V30 36903 H 3452.27 -4.18153 -0.522153 0
M  V30 36904 H 3450.95 -3.08149 -0.991261 0
M  V30 36905 H 3449.86 -3.5132 1.28549 0
M  V30 36906 H 3451.19 -4.62902 1.67281 0
M  V30 36907 N 3452.84 -0.760864 -1.38017 0
M  V30 36908 C 3454.12 -0.245471 -1.94054 0
M  V30 36909 C 3454.5 1.25758 -1.69553 0
M  V30 36910 O 3453.85 2.03555 -1.03815 0
M  V30 36911 C 3454.06 -0.607046 -3.4368 0
M  V30 36912 C 3455.4 -0.570747 -4.20747 0
M  V30 36913 O 3456.43 -0.545777 -3.51994 0
M  V30 36914 O 3455.29 -0.588139 -5.43326 0
M  V30 36915 H 3452.38 -0.0535752 -0.825263 0
M  V30 36916 H 3454.93 -0.841479 -1.47368 0
M  V30 36917 H 3453.7 -1.64482 -3.55051 0
M  V30 36918 H 3453.32 0.0165877 -3.97597 0
M  V30 36919 N 3454.32 1.49102 -0.510519 0
M  V30 36920 C 3455.25 2.27233 0.299657 0
M  V30 36921 C 3456.26 1.3417 0.922079 0
M  V30 36922 O 3457.45 1.59377 0.803808 0
M  V30 36923 C 3454.55 3.06892 1.43773 0
M  V30 36924 C 3453.73 4.27597 0.920852 0
M  V30 36925 C 3452.79 4.89224 1.93768 0
M  V30 36926 O 3451.81 5.49014 1.50241 0
M  V30 36927 N 3453.01 4.79724 3.26872 0
M  V30 36928 H 3455.78 2.97403 -0.370332 0
M  V30 36929 H 3453.34 1.58211 -0.343645 0
M  V30 36930 H 3455.33 3.44992 2.11571 0
M  V30 36931 H 3453.9 2.39268 2.01171 0
M  V30 36932 H 3453.12 3.94142 0.0674666 0
M  V30 36933 H 3454.41 5.05774 0.554079 0
M  V30 36934 H 3453.81 4.32264 3.64916 0
M  V30 36935 H 3452.36 5.21981 3.90357 0
M  V30 36936 N 3455.8 0.244768 1.55688 0
M  V30 36937 C 3457.04 -0.381132 1.99186 0
M  V30 36938 C 3457.38 -1.57746 1.13269 0
M  V30 36939 O 3456.65 -1.93514 0.195602 0
M  V30 36940 C 3456.93 -0.79308 3.51258 0
M  V30 36941 C 3456.79 0.408488 4.47941 0
M  V30 36942 C 3458.11 -1.64083 4.08368 0
M  V30 36943 H 3455.23 -0.13706 0.724143 0
M  V30 36944 H 3457.87 0.345652 1.86829 0
M  V30 36945 H 3456.02 -1.41233 3.61919 0
M  V30 36946 H 3457.69 1.0469 4.49263 0
M  V30 36947 H 3455.93 1.05196 4.20852 0
M  V30 36948 H 3456.6 0.0769501 5.51946 0
M  V30 36949 H 3459.08 -1.11813 4.00796 0
M  V30 36950 H 3457.96 -1.89793 5.15043 0
M  V30 36951 H 3458.22 -2.61196 3.56692 0
M  V30 36952 N 3457.28 -1.57574 -0.0283712 0
M  V30 36953 C 3458.22 -2.06603 -1.02877 0
M  V30 36954 C 3459.19 -0.955332 -1.35877 0
M  V30 36955 O 3460.38 -1.22594 -1.46203 0
M  V30 36956 C 3457.52 -2.55077 -2.32443 0
M  V30 36957 C 3456.63 -3.7994 -2.05595 0
M  V30 36958 C 3455.77 -4.17024 -3.29036 0
M  V30 36959 C 3454.8 -5.34803 -2.97746 0
M  V30 36960 N 3453.94 -5.67315 -4.1364 0
M  V30 36961 H 3458.78 -2.91821 -0.603721 0
M  V30 36962 H 3456.32 -1.44283 -0.286478 0
M  V30 36963 H 3458.28 -2.81249 -3.08147 0
M  V30 36964 H 3456.91 -1.72776 -2.72669 0
M  V30 36965 H 3455.96 -3.60849 -1.20384 0
M  V30 36966 H 3457.27 -4.65762 -1.78514 0
M  V30 36967 H 3456.42 -4.44328 -4.13107 0
M  V30 36968 H 3455.16 -3.29855 -3.59231 0
M  V30 36969 H 3454.17 -5.07251 -2.12076 0
M  V30 36970 H 3455.39 -6.23625 -2.68828 0
M  V30 36971 H 3453.34 -4.83105 -4.43786 0
M  V30 36972 H 3453.26 -6.47648 -3.89985 0
M  V30 36973 H 3454.52 -5.99195 -4.98583 0
M  V30 36974 N 3458.75 0.300654 -1.54706 0
M  V30 36975 C 3459.69 1.39246 -1.82053 0
M  V30 36976 C 3460.7 1.46815 -0.703502 0
M  V30 36977 O 3461.89 1.49127 -0.980983 0
M  V30 36978 C 3458.99 2.77614 -1.94381 0
M  V30 36979 C 3458.16 2.92973 -3.24786 0
M  V30 36980 C 3457.22 4.11842 -3.27525 0
M  V30 36981 O 3456.25 4.03911 -4.01054 0
M  V30 36982 N 3457.45 5.22495 -2.52942 0
M  V30 36983 H 3460.21 1.16142 -2.76281 0
M  V30 36984 H 3457.77 0.490723 -1.54284 0
M  V30 36985 H 3459.77 3.55381 -1.93615 0
M  V30 36986 H 3458.34 2.93664 -1.07146 0
M  V30 36987 H 3457.56 2.02316 -3.38322 0
M  V30 36988 H 3458.84 3.00146 -4.1084 0
M  V30 36989 H 3458.24 5.31819 -1.92834 0
M  V30 36990 H 3456.8 5.98595 -2.57929 0
M  V30 36991 N 3460.23 1.47168 0.563863 0
M  V30 36992 C 3461.14 1.61775 1.699 0
M  V30 36993 C 3462.16 0.500734 1.66639 0
M  V30 36994 O 3463.33 0.767387 1.86207 0
M  V30 36995 C 3460.4 1.62219 3.06408 0
M  V30 36996 C 3459.46 2.85296 3.20788 0
M  V30 36997 C 3458.69 2.85709 4.50784 0
M  V30 36998 O 3458.92 1.95539 5.35837 0
M  V30 36999 O 3457.85 3.7749 4.68813 0
M  V30 37000 H 3461.68 2.57812 1.6052 0
M  V30 37001 H 3459.26 1.30177 0.733102 0
M  V30 37002 H 3461.14 1.65228 3.87657 0
M  V30 37003 H 3459.82 0.693471 3.16185 0
M  V30 37004 H 3458.73 2.87834 2.38961 0
M  V30 37005 H 3460.06 3.7744 3.15912 0
M  V30 37006 N 3461.71 -0.810054 1.35188 0
M  V30 37007 C 3462.96 -1.56205 1.27604 0
M  V30 37008 C 3463.27 -1.95035 -0.148586 0
M  V30 37009 O 3464.48 -2.69278 -0.346673 0
M  V30 37010 C 3462.93 -2.81882 2.23764 0
M  V30 37011 C 3462.54 -2.50304 3.71554 0
M  V30 37012 C 3464.29 -3.59894 2.25115 0
M  V30 37013 C 3462.19 -3.72252 4.59546 0
M  V30 37014 H 3461.12 -0.586308 0.474088 0
M  V30 37015 H 3463.77 -0.89073 1.60431 0
M  V30 37016 H 3462.16 -3.50707 1.83904 0
M  V30 37017 H 3463.33 -1.89508 4.20028 0
M  V30 37018 H 3461.65 -1.85544 3.72777 0
M  V30 37019 H 3464.24 -4.50464 2.88074 0
M  V30 37020 H 3464.59 -3.96966 1.25394 0
M  V30 37021 H 3465.12 -2.98027 2.63486 0
M  V30 37022 H 3461.86 -3.4029 5.60252 0
M  V30 37023 H 3461.38 -4.32285 4.158 0
M  V30 37024 H 3463.06 -4.39519 4.74797 0
M  V30 37025 N 3463.19 -1.19129 -1.0318 0
M  V30 37026 C 3464.12 -0.950028 -2.133 0
M  V30 37027 C 3465.1 0.115547 -1.69707 0
M  V30 37028 O 3466.28 -0.0388736 -1.94161 0
M  V30 37029 C 3463.41 -0.484697 -3.43901 0
M  V30 37030 C 3462.37 -1.49177 -4.01161 0
M  V30 37031 C 3461.69 -0.883629 -5.27348 0
M  V30 37032 C 3462.99 -2.87114 -4.36306 0
M  V30 37033 H 3464.69 -1.87099 -2.3374 0
M  V30 37034 H 3462.23 -0.900997 -1.1233 0
M  V30 37035 H 3464.19 -0.303224 -4.20308 0
M  V30 37036 H 3462.91 0.471852 -3.23174 0
M  V30 37037 H 3461.57 -1.66034 -3.26846 0
M  V30 37038 H 3461.22 0.0803828 -5.02936 0
M  V30 37039 H 3460.92 -1.55609 -5.66621 0
M  V30 37040 H 3462.44 -0.712886 -6.06424 0
M  V30 37041 H 3463.86 -2.73857 -5.03662 0
M  V30 37042 H 3462.25 -3.51126 -4.86652 0
M  V30 37043 H 3463.32 -3.39991 -3.45737 0
M  V30 37044 N 3464.67 1.2224 -0.994741 0
M  V30 37045 C 3465.6 2.23571 -0.504822 0
M  V30 37046 C 3466.61 1.57782 0.401078 0
M  V30 37047 O 3467.8 1.77343 0.202917 0
M  V30 37048 C 3464.9 3.37679 0.287465 0
M  V30 37049 C 3464.07 4.33055 -0.615017 0
M  V30 37050 C 3463.13 5.26049 0.125881 0
M  V30 37051 O 3462.16 5.67093 -0.489334 0
M  V30 37052 N 3463.36 5.63175 1.40762 0
M  V30 37053 H 3466.13 2.66236 -1.37617 0
M  V30 37054 H 3463.69 1.36559 -0.869674 0
M  V30 37055 H 3465.68 3.96878 0.791815 0
M  V30 37056 H 3464.25 2.94082 1.05992 0
M  V30 37057 H 3463.47 3.72147 -1.30001 0
M  V30 37058 H 3464.76 4.9372 -1.22956 0
M  V30 37059 H 3464.15 5.31804 1.92874 0
M  V30 37060 H 3462.71 6.24783 1.85712 0
M  V30 37061 N 3466.14 0.768172 1.37611 0
M  V30 37062 C 3467.11 0.158323 2.28653 0
M  V30 37063 C 3468.11 -0.63191 1.47863 0
M  V30 37064 O 3469.3 -0.456025 1.68125 0
M  V30 37065 C 3466.43 -0.783377 3.31777 0
M  V30 37066 H 3467.62 0.960822 2.84092 0
M  V30 37067 H 3465.18 0.536142 1.46817 0
M  V30 37068 H 3465.91 -1.61101 2.81455 0
M  V30 37069 H 3465.7 -0.218947 3.91488 0
M  V30 37070 H 3467.19 -1.20561 3.99818 0
M  V30 37071 N 3467.62 -1.48829 0.518419 0
M  V30 37072 C 3468.85 -2.07392 -0.0182766 0
M  V30 37073 C 3469.27 -1.37398 -1.28465 0
M  V30 37074 O 3468.63 -0.436208 -1.75974 0
M  V30 37075 C 3468.68 -3.59819 -0.237148 0
M  V30 37076 O 3467.78 -3.91098 -1.30828 0
M  V30 37077 H 3467.12 -0.66313 0.0339737 0
M  V30 37078 H 3469.65 -1.91399 0.723027 0
M  V30 37079 H 3469.66 -4.0536 -0.463353 0
M  V30 37080 H 3468.34 -4.1017 0.687997 0
M  V30 37081 H 3466.92 -3.57349 -1.06565 0
M  V30 37082 N 3469.1 -0.253021 -1.55556 0
M  V30 37083 C 3470.35 0.369285 -1.98698 0
M  V30 37084 C 3470.67 1.58019 -1.14258 0
M  V30 37085 O 3469.94 1.94583 -0.226813 0
M  V30 37086 H 3468.52 0.139431 -0.733872 0
M  V30 37087 H 3471.18 -0.353231 -1.91672 0
M  V30 37088 H 3470.28 0.674258 -3.0473 0
M  V30 37089 N 3470.58 1.57587 0.0200142 0
M  V30 37090 C 3471.49 2.10556 1.03456 0
M  V30 37091 C 3472.5 1.04622 1.39033 0
M  V30 37092 O 3473.68 1.3641 1.4817 0
M  V30 37093 C 3470.75 2.5819 2.31384 0
M  V30 37094 C 3469.81 3.78644 2.02305 0
M  V30 37095 C 3469.04 4.23996 3.24134 0
M  V30 37096 O 3469.26 3.68811 4.35126 0
M  V30 37097 O 3468.2 5.16348 3.09303 0
M  V30 37098 H 3472.02 2.97421 0.614367 0
M  V30 37099 H 3469.61 1.47499 0.237579 0
M  V30 37100 H 3471.49 2.89117 3.06577 0
M  V30 37101 H 3470.16 1.74433 2.72681 0
M  V30 37102 H 3469.07 3.52722 1.24652 0
M  V30 37103 H 3470.4 4.63413 1.65858 0
M  V30 37104 N 3472.06 -0.292445 1.54863 0
M  V30 37105 C 3472.99 -1.36553 1.89409 0
M  V30 37106 C 3473.97 -1.52482 0.753864 0
M  V30 37107 O 3475.15 -1.65849 1.01034 0
M  V30 37108 C 3472.28 -2.72834 2.14893 0
M  V30 37109 C 3471.24 -2.71659 3.30734 0
M  V30 37110 C 3470.56 -4.1131 3.41655 0
M  V30 37111 C 3471.86 -2.32643 4.67627 0
M  V30 37112 H 3473.56 -1.07889 2.79285 0
M  V30 37113 H 3471.1 -0.517561 1.34377 0
M  V30 37114 H 3473.06 -3.47998 2.37646 0
M  V30 37115 H 3471.78 -3.0304 1.21795 0
M  V30 37116 H 3470.44 -1.98952 3.07918 0
M  V30 37117 H 3470.09 -4.38707 2.46059 0
M  V30 37118 H 3469.79 -4.11423 4.19529 0
M  V30 37119 H 3471.31 -4.88241 3.66678 0
M  V30 37120 H 3472.72 -2.97524 4.90053 0
M  V30 37121 H 3471.12 -2.43953 5.48276 0
M  V30 37122 H 3472.19 -1.27769 4.67764 0
M  V30 37123 N 3473.53 -1.47465 -0.55605 0
M  V30 37124 C 3474.76 -1.58014 -1.34337 0
M  V30 37125 C 3475.18 -0.231171 -1.86674 0
M  V30 37126 O 3474.54 0.793145 -1.6303 0
M  V30 37127 C 3474.59 -2.60981 -2.4884 0
M  V30 37128 O 3473.69 -2.16332 -3.51104 0
M  V30 37129 H 3473.04 -0.530767 -0.398977 0
M  V30 37130 H 3475.57 -1.93254 -0.671864 0
M  V30 37131 H 3475.58 -2.81437 -2.95393 0
M  V30 37132 H 3474.25 -3.58928 -2.10103 0
M  V30 37133 H 3472.83 -2.0598 -3.10848 0
M  V30 37134 N 3475.01 0.802873 -1.35616 0
M  V30 37135 C 3475.96 1.9043 -1.25381 0
M  V30 37136 C 3476.95 1.60216 -0.148245 0
M  V30 37137 O 3478.14 1.72877 -0.379813 0
M  V30 37138 C 3475.27 3.27428 -1.03178 0
M  V30 37139 C 3474.35 3.63696 -2.18142 0
M  V30 37140 N 3474.75 3.71373 -3.43388 0
M  V30 37141 C 3473.04 3.93675 -2.0961 0
M  V30 37142 C 3473.74 4.03491 -4.19011 0
M  V30 37143 N 3472.72 4.1777 -3.47807 0
M  V30 37144 H 3476.52 1.94572 -2.2027 0
M  V30 37145 H 3474.04 0.997664 -1.28142 0
M  V30 37146 H 3476.03 4.0618 -0.939335 0
M  V30 37147 H 3474.69 3.2457 -0.0917661 0
M  V30 37148 H 3475.7 3.54356 -3.77693 0
M  V30 37149 H 3472.38 3.9882 -1.23486 0
M  V30 37150 H 3473.77 4.16466 -5.27262 0
M  V30 37151 N 3476.49 1.19674 1.02547 0
M  V30 37152 C 3477.74 1.00296 1.76263 0
M  V30 37153 C 3478.07 -0.464783 1.88556 0
M  V30 37154 O 3477.35 -1.34513 1.40487 0
M  V30 37155 C 3477.63 1.67666 3.18685 0
M  V30 37156 C 3477.48 3.21826 3.14242 0
M  V30 37157 C 3478.8 1.40245 4.17156 0
M  V30 37158 H 3475.92 0.365767 0.639831 0
M  V30 37159 H 3478.56 1.47563 1.19688 0
M  V30 37160 H 3476.71 1.27478 3.6699 0
M  V30 37161 H 3478.38 3.7125 2.73809 0
M  V30 37162 H 3476.63 3.53193 2.51867 0
M  V30 37163 H 3477.3 3.64114 4.1488 0
M  V30 37164 H 3479.77 1.75093 3.77467 0
M  V30 37165 H 3478.65 1.89928 5.14994 0
M  V30 37166 H 3478.91 0.328275 4.4088 0
M  V30 37167 N 3477.97 -1.21711 1.00121 0
M  V30 37168 C 3478.92 -2.21766 0.529503 0
M  V30 37169 C 3479.9 -1.55672 -0.406831 0
M  V30 37170 O 3481.1 -1.75469 -0.232298 0
M  V30 37171 C 3478.22 -3.42988 -0.146276 0
M  V30 37172 C 3477.31 -4.16276 0.810853 0
M  V30 37173 N 3477.7 -4.66191 1.96212 0
M  V30 37174 C 3476 -4.4155 0.628449 0
M  V30 37175 C 3476.7 -5.22166 2.56355 0
M  V30 37176 N 3475.68 -5.11315 1.84549 0
M  V30 37177 H 3479.48 -2.58009 1.40743 0
M  V30 37178 H 3476.99 -1.37475 0.864542 0
M  V30 37179 H 3478.99 -4.13871 -0.501654 0
M  V30 37180 H 3477.65 -3.08255 -1.02023 0
M  V30 37181 H 3478.66 -4.61889 2.34263 0
M  V30 37182 H 3475.34 -4.17027 -0.198746 0
M  V30 37183 H 3476.73 -5.71268 3.53698 0
M  V30 37184 N 3479.45 -0.775459 -1.37202 0
M  V30 37185 C 3480.7 -0.338128 -1.98846 0
M  V30 37186 C 3481.01 1.09241 -1.62252 0
M  V30 37187 O 3482.22 1.63131 -2.17026 0
M  V30 37188 C 3480.67 -0.553603 -3.55617 0
M  V30 37189 C 3480.28 -1.99464 -4.01146 0
M  V30 37190 C 3482.02 -0.180081 -4.24118 0
M  V30 37191 C 3479.93 -2.15752 -5.50641 0
M  V30 37192 H 3478.86 -0.122682 -0.743952 0
M  V30 37193 H 3481.51 -0.955115 -1.56684 0
M  V30 37194 H 3479.89 0.132894 -3.95777 0
M  V30 37195 H 3481.07 -2.7164 -3.72221 0
M  V30 37196 H 3479.38 -2.3251 -3.45439 0
M  V30 37197 H 3481.98 -0.280239 -5.33965 0
M  V30 37198 H 3482.32 0.870121 -4.07105 0
M  V30 37199 H 3482.86 -0.81927 -3.89272 0
M  V30 37200 H 3479.59 -3.19104 -5.72584 0
M  V30 37201 H 3479.11 -1.48064 -5.81237 0
M  V30 37202 H 3480.79 -1.95792 -6.16664 0
M  V30 37203 N 3480.93 1.48552 -0.526305 0
M  V30 37204 C 3481.86 2.27538 0.275539 0
M  V30 37205 C 3482.87 1.3514 0.907796 0
M  V30 37206 O 3484.06 1.60221 0.786859 0
M  V30 37207 C 3481.16 3.08399 1.4051 0
M  V30 37208 C 3480.33 4.28549 0.875448 0
M  V30 37209 C 3479.39 4.91252 1.88568 0
M  V30 37210 O 3478.42 5.50577 1.44409 0
M  V30 37211 N 3479.62 4.83164 3.21765 0
M  V30 37212 H 3482.38 2.96994 -0.401855 0
M  V30 37213 H 3479.95 1.57838 -0.360406 0
M  V30 37214 H 3481.94 3.47217 2.079 0
M  V30 37215 H 3480.51 2.41388 1.98622 0
M  V30 37216 H 3479.73 3.94192 0.0256587 0
M  V30 37217 H 3481.02 5.06333 0.500404 0
M  V30 37218 H 3480.41 4.3611 3.60311 0
M  V30 37219 H 3478.97 5.26092 3.84799 0
M  V30 37220 N 3482.4 0.261267 1.55419 0
M  V30 37221 C 3483.63 -0.366109 2.04143 0
M  V30 37222 C 3484.05 -1.49704 1.13887 0
M  V30 37223 O 3483.41 -1.80799 0.134661 0
M  V30 37224 C 3483.46 -0.837713 3.50735 0
M  V30 37225 O 3482.56 -1.94615 3.63592 0
M  V30 37226 H 3481.9 -0.0778095 0.659425 0
M  V30 37227 H 3484.43 0.391522 2.00819 0
M  V30 37228 H 3484.44 -1.13715 3.91833 0
M  V30 37229 H 3483.12 -0.0102011 4.15899 0
M  V30 37230 H 3481.7 -1.65031 3.34394 0
M  V30 37231 N 3483.88 -1.57596 -0.0116567 0
M  V30 37232 C 3484.81 -2.03104 -1.04039 0
M  V30 37233 C 3485.79 -0.918645 -1.34163 0
M  V30 37234 O 3486.98 -1.18586 -1.46525 0
M  V30 37235 C 3484.1 -2.4188 -2.3709 0
M  V30 37236 C 3483.15 -3.63736 -2.22707 0
M  V30 37237 S 3483.98 -5.1215 -1.56407 0
M  V30 37238 C 3485.14 -5.54185 -2.90912 0
M  V30 37239 H 3485.37 -2.90043 -0.652848 0
M  V30 37240 H 3482.9 -1.52793 -0.222174 0
M  V30 37241 H 3484.86 -2.64891 -3.13597 0
M  V30 37242 H 3483.52 -1.55361 -2.72987 0
M  V30 37243 H 3482.72 -3.88581 -3.20969 0
M  V30 37244 H 3482.32 -3.40667 -1.54343 0
M  V30 37245 H 3484.61 -5.55933 -3.87227 0
M  V30 37246 H 3485.55 -6.54281 -2.7078 0
M  V30 37247 H 3485.96 -4.81723 -2.94285 0
M  V30 37248 N 3485.36 0.284228 -1.55016 0
M  V30 37249 C 3486.29 1.35546 -1.9013 0
M  V30 37250 C 3487.27 1.52081 -0.76194 0
M  V30 37251 O 3488.46 1.6531 -1.01912 0
M  V30 37252 C 3485.59 2.71691 -2.16336 0
M  V30 37253 C 3484.54 2.69901 -3.3217 0
M  V30 37254 C 3483.87 4.09492 -3.43831 0
M  V30 37255 C 3485.17 2.3016 -4.68854 0
M  V30 37256 H 3486.86 1.06406 -2.79854 0
M  V30 37257 H 3484.41 0.510427 -1.3465 0
M  V30 37258 H 3486.36 3.46733 -2.39488 0
M  V30 37259 H 3485.08 3.0239 -1.23401 0
M  V30 37260 H 3483.74 1.97317 -3.08969 0
M  V30 37261 H 3483.39 4.37396 -2.48382 0
M  V30 37262 H 3483.09 4.09193 -4.21705 0
M  V30 37263 H 3484.61 4.8629 -3.69262 0
M  V30 37264 H 3486.03 2.94921 -4.91624 0
M  V30 37265 H 3484.42 2.41042 -5.49562 0
M  V30 37266 H 3485.49 1.25286 -4.68435 0
M  V30 37267 N 3486.84 1.47758 0.548222 0
M  V30 37268 C 3488.25 1.33475 0.875025 0
M  V30 37269 C 3488.45 0.331987 1.98746 0
M  V30 37270 O 3487.51 -0.253304 2.51226 0
M  V30 37271 C 3488.82 2.73039 1.25977 0
M  V30 37272 C 3490.37 2.81391 1.37069 0
M  V30 37273 C 3490.85 4.21617 1.78895 0
M  V30 37274 N 3492.34 4.24202 1.8603 0
M  V30 37275 C 3493.07 5.29624 2.1974 0
M  V30 37276 N 3492.57 6.45343 2.52002 0
M  V30 37277 N 3494.36 5.17007 2.20591 0
M  V30 37278 H 3486.51 2.11583 -0.18607 0
M  V30 37279 H 3488.77 0.947776 -0.0205853 0
M  V30 37280 H 3488.48 3.47892 0.516126 0
M  V30 37281 H 3488.35 3.0539 2.21397 0
M  V30 37282 H 3490.74 2.06805 2.10513 0
M  V30 37283 H 3490.82 2.52682 0.398149 0
M  V30 37284 H 3490.47 4.96712 1.06018 0
M  V30 37285 H 3490.4 4.47756 2.77168 0
M  V30 37286 H 3492.89 3.40724 1.63449 0
M  V30 37287 H 3493.2 7.21536 2.76777 0
M  V30 37288 H 3491.55 6.48648 2.49562 0
M  V30 37289 H 3494.74 4.25627 1.94832 0
M  V30 37290 H 3494.91 5.99271 2.46532 0
M  V30 37291 N 3488.32 -0.79567 1.3604 0
M  V30 37292 C 3489.73 -1.09282 1.16317 0
M  V30 37293 C 3489.93 -2.01493 -0.0169886 0
M  V30 37294 O 3488.99 -2.43051 -0.684274 0
M  V30 37295 C 3490.3 -1.7133 2.47116 0
M  V30 37296 C 3491.85 -1.837 2.53423 0
M  V30 37297 C 3492.32 -2.49164 3.84293 0
M  V30 37298 N 3493.81 -2.56638 3.85605 0
M  V30 37299 C 3494.55 -3.08085 4.83602 0
M  V30 37300 N 3494.05 -3.59887 5.91991 0
M  V30 37301 N 3495.84 -3.06739 4.71028 0
M  V30 37302 H 3487.99 -0.18292 2.11611 0
M  V30 37303 H 3490.25 -0.143755 0.937037 0
M  V30 37304 H 3489.96 -1.11043 3.3371 0
M  V30 37305 H 3489.83 -2.70909 2.62465 0
M  V30 37306 H 3492.22 -2.43128 1.67251 0
M  V30 37307 H 3492.3 -0.829453 2.41979 0
M  V30 37308 H 3491.94 -1.90383 4.70868 0
M  V30 37309 H 3491.87 -3.50477 3.93031 0
M  V30 37310 H 3494.37 -2.19951 3.07295 0
M  V30 37311 H 3494.68 -3.97475 6.62747 0
M  V30 37312 H 3493.02 -3.58056 5.95668 0
M  V30 37313 H 3496.21 -2.65555 3.85485 0
M  V30 37314 H 3496.39 -3.46527 5.47561 0
M  V30 37315 N 3489.79 -1.20217 -1.0191 0
M  V30 37316 C 3491.04 -1.02233 -1.75841 0
M  V30 37317 C 3491.4 0.441204 -1.87273 0
M  V30 37318 O 3490.69 1.32327 -1.38565 0
M  V30 37319 C 3490.88 -1.63651 -3.17731 0
M  V30 37320 C 3490.71 -3.15825 -3.20132 0
M  V30 37321 C 3489.48 -3.84786 -3.27517 0
M  V30 37322 C 3491.68 -4.13079 -3.06383 0
M  V30 37323 N 3489.66 -5.2427 -3.19396 0
M  V30 37324 C 3491.03 -5.39223 -3.06003 0
M  V30 37325 C 3493.09 -4.04311 -2.90581 0
M  V30 37326 C 3491.79 -6.57612 -2.91443 0
M  V30 37327 C 3493.82 -5.2232 -2.77373 0
M  V30 37328 C 3493.18 -6.47368 -2.77658 0
M  V30 37329 H 3489.28 -0.42831 -0.654274 0
M  V30 37330 H 3491.86 -1.52347 -1.21237 0
M  V30 37331 H 3490.03 -1.16124 -3.70634 0
M  V30 37332 H 3491.76 -1.39008 -3.80077 0
M  V30 37333 H 3488.52 -3.35631 -3.34139 0
M  V30 37334 H 3488.94 -5.97285 -3.18716 0
M  V30 37335 H 3493.59 -3.08443 -2.89176 0
M  V30 37336 H 3491.3 -7.53656 -2.91597 0
M  V30 37337 H 3494.89 -5.17345 -2.66168 0
M  V30 37338 H 3493.77 -7.37147 -2.67553 0
M  V30 37339 N 3491.27 1.21178 -1.00765 0
M  V30 37340 C 3492.52 1.90314 -0.691859 0
M  V30 37341 C 3492.85 1.78278 0.777646 0
M  V30 37342 O 3492.1 1.15529 1.5796 0
M  V30 37343 C 3492.4 3.41259 -1.06193 0
M  V30 37344 C 3492.07 3.73493 -2.52614 0
M  V30 37345 C 3490.73 3.82001 -2.92624 0
M  V30 37346 C 3493.08 3.88496 -3.47449 0
M  V30 37347 C 3490.41 4.02962 -4.26426 0
M  V30 37348 C 3492.76 4.10964 -4.80927 0
M  V30 37349 C 3491.43 4.177 -5.20657 0
M  V30 37350 H 3490.7 0.69641 -0.253169 0
M  V30 37351 H 3493.34 1.43632 -1.26658 0
M  V30 37352 H 3491.65 3.89696 -0.405497 0
M  V30 37353 H 3493.34 3.93032 -0.795412 0
M  V30 37354 H 3489.93 3.67464 -2.20609 0
M  V30 37355 H 3494.12 3.81286 -3.17702 0
M  V30 37356 H 3489.37 4.06408 -4.56774 0
M  V30 37357 H 3493.55 4.21515 -5.54344 0
M  V30 37358 H 3491.18 4.33694 -6.2435 0
M  V30 37359 N 3492.75 0.782725 1.36789 0
M  V30 37360 C 3494 0.352568 1.99712 0
M  V30 37361 C 3494.33 -1.07118 1.61986 0
M  V30 37362 O 3493.6 -1.73889 0.871372 0
M  V30 37363 C 3493.89 0.508691 3.56489 0
M  V30 37364 C 3493.74 1.97564 4.0409 0
M  V30 37365 C 3495.06 -0.0803673 4.40027 0
M  V30 37366 H 3492.18 0.129579 0.725519 0
M  V30 37367 H 3494.82 0.987816 1.62303 0
M  V30 37368 H 3492.97 -0.0320981 3.88487 0
M  V30 37369 H 3494.64 2.57698 3.82609 0
M  V30 37370 H 3492.89 2.48061 3.55877 0
M  V30 37371 H 3493.56 2.03588 5.13085 0
M  V30 37372 H 3496.03 0.381186 4.1435 0
M  V30 37373 H 3494.91 0.0589389 5.48868 0
M  V30 37374 H 3495.17 -1.17181 4.26287 0
M  V30 37375 N 3494.23 -1.48271 0.534176 0
M  V30 37376 C 3495.14 -2.3347 -0.230021 0
M  V30 37377 C 3496.15 -1.46753 -0.934863 0
M  V30 37378 O 3497.33 -1.79725 -0.90889 0
M  V30 37379 C 3494.4 -3.22961 -1.26085 0
M  V30 37380 C 3493.46 -4.25554 -0.565908 0
M  V30 37381 C 3492.69 -5.10768 -1.54762 0
M  V30 37382 O 3492.91 -4.98034 -2.78061 0
M  V30 37383 O 3491.85 -5.92045 -1.08472 0
M  V30 37384 H 3495.67 -3.00069 0.468235 0
M  V30 37385 H 3493.26 -1.46458 0.295046 0
M  V30 37386 H 3495.14 -3.78304 -1.85646 0
M  V30 37387 H 3493.81 -2.59017 -1.94144 0
M  V30 37388 H 3492.72 -3.74034 0.0703048 0
M  V30 37389 H 3494.05 -4.92146 0.0728142 0
M  V30 37390 N 3495.71 -0.269505 -1.55279 0
M  V30 37391 C 3496.93 0.352382 -2.03877 0
M  V30 37392 C 3497.35 1.49883 -1.14807 0
M  V30 37393 O 3496.71 1.81734 -0.167021 0
M  V30 37394 C 3496.76 0.838737 -3.51635 0
M  V30 37395 O 3496.48 -0.262048 -4.37316 0
M  V30 37396 C 3497.98 1.52901 -4.16096 0
M  V30 37397 H 3495.2 0.0810926 -0.666082 0
M  V30 37398 H 3497.74 -0.399964 -2.00551 0
M  V30 37399 H 3495.9 1.54119 -3.55424 0
M  V30 37400 H 3496.31 0.110921 -5.24383 0
M  V30 37401 H 3497.79 1.8208 -5.21106 0
M  V30 37402 H 3498.26 2.45866 -3.63932 0
M  V30 37403 H 3498.87 0.870557 -4.16295 0
M  V30 37404 N 3497.18 1.576 0.00329885 0
M  V30 37405 C 3498.09 2.11642 1.01217 0
M  V30 37406 C 3499.11 1.06091 1.37916 0
M  V30 37407 O 3500.29 1.37974 1.46715 0
M  V30 37408 C 3497.35 2.6063 2.28633 0
M  V30 37409 C 3496.41 3.80768 1.98277 0
M  V30 37410 C 3495.65 4.2741 3.19619 0
M  V30 37411 O 3495.87 3.73405 4.3119 0
M  V30 37412 O 3494.8 5.19599 3.03809 0
M  V30 37413 H 3498.63 2.98056 0.582787 0
M  V30 37414 H 3496.21 1.47743 0.221921 0
M  V30 37415 H 3498.1 2.92352 3.03493 0
M  V30 37416 H 3496.77 1.77315 2.70816 0
M  V30 37417 H 3495.68 3.54024 1.20904 0
M  V30 37418 H 3497.01 4.65146 1.60934 0
M  V30 37419 N 3498.66 -0.276003 1.55164 0
M  V30 37420 C 3499.91 -1.00601 1.75282 0
M  V30 37421 C 3500.23 -1.86927 0.555288 0
M  V30 37422 O 3499.5 -1.91125 -0.429883 0
M  V30 37423 H 3498.08 -0.37443 0.646383 0
M  V30 37424 H 3500.74 -0.300958 1.92562 0
M  V30 37425 H 3499.84 -1.64469 2.65248 0
M  V30 37426 N 3500.14 -1.48046 -0.540378 0
M  V30 37427 C 3501.1 -1.61325 -1.6281 0
M  V30 37428 C 3502.1 -0.487188 -1.53242 0
M  V30 37429 O 3503.29 -0.752711 -1.57098 0
M  V30 37430 C 3500.43 -1.57365 -3.02406 0
M  V30 37431 H 3501.62 -2.58303 -1.5238 0
M  V30 37432 H 3499.17 -1.36488 -0.76163 0
M  V30 37433 H 3499.91 -0.618251 -3.18352 0
M  V30 37434 H 3499.69 -2.39105 -3.10759 0
M  V30 37435 H 3501.18 -1.69829 -3.81507 0
M  V30 37436 N 3501.62 0.788444 -1.3646 0
M  V30 37437 C 3502.86 1.54865 -1.30938 0
M  V30 37438 C 3503.2 1.93883 0.110882 0
M  V30 37439 O 3502.47 1.62785 1.06449 0
M  V30 37440 C 3502.76 2.82506 -2.23299 0
M  V30 37441 C 3502.61 2.49849 -3.74026 0
M  V30 37442 C 3503.93 3.84337 -2.14413 0
M  V30 37443 H 3501.05 0.561846 -0.476968 0
M  V30 37444 H 3503.69 0.905776 -1.6702 0
M  V30 37445 H 3501.84 3.37365 -1.92658 0
M  V30 37446 H 3503.51 2.01033 -4.15191 0
M  V30 37447 H 3501.75 1.82778 -3.93414 0
M  V30 37448 H 3502.42 3.41018 -4.34063 0
M  V30 37449 H 3504.9 3.38927 -2.41387 0
M  V30 37450 H 3503.78 4.71396 -2.81207 0
M  V30 37451 H 3504.04 4.27369 -1.13173 0
M  V30 37452 N 3503.1 1.20755 1.01271 0
M  V30 37453 C 3504.04 0.959889 2.09892 0
M  V30 37454 C 3505.01 -0.111322 1.65727 0
M  V30 37455 O 3506.2 0.0342057 1.90769 0
M  V30 37456 C 3503.34 0.52229 3.41125 0
M  V30 37457 C 3502.45 1.66209 3.98746 0
M  V30 37458 C 3501.59 1.17441 5.18055 0
M  V30 37459 C 3500.63 2.28704 5.67768 0
M  V30 37460 N 3499.76 1.81126 6.78335 0
M  V30 37461 H 3504.6 1.88981 2.30413 0
M  V30 37462 H 3502.14 0.941926 1.12987 0
M  V30 37463 H 3504.1 0.249872 4.16451 0
M  V30 37464 H 3502.73 -0.370632 3.20665 0
M  V30 37465 H 3501.78 2.04933 3.20479 0
M  V30 37466 H 3503.09 2.49974 4.31641 0
M  V30 37467 H 3502.25 0.858192 6.006 0
M  V30 37468 H 3500.98 0.3067 4.86735 0
M  V30 37469 H 3499.99 2.61138 4.83825 0
M  V30 37470 H 3501.21 3.15958 6.01122 0
M  V30 37471 H 3499.16 0.966875 6.48836 0
M  V30 37472 H 3499.08 2.5847 7.10443 0
M  V30 37473 H 3500.35 1.52515 7.64434 0
M  V30 37474 N 3504.58 -1.20642 1.01406 0
M  V30 37475 C 3505.54 -2.21556 0.58698 0
M  V30 37476 C 3506.54 -1.57132 -0.341515 0
M  V30 37477 O 3507.73 -1.7371 -0.130554 0
M  V30 37478 C 3504.86 -3.40599 -0.143188 0
M  V30 37479 H 3506.05 -2.60855 1.47968 0
M  V30 37480 H 3503.61 -1.34061 0.803574 0
M  V30 37481 H 3504.34 -3.068 -1.05092 0
M  V30 37482 H 3504.13 -3.88586 0.523784 0
M  V30 37483 H 3505.62 -4.15386 -0.429431 0
M  V30 37484 N 3506.05 -0.789968 -1.36372 0
M  V30 37485 C 3507.28 -0.374023 -2.03186 0
M  V30 37486 C 3507.69 1.01454 -1.59699 0
M  V30 37487 O 3507.03 1.66216 -0.782181 0
M  V30 37488 C 3507.1 -0.359048 -3.57703 0
M  V30 37489 C 3506.76 -1.69528 -4.24393 0
M  V30 37490 C 3507.76 -2.65085 -4.47243 0
M  V30 37491 C 3505.44 -1.97473 -4.61855 0
M  V30 37492 C 3507.44 -3.86781 -5.06635 0
M  V30 37493 C 3505.12 -3.19436 -5.20965 0
M  V30 37494 C 3506.12 -4.13908 -5.43295 0
M  V30 37495 O 3505.81 -5.33721 -6.01163 0
M  V30 37496 H 3505.54 -0.152165 -0.658652 0
M  V30 37497 H 3508.1 -1.07017 -1.75319 0
M  V30 37498 H 3506.33 0.393592 -3.84692 0
M  V30 37499 H 3508.01 0.0323048 -4.05887 0
M  V30 37500 H 3508.78 -2.44782 -4.18696 0
M  V30 37501 H 3504.66 -1.24758 -4.43798 0
M  V30 37502 H 3508.2 -4.60533 -5.2398 0
M  V30 37503 H 3504.1 -3.39616 -5.48937 0
M  V30 37504 H 3504.87 -5.34792 -6.19629 0
M  V30 37505 N 3507.53 1.47986 -0.542031 0
M  V30 37506 C 3508.46 2.32619 0.202662 0
M  V30 37507 C 3509.44 1.42848 0.923496 0
M  V30 37508 O 3510.63 1.71722 0.906927 0
M  V30 37509 C 3507.76 3.24309 1.24261 0
M  V30 37510 C 3506.71 4.232 0.639183 0
M  V30 37511 C 3506.04 5.04108 1.78266 0
M  V30 37512 C 3507.34 5.20788 -0.397073 0
M  V30 37513 H 3509.03 2.9513 -0.503868 0
M  V30 37514 H 3506.58 1.41922 -0.243761 0
M  V30 37515 H 3508.53 3.8235 1.77163 0
M  V30 37516 H 3507.25 2.59822 1.97888 0
M  V30 37517 H 3505.91 3.66364 0.131591 0
M  V30 37518 H 3505.56 4.36037 2.50761 0
M  V30 37519 H 3505.26 5.7105 1.38477 0
M  V30 37520 H 3506.79 5.65004 2.31523 0
M  V30 37521 H 3508.2 5.73282 0.045305 0
M  V30 37522 H 3506.6 5.95849 -0.713015 0
M  V30 37523 H 3507.67 4.6719 -1.29851 0
M  V30 37524 N 3509.01 0.277736 1.55133 0
M  V30 37525 C 3510.26 -0.331774 2.00676 0
M  V30 37526 C 3510.61 -1.53289 1.16277 0
M  V30 37527 O 3509.9 -1.90269 0.225469 0
M  V30 37528 C 3510.1 -0.761967 3.49183 0
M  V30 37529 C 3509.93 0.395914 4.47954 0
M  V30 37530 C 3508.7 0.880533 4.97569 0
M  V30 37531 C 3510.89 1.23326 4.99295 0
M  V30 37532 N 3508.88 2.00761 5.80145 0
M  V30 37533 C 3510.25 2.20818 5.79344 0
M  V30 37534 C 3512.3 1.2663 4.81528 0
M  V30 37535 C 3511.01 3.21363 6.4352 0
M  V30 37536 C 3513.03 2.26021 5.46506 0
M  V30 37537 C 3512.39 3.22246 6.26368 0
M  V30 37538 H 3508.49 -0.0865044 0.777201 0
M  V30 37539 H 3511.08 0.402355 1.90497 0
M  V30 37540 H 3509.25 -1.46532 3.59699 0
M  V30 37541 H 3510.98 -1.34904 3.81554 0
M  V30 37542 H 3507.73 0.459397 4.71367 0
M  V30 37543 H 3508.16 2.57484 6.26124 0
M  V30 37544 H 3512.8 0.536159 4.19387 0
M  V30 37545 H 3510.52 3.95309 7.04809 0
M  V30 37546 H 3514.1 2.29322 5.34699 0
M  V30 37547 H 3512.98 3.97896 6.75758 0
M  V30 37548 N 3510.49 -1.57599 0.00505908 0
M  V30 37549 C 3511.76 -1.82022 -0.716047 0
M  V30 37550 C 3512.14 -0.883862 -1.91706 0
M  V30 37551 O 3511.49 0.0662411 -2.28404 0
M  V30 37552 C 3511.7 -3.30642 -1.117 0
M  V30 37553 C 3513.05 -3.96509 -1.51874 0
M  V30 37554 O 3514.07 -3.34995 -1.21065 0
M  V30 37555 O 3512.93 -5.04881 -2.09182 0
M  V30 37556 H 3510.03 -0.749706 -0.349099 0
M  V30 37557 H 3512.57 -1.69672 0.0309008 0
M  V30 37558 H 3511.35 -3.90428 -0.261155 0
M  V30 37559 H 3510.97 -3.4801 -1.92289 0
M  V30 37560 N 3511.97 0.267771 -1.55309 0
M  V30 37561 C 3512.91 1.35098 -1.89344 0
M  V30 37562 C 3513.91 1.50873 -0.770303 0
M  V30 37563 O 3515.11 1.52595 -0.954705 0
M  V30 37564 H 3511.49 0.451941 -0.601043 0
M  V30 37565 H 3513.46 1.03646 -2.79821 0
M  V30 37566 C 3512.21 2.70348 -2.18648 0
M  V30 37567 H 3511.53 2.59003 -3.04561 0
M  V30 37568 H 3512.97 3.45069 -2.46381 0
M  V30 37569 C 3511.43 3.21847 -0.995809 0
M  V30 37570 O 3511.96 4.01023 -0.233107 0
M  V30 37571 N 3510.17 2.79597 -0.792087 0
M  V30 37572 H 3509.71 2.15323 -1.414 0
M  V30 37573 H 3509.67 3.144 0.00294675 0
M  V30 37574 N 3513.44 1.48331 0.532519 0
M  V30 37575 C 3514.39 1.63106 1.65829 0
M  V30 37576 C 3515.39 0.497566 1.61928 0
M  V30 37577 O 3516.59 0.676205 1.66816 0
M  V30 37578 H 3512.97 0.513757 0.549143 0
M  V30 37579 H 3514.94 2.57661 1.5051 0
M  V30 37580 C 3513.69 1.6856 3.0411 0
M  V30 37581 H 3513.01 2.5514 3.07804 0
M  V30 37582 H 3514.45 1.82942 3.82502 0
M  V30 37583 C 3512.91 0.42377 3.34224 0
M  V30 37584 O 3513.44 -0.464453 3.99006 0
M  V30 37585 N 3511.64 0.296242 2.89086 0
M  V30 37586 H 3511.19 1.02001 2.36545 0
M  V30 37587 H 3511.15 -0.547027 3.09605 0
M  V30 37588 N 3514.92 -0.781196 1.36876 0
M  V30 37589 C 3515.85 -1.90302 1.27742 0
M  V30 37590 C 3516.87 -1.61626 0.195175 0
M  V30 37591 O 3518.06 -1.7272 0.450561 0
M  V30 37592 C 3515.16 -3.25308 0.95016 0
M  V30 37593 C 3514.33 -3.81701 2.13596 0
M  V30 37594 C 3513.39 -4.95163 1.78046 0
M  V30 37595 O 3512.41 -5.11246 2.50232 0
M  V30 37596 N 3513.62 -5.7603 0.718987 0
M  V30 37597 H 3516.38 -1.98657 2.24401 0
M  V30 37598 H 3513.94 -0.95986 1.30378 0
M  V30 37599 H 3515.93 -3.98716 0.693356 0
M  V30 37600 H 3514.5 -3.12516 0.0724398 0
M  V30 37601 H 3513.72 -3.00182 2.55508 0
M  V30 37602 H 3515.01 -4.16109 2.92798 0
M  V30 37603 H 3514.41 -5.65573 0.11978 0
M  V30 37604 H 3512.97 -6.49706 0.522024 0
M  V30 37605 N 3516.4 -1.21291 -1.0063 0
M  V30 37606 C 3517.65 -1.03087 -1.74645 0
M  V30 37607 C 3517.98 0.434727 -1.89272 0
M  V30 37608 O 3517.25 1.32261 -1.42609 0
M  V30 37609 C 3517.54 -1.72714 -3.15977 0
M  V30 37610 C 3517.39 -3.26785 -3.09082 0
M  V30 37611 C 3518.71 -1.46864 -4.14872 0
M  V30 37612 H 3515.83 -0.3759 -0.633931 0
M  V30 37613 H 3518.47 -1.49448 -1.17326 0
M  V30 37614 H 3516.62 -1.333 -3.64915 0
M  V30 37615 H 3518.29 -3.75559 -2.67868 0
M  V30 37616 H 3516.53 -3.57155 -2.46217 0
M  V30 37617 H 3517.21 -3.70668 -4.09034 0
M  V30 37618 H 3519.68 -1.81076 -3.74634 0
M  V30 37619 H 3518.56 -1.98097 -5.11907 0
M  V30 37620 H 3518.82 -0.398373 -4.40301 0
M  V30 37621 N 3517.88 1.20103 -1.02045 0
M  V30 37622 C 3519.12 1.89851 -0.713061 0
M  V30 37623 C 3519.46 1.78892 0.755735 0
M  V30 37624 O 3518.73 1.17567 1.54946 0
M  V30 37625 C 3519.01 3.41101 -1.15423 0
M  V30 37626 C 3518.87 3.60974 -2.68362 0
M  V30 37627 C 3520.19 4.34029 -0.728466 0
M  V30 37628 H 3517.31 0.689421 -0.260514 0
M  V30 37629 H 3519.95 1.4142 -1.26887 0
M  V30 37630 H 3518.1 3.82479 -0.681337 0
M  V30 37631 H 3519.77 3.28823 -3.23532 0
M  V30 37632 H 3518.01 3.04313 -3.09154 0
M  V30 37633 H 3518.68 4.67013 -2.94284 0
M  V30 37634 H 3521.16 4.00319 -1.13506 0
M  V30 37635 H 3520.04 5.38466 -1.06514 0
M  V30 37636 H 3520.3 4.40552 0.369658 0
M  V30 37637 N 3519.36 0.797189 1.35951 0
M  V30 37638 C 3520.6 0.37373 1.99327 0
M  V30 37639 C 3520.94 -1.05394 1.63113 0
M  V30 37640 O 3520.21 -1.72955 0.889767 0
M  V30 37641 C 3520.49 0.546473 3.55929 0
M  V30 37642 C 3520.35 2.01839 4.01971 0
M  V30 37643 C 3521.67 -0.0336921 4.40087 0
M  V30 37644 H 3518.78 0.137267 0.724104 0
M  V30 37645 H 3521.43 1.00498 1.61246 0
M  V30 37646 H 3519.58 0.00910788 3.88499 0
M  V30 37647 H 3521.25 2.61741 3.79854 0
M  V30 37648 H 3519.49 2.51822 3.53226 0
M  V30 37649 H 3520.16 2.09018 5.10897 0
M  V30 37650 H 3522.64 0.425112 4.13923 0
M  V30 37651 H 3521.51 0.11715 5.48775 0
M  V30 37652 H 3521.78 -1.12653 4.27506 0
M  V30 37653 N 3520.83 -1.47696 0.549872 0
M  V30 37654 C 3521.77 -2.27947 -0.239305 0
M  V30 37655 C 3522.78 -1.36567 -0.886182 0
M  V30 37656 O 3523.97 -1.61453 -0.76127 0
M  V30 37657 C 3521.07 -3.10596 -1.35586 0
M  V30 37658 C 3520.24 -4.29888 -0.807159 0
M  V30 37659 C 3519.3 -4.9419 -1.80729 0
M  V30 37660 O 3518.33 -5.52804 -1.35632 0
M  V30 37661 N 3519.53 -4.88222 -3.14038 0
M  V30 37662 H 3522.29 -2.96317 0.449053 0
M  V30 37663 H 3519.85 -1.57244 0.385471 0
M  V30 37664 H 3521.85 -3.5048 -2.0235 0
M  V30 37665 H 3520.42 -2.44517 -1.94756 0
M  V30 37666 H 3519.64 -3.94183 0.037057 0
M  V30 37667 H 3520.92 -5.07065 -0.419788 0
M  V30 37668 H 3520.32 -4.41788 -3.53327 0
M  V30 37669 H 3518.88 -5.32147 -3.76381 0
M  V30 37670 N 3522.31 -0.285959 -1.54984 0
M  V30 37671 C 3523.56 0.321127 -2.00849 0
M  V30 37672 C 3523.91 1.5267 -1.17088 0
M  V30 37673 O 3523.21 1.90147 -0.235556 0
M  V30 37674 C 3523.4 0.743438 -3.49582 0
M  V30 37675 C 3523.23 -0.419665 -4.47738 0
M  V30 37676 C 3522 -0.906908 -4.97095 0
M  V30 37677 C 3524.2 -1.25972 -4.98634 0
M  V30 37678 N 3522.18 -2.03834 -5.79072 0
M  V30 37679 C 3523.55 -2.23888 -5.78165 0
M  V30 37680 C 3525.61 -1.29182 -4.8085 0
M  V30 37681 C 3524.31 -3.24771 -6.41807 0
M  V30 37682 C 3526.33 -2.28916 -5.45299 0
M  V30 37683 C 3525.7 -3.25563 -6.2465 0
M  V30 37684 H 3521.8 0.0823815 -0.777649 0
M  V30 37685 H 3524.38 -0.412452 -1.90281 0
M  V30 37686 H 3522.55 1.44622 -3.60471 0
M  V30 37687 H 3524.28 1.32878 -3.82264 0
M  V30 37688 H 3521.04 -0.484388 -4.71116 0
M  V30 37689 H 3521.46 -2.60801 -6.2475 0
M  V30 37690 H 3526.1 -0.558392 -4.19096 0
M  V30 37691 H 3523.82 -3.99042 -7.02703 0
M  V30 37692 H 3527.41 -2.32155 -5.33475 0
M  V30 37693 H 3526.29 -4.01474 -6.73638 0
M  V30 37694 N 3523.79 1.57594 -0.0134169 0
M  V30 37695 C 3524.72 2.12293 0.972304 0
M  V30 37696 C 3525.7 1.03525 1.34969 0
M  V30 37697 O 3526.89 1.31278 1.43108 0
M  V30 37698 C 3524.02 2.63721 2.25983 0
M  V30 37699 C 3522.97 3.77136 2.02366 0
M  V30 37700 C 3522.3 4.14931 3.37248 0
M  V30 37701 C 3523.6 5.03864 1.37544 0
M  V30 37702 H 3525.29 2.94906 0.516817 0
M  V30 37703 H 3522.84 1.41863 0.247151 0
M  V30 37704 H 3524.79 3.00618 2.95308 0
M  V30 37705 H 3523.51 1.78249 2.73669 0
M  V30 37706 H 3522.17 3.40654 1.35464 0
M  V30 37707 H 3521.82 3.26462 3.82663 0
M  V30 37708 H 3521.52 4.91349 3.22258 0
M  V30 37709 H 3523.04 4.54398 4.07867 0
M  V30 37710 H 3524.46 5.38447 1.96845 0
M  V30 37711 H 3522.86 5.85176 1.33001 0
M  V30 37712 H 3523.93 4.83662 0.346344 0
M  V30 37713 N 3525.27 -0.259531 1.55448 0
M  V30 37714 C 3526.18 -1.34285 1.92366 0
M  V30 37715 C 3527.19 -1.53332 0.822519 0
M  V30 37716 O 3528.37 -1.67198 1.1228 0
M  V30 37717 C 3525.44 -2.67971 2.19982 0
M  V30 37718 C 3524.5 -2.57556 3.43458 0
M  V30 37719 C 3523.73 -3.84866 3.69748 0
M  V30 37720 O 3523.95 -4.86171 2.98319 0
M  V30 37721 O 3522.89 -3.84259 4.6328 0
M  V30 37722 H 3526.71 -1.0597 2.84612 0
M  V30 37723 H 3524.3 -0.459214 1.42167 0
M  V30 37724 H 3526.18 -3.46994 2.3911 0
M  V30 37725 H 3524.85 -2.96045 1.30917 0
M  V30 37726 H 3523.76 -1.76863 3.29652 0
M  V30 37727 H 3525.09 -2.3443 4.32786 0
M  V30 37728 N 3526.75 -1.48611 -0.524645 0
M  V30 37729 C 3527.68 -1.59624 -1.64478 0
M  V30 37730 C 3528.69 -0.480208 -1.55557 0
M  V30 37731 O 3529.88 -0.751282 -1.6192 0
M  V30 37732 C 3526.98 -1.51492 -3.03156 0
M  V30 37733 C 3526.15 -2.78226 -3.37504 0
M  V30 37734 C 3525.21 -2.63475 -4.55486 0
M  V30 37735 O 3524.24 -3.37372 -4.58442 0
M  V30 37736 N 3525.44 -1.73446 -5.53982 0
M  V30 37737 H 3528.21 -2.56224 -1.55466 0
M  V30 37738 H 3525.77 -1.45402 -0.712033 0
M  V30 37739 H 3527.76 -1.39311 -3.79966 0
M  V30 37740 H 3526.33 -0.62846 -3.06217 0
M  V30 37741 H 3525.55 -3.04933 -2.49819 0
M  V30 37742 H 3526.84 -3.62294 -3.5724 0
M  V30 37743 H 3526.23 -1.12621 -5.54376 0
M  V30 37744 H 3524.79 -1.67201 -6.2999 0
M  V30 37745 N 3528.22 0.773926 -1.37289 0
M  V30 37746 C 3529.17 1.87728 -1.29392 0
M  V30 37747 C 3530.16 1.59865 -0.182196 0
M  V30 37748 O 3531.35 1.72032 -0.416397 0
M  V30 37749 C 3528.48 3.25166 -1.101 0
M  V30 37750 C 3527.57 3.58987 -2.25807 0
M  V30 37751 N 3527.96 3.64006 -3.51189 0
M  V30 37752 C 3526.25 3.8914 -2.17913 0
M  V30 37753 C 3526.96 3.94512 -4.27475 0
M  V30 37754 N 3525.93 4.10298 -3.5659 0
M  V30 37755 H 3529.73 1.89856 -2.24348 0
M  V30 37756 H 3527.25 0.970259 -1.3023 0
M  V30 37757 H 3529.24 4.04096 -1.02528 0
M  V30 37758 H 3527.9 3.24303 -0.160592 0
M  V30 37759 H 3528.92 3.46265 -3.85124 0
M  V30 37760 H 3525.59 3.96111 -1.31917 0
M  V30 37761 H 3526.98 4.05189 -5.35977 0
M  V30 37762 N 3529.7 1.21823 0.99985 0
M  V30 37763 C 3530.95 1.05017 1.74192 0
M  V30 37764 C 3531.3 -0.411354 1.87951 0
M  V30 37765 O 3530.6 -1.30106 1.40652 0
M  V30 37766 C 3530.79 1.68686 3.15087 0
M  V30 37767 C 3530.62 3.20878 3.15067 0
M  V30 37768 C 3529.39 3.89948 3.21354 0
M  V30 37769 C 3531.59 4.17901 2.99772 0
M  V30 37770 N 3529.57 5.29285 3.11015 0
M  V30 37771 C 3530.94 5.44023 2.97386 0
M  V30 37772 C 3533 4.08882 2.84112 0
M  V30 37773 C 3531.7 6.62165 2.80944 0
M  V30 37774 C 3533.72 5.26666 2.69029 0
M  V30 37775 C 3533.09 6.51704 2.67323 0
M  V30 37776 H 3529.19 0.438664 0.647378 0
M  V30 37777 H 3531.77 1.54257 1.18798 0
M  V30 37778 H 3529.94 1.22006 3.6874 0
M  V30 37779 H 3531.67 1.45037 3.77818 0
M  V30 37780 H 3528.43 3.40904 3.28757 0
M  V30 37781 H 3528.85 6.0228 3.09173 0
M  V30 37782 H 3533.49 3.13004 2.84233 0
M  V30 37783 H 3531.21 7.58199 2.7957 0
M  V30 37784 H 3534.8 5.21514 2.57904 0
M  V30 37785 H 3533.68 7.4131 2.55792 0
M  V30 37786 N 3531.18 -1.1956 1.0268 0
M  V30 37787 C 3532.11 -2.22154 0.563921 0
M  V30 37788 C 3533.13 -1.5879 -0.359104 0
M  V30 37789 O 3534.31 -1.77819 -0.155826 0
M  V30 37790 C 3531.41 -3.38322 -0.197835 0
M  V30 37791 C 3530.59 -4.31272 0.729618 0
M  V30 37792 C 3529.65 -5.26198 0.0136355 0
M  V30 37793 O 3528.67 -5.65596 0.639517 0
M  V30 37794 N 3529.87 -5.66709 -1.25781 0
M  V30 37795 H 3532.64 -2.62494 1.44627 0
M  V30 37796 H 3530.2 -1.34205 0.905574 0
M  V30 37797 H 3532.19 -3.98838 -0.686311 0
M  V30 37798 H 3530.76 -2.96789 -0.98158 0
M  V30 37799 H 3529.98 -3.68569 1.39822 0
M  V30 37800 H 3531.27 -4.90286 1.36003 0
M  V30 37801 H 3530.67 -5.36731 -1.78707 0
M  V30 37802 H 3529.23 -6.29488 -1.69082 0
M  V30 37803 N 3532.66 -0.804387 -1.35526 0
M  V30 37804 C 3533.62 -0.21889 -2.28152 0
M  V30 37805 C 3534.62 0.592484 -1.49487 0
M  V30 37806 O 3535.81 0.411289 -1.69275 0
M  V30 37807 C 3532.94 0.695136 -3.33737 0
M  V30 37808 H 3534.14 -1.03581 -2.81445 0
M  V30 37809 H 3531.69 -0.574879 -1.45344 0
M  V30 37810 H 3532.42 1.53582 -2.85627 0
M  V30 37811 H 3532.21 0.115074 -3.91931 0
M  V30 37812 H 3533.7 1.09918 -4.02874 0
M  V30 37813 N 3534.14 1.47403 -0.557697 0
M  V30 37814 C 3535.39 2.02072 -0.0337571 0
M  V30 37815 C 3535.71 1.43435 1.32104 0
M  V30 37816 O 3534.98 0.609724 1.8617 0
M  V30 37817 H 3533.56 0.74694 -0.00948961 0
M  V30 37818 H 3536.22 1.80801 -0.727815 0
M  V30 37819 H 3535.31 3.12053 0.0539782 0
M  V30 37820 N 3535.62 0.294175 1.5483 0
M  V30 37821 C 3536.89 -0.369868 1.92071 0
M  V30 37822 C 3537.27 -1.72231 1.22064 0
M  V30 37823 O 3536.62 -2.25741 0.354015 0
M  V30 37824 C 3536.83 -0.491289 3.45525 0
M  V30 37825 C 3538.18 -0.765338 4.17645 0
M  V30 37826 O 3539.2 -0.575366 3.51522 0
M  V30 37827 O 3538.06 -1.12982 5.34694 0
M  V30 37828 H 3535.16 -0.205596 0.801036 0
M  V30 37829 H 3537.7 0.341731 1.66224 0
M  V30 37830 H 3536.47 0.459732 3.8859 0
M  V30 37831 H 3536.1 -1.25162 3.77386 0
M  V30 37832 N 3537.09 -1.57585 0.0217743 0
M  V30 37833 C 3538.34 -1.91118 -0.657153 0
M  V30 37834 C 3538.66 -0.898069 -1.73089 0
M  V30 37835 O 3537.93 0.0614771 -1.95804 0
M  V30 37836 H 3536.51 -0.705429 -0.24572 0
M  V30 37837 H 3539.17 -1.94782 0.0678439 0
M  V30 37838 H 3538.27 -2.9152 -1.11457 0
M  V30 37839 N 3538.57 0.251283 -1.55584 0
M  V30 37840 C 3539.98 0.820689 -1.67695 0
M  V30 37841 C 3540.33 1.86199 -0.618426 0
M  V30 37842 O 3539.46 2.15108 0.236121 0
M  V30 37843 C 3540.05 1.49537 -3.04013 0
M  V30 37844 C 3538.61 2.01253 -3.18079 0
M  V30 37845 C 3537.76 0.862092 -2.63559 0
M  V30 37846 H 3540.71 0.0271793 -1.58677 0
M  V30 37847 H 3540.73 2.36323 -2.98214 0
M  V30 37848 H 3540.24 0.737256 -3.81033 0
M  V30 37849 H 3538.34 2.79958 -2.45874 0
M  V30 37850 H 3538.46 2.21292 -4.24931 0
M  V30 37851 H 3536.82 1.26141 -2.2127 0
M  V30 37852 H 3537.6 0.117135 -3.431 0
M  V30 37853 N 3540.05 1.48887 0.516757 0
M  V30 37854 C 3541.47 1.35301 0.846516 0
M  V30 37855 C 3541.67 0.374069 1.97997 0
M  V30 37856 O 3540.72 -0.199958 2.51707 0
M  V30 37857 C 3542.03 2.7565 1.20157 0
M  V30 37858 C 3543.58 2.84235 1.31069 0
M  V30 37859 C 3544.06 4.25316 1.69912 0
M  V30 37860 N 3545.55 4.28052 1.7699 0
M  V30 37861 C 3546.28 5.34166 2.08457 0
M  V30 37862 N 3545.78 6.50543 2.38256 0
M  V30 37863 N 3547.57 5.2157 2.09575 0
M  V30 37864 H 3539.72 2.11141 -0.230909 0
M  V30 37865 H 3541.99 0.947127 -0.0406845 0
M  V30 37866 H 3541.69 3.48909 0.442217 0
M  V30 37867 H 3541.57 3.10018 2.14869 0
M  V30 37868 H 3543.95 2.11224 2.06079 0
M  V30 37869 H 3544.03 2.5347 0.344461 0
M  V30 37870 H 3543.68 4.98849 0.954579 0
M  V30 37871 H 3543.61 4.53535 2.67608 0
M  V30 37872 H 3546.1 3.44115 1.56185 0
M  V30 37873 H 3546.41 7.27245 2.6141 0
M  V30 37874 H 3544.76 6.53795 2.35747 0
M  V30 37875 H 3547.95 4.29663 1.8576 0
M  V30 37876 H 3548.12 6.04366 2.33765 0
M  V30 37877 N 3541.53 -0.766635 1.37697 0
M  V30 37878 C 3542.75 -1.56091 1.36566 0
M  V30 37879 C 3543.18 -1.88045 -0.0455497 0
M  V30 37880 O 3542.54 -1.49611 -1.02402 0
M  V30 37881 C 3542.58 -2.84477 2.21597 0
M  V30 37882 O 3541.69 -3.79073 1.62411 0
M  V30 37883 H 3541.03 -0.472615 0.466402 0
M  V30 37884 H 3543.56 -0.948454 1.81288 0
M  V30 37885 H 3543.57 -3.3353 2.34993 0
M  V30 37886 H 3542.24 -2.60548 3.24172 0
M  V30 37887 H 3540.82 -3.37733 1.58084 0
M  V30 37888 N 3543.01 -1.22351 -0.993375 0
M  V30 37889 C 3544.23 -1.07409 -1.76836 0
M  V30 37890 C 3544.65 0.375387 -1.85031 0
M  V30 37891 O 3544.01 1.26014 -1.3201 0
M  V30 37892 C 3544.06 -1.67843 -3.20174 0
M  V30 37893 O 3543.78 -3.0712 -3.12424 0
M  V30 37894 C 3545.28 -1.58169 -4.14123 0
M  V30 37895 H 3542.5 -0.376567 -0.555372 0
M  V30 37896 H 3545.04 -1.61934 -1.2489 0
M  V30 37897 H 3543.2 -1.17382 -3.69189 0
M  V30 37898 H 3543.61 -3.3622 -4.02562 0
M  V30 37899 H 3545.09 -2.05178 -5.12451 0
M  V30 37900 H 3545.56 -0.53815 -4.35891 0
M  V30 37901 H 3546.17 -2.07933 -3.71004 0
M  V30 37902 N 3544.48 1.19014 -1.03313 0
M  V30 37903 C 3545.73 1.88131 -0.727299 0
M  V30 37904 C 3546.05 1.80755 0.747456 0
M  V30 37905 O 3547.25 2.45163 1.1665 0
M  V30 37906 C 3545.71 3.37472 -1.25062 0
M  V30 37907 C 3545.32 3.53395 -2.75346 0
M  V30 37908 C 3547.06 4.12039 -1.02098 0
M  V30 37909 C 3544.97 4.96654 -3.21075 0
M  V30 37910 H 3543.9 0.704626 -0.268361 0
M  V30 37911 H 3546.55 1.34528 -1.24798 0
M  V30 37912 H 3544.93 3.90498 -0.657839 0
M  V30 37913 H 3546.1 3.10678 -3.40317 0
M  V30 37914 H 3544.42 2.92224 -2.96638 0
M  V30 37915 H 3547.02 5.17692 -1.33786 0
M  V30 37916 H 3547.36 4.16279 0.0420681 0
M  V30 37917 H 3547.89 3.65164 -1.57798 0
M  V30 37918 H 3544.63 4.97578 -4.26727 0
M  V30 37919 H 3544.15 5.40116 -2.60835 0
M  V30 37920 H 3545.83 5.65329 -3.14661 0
M  V30 37921 N 3545.96 0.811563 1.35098 0
M  V30 37922 C 3547.38 0.49591 1.517 0
M  V30 37923 C 3547.58 -0.982004 1.75951 0
M  V30 37924 O 3546.63 -1.76687 1.80383 0
M  V30 37925 C 3547.95 1.34559 2.68913 0
M  V30 37926 C 3549.49 1.34154 2.82793 0
M  V30 37927 C 3549.97 2.17545 4.03036 0
M  V30 37928 N 3551.46 2.15108 4.10223 0
M  V30 37929 C 3552.2 2.76386 5.02392 0
M  V30 37930 N 3551.69 3.46611 5.9986 0
M  V30 37931 N 3553.48 2.66001 4.95177 0
M  V30 37932 H 3545.64 1.76864 1.17614 0
M  V30 37933 H 3547.9 0.753052 0.575862 0
M  V30 37934 H 3547.6 2.39462 2.57586 0
M  V30 37935 H 3547.48 1.0023 3.6364 0
M  V30 37936 H 3549.87 0.300336 2.93568 0
M  V30 37937 H 3549.95 1.72474 1.88909 0
M  V30 37938 H 3549.59 3.21708 3.93022 0
M  V30 37939 H 3549.52 1.76583 4.96111 0
M  V30 37940 H 3552.01 1.64016 3.40451 0
M  V30 37941 H 3552.32 3.90643 6.66796 0
M  V30 37942 H 3550.67 3.50716 6.00019 0
M  V30 37943 H 3553.86 2.10723 4.17988 0
M  V30 37944 H 3554.03 3.14046 5.66815 0
M  V30 37945 N 3547.44 -1.47105 0.565506 0
M  V30 37946 C 3548.35 -2.33905 -0.180447 0
M  V30 37947 C 3549.37 -1.48703 -0.903524 0
M  V30 37948 O 3550.54 -1.81613 -0.870563 0
M  V30 37949 C 3547.61 -3.25562 -1.19206 0
M  V30 37950 C 3546.67 -4.26658 -0.475514 0
M  V30 37951 C 3545.9 -5.13936 -1.43893 0
M  V30 37952 O 3546.12 -5.0382 -2.67434 0
M  V30 37953 O 3545.06 -5.94213 -0.958893 0
M  V30 37954 H 3548.88 -2.99008 0.531778 0
M  V30 37955 H 3546.47 -1.45799 0.326046 0
M  V30 37956 H 3548.35 -3.82156 -1.7758 0
M  V30 37957 H 3547.03 -2.63077 -1.88606 0
M  V30 37958 H 3545.93 -3.73801 0.149627 0
M  V30 37959 H 3547.27 -4.91881 0.177189 0
M  V30 37960 N 3548.92 -0.302382 -1.54672 0
M  V30 37961 C 3549.87 0.58883 -2.25023 0
M  V30 37962 C 3550.86 1.13589 -1.25673 0
M  V30 37963 O 3552.07 1.08638 -1.4352 0
M  V30 37964 H 3548.44 0.208496 -0.722519 0
M  V30 37965 H 3550.41 -0.0270453 -2.98388 0
M  V30 37966 C 3549.16 1.74854 -3.00535 0
M  V30 37967 H 3548.48 1.33681 -3.76788 0
M  V30 37968 H 3549.92 2.34817 -3.5304 0
M  V30 37969 C 3548.38 2.65349 -2.07585 0
M  V30 37970 O 3548.91 3.66483 -1.64479 0
M  V30 37971 N 3547.12 2.33113 -1.73512 0
M  V30 37972 H 3546.67 1.50917 -2.08763 0
M  V30 37973 H 3546.62 2.93928 -1.11596 0
M  V30 37974 N 3550.4 1.57571 -0.0301311 0
M  V30 37975 C 3551.65 1.9102 0.647638 0
M  V30 37976 C 3551.96 0.908296 1.73232 0
M  V30 37977 O 3553.16 1.13406 2.4668 0
M  V30 37978 C 3551.62 3.39192 1.20321 0
M  V30 37979 C 3551.23 4.47743 0.151754 0
M  V30 37980 C 3552.97 3.81706 1.85743 0
M  V30 37981 C 3550.88 5.87013 0.719016 0
M  V30 37982 H 3549.81 0.712855 0.245669 0
M  V30 37983 H 3552.46 1.83251 -0.0955967 0
M  V30 37984 H 3550.84 3.41896 1.99808 0
M  V30 37985 H 3552.02 4.566 -0.62074 0
M  V30 37986 H 3550.33 4.14438 -0.403772 0
M  V30 37987 H 3552.93 4.83113 2.29142 0
M  V30 37988 H 3553.27 3.16821 2.70055 0
M  V30 37989 H 3553.8 3.8143 1.12943 0
M  V30 37990 H 3550.54 6.55444 -0.0859984 0
M  V30 37991 H 3550.06 5.8176 1.45997 0
M  V30 37992 H 3551.74 6.35614 1.20845 0
M  V30 37993 N 3551.87 -0.243029 1.55715 0
M  V30 37994 C 3553.1 -0.987978 1.81787 0
M  V30 37995 C 3553.52 -1.78797 0.606383 0
M  V30 37996 O 3552.87 -1.77483 -0.424987 0
M  V30 37997 C 3552.93 -1.92276 3.06124 0
M  V30 37998 O 3552.65 -1.15513 4.22597 0
M  V30 37999 C 3554.15 -2.78338 3.45026 0
M  V30 38000 H 3551.37 -0.290546 0.604834 0
M  V30 38001 H 3553.91 -0.264744 2.02779 0
M  V30 38002 H 3552.07 -2.60022 2.87171 0
M  V30 38003 H 3552.48 -1.78777 4.93091 0
M  V30 38004 H 3553.95 -3.39671 4.35118 0
M  V30 38005 H 3554.43 -3.49647 2.65788 0
M  V30 38006 H 3555.04 -2.16039 3.66343 0
M  V30 38007 N 3553.35 -1.49159 -0.508854 0
M  V30 38008 C 3554.58 -1.61711 -1.28582 0
M  V30 38009 C 3554.99 -0.284662 -1.87046 0
M  V30 38010 O 3554.33 0.73893 -1.68183 0
M  V30 38011 C 3554.4 -2.62117 -2.46038 0
M  V30 38012 C 3554.06 -4.06664 -2.08503 0
M  V30 38013 C 3555.06 -4.93709 -1.62935 0
M  V30 38014 C 3552.74 -4.52345 -2.18378 0
M  V30 38015 C 3554.74 -6.2447 -1.27736 0
M  V30 38016 C 3552.42 -5.83122 -1.82791 0
M  V30 38017 C 3553.42 -6.69007 -1.37543 0
M  V30 38018 O 3553.11 -7.97347 -1.02433 0
M  V30 38019 H 3552.84 -0.547511 -0.396494 0
M  V30 38020 H 3555.39 -1.95873 -0.618306 0
M  V30 38021 H 3553.62 -2.23119 -3.1584 0
M  V30 38022 H 3555.31 -2.6428 -3.08076 0
M  V30 38023 H 3556.08 -4.59647 -1.54758 0
M  V30 38024 H 3551.96 -3.85668 -2.52549 0
M  V30 38025 H 3555.5 -6.91461 -0.923467 0
M  V30 38026 H 3551.4 -6.16714 -1.90615 0
M  V30 38027 H 3552.17 -8.10289 -1.15648 0
M  V30 38028 N 3554.83 0.759322 -1.38102 0
M  V30 38029 C 3555.76 1.88663 -1.37581 0
M  V30 38030 C 3556.74 1.68362 -0.242558 0
M  V30 38031 O 3557.93 1.89038 -0.444784 0
M  V30 38032 C 3555.06 3.26115 -1.19442 0
M  V30 38033 C 3554.01 3.61005 -2.29911 0
M  V30 38034 C 3553.34 4.97133 -1.96883 0
M  V30 38035 C 3554.64 3.66472 -3.7215 0
M  V30 38036 H 3556.33 1.89355 -2.31916 0
M  V30 38037 H 3553.88 0.909611 -1.11634 0
M  V30 38038 H 3555.83 4.04628 -1.17705 0
M  V30 38039 H 3554.55 3.25887 -0.215677 0
M  V30 38040 H 3553.21 2.84808 -2.30825 0
M  V30 38041 H 3552.86 4.93459 -0.975066 0
M  V30 38042 H 3552.56 5.21446 -2.70865 0
M  V30 38043 H 3554.08 5.78031 -1.96754 0
M  V30 38044 H 3555.5 4.35111 -3.73298 0
M  V30 38045 H 3553.9 4.02291 -4.45289 0
M  V30 38046 H 3554.97 2.66835 -4.04879 0
M  V30 38047 N 3556.31 1.22876 0.986873 0
M  V30 38048 C 3557.26 1.00419 2.07809 0
M  V30 38049 C 3558.23 -0.0761442 1.65925 0
M  V30 38050 O 3559.41 0.074663 1.90654 0
M  V30 38051 C 3556.55 0.594531 3.3994 0
M  V30 38052 C 3555.66 1.74629 3.95131 0
M  V30 38053 C 3554.8 1.28403 5.15447 0
M  V30 38054 C 3553.84 2.40696 5.62789 0
M  V30 38055 N 3552.97 1.95474 6.7434 0
M  V30 38056 H 3557.81 1.93826 2.26352 0
M  V30 38057 H 3555.35 0.965681 1.10964 0
M  V30 38058 H 3557.31 0.338151 4.15827 0
M  V30 38059 H 3555.94 -0.302531 3.21379 0
M  V30 38060 H 3554.99 2.11684 3.1606 0
M  V30 38061 H 3556.3 2.59074 4.26242 0
M  V30 38062 H 3555.46 0.985395 5.98644 0
M  V30 38063 H 3554.2 0.409874 4.85975 0
M  V30 38064 H 3553.2 2.71342 4.78178 0
M  V30 38065 H 3554.43 3.28638 5.94284 0
M  V30 38066 H 3552.37 1.10429 6.46639 0
M  V30 38067 H 3552.29 2.73481 7.04801 0
M  V30 38068 H 3553.56 1.68696 7.61027 0
M  V30 38069 N 3557.79 -1.18464 1.03942 0
M  V30 38070 C 3558.74 -2.19969 0.599788 0
M  V30 38071 C 3559.72 -1.56887 -0.357099 0
M  V30 38072 O 3560.91 -1.76119 -0.176357 0
M  V30 38073 C 3558.04 -3.4328 -0.0370831 0
M  V30 38074 C 3557.13 -4.13486 0.942878 0
M  V30 38075 N 3557.52 -4.59713 2.10944 0
M  V30 38076 C 3555.82 -4.39327 0.768606 0
M  V30 38077 C 3556.52 -5.13746 2.72838 0
M  V30 38078 N 3555.49 -5.05185 2.00722 0
M  V30 38079 H 3559.3 -2.53401 1.4888 0
M  V30 38080 H 3556.81 -1.34655 0.907841 0
M  V30 38081 H 3558.81 -4.15257 -0.36973 0
M  V30 38082 H 3557.47 -3.11345 -0.921646 0
M  V30 38083 H 3558.48 -4.54202 2.48839 0
M  V30 38084 H 3555.15 -4.17448 -0.0659712 0
M  V30 38085 H 3556.54 -5.59726 3.71693 0
M  V30 38086 N 3559.26 -0.818716 -1.34665 0
M  V30 38087 C 3560.54 -0.327555 -1.92838 0
M  V30 38088 C 3560.92 1.18454 -1.74734 0
M  V30 38089 O 3560.27 1.98969 -1.12355 0
M  V30 38090 C 3560.48 -0.752267 -3.40796 0
M  V30 38091 C 3561.83 -0.748686 -4.17947 0
M  V30 38092 O 3562.85 -0.694579 -3.49362 0
M  V30 38093 O 3561.71 -0.818053 -5.40343 0
M  V30 38094 H 3558.8 -0.0885292 -0.822248 0
M  V30 38095 H 3561.35 -0.903226 -1.43666 0
M  V30 38096 H 3560.12 -1.79393 -3.47756 0
M  V30 38097 H 3559.75 -0.152062 -3.97309 0
M  V30 38098 N 3560.74 1.46803 -0.573299 0
M  V30 38099 C 3561.97 2.07317 -0.0587081 0
M  V30 38100 C 3562.39 1.42071 1.23278 0
M  V30 38101 O 3561.75 0.501219 1.74234 0
M  V30 38102 C 3561.8 3.60452 0.10344 0
M  V30 38103 O 3560.9 3.95684 1.16222 0
M  V30 38104 H 3560.24 0.661412 -0.058562 0
M  V30 38105 H 3562.77 1.88583 -0.793565 0
M  V30 38106 H 3562.78 4.06801 0.312587 0
M  V30 38107 H 3561.46 4.07334 -0.839755 0
M  V30 38108 H 3560.04 3.61058 0.932283 0
M  V30 38109 N 3562.22 0.31058 1.54509 0
M  V30 38110 C 3563.47 -0.296308 2.00624 0
M  V30 38111 C 3563.8 -1.528 1.19858 0
M  V30 38112 O 3563.07 -1.9251 0.277502 0
M  V30 38113 C 3563.36 -0.643386 3.54306 0
M  V30 38114 C 3563.21 0.598107 4.45806 0
M  V30 38115 C 3564.53 -1.46615 4.1496 0
M  V30 38116 H 3561.65 -0.106223 0.729305 0
M  V30 38117 H 3564.29 0.424581 1.85195 0
M  V30 38118 H 3562.44 -1.25756 3.67584 0
M  V30 38119 H 3564.11 1.23651 4.44419 0
M  V30 38120 H 3562.36 1.22951 4.16011 0
M  V30 38121 H 3563.03 0.31098 5.51123 0
M  V30 38122 H 3565.5 -0.947128 4.05177 0
M  V30 38123 H 3564.38 -1.67778 5.2263 0
M  V30 38124 H 3564.64 -2.45832 3.67449 0
M  V30 38125 N 3563.7 -1.57553 0.0384871 0
M  V30 38126 C 3564.63 -2.13813 -0.938407 0
M  V30 38127 C 3565.61 -1.05659 -1.33305 0
M  V30 38128 O 3566.8 -1.33538 -1.41001 0
M  V30 38129 C 3563.93 -2.67283 -2.21759 0
M  V30 38130 C 3562.88 -3.80308 -1.96341 0
M  V30 38131 C 3562.21 -4.20244 -3.30605 0
M  V30 38132 C 3563.51 -5.05988 -1.29511 0
M  V30 38133 H 3565.2 -2.95691 -0.469835 0
M  V30 38134 H 3562.75 -1.42238 -0.22455 0
M  V30 38135 H 3564.7 -3.05278 -2.90488 0
M  V30 38136 H 3563.42 -1.8258 -2.70799 0
M  V30 38137 H 3562.08 -3.42766 -1.30027 0
M  V30 38138 H 3561.73 -3.32509 -3.77421 0
M  V30 38139 H 3561.43 -4.96413 -3.144 0
M  V30 38140 H 3562.95 -4.60829 -4.00586 0
M  V30 38141 H 3564.37 -5.4151 -1.88254 0
M  V30 38142 H 3562.76 -5.87218 -1.23674 0
M  V30 38143 H 3563.83 -4.84151 -0.269353 0
M  V30 38144 N 3565.18 0.234767 -1.55842 0
M  V30 38145 C 3566.12 1.29082 -1.91328 0
M  V30 38146 C 3567.09 1.47232 -0.768894 0
M  V30 38147 O 3568.28 1.61017 -1.02363 0
M  V30 38148 C 3565.42 2.63886 -2.22392 0
M  V30 38149 C 3564.53 2.53644 -3.49698 0
M  V30 38150 C 3563.67 3.80882 -3.70273 0
M  V30 38151 C 3562.71 3.65308 -4.91138 0
M  V30 38152 N 3561.84 4.84465 -5.08171 0
M  V30 38153 H 3566.68 0.981197 -2.81383 0
M  V30 38154 H 3564.22 0.473215 -1.39281 0
M  V30 38155 H 3566.18 3.42369 -2.3841 0
M  V30 38156 H 3564.81 2.92972 -1.35526 0
M  V30 38157 H 3563.86 1.66666 -3.41945 0
M  V30 38158 H 3565.17 2.38051 -4.3833 0
M  V30 38159 H 3564.33 4.67808 -3.86316 0
M  V30 38160 H 3563.07 3.99386 -2.79897 0
M  V30 38161 H 3562.07 2.76765 -4.75059 0
M  V30 38162 H 3563.3 3.48288 -5.82986 0
M  V30 38163 H 3561.24 5.03307 -4.20735 0
M  V30 38164 H 3561.16 4.71549 -5.90913 0
M  V30 38165 H 3562.43 5.72855 -5.28637 0
M  V30 38166 N 3566.66 1.49427 0.500936 0
M  V30 38167 C 3567.88 1.62626 1.27908 0
M  V30 38168 C 3568.3 0.297684 1.86438 0
M  V30 38169 O 3567.66 -0.716849 1.67832 0
M  V30 38170 C 3567.71 2.6951 2.40929 0
M  V30 38171 O 3567.43 3.97214 1.84804 0
M  V30 38172 C 3568.93 2.93414 3.323 0
M  V30 38173 H 3566.15 0.547488 0.387941 0
M  V30 38174 H 3568.69 1.95459 0.601338 0
M  V30 38175 H 3566.85 2.39455 3.04533 0
M  V30 38176 H 3567.26 4.5609 2.59003 0
M  V30 38177 H 3568.74 3.71935 4.07883 0
M  V30 38178 H 3569.21 2.03332 3.89298 0
M  V30 38179 H 3569.82 3.24886 2.74462 0
M  V30 38180 N 3568.13 -0.751987 1.38502 0
M  V30 38181 C 3569.38 -1.50652 1.34115 0
M  V30 38182 C 3569.7 -1.9549 -0.0657318 0
M  V30 38183 O 3570.9 -2.70506 -0.232151 0
M  V30 38184 C 3569.36 -2.72138 2.35518 0
M  V30 38185 C 3568.97 -2.3432 3.81835 0
M  V30 38186 C 3570.71 -3.50022 2.40177 0
M  V30 38187 C 3568.62 -3.52426 4.74921 0
M  V30 38188 H 3567.55 -0.565672 0.498529 0
M  V30 38189 H 3570.2 -0.821884 1.64065 0
M  V30 38190 H 3568.58 -3.42591 1.98613 0
M  V30 38191 H 3569.75 -1.71522 4.27688 0
M  V30 38192 H 3568.07 -1.69566 3.80311 0
M  V30 38193 H 3570.67 -4.3784 3.0692 0
M  V30 38194 H 3571.01 -3.9129 1.42118 0
M  V30 38195 H 3571.54 -2.86583 2.75889 0
M  V30 38196 H 3568.28 -3.16222 5.74181 0
M  V30 38197 H 3567.8 -4.14261 4.3376 0
M  V30 38198 H 3569.48 -4.18986 4.93011 0
M  V30 38199 N 3569.61 -1.23398 -0.980343 0
M  V30 38200 C 3571.03 -0.996644 -1.24656 0
M  V30 38201 C 3571.23 0.302224 -1.99221 0
M  V30 38202 O 3570.28 1.02165 -2.30908 0
M  V30 38203 C 3571.6 -2.20356 -2.04606 0
M  V30 38204 C 3573.14 -2.24847 -2.17745 0
M  V30 38205 C 3573.62 -3.45126 -3.01085 0
M  V30 38206 N 3575.11 -3.45365 -3.0867 0
M  V30 38207 C 3575.85 -4.35087 -3.73479 0
M  V30 38208 N 3575.34 -5.35045 -4.40112 0
M  V30 38209 N 3577.13 -4.2283 -3.70366 0
M  V30 38210 H 3569.29 -2.06886 -0.480814 0
M  V30 38211 H 3571.55 -0.907227 -0.275033 0
M  V30 38212 H 3571.25 -3.14617 -1.57192 0
M  V30 38213 H 3571.13 -2.21446 -3.05355 0
M  V30 38214 H 3573.52 -1.31127 -2.64367 0
M  V30 38215 H 3573.6 -2.2779 -1.16384 0
M  V30 38216 H 3573.24 -4.39154 -2.5516 0
M  V30 38217 H 3573.17 -3.39424 -4.02615 0
M  V30 38218 H 3575.66 -2.73041 -2.6126 0
M  V30 38219 H 3575.97 -5.99764 -4.87343 0
M  V30 38220 H 3574.32 -5.38945 -4.3882 0
M  V30 38221 H 3577.51 -3.43983 -3.1748 0
M  V30 38222 H 3577.68 -4.92956 -4.20593 0
M  V30 38223 N 3571.09 1.17911 -1.04569 0
M  V30 38224 C 3572.34 1.87646 -0.750571 0
M  V30 38225 C 3572.66 1.81053 0.724198 0
M  V30 38226 O 3571.93 1.23226 1.5229 0
M  V30 38227 H 3570.51 0.694678 -0.274649 0
M  V30 38228 H 3573.17 1.4307 -1.32352 0
M  V30 38229 H 3572.27 2.93551 -1.05992 0
M  V30 38230 N 3572.57 0.825847 1.34229 0
M  V30 38231 C 3573.5 0.264587 2.31996 0
M  V30 38232 C 3574.48 -0.620564 1.58376 0
M  V30 38233 O 3575.66 -0.546832 1.86342 0
M  V30 38234 C 3572.79 -0.571964 3.42558 0
M  V30 38235 C 3571.75 0.216294 4.27453 0
M  V30 38236 C 3571.07 -0.743185 5.2951 0
M  V30 38237 C 3572.37 1.42612 5.02453 0
M  V30 38238 H 3574.07 1.08144 2.79187 0
M  V30 38239 H 3571.61 0.521475 1.34226 0
M  V30 38240 H 3573.57 -0.974816 4.0997 0
M  V30 38241 H 3572.29 -1.4219 2.94023 0
M  V30 38242 H 3570.95 0.600549 3.61648 0
M  V30 38243 H 3570.6 -1.58916 4.77237 0
M  V30 38244 H 3570.3 -0.219961 5.87188 0
M  V30 38245 H 3571.82 -1.14383 5.99791 0
M  V30 38246 H 3573.24 1.09712 5.62704 0
M  V30 38247 H 3571.63 1.88519 5.6972 0
M  V30 38248 H 3572.7 2.20278 4.31979 0
M  V30 38249 N 3574.05 -1.46497 0.581077 0
M  V30 38250 C 3575.29 -2.02692 0.066129 0
M  V30 38251 C 3575.62 -1.4518 -1.28982 0
M  V30 38252 O 3574.9 -0.61628 -1.84478 0
M  V30 38253 C 3575.18 -3.601 -0.00139081 0
M  V30 38254 C 3575.04 -4.28 1.38335 0
M  V30 38255 C 3576.35 -4.34452 -0.702837 0
M  V30 38256 H 3573.47 -0.736559 0.0255053 0
M  V30 38257 H 3576.12 -1.74658 0.747961 0
M  V30 38258 H 3574.27 -3.84115 -0.582051 0
M  V30 38259 H 3575.94 -4.15253 2.00905 0
M  V30 38260 H 3574.18 -3.87425 1.95151 0
M  V30 38261 H 3574.85 -5.36749 1.28859 0
M  V30 38262 H 3577.33 -4.15572 -0.209568 0
M  V30 38263 H 3576.2 -5.44169 -0.719106 0
M  V30 38264 H 3576.46 -4.05391 -1.76382 0
M  V30 38265 N 3575.52 -0.31877 -1.54343 0
M  V30 38266 C 3576.43 0.558402 -2.27857 0
M  V30 38267 C 3577.45 1.13331 -1.32031 0
M  V30 38268 O 3578.63 1.1543 -1.65039 0
M  V30 38269 C 3575.69 1.7056 -3.01845 0
M  V30 38270 C 3574.75 1.16298 -4.13247 0
M  V30 38271 C 3573.98 2.2555 -4.83697 0
M  V30 38272 O 3574.21 3.45802 -4.53627 0
M  V30 38273 O 3573.14 1.91239 -5.70711 0
M  V30 38274 H 3576.97 -0.0384781 -3.03676 0
M  V30 38275 H 3574.55 -0.0846198 -1.4916 0
M  V30 38276 H 3576.43 2.37359 -3.48193 0
M  V30 38277 H 3575.11 2.28875 -2.28906 0
M  V30 38278 H 3574.02 0.460208 -3.71259 0
M  V30 38279 H 3575.35 0.625026 -4.88215 0
M  V30 38280 N 3577 1.5753 -0.0468419 0
M  V30 38281 C 3577.91 2.14755 0.944324 0
M  V30 38282 C 3578.93 1.10425 1.34471 0
M  V30 38283 O 3580.1 1.42571 1.42251 0
M  V30 38284 C 3577.17 2.67772 2.20225 0
M  V30 38285 C 3576.23 3.86884 1.86063 0
M  V30 38286 C 3575.46 4.37362 3.05859 0
M  V30 38287 O 3575.69 3.86934 4.19092 0
M  V30 38288 O 3574.62 5.29002 2.87125 0
M  V30 38289 H 3578.45 2.99759 0.487667 0
M  V30 38290 H 3576.03 1.48374 0.174805 0
M  V30 38291 H 3577.91 3.0186 2.94038 0
M  V30 38292 H 3576.59 1.85841 2.65037 0
M  V30 38293 H 3575.49 3.57691 1.09579 0
M  V30 38294 H 3576.83 4.70031 1.46054 0
M  V30 38295 N 3578.48 -0.226499 1.55964 0
M  V30 38296 C 3579.43 -1.30031 1.92859 0
M  V30 38297 C 3580.42 -1.48778 0.810034 0
M  V30 38298 O 3581.63 -1.50011 0.994828 0
M  V30 38299 H 3578 -0.435847 0.612815 0
M  V30 38300 H 3579.97 -0.96191 2.82471 0
M  V30 38301 C 3578.72 -2.64456 2.25739 0
M  V30 38302 H 3578.05 -2.50837 3.11321 0
M  V30 38303 H 3579.49 -3.38415 2.55443 0
M  V30 38304 C 3577.95 -3.19093 1.08079 0
M  V30 38305 O 3578.48 -4.00264 0.339349 0
M  V30 38306 N 3576.68 -2.77398 0.865939 0
M  V30 38307 H 3576.23 -2.11498 1.47059 0
M  V30 38308 H 3576.19 -3.14297 0.0804119 0
M  V30 38309 N 3579.96 -1.4969 -0.493005 0
M  V30 38310 C 3581.37 -1.52689 -1.07438 0
M  V30 38311 C 3581.72 -0.317686 -1.93611 0
M  V30 38312 O 3580.85 0.571708 -2.08711 0
M  V30 38313 C 3581.44 -2.76691 -1.95518 0
M  V30 38314 C 3580 -2.82443 -2.48803 0
M  V30 38315 C 3579.15 -2.46707 -1.26613 0
M  V30 38316 H 3582.1 -1.56272 -0.276561 0
M  V30 38317 H 3582.12 -2.57306 -2.8031 0
M  V30 38318 H 3581.63 -3.64682 -1.32773 0
M  V30 38319 H 3579.73 -1.98751 -3.15165 0
M  V30 38320 H 3579.84 -3.8481 -2.85409 0
M  V30 38321 H 3578.21 -1.98661 -1.59392 0
M  V30 38322 H 3578.99 -3.36981 -0.655636 0
M  V30 38323 N 3581.44 0.744631 -1.38899 0
M  V30 38324 C 3582.35 1.88913 -1.39101 0
M  V30 38325 C 3583.36 1.71617 -0.286986 0
M  V30 38326 O 3584.54 1.94386 -0.526886 0
M  V30 38327 C 3581.6 3.24391 -1.22358 0
M  V30 38328 C 3580.66 3.54149 -2.42646 0
M  V30 38329 C 3579.9 4.83163 -2.26692 0
M  V30 38330 O 3580.12 5.56189 -1.26532 0
M  V30 38331 O 3579.05 5.12602 -3.15473 0
M  V30 38332 H 3582.88 1.91697 -2.35555 0
M  V30 38333 H 3580.47 0.891137 -1.19913 0
M  V30 38334 H 3582.35 4.05372 -1.15116 0
M  V30 38335 H 3581.02 3.22399 -0.289943 0
M  V30 38336 H 3579.93 2.73293 -2.55464 0
M  V30 38337 H 3581.26 3.60911 -3.3467 0
M  V30 38338 N 3582.91 1.23916 0.973785 0
M  V30 38339 C 3584.16 1.07681 1.7185 0
M  V30 38340 C 3584.49 -0.384392 1.90358 0
M  V30 38341 O 3583.77 -1.28433 1.46066 0
M  V30 38342 C 3584.05 1.81031 3.11287 0
M  V30 38343 C 3583.9 3.34865 3.00309 0
M  V30 38344 C 3585.22 1.57812 4.10833 0
M  V30 38345 H 3582.34 0.392575 0.623742 0
M  V30 38346 H 3584.98 1.52506 1.13322 0
M  V30 38347 H 3583.13 1.42929 3.61253 0
M  V30 38348 H 3584.81 3.82529 2.57817 0
M  V30 38349 H 3583.05 3.63558 2.36661 0
M  V30 38350 H 3583.72 3.81383 3.99063 0
M  V30 38351 H 3586.2 1.90945 3.69701 0
M  V30 38352 H 3585.07 2.116 5.06475 0
M  V30 38353 H 3585.33 0.514971 4.3909 0
M  V30 38354 N 3584.39 -1.17355 1.05193 0
M  V30 38355 C 3585.36 -2.19577 0.657169 0
M  V30 38356 C 3586.36 -1.58138 -0.291352 0
M  V30 38357 O 3587.55 -1.74038 -0.0752234 0
M  V30 38358 C 3584.68 -3.40882 -0.0347562 0
M  V30 38359 H 3585.87 -2.56016 1.56192 0
M  V30 38360 H 3583.42 -1.31437 0.845818 0
M  V30 38361 H 3584.16 -3.09988 -0.95278 0
M  V30 38362 H 3583.94 -3.86723 0.647144 0
M  V30 38363 H 3585.43 -4.16542 -0.297062 0
M  V30 38364 N 3585.87 -0.832954 -1.3379 0
M  V30 38365 C 3587.12 -0.426447 -1.98266 0
M  V30 38366 C 3587.45 1.01032 -1.6585 0
M  V30 38367 O 3586.72 1.70535 -0.93531 0
M  V30 38368 C 3587.01 -0.640649 -3.54355 0
M  V30 38369 C 3586.86 -2.12426 -3.96479 0
M  V30 38370 C 3588.18 -0.0830011 -4.40022 0
M  V30 38371 H 3585.3 -0.156417 -0.72021 0
M  V30 38372 H 3587.94 -1.04737 -1.58525 0
M  V30 38373 H 3586.09 -0.112108 -3.88338 0
M  V30 38374 H 3587.76 -2.71721 -3.72781 0
M  V30 38375 H 3586.01 -2.61098 -3.46425 0
M  V30 38376 H 3586.68 -2.2249 -5.05175 0
M  V30 38377 H 3589.15 -0.534707 -4.1265 0
M  V30 38378 H 3588.03 -0.262607 -5.48271 0
M  V30 38379 H 3588.29 1.01279 -4.30343 0
M  V30 38380 N 3587.35 1.46186 -0.588837 0
M  V30 38381 C 3588.63 1.95598 -0.00961769 0
M  V30 38382 C 3589.01 1.53146 1.45291 0
M  V30 38383 O 3588.35 0.785053 2.14591 0
M  V30 38384 C 3588.56 3.48493 -0.188079 0
M  V30 38385 C 3589.91 4.24559 -0.0590898 0
M  V30 38386 O 3590.94 3.56007 -0.117229 0
M  V30 38387 O 3589.79 5.46453 0.0714963 0
M  V30 38388 H 3586.89 0.8257 0.0463563 0
M  V30 38389 H 3589.43 1.56441 -0.657586 0
M  V30 38390 H 3588.21 3.72298 -1.20456 0
M  V30 38391 H 3587.83 3.94494 0.496034 0
M  V30 38392 N 3588.83 0.32695 1.54171 0
M  V30 38393 C 3590.07 -0.275157 2.02539 0
M  V30 38394 C 3590.43 -1.4908 1.20992 0
M  V30 38395 O 3591.63 -2.16599 1.5918 0
M  V30 38396 C 3589.9 -0.597705 3.52367 0
M  V30 38397 S 3591.46 -1.17899 4.22665 0
M  V30 38398 H 3588.28 -0.0830161 0.706137 0
M  V30 38399 H 3590.88 0.460859 1.8999 0
M  V30 38400 H 3589.59 0.295124 4.09337 0
M  V30 38401 H 3589.12 -1.36383 3.69003 0
M  V30 38402 H 3591.13 -2.46563 4.30605 0
M  V30 38403 N 3590.3 -1.57503 0.0551955 0
M  V30 38404 C 3591.55 -1.93135 -0.618602 0
M  V30 38405 C 3591.88 -0.934155 -1.70256 0
M  V30 38406 O 3591.16 0.0392357 -1.9446 0
M  V30 38407 C 3591.44 -3.39128 -1.21097 0
M  V30 38408 C 3591.29 -4.49598 -0.134786 0
M  V30 38409 C 3592.61 -3.85596 -2.12141 0
M  V30 38410 H 3589.73 -0.702325 -0.223403 0
M  V30 38411 H 3592.37 -1.89635 0.117781 0
M  V30 38412 H 3590.52 -3.42242 -1.83856 0
M  V30 38413 H 3592.2 -4.58611 0.497372 0
M  V30 38414 H 3590.44 -4.30468 0.536662 0
M  V30 38415 H 3591.11 -5.48845 -0.589351 0
M  V30 38416 H 3593.59 -3.84383 -1.59339 0
M  V30 38417 H 3592.46 -4.88391 -2.5053 0
M  V30 38418 H 3592.72 -3.22583 -3.02312 0
M  V30 38419 N 3591.78 0.218225 -1.56082 0
M  V30 38420 C 3593.03 0.940189 -1.78447 0
M  V30 38421 C 3593.34 1.85368 -0.62435 0
M  V30 38422 O 3594.55 2.61454 -0.731715 0
M  V30 38423 C 3593.01 1.72202 -3.16029 0
M  V30 38424 C 3592.61 0.854507 -4.39775 0
M  V30 38425 C 3594.36 2.435 -3.47718 0
M  V30 38426 C 3592.27 1.63388 -5.68382 0
M  V30 38427 H 3591.2 0.354795 -0.665309 0
M  V30 38428 H 3593.85 0.193989 -1.82472 0
M  V30 38429 H 3592.23 2.51125 -3.0619 0
M  V30 38430 H 3593.4 0.105578 -4.60679 0
M  V30 38431 H 3591.72 0.253489 -4.15628 0
M  V30 38432 H 3594.31 3.02318 -4.41031 0
M  V30 38433 H 3594.66 3.16551 -2.70373 0
M  V30 38434 H 3595.19 1.71564 -3.58902 0
M  V30 38435 H 3591.93 0.94659 -6.48629 0
M  V30 38436 H 3591.45 2.35734 -5.51534 0
M  V30 38437 H 3593.13 2.1937 -6.08676 0
M  V30 38438 N 3593.26 1.4995 0.485059 0
M  V30 38439 C 3594.49 1.63736 1.25993 0
M  V30 38440 C 3594.9 0.314383 1.8657 0
M  V30 38441 O 3594.24 -0.71208 1.69337 0
M  V30 38442 C 3594.3 2.65998 2.41837 0
M  V30 38443 C 3593.97 4.0993 2.02007 0
M  V30 38444 C 3594.97 4.96238 1.5506 0
M  V30 38445 C 3592.65 4.55762 2.11154 0
M  V30 38446 C 3594.64 6.26423 1.17785 0
M  V30 38447 C 3592.33 5.85956 1.7349 0
M  V30 38448 C 3593.33 6.71111 1.26882 0
M  V30 38449 O 3593.02 7.98876 0.89735 0
M  V30 38450 H 3592.75 0.55375 0.387733 0
M  V30 38451 H 3595.3 1.96832 0.587066 0
M  V30 38452 H 3593.53 2.28115 3.1225 0
M  V30 38453 H 3595.22 2.69148 3.03832 0
M  V30 38454 H 3595.99 4.6205 1.47426 0
M  V30 38455 H 3591.87 3.89637 2.46382 0
M  V30 38456 H 3595.41 6.92842 0.813345 0
M  V30 38457 H 3591.31 6.19669 1.80779 0
M  V30 38458 H 3592.08 8.12026 1.02743 0
M  V30 38459 N 3594.74 -0.737255 1.39292 0
M  V30 38460 C 3595.67 -1.8645 1.40565 0
M  V30 38461 C 3596.65 -1.67955 0.269312 0
M  V30 38462 O 3597.84 -1.88306 0.474802 0
M  V30 38463 C 3594.97 -3.24173 1.24615 0
M  V30 38464 C 3593.92 -3.57302 2.35625 0
M  V30 38465 C 3593.25 -4.93938 2.04767 0
M  V30 38466 C 3594.55 -3.60505 3.77933 0
M  V30 38467 H 3596.24 -1.85642 2.34899 0
M  V30 38468 H 3593.79 -0.891736 1.13067 0
M  V30 38469 H 3595.74 -4.02704 1.24128 0
M  V30 38470 H 3594.46 -3.25503 0.267496 0
M  V30 38471 H 3593.12 -2.811 2.35327 0
M  V30 38472 H 3592.77 -4.91845 1.05345 0
M  V30 38473 H 3592.47 -5.17071 2.79126 0
M  V30 38474 H 3593.99 -5.74828 2.05925 0
M  V30 38475 H 3595.41 -4.29117 3.80173 0
M  V30 38476 H 3593.8 -3.95156 4.51633 0
M  V30 38477 H 3594.87 -2.6036 4.09073 0
M  V30 38478 N 3596.22 -1.24431 -0.967199 0
M  V30 38479 C 3597.44 -1.11229 -1.75051 0
M  V30 38480 C 3597.87 0.331106 -1.85163 0
M  V30 38481 O 3597.23 1.23972 -1.3229 0
M  V30 38482 C 3597.27 -1.75738 -3.14879 0
M  V30 38483 O 3596.38 -1.02849 -3.99369 0
M  V30 38484 H 3595.72 -0.38907 -0.538071 0
M  V30 38485 H 3598.25 -1.64749 -1.21322 0
M  V30 38486 H 3598.26 -1.81515 -3.65399 0
M  V30 38487 H 3596.93 -2.80759 -3.06834 0
M  V30 38488 H 3595.51 -1.04862 -3.57852 0
M  V30 38489 N 3597.7 1.16795 -1.05814 0
M  V30 38490 C 3598.63 2.20581 -0.622623 0
M  V30 38491 C 3599.64 1.59686 0.316877 0
M  V30 38492 O 3600.83 1.78169 0.108626 0
M  V30 38493 C 3597.93 3.38728 0.108065 0
M  V30 38494 C 3597.1 4.29186 -0.843705 0
M  V30 38495 C 3596.16 5.25977 -0.153143 0
M  V30 38496 O 3595.19 5.63702 -0.78925 0
M  V30 38497 N 3596.39 5.69845 1.10711 0
M  V30 38498 H 3599.15 2.58567 -1.51536 0
M  V30 38499 H 3596.72 1.31757 -0.940838 0
M  V30 38500 H 3598.71 4.00518 0.580325 0
M  V30 38501 H 3597.28 2.99287 0.902547 0
M  V30 38502 H 3596.5 3.64733 -1.49545 0
M  V30 38503 H 3597.79 4.86508 -1.48954 0
M  V30 38504 H 3597.18 5.41281 1.64413 0
M  V30 38505 H 3595.74 6.33749 1.52333 0
M  V30 38506 N 3599.17 0.840037 1.33346 0
M  V30 38507 C 3600.12 0.246133 2.26668 0
M  V30 38508 C 3601.11 -0.599553 1.49312 0
M  V30 38509 O 3602.3 -0.45133 1.71149 0
M  V30 38510 C 3599.43 -0.576864 3.38419 0
M  V30 38511 C 3598.51 0.280397 4.23172 0
M  V30 38512 N 3598.91 1.35967 4.87182 0
M  V30 38513 C 3597.2 0.0676288 4.45949 0
M  V30 38514 C 3597.9 1.88586 5.50282 0
M  V30 38515 N 3596.88 1.18717 5.30478 0
M  V30 38516 H 3600.68 1.07145 2.73673 0
M  V30 38517 H 3598.2 0.684612 1.47264 0
M  V30 38518 H 3600.19 -1.01864 4.04264 0
M  V30 38519 H 3598.85 -1.40015 2.92961 0
M  V30 38520 H 3599.86 1.74257 4.87704 0
M  V30 38521 H 3596.54 -0.722116 4.11208 0
M  V30 38522 H 3597.93 2.78974 6.11247 0
M  V30 38523 N 3600.65 -1.45872 0.596582 0
M  V30 38524 C 3601.9 -2.0152 0.0851331 0
M  V30 38525 C 3602.21 -1.4721 -1.28796 0
M  V30 38526 O 3603.42 -1.94765 -1.89153 0
M  V30 38527 C 3601.88 -3.59757 0.101551 0
M  V30 38528 C 3601.48 -4.23063 1.47382 0
M  V30 38529 C 3603.23 -4.23011 -0.355229 0
M  V30 38530 C 3601.13 -5.73419 1.44721 0
M  V30 38531 H 3600.06 -0.753478 0.0280576 0
M  V30 38532 H 3602.72 -1.6746 0.750285 0
M  V30 38533 H 3601.1 -3.90956 -0.630039 0
M  V30 38534 H 3602.27 -4.03454 2.22624 0
M  V30 38535 H 3600.59 -3.71959 1.87177 0
M  V30 38536 H 3603.18 -5.33245 -0.394142 0
M  V30 38537 H 3603.53 -3.92914 -1.37566 0
M  V30 38538 H 3604.06 -3.96489 0.322739 0
M  V30 38539 H 3600.8 -6.08198 2.44489 0
M  V30 38540 H 3600.32 -5.95252 0.737207 0
M  V30 38541 H 3602 -6.36405 1.16609 0
M  V30 38542 N 3602.13 -0.335122 -1.53996 0
M  V30 38543 C 3603.35 0.268292 -2.05657 0
M  V30 38544 C 3603.78 1.441 -1.209 0
M  V30 38545 O 3603.14 1.79951 -0.220769 0
M  V30 38546 C 3603.19 0.669419 -3.54332 0
M  V30 38547 O 3602.29 1.77045 -3.72463 0
M  V30 38548 H 3601.63 0.0462588 -0.662387 0
M  V30 38549 H 3604.16 -0.486889 -1.98722 0
M  V30 38550 H 3604.17 0.948902 -3.96812 0
M  V30 38551 H 3602.85 -0.188241 -4.15474 0
M  V30 38552 H 3601.42 1.48889 -3.41887 0
M  V30 38553 N 3603.61 1.57472 -0.0635475 0
M  V30 38554 C 3605.02 1.80678 0.470341 0
M  V30 38555 C 3605.37 0.976801 1.70156 0
M  V30 38556 O 3604.49 0.196931 2.15502 0
M  V30 38557 C 3605.09 3.27701 0.860072 0
M  V30 38558 C 3603.65 3.51783 1.33887 0
M  V30 38559 C 3602.8 2.75447 0.32003 0
M  V30 38560 H 3605.75 1.5604 -0.289322 0
M  V30 38561 H 3605.77 3.39299 1.7221 0
M  V30 38562 H 3605.28 3.88083 -0.0362207 0
M  V30 38563 H 3603.38 2.96696 2.25394 0
M  V30 38564 H 3603.49 4.60486 1.32249 0
M  V30 38565 H 3601.86 2.41957 0.795558 0
M  V30 38566 H 3602.64 3.38562 -0.568392 0
M  V30 38567 N 3605.09 -0.209945 1.56195 0
M  V30 38568 C 3606.05 -1.2438 1.92516 0
M  V30 38569 C 3607.05 -1.3921 0.804817 0
M  V30 38570 O 3608.24 -1.37276 1.07243 0
M  V30 38571 C 3605.37 -2.6157 2.18618 0
M  V30 38572 H 3606.56 -0.933731 2.84994 0
M  V30 38573 H 3604.12 -0.450852 1.49656 0
M  V30 38574 H 3604.85 -2.97656 1.28729 0
M  V30 38575 H 3604.64 -2.52181 3.00245 0
M  V30 38576 H 3606.13 -3.36152 2.47773 0
M  V30 38577 N 3606.56 -1.50205 -0.4771 0
M  V30 38578 C 3607.47 -1.71405 -1.60179 0
M  V30 38579 C 3608.49 -0.597038 -1.63436 0
M  V30 38580 O 3609.67 -0.874646 -1.81416 0
M  V30 38581 C 3606.73 -1.79807 -2.96429 0
M  V30 38582 C 3605.79 -3.03514 -3.03608 0
M  V30 38583 C 3605.02 -3.11505 -4.33359 0
M  V30 38584 O 3605.25 -2.26447 -5.23525 0
M  V30 38585 O 3604.18 -4.04181 -4.46006 0
M  V30 38586 H 3608.01 -2.66732 -1.45216 0
M  V30 38587 H 3605.59 -1.34229 -0.655959 0
M  V30 38588 H 3607.47 -1.87549 -3.77364 0
M  V30 38589 H 3606.15 -0.876636 -3.11604 0
M  V30 38590 H 3605.06 -3.01276 -2.21773 0
M  V30 38591 H 3606.39 -3.95216 -2.93369 0
M  V30 38592 N 3608.04 0.729857 -1.39681 0
M  V30 38593 C 3609.46 1.03608 -1.21398 0
M  V30 38594 C 3609.66 2.01344 -0.0791656 0
M  V30 38595 O 3608.71 2.46039 0.567531 0
M  V30 38596 C 3610.03 1.59345 -2.55009 0
M  V30 38597 C 3611.58 1.714 -2.61899 0
M  V30 38598 C 3612.05 2.30545 -3.95744 0
M  V30 38599 N 3613.54 2.37948 -3.9741 0
M  V30 38600 C 3614.28 2.84661 -4.9775 0
M  V30 38601 N 3613.77 3.31232 -6.08487 0
M  V30 38602 N 3615.57 2.83917 -4.85126 0
M  V30 38603 H 3607.72 0.0817497 -2.12243 0
M  V30 38604 H 3609.98 0.098884 -0.942829 0
M  V30 38605 H 3609.69 0.949946 -3.38628 0
M  V30 38606 H 3609.56 2.58078 -2.75092 0
M  V30 38607 H 3611.95 2.34871 -1.78661 0
M  V30 38608 H 3612.03 0.713057 -2.45661 0
M  V30 38609 H 3611.67 1.677 -4.79415 0
M  V30 38610 H 3611.6 3.31326 -4.09305 0
M  V30 38611 H 3614.09 2.05039 -3.17439 0
M  V30 38612 H 3614.41 3.65402 -6.80956 0
M  V30 38613 H 3612.75 3.29228 -6.12073 0
M  V30 38614 H 3615.94 2.4686 -3.97715 0
M  V30 38615 H 3616.11 3.20007 -5.63471 0
M  V30 38616 N 3609.52 1.24942 0.960587 0
M  V30 38617 C 3610.48 1.04894 2.03789 0
M  V30 38618 C 3611.48 0.00378618 1.608 0
M  V30 38619 O 3612.67 0.24542 1.72463 0
M  V30 38620 C 3609.81 0.591368 3.35732 0
M  V30 38621 H 3611 2.0052 2.23006 0
M  V30 38622 H 3608.55 1.07265 1.13684 0
M  V30 38623 H 3609.29 -0.367759 3.22208 0
M  V30 38624 H 3609.07 1.34581 3.6828 0
M  V30 38625 H 3610.56 0.472356 4.1492 0
M  V30 38626 N 3611 -1.16233 1.06432 0
M  V30 38627 C 3611.93 -2.20248 0.634312 0
M  V30 38628 C 3612.94 -1.59852 -0.308404 0
M  V30 38629 O 3614.13 -1.78224 -0.0991754 0
M  V30 38630 C 3611.23 -3.3878 -0.0900998 0
M  V30 38631 C 3610.41 -4.28732 0.866454 0
M  V30 38632 C 3609.46 -5.25888 0.181035 0
M  V30 38633 O 3608.49 -5.63275 0.819133 0
M  V30 38634 N 3609.69 -5.70424 -1.07688 0
M  V30 38635 H 3612.46 -2.5776 1.52905 0
M  V30 38636 H 3610.02 -1.31256 0.947812 0
M  V30 38637 H 3612.01 -4.0082 -0.559076 0
M  V30 38638 H 3610.58 -2.99762 -0.886662 0
M  V30 38639 H 3609.8 -3.63935 1.51477 0
M  V30 38640 H 3611.09 -4.85711 1.51532 0
M  V30 38641 H 3610.49 -5.42145 -1.6154 0
M  V30 38642 H 3609.04 -6.34548 -1.4897 0
M  V30 38643 N 3612.48 -0.847097 -1.32899 0
M  V30 38644 C 3613.72 -0.447451 -1.97802 0
M  V30 38645 C 3614.06 0.992671 -1.66912 0
M  V30 38646 O 3613.33 1.69533 -0.953345 0
M  V30 38647 C 3613.61 -0.678197 -3.53656 0
M  V30 38648 C 3613.47 -2.16619 -3.94203 0
M  V30 38649 C 3614.79 -0.129667 -4.39909 0
M  V30 38650 H 3611.9 -0.164047 -0.718511 0
M  V30 38651 H 3614.55 -1.06413 -1.57405 0
M  V30 38652 H 3612.7 -0.15329 -3.88197 0
M  V30 38653 H 3614.37 -2.75659 -3.69878 0
M  V30 38654 H 3612.61 -2.64758 -3.43636 0
M  V30 38655 H 3613.28 -2.27836 -5.02787 0
M  V30 38656 H 3615.76 -0.578444 -4.1206 0
M  V30 38657 H 3614.63 -0.320744 -5.47962 0
M  V30 38658 H 3614.9 0.967092 -4.31393 0
M  V30 38659 N 3613.95 1.45554 -0.604309 0
M  V30 38660 C 3615.2 2.02561 -0.0983672 0
M  V30 38661 C 3615.53 1.47214 1.26656 0
M  V30 38662 O 3614.81 0.645551 1.83475 0
M  V30 38663 C 3615.09 3.60057 -0.0558981 0
M  V30 38664 C 3614.94 4.25745 -1.45126 0
M  V30 38665 C 3616.26 4.35515 0.633631 0
M  V30 38666 H 3613.38 0.73606 -0.03722 0
M  V30 38667 H 3616.02 1.73446 -0.775653 0
M  V30 38668 H 3614.17 3.84992 0.520868 0
M  V30 38669 H 3615.85 4.12004 -2.07485 0
M  V30 38670 H 3614.09 3.84272 -2.0129 0
M  V30 38671 H 3614.76 5.34631 -1.37382 0
M  V30 38672 H 3617.24 4.15853 0.143428 0
M  V30 38673 H 3616.11 5.45244 0.632442 0
M  V30 38674 H 3616.37 4.08146 1.6991 0
M  V30 38675 N 3615.43 0.343284 1.53816 0
M  V30 38676 C 3616.38 -0.529596 2.21764 0
M  V30 38677 C 3617.37 -1.06629 1.20495 0
M  V30 38678 O 3618.56 -1.00003 1.46042 0
M  V30 38679 C 3615.69 -1.68017 2.99375 0
M  V30 38680 C 3614.77 -1.15743 4.08001 0
M  V30 38681 N 3615.16 -0.355891 5.04546 0
M  V30 38682 C 3613.46 -1.43434 4.22306 0
M  V30 38683 C 3614.16 -0.0722459 5.81655 0
M  V30 38684 N 3613.14 -0.663815 5.39532 0
M  V30 38685 H 3616.94 0.0898603 2.93763 0
M  V30 38686 H 3614.46 0.150135 1.61705 0
M  V30 38687 H 3616.45 -2.31746 3.46554 0
M  V30 38688 H 3615.11 -2.3029 2.28903 0
M  V30 38689 H 3616.12 0.00300331 5.179 0
M  V30 38690 H 3612.8 -2.06149 3.63055 0
M  V30 38691 H 3614.19 0.57431 6.69441 0
M  V30 38692 N 3616.91 -1.57436 0.0718977 0
M  V30 38693 C 3617.84 -2.15756 -0.892842 0
M  V30 38694 C 3618.82 -1.08463 -1.31034 0
M  V30 38695 O 3620.01 -1.36499 -1.38137 0
M  V30 38696 C 3617.14 -2.71927 -2.16039 0
M  V30 38697 C 3616.09 -3.84387 -1.8823 0
M  V30 38698 C 3615.42 -4.27162 -3.21616 0
M  V30 38699 C 3616.72 -5.08622 -1.18749 0
M  V30 38700 H 3618.41 -2.96621 -0.407009 0
M  V30 38701 H 3615.96 -1.42683 -0.194329 0
M  V30 38702 H 3617.91 -3.11371 -2.83947 0
M  V30 38703 H 3616.63 -1.88283 -2.66865 0
M  V30 38704 H 3615.29 -3.45447 -1.22728 0
M  V30 38705 H 3614.94 -3.4044 -3.70283 0
M  V30 38706 H 3614.64 -5.02971 -3.038 0
M  V30 38707 H 3616.16 -4.69222 -3.90721 0
M  V30 38708 H 3617.58 -5.45381 -1.76726 0
M  V30 38709 H 3615.98 -5.89709 -1.11191 0
M  V30 38710 H 3617.05 -4.84614 -0.166597 0
M  V30 38711 N 3618.39 0.201658 -1.56305 0
M  V30 38712 C 3619.32 1.25277 -1.97048 0
M  V30 38713 C 3620.3 1.47828 -0.841484 0
M  V30 38714 O 3621.48 1.59676 -1.10532 0
M  V30 38715 C 3618.61 2.59841 -2.30434 0
M  V30 38716 C 3617.57 2.51914 -3.4601 0
M  V30 38717 C 3616.89 3.90691 -3.65054 0
M  V30 38718 C 3618.19 2.04983 -4.80395 0
M  V30 38719 H 3619.89 0.914222 -2.85101 0
M  V30 38720 H 3617.43 0.438335 -1.37166 0
M  V30 38721 H 3619.39 3.3355 -2.57531 0
M  V30 38722 H 3618.11 2.95424 -1.39256 0
M  V30 38723 H 3616.77 1.80661 -3.18994 0
M  V30 38724 H 3616.42 4.23615 -2.71218 0
M  V30 38725 H 3616.12 3.86264 -4.42803 0
M  V30 38726 H 3617.64 4.66032 -3.9452 0
M  V30 38727 H 3619.06 2.68447 -5.06566 0
M  V30 38728 H 3617.45 2.11572 -5.61567 0
M  V30 38729 H 3618.52 1.00279 -4.74418 0
M  V30 38730 N 3619.87 1.50456 0.469128 0
M  V30 38731 C 3621.09 1.65577 1.24896 0
M  V30 38732 C 3621.52 0.339614 1.85009 0
M  V30 38733 O 3620.87 -0.696745 1.67377 0
M  V30 38734 C 3620.92 2.75045 2.332 0
M  V30 38735 O 3620.03 2.36435 3.37894 0
M  V30 38736 H 3619.37 0.553126 0.367353 0
M  V30 38737 H 3621.9 1.96843 0.558048 0
M  V30 38738 H 3621.91 2.98181 2.78482 0
M  V30 38739 H 3620.58 3.70567 1.88819 0
M  V30 38740 H 3619.16 2.23753 2.9831 0
M  V30 38741 N 3621.34 -0.722439 1.40066 0
M  V30 38742 C 3622.57 -1.5116 1.41273 0
M  V30 38743 C 3622.99 -1.88797 0.0105756 0
M  V30 38744 O 3622.34 -1.54972 -0.96384 0
M  V30 38745 C 3622.4 -2.79127 2.29718 0
M  V30 38746 O 3622.12 -2.43084 3.64475 0
M  V30 38747 C 3623.62 -3.73071 2.39443 0
M  V30 38748 H 3620.84 -0.466719 0.482094 0
M  V30 38749 H 3623.38 -0.891704 1.84035 0
M  V30 38750 H 3621.54 -3.37418 1.90336 0
M  V30 38751 H 3621.95 -3.25376 4.11377 0
M  V30 38752 H 3623.42 -4.5972 3.05551 0
M  V30 38753 H 3623.9 -4.157 1.41738 0
M  V30 38754 H 3624.51 -3.20694 2.79348 0
M  V30 38755 N 3622.82 -1.2545 -0.953947 0
M  V30 38756 C 3623.76 -1.00215 -2.05017 0
M  V30 38757 C 3624.73 0.0688277 -1.62454 0
M  V30 38758 O 3625.92 -0.0709683 -1.88366 0
M  V30 38759 C 3623.05 -0.515046 -3.34761 0
M  V30 38760 C 3622.09 -1.57666 -3.96287 0
M  V30 38761 S 3622.92 -3.16204 -4.32175 0
M  V30 38762 C 3624.08 -2.6923 -5.65036 0
M  V30 38763 H 3624.31 -1.93036 -2.26107 0
M  V30 38764 H 3621.85 -1.08987 -1.09367 0
M  V30 38765 H 3623.8 -0.240652 -4.09794 0
M  V30 38766 H 3622.47 0.39267 -3.11636 0
M  V30 38767 H 3621.66 -1.18655 -4.89834 0
M  V30 38768 H 3621.26 -1.80177 -3.27738 0
M  V30 38769 H 3623.55 -2.12899 -6.4318 0
M  V30 38770 H 3624.5 -3.61419 -6.08919 0
M  V30 38771 H 3624.9 -2.09205 -5.24303 0
M  V30 38772 N 3624.3 1.15667 -1.07047 0
M  V30 38773 C 3625.58 1.82454 -0.704974 0
M  V30 38774 C 3625.96 1.94821 0.812887 0
M  V30 38775 O 3625.31 1.49724 1.72612 0
M  V30 38776 C 3625.52 3.18992 -1.4158 0
M  V30 38777 C 3626.86 3.9467 -1.56591 0
M  V30 38778 O 3627.89 3.28536 -1.37632 0
M  V30 38779 O 3626.75 5.13233 -1.8776 0
M  V30 38780 H 3623.84 0.788154 -0.250483 0
M  V30 38781 H 3626.39 1.22804 -1.17121 0
M  V30 38782 H 3625.16 3.05071 -2.45046 0
M  V30 38783 H 3624.78 3.86325 -0.940139 0
M  V30 38784 N 3625.78 0.854133 1.32447 0
M  V30 38785 C 3627 0.470342 2.01996 0
M  V30 38786 C 3627.43 -0.925196 1.63773 0
M  V30 38787 O 3626.79 -1.60765 0.838117 0
M  V30 38788 C 3626.84 0.616363 3.55293 0
M  V30 38789 O 3625.94 -0.351061 4.10903 0
M  V30 38790 H 3625.28 0.18909 0.636507 0
M  V30 38791 H 3627.81 1.15318 1.69006 0
M  V30 38792 H 3627.82 0.503695 4.04879 0
M  V30 38793 H 3626.5 1.63402 3.82456 0
M  V30 38794 H 3625.07 -0.194675 3.72391 0
M  V30 38795 N 3627.26 -1.45231 0.61202 0
M  V30 38796 C 3628.67 -1.85695 0.193497 0
M  V30 38797 C 3629.02 -1.51172 -1.25066 0
M  V30 38798 O 3628.14 -0.940531 -1.94892 0
M  V30 38799 C 3628.74 -3.37045 0.344393 0
M  V30 38800 C 3627.3 -3.76395 -0.0194717 0
M  V30 38801 C 3626.45 -2.69165 0.666761 0
M  V30 38802 H 3629.4 -1.35969 0.818419 0
M  V30 38803 H 3629.42 -3.78151 -0.422143 0
M  V30 38804 H 3628.93 -3.6214 1.39556 0
M  V30 38805 H 3627.03 -3.56916 -1.06965 0
M  V30 38806 H 3627.14 -4.77612 0.377268 0
M  V30 38807 H 3625.51 -2.54488 0.103957 0
M  V30 38808 H 3626.29 -2.97095 1.72015 0
M  V30 38809 N 3628.74 -0.351436 -1.53632 0
M  V30 38810 C 3629.7 0.489254 -2.23917 0
M  V30 38811 C 3630.7 1.02121 -1.24209 0
M  V30 38812 O 3631.89 0.909209 -1.4859 0
M  V30 38813 C 3629.02 1.68236 -2.96495 0
M  V30 38814 H 3630.21 -0.125571 -2.99637 0
M  V30 38815 H 3627.77 -0.102901 -1.55961 0
M  V30 38816 H 3628.5 2.33567 -2.24982 0
M  V30 38817 H 3628.29 1.30803 -3.69639 0
M  V30 38818 H 3629.78 2.27847 -3.49965 0
M  V30 38819 N 3630.21 1.57396 -0.0802459 0
M  V30 38820 C 3631.44 1.98557 0.599145 0
M  V30 38821 C 3631.86 0.958583 1.61842 0
M  V30 38822 O 3631.22 -0.0747907 1.81146 0
M  V30 38823 C 3631.27 3.3873 1.23669 0
M  V30 38824 O 3630.37 3.38716 2.35256 0
M  V30 38825 H 3629.71 0.646048 0.153355 0
M  V30 38826 H 3632.24 2.03995 -0.157263 0
M  V30 38827 H 3632.25 3.761 1.58154 0
M  V30 38828 H 3630.93 4.13005 0.489874 0
M  V30 38829 H 3629.51 3.13125 2.02502 0
M  V30 38830 N 3631.69 -0.193366 1.56409 0
M  V30 38831 C 3632.92 -0.929643 1.84838 0
M  V30 38832 C 3633.33 -1.76778 0.662959 0
M  V30 38833 O 3632.69 -1.78745 -0.368307 0
M  V30 38834 C 3632.74 -1.8244 3.12087 0
M  V30 38835 O 3632.46 -1.0201 4.26058 0
M  V30 38836 C 3633.96 -2.67221 3.53706 0
M  V30 38837 H 3631.18 -0.271157 0.613771 0
M  V30 38838 H 3633.73 -0.200098 2.03519 0
M  V30 38839 H 3631.88 -2.50754 2.95298 0
M  V30 38840 H 3632.3 -1.62999 4.98529 0
M  V30 38841 H 3633.77 -3.25656 4.45704 0
M  V30 38842 H 3634.25 -3.41014 2.76777 0
M  V30 38843 H 3634.85 -2.04274 3.73031 0
M  V30 38844 O 3633.21 -1.57911 -0.33857 0
M  V30 38845 H 3633.9 -1.66614 -0.987908 0
M  V30 END ATOM
M  V30 BEGIN BOND
M  V30 END BOND
M  V30 END CTAB
M  END
$$$$
