drugbank_target|O06644 Formyl-CoA:oxalate CoA-transferase (DB01846; DB01992)
 OpenBabel12092119523D

  0  0  0     0  0            999 V3000
M  V30 BEGIN CTAB
M  V30 COUNTS 6583 6657 0 0 0
M  V30 BEGIN ATOM
M  V30 1 H -0.908 1.98254 -0.117106 0
M  V30 2 N 0 1.576 0 0
M  V30 3 C 0.933 2.03868 1.02534 0
M  V30 4 C 1.911 0.928543 1.3348 0
M  V30 5 O 3.095 1.19667 1.45644 0
M  V30 6 C 0.222 2.43627 2.35294 0
M  V30 7 C -0.732 3.65373 2.2001 0
M  V30 8 S 0.101 5.13292 1.52614 0
M  V30 9 C 1.257 5.56322 2.86805 0
M  V30 10 H 1.49 2.90518 0.631377 0
M  V30 11 H -0.977 1.52953 0.210867 0
M  V30 12 H 0.981 2.67203 3.11629 0
M  V30 13 H -0.358 1.57376 2.7183 0
M  V30 14 H -1.165 3.90944 3.18086 0
M  V30 15 H -1.563 3.418 1.51819 0
M  V30 16 H 0.729 5.58782 3.83104 0
M  V30 17 H 1.672 6.56266 2.65933 0
M  V30 18 H 2.08 4.83886 2.90714 0
M  V30 19 N 1.4781 -0.272755 1.55222 0
M  V30 20 C 2.7061 -1.02255 1.79865 0
M  V30 21 C 3.1211 -1.79924 0.572088 0
M  V30 22 O 2.4781 -1.76638 -0.458842 0
M  V30 23 C 2.5291 -1.98094 3.02392 0
M  V30 24 O 2.2501 -1.23572 4.20311 0
M  V30 25 C 3.7511 -2.84884 3.39641 0
M  V30 26 H 0.9711 -0.302057 0.599168 0
M  V30 27 H 3.5151 -0.303465 2.02236 0
M  V30 28 H 1.6701 -2.65465 2.82147 0
M  V30 29 H 2.0841 -1.88172 4.89583 0
M  V30 30 H 3.5581 -3.47927 4.28545 0
M  V30 31 H 4.0351 -3.54665 2.59055 0
M  V30 32 H 4.6411 -2.23003 3.62146 0
M  V30 33 N 2.9562 -1.48159 -0.537278 0
M  V30 34 C 3.9032 -1.62138 -1.64256 0
M  V30 35 C 4.8732 -0.463668 -1.59497 0
M  V30 36 O 6.0582 -0.686241 -1.78032 0
M  V30 37 C 3.1982 -1.66028 -3.02537 0
M  V30 38 C 2.3112 -2.92855 -3.17585 0
M  V30 39 C 1.4462 -2.87952 -4.46382 0
M  V30 40 C 0.4852 -4.09516 -4.54932 0
M  V30 41 N -0.3778 -4.02733 -5.75109 0
M  V30 42 H 4.4622 -2.56529 -1.51647 0
M  V30 43 H 1.9992 -1.27224 -0.738414 0
M  V30 44 H 3.9572 -1.66265 -3.82638 0
M  V30 45 H 2.5872 -0.751331 -3.13934 0
M  V30 46 H 1.6392 -3.02395 -2.30784 0
M  V30 47 H 2.9512 -3.82822 -3.19764 0
M  V30 48 H 2.1052 -2.8655 -5.34765 0
M  V30 49 H 0.8442 -1.95702 -4.46712 0
M  V30 50 H -0.1508 -4.11201 -3.64957 0
M  V30 51 H 1.0742 -5.02917 -4.56346 0
M  V30 52 H -0.9798 -3.13299 -5.76351 0
M  V30 53 H -1.0628 -4.86397 -5.78752 0
M  V30 54 H 0.2052 -4.05379 -6.65799 0
M  V30 55 N 4.4343 0.785586 -1.36625 0
M  V30 56 C 5.8453 1.36101 -1.27803 0
M  V30 57 C 6.1963 1.96035 0.0804875 0
M  V30 58 O 5.3213 1.92834 0.982042 0
M  V30 59 C 5.9163 2.47442 -2.31426 0
M  V30 60 C 4.4753 3.00789 -2.26281 0
M  V30 61 C 3.6223 1.73896 -2.15999 0
M  V30 62 H 6.5733 0.586928 -1.47448 0
M  V30 63 H 6.5943 3.2656 -1.95291 0
M  V30 64 H 6.1063 2.03791 -3.30289 0
M  V30 65 H 4.2073 3.48851 -1.30896 0
M  V30 66 H 4.3203 3.57343 -3.19128 0
M  V30 67 H 2.6843 1.9628 -1.62316 0
M  V30 68 H 3.4673 1.32368 -3.16755 0
M  V30 69 N 5.9124 1.20967 1.01018 0
M  V30 70 C 6.8424 0.988272 2.11555 0
M  V30 71 C 7.8234 -0.0849778 1.69888 0
M  V30 72 O 9.0084 0.0738202 1.9406 0
M  V30 73 C 6.1384 0.546528 3.42973 0
M  V30 74 C 5.0924 1.56375 3.9841 0
M  V30 75 C 4.4184 0.97842 5.25672 0
M  V30 76 C 5.7184 2.94922 4.31066 0
M  V30 77 H 7.4124 1.91276 2.30334 0
M  V30 78 H 4.9584 0.921073 1.1069 0
M  V30 79 H 6.9114 0.378839 4.19694 0
M  V30 80 H 5.6354 -0.413598 3.23971 0
M  V30 81 H 4.2944 1.71891 3.23804 0
M  V30 82 H 3.9424 0.0101688 5.02999 0
M  V30 83 H 3.6424 1.65784 5.63728 0
M  V30 84 H 5.1664 0.821939 6.05043 0
M  V30 85 H 6.5804 2.8288 4.9865 0
M  V30 86 H 4.9774 3.5983 4.80253 0
M  V30 87 H 6.0474 3.4616 3.39561 0
M  V30 88 N 7.3905 -1.2043 1.01659 0
M  V30 89 C 8.6675 -1.8548 0.621004 0
M  V30 90 C 9.0475 -1.9091 -0.900919 0
M  V30 91 O 8.3955 -1.41694 -1.79263 0
M  V30 92 C 8.6055 -3.25119 1.2688 0
M  V30 93 C 9.9535 -4.01403 1.38423 0
M  V30 94 O 10.9775 -3.34473 1.22501 0
M  V30 95 O 9.8365 -5.21265 1.64151 0
M  V30 96 H 6.9305 -0.798761 0.214266 0
M  V30 97 H 9.4765 -1.28019 1.11396 0
M  V30 98 H 8.2485 -3.15932 2.30873 0
M  V30 99 H 7.8715 -3.90212 0.762917 0
M  V30 100 N 8.8686 -0.792821 -1.36206 0
M  V30 101 C 10.1166 -0.366062 -1.98757 0
M  V30 102 C 10.4376 1.0668 -1.63231 0
M  V30 103 O 9.7076 1.73587 -0.907978 0
M  V30 104 H 8.2876 -0.132364 -0.735179 0
M  V30 105 H 10.9496 -1.01562 -1.66347 0
M  V30 106 H 10.0456 -0.460638 -3.08682 0
M  V30 107 N 10.3467 1.47872 -0.545128 0
M  V30 108 C 11.5957 2.01695 -0.0145033 0
M  V30 109 C 11.9087 1.42609 1.33873 0
M  V30 110 O 13.1147 1.88021 1.95858 0
M  V30 111 C 11.5707 3.59892 0.0245068 0
M  V30 112 C 11.1787 4.27966 -1.32475 0
M  V30 113 C 12.9227 4.21507 0.50316 0
M  V30 114 C 10.8297 5.78136 -1.2455 0
M  V30 115 H 9.7597 0.753998 -0.00165172 0
M  V30 116 H 12.4107 1.69985 -0.691175 0
M  V30 117 H 10.7927 3.88509 0.766575 0
M  V30 118 H 11.9667 4.11003 -2.08357 0
M  V30 119 H 10.2817 3.78286 -1.74036 0
M  V30 120 H 12.8787 5.31538 0.580656 0
M  V30 121 H 13.2217 3.87855 1.51243 0
M  V30 122 H 13.7547 3.97376 -0.183681 0
M  V30 123 H 10.4937 6.16388 -2.23039 0
M  V30 124 H 10.0137 5.97469 -0.528282 0
M  V30 125 H 11.6927 6.40099 -0.942488 0
M  V30 126 N 11.8248 0.280983 1.55075 0
M  V30 127 C 12.7728 -0.619864 2.24188 0
M  V30 128 C 13.7668 -1.15315 1.24092 0
M  V30 129 O 14.9728 -1.1061 1.42005 0
M  V30 130 H 11.3478 -0.218459 0.719569 0
M  V30 131 H 13.3188 -0.0141831 2.98397 0
M  V30 132 C 12.0678 -1.7899 2.98091 0
M  V30 133 H 11.3908 -1.38874 3.74905 0
M  V30 134 H 12.8308 -2.39672 3.49762 0
M  V30 135 C 11.2898 -2.68192 2.03899 0
M  V30 136 O 11.8198 -3.6872 1.594 0
M  V30 137 N 10.0258 -2.35488 1.70275 0
M  V30 138 H 9.5728 -1.53787 2.06658 0
M  V30 139 H 9.5308 -2.95442 1.07524 0
M  V30 140 N 13.3029 -1.57598 0.00835791 0
M  V30 141 C 14.5489 -1.91211 -0.675732 0
M  V30 142 C 14.8819 -0.883139 -1.72958 0
M  V30 143 O 14.1569 0.097016 -1.94258 0
M  V30 144 C 14.4399 -3.35379 -1.31123 0
M  V30 145 C 14.2929 -4.48999 -0.268356 0
M  V30 146 C 15.6119 -3.7912 -2.23508 0
M  V30 147 H 12.7309 -0.695374 -0.244179 0
M  V30 148 H 15.3729 -1.89901 0.0613655 0
M  V30 149 H 13.5229 -3.36626 -1.93946 0
M  V30 150 H 15.1949 -4.59887 0.360844 0
M  V30 151 H 13.4379 -4.31873 0.408482 0
M  V30 152 H 14.1089 -5.46851 -0.752218 0
M  V30 153 H 16.5849 -3.79477 -1.70693 0
M  V30 154 H 15.4609 -4.80729 -2.64936 0
M  V30 155 H 15.7219 -3.13455 -3.11766 0
M  V30 156 N 14.781 0.264519 -1.55364 0
M  V30 157 C 15.711 1.33121 -1.91836 0
M  V30 158 C 16.692 1.51101 -0.781192 0
M  V30 159 O 17.877 1.64003 -1.04003 0
M  V30 160 C 15.007 2.68921 -2.19769 0
M  V30 161 C 13.961 2.65661 -3.35571 0
M  V30 162 C 13.287 4.05093 -3.49004 0
M  V30 163 C 14.587 2.24187 -4.71739 0
M  V30 164 H 16.281 1.02844 -2.81182 0
M  V30 165 H 13.827 0.493286 -1.35287 0
M  V30 166 H 15.78 3.43663 -2.43872 0
M  V30 167 H 14.504 3.00799 -1.27231 0
M  V30 168 H 13.163 1.93377 -3.1145 0
M  V30 169 H 12.811 4.34206 -2.53917 0
M  V30 170 H 12.511 4.03804 -4.26868 0
M  V30 171 H 14.035 4.81561 -3.75408 0
M  V30 172 H 15.449 2.88654 -4.9533 0
M  V30 173 H 13.846 2.34044 -5.52579 0
M  V30 174 H 14.916 1.19327 -4.69988 0
M  V30 175 N 16.2591 1.48442 0.529413 0
M  V30 176 C 17.5361 1.46978 1.29062 0
M  V30 177 C 17.9161 0.181769 2.10316 0
M  V30 178 O 17.2641 -0.836481 2.12639 0
M  V30 179 C 17.4741 2.7321 2.17157 0
M  V30 180 C 18.8221 3.21562 2.77278 0
M  V30 181 O 19.8461 2.74131 2.27444 0
M  V30 182 O 18.7051 4.04094 3.67927 0
M  V30 183 H 15.7991 0.587003 0.582543 0
M  V30 184 H 18.3451 1.60676 0.546021 0
M  V30 185 H 17.1171 3.58465 1.56903 0
M  V30 186 H 16.7401 2.62235 2.98862 0
M  V30 187 N 17.7372 -0.778329 1.37039 0
M  V30 188 C 18.9842 -1.53665 1.31884 0
M  V30 189 C 19.3122 -1.9425 -0.0986303 0
M  V30 190 O 18.5672 -1.63832 -1.07041 0
M  V30 191 C 18.8662 -2.81845 2.19768 0
M  V30 192 C 18.5322 -2.60345 3.68146 0
M  V30 193 C 17.1942 -2.5419 4.08584 0
M  V30 194 C 19.5462 -2.40923 4.62175 0
M  V30 195 C 16.8742 -2.26594 5.41177 0
M  V30 196 C 19.2262 -2.14852 5.94997 0
M  V30 197 C 17.8902 -2.07137 6.34547 0
M  V30 198 H 17.1602 -0.562299 0.482598 0
M  V30 199 H 19.8072 -0.897069 1.69189 0
M  V30 200 H 18.1122 -3.50328 1.75436 0
M  V30 201 H 19.8092 -3.39692 2.13097 0
M  V30 202 H 16.3992 -2.65996 3.36072 0
M  V30 203 H 20.5832 -2.44673 4.31797 0
M  V30 204 H 15.8392 -2.19111 5.70789 0
M  V30 205 H 20.0132 -1.98822 6.67415 0
M  V30 206 H 17.6402 -1.85518 7.37216 0
M  V30 207 N 19.2153 -1.21501 -1.00376 0
M  V30 208 C 20.4433 -1.059 -1.77744 0
M  V30 209 C 20.8583 0.391125 -1.84704 0
M  V30 210 O 20.2153 1.27133 -1.30933 0
M  V30 211 C 20.2663 -1.65111 -3.21591 0
M  V30 212 O 19.9873 -3.0445 -3.15027 0
M  V30 213 C 21.4883 -1.54637 -4.15454 0
M  V30 214 H 18.7083 -0.371825 -0.558558 0
M  V30 215 H 21.2523 -1.60865 -1.26264 0
M  V30 216 H 19.4073 -1.14235 -3.70175 0
M  V30 217 H 19.8213 -3.3278 -4.0541 0
M  V30 218 H 21.2953 -2.00808 -5.14179 0
M  V30 219 H 21.7723 -0.501022 -4.36333 0
M  V30 220 H 22.3783 -2.04767 -3.72761 0
M  V30 221 N 20.6934 1.19889 -1.02296 0
M  V30 222 C 21.6434 2.20777 -0.56934 0
M  V30 223 C 22.6274 1.56379 0.378741 0
M  V30 224 O 23.8194 1.75859 0.200673 0
M  V30 225 C 20.9484 3.43196 0.0845077 0
M  V30 226 C 20.0344 4.14749 -0.88566 0
M  V30 227 N 20.4254 4.62584 -2.04573 0
M  V30 228 C 18.7234 4.40347 -0.707835 0
M  V30 229 C 19.4244 5.17466 -2.65714 0
M  V30 230 N 18.4004 5.0791 -1.93723 0
M  V30 231 H 22.2024 2.55434 -1.45365 0
M  V30 232 H 19.7164 1.35897 -0.88915 0
M  V30 233 H 21.7134 4.14707 0.427067 0
M  V30 234 H 20.3734 3.10042 0.964574 0
M  V30 235 H 21.3844 4.57597 -2.4254 0
M  V30 236 H 18.0614 4.17317 0.12364 0
M  V30 237 H 19.4514 5.64808 -3.63925 0
M  V30 238 N 22.1715 0.800033 1.35784 0
M  V30 239 C 23.4175 0.377901 1.99248 0
M  V30 240 C 23.7505 -1.05052 1.63333 0
M  V30 241 O 23.0255 -1.72768 0.893385 0
M  V30 242 C 23.3085 0.553922 3.55814 0
M  V30 243 C 23.1615 2.0268 4.01548 0
M  V30 244 C 24.4805 -0.0244802 4.40093 0
M  V30 245 H 21.5995 0.138782 0.723815 0
M  V30 246 H 24.2415 1.00835 1.61035 0
M  V30 247 H 22.3915 0.0172398 3.88496 0
M  V30 248 H 24.0635 2.62536 3.79305 0
M  V30 249 H 22.3065 2.5256 3.52698 0
M  V30 250 H 22.9775 2.10087 5.10458 0
M  V30 251 H 25.4535 0.433775 4.13833 0
M  V30 252 H 24.3295 0.128637 5.48749 0
M  V30 253 H 24.5905 -1.11758 4.27741 0
M  V30 254 N 23.6496 -1.47581 0.552962 0
M  V30 255 C 24.5816 -2.27997 -0.234533 0
M  V30 256 C 25.5946 -1.36753 -0.883321 0
M  V30 257 O 26.7836 -1.61612 -0.757889 0
M  V30 258 C 23.8836 -3.10879 -1.34935 0
M  V30 259 C 23.0566 -4.30056 -0.798158 0
M  V30 260 C 22.1156 -4.94567 -1.79694 0
M  V30 261 O 21.1416 -5.53087 -1.34474 0
M  V30 262 N 22.3436 -4.88878 -3.13015 0
M  V30 263 H 25.1086 -2.96222 0.455255 0
M  V30 264 H 22.6696 -1.57163 0.388761 0
M  V30 265 H 24.6616 -3.50903 -2.01616 0
M  V30 266 H 23.2316 -2.44924 -1.94244 0
M  V30 267 H 22.4516 -3.94174 0.0453079 0
M  V30 268 H 23.7396 -5.07152 -0.409173 0
M  V30 269 H 23.1376 -4.42526 -3.52402 0
M  V30 270 H 21.6946 -5.32934 -3.75266 0
M  V30 271 N 25.1277 -0.289203 -1.54924 0
M  V30 272 C 26.0907 0.579144 -2.21762 0
M  V30 273 C 27.0907 1.07047 -1.1999 0
M  V30 274 O 28.2807 0.968384 -1.44803 0
M  V30 275 C 25.4127 1.80055 -2.8947 0
M  V30 276 H 26.6057 -0.00464908 -2.999 0
M  V30 277 H 24.1587 -0.0399306 -1.56249 0
M  V30 278 H 24.8937 2.42449 -2.15381 0
M  V30 279 H 24.6787 1.45602 -3.64064 0
M  V30 280 H 26.1687 2.41773 -3.40493 0
M  V30 281 N 26.6058 1.57591 -0.0167156 0
M  V30 282 C 27.8538 1.90906 0.663285 0
M  V30 283 C 28.1748 0.892509 1.73376 0
M  V30 284 O 27.4448 -0.0677623 1.95783 0
M  V30 285 H 26.0248 0.704637 0.247983 0
M  V30 286 H 28.6868 1.94803 -0.0615909 0
M  V30 287 H 27.7828 2.9116 1.12393 0
M  V30 288 N 28.0839 -0.256276 1.55502 0
M  V30 289 C 29.4949 -0.826068 1.67431 0
M  V30 290 C 29.8459 -1.86396 0.612446 0
M  V30 291 O 28.9709 -2.15031 -0.243025 0
M  V30 292 C 29.5659 -1.50512 3.03532 0
M  V30 293 C 28.1249 -2.02273 3.17431 0
M  V30 294 C 27.2719 -0.870548 2.63281 0
M  V30 295 H 30.2229 -0.0322728 1.58667 0
M  V30 296 H 30.2439 -2.37279 2.97454 0
M  V30 297 H 29.7559 -0.749484 3.80794 0
M  V30 298 H 27.8569 -2.80746 2.44974 0
M  V30 299 H 27.9699 -2.22655 4.24219 0
M  V30 300 H 26.3339 -1.26851 2.20864 0
M  V30 301 H 27.1169 -0.128149 3.43061 0
M  V30 302 N 29.562 -1.4872 -0.521534 0
M  V30 303 C 30.525 -1.63379 -1.60748 0
M  V30 304 C 31.525 -0.50661 -1.52611 0
M  V30 305 O 32.715 -0.772601 -1.5613 0
M  V30 306 C 29.847 -1.61192 -3.00383 0
M  V30 307 H 31.04 -2.60217 -1.49087 0
M  V30 308 H 28.593 -1.37444 -0.744235 0
M  V30 309 H 29.328 -0.65863 -3.17541 0
M  V30 310 H 29.113 -2.43032 -3.07698 0
M  V30 311 H 30.603 -1.7466 -3.7932 0
M  V30 312 N 31.0401 0.771051 -1.3745 0
M  V30 313 C 32.2801 1.54264 -1.34096 0
M  V30 314 C 32.6441 1.91858 0.0737639 0
M  V30 315 O 33.8451 2.67797 0.23203 0
M  V30 316 C 32.1161 2.77326 -2.25445 0
M  V30 317 S 33.6751 3.67383 -2.39948 0
M  V30 318 H 30.4931 0.528122 -0.476034 0
M  V30 319 H 33.0951 0.906633 -1.73206 0
M  V30 320 H 31.7991 2.47788 -3.27153 0
M  V30 321 H 31.3301 3.45886 -1.87421 0
M  V30 322 H 33.3451 4.69334 -1.61059 0
M  V30 323 N 32.5182 1.22032 0.997298 0
M  V30 324 C 33.7462 1.06841 1.7718 0
M  V30 325 C 34.1612 -0.381325 1.84909 0
M  V30 326 O 33.5182 -1.26437 1.31605 0
M  V30 327 C 33.5692 1.66814 3.20711 0
M  V30 328 O 33.2902 3.06116 3.13408 0
M  V30 329 C 34.7912 1.56838 4.14628 0
M  V30 330 H 32.0112 0.374782 0.556578 0
M  V30 331 H 34.5552 1.61532 1.2541 0
M  V30 332 H 32.7102 1.16196 3.69564 0
M  V30 333 H 33.1242 3.34926 4.0364 0
M  V30 334 H 34.5982 2.03532 5.13107 0
M  V30 335 H 35.0752 0.524155 4.36061 0
M  V30 336 H 35.6812 2.06741 3.7167 0
M  V30 337 N 33.9963 -1.19345 1.0293 0
M  V30 338 C 34.9283 -2.22036 0.56857 0
M  V30 339 C 35.9413 -1.58865 -0.355779 0
M  V30 340 O 37.1303 -1.77851 -0.152103 0
M  V30 341 C 34.2303 -3.38363 -0.190752 0
M  V30 342 C 33.4033 -4.31118 0.738643 0
M  V30 343 C 32.4623 -5.26194 0.0246497 0
M  V30 344 O 31.4883 -5.65461 0.651354 0
M  V30 345 N 32.6903 -5.66971 -1.24594 0
M  V30 346 H 35.4553 -2.6219 1.45177 0
M  V30 347 H 33.0163 -1.34015 0.908381 0
M  V30 348 H 35.0083 -3.98981 -0.677961 0
M  V30 349 H 33.5783 -2.96994 -0.975366 0
M  V30 350 H 32.7983 -3.68276 1.40593 0
M  V30 351 H 34.0863 -4.90001 1.37029 0
M  V30 352 H 33.4843 -5.37104 -1.77583 0
M  V30 353 H 32.0413 -6.2984 -1.67764 0
M  V30 354 N 35.4744 -0.807222 -1.35358 0
M  V30 355 C 36.4074 -0.163572 -2.27613 0
M  V30 356 C 37.3854 0.670817 -1.48118 0
M  V30 357 O 38.5694 0.63796 -1.77376 0
M  V30 358 C 35.6964 0.773015 -3.29761 0
M  V30 359 C 34.7424 0.0181653 -4.26496 0
M  V30 360 S 35.5754 -1.31831 -5.19019 0
M  V30 361 C 36.7314 -0.38619 -6.24707 0
M  V30 362 H 36.9644 -0.945757 -2.81856 0
M  V30 363 H 34.4974 -0.602315 -1.42167 0
M  V30 364 H 36.4554 1.30788 -3.89108 0
M  V30 365 H 35.1164 1.52859 -2.74396 0
M  V30 366 H 34.3094 0.729534 -4.98692 0
M  V30 367 H 33.9114 -0.446761 -3.71322 0
M  V30 368 H 36.2034 0.428295 -6.76145 0
M  V30 369 H 37.1464 -1.07736 -6.99856 0
M  V30 370 H 37.5544 0.018398 -5.64497 0
M  V30 371 N 36.9525 1.47285 -0.560781 0
M  V30 372 C 37.8855 2.27009 0.232821 0
M  V30 373 C 38.8635 1.34273 0.917039 0
M  V30 374 O 40.0475 1.63659 0.935315 0
M  V30 375 C 37.1745 3.11406 1.33206 0
M  V30 376 C 36.2205 4.19746 0.756019 0
M  V30 377 S 37.0535 5.34003 -0.400165 0
M  V30 378 C 38.2095 6.21964 0.700805 0
M  V30 379 H 38.4425 2.93971 -0.443683 0
M  V30 380 H 35.9755 1.50446 -0.347181 0
M  V30 381 H 37.9335 3.60601 1.96156 0
M  V30 382 H 36.5945 2.438 1.98041 0
M  V30 383 H 35.7875 4.78541 1.5816 0
M  V30 384 H 35.3895 3.73451 0.202619 0
M  V30 385 H 37.6815 6.58529 1.59202 0
M  V30 386 H 38.6245 7.07941 0.150126 0
M  V30 387 H 39.0325 5.5566 0.995083 0
M  V30 388 N 38.4306 0.297415 1.54768 0
M  V30 389 C 39.6786 -0.312295 1.99673 0
M  V30 390 C 39.9996 -1.54686 1.18732 0
M  V30 391 O 39.2696 -1.93854 0.282382 0
M  V30 392 H 37.8496 -0.118381 0.73756 0
M  V30 393 H 40.5116 0.407915 1.90583 0
M  V30 394 H 39.6076 -0.586813 3.06534 0
M  V30 395 N 39.9087 -1.5758 0.0250728 0
M  V30 396 C 41.1557 -1.91633 -0.654444 0
M  V30 397 C 41.4837 -0.901103 -1.72367 0
M  V30 398 O 40.7387 0.0905647 -1.9549 0
M  V30 399 C 41.0377 -3.32421 -1.31268 0
M  V30 400 C 40.7037 -4.49344 -0.374223 0
M  V30 401 C 39.3657 -4.8106 -0.115911 0
M  V30 402 C 41.7177 -5.20498 0.270432 0
M  V30 403 C 39.0457 -5.8129 0.79493 0
M  V30 404 C 41.3977 -6.21699 1.1693 0
M  V30 405 C 40.0617 -6.51859 1.43655 0
M  V30 406 H 39.3317 -0.701236 -0.239478 0
M  V30 407 H 41.9787 -1.91307 0.0859734 0
M  V30 408 H 40.2837 -3.28989 -2.12775 0
M  V30 409 H 41.9807 -3.56038 -1.84494 0
M  V30 410 H 38.5707 -4.24579 -0.58573 0
M  V30 411 H 42.7547 -4.96229 0.0839194 0
M  V30 412 H 38.0107 -6.03005 1.00973 0
M  V30 413 H 42.1847 -6.75955 1.67504 0
M  V30 414 H 39.8117 -7.2934 2.144 0
M  V30 415 N 41.3868 0.248026 -1.55636 0
M  V30 416 C 42.3168 1.31079 -1.93237 0
M  V30 417 C 43.2978 1.50264 -0.797174 0
M  V30 418 O 44.4828 1.62891 -1.05737 0
M  V30 419 C 41.6128 2.66575 -2.22609 0
M  V30 420 C 40.5668 2.62087 -3.3837 0
M  V30 421 C 39.8928 4.01369 -3.53281 0
M  V30 422 C 41.1928 2.19171 -4.7409 0
M  V30 423 H 42.8868 0.998556 -2.82257 0
M  V30 424 H 40.4328 0.47891 -1.35803 0
M  V30 425 H 42.3858 3.41057 -2.47503 0
M  V30 426 H 41.1098 2.99432 -1.30414 0
M  V30 427 H 39.7688 1.90063 -3.13483 0
M  V30 428 H 39.4168 4.31489 -2.58508 0
M  V30 429 H 39.1168 3.99254 -4.31127 0
M  V30 430 H 40.6408 4.77552 -3.80495 0
M  V30 431 H 42.0548 2.83384 -4.98363 0
M  V30 432 H 40.4518 2.2817 -5.5503 0
M  V30 433 H 41.5218 1.14336 -4.71227 0
M  V30 434 N 42.8649 1.48995 0.513639 0
M  V30 435 C 44.1129 1.57531 1.26604 0
M  V30 436 C 44.4339 0.258236 1.93283 0
M  V30 437 O 43.7039 -0.721502 1.8213 0
M  V30 438 H 42.2839 0.580387 0.470276 0
M  V30 439 H 44.9459 1.85552 0.596373 0
M  V30 440 H 44.0419 2.36486 2.03669 0
M  V30 441 N 44.343 -0.763751 1.37857 0
M  V30 442 C 45.306 -1.85889 1.34081 0
M  V30 443 C 46.306 -1.58949 0.243277 0
M  V30 444 O 47.496 -1.66882 0.499589 0
M  V30 445 C 44.628 -3.23176 1.08489 0
M  V30 446 H 45.821 -1.90648 2.31502 0
M  V30 447 H 43.374 -0.964367 1.23003 0
M  V30 448 H 44.109 -3.24091 0.116318 0
M  V30 449 H 43.894 -3.44124 1.8794 0
M  V30 450 H 45.384 -4.03254 1.08517 0
M  V30 451 N 45.8211 -1.22559 -0.990812 0
M  V30 452 C 46.7691 -0.994798 -2.10253 0
M  V30 453 C 47.7631 0.0627798 -1.69284 0
M  V30 454 O 48.9691 -0.0898392 -1.79776 0
M  V30 455 H 45.3441 -0.304527 -0.687581 0
M  V30 456 H 47.3151 -1.93812 -2.26891 0
M  V30 457 C 46.0641 -0.591439 -3.42633 0
M  V30 458 H 45.3871 -1.3969 -3.74602 0
M  V30 459 H 46.8271 -0.469385 -4.21394 0
M  V30 460 C 45.2861 0.699232 -3.29564 0
M  V30 461 O 45.8161 1.75112 -3.61523 0
M  V30 462 N 44.0221 0.671182 -2.82743 0
M  V30 463 H 43.5691 -0.185136 -2.56934 0
M  V30 464 H 43.5271 1.53502 -2.7438 0
M  V30 465 N 47.2992 1.18797 -1.03562 0
M  V30 466 C 48.5452 1.8893 -0.737113 0
M  V30 467 C 48.8782 1.79837 0.732956 0
M  V30 468 O 48.1532 1.19525 1.5344 0
M  V30 469 C 48.4362 3.39607 -1.19745 0
M  V30 470 C 48.2892 3.57537 -2.72924 0
M  V30 471 C 49.6082 4.33069 -0.783526 0
M  V30 472 H 46.7272 0.686057 -0.269249 0
M  V30 473 H 49.3692 1.39797 -1.28673 0
M  V30 474 H 47.5192 3.81583 -0.729855 0
M  V30 475 H 49.1912 3.24688 -3.27682 0
M  V30 476 H 47.4342 3.00363 -3.12993 0
M  V30 477 H 48.1052 4.63238 -3.00191 0
M  V30 478 H 50.5812 3.98846 -1.18581 0
M  V30 479 H 49.4572 5.3707 -1.13343 0
M  V30 480 H 49.7182 4.40986 0.313681 0
M  V30 481 N 48.7773 0.814389 1.34928 0
M  V30 482 C 50.0263 0.394871 1.97797 0
M  V30 483 C 50.3393 -1.04555 1.65311 0
M  V30 484 O 51.5453 -1.56856 2.21604 0
M  V30 485 C 50.0013 0.655103 3.53888 0
M  V30 486 C 49.6093 2.10858 3.95276 0
M  V30 487 C 51.3533 0.301329 4.23429 0
M  V30 488 C 49.2603 2.31415 5.44244 0
M  V30 489 H 48.1903 0.143913 0.740139 0
M  V30 490 H 50.8413 0.999544 1.53888 0
M  V30 491 H 49.2233 -0.0196253 3.95995 0
M  V30 492 H 50.3973 2.82176 3.64298 0
M  V30 493 H 48.7123 2.42297 3.38646 0
M  V30 494 H 51.3093 0.432869 5.32945 0
M  V30 495 H 51.6523 -0.75331 4.09428 0
M  V30 496 H 52.1853 0.930288 3.86769 0
M  V30 497 H 48.9243 3.35353 5.63222 0
M  V30 498 H 48.4443 1.6463 5.76764 0
M  V30 499 H 50.1233 2.13352 6.10811 0
M  V30 500 N 50.2554 -1.46986 0.568584 0
M  V30 501 C 51.2024 -2.30153 -0.172707 0
M  V30 502 C 52.1724 -1.39759 -0.897586 0
M  V30 503 O 53.3574 -1.68716 -0.891044 0
M  V30 504 C 50.4974 -3.23952 -1.1895 0
M  V30 505 C 49.6104 -4.29441 -0.469517 0
M  V30 506 C 48.7454 -5.1038 -1.47259 0
M  V30 507 C 47.7844 -6.07632 -0.738225 0
M  V30 508 N 46.9214 -6.8149 -1.68868 0
M  V30 509 H 51.7614 -2.93019 0.542596 0
M  V30 510 H 49.2984 -1.44422 0.279401 0
M  V30 511 H 51.2564 -3.76767 -1.79173 0
M  V30 512 H 49.8864 -2.62926 -1.87269 0
M  V30 513 H 48.9384 -3.79594 0.247467 0
M  V30 514 H 50.2504 -4.98689 0.105241 0
M  V30 515 H 49.4044 -5.67402 -2.14803 0
M  V30 516 H 48.1434 -4.4106 -2.08128 0
M  V30 517 H 47.1484 -5.49778 -0.0489293 0
M  V30 518 H 48.3734 -6.78966 -0.135129 0
M  V30 519 H 46.3194 -6.14891 -2.28573 0
M  V30 520 H 46.2364 -7.46948 -1.16636 0
M  V30 521 H 47.5044 -7.43078 -2.3549 0
M  V30 522 N 51.7335 -0.305618 -1.54608 0
M  V30 523 C 52.9825 0.303098 -1.9941 0
M  V30 524 C 53.2955 1.54648 -1.19764 0
M  V30 525 O 54.5015 2.23007 -1.54855 0
M  V30 526 C 52.9575 0.590588 -3.55021 0
M  V30 527 C 52.5655 -0.634719 -4.43481 0
M  V30 528 C 54.3095 1.16025 -4.08336 0
M  V30 529 C 52.2165 -0.320126 -5.90533 0
M  V30 530 H 51.1465 0.117031 -0.744862 0
M  V30 531 H 53.7975 -0.415045 -1.78745 0
M  V30 532 H 52.1795 1.36845 -3.71604 0
M  V30 533 H 53.3535 -1.41079 -4.38672 0
M  V30 534 H 51.6685 -1.12333 -4.00962 0
M  V30 535 H 54.2655 1.40994 -5.15776 0
M  V30 536 H 54.6085 2.10397 -3.5922 0
M  V30 537 H 55.1415 0.443985 -3.95315 0
M  V30 538 H 51.8805 -1.23254 -6.43808 0
M  V30 539 H 51.4005 0.418579 -5.98338 0
M  V30 540 H 53.0795 0.0766241 -6.46955 0
M  V30 541 N 53.2116 1.57565 -0.0334293 0
M  V30 542 C 54.1216 2.13943 0.962572 0
M  V30 543 C 55.1376 1.09276 1.35406 0
M  V30 544 O 56.3136 1.41355 1.4346 0
M  V30 545 C 53.3786 2.65887 2.22497 0
M  V30 546 C 52.4396 3.85286 1.8935 0
M  V30 547 C 51.6726 4.34743 3.09571 0
M  V30 548 O 51.8956 3.83352 4.22371 0
M  V30 549 O 50.8296 5.26538 2.91618 0
M  V30 550 H 54.6556 2.99333 0.513169 0
M  V30 551 H 52.2406 1.4822 0.18743 0
M  V30 552 H 54.1226 2.99346 2.96598 0
M  V30 553 H 52.7976 1.83578 2.6661 0
M  V30 554 H 51.7046 3.56746 1.1262 0
M  V30 555 H 53.0376 4.68771 1.5005 0
M  V30 556 N 54.6897 -0.239769 1.55765 0
M  V30 557 C 56.1057 -0.588624 1.48349 0
M  V30 558 C 56.3057 -1.88005 0.72502 0
M  V30 559 O 55.3617 -2.51186 0.257269 0
M  V30 560 C 56.6747 -0.68474 2.928 0
M  V30 561 C 58.2227 -0.77659 3.03213 0
M  V30 562 C 58.6977 -0.904207 4.48986 0
M  V30 563 N 60.1887 -0.968896 4.52953 0
M  V30 564 C 60.9237 -1.08703 5.63002 0
M  V30 565 N 60.4197 -1.17026 6.82845 0
M  V30 566 N 62.2127 -1.12074 5.50814 0
M  V30 567 H 54.3637 0.607911 2.03515 0
M  V30 568 H 56.6267 0.21083 0.924259 0
M  V30 569 H 56.3327 0.194284 3.51163 0
M  V30 570 H 56.2067 -1.55435 3.43686 0
M  V30 571 H 58.5937 -1.64606 2.44926 0
M  V30 572 H 58.6747 0.118315 2.55526 0
M  V30 573 H 58.3187 -0.0392633 5.07885 0
M  V30 574 H 58.2487 -1.81426 4.9436 0
M  V30 575 H 60.7397 -0.915633 3.6664 0
M  V30 576 H 61.0527 -1.25966 7.62465 0
M  V30 577 H 59.3977 -1.13971 6.85591 0
M  V30 578 H 62.5887 -1.05226 4.5612 0
M  V30 579 H 62.7617 -1.20936 6.36615 0
M  V30 580 N 56.1678 -1.49265 -0.50573 0
M  V30 581 C 57.5838 -1.35923 -0.836486 0
M  V30 582 C 57.7838 -0.388704 -1.97715 0
M  V30 583 O 56.8398 0.181336 -2.51848 0
M  V30 584 C 58.1528 -2.76531 -1.18115 0
M  V30 585 C 59.7008 -2.85197 -1.28964 0
M  V30 586 C 60.1758 -4.26561 -1.66761 0
M  V30 587 N 61.6668 -4.2935 -1.73819 0
M  V30 588 C 62.4018 -5.35693 -2.045 0
M  V30 589 N 61.8978 -6.52287 -2.33438 0
M  V30 590 N 63.6908 -5.23105 -2.05711 0
M  V30 591 H 55.8418 -2.10965 0.246519 0
M  V30 592 H 58.1048 -0.9468 0.0476887 0
M  V30 593 H 57.8108 -3.49226 -0.416398 0
M  V30 594 H 57.6848 -3.11599 -2.1257 0
M  V30 595 H 60.0718 -2.12742 -2.04511 0
M  V30 596 H 60.1528 -2.53718 -0.325704 0
M  V30 597 H 59.7968 -4.99541 -0.917656 0
M  V30 598 H 59.7268 -4.55502 -2.64246 0
M  V30 599 H 62.2178 -3.4526 -1.53635 0
M  V30 600 H 62.5308 -7.29158 -2.56024 0
M  V30 601 H 60.8758 -6.55521 -2.30905 0
M  V30 602 H 64.0668 -4.31026 -1.82577 0
M  V30 603 H 64.2398 -6.06078 -2.29289 0
M  V30 604 N 57.6459 0.756429 -1.3826 0
M  V30 605 C 58.8939 1.51248 -1.34047 0
M  V30 606 C 59.2149 1.94875 0.0698372 0
M  V30 607 O 58.4849 1.67436 1.01696 0
M  V30 608 H 57.0649 0.561018 -0.493222 0
M  V30 609 H 59.7269 0.899347 -1.7291 0
M  V30 610 H 58.8229 2.40472 -1.98947 0
M  V30 611 N 59.124 1.23083 0.984299 0
M  V30 612 C 60.349 1.088 1.76571 0
M  V30 613 C 60.774 -0.356657 1.84688 0
M  V30 614 O 60.132 -1.25788 1.30565 0
M  V30 615 C 60.18 1.71371 3.17277 0
M  V30 616 O 59.284 0.973213 4.00752 0
M  V30 617 H 58.625 0.381599 0.543395 0
M  V30 618 H 61.155 1.63057 1.23587 0
M  V30 619 H 61.165 1.76449 3.67872 0
M  V30 620 H 59.84 2.76493 3.10684 0
M  V30 621 H 58.417 0.999078 3.59267 0
M  V30 622 N 60.6021 -1.18246 1.0419 0
M  V30 623 C 61.8501 -1.87886 0.744543 0
M  V30 624 C 62.1711 -1.8082 -0.730006 0
M  V30 625 O 61.4411 -1.22736 -1.52685 0
M  V30 626 H 60.0211 -0.695556 0.272417 0
M  V30 627 H 62.6831 -1.43494 1.31892 0
M  V30 628 H 61.7791 -2.9389 1.05049 0
M  V30 629 N 62.0802 -0.821533 -1.34494 0
M  V30 630 C 63.3572 -0.33159 -1.92769 0
M  V30 631 C 63.7372 1.18088 -1.74981 0
M  V30 632 O 63.0852 1.98733 -1.12772 0
M  V30 633 C 63.2952 -0.759398 -3.40638 0
M  V30 634 C 64.6432 -0.757433 -4.1779 0
M  V30 635 O 65.6672 -0.70189 -3.49216 0
M  V30 636 O 64.5262 -0.829361 -5.4017 0
M  V30 637 H 61.6202 -0.0902502 -0.822061 0
M  V30 638 H 64.1662 -0.906231 -1.43477 0
M  V30 639 H 62.9382 -1.8012 -3.47379 0
M  V30 640 H 62.5612 -0.160378 -3.97276 0
M  V30 641 N 63.5583 1.46682 -0.576371 0
M  V30 642 C 64.4913 2.27243 0.208731 0
M  V30 643 C 65.4693 1.35238 0.902746 0
M  V30 644 O 66.6533 1.64641 0.917904 0
M  V30 645 C 63.7803 3.12802 1.29896 0
M  V30 646 C 62.8263 4.20524 0.711457 0
M  V30 647 S 63.6593 5.33548 -0.456781 0
M  V30 648 C 64.8153 6.22673 0.634798 0
M  V30 649 H 65.0483 2.93484 -0.474838 0
M  V30 650 H 62.5813 1.50069 -0.363118 0
M  V30 651 H 64.5393 3.62661 1.92321 0
M  V30 652 H 63.2003 2.45887 1.95444 0
M  V30 653 H 62.3933 4.80191 1.53076 0
M  V30 654 H 61.9953 3.73645 0.162999 0
M  V30 655 H 64.2873 6.60181 1.52209 0
M  V30 656 H 65.2303 7.0806 0.0750311 0
M  V30 657 H 65.6383 5.56684 0.936092 0
M  V30 658 N 65.0364 0.313813 1.54444 0
M  V30 659 C 66.2644 -0.293918 2.04802 0
M  V30 660 C 66.6794 -1.46537 1.19047 0
M  V30 661 O 66.0364 -1.81182 0.218939 0
M  V30 662 C 66.0874 -0.737806 3.53891 0
M  V30 663 O 65.8084 0.387038 4.36387 0
M  V30 664 C 67.3094 -1.40936 4.203 0
M  V30 665 H 64.5294 -0.0620057 0.668129 0
M  V30 666 H 67.0734 0.457169 1.99324 0
M  V30 667 H 65.2284 -1.43889 3.59687 0
M  V30 668 H 65.6424 0.0391274 5.24485 0
M  V30 669 H 67.1164 -1.67099 5.26101 0
M  V30 670 H 67.5934 -2.35355 3.70816 0
M  V30 671 H 68.1994 -0.751117 4.18615 0
M  V30 672 N 66.5145 -1.57545 0.0417849 0
M  V30 673 C 67.9305 -1.56467 -0.314704 0
M  V30 674 C 68.1305 -1.04859 -1.72066 0
M  V30 675 O 67.1865 -0.700983 -2.42575 0
M  V30 676 C 68.4995 -3.00317 -0.15174 0
M  V30 677 C 70.0475 -3.12201 -0.223553 0
M  V30 678 C 70.5225 -4.57913 -0.0892295 0
M  V30 679 N 72.0135 -4.6297 -0.145808 0
M  V30 680 C 72.7485 -5.73362 -0.0658459 0
M  V30 681 N 72.2445 -6.92769 0.0659282 0
M  V30 682 N 74.0375 -5.6197 -0.12075 0
M  V30 683 H 66.1885 -1.89416 0.961014 0
M  V30 684 H 68.4515 -0.871862 0.372237 0
M  V30 685 H 68.1575 -3.42073 0.817254 0
M  V30 686 H 68.0315 -3.65892 -0.916692 0
M  V30 687 H 70.4185 -2.70349 -1.18301 0
M  V30 688 H 70.4995 -2.49323 0.571994 0
M  V30 689 H 70.1435 -5.00448 0.866867 0
M  V30 690 H 70.0735 -5.18786 -0.903802 0
M  V30 691 H 72.5645 -3.7709 -0.247286 0
M  V30 692 H 72.8775 -7.72707 0.119905 0
M  V30 693 H 71.2225 -6.94927 0.100885 0
M  V30 694 H 74.4135 -4.67572 -0.222187 0
M  V30 695 H 74.5865 -6.47977 -0.0549735 0
M  V30 696 N 67.9926 0.231505 -1.5589 0
M  V30 697 C 69.2406 0.955461 -1.78088 0
M  V30 698 C 69.5616 1.85262 -0.608533 0
M  V30 699 O 68.8316 1.92277 0.375035 0
M  V30 700 H 67.4116 0.355787 -0.656829 0
M  V30 701 H 70.0736 0.245751 -1.93344 0
M  V30 702 H 69.1696 1.56814 -2.69844 0
M  V30 703 N 69.4707 1.49531 0.497807 0
M  V30 704 C 70.7167 1.60388 1.25089 0
M  V30 705 C 71.0717 0.288328 1.90227 0
M  V30 706 O 70.3647 -0.711706 1.77891 0
M  V30 707 C 70.5587 2.70252 2.33878 0
M  V30 708 C 70.3877 4.12363 1.79408 0
M  V30 709 C 69.1577 4.7911 1.60566 0
M  V30 710 C 71.3557 4.97491 1.30412 0
M  V30 711 N 69.3377 6.05525 1.01059 0
M  V30 712 C 70.7087 6.14411 0.830595 0
M  V30 713 C 72.7637 4.83466 1.19015 0
M  V30 714 C 71.4667 7.1885 0.254371 0
M  V30 715 C 73.4927 5.88057 0.627892 0
M  V30 716 C 72.8547 7.04208 0.16461 0
M  V30 717 H 68.9537 0.641246 0.447579 0
M  V30 718 H 71.5377 1.86549 0.557441 0
M  V30 719 H 69.7087 2.45858 3.0068 0
M  V30 720 H 71.4407 2.70613 3.00917 0
M  V30 721 H 68.1957 4.35961 1.85026 0
M  V30 722 H 68.6197 6.73028 0.732236 0
M  V30 723 H 73.2617 3.93978 1.53431 0
M  V30 724 H 70.9797 8.08036 -0.102052 0
M  V30 725 H 74.5657 5.79266 0.542444 0
M  V30 726 H 73.4457 7.83757 -0.263669 0
M  V30 727 N 70.9488 -0.749086 1.3866 0
M  V30 728 C 71.8788 -1.8764 1.38973 0
M  V30 729 C 72.8598 -1.68178 0.255004 0
M  V30 730 O 74.0448 -1.88704 0.458754 0
M  V30 731 C 71.1748 -3.25222 1.21851 0
M  V30 732 C 70.1288 -3.59295 2.32575 0
M  V30 733 C 69.4548 -4.95663 2.00555 0
M  V30 734 C 70.7548 -3.63709 3.7485 0
M  V30 735 H 72.4488 -1.87635 2.3331 0
M  V30 736 H 69.9948 -0.901329 1.12303 0
M  V30 737 H 71.9478 -4.03746 1.20695 0
M  V30 738 H 70.6718 -3.25719 0.239775 0
M  V30 739 H 69.3308 -2.83093 2.32925 0
M  V30 740 H 68.9788 -4.92724 1.01154 0
M  V30 741 H 68.6788 -5.19429 2.74714 0
M  V30 742 H 70.2028 -5.7656 2.01024 0
M  V30 743 H 71.6168 -4.32338 3.76506 0
M  V30 744 H 70.0138 -3.98986 4.48252 0
M  V30 745 H 71.0838 -2.63834 4.06841 0
M  V30 746 N 72.4269 -1.23603 -0.977757 0
M  V30 747 C 73.3589 -0.977369 -2.07317 0
M  V30 748 C 74.3719 0.0495845 -1.62724 0
M  V30 749 O 75.5609 -0.186261 -1.77526 0
M  V30 750 C 72.6609 -0.451216 -3.35883 0
M  V30 751 C 71.8339 -1.53896 -4.09432 0
M  V30 752 C 70.8929 -1.01721 -5.16274 0
M  V30 753 O 69.9189 -1.70676 -5.43009 0
M  V30 754 N 71.1209 0.153594 -5.80297 0
M  V30 755 H 73.8859 -1.92047 -2.30082 0
M  V30 756 H 71.4469 -1.14497 -1.14465 0
M  V30 757 H 73.4389 -0.0871574 -4.04606 0
M  V30 758 H 72.0089 0.397368 -3.10064 0
M  V30 759 H 71.2289 -2.07566 -3.35127 0
M  V30 760 H 72.5169 -2.27037 -4.55337 0
M  V30 761 H 71.9149 0.730323 -5.60966 0
M  V30 762 H 70.4719 0.458892 -6.50183 0
M  V30 763 N 73.905 1.17692 -1.04816 0
M  V30 764 C 75.182 1.83768 -0.669963 0
M  V30 765 C 75.562 1.93232 0.849986 0
M  V30 766 O 74.91 1.46397 1.75443 0
M  V30 767 C 75.12 3.21641 -1.35455 0
M  V30 768 C 76.468 3.97592 -1.49017 0
M  V30 769 O 77.492 3.31107 -1.31326 0
M  V30 770 O 76.351 5.16729 -1.77914 0
M  V30 771 H 73.445 0.792799 -0.235368 0
M  V30 772 H 75.991 1.25021 -1.14751 0
M  V30 773 H 74.763 3.097 -2.39168 0
M  V30 774 H 74.386 3.88052 -0.866107 0
M  V30 775 N 75.3831 0.828654 1.34056 0
M  V30 776 C 76.3301 0.252567 2.29414 0
M  V30 777 C 77.3001 -0.62588 1.53857 0
M  V30 778 O 78.4851 -0.566312 1.82202 0
M  V30 779 C 75.6251 -0.574831 3.40279 0
M  V30 780 C 74.7381 0.326499 4.30764 0
M  V30 781 C 73.8731 -0.511016 5.28736 0
M  V30 782 C 72.9121 0.389342 6.1086 0
M  V30 783 N 72.0491 -0.409439 7.00905 0
M  V30 784 H 76.8891 1.07108 2.78086 0
M  V30 785 H 74.4261 0.539677 1.36843 0
M  V30 786 H 76.3841 -1.06992 4.03248 0
M  V30 787 H 75.0141 -1.35841 2.92826 0
M  V30 788 H 74.0661 0.939837 3.68607 0
M  V30 789 H 75.3781 1.01857 4.88289 0
M  V30 790 H 74.5321 -1.07035 5.97184 0
M  V30 791 H 73.2711 -1.23657 4.71763 0
M  V30 792 H 72.2761 0.960769 5.4134 0
M  V30 793 H 73.5011 1.1131 6.69916 0
M  V30 794 H 71.4471 -1.11856 6.46393 0
M  V30 795 H 71.3641 0.224126 7.55668 0
M  V30 796 H 72.6321 -0.951336 7.73673 0
M  V30 797 N 76.8612 -1.46375 0.584142 0
M  V30 798 C 78.2722 -1.86031 0.157959 0
M  V30 799 C 78.6232 -1.48753 -1.27933 0
M  V30 800 O 77.7482 -0.903098 -1.96655 0
M  V30 801 C 78.3432 -3.37642 0.279892 0
M  V30 802 C 76.9022 -3.76289 -0.09143 0
M  V30 803 C 76.0492 -2.7039 0.615178 0
M  V30 804 H 79.0002 -1.37509 0.792274 0
M  V30 805 H 79.0212 -3.77275 -0.494364 0
M  V30 806 H 78.5332 -3.64742 1.32607 0
M  V30 807 H 76.6342 -3.54806 -1.13769 0
M  V30 808 H 76.7472 -4.78246 0.285886 0
M  V30 809 H 75.1112 -2.5464 0.0552833 0
M  V30 810 H 75.8942 -3.0033 1.66303 0
M  V30 811 N 78.3393 -0.321999 -1.54275 0
M  V30 812 C 79.2873 0.560206 -2.25753 0
M  V30 813 C 80.2813 1.11984 -1.27106 0
M  V30 814 O 81.4873 1.06806 -1.44888 0
M  V30 815 H 77.8623 0.199304 -0.725108 0
M  V30 816 H 79.8333 -0.0649365 -2.98329 0
M  V30 817 C 78.5823 1.71023 -3.02731 0
M  V30 818 H 77.9053 1.28885 -3.78456 0
M  V30 819 H 79.3453 2.30314 -3.55993 0
M  V30 820 C 77.8043 2.62692 -2.10938 0
M  V30 821 O 78.3343 3.64364 -1.6912 0
M  V30 822 N 76.5403 2.30891 -1.76459 0
M  V30 823 H 76.0873 1.48253 -2.10663 0
M  V30 824 H 76.0453 2.92487 -1.1532 0
M  V30 825 N 79.8174 1.5752 -0.0501392 0
M  V30 826 C 81.0634 1.92936 0.624798 0
M  V30 827 C 81.3964 0.928685 1.70555 0
M  V30 828 O 80.6714 -0.0454779 1.94447 0
M  V30 829 C 80.9544 3.38737 1.22185 0
M  V30 830 C 80.8074 4.49552 0.149218 0
M  V30 831 C 82.1264 3.84913 2.13378 0
M  V30 832 H 79.2454 0.701604 0.225657 0
M  V30 833 H 81.8874 1.89671 -0.111693 0
M  V30 834 H 80.0374 3.4165 1.84953 0
M  V30 835 H 81.7094 4.58768 -0.482648 0
M  V30 836 H 79.9524 4.30638 -0.522841 0
M  V30 837 H 80.6234 5.48653 0.606966 0
M  V30 838 H 83.0994 3.8387 1.60572 0
M  V30 839 H 81.9754 4.87584 2.52097 0
M  V30 840 H 82.2364 3.21611 3.03346 0
M  V30 841 N 81.2955 -0.223234 1.56011 0
M  V30 842 C 82.5725 -0.972108 1.69733 0
M  V30 843 C 82.9525 -2.02485 0.59691 0
M  V30 844 O 82.3005 -2.25037 -0.396324 0
M  V30 845 C 82.5105 -1.58407 3.10979 0
M  V30 846 C 83.8585 -2.07696 3.70334 0
M  V30 847 O 84.8825 -1.68304 3.1393 0
M  V30 848 O 83.7415 -2.80096 4.69264 0
M  V30 849 H 80.8355 -0.453993 0.691245 0
M  V30 850 H 83.3815 -0.215149 1.68331 0
M  V30 851 H 82.1535 -0.823831 3.82529 0
M  V30 852 H 81.7765 -2.40661 3.16493 0
M  V30 853 N 82.7736 -1.49793 -0.48987 0
M  V30 854 C 83.9986 -1.63836 -1.27172 0
M  V30 855 C 84.4236 -0.31402 -1.8546 0
M  V30 856 O 83.7816 0.719803 -1.66399 0
M  V30 857 C 83.8296 -2.71797 -2.36978 0
M  V30 858 O 82.9336 -2.31744 -3.41128 0
M  V30 859 H 82.2746 -0.547997 -0.37496 0
M  V30 860 H 84.8046 -1.96053 -0.585191 0
M  V30 861 H 84.8146 -2.94305 -2.82575 0
M  V30 862 H 83.4896 -3.67923 -1.93921 0
M  V30 863 H 82.0666 -2.1961 -3.01373 0
M  V30 864 N 84.2517 0.741722 -1.39055 0
M  V30 865 C 85.1817 1.869 -1.39966 0
M  V30 866 C 86.1627 1.6804 -0.26392 0
M  V30 867 O 87.3477 1.88458 -0.468755 0
M  V30 868 C 84.4777 3.24572 -1.23574 0
M  V30 869 C 83.4317 3.58056 -2.34477 0
M  V30 870 C 82.7577 4.94593 -2.0318 0
M  V30 871 C 84.0577 3.61716 -3.76774 0
M  V30 872 H 85.7517 1.86395 -2.34302 0
M  V30 873 H 83.2977 0.895361 -1.1278 0
M  V30 874 H 85.2507 4.031 -1.22834 0
M  V30 875 H 83.9747 3.25587 -0.257045 0
M  V30 876 H 82.6337 2.81854 -2.34423 0
M  V30 877 H 82.2817 4.92181 -1.03765 0
M  V30 878 H 81.9817 5.17964 -2.77465 0
M  V30 879 H 83.5057 5.75486 -2.04079 0
M  V30 880 H 84.9197 4.30335 -3.78794 0
M  V30 881 H 83.3167 3.96603 -4.50362 0
M  V30 882 H 84.3867 2.61672 -4.08235 0
M  V30 883 N 85.7298 1.2412 0.971189 0
M  V30 884 C 86.9598 1.10415 1.7462 0
M  V30 885 C 87.3678 -0.346462 1.86001 0
M  V30 886 O 86.7108 -1.25104 1.34517 0
M  V30 887 C 86.7728 1.66596 3.18568 0
M  V30 888 C 86.4368 3.15446 3.3067 0
M  V30 889 C 87.4338 4.12636 3.16271 0
M  V30 890 C 85.1188 3.55337 3.55022 0
M  V30 891 C 87.1128 5.47699 3.26044 0
M  V30 892 C 84.7998 4.90542 3.64434 0
M  V30 893 C 85.7978 5.86532 3.49956 0
M  V30 894 O 85.4858 7.19279 3.59017 0
M  V30 895 H 85.2178 0.386616 0.55453 0
M  V30 896 H 87.7718 1.64633 1.22821 0
M  V30 897 H 86.0018 1.06808 3.71657 0
M  V30 898 H 87.6908 1.48232 3.77865 0
M  V30 899 H 88.4568 3.8316 2.97344 0
M  V30 900 H 84.3358 2.8113 3.65359 0
M  V30 901 H 87.8798 6.22603 3.14661 0
M  V30 902 H 83.7768 5.19691 3.82873 0
M  V30 903 H 84.5448 7.27153 3.75754 0
M  V30 904 N 87.2079 -1.17134 1.05439 0
M  V30 905 C 88.4549 -1.87456 0.765942 0
M  V30 906 C 88.7829 -1.81189 -0.707153 0
M  V30 907 O 88.0379 -1.21633 -1.5331 0
M  V30 908 C 88.3369 -3.36833 1.19491 0
M  V30 909 C 88.0029 -3.63301 2.67063 0
M  V30 910 C 86.6649 -3.70234 3.07376 0
M  V30 911 C 89.0169 -3.74575 3.62413 0
M  V30 912 C 86.3449 -3.85933 4.41896 0
M  V30 913 C 88.6969 -3.91793 4.9667 0
M  V30 914 C 87.3609 -3.96966 5.36633 0
M  V30 915 H 86.6309 -0.685948 0.280278 0
M  V30 916 H 89.2779 -1.38556 1.32192 0
M  V30 917 H 87.5829 -3.87807 0.557969 0
M  V30 918 H 89.2799 -3.89611 0.948893 0
M  V30 919 H 85.8699 -3.58532 2.34846 0
M  V30 920 H 90.0539 -3.68537 3.32406 0
M  V30 921 H 85.3099 -3.88187 4.72357 0
M  V30 922 H 89.4839 -3.99458 5.70444 0
M  V30 923 H 87.1109 -4.08883 6.40874 0
M  V30 924 N 88.686 -0.835752 -1.33615 0
M  V30 925 C 89.914 -0.443344 -2.02094 0
M  V30 926 C 90.329 0.954522 -1.62894 0
M  V30 927 O 89.686 1.61982 -0.840723 0
M  V30 928 C 89.737 -0.550775 -3.5728 0
M  V30 929 O 89.458 -1.89356 -3.95065 0
M  V30 930 C 90.959 -0.154919 -4.43029 0
M  V30 931 H 88.179 -0.176359 -0.647409 0
M  V30 932 H 90.723 -1.12746 -1.70612 0
M  V30 933 H 88.878 0.0853997 -3.87306 0
M  V30 934 H 89.292 -1.87687 -4.89769 0
M  V30 935 H 90.766 -0.281144 -5.51284 0
M  V30 936 H 91.243 0.902863 -4.2982 0
M  V30 937 H 91.849 -0.765404 -4.18356 0
M  V30 938 N 90.1641 1.46063 -0.591896 0
M  V30 939 C 91.0971 2.27452 0.184617 0
M  V30 940 C 92.0751 1.36188 0.888351 0
M  V30 941 O 93.2591 1.65606 0.90039 0
M  V30 942 C 90.3861 3.14162 1.26571 0
M  V30 943 C 89.4321 4.21255 0.666814 0
M  V30 944 S 90.2651 5.33034 -0.513345 0
M  V30 945 C 91.4211 6.23311 0.56872 0
M  V30 946 H 91.6541 2.92963 -0.505939 0
M  V30 947 H 89.1871 1.49676 -0.379014 0
M  V30 948 H 91.1451 3.6468 1.88463 0
M  V30 949 H 89.8061 2.47946 1.92826 0
M  V30 950 H 88.9991 4.81788 1.47974 0
M  V30 951 H 88.6011 3.73797 0.123359 0
M  V30 952 H 90.8931 6.61758 1.45198 0
M  V30 953 H 91.8361 7.081 -7.23824e-05 0
M  V30 954 H 92.2441 5.57646 0.876996 0
M  V30 955 N 91.6422 0.330177 1.54103 0
M  V30 956 C 92.8892 -0.270405 2.00686 0
M  V30 957 C 93.2172 -1.51621 1.21825 0
M  V30 958 O 92.4722 -1.93536 0.29025 0
M  V30 959 C 92.7712 -0.643134 3.51566 0
M  V30 960 C 92.4372 0.504251 4.48072 0
M  V30 961 C 91.0992 0.819163 4.74176 0
M  V30 962 C 93.4512 1.27465 5.05373 0
M  V30 963 C 90.7792 1.90708 5.5484 0
M  V30 964 C 93.1312 2.35271 5.87223 0
M  V30 965 C 91.7952 2.67336 6.11627 0
M  V30 966 H 91.0652 -0.0989482 0.734364 0
M  V30 967 H 93.7122 0.455324 1.86008 0
M  V30 968 H 92.0172 -1.44938 3.64006 0
M  V30 969 H 93.7142 -1.11949 3.85056 0
M  V30 970 H 90.3042 0.248733 4.27878 0
M  V30 971 H 94.4882 1.04462 4.85182 0
M  V30 972 H 89.7442 2.15991 5.71977 0
M  V30 973 H 93.9182 2.95405 6.30641 0
M  V30 974 H 91.5452 3.51763 6.73919 0
M  V30 975 N 93.1203 -1.57491 0.0584922 0
M  V30 976 C 94.0683 -2.13148 -0.931168 0
M  V30 977 C 95.0623 -1.06507 -1.31729 0
M  V30 978 O 96.2683 -1.24906 -1.29609 0
M  V30 979 H 92.6433 -0.68137 -0.31818 0
M  V30 980 H 94.6143 -2.95187 -0.436707 0
M  V30 981 C 93.3633 -2.69732 -2.19408 0
M  V30 982 H 92.6863 -3.51454 -1.90578 0
M  V30 983 H 94.1263 -3.12287 -2.86798 0
M  V30 984 C 92.5853 -1.63855 -2.94369 0
M  V30 985 O 93.1153 -1.05565 -3.87581 0
M  V30 986 N 91.3213 -1.35202 -2.57233 0
M  V30 987 H 90.8683 -1.82791 -1.81508 0
M  V30 988 H 90.8263 -0.645922 -3.07693 0
M  V30 989 N 94.5984 0.214957 -1.56127 0
M  V30 990 C 95.8384 0.945364 -1.81224 0
M  V30 991 C 96.2024 1.81265 -0.633005 0
M  V30 992 O 97.4034 2.57731 -0.763423 0
M  V30 993 C 95.6744 1.75665 -3.1125 0
M  V30 994 S 97.2334 2.54179 -3.57685 0
M  V30 995 H 94.0514 0.317443 -0.6362 0
M  V30 996 H 96.6534 0.210381 -1.94365 0
M  V30 997 H 95.3574 1.10977 -3.9511 0
M  V30 998 H 94.8884 2.53381 -3.00934 0
M  V30 999 H 96.9034 3.7792 -3.21545 0
M  V30 1000 N 96.0765 1.50051 0.48192 0
M  V30 1001 C 97.0245 1.68635 1.60203 0
M  V30 1002 C 98.0185 0.552184 1.60148 0
M  V30 1003 O 99.2245 0.732377 1.64427 0
M  V30 1004 H 95.5995 0.532081 0.531407 0
M  V30 1005 H 97.5705 2.62616 1.41688 0
M  V30 1006 C 96.3195 1.78775 2.9822 0
M  V30 1007 H 95.6425 2.6543 2.98976 0
M  V30 1008 H 97.0825 1.95806 3.7608 0
M  V30 1009 C 95.5415 0.536849 3.32595 0
M  V30 1010 O 96.0715 -0.328897 4.00351 0
M  V30 1011 N 94.2775 0.394091 2.87915 0
M  V30 1012 H 93.8245 1.09962 2.32951 0
M  V30 1013 H 93.7825 -0.441737 3.11281 0
M  V30 1014 N 97.5546 -0.734337 1.39446 0
M  V30 1015 C 98.5016 -1.84835 1.38219 0
M  V30 1016 C 99.4716 -1.64331 0.24179 0
M  V30 1017 O 100.657 -1.85728 0.437002 0
M  V30 1018 C 97.7966 -3.22355 1.23212 0
M  V30 1019 C 96.9096 -3.5456 2.46801 0
M  V30 1020 C 96.0446 -4.81485 2.24377 0
M  V30 1021 C 95.0836 -5.06536 3.43639 0
M  V30 1022 N 94.2206 -6.24665 3.20528 0
M  V30 1023 H 99.0606 -1.85219 2.33448 0
M  V30 1024 H 96.5976 -0.905039 1.15963 0
M  V30 1025 H 98.5556 -4.0174 1.12522 0
M  V30 1026 H 97.1856 -3.21248 0.316121 0
M  V30 1027 H 96.2376 -2.69872 2.68092 0
M  V30 1028 H 97.5496 -3.6899 3.3563 0
M  V30 1029 H 96.7036 -5.68852 2.10933 0
M  V30 1030 H 95.4426 -4.6923 1.32944 0
M  V30 1031 H 94.4476 -4.17632 3.5758 0
M  V30 1032 H 95.6726 -5.20676 4.35974 0
M  V30 1033 H 93.6186 -6.13696 2.3176 0
M  V30 1034 H 93.5356 -6.39685 4.02913 0
M  V30 1035 H 94.8036 -7.14868 3.10779 0
M  V30 1036 N 99.0327 -1.24633 -0.964593 0
M  V30 1037 C 100.449 -1.01239 -1.2338 0
M  V30 1038 C 100.649 0.2769 -1.99588 0
M  V30 1039 O 99.7047 0.992241 -2.32187 0
M  V30 1040 C 101.018 -2.22937 -2.01791 0
M  V30 1041 C 102.566 -2.27594 -2.14872 0
M  V30 1042 C 103.041 -3.48921 -2.96678 0
M  V30 1043 N 104.532 -3.49257 -3.04259 0
M  V30 1044 C 105.267 -4.39795 -3.67924 0
M  V30 1045 N 104.763 -5.40591 -4.33281 0
M  V30 1046 N 106.556 -4.275 -3.64966 0
M  V30 1047 H 98.7067 -2.0748 -0.454502 0
M  V30 1048 H 100.97 -0.910647 -0.26349 0
M  V30 1049 H 100.676 -3.16587 -1.53184 0
M  V30 1050 H 100.55 -2.25306 -3.02518 0
M  V30 1051 H 102.937 -1.34473 -2.6268 0
M  V30 1052 H 103.018 -2.2925 -1.13482 0
M  V30 1053 H 102.662 -4.42359 -2.49562 0
M  V30 1054 H 102.592 -3.4451 -3.98272 0
M  V30 1055 H 105.083 -2.76337 -2.57771 0
M  V30 1056 H 105.396 -6.05904 -4.79687 0
M  V30 1057 H 103.741 -5.44475 -4.3194 0
M  V30 1058 H 106.932 -3.47987 -3.13086 0
M  V30 1059 H 107.105 -4.98258 -4.14298 0
M  V30 1060 N 100.511 1.16574 -1.06058 0
M  V30 1061 C 101.736 1.91493 -0.796562 0
M  V30 1062 C 102.161 1.76773 0.642868 0
M  V30 1063 O 101.519 1.09142 1.44768 0
M  V30 1064 C 101.567 3.40293 -1.19303 0
M  V30 1065 O 100.671 4.11074 -0.330394 0
M  V30 1066 H 100.012 0.596678 -0.291326 0
M  V30 1067 H 102.542 1.47708 -1.41575 0
M  V30 1068 H 102.552 3.91057 -1.16356 0
M  V30 1069 H 101.227 3.50326 -2.24153 0
M  V30 1070 H 99.8038 3.70513 -0.421225 0
M  V30 1071 N 101.989 0.842826 1.3317 0
M  V30 1072 C 103.238 0.436738 1.96915 0
M  V30 1073 C 103.551 -1.01025 1.67491 0
M  V30 1074 O 104.757 -1.5212 2.24881 0
M  V30 1075 C 103.213 0.730021 3.52418 0
M  V30 1076 C 102.821 2.19195 3.90714 0
M  V30 1077 C 104.565 0.391076 4.22695 0
M  V30 1078 C 102.472 2.42907 5.39212 0
M  V30 1079 H 101.402 0.15958 0.736919 0
M  V30 1080 H 104.053 1.03196 1.51733 0
M  V30 1081 H 102.435 0.0643755 3.95948 0
M  V30 1082 H 103.609 2.8984 3.58231 0
M  V30 1083 H 101.924 2.49425 3.33431 0
M  V30 1084 H 104.521 0.545817 5.31907 0
M  V30 1085 H 104.864 -0.666294 4.10933 0
M  V30 1086 H 105.397 1.01212 3.84709 0
M  V30 1087 H 102.136 3.47224 5.55982 0
M  V30 1088 H 101.656 1.76827 5.73142 0
M  V30 1089 H 103.335 2.2626 6.06148 0
M  V30 1090 N 103.467 -1.45747 0.599634 0
M  V30 1091 C 104.377 -2.34262 -0.125888 0
M  V30 1092 C 105.393 -1.50768 -0.868625 0
M  V30 1093 O 106.569 -1.83592 -0.828003 0
M  V30 1094 C 103.634 -3.28252 -1.11587 0
M  V30 1095 C 102.695 -4.27651 -0.375956 0
M  V30 1096 C 101.928 -5.1715 -1.31877 0
M  V30 1097 O 102.151 -5.09916 -2.55621 0
M  V30 1098 O 101.085 -5.96286 -0.820157 0
M  V30 1099 H 104.911 -2.97688 0.601315 0
M  V30 1100 H 102.496 -1.44999 0.359934 0
M  V30 1101 H 104.378 -3.86191 -1.68626 0
M  V30 1102 H 103.053 -2.67401 -1.82424 0
M  V30 1103 H 101.96 -3.7335 0.236698 0
M  V30 1104 H 103.293 -4.91334 0.29177 0
M  V30 1105 N 104.945 -0.338344 -1.53925 0
M  V30 1106 C 105.875 0.51328 -2.27789 0
M  V30 1107 C 106.856 1.107 -1.29149 0
M  V30 1108 O 108.041 1.12937 -1.57984 0
M  V30 1109 C 105.171 1.66697 -3.04679 0
M  V30 1110 C 104.125 1.20183 -4.1078 0
M  V30 1111 C 103.451 2.44363 -4.75595 0
M  V30 1112 C 104.751 0.30605 -5.21403 0
M  V30 1113 H 106.445 -0.102883 -2.99223 0
M  V30 1114 H 103.991 -0.0509219 -1.4391 0
M  V30 1115 H 105.944 2.26915 -3.55088 0
M  V30 1116 H 104.668 2.30995 -2.30887 0
M  V30 1117 H 103.327 0.622499 -3.61276 0
M  V30 1118 H 102.975 3.07057 -3.98403 0
M  V30 1119 H 102.675 2.13925 -5.47275 0
M  V30 1120 H 104.199 3.05317 -5.28786 0
M  V30 1121 H 105.613 0.814929 -5.67478 0
M  V30 1122 H 104.01 0.0937929 -6.00027 0
M  V30 1123 H 105.08 -0.65921 -4.80398 0
M  V30 1124 N 106.423 1.57458 -0.0668435 0
M  V30 1125 C 107.7 1.8469 0.644132 0
M  V30 1126 C 108.08 0.958343 1.88093 0
M  V30 1127 O 107.428 0.0233579 2.28488 0
M  V30 1128 C 107.638 3.34767 0.986509 0
M  V30 1129 C 108.986 4.02159 1.36212 0
M  V30 1130 O 110.01 3.39484 1.07839 0
M  V30 1131 O 108.869 5.12694 1.89227 0
M  V30 1132 H 105.963 0.762816 0.319437 0
M  V30 1133 H 108.509 1.6942 -0.0973986 0
M  V30 1134 H 107.281 3.91151 0.107883 0
M  V30 1135 H 106.904 3.55281 1.78497 0
M  V30 1136 N 107.901 -0.206675 1.56239 0
M  V30 1137 C 108.834 -1.28383 1.88661 0
M  V30 1138 C 109.812 -1.44504 0.745481 0
M  V30 1139 O 110.996 -1.60079 0.995336 0
M  V30 1140 C 108.123 -2.65211 2.10667 0
M  V30 1141 C 107.169 -2.66025 3.33366 0
M  V30 1142 S 108.002 -2.18609 4.88846 0
M  V30 1143 C 109.158 -3.57283 5.13906 0
M  V30 1144 H 109.391 -1.00691 2.7973 0
M  V30 1145 H 106.924 -0.409627 1.48867 0
M  V30 1146 H 108.882 -3.43979 2.24029 0
M  V30 1147 H 107.543 -2.90121 1.20369 0
M  V30 1148 H 106.736 -3.66607 3.45855 0
M  V30 1149 H 106.338 -1.95331 3.18938 0
M  V30 1150 H 108.63 -4.53074 5.03717 0
M  V30 1151 H 109.573 -3.49699 6.15724 0
M  V30 1152 H 109.981 -3.51659 4.41583 0
M  V30 1153 N 109.379 -1.50304 -0.473955 0
M  V30 1154 C 110.326 -1.68959 -1.57231 0
M  V30 1155 C 111.296 -0.530899 -1.57387 0
M  V30 1156 O 112.481 -0.761133 -1.74961 0
M  V30 1157 C 109.621 -1.7871 -2.95223 0
M  V30 1158 C 108.734 -3.06061 -3.04878 0
M  V30 1159 C 107.869 -3.06626 -4.33767 0
M  V30 1160 C 106.908 -4.28443 -4.37154 0
M  V30 1161 N 106.045 -4.26763 -5.5751 0
M  V30 1162 H 110.885 -2.6273 -1.40631 0
M  V30 1163 H 108.422 -1.30241 -0.683789 0
M  V30 1164 H 110.38 -1.82344 -3.75242 0
M  V30 1165 H 109.01 -0.883806 -3.10465 0
M  V30 1166 H 108.062 -3.11911 -2.17751 0
M  V30 1167 H 109.374 -3.96039 -3.0324 0
M  V30 1168 H 108.528 -3.08973 -5.22131 0
M  V30 1169 H 107.267 -2.14473 -4.3801 0
M  V30 1170 H 106.272 -4.2631 -3.47188 0
M  V30 1171 H 107.497 -5.2182 -4.34605 0
M  V30 1172 H 105.443 -3.37462 -5.62544 0
M  V30 1173 H 105.36 -5.10507 -5.57601 0
M  V30 1174 H 106.628 -4.33253 -6.48006 0
M  V30 1175 N 110.857 0.726932 -1.39834 0
M  V30 1176 C 112.085 1.51613 -1.40787 0
M  V30 1177 C 112.5 1.88799 -0.00451505 0
M  V30 1178 O 111.857 1.54662 0.968809 0
M  V30 1179 C 111.908 2.79863 -2.28821 0
M  V30 1180 O 111.629 2.44253 -3.63692 0
M  V30 1181 C 113.13 3.73837 -2.38245 0
M  V30 1182 H 110.35 0.468264 -0.480593 0
M  V30 1183 H 112.894 0.897607 -1.83748 0
M  V30 1184 H 111.049 3.38027 -1.89252 0
M  V30 1185 H 111.463 3.26695 -4.1033 0
M  V30 1186 H 112.937 4.60699 -3.04073 0
M  V30 1187 H 113.414 4.16153 -1.40403 0
M  V30 1188 H 114.02 3.21589 -2.78317 0
M  V30 1189 N 112.336 1.25143 0.95797 0
M  V30 1190 C 113.747 1.08851 1.51685 0
M  V30 1191 C 114.098 -0.33687 1.93286 0
M  V30 1192 O 113.223 -1.22644 1.7829 0
M  V30 1193 C 113.818 1.96978 2.75654 0
M  V30 1194 C 112.377 1.84881 3.27866 0
M  V30 1195 C 111.524 1.91329 2.0072 0
M  V30 1196 H 114.475 1.38478 0.77522 0
M  V30 1197 H 114.496 1.5078 3.4935 0
M  V30 1198 H 114.008 3.00712 2.45345 0
M  V30 1199 H 112.109 0.840182 3.63004 0
M  V30 1200 H 112.222 2.6951 3.96107 0
M  V30 1201 H 110.586 1.35174 2.15871 0
M  V30 1202 H 111.369 2.96661 1.72764 0
M  V30 1203 N 113.814 -1.1601 1.06675 0
M  V30 1204 C 114.724 -2.24156 0.692179 0
M  V30 1205 C 115.74 -1.71507 -0.293513 0
M  V30 1206 O 116.916 -2.009 -0.141861 0
M  V30 1207 C 113.981 -3.46587 0.0884131 0
M  V30 1208 C 113.042 -4.14257 1.12646 0
M  V30 1209 C 112.275 -5.30844 0.551416 0
M  V30 1210 O 112.498 -5.66858 -0.634656 0
M  V30 1211 O 111.432 -5.87848 1.29298 0
M  V30 1212 H 115.258 -2.58513 1.59388 0
M  V30 1213 H 112.843 -1.23599 0.83926 0
M  V30 1214 H 114.725 -4.20679 -0.246361 0
M  V30 1215 H 113.4 -3.13994 -0.786712 0
M  V30 1216 H 112.307 -3.42118 1.51348 0
M  V30 1217 H 113.64 -4.50914 1.97325 0
M  V30 1218 N 115.292 -0.849877 -1.32721 0
M  V30 1219 C 116.54 -0.450032 -1.97026 0
M  V30 1220 C 116.861 0.996604 -1.67609 0
M  V30 1221 O 116.131 1.6958 -0.980786 0
M  V30 1222 H 114.711 -0.163426 -0.728904 0
M  V30 1223 H 117.373 -1.08526 -1.6189 0
M  V30 1224 H 116.469 -0.591146 -3.0645 0
M  V30 1225 N 116.77 1.45427 -0.607355 0
M  V30 1226 C 117.717 2.3053 0.111625 0
M  V30 1227 C 118.687 1.4209 0.860216 0
M  V30 1228 O 119.872 1.71019 0.845998 0
M  V30 1229 C 117.012 3.26992 1.10319 0
M  V30 1230 C 116.125 4.30535 0.355493 0
M  V30 1231 C 115.26 5.14105 1.33676 0
M  V30 1232 C 114.299 6.09376 0.576862 0
M  V30 1233 N 113.436 6.85727 1.5074 0
M  V30 1234 H 118.276 2.91477 -0.620093 0
M  V30 1235 H 115.813 1.43631 -0.317594 0
M  V30 1236 H 117.771 3.81385 1.6912 0
M  V30 1237 H 116.401 2.67799 1.80232 0
M  V30 1238 H 115.453 3.78805 -0.348023 0
M  V30 1239 H 116.765 4.98235 -0.237423 0
M  V30 1240 H 115.919 5.72897 1.99684 0
M  V30 1241 H 114.658 4.46423 1.9636 0
M  V30 1242 H 113.663 5.49715 -0.0968519 0
M  V30 1243 H 114.888 6.79085 -0.0449341 0
M  V30 1244 H 112.834 6.20735 2.12189 0
M  V30 1245 H 112.751 7.49778 0.967913 0
M  V30 1246 H 114.019 7.4906 2.15706 0
M  V30 1247 N 118.248 0.346503 1.53744 0
M  V30 1248 C 119.158 -0.517293 2.28826 0
M  V30 1249 C 120.174 -1.10935 1.3405 0
M  V30 1250 O 121.35 -1.1244 1.6709 0
M  V30 1251 C 118.415 -1.65098 3.04866 0
M  V30 1252 C 117.476 -1.0884 4.15274 0
M  V30 1253 C 116.709 -2.16806 4.87679 0
M  V30 1254 O 116.932 -3.3758 4.59778 0
M  V30 1255 O 115.866 -1.80934 5.74061 0
M  V30 1256 H 119.692 0.0931396 3.03557 0
M  V30 1257 H 117.277 0.111458 1.48984 0
M  V30 1258 H 119.159 -2.31053 3.5241 0
M  V30 1259 H 117.834 -2.24717 2.32989 0
M  V30 1260 H 116.741 -0.3933 3.72027 0
M  V30 1261 H 118.074 -0.537036 4.89261 0
M  V30 1262 N 119.726 -1.57421 0.075193 0
M  V30 1263 C 120.656 -2.15942 -0.888324 0
M  V30 1264 C 121.637 -1.08737 -1.30806 0
M  V30 1265 O 122.822 -1.36787 -1.37851 0
M  V30 1266 C 119.952 -2.72379 -2.1547 0
M  V30 1267 C 118.906 -3.8478 -1.87425 0
M  V30 1268 C 118.232 -4.27834 -3.20721 0
M  V30 1269 C 119.532 -5.08869 -1.17684 0
M  V30 1270 H 121.226 -2.96705 -0.400799 0
M  V30 1271 H 118.772 -1.42723 -0.191342 0
M  V30 1272 H 120.725 -3.11965 -2.83295 0
M  V30 1273 H 119.449 -1.88841 -2.6647 0
M  V30 1274 H 118.108 -3.45703 -1.22004 0
M  V30 1275 H 117.756 -3.41214 -3.6957 0
M  V30 1276 H 117.456 -5.03605 -3.02746 0
M  V30 1277 H 118.98 -4.70039 -3.89738 0
M  V30 1278 H 120.394 -5.4575 -1.75584 0
M  V30 1279 H 118.791 -5.8994 -1.09956 0
M  V30 1280 H 119.861 -4.84648 -0.156453 0
M  V30 1281 N 121.204 0.198386 -1.56346 0
M  V30 1282 C 122.134 1.24865 -1.9731 0
M  V30 1283 C 123.115 1.47651 -0.844576 0
M  V30 1284 O 124.3 1.59444 -1.10866 0
M  V30 1285 C 121.43 2.59358 -2.30977 0
M  V30 1286 C 120.384 2.5119 -3.46537 0
M  V30 1287 C 119.71 3.89926 -3.65871 0
M  V30 1288 C 121.01 2.03977 -4.80823 0
M  V30 1289 H 122.704 0.908252 -2.85291 0
M  V30 1290 H 120.25 0.435462 -1.37258 0
M  V30 1291 H 122.203 3.33011 -2.58228 0
M  V30 1292 H 120.927 2.95132 -1.39874 0
M  V30 1293 H 119.586 1.79993 -3.19371 0
M  V30 1294 H 119.234 4.23046 -2.72105 0
M  V30 1295 H 118.934 3.85336 -4.4361 0
M  V30 1296 H 120.458 4.65205 -3.95495 0
M  V30 1297 H 121.872 2.67386 -5.07127 0
M  V30 1298 H 120.269 2.10397 -5.62008 0
M  V30 1299 H 121.339 0.992861 -4.74626 0
M  V30 1300 N 122.682 1.50554 0.465978 0
M  V30 1301 C 123.592 1.72585 1.58907 0
M  V30 1302 C 124.608 0.60911 1.6299 0
M  V30 1303 O 125.784 0.88804 1.80765 0
M  V30 1304 C 122.849 1.81995 2.95091 0
M  V30 1305 C 121.91 3.05751 3.01355 0
M  V30 1306 C 121.143 3.14702 4.31043 0
M  V30 1307 O 121.366 2.30313 5.21835 0
M  V30 1308 O 120.3 4.07468 4.43005 0
M  V30 1309 H 124.126 2.67799 1.43239 0
M  V30 1310 H 121.711 1.34711 0.646013 0
M  V30 1311 H 123.593 1.90335 3.75966 0
M  V30 1312 H 122.268 0.899659 3.10947 0
M  V30 1313 H 121.175 3.02908 2.19539 0
M  V30 1314 H 122.508 3.97375 2.90437 0
M  V30 1315 N 124.16 -0.719506 1.40217 0
M  V30 1316 C 125.092 -1.84428 1.36084 0
M  V30 1317 C 126.105 -1.60597 0.266913 0
M  V30 1318 O 127.294 -1.70544 0.526983 0
M  V30 1319 C 124.394 -3.20757 1.094 0
M  V30 1320 C 123.567 -3.71817 2.30372 0
M  V30 1321 C 122.626 -4.86748 1.99907 0
M  V30 1322 O 121.652 -4.99603 2.72737 0
M  V30 1323 N 122.854 -5.7226 0.974635 0
M  V30 1324 H 125.619 -1.88473 2.33019 0
M  V30 1325 H 123.18 -0.900885 1.3452 0
M  V30 1326 H 125.172 -3.95235 0.870116 0
M  V30 1327 H 123.742 -3.11884 0.211452 0
M  V30 1328 H 122.962 -2.88514 2.68614 0
M  V30 1329 H 124.25 -4.02666 3.11026 0
M  V30 1330 H 123.648 -5.6448 0.371368 0
M  V30 1331 H 122.205 -6.46739 0.810656 0
M  V30 1332 N 125.638 -1.25649 -0.95132 0
M  V30 1333 C 126.571 -1.00644 -2.04807 0
M  V30 1334 C 127.549 0.0654271 -1.62468 0
M  V30 1335 O 128.733 -0.074911 -1.88351 0
M  V30 1336 C 125.86 -0.522052 -3.34653 0
M  V30 1337 C 124.906 -1.58495 -3.95957 0
M  V30 1338 S 125.739 -3.17108 -4.31512 0
M  V30 1339 C 126.895 -2.70412 -5.64471 0
M  V30 1340 H 127.128 -1.93508 -2.25703 0
M  V30 1341 H 124.661 -1.09216 -1.09139 0
M  V30 1342 H 126.619 -0.24923 -4.09743 0
M  V30 1343 H 125.28 0.386146 -3.11717 0
M  V30 1344 H 124.473 -1.1968 -4.89584 0
M  V30 1345 H 124.075 -1.80862 -3.2736 0
M  V30 1346 H 126.367 -2.14245 -6.42733 0
M  V30 1347 H 127.31 -3.62693 -6.08161 0
M  V30 1348 H 127.718 -2.10302 -5.23864 0
M  V30 1349 N 127.117 1.15442 -1.07289 0
M  V30 1350 C 128.366 1.85557 -0.790669 0
M  V30 1351 C 128.679 1.83186 0.685739 0
M  V30 1352 O 129.885 2.48977 1.0827 0
M  V30 1353 C 128.341 3.33038 -1.36433 0
M  V30 1354 C 127.949 3.43856 -2.8717 0
M  V30 1355 C 129.693 4.0834 -1.1601 0
M  V30 1356 C 127.6 4.85482 -3.3773 0
M  V30 1357 H 126.53 0.695122 -0.292098 0
M  V30 1358 H 129.181 1.30219 -1.29287 0
M  V30 1359 H 127.563 3.88043 -0.789864 0
M  V30 1360 H 128.737 2.98961 -3.50655 0
M  V30 1361 H 127.052 2.81998 -3.06376 0
M  V30 1362 H 129.649 5.12859 -1.51262 0
M  V30 1363 H 129.992 4.16182 -0.0991007 0
M  V30 1364 H 130.525 3.59603 -1.70089 0
M  V30 1365 H 127.264 4.82823 -4.43353 0
M  V30 1366 H 126.784 5.30961 -2.78999 0
M  V30 1367 H 128.463 5.54335 -3.33648 0
M  V30 1368 N 128.595 0.856903 1.32268 0
M  V30 1369 C 129.542 0.301172 2.28827 0
M  V30 1370 C 130.512 -0.593104 1.5515 0
M  V30 1371 O 131.697 -0.527537 1.83362 0
M  V30 1372 C 128.837 -0.502523 3.41422 0
M  V30 1373 C 127.95 0.417797 4.29975 0
M  V30 1374 C 127.085 -0.398749 5.29701 0
M  V30 1375 C 126.124 0.518827 6.09897 0
M  V30 1376 N 125.261 -0.260674 7.01616 0
M  V30 1377 H 130.101 1.12983 2.75751 0
M  V30 1378 H 127.638 0.568582 1.35667 0
M  V30 1379 H 129.596 -0.984141 4.05426 0
M  V30 1380 H 128.226 -1.29599 2.95642 0
M  V30 1381 H 127.278 1.01781 3.66531 0
M  V30 1382 H 128.59 1.12191 4.86019 0
M  V30 1383 H 127.744 -0.943435 5.9932 0
M  V30 1384 H 126.483 -1.13622 4.7428 0
M  V30 1385 H 125.488 1.07538 5.39181 0
M  V30 1386 H 126.713 1.25495 6.67404 0
M  V30 1387 H 124.659 -0.981198 6.4862 0
M  V30 1388 H 124.576 0.384364 7.55022 0
M  V30 1389 H 125.844 -0.787014 7.75517 0
M  V30 1390 N 130.073 -1.45103 0.615059 0
M  V30 1391 C 131.02 -2.30586 -0.0993978 0
M  V30 1392 C 131.99 -1.42544 -0.852669 0
M  V30 1393 O 133.175 -1.71465 -0.836917 0
M  V30 1394 C 130.315 -3.27572 -1.08583 0
M  V30 1395 C 129.428 -4.30717 -0.332656 0
M  V30 1396 C 128.563 -5.14807 -1.30947 0
M  V30 1397 C 127.602 -6.09673 -0.544538 0
M  V30 1398 N 126.739 -6.86517 -1.47101 0
M  V30 1399 H 131.579 -2.91144 0.635542 0
M  V30 1400 H 129.116 -1.4346 0.325206 0
M  V30 1401 H 131.074 -3.82276 -1.67095 0
M  V30 1402 H 129.704 -2.68751 -1.78809 0
M  V30 1403 H 128.756 -3.78615 0.368107 0
M  V30 1404 H 130.068 -4.98102 0.263842 0
M  V30 1405 H 129.222 -5.73948 -1.96643 0
M  V30 1406 H 127.961 -4.47458 -1.9399 0
M  V30 1407 H 126.966 -5.49656 0.126003 0
M  V30 1408 H 128.191 -6.79052 0.080947 0
M  V30 1409 H 126.137 -6.21851 -2.08895 0
M  V30 1410 H 126.054 -7.50281 -0.928137 0
M  V30 1411 H 127.322 -7.50194 -2.11731 0
M  V30 1412 N 131.551 -0.354651 -1.53558 0
M  V30 1413 C 132.514 0.484566 -2.24019 0
M  V30 1414 C 133.514 1.01861 -1.24422 0
M  V30 1415 O 134.704 0.906097 -1.4878 0
M  V30 1416 C 131.836 1.67615 -2.96847 0
M  V30 1417 H 133.029 -0.131843 -2.9961 0
M  V30 1418 H 130.582 -0.106165 -1.55939 0
M  V30 1419 H 131.317 2.33095 -2.25471 0
M  V30 1420 H 131.102 1.30029 -3.69912 0
M  V30 1421 H 132.592 2.27114 -3.50441 0
M  V30 1422 N 133.029 1.57378 -0.0835403 0
M  V30 1423 C 134.306 1.85363 0.624507 0
M  V30 1424 C 134.686 0.978239 1.87066 0
M  V30 1425 O 134.034 0.0475908 2.2845 0
M  V30 1426 C 134.244 3.35795 0.950947 0
M  V30 1427 C 135.592 4.03581 1.31939 0
M  V30 1428 O 136.616 3.40609 1.04232 0
M  V30 1429 O 135.475 5.14672 1.83779 0
M  V30 1430 H 132.569 0.766162 0.311329 0
M  V30 1431 H 135.115 1.69307 -0.115362 0
M  V30 1432 H 133.887 3.91244 0.0663899 0
M  V30 1433 H 133.51 3.57154 1.74719 0
M  V30 1434 N 134.507 -0.190092 1.56449 0
M  V30 1435 C 135.753 -0.911052 1.81184 0
M  V30 1436 C 136.086 -1.82699 0.658396 0
M  V30 1437 O 135.361 -1.91491 -0.340775 0
M  V30 1438 C 135.644 -1.72297 3.16205 0
M  V30 1439 C 135.497 -0.831419 4.42049 0
M  V30 1440 C 136.816 -2.69454 3.47969 0
M  V30 1441 H 133.935 -0.32977 0.659106 0
M  V30 1442 H 136.577 -0.178169 1.89163 0
M  V30 1443 H 134.727 -2.34778 3.09534 0
M  V30 1444 H 136.399 -0.220929 4.60771 0
M  V30 1445 H 134.642 -0.138406 4.33579 0
M  V30 1446 H 135.313 -1.43461 5.33032 0
M  V30 1447 H 137.789 -2.17104 3.54972 0
M  V30 1448 H 136.665 -3.23342 4.43555 0
M  V30 1449 H 136.926 -3.48744 2.71717 0
M  V30 1450 N 135.985 -1.50799 -0.457987 0
M  V30 1451 C 136.918 -1.65273 -1.57353 0
M  V30 1452 C 137.896 -0.500578 -1.54703 0
M  V30 1453 O 139.08 -0.721781 -1.74134 0
M  V30 1454 C 136.207 -1.64737 -2.95938 0
M  V30 1455 C 135.253 -2.8567 -3.16693 0
M  V30 1456 S 136.086 -4.46791 -2.95191 0
M  V30 1457 C 137.242 -4.48968 -4.36095 0
M  V30 1458 H 137.475 -2.59633 -1.44838 0
M  V30 1459 H 135.008 -1.40225 -0.64625 0
M  V30 1460 H 136.966 -1.65112 -3.7583 0
M  V30 1461 H 135.627 -0.715899 -3.05833 0
M  V30 1462 H 134.82 -2.81637 -4.17967 0
M  V30 1463 H 134.422 -2.8293 -2.44594 0
M  V30 1464 H 136.714 -4.23337 -5.28954 0
M  V30 1465 H 137.657 -5.50664 -4.45168 0
M  V30 1466 H 138.065 -3.78522 -4.18786 0
M  V30 1467 N 137.463 0.71206 -1.40597 0
M  V30 1468 C 138.709 1.47416 -1.39271 0
M  V30 1469 C 139.042 1.942 0.00388791 0
M  V30 1470 O 138.317 1.68403 0.973179 0
M  V30 1471 C 138.6 2.69774 -2.38525 0
M  V30 1472 C 138.453 2.28861 -3.87224 0
M  V30 1473 C 139.772 3.71939 -2.35264 0
M  V30 1474 H 136.891 0.534713 -0.5072 0
M  V30 1475 H 139.533 0.812375 -1.71757 0
M  V30 1476 H 137.683 3.26238 -2.10953 0
M  V30 1477 H 139.355 1.77852 -4.25636 0
M  V30 1478 H 137.598 1.60824 -4.02887 0
M  V30 1479 H 138.269 3.16584 -4.52193 0
M  V30 1480 H 140.745 3.25113 -2.59694 0
M  V30 1481 H 139.621 4.55186 -3.06753 0
M  V30 1482 H 139.882 4.20484 -1.36549 0
M  V30 1483 N 138.941 1.26152 0.944643 0
M  V30 1484 C 139.851 1.09176 2.07648 0
M  V30 1485 C 140.867 0.0261935 1.7398 0
M  V30 1486 O 142.043 0.229208 2.00091 0
M  V30 1487 C 139.108 0.722915 3.39079 0
M  V30 1488 C 138.169 1.86752 3.86552 0
M  V30 1489 C 137.402 1.51617 5.11711 0
M  V30 1490 O 137.625 0.416331 5.68879 0
M  V30 1491 O 136.559 2.34975 5.54139 0
M  V30 1492 H 140.385 2.0412 2.24875 0
M  V30 1493 H 137.97 1.05182 1.061 0
M  V30 1494 H 139.852 0.529787 4.18056 0
M  V30 1495 H 138.527 -0.197159 3.23099 0
M  V30 1496 H 137.434 2.11558 3.08535 0
M  V30 1497 H 138.767 2.76719 4.07047 0
M  V30 1498 N 140.419 -1.14872 1.07899 0
M  V30 1499 C 141.367 -2.21857 0.698727 0
M  V30 1500 C 142.361 -1.66845 -0.293086 0
M  V30 1501 O 143.567 -1.79321 -0.156204 0
M  V30 1502 H 139.942 -0.722691 0.207899 0
M  V30 1503 H 141.913 -2.51205 1.61054 0
M  V30 1504 C 140.662 -3.47498 0.11858 0
M  V30 1505 H 139.985 -3.90154 0.872914 0
M  V30 1506 H 141.425 -4.23858 -0.109759 0
M  V30 1507 C 139.884 -3.16947 -1.1422 0
M  V30 1508 O 140.414 -3.3426 -2.22785 0
M  V30 1509 N 138.62 -2.70946 -1.05055 0
M  V30 1510 H 138.167 -2.57058 -0.167038 0
M  V30 1511 H 138.125 -2.50879 -1.89491 0
M  V30 1512 N 141.898 -0.863906 -1.31812 0
M  V30 1513 C 143.145 -0.471836 -1.96926 0
M  V30 1514 C 143.473 0.974578 -1.68322 0
M  V30 1515 O 142.728 1.7003 -0.968933 0
M  V30 1516 C 143.027 -0.668547 -3.51091 0
M  V30 1517 C 142.693 -2.08683 -3.99703 0
M  V30 1518 C 141.355 -2.47471 -4.12688 0
M  V30 1519 C 143.707 -3.01207 -4.25351 0
M  V30 1520 C 141.035 -3.78037 -4.4867 0
M  V30 1521 C 143.387 -4.31282 -4.62794 0
M  V30 1522 C 142.051 -4.69992 -4.73987 0
M  V30 1523 H 141.321 -0.172657 -0.720604 0
M  V30 1524 H 143.968 -1.09573 -1.57054 0
M  V30 1525 H 142.273 0.0385252 -3.91781 0
M  V30 1526 H 143.97 -0.345102 -3.99512 0
M  V30 1527 H 140.56 -1.77566 -3.90087 0
M  V30 1528 H 144.744 -2.72469 -4.14819 0
M  V30 1529 H 140 -4.078 -4.55532 0
M  V30 1530 H 144.174 -5.03031 -4.81594 0
M  V30 1531 H 141.801 -5.71207 -5.01624 0
M  V30 1532 N 143.376 1.44774 -0.622745 0
M  V30 1533 C 144.624 2.01721 -0.123655 0
M  V30 1534 C 144.945 1.49172 1.25589 0
M  V30 1535 O 144.215 0.691974 1.83272 0
M  V30 1536 H 142.795 0.745777 -0.0427225 0
M  V30 1537 H 145.457 1.77382 -0.807559 0
M  V30 1538 H 144.553 3.11984 -0.0849534 0
M  V30 1539 N 144.854 0.36279 1.53368 0
M  V30 1540 C 146.265 -0.117022 1.86333 0
M  V30 1541 C 146.616 -1.48397 1.28347 0
M  V30 1542 O 145.741 -2.07787 0.604428 0
M  V30 1543 C 146.336 -0.21912 3.38091 0
M  V30 1544 C 144.895 -0.643184 3.70864 0
M  V30 1545 C 144.042 0.211318 2.76494 0
M  V30 1546 H 146.993 0.581687 1.47655 0
M  V30 1547 H 147.014 -1.04319 3.6592 0
M  V30 1548 H 146.526 0.775902 3.80265 0
M  V30 1549 H 144.627 -1.64654 3.34245 0
M  V30 1550 H 144.74 -0.41973 4.77258 0
M  V30 1551 H 143.104 -0.319367 2.5269 0
M  V30 1552 H 143.887 1.20383 3.21501 0
M  V30 1553 N 146.332 -1.57332 0.0918853 0
M  V30 1554 C 147.58 -1.93853 -0.571446 0
M  V30 1555 C 147.901 -0.974212 -1.6892 0
M  V30 1556 O 147.171 -0.0257254 -1.95883 0
M  V30 1557 H 145.751 -0.715666 -0.214082 0
M  V30 1558 H 148.413 -1.94287 0.154464 0
M  V30 1559 H 147.509 -2.96191 -0.983729 0
M  V30 1560 N 147.81 0.181792 -1.56548 0
M  V30 1561 C 148.773 1.20894 -1.94724 0
M  V30 1562 C 149.773 1.37738 -0.829747 0
M  V30 1563 O 150.963 1.35323 -1.09697 0
M  V30 1564 C 148.095 2.57593 -2.23291 0
M  V30 1565 H 149.288 0.882275 -2.86629 0
M  V30 1566 H 146.841 0.423838 -1.50444 0
M  V30 1567 H 147.576 2.95291 -1.34067 0
M  V30 1568 H 147.361 2.46735 -3.04736 0
M  V30 1569 H 148.851 3.31637 -2.53785 0
M  V30 1570 N 149.288 1.51039 0.449983 0
M  V30 1571 C 150.218 1.74379 1.55288 0
M  V30 1572 C 151.199 0.593236 1.5942 0
M  V30 1573 O 152.384 0.834625 1.7535 0
M  V30 1574 C 149.514 1.85728 2.93466 0
M  V30 1575 C 148.468 3.01078 3.04197 0
M  V30 1576 C 147.794 2.97595 4.44231 0
M  V30 1577 C 149.094 4.41254 2.7945 0
M  V30 1578 H 150.788 2.66725 1.36008 0
M  V30 1579 H 148.334 1.2835 0.652864 0
M  V30 1580 H 150.287 2.0064 3.70569 0
M  V30 1581 H 149.011 0.900207 3.13949 0
M  V30 1582 H 147.67 2.85851 2.29531 0
M  V30 1583 H 147.318 1.99691 4.61663 0
M  V30 1584 H 147.018 3.75046 4.52343 0
M  V30 1585 H 148.542 3.14583 5.23326 0
M  V30 1586 H 149.956 4.56897 3.46292 0
M  V30 1587 H 148.353 5.20315 2.98985 0
M  V30 1588 H 149.423 4.52164 1.75144 0
M  V30 1589 N 150.766 -0.704594 1.40972 0
M  V30 1590 C 152.043 -1.45847 1.30338 0
M  V30 1591 C 152.423 -2.10973 -0.0732344 0
M  V30 1592 O 151.771 -2.00997 -1.08685 0
M  V30 1593 C 151.981 -2.48525 2.45023 0
M  V30 1594 C 153.329 -3.1404 2.8577 0
M  V30 1595 O 154.353 -2.58848 2.44696 0
M  V30 1596 O 153.212 -4.13981 3.56766 0
M  V30 1597 H 150.306 -0.649092 0.512454 0
M  V30 1598 H 152.852 -0.735836 1.52917 0
M  V30 1599 H 151.624 -1.98994 3.36923 0
M  V30 1600 H 151.247 -3.2831 2.24272 0
M  V30 1601 N 152.244 -1.26651 -0.937939 0
M  V30 1602 C 153.66 -1.03834 -1.21205 0
M  V30 1603 C 153.86 0.234502 -2.00131 0
M  V30 1604 O 152.916 0.942767 -2.3424 0
M  V30 1605 C 154.229 -2.27167 -1.97017 0
M  V30 1606 C 155.777 -2.32101 -2.09996 0
M  V30 1607 C 156.252 -3.55136 -2.8921 0
M  V30 1608 N 157.743 -3.55632 -2.96783 0
M  V30 1609 C 158.478 -4.475 -3.58512 0
M  V30 1610 N 157.974 -5.4966 -4.21717 0
M  V30 1611 N 159.767 -4.35145 -3.55816 0
M  V30 1612 H 151.918 -2.08398 -0.410391 0
M  V30 1613 H 154.181 -0.916031 -0.244114 0
M  V30 1614 H 153.887 -3.19765 -1.46434 0
M  V30 1615 H 153.761 -2.31672 -2.97671 0
M  V30 1616 H 156.148 -1.40015 -2.59769 0
M  V30 1617 H 156.229 -2.31605 -1.08594 0
M  V30 1618 H 155.873 -4.47553 -2.40123 0
M  V30 1619 H 155.803 -3.5288 -3.90875 0
M  V30 1620 H 158.294 -2.81743 -2.51852 0
M  V30 1621 H 158.607 -6.15943 -4.66727 0
M  V30 1622 H 156.952 -5.53514 -4.20294 0
M  V30 1623 H 160.143 -3.5455 -3.05634 0
M  V30 1624 H 160.316 -5.06934 -4.03636 0
M  V30 1625 N 153.722 1.14298 -1.08507 0
M  V30 1626 C 154.655 2.18447 -0.660004 0
M  V30 1627 C 155.633 1.59242 0.328749 0
M  V30 1628 O 156.817 1.87062 0.232367 0
M  V30 1629 C 153.944 3.38688 0.0290807 0
M  V30 1630 C 152.99 4.1646 -0.919982 0
M  V30 1631 S 153.823 4.77334 -2.42718 0
M  V30 1632 C 154.979 6.00931 -1.75024 0
M  V30 1633 H 155.212 2.54166 -1.54231 0
M  V30 1634 H 152.745 1.25446 -0.900149 0
M  V30 1635 H 154.703 4.08342 0.420378 0
M  V30 1636 H 153.364 3.01289 0.887895 0
M  V30 1637 H 152.557 5.02529 -0.384751 0
M  V30 1638 H 152.159 3.52414 -1.25223 0
M  V30 1639 H 154.451 6.69017 -1.06877 0
M  V30 1640 H 155.394 6.59044 -2.58971 0
M  V30 1641 H 155.802 5.51089 -1.22317 0
M  V30 1642 N 155.201 0.870884 1.31352 0
M  V30 1643 C 156.449 0.48132 1.96285 0
M  V30 1644 C 156.77 -0.969813 1.69173 0
M  V30 1645 O 156.04 -1.67998 1.00764 0
M  V30 1646 H 154.62 0.175002 0.726212 0
M  V30 1647 H 157.282 1.11087 1.60143 0
M  V30 1648 H 156.378 0.639825 3.05471 0
M  V30 1649 N 156.679 -1.44442 0.630414 0
M  V30 1650 C 157.926 -2.02052 0.134617 0
M  V30 1651 C 158.254 -1.49576 -1.24327 0
M  V30 1652 O 157.509 -0.669806 -1.83881 0
M  V30 1653 C 157.808 -3.57332 0.0697835 0
M  V30 1654 C 157.474 -4.29058 1.38635 0
M  V30 1655 C 156.136 -4.4837 1.74694 0
M  V30 1656 C 158.488 -4.69872 2.25543 0
M  V30 1657 C 155.816 -5.05756 2.97369 0
M  V30 1658 C 158.168 -5.28616 3.47487 0
M  V30 1659 C 156.832 -5.46147 3.8377 0
M  V30 1660 H 156.102 -0.739361 0.0492598 0
M  V30 1661 H 158.749 -1.73217 0.816586 0
M  V30 1662 H 157.054 -3.85577 -0.695553 0
M  V30 1663 H 158.751 -3.99637 -0.330344 0
M  V30 1664 H 155.341 -4.14357 1.09574 0
M  V30 1665 H 159.525 -4.54666 1.98979 0
M  V30 1666 H 154.781 -5.17515 3.25558 0
M  V30 1667 H 158.955 -5.59192 4.15063 0
M  V30 1668 H 156.582 -5.9038 4.7891 0
M  V30 1669 N 158.157 -0.370918 -1.53173 0
M  V30 1670 C 159.385 0.217704 -2.05751 0
M  V30 1671 C 159.8 1.42018 -1.24404 0
M  V30 1672 O 159.157 1.80245 -0.286033 0
M  V30 1673 C 159.208 0.605954 -3.56385 0
M  V30 1674 O 158.929 -0.548734 -4.3465 0
M  V30 1675 C 160.43 1.2524 -4.25241 0
M  V30 1676 H 157.65 0.0371659 -0.66997 0
M  V30 1677 H 160.194 -0.530832 -1.9749 0
M  V30 1678 H 158.349 1.3044 -3.6478 0
M  V30 1679 H 158.763 -0.23376 -5.23979 0
M  V30 1680 H 160.237 1.47458 -5.3194 0
M  V30 1681 H 160.714 2.2143 -3.79296 0
M  V30 1682 H 161.32 0.595233 -4.21114 0
M  V30 1683 N 159.635 1.57281 -0.100228 0
M  V30 1684 C 160.881 1.95626 0.556946 0
M  V30 1685 C 161.236 0.981655 1.65473 0
M  V30 1686 O 160.529 0.00849847 1.91598 0
M  V30 1687 C 160.723 3.38305 1.15259 0
M  V30 1688 C 160.552 4.49555 0.114035 0
M  V30 1689 C 159.322 5.0434 -0.311266 0
M  V30 1690 C 161.52 5.10051 -0.659768 0
M  V30 1691 N 159.502 5.99152 -1.33755 0
M  V30 1692 C 160.873 6.00628 -1.53774 0
M  V30 1693 C 162.928 4.92772 -0.712723 0
M  V30 1694 C 161.631 6.7578 -2.46403 0
M  V30 1695 C 163.657 5.6859 -1.62663 0
M  V30 1696 C 163.019 6.58838 -2.49222 0
M  V30 1697 H 159.118 0.7624 0.173982 0
M  V30 1698 H 161.702 1.93829 -0.183988 0
M  V30 1699 H 159.873 3.40786 1.86332 0
M  V30 1700 H 161.605 3.63817 1.77254 0
M  V30 1701 H 158.36 4.73537 0.0774812 0
M  V30 1702 H 158.784 6.5126 -1.84905 0
M  V30 1703 H 163.426 4.22761 -0.0576648 0
M  V30 1704 H 161.144 7.4505 -3.12931 0
M  V30 1705 H 164.73 5.57233 -1.67281 0
M  V30 1706 H 163.61 7.16479 -3.18791 0
M  V30 1707 N 161.113 -0.173488 1.56642 0
M  V30 1708 C 162.023 -1.23482 1.99473 0
M  V30 1709 C 163.039 -1.48567 0.905752 0
M  V30 1710 O 164.215 -1.60758 1.21321 0
M  V30 1711 C 161.28 -2.55444 2.34413 0
M  V30 1712 C 160.341 -2.38241 3.57127 0
M  V30 1713 C 159.574 -3.63909 3.90392 0
M  V30 1714 O 159.797 -4.68996 3.24653 0
M  V30 1715 O 158.731 -3.58149 4.83749 0
M  V30 1716 H 162.557 -0.901279 2.90018 0
M  V30 1717 H 160.142 -0.380185 1.44482 0
M  V30 1718 H 162.024 -3.33292 2.57865 0
M  V30 1719 H 160.699 -2.88382 1.4703 0
M  V30 1720 H 159.606 -1.58431 3.38896 0
M  V30 1721 H 160.939 -2.10228 4.45045 0
M  V30 1722 N 162.591 -1.51276 -0.441967 0
M  V30 1723 C 163.821 -1.67273 -1.21257 0
M  V30 1724 C 164.229 -0.367624 -1.85594 0
M  V30 1725 O 163.572 0.663349 -1.71305 0
M  V30 1726 C 163.634 -2.72807 -2.34129 0
M  V30 1727 C 163.298 -4.1554 -1.90198 0
M  V30 1728 C 164.295 -5.00471 -1.40801 0
M  V30 1729 C 161.98 -4.61616 -1.9803 0
M  V30 1730 C 163.974 -6.29536 -0.998174 0
M  V30 1731 C 161.661 -5.90679 -1.56658 0
M  V30 1732 C 162.659 -6.74466 -1.07633 0
M  V30 1733 O 162.347 -8.01116 -0.668459 0
M  V30 1734 H 162.079 -0.564614 -0.371734 0
M  V30 1735 H 164.633 -1.9843 -0.530521 0
M  V30 1736 H 162.863 -2.36954 -3.05597 0
M  V30 1737 H 164.552 -2.77729 -2.96009 0
M  V30 1738 H 165.318 -4.66079 -1.34148 0
M  V30 1739 H 161.197 -3.96526 -2.35135 0
M  V30 1740 H 164.741 -6.94885 -0.61482 0
M  V30 1741 H 160.638 -6.24586 -1.62979 0
M  V30 1742 H 161.406 -8.14633 -0.794722 0
M  V30 1743 N 164.069 0.697108 -1.41344 0
M  V30 1744 C 165.318 1.45279 -1.39918 0
M  V30 1745 C 165.631 1.95597 -0.0109624 0
M  V30 1746 O 166.837 2.71208 0.125919 0
M  V30 1747 C 165.293 2.62695 -2.46007 0
M  V30 1748 C 164.901 2.19169 -3.90729 0
M  V30 1749 C 166.645 3.40336 -2.53715 0
M  V30 1750 C 164.552 3.33535 -4.88373 0
M  V30 1751 H 163.482 0.545692 -0.520323 0
M  V30 1752 H 166.133 0.756929 -1.67161 0
M  V30 1753 H 164.515 3.34541 -2.11892 0
M  V30 1754 H 165.689 1.54623 -4.34083 0
M  V30 1755 H 164.004 1.54525 -3.86666 0
M  V30 1756 H 166.601 4.2547 -3.2385 0
M  V30 1757 H 166.944 3.85418 -1.5735 0
M  V30 1758 H 167.477 2.75546 -2.86913 0
M  V30 1759 H 164.216 2.93468 -5.86137 0
M  V30 1760 H 163.736 3.96936 -4.49668 0
M  V30 1761 H 165.415 3.99335 -5.09059 0
M  V30 1762 N 165.547 1.27147 0.931209 0
M  V30 1763 C 166.479 1.05364 2.03546 0
M  V30 1764 C 167.492 0.0108438 1.62796 0
M  V30 1765 O 168.681 0.25202 1.76712 0
M  V30 1766 C 165.781 0.575566 3.33977 0
M  V30 1767 C 164.954 1.68985 4.03439 0
M  V30 1768 C 164.013 1.20813 5.12143 0
M  V30 1769 O 163.039 1.90712 5.363 0
M  V30 1770 N 164.241 0.0618851 5.80467 0
M  V30 1771 H 167.006 2.00454 2.22796 0
M  V30 1772 H 164.567 1.18666 1.10136 0
M  V30 1773 H 166.559 0.237264 4.04004 0
M  V30 1774 H 165.129 -0.282016 3.11325 0
M  V30 1775 H 164.349 2.19861 3.27192 0
M  V30 1776 H 165.637 2.4378 4.46597 0
M  V30 1777 H 165.035 -0.521621 5.6329 0
M  V30 1778 H 163.592 -0.217264 6.51438 0
M  V30 1779 N 167.025 -1.13721 1.09112 0
M  V30 1780 C 167.935 -2.22638 0.73957 0
M  V30 1781 C 168.951 -1.72091 -0.257068 0
M  V30 1782 O 170.127 -2.01155 -0.0992154 0
M  V30 1783 C 167.192 -3.46322 0.16191 0
M  V30 1784 C 166.253 -4.11775 1.21408 0
M  V30 1785 C 165.486 -5.29555 0.663891 0
M  V30 1786 O 165.709 -5.68077 -0.514274 0
M  V30 1787 O 164.643 -5.84973 1.41738 0
M  V30 1788 H 168.469 -2.55074 1.64836 0
M  V30 1789 H 166.054 -1.21791 0.865289 0
M  V30 1790 H 167.936 -4.21107 -0.157073 0
M  V30 1791 H 166.611 -3.15593 -0.719932 0
M  V30 1792 H 165.518 -3.3883 1.58571 0
M  V30 1793 H 166.851 -4.46627 2.06845 0
M  V30 1794 N 168.503 -0.877838 -1.30888 0
M  V30 1795 C 169.433 -0.35534 -2.3078 0
M  V30 1796 C 170.414 0.557994 -1.60687 0
M  V30 1797 O 171.599 0.473355 -1.88343 0
M  V30 1798 C 168.729 0.437221 -3.44537 0
M  V30 1799 C 167.683 -0.383715 -4.26276 0
M  V30 1800 C 167.009 0.535014 -5.32017 0
M  V30 1801 C 168.309 -1.62201 -4.96476 0
M  V30 1802 H 170.003 -1.19007 -2.74732 0
M  V30 1803 H 167.549 -0.573698 -1.32078 0
M  V30 1804 H 169.502 0.813334 -4.13477 0
M  V30 1805 H 168.226 1.30553 -2.99372 0
M  V30 1806 H 166.885 -0.741874 -3.59015 0
M  V30 1807 H 166.533 1.40083 -4.831 0
M  V30 1808 H 166.233 -0.0104211 -5.87599 0
M  V30 1809 H 167.757 0.907799 -6.03814 0
M  V30 1810 H 169.171 -1.31689 -5.5797 0
M  V30 1811 H 167.568 -2.10711 -5.61891 0
M  V30 1812 H 168.638 -2.37044 -4.23011 0
M  V30 1813 N 169.982 1.44106 -0.638065 0
M  V30 1814 C 170.93 2.3248 0.0748149 0
M  V30 1815 C 171.924 1.47746 0.828702 0
M  V30 1816 O 173.13 1.64049 0.740816 0
M  V30 1817 H 169.505 0.750771 0.0429686 0
M  V30 1818 H 171.476 2.90348 -0.688504 0
M  V30 1819 C 170.225 3.31843 1.03805 0
M  V30 1820 H 169.548 3.97059 0.467375 0
M  V30 1821 H 170.988 3.96345 1.50622 0
M  V30 1822 C 169.447 2.61291 2.1267 0
M  V30 1823 O 169.977 2.41702 3.20847 0
M  V30 1824 N 168.183 2.20915 1.88798 0
M  V30 1825 H 167.73 2.37047 1.00829 0
M  V30 1826 H 167.688 1.74038 2.61836 0
M  V30 1827 N 171.46 0.379036 1.52974 0
M  V30 1828 C 172.871 -0.0972525 1.86447 0
M  V30 1829 C 173.222 -1.47027 1.29914 0
M  V30 1830 O 172.347 -2.07135 0.626433 0
M  V30 1831 C 172.942 -0.183248 3.38304 0
M  V30 1832 C 171.501 -0.603812 3.71525 0
M  V30 1833 C 170.648 0.240632 2.76254 0
M  V30 1834 H 173.599 0.597316 1.4703 0
M  V30 1835 H 173.62 -1.00432 3.67006 0
M  V30 1836 H 173.132 0.816191 3.79421 0
M  V30 1837 H 171.233 -1.61099 3.35973 0
M  V30 1838 H 171.346 -0.369086 4.77676 0
M  V30 1839 H 169.71 -0.292548 2.53014 0
M  V30 1840 H 170.493 1.23786 3.20206 0
M  V30 1841 N 172.938 -1.57226 0.108567 0
M  V30 1842 C 174.354 -1.5766 -0.248058 0
M  V30 1843 C 174.554 -1.12063 -1.67464 0
M  V30 1844 O 173.61 -0.803236 -2.39383 0
M  V30 1845 C 174.923 -3.0069 -0.0242287 0
M  V30 1846 C 176.471 -3.12868 -0.0909372 0
M  V30 1847 C 176.946 -4.57879 0.105067 0
M  V30 1848 N 178.437 -4.63172 0.0506846 0
M  V30 1849 C 179.172 -5.73126 0.177396 0
M  V30 1850 N 178.668 -6.91866 0.359696 0
M  V30 1851 N 180.461 -5.61977 0.117709 0
M  V30 1852 H 172.612 -1.85169 1.04049 0
M  V30 1853 H 174.875 -0.85529 0.40888 0
M  V30 1854 H 174.581 -3.38299 0.961604 0
M  V30 1855 H 174.455 -3.6945 -0.76068 0
M  V30 1856 H 176.842 -2.75124 -1.06729 0
M  V30 1857 H 176.923 -2.46672 0.677225 0
M  V30 1858 H 176.567 -4.96321 1.07834 0
M  V30 1859 H 176.497 -5.22153 -0.682954 0
M  V30 1860 H 178.988 -3.778 -0.0871266 0
M  V30 1861 H 179.301 -7.71503 0.447529 0
M  V30 1862 H 177.646 -6.93874 0.395536 0
M  V30 1863 H 180.837 -4.68094 -0.0236741 0
M  V30 1864 H 181.01 -6.47627 0.219905 0
M  V30 1865 N 174.416 0.165178 -1.56732 0
M  V30 1866 C 175.662 0.882112 -1.82611 0
M  V30 1867 C 175.995 1.81628 -0.687378 0
M  V30 1868 O 175.27 1.92009 0.310267 0
M  V30 1869 C 175.553 1.67245 -3.18906 0
M  V30 1870 C 175.406 0.760987 -4.43316 0
M  V30 1871 C 176.725 2.63884 -3.52212 0
M  V30 1872 H 173.844 0.319242 -0.664269 0
M  V30 1873 H 176.486 0.148052 -1.89422 0
M  V30 1874 H 174.636 2.29824 -3.1323 0
M  V30 1875 H 176.308 0.147596 -4.61064 0
M  V30 1876 H 174.551 0.0694102 -4.33744 0
M  V30 1877 H 175.222 1.34962 -5.35247 0
M  V30 1878 H 177.698 2.11429 -3.58381 0
M  V30 1879 H 176.574 3.16245 -4.48643 0
M  V30 1880 H 176.835 3.44377 -2.77231 0
M  V30 1881 N 175.894 1.51508 0.433938 0
M  V30 1882 C 177.143 1.63578 1.18005 0
M  V30 1883 C 177.456 0.359514 1.92268 0
M  V30 1884 O 178.662 0.359632 2.69108 0
M  V30 1885 C 177.118 2.88901 2.14626 0
M  V30 1886 C 176.726 4.23544 1.45995 0
M  V30 1887 C 178.47 3.10328 2.89649 0
M  V30 1888 C 176.377 5.40014 2.4112 0
M  V30 1889 H 175.307 0.609277 0.444182 0
M  V30 1890 H 177.958 1.77978 0.446773 0
M  V30 1891 H 176.34 2.68142 2.91403 0
M  V30 1892 H 177.514 4.54696 0.747532 0
M  V30 1893 H 175.829 4.08021 0.831115 0
M  V30 1894 H 178.426 3.94518 3.60915 0
M  V30 1895 H 178.769 2.23544 3.51189 0
M  V30 1896 H 179.302 3.31443 2.19978 0
M  V30 1897 H 176.041 6.29068 1.84264 0
M  V30 1898 H 175.561 5.13233 3.10406 0
M  V30 1899 H 177.24 5.72099 3.02177 0
M  V30 1900 N 177.372 -0.689602 1.41712 0
M  V30 1901 C 178.302 -1.81577 1.46806 0
M  V30 1902 C 179.283 -1.66945 0.326105 0
M  V30 1903 O 180.468 -1.86588 0.538377 0
M  V30 1904 C 177.598 -3.19762 1.35535 0
M  V30 1905 C 176.552 -3.49107 2.47605 0
M  V30 1906 C 175.878 -4.86711 2.21397 0
M  V30 1907 C 177.178 -3.47483 3.89939 0
M  V30 1908 H 178.872 -1.7757 2.41058 0
M  V30 1909 H 176.418 -0.852887 1.16025 0
M  V30 1910 H 178.371 -3.98263 1.3771 0
M  V30 1911 H 177.095 -3.24409 0.377708 0
M  V30 1912 H 175.754 -2.72959 2.44722 0
M  V30 1913 H 175.402 -4.8799 1.21961 0
M  V30 1914 H 175.102 -5.0731 2.96497 0
M  V30 1915 H 176.626 -5.67515 2.25297 0
M  V30 1916 H 178.04 -4.1598 3.94505 0
M  V30 1917 H 176.437 -3.79615 4.64771 0
M  V30 1918 H 177.507 -2.46341 4.17665 0
M  V30 1919 N 178.85 -1.27639 -0.924453 0
M  V30 1920 C 179.813 -1.10681 -2.00705 0
M  V30 1921 C 180.813 -0.0497823 -1.60723 0
M  V30 1922 O 182.003 -0.294654 -1.7169 0
M  V30 1923 C 179.135 -0.687164 -3.33902 0
M  V30 1924 H 180.328 -2.06817 -2.17179 0
M  V30 1925 H 177.881 -1.10473 -1.10569 0
M  V30 1926 H 178.616 0.275439 -3.23128 0
M  V30 1927 H 178.401 -1.45061 -3.6428 0
M  V30 1928 H 179.891 -0.590853 -4.13399 0
M  V30 1929 N 180.328 1.1314 -1.09713 0
M  V30 1930 C 181.553 1.88862 -0.857081 0
M  V30 1931 C 181.978 1.78729 0.586304 0
M  V30 1932 O 181.336 1.13692 1.41222 0
M  V30 1933 C 181.384 3.36325 -1.30069 0
M  V30 1934 O 180.488 4.09815 -0.461007 0
M  V30 1935 H 179.829 0.587108 -0.310162 0
M  V30 1936 H 182.359 1.43129 -1.46203 0
M  V30 1937 H 182.369 3.87157 -1.28738 0
M  V30 1938 H 181.044 3.43017 -2.35185 0
M  V30 1939 H 179.621 3.68986 -0.538888 0
M  V30 1940 N 181.806 0.884767 1.30421 0
M  V30 1941 C 183.052 0.503851 1.96441 0
M  V30 1942 C 183.385 -0.944518 1.69684 0
M  V30 1943 O 182.66 -1.66737 1.00145 0
M  V30 1944 C 182.943 0.779085 3.51571 0
M  V30 1945 C 182.796 2.27807 3.87846 0
M  V30 1946 C 184.115 0.255452 4.39358 0
M  V30 1947 H 181.234 0.184533 0.713524 0
M  V30 1948 H 183.876 1.10872 1.54297 0
M  V30 1949 H 182.026 0.264274 3.876 0
M  V30 1950 H 183.698 2.86127 3.61841 0
M  V30 1951 H 181.941 2.74479 3.35922 0
M  V30 1952 H 182.612 2.42125 4.96064 0
M  V30 1953 H 185.088 0.696079 4.10236 0
M  V30 1954 H 183.964 0.477361 5.4682 0
M  V30 1955 H 184.225 -0.843293 4.33983 0
M  V30 1956 N 183.284 -1.43765 0.645699 0
M  V30 1957 C 184.231 -2.30745 -0.0504648 0
M  V30 1958 C 185.201 -1.4432 -0.822241 0
M  V30 1959 O 186.386 -1.73202 -0.800358 0
M  V30 1960 C 183.526 -3.29802 -1.0161 0
M  V30 1961 C 182.639 -4.31326 -0.241219 0
M  V30 1962 C 181.774 -5.17469 -1.19998 0
M  V30 1963 C 180.813 -6.10691 -0.415094 0
M  V30 1964 N 179.95 -6.89483 -1.32506 0
M  V30 1965 H 184.79 -2.8973 0.697155 0
M  V30 1966 H 182.327 -1.42738 0.355563 0
M  V30 1967 H 184.285 -3.85734 -1.58949 0
M  V30 1968 H 182.915 -2.72483 -1.73069 0
M  V30 1969 H 181.967 -3.77749 0.448334 0
M  V30 1970 H 183.279 -4.9743 0.369437 0
M  V30 1971 H 182.433 -5.7799 -1.84424 0
M  V30 1972 H 181.172 -4.51473 -1.84455 0
M  V30 1973 H 180.177 -5.49265 0.242565 0
M  V30 1974 H 181.402 -6.78727 0.224966 0
M  V30 1975 H 179.348 -6.26142 -1.95657 0
M  V30 1976 H 179.265 -7.52081 -0.768783 0
M  V30 1977 H 180.533 -7.54516 -1.9577 0
M  V30 1978 N 184.763 -0.387143 -1.52771 0
M  V30 1979 C 186.011 0.195349 -2.01154 0
M  V30 1980 C 186.332 1.475 -1.27549 0
M  V30 1981 O 185.602 1.91878 -0.394924 0
M  V30 1982 H 184.182 0.075178 -0.743207 0
M  V30 1983 H 186.844 -0.518337 -1.87881 0
M  V30 1984 H 185.94 0.407096 -3.09434 0
M  V30 1985 N 186.241 1.57166 -0.116904 0
M  V30 1986 C 187.471 1.99184 0.548586 0
M  V30 1987 C 187.879 0.995436 1.60897 0
M  V30 1988 O 187.222 -0.0201293 1.83689 0
M  V30 1989 C 187.284 3.37611 1.23526 0
M  V30 1990 C 186.948 4.55857 0.323077 0
M  V30 1991 C 187.945 5.18056 -0.437476 0
M  V30 1992 C 185.63 5.01751 0.234761 0
M  V30 1993 C 187.624 6.24536 -1.2741 0
M  V30 1994 C 185.311 6.08093 -0.605496 0
M  V30 1995 C 186.309 6.69352 -1.35856 0
M  V30 1996 O 185.997 7.7364 -2.18487 0
M  V30 1997 H 185.729 0.659148 0.149999 0
M  V30 1998 H 188.283 2.0443 -0.199428 0
M  V30 1999 H 186.513 3.29113 2.0303 0
M  V30 2000 H 188.202 3.63932 1.79745 0
M  V30 2001 H 188.968 4.83516 -0.379105 0
M  V30 2002 H 184.847 4.53817 0.810601 0
M  V30 2003 H 188.391 6.72281 -1.86237 0
M  V30 2004 H 184.288 6.42063 -0.665268 0
M  V30 2005 H 185.056 7.90727 -2.11406 0
M  V30 2006 N 187.719 -0.156864 1.56817 0
M  V30 2007 C 188.682 -1.17781 1.96622 0
M  V30 2008 C 189.682 -1.36401 0.851555 0
M  V30 2009 O 190.872 -1.33561 1.11836 0
M  V30 2010 C 188.004 -2.54008 2.27361 0
M  V30 2011 H 189.197 -0.836564 2.87996 0
M  V30 2012 H 186.75 -0.39985 1.51099 0
M  V30 2013 H 187.485 -2.9312 1.38748 0
M  V30 2014 H 187.27 -2.41856 3.08623 0
M  V30 2015 H 188.76 -3.27558 2.59029 0
M  V30 2016 N 189.197 -1.51736 -0.425897 0
M  V30 2017 C 190.107 -1.76738 -1.54275 0
M  V30 2018 C 191.123 -0.65211 -1.61318 0
M  V30 2019 O 192.299 -0.935654 -1.78346 0
M  V30 2020 C 189.364 -1.89755 -2.90162 0
M  V30 2021 C 188.425 -3.13633 -2.93143 0
M  V30 2022 C 187.658 -3.2602 -4.22548 0
M  V30 2023 O 187.881 -2.44067 -5.15546 0
M  V30 2024 O 186.815 -4.19071 -4.32046 0
M  V30 2025 H 190.641 -2.71502 -1.36089 0
M  V30 2026 H 188.226 -1.36376 -0.610069 0
M  V30 2027 H 190.108 -2.00236 -3.70788 0
M  V30 2028 H 188.783 -0.981785 -3.08452 0
M  V30 2029 H 187.69 -3.08622 -2.11431 0
M  V30 2030 H 189.023 -4.04936 -2.798 0
M  V30 2031 N 190.675 0.682077 -1.42076 0
M  V30 2032 C 191.923 1.4393 -1.41876 0
M  V30 2033 C 192.244 1.94971 -0.0335599 0
M  V30 2034 O 191.514 1.72591 0.926773 0
M  V30 2035 H 190.094 0.534085 -0.522267 0
M  V30 2036 H 192.756 0.806427 -1.77434 0
M  V30 2037 H 191.852 2.29588 -2.11414 0
M  V30 2038 N 192.153 1.28127 0.917671 0
M  V30 2039 C 193.103 1.08361 2.00604 0
M  V30 2040 C 194.087 0.00847518 1.60898 0
M  V30 2041 O 195.279 0.228167 1.75523 0
M  V30 2042 C 192.408 0.743376 3.35155 0
M  V30 2043 C 191.494 1.85716 3.81275 0
M  V30 2044 N 191.885 3.09822 3.99805 0
M  V30 2045 C 190.183 1.74612 4.10398 0
M  V30 2046 C 190.884 3.82368 4.38372 0
M  V30 2047 N 189.86 3.10192 4.4641 0
M  V30 2048 H 193.662 2.02531 2.12975 0
M  V30 2049 H 191.176 1.18989 1.10523 0
M  V30 2050 H 193.173 0.582859 4.12805 0
M  V30 2051 H 191.833 -0.190595 3.2414 0
M  V30 2052 H 192.844 3.45475 3.85833 0
M  V30 2053 H 189.521 0.883657 4.08041 0
M  V30 2054 H 190.911 4.89082 4.60704 0
M  V30 2055 N 193.631 -1.12557 1.10312 0
M  V30 2056 C 194.594 -2.16434 0.75424 0
M  V30 2057 C 195.594 -1.59278 -0.220685 0
M  V30 2058 O 196.784 -1.742 0.00230591 0
M  V30 2059 C 193.916 -3.40699 0.116987 0
M  V30 2060 H 195.109 -2.48811 1.67431 0
M  V30 2061 H 192.662 -1.27542 0.903475 0
M  V30 2062 H 193.397 -3.13921 -0.813877 0
M  V30 2063 H 193.182 -3.83459 0.818613 0
M  V30 2064 H 194.672 -4.17451 -0.111387 0
M  V30 2065 N 195.109 -0.891671 -1.2995 0
M  V30 2066 C 196.057 -0.353066 -2.29905 0
M  V30 2067 C 197.051 0.543509 -1.60444 0
M  V30 2068 O 198.257 0.4272 -1.74857 0
M  V30 2069 H 194.632 -0.095531 -0.745907 0
M  V30 2070 H 196.603 -1.20961 -2.72784 0
M  V30 2071 C 195.352 0.411475 -3.45257 0
M  V30 2072 H 194.675 -0.269182 -3.98893 0
M  V30 2073 H 196.115 0.753328 -4.17254 0
M  V30 2074 C 194.574 1.6111 -2.9588 0
M  V30 2075 O 195.104 2.71045 -2.96475 0
M  V30 2076 N 193.31 1.45054 -2.51809 0
M  V30 2077 H 192.857 0.556175 -2.51524 0
M  V30 2078 H 192.815 2.25453 -2.1913 0
M  V30 2079 N 196.587 1.43421 -0.653314 0
M  V30 2080 C 197.497 2.34568 0.0388565 0
M  V30 2081 C 198.513 1.53888 0.81207 0
M  V30 2082 O 199.689 1.86539 0.759294 0
M  V30 2083 C 196.754 3.32167 0.993269 0
M  V30 2084 C 195.815 4.28751 0.216977 0
M  V30 2085 C 195.048 5.21688 1.12593 0
M  V30 2086 O 195.271 5.19052 2.36519 0
M  V30 2087 O 194.205 5.98919 0.598284 0
M  V30 2088 H 198.031 2.95251 -0.711386 0
M  V30 2089 H 195.616 1.43564 -0.413502 0
M  V30 2090 H 197.498 3.92183 1.54176 0
M  V30 2091 H 196.173 2.73987 1.72374 0
M  V30 2092 H 195.08 3.72215 -0.375101 0
M  V30 2093 H 196.413 4.89913 -0.473924 0
M  V30 2094 N 198.065 0.39524 1.52563 0
M  V30 2095 C 199.015 -0.4541 2.23432 0
M  V30 2096 C 199.999 -1.02482 1.24042 0
M  V30 2097 O 201.191 -0.949938 1.49349 0
M  V30 2098 C 198.32 -1.57769 3.049 0
M  V30 2099 C 197.406 -1.01842 4.1169 0
M  V30 2100 N 197.797 -0.184613 5.05463 0
M  V30 2101 C 196.095 -1.29033 4.26927 0
M  V30 2102 C 196.796 0.125013 5.81566 0
M  V30 2103 N 195.772 -0.480498 5.41472 0
M  V30 2104 H 199.574 0.189413 2.93289 0
M  V30 2105 H 197.088 0.204877 1.61102 0
M  V30 2106 H 199.085 -2.19862 3.54212 0
M  V30 2107 H 197.745 -2.22397 2.36579 0
M  V30 2108 H 198.756 0.178602 5.17592 0
M  V30 2109 H 195.433 -1.93721 3.69836 0
M  V30 2110 H 196.823 0.800962 6.67109 0
M  V30 2111 N 199.544 -1.57102 0.125237 0
M  V30 2112 C 200.474 -2.18659 -0.819174 0
M  V30 2113 C 201.455 -1.12843 -1.27281 0
M  V30 2114 O 202.64 -1.41104 -1.33429 0
M  V30 2115 C 199.77 -2.79096 -2.06695 0
M  V30 2116 C 198.724 -3.90548 -1.75088 0
M  V30 2117 C 198.05 -4.37821 -3.06948 0
M  V30 2118 C 199.35 -5.12356 -1.01435 0
M  V30 2119 H 201.044 -2.9783 -0.306202 0
M  V30 2120 H 198.59 -1.4326 -0.145839 0
M  V30 2121 H 200.543 -3.2082 -2.73226 0
M  V30 2122 H 199.267 -1.97223 -2.60328 0
M  V30 2123 H 197.926 -3.49409 -1.10944 0
M  V30 2124 H 197.574 -3.52799 -3.58527 0
M  V30 2125 H 197.274 -5.12982 -2.86571 0
M  V30 2126 H 198.798 -4.822 -3.74587 0
M  V30 2127 H 200.212 -5.5106 -1.58132 0
M  V30 2128 H 198.609 -5.9314 -0.911319 0
M  V30 2129 H 199.679 -4.849 -0.00218681 0
M  V30 2130 N 201.022 0.148545 -1.56898 0
M  V30 2131 C 201.969 1.18345 -1.98149 0
M  V30 2132 C 202.939 1.42772 -0.848848 0
M  V30 2133 O 204.124 1.55132 -1.11079 0
M  V30 2134 C 201.264 2.51231 -2.36594 0
M  V30 2135 C 200.377 2.33991 -3.63142 0
M  V30 2136 C 199.512 3.59902 -3.90697 0
M  V30 2137 C 198.551 3.37692 -5.1052 0
M  V30 2138 N 197.688 4.5573 -5.34092 0
M  V30 2139 H 202.528 0.82467 -2.86362 0
M  V30 2140 H 200.065 0.395756 -1.41676 0
M  V30 2141 H 202.023 3.28713 -2.56912 0
M  V30 2142 H 200.653 2.85059 -1.51463 0
M  V30 2143 H 199.705 1.47572 -3.50609 0
M  V30 2144 H 201.017 2.13539 -4.5078 0
M  V30 2145 H 200.171 4.45813 -4.11505 0
M  V30 2146 H 198.91 3.83357 -3.01477 0
M  V30 2147 H 197.915 2.5017 -4.89587 0
M  V30 2148 H 199.14 3.15637 -6.0129 0
M  V30 2149 H 197.086 4.79361 -4.47827 0
M  V30 2150 H 197.003 4.38274 -6.15996 0
M  V30 2151 H 198.271 5.42858 -5.59397 0
M  V30 2152 N 202.5 1.5196 0.417844 0
M  V30 2153 C 203.746 1.65836 1.16732 0
M  V30 2154 C 204.079 0.382881 1.90388 0
M  V30 2155 O 203.354 -0.618368 1.84408 0
M  V30 2156 C 203.637 2.87466 2.16876 0
M  V30 2157 C 203.49 4.25041 1.47174 0
M  V30 2158 C 204.809 3.04613 3.17646 0
M  V30 2159 H 201.928 0.603515 0.423011 0
M  V30 2160 H 204.57 1.84494 0.454105 0
M  V30 2161 H 202.72 2.71689 2.777 0
M  V30 2162 H 204.392 4.52527 0.895376 0
M  V30 2163 H 202.635 4.26843 0.773806 0
M  V30 2164 H 203.306 5.06176 2.20204 0
M  V30 2165 H 205.782 3.1923 2.66892 0
M  V30 2166 H 204.658 3.91247 3.8499 0
M  V30 2167 H 204.919 2.17541 3.84874 0
M  V30 2168 N 203.978 -0.674533 1.42435 0
M  V30 2169 C 205.208 -1.46071 1.46105 0
M  V30 2170 C 205.616 -1.89067 0.0709605 0
M  V30 2171 O 204.959 -1.58731 -0.924677 0
M  V30 2172 C 205.021 -2.74145 2.32561 0
M  V30 2173 C 204.685 -2.53224 3.8043 0
M  V30 2174 C 205.682 -2.17809 4.72075 0
M  V30 2175 C 203.367 -2.6821 4.24698 0
M  V30 2176 C 205.361 -1.97648 6.05982 0
M  V30 2177 C 203.048 -2.47665 5.58664 0
M  V30 2178 C 204.046 -2.12437 6.49122 0
M  V30 2179 O 203.734 -1.9209 7.80613 0
M  V30 2180 H 203.466 -0.455959 0.499076 0
M  V30 2181 H 206.02 -0.836193 1.87609 0
M  V30 2182 H 204.25 -3.3908 1.85908 0
M  V30 2183 H 205.939 -3.36028 2.27683 0
M  V30 2184 H 206.705 -2.05826 4.39159 0
M  V30 2185 H 202.584 -2.94609 3.54579 0
M  V30 2186 H 206.128 -1.70075 6.7655 0
M  V30 2187 H 202.025 -2.59244 5.91154 0
M  V30 2188 H 202.793 -2.06686 7.91974 0
M  V30 2189 N 205.456 -1.28612 -0.910864 0
M  V30 2190 C 206.366 -1.14643 -2.0468 0
M  V30 2191 C 207.382 -0.0723121 -1.7385 0
M  V30 2192 O 208.558 -0.282178 -1.99413 0
M  V30 2193 C 205.623 -0.812561 -3.37044 0
M  V30 2194 C 204.684 -1.96935 -3.81465 0
M  V30 2195 C 203.917 -1.65131 -5.07511 0
M  V30 2196 O 204.14 -0.567013 -5.67575 0
M  V30 2197 O 203.074 -2.49585 -5.47714 0
M  V30 2198 H 206.9 -2.1001 -2.19384 0
M  V30 2199 H 204.485 -1.07958 -1.03274 0
M  V30 2200 H 206.367 -0.640441 -4.16505 0
M  V30 2201 H 205.042 0.111426 -3.23508 0
M  V30 2202 H 203.949 -2.19664 -3.02818 0
M  V30 2203 H 205.282 -2.87414 -3.99567 0
M  V30 2204 N 206.934 1.1197 -1.10907 0
M  V30 2205 C 207.882 2.19927 -0.757303 0
M  V30 2206 C 208.876 1.67564 0.248747 0
M  V30 2207 O 210.082 1.79672 0.108605 0
M  V30 2208 H 206.457 0.716925 -0.226987 0
M  V30 2209 H 208.428 2.46847 -1.67658 0
M  V30 2210 C 207.177 3.47061 -0.210671 0
M  V30 2211 H 206.5 3.87703 -0.976049 0
M  V30 2212 H 207.94 4.24 -0.0026584 0
M  V30 2213 C 206.399 3.19864 1.05777 0
M  V30 2214 O 206.929 3.40049 2.13845 0
M  V30 2215 N 205.135 2.73636 0.978349 0
M  V30 2216 H 204.682 2.5741 0.0988246 0
M  V30 2217 H 204.64 2.55815 1.82773 0
M  V30 2218 N 208.412 0.89855 1.29475 0
M  V30 2219 C 209.658 0.524658 1.95896 0
M  V30 2220 C 209.991 -0.926468 1.70676 0
M  V30 2221 O 209.266 -1.65665 1.01908 0
M  V30 2222 C 209.549 0.81633 3.50725 0
M  V30 2223 C 209.402 2.31907 3.85408 0
M  V30 2224 C 210.721 0.302038 4.39062 0
M  V30 2225 H 207.84 0.19209 0.711527 0
M  V30 2226 H 210.482 1.12502 1.53112 0
M  V30 2227 H 208.632 0.305369 3.87298 0
M  V30 2228 H 210.304 2.89949 3.58786 0
M  V30 2229 H 208.547 2.78027 3.32992 0
M  V30 2230 H 209.218 2.47373 4.93468 0
M  V30 2231 H 211.694 0.739551 4.09475 0
M  V30 2232 H 210.57 0.535331 5.46283 0
M  V30 2233 H 210.831 -0.797216 4.34853 0
M  V30 2234 N 209.89 -1.43072 0.660911 0
M  V30 2235 C 210.853 -2.29194 -0.0166406 0
M  V30 2236 C 211.853 -1.42609 -0.742912 0
M  V30 2237 O 213.043 -1.64155 -0.583004 0
M  V30 2238 C 210.175 -3.24831 -1.0343 0
M  V30 2239 H 211.368 -2.90596 0.741208 0
M  V30 2240 H 208.921 -1.5048 0.422532 0
M  V30 2241 H 209.656 -2.68339 -1.82111 0
M  V30 2242 H 209.441 -3.88676 -0.517082 0
M  V30 2243 H 210.931 -3.89451 -1.50723 0
M  V30 2244 N 211.368 -0.403325 -1.52352 0
M  V30 2245 C 212.3 0.4603 -2.2453 0
M  V30 2246 C 213.313 1.01505 -1.27282 0
M  V30 2247 O 214.502 0.914982 -1.53266 0
M  V30 2248 C 211.602 1.65208 -2.95905 0
M  V30 2249 C 210.775 1.22224 -4.19976 0
M  V30 2250 C 209.834 2.28028 -4.74226 0
M  V30 2251 O 208.86 1.88857 -5.36956 0
M  V30 2252 N 210.062 3.6012 -4.55295 0
M  V30 2253 H 212.827 -0.158156 -2.99282 0
M  V30 2254 H 210.388 -0.230402 -1.60252 0
M  V30 2255 H 212.38 2.35541 -3.29093 0
M  V30 2256 H 210.95 2.17658 -2.24374 0
M  V30 2257 H 210.17 0.34725 -3.92668 0
M  V30 2258 H 211.458 0.911924 -5.00561 0
M  V30 2259 H 210.856 3.94698 -4.05253 0
M  V30 2260 H 209.413 4.26447 -4.92936 0
M  V30 2261 N 212.846 1.57033 -0.133567 0
M  V30 2262 C 214.086 1.97575 0.523789 0
M  V30 2263 C 214.45 1.01605 1.62912 0
M  V30 2264 O 215.651 1.3114 2.3464 0
M  V30 2265 C 213.922 3.42256 1.02935 0
M  V30 2266 S 215.481 4.04817 1.69319 0
M  V30 2267 H 212.299 0.690427 0.169799 0
M  V30 2268 H 214.901 1.94234 -0.222101 0
M  V30 2269 H 213.605 4.09842 0.213917 0
M  V30 2270 H 213.136 3.4928 1.81017 0
M  V30 2271 H 215.151 3.96767 2.97977 0
M  V30 2272 N 214.325 -0.140222 1.56975 0
M  V30 2273 C 215.55 -0.870414 1.88251 0
M  V30 2274 C 215.975 -1.73637 0.723312 0
M  V30 2275 O 215.333 -1.78329 -0.32689 0
M  V30 2276 C 215.381 -1.69737 3.18154 0
M  V30 2277 O 214.485 -2.80229 3.02565 0
M  V30 2278 H 213.826 -0.242025 0.61832 0
M  V30 2279 H 216.356 -0.128999 2.04193 0
M  V30 2280 H 216.366 -2.09099 3.50345 0
M  V30 2281 H 215.041 -1.06152 4.02125 0
M  V30 2282 H 213.618 -2.44224 2.81796 0
M  V30 2283 N 215.803 -1.52179 -0.40978 0
M  V30 2284 C 217.051 -1.65878 -1.15451 0
M  V30 2285 C 217.372 -0.390771 -1.91044 0
M  V30 2286 O 216.642 0.594323 -1.86667 0
M  V30 2287 H 215.222 -0.611405 -0.429177 0
M  V30 2288 H 217.884 -1.89219 -0.467134 0
M  V30 2289 H 216.98 -2.49954 -1.86894 0
M  V30 2290 N 217.281 0.66697 -1.42791 0
M  V30 2291 C 218.529 1.42417 -1.43394 0
M  V30 2292 C 218.85 1.94925 -0.0542373 0
M  V30 2293 O 218.12 1.73564 0.908415 0
M  V30 2294 H 216.7 0.528515 -0.527902 0
M  V30 2295 H 219.362 0.787562 -1.78279 0
M  V30 2296 H 218.458 2.27333 -2.13837 0
M  V30 2297 N 218.759 1.29093 0.90403 0
M  V30 2298 C 219.722 1.1386 1.98919 0
M  V30 2299 C 220.722 0.0753457 1.60623 0
M  V30 2300 O 221.912 0.321931 1.71199 0
M  V30 2301 C 219.044 0.740198 3.32767 0
M  V30 2302 H 220.237 2.10246 2.13861 0
M  V30 2303 H 217.79 1.12218 1.08797 0
M  V30 2304 H 218.525 -0.223997 3.23525 0
M  V30 2305 H 218.31 1.50838 3.61926 0
M  V30 2306 H 219.8 0.656546 4.12407 0
M  V30 2307 N 220.237 -1.11381 1.11499 0
M  V30 2308 C 221.2 -2.15622 0.777153 0
M  V30 2309 C 222.2 -1.59504 -0.203779 0
M  V30 2310 O 223.39 -1.74188 0.020782 0
M  V30 2311 C 220.522 -3.40556 0.153116 0
M  V30 2312 H 221.715 -2.47021 1.70061 0
M  V30 2313 H 219.268 -1.26577 0.916952 0
M  V30 2314 H 220.003 -3.14767 -0.780536 0
M  V30 2315 H 219.788 -3.8257 0.859238 0
M  V30 2316 H 221.278 -4.17546 -0.0671044 0
M  V30 2317 N 221.715 -0.905404 -1.28997 0
M  V30 2318 C 222.678 -0.392253 -2.25819 0
M  V30 2319 C 223.678 0.476753 -1.5357 0
M  V30 2320 O 224.868 0.280994 -1.71919 0
M  V30 2321 C 222 0.438588 -3.38067 0
M  V30 2322 H 223.193 -1.24743 -2.72725 0
M  V30 2323 H 220.746 -0.684051 -1.40536 0
M  V30 2324 H 221.481 1.31352 -2.96508 0
M  V30 2325 H 221.266 -0.184167 -3.91667 0
M  V30 2326 H 222.756 0.78873 -4.10084 0
M  V30 2327 N 223.193 1.4272 -0.668489 0
M  V30 2328 C 224.421 2.05966 -0.196348 0
M  V30 2329 C 224.836 1.50191 1.14403 0
M  V30 2330 O 224.193 0.639208 1.7094 0
M  V30 2331 C 224.244 3.61314 -0.115815 0
M  V30 2332 O 223.965 4.1502 -1.40322 0
M  V30 2333 C 225.466 4.41663 0.380579 0
M  V30 2334 H 222.686 0.663954 -0.0969829 0
M  V30 2335 H 225.23 1.82966 -0.913446 0
M  V30 2336 H 223.385 3.83448 0.551931 0
M  V30 2337 H 223.799 5.08832 -1.27243 0
M  V30 2338 H 225.273 5.5065 0.385848 0
M  V30 2339 H 225.75 4.15792 1.41471 0
M  V30 2340 H 226.356 4.24534 -0.255209 0
M  V30 2341 N 224.671 0.411399 1.52136 0
M  V30 2342 C 225.899 -0.163076 2.06256 0
M  V30 2343 C 226.314 -1.3867 1.28125 0
M  V30 2344 O 225.671 -1.79423 0.333721 0
M  V30 2345 C 225.722 -0.511252 3.57867 0
M  V30 2346 O 225.443 0.66378 4.33042 0
M  V30 2347 C 226.944 -1.13921 4.28412 0
M  V30 2348 H 224.164 -0.0193897 0.67072 0
M  V30 2349 H 226.708 0.583007 1.96013 0
M  V30 2350 H 224.863 -1.20723 3.6811 0
M  V30 2351 H 225.277 0.372601 5.23175 0
M  V30 2352 H 226.751 -1.33302 5.35663 0
M  V30 2353 H 227.228 -2.11296 3.85033 0
M  V30 2354 H 227.834 -0.483373 4.22544 0
M  V30 2355 N 226.149 -1.5696 0.141893 0
M  V30 2356 C 227.397 -1.95573 -0.509484 0
M  V30 2357 C 227.718 -1.02746 -1.65736 0
M  V30 2358 O 226.988 -0.0880311 -1.95702 0
M  V30 2359 H 225.568 -0.722115 -0.191205 0
M  V30 2360 H 228.23 -1.93697 0.216196 0
M  V30 2361 H 227.326 -2.99171 -0.889 0
M  V30 2362 N 227.627 0.131896 -1.57047 0
M  V30 2363 C 228.874 0.841932 -1.84168 0
M  V30 2364 C 229.202 1.8048 -0.725066 0
M  V30 2365 O 228.457 1.93618 0.284692 0
M  V30 2366 C 228.756 1.63703 -3.17704 0
M  V30 2367 C 228.422 0.81961 -4.43388 0
M  V30 2368 C 227.084 0.594148 -4.77518 0
M  V30 2369 C 229.436 0.248977 -5.20605 0
M  V30 2370 C 226.764 -0.212409 -5.86315 0
M  V30 2371 C 229.116 -0.544701 -6.30251 0
M  V30 2372 C 227.78 -0.780599 -6.6292 0
M  V30 2373 H 227.05 0.308085 -0.673917 0
M  V30 2374 H 229.697 0.104867 -1.91213 0
M  V30 2375 H 228.002 2.44464 -3.06177 0
M  V30 2376 H 229.699 2.19015 -3.35907 0
M  V30 2377 H 226.289 1.00542 -4.16641 0
M  V30 2378 H 230.473 0.410408 -4.946 0
M  V30 2379 H 225.729 -0.404524 -6.1006 0
M  V30 2380 H 229.903 -0.993922 -6.89271 0
M  V30 2381 H 227.53 -1.40742 -7.47058 0
M  V30 2382 N 229.106 1.52395 0.401703 0
M  V30 2383 C 230.352 1.68019 1.14635 0
M  V30 2384 C 230.707 0.408722 1.88009 0
M  V30 2385 O 230 -0.597133 1.82057 0
M  V30 2386 C 230.194 2.84578 2.16217 0
M  V30 2387 C 230.023 4.22938 1.5282 0
M  V30 2388 C 228.793 4.88352 1.29772 0
M  V30 2389 C 230.991 5.04778 0.985094 0
M  V30 2390 N 228.973 6.10726 0.623455 0
M  V30 2391 C 230.344 6.1845 0.438172 0
M  V30 2392 C 232.399 4.90057 0.880275 0
M  V30 2393 C 231.102 7.19013 -0.203306 0
M  V30 2394 C 233.128 5.9086 0.252639 0
M  V30 2395 C 232.49 7.03829 -0.283573 0
M  V30 2396 H 228.589 0.668413 0.405892 0
M  V30 2397 H 231.173 1.89717 0.437674 0
M  V30 2398 H 229.344 2.64483 2.84435 0
M  V30 2399 H 231.076 2.89202 2.83098 0
M  V30 2400 H 227.831 4.46846 1.56926 0
M  V30 2401 H 228.255 6.76323 0.302733 0
M  V30 2402 H 232.897 4.02938 1.28065 0
M  V30 2403 H 230.615 8.05751 -0.615726 0
M  V30 2404 H 234.201 5.81543 0.172954 0
M  V30 2405 H 233.081 7.80493 -0.761575 0
M  V30 2406 N 230.584 -0.659388 1.43143 0
M  V30 2407 C 231.861 -1.41627 1.34912 0
M  V30 2408 C 232.241 -2.11099 -0.00607785 0
M  V30 2409 O 231.589 -2.04353 -1.02236 0
M  V30 2410 C 231.799 -2.40604 2.52805 0
M  V30 2411 C 233.147 -3.04789 2.95616 0
M  V30 2412 O 234.171 -2.50932 2.52807 0
M  V30 2413 O 233.03 -4.02421 3.69756 0
M  V30 2414 H 230.124 -0.63246 0.532844 0
M  V30 2415 H 232.67 -0.686814 1.5518 0
M  V30 2416 H 231.442 -1.88174 3.43083 0
M  V30 2417 H 231.065 -3.21009 2.34604 0
M  V30 2418 N 232.062 -1.29571 -0.897171 0
M  V30 2419 C 233.31 -1.17456 -1.64464 0
M  V30 2420 C 233.631 0.273698 -1.9307 0
M  V30 2421 O 232.901 1.18684 -1.55855 0
M  V30 2422 H 231.481 -0.431706 -0.609622 0
M  V30 2423 H 234.143 -1.62531 -1.07562 0
M  V30 2424 H 233.239 -1.72648 -2.59998 0
M  V30 2425 N 233.54 1.10788 -1.12088 0
M  V30 2426 C 234.951 1.64181 -0.88891 0
M  V30 2427 C 235.302 1.87508 0.577498 0
M  V30 2428 O 234.427 1.61434 1.44112 0
M  V30 2429 C 235.022 2.98257 -1.60712 0
M  V30 2430 C 233.581 3.4853 -1.42139 0
M  V30 2431 C 232.728 2.23208 -1.6454 0
M  V30 2432 H 235.679 0.943368 -1.27618 0
M  V30 2433 H 235.7 3.65552 -1.05604 0
M  V30 2434 H 235.212 2.81246 -2.67436 0
M  V30 2435 H 233.313 3.70692 -0.376552 0
M  V30 2436 H 233.426 4.26882 -2.17505 0
M  V30 2437 H 231.79 2.31169 -1.06925 0
M  V30 2438 H 232.573 2.08733 -2.72554 0
M  V30 2439 N 235.018 0.912232 1.28515 0
M  V30 2440 C 236.429 0.591352 1.77087 0
M  V30 2441 C 236.78 -0.8933 1.74684 0
M  V30 2442 O 235.905 -1.69876 1.34056 0
M  V30 2443 C 236.5 1.06668 3.2157 0
M  V30 2444 C 235.059 0.79675 3.67871 0
M  V30 2445 C 234.206 1.23427 2.48316 0
M  V30 2446 H 237.157 1.09365 1.15 0
M  V30 2447 H 237.178 0.407455 3.78312 0
M  V30 2448 H 236.69 2.14726 3.23287 0
M  V30 2449 H 234.791 -0.270679 3.71616 0
M  V30 2450 H 234.904 1.40343 4.58084 0
M  V30 2451 H 233.268 0.653036 2.46186 0
M  V30 2452 H 234.051 2.32316 2.52753 0
M  V30 2453 N 236.496 -1.42363 0.676048 0
M  V30 2454 C 237.724 -2.05859 0.207268 0
M  V30 2455 C 238.139 -1.50796 -1.13605 0
M  V30 2456 O 237.496 -0.648265 -1.70598 0
M  V30 2457 C 237.547 -3.61248 0.134975 0
M  V30 2458 O 237.268 -4.1427 1.42521 0
M  V30 2459 C 238.769 -4.41859 -0.357151 0
M  V30 2460 H 235.989 -0.663431 0.100503 0
M  V30 2461 H 238.533 -1.82479 0.923136 0
M  V30 2462 H 236.688 -3.83735 -0.531588 0
M  V30 2463 H 237.102 -5.0815 1.29939 0
M  V30 2464 H 238.576 -5.50847 -0.356641 0
M  V30 2465 H 239.053 -4.16536 -1.39264 0
M  V30 2466 H 239.659 -4.24392 0.27772 0
M  V30 2467 N 237.974 -0.419461 -1.51915 0
M  V30 2468 C 239.22 0.153166 -2.02221 0
M  V30 2469 C 239.553 1.43907 -1.30401 0
M  V30 2470 O 238.828 1.90055 -0.413438 0
M  V30 2471 C 239.111 0.390291 -3.57979 0
M  V30 2472 C 238.964 -0.913014 -4.40436 0
M  V30 2473 C 240.283 1.16794 -4.2432 0
M  V30 2474 H 237.402 0.0541924 -0.735005 0
M  V30 2475 H 240.044 -0.554955 -1.81715 0
M  V30 2476 H 238.194 0.993491 -3.75582 0
M  V30 2477 H 239.866 -1.54882 -4.34522 0
M  V30 2478 H 238.109 -1.52168 -4.06236 0
M  V30 2479 H 238.78 -0.701361 -5.47526 0
M  V30 2480 H 241.256 0.657161 -4.10878 0
M  V30 2481 H 240.132 1.3026 -5.3322 0
M  V30 2482 H 240.393 2.19132 -3.83971 0
M  V30 2483 N 239.452 1.56882 -0.150215 0
M  V30 2484 C 240.677 2.01027 0.510184 0
M  V30 2485 C 241.102 1.02966 1.57415 0
M  V30 2486 O 240.46 0.00590158 1.81299 0
M  V30 2487 C 240.508 3.43899 1.08472 0
M  V30 2488 O 239.612 3.4885 2.19948 0
M  V30 2489 H 238.953 0.652233 0.124451 0
M  V30 2490 H 241.483 2.03093 -0.247894 0
M  V30 2491 H 241.493 3.82766 1.41259 0
M  V30 2492 H 240.168 4.14776 0.305582 0
M  V30 2493 H 238.745 3.21827 1.88366 0
M  V30 2494 N 240.93 -0.123565 1.57115 0
M  V30 2495 C 242.178 -0.83051 1.84247 0
M  V30 2496 C 242.499 -1.80629 0.73471 0
M  V30 2497 O 241.769 -1.94403 -0.241688 0
M  V30 2498 H 240.349 -0.309694 0.679778 0
M  V30 2499 H 243.011 -0.111976 1.94578 0
M  V30 2500 H 242.107 -1.37852 2.80006 0
M  V30 2501 N 242.408 -1.52605 -0.393616 0
M  V30 2502 C 243.371 -1.76415 -1.46323 0
M  V30 2503 C 244.371 -0.634126 -1.47768 0
M  V30 2504 O 245.561 -0.902142 -1.4902 0
M  V30 2505 C 242.693 -1.8607 -2.85641 0
M  V30 2506 H 243.886 -2.71916 -1.26498 0
M  V30 2507 H 241.439 -1.43257 -0.625073 0
M  V30 2508 H 242.174 -0.925378 -3.10817 0
M  V30 2509 H 241.959 -2.68235 -2.85993 0
M  V30 2510 H 243.449 -2.06179 -3.63153 0
M  V30 2511 N 243.887 0.651787 -1.4349 0
M  V30 2512 C 244.85 1.74647 -1.48429 0
M  V30 2513 C 245.85 1.56513 -0.368817 0
M  V30 2514 O 247.04 1.62385 -0.630623 0
M  V30 2515 C 244.172 3.13533 -1.33827 0
M  V30 2516 H 245.365 1.71649 -2.4592 0
M  V30 2517 H 242.918 0.863573 -1.30277 0
M  V30 2518 H 243.653 3.22142 -0.37349 0
M  V30 2519 H 243.438 3.28101 -2.14691 0
M  V30 2520 H 244.928 3.93356 -1.40218 0
M  V30 2521 N 245.365 1.30045 0.890287 0
M  V30 2522 C 246.295 1.18541 2.01172 0
M  V30 2523 C 247.276 0.0773356 1.69924 0
M  V30 2524 O 248.461 0.25845 1.92473 0
M  V30 2525 C 245.591 0.870941 3.36202 0
M  V30 2526 C 244.545 1.93637 3.81692 0
M  V30 2527 C 243.871 1.475 5.13953 0
M  V30 2528 C 245.171 3.34666 4.00994 0
M  V30 2529 H 246.865 2.12359 2.11054 0
M  V30 2530 H 244.411 1.02238 1.01407 0
M  V30 2531 H 246.364 0.777141 4.14172 0
M  V30 2532 H 245.088 -0.102926 3.26438 0
M  V30 2533 H 243.747 2.01972 3.05946 0
M  V30 2534 H 243.395 0.489551 5.00612 0
M  V30 2535 H 243.095 2.1876 5.4536 0
M  V30 2536 H 244.619 1.39489 5.94454 0
M  V30 2537 H 246.033 3.2912 4.69417 0
M  V30 2538 H 244.43 4.03966 4.43769 0
M  V30 2539 H 245.5 3.76949 3.05021 0
M  V30 2540 N 246.843 -1.10192 1.12674 0
M  V30 2541 C 248.091 -1.81845 0.881861 0
M  V30 2542 C 248.412 -1.85737 -0.593867 0
M  V30 2543 O 247.682 -1.33724 -1.4316 0
M  V30 2544 H 246.262 -0.673432 0.323261 0
M  V30 2545 H 248.924 -1.33316 1.42172 0
M  V30 2546 H 248.02 -2.85288 1.2656 0
M  V30 2547 N 248.321 -0.919034 -1.28029 0
M  V30 2548 C 249.598 -0.473668 -1.89778 0
M  V30 2549 C 249.978 1.04783 -1.83259 0
M  V30 2550 O 249.326 1.8982 -1.27202 0
M  V30 2551 C 249.536 -1.00998 -3.34066 0
M  V30 2552 C 250.884 -1.06525 -4.1102 0
M  V30 2553 O 251.908 -0.958996 -3.43048 0
M  V30 2554 O 250.767 -1.22776 -5.3253 0
M  V30 2555 H 247.861 -0.15098 -0.813101 0
M  V30 2556 H 250.407 -1.01016 -1.36359 0
M  V30 2557 H 249.179 -2.05392 -3.33061 0
M  V30 2558 H 248.802 -0.454626 -3.94992 0
M  V30 2559 N 249.799 1.42003 -0.683588 0
M  V30 2560 C 251.024 2.06265 -0.216647 0
M  V30 2561 C 251.449 1.51059 1.12083 0
M  V30 2562 O 250.807 0.632638 1.69904 0
M  V30 2563 C 250.855 3.60191 -0.171759 0
M  V30 2564 O 249.959 4.03396 0.857069 0
M  V30 2565 H 249.3 0.65502 -0.108834 0
M  V30 2566 H 251.83 1.81982 -0.935077 0
M  V30 2567 H 251.84 4.08 0.0014303 0
M  V30 2568 H 250.515 3.99743 -1.14796 0
M  V30 2569 H 249.092 3.67117 0.654208 0
M  V30 2570 N 251.277 0.427512 1.51691 0
M  V30 2571 C 252.225 -0.403359 2.29076 0
M  V30 2572 C 253.219 -1.02962 1.34518 0
M  V30 2573 O 254.425 -0.965715 1.51901 0
M  V30 2574 H 250.8 -0.148879 0.737115 0
M  V30 2575 H 252.771 0.270295 2.97173 0
M  V30 2576 C 251.52 -1.49763 3.13794 0
M  V30 2577 H 250.843 -1.02508 3.86435 0
M  V30 2578 H 252.283 -2.05244 3.71014 0
M  V30 2579 C 250.742 -2.47536 2.28533 0
M  V30 2580 O 251.272 -3.51848 1.93819 0
M  V30 2581 N 249.478 -2.18187 1.91945 0
M  V30 2582 H 249.025 -1.33389 2.20375 0
M  V30 2583 H 248.983 -2.83848 1.35195 0
M  V30 2584 N 252.755 -1.56801 0.158532 0
M  V30 2585 C 253.98 -2.01295 -0.499516 0
M  V30 2586 C 254.405 -1.03799 -1.56867 0
M  V30 2587 O 253.763 -0.0155162 -1.81293 0
M  V30 2588 C 253.811 -3.44469 -1.06647 0
M  V30 2589 O 252.915 -3.50012 -2.18095 0
M  V30 2590 H 252.256 -0.652884 -0.12099 0
M  V30 2591 H 254.786 -2.02958 0.258661 0
M  V30 2592 H 254.796 -3.8351 -1.39227 0
M  V30 2593 H 253.471 -4.14932 -0.283581 0
M  V30 2594 H 252.048 -3.22822 -1.86656 0
M  V30 2595 N 254.233 0.115231 -1.57178 0
M  V30 2596 C 255.481 0.820727 -1.84685 0
M  V30 2597 C 255.802 1.80237 -0.744279 0
M  V30 2598 O 255.072 1.94529 0.231375 0
M  V30 2599 H 253.652 0.306084 -0.681411 0
M  V30 2600 H 256.314 0.101656 -1.94635 0
M  V30 2601 H 255.41 1.36366 -2.80733 0
M  V30 2602 N 255.711 1.52812 0.385517 0
M  V30 2603 C 256.644 1.72592 1.49289 0
M  V30 2604 C 257.622 0.573819 1.52138 0
M  V30 2605 O 258.806 0.80404 1.70492 0
M  V30 2606 C 255.933 1.78669 2.87741 0
M  V30 2607 C 254.979 3.00455 3.02703 0
M  V30 2608 S 255.812 4.60366 2.73538 0
M  V30 2609 C 256.968 4.69263 4.14177 0
M  V30 2610 H 257.201 2.66248 1.32285 0
M  V30 2611 H 254.734 1.43148 0.578611 0
M  V30 2612 H 256.692 1.82855 3.67524 0
M  V30 2613 H 255.353 0.861 3.02069 0
M  V30 2614 H 254.546 3.01258 4.04054 0
M  V30 2615 H 254.148 2.94278 2.30817 0
M  V30 2616 H 256.44 4.48092 5.08153 0
M  V30 2617 H 257.383 5.71276 4.18388 0
M  V30 2618 H 257.791 3.98072 4.00249 0
M  V30 2619 N 257.189 -0.644168 1.43834 0
M  V30 2620 C 258.139 -1.7501 1.46135 0
M  V30 2621 C 259.123 -1.57507 0.328685 0
M  V30 2622 O 260.315 -1.67465 0.5731 0
M  V30 2623 C 257.444 -3.13641 1.39585 0
M  V30 2624 C 256.53 -3.3666 2.57916 0
M  V30 2625 N 256.921 -3.30107 3.83227 0
M  V30 2626 C 255.219 -3.67411 2.52834 0
M  V30 2627 C 255.92 -3.53456 4.61999 0
M  V30 2628 N 254.896 -3.75705 3.9287 0
M  V30 2629 H 258.698 -1.68382 2.40883 0
M  V30 2630 H 256.212 -0.846169 1.38614 0
M  V30 2631 H 258.209 -3.92933 1.39317 0
M  V30 2632 H 256.869 -3.21444 0.45865 0
M  V30 2633 H 257.88 -3.09316 4.15384 0
M  V30 2634 H 254.557 -3.82275 1.67845 0
M  V30 2635 H 255.947 -3.54093 5.71024 0
M  V30 2636 N 258.668 -1.30515 -0.883378 0
M  V30 2637 C 259.598 -1.19607 -2.00541 0
M  V30 2638 C 260.579 -0.086346 -1.69881 0
M  V30 2639 O 261.764 -0.268654 -1.92333 0
M  V30 2640 C 258.894 -0.888758 -3.35736 0
M  V30 2641 C 257.848 -1.95659 -3.8066 0
M  V30 2642 C 257.174 -1.50224 -5.13164 0
M  V30 2643 C 258.474 -3.36788 -3.99213 0
M  V30 2644 H 260.168 -2.13476 -2.09925 0
M  V30 2645 H 257.714 -1.02775 -1.00863 0
M  V30 2646 H 259.667 -0.799094 -4.13754 0
M  V30 2647 H 258.391 0.0856125 -3.26488 0
M  V30 2648 H 257.05 -2.03591 -3.04871 0
M  V30 2649 H 256.698 -0.516092 -5.00345 0
M  V30 2650 H 256.398 -2.2165 -5.44192 0
M  V30 2651 H 257.922 -1.42639 -5.93706 0
M  V30 2652 H 259.336 -3.31605 -4.67665 0
M  V30 2653 H 257.733 -4.06314 -4.41621 0
M  V30 2654 H 258.803 -3.78561 -3.03017 0
M  V30 2655 N 260.146 1.09593 -1.13257 0
M  V30 2656 C 261.079 2.15451 -0.752061 0
M  V30 2657 C 262.057 1.60493 0.260913 0
M  V30 2658 O 263.241 1.8788 0.152819 0
M  V30 2659 C 260.368 3.38506 -0.114594 0
M  V30 2660 C 259.414 4.12183 -1.09579 0
M  V30 2661 S 260.247 4.6661 -2.62745 0
M  V30 2662 C 261.403 5.92966 -2.00354 0
M  V30 2663 H 261.636 2.47395 -1.64872 0
M  V30 2664 H 259.169 1.21515 -0.952545 0
M  V30 2665 H 261.127 4.09757 0.246808 0
M  V30 2666 H 259.788 3.04784 0.759309 0
M  V30 2667 H 258.981 5.00445 -0.597545 0
M  V30 2668 H 258.583 3.46785 -1.40057 0
M  V30 2669 H 260.875 6.63882 -1.35156 0
M  V30 2670 H 261.818 6.47467 -2.86691 0
M  V30 2671 H 262.226 5.45405 -1.4558 0
M  V30 2672 N 261.624 0.925811 1.2754 0
M  V30 2673 C 262.873 0.561084 1.93739 0
M  V30 2674 C 263.186 -0.901685 1.73577 0
M  V30 2675 O 264.392 -1.37511 2.34101 0
M  V30 2676 C 262.848 0.952668 3.47062 0
M  V30 2677 C 262.456 2.43599 3.75983 0
M  V30 2678 C 264.2 0.659103 4.19352 0
M  V30 2679 C 262.107 2.76707 5.22673 0
M  V30 2680 H 261.037 0.206122 0.725279 0
M  V30 2681 H 263.688 1.12637 1.44863 0
M  V30 2682 H 262.07 0.316053 3.94737 0
M  V30 2683 H 263.244 3.12035 3.39073 0
M  V30 2684 H 261.559 2.70125 3.16893 0
M  V30 2685 H 264.156 0.882985 5.27359 0
M  V30 2686 H 264.499 -0.403607 4.14339 0
M  V30 2687 H 265.032 1.25473 3.77494 0
M  V30 2688 H 261.771 3.8188 5.32774 0
M  V30 2689 H 261.291 2.12919 5.60737 0
M  V30 2690 H 262.97 2.6435 5.90532 0
M  V30 2691 N 263.102 -1.41638 0.69111 0
M  V30 2692 C 264.35 -2.00902 0.219758 0
M  V30 2693 C 264.671 -1.54994 -1.18329 0
M  V30 2694 O 263.941 -0.778628 -1.79762 0
M  V30 2695 H 262.521 -0.74289 0.0782558 0
M  V30 2696 H 265.183 -1.73327 0.891271 0
M  V30 2697 H 264.279 -3.11224 0.233708 0
M  V30 2698 N 264.58 -0.43555 -1.51462 0
M  V30 2699 C 265.829 0.133007 -2.01261 0
M  V30 2700 C 266.142 1.43942 -1.32439 0
M  V30 2701 O 267.348 2.09081 -1.73198 0
M  V30 2702 C 265.804 0.287581 -3.58749 0
M  V30 2703 C 265.412 -1.00829 -4.36506 0
M  V30 2704 C 267.156 0.810004 -4.167 0
M  V30 2705 C 265.063 -0.819454 -5.85695 0
M  V30 2706 H 263.993 0.0534822 -0.752101 0
M  V30 2707 H 266.644 -0.565038 -1.74584 0
M  V30 2708 H 265.026 1.04859 -3.81865 0
M  V30 2709 H 266.2 -1.77749 -4.25138 0
M  V30 2710 H 264.515 -1.45911 -3.89999 0
M  V30 2711 H 267.112 0.967743 -5.2587 0
M  V30 2712 H 267.455 1.79196 -3.75758 0
M  V30 2713 H 267.988 0.107357 -3.97655 0
M  V30 2714 H 264.727 -1.77374 -6.31046 0
M  V30 2715 H 264.247 -0.0900208 -5.99732 0
M  V30 2716 H 265.926 -0.471949 -6.45276 0
M  V30 2717 N 266.058 1.56714 -0.166846 0
M  V30 2718 C 266.988 2.20754 0.760913 0
M  V30 2719 C 267.969 1.16178 1.24244 0
M  V30 2720 O 269.154 1.44592 1.29641 0
M  V30 2721 C 266.284 2.84478 1.99223 0
M  V30 2722 C 265.238 3.95053 1.64672 0
M  V30 2723 C 264.564 4.45805 2.95232 0
M  V30 2724 C 265.864 5.14865 0.878155 0
M  V30 2725 H 267.558 2.98537 0.22713 0
M  V30 2726 H 265.104 1.43596 0.107805 0
M  V30 2727 H 267.057 3.27951 2.64624 0
M  V30 2728 H 265.781 2.04056 2.55007 0
M  V30 2729 H 264.44 3.52228 1.01641 0
M  V30 2730 H 264.088 3.62181 3.49047 0
M  V30 2731 H 263.788 5.204 2.7287 0
M  V30 2732 H 265.312 4.91962 3.6167 0
M  V30 2733 H 266.726 5.55059 1.43466 0
M  V30 2734 H 265.123 5.95348 0.753738 0
M  V30 2735 H 266.193 4.84735 -0.126377 0
M  V30 2736 N 267.536 -0.106894 1.57237 0
M  V30 2737 C 268.499 -1.11466 2.0027 0
M  V30 2738 C 269.499 -1.33623 0.894519 0
M  V30 2739 O 270.689 -1.29935 1.16028 0
M  V30 2740 C 267.821 -2.46646 2.35327 0
M  V30 2741 H 269.014 -0.744516 2.90512 0
M  V30 2742 H 266.567 -0.351576 1.52295 0
M  V30 2743 H 267.302 -2.88558 1.48003 0
M  V30 2744 H 267.087 -2.31915 3.16161 0
M  V30 2745 H 268.577 -3.19151 2.69318 0
M  V30 2746 N 269.014 -1.53014 -0.377408 0
M  V30 2747 C 269.977 -1.77957 -1.44444 0
M  V30 2748 C 270.977 -0.649763 -1.47087 0
M  V30 2749 O 272.167 -0.917897 -1.48055 0
M  V30 2750 C 269.299 -1.89089 -2.83651 0
M  V30 2751 H 270.492 -2.73243 -1.23606 0
M  V30 2752 H 268.045 -1.43912 -0.609844 0
M  V30 2753 H 268.78 -0.958293 -3.09818 0
M  V30 2754 H 268.565 -2.71254 -2.83132 0
M  V30 2755 H 270.055 -2.1002 -3.60945 0
M  V30 2756 N 270.492 0.636531 -1.44174 0
M  V30 2757 C 271.422 1.76003 -1.53444 0
M  V30 2758 C 272.403 1.65619 -0.387841 0
M  V30 2759 O 273.588 1.84461 -0.607257 0
M  V30 2760 C 270.718 3.14511 -1.4731 0
M  V30 2761 C 269.672 3.39677 -2.60391 0
M  V30 2762 C 268.998 4.78159 -2.39308 0
M  V30 2763 C 270.298 3.32772 -4.02567 0
M  V30 2764 H 271.992 1.68501 -2.47483 0
M  V30 2765 H 269.538 0.809237 -1.19111 0
M  V30 2766 H 271.491 3.92878 -1.52397 0
M  V30 2767 H 270.215 3.22783 -0.49785 0
M  V30 2768 H 268.874 2.63688 -2.54684 0
M  V30 2769 H 268.522 4.83128 -1.39988 0
M  V30 2770 H 268.222 4.95956 -3.15122 0
M  V30 2771 H 269.746 5.58762 -2.46205 0
M  V30 2772 H 271.16 4.01051 -4.09672 0
M  V30 2773 H 269.557 3.62104 -4.7854 0
M  V30 2774 H 270.627 2.30669 -4.2652 0
M  V30 2775 N 271.97 1.30982 0.876444 0
M  V30 2776 C 272.88 1.2003 2.01569 0
M  V30 2777 C 273.896 0.11838 1.73597 0
M  V30 2778 O 275.072 0.33495 1.98595 0
M  V30 2779 C 272.137 0.901637 3.34771 0
M  V30 2780 C 271.198 2.06979 3.76109 0
M  V30 2781 C 270.431 1.78529 5.02954 0
M  V30 2782 O 270.654 0.717296 5.65872 0
M  V30 2783 O 269.588 2.64019 5.40905 0
M  V30 2784 H 273.414 2.15753 2.13739 0
M  V30 2785 H 270.999 1.10658 1.00375 0
M  V30 2786 H 272.881 0.750645 4.1466 0
M  V30 2787 H 271.556 -0.0256141 3.2369 0
M  V30 2788 H 270.463 2.27616 2.96887 0
M  V30 2789 H 271.796 2.97907 3.91807 0
M  V30 2790 N 273.449 -1.08991 1.13837 0
M  V30 2791 C 274.382 -2.15049 0.763477 0
M  V30 2792 C 275.36 -1.60629 -0.252398 0
M  V30 2793 O 276.544 -1.87958 -0.142853 0
M  V30 2794 C 273.671 -3.38441 0.132545 0
M  V30 2795 C 272.717 -4.11596 1.11763 0
M  V30 2796 S 273.55 -4.6521 2.65216 0
M  V30 2797 C 274.706 -5.91896 2.03495 0
M  V30 2798 H 274.939 -2.46518 1.66182 0
M  V30 2799 H 272.472 -1.21008 0.958976 0
M  V30 2800 H 274.43 -4.09883 -0.225074 0
M  V30 2801 H 273.091 -3.05182 -0.743135 0
M  V30 2802 H 272.284 -5.00121 0.624076 0
M  V30 2803 H 271.886 -3.46038 1.41894 0
M  V30 2804 H 274.178 -6.63156 1.38675 0
M  V30 2805 H 275.121 -6.45938 2.9012 0
M  V30 2806 H 275.529 -5.44625 1.48471 0
M  V30 2807 N 274.927 -0.932562 -1.27047 0
M  V30 2808 C 276.343 -0.633544 -1.46487 0
M  V30 2809 C 276.543 0.815746 -1.84249 0
M  V30 2810 O 275.599 1.59319 -1.95892 0
M  V30 2811 C 276.912 -1.58758 -2.55375 0
M  V30 2812 C 278.46 -1.59634 -2.69232 0
M  V30 2813 C 278.935 -2.53747 -3.81283 0
M  V30 2814 N 280.426 -2.51982 -3.88664 0
M  V30 2815 C 281.161 -3.21491 -4.74796 0
M  V30 2816 N 280.657 -4.00395 -5.65381 0
M  V30 2817 N 282.45 -3.10485 -4.68568 0
M  V30 2818 H 274.601 -1.86946 -1.00821 0
M  V30 2819 H 276.864 -0.802897 -0.504044 0
M  V30 2820 H 276.57 -2.62172 -2.34432 0
M  V30 2821 H 276.444 -1.33301 -3.52861 0
M  V30 2822 H 278.831 -0.569488 -2.89553 0
M  V30 2823 H 278.912 -1.89142 -1.72218 0
M  V30 2824 H 278.556 -3.56545 -3.61715 0
M  V30 2825 H 278.486 -2.21532 -4.77735 0
M  V30 2826 H 280.977 -1.94681 -3.23895 0
M  V30 2827 H 281.29 -4.50406 -6.27976 0
M  V30 2828 H 279.635 -4.04498 -5.65161 0
M  V30 2829 H 282.826 -2.48331 -3.96799 0
M  V30 2830 H 282.999 -3.64925 -5.35475 0
M  V30 2831 N 276.405 1.4127 -0.698611 0
M  V30 2832 C 277.355 2.27997 -0.0119836 0
M  V30 2833 C 278.339 1.42363 0.749765 0
M  V30 2834 O 279.531 1.65607 0.624758 0
M  V30 2835 C 276.66 3.30702 0.921458 0
M  V30 2836 C 275.746 4.23814 0.155796 0
M  V30 2837 N 276.137 4.98572 -0.852015 0
M  V30 2838 C 274.435 4.44284 0.390836 0
M  V30 2839 C 275.136 5.66744 -1.3106 0
M  V30 2840 N 274.112 5.39867 -0.635944 0
M  V30 2841 H 277.914 2.83232 -0.784649 0
M  V30 2842 H 275.428 1.53518 -0.529711 0
M  V30 2843 H 277.425 3.91661 1.42854 0
M  V30 2844 H 276.085 2.77028 1.69369 0
M  V30 2845 H 277.096 5.03024 -1.23235 0
M  V30 2846 H 273.773 4.01614 1.14071 0
M  V30 2847 H 275.163 6.36672 -2.14707 0
M  V30 2848 N 277.883 0.443576 1.51229 0
M  V30 2849 C 278.83 -0.364716 2.279 0
M  V30 2850 C 279.8 -1.0114 1.31757 0
M  V30 2851 O 280.985 -1.02912 1.60667 0
M  V30 2852 C 278.125 -1.45644 3.12861 0
M  V30 2853 C 277.238 -0.827269 4.24005 0
M  V30 2854 C 276.373 -1.89456 4.96266 0
M  V30 2855 C 275.412 -1.24416 5.99322 0
M  V30 2856 N 274.549 -2.25309 6.64966 0
M  V30 2857 H 279.389 0.295464 2.96532 0
M  V30 2858 H 276.926 0.157554 1.46254 0
M  V30 2859 H 278.884 -2.10076 3.6045 0
M  V30 2860 H 277.514 -2.08616 2.46331 0
M  V30 2861 H 276.566 -0.0710839 3.80334 0
M  V30 2862 H 277.878 -0.312481 4.9782 0
M  V30 2863 H 277.032 -2.61535 5.47434 0
M  V30 2864 H 275.771 -2.4431 4.22095 0
M  V30 2865 H 274.776 -0.508868 5.4744 0
M  V30 2866 H 276.001 -0.702882 6.75453 0
M  V30 2867 H 273.947 -2.79231 5.93604 0
M  V30 2868 H 273.864 -1.78739 7.34567 0
M  V30 2869 H 275.132 -2.96853 7.20763 0
M  V30 2870 N 279.361 -1.56624 0.175154 0
M  V30 2871 C 280.589 -2.01374 -0.474971 0
M  V30 2872 C 281.004 -1.05537 -1.56548 0
M  V30 2873 O 280.361 -0.0568668 -1.82411 0
M  V30 2874 C 280.412 -3.45923 -1.04975 0
M  V30 2875 O 280.133 -4.381 -0.00276605 0
M  V30 2876 C 281.634 -4.06093 -1.77773 0
M  V30 2877 H 278.854 -0.659962 -0.121206 0
M  V30 2878 H 281.398 -2.02601 0.27801 0
M  V30 2879 H 279.553 -3.45458 -1.75321 0
M  V30 2880 H 279.967 -5.22753 -0.427681 0
M  V30 2881 H 281.441 -5.09147 -2.13245 0
M  V30 2882 H 281.918 -3.48405 -2.67414 0
M  V30 2883 H 282.524 -4.10272 -1.12059 0
M  V30 2884 N 280.839 0.0985539 -1.57292 0
M  V30 2885 C 282.087 0.801092 -1.85545 0
M  V30 2886 C 282.408 1.79438 -0.763353 0
M  V30 2887 O 281.678 1.94763 0.21073 0
M  V30 2888 H 280.258 0.29884 -0.684619 0
M  V30 2889 H 282.92 0.0810064 -1.94732 0
M  V30 2890 H 282.016 1.3338 -2.82163 0
M  V30 2891 N 282.317 1.53212 0.369288 0
M  V30 2892 C 283.733 1.42902 0.710712 0
M  V30 2893 C 283.933 0.565135 1.93413 0
M  V30 2894 O 282.989 0.0461484 2.52458 0
M  V30 2895 C 284.302 2.86042 0.927382 0
M  V30 2896 C 285.85 2.9565 1.02762 0
M  V30 2897 C 286.325 4.39843 1.27679 0
M  V30 2898 N 287.816 4.43256 1.34457 0
M  V30 2899 C 288.551 5.51929 1.55439 0
M  V30 2900 N 288.047 6.70655 1.73762 0
M  V30 2901 N 289.84 5.39502 1.57779 0
M  V30 2902 H 281.991 2.07888 -0.435457 0
M  V30 2903 H 284.254 0.938661 -0.132739 0
M  V30 2904 H 283.96 3.51557 0.100287 0
M  V30 2905 H 283.834 3.29472 1.83653 0
M  V30 2906 H 286.221 2.30291 1.84527 0
M  V30 2907 H 286.302 2.5562 0.0959504 0
M  V30 2908 H 285.946 5.05774 0.464175 0
M  V30 2909 H 285.876 4.77443 2.22162 0
M  V30 2910 H 288.367 3.5769 1.21926 0
M  V30 2911 H 288.68 7.49248 1.89335 0
M  V30 2912 H 287.025 6.73648 1.70948 0
M  V30 2913 H 290.216 4.45713 1.43029 0
M  V30 2914 H 290.389 6.2426 1.7379 0
M  V30 2915 N 283.795 -0.628877 1.44509 0
M  V30 2916 C 285.043 -1.38565 1.4712 0
M  V30 2917 C 285.364 -1.94712 0.105899 0
M  V30 2918 O 284.634 -1.75912 -0.862079 0
M  V30 2919 H 283.214 -0.514333 0.541729 0
M  V30 2920 H 285.876 -0.740018 1.80305 0
M  V30 2921 H 284.972 -2.21583 2.19789 0
M  V30 2922 N 285.273 -1.31445 -0.869486 0
M  V30 2923 C 286.205 -1.14955 -1.98287 0
M  V30 2924 C 287.218 -0.0885037 -1.62559 0
M  V30 2925 O 288.407 -0.336044 -1.75308 0
M  V30 2926 C 285.507 -0.734255 -3.3085 0
M  V30 2927 C 284.68 -1.88042 -3.94917 0
M  V30 2928 C 283.739 -1.4511 -5.05796 0
M  V30 2929 O 282.765 -2.16082 -5.2659 0
M  V30 2930 N 283.967 -0.338763 -5.79511 0
M  V30 2931 H 286.732 -2.10856 -2.12979 0
M  V30 2932 H 284.293 -1.23786 -1.04349 0
M  V30 2933 H 286.285 -0.42975 -4.02412 0
M  V30 2934 H 284.855 0.133158 -3.12316 0
M  V30 2935 H 284.075 -2.35222 -3.1633 0
M  V30 2936 H 285.363 -2.6481 -4.34457 0
M  V30 2937 H 284.761 0.252274 -5.65137 0
M  V30 2938 H 283.318 -0.0937925 -6.51733 0
M  V30 2939 N 286.751 1.08385 -1.14413 0
M  V30 2940 C 287.698 2.15311 -0.831265 0
M  V30 2941 C 288.668 1.64751 0.211292 0
M  V30 2942 O 289.853 1.90627 0.0811674 0
M  V30 2943 C 286.993 3.43658 -0.315143 0
M  V30 2944 C 286.106 4.08064 -1.41802 0
M  V30 2945 C 285.241 5.24207 -0.859126 0
M  V30 2946 C 284.28 5.80554 -1.93967 0
M  V30 2947 N 283.417 6.88042 -1.39793 0
M  V30 2948 H 288.257 2.41415 -1.74708 0
M  V30 2949 H 285.794 1.18474 -0.871909 0
M  V30 2950 H 287.752 4.172 0.00230884 0
M  V30 2951 H 286.382 3.17839 0.56378 0
M  V30 2952 H 285.434 3.3228 -1.85187 0
M  V30 2953 H 286.746 4.45962 -2.23427 0
M  V30 2954 H 285.9 6.04689 -0.49359 0
M  V30 2955 H 284.639 4.87699 -0.011932 0
M  V30 2956 H 283.644 4.98725 -2.31415 0
M  V30 2957 H 284.869 6.19121 -2.79046 0
M  V30 2958 H 282.815 6.53493 -0.572919 0
M  V30 2959 H 282.732 7.24767 -2.15054 0
M  V30 2960 H 284 7.72255 -1.0603 0
M  V30 2961 N 288.23 0.939286 1.26551 0
M  V30 2962 C 289.476 0.586715 1.94128 0
M  V30 2963 C 289.809 -0.8717 1.73537 0
M  V30 2964 O 289.084 -1.62339 1.07127 0
M  V30 2965 C 289.367 0.927497 3.4795 0
M  V30 2966 C 289.22 2.44052 3.77834 0
M  V30 2967 C 290.539 0.441569 4.37879 0
M  V30 2968 H 287.658 0.21463 0.705055 0
M  V30 2969 H 290.3 1.17316 1.49455 0
M  V30 2970 H 288.45 0.428431 3.8613 0
M  V30 2971 H 290.122 3.01216 3.4938 0
M  V30 2972 H 288.365 2.8848 3.23978 0
M  V30 2973 H 289.036 2.62947 4.85348 0
M  V30 2974 H 291.512 0.869448 4.06915 0
M  V30 2975 H 290.388 0.708856 5.44304 0
M  V30 2976 H 290.649 -0.658467 4.37169 0
M  V30 2977 N 289.708 -1.40897 0.706093 0
M  V30 2978 C 290.671 -2.29131 0.0562841 0
M  V30 2979 C 291.671 -1.44901 -0.697166 0
M  V30 2980 O 292.861 -1.65926 -0.530484 0
M  V30 2981 C 289.993 -3.27957 -0.93043 0
M  V30 2982 H 291.186 -2.88091 0.833284 0
M  V30 2983 H 288.739 -1.4906 0.470192 0
M  V30 2984 H 289.474 -2.73997 -1.73482 0
M  V30 2985 H 289.259 -3.90124 -0.393166 0
M  V30 2986 H 290.749 -3.94049 -1.38256 0
M  V30 2987 N 291.186 -0.45159 -1.50991 0
M  V30 2988 C 292.432 0.110237 -2.025 0
M  V30 2989 C 292.765 1.41109 -1.33424 0
M  V30 2990 O 292.04 1.89135 -0.453659 0
M  V30 2991 C 292.323 0.314271 -3.58726 0
M  V30 2992 C 292.176 -1.00623 -4.38401 0
M  V30 2993 C 293.495 1.07767 -4.26702 0
M  V30 2994 H 290.614 0.0385897 -0.735989 0
M  V30 2995 H 293.256 -0.593374 -1.80497 0
M  V30 2996 H 291.406 0.913601 -3.77605 0
M  V30 2997 H 293.078 -1.64064 -4.31139 0
M  V30 2998 H 291.321 -1.6075 -4.02917 0
M  V30 2999 H 291.992 -0.817341 -5.45915 0
M  V30 3000 H 294.468 0.56986 -4.12179 0
M  V30 3001 H 293.344 1.18921 -5.35863 0
M  V30 3002 H 293.605 2.10939 -3.88532 0
M  V30 3003 N 292.664 1.56529 -0.183458 0
M  V30 3004 C 293.627 2.17324 0.728223 0
M  V30 3005 C 294.627 1.12453 1.14939 0
M  V30 3006 O 295.817 1.37902 1.06437 0
M  V30 3007 C 292.949 2.76591 1.99274 0
M  V30 3008 H 294.142 2.99241 0.198772 0
M  V30 3009 H 291.695 1.5616 0.0661391 0
M  V30 3010 H 292.43 1.98441 2.56499 0
M  V30 3011 H 292.215 3.5335 1.69959 0
M  V30 3012 H 293.705 3.23311 2.6431 0
M  V30 3013 N 294.142 -0.090211 1.57342 0
M  V30 3014 C 295.075 -1.14035 1.97664 0
M  V30 3015 C 296.053 -1.38576 0.850616 0
M  V30 3016 O 297.237 -1.52255 1.11134 0
M  V30 3017 C 294.364 -2.48854 2.2976 0
M  V30 3018 C 293.41 -2.40564 3.52181 0
M  V30 3019 S 294.243 -1.81745 5.03715 0
M  V30 3020 C 295.399 -3.18178 5.38993 0
M  V30 3021 H 295.632 -0.796636 2.86428 0
M  V30 3022 H 293.165 -0.298072 1.51496 0
M  V30 3023 H 295.123 -3.26413 2.48927 0
M  V30 3024 H 293.784 -2.80393 1.41558 0
M  V30 3025 H 292.977 -3.39942 3.72096 0
M  V30 3026 H 292.579 -1.71135 3.32549 0
M  V30 3027 H 294.871 -4.14461 5.35937 0
M  V30 3028 H 295.814 -3.03062 6.39968 0
M  V30 3029 H 296.222 -3.17935 4.66452 0
M  V30 3030 N 295.62 -1.53406 -0.361157 0
M  V30 3031 C 296.552 -1.76446 -1.46286 0
M  V30 3032 C 297.565 -0.645322 -1.49464 0
M  V30 3033 O 298.754 -0.921681 -1.52864 0
M  V30 3034 C 295.854 -1.83332 -2.85031 0
M  V30 3035 C 295.027 -3.13033 -3.05498 0
M  V30 3036 C 294.086 -3.11104 -4.24383 0
M  V30 3037 O 293.112 -3.84888 -4.19344 0
M  V30 3038 N 294.314 -2.32234 -5.32022 0
M  V30 3039 H 297.079 -2.71508 -1.26899 0
M  V30 3040 H 294.64 -1.52238 -0.550915 0
M  V30 3041 H 296.632 -1.79514 -3.62708 0
M  V30 3042 H 295.202 -0.955342 -2.97644 0
M  V30 3043 H 294.422 -3.30119 -2.15442 0
M  V30 3044 H 295.71 -3.9874 -3.16044 0
M  V30 3045 H 295.108 -1.71807 -5.38979 0
M  V30 3046 H 293.665 -2.3423 -6.08259 0
M  V30 3047 N 297.098 0.621204 -1.44841 0
M  V30 3048 C 298.375 1.38 -1.38619 0
M  V30 3049 C 298.755 2.11041 -0.0498935 0
M  V30 3050 O 298.103 2.06992 0.967816 0
M  V30 3051 C 298.313 2.33817 -2.59096 0
M  V30 3052 C 299.661 2.96844 -3.03593 0
M  V30 3053 O 300.685 2.44141 -2.59371 0
M  V30 3054 O 299.544 3.92476 -3.80296 0
M  V30 3055 H 296.638 0.61811 -0.549426 0
M  V30 3056 H 299.184 0.645429 -1.56947 0
M  V30 3057 H 297.956 1.79012 -3.47952 0
M  V30 3058 H 297.579 3.14676 -2.43032 0
M  V30 3059 N 298.576 1.31904 0.862503 0
M  V30 3060 C 299.539 1.20131 1.95195 0
M  V30 3061 C 300.539 0.126409 1.60302 0
M  V30 3062 O 301.729 0.376234 1.70089 0
M  V30 3063 C 298.861 0.845691 3.30244 0
M  V30 3064 H 300.054 2.16943 2.07064 0
M  V30 3065 H 297.607 1.15622 1.05172 0
M  V30 3066 H 298.342 -0.120957 3.24074 0
M  V30 3067 H 298.127 1.62276 3.56944 0
M  V30 3068 H 299.617 0.787418 4.10109 0
M  V30 3069 N 300.054 -1.07777 1.14986 0
M  V30 3070 C 301.3 -1.80557 0.923422 0
M  V30 3071 C 301.633 -1.86298 -0.548337 0
M  V30 3072 O 300.908 -1.34354 -1.40639 0
M  V30 3073 C 301.191 -3.25839 1.53299 0
M  V30 3074 C 301.044 -3.28269 3.07505 0
M  V30 3075 C 302.363 -4.22991 1.21518 0
M  V30 3076 H 299.482 -0.655493 0.336894 0
M  V30 3077 H 302.124 -1.26144 1.42083 0
M  V30 3078 H 300.274 -3.72306 1.10999 0
M  V30 3079 H 301.946 -2.90079 3.58681 0
M  V30 3080 H 300.189 -2.67355 3.4162 0
M  V30 3081 H 300.86 -4.30691 3.45266 0
M  V30 3082 H 303.336 -3.84894 1.581 0
M  V30 3083 H 302.212 -5.22945 1.66793 0
M  V30 3084 H 302.473 -4.41904 0.131505 0
M  V30 3085 N 301.532 -0.945985 -1.26051 0
M  V30 3086 C 302.462 -0.477172 -2.28572 0
M  V30 3087 C 303.443 0.472032 -1.63419 0
M  V30 3088 O 304.628 0.372853 -1.90587 0
M  V30 3089 C 301.758 0.253975 -3.4637 0
M  V30 3090 C 300.712 -0.609135 -4.23643 0
M  V30 3091 C 300.038 0.252252 -5.34105 0
M  V30 3092 C 301.338 -1.8829 -4.8718 0
M  V30 3093 H 303.032 -1.33402 -2.68038 0
M  V30 3094 H 300.578 -0.642904 -1.28852 0
M  V30 3095 H 302.531 0.593016 -4.17207 0
M  V30 3096 H 301.255 1.145 -3.05871 0
M  V30 3097 H 299.914 -0.931138 -3.54578 0
M  V30 3098 H 299.562 1.14278 -4.89846 0
M  V30 3099 H 299.262 -0.32188 -5.86718 0
M  V30 3100 H 300.786 0.586454 -6.07777 0
M  V30 3101 H 302.2 -1.61081 -5.50205 0
M  V30 3102 H 300.597 -2.40199 -5.49931 0
M  V30 3103 H 301.667 -2.59134 -4.09851 0
M  V30 3104 N 303.011 1.40521 -0.713556 0
M  V30 3105 C 303.959 2.32549 -0.0485227 0
M  V30 3106 C 304.953 1.51931 0.74922 0
M  V30 3107 O 306.159 1.67745 0.652816 0
M  V30 3108 H 302.534 0.751994 0.00311138 0
M  V30 3109 H 304.505 2.86291 -0.841443 0
M  V30 3110 C 303.254 3.36879 0.860687 0
M  V30 3111 H 302.577 3.98978 0.256246 0
M  V30 3112 H 304.017 4.03772 1.294 0
M  V30 3113 C 302.476 2.72197 1.9852 0
M  V30 3114 O 303.006 2.5837 3.07584 0
M  V30 3115 N 301.212 2.30612 1.76823 0
M  V30 3116 H 300.759 2.42059 0.881217 0
M  V30 3117 H 300.717 1.87672 2.52243 0
M  V30 3118 N 304.489 0.459591 1.5075 0
M  V30 3119 C 305.419 -0.330644 2.31147 0
M  V30 3120 C 306.4 -1.00087 1.37538 0
M  V30 3121 O 307.585 -1.00025 1.66459 0
M  V30 3122 C 304.715 -1.41958 3.16962 0
M  V30 3123 C 303.669 -0.871608 4.19031 0
M  V30 3124 C 302.995 -2.05797 4.9351 0
M  V30 3125 C 304.295 0.109251 5.22186 0
M  V30 3126 H 305.989 0.340336 2.97459 0
M  V30 3127 H 303.535 0.165119 1.4305 0
M  V30 3128 H 305.488 -1.9798 3.71997 0
M  V30 3129 H 304.212 -2.11917 2.48513 0
M  V30 3130 H 302.871 -0.333442 3.6508 0
M  V30 3131 H 302.519 -2.74427 4.21544 0
M  V30 3132 H 302.219 -1.6976 5.62544 0
M  V30 3133 H 303.743 -2.62331 5.51375 0
M  V30 3134 H 305.157 -0.361405 5.7216 0
M  V30 3135 H 303.554 0.383316 5.98875 0
M  V30 3136 H 304.624 1.03887 4.73641 0
M  V30 3137 N 305.967 -1.56429 0.191757 0
M  V30 3138 C 307.213 -1.97777 -0.448554 0
M  V30 3139 C 307.546 -1.07847 -1.61501 0
M  V30 3140 O 306.821 -0.129774 -1.94067 0
M  V30 3141 C 307.104 -3.48362 -0.911906 0
M  V30 3142 C 306.957 -4.4907 0.256136 0
M  V30 3143 C 308.276 -4.02561 -1.77857 0
M  V30 3144 H 305.395 -0.719071 -0.161572 0
M  V30 3145 H 308.037 -1.87896 0.282007 0
M  V30 3146 H 306.187 -3.56914 -1.53442 0
M  V30 3147 H 307.859 -4.5256 0.893733 0
M  V30 3148 H 306.102 -4.24181 0.908436 0
M  V30 3149 H 306.773 -5.51889 -0.11053 0
M  V30 3150 H 309.249 -3.96767 -1.25359 0
M  V30 3151 H 308.125 -5.08301 -2.07174 0
M  V30 3152 H 308.386 -3.47616 -2.73158 0
M  V30 3153 N 307.445 0.0818655 -1.57387 0
M  V30 3154 C 308.861 0.436412 -1.53517 0
M  V30 3155 C 309.061 1.79758 -0.910459 0
M  V30 3156 O 308.117 2.47324 -0.508636 0
M  V30 3157 C 309.43 0.386734 -2.98203 0
M  V30 3158 C 310.978 0.467644 -3.09487 0
M  V30 3159 C 311.453 0.447978 -4.55804 0
M  V30 3160 N 312.944 0.508348 -4.60402 0
M  V30 3161 C 313.679 0.515184 -5.71081 0
M  V30 3162 N 313.175 0.477435 -6.91153 0
M  V30 3163 N 314.968 0.560988 -5.59294 0
M  V30 3164 H 307.119 -0.809546 -1.96367 0
M  V30 3165 H 309.382 -0.302733 -0.898363 0
M  V30 3166 H 309.088 -0.546539 -3.47427 0
M  V30 3167 H 308.962 1.20075 -3.57578 0
M  V30 3168 H 311.349 1.39134 -2.60242 0
M  V30 3169 H 311.43 -0.374753 -2.5304 0
M  V30 3170 H 311.074 -0.471826 -5.05704 0
M  V30 3171 H 311.004 1.30777 -5.10103 0
M  V30 3172 H 313.495 0.54218 -3.7399 0
M  V30 3173 H 313.808 0.486299 -7.71268 0
M  V30 3174 H 312.153 0.444278 -6.93579 0
M  V30 3175 H 315.344 0.5881 -4.64391 0
M  V30 3176 H 315.517 0.562846 -6.45551 0
M  V30 3177 N 308.923 1.53595 0.353017 0
M  V30 3178 C 310.172 1.69603 1.09168 0
M  V30 3179 C 310.485 0.460925 1.90092 0
M  V30 3180 O 311.691 0.501774 2.66823 0
M  V30 3181 C 310.147 2.99872 1.9901 0
M  V30 3182 C 309.755 4.30687 1.23339 0
M  V30 3183 C 311.499 3.25246 2.72792 0
M  V30 3184 C 309.406 5.52036 2.12156 0
M  V30 3185 H 308.336 0.631966 0.411261 0
M  V30 3186 H 310.987 1.80096 0.351802 0
M  V30 3187 H 309.369 2.83212 2.7678 0
M  V30 3188 H 310.543 4.58019 0.505456 0
M  V30 3189 H 308.858 4.11853 0.613663 0
M  V30 3190 H 311.455 4.13095 3.39495 0
M  V30 3191 H 311.798 2.41846 3.38846 0
M  V30 3192 H 312.331 3.42638 2.021 0
M  V30 3193 H 309.07 6.37951 1.50659 0
M  V30 3194 H 308.59 5.28966 2.82764 0
M  V30 3195 H 310.269 5.87313 2.71427 0
M  V30 3196 N 310.401 -0.613514 1.45168 0
M  V30 3197 C 311.348 -1.72456 1.53387 0
M  V30 3198 C 312.318 -1.6169 0.380191 0
M  V30 3199 O 313.503 -1.81356 0.592836 0
M  V30 3200 C 310.643 -3.10753 1.50088 0
M  V30 3201 C 309.756 -3.32368 2.75963 0
M  V30 3202 C 308.891 -4.60737 2.64376 0
M  V30 3203 C 307.93 -4.7559 3.85332 0
M  V30 3204 N 307.067 -5.95253 3.72315 0
M  V30 3205 H 311.907 -1.64768 2.48305 0
M  V30 3206 H 309.444 -0.803503 1.23216 0
M  V30 3207 H 311.402 -3.90758 1.46164 0
M  V30 3208 H 310.032 -3.17413 0.587243 0
M  V30 3209 H 309.084 -2.4618 2.89999 0
M  V30 3210 H 310.396 -3.39218 3.65695 0
M  V30 3211 H 309.55 -5.48928 2.58385 0
M  V30 3212 H 308.289 -4.56275 1.72233 0
M  V30 3213 H 307.294 -3.85824 3.91688 0
M  V30 3214 H 308.519 -4.81854 4.78533 0
M  V30 3215 H 306.465 -5.91847 2.82937 0
M  V30 3216 H 306.382 -6.03236 4.55677 0
M  V30 3217 H 307.65 -6.85958 3.70246 0
M  V30 3218 N 311.879 -1.3236 -0.855495 0
M  V30 3219 C 312.809 -1.23833 -1.97958 0
M  V30 3220 C 313.79 -0.122361 -1.69659 0
M  V30 3221 O 314.975 -0.30939 -1.9172 0
M  V30 3222 C 312.105 -0.959772 -3.33775 0
M  V30 3223 C 311.059 -2.03689 -3.76424 0
M  V30 3224 C 310.385 -1.61075 -5.09862 0
M  V30 3225 C 311.685 -3.4518 -3.9198 0
M  V30 3226 H 313.379 -2.1788 -2.0535 0
M  V30 3227 H 310.925 -1.04891 -0.986605 0
M  V30 3228 H 312.878 -0.886678 -4.11966 0
M  V30 3229 H 311.602 0.0163404 -3.26596 0
M  V30 3230 H 310.261 -2.10012 -3.00484 0
M  V30 3231 H 309.909 -0.622107 -4.99138 0
M  V30 3232 H 309.609 -2.33143 -5.39368 0
M  V30 3233 H 311.133 -1.55201 -5.90546 0
M  V30 3234 H 312.547 -3.4145 -4.60526 0
M  V30 3235 H 310.944 -4.1559 -4.32903 0
M  V30 3236 H 312.014 -3.84903 -2.94919 0
M  V30 3237 N 313.357 1.07166 -1.15556 0
M  V30 3238 C 314.773 1.31899 -0.898603 0
M  V30 3239 C 314.973 1.96333 0.453383 0
M  V30 3240 O 314.029 2.22438 1.19489 0
M  V30 3241 C 315.342 2.20826 -2.04099 0
M  V30 3242 C 316.89 2.34269 -2.07574 0
M  V30 3243 C 317.365 3.26546 -3.21141 0
M  V30 3244 N 318.856 3.34127 -3.20801 0
M  V30 3245 C 319.591 4.05595 -4.05315 0
M  V30 3246 N 319.087 4.79661 -4.99897 0
M  V30 3247 N 320.88 4.01555 -3.93332 0
M  V30 3248 H 313.031 0.637302 -2.02613 0
M  V30 3249 H 315.294 0.343468 -0.883591 0
M  V30 3250 H 315 1.80744 -3.01703 0
M  V30 3251 H 314.874 3.21364 -1.97496 0
M  V30 3252 H 317.261 2.73603 -1.10568 0
M  V30 3253 H 317.342 1.33429 -2.18244 0
M  V30 3254 H 316.986 2.87931 -4.184 0
M  V30 3255 H 316.916 4.27345 -3.07708 0
M  V30 3256 H 319.407 2.81336 -2.52306 0
M  V30 3257 H 319.72 5.31694 -5.60822 0
M  V30 3258 H 318.065 4.78671 -5.03884 0
M  V30 3259 H 321.256 3.42806 -3.18751 0
M  V30 3260 H 321.429 4.56987 -4.5942 0
M  V30 3261 N 314.835 0.952656 1.25548 0
M  V30 3262 C 316.112 0.523818 1.88456 0
M  V30 3263 C 316.492 -0.998871 1.85973 0
M  V30 3264 O 315.84 -1.86381 1.3219 0
M  V30 3265 C 316.05 1.0982 3.31271 0
M  V30 3266 C 317.398 1.17385 4.08051 0
M  V30 3267 O 318.422 1.04961 3.40384 0
M  V30 3268 O 317.281 1.36852 5.29088 0
M  V30 3269 H 314.375 0.172485 0.808813 0
M  V30 3270 H 316.921 1.04596 1.33633 0
M  V30 3271 H 315.693 2.1415 3.27499 0
M  V30 3272 H 315.316 0.559191 3.93648 0
M  V30 3273 N 316.313 -1.40141 0.720998 0
M  V30 3274 C 317.245 -2.29177 0.0324669 0
M  V30 3275 C 318.258 -1.46105 -0.718126 0
M  V30 3276 O 319.447 -1.69335 -0.564608 0
M  V30 3277 C 316.547 -3.24473 -0.978292 0
M  V30 3278 C 315.72 -4.36423 -0.292115 0
M  V30 3279 C 314.779 -5.12122 -1.20901 0
M  V30 3280 O 313.805 -5.64981 -0.691766 0
M  V30 3281 N 315.007 -5.21992 -2.53978 0
M  V30 3282 H 317.772 -2.88909 0.796984 0
M  V30 3283 H 315.333 -1.51569 0.569068 0
M  V30 3284 H 317.325 -3.71987 -1.59398 0
M  V30 3285 H 315.895 -2.65871 -1.64413 0
M  V30 3286 H 315.115 -3.90967 0.503847 0
M  V30 3287 H 316.403 -5.08467 0.183971 0
M  V30 3288 H 315.801 -4.8054 -2.98493 0
M  V30 3289 H 314.358 -5.72995 -3.10677 0
M  V30 3290 N 317.792 -0.46758 -1.50504 0
M  V30 3291 C 318.724 0.364655 -2.26281 0
M  V30 3292 C 319.737 0.960151 -1.31472 0
M  V30 3293 O 320.926 0.849153 -1.57008 0
M  V30 3294 C 318.026 1.52509 -3.02645 0
M  V30 3295 C 317.199 1.04302 -4.24782 0
M  V30 3296 C 316.258 2.07709 -4.8347 0
M  V30 3297 O 315.284 1.65913 -5.44483 0
M  V30 3298 N 316.486 3.40485 -4.70159 0
M  V30 3299 H 319.251 -0.28495 -2.98342 0
M  V30 3300 H 316.812 -0.298163 -1.59131 0
M  V30 3301 H 318.804 2.21371 -3.38787 0
M  V30 3302 H 317.374 2.07945 -2.33404 0
M  V30 3303 H 316.594 0.180393 -3.93787 0
M  V30 3304 H 317.882 0.698798 -5.03978 0
M  V30 3305 H 317.28 3.77155 -4.21629 0
M  V30 3306 H 315.837 4.05156 -5.1058 0
M  V30 3307 N 319.27 1.56325 -0.20005 0
M  V30 3308 C 320.686 1.58839 0.155716 0
M  V30 3309 C 320.886 1.21636 1.60645 0
M  V30 3310 O 319.942 0.941437 2.34293 0
M  V30 3311 C 321.255 3.0032 -0.151124 0
M  V30 3312 C 322.803 3.12866 -0.0916284 0
M  V30 3313 C 323.278 4.56488 -0.371845 0
M  V30 3314 N 324.769 4.62089 -0.320641 0
M  V30 3315 C 325.504 5.71116 -0.511243 0
M  V30 3316 N 325 6.88592 -0.762461 0
M  V30 3317 N 326.793 5.60335 -0.445157 0
M  V30 3318 H 318.944 1.78788 -1.14668 0
M  V30 3319 H 321.207 0.829996 -0.458051 0
M  V30 3320 H 320.913 3.32117 -1.15721 0
M  V30 3321 H 320.787 3.73257 0.543986 0
M  V30 3322 H 323.174 2.80878 0.905065 0
M  V30 3323 H 323.255 2.42304 -0.81989 0
M  V30 3324 H 322.899 4.89189 -1.36588 0
M  V30 3325 H 322.829 5.25246 0.377362 0
M  V30 3326 H 325.32 3.77665 -0.13329 0
M  V30 3327 H 325.633 7.67581 -0.896576 0
M  V30 3328 H 323.978 6.90387 -0.799412 0
M  V30 3329 H 327.169 4.67436 -0.249278 0
M  V30 3330 H 327.342 6.45243 -0.597116 0
M  V30 3331 N 320.748 -0.0735177 1.57428 0
M  V30 3332 C 321.678 -1.0879 2.06608 0
M  V30 3333 C 322.659 -1.40473 0.959237 0
M  V30 3334 O 323.844 -1.5013 1.23185 0
M  V30 3335 C 320.974 -2.40183 2.50857 0
M  V30 3336 C 319.928 -2.22858 3.65402 0
M  V30 3337 C 319.254 -3.59619 3.957 0
M  V30 3338 C 320.554 -1.65123 4.95511 0
M  V30 3339 H 322.248 -0.678673 2.91607 0
M  V30 3340 H 319.794 -0.325013 1.40284 0
M  V30 3341 H 321.747 -3.11437 2.83874 0
M  V30 3342 H 320.471 -2.83083 1.62885 0
M  V30 3343 H 319.13 -1.54045 3.32664 0
M  V30 3344 H 318.778 -4.00086 3.04861 0
M  V30 3345 H 318.478 -3.48866 4.72828 0
M  V30 3346 H 320.002 -4.32306 4.31212 0
M  V30 3347 H 321.416 -2.26241 5.26771 0
M  V30 3348 H 319.813 -1.65071 5.7695 0
M  V30 3349 H 320.883 -0.612559 4.81015 0
M  V30 3350 N 322.226 -1.5378 -0.344866 0
M  V30 3351 C 323.136 -1.84667 -1.4469 0
M  V30 3352 C 324.152 -0.736704 -1.57635 0
M  V30 3353 O 325.328 -1.02888 -1.73136 0
M  V30 3354 C 322.393 -2.04869 -2.79696 0
M  V30 3355 C 321.454 -3.28731 -2.76106 0
M  V30 3356 C 320.687 -3.4796 -4.04673 0
M  V30 3357 O 320.91 -2.71052 -5.01883 0
M  V30 3358 O 319.844 -4.41383 -4.09224 0
M  V30 3359 H 323.67 -2.78334 -1.21506 0
M  V30 3360 H 321.255 -1.39418 -0.536921 0
M  V30 3361 H 323.137 -2.19609 -3.59652 0
M  V30 3362 H 321.812 -1.14391 -3.02814 0
M  V30 3363 H 320.719 -3.19396 -1.94774 0
M  V30 3364 H 322.052 -4.19198 -2.57941 0
M  V30 3365 N 323.704 0.605807 -1.45491 0
M  V30 3366 C 325.12 0.926751 -1.29936 0
M  V30 3367 C 325.32 1.99896 -0.253706 0
M  V30 3368 O 324.376 2.50038 0.351737 0
M  V30 3369 C 325.689 1.36599 -2.67883 0
M  V30 3370 C 327.237 1.4801 -2.75793 0
M  V30 3371 C 327.712 1.95309 -4.14268 0
M  V30 3372 N 329.203 2.0254 -4.16571 0
M  V30 3373 C 329.938 2.40363 -5.20589 0
M  V30 3374 N 329.434 2.77143 -6.34952 0
M  V30 3375 N 331.227 2.40718 -5.07948 0
M  V30 3376 H 323.378 -0.102862 -2.12151 0
M  V30 3377 H 325.641 0.016639 -0.947854 0
M  V30 3378 H 325.347 0.652306 -3.45598 0
M  V30 3379 H 325.221 2.33215 -2.96463 0
M  V30 3380 H 327.608 2.1847 -1.98381 0
M  V30 3381 H 327.689 0.497041 -2.50925 0
M  V30 3382 H 327.333 1.25436 -4.92167 0
M  V30 3383 H 327.263 2.94532 -4.3653 0
M  V30 3384 H 329.754 1.76699 -3.34045 0
M  V30 3385 H 330.067 3.0489 -7.10114 0
M  V30 3386 H 328.412 2.74834 -6.3835 0
M  V30 3387 H 331.603 2.11392 -4.1765 0
M  V30 3388 H 331.776 2.69869 -5.89131 0
M  V30 3389 N 325.182 1.32811 0.848464 0
M  V30 3390 C 326.41 1.26739 1.63538 0
M  V30 3391 C 326.825 -0.163484 1.88091 0
M  V30 3392 O 326.182 -1.10258 1.45429 0
M  V30 3393 C 326.233 2.03013 2.99112 0
M  V30 3394 O 325.954 3.40518 2.75643 0
M  V30 3395 C 327.455 2.04038 3.93552 0
M  V30 3396 H 324.675 0.437024 0.509167 0
M  V30 3397 H 327.219 1.75033 1.05753 0
M  V30 3398 H 325.374 1.58426 3.53525 0
M  V30 3399 H 325.788 3.79635 3.61908 0
M  V30 3400 H 327.262 2.61877 4.85926 0
M  V30 3401 H 327.739 1.0282 4.26995 0
M  V30 3402 H 328.345 2.486 3.45077 0
M  V30 3403 N 326.66 -1.06551 1.16123 0
M  V30 3404 C 327.908 -1.78947 0.939267 0
M  V30 3405 C 328.229 -1.87532 -0.534476 0
M  V30 3406 O 327.499 -1.38211 -1.38833 0
M  V30 3407 H 326.079 -0.662807 0.344523 0
M  V30 3408 H 328.741 -1.28725 1.46342 0
M  V30 3409 H 327.837 -2.81117 1.35572 0
M  V30 3410 N 328.138 -0.959301 -1.25041 0
M  V30 3411 C 329.387 -0.612254 -1.92183 0
M  V30 3412 C 329.7 0.855347 -1.75907 0
M  V30 3413 O 330.906 1.31256 -2.37664 0
M  V30 3414 C 329.362 -1.04435 -3.44414 0
M  V30 3415 C 328.97 -2.53482 -3.69393 0
M  V30 3416 C 330.714 -0.770055 -4.17457 0
M  V30 3417 C 328.621 -2.90468 -5.15153 0
M  V30 3418 H 327.551 -0.225279 -0.719559 0
M  V30 3419 H 330.202 -1.16438 -1.41825 0
M  V30 3420 H 328.584 -0.4206 -3.9376 0
M  V30 3421 H 329.758 -3.20916 -3.30681 0
M  V30 3422 H 328.073 -2.78432 -3.0962 0
M  V30 3423 H 330.67 -1.02249 -5.24832 0
M  V30 3424 H 331.013 0.293611 -4.15263 0
M  V30 3425 H 331.546 -1.35437 -3.74034 0
M  V30 3426 H 328.285 -3.95871 -5.22462 0
M  V30 3427 H 327.805 -2.27711 -5.54894 0
M  V30 3428 H 329.484 -2.79914 -5.83315 0
M  V30 3429 N 329.616 1.39756 -0.72842 0
M  V30 3430 C 330.546 2.33289 -0.0991354 0
M  V30 3431 C 331.527 1.53568 0.731489 0
M  V30 3432 O 332.712 1.81987 0.677807 0
M  V30 3433 C 329.842 3.3763 0.813834 0
M  V30 3434 C 328.796 4.2791 0.0878663 0
M  V30 3435 C 328.122 5.22894 1.11741 0
M  V30 3436 C 329.422 5.11314 -1.06563 0
M  V30 3437 H 331.116 2.86163 -0.880408 0
M  V30 3438 H 328.662 1.37591 -0.424819 0
M  V30 3439 H 330.615 4.0201 1.26355 0
M  V30 3440 H 329.339 2.83181 1.62715 0
M  V30 3441 H 327.998 3.65 -0.342159 0
M  V30 3442 H 327.646 4.64744 1.92412 0
M  V30 3443 H 327.346 5.84143 0.636477 0
M  V30 3444 H 328.87 5.90151 1.56697 0
M  V30 3445 H 330.284 5.69076 -0.694671 0
M  V30 3446 H 328.681 5.81671 -1.47577 0
M  V30 3447 H 329.751 4.46534 -1.89038 0
M  V30 3448 N 331.094 0.475555 1.50254 0
M  V30 3449 C 332.057 -0.305016 2.27161 0
M  V30 3450 C 333.057 -0.916519 1.32123 0
M  V30 3451 O 334.247 -0.785003 1.5551 0
M  V30 3452 C 331.379 -1.43496 3.09227 0
M  V30 3453 H 332.572 0.369511 2.97615 0
M  V30 3454 H 330.125 0.229747 1.54602 0
M  V30 3455 H 330.86 -2.14441 2.43281 0
M  V30 3456 H 330.645 -1.00223 3.79075 0
M  V30 3457 H 332.135 -1.98548 3.67381 0
M  V30 3458 N 332.573 -1.56217 0.208337 0
M  V30 3459 C 333.483 -2.23316 -0.718836 0
M  V30 3460 C 334.499 -1.23648 -1.22422 0
M  V30 3461 O 335.675 -1.56423 -1.26861 0
M  V30 3462 C 332.74 -2.88968 -1.91568 0
M  V30 3463 C 331.801 -4.03943 -1.45357 0
M  V30 3464 C 331.034 -4.66455 -2.59337 0
M  V30 3465 O 331.257 -4.27919 -3.77149 0
M  V30 3466 O 330.191 -5.55686 -2.31293 0
M  V30 3467 H 334.017 -3.03182 -0.177315 0
M  V30 3468 H 331.602 -1.49384 -0.0215402 0
M  V30 3469 H 333.484 -3.30455 -2.61491 0
M  V30 3470 H 332.159 -2.12071 -2.44556 0
M  V30 3471 H 331.066 -3.67052 -0.722746 0
M  V30 3472 H 332.399 -4.82543 -0.970219 0
M  V30 3473 N 334.051 0.0651679 -1.57465 0
M  V30 3474 C 335.281 0.774683 -1.91526 0
M  V30 3475 C 335.689 1.71305 -0.803196 0
M  V30 3476 O 335.032 1.82231 0.231881 0
M  V30 3477 C 335.094 1.61645 -3.21109 0
M  V30 3478 C 334.758 0.846753 -4.49087 0
M  V30 3479 C 335.755 0.163024 -5.19644 0
M  V30 3480 C 333.44 0.811966 -4.95694 0
M  V30 3481 C 335.434 -0.54519 -6.35064 0
M  V30 3482 C 333.121 0.0999836 -6.11018 0
M  V30 3483 C 334.119 -0.577388 -6.80555 0
M  V30 3484 O 333.807 -1.27789 -7.93678 0
M  V30 3485 H 333.539 0.225031 -0.637446 0
M  V30 3486 H 336.093 0.0377134 -2.05365 0
M  V30 3487 H 334.323 2.39638 -3.03497 0
M  V30 3488 H 336.012 2.20525 -3.40769 0
M  V30 3489 H 336.778 0.181163 -4.84662 0
M  V30 3490 H 332.657 1.32867 -4.41438 0
M  V30 3491 H 336.201 -1.07446 -6.89276 0
M  V30 3492 H 332.098 0.0797945 -6.45451 0
M  V30 3493 H 332.866 -1.18784 -8.09835 0
M  V30 3494 N 335.529 1.53961 0.336706 0
M  V30 3495 C 336.94 1.62914 0.911925 0
M  V30 3496 C 337.291 0.514795 1.89326 0
M  V30 3497 O 336.416 -0.354395 2.13478 0
M  V30 3498 C 337.011 2.95304 1.66076 0
M  V30 3499 C 335.57 3.06496 2.18489 0
M  V30 3500 C 334.717 2.58403 1.00613 0
M  V30 3501 H 337.668 1.58285 0.114649 0
M  V30 3502 H 337.689 2.84727 2.5241 0
M  V30 3503 H 337.201 3.76387 0.946276 0
M  V30 3504 H 335.302 2.3006 2.93092 0
M  V30 3505 H 335.415 4.1208 2.44391 0
M  V30 3506 H 333.779 2.13977 1.38152 0
M  V30 3507 H 334.562 3.41932 0.306179 0
M  V30 3508 N 337.007 -0.598083 1.45811 0
M  V30 3509 C 337.939 -1.72231 1.51225 0
M  V30 3510 C 338.952 -1.57757 0.402059 0
M  V30 3511 O 340.141 -1.65464 0.669624 0
M  V30 3512 C 337.241 -3.10331 1.3619 0
M  V30 3513 C 336.414 -3.50955 2.61054 0
M  V30 3514 C 335.473 -4.68055 2.40439 0
M  V30 3515 O 334.499 -4.74691 3.14097 0
M  V30 3516 N 335.701 -5.61941 1.45612 0
M  V30 3517 H 338.466 -1.68046 2.48154 0
M  V30 3518 H 336.027 -0.783637 1.41671 0
M  V30 3519 H 338.019 -3.86439 1.20195 0
M  V30 3520 H 336.589 -3.0897 0.475015 0
M  V30 3521 H 335.809 -2.64711 2.92099 0
M  V30 3522 H 337.097 -3.74858 3.44034 0
M  V30 3523 H 336.495 -5.59301 0.848431 0
M  V30 3524 H 335.052 -6.37542 1.35585 0
M  V30 3525 N 338.485 -1.33259 -0.841409 0
M  V30 3526 C 339.448 -1.23221 -1.9326 0
M  V30 3527 C 340.448 -0.151895 -1.60081 0
M  V30 3528 O 341.638 -0.403246 -1.69468 0
M  V30 3529 C 338.77 -0.898123 -3.28856 0
M  V30 3530 H 339.963 -2.2021 -2.03587 0
M  V30 3531 H 337.516 -1.17281 -1.03319 0
M  V30 3532 H 338.251 0.0693841 -3.24226 0
M  V30 3533 H 338.036 -1.67934 -3.54317 0
M  V30 3534 H 339.526 -0.852563 -4.08805 0
M  V30 3535 N 339.963 1.05934 -1.16686 0
M  V30 3536 C 340.895 2.13468 -0.834503 0
M  V30 3537 C 341.908 1.62013 0.15984 0
M  V30 3538 O 343.097 1.7838 -0.0654228 0
M  V30 3539 C 340.197 3.3817 -0.222361 0
M  V30 3540 C 339.37 4.18928 -1.25771 0
M  V30 3541 C 338.429 5.21985 -0.664703 0
M  V30 3542 O 337.455 5.53334 -1.33453 0
M  V30 3543 N 338.657 5.77919 0.546834 0
M  V30 3544 H 341.422 2.42578 -1.75999 0
M  V30 3545 H 338.983 1.21967 -1.06469 0
M  V30 3546 H 340.975 4.04266 0.187472 0
M  V30 3547 H 339.545 3.06655 0.606758 0
M  V30 3548 H 338.765 3.48433 -1.84358 0
M  V30 3549 H 340.053 4.69687 -1.95631 0
M  V30 3550 H 339.451 5.54721 1.10912 0
M  V30 3551 H 338.008 6.45573 0.898829 0
M  V30 3552 N 341.441 0.965919 1.2453 0
M  V30 3553 C 342.852 0.665929 1.7442 0
M  V30 3554 C 343.203 -0.818407 1.78316 0
M  V30 3555 O 342.328 -1.64037 1.41141 0
M  V30 3556 C 342.923 1.20211 3.16757 0
M  V30 3557 C 341.482 0.952059 3.6416 0
M  V30 3558 C 340.629 1.33848 2.42858 0
M  V30 3559 H 343.58 1.14144 1.10258 0
M  V30 3560 H 343.601 0.567544 3.76244 0
M  V30 3561 H 343.113 2.28244 3.13889 0
M  V30 3562 H 341.214 -0.112821 3.72429 0
M  V30 3563 H 341.327 1.59645 4.51719 0
M  V30 3564 H 339.691 0.756864 2.43195 0
M  V30 3565 H 340.474 2.42827 2.42673 0
M  V30 3566 N 342.919 -1.39368 0.735821 0
M  V30 3567 C 343.867 -2.32443 0.0855131 0
M  V30 3568 C 344.861 -1.53104 -0.724954 0
M  V30 3569 O 346.067 -1.68762 -0.626047 0
M  V30 3570 H 342.442 -0.751948 0.00885257 0
M  V30 3571 H 344.413 -2.84916 0.886883 0
M  V30 3572 C 343.162 -3.38206 -0.806983 0
M  V30 3573 H 342.485 -3.99335 -0.19274 0
M  V30 3574 H 343.925 -4.05779 -1.2296 0
M  V30 3575 C 342.384 -2.75321 -1.94165 0
M  V30 3576 O 342.914 -2.63231 -3.03435 0
M  V30 3577 N 341.12 -2.33396 -1.73132 0
M  V30 3578 H 340.667 -2.4343 -0.842596 0
M  V30 3579 H 340.625 -1.91661 -2.49225 0
M  V30 3580 N 344.397 -0.483516 -1.5 0
M  V30 3581 C 345.644 0.0671597 -2.02389 0
M  V30 3582 C 345.972 1.38597 -1.36459 0
M  V30 3583 O 345.227 1.89634 -0.483458 0
M  V30 3584 C 345.526 0.286226 -3.56252 0
M  V30 3585 C 345.192 -0.952416 -4.40726 0
M  V30 3586 C 343.854 -1.29199 -4.63531 0
M  V30 3587 C 346.206 -1.77655 -4.89988 0
M  V30 3588 C 343.534 -2.45553 -5.32842 0
M  V30 3589 C 345.886 -2.93147 -5.60578 0
M  V30 3590 C 344.55 -3.27505 -5.81633 0
M  V30 3591 H 343.82 0.0245755 -0.740592 0
M  V30 3592 H 346.467 -0.640124 -1.80485 0
M  V30 3593 H 344.772 1.07587 -3.76739 0
M  V30 3594 H 346.469 0.726473 -3.94365 0
M  V30 3595 H 343.059 -0.677881 -4.23205 0
M  V30 3596 H 347.243 -1.52737 -4.72213 0
M  V30 3597 H 342.499 -2.72431 -5.47349 0
M  V30 3598 H 346.673 -3.57344 -5.97727 0
M  V30 3599 H 344.3 -4.1777 -6.35116 0
M  V30 3600 N 345.875 1.56104 -0.216619 0
M  V30 3601 C 346.838 2.18819 0.681962 0
M  V30 3602 C 347.838 1.14866 1.12528 0
M  V30 3603 O 349.028 1.40128 1.03488 0
M  V30 3604 C 346.16 2.80756 1.93362 0
M  V30 3605 H 347.353 2.99595 0.135254 0
M  V30 3606 H 344.906 1.56265 0.0330003 0
M  V30 3607 H 345.641 2.03837 2.52232 0
M  V30 3608 H 345.426 3.56876 1.62426 0
M  V30 3609 H 346.916 3.28844 2.57393 0
M  V30 3610 N 347.353 -0.0568162 1.57498 0
M  V30 3611 C 348.6 -0.753104 1.87975 0
M  V30 3612 C 348.928 -1.76815 0.81035 0
M  V30 3613 O 348.183 -1.94756 -0.19199 0
M  V30 3614 C 348.482 -1.48359 3.25153 0
M  V30 3615 C 348.148 -0.60713 4.46794 0
M  V30 3616 C 346.81 -0.365642 4.79809 0
M  V30 3617 C 349.162 -0.000305978 5.212 0
M  V30 3618 C 346.49 0.491905 5.84634 0
M  V30 3619 C 348.842 0.844781 6.26934 0
M  V30 3620 C 347.506 1.096 6.58441 0
M  V30 3621 H 346.776 -0.27558 0.687849 0
M  V30 3622 H 349.423 -0.0135173 1.91495 0
M  V30 3623 H 347.728 -2.29577 3.17492 0
M  V30 3624 H 349.425 -2.02739 3.45974 0
M  V30 3625 H 346.015 -0.805487 4.20963 0
M  V30 3626 H 350.199 -0.173961 4.95995 0
M  V30 3627 H 345.455 0.695131 6.07436 0
M  V30 3628 H 349.629 1.32165 6.83744 0
M  V30 3629 H 347.256 1.76224 7.39492 0
M  V30 3630 N 348.832 -1.54138 -0.328536 0
M  V30 3631 C 350.109 -1.62749 -1.08499 0
M  V30 3632 C 350.489 -0.458198 -2.06067 0
M  V30 3633 O 349.837 0.548046 -2.2183 0
M  V30 3634 C 350.047 -2.99519 -1.79135 0
M  V30 3635 C 351.395 -3.55394 -2.32337 0
M  V30 3636 O 352.419 -3.01792 -1.89209 0
M  V30 3637 O 351.278 -4.49186 -3.11279 0
M  V30 3638 H 348.372 -0.65886 -0.499832 0
M  V30 3639 H 350.918 -1.66484 -0.328826 0
M  V30 3640 H 349.69 -3.76061 -1.08139 0
M  V30 3641 H 349.313 -2.99441 -2.61574 0
M  V30 3642 N 350.31 0.590341 -1.46126 0
M  V30 3643 C 351.726 0.912917 -1.30912 0
M  V30 3644 C 351.926 1.99616 -0.274893 0
M  V30 3645 O 350.982 2.50397 0.325197 0
M  V30 3646 C 352.295 1.3375 -2.69317 0
M  V30 3647 C 353.843 1.45077 -2.77348 0
M  V30 3648 C 354.318 1.90904 -4.16317 0
M  V30 3649 N 355.809 1.9811 -4.18696 0
M  V30 3650 C 356.544 2.34828 -5.23109 0
M  V30 3651 N 356.04 2.70393 -6.37856 0
M  V30 3652 N 357.833 2.35317 -5.10473 0
M  V30 3653 H 349.984 -0.125358 -2.1203 0
M  V30 3654 H 352.247 0.00658481 -0.947977 0
M  V30 3655 H 351.953 0.615614 -3.4627 0
M  V30 3656 H 351.827 2.30058 -2.9892 0
M  V30 3657 H 354.214 2.16353 -2.00687 0
M  V30 3658 H 354.295 0.4704 -2.51438 0
M  V30 3659 H 353.939 1.20209 -4.9347 0
M  V30 3660 H 353.869 2.89886 -4.39629 0
M  V30 3661 H 356.36 1.73146 -3.359 0
M  V30 3662 H 356.673 2.97341 -7.13308 0
M  V30 3663 H 355.018 2.68048 -6.41229 0
M  V30 3664 H 358.209 2.0695 -4.19868 0
M  V30 3665 H 358.382 2.63605 -5.9196 0
M  V30 3666 N 351.788 1.33704 0.83433 0
M  V30 3667 C 353.065 1.16011 1.57483 0
M  V30 3668 C 353.445 -0.27176 2.09343 0
M  V30 3669 O 352.793 -1.27146 1.89858 0
M  V30 3670 C 353.003 2.20507 2.70514 0
M  V30 3671 C 354.351 2.54898 3.39577 0
M  V30 3672 O 355.375 2.19209 2.80759 0
M  V30 3673 O 354.234 3.16158 4.45765 0
M  V30 3674 H 351.328 0.448992 0.694503 0
M  V30 3675 H 353.874 1.453 0.876691 0
M  V30 3676 H 352.646 3.16667 2.29865 0
M  V30 3677 H 352.269 1.92329 3.47987 0
M  V30 3678 N 353.266 -1.05314 1.17247 0
M  V30 3679 C 354.514 -1.77941 0.958194 0
M  V30 3680 C 354.835 -1.88089 -0.514556 0
M  V30 3681 O 354.105 -1.39676 -1.37359 0
M  V30 3682 H 352.685 -0.659116 0.351533 0
M  V30 3683 H 355.347 -1.27166 1.47699 0
M  V30 3684 H 354.443 -2.79663 1.38546 0
M  V30 3685 N 354.744 -0.972509 -1.24016 0
M  V30 3686 C 355.692 -0.498562 -2.27194 0
M  V30 3687 C 356.686 0.440372 -1.63576 0
M  V30 3688 O 357.892 0.315133 -1.7722 0
M  V30 3689 H 354.267 -0.142775 -0.738322 0
M  V30 3690 H 356.238 -1.38065 -2.64539 0
M  V30 3691 C 354.987 0.191072 -3.47175 0
M  V30 3692 H 354.31 -0.522318 -3.96373 0
M  V30 3693 H 355.75 0.486445 -4.212 0
M  V30 3694 C 354.209 1.41967 -3.05527 0
M  V30 3695 O 354.739 2.51642 -3.13112 0
M  V30 3696 N 352.945 1.28746 -2.60524 0
M  V30 3697 H 352.492 0.395089 -2.54552 0
M  V30 3698 H 352.45 2.11061 -2.33025 0
M  V30 3699 N 356.222 1.38976 -0.743202 0
M  V30 3700 C 357.633 1.83123 -0.363732 0
M  V30 3701 C 357.984 1.6205 1.10609 0
M  V30 3702 O 357.109 1.11606 1.854 0
M  V30 3703 C 357.704 3.32439 -0.653408 0
M  V30 3704 C 356.263 3.74974 -0.327338 0
M  V30 3705 C 355.41 2.61878 -0.911875 0
M  V30 3706 H 358.361 1.27852 -0.940191 0
M  V30 3707 H 358.382 3.80432 0.0720031 0
M  V30 3708 H 357.894 3.47745 -1.72323 0
M  V30 3709 H 355.995 3.65252 0.736314 0
M  V30 3710 H 356.108 4.72106 -0.815631 0
M  V30 3711 H 354.472 2.52448 -0.337944 0
M  V30 3712 H 355.255 2.79987 -1.98651 0
M  V30 3713 N 357.7 0.491464 1.49741 0
M  V30 3714 C 358.63 -0.28154 2.31796 0
M  V30 3715 C 359.611 -0.971473 1.3963 0
M  V30 3716 O 360.796 -0.964719 1.68543 0
M  V30 3717 C 357.926 -1.35203 3.19902 0
M  V30 3718 C 356.88 -0.782529 4.20786 0
M  V30 3719 C 356.206 -1.95283 4.97764 0
M  V30 3720 C 357.506 0.21999 5.21837 0
M  V30 3721 H 359.2 0.403355 2.96671 0
M  V30 3722 H 356.746 0.195425 1.42668 0
M  V30 3723 H 358.699 -1.90045 3.76113 0
M  V30 3724 H 357.423 -2.06598 2.52953 0
M  V30 3725 H 356.082 -0.255928 3.65706 0
M  V30 3726 H 355.73 -2.65423 4.2727 0
M  V30 3727 H 355.43 -1.57789 5.66018 0
M  V30 3728 H 356.954 -2.50577 5.56816 0
M  V30 3729 H 358.368 -0.23996 5.72798 0
M  V30 3730 H 356.765 0.51026 5.97927 0
M  V30 3731 H 357.835 1.13911 4.7133 0
M  V30 3732 N 359.178 -1.55987 0.224894 0
M  V30 3733 C 360.403 -2.03232 -0.41369 0
M  V30 3734 C 360.828 -1.10359 -1.52323 0
M  V30 3735 O 360.186 -0.092395 -1.81064 0
M  V30 3736 C 360.234 -3.48682 -0.919405 0
M  V30 3737 O 359.338 -3.58947 -2.03054 0
M  V30 3738 H 358.679 -0.657428 -0.0931903 0
M  V30 3739 H 361.209 -2.01679 0.34451 0
M  V30 3740 H 361.219 -3.8907 -1.22835 0
M  V30 3741 H 359.894 -4.15761 -0.107339 0
M  V30 3742 H 358.471 -3.30448 -1.72796 0
M  V30 3743 N 360.656 0.0484629 -1.57525 0
M  V30 3744 C 361.903 0.743125 -1.88372 0
M  V30 3745 C 362.231 1.76383 -0.819715 0
M  V30 3746 O 361.486 1.94855 0.181659 0
M  V30 3747 C 361.785 1.46632 -3.25935 0
M  V30 3748 C 361.451 0.583427 -4.4711 0
M  V30 3749 C 360.113 0.340191 -4.79996 0
M  V30 3750 C 362.465 -0.0273345 -5.21193 0
M  V30 3751 C 359.793 -0.522903 -5.84365 0
M  V30 3752 C 362.145 -0.878017 -6.26477 0
M  V30 3753 C 360.809 -1.1309 -6.5785 0
M  V30 3754 H 360.079 0.271929 -0.689301 0
M  V30 3755 H 362.726 0.00336166 -1.915 0
M  V30 3756 H 361.031 2.2789 -3.18706 0
M  V30 3757 H 362.728 2.00902 -3.47044 0
M  V30 3758 H 359.318 0.783151 -4.21384 0
M  V30 3759 H 363.502 0.147654 -4.9608 0
M  V30 3760 H 358.758 -0.727335 -6.07058 0
M  V30 3761 H 362.932 -1.35789 -6.83033 0
M  V30 3762 H 360.559 -1.80144 -7.38547 0
M  V30 3763 N 362.134 1.5431 0.320358 0
M  V30 3764 C 363.411 1.63322 1.07635 0
M  V30 3765 C 363.791 0.46912 2.05821 0
M  V30 3766 O 363.139 -0.536274 2.22118 0
M  V30 3767 C 363.349 3.00465 1.77544 0
M  V30 3768 C 364.697 3.56621 2.30449 0
M  V30 3769 O 365.721 3.02791 1.87606 0
M  V30 3770 O 364.58 4.5083 3.08892 0
M  V30 3771 H 361.674 0.661502 0.496331 0
M  V30 3772 H 364.22 1.66656 0.319992 0
M  V30 3773 H 362.992 3.76629 1.06143 0
M  V30 3774 H 362.615 3.00824 2.59982 0
M  V30 3775 N 363.613 -0.582584 1.46437 0
M  V30 3776 C 364.561 -1.71272 1.5738 0
M  V30 3777 C 365.555 -1.63524 0.44229 0
M  V30 3778 O 366.761 -1.69016 0.619166 0
M  V30 3779 H 363.136 -0.566273 0.494813 0
M  V30 3780 H 365.107 -1.59174 2.52401 0
M  V30 3781 C 363.856 -3.09658 1.58136 0
M  V30 3782 H 363.179 -3.16291 2.44541 0
M  V30 3783 H 364.619 -3.88494 1.69847 0
M  V30 3784 C 363.078 -3.3547 0.310026 0
M  V30 3785 O 363.608 -3.97199 -0.599683 0
M  V30 3786 N 361.814 -2.89925 0.197901 0
M  V30 3787 H 361.361 -2.39873 0.93909 0
M  V30 3788 H 361.319 -3.07568 -0.65185 0
M  V30 3789 N 365.091 -1.34144 -0.827227 0
M  V30 3790 C 366.34 -1.25602 -1.5782 0
M  V30 3791 C 366.653 0.173445 -1.94829 0
M  V30 3792 O 367.859 0.380984 -2.68814 0
M  V30 3793 C 366.315 -2.20151 -2.84713 0
M  V30 3794 C 365.923 -3.68331 -2.55021 0
M  V30 3795 C 367.667 -2.20508 -3.62735 0
M  V30 3796 C 365.574 -4.54762 -3.78082 0
M  V30 3797 H 364.504 -0.466573 -0.592306 0
M  V30 3798 H 367.155 -1.59283 -0.911116 0
M  V30 3799 H 365.537 -1.79417 -3.53023 0
M  V30 3800 H 366.711 -4.17577 -1.94849 0
M  V30 3801 H 365.026 -3.7038 -1.90283 0
M  V30 3802 H 367.623 -2.82306 -4.54101 0
M  V30 3803 H 367.966 -1.20322 -3.98533 0
M  V30 3804 H 368.499 -2.59664 -3.01362 0
M  V30 3805 H 365.238 -5.55867 -3.47407 0
M  V30 3806 H 364.758 -4.10254 -4.37552 0
M  V30 3807 H 366.437 -4.69153 -4.45538 0
M  V30 3808 N 366.569 1.04691 -1.17803 0
M  V30 3809 C 367.797 1.81446 -0.99423 0
M  V30 3810 C 368.212 1.83174 0.457459 0
M  V30 3811 O 367.569 1.26265 1.31771 0
M  V30 3812 C 367.62 3.27334 -1.5341 0
M  V30 3813 O 367.341 3.25798 -2.92895 0
M  V30 3814 C 368.842 4.20759 -1.39559 0
M  V30 3815 H 366.062 0.571599 -0.351447 0
M  V30 3816 H 368.606 1.31982 -1.56208 0
M  V30 3817 H 366.761 3.74052 -1.00815 0
M  V30 3818 H 367.175 4.17144 -3.17949 0
M  V30 3819 H 368.649 5.21084 -1.82141 0
M  V30 3820 H 369.126 4.37856 -0.343394 0
M  V30 3821 H 369.732 3.79901 -1.91195 0
M  V30 3822 N 368.047 0.979072 1.23499 0
M  V30 3823 C 369.272 0.664845 1.96455 0
M  V30 3824 C 369.697 -0.761287 1.72006 0
M  V30 3825 O 369.055 -1.51837 0.990713 0
M  V30 3826 C 369.103 0.959479 3.47601 0
M  V30 3827 O 368.207 0.0508168 4.12369 0
M  V30 3828 H 367.548 0.250185 0.615064 0
M  V30 3829 H 370.078 1.31231 1.5697 0
M  V30 3830 H 370.088 0.895642 3.98048 0
M  V30 3831 H 368.763 1.99876 3.64723 0
M  V30 3832 H 367.34 0.16895 3.72517 0
M  V30 3833 N 369.525 -1.3858 0.750561 0
M  V30 3834 C 370.771 -2.00481 0.305825 0
M  V30 3835 C 371.104 -1.5944 -1.10872 0
M  V30 3836 O 370.379 -0.83052 -1.75877 0
M  V30 3837 C 370.662 -3.5758 0.425287 0
M  V30 3838 C 370.515 -4.08594 1.88072 0
M  V30 3839 C 371.834 -4.39719 -0.183122 0
M  V30 3840 H 368.953 -0.728348 0.112598 0
M  V30 3841 H 371.595 -1.64566 0.949638 0
M  V30 3842 H 369.745 -3.88306 -0.122828 0
M  V30 3843 H 371.417 -3.88523 2.48691 0
M  V30 3844 H 369.66 -3.61574 2.39681 0
M  V30 3845 H 370.331 -5.177 1.91548 0
M  V30 3846 H 372.807 -4.15128 0.284303 0
M  V30 3847 H 371.683 -5.48856 -0.0692757 0
M  V30 3848 H 371.944 -4.23434 -1.27106 0
M  V30 3849 N 371.003 -0.499398 -1.49478 0
M  V30 3850 C 372.414 -0.051215 -1.8663 0
M  V30 3851 C 372.765 1.36238 -1.41186 0
M  V30 3852 O 371.89 2.01502 -0.789051 0
M  V30 3853 C 372.485 -0.0861651 -3.3869 0
M  V30 3854 C 371.044 0.30667 -3.75149 0
M  V30 3855 C 370.191 -0.459397 -2.73468 0
M  V30 3856 H 373.142 -0.712264 -1.41818 0
M  V30 3857 H 373.163 0.709507 -3.73826 0
M  V30 3858 H 372.675 -1.11512 -3.71735 0
M  V30 3859 H 370.776 1.33892 -3.47712 0
M  V30 3860 H 370.889 -0.0116669 -4.79099 0
M  V30 3861 H 369.253 0.0905645 -2.54539 0
M  V30 3862 H 370.036 -1.4884 -3.09357 0
M  V30 3863 N 372.481 1.55866 -0.233164 0
M  V30 3864 C 373.897 1.59133 0.121988 0
M  V30 3865 C 374.097 1.25016 1.58029 0
M  V30 3866 O 373.153 0.990922 2.32243 0
M  V30 3867 C 374.466 2.99932 -0.214792 0
M  V30 3868 C 376.014 3.12601 -0.157971 0
M  V30 3869 C 376.489 4.55597 -0.46859 0
M  V30 3870 N 377.98 4.61305 -0.418585 0
M  V30 3871 C 378.715 5.69903 -0.63227 0
M  V30 3872 N 378.211 6.86819 -0.90835 0
M  V30 3873 N 380.004 5.59264 -0.563913 0
M  V30 3874 H 372.155 1.76315 -1.18434 0
M  V30 3875 H 374.418 0.820093 -0.475553 0
M  V30 3876 H 374.124 3.29588 -1.22739 0
M  V30 3877 H 373.998 3.74327 0.464691 0
M  V30 3878 H 376.385 2.82735 0.845283 0
M  V30 3879 H 376.466 2.40511 -0.871102 0
M  V30 3880 H 376.11 4.86182 -1.46934 0
M  V30 3881 H 376.04 5.25928 0.265865 0
M  V30 3882 H 378.531 3.77297 -0.213368 0
M  V30 3883 H 378.844 7.65507 -1.05919 0
M  V30 3884 H 377.189 6.88536 -0.945673 0
M  V30 3885 H 380.38 4.66802 -0.348372 0
M  V30 3886 H 380.553 6.43831 -0.733847 0
M  V30 3887 N 373.959 -0.0401083 1.57549 0
M  V30 3888 C 375.207 -0.731677 1.8839 0
M  V30 3889 C 375.528 -1.76481 0.829425 0
M  V30 3890 O 374.798 -1.95411 -0.1383 0
M  V30 3891 H 373.378 -0.273225 0.695239 0
M  V30 3892 H 376.04 -0.00867725 1.94898 0
M  V30 3893 H 375.136 -1.22816 2.86919 0
M  V30 3894 N 375.437 -1.54477 -0.31217 0
M  V30 3895 C 376.685 -1.72884 -1.04668 0
M  V30 3896 C 377.006 -0.511477 -1.88173 0
M  V30 3897 O 376.276 0.474407 -1.90069 0
M  V30 3898 H 374.856 -0.637461 -0.389425 0
M  V30 3899 H 377.518 -1.91807 -0.345852 0
M  V30 3900 H 376.614 -2.61334 -1.70619 0
M  V30 3901 N 376.915 0.57481 -1.46744 0
M  V30 3902 C 377.863 1.70435 -1.58286 0
M  V30 3903 C 378.857 1.63287 -0.450956 0
M  V30 3904 O 380.063 1.68685 -0.628121 0
M  V30 3905 H 376.438 0.56364 -0.497809 0
M  V30 3906 H 378.409 1.57833 -2.53242 0
M  V30 3907 C 377.158 3.08815 -1.59776 0
M  V30 3908 H 376.481 3.1499 -2.46214 0
M  V30 3909 H 377.921 3.87588 -1.71905 0
M  V30 3910 C 376.38 3.35301 -0.327812 0
M  V30 3911 O 376.91 3.97511 0.57861 0
M  V30 3912 N 375.116 2.89816 -0.213274 0
M  V30 3913 H 374.663 2.39371 -0.951798 0
M  V30 3914 H 374.621 3.0791 0.63553 0
M  V30 3915 N 378.394 1.34581 0.820102 0
M  V30 3916 C 379.357 1.2628 1.91275 0
M  V30 3917 C 380.357 0.177344 1.59819 0
M  V30 3918 O 381.547 0.430156 1.68806 0
M  V30 3919 C 378.679 0.950327 3.27386 0
M  V30 3920 H 379.872 2.23421 2.00057 0
M  V30 3921 H 377.425 1.1891 1.0144 0
M  V30 3922 H 378.16 -0.0177938 3.24295 0
M  V30 3923 H 377.945 1.73549 3.51601 0
M  V30 3924 H 379.435 0.917492 4.07396 0
M  V30 3925 N 379.872 -1.04064 1.18357 0
M  V30 3926 C 381.12 -1.76915 0.977013 0
M  V30 3927 C 381.441 -1.88624 -0.494577 0
M  V30 3928 O 380.711 -1.41125 -1.3587 0
M  V30 3929 H 379.291 -0.65535 0.358504 0
M  V30 3930 H 381.953 -1.25592 1.49039 0
M  V30 3931 H 381.049 -2.78178 1.41504 0
M  V30 3932 N 381.35 -0.985608 -1.22978 0
M  V30 3933 C 382.598 -0.656087 -1.91154 0
M  V30 3934 C 382.919 0.813561 -1.77218 0
M  V30 3935 O 382.189 1.58244 -1.1548 0
M  V30 3936 H 380.769 -0.239674 -0.707506 0
M  V30 3937 H 383.431 -1.25054 -1.49491 0
M  V30 3938 H 382.527 -0.912253 -2.9847 0
M  V30 3939 N 382.828 1.3818 -0.7579 0
M  V30 3940 C 384.076 1.99624 -0.315361 0
M  V30 3941 C 384.397 1.60464 1.10799 0
M  V30 3942 O 383.667 0.863507 1.75842 0
M  V30 3943 H 382.247 0.73831 -0.113611 0
M  V30 3944 H 384.909 1.68878 -0.972952 0
M  V30 3945 H 384.005 3.09754 -0.381931 0
M  V30 3946 N 384.306 0.507319 1.49211 0
M  V30 3947 C 385.554 -0.0348839 2.0207 0
M  V30 3948 C 385.875 -1.36898 1.38866 0
M  V30 3949 O 385.145 -1.88133 0.546151 0
M  V30 3950 H 383.725 -0.0158812 0.746831 0
M  V30 3951 H 386.387 0.665998 1.83168 0
M  V30 3952 H 385.483 -0.159917 3.1169 0
M  V30 3953 N 385.784 -1.5574 0.241426 0
M  V30 3954 C 386.716 -2.18469 -0.693091 0
M  V30 3955 C 387.729 -1.15942 -1.14286 0
M  V30 3956 O 388.918 -1.42832 -1.07058 0
M  V30 3957 C 386.018 -2.7696 -1.95311 0
M  V30 3958 C 385.191 -4.04853 -1.65568 0
M  V30 3959 C 384.25 -4.47715 -2.76474 0
M  V30 3960 O 383.276 -5.14205 -2.44094 0
M  V30 3961 N 384.478 -4.15044 -4.05855 0
M  V30 3962 H 387.243 -2.99292 -0.156388 0
M  V30 3963 H 384.804 -1.61784 0.0611752 0
M  V30 3964 H 386.796 -3.02594 -2.68736 0
M  V30 3965 H 385.366 -2.00326 -2.39975 0
M  V30 3966 H 384.586 -3.86865 -0.756886 0
M  V30 3967 H 385.874 -4.88246 -1.43153 0
M  V30 3968 H 385.272 -3.61654 -4.34998 0
M  V30 3969 H 383.829 -4.45526 -4.75762 0
M  V30 3970 N 387.262 0.0317525 -1.57568 0
M  V30 3971 C 388.673 0.578692 -1.77505 0
M  V30 3972 C 389.024 1.75749 -0.872164 0
M  V30 3973 O 388.149 2.16298 -0.0663106 0
M  V30 3974 C 388.744 1.05658 -3.21904 0
M  V30 3975 C 387.303 1.54906 -3.43047 0
M  V30 3976 C 386.45 0.485939 -2.73009 0
M  V30 3977 H 389.401 -0.194475 -1.57504 0
M  V30 3978 H 389.422 1.92404 -3.28269 0
M  V30 3979 H 388.934 0.198422 -3.87592 0
M  V30 3980 H 387.035 2.42915 -2.82529 0
M  V30 3981 H 387.148 1.59841 -4.5165 0
M  V30 3982 H 385.512 0.940354 -2.36705 0
M  V30 3983 H 386.295 -0.362709 -3.41379 0
M  V30 3984 N 388.74 1.54641 0.303973 0
M  V30 3985 C 389.988 1.73437 1.0375 0
M  V30 3986 C 390.309 0.521449 1.87899 0
M  V30 3987 O 389.579 -0.46432 1.90318 0
M  V30 3988 H 388.159 0.639518 0.386039 0
M  V30 3989 H 390.821 1.91988 0.335675 0
M  V30 3990 H 389.917 2.62235 1.69231 0
M  V30 3991 N 390.218 -0.567019 1.47046 0
M  V30 3992 C 391.464 -1.32434 1.54379 0
M  V30 3993 C 391.819 -1.91365 0.199276 0
M  V30 3994 O 391.112 -1.74378 -0.793915 0
M  V30 3995 C 391.306 -2.4623 2.59047 0
M  V30 3996 C 391.135 -1.98448 4.03545 0
M  V30 3997 C 389.905 -1.82741 4.71098 0
M  V30 3998 C 392.103 -1.53477 4.90866 0
M  V30 3999 N 390.085 -1.29196 6.00151 0
M  V30 4000 C 391.456 -1.1163 6.09868 0
M  V30 4001 C 393.511 -1.41438 4.77388 0
M  V30 4002 C 392.214 -0.589425 7.16881 0
M  V30 4003 C 394.24 -0.901528 5.84488 0
M  V30 4004 C 393.602 -0.492932 7.02673 0
M  V30 4005 H 389.701 -0.477005 0.61967 0
M  V30 4006 H 392.285 -0.643856 1.83746 0
M  V30 4007 H 390.456 -3.11821 2.31564 0
M  V30 4008 H 392.188 -3.13213 2.56281 0
M  V30 4009 H 388.943 -2.05162 4.26855 0
M  V30 4010 H 389.367 -1.0454 6.6888 0
M  V30 4011 H 394.009 -1.71643 3.86392 0
M  V30 4012 H 391.727 -0.274994 8.07632 0
M  V30 4013 H 395.313 -0.812071 5.76105 0
M  V30 4014 H 394.193 -0.102227 7.84133 0
M  V30 4015 N 391.696 -1.35014 -0.812953 0
M  V30 4016 C 392.629 -1.21761 -1.93001 0
M  V30 4017 C 393.607 -0.10694 -1.62248 0
M  V30 4018 O 394.791 -0.273891 -1.865 0
M  V30 4019 C 391.918 -0.873404 -3.27245 0
M  V30 4020 C 390.964 -1.99523 -3.76952 0
M  V30 4021 S 391.797 -3.61009 -3.95516 0
M  V30 4022 C 392.953 -3.28651 -5.32672 0
M  V30 4023 H 393.186 -2.16315 -2.03948 0
M  V30 4024 H 390.719 -1.20156 -0.969631 0
M  V30 4025 H 392.677 -0.68161 -4.04802 0
M  V30 4026 H 391.338 0.053971 -3.14054 0
M  V30 4027 H 390.531 -1.70838 -4.74163 0
M  V30 4028 H 390.133 -2.14503 -3.06373 0
M  V30 4029 H 392.425 -2.81085 -6.1644 0
M  V30 4030 H 393.368 -4.25039 -5.66346 0
M  V30 4031 H 393.776 -2.6458 -4.98656 0
M  V30 4032 N 393.175 1.03435 -1.18907 0
M  V30 4033 C 394.105 2.13503 -0.945448 0
M  V30 4034 C 395.086 1.69682 0.119189 0
M  V30 4035 O 396.271 1.94169 -0.034707 0
M  V30 4036 C 393.401 3.44004 -0.477316 0
M  V30 4037 C 392.355 4.0148 -1.48316 0
M  V30 4038 C 391.681 5.27537 -0.872311 0
M  V30 4039 C 392.981 4.36921 -2.86177 0
M  V30 4040 H 394.675 2.34141 -1.86597 0
M  V30 4041 H 392.221 1.12523 -0.898584 0
M  V30 4042 H 394.174 4.20372 -0.294204 0
M  V30 4043 H 392.898 3.23072 0.478786 0
M  V30 4044 H 391.557 3.27201 -1.65332 0
M  V30 4045 H 391.205 5.02917 0.0911752 0
M  V30 4046 H 390.905 5.66954 -1.54393 0
M  V30 4047 H 392.429 6.06576 -0.699871 0
M  V30 4048 H 393.843 5.04248 -2.72776 0
M  V30 4049 H 392.24 4.87405 -3.50081 0
M  V30 4050 H 393.31 3.46466 -3.39248 0
M  V30 4051 N 394.653 0.992116 1.22453 0
M  V30 4052 C 395.6 0.541731 2.24352 0
M  V30 4053 C 396.57 -0.425519 1.60557 0
M  V30 4054 O 397.755 -0.330453 1.87917 0
M  V30 4055 C 394.895 -0.138248 3.44823 0
M  V30 4056 C 394.008 0.870649 4.23136 0
M  V30 4057 C 393.143 0.164269 5.30946 0
M  V30 4058 C 392.182 1.16159 6.00977 0
M  V30 4059 N 391.319 0.483568 7.00433 0
M  V30 4060 H 396.159 1.41541 2.62241 0
M  V30 4061 H 393.696 0.709013 1.28885 0
M  V30 4062 H 395.654 -0.5494 4.13567 0
M  V30 4063 H 394.284 -0.975721 3.077 0
M  V30 4064 H 393.336 1.40013 3.53696 0
M  V30 4065 H 394.648 1.63014 4.7141 0
M  V30 4066 H 393.802 -0.303653 6.0594 0
M  V30 4067 H 392.541 -0.627733 4.83643 0
M  V30 4068 H 391.546 1.64015 5.24766 0
M  V30 4069 H 392.771 1.95445 6.50368 0
M  V30 4070 H 390.717 -0.289012 6.55363 0
M  V30 4071 H 390.634 1.18152 7.4671 0
M  V30 4072 H 391.902 0.0384219 7.79491 0
M  V30 4073 N 396.131 -1.37776 0.765217 0
M  V30 4074 C 397.371 -2.01691 0.331669 0
M  V30 4075 C 397.735 -1.59432 -1.06983 0
M  V30 4076 O 398.936 -2.15761 -1.60314 0
M  V30 4077 C 397.207 -3.54385 0.463261 0
M  V30 4078 S 398.766 -4.38652 0.114011 0
M  V30 4079 H 395.584 -0.699387 0.127979 0
M  V30 4080 H 398.186 -1.68084 0.998396 0
M  V30 4081 H 396.89 -3.82629 1.48401 0
M  V30 4082 H 396.421 -3.92783 -0.220246 0
M  V30 4083 H 398.436 -4.84021 -1.09261 0
M  V30 4084 N 397.609 -0.515225 -1.4894 0
M  V30 4085 C 398.556 0.255567 -2.29381 0
M  V30 4086 C 399.526 0.947387 -1.36432 0
M  V30 4087 O 400.711 0.951288 -1.65394 0
M  V30 4088 C 397.851 1.30551 -3.19453 0
M  V30 4089 C 396.964 0.624029 -4.27469 0
M  V30 4090 C 396.099 1.65563 -5.0474 0
M  V30 4091 C 395.138 0.956802 -6.04576 0
M  V30 4092 N 394.275 1.93326 -6.74959 0
M  V30 4093 H 399.115 -0.436607 -2.94784 0
M  V30 4094 H 396.652 -0.227154 -1.45336 0
M  V30 4095 H 398.61 1.92639 -3.70062 0
M  V30 4096 H 397.24 1.96626 -2.56004 0
M  V30 4097 H 396.292 -0.110459 -3.8024 0
M  V30 4098 H 397.604 0.0746092 -4.98744 0
M  V30 4099 H 396.758 2.35119 -5.59289 0
M  V30 4100 H 395.497 2.23893 -4.3327 0
M  V30 4101 H 394.502 0.247097 -5.49244 0
M  V30 4102 H 395.727 0.379814 -6.78037 0
M  V30 4103 H 393.673 2.50591 -6.06251 0
M  V30 4104 H 393.59 1.43489 -7.42258 0
M  V30 4105 H 394.858 2.62126 -7.34105 0
M  V30 4106 N 399.087 1.5561 -0.249682 0
M  V30 4107 C 400.335 1.98618 0.373548 0
M  V30 4108 C 400.656 1.13919 1.58264 0
M  V30 4109 O 399.926 0.222637 1.94631 0
M  V30 4110 H 398.506 0.733571 0.141006 0
M  V30 4111 H 401.168 1.91748 -0.349117 0
M  V30 4112 H 400.264 3.04584 0.680796 0
M  V30 4113 N 400.565 -0.0233959 1.57583 0
M  V30 4114 C 401.811 -0.708611 1.90657 0
M  V30 4115 C 402.166 -1.7266 0.848895 0
M  V30 4116 O 401.459 -1.91075 -0.141749 0
M  V30 4117 C 401.653 -1.41428 3.28227 0
M  V30 4118 C 401.482 -0.466155 4.47277 0
M  V30 4119 C 400.252 -0.085117 5.05228 0
M  V30 4120 C 402.45 0.257836 5.13653 0
M  V30 4121 N 400.432 0.863672 6.07794 0
M  V30 4122 C 401.803 1.06209 6.10835 0
M  V30 4123 C 403.858 0.324174 4.96844 0
M  V30 4124 C 402.561 1.9266 6.93018 0
M  V30 4125 C 404.587 1.17583 5.79593 0
M  V30 4126 C 403.949 1.96799 6.7635 0
M  V30 4127 H 400.048 -0.233222 0.746412 0
M  V30 4128 H 402.632 0.0314512 1.94675 0
M  V30 4129 H 400.803 -2.12477 3.25128 0
M  V30 4130 H 402.535 -2.05233 3.488 0
M  V30 4131 H 399.29 -0.448516 4.71471 0
M  V30 4132 H 399.714 1.33274 6.63752 0
M  V30 4133 H 404.356 -0.273975 4.21911 0
M  V30 4134 H 402.074 2.53552 7.67292 0
M  V30 4135 H 405.66 1.23076 5.68633 0
M  V30 4136 H 404.54 2.61635 7.39268 0
M  V30 4137 N 402.043 -1.548 -0.295768 0
M  V30 4138 C 402.953 -1.89177 -1.38742 0
M  V30 4139 C 403.969 -0.786481 -1.55211 0
M  V30 4140 O 405.145 -1.08344 -1.69775 0
M  V30 4141 C 402.21 -2.13663 -2.73036 0
M  V30 4142 C 401.271 -3.37349 -2.65508 0
M  V30 4143 C 400.504 -3.60658 -3.93398 0
M  V30 4144 O 400.727 -2.86882 -4.93006 0
M  V30 4145 O 399.661 -4.54179 -3.94975 0
M  V30 4146 H 403.487 -2.82059 -1.12589 0
M  V30 4147 H 401.072 -1.41056 -0.492295 0
M  V30 4148 H 402.954 -2.3094 -3.52484 0
M  V30 4149 H 401.629 -1.23967 -2.99022 0
M  V30 4150 H 400.536 -3.25431 -1.84514 0
M  V30 4151 H 401.869 -4.27192 -2.44474 0
M  V30 4152 N 403.521 0.559213 -1.47345 0
M  V30 4153 C 404.749 1.34194 -1.57479 0
M  V30 4154 C 405.164 1.87463 -0.224261 0
M  V30 4155 O 404.521 1.64888 0.782185 0
M  V30 4156 C 404.572 2.51324 -2.59843 0
M  V30 4157 O 404.293 2.00256 -3.89653 0
M  V30 4158 C 405.794 3.43563 -2.80142 0
M  V30 4159 H 403.014 0.409136 -0.531835 0
M  V30 4160 H 405.558 0.677609 -1.92947 0
M  V30 4161 H 403.713 3.13699 -2.27314 0
M  V30 4162 H 404.127 2.76708 -4.4557 0
M  V30 4163 H 405.601 4.2217 -3.55635 0
M  V30 4164 H 406.078 3.9698 -1.87892 0
M  V30 4165 H 406.684 2.87005 -3.1386 0
M  V30 4166 N 404.999 1.35443 0.805782 0
M  V30 4167 C 406.276 1.19325 1.54987 0
M  V30 4168 C 406.656 -0.227294 2.09873 0
M  V30 4169 O 406.004 -1.2309 1.92512 0
M  V30 4170 C 406.214 2.26196 2.65775 0
M  V30 4171 C 407.562 2.62043 3.34094 0
M  V30 4172 O 408.586 2.25115 2.76046 0
M  V30 4173 O 407.445 3.25542 4.38958 0
M  V30 4174 H 404.539 0.463623 0.684823 0
M  V30 4175 H 407.085 1.47127 0.845674 0
M  V30 4176 H 405.857 3.21471 2.23096 0
M  V30 4177 H 405.48 1.99667 3.43829 0
M  V30 4178 N 406.477 -1.02803 1.19454 0
M  V30 4179 C 407.44 -2.09264 0.934955 0
M  V30 4180 C 408.44 -1.60576 -0.0849015 0
M  V30 4181 O 409.63 -1.73554 0.149933 0
M  V30 4182 C 406.762 -3.38482 0.40531 0
M  V30 4183 H 407.955 -2.33726 1.87916 0
M  V30 4184 H 405.508 -1.19426 1.00832 0
M  V30 4185 H 406.243 -3.19689 -0.544899 0
M  V30 4186 H 406.028 -3.75142 1.14065 0
M  V30 4187 H 407.518 -4.16894 0.242806 0
M  V30 4188 N 407.956 -0.998596 -1.21925 0
M  V30 4189 C 409.233 -0.593401 -1.86382 0
M  V30 4190 C 409.613 0.92916 -1.89552 0
M  V30 4191 O 408.961 1.81347 -1.39017 0
M  V30 4192 C 409.171 -1.22039 -3.26967 0
M  V30 4193 C 410.519 -1.32449 -4.03413 0
M  V30 4194 O 411.543 -1.17522 -3.36254 0
M  V30 4195 O 410.402 -1.56395 -5.23644 0
M  V30 4196 H 407.496 -0.202385 -0.801854 0
M  V30 4197 H 410.042 -1.09484 -1.29659 0
M  V30 4198 H 408.814 -2.26158 -3.19325 0
M  V30 4199 H 408.437 -0.704906 -3.91301 0
M  V30 4200 N 409.434 1.37368 -0.772513 0
M  V30 4201 C 410.659 2.0447 -0.347386 0
M  V30 4202 C 411.084 1.57882 1.0225 0
M  V30 4203 O 410.442 0.73941 1.65537 0
M  V30 4204 C 410.49 3.58369 -0.400479 0
M  V30 4205 O 409.594 4.0803 0.598789 0
M  V30 4206 H 408.935 0.646773 -0.15027 0
M  V30 4207 H 411.465 1.75667 -1.04892 0
M  V30 4208 H 411.475 4.07183 -0.258045 0
M  V30 4209 H 410.15 3.91633 -1.39986 0
M  V30 4210 H 408.727 3.70534 0.419411 0
M  V30 4211 N 410.912 0.523116 1.48665 0
M  V30 4212 C 412.142 -0.00961724 2.06598 0
M  V30 4213 C 412.55 -1.29333 1.38093 0
M  V30 4214 O 411.893 -1.77846 0.46007 0
M  V30 4215 C 411.955 -0.311135 3.58151 0
M  V30 4216 C 411.619 0.878092 4.48485 0
M  V30 4217 C 412.616 1.77464 4.88674 0
M  V30 4218 C 410.301 1.08315 4.90483 0
M  V30 4219 C 412.295 2.86021 5.69623 0
M  V30 4220 C 409.982 2.17187 5.71203 0
M  V30 4221 C 410.98 3.05873 6.10681 0
M  V30 4222 O 410.668 4.12862 6.89783 0
M  V30 4223 H 410.4 0.0272658 0.67545 0
M  V30 4224 H 412.954 0.726156 1.92136 0
M  V30 4225 H 411.184 -1.10079 3.70701 0
M  V30 4226 H 412.873 -0.785125 3.98234 0
M  V30 4227 H 413.639 1.62813 4.56855 0
M  V30 4228 H 409.518 0.402149 4.59243 0
M  V30 4229 H 413.062 3.55272 6.00356 0
M  V30 4230 H 408.959 2.31824 6.02435 0
M  V30 4231 H 409.727 4.10487 7.08126 0
M  V30 4232 N 412.39 -1.55475 0.257931 0
M  V30 4233 C 413.636 -1.99502 -0.364266 0
M  V30 4234 C 413.969 -1.146 -1.56782 0
M  V30 4235 O 413.244 -0.211968 -1.93342 0
M  V30 4236 C 413.527 -3.51917 -0.763333 0
M  V30 4237 C 413.38 -4.4758 0.446371 0
M  V30 4238 C 414.699 -4.09742 -1.60623 0
M  V30 4239 H 411.818 -0.725277 -0.130929 0
M  V30 4240 H 414.46 -1.8653 0.361446 0
M  V30 4241 H 412.61 -3.63101 -1.38166 0
M  V30 4242 H 414.282 -4.48362 1.08487 0
M  V30 4243 H 412.525 -4.19947 1.08753 0
M  V30 4244 H 413.196 -5.51862 0.123645 0
M  V30 4245 H 415.672 -4.01727 -1.08418 0
M  V30 4246 H 414.548 -5.16631 -1.85429 0
M  V30 4247 H 414.809 -3.58889 -2.58169 0
M  V30 4248 N 413.868 0.0150385 -1.57593 0
M  V30 4249 C 415.098 0.713359 -1.93894 0
M  V30 4250 C 415.506 1.68663 -0.857289 0
M  V30 4251 O 414.849 1.82876 0.173788 0
M  V30 4252 C 414.911 1.51348 -3.26089 0
M  V30 4253 C 414.575 0.703451 -4.51554 0
M  V30 4254 C 415.572 -0.00237924 -5.199 0
M  V30 4255 C 413.257 0.653854 -4.98026 0
M  V30 4256 C 415.251 -0.746955 -6.33008 0
M  V30 4257 C 412.938 -0.0944578 -6.11027 0
M  V30 4258 C 413.936 -0.793609 -6.78374 0
M  V30 4259 O 413.624 -1.52974 -7.89211 0
M  V30 4260 H 413.356 0.204637 -0.644282 0
M  V30 4261 H 415.91 -0.0276411 -2.05381 0
M  V30 4262 H 414.14 2.29862 -3.10967 0
M  V30 4263 H 415.829 2.09572 -3.47612 0
M  V30 4264 H 416.595 0.0268803 -4.84993 0
M  V30 4265 H 412.474 1.18756 -4.45441 0
M  V30 4266 H 416.018 -1.2932 -6.85509 0
M  V30 4267 H 411.915 -0.125591 -6.45378 0
M  V30 4268 H 412.683 -1.44488 -8.05646 0
M  V30 4269 N 415.346 1.54954 0.287554 0
M  V30 4270 C 416.593 1.74873 1.02106 0
M  V30 4271 C 416.921 0.541829 1.86801 0
M  V30 4272 O 416.176 -0.475992 1.89823 0
M  V30 4273 C 416.475 2.99833 1.94512 0
M  V30 4274 C 416.141 4.33029 1.25686 0
M  V30 4275 C 414.803 4.69233 1.06649 0
M  V30 4276 C 417.155 5.15542 0.765913 0
M  V30 4277 C 414.483 5.85518 0.372222 0
M  V30 4278 C 416.835 6.32542 0.0853101 0
M  V30 4279 C 415.499 6.67398 -0.1169 0
M  V30 4280 H 414.769 0.639906 0.373632 0
M  V30 4281 H 417.416 1.89219 0.294665 0
M  V30 4282 H 415.721 2.80325 2.73725 0
M  V30 4283 H 417.418 3.1244 2.51361 0
M  V30 4284 H 414.008 4.04564 1.41512 0
M  V30 4285 H 418.192 4.88059 0.90066 0
M  V30 4286 H 413.448 6.11057 0.204695 0
M  V30 4287 H 417.622 6.95741 -0.302936 0
M  V30 4288 H 415.249 7.57357 -0.656859 0
M  V30 4289 N 416.824 -0.551391 1.4764 0
M  V30 4290 C 418.052 -1.33357 1.58189 0
M  V30 4291 C 418.467 -1.87342 0.234199 0
M  V30 4292 O 417.824 -1.65301 -0.77343 0
M  V30 4293 C 417.875 -2.49942 2.61173 0
M  V30 4294 O 417.596 -1.98187 3.90709 0
M  V30 4295 C 419.097 -3.42072 2.8196 0
M  V30 4296 H 416.317 -0.40631 0.533998 0
M  V30 4297 H 418.861 -0.667367 1.93304 0
M  V30 4298 H 417.016 -3.12489 2.28975 0
M  V30 4299 H 417.43 -2.74342 4.47031 0
M  V30 4300 H 418.904 -4.20278 3.57869 0
M  V30 4301 H 419.381 -3.95978 1.89995 0
M  V30 4302 H 419.987 -2.85336 3.15378 0
M  V30 4303 N 418.302 -1.35869 -0.798587 0
M  V30 4304 C 419.551 -1.28921 -1.5512 0
M  V30 4305 C 419.864 0.13208 -1.95154 0
M  V30 4306 O 421.07 0.323879 -2.69561 0
M  V30 4307 C 419.526 -2.26141 -2.79979 0
M  V30 4308 C 419.134 -3.73658 -2.47151 0
M  V30 4309 C 420.878 -2.28152 -3.57976 0
M  V30 4310 C 418.785 -4.62679 -3.6835 0
M  V30 4311 H 417.715 -0.479031 -0.582276 0
M  V30 4312 H 420.366 -1.61179 -0.877125 0
M  V30 4313 H 418.748 -1.86865 -3.49138 0
M  V30 4314 H 419.922 -4.21616 -1.85947 0
M  V30 4315 H 418.237 -3.74333 -1.82383 0
M  V30 4316 H 420.834 -2.91875 -4.4801 0
M  V30 4317 H 421.177 -1.28748 -3.95891 0
M  V30 4318 H 421.71 -2.65998 -2.95787 0
M  V30 4319 H 418.449 -5.63111 -3.35538 0
M  V30 4320 H 417.969 -4.19442 -4.28752 0
M  V30 4321 H 419.648 -4.78498 -4.35487 0
M  V30 4322 N 419.78 1.02168 -1.19998 0
M  V30 4323 C 420.743 2.08765 -0.94604 0
M  V30 4324 C 421.743 1.60618 0.0763846 0
M  V30 4325 O 422.933 1.73472 -0.159135 0
M  V30 4326 C 420.065 3.38262 -0.423255 0
M  V30 4327 H 421.258 2.32726 -1.89153 0
M  V30 4328 H 418.811 1.1889 -1.01464 0
M  V30 4329 H 419.546 3.19974 0.527938 0
M  V30 4330 H 419.331 3.74532 -1.16053 0
M  V30 4331 H 420.821 4.16759 -0.264911 0
M  V30 4332 N 421.258 1.00505 1.21394 0
M  V30 4333 C 422.221 0.570459 2.21987 0
M  V30 4334 C 423.221 -0.353211 1.56873 0
M  V30 4335 O 424.411 -0.14349 1.73608 0
M  V30 4336 C 421.543 -0.168555 3.40483 0
M  V30 4337 H 422.736 1.46021 2.6195 0
M  V30 4338 H 420.289 0.793565 1.34656 0
M  V30 4339 H 421.024 -1.07374 3.06009 0
M  V30 4340 H 420.809 0.494823 3.88965 0
M  V30 4341 H 422.299 -0.460362 4.15055 0
M  V30 4342 N 422.737 -1.36956 0.779787 0
M  V30 4343 C 423.685 -2.32053 0.15942 0
M  V30 4344 C 424.679 -1.55333 -0.675878 0
M  V30 4345 O 425.885 -1.70668 -0.57204 0
M  V30 4346 H 422.26 -0.751286 0.0327707 0
M  V30 4347 H 424.231 -2.8195 0.977078 0
M  V30 4348 C 422.98 -3.40602 -0.698977 0
M  V30 4349 H 422.303 -3.99746 -0.0655966 0
M  V30 4350 H 423.743 -4.09486 -1.09989 0
M  V30 4351 C 422.202 -2.81359 -1.85307 0
M  V30 4352 O 422.732 -2.72751 -2.94906 0
M  V30 4353 N 420.938 -2.38786 -1.65619 0
M  V30 4354 H 420.485 -2.45987 -0.764725 0
M  V30 4355 H 420.443 -1.99493 -2.43002 0
M  V30 4356 N 424.215 -0.530993 -1.48385 0
M  V30 4357 C 425.148 0.278511 -2.26494 0
M  V30 4358 C 426.126 0.943905 -1.32398 0
M  V30 4359 O 427.31 0.968098 -1.61741 0
M  V30 4360 C 424.437 1.39453 -3.08659 0
M  V30 4361 C 423.483 0.840434 -4.18137 0
M  V30 4362 S 424.316 -0.292496 -5.34701 0
M  V30 4363 C 425.472 0.825973 -6.20426 0
M  V30 4364 H 425.705 -0.384365 -2.94805 0
M  V30 4365 H 423.238 -0.316799 -1.51115 0
M  V30 4366 H 425.196 2.03382 -3.56575 0
M  V30 4367 H 423.857 2.02913 -2.3976 0
M  V30 4368 H 423.05 1.67769 -4.75257 0
M  V30 4369 H 422.652 0.277819 -3.72967 0
M  V30 4370 H 424.944 1.72438 -6.55188 0
M  V30 4371 H 425.887 0.292728 -7.07495 0
M  V30 4372 H 426.295 1.10683 -5.53543 0
M  V30 4373 N 425.693 1.55336 -0.266172 0
M  V30 4374 C 426.939 2.00423 0.346714 0
M  V30 4375 C 427.294 1.15132 1.54151 0
M  V30 4376 O 426.587 0.211289 1.90431 0
M  V30 4377 C 426.781 3.48606 0.787957 0
M  V30 4378 C 426.61 4.48236 -0.362535 0
M  V30 4379 C 425.38 4.98211 -0.843445 0
M  V30 4380 C 427.578 5.00199 -1.19603 0
M  V30 4381 N 425.56 5.81625 -1.96434 0
M  V30 4382 C 426.931 5.80973 -2.16497 0
M  V30 4383 C 428.986 4.82458 -1.2304 0
M  V30 4384 C 427.689 6.45896 -3.1656 0
M  V30 4385 C 429.715 5.48174 -2.21944 0
M  V30 4386 C 429.077 6.28751 -3.17571 0
M  V30 4387 H 425.176 0.776535 0.0922914 0
M  V30 4388 H 427.76 1.90792 -0.388154 0
M  V30 4389 H 425.931 3.58597 1.49207 0
M  V30 4390 H 427.663 3.80538 1.37742 0
M  V30 4391 H 424.418 4.71696 -0.424271 0
M  V30 4392 H 424.842 6.28025 -2.52813 0
M  V30 4393 H 429.484 4.19774 -0.504903 0
M  V30 4394 H 427.202 7.07734 -3.90048 0
M  V30 4395 H 430.788 5.36392 -2.25333 0
M  V30 4396 H 429.668 6.78703 -3.92851 0
M  V30 4397 N 427.171 -0.0066808 1.57599 0
M  V30 4398 C 428.582 -0.550379 1.78403 0
M  V30 4399 C 428.933 -1.74339 0.900014 0
M  V30 4400 O 428.058 -2.16166 0.100713 0
M  V30 4401 C 428.653 -1.00523 3.23544 0
M  V30 4402 C 427.212 -1.49428 3.45468 0
M  V30 4403 C 426.359 -0.442444 2.73748 0
M  V30 4404 H 429.31 0.219508 1.57175 0
M  V30 4405 H 429.331 -1.87157 3.31289 0
M  V30 4406 H 428.843 -0.136735 3.87859 0
M  V30 4407 H 426.944 -2.3839 2.86358 0
M  V30 4408 H 427.057 -1.52635 4.54136 0
M  V30 4409 H 425.421 -0.902578 2.38171 0
M  V30 4410 H 426.204 0.416973 3.40758 0
M  V30 4411 N 428.649 -1.55105 -0.279332 0
M  V30 4412 C 429.581 -1.83952 -1.36727 0
M  V30 4413 C 430.594 -0.723642 -1.45833 0
M  V30 4414 O 431.783 -1.00141 -1.47763 0
M  V30 4415 C 428.883 -1.98183 -2.74912 0
M  V30 4416 C 428.056 -3.28787 -2.88475 0
M  V30 4417 C 427.115 -3.33162 -4.07295 0
M  V30 4418 O 426.141 -4.06576 -3.98353 0
M  V30 4419 N 427.343 -2.60109 -5.18964 0
M  V30 4420 H 430.108 -2.77853 -1.12328 0
M  V30 4421 H 427.669 -1.54945 -0.469442 0
M  V30 4422 H 429.661 -1.98488 -3.52682 0
M  V30 4423 H 428.231 -1.11177 -2.92162 0
M  V30 4424 H 427.451 -3.41075 -1.97641 0
M  V30 4425 H 428.739 -4.14933 -2.94463 0
M  V30 4426 H 428.137 -2.00136 -5.29115 0
M  V30 4427 H 426.694 -2.66143 -5.94988 0
M  V30 4428 N 430.127 0.543554 -1.4793 0
M  V30 4429 C 431.376 1.29649 -1.54512 0
M  V30 4430 C 431.689 1.94382 -0.217973 0
M  V30 4431 O 432.895 2.71017 -0.161908 0
M  V30 4432 C 431.351 2.35175 -2.72435 0
M  V30 4433 C 430.959 1.76572 -4.11736 0
M  V30 4434 C 432.703 3.11564 -2.8832 0
M  V30 4435 C 430.61 2.79958 -5.20939 0
M  V30 4436 H 429.54 0.487541 -0.57517 0
M  V30 4437 H 432.191 0.575708 -1.74235 0
M  V30 4438 H 430.573 3.10229 -2.46118 0
M  V30 4439 H 431.747 1.07799 -4.48013 0
M  V30 4440 H 430.062 1.12722 -4.00852 0
M  V30 4441 H 432.659 3.88794 -3.67074 0
M  V30 4442 H 433.002 3.66594 -1.97268 0
M  V30 4443 H 433.535 2.43623 -3.14472 0
M  V30 4444 H 430.274 2.29766 -6.13912 0
M  V30 4445 H 429.794 3.47101 -4.89164 0
M  V30 4446 H 431.473 3.43198 -5.48474 0
M  V30 4447 N 431.605 1.3629 0.791371 0
M  V30 4448 C 432.845 1.31792 1.56238 0
M  V30 4449 C 433.209 -0.102237 1.91728 0
M  V30 4450 O 434.41 -0.271759 2.67423 0
M  V30 4451 C 432.681 2.21303 2.80642 0
M  V30 4452 S 434.24 2.34468 3.70904 0
M  V30 4453 H 431.058 0.468141 0.535131 0
M  V30 4454 H 433.66 1.71841 0.932246 0
M  V30 4455 H 432.364 3.23439 2.52617 0
M  V30 4456 H 431.895 1.82266 3.4863 0
M  V30 4457 H 433.91 1.54074 4.71673 0
M  V30 4458 N 433.083 -1.0153 1.20538 0
M  V30 4459 C 434.36 -1.72327 0.925343 0
M  V30 4460 C 434.74 -2.03383 -0.565547 0
M  V30 4461 O 434.088 -1.69934 -1.52757 0
M  V30 4462 C 434.298 -2.9902 1.79967 0
M  V30 4463 C 435.646 -3.72258 2.04228 0
M  V30 4464 O 436.67 -3.08979 1.77231 0
M  V30 4465 O 435.529 -4.86053 2.4983 0
M  V30 4466 H 432.623 -0.751099 0.346092 0
M  V30 4467 H 435.169 -1.07366 1.31417 0
M  V30 4468 H 433.941 -2.72402 2.80915 0
M  V30 4469 H 433.564 -3.71721 1.41099 0
M  V30 4470 N 434.561 -1.01147 -1.20859 0
M  V30 4471 C 435.494 -0.522108 -2.22147 0
M  V30 4472 C 436.472 0.427686 -1.56874 0
M  V30 4473 O 437.656 0.34889 -1.85243 0
M  V30 4474 C 434.783 0.240819 -3.37843 0
M  V30 4475 C 433.829 -0.657752 -4.21398 0
M  V30 4476 S 434.662 -2.12393 -4.91578 0
M  V30 4477 C 435.818 -1.37102 -6.10699 0
M  V30 4478 H 436.051 -1.38035 -2.63313 0
M  V30 4479 H 433.584 -0.819941 -1.30829 0
M  V30 4480 H 435.542 0.674908 -4.04914 0
M  V30 4481 H 434.203 1.07457 -2.95147 0
M  V30 4482 H 433.396 -0.0697456 -5.03952 0
M  V30 4483 H 432.998 -1.0294 -3.59555 0
M  V30 4484 H 435.29 -0.648315 -6.74391 0
M  V30 4485 H 436.233 -2.17252 -6.73949 0
M  V30 4486 H 436.641 -0.876154 -5.57659 0
M  V30 4487 N 436.039 1.36541 -0.78704 0
M  V30 4488 C 437.288 1.98552 -0.35494 0
M  V30 4489 C 437.601 1.63171 1.07864 0
M  V30 4490 O 438.807 2.18399 1.61289 0
M  V30 4491 C 437.263 3.55136 -0.583671 0
M  V30 4492 C 436.871 3.99444 -2.02851 0
M  V30 4493 C 438.615 4.2395 -0.215957 0
M  V30 4494 C 436.522 5.48796 -2.20403 0
M  V30 4495 H 435.452 0.742888 -0.128972 0
M  V30 4496 H 438.103 1.5587 -0.968337 0
M  V30 4497 H 436.485 3.95875 0.0994046 0
M  V30 4498 H 437.659 3.6991 -2.74779 0
M  V30 4499 H 435.974 3.43459 -2.35425 0
M  V30 4500 H 438.571 5.33709 -0.325405 0
M  V30 4501 H 438.914 4.07827 0.835646 0
M  V30 4502 H 439.447 3.88565 -0.852175 0
M  V30 4503 H 436.186 5.69864 -3.23937 0
M  V30 4504 H 435.706 5.79964 -1.52977 0
M  V30 4505 H 437.385 6.14986 -2.01002 0
M  V30 4506 N 437.518 0.538854 1.48102 0
M  V30 4507 C 438.795 -0.0568108 1.95517 0
M  V30 4508 C 439.175 -1.50408 1.48124 0
M  V30 4509 O 438.523 -2.17133 0.711727 0
M  V30 4510 C 438.733 0.0696262 3.48931 0
M  V30 4511 C 440.081 -0.0851202 4.24515 0
M  V30 4512 O 441.105 -0.0037347 3.562 0
M  V30 4513 O 439.964 -0.257025 5.45895 0
M  V30 4514 H 437.058 -0.0743695 0.823649 0
M  V30 4515 H 439.604 0.604081 1.58584 0
M  V30 4516 H 438.376 1.07744 3.76174 0
M  V30 4517 H 437.999 -0.629714 3.92582 0
M  V30 4518 N 438.996 -1.55193 0.274407 0
M  V30 4519 C 439.943 -2.225 -0.613374 0
M  V30 4520 C 440.913 -1.19823 -1.15029 0
M  V30 4521 O 442.098 -1.48362 -1.19973 0
M  V30 4522 C 439.238 -2.94927 -1.79199 0
M  V30 4523 C 438.351 -4.12322 -1.28899 0
M  V30 4524 C 437.486 -4.72394 -2.42934 0
M  V30 4525 C 436.525 -5.81984 -1.89634 0
M  V30 4526 N 435.662 -6.36123 -2.9714 0
M  V30 4527 H 440.502 -2.97982 -0.032756 0
M  V30 4528 H 438.039 -1.47099 -0.00440146 0
M  V30 4529 H 439.997 -3.35134 -2.48478 0
M  V30 4530 H 438.627 -2.2187 -2.34465 0
M  V30 4531 H 437.679 -3.7724 -0.489327 0
M  V30 4532 H 438.991 -4.91355 -0.858587 0
M  V30 4533 H 438.145 -5.15317 -3.20208 0
M  V30 4534 H 436.884 -3.92636 -2.8929 0
M  V30 4535 H 435.889 -5.38511 -1.1084 0
M  V30 4536 H 437.114 -6.6361 -1.44215 0
M  V30 4537 H 435.06 -5.59259 -3.42878 0
M  V30 4538 H 434.977 -7.10427 -2.58515 0
M  V30 4539 H 436.245 -6.83704 -3.74391 0
M  V30 4540 N 440.474 -0.00167713 -1.576 0
M  V30 4541 C 441.885 0.54091 -1.78693 0
M  V30 4542 C 442.236 1.7386 -0.909247 0
M  V30 4543 O 441.361 2.16109 -0.112176 0
M  V30 4544 C 441.956 0.98806 -3.24072 0
M  V30 4545 C 440.515 1.47594 -3.46256 0
M  V30 4546 C 439.662 0.42792 -2.73978 0
M  V30 4547 H 442.613 -0.22784 -1.57056 0
M  V30 4548 H 442.634 1.85398 -3.32277 0
M  V30 4549 H 442.146 0.116164 -3.87926 0
M  V30 4550 H 440.247 2.36868 -2.87618 0
M  V30 4551 H 440.36 1.50225 -4.54939 0
M  V30 4552 H 438.724 0.889934 -2.38647 0
M  V30 4553 H 439.507 -0.435038 -3.40532 0
M  V30 4554 N 441.952 1.55251 0.271103 0
M  V30 4555 C 442.862 1.9136 1.35714 0
M  V30 4556 C 443.878 0.811075 1.5394 0
M  V30 4557 O 445.054 1.11031 1.6803 0
M  V30 4558 C 442.119 2.1798 2.69603 0
M  V30 4559 C 441.18 3.4153 2.60107 0
M  V30 4560 C 440.413 3.66871 3.8761 0
M  V30 4561 O 440.636 2.94689 4.8838 0
M  V30 4562 O 439.57 4.60405 3.87699 0
M  V30 4563 H 443.396 2.83815 1.08088 0
M  V30 4564 H 440.981 1.41821 0.469792 0
M  V30 4565 H 442.863 2.36518 3.48765 0
M  V30 4566 H 441.538 1.28708 2.97012 0
M  V30 4567 H 440.445 3.28325 1.79314 0
M  V30 4568 H 441.778 4.31027 2.37647 0
M  V30 4569 N 443.43 -0.535701 1.48216 0
M  V30 4570 C 444.676 -1.2913 1.57153 0
M  V30 4571 C 445.031 -1.90899 0.239823 0
M  V30 4572 O 444.324 -1.76022 -0.756748 0
M  V30 4573 C 444.518 -2.4068 2.64212 0
M  V30 4574 C 444.347 -1.89844 4.07663 0
M  V30 4575 C 443.117 -1.72708 4.74869 0
M  V30 4576 C 445.315 -1.43031 4.94011 0
M  V30 4577 N 443.297 -1.16437 6.02757 0
M  V30 4578 C 444.668 -0.986691 6.12098 0
M  V30 4579 C 446.723 -1.3128 4.80281 0
M  V30 4580 C 445.426 -0.437231 7.1797 0
M  V30 4581 C 447.452 -0.777346 5.86269 0
M  V30 4582 C 446.814 -0.343774 7.03561 0
M  V30 4583 H 442.913 -0.463753 0.629648 0
M  V30 4584 H 445.497 -0.604736 1.8507 0
M  V30 4585 H 443.668 -3.06839 2.38126 0
M  V30 4586 H 445.4 -3.07706 2.62867 0
M  V30 4587 H 442.155 -1.96061 4.31111 0
M  V30 4588 H 442.579 -0.903281 6.70947 0
M  V30 4589 H 447.221 -1.63408 3.89946 0
M  V30 4590 H 444.939 -0.103621 8.08034 0
M  V30 4591 H 448.525 -0.689688 5.77698 0
M  V30 4592 H 447.405 0.0641219 7.84174 0
M  V30 4593 N 444.908 -1.36708 -0.784132 0
M  V30 4594 C 445.855 -1.31466 -1.89698 0
M  V30 4595 C 446.825 -0.18239 -1.65096 0
M  V30 4596 O 448.01 -0.369762 -1.87183 0
M  V30 4597 C 445.15 -1.1151 -3.26588 0
M  V30 4598 C 444.263 -2.33859 -3.63227 0
M  V30 4599 C 443.398 -2.06873 -4.89262 0
M  V30 4600 C 442.437 -3.25154 -5.18595 0
M  V30 4601 N 441.574 -2.978 -6.35814 0
M  V30 4602 H 446.414 -2.26619 -1.93515 0
M  V30 4603 H 443.951 -1.12625 -0.946256 0
M  V30 4604 H 445.909 -0.979653 -4.05535 0
M  V30 4605 H 444.539 -0.200103 -3.22179 0
M  V30 4606 H 443.591 -2.58188 -2.79362 0
M  V30 4607 H 444.903 -3.22109 -3.8085 0
M  V30 4608 H 444.057 -1.90289 -5.76086 0
M  V30 4609 H 442.796 -1.15942 -4.73718 0
M  V30 4610 H 441.801 -3.42292 -4.30251 0
M  V30 4611 H 443.026 -4.1692 -5.36055 0
M  V30 4612 H 440.972 -2.09485 -6.21653 0
M  V30 4613 H 440.889 -3.7959 -6.53794 0
M  V30 4614 H 442.157 -2.84805 -7.25607 0
M  V30 4615 N 446.386 1.0089 -1.21074 0
M  V30 4616 C 447.663 1.71834 -0.934469 0
M  V30 4617 C 448.043 2.0368 0.554753 0
M  V30 4618 O 447.391 1.70742 1.51854 0
M  V30 4619 C 447.601 2.98061 -1.8155 0
M  V30 4620 C 448.949 3.7117 -2.06199 0
M  V30 4621 O 449.973 3.08034 -1.78867 0
M  V30 4622 O 448.832 4.84721 -2.52404 0
M  V30 4623 H 445.926 0.749253 -0.35007 0
M  V30 4624 H 448.472 1.06668 -1.31985 0
M  V30 4625 H 447.244 2.70908 -2.82355 0
M  V30 4626 H 446.867 3.70968 -1.43068 0
M  V30 4627 N 447.864 1.01787 1.20321 0
M  V30 4628 C 449.141 0.622978 1.85414 0
M  V30 4629 C 449.521 -0.898887 1.91006 0
M  V30 4630 O 448.869 -1.79112 1.41884 0
M  V30 4631 C 449.079 1.27226 3.24984 0
M  V30 4632 C 450.427 1.3885 4.01255 0
M  V30 4633 O 451.451 1.22857 3.34342 0
M  V30 4634 O 450.31 1.64705 5.2109 0
M  V30 4635 H 447.404 0.215116 0.798533 0
M  V30 4636 H 449.95 1.11533 1.27901 0
M  V30 4637 H 448.722 2.31209 3.15687 0
M  V30 4638 H 448.345 0.767069 3.90131 0
M  V30 4639 N 449.342 -1.36122 0.79427 0
M  V30 4640 C 450.753 -1.81646 0.431446 0
M  V30 4641 C 451.104 -1.66043 -1.04518 0
M  V30 4642 O 450.229 -1.1841 -1.8113 0
M  V30 4643 C 450.824 -3.29785 0.776341 0
M  V30 4644 C 449.383 -3.73501 0.466282 0
M  V30 4645 C 448.53 -2.58313 1.00844 0
M  V30 4646 H 451.481 -1.24274 0.986995 0
M  V30 4647 H 451.502 -3.80437 0.0692413 0
M  V30 4648 H 451.014 -3.4111 1.8511 0
M  V30 4649 H 449.115 -3.67733 -0.600245 0
M  V30 4650 H 449.228 -4.68754 0.990288 0
M  V30 4651 H 447.592 -2.5102 0.431406 0
M  V30 4652 H 448.375 -2.72421 2.08906 0
M  V30 4653 N 450.82 -0.546701 -1.47814 0
M  V30 4654 C 451.783 0.196287 -2.28358 0
M  V30 4655 C 452.783 0.852437 -1.36346 0
M  V30 4656 O 453.973 0.709913 -1.59078 0
M  V30 4657 C 451.105 1.28579 -3.15722 0
M  V30 4658 H 452.298 -0.511086 -2.95513 0
M  V30 4659 H 449.851 -0.303248 -1.5333 0
M  V30 4660 H 450.586 2.0259 -2.53235 0
M  V30 4661 H 450.371 0.820229 -3.83425 0
M  V30 4662 H 451.861 1.80793 -3.76435 0
M  V30 4663 N 452.299 1.55045 -0.282633 0
M  V30 4664 C 453.529 2.03872 0.334635 0
M  V30 4665 C 453.937 1.16018 1.49454 0
M  V30 4666 O 453.28 0.174449 1.8287 0
M  V30 4667 C 453.342 3.48791 0.870905 0
M  V30 4668 C 453.006 4.56715 -0.161338 0
M  V30 4669 C 454.003 5.10513 -0.983466 0
M  V30 4670 C 451.688 5.01417 -0.297745 0
M  V30 4671 C 453.682 6.07538 -1.92811 0
M  V30 4672 C 451.369 5.98265 -1.24586 0
M  V30 4673 C 452.367 6.51208 -2.05954 0
M  V30 4674 O 452.055 7.46162 -2.99162 0
M  V30 4675 H 451.787 0.671324 0.0793742 0
M  V30 4676 H 454.341 2.01169 -0.41473 0
M  V30 4677 H 452.571 3.48758 1.67047 0
M  V30 4678 H 454.26 3.80916 1.40207 0
M  V30 4679 H 455.026 4.76785 -0.888856 0
M  V30 4680 H 450.905 4.59849 0.325604 0
M  V30 4681 H 454.449 6.48787 -2.56363 0
M  V30 4682 H 450.346 6.31412 -1.34126 0
M  V30 4683 H 451.114 7.63903 -2.93929 0
M  V30 4684 N 453.777 0.010035 1.57597 0
M  V30 4685 C 454.725 -0.996272 2.10184 0
M  V30 4686 C 455.719 -1.34942 1.02406 0
M  V30 4687 O 456.925 -1.33389 1.20861 0
M  V30 4688 H 453.3 -0.338982 0.671264 0
M  V30 4689 H 455.271 -0.527272 2.93705 0
M  V30 4690 C 454.02 -2.27599 2.62857 0
M  V30 4691 H 453.343 -2.01295 3.45428 0
M  V30 4692 H 454.783 -2.96265 3.0332 0
M  V30 4693 C 453.242 -2.99269 1.54725 0
M  V30 4694 O 453.772 -3.90644 0.93597 0
M  V30 4695 N 451.978 -2.61269 1.27228 0
M  V30 4696 H 451.525 -1.87043 1.77123 0
M  V30 4697 H 451.483 -3.09534 0.550999 0
M  V30 4698 N 455.255 -1.55392 -0.262866 0
M  V30 4699 C 456.483 -1.80513 -1.01108 0
M  V30 4700 C 456.898 -0.583533 -1.79556 0
M  V30 4701 O 456.255 0.447585 -1.76926 0
M  V30 4702 C 456.306 -3.03648 -1.96164 0
M  V30 4703 O 456.027 -4.2109 -1.20893 0
M  V30 4704 C 457.528 -3.41448 -2.82715 0
M  V30 4705 H 454.748 -0.601079 -0.298236 0
M  V30 4706 H 457.292 -2.02425 -0.290582 0
M  V30 4707 H 455.447 -2.83832 -2.63663 0
M  V30 4708 H 455.861 -4.90771 -1.85051 0
M  V30 4709 H 457.335 -4.30751 -3.45192 0
M  V30 4710 H 457.812 -2.61308 -3.53008 0
M  V30 4711 H 458.418 -3.63559 -2.20693 0
M  V30 4712 N 456.733 0.527833 -1.48498 0
M  V30 4713 C 457.98 1.28354 -1.56625 0
M  V30 4714 C 458.308 1.93 -0.241096 0
M  V30 4715 O 457.563 1.79967 0.768798 0
M  V30 4716 C 457.862 2.39275 -2.65485 0
M  V30 4717 C 457.528 1.92268 -4.07853 0
M  V30 4718 C 456.19 1.79166 -4.46602 0
M  V30 4719 C 458.542 1.56771 -4.97064 0
M  V30 4720 C 455.87 1.28905 -5.72364 0
M  V30 4721 C 458.222 1.07972 -6.23318 0
M  V30 4722 C 456.886 0.934887 -6.60921 0
M  V30 4723 H 456.156 0.469682 -0.573131 0
M  V30 4724 H 458.803 0.588781 -1.82224 0
M  V30 4725 H 457.108 3.1443 -2.33754 0
M  V30 4726 H 458.805 2.974 -2.68988 0
M  V30 4727 H 455.395 2.03417 -3.77252 0
M  V30 4728 H 459.579 1.65753 -4.67803 0
M  V30 4729 H 454.835 1.16381 -6.00221 0
M  V30 4730 H 459.009 0.795775 -6.91838 0
M  V30 4731 H 456.636 0.543231 -7.58257 0
M  V30 4732 N 458.211 1.37122 0.776871 0
M  V30 4733 C 459.121 1.34651 1.9211 0
M  V30 4734 C 460.137 0.246824 1.7224 0
M  V30 4735 O 461.313 0.48134 1.95563 0
M  V30 4736 C 458.378 1.14748 3.2716 0
M  V30 4737 C 457.439 2.34308 3.5972 0
M  V30 4738 C 456.672 2.15345 4.88326 0
M  V30 4739 O 456.895 1.13507 5.58992 0
M  V30 4740 O 455.829 3.03414 5.1983 0
M  V30 4741 H 459.655 2.31013 1.97146 0
M  V30 4742 H 457.24 1.17799 0.918901 0
M  V30 4743 H 459.122 1.05616 4.0795 0
M  V30 4744 H 457.797 0.214562 3.22988 0
M  V30 4745 H 456.704 2.49011 2.79185 0
M  V30 4746 H 458.037 3.26149 3.68629 0
M  V30 4747 N 459.689 -1.00246 1.21608 0
M  V30 4748 C 460.937 -1.73717 1.0328 0
M  V30 4749 C 461.258 -1.90102 -0.434318 0
M  V30 4750 O 460.528 -1.45376 -1.31311 0
M  V30 4751 H 459.108 -0.643613 0.379172 0
M  V30 4752 H 461.77 -1.20787 1.52959 0
M  V30 4753 H 460.866 -2.73535 1.50283 0
M  V30 4754 N 461.167 -1.02423 -1.1978 0
M  V30 4755 C 462.583 -0.740459 -1.41384 0
M  V30 4756 C 462.783 0.676827 -1.89793 0
M  V30 4757 O 461.839 1.4435 -2.0717 0
M  V30 4758 C 463.152 -1.77264 -2.42895 0
M  V30 4759 C 464.7 -1.79165 -2.56649 0
M  V30 4760 C 465.175 -2.8133 -3.6141 0
M  V30 4761 N 466.666 -2.80118 -3.68901 0
M  V30 4762 C 467.401 -3.55824 -4.49641 0
M  V30 4763 N 466.897 -4.41231 -5.34123 0
M  V30 4764 N 468.69 -3.44387 -4.44246 0
M  V30 4765 H 460.841 -1.9391 -0.866764 0
M  V30 4766 H 463.104 -0.838074 -0.443098 0
M  V30 4767 H 462.81 -2.7884 -2.14339 0
M  V30 4768 H 462.684 -1.59108 -3.42001 0
M  V30 4769 H 465.071 -0.782702 -2.84531 0
M  V30 4770 H 465.152 -2.01396 -1.57713 0
M  V30 4771 H 464.796 -3.82394 -3.34271 0
M  V30 4772 H 464.726 -2.56359 -4.59986 0
M  V30 4773 H 467.217 -2.1817 -3.08562 0
M  V30 4774 H 467.53 -4.95747 -5.92836 0
M  V30 4775 H 465.875 -4.45306 -5.33599 0
M  V30 4776 H 469.066 -2.7708 -3.77285 0
M  V30 4777 H 469.239 -4.0364 -5.06931 0
M  V30 4778 N 462.645 1.35699 -0.801477 0
M  V30 4779 C 463.891 1.99208 -0.380022 0
M  V30 4780 C 464.224 1.63445 1.04878 0
M  V30 4781 O 463.499 0.895223 1.72673 0
M  V30 4782 C 463.782 3.55755 -0.557708 0
M  V30 4783 C 463.635 4.01332 -2.03107 0
M  V30 4784 C 464.954 4.40096 0.0197968 0
M  V30 4785 H 462.073 0.723667 -0.139552 0
M  V30 4786 H 464.715 1.60928 -1.01006 0
M  V30 4787 H 462.865 3.88494 -0.0213741 0
M  V30 4788 H 464.537 3.79026 -2.62939 0
M  V30 4789 H 462.78 3.52429 -2.52936 0
M  V30 4790 H 463.451 5.10234 -2.1063 0
M  V30 4791 H 465.927 4.13786 -0.438179 0
M  V30 4792 H 464.803 5.48735 -0.134477 0
M  V30 4793 H 465.064 4.2786 1.11303 0
M  V30 4794 N 464.123 0.554532 1.47522 0
M  V30 4795 C 465.4 -0.0360704 1.95567 0
M  V30 4796 C 465.78 -1.48828 1.49711 0
M  V30 4797 O 465.128 -2.16366 0.734717 0
M  V30 4798 C 465.338 0.106631 3.48837 0
M  V30 4799 C 466.686 -0.0400899 4.24581 0
M  V30 4800 O 467.71 0.0340453 3.56184 0
M  V30 4801 O 466.569 -0.199111 5.46137 0
M  V30 4802 H 463.663 -0.0656294 0.824392 0
M  V30 4803 H 466.209 0.620867 1.57935 0
M  V30 4804 H 464.981 1.11727 3.7501 0
M  V30 4805 H 464.604 -0.58804 3.93227 0
M  V30 4806 N 465.601 -1.54893 0.290851 0
M  V30 4807 C 466.548 -2.23138 -0.58974 0
M  V30 4808 C 467.518 -1.21036 -1.13752 0
M  V30 4809 O 468.703 -1.49626 -1.18392 0
M  V30 4810 C 465.843 -2.96811 -1.76061 0
M  V30 4811 C 464.956 -4.13665 -1.24519 0
M  V30 4812 C 464.091 -4.74944 -2.3791 0
M  V30 4813 C 463.13 -5.83963 -1.83451 0
M  V30 4814 N 462.267 -6.39239 -2.90376 0
M  V30 4815 H 467.107 -2.98 -0.00114915 0
M  V30 4816 H 464.644 -1.47096 0.0112006 0
M  V30 4817 H 466.602 -3.37751 -2.44909 0
M  V30 4818 H 465.232 -2.24344 -2.32098 0
M  V30 4819 H 464.284 -3.77737 -0.449288 0
M  V30 4820 H 465.596 -4.92238 -0.806424 0
M  V30 4821 H 464.75 -5.18684 -3.14724 0
M  V30 4822 H 463.489 -3.95682 -2.85109 0
M  V30 4823 H 462.494 -5.39657 -1.05122 0
M  V30 4824 H 463.719 -6.65103 -1.37169 0
M  V30 4825 H 461.665 -5.62864 -3.36927 0
M  V30 4826 H 461.582 -7.13129 -2.50965 0
M  V30 4827 H 462.85 -6.87637 -3.67118 0
M  V30 4828 N 467.08 -0.0183926 -1.57589 0
M  V30 4829 C 468.01 0.965596 -2.12599 0
M  V30 4830 C 468.991 1.34641 -1.0395 0
M  V30 4831 O 470.176 1.42693 -1.31729 0
M  V30 4832 C 467.306 2.25149 -2.64434 0
M  V30 4833 C 466.26 2.01175 -3.77773 0
M  V30 4834 C 465.586 3.35937 -4.15994 0
M  V30 4835 C 466.886 1.35953 -5.04296 0
M  V30 4836 H 468.58 0.507504 -2.95067 0
M  V30 4837 H 466.126 0.242671 -1.41941 0
M  V30 4838 H 468.079 2.94357 -3.01549 0
M  V30 4839 H 466.803 2.73105 -1.79112 0
M  V30 4840 H 465.462 1.34388 -3.4108 0
M  V30 4841 H 465.11 3.81631 -3.27669 0
M  V30 4842 H 464.81 3.20705 -4.92364 0
M  V30 4843 H 466.334 4.0643 -4.55683 0
M  V30 4844 H 467.748 1.95144 -5.39065 0
M  V30 4845 H 466.145 1.31152 -5.85593 0
M  V30 4846 H 467.215 0.331071 -4.83768 0
M  V30 4847 N 468.558 1.5553 0.254621 0
M  V30 4848 C 469.491 1.84624 1.34124 0
M  V30 4849 C 470.469 0.700693 1.46728 0
M  V30 4850 O 471.653 0.94564 1.63064 0
M  V30 4851 C 468.78 2.02412 2.71564 0
M  V30 4852 C 467.826 3.25028 2.7615 0
M  V30 4853 S 468.659 4.81893 2.33538 0
M  V30 4854 C 469.815 5.02677 3.72917 0
M  V30 4855 H 470.048 2.76501 1.09245 0
M  V30 4856 H 467.581 1.47537 0.455211 0
M  V30 4857 H 469.539 2.13345 3.50705 0
M  V30 4858 H 468.2 1.11391 2.93685 0
M  V30 4859 H 467.393 3.34418 3.77069 0
M  V30 4860 H 466.995 3.12781 2.05046 0
M  V30 4861 H 469.287 4.89546 4.68349 0
M  V30 4862 H 470.23 6.0468 3.68467 0
M  V30 4863 H 470.638 4.30561 3.65072 0
M  V30 4864 N 470.036 -0.519951 1.48776 0
M  V30 4865 C 471.313 -1.28123 1.47797 0
M  V30 4866 C 471.693 -2.10196 0.195157 0
M  V30 4867 O 471.041 -2.13167 -0.822925 0
M  V30 4868 C 471.251 -2.15413 2.74587 0
M  V30 4869 C 472.599 -2.75225 3.23321 0
M  V30 4870 O 473.623 -2.25694 2.75574 0
M  V30 4871 O 472.482 -3.65346 4.06429 0
M  V30 4872 H 469.576 -0.578793 0.590701 0
M  V30 4873 H 472.122 -0.535779 1.6102 0
M  V30 4874 H 470.894 -1.54617 3.59457 0
M  V30 4875 H 470.517 -2.97186 2.64132 0
M  V30 4876 N 471.514 -1.37532 -0.769588 0
M  V30 4877 C 472.763 -1.32183 -1.5235 0
M  V30 4878 C 473.076 0.0906555 -1.9539 0
M  V30 4879 O 474.282 0.266628 -2.70188 0
M  V30 4880 C 472.738 -2.32029 -2.75119 0
M  V30 4881 C 472.346 -3.78816 -2.3917 0
M  V30 4882 C 474.09 -2.35694 -3.53056 0
M  V30 4883 C 471.997 -4.70388 -3.58453 0
M  V30 4884 H 470.927 -0.491275 -0.571984 0
M  V30 4885 H 473.578 -1.63004 -0.842739 0
M  V30 4886 H 471.96 -1.94229 -3.45096 0
M  V30 4887 H 473.134 -4.25466 -1.76962 0
M  V30 4888 H 471.449 -3.78117 -1.74402 0
M  V30 4889 H 474.046 -3.01312 -4.41718 0
M  V30 4890 H 474.389 -1.37117 -3.93071 0
M  V30 4891 H 474.922 -2.72212 -2.90078 0
M  V30 4892 H 471.661 -5.70102 -3.23518 0
M  V30 4893 H 471.181 -4.28442 -4.19758 0
M  V30 4894 H 472.86 -4.87628 -4.25239 0
M  V30 4895 N 472.992 0.995999 -1.22138 0
M  V30 4896 C 474.239 1.7351 -1.04406 0
M  V30 4897 C 474.567 1.89884 0.421244 0
M  V30 4898 O 473.822 1.43683 1.32867 0
M  V30 4899 C 474.121 3.14553 -1.6968 0
M  V30 4900 C 473.787 3.18102 -3.19565 0
M  V30 4901 C 472.449 3.18778 -3.60464 0
M  V30 4902 C 474.801 3.14636 -4.15516 0
M  V30 4903 C 472.129 3.13684 -4.95801 0
M  V30 4904 C 474.481 3.11084 -5.50826 0
M  V30 4905 C 473.145 3.10074 -5.91109 0
M  V30 4906 H 472.415 0.634916 -0.38205 0
M  V30 4907 H 475.062 1.1667 -1.51857 0
M  V30 4908 H 473.367 3.74682 -1.14546 0
M  V30 4909 H 475.064 3.70477 -1.53454 0
M  V30 4910 H 471.654 3.18324 -2.86998 0
M  V30 4911 H 475.838 3.13266 -3.84939 0
M  V30 4912 H 471.094 3.11245 -5.26247 0
M  V30 4913 H 475.268 3.07357 -6.24904 0
M  V30 4914 H 472.895 3.05882 -6.95946 0
M  V30 4915 N 474.47 1.03057 1.19235 0
M  V30 4916 C 475.695 0.74757 1.93458 0
M  V30 4917 C 476.12 -0.687648 1.7508 0
M  V30 4918 O 475.478 -1.47499 1.05422 0
M  V30 4919 C 475.526 1.10604 3.43219 0
M  V30 4920 O 474.63 0.225671 4.11782 0
M  V30 4921 H 473.971 0.276047 0.603899 0
M  V30 4922 H 476.501 1.3777 1.51263 0
M  V30 4923 H 476.511 1.06366 3.93891 0
M  V30 4924 H 475.186 2.15165 3.55917 0
M  V30 4925 H 473.763 0.326795 3.71465 0
M  V30 4926 N 475.948 -1.35272 0.808662 0
M  V30 4927 C 477.195 -1.98709 0.390003 0
M  V30 4928 C 477.523 -1.64148 -1.04335 0
M  V30 4929 O 476.778 -0.897797 -1.73891 0
M  V30 4930 C 477.077 -3.53556 0.522798 0
M  V30 4931 C 476.743 -4.0799 1.91977 0
M  V30 4932 C 475.405 -4.22568 2.30195 0
M  V30 4933 C 477.757 -4.37442 2.83361 0
M  V30 4934 C 475.085 -4.63918 3.59162 0
M  V30 4935 C 477.437 -4.80232 4.11776 0
M  V30 4936 C 476.101 -4.93016 4.49991 0
M  V30 4937 H 475.371 -0.727127 0.142712 0
M  V30 4938 H 478.018 -1.6145 1.02985 0
M  V30 4939 H 476.323 -3.91287 -0.200494 0
M  V30 4940 H 478.02 -4.00598 0.179608 0
M  V30 4941 H 474.61 -3.97096 1.61284 0
M  V30 4942 H 478.794 -4.25731 2.55083 0
M  V30 4943 H 474.05 -4.72005 3.88615 0
M  V30 4944 H 478.224 -5.01982 4.82687 0
M  V30 4945 H 475.851 -5.24814 5.49976 0
M  V30 4946 N 477.426 -0.562348 -1.47226 0
M  V30 4947 C 478.675 -0.038041 -2.01664 0
M  V30 4948 C 478.988 1.32199 -1.44162 0
M  V30 4949 O 480.194 1.9365 -1.90294 0
M  V30 4950 C 478.65 -0.0174958 -3.59896 0
M  V30 4951 C 478.258 -1.3746 -4.2639 0
M  V30 4952 C 480.002 0.453934 -4.22066 0
M  V30 4953 C 477.909 -1.31289 -5.76643 0
M  V30 4954 H 476.839 -0.0104511 -0.753928 0
M  V30 4955 H 479.49 -0.710966 -1.69167 0
M  V30 4956 H 477.872 0.721182 -3.89378 0
M  V30 4957 H 479.046 -2.1314 -4.08544 0
M  V30 4958 H 477.361 -1.78438 -3.7623 0
M  V30 4959 H 479.958 0.518584 -5.32179 0
M  V30 4960 H 480.301 1.46706 -3.89594 0
M  V30 4961 H 480.834 -0.230044 -3.97134 0
M  V30 4962 H 477.573 -2.30217 -6.13743 0
M  V30 4963 H 477.093 -0.597973 -5.96812 0
M  V30 4964 H 478.772 -1.01713 -6.38955 0
M  V30 4965 N 478.904 1.54736 -0.299062 0
M  V30 4966 C 479.814 2.27127 0.587413 0
M  V30 4967 C 480.83 1.30575 1.15005 0
M  V30 4968 O 482.006 1.63554 1.17525 0
M  V30 4969 C 479.071 2.99645 1.74395 0
M  V30 4970 C 478.132 4.11731 1.21559 0
M  V30 4971 C 477.365 4.80781 2.317 0
M  V30 4972 O 477.588 4.4918 3.51558 0
M  V30 4973 O 476.522 5.68226 1.98501 0
M  V30 4974 H 480.348 3.037 0.000250109 0
M  V30 4975 H 477.933 1.49256 -0.0655919 0
M  V30 4976 H 479.815 3.45138 2.4178 0
M  V30 4977 H 478.49 2.25969 2.31775 0
M  V30 4978 H 477.397 3.70641 0.507514 0
M  V30 4979 H 478.73 4.87379 0.687233 0
M  V30 4980 N 480.382 0.0267497 1.57577 0
M  V30 4981 C 481.61 -0.662661 1.96001 0
M  V30 4982 C 482.025 -1.65799 0.903117 0
M  V30 4983 O 481.382 -1.82135 -0.115317 0
M  V30 4984 C 481.433 -1.37112 3.34488 0
M  V30 4985 O 481.154 -0.415683 4.36123 0
M  V30 4986 C 482.655 -2.15257 3.8753 0
M  V30 4987 H 479.875 -0.18287 0.6456 0
M  V30 4988 H 482.419 0.0858116 2.0432 0
M  V30 4989 H 480.574 -2.07101 3.27395 0
M  V30 4990 H 480.988 -0.918496 5.16395 0
M  V30 4991 H 482.462 -2.60285 4.86781 0
M  V30 4992 H 482.939 -2.99063 3.21649 0
M  V30 4993 H 483.545 -1.50231 3.97883 0
M  V30 4994 N 481.861 -1.55662 -0.24637 0
M  V30 4995 C 482.808 -1.90361 -1.30504 0
M  V30 4996 C 483.778 -0.757905 -1.47801 0
M  V30 4997 O 484.963 -1.01161 -1.61775 0
M  V30 4998 C 482.103 -2.2042 -2.65535 0
M  V30 4999 C 481.216 -3.47799 -2.56242 0
M  V30 5000 C 480.351 -3.67426 -3.8363 0
M  V30 5001 C 479.39 -4.88403 -3.68956 0
M  V30 5002 N 478.527 -5.04548 -4.88237 0
M  V30 5003 H 483.367 -2.80645 -1.00213 0
M  V30 5004 H 480.904 -1.38924 -0.483577 0
M  V30 5005 H 482.862 -2.35853 -3.44135 0
M  V30 5006 H 481.492 -1.3334 -2.93973 0
M  V30 5007 H 480.544 -3.40694 -1.69208 0
M  V30 5008 H 481.856 -4.36544 -2.4131 0
M  V30 5009 H 481.01 -3.82821 -4.70673 0
M  V30 5010 H 479.749 -2.76914 -4.01459 0
M  V30 5011 H 478.754 -4.72984 -2.80296 0
M  V30 5012 H 479.979 -5.80375 -3.52621 0
M  V30 5013 H 477.925 -4.16974 -5.06427 0
M  V30 5014 H 477.842 -5.87384 -4.75937 0
M  V30 5015 H 479.11 -5.24355 -5.76777 0
M  V30 5016 N 483.339 0.512053 -1.4905 0
M  V30 5017 C 484.586 1.26686 -1.57978 0
M  V30 5018 C 484.914 1.92733 -0.261553 0
M  V30 5019 O 484.169 1.80772 0.749667 0
M  V30 5020 C 484.468 2.36446 -2.68008 0
M  V30 5021 C 484.134 1.87932 -4.09869 0
M  V30 5022 C 482.796 1.74419 -4.48477 0
M  V30 5023 C 485.148 1.5149 -4.98698 0
M  V30 5024 C 482.476 1.22827 -5.73699 0
M  V30 5025 C 484.828 1.01355 -6.24428 0
M  V30 5026 C 483.492 0.864735 -6.61875 0
M  V30 5027 H 482.762 0.463577 -0.578081 0
M  V30 5028 H 485.409 0.569421 -1.82838 0
M  V30 5029 H 483.714 3.11933 -2.37076 0
M  V30 5030 H 485.411 2.9453 -2.72127 0
M  V30 5031 H 482.001 1.99405 -3.79389 0
M  V30 5032 H 486.185 1.60782 -4.69535 0
M  V30 5033 H 481.441 1.10008 -6.01422 0
M  V30 5034 H 485.615 0.722351 -6.92644 0
M  V30 5035 H 483.242 0.462777 -7.5879 0
M  V30 5036 N 484.817 1.37938 0.762283 0
M  V30 5037 C 485.78 1.34279 1.85747 0
M  V30 5038 C 486.78 0.244969 1.58923 0
M  V30 5039 O 487.97 0.501365 1.66829 0
M  V30 5040 C 485.102 1.08833 3.23061 0
M  V30 5041 H 486.295 2.31705 1.90401 0
M  V30 5042 H 483.848 1.23105 0.963057 0
M  V30 5043 H 484.583 0.119767 3.24079 0
M  V30 5044 H 484.368 1.88306 3.43923 0
M  V30 5045 H 485.858 1.08946 4.03138 0
M  V30 5046 N 486.295 -0.989507 1.22664 0
M  V30 5047 C 487.572 -1.70326 0.961688 0
M  V30 5048 C 487.952 -2.04537 -0.522279 0
M  V30 5049 O 487.3 -1.73136 -1.49118 0
M  V30 5050 C 487.51 -2.95135 1.86269 0
M  V30 5051 C 488.858 -3.67842 2.12078 0
M  V30 5052 O 489.882 -3.0515 1.83745 0
M  V30 5053 O 488.741 -4.80644 2.60083 0
M  V30 5054 H 485.835 -0.743589 0.361946 0
M  V30 5055 H 488.381 -1.04555 1.33665 0
M  V30 5056 H 487.153 -2.66382 2.8663 0
M  V30 5057 H 486.776 -3.68645 1.48952 0
M  V30 5058 N 487.773 -1.03688 -1.18687 0
M  V30 5059 C 488.72 -0.624624 -2.22187 0
M  V30 5060 C 489.69 0.365636 -1.62026 0
M  V30 5061 O 490.875 0.260481 -1.89014 0
M  V30 5062 C 488.015 0.0101738 -3.45099 0
M  V30 5063 C 487.128 -1.02709 -4.19613 0
M  V30 5064 C 486.263 -0.361213 -5.2997 0
M  V30 5065 C 485.302 -1.38384 -5.96252 0
M  V30 5066 N 484.439 -0.743196 -6.98155 0
M  V30 5067 H 489.279 -1.51176 -2.56807 0
M  V30 5068 H 486.816 -0.75636 -1.26165 0
M  V30 5069 H 488.774 0.395528 -4.15321 0
M  V30 5070 H 487.404 0.860848 -3.1111 0
M  V30 5071 H 486.456 -1.53043 -3.48256 0
M  V30 5072 H 487.768 -1.80398 -4.65036 0
M  V30 5073 H 486.922 0.0785537 -6.06649 0
M  V30 5074 H 485.661 0.447799 -4.8564 0
M  V30 5075 H 484.666 -1.83378 -5.18317 0
M  V30 5076 H 485.891 -2.19448 -6.42666 0
M  V30 5077 H 483.837 0.0455789 -6.55984 0
M  V30 5078 H 483.754 -1.45784 -7.41811 0
M  V30 5079 H 485.022 -0.327698 -7.78811 0
M  V30 5080 N 489.251 1.34841 -0.815825 0
M  V30 5081 C 490.528 1.92908 -0.323416 0
M  V30 5082 C 490.908 1.74479 1.18828 0
M  V30 5083 O 490.256 1.11928 1.99209 0
M  V30 5084 C 490.466 3.40957 -0.744952 0
M  V30 5085 C 491.814 4.18107 -0.739716 0
M  V30 5086 O 492.838 3.49511 -0.68708 0
M  V30 5087 O 491.697 5.40517 -0.806456 0
M  V30 5088 H 488.791 0.822436 -0.0867646 0
M  V30 5089 H 491.337 1.4386 -0.90014 0
M  V30 5090 H 490.109 3.4814 -1.78646 0
M  V30 5091 H 489.732 3.97341 -0.143535 0
M  V30 5092 N 490.729 0.570148 1.46925 0
M  V30 5093 C 491.676 -0.170257 2.30171 0
M  V30 5094 C 492.646 -0.896099 1.39855 0
M  V30 5095 O 493.831 -0.889248 1.68811 0
M  V30 5096 C 490.971 -1.18605 3.24079 0
M  V30 5097 C 490.084 -0.464947 4.29491 0
M  V30 5098 C 489.219 -1.46716 5.10537 0
M  V30 5099 C 488.258 -0.731758 6.0771 0
M  V30 5100 N 487.395 -1.68142 6.81669 0
M  V30 5101 H 492.235 0.545713 2.92961 0
M  V30 5102 H 489.772 0.280938 1.44392 0
M  V30 5103 H 491.73 -1.78771 3.76957 0
M  V30 5104 H 490.36 -1.86989 2.63125 0
M  V30 5105 H 489.412 0.251506 3.79568 0
M  V30 5106 H 490.724 0.110548 4.98677 0
M  V30 5107 H 489.878 -2.14199 5.6763 0
M  V30 5108 H 488.617 -2.07658 4.41282 0
M  V30 5109 H 487.622 -0.0430787 5.49783 0
M  V30 5110 H 488.847 -0.127904 6.7898 0
M  V30 5111 H 486.793 -2.27918 6.15134 0
M  V30 5112 H 486.71 -1.15841 7.47072 0
M  V30 5113 H 487.978 -2.347 7.43328 0
M  V30 5114 N 492.207 -1.54576 0.307264 0
M  V30 5115 C 493.454 -2.00263 -0.300167 0
M  V30 5116 C 493.782 -1.19561 -1.53413 0
M  V30 5117 O 493.037 -0.261487 -1.93945 0
M  V30 5118 C 493.336 -3.50572 -0.695253 0
M  V30 5119 C 493.002 -4.48771 0.437679 0
M  V30 5120 C 491.664 -4.7534 0.748681 0
M  V30 5121 C 494.016 -5.0721 1.19949 0
M  V30 5122 C 491.344 -5.5761 1.8245 0
M  V30 5123 C 493.696 -5.90651 2.26527 0
M  V30 5124 C 492.36 -6.15528 2.58227 0
M  V30 5125 H 491.63 -0.732814 -0.109839 0
M  V30 5126 H 494.277 -1.86664 0.427661 0
M  V30 5127 H 492.582 -3.61814 -1.50326 0
M  V30 5128 H 494.279 -3.83352 -1.17653 0
M  V30 5129 H 490.869 -4.282 0.185187 0
M  V30 5130 H 495.053 -4.86679 0.972474 0
M  V30 5131 H 490.309 -5.75121 2.07476 0
M  V30 5132 H 494.483 -6.34957 2.86011 0
M  V30 5133 H 492.11 -6.79066 3.4172 0
M  V30 5134 N 493.685 -0.035106 -1.57561 0
M  V30 5135 C 494.595 0.960295 -2.14046 0
M  V30 5136 C 495.611 1.3529 -1.0942 0
M  V30 5137 O 496.787 1.43309 -1.41508 0
M  V30 5138 C 493.852 2.22214 -2.66124 0
M  V30 5139 C 492.913 1.8894 -3.85487 0
M  V30 5140 C 492.146 3.09109 -4.35072 0
M  V30 5141 O 492.369 4.21963 -3.83802 0
M  V30 5142 O 491.303 2.91058 -5.26848 0
M  V30 5143 H 495.129 0.509983 -2.99387 0
M  V30 5144 H 492.714 0.185853 -1.48239 0
M  V30 5145 H 494.596 2.96279 -2.99661 0
M  V30 5146 H 493.271 2.66414 -1.83862 0
M  V30 5147 H 492.178 1.12241 -3.56865 0
M  V30 5148 H 493.511 1.49551 -4.6893 0
M  V30 5149 N 495.163 1.55791 0.238111 0
M  V30 5150 C 496.409 1.78297 0.966337 0
M  V30 5151 C 496.742 0.601903 1.84637 0
M  V30 5152 O 496.017 -0.399499 1.90353 0
M  V30 5153 C 496.3 3.10758 1.81939 0
M  V30 5154 C 496.153 4.39283 0.966958 0
M  V30 5155 C 497.472 3.39519 2.80027 0
M  V30 5156 H 494.591 0.648654 0.349882 0
M  V30 5157 H 497.233 1.88525 0.236253 0
M  V30 5158 H 495.383 3.02168 2.44185 0
M  V30 5159 H 497.055 4.59873 0.362514 0
M  V30 5160 H 495.298 4.32948 0.271669 0
M  V30 5161 H 495.969 5.28368 1.59784 0
M  V30 5162 H 498.445 3.48128 2.27917 0
M  V30 5163 H 497.321 4.33402 3.36829 0
M  V30 5164 H 497.582 2.60864 3.56934 0
M  V30 5165 N 496.642 -0.504142 1.49319 0
M  V30 5166 C 497.87 -1.28256 1.62351 0
M  V30 5167 C 498.285 -1.86502 0.293682 0
M  V30 5168 O 497.642 -1.67678 -0.720449 0
M  V30 5169 C 497.693 -2.41507 2.68992 0
M  V30 5170 O 497.414 -1.85656 3.96817 0
M  V30 5171 C 498.915 -3.32929 2.927 0
M  V30 5172 H 496.135 -0.389115 0.546654 0
M  V30 5173 H 498.679 -0.605531 1.95329 0
M  V30 5174 H 496.834 -3.05046 2.38801 0
M  V30 5175 H 497.248 -2.59981 4.55533 0
M  V30 5176 H 498.722 -4.0868 3.71058 0
M  V30 5177 H 499.199 -3.89733 2.02496 0
M  V30 5178 H 499.805 -2.75158 3.24296 0
M  V30 5179 N 498.12 -1.38341 -0.754957 0
M  V30 5180 C 499.03 -1.3769 -1.89944 0
M  V30 5181 C 500.046 -0.274194 -1.71826 0
M  V30 5182 O 501.222 -0.512391 -1.94773 0
M  V30 5183 C 498.287 -1.19938 -3.25293 0
M  V30 5184 C 497.348 -2.40001 -3.55946 0
M  V30 5185 C 496.581 -2.23087 -4.84838 0
M  V30 5186 O 496.804 -1.22386 -5.57116 0
M  V30 5187 O 495.738 -3.11646 -5.14937 0
M  V30 5188 H 499.564 -2.3412 -1.93446 0
M  V30 5189 H 497.149 -1.19246 -0.900044 0
M  V30 5190 H 499.031 -1.12093 -4.06218 0
M  V30 5191 H 497.706 -0.265919 -3.22606 0
M  V30 5192 H 496.613 -2.53421 -2.75188 0
M  V30 5193 H 497.946 -3.31973 -3.63394 0
M  V30 5194 N 499.598 0.982988 -1.23187 0
M  V30 5195 C 500.844 1.7273 -1.07405 0
M  V30 5196 C 501.199 1.885 0.385447 0
M  V30 5197 O 500.492 1.4243 1.28157 0
M  V30 5198 C 500.686 3.12736 -1.73006 0
M  V30 5199 C 500.515 3.10621 -3.25184 0
M  V30 5200 C 499.285 3.15957 -3.94334 0
M  V30 5201 C 501.483 2.93992 -4.21987 0
M  V30 5202 N 499.465 3.03701 -5.33516 0
M  V30 5203 C 500.836 2.8987 -5.48065 0
M  V30 5204 C 502.891 2.78457 -4.12754 0
M  V30 5205 C 501.594 2.71804 -6.65969 0
M  V30 5206 C 503.62 2.61754 -5.30319 0
M  V30 5207 C 502.982 2.58328 -6.55321 0
M  V30 5208 H 499.081 0.641279 -0.447533 0
M  V30 5209 H 501.665 1.16664 -1.55877 0
M  V30 5210 H 499.836 3.67026 -1.2707 0
M  V30 5211 H 501.568 3.75786 -1.50224 0
M  V30 5212 H 498.323 3.24034 -3.45397 0
M  V30 5213 H 498.747 3.00855 -6.06478 0
M  V30 5214 H 503.389 2.79898 -3.16886 0
M  V30 5215 H 501.107 2.69108 -7.61975 0
M  V30 5216 H 504.693 2.50702 -5.25014 0
M  V30 5217 H 503.573 2.45564 -7.4476 0
M  V30 5218 N 501.076 1.04316 1.18135 0
M  V30 5219 C 502.039 0.640794 2.2006 0
M  V30 5220 C 503.039 -0.303124 1.57917 0
M  V30 5221 O 504.229 -0.0881855 1.73977 0
M  V30 5222 C 501.361 -0.060148 3.40847 0
M  V30 5223 H 502.554 1.54281 2.57172 0
M  V30 5224 H 500.107 0.836004 1.32063 0
M  V30 5225 H 500.842 -0.975845 3.0927 0
M  V30 5226 H 500.627 0.618319 3.87194 0
M  V30 5227 H 502.117 -0.328082 4.16309 0
M  V30 5228 N 502.554 -1.34406 0.822964 0
M  V30 5229 C 503.517 -2.2783 0.250271 0
M  V30 5230 C 504.517 -1.50288 -0.571854 0
M  V30 5231 O 505.707 -1.69825 -0.387952 0
M  V30 5232 C 502.839 -3.34663 -0.649137 0
M  V30 5233 H 504.032 -2.79992 1.07444 0
M  V30 5234 H 501.585 -1.44539 0.594829 0
M  V30 5235 H 502.32 -2.87714 -1.49637 0
M  V30 5236 H 502.105 -3.92052 -0.0611199 0
M  V30 5237 H 503.595 -4.04349 -1.04363 0
M  V30 5238 N 504.032 -0.577932 -1.46621 0
M  V30 5239 C 504.964 0.195801 -2.28362 0
M  V30 5240 C 505.977 0.859983 -1.38232 0
M  V30 5241 O 507.166 0.730349 -1.62875 0
M  V30 5242 C 504.266 1.29639 -3.13124 0
M  V30 5243 C 503.439 0.725049 -4.31349 0
M  V30 5244 C 502.498 1.71274 -4.97546 0
M  V30 5245 O 501.524 1.25067 -5.5529 0
M  V30 5246 N 502.726 3.04672 -4.94121 0
M  V30 5247 H 505.491 -0.505468 -2.95407 0
M  V30 5248 H 503.052 -0.415381 -1.56481 0
M  V30 5249 H 505.044 1.95631 -3.54275 0
M  V30 5250 H 503.614 1.90059 -2.48186 0
M  V30 5251 H 502.834 -0.112205 -3.9404 0
M  V30 5252 H 504.122 0.323034 -5.07774 0
M  V30 5253 H 503.52 3.4484 -4.48444 0
M  V30 5254 H 502.077 3.66166 -5.39227 0
M  V30 5255 N 505.51 1.54411 -0.315457 0
M  V30 5256 C 506.74 2.04536 0.291315 0
M  V30 5257 C 507.148 1.19162 1.4696 0
M  V30 5258 O 506.491 0.213199 1.82459 0
M  V30 5259 C 506.553 3.5056 0.796725 0
M  V30 5260 C 506.217 4.5627 -0.258178 0
M  V30 5261 C 507.214 5.08312 -1.09153 0
M  V30 5262 C 504.899 5.00672 -0.404036 0
M  V30 5263 C 506.893 6.03312 -2.05655 0
M  V30 5264 C 504.58 5.95488 -1.37248 0
M  V30 5265 C 505.578 6.46693 -2.19721 0
M  V30 5266 O 505.266 7.39648 -3.14921 0
M  V30 5267 H 504.998 0.672856 0.0651165 0
M  V30 5268 H 507.552 2.00244 -0.457308 0
M  V30 5269 H 505.782 3.52223 1.59612 0
M  V30 5270 H 507.471 3.83804 1.32096 0
M  V30 5271 H 508.237 4.74793 -0.98979 0
M  V30 5272 H 504.116 4.60436 0.22799 0
M  V30 5273 H 507.66 6.43203 -2.70067 0
M  V30 5274 H 503.557 6.28424 -1.47489 0
M  V30 5275 H 504.325 7.57496 -3.10067 0
M  V30 5276 N 506.988 0.0434614 1.5754 0
M  V30 5277 C 508.236 -0.630786 1.92004 0
M  V30 5278 C 508.557 -1.71836 0.921807 0
M  V30 5279 O 507.827 -1.9587 -0.034522 0
M  V30 5280 H 506.407 -0.235988 0.708745 0
M  V30 5281 H 509.069 0.0946462 1.9467 0
M  V30 5282 H 508.165 -1.07434 2.93026 0
M  V30 5283 N 508.466 -1.55915 -0.229846 0
M  V30 5284 C 509.715 -1.77742 -0.953455 0
M  V30 5285 C 510.028 -0.610524 -1.85828 0
M  V30 5286 O 511.234 -0.712219 -2.61992 0
M  V30 5287 C 509.69 -3.14738 -1.74551 0
M  V30 5288 C 509.298 -4.39126 -0.887242 0
M  V30 5289 C 511.042 -3.45895 -2.46084 0
M  V30 5290 C 508.949 -5.67149 -1.67617 0
M  V30 5291 H 507.879 -0.662648 -0.359741 0
M  V30 5292 H 510.53 -1.82322 -0.207576 0
M  V30 5293 H 508.912 -3.04311 -2.53399 0
M  V30 5294 H 510.086 -4.60588 -0.139892 0
M  V30 5295 H 508.401 -4.15427 -0.284443 0
M  V30 5296 H 510.998 -4.38767 -3.05594 0
M  V30 5297 H 511.341 -2.68007 -3.18556 0
M  V30 5298 H 511.874 -3.57614 -1.74233 0
M  V30 5299 H 508.613 -6.47906 -0.994881 0
M  V30 5300 H 508.133 -5.49763 -2.39836 0
M  V30 5301 H 509.812 -6.07025 -2.23898 0
M  V30 5302 N 509.944 0.496216 -1.49584 0
M  V30 5303 C 511.355 1.07765 -1.52459 0
M  V30 5304 C 511.706 1.93679 -0.31353 0
M  V30 5305 O 510.831 2.08588 0.576186 0
M  V30 5306 C 511.426 1.96111 -2.76271 0
M  V30 5307 C 509.985 2.49409 -2.81908 0
M  V30 5308 C 509.132 1.27142 -2.46435 0
M  V30 5309 H 512.083 0.279914 -1.56212 0
M  V30 5310 H 512.104 2.80862 -2.56704 0
M  V30 5311 H 511.616 1.33555 -3.64396 0
M  V30 5312 H 509.717 3.1559 -1.98074 0
M  V30 5313 H 509.83 2.86234 -3.84196 0
M  V30 5314 H 508.194 1.59818 -1.98319 0
M  V30 5315 H 508.977 0.662866 -3.3684 0
M  V30 5316 N 511.423 1.38739 0.74761 0
M  V30 5317 C 512.663 1.36695 1.51966 0
M  V30 5318 C 513.027 -0.0411889 1.91956 0
M  V30 5319 O 514.228 -0.186543 2.68152 0
M  V30 5320 C 512.499 2.30119 2.73459 0
M  V30 5321 S 514.058 2.4615 3.63257 0
M  V30 5322 H 510.876 0.484929 0.519966 0
M  V30 5323 H 513.478 1.7472 0.877104 0
M  V30 5324 H 512.182 3.31312 2.422 0
M  V30 5325 H 511.713 1.93265 3.42655 0
M  V30 5326 H 513.728 1.69001 4.66533 0
M  V30 5327 N 512.901 -0.976442 1.23707 0
M  V30 5328 C 514.149 -1.71487 1.06942 0
M  V30 5329 C 514.47 -1.9098 -0.393897 0
M  V30 5330 O 513.74 -1.48128 -1.28198 0
M  V30 5331 H 512.32 -0.635425 0.392739 0
M  V30 5332 H 514.982 -1.17515 1.55487 0
M  V30 5333 H 514.078 -2.70286 1.56051 0
M  V30 5334 N 514.379 -1.04941 -1.1758 0
M  V30 5335 C 515.79 -0.784501 -1.69418 0
M  V30 5336 C 516.141 0.693625 -1.8353 0
M  V30 5337 O 515.266 1.53925 -1.52106 0
M  V30 5338 C 515.861 -1.41746 -3.07723 0
M  V30 5339 C 514.42 -1.20066 -3.56737 0
M  V30 5340 C 513.567 -1.5026 -2.33061 0
M  V30 5341 H 516.518 -1.21469 -1.02133 0
M  V30 5342 H 516.539 -0.825381 -3.7144 0
M  V30 5343 H 516.051 -2.49325 -2.9742 0
M  V30 5344 H 514.152 -0.144006 -3.72322 0
M  V30 5345 H 514.265 -1.90384 -4.39648 0
M  V30 5346 H 512.629 -0.922598 -2.37403 0
M  V30 5347 H 513.412 -2.58967 -2.25368 0
M  V30 5348 N 515.857 1.33968 -0.830081 0
M  V30 5349 C 517.103 1.98357 -0.422191 0
M  V30 5350 C 517.436 1.65633 1.01387 0
M  V30 5351 O 516.711 0.931648 1.70735 0
M  V30 5352 C 516.994 3.54492 -0.633043 0
M  V30 5353 C 516.847 3.96934 -2.11574 0
M  V30 5354 C 518.166 4.40039 -0.0735584 0
M  V30 5355 H 515.285 0.720544 -0.154871 0
M  V30 5356 H 517.927 1.58749 -1.04397 0
M  V30 5357 H 516.077 3.88361 -0.103775 0
M  V30 5358 H 517.749 3.73363 -2.7092 0
M  V30 5359 H 515.992 3.46984 -2.60354 0
M  V30 5360 H 516.663 5.05651 -2.21406 0
M  V30 5361 H 519.139 4.12764 -0.52585 0
M  V30 5362 H 518.015 5.48327 -0.250841 0
M  V30 5363 H 518.276 4.30124 1.02202 0
M  V30 5364 N 517.335 0.585699 1.46312 0
M  V30 5365 C 518.268 -0.194257 2.27372 0
M  V30 5366 C 519.246 -0.894116 1.3581 0
M  V30 5367 O 520.43 -0.907402 1.65222 0
M  V30 5368 C 517.557 -1.27901 3.13622 0
M  V30 5369 C 516.603 -0.684666 4.20969 0
M  V30 5370 S 517.436 0.490745 5.33247 0
M  V30 5371 C 518.592 -0.595137 6.23064 0
M  V30 5372 H 518.825 0.493515 2.93175 0
M  V30 5373 H 516.358 0.372666 1.49835 0
M  V30 5374 H 518.316 -1.90008 3.63878 0
M  V30 5375 H 516.977 -1.93875 2.47126 0
M  V30 5376 H 516.17 -1.50015 4.81156 0
M  V30 5377 H 515.772 -0.139204 3.73741 0
M  V30 5378 H 518.064 -1.48002 6.61137 0
M  V30 5379 H 519.007 -0.0299446 7.08094 0
M  V30 5380 H 519.415 -0.900627 5.57269 0
M  V30 5381 N 518.813 -1.54241 0.323641 0
M  V30 5382 C 520.038 -2.05452 -0.283605 0
M  V30 5383 C 520.463 -1.19823 -1.44997 0
M  V30 5384 O 519.821 -0.207358 -1.8011 0
M  V30 5385 C 519.869 -3.53823 -0.695795 0
M  V30 5386 O 518.973 -3.71134 -1.79815 0
M  V30 5387 H 518.314 -0.662024 -0.0511917 0
M  V30 5388 H 520.844 -1.99079 0.472073 0
M  V30 5389 H 520.854 -3.96094 -0.978434 0
M  V30 5390 H 519.529 -4.15602 0.157287 0
M  V30 5391 H 518.106 -3.40768 -1.51431 0
M  V30 5392 N 520.291 -0.0518155 -1.57515 0
M  V30 5393 C 521.224 0.957758 -2.07129 0
M  V30 5394 C 522.202 1.30355 -0.971927 0
M  V30 5395 O 523.386 1.41631 -1.2439 0
M  V30 5396 C 520.513 2.27157 -2.51232 0
M  V30 5397 C 519.559 2.07879 -3.72409 0
M  V30 5398 S 520.392 1.35656 -5.18033 0
M  V30 5399 C 521.548 2.68359 -5.65451 0
M  V30 5400 H 521.781 0.53552 -2.92437 0
M  V30 5401 H 519.314 0.160465 -1.53564 0
M  V30 5402 H 521.272 3.02676 -2.77304 0
M  V30 5403 H 519.933 2.66509 -1.66228 0
M  V30 5404 H 519.126 3.05061 -4.01191 0
M  V30 5405 H 518.728 1.40499 -3.46606 0
M  V30 5406 H 521.02 3.64526 -5.71076 0
M  V30 5407 H 521.963 2.44213 -6.64654 0
M  V30 5408 H 522.371 2.74647 -4.93183 0
M  V30 5409 N 521.769 1.56035 0.221574 0
M  V30 5410 C 522.716 1.92413 1.27459 0
M  V30 5411 C 523.686 0.781323 1.46576 0
M  V30 5412 O 524.871 1.03721 1.60145 0
M  V30 5413 C 522.011 2.24617 2.61995 0
M  V30 5414 C 521.124 3.51831 2.50677 0
M  V30 5415 C 520.259 3.73482 3.77736 0
M  V30 5416 C 519.298 4.94211 3.6114 0
M  V30 5417 N 518.435 5.12252 4.80148 0
M  V30 5418 H 523.275 2.82203 0.957355 0
M  V30 5419 H 520.812 1.39676 0.461415 0
M  V30 5420 H 522.77 2.41298 3.40339 0
M  V30 5421 H 521.4 1.38 2.91815 0
M  V30 5422 H 520.452 3.43343 1.63767 0
M  V30 5423 H 521.764 4.40328 2.34334 0
M  V30 5424 H 520.918 3.9026 4.64523 0
M  V30 5425 H 519.657 2.83266 3.97003 0
M  V30 5426 H 518.662 4.77384 2.72736 0
M  V30 5427 H 519.887 5.85912 3.43343 0
M  V30 5428 H 517.833 4.24978 4.99729 0
M  V30 5429 H 517.75 5.94881 4.66532 0
M  V30 5430 H 519.018 5.33465 5.68362 0
M  V30 5431 N 523.247 -0.488276 1.49845 0
M  V30 5432 C 524.157 -1.61451 1.70207 0
M  V30 5433 C 525.173 -1.63877 0.584846 0
M  V30 5434 O 526.349 -1.82063 0.861107 0
M  V30 5435 C 523.414 -2.9776 1.77594 0
M  V30 5436 C 522.475 -3.05861 3.01243 0
M  V30 5437 C 521.708 -4.35668 3.08268 0
M  V30 5438 O 521.931 -5.25197 2.22541 0
M  V30 5439 O 520.865 -4.49005 4.00847 0
M  V30 5440 H 524.691 -1.47199 2.65643 0
M  V30 5441 H 522.276 -0.665939 1.33737 0
M  V30 5442 H 524.158 -3.7875 1.84732 0
M  V30 5443 H 522.833 -3.12248 0.8534 0
M  V30 5444 H 521.74 -2.24012 2.99616 0
M  V30 5445 H 523.073 -2.96304 3.9302 0
M  V30 5446 N 524.725 -1.39134 -0.740242 0
M  V30 5447 C 525.655 -1.40165 -1.86751 0
M  V30 5448 C 526.636 -0.265708 -1.68012 0
M  V30 5449 O 527.821 -0.47076 -1.88408 0
M  V30 5450 C 524.951 -1.2392 -3.2444 0
M  V30 5451 C 523.905 -2.34858 -3.57807 0
M  V30 5452 C 523.231 -2.03707 -4.94376 0
M  V30 5453 C 524.531 -3.77159 -3.61315 0
M  V30 5454 H 526.225 -2.345 -1.86145 0
M  V30 5455 H 523.771 -1.12875 -0.89416 0
M  V30 5456 H 525.724 -1.23263 -4.02969 0
M  V30 5457 H 524.448 -0.26051 -3.25559 0
M  V30 5458 H 523.107 -2.34723 -2.81604 0
M  V30 5459 H 522.755 -1.04289 -4.9207 0
M  V30 5460 H 522.455 -2.78016 -5.17669 0
M  V30 5461 H 523.979 -2.04691 -5.75268 0
M  V30 5462 H 525.393 -3.79252 -4.29931 0
M  V30 5463 H 523.79 -4.50784 -3.96124 0
M  V30 5464 H 524.86 -4.08513 -2.61238 0
M  V30 5465 N 526.204 0.969867 -1.24223 0
M  V30 5466 C 527.167 2.04564 -1.03373 0
M  V30 5467 C 528.167 1.60798 0.00819206 0
M  V30 5468 O 529.357 1.72641 -0.232567 0
M  V30 5469 C 526.489 3.36163 -0.566343 0
M  V30 5470 H 527.682 2.24494 -1.98853 0
M  V30 5471 H 525.235 1.1448 -1.06415 0
M  V30 5472 H 525.97 3.21925 0.391751 0
M  V30 5473 H 525.755 3.69273 -1.31834 0
M  V30 5474 H 527.245 4.1526 -0.441435 0
M  V30 5475 N 527.682 1.05563 1.17022 0
M  V30 5476 C 528.632 0.630007 2.19123 0
M  V30 5477 C 529.616 -0.335472 1.57364 0
M  V30 5478 O 530.808 -0.1521 1.76345 0
M  V30 5479 C 527.937 0.0101676 3.43298 0
M  V30 5480 C 527.023 0.999698 4.12149 0
M  V30 5481 N 527.414 2.17251 4.56766 0
M  V30 5482 C 525.712 0.829 4.38228 0
M  V30 5483 C 526.413 2.79883 5.09942 0
M  V30 5484 N 525.389 2.07656 5.02374 0
M  V30 5485 H 529.191 1.52353 2.51328 0
M  V30 5486 H 526.705 0.926288 1.33393 0
M  V30 5487 H 528.702 -0.312541 4.15727 0
M  V30 5488 H 527.362 -0.878707 3.12584 0
M  V30 5489 H 528.373 2.55067 4.50734 0
M  V30 5490 H 525.05 -0.00850974 4.17499 0
M  V30 5491 H 526.44 3.79362 5.54558 0
M  V30 5492 N 529.16 -1.33526 0.837174 0
M  V30 5493 C 530.437 -1.92369 0.354065 0
M  V30 5494 C 530.817 -1.76348 -1.16038 0
M  V30 5495 O 530.165 -1.15083 -1.97403 0
M  V30 5496 C 530.375 -3.39728 0.799101 0
M  V30 5497 C 531.723 -4.16877 0.806139 0
M  V30 5498 O 532.747 -3.48373 0.742597 0
M  V30 5499 O 531.606 -5.39166 0.892345 0
M  V30 5500 H 528.7 -0.820952 0.0998378 0
M  V30 5501 H 531.246 -1.42409 0.922913 0
M  V30 5502 H 530.018 -3.45254 1.84162 0
M  V30 5503 H 529.641 -3.97062 0.206731 0
M  V30 5504 N 530.638 -0.59345 -1.46 0
M  V30 5505 C 532.049 -0.169801 -1.85926 0
M  V30 5506 C 532.4 1.26984 -1.49565 0
M  V30 5507 O 531.525 1.96076 -0.915602 0
M  V30 5508 C 532.12 -0.301385 -3.37457 0
M  V30 5509 C 530.679 0.0674684 -3.7634 0
M  V30 5510 C 529.826 -0.632383 -2.69993 0
M  V30 5511 H 532.777 -0.801014 -1.37002 0
M  V30 5512 H 532.798 0.470331 -3.77582 0
M  V30 5513 H 532.31 -1.34927 -3.63891 0
M  V30 5514 H 530.411 1.11507 -3.55523 0
M  V30 5515 H 530.524 -0.316332 -4.78055 0
M  V30 5516 H 528.888 -0.0714961 -2.546 0
M  V30 5517 H 529.671 -1.68212 -2.99265 0
M  V30 5518 N 532.116 1.54067 -0.331816 0
M  V30 5519 C 533.341 2.05599 0.272705 0
M  V30 5520 C 533.766 1.2059 1.44359 0
M  V30 5521 O 533.124 0.216907 1.79998 0
M  V30 5522 C 533.172 3.54188 0.677021 0
M  V30 5523 O 532.276 3.72082 1.77844 0
M  V30 5524 H 531.617 0.662286 0.0476801 0
M  V30 5525 H 534.147 1.98826 -0.482624 0
M  V30 5526 H 534.157 3.96608 0.957415 0
M  V30 5527 H 532.832 4.15513 -0.179325 0
M  V30 5528 H 531.409 3.41566 1.49622 0
M  V30 5529 N 533.594 0.0601682 1.57485 0
M  V30 5530 C 534.524 -0.90889 2.15085 0
M  V30 5531 C 535.505 -1.31838 1.07484 0
M  V30 5532 O 536.69 -1.3915 1.35466 0
M  V30 5533 C 533.82 -2.18059 2.7031 0
M  V30 5534 C 532.774 -1.91088 3.82974 0
M  V30 5535 C 532.1 -3.24789 4.24754 0
M  V30 5536 C 533.4 -1.22535 5.07723 0
M  V30 5537 H 535.094 -0.429093 2.96309 0
M  V30 5538 H 532.64 -0.204952 1.42534 0
M  V30 5539 H 534.593 -2.86258 3.09248 0
M  V30 5540 H 533.317 -2.6826 1.8629 0
M  V30 5541 H 531.976 -1.25297 3.44523 0
M  V30 5542 H 531.624 -3.72809 3.37672 0
M  V30 5543 H 531.324 -3.07538 5.00694 0
M  V30 5544 H 532.848 -3.94205 4.66299 0
M  V30 5545 H 534.262 -1.80783 5.4405 0
M  V30 5546 H 532.659 -1.1558 5.88864 0
M  V30 5547 H 533.729 -0.202692 4.84476 0
M  V30 5548 N 535.072 -1.5615 -0.213296 0
M  V30 5549 C 536.004 -1.89586 -1.28802 0
M  V30 5550 C 537.017 -0.784844 -1.42633 0
M  V30 5551 O 538.206 -1.06319 -1.43383 0
M  V30 5552 C 535.306 -2.09665 -2.66259 0
M  V30 5553 C 534.479 -3.40726 -2.7427 0
M  V30 5554 C 533.538 -3.50137 -3.92798 0
M  V30 5555 O 532.564 -4.23105 -3.8075 0
M  V30 5556 N 533.766 -2.81886 -5.07465 0
M  V30 5557 H 536.531 -2.82368 -1.00442 0
M  V30 5558 H 534.092 -1.56796 -0.403302 0
M  V30 5559 H 536.084 -2.13268 -3.43946 0
M  V30 5560 H 534.654 -1.23469 -2.87183 0
M  V30 5561 H 533.874 -3.4915 -1.82997 0
M  V30 5562 H 535.162 -4.27048 -2.76599 0
M  V30 5563 H 534.56 -2.22397 -5.2015 0
M  V30 5564 H 533.117 -2.91139 -5.83165 0
M  V30 5565 N 536.55 0.480323 -1.50102 0
M  V30 5566 C 537.497 1.57946 -1.6829 0
M  V30 5567 C 538.467 1.57611 -0.524223 0
M  V30 5568 O 539.652 1.75282 -0.753709 0
M  V30 5569 C 536.792 2.95978 -1.77457 0
M  V30 5570 C 535.905 3.06173 -3.04766 0
M  V30 5571 C 535.04 4.35063 -3.04784 0
M  V30 5572 C 534.079 4.38966 -4.26586 0
M  V30 5573 N 533.216 5.59314 -4.24396 0
M  V30 5574 H 538.056 1.41743 -2.62131 0
M  V30 5575 H 535.593 0.689304 -1.2995 0
M  V30 5576 H 537.551 3.76011 -1.80752 0
M  V30 5577 H 536.181 3.10837 -0.870637 0
M  V30 5578 H 535.233 2.19071 -3.10986 0
M  V30 5579 H 536.545 3.04916 -3.9475 0
M  V30 5580 H 535.699 5.23436 -3.06757 0
M  V30 5581 H 534.438 4.38915 -2.12614 0
M  V30 5582 H 533.443 3.48992 -4.24835 0
M  V30 5583 H 534.668 4.36813 -5.19972 0
M  V30 5584 H 532.614 5.63969 -3.35074 0
M  V30 5585 H 532.531 5.5976 -5.08138 0
M  V30 5586 H 533.799 6.49837 -4.30502 0
M  V30 5587 N 538.028 1.39524 0.732853 0
M  V30 5588 C 539.274 1.37068 1.49467 0
M  V30 5589 C 539.607 -0.0327166 1.94172 0
M  V30 5590 O 538.882 -0.998071 1.66939 0
M  V30 5591 C 539.165 2.34494 2.73285 0
M  V30 5592 C 539.018 3.83784 2.34585 0
M  V30 5593 C 540.337 2.29717 3.75391 0
M  V30 5594 H 537.456 0.499206 0.542183 0
M  V30 5595 H 540.098 1.70532 0.837783 0
M  V30 5596 H 538.248 2.06087 3.29333 0
M  V30 5597 H 539.92 4.22949 1.84151 0
M  V30 5598 H 538.163 4.00455 1.66787 0
M  V30 5599 H 538.834 4.47444 3.23262 0
M  V30 5600 H 541.31 2.54839 3.28932 0
M  V30 5601 H 540.186 2.99962 4.59689 0
M  V30 5602 H 540.447 1.30291 4.22465 0
M  V30 5603 N 539.506 -0.963266 1.24736 0
M  V30 5604 C 540.754 -1.70343 1.08755 0
M  V30 5605 C 541.075 -1.91387 -0.373619 0
M  V30 5606 O 540.345 -1.4948 -1.2662 0
M  V30 5607 H 538.925 -0.631224 0.399456 0
M  V30 5608 H 541.587 -1.15859 1.56725 0
M  V30 5609 H 540.683 -2.68616 1.58909 0
M  V30 5610 N 540.985 -1.06182 -1.16461 0
M  V30 5611 C 542.213 -0.798583 -1.90867 0
M  V30 5612 C 542.628 0.646921 -1.77371 0
M  V30 5613 O 541.985 1.44279 -1.11758 0
M  V30 5614 C 542.036 -1.18258 -3.4161 0
M  V30 5615 O 541.757 -2.57135 -3.54701 0
M  V30 5616 C 543.258 -0.946917 -4.33069 0
M  V30 5617 H 540.478 -0.289603 -0.605286 0
M  V30 5618 H 543.022 -1.41515 -1.47627 0
M  V30 5619 H 541.177 -0.610562 -3.82558 0
M  V30 5620 H 541.591 -2.72477 -4.4817 0
M  V30 5621 H 543.065 -1.26523 -5.37304 0
M  V30 5622 H 543.542 0.117406 -4.39043 0
M  V30 5623 H 544.148 -1.50326 -3.97847 0
M  V30 5624 N 542.463 1.3308 -0.844243 0
M  V30 5625 C 543.709 1.97898 -0.443206 0
M  V30 5626 C 544.042 1.66699 0.99625 0
M  V30 5627 O 543.317 0.949704 1.69738 0
M  V30 5628 C 543.6 3.53801 -0.670606 0
M  V30 5629 C 543.453 3.94667 -2.15772 0
M  V30 5630 C 544.772 4.39936 -0.120226 0
M  V30 5631 H 541.891 0.718861 -0.162504 0
M  V30 5632 H 544.533 1.57633 -1.06075 0
M  V30 5633 H 542.683 3.88229 -0.14496 0
M  V30 5634 H 544.355 3.70469 -2.74865 0
M  V30 5635 H 542.598 3.44203 -2.6402 0
M  V30 5636 H 543.269 5.03275 -2.26757 0
M  V30 5637 H 545.745 4.12183 -0.5696 0
M  V30 5638 H 544.621 5.4803 -0.308984 0
M  V30 5639 H 544.882 4.31184 0.976347 0
M  V30 5640 N 543.941 0.601185 1.45683 0
M  V30 5641 C 545.187 0.0940202 2.02582 0
M  V30 5642 C 545.52 -1.26972 1.46941 0
M  V30 5643 O 544.795 -1.83613 0.641612 0
M  V30 5644 C 545.078 0.0481715 3.60068 0
M  V30 5645 C 544.931 1.44212 4.26055 0
M  V30 5646 C 546.25 -0.642975 4.35378 0
M  V30 5647 H 543.369 0.0356404 0.736138 0
M  V30 5648 H 546.011 0.771929 1.73612 0
M  V30 5649 H 544.161 -0.529128 3.8488 0
M  V30 5650 H 545.833 2.06601 4.12449 0
M  V30 5651 H 544.076 2.00465 3.84703 0
M  V30 5652 H 544.747 1.36234 5.34925 0
M  V30 5653 H 547.223 -0.152351 4.15821 0
M  V30 5654 H 546.099 -0.644141 5.45107 0
M  V30 5655 H 546.36 -1.70785 4.0778 0
M  V30 5656 N 545.419 -1.53889 0.339982 0
M  V30 5657 C 546.329 -2.28604 -0.526988 0
M  V30 5658 C 547.345 -1.33578 -1.11503 0
M  V30 5659 O 548.521 -1.66612 -1.13148 0
M  V30 5660 C 545.586 -3.04164 -1.66389 0
M  V30 5661 C 544.647 -4.14809 -1.10599 0
M  V30 5662 C 543.88 -4.86756 -2.18871 0
M  V30 5663 O 544.103 -4.58343 -3.39526 0
M  V30 5664 O 543.037 -5.73289 -1.83366 0
M  V30 5665 H 546.863 -3.03594 0.0802707 0
M  V30 5666 H 544.448 -1.4903 0.105141 0
M  V30 5667 H 546.33 -3.51427 -2.32544 0
M  V30 5668 H 545.005 -2.32035 -2.25703 0
M  V30 5669 H 543.912 -3.71857 -0.409067 0
M  V30 5670 H 545.245 -4.89029 -0.557771 0
M  V30 5671 N 546.897 -0.0685191 -1.57451 0
M  V30 5672 C 548.143 0.602239 -1.93652 0
M  V30 5673 C 548.476 1.6946 -0.948526 0
M  V30 5674 O 547.751 1.94487 0.022782 0
M  V30 5675 C 548.034 1.18223 -3.4014 0
M  V30 5676 C 547.887 0.0967431 -4.49696 0
M  V30 5677 C 549.206 2.08872 -3.87377 0
M  V30 5678 H 546.325 0.217453 -0.70419 0
M  V30 5679 H 548.967 -0.133821 -1.89528 0
M  V30 5680 H 547.117 1.80953 -3.43785 0
M  V30 5681 H 548.789 -0.536155 -4.58174 0
M  V30 5682 H 547.032 -0.573063 -4.29998 0
M  V30 5683 H 547.703 0.542894 -5.49324 0
M  V30 5684 H 550.179 1.56081 -3.85717 0
M  V30 5685 H 549.055 2.46389 -4.90493 0
M  V30 5686 H 549.316 2.99572 -3.25129 0
M  V30 5687 N 548.375 1.56261 0.205012 0
M  V30 5688 C 549.621 1.80306 0.9283 0
M  V30 5689 C 549.954 0.640932 1.83319 0
M  V30 5690 O 549.229 -0.359032 1.91158 0
M  V30 5691 C 549.512 3.14547 1.75306 0
M  V30 5692 C 549.365 4.41236 0.873562 0
M  V30 5693 C 550.684 3.45382 2.72762 0
M  V30 5694 H 547.803 0.655929 0.336044 0
M  V30 5695 H 550.445 1.88984 0.196211 0
M  V30 5696 H 548.595 3.0728 2.37721 0
M  V30 5697 H 550.267 4.60539 0.264887 0
M  V30 5698 H 548.51 4.33427 0.179773 0
M  V30 5699 H 549.181 5.31639 1.48541 0
M  V30 5700 H 551.657 3.52884 2.20481 0
M  V30 5701 H 550.533 4.40449 3.2756 0
M  V30 5702 H 550.794 2.68377 3.51321 0
M  V30 5703 N 549.853 -0.472356 1.50355 0
M  V30 5704 C 551.13 -1.23356 1.51798 0
M  V30 5705 C 551.51 -2.09469 0.26193 0
M  V30 5706 O 550.858 -2.15677 -0.754691 0
M  V30 5707 C 551.068 -2.06568 2.81302 0
M  V30 5708 C 552.416 -2.648 3.31913 0
M  V30 5709 O 553.44 -2.16812 2.82614 0
M  V30 5710 O 552.299 -3.52231 4.17846 0
M  V30 5711 H 549.393 -0.559707 0.608816 0
M  V30 5712 H 551.939 -0.48428 1.62643 0
M  V30 5713 H 550.711 -1.43103 3.64194 0
M  V30 5714 H 550.334 -2.88633 2.73454 0
M  V30 5715 N 551.331 -1.39911 -0.725443 0
M  V30 5716 C 552.241 -1.41688 -1.8698 0
M  V30 5717 C 553.257 -0.310579 -1.71206 0
M  V30 5718 O 554.433 -0.55359 -1.93642 0
M  V30 5719 C 551.498 -1.26811 -3.22676 0
M  V30 5720 C 550.559 -2.47497 -3.50776 0
M  V30 5721 C 549.792 -2.3332 -4.79997 0
M  V30 5722 O 550.015 -1.34175 -5.54394 0
M  V30 5723 O 548.949 -3.22498 -5.08211 0
M  V30 5724 H 552.775 -2.38171 -1.88436 0
M  V30 5725 H 550.36 -1.21128 -0.874548 0
M  V30 5726 H 552.242 -1.20684 -4.03749 0
M  V30 5727 H 550.917 -0.334289 -3.21969 0
M  V30 5728 H 549.824 -2.59201 -2.69751 0
M  V30 5729 H 551.157 -3.39606 -3.5627 0
M  V30 5730 N 552.809 0.956637 -1.25245 0
M  V30 5731 C 554.058 1.69537 -1.0927 0
M  V30 5732 C 554.371 1.92136 0.366503 0
M  V30 5733 O 555.577 2.63687 0.64665 0
M  V30 5734 C 554.033 3.05211 -1.9072 0
M  V30 5735 C 553.641 2.90416 -3.41119 0
M  V30 5736 C 555.385 3.82882 -1.83308 0
M  V30 5737 C 553.292 4.21468 -4.14872 0
M  V30 5738 H 552.222 0.635804 -0.405302 0
M  V30 5739 H 554.873 1.06513 -1.49423 0
M  V30 5740 H 553.255 3.69128 -1.43389 0
M  V30 5741 H 554.429 2.35444 -3.9611 0
M  V30 5742 H 552.744 2.26203 -3.49602 0
M  V30 5743 H 555.341 4.79944 -2.35706 0
M  V30 5744 H 555.684 4.0853 -0.800572 0
M  V30 5745 H 556.217 3.25711 -2.28379 0
M  V30 5746 H 552.956 4.01009 -5.18529 0
M  V30 5747 H 552.476 4.76213 -3.64665 0
M  V30 5748 H 554.155 4.90022 -4.22478 0
M  V30 5749 N 554.287 1.06798 1.15896 0
M  V30 5750 C 555.703 0.792423 1.38538 0
M  V30 5751 C 555.903 -0.60592 1.92174 0
M  V30 5752 O 554.959 -1.36561 2.12385 0
M  V30 5753 C 556.272 1.86157 2.36149 0
M  V30 5754 C 557.82 1.88567 2.49823 0
M  V30 5755 C 558.295 2.9455 3.5072 0
M  V30 5756 N 559.786 2.93616 3.58251 0
M  V30 5757 C 560.521 3.72267 4.36125 0
M  V30 5758 N 560.017 4.60751 5.17379 0
M  V30 5759 N 561.81 3.60637 4.31158 0
M  V30 5760 H 553.961 1.96993 0.794198 0
M  V30 5761 H 556.224 0.853942 0.411688 0
M  V30 5762 H 555.93 2.86603 2.03843 0
M  V30 5763 H 555.804 1.71692 3.3586 0
M  V30 5764 H 558.191 0.887765 2.8143 0
M  V30 5765 H 558.272 2.0711 1.5013 0
M  V30 5766 H 557.916 3.94537 3.19849 0
M  V30 5767 H 557.846 2.73255 4.50155 0
M  V30 5768 H 560.337 2.29472 3.00252 0
M  V30 5769 H 560.65 5.17408 5.74028 0
M  V30 5770 H 558.995 4.64803 5.16704 0
M  V30 5771 H 562.186 2.90892 3.66742 0
M  V30 5772 H 562.359 4.22176 4.91601 0
M  V30 5773 N 555.766 -1.3263 0.851289 0
M  V30 5774 C 557.014 -1.96978 0.452128 0
M  V30 5775 C 557.335 -1.67715 -0.99482 0
M  V30 5776 O 556.605 -0.98259 -1.69476 0
M  V30 5777 H 555.185 -0.72873 0.164202 0
M  V30 5778 H 557.847 -1.61774 1.08698 0
M  V30 5779 H 556.943 -3.06387 0.594407 0
M  V30 5780 N 557.244 -0.608902 -1.45362 0
M  V30 5781 C 558.192 0.121639 -2.32282 0
M  V30 5782 C 559.186 0.858301 -1.46046 0
M  V30 5783 O 560.392 0.773718 -1.62523 0
M  V30 5784 H 556.767 0.058086 -0.749753 0
M  V30 5785 H 558.738 -0.629866 -2.91677 0
M  V30 5786 C 557.487 1.1047 -3.29684 0
M  V30 5787 H 556.81 0.547278 -3.96036 0
M  V30 5788 H 558.25 1.58576 -3.9323 0
M  V30 5789 C 556.709 2.17891 -2.56954 0
M  V30 5790 O 557.239 3.25652 -2.35189 0
M  V30 5791 N 555.445 1.93211 -2.17066 0
M  V30 5792 H 554.992 1.05584 -2.34967 0
M  V30 5793 H 554.95 2.6529 -1.68727 0
M  V30 5794 N 558.722 1.53707 -0.348139 0
M  V30 5795 C 559.672 2.2193 0.522592 0
M  V30 5796 C 560.656 1.20831 1.06248 0
M  V30 5797 O 561.848 1.46357 0.995415 0
M  V30 5798 C 558.977 2.99904 1.6707 0
M  V30 5799 C 558.063 4.08364 1.14454 0
M  V30 5800 N 558.454 5.04656 0.339958 0
M  V30 5801 C 556.752 4.22757 1.421 0
M  V30 5802 C 557.453 5.81675 0.0538806 0
M  V30 5803 N 556.429 5.39739 0.646776 0
M  V30 5804 H 560.231 2.93733 -0.099135 0
M  V30 5805 H 557.745 1.61656 -0.15524 0
M  V30 5806 H 559.742 3.47284 2.30651 0
M  V30 5807 H 558.402 2.29629 2.29566 0
M  V30 5808 H 559.413 5.17896 -0.0193552 0
M  V30 5809 H 556.09 3.63704 2.05002 0
M  V30 5810 H 557.48 6.69256 -0.595443 0
M  V30 5811 N 560.2 0.0768682 1.57412 0
M  V30 5812 C 561.13 -0.886026 2.16037 0
M  V30 5813 C 562.111 -1.30691 1.08876 0
M  V30 5814 O 563.296 -1.37705 1.36934 0
M  V30 5815 C 560.426 -2.1518 2.72608 0
M  V30 5816 C 559.38 -1.87015 3.8498 0
M  V30 5817 C 558.706 -3.20266 4.28175 0
M  V30 5818 C 560.006 -1.17143 5.08994 0
M  V30 5819 H 561.7 -0.397642 2.96748 0
M  V30 5820 H 559.246 -0.189823 1.42743 0
M  V30 5821 H 561.199 -2.82962 3.12266 0
M  V30 5822 H 559.923 -2.66269 1.89125 0
M  V30 5823 H 558.582 -1.21636 3.45833 0
M  V30 5824 H 558.23 -3.69207 3.41607 0
M  V30 5825 H 557.93 -3.0221 5.03927 0
M  V30 5826 H 559.454 -3.89237 4.70454 0
M  V30 5827 H 560.868 -1.75003 5.45937 0
M  V30 5828 H 559.265 -1.09328 5.90057 0
M  V30 5829 H 560.335 -0.151295 4.84664 0
M  V30 5830 N 561.678 -1.56367 -0.196722 0
M  V30 5831 C 562.906 -1.84639 -0.933608 0
M  V30 5832 C 563.321 -0.659164 -1.76919 0
M  V30 5833 O 562.678 0.372142 -1.78665 0
M  V30 5834 C 562.729 -3.11694 -1.83109 0
M  V30 5835 O 562.45 -4.25838 -1.02924 0
M  V30 5836 C 563.951 -3.53132 -2.67979 0
M  V30 5837 H 561.171 -0.613188 -0.272473 0
M  V30 5838 H 563.715 -2.03475 -0.204465 0
M  V30 5839 H 561.87 -2.94759 -2.51387 0
M  V30 5840 H 562.284 -4.98178 -1.64069 0
M  V30 5841 H 563.758 -4.45005 -3.26611 0
M  V30 5842 H 564.235 -2.76045 -3.41608 0
M  V30 5843 H 564.841 -3.72592 -2.05074 0
M  V30 5844 N 563.156 0.464375 -1.50603 0
M  V30 5845 C 564.402 1.21776 -1.62168 0
M  V30 5846 C 564.735 1.91476 -0.324154 0
M  V30 5847 O 564.01 1.8242 0.674782 0
M  V30 5848 C 564.293 2.25614 -2.80661 0
M  V30 5849 C 564.146 1.60175 -4.20314 0
M  V30 5850 C 565.465 3.26862 -2.94702 0
M  V30 5851 H 562.584 0.44137 -0.590222 0
M  V30 5852 H 565.226 0.510623 -1.8301 0
M  V30 5853 H 563.376 2.85923 -2.63021 0
M  V30 5854 H 565.048 1.03411 -4.4956 0
M  V30 5855 H 563.291 0.904697 -4.24261 0
M  V30 5856 H 563.962 2.35665 -4.99165 0
M  V30 5857 H 566.438 2.76582 -3.10872 0
M  V30 5858 H 565.314 3.96839 -3.79223 0
M  V30 5859 H 565.575 3.91382 -2.05603 0
M  V30 5860 N 564.634 1.40294 0.718013 0
M  V30 5861 C 565.882 1.38167 1.47494 0
M  V30 5862 C 566.203 -0.01607 1.94993 0
M  V30 5863 O 565.473 -0.970396 1.70177 0
M  V30 5864 H 564.053 0.508505 0.547203 0
M  V30 5865 H 566.715 1.75324 0.851322 0
M  V30 5866 H 565.811 2.05503 2.34894 0
M  V30 5867 N 566.112 -0.949982 1.2575 0
M  V30 5868 C 567.075 -2.02894 1.06615 0
M  V30 5869 C 568.075 -1.60791 0.0173905 0
M  V30 5870 O 569.265 -1.72249 0.260003 0
M  V30 5871 C 566.397 -3.35219 0.619751 0
M  V30 5872 H 567.59 -2.21302 2.02399 0
M  V30 5873 H 565.143 -1.12772 1.08223 0
M  V30 5874 H 565.878 -3.22508 -0.340486 0
M  V30 5875 H 565.663 -3.67129 1.37692 0
M  V30 5876 H 567.153 -4.14505 0.507443 0
M  V30 5877 N 567.59 -1.07411 -1.15328 0
M  V30 5878 C 569.001 -0.820261 -1.67716 0
M  V30 5879 C 569.352 0.654539 -1.8496 0
M  V30 5880 O 568.477 1.50664 -1.55337 0
M  V30 5881 C 569.072 -1.48242 -3.04647 0
M  V30 5882 C 567.631 -1.27606 -3.5411 0
M  V30 5883 C 566.778 -1.5517 -2.29821 0
M  V30 5884 H 569.729 -1.23608 -0.995332 0
M  V30 5885 H 569.75 -0.903984 -3.69606 0
M  V30 5886 H 569.262 -2.55578 -2.92064 0
M  V30 5887 H 567.363 -0.222948 -3.71932 0
M  V30 5888 H 567.476 -1.99667 -4.35511 0
M  V30 5889 H 565.84 -0.972747 -2.35393 0
M  V30 5890 H 566.623 -2.63689 -2.19824 0
M  V30 5891 N 569.068 1.32177 -0.85831 0
M  V30 5892 C 570.315 1.97125 -0.463484 0
M  V30 5893 C 570.643 1.67907 0.981705 0
M  V30 5894 O 569.898 0.961717 1.70439 0
M  V30 5895 C 570.197 3.51372 -0.653658 0
M  V30 5896 C 569.863 4.00584 -2.06987 0
M  V30 5897 C 568.525 4.13733 -2.4572 0
M  V30 5898 C 570.877 4.26624 -2.99402 0
M  V30 5899 C 568.205 4.50268 -3.76132 0
M  V30 5900 C 570.557 4.64618 -4.29316 0
M  V30 5901 C 569.221 4.75975 -4.67979 0
M  V30 5902 H 568.491 0.72133 -0.169601 0
M  V30 5903 H 571.138 1.57517 -1.08907 0
M  V30 5904 H 569.443 3.91761 0.0551328 0
M  V30 5905 H 571.14 3.99655 -0.328163 0
M  V30 5906 H 567.73 3.90837 -1.75911 0
M  V30 5907 H 571.914 4.1597 -2.70708 0
M  V30 5908 H 567.17 4.57256 -4.05865 0
M  V30 5909 H 571.344 4.83722 -5.00985 0
M  V30 5910 H 568.971 5.04041 -5.69076 0
M  V30 5911 N 570.547 0.616602 1.45037 0
M  V30 5912 C 571.494 -0.0969439 2.30596 0
M  V30 5913 C 572.464 -0.851151 1.42635 0
M  V30 5914 O 573.649 -0.835092 1.71554 0
M  V30 5915 C 570.789 -1.08234 3.27688 0
M  V30 5916 C 569.902 -0.328072 4.30752 0
M  V30 5917 C 569.037 -1.30399 5.14946 0
M  V30 5918 C 568.076 -0.538049 6.09731 0
M  V30 5919 N 567.213 -1.46371 6.86673 0
M  V30 5920 H 572.053 0.63864 2.91076 0
M  V30 5921 H 569.59 0.326733 1.43425 0
M  V30 5922 H 571.548 -1.66688 3.82454 0
M  V30 5923 H 570.178 -1.78523 2.68941 0
M  V30 5924 H 569.23 0.372136 3.78575 0
M  V30 5925 H 570.542 0.269142 4.98073 0
M  V30 5926 H 569.696 -1.96032 5.74157 0
M  V30 5927 H 568.435 -1.93514 4.47665 0
M  V30 5928 H 567.44 0.131852 5.49642 0
M  V30 5929 H 568.665 0.0881732 6.79043 0
M  V30 5930 H 566.611 -2.08233 6.22073 0
M  V30 5931 H 566.528 -0.920152 7.50379 0
M  V30 5932 H 567.796 -2.10932 7.50418 0
M  V30 5933 N 572.025 -1.5352 0.356285 0
M  V30 5934 C 573.272 -2.01117 -0.236303 0
M  V30 5935 C 573.6 -1.24381 -1.49531 0
M  V30 5936 O 572.855 -0.323057 -1.93015 0
M  V30 5937 C 573.154 -3.52607 -0.583369 0
M  V30 5938 C 572.82 -4.47151 0.58023 0
M  V30 5939 C 571.482 -4.72718 0.899528 0
M  V30 5940 C 573.834 -5.03137 1.36024 0
M  V30 5941 C 571.162 -5.51523 2.00098 0
M  V30 5942 C 573.514 -5.83145 2.45204 0
M  V30 5943 C 572.178 -6.07001 2.77679 0
M  V30 5944 H 571.448 -0.735938 -0.0864695 0
M  V30 5945 H 574.095 -1.85209 0.48683 0
M  V30 5946 H 572.4 -3.66413 -1.38739 0
M  V30 5947 H 574.097 -3.86901 -1.05397 0
M  V30 5948 H 570.687 -4.27394 0.321322 0
M  V30 5949 H 574.871 -4.83339 1.12682 0
M  V30 5950 H 570.127 -5.68229 2.25668 0
M  V30 5951 H 574.301 -6.25537 3.06067 0
M  V30 5952 H 571.928 -6.67851 3.63151 0
M  V30 5953 N 573.503 -0.0852151 -1.57369 0
M  V30 5954 C 574.728 0.592872 -1.98746 0
M  V30 5955 C 575.153 1.61538 -0.963689 0
M  V30 5956 O 574.511 1.81168 0.069071 0
M  V30 5957 C 574.559 1.22599 -3.39119 0
M  V30 5958 O 573.663 2.34185 -3.39457 0
M  V30 5959 H 573.004 0.151314 -0.646529 0
M  V30 5960 H 575.534 -0.163703 -2.03944 0
M  V30 5961 H 575.544 1.56965 -3.76598 0
M  V30 5962 H 574.219 0.476831 -4.13158 0
M  V30 5963 H 572.796 2.01512 -3.13763 0
M  V30 5964 N 574.981 1.5647 0.188427 0
M  V30 5965 C 576.229 1.80655 0.905986 0
M  V30 5966 C 576.55 0.659391 1.83513 0
M  V30 5967 O 575.82 -0.321868 1.93238 0
M  V30 5968 H 574.4 0.666391 0.337538 0
M  V30 5969 H 577.062 1.93949 0.192339 0
M  V30 5970 H 576.158 2.74066 1.49313 0
M  V30 5971 N 576.459 -0.456382 1.50847 0
M  V30 5972 C 577.706 -1.20736 1.62571 0
M  V30 5973 C 578.034 -1.9163 0.332904 0
M  V30 5974 O 577.289 -1.8343 -0.682058 0
M  V30 5975 C 577.588 -2.26336 2.76599 0
M  V30 5976 C 577.254 -1.7259 4.16562 0
M  V30 5977 C 575.916 -1.57654 4.54641 0
M  V30 5978 C 578.268 -1.32877 5.03977 0
M  V30 5979 C 575.596 -1.0145 5.77862 0
M  V30 5980 C 577.948 -0.7811 6.27759 0
M  V30 5981 C 576.612 -0.618488 6.64628 0
M  V30 5982 H 575.882 -0.441803 0.594888 0
M  V30 5983 H 578.529 -0.501169 1.84826 0
M  V30 5984 H 576.834 -3.0292 2.48489 0
M  V30 5985 H 578.531 -2.84227 2.82871 0
M  V30 5986 H 575.121 -1.85187 3.86528 0
M  V30 5987 H 579.305 -1.43245 4.75179 0
M  V30 5988 H 574.561 -0.876109 6.0509 0
M  V30 5989 H 578.735 -0.464783 6.94847 0
M  V30 5990 H 576.362 -0.180838 7.59985 0
M  V30 5991 N 577.937 -1.40673 -0.710563 0
M  V30 5992 C 578.869 -1.37256 -1.83558 0
M  V30 5993 C 579.882 -0.277133 -1.60424 0
M  V30 5994 O 581.071 -0.537831 -1.70205 0
M  V30 5995 C 578.171 -1.1144 -3.20054 0
M  V30 5996 C 577.344 -2.32734 -3.70342 0
M  V30 5997 C 576.403 -2.03002 -4.85465 0
M  V30 5998 O 575.429 -2.75912 -4.97857 0
M  V30 5999 N 576.631 -1.01105 -5.71627 0
M  V30 6000 H 579.396 -2.34215 -1.86985 0
M  V30 6001 H 576.957 -1.35091 -0.892301 0
M  V30 6002 H 578.949 -0.895265 -3.94673 0
M  V30 6003 H 577.519 -0.231307 -3.11743 0
M  V30 6004 H 576.739 -2.70446 -2.86798 0
M  V30 6005 H 578.027 -3.13584 -4.00678 0
M  V30 6006 H 577.425 -0.407303 -5.64232 0
M  V30 6007 H 575.982 -0.85182 -6.4621 0
M  V30 6008 N 579.415 0.9433 -1.26252 0
M  V30 6009 C 580.826 1.50404 -1.10614 0
M  V30 6010 C 581.177 1.93666 0.31429 0
M  V30 6011 O 580.302 1.79709 1.20555 0
M  V30 6012 C 580.897 2.73336 -2.00182 0
M  V30 6013 C 579.456 3.25686 -1.88695 0
M  V30 6014 C 578.603 1.98474 -1.93658 0
M  V30 6015 H 581.554 0.759006 -1.39373 0
M  V30 6016 H 581.575 3.47567 -1.54847 0
M  V30 6017 H 581.087 2.41818 -3.03555 0
M  V30 6018 H 579.188 3.61998 -0.882489 0
M  V30 6019 H 579.301 3.92935 -2.74115 0
M  V30 6020 H 577.665 2.14278 -1.37684 0
M  V30 6021 H 578.448 1.6929 -2.98657 0
M  V30 6022 N 580.893 1.08022 1.14757 0
M  V30 6023 C 581.803 0.718292 2.23333 0
M  V30 6024 C 582.819 -0.273477 1.71837 0
M  V30 6025 O 583.995 -0.118406 2.01052 0
M  V30 6026 C 581.06 0.128855 3.4646 0
M  V30 6027 C 580.121 1.17473 4.12915 0
M  V30 6028 C 579.354 0.61333 5.30164 0
M  V30 6029 O 579.577 -0.568458 5.6756 0
M  V30 6030 O 578.511 1.3615 5.86299 0
M  V30 6031 H 582.337 1.62394 2.56636 0
M  V30 6032 H 579.922 0.853628 1.22611 0
M  V30 6033 H 581.804 -0.197249 4.20938 0
M  V30 6034 H 580.479 -0.750014 3.14891 0
M  V30 6035 H 579.386 1.5533 3.40328 0
M  V30 6036 H 580.719 2.02574 4.48581 0
M  V30 6037 N 582.371 -1.3172 0.865308 0
M  V30 6038 C 583.62 -1.96145 0.470098 0
M  V30 6039 C 583.933 -1.69182 -0.981674 0
M  V30 6040 O 585.139 -2.27431 -1.48281 0
M  V30 6041 C 583.595 -3.51129 0.789732 0
M  V30 6042 C 583.203 -3.86938 2.25795 0
M  V30 6043 C 584.947 -4.2197 0.462765 0
M  V30 6044 C 582.854 -5.35012 2.52024 0
M  V30 6045 H 581.784 -0.734105 0.172065 0
M  V30 6046 H 584.435 -1.49959 1.05757 0
M  V30 6047 H 582.817 -3.95781 0.131571 0
M  V30 6048 H 583.991 -3.5326 2.95879 0
M  V30 6049 H 582.306 -3.29149 2.55049 0
M  V30 6050 H 584.903 -5.30904 0.636019 0
M  V30 6051 H 585.246 -4.12005 -0.59645 0
M  V30 6052 H 585.779 -3.82936 1.07727 0
M  V30 6053 H 582.518 -5.50008 3.56611 0
M  V30 6054 H 582.038 -5.70058 1.8653 0
M  V30 6055 H 583.717 -6.0222 2.36515 0
M  V30 6056 N 583.85 -0.624285 -1.44708 0
M  V30 6057 C 585.077 -0.132919 -2.06473 0
M  V30 6058 C 585.493 1.18967 -1.46602 0
M  V30 6059 O 584.85 1.72824 -0.586341 0
M  V30 6060 C 584.901 -0.00465418 -3.615 0
M  V30 6061 O 584.622 -1.27494 -4.19138 0
M  V30 6062 C 586.123 0.516213 -4.40284 0
M  V30 6063 H 583.343 -0.0765201 -0.666623 0
M  V30 6064 H 585.887 -0.856751 -1.85688 0
M  V30 6065 H 584.042 0.669583 -3.8157 0
M  V30 6066 H 584.456 -1.11536 -5.12504 0
M  V30 6067 H 585.93 0.554994 -5.49203 0
M  V30 6068 H 586.407 1.5419 -4.11245 0
M  V30 6069 H 587.013 -0.124542 -4.25118 0
M  V30 6070 N 585.328 1.53329 -0.364422 0
M  V30 6071 C 586.744 1.59594 -0.0133165 0
M  V30 6072 C 586.944 1.37959 1.46865 0
M  V30 6073 O 586 1.18418 2.2301 0
M  V30 6074 C 587.313 2.97032 -0.468213 0
M  V30 6075 C 588.861 3.10138 -0.422334 0
M  V30 6076 C 589.336 4.49986 -0.853024 0
M  V30 6077 N 590.827 4.56098 -0.808037 0
M  V30 6078 C 591.562 5.62495 -1.11299 0
M  V30 6079 N 591.058 6.7665 -1.48717 0
M  V30 6080 N 592.851 5.52473 -1.03586 0
M  V30 6081 H 585.002 1.65644 -1.32951 0
M  V30 6082 H 587.265 0.77684 -0.543345 0
M  V30 6083 H 586.971 3.18 -1.5023 0
M  V30 6084 H 586.845 3.76918 0.145775 0
M  V30 6085 H 589.232 2.88881 0.602622 0
M  V30 6086 H 589.313 2.32263 -1.0718 0
M  V30 6087 H 588.957 4.7198 -1.87609 0
M  V30 6088 H 588.887 5.26289 -0.180819 0
M  V30 6089 H 591.378 3.74131 -0.532361 0
M  V30 6090 H 591.691 7.53776 -1.70415 0
M  V30 6091 H 590.036 6.78044 -1.52581 0
M  V30 6092 H 593.227 4.6217 -0.742736 0
M  V30 6093 H 593.4 6.35295 -1.27686 0
M  V30 6094 N 586.806 0.0935595 1.57322 0
M  V30 6095 C 587.769 -0.851426 2.12799 0
M  V30 6096 C 588.769 -1.21187 1.0569 0
M  V30 6097 O 589.959 -1.14156 1.31583 0
M  V30 6098 C 587.091 -2.14779 2.64731 0
M  V30 6099 H 588.284 -0.369733 2.97612 0
M  V30 6100 H 585.837 -0.155417 1.55525 0
M  V30 6101 H 586.572 -2.67437 1.83434 0
M  V30 6102 H 586.357 -1.89907 3.43042 0
M  V30 6103 H 587.847 -2.82383 3.07651 0
M  V30 6104 N 588.284 -1.56567 -0.180126 0
M  V30 6105 C 589.695 -1.7126 -0.743422 0
M  V30 6106 C 590.046 -0.70263 -1.83187 0
M  V30 6107 O 589.171 0.137856 -2.1596 0
M  V30 6108 C 589.766 -3.10512 -1.35528 0
M  V30 6109 C 588.325 -3.26919 -1.8655 0
M  V30 6110 C 587.472 -2.67213 -0.741099 0
M  V30 6111 H 590.423 -1.58636 0.0451543 0
M  V30 6112 H 590.444 -3.08673 -2.22489 0
M  V30 6113 H 589.956 -3.83997 -0.562862 0
M  V30 6114 H 588.057 -2.58376 -2.68464 0
M  V30 6115 H 588.17 -4.34574 -2.01699 0
M  V30 6116 H 586.534 -2.26788 -1.15927 0
M  V30 6117 H 587.317 -3.43277 0.0393291 0
M  V30 6118 N 589.762 0.448376 -1.51087 0
M  V30 6119 C 590.692 1.55102 -1.74544 0
M  V30 6120 C 591.673 1.59357 -0.594932 0
M  V30 6121 O 592.858 1.75261 -0.836491 0
M  V30 6122 C 589.988 2.93268 -1.86041 0
M  V30 6123 C 588.942 3.03877 -3.01402 0
M  V30 6124 C 588.268 4.43914 -2.98068 0
M  V30 6125 C 589.568 2.7898 -4.41551 0
M  V30 6126 H 591.262 1.35724 -2.66869 0
M  V30 6127 H 588.808 0.651498 -1.28419 0
M  V30 6128 H 590.761 3.70356 -2.01034 0
M  V30 6129 H 589.485 3.13853 -0.903548 0
M  V30 6130 H 588.144 2.29227 -2.86096 0
M  V30 6131 H 587.792 4.6145 -2.00182 0
M  V30 6132 H 587.492 4.51944 -3.75527 0
M  V30 6133 H 589.016 5.22991 -3.1514 0
M  V30 6134 H 590.43 3.45805 -4.57265 0
M  V30 6135 H 588.827 2.98431 -5.20633 0
M  V30 6136 H 589.897 1.74663 -4.5235 0
M  V30 6137 N 591.24 1.41047 0.703093 0
M  V30 6138 C 592.17 1.45067 1.82969 0
M  V30 6139 C 593.151 0.31016 1.67248 0
M  V30 6140 O 594.336 0.520548 1.87093 0
M  V30 6141 C 591.466 1.32478 3.2104 0
M  V30 6142 C 590.42 2.44262 3.51454 0
M  V30 6143 C 589.746 2.16742 4.88801 0
M  V30 6144 C 591.046 3.86606 3.51189 0
M  V30 6145 H 592.74 2.39353 1.79863 0
M  V30 6146 H 590.286 1.15206 0.863919 0
M  V30 6147 H 592.239 1.33904 3.99559 0
M  V30 6148 H 590.963 0.346735 3.24754 0
M  V30 6149 H 589.622 2.42107 2.75282 0
M  V30 6150 H 589.27 1.17299 4.89132 0
M  V30 6151 H 588.97 2.91643 5.10116 0
M  V30 6152 H 590.494 2.19872 5.69639 0
M  V30 6153 H 591.908 3.90517 4.19725 0
M  V30 6154 H 590.305 4.61128 3.84033 0
M  V30 6155 H 591.375 4.15296 2.50315 0
M  V30 6156 N 592.718 -0.936591 1.26751 0
M  V30 6157 C 593.966 -1.67998 1.12343 0
M  V30 6158 C 594.287 -1.92137 -0.332938 0
M  V30 6159 O 593.557 -1.52132 -1.23421 0
M  V30 6160 H 592.137 -0.622609 0.412756 0
M  V30 6161 H 594.799 -1.12509 1.59147 0
M  V30 6162 H 593.895 -2.65185 1.64571 0
M  V30 6163 N 594.196 -1.08629 -1.14182 0
M  V30 6164 C 595.106 -0.730126 -2.22949 0
M  V30 6165 C 596.122 0.26436 -1.7198 0
M  V30 6166 O 597.298 0.107742 -2.01112 0
M  V30 6167 C 594.363 -0.147227 -3.46387 0
M  V30 6168 C 593.424 -1.19662 -4.12286 0
M  V30 6169 C 592.657 -0.641437 -5.29831 0
M  V30 6170 O 592.88 0.538351 -5.67854 0
M  V30 6171 O 591.814 -1.39257 -5.85569 0
M  V30 6172 H 595.64 -1.63753 -2.55771 0
M  V30 6173 H 593.225 -0.860118 -1.22157 0
M  V30 6174 H 595.107 0.174923 -4.21037 0
M  V30 6175 H 593.782 0.733304 -3.15285 0
M  V30 6176 H 592.689 -1.57133 -3.395 0
M  V30 6177 H 594.022 -2.0495 -4.475 0
M  V30 6178 N 595.674 1.31259 -0.872281 0
M  V30 6179 C 596.624 2.26 -0.301295 0
M  V30 6180 C 597.608 1.50729 0.562991 0
M  V30 6181 O 598.8 1.72198 0.40949 0
M  V30 6182 C 595.929 3.39724 0.494227 0
M  V30 6183 C 595.015 4.22363 -0.383432 0
M  V30 6184 N 595.406 4.83724 -1.47799 0
M  V30 6185 C 593.704 4.45652 -0.176278 0
M  V30 6186 C 594.405 5.45523 -2.01939 0
M  V30 6187 N 593.381 5.27428 -1.31608 0
M  V30 6188 H 597.183 2.70981 -1.13782 0
M  V30 6189 H 594.697 1.45552 -0.720294 0
M  V30 6190 H 596.694 4.06626 0.919828 0
M  V30 6191 H 595.354 2.96286 1.32834 0
M  V30 6192 H 596.365 4.83313 -1.8609 0
M  V30 6193 H 593.042 4.12845 0.621698 0
M  V30 6194 H 594.432 6.04268 -2.93786 0
M  V30 6195 N 597.152 0.631951 1.44375 0
M  V30 6196 C 598.38 0.143867 2.06399 0
M  V30 6197 C 598.795 -1.18188 1.47231 0
M  V30 6198 O 598.152 -1.72511 0.595498 0
M  V30 6199 C 598.203 0.0238253 3.61492 0
M  V30 6200 O 597.924 1.29715 4.18456 0
M  V30 6201 C 599.425 -0.492856 4.40552 0
M  V30 6202 H 596.645 0.0800542 0.666207 0
M  V30 6203 H 599.189 0.866586 1.85231 0
M  V30 6204 H 597.344 -0.649338 3.81919 0
M  V30 6205 H 597.758 1.14252 5.11905 0
M  V30 6206 H 599.232 -0.525861 5.49489 0
M  V30 6207 H 599.709 -1.52006 4.12057 0
M  V30 6208 H 600.315 0.147085 4.25046 0
M  V30 6209 N 598.631 -1.53133 0.372548 0
M  V30 6210 C 599.908 -1.93704 -0.271693 0
M  V30 6211 C 600.288 -1.30667 -1.65799 0
M  V30 6212 O 599.636 -0.46838 -2.23648 0
M  V30 6213 C 599.846 -3.47576 -0.314903 0
M  V30 6214 C 601.194 -4.20998 -0.551912 0
M  V30 6215 O 602.218 -3.53994 -0.39582 0
M  V30 6216 O 601.077 -5.39748 -0.85639 0
M  V30 6217 H 598.171 -0.810457 -0.164586 0
M  V30 6218 H 600.717 -1.6427 0.425838 0
M  V30 6219 H 599.489 -3.85749 0.656792 0
M  V30 6220 H 599.112 -3.83264 -1.05804 0
M  V30 6221 N 600.109 -0.101901 -1.5727 0
M  V30 6222 C 601.019 0.868647 -2.17926 0
M  V30 6223 C 602.035 1.30527 -1.1506 0
M  V30 6224 O 603.211 1.37178 -1.47459 0
M  V30 6225 C 600.276 2.10727 -2.75309 0
M  V30 6226 C 599.337 1.7242 -3.93154 0
M  V30 6227 C 598.57 2.90377 -4.47791 0
M  V30 6228 O 598.793 4.05305 -4.01353 0
M  V30 6229 O 597.727 2.6845 -5.38719 0
M  V30 6230 H 601.553 0.382544 -3.01281 0
M  V30 6231 H 599.138 0.122812 -1.48894 0
M  V30 6232 H 601.02 2.83303 -3.11958 0
M  V30 6233 H 599.695 2.58376 -1.94996 0
M  V30 6234 H 598.602 0.970039 -3.61305 0
M  V30 6235 H 599.935 1.29528 -4.74851 0
M  V30 6236 N 601.587 1.56661 0.17182 0
M  V30 6237 C 602.833 1.82235 0.889845 0
M  V30 6238 C 603.166 0.679673 1.81918 0
M  V30 6239 O 602.441 -0.318404 1.91876 0
M  V30 6240 C 602.724 3.18195 1.68595 0
M  V30 6241 C 602.577 4.42989 0.779773 0
M  V30 6242 C 603.896 3.5109 2.65375 0
M  V30 6243 H 601.015 0.66291 0.322056 0
M  V30 6244 H 603.657 1.89358 0.15608 0
M  V30 6245 H 601.807 3.12253 2.3115 0
M  V30 6246 H 603.479 4.60997 0.16714 0
M  V30 6247 H 601.722 4.33711 0.0877964 0
M  V30 6248 H 602.393 5.3467 1.3723 0
M  V30 6249 H 604.869 3.57482 2.12946 0
M  V30 6250 H 603.745 4.47298 3.18144 0
M  V30 6251 H 604.006 2.75768 3.45549 0
M  V30 6252 N 603.065 -0.440357 1.51323 0
M  V30 6253 C 603.995 -1.54174 1.75364 0
M  V30 6254 C 604.976 -1.59039 0.603375 0
M  V30 6255 O 606.161 -1.74815 0.845774 0
M  V30 6256 C 603.291 -2.92277 1.87593 0
M  V30 6257 C 602.245 -3.02274 3.03009 0
M  V30 6258 C 601.571 -4.42327 3.00418 0
M  V30 6259 C 602.871 -2.76634 4.43024 0
M  V30 6260 H 604.565 -1.34307 2.67585 0
M  V30 6261 H 602.111 -0.644678 1.28763 0
M  V30 6262 H 604.064 -3.69284 2.02995 0
M  V30 6263 H 602.788 -3.13369 0.920179 0
M  V30 6264 H 601.447 -2.27706 2.87307 0
M  V30 6265 H 601.095 -4.60382 2.02626 0
M  V30 6266 H 600.795 -4.49946 3.77918 0
M  V30 6267 H 602.319 -5.21312 3.17909 0
M  V30 6268 H 603.733 -3.43376 4.59093 0
M  V30 6269 H 602.13 -2.95666 5.22208 0
M  V30 6270 H 603.2 -1.72262 4.5327 0
M  V30 6271 N 604.543 -1.41418 -0.695603 0
M  V30 6272 C 605.49 -1.43264 -1.80954 0
M  V30 6273 C 606.46 -0.287016 -1.63601 0
M  V30 6274 O 607.645 -0.488054 -1.84452 0
M  V30 6275 C 604.785 -1.32054 -3.18835 0
M  V30 6276 C 603.898 -2.56485 -3.4762 0
M  V30 6277 C 603.033 -2.3757 -4.75115 0
M  V30 6278 C 602.072 -3.57477 -4.96867 0
M  V30 6279 N 601.209 -3.37632 -6.15588 0
M  V30 6280 H 606.049 -2.38467 -1.78711 0
M  V30 6281 H 603.586 -1.18415 -0.872715 0
M  V30 6282 H 605.544 -1.23558 -3.98484 0
M  V30 6283 H 604.174 -0.404592 -3.20254 0
M  V30 6284 H 603.226 -2.75432 -2.62376 0
M  V30 6285 H 604.538 -3.45678 -3.59594 0
M  V30 6286 H 603.692 -2.2654 -5.62818 0
M  V30 6287 H 602.431 -1.45834 -4.65386 0
M  V30 6288 H 601.436 -3.68961 -4.07612 0
M  V30 6289 H 602.661 -4.50167 -5.08455 0
M  V30 6290 H 600.607 -2.48596 -6.07072 0
M  V30 6291 H 600.524 -4.20401 -6.2833 0
M  V30 6292 H 601.792 -3.30375 -7.06026 0
M  V30 6293 N 606.021 0.929856 -1.27246 0
M  V30 6294 C 606.931 2.0636 -1.11592 0
M  V30 6295 C 607.947 1.73938 -0.046496 0
M  V30 6296 O 609.123 1.9981 -0.252544 0
M  V30 6297 C 606.188 3.38213 -0.762437 0
M  V30 6298 C 605.249 3.84346 -1.9125 0
M  V30 6299 C 604.482 5.09906 -1.57579 0
M  V30 6300 O 604.705 5.68354 -0.482694 0
M  V30 6301 O 603.639 5.51359 -2.41426 0
M  V30 6302 H 607.465 2.22478 -2.0673 0
M  V30 6303 H 605.05 1.04865 -1.06413 0
M  V30 6304 H 606.932 4.1741 -0.57854 0
M  V30 6305 H 605.607 3.23307 0.159439 0
M  V30 6306 H 604.514 3.06045 -2.15144 0
M  V30 6307 H 605.847 4.0379 -2.81451 0
M  V30 6308 N 607.499 1.09233 1.13605 0
M  V30 6309 C 608.429 0.751738 2.21068 0
M  V30 6310 C 609.41 -0.269688 1.67948 0
M  V30 6311 O 610.595 -0.13819 1.93708 0
M  V30 6312 C 607.725 0.16935 3.46887 0
M  V30 6313 C 606.679 1.12007 4.13084 0
M  V30 6314 C 606.005 0.399483 5.33206 0
M  V30 6315 C 607.305 2.46168 4.6065 0
M  V30 6316 H 608.999 1.65024 2.49815 0
M  V30 6317 H 606.545 0.794905 1.20072 0
M  V30 6318 H 608.498 -0.0809824 4.21322 0
M  V30 6319 H 607.222 -0.764335 3.1753 0
M  V30 6320 H 605.881 1.35564 3.40614 0
M  V30 6321 H 605.529 -0.538277 5.00112 0
M  V30 6322 H 605.229 1.03337 5.78442 0
M  V30 6323 H 606.753 0.157403 6.10397 0
M  V30 6324 H 608.167 2.26829 5.26518 0
M  V30 6325 H 606.564 3.05326 5.1662 0
M  V30 6326 H 607.634 3.07076 3.75276 0
M  V30 6327 N 608.977 -1.30795 0.87923 0
M  V30 6328 C 610.225 -1.95974 0.493809 0
M  V30 6329 C 610.546 -1.69787 -0.959021 0
M  V30 6330 O 609.816 -1.01832 -1.67353 0
M  V30 6331 H 608.396 -0.725083 0.179622 0
M  V30 6332 H 611.058 -1.59432 1.12105 0
M  V30 6333 H 610.154 -3.05058 0.659263 0
M  V30 6334 N 610.455 -0.639598 -1.44038 0
M  V30 6335 C 611.385 0.0469443 -2.33453 0
M  V30 6336 C 612.366 0.82609 -1.48694 0
M  V30 6337 O 613.551 0.790285 -1.77393 0
M  V30 6338 C 610.681 1.02338 -3.3188 0
M  V30 6339 C 609.635 0.355284 -4.26523 0
M  V30 6340 C 608.961 1.44221 -5.14883 0
M  V30 6341 C 610.261 -0.743798 -5.16977 0
M  V30 6342 H 611.955 -0.699735 -2.91108 0
M  V30 6343 H 609.501 -0.337946 -1.39978 0
M  V30 6344 H 611.454 1.51247 -3.93322 0
M  V30 6345 H 610.178 1.80105 -2.72451 0
M  V30 6346 H 608.837 -0.113239 -3.66425 0
M  V30 6347 H 608.485 2.21097 -4.51802 0
M  V30 6348 H 608.185 1.00052 -5.79019 0
M  V30 6349 H 609.709 1.93295 -5.79197 0
M  V30 6350 H 611.123 -0.337444 -5.72306 0
M  V30 6351 H 609.52 -1.10914 -5.89761 0
M  V30 6352 H 610.59 -1.60745 -4.57481 0
M  V30 6353 N 611.933 1.52934 -0.380664 0
M  V30 6354 C 613.21 1.93845 0.261417 0
M  V30 6355 C 613.59 1.31544 1.65104 0
M  V30 6356 O 612.938 0.480234 2.23397 0
M  V30 6357 C 613.148 3.47739 0.296466 0
M  V30 6358 C 614.496 4.21284 0.529578 0
M  V30 6359 O 615.52 3.54199 0.377041 0
M  V30 6360 O 614.379 5.40195 0.827753 0
M  V30 6361 H 611.473 0.811318 0.160285 0
M  V30 6362 H 614.019 1.64042 -0.434544 0
M  V30 6363 H 612.791 3.85395 -0.67724 0
M  V30 6364 H 612.414 3.8382 1.0377 0
M  V30 6365 N 613.412 0.11024 1.57214 0
M  V30 6366 C 614.689 -0.592956 1.86396 0
M  V30 6367 C 615.069 -1.85379 1.00985 0
M  V30 6368 O 614.417 -2.28337 0.0863592 0
M  V30 6369 C 614.627 -0.893816 3.3736 0
M  V30 6370 C 615.975 -1.25069 4.05762 0
M  V30 6371 O 616.999 -0.984356 3.42329 0
M  V30 6372 O 615.858 -1.75017 5.17718 0
M  V30 6373 H 612.952 -0.29828 0.771335 0
M  V30 6374 H 615.498 0.144083 1.69087 0
M  V30 6375 H 614.27 2.6031e-05 3.913 0
M  V30 6376 H 613.893 -1.68631 3.60068 0
M  V30 6377 N 614.89 -1.56749 -0.16351 0
M  V30 6378 C 615.853 -1.96121 -1.18613 0
M  V30 6379 C 616.853 -0.845765 -1.36761 0
M  V30 6380 O 618.043 -1.11268 -1.34033 0
M  V30 6381 C 615.175 -2.26282 -2.54969 0
M  V30 6382 H 616.368 -2.87639 -0.848764 0
M  V30 6383 H 613.921 -1.50928 -0.406251 0
M  V30 6384 H 614.656 -1.37504 -2.93706 0
M  V30 6385 H 614.441 -3.07595 -2.43162 0
M  V30 6386 H 615.931 -2.57638 -3.28653 0
M  V30 6387 N 616.368 0.432326 -1.51554 0
M  V30 6388 C 617.315 1.52512 -1.7323 0
M  V30 6389 C 618.285 1.55863 -0.5741 0
M  V30 6390 O 619.47 1.72796 -0.809093 0
M  V30 6391 C 616.61 2.90183 -1.86783 0
M  V30 6392 C 615.723 2.96322 -3.14352 0
M  V30 6393 C 614.858 4.25147 -3.18471 0
M  V30 6394 C 613.897 4.25172 -4.40335 0
M  V30 6395 N 613.034 5.45529 -4.41975 0
M  V30 6396 H 617.874 1.33332 -2.66508 0
M  V30 6397 H 615.411 0.647613 -1.32077 0
M  V30 6398 H 617.369 3.70071 -1.92623 0
M  V30 6399 H 615.999 3.0791 -0.969087 0
M  V30 6400 H 615.051 2.09066 -3.17798 0
M  V30 6401 H 616.363 2.92203 -4.04251 0
M  V30 6402 H 615.517 5.13411 -3.23255 0
M  V30 6403 H 614.256 4.31929 -2.2647 0
M  V30 6404 H 613.261 3.353 -4.35723 0
M  V30 6405 H 614.486 4.20049 -5.33606 0
M  V30 6406 H 612.432 5.53024 -3.52847 0
M  V30 6407 H 612.349 5.43311 -5.25689 0
M  V30 6408 H 613.617 6.35812 -4.50958 0
M  V30 6409 N 617.846 1.41785 0.688094 0
M  V30 6410 C 619.095 1.4084 1.44385 0
M  V30 6411 C 619.408 0.0234166 1.95586 0
M  V30 6412 O 620.614 -0.108647 2.71283 0
M  V30 6413 C 619.07 2.47675 2.61123 0
M  V30 6414 C 618.678 3.92116 2.16677 0
M  V30 6415 C 620.422 2.55877 3.38714 0
M  V30 6416 C 618.329 4.90487 3.30419 0
M  V30 6417 H 617.259 0.523787 0.542368 0
M  V30 6418 H 619.91 1.6764 0.74627 0
M  V30 6419 H 618.292 2.14018 3.33185 0
M  V30 6420 H 619.466 4.35059 1.51856 0
M  V30 6421 H 617.781 3.87642 1.5206 0
M  V30 6422 H 620.378 3.26553 4.234 0
M  V30 6423 H 620.721 1.59801 3.84408 0
M  V30 6424 H 621.254 2.88662 2.73714 0
M  V30 6425 H 617.993 5.87994 2.89729 0
M  V30 6426 H 617.513 4.52187 3.94065 0
M  V30 6427 H 619.192 5.11591 3.96085 0
M  V30 6428 N 619.324 -0.923095 1.27737 0
M  V30 6429 C 620.271 -2.02432 1.1086 0
M  V30 6430 C 621.241 -1.66098 0.00835195 0
M  V30 6431 O 622.426 -1.90027 0.171542 0
M  V30 6432 C 619.566 -3.36476 0.766671 0
M  V30 6433 C 618.679 -3.85737 1.94501 0
M  V30 6434 C 617.814 -5.08249 1.54455 0
M  V30 6435 C 616.853 -5.49818 2.6901 0
M  V30 6436 N 615.99 -6.63524 2.29521 0
M  V30 6437 H 620.83 -2.16201 2.05089 0
M  V30 6438 H 618.367 -1.05909 1.02087 0
M  V30 6439 H 620.325 -4.13569 0.549223 0
M  V30 6440 H 618.955 -3.22502 -0.13867 0
M  V30 6441 H 618.007 -3.04883 2.27487 0
M  V30 6442 H 619.319 -4.12513 2.80419 0
M  V30 6443 H 618.473 -5.92857 1.28862 0
M  V30 6444 H 617.212 -4.83261 0.656534 0
M  V30 6445 H 616.217 -4.63757 2.95313 0
M  V30 6446 H 617.442 -5.76799 3.5844 0
M  V30 6447 H 615.388 -6.40185 1.43177 0
M  V30 6448 H 615.305 -6.89978 3.08977 0
M  V30 6449 H 616.573 -7.51461 2.07187 0
M  V30 6450 N 620.802 -1.09834 -1.13024 0
M  V30 6451 C 621.712 -0.753731 -2.22162 0
M  V30 6452 C 622.728 0.246105 -1.72251 0
M  V30 6453 O 623.904 0.0864051 -2.01215 0
M  V30 6454 C 620.969 -0.183958 -3.46212 0
M  V30 6455 C 620.03 -1.24028 -4.10993 0
M  V30 6456 C 619.263 -0.697597 -5.29121 0
M  V30 6457 O 619.486 0.478092 -5.68393 0
M  V30 6458 O 618.42 -1.4546 -5.84059 0
M  V30 6459 H 622.246 -1.66456 -2.5402 0
M  V30 6460 H 619.831 -0.873026 -1.21238 0
M  V30 6461 H 621.713 0.130257 -4.21199 0
M  V30 6462 H 620.388 0.699823 -3.16045 0
M  V30 6463 H 619.295 -1.60725 -3.37814 0
M  V30 6464 H 620.628 -2.09685 -4.45301 0
M  V30 6465 N 622.28 1.30327 -0.886154 0
M  V30 6466 C 623.21 2.30549 -0.370028 0
M  V30 6467 C 624.191 1.61039 0.547751 0
M  V30 6468 O 625.376 1.8864 0.461353 0
M  V30 6469 C 622.506 3.44808 0.415275 0
M  V30 6470 C 621.46 4.26024 -0.41085 0
M  V30 6471 C 620.786 5.32347 0.501128 0
M  V30 6472 C 622.086 4.95433 -1.65359 0
M  V30 6473 H 623.78 2.73969 -1.20754 0
M  V30 6474 H 621.326 1.3171 -0.582097 0
M  V30 6475 H 623.279 4.13986 0.78699 0
M  V30 6476 H 622.003 3.00197 1.28644 0
M  V30 6477 H 620.662 3.58535 -0.764719 0
M  V30 6478 H 620.31 4.83982 1.37004 0
M  V30 6479 H 620.01 5.87581 -0.0478356 0
M  V30 6480 H 621.534 6.0438 0.869333 0
M  V30 6481 H 622.948 5.5712 -1.35239 0
M  V30 6482 H 621.345 5.60537 -2.14284 0
M  V30 6483 H 622.415 4.21493 -2.39733 0
M  V30 6484 N 623.758 0.647228 1.43697 0
M  V30 6485 C 624.708 -0.0702191 2.27892 0
M  V30 6486 C 625.692 -0.800601 1.39568 0
M  V30 6487 O 626.884 -0.684055 1.63247 0
M  V30 6488 C 624.013 -1.04008 3.27165 0
M  V30 6489 C 623.099 -0.308484 4.22977 0
M  V30 6490 N 623.49 0.671721 5.0132 0
M  V30 6491 C 621.788 -0.550751 4.42586 0
M  V30 6492 C 622.489 1.10543 5.711 0
M  V30 6493 N 621.465 0.440903 5.41809 0
M  V30 6494 H 625.267 0.682031 2.85877 0
M  V30 6495 H 622.781 0.474022 1.55328 0
M  V30 6496 H 624.778 -1.56881 3.86256 0
M  V30 6497 H 623.438 -1.79246 2.70742 0
M  V30 6498 H 624.449 1.0502 5.0714 0
M  V30 6499 H 621.126 -1.28476 3.97241 0
M  V30 6500 H 622.516 1.91614 6.43998 0
M  V30 6501 N 625.236 -1.5273 0.388769 0
M  V30 6502 C 626.199 -2.25043 -0.434544 0
M  V30 6503 C 627.199 -1.26661 -0.990644 0
M  V30 6504 O 628.389 -1.50762 -0.872731 0
M  V30 6505 C 625.521 -3.00507 -1.60961 0
M  V30 6506 H 626.714 -2.99242 0.198549 0
M  V30 6507 H 624.267 -1.55664 0.140875 0
M  V30 6508 H 625.002 -2.30607 -2.28015 0
M  V30 6509 H 624.787 -3.72716 -1.21757 0
M  V30 6510 H 626.277 -3.55413 -2.19251 0
M  V30 6511 N 626.714 -0.118576 -1.57153 0
M  V30 6512 C 627.661 0.831789 -2.1529 0
M  V30 6513 C 628.631 1.26385 -1.07778 0
M  V30 6514 O 629.816 1.34144 -1.35684 0
M  V30 6515 C 626.956 2.07664 -2.75626 0
M  V30 6516 C 626.069 1.69298 -3.97444 0
M  V30 6517 C 625.204 2.88747 -4.45868 0
M  V30 6518 C 624.243 2.46619 -5.60219 0
M  V30 6519 N 623.38 3.5898 -6.03389 0
M  V30 6520 H 628.22 0.329183 -2.96176 0
M  V30 6521 H 625.757 0.150792 -1.46325 0
M  V30 6522 H 627.715 2.80601 -3.08738 0
M  V30 6523 H 626.345 2.55384 -1.97431 0
M  V30 6524 H 625.397 0.862374 -3.70496 0
M  V30 6525 H 626.709 1.34338 -4.80369 0
M  V30 6526 H 625.863 3.69909 -4.80887 0
M  V30 6527 H 624.602 3.26933 -3.61892 0
M  V30 6528 H 623.607 1.63889 -5.24805 0
M  V30 6529 H 624.832 2.0955 -6.45961 0
M  V30 6530 H 622.778 3.9684 -5.22354 0
M  V30 6531 H 622.695 3.27942 -6.81168 0
M  V30 6532 H 623.963 4.40583 -6.43045 0
M  V30 6533 N 628.193 1.56834 0.155195 0
M  V30 6534 C 629.125 1.94235 1.21677 0
M  V30 6535 C 630.138 0.83724 1.39621 0
M  V30 6536 O 631.327 1.11567 1.39338 0
M  V30 6537 C 628.427 2.19402 2.58294 0
M  V30 6538 C 627.6 3.50671 2.61436 0
M  V30 6539 C 626.659 3.64475 3.79532 0
M  V30 6540 O 625.685 4.36945 3.64784 0
M  V30 6541 N 626.887 3.00526 4.96653 0
M  V30 6542 H 629.652 2.85901 0.898932 0
M  V30 6543 H 627.213 1.58185 0.34483 0
M  V30 6544 H 629.205 2.25886 3.35794 0
M  V30 6545 H 627.775 1.34042 2.82403 0
M  V30 6546 H 626.995 3.55702 1.69912 0
M  V30 6547 H 628.283 4.3702 2.60559 0
M  V30 6548 H 627.681 2.41549 5.11538 0
M  V30 6549 H 626.238 3.12583 5.71958 0
M  V30 6550 N 629.671 -0.424282 1.51781 0
M  V30 6551 C 630.917 -1.17434 1.6534 0
M  V30 6552 C 631.25 -1.90549 0.374806 0
M  V30 6553 O 630.525 -1.84145 -0.626179 0
M  V30 6554 C 630.808 -2.18093 2.86544 0
M  V30 6555 C 630.661 -1.48975 4.24413 0
M  V30 6556 C 631.98 -3.18934 3.03264 0
M  V30 6557 H 629.099 -0.425566 0.601716 0
M  V30 6558 H 631.741 -0.461921 1.84299 0
M  V30 6559 H 629.891 -2.78849 2.7051 0
M  V30 6560 H 631.563 -0.914551 4.52143 0
M  V30 6561 H 629.806 -0.791893 4.26511 0
M  V30 6562 H 630.477 -2.22347 5.05238 0
M  V30 6563 H 632.953 -2.68243 3.18096 0
M  V30 6564 H 631.829 -3.86645 3.89611 0
M  V30 6565 H 632.09 -3.85793 2.15908 0
M  V30 6566 N 631.149 -1.42148 -0.680565 0
M  V30 6567 C 632.395 -1.42521 -1.44277 0
M  V30 6568 C 632.728 -0.0393718 -1.9416 0
M  V30 6569 O 632.003 0.935425 -1.70529 0
M  V30 6570 C 632.286 -2.44475 -2.64394 0
M  V30 6571 C 632.139 -3.92226 -2.20179 0
M  V30 6572 C 633.458 -2.43491 -3.66606 0
M  V30 6573 H 630.577 -0.518985 -0.523282 0
M  V30 6574 H 633.219 -1.73524 -0.773914 0
M  V30 6575 H 631.369 -2.18168 -3.21458 0
M  V30 6576 H 633.041 -4.29493 -1.68327 0
M  V30 6577 H 631.284 -4.0637 -1.5181 0
M  V30 6578 H 631.955 -4.59133 -3.06433 0
M  V30 6579 H 634.431 -2.66872 -3.19247 0
M  V30 6580 H 633.307 -3.16816 -4.4824 0
M  V30 6581 H 633.568 -1.45881 -4.17338 0
M  V30 6582 O 632.666 0.823011 -1.38956 0
M  V30 6583 H 633.357 1.46633 -1.26564 0
M  V30 END ATOM
M  V30 BEGIN BOND
M  V30 END BOND
M  V30 END CTAB
M  END
$$$$
