drugbank_target|O07653 Cellulase B (DB02379)
 OpenBabel12092120243D

  0  0  0     0  0            999 V3000
M  V30 BEGIN CTAB
M  V30 COUNTS 9065 9181 0 0 0
M  V30 BEGIN ATOM
M  V30 1 H -0.908 1.98254 -0.117106 0
M  V30 2 N 0 1.576 0 0
M  V30 3 C 0.933 2.03868 1.02534 0
M  V30 4 C 1.911 0.928543 1.3348 0
M  V30 5 O 3.095 1.19667 1.45644 0
M  V30 6 C 0.222 2.43627 2.35294 0
M  V30 7 C -0.732 3.65373 2.2001 0
M  V30 8 S 0.101 5.13292 1.52614 0
M  V30 9 C 1.257 5.56322 2.86805 0
M  V30 10 H 1.49 2.90518 0.631377 0
M  V30 11 H -0.977 1.52953 0.210867 0
M  V30 12 H 0.981 2.67203 3.11629 0
M  V30 13 H -0.358 1.57376 2.7183 0
M  V30 14 H -1.165 3.90944 3.18086 0
M  V30 15 H -1.563 3.418 1.51819 0
M  V30 16 H 0.729 5.58782 3.83104 0
M  V30 17 H 1.672 6.56266 2.65933 0
M  V30 18 H 2.08 4.83886 2.90714 0
M  V30 19 N 1.4781 -0.272755 1.55222 0
M  V30 20 C 2.4251 -1.33716 1.88119 0
M  V30 21 C 3.3951 -1.49066 0.73271 0
M  V30 22 O 4.5801 -1.63469 0.984002 0
M  V30 23 C 1.7201 -2.69238 2.15882 0
M  V30 24 C 0.8331 -2.62108 3.43399 0
M  V30 25 C -0.0319 -3.89811 3.60861 0
M  V30 26 C -0.9929 -3.77193 4.8207 0
M  V30 27 N -1.8559 -4.9673 4.96189 0
M  V30 28 H 2.9841 -1.04962 2.78903 0
M  V30 29 H 0.5211 -0.507088 1.38083 0
M  V30 30 H 2.4791 -3.48089 2.29978 0
M  V30 31 H 1.1091 -2.96194 1.28331 0
M  V30 32 H 0.1611 -1.74967 3.37773 0
M  V30 33 H 1.4731 -2.48685 4.32386 0
M  V30 34 H 0.6271 -4.77103 3.74777 0
M  V30 35 H -0.6339 -4.06102 2.7006 0
M  V30 36 H -1.6289 -2.88284 4.68159 0
M  V30 37 H -0.4039 -3.62421 5.74307 0
M  V30 38 H -2.4579 -5.13431 4.08319 0
M  V30 39 H -2.5409 -4.85839 5.79221 0
M  V30 40 H -1.2729 -5.85594 5.1449 0
M  V30 41 N 2.9562 -1.48159 -0.537278 0
M  V30 42 C 3.9042 -1.62573 -1.66352 0
M  V30 43 C 4.8982 -0.492366 -1.62087 0
M  V30 44 O 6.1042 -0.670847 -1.67032 0
M  V30 45 H 2.4792 -0.511992 -0.550789 0
M  V30 46 H 4.4502 -2.57176 -1.51337 0
M  V30 47 C 3.1992 -1.67583 -3.04649 0
M  V30 48 H 2.5222 -2.54151 -3.08622 0
M  V30 49 H 3.9622 -1.81713 -3.83088 0
M  V30 50 C 2.4212 -0.413039 -3.34358 0
M  V30 51 O 2.9512 0.477259 -3.98855 0
M  V30 52 N 1.1572 -0.286961 -2.8918 0
M  V30 53 H 0.7042 -1.01241 -2.36871 0
M  V30 54 H 0.6622 0.556963 -3.09427 0
M  V30 55 N 4.4343 0.785586 -1.36625 0
M  V30 56 C 5.3823 1.91978 -1.31329 0
M  V30 57 C 6.3763 1.68162 -0.204416 0
M  V30 58 O 7.5823 1.76122 -0.371645 0
M  V30 59 H 3.9573 0.631087 -0.408942 0
M  V30 60 H 5.9283 1.93562 -2.27104 0
M  V30 61 C 4.6773 3.29055 -1.12329 0
M  V30 62 H 4.0003 3.4795 -1.96903 0
M  V30 63 H 5.4403 4.08756 -1.12671 0
M  V30 64 C 3.8993 3.36461 0.171861 0
M  V30 65 O 4.4293 3.84576 1.16035 0
M  V30 66 N 2.6353 2.89782 0.217846 0
M  V30 67 H 2.1823 2.50819 -0.587183 0
M  V30 68 H 2.1403 2.95119 1.08408 0
M  V30 69 N 5.9124 1.20967 1.01018 0
M  V30 70 C 6.8624 0.93182 2.08089 0
M  V30 71 C 7.8464 -0.110898 1.60517 0
M  V30 72 O 9.0384 0.0973392 1.76732 0
M  V30 73 C 6.1674 0.492719 3.39746 0
M  V30 74 C 5.2534 1.56922 3.94 0
M  V30 75 N 5.6444 2.79312 4.21686 0
M  V30 76 C 3.9424 1.43688 4.2222 0
M  V30 77 C 4.6434 3.48797 4.65527 0
M  V30 78 N 3.6194 2.76224 4.68189 0
M  V30 79 H 7.4214 1.86175 2.27412 0
M  V30 80 H 4.9354 1.10463 1.19045 0
M  V30 81 H 6.9324 0.275044 4.15992 0
M  V30 82 H 5.5924 -0.430509 3.21833 0
M  V30 83 H 6.6034 3.15903 4.10397 0
M  V30 84 H 3.2804 0.578548 4.13472 0
M  V30 85 H 4.6704 4.53561 4.95714 0
M  V30 86 N 7.3905 -1.2043 1.01659 0
M  V30 87 C 8.8015 -1.71517 0.737482 0
M  V30 88 C 9.1525 -1.81547 -0.743973 0
M  V30 89 O 8.2775 -1.47803 -1.58061 0
M  V30 90 C 8.8725 -3.11515 1.33206 0
M  V30 91 C 7.4315 -3.59912 1.10183 0
M  V30 92 C 6.5785 -2.37116 1.43776 0
M  V30 93 H 9.5295 -1.05444 1.18606 0
M  V30 94 H 9.5505 -3.73575 0.722636 0
M  V30 95 H 9.0625 -3.04182 2.41028 0
M  V30 96 H 7.1635 -3.72577 0.0412756 0
M  V30 97 H 7.2765 -4.44731 1.78188 0
M  V30 98 H 5.6405 -2.39857 0.856778 0
M  V30 99 H 6.4235 -2.32424 2.52654 0
M  V30 100 N 8.8686 -0.792821 -1.36206 0
M  V30 101 C 10.1166 -0.366062 -1.98757 0
M  V30 102 C 10.4376 1.0668 -1.63231 0
M  V30 103 O 9.7076 1.73587 -0.907978 0
M  V30 104 H 8.2876 -0.132364 -0.735179 0
M  V30 105 H 10.9496 -1.01562 -1.66347 0
M  V30 106 H 10.0456 -0.460638 -3.08682 0
M  V30 107 N 10.3467 1.47872 -0.545128 0
M  V30 108 C 11.5867 2.04391 -0.0187854 0
M  V30 109 C 11.9507 1.41162 1.30144 0
M  V30 110 O 13.1517 1.88656 1.91474 0
M  V30 111 C 11.4227 3.57299 0.0850867 0
M  V30 112 S 12.9817 4.35221 0.559302 0
M  V30 113 H 9.7997 0.710737 -0.0193301 0
M  V30 114 H 12.4017 1.81395 -0.729125 0
M  V30 115 H 11.1057 4.00847 -0.880351 0
M  V30 116 H 10.6367 3.84773 0.819348 0
M  V30 117 H 12.6517 4.61571 1.82118 0
M  V30 118 N 11.8248 0.280983 1.55075 0
M  V30 119 C 12.7878 -0.590896 2.21452 0
M  V30 120 C 13.7878 -1.07682 1.19421 0
M  V30 121 O 14.9778 -0.97605 1.44288 0
M  V30 122 C 12.1098 -1.81587 2.88511 0
M  V30 123 H 13.3028 -0.0112554 2.99898 0
M  V30 124 H 10.8558 0.0316438 1.56268 0
M  V30 125 H 11.5908 -2.43587 2.14093 0
M  V30 126 H 11.3758 -1.4753 3.63287 0
M  V30 127 H 12.8658 -2.43575 3.39206 0
M  V30 128 N 13.3029 -1.57598 0.00835791 0
M  V30 129 C 14.2659 -2.07884 -0.965242 0
M  V30 130 C 15.2659 -0.989825 -1.26725 0
M  V30 131 O 16.4559 -1.25218 -1.21104 0
M  V30 132 C 13.5879 -2.52731 -2.28779 0
M  V30 133 H 14.7809 -2.95178 -0.530112 0
M  V30 134 H 12.3339 -1.54458 -0.239283 0
M  V30 135 H 13.0689 -1.68705 -2.76964 0
M  V30 136 H 12.8539 -3.32272 -2.08177 0
M  V30 137 H 14.3439 -2.91933 -2.98605 0
M  V30 138 N 14.781 0.264519 -1.55364 0
M  V30 139 C 16.192 0.834936 -1.6699 0
M  V30 140 C 16.543 1.86718 -0.602552 0
M  V30 141 O 15.668 2.14899 0.254425 0
M  V30 142 C 16.263 1.5212 -3.02729 0
M  V30 143 C 14.822 2.03954 -3.16354 0
M  V30 144 C 13.969 0.884498 -2.62815 0
M  V30 145 H 16.92 0.0406869 -1.58648 0
M  V30 146 H 16.941 2.38853 -2.96191 0
M  V30 147 H 16.453 0.769668 -3.80392 0
M  V30 148 H 14.554 2.82041 -2.43482 0
M  V30 149 H 14.667 2.24902 -4.23032 0
M  V30 150 H 13.031 1.2802 -2.20188 0
M  V30 151 H 13.814 0.14634 -3.42988 0
M  V30 152 N 16.2591 1.48442 0.529413 0
M  V30 153 C 17.4871 1.60151 1.30994 0
M  V30 154 C 17.9021 0.261985 1.86973 0
M  V30 155 O 17.2591 -0.748805 1.66431 0
M  V30 156 C 17.3101 2.64854 2.46038 0
M  V30 157 O 17.0311 3.93608 1.92365 0
M  V30 158 C 18.5321 2.87007 3.37849 0
M  V30 159 H 15.7521 0.539971 0.398338 0
M  V30 160 H 18.2961 1.94273 0.638597 0
M  V30 161 H 16.4511 2.33589 3.09055 0
M  V30 162 H 16.8651 4.51055 2.67675 0
M  V30 163 H 18.3391 3.64068 4.14919 0
M  V30 164 H 18.8161 1.95852 3.93114 0
M  V30 165 H 19.4221 3.19579 2.80623 0
M  V30 166 N 17.7372 -0.778329 1.37039 0
M  V30 167 C 18.7002 -1.87301 1.32102 0
M  V30 168 C 19.7002 -1.59198 0.226405 0
M  V30 169 O 20.8902 -1.67403 0.481861 0
M  V30 170 C 18.0222 -3.24309 1.05055 0
M  V30 171 H 19.2152 -1.93093 2.29467 0
M  V30 172 H 16.7682 -0.977358 1.21973 0
M  V30 173 H 17.5032 -3.24196 0.0819373 0
M  V30 174 H 17.2882 -3.46098 1.84279 0
M  V30 175 H 18.7782 -4.04382 1.04234 0
M  V30 176 N 19.2153 -1.21501 -1.00376 0
M  V30 177 C 20.1783 -0.976927 -2.07337 0
M  V30 178 C 21.1783 0.0525322 -1.60714 0
M  V30 179 O 22.3683 -0.184869 -1.73216 0
M  V30 180 C 19.5003 -0.473423 -3.37597 0
M  V30 181 H 20.6933 -1.92587 -2.29892 0
M  V30 182 H 18.2463 -1.03217 -1.17371 0
M  V30 183 H 18.9813 0.480379 -3.20722 0
M  V30 184 H 18.7663 -1.216 -3.72768 0
M  V30 185 H 20.2563 -0.32675 -4.1632 0
M  V30 186 N 20.6934 1.19889 -1.02296 0
M  V30 187 C 22.1094 1.41462 -0.738954 0
M  V30 188 C 22.3094 1.89721 0.678846 0
M  V30 189 O 21.3654 2.07016 1.4457 0
M  V30 190 C 22.6784 2.43083 -1.77005 0
M  V30 191 C 24.2264 2.5684 -1.78892 0
M  V30 192 C 24.7014 3.61709 -2.80945 0
M  V30 193 N 26.1924 3.69199 -2.79725 0
M  V30 194 C 26.9274 4.50019 -3.55345 0
M  V30 195 N 26.4234 5.34592 -4.40662 0
M  V30 196 N 28.2164 4.44612 -3.43914 0
M  V30 197 H 20.3674 0.868827 -1.93817 0
M  V30 198 H 22.6304 0.44399 -0.837602 0
M  V30 199 H 22.3364 2.14636 -2.78612 0
M  V30 200 H 22.2104 3.4217 -1.58744 0
M  V30 201 H 24.5974 2.84614 -0.779674 0
M  V30 202 H 24.6784 1.57927 -2.01228 0
M  V30 203 H 24.3224 3.34678 -3.82038 0
M  V30 204 H 24.2524 4.60259 -2.5587 0
M  V30 205 H 26.7434 3.08794 -2.17842 0
M  V30 206 H 27.0564 5.93363 -4.95116 0
M  V30 207 H 25.4014 5.34073 -4.44737 0
M  V30 208 H 28.5924 3.7758 -2.76679 0
M  V30 209 H 28.7654 5.0736 -4.031 0
M  V30 210 N 22.1715 0.800033 1.35784 0
M  V30 211 C 23.3965 0.388511 2.03729 0
M  V30 212 C 23.8215 -0.990481 1.5991 0
M  V30 213 O 23.1795 -1.64013 0.772612 0
M  V30 214 C 23.2275 0.4726 3.5749 0
M  V30 215 O 22.3315 -0.51646 4.09153 0
M  V30 216 H 21.6725 0.163271 0.643614 0
M  V30 217 H 24.2025 1.0841 1.73518 0
M  V30 218 H 24.2125 0.34003 4.06581 0
M  V30 219 H 22.8875 1.47848 3.88734 0
M  V30 220 H 21.4645 -0.344673 3.71304 0
M  V30 221 N 23.6496 -1.47581 0.552962 0
M  V30 222 C 24.8776 -2.06875 0.0320556 0
M  V30 223 C 25.2926 -1.40625 -1.25976 0
M  V30 224 O 24.6496 -0.501349 -1.75479 0
M  V30 225 C 24.7006 -3.61092 -0.17167 0
M  V30 226 O 24.4216 -4.24858 1.06899 0
M  V30 227 C 25.9226 -4.37242 -0.730344 0
M  V30 228 H 23.1426 -0.669561 0.043915 0
M  V30 229 H 25.6866 -1.89646 0.765163 0
M  V30 230 H 23.8416 -3.7785 -0.854894 0
M  V30 231 H 24.2556 -5.17334 0.864059 0
M  V30 232 H 25.7296 -5.45842 -0.822203 0
M  V30 233 H 26.2066 -4.03235 -1.74064 0
M  V30 234 H 26.8126 -4.25219 -0.0829543 0
M  V30 235 N 25.1277 -0.289203 -1.54924 0
M  V30 236 C 26.0757 0.607966 -2.24514 0
M  V30 237 C 27.0697 1.14655 -1.24702 0
M  V30 238 O 28.2757 1.09856 -1.4259 0
M  V30 239 H 24.6507 0.21464 -0.720718 0
M  V30 240 H 26.6217 -0.00164182 -2.984 0
M  V30 241 C 25.3707 1.77406 -2.99036 0
M  V30 242 H 24.6937 1.36884 -3.75637 0
M  V30 243 H 26.1337 2.37814 -3.51028 0
M  V30 244 C 24.5927 2.67107 -2.05318 0
M  V30 245 O 25.1227 3.6787 -1.61353 0
M  V30 246 N 23.3287 2.34582 -1.71521 0
M  V30 247 H 22.8757 1.52688 -2.07471 0
M  V30 248 H 22.8337 2.94867 -1.0909 0
M  V30 249 N 26.6058 1.57591 -0.0167156 0
M  V30 250 C 28.0168 1.79201 0.523834 0
M  V30 251 C 28.3678 0.925796 1.72984 0
M  V30 252 O 27.4928 0.132792 2.15992 0
M  V30 253 C 28.0878 3.25 0.957091 0
M  V30 254 C 26.6468 3.47648 1.44283 0
M  V30 255 C 25.7938 2.74374 0.401757 0
M  V30 256 H 28.7448 1.56831 -0.242816 0
M  V30 257 H 28.7658 3.34031 1.82219 0
M  V30 258 H 28.2778 3.88019 0.0791415 0
M  V30 259 H 26.3788 2.89866 2.34113 0
M  V30 260 H 26.4918 4.56352 1.45877 0
M  V30 261 H 24.8558 2.39485 0.867121 0
M  V30 262 H 25.6388 3.40102 -0.467513 0
M  V30 263 N 28.0839 -0.256276 1.55502 0
M  V30 264 C 29.4999 -0.604325 1.47716 0
M  V30 265 C 29.6999 -1.88763 0.705039 0
M  V30 266 O 28.7559 -2.51445 0.230613 0
M  V30 267 C 30.0689 -0.715756 2.92057 0
M  V30 268 C 31.6169 -0.808706 3.02372 0
M  V30 269 C 32.0919 -0.951777 4.48001 0
M  V30 270 N 33.5829 -1.01688 4.519 0
M  V30 271 C 34.3179 -1.14668 5.61817 0
M  V30 272 N 33.8139 -1.24261 6.81565 0
M  V30 273 N 35.6069 -1.1791 5.49594 0
M  V30 274 H 27.7579 0.586291 2.04148 0
M  V30 275 H 30.0209 0.201015 0.926443 0
M  V30 276 H 29.7269 0.157027 3.51349 0
M  V30 277 H 29.6009 -1.59071 3.42018 0
M  V30 278 H 31.9879 -1.67195 2.43166 0
M  V30 279 H 32.0689 0.0912063 2.55637 0
M  V30 280 H 31.7129 -0.0931291 5.07815 0
M  V30 281 H 31.6429 -1.86659 4.92408 0
M  V30 282 H 34.1339 -0.954468 3.65648 0
M  V30 283 H 34.4469 -1.34046 7.61086 0
M  V30 284 H 32.7919 -1.21236 6.84344 0
M  V30 285 H 35.9829 -1.10057 4.54978 0
M  V30 286 H 36.1559 -1.27681 6.35296 0
M  V30 287 N 29.562 -1.4872 -0.521534 0
M  V30 288 C 30.51 -1.64328 -1.64618 0
M  V30 289 C 31.504 -0.50953 -1.61555 0
M  V30 290 O 32.71 -0.688525 -1.66311 0
M  V30 291 H 29.085 -0.517805 -0.545328 0
M  V30 292 H 31.056 -2.58767 -1.48601 0
M  V30 293 C 29.805 -1.70805 -3.02855 0
M  V30 294 H 29.128 -2.5741 -3.05909 0
M  V30 295 H 30.568 -1.85766 -3.81139 0
M  V30 296 C 29.027 -0.448479 -3.33902 0
M  V30 297 O 29.557 0.434928 -3.99339 0
M  V30 298 N 27.763 -0.317616 -2.88859 0
M  V30 299 H 27.31 -1.03748 -2.35784 0
M  V30 300 H 27.268 0.524113 -3.10001 0
M  V30 301 N 31.0401 0.771051 -1.3745 0
M  V30 302 C 32.4561 1.07171 -1.18265 0
M  V30 303 C 32.6561 2.01491 -0.019287 0
M  V30 304 O 31.7121 2.44244 0.640408 0
M  V30 305 C 33.0251 1.66854 -2.50161 0
M  V30 306 C 34.5731 1.79109 -2.56689 0
M  V30 307 C 35.0481 2.42205 -3.88717 0
M  V30 308 N 36.5391 2.49655 -3.90162 0
M  V30 309 C 37.2741 2.9933 -4.8907 0
M  V30 310 N 36.7701 3.49172 -5.98374 0
M  V30 311 N 38.5631 2.9821 -4.76474 0
M  V30 312 H 30.7141 0.144796 -2.11906 0
M  V30 313 H 32.9771 0.126863 -0.939473 0
M  V30 314 H 32.6831 1.05017 -3.35655 0
M  V30 315 H 32.5571 2.6614 -2.673 0
M  V30 316 H 34.9441 2.40077 -1.71601 0
M  V30 317 H 35.0251 0.785757 -2.43433 0
M  V30 318 H 34.6691 1.81875 -4.74219 0
M  V30 319 H 34.5991 3.43345 -3.99276 0
M  V30 320 H 37.0901 2.14383 -3.11205 0
M  V30 321 H 37.4031 3.8548 -6.69795 0
M  V30 322 H 35.7481 3.47275 -6.02018 0
M  V30 323 H 38.9391 2.58572 -3.90203 0
M  V30 324 H 39.1121 3.36613 -5.53711 0
M  V30 325 N 32.5182 1.22032 0.997298 0
M  V30 326 C 33.4482 1.01065 2.10495 0
M  V30 327 C 34.4292 -0.0669542 1.69968 0
M  V30 328 O 35.6142 0.0943987 1.9397 0
M  V30 329 C 32.7442 0.582874 3.42374 0
M  V30 330 C 31.6982 1.60592 3.96729 0
M  V30 331 C 31.0242 1.03412 5.24605 0
M  V30 332 C 32.3242 2.99478 4.27914 0
M  V30 333 H 34.0182 1.93708 2.28292 0
M  V30 334 H 31.5642 0.932761 1.09707 0
M  V30 335 H 33.5172 0.423332 4.19268 0
M  V30 336 H 32.2412 -0.379213 3.24391 0
M  V30 337 H 30.9002 1.75316 3.21963 0
M  V30 338 H 30.5482 0.063518 5.0296 0
M  V30 339 H 30.2482 1.71754 5.61938 0
M  V30 340 H 31.7722 0.886066 6.04137 0
M  V30 341 H 33.1862 2.88153 4.95622 0
M  V30 342 H 31.5832 3.64903 4.76409 0
M  V30 343 H 32.6532 3.49742 3.3587 0
M  V30 344 N 33.9963 -1.19345 1.0293 0
M  V30 345 C 35.2433 -1.89038 0.726008 0
M  V30 346 C 35.5713 -1.79649 -0.745427 0
M  V30 347 O 34.8263 -1.18354 -1.55855 0
M  V30 348 C 35.1253 -3.39292 1.12319 0
M  V30 349 C 34.7913 -3.68885 2.59297 0
M  V30 350 C 33.4533 -3.76671 2.99453 0
M  V30 351 C 35.8053 -3.82178 3.54386 0
M  V30 352 C 33.1333 -3.9522 4.33611 0
M  V30 353 C 35.4853 -4.0224 4.88248 0
M  V30 354 C 34.1493 -4.08259 5.28092 0
M  V30 355 H 33.4193 -0.691739 0.265665 0
M  V30 356 H 36.0663 -1.41328 1.29223 0
M  V30 357 H 34.3713 -3.88903 0.475584 0
M  V30 358 H 36.0683 -3.91536 0.866037 0
M  V30 359 H 32.6583 -3.63433 2.27189 0
M  V30 360 H 36.8423 -3.75505 3.24514 0
M  V30 361 H 32.0983 -3.98119 4.64016 0
M  V30 362 H 36.2723 -4.11468 5.61843 0
M  V30 363 H 33.8993 -4.22384 6.32057 0
M  V30 364 N 35.4744 -0.807222 -1.35358 0
M  V30 365 C 36.4374 -0.223665 -2.28106 0
M  V30 366 C 37.4374 0.589354 -1.4961 0
M  V30 367 O 38.6274 0.407745 -1.69361 0
M  V30 368 C 35.7594 0.688149 -3.33882 0
M  V30 369 H 36.9524 -1.04169 -2.81227 0
M  V30 370 H 34.5054 -0.577921 -1.45223 0
M  V30 371 H 35.2404 1.52984 -2.85948 0
M  V30 372 H 35.0254 0.10687 -3.91954 0
M  V30 373 H 36.5154 1.09075 -4.03104 0
M  V30 374 N 36.9525 1.47285 -0.560781 0
M  V30 375 C 38.1775 2.07359 -0.0410566 0
M  V30 376 C 38.6025 1.41017 1.24483 0
M  V30 377 O 37.9605 0.486368 1.74654 0
M  V30 378 C 38.0085 3.6035 0.134123 0
M  V30 379 O 37.1125 3.94681 1.19587 0
M  V30 380 H 36.4535 0.661887 -0.0529291 0
M  V30 381 H 38.9835 1.89252 -0.777482 0
M  V30 382 H 38.9935 4.0652 0.347207 0
M  V30 383 H 37.6685 4.08034 -0.805047 0
M  V30 384 H 36.2455 3.60251 0.962987 0
M  V30 385 N 38.4306 0.297415 1.54768 0
M  V30 386 C 39.3606 -0.573494 2.26348 0
M  V30 387 C 40.3416 -1.14085 1.26169 0
M  V30 388 O 41.5266 -1.17086 1.54934 0
M  V30 389 C 38.6566 -1.74716 3.00153 0
M  V30 390 C 37.6106 -1.31032 4.07449 0
M  V30 391 C 36.9366 -2.56887 4.68949 0
M  V30 392 C 38.2366 -0.444183 5.20408 0
M  V30 393 H 39.9306 0.0235131 2.99391 0
M  V30 394 H 37.4766 0.0127488 1.43994 0
M  V30 395 H 39.4296 -2.3625 3.48947 0
M  V30 396 H 38.1536 -2.37035 2.24682 0
M  V30 397 H 36.8126 -0.718066 3.59499 0
M  V30 398 H 36.4606 -3.17512 3.90122 0
M  V30 399 H 36.1606 -2.2836 5.41411 0
M  V30 400 H 37.6846 -3.19229 5.20505 0
M  V30 401 H 39.0986 -0.9651 5.65118 0
M  V30 402 H 37.4956 -0.252846 5.99567 0
M  V30 403 H 38.5656 0.531609 4.81977 0
M  V30 404 N 39.9087 -1.5758 0.0250728 0
M  V30 405 C 41.1547 -1.91917 -0.655413 0
M  V30 406 C 41.4877 -0.901433 -1.72011 0
M  V30 407 O 40.7627 0.0764069 -1.9435 0
M  V30 408 C 41.0457 -3.36751 -1.27558 0
M  V30 409 C 40.8987 -4.49258 -0.220719 0
M  V30 410 C 42.2177 -3.81469 -2.19475 0
M  V30 411 H 39.3367 -0.697925 -0.23679 0
M  V30 412 H 41.9787 -1.89825 0.0815036 0
M  V30 413 H 40.1287 -3.38664 -1.90365 0
M  V30 414 H 41.8007 -4.59478 0.409601 0
M  V30 415 H 40.0437 -4.31415 0.454264 0
M  V30 416 H 40.7147 -5.47618 -0.694175 0
M  V30 417 H 43.1907 -3.81266 -1.66659 0
M  V30 418 H 42.0667 -4.83512 -2.59822 0
M  V30 419 H 42.3277 -3.16744 -3.08424 0
M  V30 420 N 41.3868 0.248026 -1.55636 0
M  V30 421 C 42.6148 0.993808 -1.81469 0
M  V30 422 C 43.0298 1.78991 -0.60064 0
M  V30 423 O 42.3868 1.77345 0.430682 0
M  V30 424 C 42.4378 1.93258 -3.05506 0
M  V30 425 O 42.1588 1.16869 -4.22224 0
M  V30 426 C 43.6598 2.79444 -3.4413 0
M  V30 427 H 40.8798 0.292486 -0.603898 0
M  V30 428 H 43.4238 0.271253 -2.02693 0
M  V30 429 H 41.5788 2.60943 -2.86335 0
M  V30 430 H 41.9928 1.80359 -4.92515 0
M  V30 431 H 43.4668 3.41066 -4.34026 0
M  V30 432 H 43.9438 3.50499 -2.64665 0
M  V30 433 H 44.5498 2.17214 -3.65648 0
M  V30 434 N 42.8649 1.48995 0.513639 0
M  V30 435 C 44.1129 1.57531 1.26604 0
M  V30 436 C 44.4339 0.258236 1.93283 0
M  V30 437 O 43.7039 -0.721502 1.8213 0
M  V30 438 H 42.2839 0.580387 0.470276 0
M  V30 439 H 44.9459 1.85552 0.596373 0
M  V30 440 H 44.0419 2.36486 2.03669 0
M  V30 441 N 44.343 -0.763751 1.37857 0
M  V30 442 C 45.273 -1.89103 1.36975 0
M  V30 443 C 46.254 -1.68439 0.237152 0
M  V30 444 O 47.439 -1.8918 0.438713 0
M  V30 445 C 44.569 -3.26496 1.18395 0
M  V30 446 C 43.523 -3.61741 2.28751 0
M  V30 447 C 42.849 -4.97762 1.95286 0
M  V30 448 C 44.149 -3.67665 3.70972 0
M  V30 449 H 45.843 -1.90099 2.31307 0
M  V30 450 H 43.389 -0.91319 1.11341 0
M  V30 451 H 45.342 -4.05003 1.16406 0
M  V30 452 H 44.066 -3.25955 0.205215 0
M  V30 453 H 42.725 -2.85547 2.29909 0
M  V30 454 H 42.373 -4.93769 0.959221 0
M  V30 455 H 42.073 -5.22313 2.69189 0
M  V30 456 H 43.597 -5.7866 1.94898 0
M  V30 457 H 45.011 -4.36307 3.719 0
M  V30 458 H 43.408 -4.03718 4.43995 0
M  V30 459 H 44.478 -2.68134 4.0402 0
M  V30 460 N 45.8211 -1.22559 -0.990812 0
M  V30 461 C 46.7841 -0.998863 -2.0629 0
M  V30 462 C 47.7841 0.0354834 -1.60761 0
M  V30 463 O 48.9741 -0.203231 -1.7301 0
M  V30 464 C 46.1061 -0.509203 -3.37076 0
M  V30 465 H 47.2991 -1.95014 -2.27837 0
M  V30 466 H 44.8521 -1.04456 -1.16269 0
M  V30 467 H 45.5871 0.446335 -3.21214 0
M  V30 468 H 45.3721 -1.25547 -3.71457 0
M  V30 469 H 46.8621 -0.370888 -4.1595 0
M  V30 470 N 47.2992 1.18797 -1.03562 0
M  V30 471 C 48.5242 1.9314 -0.755764 0
M  V30 472 C 48.9492 1.7537 0.68022 0
M  V30 473 O 48.3072 1.06046 1.47051 0
M  V30 474 C 48.3552 3.42747 -1.12058 0
M  V30 475 O 47.4592 4.11683 -0.243124 0
M  V30 476 H 46.8002 0.602724 -0.278604 0
M  V30 477 H 49.3302 1.50678 -1.3841 0
M  V30 478 H 49.3402 3.93437 -1.08035 0
M  V30 479 H 48.0152 3.55002 -2.16672 0
M  V30 480 H 46.5922 3.71323 -0.342539 0
M  V30 481 N 48.7773 0.814389 1.34928 0
M  V30 482 C 50.0263 0.394871 1.97797 0
M  V30 483 C 50.3393 -1.04555 1.65311 0
M  V30 484 O 51.5453 -1.56856 2.21604 0
M  V30 485 C 50.0013 0.655103 3.53888 0
M  V30 486 C 49.6093 2.10858 3.95276 0
M  V30 487 C 51.3533 0.301329 4.23429 0
M  V30 488 C 49.2603 2.31415 5.44244 0
M  V30 489 H 48.1903 0.143913 0.740139 0
M  V30 490 H 50.8413 0.999544 1.53888 0
M  V30 491 H 49.2233 -0.0196253 3.95995 0
M  V30 492 H 50.3973 2.82176 3.64298 0
M  V30 493 H 48.7123 2.42297 3.38646 0
M  V30 494 H 51.3093 0.432869 5.32945 0
M  V30 495 H 51.6523 -0.75331 4.09428 0
M  V30 496 H 52.1853 0.930288 3.86769 0
M  V30 497 H 48.9243 3.35353 5.63222 0
M  V30 498 H 48.4443 1.6463 5.76764 0
M  V30 499 H 50.1233 2.13352 6.10811 0
M  V30 500 N 50.2554 -1.46986 0.568584 0
M  V30 501 C 51.2184 -2.28624 -0.162366 0
M  V30 502 C 52.2184 -1.37596 -0.832103 0
M  V30 503 O 53.4084 -1.60115 -0.68622 0
M  V30 504 C 50.5404 -3.17596 -1.23878 0
M  V30 505 H 51.7334 -2.94722 0.554899 0
M  V30 506 H 49.2864 -1.52863 0.325976 0
M  V30 507 H 50.0214 -2.56214 -1.98808 0
M  V30 508 H 49.8064 -3.846 -0.763219 0
M  V30 509 H 51.2964 -3.79078 -1.75185 0
M  V30 510 N 51.7335 -0.305618 -1.54608 0
M  V30 511 C 52.9805 0.302298 -2.00231 0
M  V30 512 C 53.3085 1.5354 -1.19398 0
M  V30 513 O 52.5635 1.93973 -0.259423 0
M  V30 514 C 52.8625 0.698983 -3.50498 0
M  V30 515 C 52.5285 -0.432903 -4.48817 0
M  V30 516 C 51.1905 -0.743622 -4.75419 0
M  V30 517 C 53.5425 -1.19409 -5.07337 0
M  V30 518 C 50.8705 -1.81857 -5.57804 0
M  V30 519 C 53.2225 -2.25899 -5.90891 0
M  V30 520 C 51.8865 -2.57572 -6.15803 0
M  V30 521 H 51.1565 0.110619 -0.732697 0
M  V30 522 H 53.8035 -0.425674 -1.86709 0
M  V30 523 H 52.1085 1.50711 -3.61654 0
M  V30 524 H 53.8055 1.1806 -3.83227 0
M  V30 525 H 50.3955 -0.18063 -4.28219 0
M  V30 526 H 54.5795 -0.967295 -4.86782 0
M  V30 527 H 49.8355 -2.06864 -5.75341 0
M  V30 528 H 54.0095 -2.85335 -6.35261 0
M  V30 529 H 51.6365 -3.40998 -6.7943 0
M  V30 530 N 53.2116 1.57565 -0.0334293 0
M  V30 531 C 54.4516 1.93844 0.648379 0
M  V30 532 C 54.8156 0.910387 1.69044 0
M  V30 533 O 56.0166 1.15952 2.42505 0
M  V30 534 C 54.2876 3.35017 1.24492 0
M  V30 535 S 55.8466 3.93229 1.94721 0
M  V30 536 H 52.6646 0.678231 0.213364 0
M  V30 537 H 55.2666 1.95254 -0.0981253 0
M  V30 538 H 53.9706 4.07652 0.474128 0
M  V30 539 H 53.5016 3.37061 2.02864 0
M  V30 540 H 55.5166 3.77014 3.22606 0
M  V30 541 N 54.6897 -0.239769 1.55765 0
M  V30 542 C 55.9147 -0.988373 1.82335 0
M  V30 543 C 56.3397 -1.77886 0.611421 0
M  V30 544 O 55.6977 -1.75889 -0.439639 0
M  V30 545 C 55.7457 -1.89627 3.06715 0
M  V30 546 O 54.8497 -2.98904 2.84131 0
M  V30 547 H 54.1907 -0.280858 0.601677 0
M  V30 548 H 56.7207 -0.258597 2.02959 0
M  V30 549 H 56.7307 -2.30957 3.36338 0
M  V30 550 H 55.4057 -1.31511 3.9456 0
M  V30 551 H 53.9827 -2.61651 2.65694 0
M  V30 552 N 56.1678 -1.49265 -0.50573 0
M  V30 553 C 57.3958 -1.62215 -1.28429 0
M  V30 554 C 57.8108 -0.291697 -1.86533 0
M  V30 555 O 57.1678 0.722233 -1.67601 0
M  V30 556 C 57.2188 -2.68735 -2.41793 0
M  V30 557 O 56.9398 -3.96619 -1.86078 0
M  V30 558 C 58.4408 -2.92346 -3.3324 0
M  V30 559 H 55.6608 -0.546239 -0.389697 0
M  V30 560 H 58.2048 -1.95265 -0.607609 0
M  V30 561 H 56.3598 -2.38476 -3.053 0
M  V30 562 H 56.7738 -4.55256 -2.60465 0
M  V30 563 H 58.2478 -3.70623 -4.09075 0
M  V30 564 H 58.7248 -2.02081 -3.89948 0
M  V30 565 H 59.3308 -3.24003 -2.75503 0
M  V30 566 N 57.6459 0.756429 -1.3826 0
M  V30 567 C 58.6089 1.85176 -1.35065 0
M  V30 568 C 59.6089 1.58818 -0.251703 0
M  V30 569 O 60.7989 1.66615 -0.508433 0
M  V30 570 C 57.9309 3.22596 -1.10201 0
M  V30 571 H 59.1239 1.89417 -2.3251 0
M  V30 572 H 56.6769 0.95783 -1.23512 0
M  V30 573 H 57.4119 3.24025 -0.133504 0
M  V30 574 H 57.1969 3.43122 -1.89762 0
M  V30 575 H 58.6869 4.02673 -1.10654 0
M  V30 576 N 59.124 1.23083 0.984299 0
M  V30 577 C 60.054 1.03292 2.09411 0
M  V30 578 C 61.035 -0.048923 1.7003 0
M  V30 579 O 62.22 0.114967 1.93859 0
M  V30 580 C 59.35 0.619155 3.41736 0
M  V30 581 C 58.304 1.64791 3.95004 0
M  V30 582 C 57.63 1.0897 5.23478 0
M  V30 583 C 58.93 3.03999 4.24714 0
M  V30 584 H 60.624 1.96119 2.26225 0
M  V30 585 H 58.17 0.944344 1.08711 0
M  V30 586 H 60.123 0.467777 4.18796 0
M  V30 587 H 58.847 -0.344786 3.24775 0
M  V30 588 H 57.506 1.78721 3.20085 0
M  V30 589 H 57.154 0.11686 5.02864 0
M  V30 590 H 56.854 1.77704 5.60085 0
M  V30 591 H 58.378 0.950093 6.03163 0
M  V30 592 H 59.792 2.93393 4.92538 0
M  V30 593 H 58.189 3.69936 4.72512 0
M  V30 594 H 59.259 3.53285 3.32142 0
M  V30 595 N 60.6021 -1.18246 1.0419 0
M  V30 596 C 61.5651 -2.20128 0.638452 0
M  V30 597 C 62.5651 -1.57885 -0.304805 0
M  V30 598 O 63.7551 -1.73967 -0.0900369 0
M  V30 599 C 60.8871 -3.4084 -0.0637751 0
M  V30 600 H 62.0801 -2.57336 1.54007 0
M  V30 601 H 59.6331 -1.32152 0.834598 0
M  V30 602 H 60.3681 -3.09166 -0.979136 0
M  V30 603 H 60.1531 -3.8726 0.614198 0
M  V30 604 H 61.6431 -4.16274 -0.332512 0
M  V30 605 N 62.0802 -0.821533 -1.34494 0
M  V30 606 C 63.0432 -0.247847 -2.27856 0
M  V30 607 C 64.0432 0.573453 -1.50227 0
M  V30 608 O 65.2332 0.389759 -1.69784 0
M  V30 609 C 62.3652 0.652698 -3.34593 0
M  V30 610 H 63.5582 -1.07146 -2.80107 0
M  V30 611 H 61.1112 -0.593291 -1.44602 0
M  V30 612 H 61.8462 1.49943 -2.87555 0
M  V30 613 H 61.6312 0.065292 -3.92046 0
M  V30 614 H 63.1212 1.04793 -4.04238 0
M  V30 615 N 63.5583 1.46682 -0.576371 0
M  V30 616 C 64.8043 2.02712 -0.0596221 0
M  V30 617 C 65.1373 1.44765 1.29448 0
M  V30 618 O 64.4123 0.610355 1.84675 0
M  V30 619 C 64.6953 3.60098 0.0129503 0
M  V30 620 C 64.5483 4.28441 -1.3696 0
M  V30 621 C 65.8673 4.34224 0.71678 0
M  V30 622 H 62.9863 0.736637 -0.0231407 0
M  V30 623 H 65.6283 1.74898 -0.742351 0
M  V30 624 H 63.7783 3.83926 0.594378 0
M  V30 625 H 65.4503 4.15896 -1.9957 0
M  V30 626 H 63.6933 3.8805 -1.93907 0
M  V30 627 H 64.3643 5.3716 -1.27135 0
M  V30 628 H 66.8403 4.15503 0.222908 0
M  V30 629 H 65.7163 5.43936 0.73657 0
M  V30 630 H 65.9773 4.04823 1.77682 0
M  V30 631 N 65.0364 0.313813 1.54444 0
M  V30 632 C 66.4474 -0.176243 1.85866 0
M  V30 633 C 66.7984 -1.52405 1.23561 0
M  V30 634 O 65.9234 -2.09605 0.538016 0
M  V30 635 C 66.5184 -0.32657 3.37222 0
M  V30 636 C 65.0774 -0.760846 3.6863 0
M  V30 637 C 64.2244 0.123247 2.77026 0
M  V30 638 H 67.1754 0.534418 1.49431 0
M  V30 639 H 67.1964 -1.15908 3.62416 0
M  V30 640 H 66.7084 0.654531 3.82541 0
M  V30 641 H 64.8094 -1.75204 3.28838 0
M  V30 642 H 64.9224 -0.571353 4.75681 0
M  V30 643 H 63.2864 -0.399597 2.51546 0
M  V30 644 H 64.0694 1.10094 3.25168 0
M  V30 645 N 66.5145 -1.57545 0.0417849 0
M  V30 646 C 67.4775 -2.09885 -0.92093 0
M  V30 647 C 68.4775 -1.01648 -1.24596 0
M  V30 648 O 69.6675 -1.27759 -1.1842 0
M  V30 649 C 66.7995 -2.57527 -2.23367 0
M  V30 650 H 67.9925 -2.96236 -0.467382 0
M  V30 651 H 65.5455 -1.5493 -0.206467 0
M  V30 652 H 66.2805 -1.74542 -2.73323 0
M  V30 653 H 66.0655 -3.36613 -2.01083 0
M  V30 654 H 67.5555 -2.98201 -2.92346 0
M  V30 655 N 67.9926 0.231505 -1.5589 0
M  V30 656 C 68.9226 1.29022 -1.94617 0
M  V30 657 C 69.9036 1.4941 -0.813067 0
M  V30 658 O 71.0886 1.6176 -1.07459 0
M  V30 659 C 68.2186 2.64199 -2.25424 0
M  V30 660 C 67.1726 2.58484 -3.41131 0
M  V30 661 C 66.4986 3.97599 -3.57518 0
M  V30 662 C 67.7986 2.1413 -4.76388 0
M  V30 663 H 69.4926 0.968563 -2.83301 0
M  V30 664 H 67.0386 0.464479 -1.36303 0
M  V30 665 H 68.9916 3.38413 -2.51107 0
M  V30 666 H 67.7156 2.98032 -1.33583 0
M  V30 667 H 66.3746 1.86727 -3.15481 0
M  V30 668 H 66.0226 4.28723 -2.6307 0
M  V30 669 H 65.7226 3.94659 -4.35337 0
M  V30 670 H 67.2466 4.7349 -3.85538 0
M  V30 671 H 68.6606 2.78083 -5.01341 0
M  V30 672 H 67.0576 2.2227 -5.57419 0
M  V30 673 H 68.1276 1.09331 -4.72414 0
M  V30 674 N 69.4707 1.49531 0.497807 0
M  V30 675 C 70.4027 1.62559 1.61578 0
M  V30 676 C 71.4157 0.508134 1.54667 0
M  V30 677 O 72.6047 0.780309 1.60541 0
M  V30 678 C 69.7047 1.56925 3.00379 0
M  V30 679 C 68.8777 2.84257 3.3244 0
M  V30 680 C 67.9367 2.71632 4.50669 0
M  V30 681 O 66.9627 3.4557 4.52294 0
M  V30 682 N 68.1647 1.83391 5.5077 0
M  V30 683 H 70.9297 2.58981 1.50828 0
M  V30 684 H 68.4907 1.4666 0.685743 0
M  V30 685 H 70.4827 1.46129 3.77397 0
M  V30 686 H 69.0527 0.683483 3.05037 0
M  V30 687 H 68.2727 3.09381 2.44289 0
M  V30 688 H 69.5607 3.68666 3.5066 0
M  V30 689 H 68.9587 1.22583 5.52259 0
M  V30 690 H 67.5157 1.78515 6.26878 0
M  V30 691 N 70.9488 -0.749086 1.3866 0
M  V30 692 C 72.1948 -1.51056 1.35314 0
M  V30 693 C 72.5278 -1.94121 -0.0553751 0
M  V30 694 O 71.8028 -1.65763 -1.01749 0
M  V30 695 C 72.0858 -2.76003 2.31288 0
M  V30 696 C 71.9388 -2.39047 3.8102 0
M  V30 697 C 73.2578 -3.78046 2.2532 0
M  V30 698 H 70.3768 -0.547972 0.492844 0
M  V30 699 H 73.0188 -0.857628 1.69543 0
M  V30 700 H 71.1688 -3.31716 2.02229 0
M  V30 701 H 72.8408 -1.89074 4.20771 0
M  V30 702 H 71.0838 -1.71449 3.98482 0
M  V30 703 H 71.7548 -3.28462 4.4364 0
M  V30 704 H 74.2308 -3.31884 2.50983 0
M  V30 705 H 73.1068 -4.63159 2.94576 0
M  V30 706 H 73.3678 -4.23957 1.25352 0
M  V30 707 N 72.4269 -1.23603 -0.977757 0
M  V30 708 C 73.3589 -0.977369 -2.07317 0
M  V30 709 C 74.3719 0.0495845 -1.62724 0
M  V30 710 O 75.5609 -0.186261 -1.77526 0
M  V30 711 C 72.6609 -0.451216 -3.35883 0
M  V30 712 C 71.8339 -1.53896 -4.09432 0
M  V30 713 C 70.8929 -1.01721 -5.16274 0
M  V30 714 O 69.9189 -1.70676 -5.43009 0
M  V30 715 N 71.1209 0.153594 -5.80297 0
M  V30 716 H 73.8859 -1.92047 -2.30082 0
M  V30 717 H 71.4469 -1.14497 -1.14465 0
M  V30 718 H 73.4389 -0.0871574 -4.04606 0
M  V30 719 H 72.0089 0.397368 -3.10064 0
M  V30 720 H 71.2289 -2.07566 -3.35127 0
M  V30 721 H 72.5169 -2.27037 -4.55337 0
M  V30 722 H 71.9149 0.730323 -5.60966 0
M  V30 723 H 70.4719 0.458892 -6.50183 0
M  V30 724 N 73.905 1.17692 -1.04816 0
M  V30 725 C 75.153 1.87488 -0.754497 0
M  V30 726 C 75.474 1.81205 0.720407 0
M  V30 727 O 74.744 1.23544 1.52032 0
M  V30 728 H 73.324 0.694101 -0.276102 0
M  V30 729 H 75.986 1.42793 -1.32651 0
M  V30 730 H 75.082 2.93328 -1.06606 0
M  V30 731 N 75.3831 0.828654 1.34056 0
M  V30 732 C 76.3311 0.242973 2.31327 0
M  V30 733 C 77.3251 -0.61944 1.57668 0
M  V30 734 O 78.5311 -0.51014 1.7262 0
M  V30 735 H 74.9061 0.059834 0.749616 0
M  V30 736 H 76.8771 1.07809 2.78244 0
M  V30 737 C 75.6261 -0.575733 3.429 0
M  V30 738 H 74.9491 0.0785582 3.99723 0
M  V30 739 H 76.3891 -0.951547 4.13185 0
M  V30 740 C 74.8481 -1.75044 2.87856 0
M  V30 741 O 75.3781 -2.84882 2.83205 0
M  V30 742 N 73.5841 -1.56903 2.44602 0
M  V30 743 H 73.1311 -0.675547 2.48584 0
M  V30 744 H 73.0891 -2.35652 2.08124 0
M  V30 745 N 76.8612 -1.46375 0.584142 0
M  V30 746 C 77.8082 -2.30323 -0.148286 0
M  V30 747 C 78.7782 -1.40703 -0.882713 0
M  V30 748 O 79.9632 -1.69651 -0.873099 0
M  V30 749 C 77.1032 -3.25196 -1.15507 0
M  V30 750 C 76.2162 -4.29915 -0.423943 0
M  V30 751 C 75.3512 -5.11914 -1.41838 0
M  V30 752 C 74.3902 -6.08381 -0.673736 0
M  V30 753 N 73.5272 -6.83242 -1.6163 0
M  V30 754 H 78.3672 -2.92427 0.573644 0
M  V30 755 H 75.9042 -1.44118 0.294703 0
M  V30 756 H 77.8622 -3.78646 -1.75166 0
M  V30 757 H 76.4922 -2.64898 -1.8447 0
M  V30 758 H 75.5442 -3.7931 0.287714 0
M  V30 759 H 76.8562 -4.98549 0.158128 0
M  V30 760 H 76.0102 -5.69648 -2.08773 0
M  V30 761 H 74.7492 -4.43243 -2.03438 0
M  V30 762 H 73.7542 -5.49799 0.00938483 0
M  V30 763 H 74.9792 -6.79071 -0.0631082 0
M  V30 764 H 72.9252 -6.1728 -2.22038 0
M  V30 765 H 72.8422 -7.48144 -1.08707 0
M  V30 766 H 74.1102 -7.45534 -2.27596 0
M  V30 767 N 78.3393 -0.321999 -1.54275 0
M  V30 768 C 79.5853 0.281461 -2.00837 0
M  V30 769 C 79.9183 1.51909 -1.20985 0
M  V30 770 O 79.1933 1.923 -0.291733 0
M  V30 771 C 79.4763 0.617162 -3.54772 0
M  V30 772 C 79.3293 -0.631064 -4.45351 0
M  V30 773 C 80.6483 1.43542 -4.16033 0
M  V30 774 H 77.7673 0.100826 -0.730071 0
M  V30 775 H 80.4093 -0.438268 -1.84876 0
M  V30 776 H 78.5593 1.23034 -3.68504 0
M  V30 777 H 80.2313 -1.26934 -4.43492 0
M  V30 778 H 78.4743 -1.26025 -4.15091 0
M  V30 779 H 79.1453 -0.351735 -5.50878 0
M  V30 780 H 81.6213 0.917134 -4.05867 0
M  V30 781 H 80.4973 1.63907 -5.23856 0
M  V30 782 H 80.7583 2.43108 -3.69257 0
M  V30 783 N 79.8174 1.5752 -0.0501392 0
M  V30 784 C 80.7474 2.14502 0.922566 0
M  V30 785 C 81.7284 1.06642 1.3252 0
M  V30 786 O 82.9134 1.34577 1.4001 0
M  V30 787 C 80.0434 2.68916 2.19776 0
M  V30 788 C 78.9974 3.8175 1.93523 0
M  V30 789 C 78.3234 4.22677 3.27487 0
M  V30 790 C 79.6234 5.06932 1.25765 0
M  V30 791 H 81.3174 2.9603 0.447952 0
M  V30 792 H 78.8634 1.42401 0.214024 0
M  V30 793 H 80.8164 3.07419 2.88222 0
M  V30 794 H 79.5404 1.84578 2.69441 0
M  V30 795 H 78.1994 3.43718 1.27489 0
M  V30 796 H 77.8474 3.35291 3.74952 0
M  V30 797 H 77.5474 4.98725 3.1072 0
M  V30 798 H 79.0714 4.63779 3.97166 0
M  V30 799 H 80.4854 5.42888 1.84244 0
M  V30 800 H 78.8824 5.88116 1.19328 0
M  V30 801 H 79.9524 4.84337 0.233536 0
M  V30 802 N 81.2955 -0.223234 1.56011 0
M  V30 803 C 82.5415 -0.949279 1.79211 0
M  V30 804 C 82.8745 -1.84054 0.619494 0
M  V30 805 O 82.1495 -1.90726 -0.381317 0
M  V30 806 C 82.4325 -1.78965 3.12479 0
M  V30 807 C 82.2855 -0.924997 4.40186 0
M  V30 808 C 83.6045 -2.76774 3.42175 0
M  V30 809 H 80.7235 -0.343676 0.651963 0
M  V30 810 H 83.3655 -0.218253 1.88742 0
M  V30 811 H 81.5155 -2.41291 3.04485 0
M  V30 812 H 83.1875 -0.318615 4.60198 0
M  V30 813 H 81.4305 -0.230344 4.33188 0
M  V30 814 H 82.1015 -1.54735 5.29869 0
M  V30 815 H 84.5775 -2.24584 3.50287 0
M  V30 816 H 83.4535 -3.32678 4.36597 0
M  V30 817 H 83.7145 -3.54429 2.64258 0
M  V30 818 N 82.7736 -1.49793 -0.48987 0
M  V30 819 C 84.0216 -1.59525 -1.24081 0
M  V30 820 C 84.3426 -0.288953 -1.92847 0
M  V30 821 O 83.6126 0.692436 -1.83254 0
M  V30 822 H 82.1926 -0.587796 -0.460983 0
M  V30 823 H 84.8546 -1.86477 -0.566778 0
M  V30 824 H 83.9506 -2.39696 -1.99881 0
M  V30 825 N 84.2517 0.741722 -1.39055 0
M  V30 826 C 85.4997 1.49818 -1.35643 0
M  V30 827 C 85.8207 1.94938 0.0491642 0
M  V30 828 O 85.0907 1.68505 0.999141 0
M  V30 829 H 83.6707 0.555755 -0.499144 0
M  V30 830 H 86.3327 0.880957 -1.73854 0
M  V30 831 H 85.4287 2.38348 -2.01486 0
M  V30 832 N 85.7298 1.2412 0.971189 0
M  V30 833 C 86.6768 1.0305 2.06517 0
M  V30 834 C 87.6468 -0.0550666 1.66009 0
M  V30 835 O 88.8318 0.0988688 1.90544 0
M  V30 836 C 85.9718 0.637653 3.39158 0
M  V30 837 C 85.0848 1.79633 3.92882 0
M  V30 838 C 84.2198 1.34939 5.13775 0
M  V30 839 C 83.2588 2.47823 5.59687 0
M  V30 840 N 82.3958 2.04022 6.71803 0
M  V30 841 H 87.2358 1.96685 2.23873 0
M  V30 842 H 84.7728 0.979694 1.09729 0
M  V30 843 H 86.7308 0.390931 4.15364 0
M  V30 844 H 85.3608 -0.261693 3.21737 0
M  V30 845 H 84.4128 2.15681 3.13346 0
M  V30 846 H 85.7248 2.64466 4.22918 0
M  V30 847 H 84.8788 1.06134 5.97345 0
M  V30 848 H 83.6178 0.471557 4.85415 0
M  V30 849 H 82.6228 2.77392 4.74693 0
M  V30 850 H 83.8478 3.36158 5.90063 0
M  V30 851 H 81.7938 1.18632 6.45184 0
M  V30 852 H 81.7108 2.82409 7.01271 0
M  V30 853 H 82.9788 1.78347 7.58823 0
M  V30 854 N 87.2079 -1.17134 1.05439 0
M  V30 855 C 88.4329 -1.91913 0.786396 0
M  V30 856 C 88.8579 -1.7643 -0.652234 0
M  V30 857 O 88.2159 -1.08372 -1.45345 0
M  V30 858 C 88.2639 -3.40921 1.17497 0
M  V30 859 O 87.3679 -4.11244 0.308589 0
M  V30 860 H 86.7089 -0.598215 0.288158 0
M  V30 861 H 89.2389 -1.48457 1.4079 0
M  V30 862 H 89.2489 -3.91668 1.14281 0
M  V30 863 H 87.9239 -3.5151 2.22292 0
M  V30 864 H 86.5009 -3.70731 0.40157 0
M  V30 865 N 88.686 -0.835752 -1.33615 0
M  V30 866 C 89.932 -0.430596 -1.98176 0
M  V30 867 C 90.265 1.00684 -1.66061 0
M  V30 868 O 89.54 1.70339 -0.938877 0
M  V30 869 C 89.823 -0.648065 -3.5422 0
M  V30 870 C 89.676 -2.13255 -3.96033 0
M  V30 871 C 90.995 -0.0922113 -4.40003 0
M  V30 872 H 88.114 -0.157924 -0.719881 0
M  V30 873 H 90.756 -1.05069 -1.58305 0
M  V30 874 H 88.906 -0.120237 -3.88314 0
M  V30 875 H 90.578 -2.725 -3.72211 0
M  V30 876 H 88.821 -2.61823 -3.45878 0
M  V30 877 H 89.492 -2.23547 -5.04708 0
M  V30 878 H 91.968 -0.543343 -4.12537 0
M  V30 879 H 90.844 -0.274083 -5.48215 0
M  V30 880 H 91.105 1.00378 -4.30554 0
M  V30 881 N 90.1641 1.46063 -0.591896 0
M  V30 882 C 91.3891 2.07226 -0.0850314 0
M  V30 883 C 91.8141 1.43625 1.21463 0
M  V30 884 O 91.1721 0.523305 1.73583 0
M  V30 885 C 91.2201 3.60554 0.0576567 0
M  V30 886 O 90.3241 3.97128 1.11188 0
M  V30 887 H 89.6651 0.660615 -0.0669568 0
M  V30 888 H 92.1951 1.8756 -0.81745 0
M  V30 889 H 92.2051 4.07165 0.2609 0
M  V30 890 H 90.8801 4.06235 -0.891416 0
M  V30 891 H 89.4571 3.62213 0.886356 0
M  V30 892 N 91.6422 0.330177 1.54103 0
M  V30 893 C 92.5722 -0.525353 2.27513 0
M  V30 894 C 93.5532 -1.11383 1.2856 0
M  V30 895 O 94.7382 -1.13773 1.57383 0
M  V30 896 C 91.8682 -1.6831 3.03791 0
M  V30 897 C 90.8222 -1.2236 4.10137 0
M  V30 898 C 90.1482 -2.46882 4.74293 0
M  V30 899 C 91.4482 -0.333697 5.21233 0
M  V30 900 H 93.1422 0.087013 2.99274 0
M  V30 901 H 90.6882 0.0432893 1.43935 0
M  V30 902 H 92.6412 -2.28795 3.5388 0
M  V30 903 H 91.3652 -2.32216 2.29659 0
M  V30 904 H 90.0242 -0.64165 3.60941 0
M  V30 905 H 89.6722 -3.09165 3.96769 0
M  V30 906 H 89.3722 -2.16825 5.46133 0
M  V30 907 H 90.8962 -3.08117 5.27159 0
M  V30 908 H 92.3102 -0.845013 5.67038 0
M  V30 909 H 90.7072 -0.125612 5.99969 0
M  V30 910 H 91.7772 0.633724 4.80741 0
M  V30 911 N 93.1203 -1.57491 0.0584922 0
M  V30 912 C 94.0303 -2.15448 -0.928414 0
M  V30 913 C 95.0463 -1.11416 -1.3365 0
M  V30 914 O 96.2223 -1.4362 -1.41193 0
M  V30 915 C 93.2873 -2.69393 -2.18239 0
M  V30 916 C 92.3483 -3.88249 -1.83196 0
M  V30 917 C 91.5813 -4.39613 -3.02616 0
M  V30 918 O 91.8043 -3.90023 -4.16219 0
M  V30 919 O 90.7383 -5.31111 -2.83204 0
M  V30 920 H 94.5643 -3.00112 -0.465483 0
M  V30 921 H 92.1493 -1.48499 -0.163826 0
M  V30 922 H 94.0313 -3.04026 -2.91798 0
M  V30 923 H 92.7063 -1.87796 -2.63656 0
M  V30 924 H 91.6133 -3.58492 -1.06931 0
M  V30 925 H 92.9463 -4.71098 -1.42573 0
M  V30 926 N 94.5984 0.214957 -1.56127 0
M  V30 927 C 95.8464 0.936518 -1.79091 0
M  V30 928 C 96.1674 1.84606 -0.628148 0
M  V30 929 O 95.4374 1.92664 0.35462 0
M  V30 930 H 94.0174 0.3488 -0.660566 0
M  V30 931 H 96.6794 0.22523 -1.93594 0
M  V30 932 H 95.7754 1.53943 -2.71492 0
M  V30 933 N 96.0765 1.50051 0.48192 0
M  V30 934 C 97.3225 1.60736 1.2366 0
M  V30 935 C 97.6555 0.301786 1.91841 0
M  V30 936 O 96.9305 -0.696025 1.8162 0
M  V30 937 C 97.2135 2.78009 2.28874 0
M  V30 938 C 97.0665 4.18416 1.65069 0
M  V30 939 C 98.3855 2.90867 3.30279 0
M  V30 940 H 95.5045 0.585031 0.448228 0
M  V30 941 H 98.1465 1.82402 0.531946 0
M  V30 942 H 96.2965 2.59667 2.88973 0
M  V30 943 H 97.9685 4.48322 1.0865 0
M  V30 944 H 96.2115 4.23177 0.954148 0
M  V30 945 H 96.8825 4.96381 2.41474 0
M  V30 946 H 99.3585 3.07623 2.80191 0
M  V30 947 H 98.2345 3.74566 4.01238 0
M  V30 948 H 98.4955 2.01021 3.93755 0
M  V30 949 N 97.5546 -0.734337 1.39446 0
M  V30 950 C 98.7796 -1.52866 1.40167 0
M  V30 951 C 99.2046 -1.881 -0.00171513 0
M  V30 952 O 98.5626 -1.51957 -0.988879 0
M  V30 953 C 98.6106 -2.79235 2.28167 0
M  V30 954 O 97.7146 -3.75185 1.71201 0
M  V30 955 H 97.0556 -0.461618 0.477289 0
M  V30 956 H 99.5856 -0.905949 1.8345 0
M  V30 957 H 99.5956 -3.27963 2.42702 0
M  V30 958 H 98.2706 -2.52923 3.30156 0
M  V30 959 H 96.8476 -3.33958 1.65912 0
M  V30 960 N 99.0327 -1.24633 -0.964593 0
M  V30 961 C 99.9627 -1.06611 -2.07741 0
M  V30 962 C 100.944 0.0218666 -1.70086 0
M  V30 963 O 102.129 -0.145793 -1.93652 0
M  V30 964 C 99.2587 -0.673444 -3.40708 0
M  V30 965 C 98.2127 -1.71054 -3.92332 0
M  V30 966 C 97.5387 -1.17285 -5.21678 0
M  V30 967 C 98.8387 -3.10718 -4.19824 0
M  V30 968 H 100.533 -1.99693 -2.23076 0
M  V30 969 H 98.0787 -0.96152 -1.07195 0
M  V30 970 H 100.032 -0.534345 -4.17998 0
M  V30 971 H 98.7557 0.293073 -3.25282 0
M  V30 972 H 97.4147 -1.83791 -3.17201 0
M  V30 973 H 97.0627 -0.196847 -5.02615 0
M  V30 974 H 96.7627 -1.86592 -5.57187 0
M  V30 975 H 98.2867 -1.04593 -6.01575 0
M  V30 976 H 99.7007 -3.01192 -4.87808 0
M  V30 977 H 98.0977 -3.77406 -4.66567 0
M  V30 978 H 99.1677 -3.58524 -3.26479 0
M  V30 979 N 100.511 1.16574 -1.06058 0
M  V30 980 C 101.758 1.87047 -0.775873 0
M  V30 981 C 102.086 1.81562 0.697534 0
M  V30 982 O 101.341 1.22445 1.52662 0
M  V30 983 C 101.64 3.36195 -1.21275 0
M  V30 984 C 101.306 3.6188 -2.68986 0
M  V30 985 C 99.9678 3.68599 -3.09335 0
M  V30 986 C 102.32 3.72648 -3.64394 0
M  V30 987 C 99.6478 3.83584 -4.43937 0
M  V30 988 C 102 3.89154 -4.98741 0
M  V30 989 C 100.664 3.94114 -5.3873 0
M  V30 990 H 99.9338 0.684452 -0.283912 0
M  V30 991 H 102.581 1.37853 -1.32925 0
M  V30 992 H 100.886 3.87505 -0.578528 0
M  V30 993 H 102.583 3.89103 -0.969542 0
M  V30 994 H 99.1728 3.57281 -2.36744 0
M  V30 995 H 103.357 3.66769 -3.34356 0
M  V30 996 H 98.6128 3.85677 -4.74409 0
M  V30 997 H 102.787 3.96427 -5.72554 0
M  V30 998 H 100.414 4.05478 -6.43033 0
M  V30 999 N 101.989 0.842826 1.3317 0
M  V30 1000 C 103.235 0.450342 1.98352 0
M  V30 1001 C 103.59 -0.980508 1.65541 0
M  V30 1002 O 102.883 -1.67678 0.927065 0
M  V30 1003 C 103.077 0.612607 3.52111 0
M  V30 1004 C 102.906 2.05768 3.99862 0
M  V30 1005 C 101.676 2.69374 4.27511 0
M  V30 1006 C 103.874 3.02688 4.15794 0
M  V30 1007 N 101.856 4.04915 4.61429 0
M  V30 1008 C 103.227 4.23186 4.53115 0
M  V30 1009 C 105.282 2.99041 3.98094 0
M  V30 1010 C 103.985 5.40518 4.74587 0
M  V30 1011 C 106.011 4.15607 4.20743 0
M  V30 1012 C 105.373 5.3486 4.58371 0
M  V30 1013 H 101.472 0.213296 0.752349 0
M  V30 1014 H 104.056 1.09173 1.61212 0
M  V30 1015 H 102.227 0.000998822 3.884 0
M  V30 1016 H 103.959 0.191179 4.04248 0
M  V30 1017 H 100.714 2.20485 4.19146 0
M  V30 1018 H 101.138 4.74798 4.82593 0
M  V30 1019 H 105.78 2.0797 3.68114 0
M  V30 1020 H 103.498 6.3213 5.03425 0
M  V30 1021 H 107.084 4.14207 4.08563 0
M  V30 1022 H 105.964 6.23558 4.75547 0
M  V30 1023 N 103.467 -1.45747 0.599634 0
M  V30 1024 C 104.692 -2.07178 0.0960198 0
M  V30 1025 C 105.117 -1.44268 -1.207 0
M  V30 1026 O 104.475 -0.532503 -1.73303 0
M  V30 1027 C 104.523 -3.60579 -0.0385348 0
M  V30 1028 O 103.627 -3.97713 -1.0908 0
M  V30 1029 H 102.968 -0.660251 0.0704593 0
M  V30 1030 H 105.498 -1.87124 0.827385 0
M  V30 1031 H 105.508 -4.07298 -0.239304 0
M  V30 1032 H 104.183 -4.05756 0.912947 0
M  V30 1033 H 102.76 -3.62678 -0.867135 0
M  V30 1034 N 104.945 -0.338344 -1.53925 0
M  V30 1035 C 105.893 0.536231 -2.26335 0
M  V30 1036 C 106.887 1.1063 -1.28286 0
M  V30 1037 O 108.093 1.05264 -1.46012 0
M  V30 1038 H 104.468 0.191602 -0.727181 0
M  V30 1039 H 106.439 -0.0965747 -2.98244 0
M  V30 1040 C 105.188 1.67803 -3.04528 0
M  V30 1041 H 104.511 1.24864 -3.79801 0
M  V30 1042 H 105.951 2.26526 -3.58416 0
M  V30 1043 C 104.41 2.60439 -2.13712 0
M  V30 1044 O 104.94 3.6255 -1.72975 0
M  V30 1045 N 103.146 2.29006 -1.78898 0
M  V30 1046 H 102.693 1.46011 -2.12223 0
M  V30 1047 H 102.651 2.91248 -1.18416 0
M  V30 1048 N 106.423 1.57458 -0.0668435 0
M  V30 1049 C 107.651 1.97624 0.612565 0
M  V30 1050 C 108.066 0.94502 1.63447 0
M  V30 1051 O 107.423 -0.0689276 1.8237 0
M  V30 1052 C 107.474 3.37869 1.28555 0
M  V30 1053 O 107.195 4.3704 0.304557 0
M  V30 1054 C 108.696 3.92882 2.05325 0
M  V30 1055 H 105.916 0.650045 0.166381 0
M  V30 1056 H 108.46 2.04035 -0.137782 0
M  V30 1057 H 106.615 3.3256 1.98702 0
M  V30 1058 H 107.029 5.18565 0.786779 0
M  V30 1059 H 108.503 4.93247 2.47812 0
M  V30 1060 H 108.98 3.29156 2.9078 0
M  V30 1061 H 109.586 4.01577 1.40056 0
M  V30 1062 N 107.901 -0.206675 1.56239 0
M  V30 1063 C 109.149 -0.927007 1.79586 0
M  V30 1064 C 109.47 -1.8427 0.637929 0
M  V30 1065 O 108.74 -1.92849 -0.344398 0
M  V30 1066 H 107.32 -0.345292 0.662407 0
M  V30 1067 H 109.982 -0.21496 1.93711 0
M  V30 1068 H 109.078 -1.52501 2.72305 0
M  V30 1069 N 109.379 -1.50304 -0.473955 0
M  V30 1070 C 110.625 -1.62358 -1.22521 0
M  V30 1071 C 110.98 -0.318555 -1.89745 0
M  V30 1072 O 110.273 0.683315 -1.79001 0
M  V30 1073 C 110.467 -2.73938 -2.29549 0
M  V30 1074 C 110.296 -4.15165 -1.72825 0
M  V30 1075 C 109.066 -4.81604 -1.52924 0
M  V30 1076 C 111.264 -4.99503 -1.22481 0
M  V30 1077 N 109.246 -6.07056 -0.91413 0
M  V30 1078 C 110.617 -6.15655 -0.732743 0
M  V30 1079 C 112.672 -4.85299 -1.11308 0
M  V30 1080 C 111.375 -7.19164 -0.139976 0
M  V30 1081 C 113.401 -5.88982 -0.534258 0
M  V30 1082 C 112.763 -7.0438 -0.0525562 0
M  V30 1083 H 108.862 -0.648286 -0.437321 0
M  V30 1084 H 111.446 -1.87413 -0.527692 0
M  V30 1085 H 109.617 -2.50611 -2.9673 0
M  V30 1086 H 111.349 -2.75366 -2.96573 0
M  V30 1087 H 108.104 -4.3885 -1.78067 0
M  V30 1088 H 108.528 -6.74108 -0.625071 0
M  V30 1089 H 113.17 -3.96369 -1.47144 0
M  V30 1090 H 110.888 -8.07771 0.230591 0
M  V30 1091 H 114.474 -5.80055 -0.450219 0
M  V30 1092 H 113.354 -7.83238 0.388324 0
M  V30 1093 N 110.857 0.726932 -1.39834 0
M  V30 1094 C 112.105 1.4837 -1.37225 0
M  V30 1095 C 112.426 1.94979 0.0284857 0
M  V30 1096 O 111.696 1.69555 0.981213 0
M  V30 1097 H 110.276 0.55043 -0.505011 0
M  V30 1098 H 112.938 0.862468 -1.74778 0
M  V30 1099 H 112.034 2.36198 -2.04003 0
M  V30 1100 N 112.336 1.25143 0.95797 0
M  V30 1101 C 113.299 1.05321 2.03569 0
M  V30 1102 C 114.299 0.007152 1.60798 0
M  V30 1103 O 115.489 0.24903 1.72411 0
M  V30 1104 C 112.621 0.598394 3.35607 0
M  V30 1105 H 113.814 2.00986 2.22586 0
M  V30 1106 H 111.367 1.07502 1.13459 0
M  V30 1107 H 112.102 -0.361014 3.22284 0
M  V30 1108 H 111.887 1.35351 3.67998 0
M  V30 1109 H 113.377 0.48104 4.1482 0
M  V30 1110 N 113.814 -1.1601 1.06675 0
M  V30 1111 C 114.724 -2.24156 0.692179 0
M  V30 1112 C 115.74 -1.71507 -0.293513 0
M  V30 1113 O 116.916 -2.009 -0.141861 0
M  V30 1114 C 113.981 -3.46587 0.0884131 0
M  V30 1115 C 113.042 -4.14257 1.12646 0
M  V30 1116 C 112.275 -5.30844 0.551416 0
M  V30 1117 O 112.498 -5.66858 -0.634656 0
M  V30 1118 O 111.432 -5.87848 1.29298 0
M  V30 1119 H 115.258 -2.58513 1.59388 0
M  V30 1120 H 112.843 -1.23599 0.83926 0
M  V30 1121 H 114.725 -4.20679 -0.246361 0
M  V30 1122 H 113.4 -3.13994 -0.786712 0
M  V30 1123 H 112.307 -3.42118 1.51348 0
M  V30 1124 H 113.64 -4.50914 1.97325 0
M  V30 1125 N 115.292 -0.849877 -1.32721 0
M  V30 1126 C 116.239 -0.289033 -2.28983 0
M  V30 1127 C 117.209 0.601324 -1.54833 0
M  V30 1128 O 118.394 0.537253 -1.8308 0
M  V30 1129 C 115.534 0.520623 -3.4115 0
M  V30 1130 C 114.647 -0.394989 -4.3019 0
M  V30 1131 C 113.782 0.426834 -5.29482 0
M  V30 1132 C 112.821 -0.486476 -6.10164 0
M  V30 1133 N 111.958 0.297879 -7.01468 0
M  V30 1134 H 116.798 -1.11519 -2.76347 0
M  V30 1135 H 114.335 -0.56138 -1.35967 0
M  V30 1136 H 116.293 1.00563 -4.04899 0
M  V30 1137 H 114.923 1.31165 -2.9495 0
M  V30 1138 H 113.975 -0.99836 -3.67065 0
M  V30 1139 H 115.287 -1.09612 -4.86607 0
M  V30 1140 H 114.441 0.975205 -5.98811 0
M  V30 1141 H 113.18 1.16136 -4.73671 0
M  V30 1142 H 112.185 -1.04677 -5.39743 0
M  V30 1143 H 113.41 -1.21953 -6.6806 0
M  V30 1144 H 111.356 1.01558 -6.48091 0
M  V30 1145 H 111.273 -0.344318 -7.55216 0
M  V30 1146 H 112.541 0.828131 -7.75089 0
M  V30 1147 N 116.77 1.45427 -0.607355 0
M  V30 1148 C 118.017 2.02241 -0.102455 0
M  V30 1149 C 118.345 1.4758 1.26691 0
M  V30 1150 O 117.6 0.640468 1.84923 0
M  V30 1151 C 117.899 3.57398 -0.0129263 0
M  V30 1152 C 117.565 4.3121 -1.31792 0
M  V30 1153 C 116.227 4.51092 -1.67539 0
M  V30 1154 C 118.579 4.73401 -2.18039 0
M  V30 1155 C 115.907 5.10422 -2.89285 0
M  V30 1156 C 118.259 5.34078 -3.39034 0
M  V30 1157 C 116.923 5.52184 -3.75033 0
M  V30 1158 H 116.193 0.740051 -0.037491 0
M  V30 1159 H 118.84 1.74494 -0.788926 0
M  V30 1160 H 117.145 3.84421 0.756806 0
M  V30 1161 H 118.842 3.99061 0.393881 0
M  V30 1162 H 115.432 4.16047 -1.02968 0
M  V30 1163 H 119.616 4.57774 -1.91721 0
M  V30 1164 H 114.872 5.22629 -3.17283 0
M  V30 1165 H 119.046 5.65724 -4.06115 0
M  V30 1166 H 116.673 5.97925 -4.69457 0
M  V30 1167 N 118.248 0.346503 1.53744 0
M  V30 1168 C 119.478 -0.250047 2.05081 0
M  V30 1169 C 119.886 -1.44529 1.22098 0
M  V30 1170 O 119.229 -1.81992 0.249917 0
M  V30 1171 C 119.291 -0.725934 3.52094 0
M  V30 1172 C 118.955 0.350053 4.55657 0
M  V30 1173 C 119.952 1.19372 5.0601 0
M  V30 1174 C 117.637 0.504827 4.99757 0
M  V30 1175 C 119.631 2.17768 5.99046 0
M  V30 1176 C 117.318 1.49218 5.92602 0
M  V30 1177 C 118.316 2.32706 6.42135 0
M  V30 1178 O 118.004 3.2976 7.33153 0
M  V30 1179 H 117.736 -0.0515469 0.674032 0
M  V30 1180 H 120.29 0.497559 1.99282 0
M  V30 1181 H 118.52 -1.52483 3.55367 0
M  V30 1182 H 120.209 -1.24336 3.86388 0
M  V30 1183 H 120.975 1.08525 4.72702 0
M  V30 1184 H 116.854 -0.135178 4.60802 0
M  V30 1185 H 120.398 2.82971 6.37631 0
M  V30 1186 H 116.295 1.6012 6.25325 0
M  V30 1187 H 117.063 3.25265 7.51096 0
M  V30 1188 N 119.726 -1.57421 0.075193 0
M  V30 1189 C 120.954 -1.97946 -0.602076 0
M  V30 1190 C 121.369 -0.953674 -1.62943 0
M  V30 1191 O 120.726 0.0592551 -1.82404 0
M  V30 1192 C 120.777 -3.38546 -1.26762 0
M  V30 1193 O 120.498 -4.37195 -0.281376 0
M  V30 1194 C 121.999 -3.93966 -2.03239 0
M  V30 1195 H 119.219 -0.650918 -0.162931 0
M  V30 1196 H 121.763 -2.03959 0.148601 0
M  V30 1197 H 119.918 -3.33609 -1.96936 0
M  V30 1198 H 120.332 -5.18975 -0.759267 0
M  V30 1199 H 121.806 -4.94555 -2.45193 0
M  V30 1200 H 122.283 -3.30693 -2.8903 0
M  V30 1201 H 122.889 -4.02315 -1.37924 0
M  V30 1202 N 121.204 0.198386 -1.56346 0
M  V30 1203 C 122.167 1.22952 -1.93431 0
M  V30 1204 C 123.167 1.38611 -0.815092 0
M  V30 1205 O 124.357 1.36479 -1.08255 0
M  V30 1206 C 121.489 2.59946 -2.20546 0
M  V30 1207 H 122.682 0.912626 -2.85677 0
M  V30 1208 H 120.235 0.43977 -1.49986 0
M  V30 1209 H 120.97 2.96696 -1.30927 0
M  V30 1210 H 120.755 2.49953 -3.02102 0
M  V30 1211 H 122.245 3.3431 -2.50253 0
M  V30 1212 N 122.682 1.50554 0.465978 0
M  V30 1213 C 123.645 1.69233 1.54574 0
M  V30 1214 C 124.645 0.562901 1.50626 0
M  V30 1215 O 125.835 0.830016 1.53155 0
M  V30 1216 C 122.967 1.7223 2.94193 0
M  V30 1217 H 124.16 2.65571 1.39327 0
M  V30 1218 H 121.713 1.40111 0.692711 0
M  V30 1219 H 122.448 0.77603 3.14878 0
M  V30 1220 H 122.233 2.54285 2.98466 0
M  V30 1221 H 123.723 1.88618 3.72576 0
M  V30 1222 N 124.16 -0.719506 1.40217 0
M  V30 1223 C 125.123 -1.8153 1.39927 0
M  V30 1224 C 126.123 -1.58095 0.293723 0
M  V30 1225 O 127.313 -1.65209 0.552429 0
M  V30 1226 C 124.445 -3.19561 1.18716 0
M  V30 1227 H 125.638 -1.83186 2.37451 0
M  V30 1228 H 123.191 -0.924746 1.26008 0
M  V30 1229 H 123.926 -3.23557 0.219366 0
M  V30 1230 H 123.711 -3.3797 1.98793 0
M  V30 1231 H 125.201 -3.99598 1.21291 0
M  V30 1232 N 125.638 -1.25649 -0.95132 0
M  V30 1233 C 126.884 -1.10757 -1.69884 0
M  V30 1234 C 127.217 0.350061 -1.91019 0
M  V30 1235 O 126.492 1.25783 -1.48354 0
M  V30 1236 C 126.775 -1.86606 -3.07978 0
M  V30 1237 C 126.628 -3.40217 -2.94232 0
M  V30 1238 C 127.947 -1.65182 -4.07925 0
M  V30 1239 H 125.066 -0.40374 -0.616574 0
M  V30 1240 H 127.708 -1.54521 -1.10558 0
M  V30 1241 H 125.858 -1.49409 -3.58621 0
M  V30 1242 H 127.53 -3.87108 -2.50889 0
M  V30 1243 H 125.773 -3.67759 -2.30078 0
M  V30 1244 H 126.444 -3.88505 -3.92133 0
M  V30 1245 H 128.92 -1.9757 -3.66204 0
M  V30 1246 H 127.796 -2.20683 -5.02583 0
M  V30 1247 H 128.057 -0.593933 -4.38092 0
M  V30 1248 N 127.117 1.15442 -1.07289 0
M  V30 1249 C 128.064 2.20161 -0.692653 0
M  V30 1250 C 129.034 1.63073 0.31564 0
M  V30 1251 O 130.219 1.89725 0.202235 0
M  V30 1252 C 127.359 3.44967 -0.0959509 0
M  V30 1253 C 126.472 4.16256 -1.15564 0
M  V30 1254 C 125.607 5.28609 -0.524011 0
M  V30 1255 C 124.646 5.91715 -1.56653 0
M  V30 1256 N 123.783 6.9554 -0.957531 0
M  V30 1257 H 128.623 2.52037 -1.59002 0
M  V30 1258 H 126.16 1.2378 -0.794798 0
M  V30 1259 H 128.118 4.16341 0.267628 0
M  V30 1260 H 126.748 3.1361 0.764772 0
M  V30 1261 H 125.8 3.43385 -1.6368 0
M  V30 1262 H 127.112 4.59268 -1.94613 0
M  V30 1263 H 126.266 6.06604 -0.108032 0
M  V30 1264 H 125.005 4.86787 0.29825 0
M  V30 1265 H 124.01 5.12433 -1.9923 0
M  V30 1266 H 125.235 6.35614 -2.39107 0
M  V30 1267 H 123.181 6.55814 -0.156162 0
M  V30 1268 H 123.098 7.36977 -1.68526 0
M  V30 1269 H 124.366 7.77435 -0.567032 0
M  V30 1270 N 128.595 0.856903 1.32268 0
M  V30 1271 C 130.011 0.547061 1.49931 0
M  V30 1272 C 130.211 -0.921781 1.7918 0
M  V30 1273 O 129.267 -1.70469 1.8627 0
M  V30 1274 C 130.58 1.43599 2.64196 0
M  V30 1275 C 132.128 1.43665 2.78081 0
M  V30 1276 C 132.603 2.31085 3.95428 0
M  V30 1277 N 134.094 2.28893 4.02694 0
M  V30 1278 C 134.829 2.93262 4.92732 0
M  V30 1279 N 134.325 3.66751 5.87763 0
M  V30 1280 N 136.118 2.82638 4.85873 0
M  V30 1281 H 128.269 1.8075 1.11549 0
M  V30 1282 H 130.532 0.772144 0.549997 0
M  V30 1283 H 130.238 2.48058 2.49319 0
M  V30 1284 H 130.112 1.12502 3.60032 0
M  V30 1285 H 132.499 0.399701 2.92381 0
M  V30 1286 H 132.58 1.7878 1.82952 0
M  V30 1287 H 132.224 3.34849 3.81888 0
M  V30 1288 H 132.154 1.93302 4.89839 0
M  V30 1289 H 134.645 1.75466 3.34694 0
M  V30 1290 H 134.958 4.13027 6.53168 0
M  V30 1291 H 133.303 3.70859 5.87783 0
M  V30 1292 H 136.494 2.24774 4.10602 0
M  V30 1293 H 136.667 3.33084 5.55841 0
M  V30 1294 N 130.073 -1.45103 0.615059 0
M  V30 1295 C 131.036 -2.29025 -0.0895485 0
M  V30 1296 C 132.036 -1.40174 -0.787906 0
M  V30 1297 O 133.226 -1.62217 -0.634933 0
M  V30 1298 C 130.358 -3.21376 -1.13711 0
M  V30 1299 H 131.551 -2.92807 0.648382 0
M  V30 1300 H 129.104 -1.51749 0.374444 0
M  V30 1301 H 129.839 -2.6241 -1.90556 0
M  V30 1302 H 129.624 -3.86834 -0.640475 0
M  V30 1303 H 131.114 -3.84459 -1.63036 0
M  V30 1304 N 131.551 -0.354651 -1.53558 0
M  V30 1305 C 132.498 0.496968 -2.25386 0
M  V30 1306 C 133.468 1.0865 -1.25636 0
M  V30 1307 O 134.653 1.12104 -1.54394 0
M  V30 1308 C 131.793 1.63637 -3.03837 0
M  V30 1309 C 130.906 1.07307 -4.18461 0
M  V30 1310 C 130.041 2.18068 -4.84376 0
M  V30 1311 C 129.08 1.59147 -5.91049 0
M  V30 1312 N 128.217 2.63695 -6.50699 0
M  V30 1313 H 133.057 -0.122075 -2.9775 0
M  V30 1314 H 130.594 -0.0720154 -1.46924 0
M  V30 1315 H 132.552 2.30734 -3.47589 0
M  V30 1316 H 131.182 2.22623 -2.33749 0
M  V30 1317 H 130.234 0.292708 -3.79272 0
M  V30 1318 H 131.546 0.602193 -4.95152 0
M  V30 1319 H 130.7 2.93007 -5.31255 0
M  V30 1320 H 129.439 2.68504 -4.07133 0
M  V30 1321 H 128.444 0.827175 -5.43542 0
M  V30 1322 H 129.669 1.09549 -6.70206 0
M  V30 1323 H 127.615 3.13365 -5.76315 0
M  V30 1324 H 127.532 2.21263 -7.22896 0
M  V30 1325 H 128.8 3.3837 -7.02229 0
M  V30 1326 N 133.029 1.57378 -0.0835403 0
M  V30 1327 C 134.257 1.98263 0.59157 0
M  V30 1328 C 134.672 0.962302 1.62435 0
M  V30 1329 O 134.029 -0.049581 1.82433 0
M  V30 1330 C 134.08 3.39214 1.24965 0
M  V30 1331 O 133.801 4.37339 0.258186 0
M  V30 1332 C 135.302 3.95038 2.01147 0
M  V30 1333 H 132.522 0.651773 0.159477 0
M  V30 1334 H 135.066 2.03878 -0.159415 0
M  V30 1335 H 133.221 3.34649 1.95164 0
M  V30 1336 H 133.635 5.19371 0.731734 0
M  V30 1337 H 135.109 4.95848 2.42567 0
M  V30 1338 H 135.586 3.32222 2.87272 0
M  V30 1339 H 136.192 4.0304 1.35789 0
M  V30 1340 N 134.507 -0.190092 1.56449 0
M  V30 1341 C 135.417 -1.25591 1.98152 0
M  V30 1342 C 136.433 -1.49519 0.889944 0
M  V30 1343 O 137.609 -1.62036 1.19609 0
M  V30 1344 C 134.674 -2.57916 2.3169 0
M  V30 1345 C 133.735 -2.42015 3.5458 0
M  V30 1346 C 132.968 -3.6803 3.8651 0
M  V30 1347 O 133.191 -4.72413 3.1966 0
M  V30 1348 O 132.125 -3.6326 4.79923 0
M  V30 1349 H 135.951 -0.931988 2.89046 0
M  V30 1350 H 133.536 -0.395488 1.4407 0
M  V30 1351 H 135.418 -3.36008 2.54316 0
M  V30 1352 H 134.093 -2.89925 1.43963 0
M  V30 1353 H 133 -1.62017 3.37196 0
M  V30 1354 H 134.333 -2.14937 4.4279 0
M  V30 1355 N 135.985 -1.50799 -0.457987 0
M  V30 1356 C 137.232 -1.62442 -1.20908 0
M  V30 1357 C 137.56 -0.330865 -1.91665 0
M  V30 1358 O 136.815 0.68401 -1.83357 0
M  V30 1359 C 137.114 -2.76358 -2.2663 0
M  V30 1360 C 136.78 -4.16378 -1.73033 0
M  V30 1361 C 135.442 -4.54473 -1.58138 0
M  V30 1362 C 137.794 -5.03836 -1.33413 0
M  V30 1363 C 135.122 -5.77754 -1.02065 0
M  V30 1364 C 137.474 -6.27676 -0.78778 0
M  V30 1365 C 136.138 -6.64562 -0.625561 0
M  V30 1366 H 135.408 -0.594417 -0.442435 0
M  V30 1367 H 138.055 -1.84772 -0.503136 0
M  V30 1368 H 136.36 -2.48167 -3.03184 0
M  V30 1369 H 138.057 -2.82568 -2.84528 0
M  V30 1370 H 134.647 -3.86331 -1.85598 0
M  V30 1371 H 138.831 -4.75026 -1.4375 0
M  V30 1372 H 134.087 -6.04997 -0.882547 0
M  V30 1373 H 138.261 -6.94797 -0.472177 0
M  V30 1374 H 135.888 -7.59965 -0.188926 0
M  V30 1375 N 137.463 0.71206 -1.40597 0
M  V30 1376 C 138.411 1.84746 -1.41321 0
M  V30 1377 C 139.405 1.66842 -0.293268 0
M  V30 1378 O 140.611 1.73904 -0.464481 0
M  V30 1379 H 136.986 0.608522 -0.441819 0
M  V30 1380 H 138.957 1.81252 -2.37045 0
M  V30 1381 C 137.706 3.22638 -1.29614 0
M  V30 1382 H 137.029 3.37023 -2.15071 0
M  V30 1383 H 138.469 4.02209 -1.3418 0
M  V30 1384 C 136.928 3.36899 -0.00673121 0
M  V30 1385 O 137.458 3.90186 0.954859 0
M  V30 1386 N 135.664 2.9053 0.0639327 0
M  V30 1387 H 135.211 2.47353 -0.719311 0
M  V30 1388 H 135.169 3.0045 0.926118 0
M  V30 1389 N 138.941 1.26152 0.944643 0
M  V30 1390 C 139.904 1.07474 2.0244 0
M  V30 1391 C 140.904 0.0242064 1.60782 0
M  V30 1392 O 142.094 0.267302 1.72137 0
M  V30 1393 C 139.226 0.633956 3.34953 0
M  V30 1394 H 140.419 2.03336 2.20442 0
M  V30 1395 H 137.972 1.087 1.12312 0
M  V30 1396 H 138.707 -0.326811 3.22649 0
M  V30 1397 H 138.492 1.39247 3.66542 0
M  V30 1398 H 139.982 0.52501 4.14287 0
M  V30 1399 N 140.419 -1.14872 1.07899 0
M  V30 1400 C 141.367 -2.21857 0.698727 0
M  V30 1401 C 142.361 -1.66845 -0.293086 0
M  V30 1402 O 143.567 -1.79321 -0.156204 0
M  V30 1403 H 139.942 -0.722691 0.207899 0
M  V30 1404 H 141.913 -2.51205 1.61054 0
M  V30 1405 C 140.662 -3.47498 0.11858 0
M  V30 1406 H 139.985 -3.90154 0.872914 0
M  V30 1407 H 141.425 -4.23858 -0.109759 0
M  V30 1408 C 139.884 -3.16947 -1.1422 0
M  V30 1409 O 140.414 -3.3426 -2.22785 0
M  V30 1410 N 138.62 -2.70946 -1.05055 0
M  V30 1411 H 138.167 -2.57058 -0.167038 0
M  V30 1412 H 138.125 -2.50879 -1.89491 0
M  V30 1413 N 141.898 -0.863906 -1.31812 0
M  V30 1414 C 142.828 -0.330843 -2.31144 0
M  V30 1415 C 143.809 0.575005 -1.60087 0
M  V30 1416 O 144.994 0.493304 -1.8783 0
M  V30 1417 C 142.124 0.47374 -3.44054 0
M  V30 1418 C 141.078 -0.338481 -4.26659 0
M  V30 1419 C 140.404 0.591412 -5.31419 0
M  V30 1420 C 141.704 -1.56926 -4.98168 0
M  V30 1421 H 143.398 -1.16086 -2.75979 0
M  V30 1422 H 140.944 -0.559657 -1.32679 0
M  V30 1423 H 142.897 0.857143 -4.12591 0
M  V30 1424 H 141.621 1.33721 -2.9797 0
M  V30 1425 H 140.28 -0.703754 -3.59782 0
M  V30 1426 H 139.928 1.45199 -4.81587 0
M  V30 1427 H 139.628 0.0519022 -5.87577 0
M  V30 1428 H 141.152 0.97179 -6.02817 0
M  V30 1429 H 142.566 -1.25764 -5.59336 0
M  V30 1430 H 140.963 -2.04739 -5.64094 0
M  V30 1431 H 142.033 -2.32544 -4.25501 0
M  V30 1432 N 143.376 1.44774 -0.622745 0
M  V30 1433 C 144.625 2.01334 -0.121397 0
M  V30 1434 C 144.938 1.49505 1.26125 0
M  V30 1435 O 146.144 1.98139 1.85616 0
M  V30 1436 C 144.6 3.59516 -0.166298 0
M  V30 1437 C 144.208 4.20342 -1.54974 0
M  V30 1438 C 145.952 4.23582 0.279021 0
M  V30 1439 C 143.859 5.70721 -1.55021 0
M  V30 1440 H 142.789 0.752851 -0.0416172 0
M  V30 1441 H 145.44 1.66083 -0.780309 0
M  V30 1442 H 143.822 3.92027 0.559557 0
M  V30 1443 H 144.996 3.99381 -2.29851 0
M  V30 1444 H 143.311 3.68529 -1.93843 0
M  V30 1445 H 145.908 5.33868 0.298083 0
M  V30 1446 H 146.251 3.95327 1.30471 0
M  V30 1447 H 146.784 3.95843 -0.394063 0
M  V30 1448 H 143.523 6.03698 -2.55399 0
M  V30 1449 H 143.043 5.93829 -0.844245 0
M  V30 1450 H 144.722 6.34203 -1.28047 0
M  V30 1451 N 144.854 0.36279 1.53368 0
M  V30 1452 C 146.27 0.0116182 1.59596 0
M  V30 1453 C 146.47 -1.47012 1.37803 0
M  V30 1454 O 145.526 -2.23136 1.18181 0
M  V30 1455 C 146.839 0.465052 2.97082 0
M  V30 1456 C 148.387 0.419033 3.10182 0
M  V30 1457 C 148.862 0.848235 4.50077 0
M  V30 1458 N 150.353 0.803183 4.56183 0
M  V30 1459 C 151.088 1.107 5.62613 0
M  V30 1460 N 150.584 1.47996 6.76808 0
M  V30 1461 N 152.377 1.02998 5.52583 0
M  V30 1462 H 144.528 1.32775 1.65785 0
M  V30 1463 H 146.791 0.542518 0.777417 0
M  V30 1464 H 146.497 1.49892 3.18159 0
M  V30 1465 H 146.371 -0.149786 3.76902 0
M  V30 1466 H 148.758 -0.605696 2.88817 0
M  V30 1467 H 148.839 1.06933 2.32377 0
M  V30 1468 H 148.483 1.87107 4.7218 0
M  V30 1469 H 148.413 0.175218 5.26308 0
M  V30 1470 H 150.904 0.52838 3.74188 0
M  V30 1471 H 151.217 1.69613 7.53957 0
M  V30 1472 H 149.562 1.51859 6.78206 0
M  V30 1473 H 152.753 0.737817 4.62249 0
M  V30 1474 H 152.926 1.2701 6.35431 0
M  V30 1475 N 146.332 -1.57332 0.0918853 0
M  V30 1476 C 147.295 -2.12708 -0.85369 0
M  V30 1477 C 148.295 -1.05561 -1.213 0
M  V30 1478 O 149.485 -1.31461 -1.14296 0
M  V30 1479 C 146.617 -2.64503 -2.15061 0
M  V30 1480 H 147.81 -2.97573 -0.3729 0
M  V30 1481 H 145.363 -1.55509 -0.157072 0
M  V30 1482 H 146.098 -1.83149 -2.67632 0
M  V30 1483 H 145.883 -3.4284 -1.90272 0
M  V30 1484 H 147.373 -3.07351 -2.82711 0
M  V30 1485 N 147.81 0.181792 -1.56548 0
M  V30 1486 C 148.773 1.20894 -1.94724 0
M  V30 1487 C 149.773 1.37738 -0.829747 0
M  V30 1488 O 150.963 1.35323 -1.09697 0
M  V30 1489 C 148.095 2.57593 -2.23291 0
M  V30 1490 H 149.288 0.882275 -2.86629 0
M  V30 1491 H 146.841 0.423838 -1.50444 0
M  V30 1492 H 147.576 2.95291 -1.34067 0
M  V30 1493 H 147.361 2.46735 -3.04736 0
M  V30 1494 H 148.851 3.31637 -2.53785 0
M  V30 1495 N 149.288 1.51039 0.449983 0
M  V30 1496 C 150.537 1.62317 1.19733 0
M  V30 1497 C 150.85 0.339101 1.92638 0
M  V30 1498 O 152.056 0.331069 2.69474 0
M  V30 1499 C 150.512 2.86608 2.17678 0
M  V30 1500 C 150.12 4.21972 1.50479 0
M  V30 1501 C 151.864 3.07239 2.92924 0
M  V30 1502 C 149.771 5.37426 2.46834 0
M  V30 1503 H 148.701 0.604532 0.450619 0
M  V30 1504 H 151.352 1.77494 0.465625 0
M  V30 1505 H 149.734 2.65037 2.94231 0
M  V30 1506 H 150.908 4.53878 0.795716 0
M  V30 1507 H 149.223 4.07117 0.874344 0
M  V30 1508 H 151.82 3.90668 3.65079 0
M  V30 1509 H 152.163 2.19807 3.5354 0
M  V30 1510 H 152.696 3.29091 2.23481 0
M  V30 1511 H 149.435 6.27079 1.90926 0
M  V30 1512 H 148.955 5.09912 3.15832 0
M  V30 1513 H 150.634 5.68862 3.08228 0
M  V30 1514 N 150.766 -0.704594 1.40972 0
M  V30 1515 C 152.014 -1.46169 1.39568 0
M  V30 1516 C 152.335 -1.95 0.00253745 0
M  V30 1517 O 151.605 -1.71095 -0.954114 0
M  V30 1518 H 150.185 -0.542326 0.513704 0
M  V30 1519 H 152.847 -0.834553 1.76128 0
M  V30 1520 H 151.943 -2.32922 2.07735 0
M  V30 1521 N 152.244 -1.26651 -0.937939 0
M  V30 1522 C 153.194 -1.05156 -2.02302 0
M  V30 1523 C 154.178 0.0171233 -1.60891 0
M  V30 1524 O 155.37 -0.200213 -1.75864 0
M  V30 1525 C 152.499 -0.689962 -3.36295 0
M  V30 1526 C 151.585 -1.79626 -3.84181 0
M  V30 1527 N 151.976 -3.03422 -4.04684 0
M  V30 1528 C 150.274 -1.6806 -4.13124 0
M  V30 1529 C 150.975 -3.75345 -4.444 0
M  V30 1530 N 149.951 -3.03051 -4.51288 0
M  V30 1531 H 153.753 -1.99117 -2.1617 0
M  V30 1532 H 151.267 -1.17216 -1.12402 0
M  V30 1533 H 153.264 -0.517112 -4.13681 0
M  V30 1534 H 151.924 0.242139 -3.23796 0
M  V30 1535 H 152.935 -3.39293 -3.91281 0
M  V30 1536 H 149.612 -0.818629 -4.09396 0
M  V30 1537 H 151.002 -4.81691 -4.68427 0
M  V30 1538 N 153.722 1.14298 -1.08507 0
M  V30 1539 C 154.97 1.84993 -0.813763 0
M  V30 1540 C 155.291 1.83405 0.662393 0
M  V30 1541 O 154.561 1.28319 1.48024 0
M  V30 1542 H 153.141 0.684966 -0.298045 0
M  V30 1543 H 155.803 1.385 -1.37126 0
M  V30 1544 H 154.899 2.89788 -1.15884 0
M  V30 1545 N 155.201 0.870884 1.31352 0
M  V30 1546 C 156.111 0.330783 2.32256 0
M  V30 1547 C 157.127 -0.559767 1.6475 0
M  V30 1548 O 158.303 -0.456263 1.96164 0
M  V30 1549 C 155.368 -0.458137 3.4366 0
M  V30 1550 C 154.429 0.460482 4.26823 0
M  V30 1551 C 153.662 -0.290881 5.32907 0
M  V30 1552 O 153.885 -1.51885 5.49806 0
M  V30 1553 O 152.819 0.351732 6.00871 0
M  V30 1554 H 156.645 1.16718 2.80376 0
M  V30 1555 H 154.23 0.634285 1.35267 0
M  V30 1556 H 156.112 -0.905343 4.1156 0
M  V30 1557 H 154.787 -1.27106 2.97701 0
M  V30 1558 H 153.694 0.956207 3.61673 0
M  V30 1559 H 155.027 1.23903 4.7635 0
M  V30 1560 N 156.679 -1.44442 0.630414 0
M  V30 1561 C 157.927 -2.01653 0.134351 0
M  V30 1562 C 158.248 -1.49836 -1.24796 0
M  V30 1563 O 157.518 -0.701684 -1.82902 0
M  V30 1564 H 156.098 -0.74554 0.0466769 0
M  V30 1565 H 158.76 -1.76952 0.816955 0
M  V30 1566 H 157.856 -3.11935 0.101498 0
M  V30 1567 N 158.157 -0.370918 -1.53173 0
M  V30 1568 C 159.405 0.216673 -2.00935 0
M  V30 1569 C 159.726 1.48845 -1.25977 0
M  V30 1570 O 158.996 1.92286 -0.374551 0
M  V30 1571 H 157.576 0.0830565 -0.742368 0
M  V30 1572 H 160.238 -0.49838 -1.8842 0
M  V30 1573 H 159.334 0.439893 -3.08984 0
M  V30 1574 N 159.635 1.57281 -0.100228 0
M  V30 1575 C 160.883 1.94153 0.561157 0
M  V30 1576 C 161.204 0.983157 1.68401 0
M  V30 1577 O 160.474 0.0361132 1.95867 0
M  V30 1578 H 159.054 0.716791 0.210283 0
M  V30 1579 H 161.716 1.94202 -0.164765 0
M  V30 1580 H 160.812 2.96709 0.968008 0
M  V30 1581 N 161.113 -0.173488 1.56642 0
M  V30 1582 C 162.362 -0.888758 1.81063 0
M  V30 1583 C 162.675 -1.83506 0.67712 0
M  V30 1584 O 163.881 -2.59254 0.806206 0
M  V30 1585 C 162.337 -1.63091 3.20826 0
M  V30 1586 C 161.945 -0.728357 4.4204 0
M  V30 1587 C 163.689 -2.33454 3.54541 0
M  V30 1588 C 161.596 -1.47062 5.72823 0
M  V30 1589 H 160.526 -0.335618 0.675186 0
M  V30 1590 H 163.177 -0.141712 1.82952 0
M  V30 1591 H 161.559 -2.42263 3.13248 0
M  V30 1592 H 162.733 0.0262449 4.60793 0
M  V30 1593 H 161.048 -0.134492 4.16183 0
M  V30 1594 H 163.645 -2.89578 4.49498 0
M  V30 1595 H 163.988 -3.08687 2.79317 0
M  V30 1596 H 164.521 -1.61227 3.63663 0
M  V30 1597 H 161.26 -0.760658 6.51072 0
M  V30 1598 H 160.78 -2.1986 5.58052 0
M  V30 1599 H 162.459 -2.01868 6.14702 0
M  V30 1600 N 162.591 -1.51276 -0.441967 0
M  V30 1601 C 163.523 -1.68444 -1.55433 0
M  V30 1602 C 164.536 -0.565187 -1.52674 0
M  V30 1603 O 165.725 -0.839356 -1.57534 0
M  V30 1604 C 162.825 -1.67966 -2.94348 0
M  V30 1605 C 161.998 -2.964 -3.21661 0
M  V30 1606 C 161.057 -2.88171 -4.40277 0
M  V30 1607 O 160.083 -3.62119 -4.39157 0
M  V30 1608 N 161.285 -2.03706 -5.43584 0
M  V30 1609 H 164.05 -2.644 -1.41112 0
M  V30 1610 H 161.611 -1.49104 -0.630838 0
M  V30 1611 H 163.603 -1.60035 -3.71713 0
M  V30 1612 H 162.173 -0.796225 -3.0229 0
M  V30 1613 H 161.393 -3.18234 -2.32638 0
M  V30 1614 H 162.681 -3.81427 -3.36736 0
M  V30 1615 H 162.079 -1.42995 -5.47329 0
M  V30 1616 H 160.636 -2.01658 -6.1982 0
M  V30 1617 N 164.069 0.697108 -1.41344 0
M  V30 1618 C 165.346 1.45154 -1.31109 0
M  V30 1619 C 165.726 2.11009 0.0620449 0
M  V30 1620 O 165.074 2.01571 1.07618 0
M  V30 1621 C 165.284 2.47223 -2.46337 0
M  V30 1622 C 166.632 3.1252 -2.87431 0
M  V30 1623 O 167.656 2.57547 -2.46065 0
M  V30 1624 O 166.515 4.12083 -3.58957 0
M  V30 1625 H 163.609 0.646365 -0.515889 0
M  V30 1626 H 166.155 0.727716 -1.53305 0
M  V30 1627 H 164.927 1.97204 -3.37974 0
M  V30 1628 H 164.55 3.27116 -2.2601 0
M  V30 1629 N 165.547 1.27147 0.931209 0
M  V30 1630 C 166.824 1.0401 1.65654 0
M  V30 1631 C 167.204 -0.426297 2.06751 0
M  V30 1632 O 166.552 -1.40879 1.79904 0
M  V30 1633 C 166.762 1.99834 2.86125 0
M  V30 1634 C 168.11 2.29007 3.57549 0
M  V30 1635 O 169.134 1.97779 2.96246 0
M  V30 1636 O 167.993 2.82222 4.67989 0
M  V30 1637 H 165.087 0.396239 0.725895 0
M  V30 1638 H 167.633 1.38397 0.982056 0
M  V30 1639 H 166.405 2.98744 2.52721 0
M  V30 1640 H 166.028 1.65987 3.61295 0
M  V30 1641 N 167.025 -1.13721 1.09112 0
M  V30 1642 C 168.271 -1.85413 0.836283 0
M  V30 1643 C 168.626 -1.8175 -0.631249 0
M  V30 1644 O 167.919 -1.24238 -1.45861 0
M  V30 1645 C 168.113 -3.32861 1.30146 0
M  V30 1646 C 167.942 -3.50882 2.81268 0
M  V30 1647 C 166.712 -3.65312 3.49106 0
M  V30 1648 C 168.91 -3.47196 3.7942 0
M  V30 1649 N 166.892 -3.71563 4.88686 0
M  V30 1650 C 168.263 -3.59777 5.04936 0
M  V30 1651 C 170.318 -3.30577 3.72321 0
M  V30 1652 C 169.021 -3.57455 6.24194 0
M  V30 1653 C 171.047 -3.29562 4.91063 0
M  V30 1654 C 170.409 -3.42691 6.15421 0
M  V30 1655 H 166.508 -0.694812 0.358832 0
M  V30 1656 H 169.092 -1.36246 1.39087 0
M  V30 1657 H 167.263 -3.80602 0.774361 0
M  V30 1658 H 168.995 -3.92346 0.99229 0
M  V30 1659 H 165.75 -3.6685 2.9953 0
M  V30 1660 H 166.174 -3.78387 5.61384 0
M  V30 1661 H 170.816 -3.19332 2.77105 0
M  V30 1662 H 168.534 -3.67475 7.19714 0
M  V30 1663 H 172.12 -3.17905 4.87266 0
M  V30 1664 H 171 -3.41862 7.05762 0
M  V30 1665 N 168.503 -0.877838 -1.30888 0
M  V30 1666 C 169.451 -0.328662 -2.30266 0
M  V30 1667 C 170.445 0.560496 -1.59859 0
M  V30 1668 O 171.651 0.445722 -1.74394 0
M  V30 1669 H 168.026 -0.0876142 -0.746879 0
M  V30 1670 H 169.997 -1.18061 -2.74051 0
M  V30 1671 C 168.746 0.448071 -3.44801 0
M  V30 1672 H 168.069 -0.226859 -3.99156 0
M  V30 1673 H 169.509 0.797541 -4.16432 0
M  V30 1674 C 167.968 1.64239 -2.94155 0
M  V30 1675 O 168.498 2.74175 -2.93583 0
M  V30 1676 N 166.704 1.47716 -2.50256 0
M  V30 1677 H 166.251 0.582821 -2.5092 0
M  V30 1678 H 166.209 2.27765 -2.16727 0
M  V30 1679 N 169.982 1.44106 -0.638065 0
M  V30 1680 C 171.23 2.01579 -0.145043 0
M  V30 1681 C 171.551 1.50496 1.24 0
M  V30 1682 O 170.821 0.711374 1.82527 0
M  V30 1683 H 169.401 0.745282 -0.05063 0
M  V30 1684 H 172.063 1.76516 -0.826327 0
M  V30 1685 H 171.159 3.11877 -0.118039 0
M  V30 1686 N 171.46 0.379036 1.52974 0
M  V30 1687 C 172.408 -0.476033 2.27677 0
M  V30 1688 C 173.402 -1.0719 1.31174 0
M  V30 1689 O 174.608 -1.01355 1.48752 0
M  V30 1690 H 170.983 -0.172255 0.732006 0
M  V30 1691 H 172.954 0.175615 2.97883 0
M  V30 1692 C 171.703 -1.5967 3.0887 0
M  V30 1693 H 171.026 -1.1475 3.82978 0
M  V30 1694 H 172.466 -2.16943 3.64296 0
M  V30 1695 C 170.925 -2.54682 2.20542 0
M  V30 1696 O 171.455 -3.57836 1.82527 0
M  V30 1697 N 169.661 -2.24183 1.84907 0
M  V30 1698 H 169.208 -1.40333 2.1602 0
M  V30 1699 H 169.166 -2.88006 1.26096 0
M  V30 1700 N 172.938 -1.57226 0.108567 0
M  V30 1701 C 173.871 -2.10447 -0.882464 0
M  V30 1702 C 174.849 -1.01829 -1.26766 0
M  V30 1703 O 176.033 -1.29415 -1.37054 0
M  V30 1704 C 173.16 -2.59258 -2.17952 0
M  V30 1705 C 172.206 -3.79662 -1.94318 0
M  V30 1706 S 173.039 -5.22586 -1.16892 0
M  V30 1707 C 174.195 -5.74758 -2.47799 0
M  V30 1708 H 174.428 -2.94178 -0.429745 0
M  V30 1709 H 171.961 -1.54043 -0.105 0
M  V30 1710 H 173.919 -2.88036 -2.92482 0
M  V30 1711 H 172.58 -1.75728 -2.60343 0
M  V30 1712 H 171.773 -4.11928 -2.90399 0
M  V30 1713 H 171.375 -3.51446 -1.27913 0
M  V30 1714 H 173.667 -5.83846 -3.43701 0
M  V30 1715 H 174.61 -6.73027 -2.20093 0
M  V30 1716 H 175.018 -5.02763 -2.56689 0
M  V30 1717 N 174.416 0.165178 -1.56732 0
M  V30 1718 C 175.379 1.18822 -1.95995 0
M  V30 1719 C 176.379 1.3685 -0.84431 0
M  V30 1720 O 177.569 1.34152 -1.11126 0
M  V30 1721 C 174.701 2.5521 -2.26011 0
M  V30 1722 H 175.894 0.851825 -2.87548 0
M  V30 1723 H 173.447 0.407857 -1.50885 0
M  V30 1724 H 174.182 2.93852 -1.37191 0
M  V30 1725 H 173.967 2.43489 -3.07336 0
M  V30 1726 H 175.457 3.28927 -2.57288 0
M  V30 1727 N 175.894 1.51508 0.433938 0
M  V30 1728 C 177.31 1.39759 0.770682 0
M  V30 1729 C 177.51 0.482594 1.95636 0
M  V30 1730 O 176.566 -0.0609691 2.52426 0
M  V30 1731 C 177.879 2.81851 1.04787 0
M  V30 1732 C 179.427 2.91025 1.1521 0
M  V30 1733 C 179.902 4.34032 1.46219 0
M  V30 1734 N 181.393 4.37154 1.53136 0
M  V30 1735 C 182.128 5.4484 1.78709 0
M  V30 1736 N 181.624 6.62682 2.02051 0
M  V30 1737 N 183.417 5.32324 1.80519 0
M  V30 1738 H 175.568 2.09548 -0.346892 0
M  V30 1739 H 177.831 0.943446 -0.0928074 0
M  V30 1740 H 177.537 3.50815 0.249304 0
M  V30 1741 H 177.411 3.21386 1.97461 0
M  V30 1742 H 179.798 2.22257 1.94128 0
M  V30 1743 H 179.879 2.54983 0.204281 0
M  V30 1744 H 179.523 5.03351 0.678274 0
M  V30 1745 H 179.453 4.6759 2.42212 0
M  V30 1746 H 181.944 3.52197 1.36987 0
M  V30 1747 H 182.257 7.40543 2.20943 0
M  V30 1748 H 180.602 6.65791 1.99366 0
M  V30 1749 H 183.793 4.39246 1.61805 0
M  V30 1750 H 183.966 6.16328 2.00111 0
M  V30 1751 N 177.372 -0.689602 1.41712 0
M  V30 1752 C 178.302 -1.81577 1.46806 0
M  V30 1753 C 179.283 -1.66945 0.326105 0
M  V30 1754 O 180.468 -1.86588 0.538377 0
M  V30 1755 C 177.598 -3.19762 1.35535 0
M  V30 1756 C 176.552 -3.49107 2.47605 0
M  V30 1757 C 175.878 -4.86711 2.21397 0
M  V30 1758 C 177.178 -3.47483 3.89939 0
M  V30 1759 H 178.872 -1.7757 2.41058 0
M  V30 1760 H 176.418 -0.852887 1.16025 0
M  V30 1761 H 178.371 -3.98263 1.3771 0
M  V30 1762 H 177.095 -3.24409 0.377708 0
M  V30 1763 H 175.754 -2.72959 2.44722 0
M  V30 1764 H 175.402 -4.8799 1.21961 0
M  V30 1765 H 175.102 -5.0731 2.96497 0
M  V30 1766 H 176.626 -5.67515 2.25297 0
M  V30 1767 H 178.04 -4.1598 3.94505 0
M  V30 1768 H 176.437 -3.79615 4.64771 0
M  V30 1769 H 177.507 -2.46341 4.17665 0
M  V30 1770 N 178.85 -1.27639 -0.924453 0
M  V30 1771 C 180.127 -1.04887 -1.651 0
M  V30 1772 C 180.507 0.415327 -2.06974 0
M  V30 1773 O 179.855 1.39923 -1.80648 0
M  V30 1774 C 180.065 -2.01348 -2.85061 0
M  V30 1775 C 181.413 -2.30899 -3.56329 0
M  V30 1776 O 182.437 -1.99348 -2.95193 0
M  V30 1777 O 181.296 -2.84699 -4.66485 0
M  V30 1778 H 178.39 -0.400083 -0.723784 0
M  V30 1779 H 180.936 -1.38916 -0.974703 0
M  V30 1780 H 179.708 -3.0008 -2.51133 0
M  V30 1781 H 179.331 -1.679 -3.6041 0
M  V30 1782 N 180.328 1.1314 -1.09713 0
M  V30 1783 C 181.556 1.88321 -0.856898 0
M  V30 1784 C 181.971 1.79276 0.592073 0
M  V30 1785 O 181.328 1.16142 1.40774 0
M  V30 1786 C 181.379 3.37812 -1.28706 0
M  V30 1787 O 181.1 3.46627 -2.67921 0
M  V30 1788 C 182.601 4.29952 -1.07964 0
M  V30 1789 H 179.821 0.596094 -0.308079 0
M  V30 1790 H 182.365 1.43205 -1.45988 0
M  V30 1791 H 180.52 3.805 -0.727912 0
M  V30 1792 H 180.934 4.39579 -2.8613 0
M  V30 1793 H 182.408 5.33159 -1.42986 0
M  V30 1794 H 182.885 4.39196 -0.0176577 0
M  V30 1795 H 183.491 3.93036 -1.62489 0
M  V30 1796 N 181.806 0.884767 1.30421 0
M  V30 1797 C 183.052 0.503851 1.96441 0
M  V30 1798 C 183.385 -0.944518 1.69684 0
M  V30 1799 O 182.66 -1.66737 1.00145 0
M  V30 1800 C 182.943 0.779085 3.51571 0
M  V30 1801 C 182.796 2.27807 3.87846 0
M  V30 1802 C 184.115 0.255452 4.39358 0
M  V30 1803 H 181.234 0.184533 0.713524 0
M  V30 1804 H 183.876 1.10872 1.54297 0
M  V30 1805 H 182.026 0.264274 3.876 0
M  V30 1806 H 183.698 2.86127 3.61841 0
M  V30 1807 H 181.941 2.74479 3.35922 0
M  V30 1808 H 182.612 2.42125 4.96064 0
M  V30 1809 H 185.088 0.696079 4.10236 0
M  V30 1810 H 183.964 0.477361 5.4682 0
M  V30 1811 H 184.225 -0.843293 4.33983 0
M  V30 1812 N 183.284 -1.43765 0.645699 0
M  V30 1813 C 184.533 -2.01116 0.153412 0
M  V30 1814 C 184.846 -1.51493 -1.23731 0
M  V30 1815 O 186.052 -2.01067 -1.8244 0
M  V30 1816 C 184.508 -3.59206 0.223473 0
M  V30 1817 C 184.116 -4.17823 1.61642 0
M  V30 1818 C 185.86 -4.23972 -0.211597 0
M  V30 1819 C 183.767 -5.68183 1.64081 0
M  V30 1820 H 182.697 -0.752093 0.0535891 0
M  V30 1821 H 185.348 -1.6482 0.806633 0
M  V30 1822 H 183.73 -3.92867 -0.497118 0
M  V30 1823 H 184.904 -3.95674 2.36176 0
M  V30 1824 H 183.219 -3.65399 1.99681 0
M  V30 1825 H 185.816 -5.34275 -0.213112 0
M  V30 1826 H 186.159 -3.97352 -1.24165 0
M  V30 1827 H 186.692 -3.95166 0.456988 0
M  V30 1828 H 183.431 -5.99559 2.64971 0
M  V30 1829 H 182.951 -5.9241 0.938611 0
M  V30 1830 H 184.63 -6.32085 1.3812 0
M  V30 1831 N 184.763 -0.387143 -1.52771 0
M  V30 1832 C 185.695 0.484089 -2.2403 0
M  V30 1833 C 186.708 1.02849 -1.26198 0
M  V30 1834 O 187.897 0.931186 -1.52286 0
M  V30 1835 C 184.997 1.68337 -2.94136 0
M  V30 1836 C 184.17 1.26672 -4.18656 0
M  V30 1837 C 183.229 2.33045 -4.7178 0
M  V30 1838 O 182.255 1.94541 -5.34923 0
M  V30 1839 N 183.457 3.64929 -4.5145 0
M  V30 1840 H 186.222 -0.126404 -2.99433 0
M  V30 1841 H 183.783 -0.213392 -1.60488 0
M  V30 1842 H 185.775 2.39019 -3.26577 0
M  V30 1843 H 184.345 2.20025 -2.22053 0
M  V30 1844 H 183.565 0.388878 -3.92277 0
M  V30 1845 H 184.853 0.964964 -4.99566 0
M  V30 1846 H 184.251 3.98974 -4.01044 0
M  V30 1847 H 182.808 4.31651 -4.88386 0
M  V30 1848 N 186.241 1.57166 -0.116904 0
M  V30 1849 C 187.204 2.14039 0.819742 0
M  V30 1850 C 188.204 1.07477 1.19605 0
M  V30 1851 O 189.394 1.33263 1.1219 0
M  V30 1852 C 186.526 2.67891 2.10826 0
M  V30 1853 H 187.719 2.98128 0.325511 0
M  V30 1854 H 185.272 1.55739 0.132312 0
M  V30 1855 H 186.007 1.87384 2.64685 0
M  V30 1856 H 185.792 3.45823 1.84793 0
M  V30 1857 H 187.282 3.11809 2.77785 0
M  V30 1858 N 187.719 -0.156864 1.56817 0
M  V30 1859 C 188.682 -1.17781 1.96622 0
M  V30 1860 C 189.682 -1.36401 0.851555 0
M  V30 1861 O 190.872 -1.33561 1.11836 0
M  V30 1862 C 188.004 -2.54008 2.27361 0
M  V30 1863 H 189.197 -0.836564 2.87996 0
M  V30 1864 H 186.75 -0.39985 1.51099 0
M  V30 1865 H 187.485 -2.9312 1.38748 0
M  V30 1866 H 187.27 -2.41856 3.08623 0
M  V30 1867 H 188.76 -3.27558 2.59029 0
M  V30 1868 N 189.197 -1.51736 -0.425897 0
M  V30 1869 C 190.446 -1.64201 -1.17136 0
M  V30 1870 C 190.759 -0.369705 -1.92074 0
M  V30 1871 O 191.965 -0.373898 -2.68913 0
M  V30 1872 C 190.421 -2.90035 -2.13091 0
M  V30 1873 C 190.029 -4.24312 -1.43747 0
M  V30 1874 C 191.773 -3.1186 -2.87999 0
M  V30 1875 C 189.68 -5.41285 -2.38253 0
M  V30 1876 H 188.61 -0.611624 -0.440944 0
M  V30 1877 H 191.261 -1.78212 -0.437328 0
M  V30 1878 H 189.643 -2.69684 -2.89977 0
M  V30 1879 H 190.817 -4.55086 -0.723408 0
M  V30 1880 H 189.132 -4.08456 -0.809465 0
M  V30 1881 H 191.729 -3.96427 -3.58817 0
M  V30 1882 H 192.072 -2.25403 -3.49999 0
M  V30 1883 H 192.605 -3.32605 -2.18217 0
M  V30 1884 H 189.344 -6.30037 -1.80925 0
M  V30 1885 H 188.864 -5.14872 -3.0768 0
M  V30 1886 H 190.543 -5.73694 -2.99139 0
M  V30 1887 N 190.675 0.682077 -1.42076 0
M  V30 1888 C 191.952 1.43755 -1.32642 0
M  V30 1889 C 192.332 2.11063 0.0396611 0
M  V30 1890 O 191.68 2.02701 1.05474 0
M  V30 1891 C 191.89 2.44596 -2.48946 0
M  V30 1892 C 193.238 3.09454 -2.9073 0
M  V30 1893 O 194.262 2.54922 -2.48783 0
M  V30 1894 O 193.121 4.08253 -3.63307 0
M  V30 1895 H 190.215 0.640857 -0.522715 0
M  V30 1896 H 192.761 0.711415 -1.54068 0
M  V30 1897 H 191.533 1.93609 -3.40046 0
M  V30 1898 H 191.156 3.24701 -2.29467 0
M  V30 1899 N 192.153 1.28127 0.917671 0
M  V30 1900 C 193.101 1.11569 2.04096 0
M  V30 1901 C 194.095 0.0360242 1.69362 0
M  V30 1902 O 195.301 0.194501 1.78946 0
M  V30 1903 H 191.676 0.344097 0.668656 0
M  V30 1904 H 193.647 2.06711 2.15205 0
M  V30 1905 C 192.396 0.790197 3.38602 0
M  V30 1906 H 191.719 1.61293 3.6582 0
M  V30 1907 H 193.159 0.714271 4.1794 0
M  V30 1908 C 191.618 -0.505897 3.3308 0
M  V30 1909 O 192.148 -1.53736 3.71117 0
M  V30 1910 N 190.354 -0.505193 2.86175 0
M  V30 1911 H 189.901 0.334621 2.55417 0
M  V30 1912 H 189.859 -1.37243 2.82863 0
M  V30 1913 N 193.631 -1.12557 1.10312 0
M  V30 1914 C 194.908 -1.80363 0.756878 0
M  V30 1915 C 195.288 -1.97067 -0.756824 0
M  V30 1916 O 194.636 -1.54601 -1.68259 0
M  V30 1917 C 194.846 -3.14812 1.50647 0
M  V30 1918 C 196.194 -3.90029 1.67817 0
M  V30 1919 O 197.218 -3.24464 1.46974 0
M  V30 1920 O 196.077 -5.07652 2.02365 0
M  V30 1921 H 193.171 -0.780667 0.272926 0
M  V30 1922 H 195.717 -1.19404 1.20586 0
M  V30 1923 H 194.489 -2.97936 2.53672 0
M  V30 1924 H 194.112 -3.83478 1.05026 0
M  V30 1925 N 195.109 -0.891671 -1.2995 0
M  V30 1926 C 196.042 -0.307994 -2.26112 0
M  V30 1927 C 197.02 0.575262 -1.52084 0
M  V30 1928 O 198.204 0.523864 -1.81074 0
M  V30 1929 C 195.331 0.561734 -3.34009 0
M  V30 1930 C 194.377 -0.253107 -4.25748 0
M  V30 1931 S 195.21 -1.64572 -5.09584 0
M  V30 1932 C 196.366 -0.782699 -6.20987 0
M  V30 1933 H 196.599 -1.12309 -2.75271 0
M  V30 1934 H 194.132 -0.691509 -1.38049 0
M  V30 1935 H 196.09 1.05777 -3.96638 0
M  V30 1936 H 194.751 1.35099 -2.83561 0
M  V30 1937 H 193.944 0.410908 -5.02322 0
M  V30 1938 H 193.546 -0.682004 -3.67729 0
M  V30 1939 H 195.838 -0.00257476 -6.775 0
M  V30 1940 H 196.781 -1.52026 -6.91588 0
M  V30 1941 H 197.189 -0.340638 -5.63471 0
M  V30 1942 N 196.587 1.43421 -0.653314 0
M  V30 1943 C 197.817 2.05864 -0.174238 0
M  V30 1944 C 198.225 1.49052 1.16534 0
M  V30 1945 O 197.568 0.616481 1.73047 0
M  V30 1946 C 197.63 3.59499 -0.00875873 0
M  V30 1947 C 197.294 4.38893 -1.27364 0
M  V30 1948 C 198.291 4.70947 -2.20239 0
M  V30 1949 C 195.976 4.789 -1.51525 0
M  V30 1950 C 197.97 5.41916 -3.35568 0
M  V30 1951 C 195.657 5.49614 -2.67147 0
M  V30 1952 C 196.655 5.81044 -3.58994 0
M  V30 1953 O 196.343 6.50313 -4.72597 0
M  V30 1954 H 196.075 0.670345 -0.0872549 0
M  V30 1955 H 198.629 1.84913 -0.894226 0
M  V30 1956 H 196.859 3.79025 0.7666 0
M  V30 1957 H 198.548 4.0364 0.427687 0
M  V30 1958 H 199.314 4.40558 -2.02815 0
M  V30 1959 H 195.193 4.53843 -0.809158 0
M  V30 1960 H 198.737 5.66365 -4.07279 0
M  V30 1961 H 194.634 5.79419 -2.84505 0
M  V30 1962 H 195.402 6.68795 -4.71864 0
M  V30 1963 N 198.065 0.39524 1.52563 0
M  V30 1964 C 199.311 -0.185318 2.01952 0
M  V30 1965 C 199.644 -1.45964 1.28095 0
M  V30 1966 O 198.919 -1.90689 0.38315 0
M  V30 1967 C 199.202 -0.447193 3.57312 0
M  V30 1968 C 199.055 0.842828 4.41833 0
M  V30 1969 C 200.374 -1.23529 4.22408 0
M  V30 1970 H 197.493 -0.0658788 0.73405 0
M  V30 1971 H 200.135 0.525975 1.82575 0
M  V30 1972 H 198.285 -1.05312 3.73954 0
M  V30 1973 H 199.957 1.4795 4.36931 0
M  V30 1974 H 198.2 1.45686 4.08605 0
M  V30 1975 H 198.871 0.614165 5.48573 0
M  V30 1976 H 201.347 -0.722445 4.0978 0
M  V30 1977 H 200.223 -1.38727 5.3108 0
M  V30 1978 H 200.484 -2.25213 3.80436 0
M  V30 1979 N 199.544 -1.57102 0.125237 0
M  V30 1980 C 200.793 -1.94582 -0.531095 0
M  V30 1981 C 201.106 -1.01126 -1.6743 0
M  V30 1982 O 202.312 -1.28097 -2.39381 0
M  V30 1983 C 200.768 -3.45839 -0.996164 0
M  V30 1984 C 200.376 -4.47842 0.118926 0
M  V30 1985 C 202.12 -3.92227 -1.62352 0
M  V30 1986 C 200.027 -5.90284 -0.363192 0
M  V30 1987 H 198.957 -0.726391 -0.20217 0
M  V30 1988 H 201.608 -1.82339 0.206092 0
M  V30 1989 H 199.99 -3.53338 -1.78796 0
M  V30 1990 H 201.164 -4.52018 0.895358 0
M  V30 1991 H 199.479 -4.11243 0.653324 0
M  V30 1992 H 202.076 -4.96069 -1.99548 0
M  V30 1993 H 202.419 -3.32552 -2.50429 0
M  V30 1994 H 202.952 -3.87554 -0.897019 0
M  V30 1995 H 199.691 -6.53728 0.481679 0
M  V30 1996 H 199.211 -5.89515 -1.10597 0
M  V30 1997 H 200.89 -6.41752 -0.822377 0
M  V30 1998 N 201.022 0.148545 -1.56898 0
M  V30 1999 C 202.268 0.862694 -1.83536 0
M  V30 2000 C 202.601 1.80889 -0.706604 0
M  V30 2001 O 201.876 1.92328 0.289885 0
M  V30 2002 C 202.159 1.63853 -3.20662 0
M  V30 2003 C 202.012 0.713925 -4.44098 0
M  V30 2004 C 203.331 2.60133 -3.54991 0
M  V30 2005 H 200.45 0.312179 -0.667618 0
M  V30 2006 H 203.092 0.127953 -1.89569 0
M  V30 2007 H 201.242 2.26489 -3.1565 0
M  V30 2008 H 202.914 0.098686 -4.61194 0
M  V30 2009 H 201.157 0.0234019 -4.33794 0
M  V30 2010 H 201.828 1.29278 -5.36648 0
M  V30 2011 H 204.304 2.07616 -3.60603 0
M  V30 2012 H 203.18 3.11468 -4.51972 0
M  V30 2013 H 203.441 3.41417 -2.80868 0
M  V30 2014 N 202.5 1.5196 0.417844 0
M  V30 2015 C 203.777 1.56146 1.17803 0
M  V30 2016 C 204.157 0.337275 2.08388 0
M  V30 2017 O 203.505 -0.676447 2.18258 0
M  V30 2018 C 203.715 2.88566 1.96293 0
M  V30 2019 C 205.063 3.41244 2.52662 0
M  V30 2020 O 206.087 2.90247 2.06483 0
M  V30 2021 O 204.946 4.30273 3.36938 0
M  V30 2022 H 202.04 0.628598 0.537395 0
M  V30 2023 H 204.586 1.64283 0.425331 0
M  V30 2024 H 203.358 3.69116 1.2988 0
M  V30 2025 H 202.981 2.83681 2.78587 0
M  V30 2026 N 203.978 -0.674533 1.42435 0
M  V30 2027 C 205.208 -1.46071 1.46105 0
M  V30 2028 C 205.616 -1.89067 0.0709605 0
M  V30 2029 O 204.959 -1.58731 -0.924677 0
M  V30 2030 C 205.021 -2.74145 2.32561 0
M  V30 2031 C 204.685 -2.53224 3.8043 0
M  V30 2032 C 205.682 -2.17809 4.72075 0
M  V30 2033 C 203.367 -2.6821 4.24698 0
M  V30 2034 C 205.361 -1.97648 6.05982 0
M  V30 2035 C 203.048 -2.47665 5.58664 0
M  V30 2036 C 204.046 -2.12437 6.49122 0
M  V30 2037 O 203.734 -1.9209 7.80613 0
M  V30 2038 H 203.466 -0.455959 0.499076 0
M  V30 2039 H 206.02 -0.836193 1.87609 0
M  V30 2040 H 204.25 -3.3908 1.85908 0
M  V30 2041 H 205.939 -3.36028 2.27683 0
M  V30 2042 H 206.705 -2.05826 4.39159 0
M  V30 2043 H 202.584 -2.94609 3.54579 0
M  V30 2044 H 206.128 -1.70075 6.7655 0
M  V30 2045 H 202.025 -2.59244 5.91154 0
M  V30 2046 H 202.793 -2.06686 7.91974 0
M  V30 2047 N 205.456 -1.28612 -0.910864 0
M  V30 2048 C 206.406 -1.09423 -2.00026 0
M  V30 2049 C 207.39 -0.0170079 -1.60891 0
M  V30 2050 O 208.582 -0.237472 -1.754 0
M  V30 2051 C 205.711 -0.76114 -3.34756 0
M  V30 2052 C 204.797 -1.87735 -3.80285 0
M  V30 2053 N 205.188 -3.11938 -3.98156 0
M  V30 2054 C 203.486 -1.76786 -4.09467 0
M  V30 2055 C 204.187 -3.84687 -4.36338 0
M  V30 2056 N 203.163 -3.12555 -4.44759 0
M  V30 2057 H 206.965 -2.03658 -2.11898 0
M  V30 2058 H 204.479 -1.19573 -1.09891 0
M  V30 2059 H 206.476 -0.604743 -4.12491 0
M  V30 2060 H 205.136 0.173403 -3.24237 0
M  V30 2061 H 206.147 -3.47516 -3.83996 0
M  V30 2062 H 202.824 -0.905284 -4.07567 0
M  V30 2063 H 204.214 -4.91518 -4.58104 0
M  V30 2064 N 206.934 1.1197 -1.10907 0
M  V30 2065 C 208.159 1.87942 -0.877064 0
M  V30 2066 C 208.584 1.79341 0.567314 0
M  V30 2067 O 207.942 1.15184 1.40009 0
M  V30 2068 C 207.99 3.34926 -1.33629 0
M  V30 2069 O 207.094 4.09303 -0.504447 0
M  V30 2070 H 206.435 0.583785 -0.316371 0
M  V30 2071 H 208.965 1.4157 -1.47712 0
M  V30 2072 H 208.975 3.8577 -1.32837 0
M  V30 2073 H 207.65 3.40504 -2.3881 0
M  V30 2074 H 206.227 3.68393 -0.577993 0
M  V30 2075 N 208.412 0.89855 1.29475 0
M  V30 2076 C 209.362 0.346767 2.25348 0
M  V30 2077 C 210.346 -0.532509 1.51833 0
M  V30 2078 O 211.538 -0.374714 1.72988 0
M  V30 2079 C 208.667 -0.425681 3.40651 0
M  V30 2080 C 207.753 0.46845 4.21505 0
M  V30 2081 N 208.144 1.57514 4.80648 0
M  V30 2082 C 206.442 0.26603 4.45206 0
M  V30 2083 C 207.143 2.12889 5.41344 0
M  V30 2084 N 206.119 1.42208 5.24669 0
M  V30 2085 H 209.921 1.19219 2.68634 0
M  V30 2086 H 207.435 0.749473 1.44072 0
M  V30 2087 H 209.432 -0.837716 4.08397 0
M  V30 2088 H 208.092 -1.26838 2.98902 0
M  V30 2089 H 209.103 1.95789 4.79465 0
M  V30 2090 H 205.78 -0.538394 4.14014 0
M  V30 2091 H 207.17 3.05901 5.98226 0
M  V30 2092 N 209.89 -1.43072 0.660911 0
M  V30 2093 C 210.837 -2.30785 -0.0259884 0
M  V30 2094 C 211.807 -1.45184 -0.806888 0
M  V30 2095 O 212.992 -1.74041 -0.781943 0
M  V30 2096 C 210.132 -3.30861 -0.981067 0
M  V30 2097 C 209.245 -4.31558 -0.195458 0
M  V30 2098 C 208.38 -5.18712 -1.14503 0
M  V30 2099 C 207.419 -6.11097 -0.350299 0
M  V30 2100 N 206.556 -6.90849 -1.25186 0
M  V30 2101 H 211.396 -2.88975 0.727846 0
M  V30 2102 H 208.933 -1.42353 0.370682 0
M  V30 2103 H 210.891 -3.87399 -1.54849 0
M  V30 2104 H 209.521 -2.74304 -1.70169 0
M  V30 2105 H 208.573 -3.77252 0.488374 0
M  V30 2106 H 209.885 -4.9701 0.422176 0
M  V30 2107 H 209.039 -5.79914 -1.78284 0
M  V30 2108 H 207.778 -4.53404 -1.79656 0
M  V30 2109 H 206.783 -5.48976 0.300808 0
M  V30 2110 H 208.008 -6.7845 0.296941 0
M  V30 2111 H 205.954 -6.28182 -1.89005 0
M  V30 2112 H 205.871 -7.52854 -0.688971 0
M  V30 2113 H 207.139 -7.5655 -1.87757 0
M  V30 2114 N 211.368 -0.403325 -1.52352 0
M  V30 2115 C 212.331 0.413051 -2.25447 0
M  V30 2116 C 213.331 0.978513 -1.276 0
M  V30 2117 O 214.521 0.858305 -1.51587 0
M  V30 2118 C 211.653 1.58087 -3.02029 0
M  V30 2119 H 212.846 -0.227094 -2.99039 0
M  V30 2120 H 210.399 -0.155722 -1.55522 0
M  V30 2121 H 211.134 2.25804 -2.32772 0
M  V30 2122 H 210.919 1.18195 -3.73861 0
M  V30 2123 H 212.409 2.1585 -3.57489 0
M  V30 2124 N 212.846 1.57033 -0.133567 0
M  V30 2125 C 213.796 2.12641 0.822671 0
M  V30 2126 C 214.78 1.05081 1.21847 0
M  V30 2127 O 215.972 1.31287 1.18713 0
M  V30 2128 C 213.101 2.74094 2.06706 0
M  V30 2129 C 212.187 3.88757 1.69497 0
M  V30 2130 N 212.578 4.95194 1.03037 0
M  V30 2131 C 210.876 3.99213 1.98859 0
M  V30 2132 C 211.577 5.75414 0.852873 0
M  V30 2133 N 210.553 5.25726 1.3825 0
M  V30 2134 H 214.355 2.92308 0.305537 0
M  V30 2135 H 211.869 1.62256 0.0684276 0
M  V30 2136 H 213.866 3.12285 2.76195 0
M  V30 2137 H 212.526 1.95896 2.5895 0
M  V30 2138 H 213.537 5.13247 0.692669 0
M  V30 2139 H 210.214 3.32075 2.53047 0
M  V30 2140 H 211.604 6.71089 0.330091 0
M  V30 2141 N 214.325 -0.140222 1.56975 0
M  V30 2142 C 215.235 -1.19223 2.02047 0
M  V30 2143 C 216.251 -1.46612 0.937062 0
M  V30 2144 O 217.427 -1.58148 1.24704 0
M  V30 2145 C 214.492 -2.50414 2.39778 0
M  V30 2146 C 213.553 -2.30612 3.621 0
M  V30 2147 C 212.786 -3.55547 3.98023 0
M  V30 2148 O 213.009 -4.62004 3.34528 0
M  V30 2149 O 211.943 -3.47808 4.91237 0
M  V30 2150 H 215.769 -0.839559 2.91865 0
M  V30 2151 H 213.354 -0.349453 1.45256 0
M  V30 2152 H 215.236 -3.27747 2.64877 0
M  V30 2153 H 213.911 -2.85198 1.53114 0
M  V30 2154 H 212.818 -1.51207 3.4218 0
M  V30 2155 H 214.151 -2.00741 4.49404 0
M  V30 2156 N 215.803 -1.52179 -0.40978 0
M  V30 2157 C 216.751 -1.76086 -1.51975 0
M  V30 2158 C 217.745 -0.627964 -1.57331 0
M  V30 2159 O 218.951 -0.809993 -1.60745 0
M  V30 2160 H 215.326 -0.556829 -0.505416 0
M  V30 2161 H 217.297 -2.69077 -1.28996 0
M  V30 2162 C 216.046 -1.92799 -2.8935 0
M  V30 2163 H 215.369 -2.79392 -2.85972 0
M  V30 2164 H 216.809 -2.13527 -3.66309 0
M  V30 2165 C 215.268 -0.694923 -3.29655 0
M  V30 2166 O 215.798 0.13751 -4.01465 0
M  V30 2167 N 214.004 -0.53101 -2.85707 0
M  V30 2168 H 213.551 -1.20952 -2.27439 0
M  V30 2169 H 213.509 0.292718 -3.13034 0
M  V30 2170 N 217.281 0.66697 -1.42791 0
M  V30 2171 C 218.527 1.42754 -1.44889 0
M  V30 2172 C 218.882 1.92283 -0.0669755 0
M  V30 2173 O 218.175 1.68494 0.912154 0
M  V30 2174 C 218.369 2.6349 -2.4147 0
M  V30 2175 C 218.198 2.25776 -3.88915 0
M  V30 2176 C 216.968 2.1476 -4.57391 0
M  V30 2177 C 219.166 1.86927 -4.79127 0
M  V30 2178 N 217.148 1.70232 -5.89826 0
M  V30 2179 C 218.519 1.53378 -6.00729 0
M  V30 2180 C 220.574 1.73989 -4.66511 0
M  V30 2181 C 219.277 1.08187 -7.11117 0
M  V30 2182 C 221.303 1.30203 -5.76889 0
M  V30 2183 C 220.665 0.975818 -6.97608 0
M  V30 2184 H 216.764 0.518559 -0.585338 0
M  V30 2185 H 219.348 0.768906 -1.78874 0
M  V30 2186 H 217.519 3.27033 -2.09533 0
M  V30 2187 H 219.251 3.30123 -2.34096 0
M  V30 2188 H 216.006 2.3408 -4.11708 0
M  V30 2189 H 216.43 1.50369 -6.6009 0
M  V30 2190 H 221.072 1.97853 -3.7365 0
M  V30 2191 H 218.79 0.830701 -8.03819 0
M  V30 2192 H 222.376 1.20701 -5.69142 0
M  V30 2193 H 221.256 0.642157 -7.81566 0
M  V30 2194 N 218.759 1.29093 0.90403 0
M  V30 2195 C 220.007 1.16583 1.65085 0
M  V30 2196 C 220.328 -0.283933 1.92922 0
M  V30 2197 O 219.598 -1.19509 1.55224 0
M  V30 2198 H 218.178 0.428467 0.611903 0
M  V30 2199 H 220.84 1.61959 1.08422 0
M  V30 2200 H 219.936 1.71266 2.6091 0
M  V30 2201 N 220.237 -1.11381 1.11499 0
M  V30 2202 C 221.462 -1.87475 0.887019 0
M  V30 2203 C 221.887 -1.79639 -0.557796 0
M  V30 2204 O 221.245 -1.15924 -1.39396 0
M  V30 2205 C 221.293 -3.34213 1.35403 0
M  V30 2206 O 220.397 -4.0903 0.526146 0
M  V30 2207 H 219.738 -0.582099 0.319463 0
M  V30 2208 H 222.268 -1.40785 1.48461 0
M  V30 2209 H 222.278 -3.8506 1.34881 0
M  V30 2210 H 220.953 -3.39232 2.40612 0
M  V30 2211 H 219.53 -3.68082 0.597522 0
M  V30 2212 N 221.715 -0.905404 -1.28997 0
M  V30 2213 C 222.678 -0.392253 -2.25819 0
M  V30 2214 C 223.678 0.476753 -1.5357 0
M  V30 2215 O 224.868 0.280994 -1.71919 0
M  V30 2216 C 222 0.438588 -3.38067 0
M  V30 2217 H 223.193 -1.24743 -2.72725 0
M  V30 2218 H 220.746 -0.684051 -1.40536 0
M  V30 2219 H 221.481 1.31352 -2.96508 0
M  V30 2220 H 221.266 -0.184167 -3.91667 0
M  V30 2221 H 222.756 0.78873 -4.10084 0
M  V30 2222 N 223.193 1.4272 -0.668489 0
M  V30 2223 C 224.103 2.34596 0.0139753 0
M  V30 2224 C 225.119 1.5474 0.795703 0
M  V30 2225 O 226.295 1.87334 0.739466 0
M  V30 2226 C 223.36 3.33202 0.957982 0
M  V30 2227 C 222.421 4.28957 0.17149 0
M  V30 2228 C 221.654 5.22853 1.07053 0
M  V30 2229 O 221.877 5.21531 2.31001 0
M  V30 2230 O 220.811 5.9952 0.534727 0
M  V30 2231 H 224.637 2.9448 -0.742661 0
M  V30 2232 H 222.222 1.43117 -0.428705 0
M  V30 2233 H 224.104 3.93796 1.50008 0
M  V30 2234 H 222.779 2.758 1.69458 0
M  V30 2235 H 221.686 3.71796 -0.414558 0
M  V30 2236 H 223.019 4.89383 -0.52586 0
M  V30 2237 N 224.671 0.411399 1.52136 0
M  V30 2238 C 225.634 -0.401089 2.25663 0
M  V30 2239 C 226.634 -0.971732 1.28117 0
M  V30 2240 O 227.824 -0.850254 1.52041 0
M  V30 2241 C 224.956 -1.56483 3.02863 0
M  V30 2242 H 226.149 0.24295 2.98914 0
M  V30 2243 H 223.702 0.163968 1.55438 0
M  V30 2244 H 224.437 -2.24567 2.33967 0
M  V30 2245 H 224.222 -1.16211 3.74483 0
M  V30 2246 H 225.712 -2.13951 3.58629 0
M  V30 2247 N 226.149 -1.5696 0.141893 0
M  V30 2248 C 227.396 -1.9596 -0.510492 0
M  V30 2249 C 227.724 -1.02648 -1.65208 0
M  V30 2250 O 226.979 -0.0546947 -1.95624 0
M  V30 2251 C 227.278 -3.41242 -1.06249 0
M  V30 2252 C 226.944 -4.50882 -0.0398791 0
M  V30 2253 C 225.606 -4.80595 0.241247 0
M  V30 2254 C 227.958 -5.17058 0.65578 0
M  V30 2255 C 225.286 -5.73792 1.22393 0
M  V30 2256 C 227.638 -6.11313 1.62724 0
M  V30 2257 C 226.302 -6.39407 1.91612 0
M  V30 2258 H 225.572 -0.717068 -0.186802 0
M  V30 2259 H 228.219 -1.90142 0.227643 0
M  V30 2260 H 226.524 -3.43866 -1.87785 0
M  V30 2261 H 228.221 -3.68742 -1.57576 0
M  V30 2262 H 224.811 -4.27754 -0.269174 0
M  V30 2263 H 228.995 -4.94239 0.451779 0
M  V30 2264 H 224.251 -5.93853 1.45424 0
M  V30 2265 H 228.425 -6.61668 2.17183 0
M  V30 2266 H 226.052 -7.11427 2.6791 0
M  V30 2267 N 227.627 0.131896 -1.57047 0
M  V30 2268 C 228.874 0.841932 -1.84168 0
M  V30 2269 C 229.202 1.8048 -0.725066 0
M  V30 2270 O 228.457 1.93618 0.284692 0
M  V30 2271 C 228.756 1.63703 -3.17704 0
M  V30 2272 C 228.422 0.81961 -4.43388 0
M  V30 2273 C 227.084 0.594148 -4.77518 0
M  V30 2274 C 229.436 0.248977 -5.20605 0
M  V30 2275 C 226.764 -0.212409 -5.86315 0
M  V30 2276 C 229.116 -0.544701 -6.30251 0
M  V30 2277 C 227.78 -0.780599 -6.6292 0
M  V30 2278 H 227.05 0.308085 -0.673917 0
M  V30 2279 H 229.697 0.104867 -1.91213 0
M  V30 2280 H 228.002 2.44464 -3.06177 0
M  V30 2281 H 229.699 2.19015 -3.35907 0
M  V30 2282 H 226.289 1.00542 -4.16641 0
M  V30 2283 H 230.473 0.410408 -4.946 0
M  V30 2284 H 225.729 -0.404524 -6.1006 0
M  V30 2285 H 229.903 -0.993922 -6.89271 0
M  V30 2286 H 227.53 -1.40742 -7.47058 0
M  V30 2287 N 229.106 1.52395 0.401703 0
M  V30 2288 C 230.053 1.76268 1.48991 0
M  V30 2289 C 231.023 0.605386 1.54675 0
M  V30 2290 O 232.208 0.843742 1.7113 0
M  V30 2291 C 229.348 1.92592 2.86361 0
M  V30 2292 C 228.461 3.20259 2.89928 0
M  V30 2293 C 227.596 3.26972 4.18644 0
M  V30 2294 C 226.635 4.48812 4.16214 0
M  V30 2295 N 225.772 4.52877 5.36514 0
M  V30 2296 H 230.612 2.6914 1.27935 0
M  V30 2297 H 228.149 1.33355 0.620871 0
M  V30 2298 H 230.107 2.0004 3.66115 0
M  V30 2299 H 228.737 1.03093 3.05895 0
M  V30 2300 H 227.789 3.21945 2.02621 0
M  V30 2301 H 229.101 4.10056 2.83999 0
M  V30 2302 H 228.255 3.33533 5.06794 0
M  V30 2303 H 226.994 2.35126 4.27278 0
M  V30 2304 H 225.999 4.4239 3.26453 0
M  V30 2305 H 227.224 5.41961 4.09213 0
M  V30 2306 H 225.17 3.63917 5.45802 0
M  V30 2307 H 225.087 5.36529 5.32609 0
M  V30 2308 H 226.355 4.63676 6.26597 0
M  V30 2309 N 230.584 -0.659388 1.43143 0
M  V30 2310 C 231.516 -1.7849 1.43784 0
M  V30 2311 C 232.529 -1.5932 0.334787 0
M  V30 2312 O 233.718 -1.68155 0.598842 0
M  V30 2313 C 230.818 -3.15828 1.22906 0
M  V30 2314 C 229.991 -3.61711 2.45934 0
M  V30 2315 C 229.05 -4.77831 2.20371 0
M  V30 2316 O 228.076 -4.87586 2.93681 0
M  V30 2317 N 229.278 -5.67611 1.21647 0
M  V30 2318 H 232.043 -1.7842 2.40803 0
M  V30 2319 H 229.604 -0.84302 1.3822 0
M  V30 2320 H 231.596 -3.91189 1.03697 0
M  V30 2321 H 230.166 -3.10707 0.343542 0
M  V30 2322 H 229.386 -2.76861 2.80609 0
M  V30 2323 H 230.674 -3.89112 3.27825 0
M  V30 2324 H 230.072 -5.62397 0.610449 0
M  V30 2325 H 228.629 -6.42719 1.08423 0
M  V30 2326 N 232.062 -1.29571 -0.897171 0
M  V30 2327 C 233.308 -1.17863 -1.65034 0
M  V30 2328 C 233.641 0.268729 -1.92332 0
M  V30 2329 O 232.916 1.19378 -1.53555 0
M  V30 2330 C 233.199 -1.995 -2.99786 0
M  V30 2331 C 233.052 -3.5239 -2.79538 0
M  V30 2332 C 234.371 -1.82335 -4.00552 0
M  V30 2333 H 231.49 -0.429528 -0.598895 0
M  V30 2334 H 234.132 -1.59072 -1.03905 0
M  V30 2335 H 232.282 -1.64485 -3.51962 0
M  V30 2336 H 233.954 -3.97401 -2.34244 0
M  V30 2337 H 232.197 -3.77187 -2.14273 0
M  V30 2338 H 232.868 -4.04787 -3.75302 0
M  V30 2339 H 235.344 -2.12924 -3.57495 0
M  V30 2340 H 234.22 -2.41801 -4.92771 0
M  V30 2341 H 234.481 -0.779209 -4.35179 0
M  V30 2342 N 233.54 1.10788 -1.12088 0
M  V30 2343 C 234.503 2.15207 -0.788577 0
M  V30 2344 C 235.503 1.59609 0.195317 0
M  V30 2345 O 236.693 1.74174 -0.0300193 0
M  V30 2346 C 233.825 3.4047 -0.171174 0
M  V30 2347 H 235.018 2.46116 -1.71368 0
M  V30 2348 H 232.571 1.26089 -0.923652 0
M  V30 2349 H 233.306 3.15176 0.763832 0
M  V30 2350 H 233.091 3.82109 -0.879514 0
M  V30 2351 H 234.581 4.17576 0.04496 0
M  V30 2352 N 235.018 0.912232 1.28515 0
M  V30 2353 C 235.95 0.35676 2.26406 0
M  V30 2354 C 236.963 -0.503933 1.54804 0
M  V30 2355 O 238.152 -0.319059 1.75625 0
M  V30 2356 C 235.252 -0.508825 3.35058 0
M  V30 2357 C 234.425 0.329007 4.36161 0
M  V30 2358 C 233.484 -0.471422 5.24084 0
M  V30 2359 O 232.51 0.115482 5.69083 0
M  V30 2360 N 233.712 -1.77479 5.52704 0
M  V30 2361 H 236.477 1.19818 2.74707 0
M  V30 2362 H 234.038 0.778022 1.4198 0
M  V30 2363 H 236.03 -1.051 3.90815 0
M  V30 2364 H 234.6 -1.25095 2.86478 0
M  V30 2365 H 233.82 1.05256 3.79888 0
M  V30 2366 H 235.108 0.90234 5.00735 0
M  V30 2367 H 234.506 -2.27417 5.17975 0
M  V30 2368 H 233.063 -2.26382 6.11224 0
M  V30 2369 N 236.496 -1.42363 0.676048 0
M  V30 2370 C 237.443 -2.308 -0.00150904 0
M  V30 2371 C 238.413 -1.46032 -0.791444 0
M  V30 2372 O 239.598 -1.74861 -0.76344 0
M  V30 2373 C 236.738 -3.31883 -0.945919 0
M  V30 2374 C 235.851 -4.31741 -0.149675 0
M  V30 2375 C 234.986 -5.19898 -1.08995 0
M  V30 2376 C 234.025 -6.11434 -0.285465 0
M  V30 2377 N 233.162 -6.92138 -1.17851 0
M  V30 2378 H 238.002 -2.88187 0.758455 0
M  V30 2379 H 235.539 -1.41952 0.38576 0
M  V30 2380 H 237.497 -3.89019 -1.50731 0
M  V30 2381 H 236.127 -2.76093 -1.6725 0
M  V30 2382 H 235.179 -3.76713 0.528359 0
M  V30 2383 H 236.491 -4.96534 0.474866 0
M  V30 2384 H 235.645 -5.81772 -1.72123 0
M  V30 2385 H 234.384 -4.55284 -1.74837 0
M  V30 2386 H 233.389 -5.48627 0.359018 0
M  V30 2387 H 234.614 -6.78097 0.368883 0
M  V30 2388 H 232.56 -6.30152 -1.82332 0
M  V30 2389 H 232.477 -7.53542 -0.609082 0
M  V30 2390 H 233.745 -7.58499 -1.79722 0
M  V30 2391 N 237.974 -0.419461 -1.51915 0
M  V30 2392 C 239.22 0.145505 -2.02879 0
M  V30 2393 C 239.575 1.41926 -1.29903 0
M  V30 2394 O 238.868 1.87383 -0.399782 0
M  V30 2395 C 239.062 0.437067 -3.54717 0
M  V30 2396 C 238.891 -0.806877 -4.42402 0
M  V30 2397 C 237.661 -1.33514 -4.87342 0
M  V30 2398 C 239.859 -1.68796 -4.85811 0
M  V30 2399 N 237.841 -2.53349 -5.59185 0
M  V30 2400 C 239.212 -2.73247 -5.56539 0
M  V30 2401 C 241.267 -1.70449 -4.67816 0
M  V30 2402 C 239.97 -3.79276 -6.11181 0
M  V30 2403 C 241.996 -2.75403 -5.23361 0
M  V30 2404 C 241.358 -3.78575 -5.9402 0
M  V30 2405 H 237.457 0.0145424 -0.781865 0
M  V30 2406 H 240.041 -0.576126 -1.85981 0
M  V30 2407 H 238.212 1.12774 -3.71667 0
M  V30 2408 H 239.944 0.99182 -3.92358 0
M  V30 2409 H 236.699 -0.891657 -4.65131 0
M  V30 2410 H 237.123 -3.14066 -5.99743 0
M  V30 2411 H 241.765 -0.920209 -4.12664 0
M  V30 2412 H 239.483 -4.58554 -6.65397 0
M  V30 2413 H 243.069 -2.77603 -5.113 0
M  V30 2414 H 241.949 -4.58453 -6.36231 0
M  V30 2415 N 239.452 1.56882 -0.150215 0
M  V30 2416 C 240.7 1.9584 0.499105 0
M  V30 2417 C 241.021 1.03623 1.65188 0
M  V30 2418 O 240.291 0.0984084 1.95653 0
M  V30 2419 H 238.871 0.723119 0.187373 0
M  V30 2420 H 241.533 1.9358 -0.226466 0
M  V30 2421 H 240.629 2.99638 0.873122 0
M  V30 2422 N 240.93 -0.123565 1.57115 0
M  V30 2423 C 241.862 -1.17739 1.96648 0
M  V30 2424 C 242.875 -1.37906 0.865201 0
M  V30 2425 O 244.064 -1.37062 1.14351 0
M  V30 2426 C 241.164 -2.53821 2.24562 0
M  V30 2427 C 240.337 -2.54317 3.55867 0
M  V30 2428 C 239.396 -3.72112 3.72047 0
M  V30 2429 O 238.422 -3.55907 4.44206 0
M  V30 2430 N 239.624 -4.90498 3.10471 0
M  V30 2431 H 242.389 -0.841147 2.87654 0
M  V30 2432 H 239.95 -0.31289 1.58848 0
M  V30 2433 H 241.942 -3.31175 2.32606 0
M  V30 2434 H 240.512 -2.79645 1.39705 0
M  V30 2435 H 239.732 -1.62711 3.59053 0
M  V30 2436 H 241.02 -2.51701 4.42181 0
M  V30 2437 H 240.418 -5.06567 2.51806 0
M  V30 2438 H 238.975 -5.65544 3.24043 0
M  V30 2439 N 242.408 -1.52605 -0.393616 0
M  V30 2440 C 243.358 -1.73436 -1.48 0
M  V30 2441 C 244.342 -0.588386 -1.49756 0
M  V30 2442 O 245.534 -0.846047 -1.5547 0
M  V30 2443 C 242.663 -1.90247 -2.85764 0
M  V30 2444 C 241.749 -3.10763 -2.88595 0
M  V30 2445 N 242.14 -4.33196 -2.61103 0
M  V30 2446 C 240.438 -3.10914 -3.19763 0
M  V30 2447 C 241.139 -5.1477 -2.70899 0
M  V30 2448 N 240.115 -4.50356 -3.04435 0
M  V30 2449 H 243.917 -2.65727 -1.25563 0
M  V30 2450 H 241.431 -1.5085 -0.601513 0
M  V30 2451 H 243.428 -2.03291 -3.63976 0
M  V30 2452 H 242.088 -0.991663 -3.09186 0
M  V30 2453 H 243.099 -4.61408 -2.35209 0
M  V30 2454 H 239.776 -2.29626 -3.4868 0
M  V30 2455 H 241.166 -6.22355 -2.53227 0
M  V30 2456 N 243.887 0.651787 -1.4349 0
M  V30 2457 C 244.835 1.78586 -1.49029 0
M  V30 2458 C 245.829 1.65448 -0.363767 0
M  V30 2459 O 247.035 1.71777 -0.537821 0
M  V30 2460 H 243.41 0.589236 -0.467231 0
M  V30 2461 H 245.381 1.71035 -2.44519 0
M  V30 2462 C 244.13 3.16851 -1.43181 0
M  V30 2463 H 243.453 3.27598 -2.29171 0
M  V30 2464 H 244.893 3.96156 -1.51118 0
M  V30 2465 C 243.352 3.36568 -0.149616 0
M  V30 2466 O 243.882 3.93885 0.788509 0
M  V30 2467 N 242.088 2.90539 -0.0593484 0
M  V30 2468 H 241.635 2.4408 -0.823575 0
M  V30 2469 H 241.593 3.04108 0.797853 0
M  V30 2470 N 245.365 1.30045 0.890287 0
M  V30 2471 C 246.313 1.15873 2.01683 0
M  V30 2472 C 247.307 0.0719403 1.69247 0
M  V30 2473 O 248.513 0.232414 1.78493 0
M  V30 2474 H 244.888 0.358203 0.661207 0
M  V30 2475 H 246.859 2.11229 2.10772 0
M  V30 2476 C 245.608 0.861842 3.36849 0
M  V30 2477 H 244.931 1.69016 3.62317 0
M  V30 2478 H 246.371 0.802762 4.16331 0
M  V30 2479 C 244.83 -0.435132 3.34078 0
M  V30 2480 O 245.36 -1.4583 3.74295 0
M  V30 2481 N 243.566 -0.444377 2.87182 0
M  V30 2482 H 243.113 0.388723 2.5465 0
M  V30 2483 H 243.071 -1.31213 2.85711 0
M  V30 2484 N 246.843 -1.10192 1.12674 0
M  V30 2485 C 248.089 -1.82475 0.884915 0
M  V30 2486 C 248.422 -1.85093 -0.58773 0
M  V30 2487 O 247.697 -1.3134 -1.43457 0
M  V30 2488 C 247.98 -3.29018 1.46353 0
M  V30 2489 C 247.833 -3.34718 3.00473 0
M  V30 2490 C 249.152 -4.25473 1.12519 0
M  V30 2491 H 246.271 -0.662492 0.322915 0
M  V30 2492 H 248.913 -1.2913 1.39375 0
M  V30 2493 H 247.063 -3.74576 1.03077 0
M  V30 2494 H 248.735 -2.97622 3.52447 0
M  V30 2495 H 246.978 -2.74541 3.35872 0
M  V30 2496 H 247.649 -4.37918 3.36053 0
M  V30 2497 H 250.125 -3.88161 1.499 0
M  V30 2498 H 249.001 -5.26365 1.55663 0
M  V30 2499 H 249.262 -4.42084 0.0377407 0
M  V30 2500 N 248.321 -0.919034 -1.28029 0
M  V30 2501 C 249.57 -0.550802 -1.94034 0
M  V30 2502 C 249.883 0.910877 -1.73096 0
M  V30 2503 O 251.089 1.3875 -2.33368 0
M  V30 2504 C 249.545 -0.934249 -3.47563 0
M  V30 2505 C 249.153 -2.41602 -3.7727 0
M  V30 2506 C 250.897 -0.636854 -4.19696 0
M  V30 2507 C 248.804 -2.73932 -5.24133 0
M  V30 2508 H 247.734 -0.202273 -0.726362 0
M  V30 2509 H 250.385 -1.11867 -1.45458 0
M  V30 2510 H 248.767 -0.295115 -3.94899 0
M  V30 2511 H 249.941 -3.10233 -3.40723 0
M  V30 2512 H 248.256 -2.68441 -3.18321 0
M  V30 2513 H 250.853 -0.855005 -5.2782 0
M  V30 2514 H 251.196 0.425575 -4.14119 0
M  V30 2515 H 251.729 -1.23469 -3.78154 0
M  V30 2516 H 248.468 -3.79049 -5.34792 0
M  V30 2517 H 247.988 -2.09942 -5.61858 0
M  V30 2518 H 249.667 -2.61215 -5.91925 0
M  V30 2519 N 249.799 1.42003 -0.683588 0
M  V30 2520 C 251.029 2.05448 -0.217866 0
M  V30 2521 C 251.437 1.51491 1.13346 0
M  V30 2522 O 250.78 0.653048 1.717 0
M  V30 2523 C 250.842 3.59399 -0.0850118 0
M  V30 2524 C 250.506 4.36093 -1.36645 0
M  V30 2525 C 251.503 4.66169 -2.30179 0
M  V30 2526 C 249.188 4.75578 -1.61649 0
M  V30 2527 C 251.182 5.34676 -3.46988 0
M  V30 2528 C 248.869 5.43824 -2.78745 0
M  V30 2529 C 249.867 5.73299 -3.71238 0
M  V30 2530 O 249.555 6.40142 -4.86285 0
M  V30 2531 H 249.287 0.668344 -0.101454 0
M  V30 2532 H 251.841 1.82974 -0.933248 0
M  V30 2533 H 250.071 3.80566 0.686031 0
M  V30 2534 H 251.76 4.04457 0.341973 0
M  V30 2535 H 252.526 4.36156 -2.12115 0
M  V30 2536 H 248.405 4.52025 -0.905243 0
M  V30 2537 H 251.949 5.57599 -4.19201 0
M  V30 2538 H 247.846 5.73254 -2.96732 0
M  V30 2539 H 248.614 6.58636 -4.85944 0
M  V30 2540 N 251.277 0.427512 1.51691 0
M  V30 2541 C 252.187 -0.39527 2.31246 0
M  V30 2542 C 253.203 -1.03674 1.39742 0
M  V30 2543 O 254.379 -1.03425 1.72816 0
M  V30 2544 C 251.444 -1.48706 3.13189 0
M  V30 2545 C 250.505 -0.866743 4.20459 0
M  V30 2546 C 249.738 -1.90651 4.98486 0
M  V30 2547 O 249.961 -3.12733 4.77026 0
M  V30 2548 O 248.895 -1.5025 5.82845 0
M  V30 2549 H 252.721 0.253918 3.02637 0
M  V30 2550 H 250.306 0.190274 1.48183 0
M  V30 2551 H 252.188 -2.12047 3.64162 0
M  V30 2552 H 250.863 -2.12051 2.44573 0
M  V30 2553 H 249.77 -0.195544 3.73589 0
M  V30 2554 H 251.103 -0.276934 4.9142 0
M  V30 2555 N 252.755 -1.56801 0.158532 0
M  V30 2556 C 253.685 -2.20347 -0.772609 0
M  V30 2557 C 254.666 -1.15518 -1.24859 0
M  V30 2558 O 255.851 -1.43902 -1.30406 0
M  V30 2559 C 252.981 -2.83417 -2.00729 0
M  V30 2560 C 251.935 -3.94174 -1.66765 0
M  V30 2561 C 251.261 -4.44233 -2.97592 0
M  V30 2562 C 252.561 -5.14392 -0.905447 0
M  V30 2563 H 254.255 -2.98413 -0.242959 0
M  V30 2564 H 251.801 -1.43537 -0.115419 0
M  V30 2565 H 253.754 -3.26543 -2.6636 0
M  V30 2566 H 252.478 -2.02701 -2.56086 0
M  V30 2567 H 251.137 -3.51684 -1.03508 0
M  V30 2568 H 250.785 -3.60325 -3.50963 0
M  V30 2569 H 250.485 -5.18945 -2.75626 0
M  V30 2570 H 252.009 -4.90037 -3.64274 0
M  V30 2571 H 253.423 -5.5429 -1.46408 0
M  V30 2572 H 251.82 -5.9494 -0.7853 0
M  V30 2573 H 252.89 -4.84795 0.100668 0
M  V30 2574 N 254.233 0.115231 -1.57178 0
M  V30 2575 C 255.463 0.835224 -1.88964 0
M  V30 2576 C 255.871 1.73774 -0.74829 0
M  V30 2577 O 255.214 1.81401 0.289739 0
M  V30 2578 C 255.276 1.7178 -3.15804 0
M  V30 2579 C 254.94 0.989198 -4.46166 0
M  V30 2580 C 255.937 0.328263 -5.18863 0
M  V30 2581 C 253.622 0.969256 -4.9286 0
M  V30 2582 C 255.616 -0.342873 -6.36477 0
M  V30 2583 C 253.303 0.294324 -6.10391 0
M  V30 2584 C 254.301 -0.360582 -6.82048 0
M  V30 2585 O 253.989 -1.02474 -7.97342 0
M  V30 2586 H 253.721 0.245197 -0.629964 0
M  V30 2587 H 256.275 0.10303 -2.05141 0
M  V30 2588 H 254.505 2.49173 -2.95719 0
M  V30 2589 H 256.194 2.31255 -3.33581 0
M  V30 2590 H 256.96 0.335263 -4.8384 0
M  V30 2591 H 252.839 1.46844 -4.36987 0
M  V30 2592 H 256.383 -0.854629 -6.92345 0
M  V30 2593 H 252.28 0.285099 -6.4487 0
M  V30 2594 H 253.048 -0.929594 -8.13204 0
M  V30 2595 N 255.711 1.52812 0.385517 0
M  V30 2596 C 256.659 1.78482 1.49155 0
M  V30 2597 C 257.653 0.652914 1.56312 0
M  V30 2598 O 258.859 0.835464 1.59436 0
M  V30 2599 H 255.234 0.5648 0.496493 0
M  V30 2600 H 257.205 2.71095 1.24699 0
M  V30 2601 C 255.954 1.97378 2.86247 0
M  V30 2602 H 255.277 2.83907 2.81491 0
M  V30 2603 H 256.717 2.19327 3.62866 0
M  V30 2604 C 255.176 0.74728 3.28508 0
M  V30 2605 O 255.706 -0.0736232 4.01633 0
M  V30 2606 N 253.912 0.576396 2.84826 0
M  V30 2607 H 253.459 1.24555 2.25486 0
M  V30 2608 H 253.417 -0.24288 3.1346 0
M  V30 2609 N 257.189 -0.644168 1.43834 0
M  V30 2610 C 258.099 -1.78563 1.52159 0
M  V30 2611 C 259.115 -1.69147 0.408069 0
M  V30 2612 O 260.291 -1.90156 0.663524 0
M  V30 2613 C 257.356 -3.14888 1.45073 0
M  V30 2614 C 256.417 -3.36034 2.6717 0
M  V30 2615 C 255.65 -4.65855 2.60413 0
M  V30 2616 O 255.873 -5.45805 1.65689 0
M  V30 2617 O 254.807 -4.88918 3.5106 0
M  V30 2618 H 258.633 -1.74494 2.48567 0
M  V30 2619 H 256.218 -0.80378 1.25935 0
M  V30 2620 H 258.1 -3.96179 1.43597 0
M  V30 2621 H 256.775 -3.19528 0.518037 0
M  V30 2622 H 255.682 -2.54472 2.74217 0
M  V30 2623 H 257.015 -3.36247 3.59442 0
M  V30 2624 N 258.668 -1.30515 -0.883378 0
M  V30 2625 C 260.079 -1.17509 -1.45081 0
M  V30 2626 C 260.43 0.223605 -1.94922 0
M  V30 2627 O 259.555 1.12041 -1.85137 0
M  V30 2628 C 260.15 -2.12715 -2.63701 0
M  V30 2629 C 258.709 -2.03682 -3.16529 0
M  V30 2630 C 257.856 -2.02706 -1.89224 0
M  V30 2631 H 260.807 -1.42762 -0.693165 0
M  V30 2632 H 260.828 -1.70891 -3.39965 0
M  V30 2633 H 260.34 -3.14505 -2.27395 0
M  V30 2634 H 258.441 -1.05039 -3.57488 0
M  V30 2635 H 258.554 -2.92146 -3.7972 0
M  V30 2636 H 256.918 -1.4753 -2.07622 0
M  V30 2637 H 257.701 -3.06229 -1.55174 0
M  V30 2638 N 260.146 1.09593 -1.13257 0
M  V30 2639 C 261.076 2.18214 -0.830946 0
M  V30 2640 C 262.057 1.68812 0.208966 0
M  V30 2641 O 263.242 1.9408 0.0682666 0
M  V30 2642 C 260.372 3.46051 -0.294296 0
M  V30 2643 C 259.326 4.08778 -1.26826 0
M  V30 2644 C 258.652 5.31419 -0.591449 0
M  V30 2645 C 259.952 4.51476 -2.62615 0
M  V30 2646 H 261.646 2.43703 -1.73923 0
M  V30 2647 H 259.192 1.17128 -0.837675 0
M  V30 2648 H 261.145 4.2134 -0.0709606 0
M  V30 2649 H 259.869 3.20079 0.649366 0
M  V30 2650 H 258.528 3.35505 -1.47756 0
M  V30 2651 H 258.176 5.01727 0.357633 0
M  V30 2652 H 257.876 5.74341 -1.24123 0
M  V30 2653 H 259.4 6.09433 -0.377355 0
M  V30 2654 H 260.814 5.17999 -2.45663 0
M  V30 2655 H 259.211 5.05277 -3.23752 0
M  V30 2656 H 260.281 3.63962 -3.20406 0
M  V30 2657 N 261.624 0.925811 1.2754 0
M  V30 2658 C 262.872 0.564138 1.94067 0
M  V30 2659 C 263.193 -0.897188 1.73134 0
M  V30 2660 O 262.463 -1.63573 1.07799 0
M  V30 2661 H 261.043 0.205645 0.718136 0
M  V30 2662 H 263.705 1.1778 1.55287 0
M  V30 2663 H 262.801 0.76881 3.02483 0
M  V30 2664 N 263.102 -1.41638 0.69111 0
M  V30 2665 C 264.348 -2.01598 0.220519 0
M  V30 2666 C 264.681 -1.54594 -1.17535 0
M  V30 2667 O 263.956 -0.755177 -1.79241 0
M  V30 2668 C 264.239 -3.59062 0.273243 0
M  V30 2669 C 264.092 -4.16203 1.70573 0
M  V30 2670 C 265.411 -4.38546 -0.369457 0
M  V30 2671 H 262.53 -0.732468 0.0816045 0
M  V30 2672 H 265.172 -1.68445 0.878986 0
M  V30 2673 H 263.322 -3.87435 -0.287411 0
M  V30 2674 H 264.994 -3.98722 2.31989 0
M  V30 2675 H 263.237 -3.71414 2.2413 0
M  V30 2676 H 263.908 -5.25358 1.69419 0
M  V30 2677 H 266.384 -4.1596 0.107977 0
M  V30 2678 H 265.26 -5.48069 -0.302002 0
M  V30 2679 H 265.521 -4.17662 -1.44951 0
M  V30 2680 N 264.58 -0.43555 -1.51462 0
M  V30 2681 C 265.857 0.191364 -1.94662 0
M  V30 2682 C 266.237 1.60254 -1.37411 0
M  V30 2683 O 265.585 2.2152 -0.560458 0
M  V30 2684 C 265.795 0.17091 -3.48581 0
M  V30 2685 C 267.143 0.377357 -4.2292 0
M  V30 2686 O 268.167 0.249104 -3.55328 0
M  V30 2687 O 267.026 0.63247 -5.42828 0
M  V30 2688 H 264.12 0.130932 -0.816569 0
M  V30 2689 H 266.666 -0.4934 -1.62369 0
M  V30 2690 H 265.438 -0.815738 -3.82703 0
M  V30 2691 H 265.061 0.898659 -3.87311 0
M  V30 2692 N 266.058 1.56714 -0.166846 0
M  V30 2693 C 267.304 1.97813 0.473473 0
M  V30 2694 C 267.659 1.05095 1.61161 0
M  V30 2695 O 266.952 0.0897541 1.9139 0
M  V30 2696 C 267.146 3.42889 1.00806 0
M  V30 2697 C 266.975 4.49635 -0.0767392 0
M  V30 2698 C 265.745 5.02566 -0.524894 0
M  V30 2699 C 267.943 5.06793 -0.875504 0
M  V30 2700 N 265.925 5.9294 -1.59047 0
M  V30 2701 C 267.296 5.93565 -1.79111 0
M  V30 2702 C 269.351 4.89306 -0.921083 0
M  V30 2703 C 268.054 6.64721 -2.74843 0
M  V30 2704 C 270.08 5.61179 -1.86633 0
M  V30 2705 C 269.442 6.47675 -2.76942 0
M  V30 2706 H 265.541 0.769093 0.141489 0
M  V30 2707 H 268.125 1.92874 -0.266031 0
M  V30 2708 H 266.296 3.48382 1.7171 0
M  V30 2709 H 268.028 3.71008 1.61664 0
M  V30 2710 H 264.783 4.73439 -0.123432 0
M  V30 2711 H 265.207 6.42831 -2.12361 0
M  V30 2712 H 269.849 4.22136 -0.23692 0
M  V30 2713 H 267.567 7.31107 -3.44249 0
M  V30 2714 H 271.153 5.49636 -1.90764 0
M  V30 2715 H 270.033 7.02313 -3.48893 0
M  V30 2716 N 267.536 -0.106894 1.57237 0
M  V30 2717 C 268.486 -1.1366 1.9765 0
M  V30 2718 C 269.47 -1.36416 0.853203 0
M  V30 2719 O 270.662 -1.37305 1.11697 0
M  V30 2720 C 267.791 -2.46 2.39455 0
M  V30 2721 C 266.877 -2.26668 3.58445 0
M  V30 2722 N 267.268 -1.77176 4.73754 0
M  V30 2723 C 265.566 -2.57279 3.64312 0
M  V30 2724 C 266.267 -1.71836 5.5574 0
M  V30 2725 N 265.243 -2.16623 4.98573 0
M  V30 2726 H 269.045 -0.74669 2.84256 0
M  V30 2727 H 266.559 -0.314483 1.59326 0
M  V30 2728 H 268.556 -3.2049 2.6663 0
M  V30 2729 H 267.216 -2.85738 1.54219 0
M  V30 2730 H 268.227 -1.46545 4.96734 0
M  V30 2731 H 264.904 -3.00622 2.89711 0
M  V30 2732 H 266.294 -1.34723 6.58255 0
M  V30 2733 N 269.014 -1.53014 -0.377408 0
M  V30 2734 C 270.239 -1.72818 -1.14668 0
M  V30 2735 C 270.664 -0.450725 -1.8262 0
M  V30 2736 O 270.022 0.59439 -1.7128 0
M  V30 2737 C 270.07 -2.88627 -2.16164 0
M  V30 2738 O 269.174 -2.56409 -3.22998 0
M  V30 2739 H 268.515 -0.574301 -0.333278 0
M  V30 2740 H 271.045 -1.99853 -0.438152 0
M  V30 2741 H 271.055 -3.14455 -2.59966 0
M  V30 2742 H 269.73 -3.81294 -1.66095 0
M  V30 2743 H 268.307 -2.4136 -2.84253 0
M  V30 2744 N 270.492 0.636531 -1.44174 0
M  V30 2745 C 271.738 1.39826 -1.4689 0
M  V30 2746 C 272.071 1.93947 -0.0990585 0
M  V30 2747 O 271.346 1.73325 0.882544 0
M  V30 2748 C 271.629 2.56751 -2.5249 0
M  V30 2749 C 271.482 2.08014 -3.98811 0
M  V30 2750 C 272.801 3.58946 -2.54649 0
M  V30 2751 H 269.92 0.507075 -0.53483 0
M  V30 2752 H 272.562 0.720188 -1.75822 0
M  V30 2753 H 270.712 3.14597 -2.2795 0
M  V30 2754 H 272.384 1.5504 -4.34466 0
M  V30 2755 H 270.627 1.39242 -4.10846 0
M  V30 2756 H 271.298 2.92169 -4.68339 0
M  V30 2757 H 273.774 3.1089 -2.76563 0
M  V30 2758 H 272.65 4.38286 -3.3045 0
M  V30 2759 H 272.911 4.12655 -1.58646 0
M  V30 2760 N 271.97 1.30982 0.876444 0
M  V30 2761 C 272.9 1.20668 1.99903 0
M  V30 2762 C 273.881 0.095354 1.69833 0
M  V30 2763 O 275.066 0.27885 1.92188 0
M  V30 2764 C 272.196 0.90655 3.3526 0
M  V30 2765 C 271.15 1.97675 3.79617 0
M  V30 2766 C 270.476 1.52943 5.1236 0
M  V30 2767 C 271.776 3.389 3.97422 0
M  V30 2768 H 273.47 2.14586 2.0879 0
M  V30 2769 H 271.016 1.03308 1.00317 0
M  V30 2770 H 272.969 0.821025 4.13324 0
M  V30 2771 H 271.693 -0.0682969 3.26529 0
M  V30 2772 H 270.352 2.05205 3.03787 0
M  V30 2773 H 270 0.54262 5.00065 0
M  V30 2774 H 269.7 2.24532 5.43009 0
M  V30 2775 H 271.224 1.45786 5.92941 0
M  V30 2776 H 272.638 3.34081 4.659 0
M  V30 2777 H 271.035 4.0865 4.3946 0
M  V30 2778 H 272.105 3.80163 3.01006 0
M  V30 2779 N 273.449 -1.08991 1.13837 0
M  V30 2780 C 274.396 -2.15748 0.819835 0
M  V30 2781 C 275.366 -1.64636 -0.220026 0
M  V30 2782 O 276.551 -1.90582 -0.0912757 0
M  V30 2783 C 273.691 -3.4382 0.296913 0
M  V30 2784 C 272.804 -4.0881 1.39636 0
M  V30 2785 C 271.939 -5.24655 0.831314 0
M  V30 2786 C 270.978 -5.81575 1.90886 0
M  V30 2787 N 270.115 -6.88774 1.36142 0
M  V30 2788 H 274.955 -2.42338 1.73426 0
M  V30 2789 H 272.492 -1.18935 0.865613 0
M  V30 2790 H 274.45 -4.17193 -0.0244339 0
M  V30 2791 H 273.08 -3.17535 -0.580628 0
M  V30 2792 H 272.132 -3.33258 1.83422 0
M  V30 2793 H 273.444 -4.47141 2.21058 0
M  V30 2794 H 272.598 -6.04942 0.461515 0
M  V30 2795 H 271.337 -4.87698 -0.013932 0
M  V30 2796 H 270.342 -4.99946 2.28767 0
M  V30 2797 H 271.567 -6.20592 2.75758 0
M  V30 2798 H 269.513 -6.53788 0.538254 0
M  V30 2799 H 269.43 -7.25898 2.11208 0
M  V30 2800 H 270.698 -7.72806 1.01933 0
M  V30 2801 N 274.927 -0.932562 -1.27047 0
M  V30 2802 C 276.338 -0.619451 -1.76124 0
M  V30 2803 C 276.689 0.865397 -1.76083 0
M  V30 2804 O 275.814 1.67722 -1.36742 0
M  V30 2805 C 276.409 -1.11771 -3.19832 0
M  V30 2806 C 274.968 -0.855174 -3.66557 0
M  V30 2807 C 274.115 -1.27362 -2.46321 0
M  V30 2808 H 277.066 -1.11181 -1.13245 0
M  V30 2809 H 277.087 -0.46759 -3.77616 0
M  V30 2810 H 276.599 -2.19842 -3.1983 0
M  V30 2811 H 274.7 0.211524 -3.71999 0
M  V30 2812 H 274.813 -1.47613 -4.55793 0
M  V30 2813 H 273.177 -0.692119 -2.45116 0
M  V30 2814 H 273.96 -2.36307 -2.49025 0
M  V30 2815 N 276.405 1.4127 -0.698611 0
M  V30 2816 C 277.635 2.05205 -0.239644 0
M  V30 2817 C 278.043 1.52684 1.11733 0
M  V30 2818 O 277.386 0.671222 1.70998 0
M  V30 2819 C 277.448 3.59289 -0.123126 0
M  V30 2820 C 277.112 4.34619 -1.41263 0
M  V30 2821 C 278.109 4.63701 -2.35111 0
M  V30 2822 C 275.794 4.73837 -1.66684 0
M  V30 2823 C 277.788 5.30966 -3.52639 0
M  V30 2824 C 275.475 5.40837 -2.84498 0
M  V30 2825 C 276.473 5.69329 -3.77298 0
M  V30 2826 O 276.161 6.34949 -4.93047 0
M  V30 2827 H 275.893 0.66723 -0.108537 0
M  V30 2828 H 278.447 1.81974 -0.952602 0
M  V30 2829 H 276.677 3.81272 0.645628 0
M  V30 2830 H 278.366 4.04797 0.299056 0
M  V30 2831 H 279.132 4.33882 -2.16729 0
M  V30 2832 H 275.011 4.51039 -0.953135 0
M  V30 2833 H 278.555 5.53121 -4.25091 0
M  V30 2834 H 274.452 5.70075 -3.02795 0
M  V30 2835 H 275.22 6.53445 -4.92902 0
M  V30 2836 N 277.883 0.443576 1.51229 0
M  V30 2837 C 278.846 -0.353132 2.26463 0
M  V30 2838 C 279.846 -0.944338 1.3015 0
M  V30 2839 O 281.036 -0.817813 1.5381 0
M  V30 2840 C 278.168 -1.50023 3.06114 0
M  V30 2841 H 279.361 0.3063 2.98332 0
M  V30 2842 H 276.914 0.196902 1.55055 0
M  V30 2843 H 277.649 -2.19553 2.38677 0
M  V30 2844 H 277.434 -1.08241 3.76864 0
M  V30 2845 H 278.924 -2.06296 3.63087 0
M  V30 2846 N 279.361 -1.56624 0.175154 0
M  V30 2847 C 280.271 -2.21741 -0.766042 0
M  V30 2848 C 281.287 -1.21023 -1.25018 0
M  V30 2849 O 282.463 -1.53697 -1.3015 0
M  V30 2850 C 279.528 -2.84839 -1.97655 0
M  V30 2851 C 278.589 -4.00769 -1.53892 0
M  V30 2852 C 277.822 -4.60849 -2.69173 0
M  V30 2853 O 278.045 -4.19823 -3.86141 0
M  V30 2854 O 276.979 -5.50655 -2.43028 0
M  V30 2855 H 280.805 -3.02738 -0.241585 0
M  V30 2856 H 278.39 -1.49305 -0.053222 0
M  V30 2857 H 280.272 -3.24834 -2.68442 0
M  V30 2858 H 278.947 -2.06836 -2.48999 0
M  V30 2859 H 277.854 -3.65436 -0.80044 0
M  V30 2860 H 279.187 -4.80376 -1.07236 0
M  V30 2861 N 280.839 0.0985539 -1.57292 0
M  V30 2862 C 281.789 1.1261 -1.9825 0
M  V30 2863 C 282.773 1.35961 -0.860426 0
M  V30 2864 O 283.965 1.36711 -1.12424 0
M  V30 2865 C 281.094 2.44727 -2.40757 0
M  V30 2866 C 280.18 2.24764 -3.59642 0
M  V30 2867 N 280.571 1.74661 -4.74687 0
M  V30 2868 C 278.869 2.55344 -3.65672 0
M  V30 2869 C 279.57 1.68887 -5.56644 0
M  V30 2870 N 278.546 2.13976 -4.99715 0
M  V30 2871 H 282.348 0.731604 -2.84648 0
M  V30 2872 H 279.862 0.306029 -1.59491 0
M  V30 2873 H 281.859 3.19072 -2.68326 0
M  V30 2874 H 280.519 2.84917 -1.55733 0
M  V30 2875 H 281.53 1.43908 -4.97505 0
M  V30 2876 H 278.207 2.99081 -2.91302 0
M  V30 2877 H 279.597 1.3123 -6.5896 0
M  V30 2878 N 282.317 1.53212 0.369288 0
M  V30 2879 C 283.563 1.69466 1.11397 0
M  V30 2880 C 283.896 0.443257 1.89074 0
M  V30 2881 O 283.171 -0.559386 1.86282 0
M  V30 2882 C 283.454 2.9422 2.07621 0
M  V30 2883 C 283.307 4.29508 1.33577 0
M  V30 2884 C 284.626 3.14565 3.07794 0
M  V30 2885 H 281.745 0.616667 0.403597 0
M  V30 2886 H 284.387 1.85845 0.395179 0
M  V30 2887 H 282.537 2.80387 2.68916 0
M  V30 2888 H 284.209 4.55147 0.750955 0
M  V30 2889 H 282.452 4.29088 0.637618 0
M  V30 2890 H 283.123 5.12926 2.03989 0
M  V30 2891 H 285.599 3.2756 2.56601 0
M  V30 2892 H 284.475 4.03297 3.72348 0
M  V30 2893 H 284.736 2.29675 3.77759 0
M  V30 2894 N 283.795 -0.628877 1.44509 0
M  V30 2895 C 285.043 -1.38565 1.4712 0
M  V30 2896 C 285.364 -1.94712 0.105899 0
M  V30 2897 O 284.634 -1.75912 -0.862079 0
M  V30 2898 H 283.214 -0.514333 0.541729 0
M  V30 2899 H 285.876 -0.740018 1.80305 0
M  V30 2900 H 284.972 -2.21583 2.19789 0
M  V30 2901 N 285.273 -1.31445 -0.869486 0
M  V30 2902 C 286.521 -1.20918 -1.61936 0
M  V30 2903 C 286.842 0.232683 -1.93607 0
M  V30 2904 O 286.112 1.15352 -1.58338 0
M  V30 2905 H 284.692 -0.44454 -0.600328 0
M  V30 2906 H 287.354 -1.64776 -1.0409 0
M  V30 2907 H 286.45 -1.78124 -2.56278 0
M  V30 2908 N 286.751 1.08385 -1.14413 0
M  V30 2909 C 287.698 2.15311 -0.831265 0
M  V30 2910 C 288.668 1.64751 0.211292 0
M  V30 2911 O 289.853 1.90627 0.0811674 0
M  V30 2912 C 286.993 3.43658 -0.315143 0
M  V30 2913 C 286.106 4.08064 -1.41802 0
M  V30 2914 C 285.241 5.24207 -0.859126 0
M  V30 2915 C 284.28 5.80554 -1.93967 0
M  V30 2916 N 283.417 6.88042 -1.39793 0
M  V30 2917 H 288.257 2.41415 -1.74708 0
M  V30 2918 H 285.794 1.18474 -0.871909 0
M  V30 2919 H 287.752 4.172 0.00230884 0
M  V30 2920 H 286.382 3.17839 0.56378 0
M  V30 2921 H 285.434 3.3228 -1.85187 0
M  V30 2922 H 286.746 4.45962 -2.23427 0
M  V30 2923 H 285.9 6.04689 -0.49359 0
M  V30 2924 H 284.639 4.87699 -0.011932 0
M  V30 2925 H 283.644 4.98725 -2.31415 0
M  V30 2926 H 284.869 6.19121 -2.79046 0
M  V30 2927 H 282.815 6.53493 -0.572919 0
M  V30 2928 H 282.732 7.24767 -2.15054 0
M  V30 2929 H 284 7.72255 -1.0603 0
M  V30 2930 N 288.23 0.939286 1.26551 0
M  V30 2931 C 289.479 0.581601 1.93133 0
M  V30 2932 C 289.792 -0.883224 1.74524 0
M  V30 2933 O 290.998 -1.3502 2.35546 0
M  V30 2934 C 289.454 0.989425 3.46032 0
M  V30 2935 C 289.062 2.47573 3.73379 0
M  V30 2936 C 290.806 0.703544 4.18629 0
M  V30 2937 C 288.713 2.82235 5.19709 0
M  V30 2938 H 287.643 0.213803 0.723052 0
M  V30 2939 H 290.294 1.14167 1.4366 0
M  V30 2940 H 288.676 0.357902 3.94379 0
M  V30 2941 H 289.85 3.15614 3.35744 0
M  V30 2942 H 288.165 2.73471 3.1401 0
M  V30 2943 H 290.762 0.938869 5.26393 0
M  V30 2944 H 291.105 -0.359639 4.14744 0
M  V30 2945 H 291.638 1.2947 3.76141 0
M  V30 2946 H 288.377 3.87509 5.28694 0
M  V30 2947 H 287.897 2.18854 5.58447 0
M  V30 2948 H 289.576 2.70599 5.87695 0
M  V30 2949 N 289.708 -1.40897 0.706093 0
M  V30 2950 C 291.124 -1.55042 0.37869 0
M  V30 2951 C 291.324 -1.67944 -1.11342 0
M  V30 2952 O 290.38 -1.66372 -1.89938 0
M  V30 2953 C 291.693 -2.78398 1.13643 0
M  V30 2954 C 293.241 -2.92206 1.12181 0
M  V30 2955 C 293.716 -4.18463 1.86152 0
M  V30 2956 N 295.207 -4.25443 1.83173 0
M  V30 2957 C 295.942 -5.2202 2.37239 0
M  V30 2958 N 295.438 -6.24563 2.99821 0
M  V30 2959 N 297.231 -5.14033 2.27435 0
M  V30 2960 H 289.382 -1.30769 1.67372 0
M  V30 2961 H 291.645 -0.631653 0.706907 0
M  V30 2962 H 291.351 -2.7511 2.19106 0
M  V30 2963 H 291.225 -3.70228 0.721853 0
M  V30 2964 H 293.612 -2.95004 0.0754171 0
M  V30 2965 H 293.693 -2.01521 1.57554 0
M  V30 2966 H 293.337 -4.16427 2.90776 0
M  V30 2967 H 293.267 -5.08141 1.38206 0
M  V30 2968 H 295.758 -3.51976 1.37556 0
M  V30 2969 H 296.071 -6.94665 3.38616 0
M  V30 2970 H 294.416 -6.25035 3.03902 0
M  V30 2971 H 297.607 -4.3285 1.78208 0
M  V30 2972 H 297.78 -5.89129 2.69873 0
M  V30 2973 N 291.186 -0.45159 -1.50991 0
M  V30 2974 C 292.149 0.341117 -2.26647 0
M  V30 2975 C 293.149 0.937422 -1.30649 0
M  V30 2976 O 294.339 0.809644 -1.54241 0
M  V30 2977 C 291.471 1.48398 -3.06905 0
M  V30 2978 H 292.664 -0.322117 -2.98165 0
M  V30 2979 H 290.217 -0.205122 -1.54948 0
M  V30 2980 H 290.952 2.18284 -2.39838 0
M  V30 2981 H 290.737 1.06241 -3.77432 0
M  V30 2982 H 292.227 2.04367 -3.64176 0
M  V30 2983 N 292.664 1.56529 -0.183458 0
M  V30 2984 C 293.913 1.96419 0.458511 0
M  V30 2985 C 294.226 1.0727 1.63562 0
M  V30 2986 O 295.432 1.36893 2.34462 0
M  V30 2987 C 293.888 3.49298 0.867122 0
M  V30 2988 C 293.496 4.47092 -0.285057 0
M  V30 2989 C 295.24 3.97983 1.47683 0
M  V30 2990 C 293.147 5.91225 0.143862 0
M  V30 2991 H 292.077 0.733394 0.175071 0
M  V30 2992 H 294.728 1.81448 -0.273624 0
M  V30 2993 H 293.11 3.59731 1.65559 0
M  V30 2994 H 294.284 4.48383 -1.0625 0
M  V30 2995 H 292.599 4.08535 -0.805503 0
M  V30 2996 H 295.196 5.03134 1.80999 0
M  V30 2997 H 295.539 3.41618 2.37914 0
M  V30 2998 H 296.072 3.90617 0.752562 0
M  V30 2999 H 292.811 6.5149 -0.723974 0
M  V30 3000 H 292.331 5.93214 0.886413 0
M  V30 3001 H 294.01 6.44362 0.583628 0
M  V30 3002 N 294.142 -0.090211 1.57342 0
M  V30 3003 C 295.419 -0.824761 1.77361 0
M  V30 3004 C 295.799 -1.96698 0.76637 0
M  V30 3005 O 295.147 -2.27586 -0.204179 0
M  V30 3006 C 295.357 -1.31481 3.23286 0
M  V30 3007 C 296.705 -1.75563 3.86604 0
M  V30 3008 O 297.729 -1.41093 3.27065 0
M  V30 3009 O 296.588 -2.39317 4.91314 0
M  V30 3010 H 293.682 -0.393776 0.727234 0
M  V30 3011 H 296.228 -0.0717138 1.69548 0
M  V30 3012 H 295 -0.496671 3.88135 0
M  V30 3013 H 294.623 -2.12973 3.35751 0
M  V30 3014 N 295.62 -1.53406 -0.361157 0
M  V30 3015 C 297.031 -1.61442 -0.937728 0
M  V30 3016 C 297.382 -0.48461 -1.90121 0
M  V30 3017 O 296.507 0.388312 -2.12888 0
M  V30 3018 C 297.102 -2.92624 -1.70753 0
M  V30 3019 C 295.661 -3.02981 -2.23337 0
M  V30 3020 C 294.808 -2.5677 -1.04712 0
M  V30 3021 H 297.759 -1.58083 -0.139816 0
M  V30 3022 H 297.78 -2.80675 -2.56908 0
M  V30 3023 H 297.292 -3.74834 -1.00604 0
M  V30 3024 H 295.393 -2.25368 -2.96715 0
M  V30 3025 H 295.506 -4.0814 -2.50916 0
M  V30 3026 H 293.87 -2.11752 -1.41539 0
M  V30 3027 H 294.653 -3.41402 -0.360539 0
M  V30 3028 N 297.098 0.621204 -1.44841 0
M  V30 3029 C 298.375 1.38 -1.38619 0
M  V30 3030 C 298.755 2.11041 -0.0498935 0
M  V30 3031 O 298.103 2.06992 0.967816 0
M  V30 3032 C 298.313 2.33817 -2.59096 0
M  V30 3033 C 299.661 2.96844 -3.03593 0
M  V30 3034 O 300.685 2.44141 -2.59371 0
M  V30 3035 O 299.544 3.92476 -3.80296 0
M  V30 3036 H 296.638 0.61811 -0.549426 0
M  V30 3037 H 299.184 0.645429 -1.56947 0
M  V30 3038 H 297.956 1.79012 -3.47952 0
M  V30 3039 H 297.579 3.14676 -2.43032 0
M  V30 3040 N 298.576 1.31904 0.862503 0
M  V30 3041 C 299.524 1.20125 1.9918 0
M  V30 3042 C 300.518 0.107824 1.69056 0
M  V30 3043 O 301.724 0.270223 1.7796 0
M  V30 3044 H 298.099 0.372148 0.65346 0
M  V30 3045 H 300.07 2.15652 2.06244 0
M  V30 3046 C 298.819 0.933099 3.34946 0
M  V30 3047 H 298.142 1.76664 3.5865 0
M  V30 3048 H 299.582 0.890892 4.14535 0
M  V30 3049 C 298.041 -0.364172 3.34926 0
M  V30 3050 O 298.571 -1.37858 3.77304 0
M  V30 3051 N 296.777 -0.383362 2.8806 0
M  V30 3052 H 296.324 0.442651 2.53768 0
M  V30 3053 H 296.282 -1.25123 2.8843 0
M  V30 3054 N 300.054 -1.07777 1.14986 0
M  V30 3055 C 300.984 -2.16865 0.865557 0
M  V30 3056 C 301.965 -1.69123 -0.182083 0
M  V30 3057 O 303.15 -1.94164 -0.0373815 0
M  V30 3058 C 300.28 -3.45539 0.349313 0
M  V30 3059 C 299.234 -4.06708 1.33313 0
M  V30 3060 C 298.56 -5.30411 0.675918 0
M  V30 3061 C 299.86 -4.47241 2.69764 0
M  V30 3062 H 301.554 -2.40905 1.77778 0
M  V30 3063 H 299.1 -1.15781 0.856203 0
M  V30 3064 H 301.053 -4.21174 0.137983 0
M  V30 3065 H 299.777 -3.21072 -0.598362 0
M  V30 3066 H 298.436 -3.33112 1.53075 0
M  V30 3067 H 298.084 -5.02232 -0.277767 0
M  V30 3068 H 297.784 -5.72293 1.33244 0
M  V30 3069 H 299.308 -6.08755 0.474262 0
M  V30 3070 H 300.722 -5.14025 2.53873 0
M  V30 3071 H 299.119 -5.00062 3.3175 0
M  V30 3072 H 300.189 -3.58818 3.26156 0
M  V30 3073 N 301.532 -0.945985 -1.26051 0
M  V30 3074 C 302.781 -0.591836 -1.92822 0
M  V30 3075 C 303.094 0.873956 -1.7499 0
M  V30 3076 O 304.3 1.33769 -2.36259 0
M  V30 3077 C 302.756 -1.00776 -3.45503 0
M  V30 3078 C 302.364 -2.4955 -3.7206 0
M  V30 3079 C 304.108 -0.725735 -4.1825 0
M  V30 3080 C 302.015 -2.84988 -5.18205 0
M  V30 3081 H 300.945 -0.217635 -0.721908 0
M  V30 3082 H 303.596 -1.14927 -1.43052 0
M  V30 3083 H 301.978 -0.378812 -3.94184 0
M  V30 3084 H 303.152 -3.1739 -3.34066 0
M  V30 3085 H 301.467 -2.75133 -3.12555 0
M  V30 3086 H 304.064 -0.966771 -5.25887 0
M  V30 3087 H 304.407 0.337639 -4.14929 0
M  V30 3088 H 304.94 -1.31463 -3.7545 0
M  V30 3089 H 301.679 -3.90307 -5.26631 0
M  V30 3090 H 301.199 -2.21813 -5.57278 0
M  V30 3091 H 302.878 -2.73712 -5.86252 0
M  V30 3092 N 303.011 1.40521 -0.713556 0
M  V30 3093 C 304.26 2.00155 -0.249192 0
M  V30 3094 C 304.573 1.57224 1.16362 0
M  V30 3095 O 305.779 2.09542 1.72639 0
M  V30 3096 C 304.235 3.5773 -0.3946 0
M  V30 3097 C 303.843 4.09635 -1.81392 0
M  V30 3098 C 305.587 4.24499 0.00907364 0
M  V30 3099 C 303.494 5.59707 -1.91003 0
M  V30 3100 H 302.424 0.74868 -0.0894114 0
M  V30 3101 H 305.075 1.60784 -0.884352 0
M  V30 3102 H 303.457 3.94792 0.30911 0
M  V30 3103 H 304.631 3.83955 -2.54785 0
M  V30 3104 H 302.946 3.55456 -2.16888 0
M  V30 3105 H 305.543 5.34683 -0.0420404 0
M  V30 3106 H 305.886 4.02824 1.05065 0
M  V30 3107 H 306.419 3.92536 -0.645007 0
M  V30 3108 H 303.158 5.86234 -2.93275 0
M  V30 3109 H 302.678 5.87258 -1.22019 0
M  V30 3110 H 304.357 6.24776 -1.6812 0
M  V30 3111 N 304.489 0.459591 1.5075 0
M  V30 3112 C 305.422 -0.386257 2.24907 0
M  V30 3113 C 306.4 -1.006 1.27744 0
M  V30 3114 O 307.584 -1.04416 1.56938 0
M  V30 3115 C 304.711 -1.54021 3.01654 0
M  V30 3116 C 303.757 -1.03898 4.13651 0
M  V30 3117 S 304.59 0.0370501 5.35487 0
M  V30 3118 C 305.746 -1.12105 6.15779 0
M  V30 3119 H 305.979 0.243272 2.96303 0
M  V30 3120 H 303.512 0.244339 1.52454 0
M  V30 3121 H 305.47 -2.20163 3.46466 0
M  V30 3122 H 304.131 -2.14121 2.29806 0
M  V30 3123 H 303.324 -1.90254 4.66711 0
M  V30 3124 H 302.926 -0.45545 3.71216 0
M  V30 3125 H 305.218 -2.03501 6.46215 0
M  V30 3126 H 306.161 -0.62995 7.05292 0
M  V30 3127 H 306.569 -1.36967 5.47631 0
M  V30 3128 N 305.967 -1.56429 0.191757 0
M  V30 3129 C 307.215 -1.97095 -0.447006 0
M  V30 3130 C 307.536 -1.07967 -1.62383 0
M  V30 3131 O 306.806 -0.150248 -1.95323 0
M  V30 3132 H 305.386 -0.727832 -0.168135 0
M  V30 3133 H 308.048 -1.92911 0.27771 0
M  V30 3134 H 307.144 -3.01848 -0.793371 0
M  V30 3135 N 307.445 0.0818655 -1.57387 0
M  V30 3136 C 308.673 0.796108 -1.9097 0
M  V30 3137 C 309.088 1.71626 -0.786757 0
M  V30 3138 O 308.445 1.80908 0.240513 0
M  V30 3139 C 308.496 1.59829 -3.24248 0
M  V30 3140 O 308.217 0.715131 -4.32224 0
M  V30 3141 C 309.718 2.41442 -3.7178 0
M  V30 3142 H 306.938 0.22691 -0.631469 0
M  V30 3143 H 309.482 0.0551439 -2.04426 0
M  V30 3144 H 307.637 2.29163 -3.12351 0
M  V30 3145 H 308.051 1.27205 -5.08841 0
M  V30 3146 H 309.525 2.932 -4.67694 0
M  V30 3147 H 310.002 3.2051 -3.00283 0
M  V30 3148 H 310.608 1.77283 -3.86589 0
M  V30 3149 N 308.923 1.53595 0.353017 0
M  V30 3150 C 310.334 1.61937 0.929153 0
M  V30 3151 C 310.685 0.494686 1.89861 0
M  V30 3152 O 309.81 -0.377017 2.1309 0
M  V30 3153 C 310.405 2.93526 1.69199 0
M  V30 3154 C 308.964 3.04161 2.21727 0
M  V30 3155 C 308.111 2.57322 1.03348 0
M  V30 3156 H 311.062 1.58155 0.131431 0
M  V30 3157 H 311.083 2.82034 2.55416 0
M  V30 3158 H 310.595 3.75362 0.986144 0
M  V30 3159 H 308.696 2.26938 2.95516 0
M  V30 3160 H 308.809 4.09465 2.48748 0
M  V30 3161 H 307.173 2.12499 1.40414 0
M  V30 3162 H 307.956 3.41588 0.342428 0
M  V30 3163 N 310.401 -0.613514 1.45168 0
M  V30 3164 C 311.349 -1.74572 1.53712 0
M  V30 3165 C 312.343 -1.64426 0.407505 0
M  V30 3166 O 313.549 -1.70291 0.583176 0
M  V30 3167 H 309.924 -0.576641 0.48269 0
M  V30 3168 H 311.895 -1.64492 2.48968 0
M  V30 3169 C 310.644 -3.12943 1.51532 0
M  V30 3170 H 309.967 -3.21407 2.37776 0
M  V30 3171 H 311.407 -3.9201 1.61569 0
M  V30 3172 C 309.866 -3.36053 0.238798 0
M  V30 3173 O 310.396 -3.95837 -0.6838 0
M  V30 3174 N 308.602 -2.9028 0.136359 0
M  V30 3175 H 308.149 -2.41811 0.887999 0
M  V30 3176 H 308.107 -3.06116 -0.716944 0
M  V30 3177 N 311.879 -1.3236 -0.855495 0
M  V30 3178 C 313.125 -1.24064 -1.61182 0
M  V30 3179 C 313.48 0.195914 -1.914 0
M  V30 3180 O 312.773 1.13345 -1.54478 0
M  V30 3181 C 312.967 -2.03275 -2.93963 0
M  V30 3182 C 312.796 -3.54486 -2.76712 0
M  V30 3183 C 311.566 -4.23824 -2.75139 0
M  V30 3184 C 313.764 -4.49154 -2.50531 0
M  V30 3185 N 311.746 -5.61095 -2.4909 0
M  V30 3186 C 313.117 -5.74195 -2.3388 0
M  V30 3187 C 315.172 -4.3842 -2.35992 0
M  V30 3188 C 313.875 -6.89716 -2.04168 0
M  V30 3189 C 315.901 -5.53739 -2.0767 0
M  V30 3190 C 315.263 -6.77779 -1.9182 0
M  V30 3191 H 311.362 -0.509139 -0.59355 0
M  V30 3192 H 313.946 -1.66715 -1.00569 0
M  V30 3193 H 312.117 -1.6297 -3.52555 0
M  V30 3194 H 313.849 -1.86881 -3.58967 0
M  V30 3195 H 310.604 -3.75934 -2.88047 0
M  V30 3196 H 311.028 -6.33411 -2.38996 0
M  V30 3197 H 315.67 -3.43172 -2.46967 0
M  V30 3198 H 313.388 -7.84977 -1.9193 0
M  V30 3199 H 316.974 -5.4736 -1.97201 0
M  V30 3200 H 315.854 -7.65504 -1.70217 0
M  V30 3201 N 313.357 1.07166 -1.15556 0
M  V30 3202 C 314.582 1.84053 -0.955988 0
M  V30 3203 C 315.007 1.81586 0.490739 0
M  V30 3204 O 314.365 1.21018 1.34997 0
M  V30 3205 C 314.413 3.28957 -1.47714 0
M  V30 3206 O 313.517 4.06795 -0.677593 0
M  V30 3207 H 312.858 0.569842 -0.340847 0
M  V30 3208 H 315.388 1.35178 -1.53584 0
M  V30 3209 H 315.398 3.79788 -1.4908 0
M  V30 3210 H 314.073 3.30068 -2.53037 0
M  V30 3211 H 312.65 3.6561 -0.733721 0
M  V30 3212 N 314.835 0.952656 1.25548 0
M  V30 3213 C 315.767 0.428609 2.25157 0
M  V30 3214 C 316.78 -0.454428 1.56329 0
M  V30 3215 O 317.969 -0.263023 1.76552 0
M  V30 3216 C 315.069 -0.401972 3.36508 0
M  V30 3217 C 314.242 0.467601 4.34893 0
M  V30 3218 C 313.301 -0.30445 5.25319 0
M  V30 3219 O 312.327 0.296473 5.68427 0
M  V30 3220 N 313.529 -1.59805 5.5807 0
M  V30 3221 H 316.294 1.28497 2.70756 0
M  V30 3222 H 313.855 0.822798 1.39433 0
M  V30 3223 H 315.847 -0.926134 3.9396 0
M  V30 3224 H 314.417 -1.15918 2.90313 0
M  V30 3225 H 313.637 1.17288 3.76347 0
M  V30 3226 H 314.925 1.06119 4.97611 0
M  V30 3227 H 314.323 -2.10823 5.24948 0
M  V30 3228 H 312.88 -2.06822 6.18116 0
M  V30 3229 N 316.313 -1.40141 0.720998 0
M  V30 3230 C 317.59 -1.94677 0.189757 0
M  V30 3231 C 317.97 -1.65879 -1.30566 0
M  V30 3232 O 317.318 -0.979391 -2.06447 0
M  V30 3233 C 317.528 -3.45279 0.508304 0
M  V30 3234 C 318.876 -4.22209 0.449934 0
M  V30 3235 O 319.9 -3.53413 0.444677 0
M  V30 3236 O 318.759 -5.44788 0.432189 0
M  V30 3237 H 315.853 -0.826459 0.0299026 0
M  V30 3238 H 318.399 -1.49719 0.7989 0
M  V30 3239 H 317.171 -3.59619 1.54239 0
M  V30 3240 H 316.794 -3.97386 -0.130525 0
M  V30 3241 N 317.792 -0.46758 -1.50504 0
M  V30 3242 C 319.038 0.0887532 -2.02606 0
M  V30 3243 C 319.371 1.39686 -1.34913 0
M  V30 3244 O 318.646 1.88644 -0.473694 0
M  V30 3245 C 318.929 0.276206 -3.59039 0
M  V30 3246 C 318.782 -1.05267 -4.37309 0
M  V30 3247 C 320.101 1.03235 -4.27821 0
M  V30 3248 H 317.22 0.0307814 -0.736357 0
M  V30 3249 H 319.862 -0.612485 -1.79857 0
M  V30 3250 H 318.012 0.8735 -3.78553 0
M  V30 3251 H 319.684 -1.68628 -4.29374 0
M  V30 3252 H 317.927 -1.65015 -4.01189 0
M  V30 3253 H 318.598 -0.875197 -5.45018 0
M  V30 3254 H 321.074 0.526111 -4.12761 0
M  V30 3255 H 319.95 1.1323 -5.37094 0
M  V30 3256 H 320.211 2.06806 -3.90748 0
M  V30 3257 N 319.27 1.56325 -0.20005 0
M  V30 3258 C 320.547 1.89484 0.48529 0
M  V30 3259 C 320.927 1.1143 1.79294 0
M  V30 3260 O 320.275 0.216919 2.27468 0
M  V30 3261 C 320.485 3.41923 0.699243 0
M  V30 3262 C 321.833 4.12256 1.01638 0
M  V30 3263 O 322.857 3.47402 0.786792 0
M  V30 3264 O 321.716 5.26887 1.45095 0
M  V30 3265 H 318.81 0.787144 0.253639 0
M  V30 3266 H 321.356 1.67985 -0.240633 0
M  V30 3267 H 320.128 3.90658 -0.224008 0
M  V30 3268 H 319.751 3.69131 1.47744 0
M  V30 3269 N 320.748 -0.0735177 1.57428 0
M  V30 3270 C 321.994 -0.774145 1.87443 0
M  V30 3271 C 322.327 -1.77311 0.792103 0
M  V30 3272 O 321.602 -1.93492 -0.197793 0
M  V30 3273 C 321.885 -1.48367 3.28115 0
M  V30 3274 C 321.738 -0.501227 4.46999 0
M  V30 3275 C 323.057 -2.429 3.66998 0
M  V30 3276 H 320.176 -0.279971 0.681752 0
M  V30 3277 H 322.818 -0.0373616 1.89963 0
M  V30 3278 H 320.968 -2.11171 3.26097 0
M  V30 3279 H 322.64 0.121468 4.6114 0
M  V30 3280 H 320.883 0.183593 4.33411 0
M  V30 3281 H 321.554 -1.03526 5.42205 0
M  V30 3282 H 324.03 -1.90175 3.70098 0
M  V30 3283 H 322.906 -2.89549 4.66318 0
M  V30 3284 H 323.167 -3.27628 2.96837 0
M  V30 3285 N 322.226 -1.5378 -0.344866 0
M  V30 3286 C 323.189 -1.80981 -1.40637 0
M  V30 3287 C 324.189 -0.680816 -1.45676 0
M  V30 3288 O 325.379 -0.949095 -1.46075 0
M  V30 3289 C 322.511 -1.95063 -2.79577 0
M  V30 3290 H 323.704 -2.75803 -1.17783 0
M  V30 3291 H 321.257 -1.45173 -0.579181 0
M  V30 3292 H 321.992 -1.02379 -3.07716 0
M  V30 3293 H 321.777 -2.77198 -2.77315 0
M  V30 3294 H 323.267 -2.17629 -3.56409 0
M  V30 3295 N 323.704 0.605807 -1.45491 0
M  V30 3296 C 324.929 1.39625 -1.53361 0
M  V30 3297 C 325.354 1.87351 -0.167645 0
M  V30 3298 O 324.712 1.60243 0.848051 0
M  V30 3299 C 324.76 2.57559 -2.5238 0
M  V30 3300 O 323.864 3.58248 -2.04285 0
M  V30 3301 H 323.205 0.416771 -0.516912 0
M  V30 3302 H 325.735 0.737103 -1.90861 0
M  V30 3303 H 325.745 3.0478 -2.71244 0
M  V30 3304 H 324.42 2.22171 -3.51586 0
M  V30 3305 H 322.997 3.17664 -1.95305 0
M  V30 3306 N 325.182 1.32811 0.848464 0
M  V30 3307 C 326.41 1.26739 1.63538 0
M  V30 3308 C 326.825 -0.163484 1.88091 0
M  V30 3309 O 326.182 -1.10258 1.45429 0
M  V30 3310 C 326.233 2.03013 2.99112 0
M  V30 3311 O 325.954 3.40518 2.75643 0
M  V30 3312 C 327.455 2.04038 3.93552 0
M  V30 3313 H 324.675 0.437024 0.509167 0
M  V30 3314 H 327.219 1.75033 1.05753 0
M  V30 3315 H 325.374 1.58426 3.53525 0
M  V30 3316 H 325.788 3.79635 3.61908 0
M  V30 3317 H 327.262 2.61877 4.85926 0
M  V30 3318 H 327.739 1.0282 4.26995 0
M  V30 3319 H 328.345 2.486 3.45077 0
M  V30 3320 N 326.66 -1.06551 1.16123 0
M  V30 3321 C 327.608 -2.16063 0.861371 0
M  V30 3322 C 328.602 -1.6856 -0.168517 0
M  V30 3323 O 329.808 -1.79986 -0.0227579 0
M  V30 3324 H 326.183 -0.705278 0.260934 0
M  V30 3325 H 328.154 -2.38567 1.79244 0
M  V30 3326 C 326.903 -3.45661 0.376018 0
M  V30 3327 H 326.226 -3.82604 1.15992 0
M  V30 3328 H 327.666 -4.23504 0.204951 0
M  V30 3329 C 326.125 -3.24546 -0.903954 0
M  V30 3330 O 326.655 -3.49865 -1.97377 0
M  V30 3331 N 324.861 -2.77992 -0.846679 0
M  V30 3332 H 324.408 -2.57589 0.0241017 0
M  V30 3333 H 324.366 -2.64244 -1.70359 0
M  V30 3334 N 328.138 -0.959301 -1.25041 0
M  V30 3335 C 329.085 -0.482057 -2.2571 0
M  V30 3336 C 330.055 0.467939 -1.59372 0
M  V30 3337 O 331.24 0.380159 -1.86974 0
M  V30 3338 C 328.38 0.229623 -3.44335 0
M  V30 3339 C 327.493 -0.758156 -4.25295 0
M  V30 3340 C 326.628 -0.0234403 -5.31195 0
M  V30 3341 C 325.667 -1.00184 -6.03846 0
M  V30 3342 N 324.804 -0.29769 -7.01469 0
M  V30 3343 H 329.644 -1.34538 -2.65901 0
M  V30 3344 H 327.181 -0.674592 -1.3072 0
M  V30 3345 H 329.139 0.658856 -4.11965 0
M  V30 3346 H 327.769 1.05696 -3.05005 0
M  V30 3347 H 326.821 -1.30586 -3.57284 0
M  V30 3348 H 328.133 -1.50458 -4.75567 0
M  V30 3349 H 327.287 0.464201 -6.04922 0
M  V30 3350 H 326.026 0.755741 -4.81809 0
M  V30 3351 H 325.031 -1.50044 -5.2893 0
M  V30 3352 H 326.256 -1.78133 -6.55321 0
M  V30 3353 H 324.202 0.462668 -6.54366 0
M  V30 3354 H 324.119 -0.983128 -7.4958 0
M  V30 3355 H 325.387 0.16826 -7.79318 0
M  V30 3356 N 329.616 1.39756 -0.72842 0
M  V30 3357 C 330.579 2.29012 -0.0927297 0
M  V30 3358 C 331.579 1.45992 0.674025 0
M  V30 3359 O 332.769 1.66749 0.50402 0
M  V30 3360 C 329.901 3.29396 0.878137 0
M  V30 3361 H 331.094 2.86729 -0.879011 0
M  V30 3362 H 328.647 1.48293 -0.493847 0
M  V30 3363 H 329.382 2.76722 1.69101 0
M  V30 3364 H 329.167 3.907 0.331051 0
M  V30 3365 H 330.657 3.96199 1.3197 0
M  V30 3366 N 331.094 0.475555 1.50254 0
M  V30 3367 C 332.042 -0.330276 2.30243 0
M  V30 3368 C 333.036 -0.986306 1.37726 0
M  V30 3369 O 334.242 -0.9169 1.54897 0
M  V30 3370 H 330.617 -0.125353 0.741479 0
M  V30 3371 H 332.588 0.364702 2.96163 0
M  V30 3372 C 331.337 -1.39704 3.18399 0
M  V30 3373 H 330.66 -0.901621 3.89501 0
M  V30 3374 H 332.1 -1.93336 3.77355 0
M  V30 3375 C 330.559 -2.4014 2.36293 0
M  V30 3376 O 331.089 -3.45504 2.04914 0
M  V30 3377 N 329.295 -2.1197 1.98789 0
M  V30 3378 H 328.842 -1.2631 2.24507 0
M  V30 3379 H 328.8 -2.79403 1.44157 0
M  V30 3380 N 332.573 -1.56217 0.208337 0
M  V30 3381 C 333.819 -1.98242 -0.427552 0
M  V30 3382 C 334.152 -1.09554 -1.60348 0
M  V30 3383 O 333.427 -0.15035 -1.93918 0
M  V30 3384 C 333.71 -3.4931 -0.874907 0
M  V30 3385 C 333.563 -4.48773 0.303751 0
M  V30 3386 C 334.882 -4.04424 -1.73577 0
M  V30 3387 H 332.001 -0.720744 -0.153936 0
M  V30 3388 H 334.643 -1.87586 0.30192 0
M  V30 3389 H 332.793 -3.58522 -1.49648 0
M  V30 3390 H 334.465 -4.51586 0.941682 0
M  V30 3391 H 332.708 -4.23194 0.953375 0
M  V30 3392 H 333.379 -5.51976 -0.0519883 0
M  V30 3393 H 335.855 -3.98075 -1.21143 0
M  V30 3394 H 334.731 -5.1047 -2.01771 0
M  V30 3395 H 334.992 -3.50494 -2.69456 0
M  V30 3396 N 334.051 0.0651679 -1.57465 0
M  V30 3397 C 335.276 0.779605 -1.9219 0
M  V30 3398 C 335.701 1.69988 -0.805333 0
M  V30 3399 O 335.059 1.79685 0.241435 0
M  V30 3400 C 335.107 1.54364 -3.2589 0
M  V30 3401 O 334.211 2.65474 -3.1559 0
M  V30 3402 H 333.552 0.212249 -0.629163 0
M  V30 3403 H 336.082 0.0314294 -2.04576 0
M  V30 3404 H 336.092 1.92146 -3.59922 0
M  V30 3405 H 334.767 0.868457 -4.06732 0
M  V30 3406 H 333.344 2.30501 -2.93128 0
M  V30 3407 N 335.529 1.53961 0.336706 0
M  V30 3408 C 336.477 1.83136 1.43401 0
M  V30 3409 C 337.471 0.702313 1.54156 0
M  V30 3410 O 338.677 0.885765 1.56698 0
M  V30 3411 H 335.052 0.580309 0.478273 0
M  V30 3412 H 337.023 2.74925 1.16012 0
M  V30 3413 C 335.772 2.06385 2.79822 0
M  V30 3414 H 335.095 2.92718 2.72316 0
M  V30 3415 H 336.535 2.30761 3.55704 0
M  V30 3416 C 334.994 0.851414 3.25964 0
M  V30 3417 O 335.524 0.0541904 4.01663 0
M  V30 3418 N 333.73 0.66672 2.82848 0
M  V30 3419 H 333.277 1.31665 2.21409 0
M  V30 3420 H 333.235 -0.143032 3.14074 0
M  V30 3421 N 337.007 -0.598083 1.45811 0
M  V30 3422 C 337.937 -1.71873 1.58057 0
M  V30 3423 C 338.918 -1.64533 0.431615 0
M  V30 3424 O 340.103 -1.82787 0.65595 0
M  V30 3425 C 337.233 -3.10495 1.55597 0
M  V30 3426 C 336.187 -3.32654 2.69305 0
M  V30 3427 C 335.513 -4.71646 2.51902 0
M  V30 3428 C 336.813 -3.21981 4.11248 0
M  V30 3429 H 338.507 -1.61881 2.51863 0
M  V30 3430 H 336.053 -0.777372 1.21214 0
M  V30 3431 H 338.006 -3.88699 1.6276 0
M  V30 3432 H 336.73 -3.2135 0.583255 0
M  V30 3433 H 335.389 -2.56843 2.61586 0
M  V30 3434 H 335.037 -4.79246 1.52748 0
M  V30 3435 H 334.737 -4.87426 3.2816 0
M  V30 3436 H 336.261 -5.52038 2.60933 0
M  V30 3437 H 337.675 -3.90049 4.20161 0
M  V30 3438 H 336.072 -3.49289 4.87972 0
M  V30 3439 H 337.142 -2.1928 4.32486 0
M  V30 3440 N 338.485 -1.33259 -0.841409 0
M  V30 3441 C 339.448 -1.23221 -1.9326 0
M  V30 3442 C 340.448 -0.151895 -1.60081 0
M  V30 3443 O 341.638 -0.403246 -1.69468 0
M  V30 3444 C 338.77 -0.898123 -3.28856 0
M  V30 3445 H 339.963 -2.2021 -2.03587 0
M  V30 3446 H 337.516 -1.17281 -1.03319 0
M  V30 3447 H 338.251 0.0693841 -3.24226 0
M  V30 3448 H 338.036 -1.67934 -3.54317 0
M  V30 3449 H 339.526 -0.852563 -4.08805 0
M  V30 3450 N 339.963 1.05934 -1.16686 0
M  V30 3451 C 341.193 1.82226 -0.973515 0
M  V30 3452 C 341.601 1.8297 0.481532 0
M  V30 3453 O 340.944 1.25009 1.34604 0
M  V30 3454 C 341.006 3.29897 -1.42858 0
M  V30 3455 C 340.67 3.52849 -2.90425 0
M  V30 3456 C 341.667 3.45595 -3.88407 0
M  V30 3457 C 339.352 3.80053 -3.28428 0
M  V30 3458 C 341.346 3.65217 -5.22394 0
M  V30 3459 C 339.033 3.99325 -4.62583 0
M  V30 3460 C 340.031 3.91905 -5.59374 0
M  V30 3461 O 339.719 4.10647 -6.91104 0
M  V30 3462 H 339.451 0.581314 -0.345036 0
M  V30 3463 H 342.005 1.3453 -1.55212 0
M  V30 3464 H 340.235 3.78472 -0.793477 0
M  V30 3465 H 341.924 3.87692 -1.20207 0
M  V30 3466 H 342.69 3.24564 -3.60393 0
M  V30 3467 H 338.569 3.84936 -2.53664 0
M  V30 3468 H 342.113 3.59341 -5.9793 0
M  V30 3469 H 338.01 4.19846 -4.90306 0
M  V30 3470 H 338.778 4.27915 -6.97733 0
M  V30 3471 N 341.441 0.965919 1.2453 0
M  V30 3472 C 342.669 0.644385 1.96609 0
M  V30 3473 C 343.084 -0.785823 1.71669 0
M  V30 3474 O 342.441 -1.52703 0.999399 0
M  V30 3475 C 342.492 0.907375 3.49927 0
M  V30 3476 O 342.213 2.28136 3.74013 0
M  V30 3477 C 343.714 0.599784 4.39224 0
M  V30 3478 H 340.934 0.240588 0.626385 0
M  V30 3479 H 343.478 1.29337 1.58405 0
M  V30 3480 H 341.633 0.304631 3.862 0
M  V30 3481 H 342.047 2.36002 4.68405 0
M  V30 3482 H 343.521 0.834263 5.45659 0
M  V30 3483 H 343.998 -0.465921 4.36722 0
M  V30 3484 H 344.604 1.18235 4.08535 0
M  V30 3485 N 342.919 -1.39368 0.735821 0
M  V30 3486 C 344.165 -2.00794 0.284544 0
M  V30 3487 C 344.498 -1.58255 -1.12557 0
M  V30 3488 O 343.773 -0.811819 -1.76748 0
M  V30 3489 C 344.056 -3.58011 0.387337 0
M  V30 3490 C 343.909 -4.10566 1.83728 0
M  V30 3491 C 345.228 -4.395 -0.22975 0
M  V30 3492 H 342.347 -0.729501 0.104866 0
M  V30 3493 H 344.989 -1.65564 0.93213 0
M  V30 3494 H 343.139 -3.88154 -0.164006 0
M  V30 3495 H 344.811 -3.91139 2.44556 0
M  V30 3496 H 343.054 -3.64095 2.35833 0
M  V30 3497 H 343.725 -5.19702 1.86047 0
M  V30 3498 H 346.201 -4.15406 0.240257 0
M  V30 3499 H 345.077 -5.48752 -0.127485 0
M  V30 3500 H 345.338 -4.22062 -1.3159 0
M  V30 3501 N 344.397 -0.483516 -1.5 0
M  V30 3502 C 345.347 0.32306 -2.257 0
M  V30 3503 C 346.331 0.950755 -1.29805 0
M  V30 3504 O 347.523 0.861247 -1.54634 0
M  V30 3505 C 344.652 1.39724 -3.13579 0
M  V30 3506 C 343.738 0.776663 -4.16928 0
M  V30 3507 N 344.129 -0.1104 -5.0568 0
M  V30 3508 C 342.427 1.03922 -4.33724 0
M  V30 3509 C 343.128 -0.46387 -5.79848 0
M  V30 3510 N 342.104 0.163987 -5.43353 0
M  V30 3511 H 345.906 -0.360086 -2.91686 0
M  V30 3512 H 343.42 -0.298456 -1.59634 0
M  V30 3513 H 345.417 1.98837 -3.66428 0
M  V30 3514 H 344.077 2.08225 -2.49143 0
M  V30 3515 H 345.088 -0.480069 -5.1567 0
M  V30 3516 H 341.765 1.71829 -3.80501 0
M  V30 3517 H 343.155 -1.18854 -6.61304 0
M  V30 3518 N 345.875 1.56104 -0.216619 0
M  V30 3519 C 347.122 1.98172 0.416416 0
M  V30 3520 C 347.45 1.10413 1.60122 0
M  V30 3521 O 346.705 0.147967 1.9514 0
M  V30 3522 C 347.004 3.45923 0.898464 0
M  V30 3523 C 346.67 4.50559 -0.175288 0
M  V30 3524 C 345.332 4.78897 -0.470271 0
M  V30 3525 C 347.684 5.1334 -0.901728 0
M  V30 3526 C 345.012 5.67299 -1.4963 0
M  V30 3527 C 347.364 6.02853 -1.91705 0
M  V30 3528 C 346.028 6.29537 -2.21901 0
M  V30 3529 H 345.298 0.725164 0.152377 0
M  V30 3530 H 347.945 1.88839 -0.318103 0
M  V30 3531 H 346.25 3.52434 1.71165 0
M  V30 3532 H 347.947 3.75841 1.39803 0
M  V30 3533 H 344.537 4.28551 0.0647806 0
M  V30 3534 H 348.721 4.91521 -0.687072 0
M  V30 3535 H 343.977 5.86239 -1.73592 0
M  V30 3536 H 348.151 6.50552 -2.48505 0
M  V30 3537 H 345.778 6.97835 -3.01548 0
M  V30 3538 N 347.353 -0.0568162 1.57498 0
M  V30 3539 C 348.583 -0.764515 1.91934 0
M  V30 3540 C 348.991 -1.70877 0.81227 0
M  V30 3541 O 348.334 -1.82351 -0.222213 0
M  V30 3542 C 348.396 -1.5994 3.21962 0
M  V30 3543 C 348.06 -0.822925 4.4953 0
M  V30 3544 C 349.057 -0.135464 5.19723 0
M  V30 3545 C 346.742 -0.785666 4.96117 0
M  V30 3546 C 348.736 0.578861 6.34766 0
M  V30 3547 C 346.423 -0.0675784 6.11063 0
M  V30 3548 C 347.421 0.613471 6.80239 0
M  V30 3549 O 347.109 1.31996 7.92989 0
M  V30 3550 H 346.841 -0.221647 0.63863 0
M  V30 3551 H 349.395 -0.0268218 2.05382 0
M  V30 3552 H 347.625 -2.38026 3.04763 0
M  V30 3553 H 349.314 -2.18715 3.41934 0
M  V30 3554 H 350.08 -0.155458 4.84751 0
M  V30 3555 H 345.959 -1.30524 4.42136 0
M  V30 3556 H 349.503 1.111 6.88696 0
M  V30 3557 H 345.4 -0.0455636 6.45484 0
M  V30 3558 H 346.168 1.23077 8.09194 0
M  V30 3559 N 348.832 -1.54138 -0.328536 0
M  V30 3560 C 349.795 -1.82462 -1.38709 0
M  V30 3561 C 350.795 -0.696229 -1.44946 0
M  V30 3562 O 351.985 -0.964535 -1.4506 0
M  V30 3563 C 349.117 -1.98018 -2.77492 0
M  V30 3564 H 350.31 -2.77037 -1.14851 0
M  V30 3565 H 347.863 -1.45779 -0.563751 0
M  V30 3566 H 348.598 -1.05637 -3.06613 0
M  V30 3567 H 348.383 -2.80124 -2.74359 0
M  V30 3568 H 349.873 -2.21396 -3.54081 0
M  V30 3569 N 350.31 0.590341 -1.46126 0
M  V30 3570 C 351.587 1.35029 -1.41515 0
M  V30 3571 C 351.967 2.10888 -0.0946472 0
M  V30 3572 O 351.315 2.08998 0.923693 0
M  V30 3573 C 351.525 2.28269 -2.63997 0
M  V30 3574 C 352.873 2.90338 -3.09821 0
M  V30 3575 O 353.897 2.38585 -2.64492 0
M  V30 3576 O 352.756 3.84321 -3.88535 0
M  V30 3577 H 349.85 0.606317 -0.562413 0
M  V30 3578 H 352.396 0.611994 -1.58281 0
M  V30 3579 H 351.168 1.71591 -3.51671 0
M  V30 3580 H 350.791 3.0945 -2.49652 0
M  V30 3581 N 351.788 1.33704 0.83433 0
M  V30 3582 C 353.013 1.28615 1.62705 0
M  V30 3583 C 353.438 -0.139242 1.87584 0
M  V30 3584 O 352.796 -1.09734 1.4432 0
M  V30 3585 C 352.844 2.07139 2.95171 0
M  V30 3586 O 351.948 1.4331 3.86699 0
M  V30 3587 H 351.289 0.44226 0.49528 0
M  V30 3588 H 353.819 1.76335 1.03766 0
M  V30 3589 H 353.829 2.18073 3.44831 0
M  V30 3590 H 352.504 3.10779 2.76386 0
M  V30 3591 H 351.081 1.4105 3.45195 0
M  V30 3592 N 353.266 -1.05314 1.17247 0
M  V30 3593 C 354.216 -2.11313 0.856196 0
M  V30 3594 C 355.2 -1.60013 -0.168694 0
M  V30 3595 O 356.392 -1.76968 0.0335624 0
M  V30 3596 C 353.521 -3.41301 0.369917 0
M  V30 3597 C 352.607 -3.99401 1.42616 0
M  V30 3598 N 352.998 -4.31481 2.63928 0
M  V30 3599 C 351.296 -4.27126 1.28373 0
M  V30 3600 C 351.997 -4.77799 3.31787 0
M  V30 3601 N 350.973 -4.77843 2.59166 0
M  V30 3602 H 354.775 -2.33976 1.77856 0
M  V30 3603 H 352.289 -1.2295 1.06099 0
M  V30 3604 H 354.286 -4.16713 0.124897 0
M  V30 3605 H 352.946 -3.20072 -0.546253 0
M  V30 3606 H 353.957 -4.21519 3.00902 0
M  V30 3607 H 350.634 -4.15289 0.429111 0
M  V30 3608 H 352.024 -5.11743 4.35395 0
M  V30 3609 N 354.744 -0.972509 -1.24016 0
M  V30 3610 C 356.16 -0.679827 -1.44397 0
M  V30 3611 C 356.36 0.756716 -1.86751 0
M  V30 3612 O 355.416 1.53007 -2.00861 0
M  V30 3613 C 356.729 -1.66803 -2.50195 0
M  V30 3614 C 358.277 -1.68119 -2.64017 0
M  V30 3615 C 358.752 -2.65748 -3.73017 0
M  V30 3616 N 360.243 -2.64219 -3.8045 0
M  V30 3617 C 360.978 -3.36433 -4.64328 0
M  V30 3618 N 360.474 -4.1818 -5.52356 0
M  V30 3619 N 362.267 -3.25235 -4.58453 0
M  V30 3620 H 354.418 -1.90059 -0.948228 0
M  V30 3621 H 356.681 -0.818527 -0.478245 0
M  V30 3622 H 356.387 -2.69498 -2.25973 0
M  V30 3623 H 356.261 -1.4446 -3.48441 0
M  V30 3624 H 358.648 -0.661319 -2.87594 0
M  V30 3625 H 358.729 -1.94525 -1.66113 0
M  V30 3626 H 358.373 -3.67872 -3.50189 0
M  V30 3627 H 358.303 -2.36619 -4.70446 0
M  V30 3628 H 360.794 -2.04887 -3.17537 0
M  V30 3629 H 361.107 -4.70157 -6.13329 0
M  V30 3630 H 359.452 -4.22273 -5.52006 0
M  V30 3631 H 362.643 -2.60829 -3.88698 0
M  V30 3632 H 362.816 -3.81776 -5.23594 0
M  V30 3633 N 356.222 1.38976 -0.743202 0
M  V30 3634 C 357.47 1.99948 -0.29417 0
M  V30 3635 C 357.791 1.59279 1.12495 0
M  V30 3636 O 357.061 0.844808 1.76748 0
M  V30 3637 H 355.641 0.739473 -0.105774 0
M  V30 3638 H 358.303 1.699 -0.954986 0
M  V30 3639 H 357.399 3.10142 -0.349056 0
M  V30 3640 N 357.7 0.491464 1.49741 0
M  V30 3641 C 358.925 -0.0557177 2.07325 0
M  V30 3642 C 359.35 -1.30925 1.35056 0
M  V30 3643 O 358.708 -1.76733 0.404365 0
M  V30 3644 C 358.756 -0.302074 3.59333 0
M  V30 3645 O 357.86 -1.37868 3.88672 0
M  V30 3646 H 357.201 0.0219956 0.663636 0
M  V30 3647 H 359.731 0.688352 1.92673 0
M  V30 3648 H 359.741 -0.536464 4.04458 0
M  V30 3649 H 358.416 0.61383 4.11345 0
M  V30 3650 H 356.993 -1.12999 3.55367 0
M  V30 3651 N 359.178 -1.55987 0.224894 0
M  V30 3652 C 360.408 -2.02489 -0.41007 0
M  V30 3653 C 360.816 -1.10391 -1.53657 0
M  V30 3654 O 360.159 -0.106458 -1.83391 0
M  V30 3655 C 360.221 -3.45319 -0.999757 0
M  V30 3656 C 359.885 -4.56999 -0.00827976 0
M  V30 3657 C 360.882 -5.13812 0.793314 0
M  V30 3658 C 358.567 -5.02176 0.111442 0
M  V30 3659 C 360.561 -6.14276 1.7013 0
M  V30 3660 C 358.248 -6.02477 1.02296 0
M  V30 3661 C 359.246 -6.58403 1.81643 0
M  V30 3662 O 358.934 -7.56751 2.71262 0
M  V30 3663 H 358.666 -0.667915 -0.104235 0
M  V30 3664 H 361.22 -2.0257 0.339782 0
M  V30 3665 H 359.45 -3.42318 -1.79876 0
M  V30 3666 H 361.139 -3.7545 -1.54248 0
M  V30 3667 H 361.905 -4.79756 0.711288 0
M  V30 3668 H 357.784 -4.58323 -0.49605 0
M  V30 3669 H 361.328 -6.57854 2.32107 0
M  V30 3670 H 357.225 -6.35954 1.10599 0
M  V30 3671 H 357.993 -7.74286 2.65375 0
M  V30 3672 N 360.656 0.0484629 -1.57525 0
M  V30 3673 C 362.072 0.40375 -1.54409 0
M  V30 3674 C 362.272 1.77786 -0.948384 0
M  V30 3675 O 361.328 2.46189 -0.560983 0
M  V30 3676 C 362.641 0.323394 -2.98956 0
M  V30 3677 C 364.189 0.401892 -3.10409 0
M  V30 3678 C 364.664 0.351195 -4.56652 0
M  V30 3679 N 366.155 0.410576 -4.61377 0
M  V30 3680 C 366.89 0.393933 -5.72045 0
M  V30 3681 N 366.386 0.330724 -6.9201 0
M  V30 3682 N 368.179 0.442227 -5.60358 0
M  V30 3683 H 360.33 -0.851016 -1.94606 0
M  V30 3684 H 362.593 -0.321721 -0.89174 0
M  V30 3685 H 362.299 -0.62011 -3.4619 0
M  V30 3686 H 362.173 1.12463 -3.60044 0
M  V30 3687 H 364.56 1.33582 -2.63134 0
M  V30 3688 H 364.641 -0.428342 -2.52188 0
M  V30 3689 H 364.285 -0.578987 -5.04589 0
M  V30 3690 H 364.215 1.19928 -5.12762 0
M  V30 3691 H 366.706 0.462729 -3.75056 0
M  V30 3692 H 367.019 0.322592 -7.72126 0
M  V30 3693 H 365.364 0.29706 -6.94365 0
M  V30 3694 H 368.555 0.489464 -4.65534 0
M  V30 3695 H 368.728 0.425788 -6.466 0
M  V30 3696 N 362.134 1.5431 0.320358 0
M  V30 3697 C 363.097 1.83195 1.3774 0
M  V30 3698 C 364.097 0.703906 1.44575 0
M  V30 3699 O 365.287 0.972214 1.44546 0
M  V30 3700 C 362.419 1.99487 2.76438 0
M  V30 3701 H 363.612 2.77642 1.1338 0
M  V30 3702 H 361.165 1.46076 0.556012 0
M  V30 3703 H 361.9 1.07262 3.06048 0
M  V30 3704 H 361.685 2.81575 2.7287 0
M  V30 3705 H 363.175 2.23271 3.52902 0
M  V30 3706 N 363.613 -0.582584 1.46437 0
M  V30 3707 C 364.56 -1.69164 1.5701 0
M  V30 3708 C 365.53 -1.60847 0.414403 0
M  V30 3709 O 366.715 -1.80058 0.631171 0
M  V30 3710 C 363.855 -3.075 1.56646 0
M  V30 3711 C 362.968 -3.2644 2.82951 0
M  V30 3712 C 362.103 -4.55026 2.7409 0
M  V30 3713 C 361.142 -4.6731 3.95333 0
M  V30 3714 N 360.279 -5.87221 3.84858 0
M  V30 3715 H 365.119 -1.59464 2.51744 0
M  V30 3716 H 362.656 -0.777186 1.24893 0
M  V30 3717 H 364.614 -3.8757 1.5442 0
M  V30 3718 H 363.244 -3.16096 0.654439 0
M  V30 3719 H 362.296 -2.39974 2.95155 0
M  V30 3720 H 363.608 -3.31385 3.72808 0
M  V30 3721 H 362.762 -5.43324 2.6997 0
M  V30 3722 H 361.501 -4.52519 1.81873 0
M  V30 3723 H 360.506 -3.77429 3.99784 0
M  V30 3724 H 361.731 -4.71595 4.88646 0
M  V30 3725 H 359.677 -5.85712 2.95427 0
M  V30 3726 H 359.594 -5.93435 4.6837 0
M  V30 3727 H 360.862 -6.7795 3.84713 0
M  V30 3728 N 365.091 -1.34144 -0.827227 0
M  V30 3729 C 366.054 -1.25264 -1.91942 0
M  V30 3730 C 367.054 -0.168866 -1.59911 0
M  V30 3731 O 368.244 -0.421198 -1.69031 0
M  V30 3732 C 365.376 -0.932952 -3.27885 0
M  V30 3733 H 366.569 -2.22357 -2.0124 0
M  V30 3734 H 364.122 -1.1837 -1.0207 0
M  V30 3735 H 364.857 0.0349917 -3.24281 0
M  V30 3736 H 364.642 -1.71682 -3.52516 0
M  V30 3737 H 366.132 -0.895874 -4.07877 0
M  V30 3738 N 366.569 1.04691 -1.17803 0
M  V30 3739 C 367.501 2.12571 -0.857097 0
M  V30 3740 C 368.514 1.62174 0.142647 0
M  V30 3741 O 369.703 1.78301 -0.0843387 0
M  V30 3742 C 366.803 3.37915 -0.258216 0
M  V30 3743 C 365.976 4.1757 -1.30207 0
M  V30 3744 C 365.035 5.2125 -0.720029 0
M  V30 3745 O 364.061 5.51888 -1.39314 0
M  V30 3746 N 365.263 5.78466 0.485507 0
M  V30 3747 H 368.028 2.40698 -1.78562 0
M  V30 3748 H 365.589 1.20831 -1.07757 0
M  V30 3749 H 367.581 4.04442 0.144584 0
M  V30 3750 H 366.151 3.07281 0.574199 0
M  V30 3751 H 365.371 3.46458 -1.88043 0
M  V30 3752 H 366.659 4.67586 -2.00601 0
M  V30 3753 H 366.057 5.55866 1.05022 0
M  V30 3754 H 364.614 6.4649 0.830307 0
M  V30 3755 N 368.047 0.979072 1.23499 0
M  V30 3756 C 369.275 0.665202 1.95915 0
M  V30 3757 C 369.69 -0.767571 1.72493 0
M  V30 3758 O 369.047 -1.51635 1.01554 0
M  V30 3759 C 369.098 0.944438 3.48945 0
M  V30 3760 O 368.819 2.3209 3.71572 0
M  V30 3761 C 370.32 0.646336 4.38563 0
M  V30 3762 H 367.54 0.247218 0.623798 0
M  V30 3763 H 370.084 1.31009 1.57025 0
M  V30 3764 H 368.239 0.345575 3.85856 0
M  V30 3765 H 368.653 2.40957 4.65876 0
M  V30 3766 H 370.127 0.892091 5.44744 0
M  V30 3767 H 370.604 -0.419575 4.37191 0
M  V30 3768 H 371.21 1.22562 4.07258 0
M  V30 3769 N 369.525 -1.3858 0.750561 0
M  V30 3770 C 370.488 -2.28836 0.129152 0
M  V30 3771 C 371.488 -1.47045 -0.650714 0
M  V30 3772 O 372.678 -1.6753 -0.477428 0
M  V30 3773 C 369.81 -3.30751 -0.825622 0
M  V30 3774 H 371.003 -2.85294 0.924516 0
M  V30 3775 H 368.556 -1.47489 0.517376 0
M  V30 3776 H 369.291 -2.79378 -1.64677 0
M  V30 3777 H 369.076 -3.91177 -0.268852 0
M  V30 3778 H 370.566 -3.98249 -1.2565 0
M  V30 3779 N 371.003 -0.499398 -1.49478 0
M  V30 3780 C 371.933 0.269244 -2.31943 0
M  V30 3781 C 372.914 0.964054 -1.40143 0
M  V30 3782 O 374.099 0.955767 -1.69052 0
M  V30 3783 C 371.229 1.33504 -3.20615 0
M  V30 3784 C 370.183 0.760202 -4.21195 0
M  V30 3785 C 369.509 1.9264 -4.98792 0
M  V30 3786 C 370.809 -0.247661 -5.21712 0
M  V30 3787 H 372.503 -0.419082 -2.96452 0
M  V30 3788 H 370.049 -0.202988 -1.42562 0
M  V30 3789 H 372.002 1.88048 -3.77115 0
M  V30 3790 H 370.726 2.05253 -2.54045 0
M  V30 3791 H 369.385 0.23653 -3.65836 0
M  V30 3792 H 369.033 2.63154 -4.28671 0
M  V30 3793 H 368.733 1.54785 -5.66847 0
M  V30 3794 H 370.257 2.4762 -5.58137 0
M  V30 3795 H 371.671 0.209579 -5.72917 0
M  V30 3796 H 370.068 -0.541962 -5.97648 0
M  V30 3797 H 371.138 -1.16409 -4.7072 0
M  V30 3798 N 372.481 1.55866 -0.233164 0
M  V30 3799 C 373.429 2.22176 0.68851 0
M  V30 3800 C 374.423 1.20487 1.19076 0
M  V30 3801 O 375.629 1.38536 1.14925 0
M  V30 3802 H 372.004 0.712511 0.240483 0
M  V30 3803 H 373.975 2.98212 0.105935 0
M  V30 3804 C 372.724 2.92446 1.88071 0
M  V30 3805 H 372.047 3.70458 1.50337 0
M  V30 3806 H 373.487 3.42226 2.50314 0
M  V30 3807 C 371.946 1.95555 2.74335 0
M  V30 3808 O 372.476 1.47986 3.73447 0
M  V30 3809 N 370.682 1.62953 2.40613 0
M  V30 3810 H 370.229 2.01831 1.60069 0
M  V30 3811 H 370.187 0.983886 2.98609 0
M  V30 3812 N 373.959 -0.0401083 1.57549 0
M  V30 3813 C 374.907 -1.06264 2.06908 0
M  V30 3814 C 375.901 -1.38132 0.980608 0
M  V30 3815 O 377.107 -1.37167 1.16556 0
M  V30 3816 H 373.482 -0.360166 0.660139 0
M  V30 3817 H 375.453 -0.620445 2.91878 0
M  V30 3818 C 374.202 -2.35846 2.55483 0
M  V30 3819 H 373.525 -2.12183 3.38849 0
M  V30 3820 H 374.965 -3.05765 2.93741 0
M  V30 3821 C 373.424 -3.0404 1.45126 0
M  V30 3822 O 373.954 -3.93424 0.811216 0
M  V30 3823 N 372.16 -2.65184 1.18852 0
M  V30 3824 H 371.707 -1.92584 1.71083 0
M  V30 3825 H 371.665 -3.1113 0.452244 0
M  V30 3826 N 375.437 -1.54477 -0.31217 0
M  V30 3827 C 376.685 -1.72884 -1.04668 0
M  V30 3828 C 377.006 -0.511477 -1.88173 0
M  V30 3829 O 376.276 0.474407 -1.90069 0
M  V30 3830 H 374.856 -0.637461 -0.389425 0
M  V30 3831 H 377.518 -1.91807 -0.345852 0
M  V30 3832 H 376.614 -2.61334 -1.70619 0
M  V30 3833 N 376.915 0.57481 -1.46744 0
M  V30 3834 C 377.878 1.66533 -1.57478 0
M  V30 3835 C 378.878 1.54338 -0.451263 0
M  V30 3836 O 380.068 1.58814 -0.715813 0
M  V30 3837 C 377.2 3.05999 -1.50259 0
M  V30 3838 H 378.393 1.58372 -2.54673 0
M  V30 3839 H 375.946 0.793301 -1.34672 0
M  V30 3840 H 376.681 3.19709 -0.543725 0
M  V30 3841 H 376.466 3.16259 -2.31781 0
M  V30 3842 H 377.956 3.8537 -1.60872 0
M  V30 3843 N 378.394 1.34581 0.820102 0
M  V30 3844 C 379.357 1.2628 1.91275 0
M  V30 3845 C 380.357 0.177344 1.59819 0
M  V30 3846 O 381.547 0.430156 1.68806 0
M  V30 3847 C 378.679 0.950327 3.27386 0
M  V30 3848 H 379.872 2.23421 2.00057 0
M  V30 3849 H 377.425 1.1891 1.0144 0
M  V30 3850 H 378.16 -0.0177938 3.24295 0
M  V30 3851 H 377.945 1.73549 3.51601 0
M  V30 3852 H 379.435 0.917492 4.07396 0
M  V30 3853 N 379.872 -1.04064 1.18357 0
M  V30 3854 C 380.802 -2.14001 0.934113 0
M  V30 3855 C 381.783 -1.69616 -0.128186 0
M  V30 3856 O 382.968 -1.94185 0.0244093 0
M  V30 3857 C 380.098 -3.44253 0.459066 0
M  V30 3858 C 379.052 -4.02261 1.46185 0
M  V30 3859 C 378.378 -5.27992 0.844322 0
M  V30 3860 C 379.678 -4.38432 2.83856 0
M  V30 3861 H 381.372 -2.35127 1.85352 0
M  V30 3862 H 378.918 -1.12998 0.892604 0
M  V30 3863 H 380.871 -4.20522 0.271907 0
M  V30 3864 H 379.595 -3.22813 -0.495912 0
M  V30 3865 H 378.254 -3.28074 1.63595 0
M  V30 3866 H 377.902 -5.02862 -0.117845 0
M  V30 3867 H 377.602 -5.67765 1.51384 0
M  V30 3868 H 379.126 -6.06938 0.667693 0
M  V30 3869 H 380.54 -5.05688 2.70098 0
M  V30 3870 H 378.937 -4.89254 3.47491 0
M  V30 3871 H 380.007 -3.4826 3.37406 0
M  V30 3872 N 381.35 -0.985608 -1.22978 0
M  V30 3873 C 382.597 -0.657386 -1.91532 0
M  V30 3874 C 382.925 0.809707 -1.76845 0
M  V30 3875 O 382.18 1.60021 -1.12658 0
M  V30 3876 C 382.479 -1.00014 -3.43121 0
M  V30 3877 C 382.145 -2.4583 -3.77993 0
M  V30 3878 C 380.807 -2.85679 -3.87222 0
M  V30 3879 C 383.159 -3.40378 -3.94705 0
M  V30 3880 C 380.487 -4.19081 -4.10595 0
M  V30 3881 C 382.839 -4.73429 -4.1958 0
M  V30 3882 C 381.503 -5.1303 -4.27032 0
M  V30 3883 H 380.773 -0.240555 -0.700867 0
M  V30 3884 H 383.42 -1.24044 -1.45895 0
M  V30 3885 H 381.725 -0.335072 -3.90365 0
M  V30 3886 H 383.422 -0.724322 -3.94404 0
M  V30 3887 H 380.012 -2.13939 -3.71387 0
M  V30 3888 H 384.196 -3.10766 -3.8696 0
M  V30 3889 H 379.452 -4.49362 -4.14589 0
M  V30 3890 H 383.626 -5.46644 -4.31455 0
M  V30 3891 H 381.253 -6.16418 -4.44896 0
M  V30 3892 N 382.828 1.3818 -0.7579 0
M  V30 3893 C 383.791 2.28764 -0.141286 0
M  V30 3894 C 384.791 1.47388 0.642907 0
M  V30 3895 O 385.981 1.67781 0.468536 0
M  V30 3896 C 383.113 3.31184 0.808069 0
M  V30 3897 H 384.306 2.848 -0.939633 0
M  V30 3898 H 381.859 1.47212 -0.525191 0
M  V30 3899 H 382.594 2.80247 1.63193 0
M  V30 3900 H 382.379 3.91314 0.248104 0
M  V30 3901 H 383.869 3.98909 1.23536 0
M  V30 3902 N 384.306 0.507319 1.49211 0
M  V30 3903 C 385.534 -0.0315749 2.06876 0
M  V30 3904 C 385.949 -1.30241 1.36685 0
M  V30 3905 O 385.306 -1.76937 0.447152 0
M  V30 3906 C 385.357 -0.282627 3.60393 0
M  V30 3907 O 385.078 0.937835 4.27944 0
M  V30 3908 C 386.579 -0.864453 4.3479 0
M  V30 3909 H 383.799 0.0233048 0.670595 0
M  V30 3910 H 386.343 0.706484 1.91909 0
M  V30 3911 H 384.498 -0.97068 3.75042 0
M  V30 3912 H 384.912 0.704567 5.19746 0
M  V30 3913 H 386.386 -0.989664 5.43056 0
M  V30 3914 H 386.863 -1.86382 3.97692 0
M  V30 3915 H 387.469 -0.213672 4.24763 0
M  V30 3916 N 385.784 -1.5574 0.241426 0
M  V30 3917 C 386.694 -2.2479 -0.671305 0
M  V30 3918 C 387.71 -1.26217 -1.19772 0
M  V30 3919 O 388.886 -1.59079 -1.23514 0
M  V30 3920 C 385.951 -2.92966 -1.85396 0
M  V30 3921 C 385.012 -4.06935 -1.36756 0
M  V30 3922 C 384.245 -4.71851 -2.49384 0
M  V30 3923 O 384.468 -4.35823 -3.67987 0
M  V30 3924 O 383.402 -5.60467 -2.19454 0
M  V30 3925 H 387.228 -3.0349 -0.112966 0
M  V30 3926 H 384.813 -1.49397 0.0101513 0
M  V30 3927 H 386.695 -3.35927 -2.54423 0
M  V30 3928 H 385.37 -2.17211 -2.40002 0
M  V30 3929 H 384.277 -3.68503 -0.644726 0
M  V30 3930 H 385.61 -4.84492 -0.867647 0
M  V30 3931 N 387.262 0.0317525 -1.57568 0
M  V30 3932 C 388.508 0.718712 -1.90279 0
M  V30 3933 C 388.863 1.73108 -0.839727 0
M  V30 3934 O 388.156 1.90997 0.15188 0
M  V30 3935 C 388.35 1.43167 -3.27472 0
M  V30 3936 C 388.179 0.489869 -4.47024 0
M  V30 3937 C 386.949 0.111909 -5.05176 0
M  V30 3938 C 389.147 -0.230592 -5.13783 0
M  V30 3939 N 387.129 -0.831427 -6.08244 0
M  V30 3940 C 388.5 -1.02968 -6.1139 0
M  V30 3941 C 390.555 -0.297821 -4.97008 0
M  V30 3942 C 389.258 -1.88982 -6.9403 0
M  V30 3943 C 391.284 -1.14507 -5.80209 0
M  V30 3944 C 390.646 -1.9321 -6.77384 0
M  V30 3945 H 386.745 0.237177 -0.745165 0
M  V30 3946 H 389.329 -0.0211267 -1.94689 0
M  V30 3947 H 387.5 2.14199 -3.23996 0
M  V30 3948 H 389.232 2.0708 -3.47707 0
M  V30 3949 H 385.987 0.473513 -4.71227 0
M  V30 3950 H 386.411 -1.29752 -6.6445 0
M  V30 3951 H 391.053 0.296346 -4.2176 0
M  V30 3952 H 388.771 -2.4948 -7.68626 0
M  V30 3953 H 392.357 -1.20059 -5.69278 0
M  V30 3954 H 391.237 -2.57711 -7.40645 0
M  V30 3955 N 388.74 1.54641 0.303973 0
M  V30 3956 C 389.988 1.73437 1.0375 0
M  V30 3957 C 390.309 0.521449 1.87899 0
M  V30 3958 O 389.579 -0.46432 1.90318 0
M  V30 3959 H 388.159 0.639518 0.386039 0
M  V30 3960 H 390.821 1.91988 0.335675 0
M  V30 3961 H 389.917 2.62235 1.69231 0
M  V30 3962 N 390.218 -0.567019 1.47046 0
M  V30 3963 C 391.464 -1.32658 1.53394 0
M  V30 3964 C 391.797 -1.93254 0.19148 0
M  V30 3965 O 391.072 -1.77338 -0.798844 0
M  V30 3966 C 391.355 -2.44412 2.64452 0
M  V30 3967 C 391.208 -1.88749 4.08282 0
M  V30 3968 C 392.527 -3.46387 2.71485 0
M  V30 3969 H 389.646 -0.48098 0.558415 0
M  V30 3970 H 392.288 -0.635481 1.79058 0
M  V30 3971 H 390.438 -3.03363 2.427 0
M  V30 3972 H 392.11 -1.34134 4.41368 0
M  V30 3973 H 390.353 -1.19481 4.17021 0
M  V30 3974 H 391.024 -2.69491 4.81745 0
M  V30 3975 H 393.5 -2.9734 2.91081 0
M  V30 3976 H 392.376 -4.2202 3.50985 0
M  V30 3977 H 392.637 -4.04616 1.78153 0
M  V30 3978 N 391.696 -1.35014 -0.812953 0
M  V30 3979 C 392.944 -1.27678 -1.56661 0
M  V30 3980 C 393.265 0.150359 -1.94419 0
M  V30 3981 O 392.535 1.08532 -1.63088 0
M  V30 3982 H 391.115 -0.469602 -0.580933 0
M  V30 3983 H 393.777 -1.69043 -0.970076 0
M  V30 3984 H 392.873 -1.88833 -2.48492 0
M  V30 3985 N 393.175 1.03435 -1.18907 0
M  V30 3986 C 394.125 2.09924 -0.889706 0
M  V30 3987 C 395.109 1.60261 0.143216 0
M  V30 3988 O 396.301 1.76892 -0.0617122 0
M  V30 3989 C 393.43 3.40669 -0.424168 0
M  V30 3990 C 392.516 3.97082 -1.48952 0
M  V30 3991 N 392.907 4.27227 -2.70759 0
M  V30 3992 C 391.205 4.25029 -1.35152 0
M  V30 3993 C 391.906 4.7246 -3.39347 0
M  V30 3994 N 390.882 4.7366 -2.66735 0
M  V30 3995 H 394.684 2.31116 -1.81555 0
M  V30 3996 H 392.198 1.21246 -1.08042 0
M  V30 3997 H 394.195 4.16461 -0.191176 0
M  V30 3998 H 392.855 3.20901 0.495263 0
M  V30 3999 H 393.866 4.16678 -3.0757 0
M  V30 4000 H 390.543 4.14554 -0.495126 0
M  V30 4001 H 391.933 5.04751 -4.43481 0
M  V30 4002 N 394.653 0.992116 1.22453 0
M  V30 4003 C 395.616 0.546883 2.2258 0
M  V30 4004 C 396.616 -0.369829 1.56489 0
M  V30 4005 O 397.806 -0.161896 1.73446 0
M  V30 4006 C 394.938 -0.204659 3.40285 0
M  V30 4007 H 396.131 1.43234 2.63484 0
M  V30 4008 H 393.684 0.779239 1.3549 0
M  V30 4009 H 394.419 -1.10614 3.04853 0
M  V30 4010 H 394.204 0.45354 3.89468 0
M  V30 4011 H 395.694 -0.504358 4.14543 0
M  V30 4012 N 396.131 -1.37776 0.765217 0
M  V30 4013 C 397.079 -2.32209 0.134798 0
M  V30 4014 C 398.073 -1.54607 -0.692315 0
M  V30 4015 O 399.279 -1.70052 -0.590109 0
M  V30 4016 H 395.654 -0.751591 0.0248005 0
M  V30 4017 H 397.625 -2.8297 0.947119 0
M  V30 4018 C 396.374 -3.39841 -0.735063 0
M  V30 4019 H 395.697 -3.99654 -0.107991 0
M  V30 4020 H 397.137 -4.08296 -1.14326 0
M  V30 4021 C 395.596 -2.79378 -1.88281 0
M  V30 4022 O 396.126 -2.69608 -2.97783 0
M  V30 4023 N 394.332 -2.37016 -1.68142 0
M  V30 4024 H 393.879 -2.45162 -0.790772 0
M  V30 4025 H 393.837 -1.96905 -2.45104 0
M  V30 4026 N 397.609 -0.515225 -1.4894 0
M  V30 4027 C 398.857 0.0241671 -2.02086 0
M  V30 4028 C 399.178 1.3616 -1.3959 0
M  V30 4029 O 398.448 1.87841 -0.556121 0
M  V30 4030 H 397.028 0.0119203 -0.746905 0
M  V30 4031 H 399.69 -0.675702 -1.82812 0
M  V30 4032 H 398.786 0.143385 -3.1177 0
M  V30 4033 N 399.087 1.5561 -0.249682 0
M  V30 4034 C 400.503 1.59254 0.105103 0
M  V30 4035 C 400.703 1.26685 1.56694 0
M  V30 4036 O 399.759 1.0155 2.31179 0
M  V30 4037 C 401.072 2.99687 -0.246592 0
M  V30 4038 C 402.62 3.12416 -0.191118 0
M  V30 4039 C 403.095 4.55074 -0.516885 0
M  V30 4040 N 404.586 4.60835 -0.467489 0
M  V30 4041 C 405.321 5.69201 -0.69268 0
M  V30 4042 N 404.817 6.85817 -0.981146 0
M  V30 4043 N 406.61 5.58635 -0.623198 0
M  V30 4044 H 398.761 1.75049 -1.20298 0
M  V30 4045 H 401.024 0.815003 -0.484225 0
M  V30 4046 H 400.73 3.28267 -1.26228 0
M  V30 4047 H 400.604 3.74798 0.424962 0
M  V30 4048 H 402.991 2.83615 0.815247 0
M  V30 4049 H 403.072 2.39573 -0.896563 0
M  V30 4050 H 402.716 4.84596 -1.52082 0
M  V30 4051 H 402.646 5.26181 0.210068 0
M  V30 4052 H 405.137 3.7705 -0.253373 0
M  V30 4053 H 405.45 7.64341 -1.14032 0
M  V30 4054 H 403.795 6.87494 -1.01865 0
M  V30 4055 H 406.986 4.66406 -0.397863 0
M  V30 4056 H 407.159 6.43017 -0.802093 0
M  V30 4057 N 400.565 -0.0233959 1.57583 0
M  V30 4058 C 401.813 -0.711654 1.89156 0
M  V30 4059 C 402.134 -1.75591 0.848096 0
M  V30 4060 O 401.404 -1.95547 -0.117566 0
M  V30 4061 H 399.984 -0.265835 0.698098 0
M  V30 4062 H 402.646 0.0119948 1.94896 0
M  V30 4063 H 401.742 -1.19766 2.88206 0
M  V30 4064 N 402.043 -1.548 -0.295768 0
M  V30 4065 C 403.271 -1.78327 -1.04914 0
M  V30 4066 C 403.686 -0.545316 -1.80753 0
M  V30 4067 O 403.043 0.485013 -1.75937 0
M  V30 4068 C 403.094 -2.99418 -2.02561 0
M  V30 4069 O 402.815 -4.18431 -1.29798 0
M  V30 4070 C 404.316 -3.35375 -2.89895 0
M  V30 4071 H 401.536 -0.594618 -0.310918 0
M  V30 4072 H 404.08 -2.01763 -0.333454 0
M  V30 4073 H 402.235 -2.78175 -2.69624 0
M  V30 4074 H 402.649 -4.86736 -1.95419 0
M  V30 4075 H 404.123 -4.23332 -3.54251 0
M  V30 4076 H 404.6 -2.53761 -3.58472 0
M  V30 4077 H 405.206 -3.58796 -2.28355 0
M  V30 4078 N 403.521 0.559213 -1.47345 0
M  V30 4079 C 404.767 1.31843 -1.54095 0
M  V30 4080 C 405.1 1.93149 -0.201726 0
M  V30 4081 O 404.375 1.77759 0.789428 0
M  V30 4082 C 404.658 2.43006 -2.65744 0
M  V30 4083 C 404.511 1.86581 -4.09277 0
M  V30 4084 C 405.83 3.44943 -2.73318 0
M  V30 4085 H 402.949 0.478012 -0.560957 0
M  V30 4086 H 405.591 0.625977 -1.79392 0
M  V30 4087 H 403.741 3.02072 -2.44305 0
M  V30 4088 H 405.413 1.31792 -4.42073 0
M  V30 4089 H 403.656 1.17268 -4.17649 0
M  V30 4090 H 404.327 2.66933 -4.83168 0
M  V30 4091 H 406.803 2.95793 -2.92653 0
M  V30 4092 H 405.679 4.20153 -3.53218 0
M  V30 4093 H 405.94 4.03665 -1.80296 0
M  V30 4094 N 404.999 1.35443 0.805782 0
M  V30 4095 C 405.947 1.28465 1.93906 0
M  V30 4096 C 406.941 0.17943 1.68447 0
M  V30 4097 O 408.147 0.345459 1.76654 0
M  V30 4098 H 404.522 0.399528 0.637088 0
M  V30 4099 H 406.493 2.24206 1.96912 0
M  V30 4100 C 405.242 1.07432 3.30687 0
M  V30 4101 H 404.565 1.91716 3.50835 0
M  V30 4102 H 406.005 1.06591 4.10383 0
M  V30 4103 C 404.464 -0.22179 3.36169 0
M  V30 4104 O 404.994 -1.21731 3.82811 0
M  V30 4105 N 403.2 -0.260841 2.89427 0
M  V30 4106 H 402.747 0.549884 2.51663 0
M  V30 4107 H 402.705 -1.12777 2.93477 0
M  V30 4108 N 406.477 -1.02803 1.19454 0
M  V30 4109 C 407.427 -2.0945 0.900827 0
M  V30 4110 C 408.411 -1.60335 -0.134715 0
M  V30 4111 O 409.603 -1.76857 0.0710924 0
M  V30 4112 C 406.732 -3.4044 0.442229 0
M  V30 4113 C 405.818 -3.96286 1.51056 0
M  V30 4114 N 406.209 -4.25785 2.73021 0
M  V30 4115 C 404.507 -4.24307 1.37404 0
M  V30 4116 C 405.208 -4.70654 3.41848 0
M  V30 4117 N 404.184 -4.72238 2.69243 0
M  V30 4118 H 407.986 -2.3015 1.82779 0
M  V30 4119 H 405.5 -1.20672 1.08683 0
M  V30 4120 H 407.497 -4.16354 0.21326 0
M  V30 4121 H 406.157 -3.21159 -0.478238 0
M  V30 4122 H 407.168 -4.15041 3.09776 0
M  V30 4123 H 403.845 -4.14285 0.517103 0
M  V30 4124 H 405.235 -5.02392 4.46152 0
M  V30 4125 N 407.956 -0.998596 -1.21925 0
M  V30 4126 C 408.919 -0.558679 -2.22287 0
M  V30 4127 C 409.919 0.361525 -1.56683 0
M  V30 4128 O 411.109 0.152695 -1.73529 0
M  V30 4129 C 408.241 0.18661 -3.40389 0
M  V30 4130 H 409.434 -1.4463 -2.62721 0
M  V30 4131 H 406.987 -0.786413 -1.35075 0
M  V30 4132 H 407.722 1.08996 -3.05435 0
M  V30 4133 H 407.507 -0.474188 -3.89222 0
M  V30 4134 H 408.997 0.482367 -4.14805 0
M  V30 4135 N 409.434 1.37368 -0.772513 0
M  V30 4136 C 410.344 2.34053 -0.160081 0
M  V30 4137 C 411.36 1.60216 0.678728 0
M  V30 4138 O 412.536 1.92303 0.59847 0
M  V30 4139 C 409.601 3.3939 0.708182 0
M  V30 4140 C 408.662 4.29048 -0.147172 0
M  V30 4141 C 407.895 5.29354 0.679744 0
M  V30 4142 O 408.118 5.3723 1.91678 0
M  V30 4143 O 407.052 6.01835 0.0885444 0
M  V30 4144 H 410.878 2.88159 -0.959053 0
M  V30 4145 H 408.463 1.39543 -0.533685 0
M  V30 4146 H 410.345 4.03839 1.20384 0
M  V30 4147 H 409.02 2.8761 1.48533 0
M  V30 4148 H 407.927 3.67697 -0.689205 0
M  V30 4149 H 409.26 4.84134 -0.887423 0
M  V30 4150 N 410.912 0.523116 1.48665 0
M  V30 4151 C 412.14 -0.0096312 2.06898 0
M  V30 4152 C 412.555 -1.28784 1.38059 0
M  V30 4153 O 411.912 -1.76453 0.465893 0
M  V30 4154 C 411.963 -0.244386 3.60673 0
M  V30 4155 O 411.684 0.983172 4.26925 0
M  V30 4156 C 413.185 -0.818289 4.35682 0
M  V30 4157 H 410.405 0.0304161 0.67031 0
M  V30 4158 H 412.949 0.726799 1.91149 0
M  V30 4159 H 411.104 -0.930847 3.76051 0
M  V30 4160 H 411.518 0.759653 5.1897 0
M  V30 4161 H 412.992 -0.93201 5.44075 0
M  V30 4162 H 413.469 -1.82153 3.99646 0
M  V30 4163 H 414.075 -0.168609 4.24966 0
M  V30 4164 N 412.39 -1.55475 0.257931 0
M  V30 4165 C 413.636 -2.00237 -0.357338 0
M  V30 4166 C 413.991 -1.14313 -1.54759 0
M  V30 4167 O 413.284 -0.201187 -1.90541 0
M  V30 4168 C 413.478 -3.48183 -0.806433 0
M  V30 4169 C 413.307 -4.48422 0.338758 0
M  V30 4170 C 412.077 -4.98651 0.817011 0
M  V30 4171 C 414.275 -5.00827 1.16949 0
M  V30 4172 N 412.257 -5.82658 1.93346 0
M  V30 4173 C 413.628 -5.82113 2.13413 0
M  V30 4174 C 415.683 -4.83104 1.2048 0
M  V30 4175 C 414.386 -6.47566 3.13131 0
M  V30 4176 C 416.412 -5.49343 2.19034 0
M  V30 4177 C 415.774 -6.30427 3.14232 0
M  V30 4178 H 411.873 -0.776034 -0.0964083 0
M  V30 4179 H 414.457 -1.90995 0.37803 0
M  V30 4180 H 412.628 -3.57801 -1.51107 0
M  V30 4181 H 414.36 -3.79802 -1.39758 0
M  V30 4182 H 411.115 -4.71914 0.39925 0
M  V30 4183 H 411.539 -6.29356 2.49478 0
M  V30 4184 H 416.181 -4.20036 0.482634 0
M  V30 4185 H 413.899 -7.09793 3.8629 0
M  V30 4186 H 417.485 -5.37579 2.22485 0
M  V30 4187 H 416.365 -6.80777 3.89246 0
M  V30 4188 N 413.868 0.0150385 -1.57593 0
M  V30 4189 C 414.831 0.995996 -2.06428 0
M  V30 4190 C 415.831 1.2818 -0.970903 0
M  V30 4191 O 417.021 1.22949 -1.23406 0
M  V30 4192 C 414.153 2.32506 -2.49307 0
M  V30 4193 H 415.346 0.573873 -2.94358 0
M  V30 4194 H 412.899 0.262186 -1.54085 0
M  V30 4195 H 413.634 2.79438 -1.64575 0
M  V30 4196 H 413.419 2.13087 -3.29145 0
M  V30 4197 H 414.909 3.02906 -2.87468 0
M  V30 4198 N 415.346 1.54954 0.287554 0
M  V30 4199 C 416.592 1.76059 1.01856 0
M  V30 4200 C 416.947 0.547056 1.84459 0
M  V30 4201 O 416.24 -0.460442 1.85985 0
M  V30 4202 C 416.434 2.99833 1.94512 0
M  V30 4203 C 416.263 4.33108 1.21026 0
M  V30 4204 C 415.033 4.96632 0.931896 0
M  V30 4205 C 417.231 5.10694 0.607949 0
M  V30 4206 N 415.213 6.13668 0.168716 0
M  V30 4207 C 416.584 6.19996 -0.0217865 0
M  V30 4208 C 418.639 4.95236 0.514338 0
M  V30 4209 C 417.342 7.15524 -0.736092 0
M  V30 4210 C 419.368 5.91106 -0.186343 0
M  V30 4211 C 418.73 6.99786 -0.804875 0
M  V30 4212 H 414.829 0.696679 0.355193 0
M  V30 4213 H 417.413 1.92441 0.295741 0
M  V30 4214 H 415.584 2.84853 2.64033 0
M  V30 4215 H 417.316 3.09405 2.60865 0
M  V30 4216 H 414.071 4.57255 1.23348 0
M  V30 4217 H 414.495 6.76705 -0.199781 0
M  V30 4218 H 419.137 4.11328 0.978234 0
M  V30 4219 H 416.855 7.98964 -1.21172 0
M  V30 4220 H 420.441 5.81224 -0.258897 0
M  V30 4221 H 419.321 7.72694 -1.33843 0
M  V30 4222 N 416.824 -0.551391 1.4764 0
M  V30 4223 C 418.073 -1.30467 1.53822 0
M  V30 4224 C 418.386 -1.94495 0.207661 0
M  V30 4225 O 419.592 -2.71099 0.147533 0
M  V30 4226 C 418.048 -2.36616 2.71184 0
M  V30 4227 C 417.656 -1.78754 4.10793 0
M  V30 4228 C 419.4 -3.13088 2.86663 0
M  V30 4229 C 417.307 -2.82717 5.19447 0
M  V30 4230 H 416.237 -0.490584 0.572576 0
M  V30 4231 H 418.888 -0.58494 1.73927 0
M  V30 4232 H 417.27 -3.11529 2.4447 0
M  V30 4233 H 418.444 -1.10173 4.47435 0
M  V30 4234 H 416.759 -1.14846 4.00249 0
M  V30 4235 H 419.356 -3.90736 3.65007 0
M  V30 4236 H 419.699 -3.67635 1.95321 0
M  V30 4237 H 420.232 -2.45288 3.13175 0
M  V30 4238 H 416.971 -2.33018 6.12685 0
M  V30 4239 H 416.491 -3.4969 4.87316 0
M  V30 4240 H 418.17 -3.46102 5.46646 0
M  V30 4241 N 418.302 -1.35869 -0.798587 0
M  V30 4242 C 419.579 -1.20145 -1.54352 0
M  V30 4243 C 419.959 0.216161 -2.0999 0
M  V30 4244 O 419.307 1.22068 -1.93162 0
M  V30 4245 C 419.517 -2.27602 -2.64572 0
M  V30 4246 C 420.865 -2.63811 -3.32699 0
M  V30 4247 O 421.889 -2.26576 -2.74849 0
M  V30 4248 O 420.748 -3.27866 -4.37226 0
M  V30 4249 H 417.842 -0.467248 -0.682355 0
M  V30 4250 H 420.388 -1.47574 -0.837859 0
M  V30 4251 H 419.16 -3.2265 -2.21388 0
M  V30 4252 H 418.783 -2.01488 -3.42766 0
M  V30 4253 N 419.78 1.02168 -1.19998 0
M  V30 4254 C 421.027 1.75685 -1.00702 0
M  V30 4255 C 421.355 1.88947 0.461426 0
M  V30 4256 O 420.61 1.40832 1.35885 0
M  V30 4257 C 420.909 3.18081 -1.62969 0
M  V30 4258 C 420.575 3.24809 -3.12746 0
M  V30 4259 C 419.237 3.26352 -3.53621 0
M  V30 4260 C 421.589 3.23379 -4.08749 0
M  V30 4261 C 418.917 3.2413 -4.89036 0
M  V30 4262 C 421.269 3.22698 -5.44104 0
M  V30 4263 C 419.933 3.22542 -5.84399 0
M  V30 4264 H 419.203 0.642877 -0.368496 0
M  V30 4265 H 421.85 1.19865 -1.49348 0
M  V30 4266 H 420.155 3.77027 -1.06573 0
M  V30 4267 H 421.852 3.73648 -1.45561 0
M  V30 4268 H 418.442 3.2434 -2.80181 0
M  V30 4269 H 422.626 3.21361 -3.78207 0
M  V30 4270 H 417.882 3.22338 -5.19527 0
M  V30 4271 H 422.056 3.20543 -6.18244 0
M  V30 4272 H 419.683 3.20575 -6.89301 0
M  V30 4273 N 421.258 1.00505 1.21394 0
M  V30 4274 C 422.188 0.585684 2.26035 0
M  V30 4275 C 423.169 -0.393525 1.65485 0
M  V30 4276 O 424.354 -0.281497 1.92149 0
M  V30 4277 C 421.484 -0.0884283 3.47187 0
M  V30 4278 C 420.438 0.810567 4.20254 0
M  V30 4279 C 419.764 0.00286382 5.347 0
M  V30 4280 C 421.064 2.1132 4.77641 0
M  V30 4281 H 422.758 1.46039 2.61368 0
M  V30 4282 H 420.304 0.703648 1.25638 0
M  V30 4283 H 422.257 -0.393286 4.19561 0
M  V30 4284 H 420.981 -0.997766 3.10986 0
M  V30 4285 H 419.64 1.09925 3.49731 0
M  V30 4286 H 419.288 -0.907765 4.94741 0
M  V30 4287 H 418.988 0.601444 5.84514 0
M  V30 4288 H 420.512 -0.295808 6.09883 0
M  V30 4289 H 421.926 1.87148 5.41893 0
M  V30 4290 H 420.323 2.66164 5.37845 0
M  V30 4291 H 421.393 2.78393 3.9702 0
M  V30 4292 N 422.737 -1.36956 0.779787 0
M  V30 4293 C 424.153 -1.52817 0.460342 0
M  V30 4294 C 424.353 -1.7361 -1.02283 0
M  V30 4295 O 423.409 -1.76207 -1.80852 0
M  V30 4296 C 424.722 -2.71983 1.28241 0
M  V30 4297 C 426.27 -2.85849 1.27512 0
M  V30 4298 C 426.745 -4.08008 2.08072 0
M  V30 4299 N 428.236 -4.15135 2.05467 0
M  V30 4300 C 428.971 -5.08711 2.64577 0
M  V30 4301 N 428.467 -6.07792 3.32506 0
M  V30 4302 N 430.26 -5.01254 2.54363 0
M  V30 4303 H 422.411 -1.21713 1.74068 0
M  V30 4304 H 424.674 -0.593294 0.739396 0
M  V30 4305 H 424.38 -2.63109 2.33381 0
M  V30 4306 H 424.254 -3.65882 0.917088 0
M  V30 4307 H 426.641 -2.94189 0.231686 0
M  V30 4308 H 426.722 -1.92886 1.68014 0
M  V30 4309 H 426.366 -4.00429 3.12441 0
M  V30 4310 H 426.296 -5.001 1.64947 0
M  V30 4311 H 428.787 -3.44189 1.5602 0
M  V30 4312 H 429.1 -6.75739 3.74963 0
M  V30 4313 H 427.445 -6.08047 3.36606 0
M  V30 4314 H 430.636 -4.22795 2.00902 0
M  V30 4315 H 430.809 -5.73995 3.00722 0
M  V30 4316 N 424.215 -0.530993 -1.48385 0
M  V30 4317 C 425.178 0.220497 -2.28137 0
M  V30 4318 C 426.178 0.866851 -1.35434 0
M  V30 4319 O 427.368 0.726746 -1.58316 0
M  V30 4320 C 424.5 1.31921 -3.1434 0
M  V30 4321 H 425.693 -0.479714 -2.96038 0
M  V30 4322 H 423.246 -0.286968 -1.53643 0
M  V30 4323 H 423.981 2.05264 -2.51072 0
M  V30 4324 H 423.766 0.86085 -3.82533 0
M  V30 4325 H 425.256 1.84776 -3.74497 0
M  V30 4326 N 425.693 1.55336 -0.266172 0
M  V30 4327 C 426.641 2.23587 0.641228 0
M  V30 4328 C 427.635 1.22986 1.16494 0
M  V30 4329 O 428.841 1.40943 1.1196 0
M  V30 4330 H 425.216 0.717452 0.225315 0
M  V30 4331 H 427.187 2.9837 0.0426561 0
M  V30 4332 C 425.936 2.96369 1.81826 0
M  V30 4333 H 425.259 3.73563 1.42445 0
M  V30 4334 H 426.699 3.47459 2.42998 0
M  V30 4335 C 425.158 2.0133 2.70125 0
M  V30 4336 O 425.688 1.55875 3.70224 0
M  V30 4337 N 423.894 1.6802 2.37102 0
M  V30 4338 H 423.441 2.05181 1.55751 0
M  V30 4339 H 423.399 1.047 2.96454 0
M  V30 4340 N 427.171 -0.0066808 1.57599 0
M  V30 4341 C 428.419 -0.691552 1.899 0
M  V30 4342 C 428.74 -1.74682 0.866672 0
M  V30 4343 O 428.01 -1.95661 -0.0968189 0
M  V30 4344 H 426.59 -0.258416 0.700878 0
M  V30 4345 H 429.252 0.0326655 1.94873 0
M  V30 4346 H 428.348 -1.16702 2.8946 0
M  V30 4347 N 428.649 -1.55105 -0.279332 0
M  V30 4348 C 429.898 -1.74618 -1.00952 0
M  V30 4349 C 430.211 -0.551096 -1.87676 0
M  V30 4350 O 431.417 -0.628507 -2.64125 0
M  V30 4351 C 429.873 -3.09025 -1.84476 0
M  V30 4352 C 429.481 -4.36081 -1.0265 0
M  V30 4353 C 431.225 -3.37891 -2.56963 0
M  V30 4354 C 429.132 -5.6153 -1.85576 0
M  V30 4355 H 428.062 -0.650868 -0.38064 0
M  V30 4356 H 430.713 -1.81569 -0.265475 0
M  V30 4357 H 429.095 -2.96095 -2.62952 0
M  V30 4358 H 430.269 -4.59909 -0.286354 0
M  V30 4359 H 428.584 -4.14312 -0.416464 0
M  V30 4360 H 431.181 -4.28822 -3.19399 0
M  V30 4361 H 431.524 -2.57737 -3.26921 0
M  V30 4362 H 432.057 -3.5189 -1.85522 0
M  V30 4363 H 428.796 -6.44413 -1.2005 0
M  V30 4364 H 428.316 -5.41854 -2.57204 0
M  V30 4365 H 429.995 -5.99594 -2.43096 0
M  V30 4366 N 430.127 0.543554 -1.4793 0
M  V30 4367 C 431.352 1.32995 -1.59145 0
M  V30 4368 C 431.777 1.86472 -0.246956 0
M  V30 4369 O 431.135 1.63696 0.779324 0
M  V30 4370 C 431.183 2.46623 -2.63077 0
M  V30 4371 O 430.287 3.49261 -2.19295 0
M  V30 4372 H 429.628 0.394472 -0.534124 0
M  V30 4373 H 432.158 0.655489 -1.93816 0
M  V30 4374 H 432.168 2.93001 -2.83926 0
M  V30 4375 H 430.843 2.07059 -3.60693 0
M  V30 4376 H 429.42 3.09094 -2.08603 0
M  V30 4377 N 431.605 1.3629 0.791371 0
M  V30 4378 C 432.555 1.26988 1.89362 0
M  V30 4379 C 433.539 0.161795 1.60084 0
M  V30 4380 O 434.731 0.394426 1.72549 0
M  V30 4381 C 431.86 1.05944 3.26544 0
M  V30 4382 C 430.946 2.21211 3.61838 0
M  V30 4383 N 431.337 3.46518 3.68455 0
M  V30 4384 C 429.635 2.12933 3.91887 0
M  V30 4385 C 430.336 4.2241 3.99931 0
M  V30 4386 N 429.312 3.51329 4.14812 0
M  V30 4387 H 433.114 2.21908 1.92702 0
M  V30 4388 H 430.628 1.28982 0.986787 0
M  V30 4389 H 432.625 0.973666 4.05371 0
M  V30 4390 H 431.285 0.119223 3.24481 0
M  V30 4391 H 432.296 3.80677 3.51148 0
M  V30 4392 H 428.973 1.26855 3.97761 0
M  V30 4393 H 430.363 5.30767 4.1199 0
M  V30 4394 N 433.083 -1.0153 1.20538 0
M  V30 4395 C 434.046 -2.0826 0.957098 0
M  V30 4396 C 435.046 -1.60657 -0.0678655 0
M  V30 4397 O 436.236 -1.73385 0.168332 0
M  V30 4398 C 433.368 -3.38033 0.441188 0
M  V30 4399 H 434.561 -2.31719 1.90384 0
M  V30 4400 H 432.114 -1.1835 1.02093 0
M  V30 4401 H 432.849 -3.20249 -0.510961 0
M  V30 4402 H 432.634 -3.73911 1.18038 0
M  V30 4403 H 434.124 -4.16613 0.287009 0
M  V30 4404 N 434.561 -1.01147 -1.20859 0
M  V30 4405 C 435.809 -0.696486 -1.89719 0
M  V30 4406 C 436.13 0.775788 -1.78904 0
M  V30 4407 O 435.4 1.55759 -1.18811 0
M  V30 4408 H 433.98 -0.254628 -0.702263 0
M  V30 4409 H 436.642 -1.28197 -1.46804 0
M  V30 4410 H 435.738 -0.975357 -2.96468 0
M  V30 4411 N 436.039 1.36541 -0.78704 0
M  V30 4412 C 437.285 2.00044 -0.367938 0
M  V30 4413 C 437.64 1.61345 1.04812 0
M  V30 4414 O 436.933 0.856936 1.71368 0
M  V30 4415 C 437.127 3.54343 -0.466485 0
M  V30 4416 C 436.956 4.08029 -1.89058 0
M  V30 4417 C 435.726 4.38284 -2.51466 0
M  V30 4418 C 437.924 4.27954 -2.85236 0
M  V30 4419 N 435.906 4.77778 -3.85488 0
M  V30 4420 C 437.277 4.70227 -4.04088 0
M  V30 4421 C 439.332 4.10119 -2.82324 0
M  V30 4422 C 438.035 4.96532 -5.20432 0
M  V30 4423 C 440.061 4.37569 -3.97854 0
M  V30 4424 C 439.423 4.80095 -5.15449 0
M  V30 4425 H 435.522 0.760525 -0.182004 0
M  V30 4426 H 438.106 1.65589 -1.02413 0
M  V30 4427 H 436.277 3.88072 0.159606 0
M  V30 4428 H 438.009 4.04693 -0.0238577 0
M  V30 4429 H 434.764 4.27905 -2.02965 0
M  V30 4430 H 435.188 5.01813 -4.54437 0
M  V30 4431 H 439.83 3.76399 -1.92571 0
M  V30 4432 H 437.548 5.29134 -6.10773 0
M  V30 4433 H 441.134 4.25341 -3.96958 0
M  V30 4434 H 440.014 5.00925 -6.0336 0
M  V30 4435 N 437.518 0.538854 1.48102 0
M  V30 4436 C 438.481 -0.208395 2.28251 0
M  V30 4437 C 439.481 -0.859656 1.35892 0
M  V30 4438 O 440.671 -0.71834 1.58699 0
M  V30 4439 C 437.803 -1.30252 3.15035 0
M  V30 4440 H 438.996 0.495407 2.9578 0
M  V30 4441 H 436.549 0.295112 1.53489 0
M  V30 4442 H 437.284 -2.0393 2.52157 0
M  V30 4443 H 437.069 -0.840551 3.82985 0
M  V30 4444 H 438.559 -1.82787 3.75471 0
M  V30 4445 N 438.996 -1.55193 0.274407 0
M  V30 4446 C 440.243 -1.99581 -0.342579 0
M  V30 4447 C 440.571 -1.1628 -1.55914 0
M  V30 4448 O 439.826 -0.22029 -1.94456 0
M  V30 4449 C 440.125 -3.49019 -0.769458 0
M  V30 4450 C 439.791 -4.49598 0.342389 0
M  V30 4451 C 438.453 -4.76821 0.647686 0
M  V30 4452 C 440.805 -5.0964 1.09163 0
M  V30 4453 C 438.133 -5.61354 1.70581 0
M  V30 4454 C 440.485 -5.95323 2.13948 0
M  V30 4455 C 439.149 -6.20867 2.45113 0
M  V30 4456 H 438.419 -0.730319 -0.125358 0
M  V30 4457 H 441.066 -1.87529 0.387971 0
M  V30 4458 H 439.371 -3.58544 -1.57967 0
M  V30 4459 H 441.068 -3.8077 -1.25757 0
M  V30 4460 H 437.658 -4.28496 0.094318 0
M  V30 4461 H 441.842 -4.88632 0.869024 0
M  V30 4462 H 437.098 -5.79392 1.9523 0
M  V30 4463 H 441.272 -6.40881 2.72478 0
M  V30 4464 H 438.899 -6.86162 3.27239 0
M  V30 4465 N 440.474 -0.00167713 -1.576 0
M  V30 4466 C 441.424 0.997744 -2.0501 0
M  V30 4467 C 442.408 1.30214 -0.94515 0
M  V30 4468 O 443.6 1.29284 -1.20891 0
M  V30 4469 C 440.729 2.2892 -2.55833 0
M  V30 4470 C 439.815 2.01437 -3.73208 0
M  V30 4471 N 440.206 1.44119 -4.84833 0
M  V30 4472 C 438.504 2.31571 -3.8117 0
M  V30 4473 C 439.205 1.33145 -5.66257 0
M  V30 4474 N 438.181 1.81763 -5.12312 0
M  V30 4475 H 441.983 0.549098 -2.88725 0
M  V30 4476 H 439.497 0.20398 -1.61114 0
M  V30 4477 H 441.494 3.01361 -2.88075 0
M  V30 4478 H 440.154 2.74436 -1.73537 0
M  V30 4479 H 441.165 1.11978 -5.0565 0
M  V30 4480 H 437.842 2.7995 -3.09732 0
M  V30 4481 H 439.232 0.890567 -6.65972 0
M  V30 4482 N 441.952 1.55251 0.271103 0
M  V30 4483 C 443.229 1.66664 1.02384 0
M  V30 4484 C 443.609 0.534363 2.04225 0
M  V30 4485 O 442.957 -0.465337 2.23712 0
M  V30 4486 C 443.167 3.05961 1.67895 0
M  V30 4487 C 444.515 3.63772 2.18986 0
M  V30 4488 O 445.539 3.08606 1.77878 0
M  V30 4489 O 444.398 4.60429 2.94393 0
M  V30 4490 H 441.492 0.676957 0.475035 0
M  V30 4491 H 444.038 1.67589 0.26681 0
M  V30 4492 H 442.81 3.79815 0.941071 0
M  V30 4493 H 442.433 3.08943 2.5028 0
M  V30 4494 N 443.43 -0.535701 1.48216 0
M  V30 4495 C 444.377 -1.64083 1.62312 0
M  V30 4496 C 445.347 -1.59448 0.465365 0
M  V30 4497 O 446.532 -1.77959 0.688135 0
M  V30 4498 C 443.672 -3.0236 1.66349 0
M  V30 4499 C 442.785 -3.17273 2.93193 0
M  V30 4500 C 441.92 -4.46075 2.88427 0
M  V30 4501 C 440.959 -4.54496 4.1 0
M  V30 4502 N 440.096 -5.7468 4.03345 0
M  V30 4503 H 444.936 -1.51374 2.5669 0
M  V30 4504 H 442.473 -0.737059 1.27302 0
M  V30 4505 H 444.431 -3.82461 1.66672 0
M  V30 4506 H 443.061 -3.13854 0.754672 0
M  V30 4507 H 442.113 -2.30462 3.02641 0
M  V30 4508 H 443.425 -3.19357 3.83162 0
M  V30 4509 H 442.579 -5.3446 2.87119 0
M  V30 4510 H 441.318 -4.46504 1.96177 0
M  V30 4511 H 440.323 -3.64519 4.11589 0
M  V30 4512 H 441.548 -4.5581 5.03402 0
M  V30 4513 H 439.494 -5.76017 3.13912 0
M  V30 4514 H 439.411 -5.78234 4.87013 0
M  V30 4515 H 440.679 -6.65367 4.06087 0
M  V30 4516 N 444.908 -1.36708 -0.784132 0
M  V30 4517 C 445.818 -1.3363 -1.92822 0
M  V30 4518 C 446.834 -0.237686 -1.72369 0
M  V30 4519 O 448.01 -0.470962 -1.95816 0
M  V30 4520 C 445.075 -1.13011 -3.27764 0
M  V30 4521 C 444.136 -2.32397 -3.60957 0
M  V30 4522 C 443.369 -2.12752 -4.89461 0
M  V30 4523 O 443.592 -1.10541 -5.59586 0
M  V30 4524 O 442.526 -3.00653 -5.21432 0
M  V30 4525 H 446.352 -2.29964 -1.98369 0
M  V30 4526 H 443.937 -1.1731 -0.925136 0
M  V30 4527 H 445.819 -1.03451 -4.08504 0
M  V30 4528 H 444.494 -0.19743 -3.23097 0
M  V30 4529 H 443.401 -2.47527 -2.80502 0
M  V30 4530 H 444.734 -3.2419 -3.70354 0
M  V30 4531 N 446.386 1.0089 -1.21074 0
M  V30 4532 C 447.802 1.2695 -0.967257 0
M  V30 4533 C 448.002 1.9846 0.348673 0
M  V30 4534 O 447.058 2.28459 1.0753 0
M  V30 4535 C 448.371 2.09697 -2.15517 0
M  V30 4536 C 449.919 2.22937 -2.197 0
M  V30 4537 C 450.394 3.09064 -3.37999 0
M  V30 4538 N 451.885 3.16653 -3.38061 0
M  V30 4539 C 452.62 3.8354 -4.26245 0
M  V30 4540 N 452.116 4.52488 -5.2462 0
M  V30 4541 N 453.909 3.80141 -4.14064 0
M  V30 4542 H 446.06 0.529005 -2.05707 0
M  V30 4543 H 448.323 0.296148 -0.900556 0
M  V30 4544 H 448.029 1.64497 -3.10859 0
M  V30 4545 H 447.903 3.10444 -2.14253 0
M  V30 4546 H 450.29 2.67357 -1.24916 0
M  V30 4547 H 450.371 1.21673 -2.2501 0
M  V30 4548 H 450.015 2.65347 -4.33074 0
M  V30 4549 H 449.945 4.10433 -3.29928 0
M  V30 4550 H 452.436 2.67566 -2.66865 0
M  V30 4551 H 452.749 5.01219 -5.88217 0
M  V30 4552 H 451.094 4.51288 -5.28549 0
M  V30 4553 H 454.285 3.25427 -3.36474 0
M  V30 4554 H 454.458 4.31992 -4.82998 0
M  V30 4555 N 447.864 1.01787 1.20321 0
M  V30 4556 C 449.141 0.622978 1.85414 0
M  V30 4557 C 449.521 -0.898887 1.91006 0
M  V30 4558 O 448.869 -1.79112 1.41884 0
M  V30 4559 C 449.079 1.27226 3.24984 0
M  V30 4560 C 450.427 1.3885 4.01255 0
M  V30 4561 O 451.451 1.22857 3.34342 0
M  V30 4562 O 450.31 1.64705 5.2109 0
M  V30 4563 H 447.404 0.215116 0.798533 0
M  V30 4564 H 449.95 1.11533 1.27901 0
M  V30 4565 H 448.722 2.31209 3.15687 0
M  V30 4566 H 448.345 0.767069 3.90131 0
M  V30 4567 N 449.342 -1.36122 0.79427 0
M  V30 4568 C 450.274 -2.28683 0.153903 0
M  V30 4569 C 451.287 -1.49707 -0.639669 0
M  V30 4570 O 452.476 -1.7209 -0.474054 0
M  V30 4571 C 449.576 -3.29202 -0.804921 0
M  V30 4572 C 448.749 -4.37358 -0.060366 0
M  V30 4573 C 447.808 -5.17811 -0.935849 0
M  V30 4574 O 446.834 -5.67853 -0.391309 0
M  V30 4575 N 448.036 -5.34721 -2.25951 0
M  V30 4576 H 450.801 -2.84278 0.949008 0
M  V30 4577 H 448.362 -1.4834 0.648611 0
M  V30 4578 H 450.354 -3.79914 -1.39455 0
M  V30 4579 H 448.924 -2.74212 -1.50088 0
M  V30 4580 H 448.144 -3.87746 0.710382 0
M  V30 4581 H 449.432 -5.06777 0.45324 0
M  V30 4582 H 448.83 -4.95687 -2.72601 0
M  V30 4583 H 447.387 -5.88657 -2.79867 0
M  V30 4584 N 450.82 -0.546701 -1.47814 0
M  V30 4585 C 451.783 0.196287 -2.28358 0
M  V30 4586 C 452.783 0.852437 -1.36346 0
M  V30 4587 O 453.973 0.709913 -1.59078 0
M  V30 4588 C 451.105 1.28579 -3.15722 0
M  V30 4589 H 452.298 -0.511086 -2.95513 0
M  V30 4590 H 449.851 -0.303248 -1.5333 0
M  V30 4591 H 450.586 2.0259 -2.53235 0
M  V30 4592 H 450.371 0.820229 -3.83425 0
M  V30 4593 H 451.861 1.80793 -3.76435 0
M  V30 4594 N 452.299 1.55045 -0.282633 0
M  V30 4595 C 453.527 2.04168 0.33512 0
M  V30 4596 C 453.942 1.16071 1.48906 0
M  V30 4597 O 453.299 0.182391 1.81586 0
M  V30 4598 C 453.35 3.52332 0.808957 0
M  V30 4599 O 453.071 4.37078 -0.299038 0
M  V30 4600 C 454.572 4.17375 1.49375 0
M  V30 4601 H 451.792 0.666744 0.0754543 0
M  V30 4602 H 454.336 2.00205 -0.416918 0
M  V30 4603 H 452.491 3.56715 1.51106 0
M  V30 4604 H 452.905 5.24458 0.0665514 0
M  V30 4605 H 454.379 5.22627 1.77664 0
M  V30 4606 H 454.856 3.65999 2.42778 0
M  V30 4607 H 455.462 4.17016 0.835305 0
M  V30 4608 N 453.777 0.010035 1.57597 0
M  V30 4609 C 455.025 -0.671371 1.90623 0
M  V30 4610 C 455.346 -1.73753 0.885151 0
M  V30 4611 O 454.616 -1.95752 -0.0760611 0
M  V30 4612 H 453.196 -0.250968 0.703579 0
M  V30 4613 H 455.858 0.0533325 1.94827 0
M  V30 4614 H 454.954 -1.13626 2.90681 0
M  V30 4615 N 455.255 -1.55392 -0.262866 0
M  V30 4616 C 456.165 -1.92077 -1.34698 0
M  V30 4617 C 457.181 -0.819227 -1.53508 0
M  V30 4618 O 458.357 -1.11921 -1.67439 0
M  V30 4619 C 455.422 -2.19407 -2.68443 0
M  V30 4620 C 454.483 -3.42905 -2.58292 0
M  V30 4621 C 453.716 -3.68921 -3.85659 0
M  V30 4622 O 453.939 -2.97275 -4.8681 0
M  V30 4623 O 452.873 -4.62455 -3.85252 0
M  V30 4624 H 456.699 -2.84384 -1.06581 0
M  V30 4625 H 454.284 -1.42069 -0.462264 0
M  V30 4626 H 456.166 -2.38365 -3.47506 0
M  V30 4627 H 454.841 -1.30282 -2.96325 0
M  V30 4628 H 453.748 -3.29272 -1.7757 0
M  V30 4629 H 455.081 -4.32282 -2.35358 0
M  V30 4630 N 456.733 0.527833 -1.48498 0
M  V30 4631 C 457.979 1.28545 -1.56857 0
M  V30 4632 C 458.312 1.92678 -0.242651 0
M  V30 4633 O 457.587 1.79394 0.751545 0
M  V30 4634 C 457.87 2.37314 -2.70839 0
M  V30 4635 C 457.723 1.77858 -4.13142 0
M  V30 4636 C 459.042 3.39068 -2.80573 0
M  V30 4637 H 456.161 0.466006 -0.570971 0
M  V30 4638 H 458.803 0.587784 -1.8068 0
M  V30 4639 H 456.953 2.96821 -2.50658 0
M  V30 4640 H 458.625 1.22385 -4.44769 0
M  V30 4641 H 456.868 1.08383 -4.20042 0
M  V30 4642 H 457.539 2.56624 -4.88721 0
M  V30 4643 H 460.015 2.89518 -2.98862 0
M  V30 4644 H 458.891 4.12566 -3.6205 0
M  V30 4645 H 459.152 3.9975 -1.88818 0
M  V30 4646 N 458.211 1.37122 0.776871 0
M  V30 4647 C 459.121 1.34651 1.9211 0
M  V30 4648 C 460.137 0.246824 1.7224 0
M  V30 4649 O 461.313 0.48134 1.95563 0
M  V30 4650 C 458.378 1.14748 3.2716 0
M  V30 4651 C 457.439 2.34308 3.5972 0
M  V30 4652 C 456.672 2.15345 4.88326 0
M  V30 4653 O 456.895 1.13507 5.58992 0
M  V30 4654 O 455.829 3.03414 5.1983 0
M  V30 4655 H 459.655 2.31013 1.97146 0
M  V30 4656 H 457.24 1.17799 0.918901 0
M  V30 4657 H 459.122 1.05616 4.0795 0
M  V30 4658 H 457.797 0.214562 3.22988 0
M  V30 4659 H 456.704 2.49011 2.79185 0
M  V30 4660 H 458.037 3.26149 3.68629 0
M  V30 4661 N 459.689 -1.00246 1.21608 0
M  V30 4662 C 460.917 -1.77631 1.06089 0
M  V30 4663 C 461.332 -1.84746 -0.38916 0
M  V30 4664 O 460.689 -1.31068 -1.26994 0
M  V30 4665 C 460.74 -3.21415 1.65453 0
M  V30 4666 O 460.461 -3.14703 3.04785 0
M  V30 4667 C 461.962 -4.15289 1.55079 0
M  V30 4668 H 459.182 -0.558162 0.37242 0
M  V30 4669 H 461.726 -1.26093 1.60999 0
M  V30 4670 H 459.881 -3.70053 1.14629 0
M  V30 4671 H 460.295 -4.05056 3.33212 0
M  V30 4672 H 461.769 -5.13965 2.01355 0
M  V30 4673 H 462.246 -4.36279 0.505665 0
M  V30 4674 H 462.852 -3.72543 2.05163 0
M  V30 4675 N 461.167 -1.02423 -1.1978 0
M  V30 4676 C 462.392 -0.7373 -1.93852 0
M  V30 4677 C 462.817 0.696923 -1.74713 0
M  V30 4678 O 462.175 1.48056 -1.04638 0
M  V30 4679 C 462.223 -1.08783 -3.438 0
M  V30 4680 O 461.327 -0.20383 -4.11896 0
M  V30 4681 H 460.668 -0.27284 -0.605355 0
M  V30 4682 H 463.198 -1.36966 -1.51992 0
M  V30 4683 H 463.208 -1.04276 -3.9445 0
M  V30 4684 H 461.883 -2.13274 -3.57053 0
M  V30 4685 H 460.46 -0.307091 -3.71633 0
M  V30 4686 N 462.645 1.35699 -0.801477 0
M  V30 4687 C 463.87 2.03687 -0.390678 0
M  V30 4688 C 464.295 1.60015 0.988778 0
M  V30 4689 O 463.653 0.774357 1.63931 0
M  V30 4690 C 463.701 3.57439 -0.476404 0
M  V30 4691 O 462.805 4.09208 0.512106 0
M  V30 4692 H 462.146 0.64344 -0.163956 0
M  V30 4693 H 464.676 1.73403 -1.08594 0
M  V30 4694 H 464.686 4.06544 -0.344357 0
M  V30 4695 H 463.361 3.88576 -1.48262 0
M  V30 4696 H 461.938 3.7134 0.340721 0
M  V30 4697 N 464.123 0.554532 1.47522 0
M  V30 4698 C 465.37 0.029479 2.02479 0
M  V30 4699 C 465.698 -1.31929 1.42916 0
M  V30 4700 O 464.953 -1.87112 0.573385 0
M  V30 4701 C 465.252 -0.115927 3.57212 0
M  V30 4702 C 464.918 1.16161 4.3568 0
M  V30 4703 C 463.58 1.51168 4.56839 0
M  V30 4704 C 465.932 2.0083 4.80954 0
M  V30 4705 C 463.26 2.70696 5.2052 0
M  V30 4706 C 465.612 3.19559 5.45953 0
M  V30 4707 C 464.276 3.54882 5.65345 0
M  V30 4708 H 463.546 0.0107871 0.740921 0
M  V30 4709 H 466.193 0.725506 1.77225 0
M  V30 4710 H 464.498 -0.894902 3.81443 0
M  V30 4711 H 466.195 -0.53749 3.97381 0
M  V30 4712 H 462.785 0.879026 4.19489 0
M  V30 4713 H 466.969 1.75093 4.64388 0
M  V30 4714 H 462.225 2.98236 5.33728 0
M  V30 4715 H 466.399 3.85456 5.79997 0
M  V30 4716 H 464.026 4.47596 6.1446 0
M  V30 4717 N 465.601 -1.54893 0.290851 0
M  V30 4718 C 466.848 -1.99933 -0.321391 0
M  V30 4719 C 467.176 -1.17927 -1.54672 0
M  V30 4720 O 466.431 -0.240902 -1.94212 0
M  V30 4721 C 466.73 -3.49815 -0.732397 0
M  V30 4722 C 466.396 -4.4921 0.390056 0
M  V30 4723 C 465.058 -4.76107 0.698223 0
M  V30 4724 C 467.41 -5.08453 1.14562 0
M  V30 4725 C 464.738 -5.59514 1.76526 0
M  V30 4726 C 467.09 -5.9302 2.2025 0
M  V30 4727 C 465.754 -6.18232 2.51684 0
M  V30 4728 H 465.024 -0.731608 -0.117605 0
M  V30 4729 H 467.671 -1.87107 0.407839 0
M  V30 4730 H 465.976 -3.60199 -1.54155 0
M  V30 4731 H 467.673 -3.82083 -1.21712 0
M  V30 4732 H 464.263 -4.28372 0.13976 0
M  V30 4733 H 468.447 -4.87683 0.920801 0
M  V30 4734 H 463.703 -5.77289 2.01364 0
M  V30 4735 H 467.877 -6.37955 2.7926 0
M  V30 4736 H 465.504 -6.82653 3.34499 0
M  V30 4737 N 467.08 -0.0183926 -1.57589 0
M  V30 4738 C 468.326 0.657813 -1.92469 0
M  V30 4739 C 468.681 1.70349 -0.894375 0
M  V30 4740 O 467.974 1.91384 0.0910389 0
M  V30 4741 C 468.168 1.32676 -3.31861 0
M  V30 4742 C 467.997 0.347403 -4.48356 0
M  V30 4743 C 466.767 -0.0488653 -5.05276 0
M  V30 4744 C 468.965 -0.393931 -5.12789 0
M  V30 4745 N 466.947 -1.02451 -6.05291 0
M  V30 4746 C 468.318 -1.22367 -6.07804 0
M  V30 4747 C 470.373 -0.455789 -4.95809 0
M  V30 4748 C 469.076 -2.10966 -6.87667 0
M  V30 4749 C 471.102 -1.32908 -5.76272 0
M  V30 4750 C 470.464 -2.14662 -6.70894 0
M  V30 4751 H 466.563 0.21335 -0.752334 0
M  V30 4752 H 469.147 -0.0830547 -1.94523 0
M  V30 4753 H 467.318 2.03782 -3.30647 0
M  V30 4754 H 469.05 1.95913 -3.54119 0
M  V30 4755 H 465.805 0.323356 -4.72495 0
M  V30 4756 H 466.229 -1.50826 -6.59985 0
M  V30 4757 H 470.871 0.162017 -4.22489 0
M  V30 4758 H 468.589 -2.73807 -7.603 0
M  V30 4759 H 472.175 -1.38109 -5.6517 0
M  V30 4760 H 471.055 -2.81143 -7.32071 0
M  V30 4761 N 468.558 1.5553 0.254621 0
M  V30 4762 C 469.521 1.88872 1.29846 0
M  V30 4763 C 470.521 0.764591 1.41459 0
M  V30 4764 O 471.711 1.03265 1.40293 0
M  V30 4765 C 468.843 2.11032 2.67728 0
M  V30 4766 H 470.036 2.82201 1.01502 0
M  V30 4767 H 467.589 1.48303 0.493556 0
M  V30 4768 H 468.324 1.20146 3.01223 0
M  V30 4769 H 468.109 2.92895 2.60682 0
M  V30 4770 H 469.599 2.38038 3.43115 0
M  V30 4771 N 470.036 -0.519951 1.48776 0
M  V30 4772 C 471.313 -1.28123 1.47797 0
M  V30 4773 C 471.693 -2.10196 0.195157 0
M  V30 4774 O 471.041 -2.13167 -0.822925 0
M  V30 4775 C 471.251 -2.15413 2.74587 0
M  V30 4776 C 472.599 -2.75225 3.23321 0
M  V30 4777 O 473.623 -2.25694 2.75574 0
M  V30 4778 O 472.482 -3.65346 4.06429 0
M  V30 4779 H 469.576 -0.578793 0.590701 0
M  V30 4780 H 472.122 -0.535779 1.6102 0
M  V30 4781 H 470.894 -1.54617 3.59457 0
M  V30 4782 H 470.517 -2.97186 2.64132 0
M  V30 4783 N 471.514 -1.37532 -0.769588 0
M  V30 4784 C 472.762 -1.32597 -1.5252 0
M  V30 4785 C 473.083 0.0884294 -1.94799 0
M  V30 4786 O 472.353 1.03289 -1.66458 0
M  V30 4787 H 470.933 -0.487846 -0.565699 0
M  V30 4788 H 473.595 -1.72044 -0.915806 0
M  V30 4789 H 472.691 -1.96643 -2.42359 0
M  V30 4790 N 472.992 0.995999 -1.22138 0
M  V30 4791 C 474.217 1.77601 -1.0711 0
M  V30 4792 C 474.642 1.84339 0.374264 0
M  V30 4793 O 474 1.29359 1.27028 0
M  V30 4794 C 474.048 3.18897 -1.68336 0
M  V30 4795 O 473.152 4.01663 -0.934928 0
M  V30 4796 H 472.493 0.547011 -0.376397 0
M  V30 4797 H 475.023 1.25137 -1.6187 0
M  V30 4798 H 475.033 3.69539 -1.72931 0
M  V30 4799 H 473.708 3.13308 -2.73516 0
M  V30 4800 H 472.285 3.60204 -0.964751 0
M  V30 4801 N 474.47 1.03057 1.19235 0
M  V30 4802 C 475.4 0.633497 2.24742 0
M  V30 4803 C 476.381 -0.358335 1.66283 0
M  V30 4804 O 477.566 -0.240676 1.92703 0
M  V30 4805 C 474.696 -0.0147648 3.47297 0
M  V30 4806 C 473.65 0.899527 4.18441 0
M  V30 4807 C 472.976 0.116281 5.34574 0
M  V30 4808 C 474.276 2.21404 4.73051 0
M  V30 4809 H 475.97 1.5155 2.58211 0
M  V30 4810 H 473.516 0.73014 1.24117 0
M  V30 4811 H 475.469 -0.304202 4.20301 0
M  V30 4812 H 474.193 -0.931577 3.13032 0
M  V30 4813 H 472.852 1.17319 3.47321 0
M  V30 4814 H 472.5 -0.802619 4.96555 0
M  V30 4815 H 472.2 0.725293 5.83107 0
M  V30 4816 H 473.724 -0.166376 6.10373 0
M  V30 4817 H 475.138 1.98601 5.37802 0
M  V30 4818 H 473.535 2.77512 5.32078 0
M  V30 4819 H 474.605 2.86752 3.91026 0
M  V30 4820 N 475.948 -1.35272 0.808662 0
M  V30 4821 C 476.895 -2.29764 0.218482 0
M  V30 4822 C 477.865 -1.52911 -0.648652 0
M  V30 4823 O 479.05 -1.81341 -0.593297 0
M  V30 4824 C 476.19 -3.39388 -0.625282 0
M  V30 4825 C 475.303 -4.31202 0.262516 0
M  V30 4826 C 474.438 -5.27919 -0.589451 0
M  V30 4827 C 473.477 -6.11371 0.298617 0
M  V30 4828 N 472.614 -7.0022 -0.513443 0
M  V30 4829 H 477.454 -2.79645 1.02968 0
M  V30 4830 H 474.991 -1.37629 0.519303 0
M  V30 4831 H 476.949 -4.01615 -1.12966 0
M  V30 4832 H 475.579 -2.90777 -1.40173 0
M  V30 4833 H 474.631 -3.69962 0.885013 0
M  V30 4834 H 475.943 -4.89748 0.945971 0
M  V30 4835 H 475.097 -5.95529 -1.15888 0
M  V30 4836 H 473.836 -4.69875 -1.30647 0
M  V30 4837 H 472.841 -5.42707 0.880301 0
M  V30 4838 H 474.066 -6.71494 1.01352 0
M  V30 4839 H 472.012 -6.44662 -1.21439 0
M  V30 4840 H 471.929 -7.55917 0.111922 0
M  V30 4841 H 473.197 -7.72175 -1.06608 0
M  V30 4842 N 477.426 -0.562348 -1.47226 0
M  V30 4843 C 478.336 0.185466 -2.33866 0
M  V30 4844 C 479.352 0.906713 -1.48508 0
M  V30 4845 O 480.528 0.874458 -1.81425 0
M  V30 4846 C 477.593 1.19904 -3.25306 0
M  V30 4847 C 476.654 0.484669 -4.26555 0
M  V30 4848 C 475.887 1.44996 -5.13626 0
M  V30 4849 O 476.11 2.68515 -5.03245 0
M  V30 4850 O 475.044 0.971642 -5.94006 0
M  V30 4851 H 478.87 -0.525361 -2.99121 0
M  V30 4852 H 476.455 -0.322916 -1.45868 0
M  V30 4853 H 478.337 1.78399 -3.81774 0
M  V30 4854 H 477.012 1.8917 -2.62672 0
M  V30 4855 H 475.919 -0.141605 -3.73832 0
M  V30 4856 H 477.252 -0.166634 -4.91918 0
M  V30 4857 N 478.904 1.54736 -0.299062 0
M  V30 4858 C 480.129 2.04975 0.316254 0
M  V30 4859 C 480.554 1.17501 1.46885 0
M  V30 4860 O 479.912 0.178678 1.80417 0
M  V30 4861 C 479.96 3.52672 0.751997 0
M  V30 4862 O 479.064 3.68226 1.85697 0
M  V30 4863 H 478.405 0.661126 0.0617175 0
M  V30 4864 H 480.935 1.99805 -0.440341 0
M  V30 4865 H 480.945 3.94488 1.04133 0
M  V30 4866 H 479.62 4.158 -0.0911482 0
M  V30 4867 H 478.197 3.38316 1.56834 0
M  V30 4868 N 480.382 0.0267497 1.57577 0
M  V30 4869 C 481.63 -0.651116 1.91324 0
M  V30 4870 C 481.951 -1.72804 0.90353 0
M  V30 4871 O 481.221 -1.95822 -0.0552946 0
M  V30 4872 H 479.801 -0.243491 0.706202 0
M  V30 4873 H 482.463 0.0739935 1.94759 0
M  V30 4874 H 481.559 -1.10536 2.9187 0
M  V30 4875 N 481.861 -1.55662 -0.24637 0
M  V30 4876 C 483.277 -1.48098 -0.594907 0
M  V30 4877 C 483.477 -0.717044 -1.8831 0
M  V30 4878 O 482.533 -0.246618 -2.51293 0
M  V30 4879 C 483.846 -2.92507 -0.697146 0
M  V30 4880 C 485.394 -3.02881 -0.789436 0
M  V30 4881 C 485.869 -4.48598 -0.923232 0
M  V30 4882 N 487.36 -4.52538 -0.988088 0
M  V30 4883 C 488.095 -5.62536 -1.11089 0
M  V30 4884 N 487.591 -6.82342 -1.19919 0
M  V30 4885 N 489.384 -5.50334 -1.14408 0
M  V30 4886 H 481.535 -2.0377 0.599278 0
M  V30 4887 H 483.798 -0.925145 0.20691 0
M  V30 4888 H 483.504 -3.51242 0.179396 0
M  V30 4889 H 483.378 -3.43024 -1.5689 0
M  V30 4890 H 485.765 -2.44226 -1.65643 0
M  V30 4891 H 485.846 -2.55574 0.107482 0
M  V30 4892 H 485.49 -5.07864 -0.0607927 0
M  V30 4893 H 485.42 -4.93587 -1.8352 0
M  V30 4894 H 487.911 -3.66248 -0.931167 0
M  V30 4895 H 488.224 -7.61924 -1.29197 0
M  V30 4896 H 486.569 -6.85102 -1.16876 0
M  V30 4897 H 489.76 -4.5567 -1.07158 0
M  V30 4898 H 489.933 -6.36096 -1.23634 0
M  V30 4899 N 483.339 0.512053 -1.4905 0
M  V30 4900 C 484.586 1.26686 -1.57978 0
M  V30 4901 C 484.914 1.92733 -0.261553 0
M  V30 4902 O 484.169 1.80772 0.749667 0
M  V30 4903 C 484.468 2.36446 -2.68008 0
M  V30 4904 C 484.134 1.87932 -4.09869 0
M  V30 4905 C 482.796 1.74419 -4.48477 0
M  V30 4906 C 485.148 1.5149 -4.98698 0
M  V30 4907 C 482.476 1.22827 -5.73699 0
M  V30 4908 C 484.828 1.01355 -6.24428 0
M  V30 4909 C 483.492 0.864735 -6.61875 0
M  V30 4910 H 482.762 0.463577 -0.578081 0
M  V30 4911 H 485.409 0.569421 -1.82838 0
M  V30 4912 H 483.714 3.11933 -2.37076 0
M  V30 4913 H 485.411 2.9453 -2.72127 0
M  V30 4914 H 482.001 1.99405 -3.79389 0
M  V30 4915 H 486.185 1.60782 -4.69535 0
M  V30 4916 H 481.441 1.10008 -6.01422 0
M  V30 4917 H 485.615 0.722351 -6.92644 0
M  V30 4918 H 483.242 0.462777 -7.5879 0
M  V30 4919 N 484.817 1.37938 0.762283 0
M  V30 4920 C 486.063 1.33866 1.52341 0
M  V30 4921 C 486.396 -0.0738961 1.94059 0
M  V30 4922 O 485.671 -1.03326 1.64785 0
M  V30 4923 C 485.954 2.28644 2.78197 0
M  V30 4924 C 485.807 3.78722 2.42672 0
M  V30 4925 C 487.126 2.21702 3.80179 0
M  V30 4926 H 484.245 0.487593 0.55265 0
M  V30 4927 H 486.887 1.68717 0.873767 0
M  V30 4928 H 485.037 1.99055 3.33631 0
M  V30 4929 H 486.709 4.18948 1.93081 0
M  V30 4930 H 484.952 3.96827 1.75244 0
M  V30 4931 H 485.623 4.40486 3.3268 0
M  V30 4932 H 488.099 2.47805 3.34263 0
M  V30 4933 H 486.975 2.90143 4.65949 0
M  V30 4934 H 487.236 1.21301 4.25133 0
M  V30 4935 N 486.295 -0.989507 1.22664 0
M  V30 4936 C 487.242 -2.08024 0.999733 0
M  V30 4937 C 488.212 -1.65909 -0.0797047 0
M  V30 4938 O 489.397 -1.90669 0.0705715 0
M  V30 4939 C 486.537 -3.40067 0.587234 0
M  V30 4940 C 485.65 -3.95505 1.73781 0
M  V30 4941 C 484.785 -5.15722 1.27297 0
M  V30 4942 C 483.824 -5.63305 2.39488 0
M  V30 4943 N 482.961 -6.74758 1.94026 0
M  V30 4944 H 487.801 -2.26768 1.9334 0
M  V30 4945 H 485.338 -1.11171 0.963297 0
M  V30 4946 H 487.296 -4.15899 0.329227 0
M  V30 4947 H 485.926 -3.21314 -0.309426 0
M  V30 4948 H 484.978 -3.16513 2.11006 0
M  V30 4949 H 486.29 -4.26797 2.58158 0
M  V30 4950 H 485.444 -5.98854 0.972546 0
M  V30 4951 H 484.183 -4.86061 0.399445 0
M  V30 4952 H 483.188 -4.78759 2.70315 0
M  V30 4953 H 484.413 -5.94988 3.27362 0
M  V30 4954 H 482.359 -6.46874 1.09041 0
M  V30 4955 H 482.276 -7.05386 2.71968 0
M  V30 4956 H 483.544 -7.61387 1.67062 0
M  V30 4957 N 487.773 -1.03688 -1.18687 0
M  V30 4958 C 488.683 -0.634908 -2.25845 0
M  V30 4959 C 489.699 0.337065 -1.70704 0
M  V30 4960 O 490.875 0.192943 -2.00474 0
M  V30 4961 C 487.94 -0.000180054 -3.467 0
M  V30 4962 C 487.001 -1.02067 -4.1699 0
M  V30 4963 C 486.234 -0.41614 -5.32075 0
M  V30 4964 O 486.457 0.778712 -5.65059 0
M  V30 4965 O 485.391 -1.14296 -5.90948 0
M  V30 4966 H 489.217 -1.52757 -2.62486 0
M  V30 4967 H 486.802 -0.807533 -1.25695 0
M  V30 4968 H 488.684 0.353342 -4.19916 0
M  V30 4969 H 487.359 0.866367 -3.11891 0
M  V30 4970 H 486.266 -1.42592 -3.45859 0
M  V30 4971 H 487.599 -1.85786 -4.5579 0
M  V30 4972 N 489.251 1.34841 -0.815825 0
M  V30 4973 C 490.5 1.97755 -0.396976 0
M  V30 4974 C 490.813 1.65422 1.04379 0
M  V30 4975 O 492.019 2.21771 1.5662 0
M  V30 4976 C 490.475 3.53818 -0.658869 0
M  V30 4977 C 490.083 3.95051 -2.11278 0
M  V30 4978 C 491.827 4.23397 -0.305834 0
M  V30 4979 C 489.734 5.43997 -2.31994 0
M  V30 4980 H 488.664 0.739985 -0.1447 0
M  V30 4981 H 491.315 1.53781 -1.00118 0
M  V30 4982 H 489.697 3.95997 0.0154112 0
M  V30 4983 H 490.871 3.63998 -2.82564 0
M  V30 4984 H 489.186 3.38388 -2.42657 0
M  V30 4985 H 491.783 5.32899 -0.43854 0
M  V30 4986 H 492.126 4.09508 0.748952 0
M  V30 4987 H 492.659 3.8667 -0.934403 0
M  V30 4988 H 489.398 5.62865 -3.35952 0
M  V30 4989 H 488.918 5.76589 -1.65244 0
M  V30 4990 H 490.597 6.10584 -2.14001 0
M  V30 4991 N 490.729 0.570148 1.46925 0
M  V30 4992 C 491.659 -0.158274 2.32963 0
M  V30 4993 C 492.64 -0.896093 1.44583 0
M  V30 4994 O 493.825 -0.874022 1.7342 0
M  V30 4995 C 490.955 -1.18055 3.26619 0
M  V30 4996 C 489.909 -0.558379 4.24342 0
M  V30 4997 C 489.235 -1.68623 5.07415 0
M  V30 4998 C 490.535 0.496295 5.19937 0
M  V30 4999 H 492.229 0.560046 2.94115 0
M  V30 5000 H 489.775 0.270775 1.41431 0
M  V30 5001 H 491.728 -1.69841 3.85658 0
M  V30 5002 H 490.452 -1.92899 2.63548 0
M  V30 5003 H 489.111 -0.0617157 3.66548 0
M  V30 5004 H 488.759 -2.42402 4.40738 0
M  V30 5005 H 488.459 -1.27564 5.73586 0
M  V30 5006 H 489.983 -2.20709 5.69315 0
M  V30 5007 H 491.397 0.0640052 5.73264 0
M  V30 5008 H 489.794 0.82649 5.94381 0
M  V30 5009 H 490.864 1.38735 4.6463 0
M  V30 5010 N 492.207 -1.54576 0.307264 0
M  V30 5011 C 493.17 -2.22423 -0.553224 0
M  V30 5012 C 494.17 -1.21231 -1.05639 0
M  V30 5013 O 495.36 -1.45923 -0.951419 0
M  V30 5014 C 492.492 -2.91552 -1.76664 0
M  V30 5015 H 493.685 -2.99874 0.0396484 0
M  V30 5016 H 491.238 -1.56192 0.0581629 0
M  V30 5017 H 491.973 -2.18196 -2.39918 0
M  V30 5018 H 491.758 -3.65738 -1.41343 0
M  V30 5019 H 493.248 -3.43292 -2.37783 0
M  V30 5020 N 493.685 -0.035106 -1.57561 0
M  V30 5021 C 494.933 0.64096 -1.91667 0
M  V30 5022 C 495.254 1.72323 -0.912681 0
M  V30 5023 O 494.524 1.95849 0.0449089 0
M  V30 5024 H 493.104 0.239743 -0.707483 0
M  V30 5025 H 495.766 -0.084321 -1.94718 0
M  V30 5026 H 494.862 1.08987 -2.92452 0
M  V30 5027 N 495.163 1.55791 0.238111 0
M  V30 5028 C 496.579 1.48411 0.587045 0
M  V30 5029 C 496.779 0.72702 1.87927 0
M  V30 5030 O 495.835 0.259942 2.51158 0
M  V30 5031 C 497.148 2.92873 0.681623 0
M  V30 5032 C 498.696 3.03295 0.773363 0
M  V30 5033 C 499.171 4.49082 0.899428 0
M  V30 5034 N 500.662 4.53056 0.964075 0
M  V30 5035 C 501.397 5.63117 1.08104 0
M  V30 5036 N 500.893 6.82969 1.16299 0
M  V30 5037 N 502.686 5.50933 1.11488 0
M  V30 5038 H 494.837 2.0345 -0.610076 0
M  V30 5039 H 497.1 0.924034 -0.211813 0
M  V30 5040 H 496.806 3.51142 -0.19802 0
M  V30 5041 H 496.68 3.43851 1.55069 0
M  V30 5042 H 499.067 2.45101 1.64346 0
M  V30 5043 H 499.148 2.55513 -0.121034 0
M  V30 5044 H 498.792 5.07889 0.0338586 0
M  V30 5045 H 498.722 4.94553 1.809 0
M  V30 5046 H 501.213 3.66737 0.91173 0
M  V30 5047 H 501.526 7.62598 1.25155 0
M  V30 5048 H 499.871 6.85712 1.13241 0
M  V30 5049 H 503.062 4.56231 1.0474 0
M  V30 5050 H 503.235 6.36743 1.20259 0
M  V30 5051 N 496.642 -0.504142 1.49319 0
M  V30 5052 C 497.589 -1.60603 1.65756 0
M  V30 5053 C 498.559 -1.58425 0.499082 0
M  V30 5054 O 499.744 -1.76459 0.725728 0
M  V30 5055 C 496.884 -2.98764 1.72726 0
M  V30 5056 C 495.997 -3.10982 2.99857 0
M  V30 5057 C 495.132 -4.39857 2.97824 0
M  V30 5058 C 494.171 -4.45697 4.19548 0
M  V30 5059 N 493.308 -5.65995 4.15444 0
M  V30 5060 H 498.148 -1.45895 2.59843 0
M  V30 5061 H 495.685 -0.709891 1.28837 0
M  V30 5062 H 497.643 -3.78839 1.74747 0
M  V30 5063 H 496.273 -3.12183 0.821075 0
M  V30 5064 H 495.325 -2.23991 3.07461 0
M  V30 5065 H 496.637 -3.11157 3.89849 0
M  V30 5066 H 495.791 -5.2825 2.98391 0
M  V30 5067 H 494.53 -4.42242 2.05604 0
M  V30 5068 H 493.535 -3.55707 4.19229 0
M  V30 5069 H 494.76 -4.4503 5.12957 0
M  V30 5070 H 492.706 -5.69229 3.26059 0
M  V30 5071 H 492.623 -5.67773 4.99169 0
M  V30 5072 H 493.891 -6.56604 4.20109 0
M  V30 5073 N 498.12 -1.38341 -0.754957 0
M  V30 5074 C 499.531 -1.30803 -1.3322 0
M  V30 5075 C 499.882 0.0368 -1.96165 0
M  V30 5076 O 499.007 0.938844 -1.94974 0
M  V30 5077 C 499.602 -2.3688 -2.42225 0
M  V30 5078 C 498.161 -2.32925 -2.95674 0
M  V30 5079 C 497.308 -2.19819 -1.69042 0
M  V30 5080 H 500.259 -1.48719 -0.553937 0
M  V30 5081 H 500.28 -2.02517 -3.22129 0
M  V30 5082 H 499.792 -3.34747 -1.96383 0
M  V30 5083 H 497.893 -1.38635 -3.45848 0
M  V30 5084 H 498.006 -3.27008 -3.50146 0
M  V30 5085 H 496.37 -1.66648 -1.92615 0
M  V30 5086 H 497.153 -3.19625 -1.25279 0
M  V30 5087 N 499.598 0.982988 -1.23187 0
M  V30 5088 C 500.847 1.71817 -1.05649 0
M  V30 5089 C 501.16 1.91315 0.407176 0
M  V30 5090 O 502.366 2.62256 0.702436 0
M  V30 5091 C 500.822 3.09188 -1.84203 0
M  V30 5092 C 500.43 2.97586 -3.34882 0
M  V30 5093 C 502.174 3.86684 -1.75146 0
M  V30 5094 C 500.081 4.30173 -4.05839 0
M  V30 5095 H 499.011 0.644258 -0.391724 0
M  V30 5096 H 501.662 1.09659 -1.4713 0
M  V30 5097 H 500.044 3.72087 -1.35527 0
M  V30 5098 H 501.218 2.43793 -3.91026 0
M  V30 5099 H 499.533 2.33567 -3.44725 0
M  V30 5100 H 502.13 4.84836 -2.25473 0
M  V30 5101 H 502.473 4.10136 -0.713737 0
M  V30 5102 H 503.006 3.30482 -2.21419 0
M  V30 5103 H 499.745 4.11918 -5.09906 0
M  V30 5104 H 499.265 4.83841 -3.54482 0
M  V30 5105 H 500.944 4.98873 -4.11989 0
M  V30 5106 N 501.076 1.04316 1.18135 0
M  V30 5107 C 502.353 0.662166 1.84051 0
M  V30 5108 C 502.733 -0.858169 1.9287 0
M  V30 5109 O 502.081 -1.76062 1.45652 0
M  V30 5110 C 502.291 1.3409 3.22212 0
M  V30 5111 C 503.639 1.4733 3.9822 0
M  V30 5112 O 504.663 1.29921 3.31661 0
M  V30 5113 O 503.522 1.75722 5.17479 0
M  V30 5114 H 500.616 0.232005 0.79379 0
M  V30 5115 H 503.162 1.1422 1.25506 0
M  V30 5116 H 501.934 2.37853 3.10711 0
M  V30 5117 H 501.557 0.849649 3.88416 0
M  V30 5118 N 502.554 -1.34406 0.822964 0
M  V30 5119 C 503.802 -1.97892 0.410245 0
M  V30 5120 C 504.123 -1.65567 -1.03017 0
M  V30 5121 O 503.393 -0.94642 -1.71522 0
M  V30 5122 H 501.973 -0.732049 0.148707 0
M  V30 5123 H 504.635 -1.64043 1.05242 0
M  V30 5124 H 503.731 -3.07579 0.529284 0
M  V30 5125 N 504.032 -0.577932 -1.46621 0
M  V30 5126 C 505.28 -0.061566 -2.02006 0
M  V30 5127 C 505.601 1.30117 -1.4524 0
M  V30 5128 O 504.871 1.85313 -0.63529 0
M  V30 5129 H 503.451 -0.0197692 -0.746738 0
M  V30 5130 H 506.113 -0.752631 -1.79782 0
M  V30 5131 H 505.209 0.0110238 -3.12098 0
M  V30 5132 N 505.51 1.54411 -0.315457 0
M  V30 5133 C 506.758 2.00023 0.288971 0
M  V30 5134 C 507.079 1.20529 1.5329 0
M  V30 5135 O 506.349 0.304986 1.93511 0
M  V30 5136 H 504.929 0.738891 0.109766 0
M  V30 5137 H 507.591 1.90094 -0.430129 0
M  V30 5138 H 506.687 3.07198 0.550999 0
M  V30 5139 N 506.988 0.0434614 1.5754 0
M  V30 5140 C 508.236 -0.630786 1.92004 0
M  V30 5141 C 508.557 -1.71836 0.921807 0
M  V30 5142 O 507.827 -1.9587 -0.034522 0
M  V30 5143 H 506.407 -0.235988 0.708745 0
M  V30 5144 H 509.069 0.0946462 1.9467 0
M  V30 5145 H 508.165 -1.07434 2.93026 0
M  V30 5146 N 508.466 -1.55915 -0.229846 0
M  V30 5147 C 509.743 -1.6932 -0.979295 0
M  V30 5148 C 510.123 -0.588321 -2.02736 0
M  V30 5149 O 509.471 0.40586 -2.24867 0
M  V30 5150 C 509.681 -3.10305 -1.59724 0
M  V30 5151 C 511.029 -3.6945 -2.09264 0
M  V30 5152 O 512.053 -3.13214 -1.69633 0
M  V30 5153 O 510.912 -4.68072 -2.82082 0
M  V30 5154 H 508.006 -0.689314 -0.456919 0
M  V30 5155 H 510.552 -1.68238 -0.222283 0
M  V30 5156 H 509.324 -3.82177 -0.840039 0
M  V30 5157 H 508.947 -3.1547 -2.42001 0
M  V30 5158 N 509.944 0.496216 -1.49584 0
M  V30 5159 C 511.192 1.24756 -1.58998 0
M  V30 5160 C 511.513 1.92968 -0.280775 0
M  V30 5161 O 510.783 1.82959 0.700198 0
M  V30 5162 H 509.363 0.463471 -0.585836 0
M  V30 5163 H 512.025 0.574678 -1.86235 0
M  V30 5164 H 511.121 2.00895 -2.38847 0
M  V30 5165 N 511.423 1.38739 0.74761 0
M  V30 5166 C 512.671 1.35007 1.50391 0
M  V30 5167 C 512.992 -0.0574274 1.94915 0
M  V30 5168 O 512.262 -1.00628 1.6808 0
M  V30 5169 H 510.842 0.496784 0.557866 0
M  V30 5170 H 513.504 1.73479 0.888319 0
M  V30 5171 H 512.6 2.00474 2.392 0
M  V30 5172 N 512.901 -0.976442 1.23707 0
M  V30 5173 C 514.149 -1.71487 1.06942 0
M  V30 5174 C 514.47 -1.9098 -0.393897 0
M  V30 5175 O 513.74 -1.48128 -1.28198 0
M  V30 5176 H 512.32 -0.635425 0.392739 0
M  V30 5177 H 514.982 -1.17515 1.55487 0
M  V30 5178 H 514.078 -2.70286 1.56051 0
M  V30 5179 N 514.379 -1.04941 -1.1758 0
M  V30 5180 C 515.656 -0.671918 -1.83697 0
M  V30 5181 C 516.036 0.847929 -1.93322 0
M  V30 5182 O 515.384 1.75287 -1.46583 0
M  V30 5183 C 515.594 -1.35797 -3.21497 0
M  V30 5184 C 516.942 -1.4944 -3.97433 0
M  V30 5185 O 517.966 -1.31678 -3.30967 0
M  V30 5186 O 516.825 -1.78463 -5.1654 0
M  V30 5187 H 513.919 -0.236212 -0.792548 0
M  V30 5188 H 516.465 -1.14884 -1.24899 0
M  V30 5189 H 515.237 -2.39498 -3.09446 0
M  V30 5190 H 514.86 -0.870236 -3.8796 0
M  V30 5191 N 515.857 1.33968 -0.830081 0
M  V30 5192 C 517.105 1.97672 -0.420734 0
M  V30 5193 C 517.426 1.66111 1.02138 0
M  V30 5194 O 516.696 0.955503 1.71017 0
M  V30 5195 H 515.276 0.73125 -0.152587 0
M  V30 5196 H 517.938 1.63483 -1.0611 0
M  V30 5197 H 517.034 3.07294 -0.545588 0
M  V30 5198 N 517.335 0.585699 1.46312 0
M  V30 5199 C 518.56 0.0762461 2.0726 0
M  V30 5200 C 518.985 -1.22071 1.43109 0
M  V30 5201 O 518.343 -1.73804 0.515942 0
M  V30 5202 C 518.391 -0.0729404 3.60526 0
M  V30 5203 O 517.495 -1.1287 3.96654 0
M  V30 5204 H 516.836 0.0641558 0.660893 0
M  V30 5205 H 519.366 0.809492 1.87905 0
M  V30 5206 H 519.376 -0.278158 4.07051 0
M  V30 5207 H 518.051 0.874188 4.06609 0
M  V30 5208 H 516.628 -0.901703 3.61834 0
M  V30 5209 N 518.813 -1.54241 0.323641 0
M  V30 5210 C 520.061 -2.00174 -0.278359 0
M  V30 5211 C 520.382 -1.2134 -1.52648 0
M  V30 5212 O 519.652 -0.315244 -1.93347 0
M  V30 5213 H 518.232 -0.739463 -0.105845 0
M  V30 5214 H 520.894 -1.89864 0.440204 0
M  V30 5215 H 519.99 -3.07486 -0.5347 0
M  V30 5216 N 520.291 -0.0518155 -1.57515 0
M  V30 5217 C 521.539 0.620595 -1.92336 0
M  V30 5218 C 521.86 1.71345 -0.930907 0
M  V30 5219 O 521.13 1.95885 0.0241341 0
M  V30 5220 H 519.71 0.232226 -0.709986 0
M  V30 5221 H 522.372 -0.104969 -1.94617 0
M  V30 5222 H 521.468 1.05879 -2.93592 0
M  V30 5223 N 521.769 1.56035 0.221574 0
M  V30 5224 C 522.997 1.8313 0.962864 0
M  V30 5225 C 523.412 0.630934 1.77946 0
M  V30 5226 O 522.769 -0.400519 1.78051 0
M  V30 5227 C 522.82 3.08742 1.88045 0
M  V30 5228 O 522.541 4.24147 1.09686 0
M  V30 5229 C 524.042 3.48824 2.73563 0
M  V30 5230 H 521.262 0.608775 0.282194 0
M  V30 5231 H 523.806 2.03124 0.23681 0
M  V30 5232 H 521.961 2.90723 2.56045 0
M  V30 5233 H 522.375 4.95505 1.71974 0
M  V30 5234 H 523.849 4.39752 3.3365 0
M  V30 5235 H 524.326 2.70575 3.45956 0
M  V30 5236 H 524.932 3.69282 2.10976 0
M  V30 5237 N 523.247 -0.488276 1.49845 0
M  V30 5238 C 524.487 -1.2516 1.61599 0
M  V30 5239 C 524.851 -1.89615 0.301706 0
M  V30 5240 O 526.052 -2.67182 0.29453 0
M  V30 5241 C 524.323 -2.2805 2.75187 0
M  V30 5242 S 525.882 -3.13552 3.0697 0
M  V30 5243 H 522.7 -0.425178 0.569864 0
M  V30 5244 H 525.302 -0.551545 1.87559 0
M  V30 5245 H 524.006 -1.7925 3.69185 0
M  V30 5246 H 523.537 -3.02708 2.5126 0
M  V30 5247 H 525.552 -4.28927 2.49471 0
M  V30 5248 N 524.725 -1.39134 -0.740242 0
M  V30 5249 C 525.953 -1.39334 -1.5295 0
M  V30 5250 C 526.368 0.0135008 -1.88795 0
M  V30 5251 O 525.725 0.983524 -1.5373 0
M  V30 5252 C 525.776 -2.2614 -2.82034 0
M  V30 5253 O 525.497 -3.61345 -2.47712 0
M  V30 5254 C 526.998 -2.34666 -3.76094 0
M  V30 5255 H 524.218 -0.476103 -0.472828 0
M  V30 5256 H 526.762 -1.82883 -0.9151 0
M  V30 5257 H 524.917 -1.86018 -3.39818 0
M  V30 5258 H 525.331 -4.07194 -3.30595 0
M  V30 5259 H 526.805 -2.99663 -4.63579 0
M  V30 5260 H 527.282 -1.36426 -4.17474 0
M  V30 5261 H 527.888 -2.75236 -3.2423 0
M  V30 5262 N 526.204 0.969867 -1.24223 0
M  V30 5263 C 527.151 2.06407 -1.0327 0
M  V30 5264 C 528.121 1.66014 0.0533 0
M  V30 5265 O 529.306 1.90533 -0.100896 0
M  V30 5266 C 526.446 3.3909 -0.641262 0
M  V30 5267 C 525.559 3.9269 -1.80051 0
M  V30 5268 C 524.694 5.13631 -1.35486 0
M  V30 5269 C 523.733 5.59423 -2.48419 0
M  V30 5270 N 522.87 6.71586 -2.04737 0
M  V30 5271 H 527.71 2.23663 -1.96923 0
M  V30 5272 H 525.247 1.09624 -0.980862 0
M  V30 5273 H 527.205 4.15323 -0.395351 0
M  V30 5274 H 525.835 3.21765 0.258269 0
M  V30 5275 H 524.887 3.13116 -2.16014 0
M  V30 5276 H 526.199 4.22636 -2.64916 0
M  V30 5277 H 525.353 5.97231 -1.0677 0
M  V30 5278 H 524.092 4.85364 -0.476722 0
M  V30 5279 H 523.097 4.74398 -2.77897 0
M  V30 5280 H 524.322 5.89705 -3.36786 0
M  V30 5281 H 522.268 6.45058 -1.19318 0
M  V30 5282 H 522.185 7.0097 -2.83156 0
M  V30 5283 H 523.453 7.58633 -1.79154 0
M  V30 5284 N 527.682 1.05563 1.17022 0
M  V30 5285 C 528.645 0.664098 2.19368 0
M  V30 5286 C 529.645 -0.286358 1.5823 0
M  V30 5287 O 530.835 -0.069728 1.7406 0
M  V30 5288 C 527.967 -0.0239932 3.40892 0
M  V30 5289 H 529.16 1.57 2.55521 0
M  V30 5290 H 526.713 0.849964 1.31169 0
M  V30 5291 H 527.448 -0.942988 3.10287 0
M  V30 5292 H 527.233 0.659351 3.86516 0
M  V30 5293 H 528.723 -0.283909 4.16634 0
M  V30 5294 N 529.16 -1.33526 0.837174 0
M  V30 5295 C 530.108 -2.31168 0.257698 0
M  V30 5296 C 531.102 -1.5806 -0.609388 0
M  V30 5297 O 532.308 -1.72941 -0.499139 0
M  V30 5298 H 528.683 -0.74922 0.0646058 0
M  V30 5299 H 530.654 -2.77552 1.09578 0
M  V30 5300 C 529.403 -3.4326 -0.553887 0
M  V30 5301 H 528.726 -3.99665 0.104008 0
M  V30 5302 H 530.166 -4.13782 -0.925219 0
M  V30 5303 C 528.625 -2.88965 -1.73207 0
M  V30 5304 O 529.155 -2.85013 -2.83073 0
M  V30 5305 N 527.361 -2.45596 -1.55342 0
M  V30 5306 H 526.908 -2.49009 -0.659705 0
M  V30 5307 H 526.866 -2.0962 -2.34322 0
M  V30 5308 N 530.638 -0.59345 -1.46 0
M  V30 5309 C 532.049 -0.169801 -1.85926 0
M  V30 5310 C 532.4 1.26984 -1.49565 0
M  V30 5311 O 531.525 1.96076 -0.915602 0
M  V30 5312 C 532.12 -0.301385 -3.37457 0
M  V30 5313 C 530.679 0.0674684 -3.7634 0
M  V30 5314 C 529.826 -0.632383 -2.69993 0
M  V30 5315 H 532.777 -0.801014 -1.37002 0
M  V30 5316 H 532.798 0.470331 -3.77582 0
M  V30 5317 H 532.31 -1.34927 -3.63891 0
M  V30 5318 H 530.411 1.11507 -3.55523 0
M  V30 5319 H 530.524 -0.316332 -4.78055 0
M  V30 5320 H 528.888 -0.0714961 -2.546 0
M  V30 5321 H 529.671 -1.68212 -2.99265 0
M  V30 5322 N 532.116 1.54067 -0.331816 0
M  V30 5323 C 533.364 2.00319 0.267739 0
M  V30 5324 C 533.685 1.22148 1.52003 0
M  V30 5325 O 532.955 0.325494 1.93177 0
M  V30 5326 H 531.535 0.740014 0.101922 0
M  V30 5327 H 534.197 1.89628 -0.450267 0
M  V30 5328 H 533.293 3.07765 0.518385 0
M  V30 5329 N 533.594 0.0601682 1.57485 0
M  V30 5330 C 534.871 -0.651956 1.84415 0
M  V30 5331 C 535.251 -1.88498 0.950361 0
M  V30 5332 O 534.599 -2.28496 0.0136719 0
M  V30 5333 C 534.809 -1.00069 3.34346 0
M  V30 5334 C 536.157 -1.37915 4.01578 0
M  V30 5335 O 537.181 -1.09277 3.39024 0
M  V30 5336 O 536.04 -1.91399 5.11887 0
M  V30 5337 H 533.134 -0.322668 0.761455 0
M  V30 5338 H 535.68 0.0902159 1.6946 0
M  V30 5339 H 534.452 -0.124463 3.91102 0
M  V30 5340 H 534.075 -1.80001 3.54521 0
M  V30 5341 N 535.072 -1.5615 -0.213296 0
M  V30 5342 C 536.035 -1.92249 -1.24792 0
M  V30 5343 C 537.035 -0.801828 -1.39382 0
M  V30 5344 O 538.225 -1.06948 -1.37506 0
M  V30 5345 C 535.357 -2.18056 -2.62039 0
M  V30 5346 H 536.55 -2.84793 -0.939845 0
M  V30 5347 H 534.103 -1.49559 -0.454062 0
M  V30 5348 H 534.838 -1.2809 -2.97932 0
M  V30 5349 H 534.623 -2.99703 -2.52825 0
M  V30 5350 H 536.113 -2.47051 -3.36683 0
M  V30 5351 N 536.55 0.480323 -1.50102 0
M  V30 5352 C 537.799 1.22979 -1.59872 0
M  V30 5353 C 538.112 1.93282 -0.30022 0
M  V30 5354 O 539.318 2.70086 -0.276709 0
M  V30 5355 C 537.774 2.23408 -2.82164 0
M  V30 5356 C 537.382 1.5895 -4.18854 0
M  V30 5357 C 539.126 2.99055 -3.01275 0
M  V30 5358 C 537.033 2.57611 -5.32344 0
M  V30 5359 H 535.963 0.462707 -0.59533 0
M  V30 5360 H 538.614 0.501291 -1.7652 0
M  V30 5361 H 536.996 2.99511 -2.59055 0
M  V30 5362 H 538.17 0.887 -4.52182 0
M  V30 5363 H 536.485 0.956191 -4.05273 0
M  V30 5364 H 539.082 3.72876 -3.83233 0
M  V30 5365 H 539.425 3.57897 -2.12639 0
M  V30 5366 H 539.958 2.30066 -3.24522 0
M  V30 5367 H 536.697 2.03521 -6.23105 0
M  V30 5368 H 536.217 3.26041 -5.03445 0
M  V30 5369 H 537.896 3.19627 -5.62537 0
M  V30 5370 N 538.028 1.39524 0.732853 0
M  V30 5371 C 538.96 1.34318 1.85718 0
M  V30 5372 C 539.973 0.251576 1.60844 0
M  V30 5373 O 541.162 0.510685 1.71039 0
M  V30 5374 C 538.262 1.06334 3.21786 0
M  V30 5375 C 537.435 2.26813 3.73998 0
M  V30 5376 C 536.494 1.95253 4.88634 0
M  V30 5377 O 535.52 2.67957 5.02183 0
M  V30 5378 N 536.722 0.919984 5.73164 0
M  V30 5379 H 539.487 2.3121 1.90688 0
M  V30 5380 H 537.048 1.33654 0.91368 0
M  V30 5381 H 539.04 0.832363 3.96048 0
M  V30 5382 H 537.61 0.181682 3.12072 0
M  V30 5383 H 536.83 2.65849 2.91064 0
M  V30 5384 H 538.118 3.0717 4.05616 0
M  V30 5385 H 537.516 0.317487 5.64808 0
M  V30 5386 H 536.073 0.748905 6.47483 0
M  V30 5387 N 539.506 -0.963266 1.24736 0
M  V30 5388 C 540.469 -2.04013 1.04457 0
M  V30 5389 C 541.469 -1.608 0.000335555 0
M  V30 5390 O 542.659 -1.72515 0.241719 0
M  V30 5391 C 539.791 -3.35858 0.584162 0
M  V30 5392 H 540.984 -2.23436 2.00041 0
M  V30 5393 H 538.537 -1.13914 1.07021 0
M  V30 5394 H 539.272 -3.22128 -0.374673 0
M  V30 5395 H 539.057 -3.68568 1.3379 0
M  V30 5396 H 540.547 -4.1502 0.463451 0
M  V30 5397 N 540.985 -1.06182 -1.16461 0
M  V30 5398 C 541.895 -0.682671 -2.24448 0
M  V30 5399 C 542.911 0.30078 -1.71381 0
M  V30 5400 O 544.087 0.150376 -2.00838 0
M  V30 5401 C 541.152 -0.0737202 -3.46622 0
M  V30 5402 C 540.213 -1.10889 -4.14731 0
M  V30 5403 C 539.446 -0.528908 -5.31073 0
M  V30 5404 O 539.669 0.65868 -5.66584 0
M  V30 5405 O 538.603 -1.26805 -5.88391 0
M  V30 5406 H 542.429 -1.58291 -2.59187 0
M  V30 5407 H 540.014 -0.834013 -1.23954 0
M  V30 5408 H 541.896 0.264192 -4.20571 0
M  V30 5409 H 540.571 0.800015 -3.13658 0
M  V30 5410 H 539.478 -1.49896 -3.42756 0
M  V30 5411 H 540.811 -1.95412 -4.51747 0
M  V30 5412 N 542.463 1.3308 -0.844243 0
M  V30 5413 C 543.688 2.02341 -0.455282 0
M  V30 5414 C 544.113 1.6308 0.93737 0
M  V30 5415 O 543.471 0.826118 1.61385 0
M  V30 5416 C 543.519 3.55743 -0.58988 0
M  V30 5417 O 542.623 4.1063 0.38166 0
M  V30 5418 H 541.964 0.637898 -0.184343 0
M  V30 5419 H 544.494 1.6986 -1.14056 0
M  V30 5420 H 544.504 4.05243 -0.473522 0
M  V30 5421 H 543.179 3.83662 -1.60549 0
M  V30 5422 H 541.756 3.72236 0.22241 0
M  V30 5423 N 543.941 0.601185 1.45683 0
M  V30 5424 C 545.187 0.102425 2.03142 0
M  V30 5425 C 545.542 -1.25066 1.46207 0
M  V30 5426 O 544.835 -1.81126 0.624806 0
M  V30 5427 C 545.029 -0.00222425 3.574 0
M  V30 5428 C 544.858 1.33917 4.29298 0
M  V30 5429 C 543.628 1.91818 4.67476 0
M  V30 5430 C 545.826 2.26652 4.61664 0
M  V30 5431 N 543.808 3.19504 5.24204 0
M  V30 5432 C 545.179 3.38933 5.19157 0
M  V30 5433 C 547.234 2.26103 4.43601 0
M  V30 5434 C 545.937 4.50823 5.60492 0
M  V30 5435 C 547.963 3.37036 4.85964 0
M  V30 5436 C 547.325 4.48039 5.43545 0
M  V30 5437 H 543.424 0.0806974 0.777825 0
M  V30 5438 H 546.008 0.798134 1.77589 0
M  V30 5439 H 544.179 -0.66714 3.82627 0
M  V30 5440 H 545.911 -0.507058 4.01511 0
M  V30 5441 H 542.666 1.45097 4.50826 0
M  V30 5442 H 543.09 3.84705 5.57073 0
M  V30 5443 H 547.732 1.41547 3.98402 0
M  V30 5444 H 545.45 5.36108 6.0466 0
M  V30 5445 H 549.036 3.37752 4.73725 0
M  V30 5446 H 547.916 5.32459 5.75723 0
M  V30 5447 N 545.419 -1.53889 0.339982 0
M  V30 5448 C 546.659 -2.02765 -0.258011 0
M  V30 5449 C 547.023 -1.22249 -1.48051 0
M  V30 5450 O 548.224 -1.61007 -2.15245 0
M  V30 5451 C 546.495 -3.5286 -0.567872 0
M  V30 5452 S 548.054 -4.23647 -1.14318 0
M  V30 5453 H 544.872 -0.706814 -0.0770389 0
M  V30 5454 H 547.474 -1.89594 0.476917 0
M  V30 5455 H 546.178 -4.09073 0.329745 0
M  V30 5456 H 545.709 -3.70144 -1.33256 0
M  V30 5457 H 547.724 -4.32676 -2.42911 0
M  V30 5458 N 546.897 -0.0685191 -1.57451 0
M  V30 5459 C 547.829 0.929372 -2.09512 0
M  V30 5460 C 548.842 1.26354 -1.02657 0
M  V30 5461 O 550.031 1.2213 -1.30179 0
M  V30 5462 C 547.131 2.24612 -2.53777 0
M  V30 5463 C 546.304 2.09128 -3.84167 0
M  V30 5464 C 545.363 3.24079 -4.14559 0
M  V30 5465 O 544.389 2.99215 -4.8421 0
M  V30 5466 N 545.591 4.49077 -3.67845 0
M  V30 5467 H 548.356 0.484901 -2.95751 0
M  V30 5468 H 545.917 0.11729 -1.61475 0
M  V30 5469 H 547.909 3.00412 -2.71172 0
M  V30 5470 H 546.479 2.60569 -1.72692 0
M  V30 5471 H 545.699 1.17815 -3.76182 0
M  V30 5472 H 546.987 1.9603 -4.69521 0
M  V30 5473 H 546.385 4.72165 -3.11571 0
M  V30 5474 H 544.942 5.21915 -3.90446 0
M  V30 5475 N 548.375 1.56261 0.205012 0
M  V30 5476 C 549.308 1.88797 1.28183 0
M  V30 5477 C 550.286 0.747018 1.44424 0
M  V30 5478 O 551.47 0.997039 1.59973 0
M  V30 5479 C 548.597 2.10949 2.64987 0
M  V30 5480 C 547.643 3.33649 2.6567 0
M  V30 5481 S 548.476 4.89078 2.18088 0
M  V30 5482 C 549.632 5.14286 3.56736 0
M  V30 5483 H 549.865 2.79837 1.00393 0
M  V30 5484 H 547.398 1.48911 0.408042 0
M  V30 5485 H 549.356 2.24395 3.4374 0
M  V30 5486 H 548.017 1.20678 2.89993 0
M  V30 5487 H 547.21 3.46245 3.66239 0
M  V30 5488 H 546.812 3.19146 1.94992 0
M  V30 5489 H 549.104 5.04198 4.52537 0
M  V30 5490 H 550.047 6.16096 3.49043 0
M  V30 5491 H 550.455 4.41957 3.51189 0
M  V30 5492 N 549.853 -0.472356 1.50355 0
M  V30 5493 C 551.078 -1.25251 1.65309 0
M  V30 5494 C 551.503 -1.85081 0.335643 0
M  V30 5495 O 550.861 -1.67227 -0.700335 0
M  V30 5496 C 550.909 -2.3379 2.74544 0
M  V30 5497 O 550.013 -3.38401 2.35709 0
M  V30 5498 H 549.354 -0.368539 0.552336 0
M  V30 5499 H 551.884 -0.562271 1.96722 0
M  V30 5500 H 551.894 -2.79121 2.97583 0
M  V30 5501 H 550.569 -1.89614 3.70161 0
M  V30 5502 H 549.146 -2.9879 2.23112 0
M  V30 5503 N 551.331 -1.39911 -0.725443 0
M  V30 5504 C 552.579 -1.37382 -1.48224 0
M  V30 5505 C 552.9 0.0264107 -1.94982 0
M  V30 5506 O 552.17 0.979408 -1.6966 0
M  V30 5507 H 550.75 -0.505596 -0.549892 0
M  V30 5508 H 553.412 -1.7487 -0.860608 0
M  V30 5509 H 552.508 -2.04254 -2.3598 0
M  V30 5510 N 552.809 0.956637 -1.25245 0
M  V30 5511 C 554.055 1.70352 -1.10036 0
M  V30 5512 C 554.388 1.90869 0.358156 0
M  V30 5513 O 553.663 1.47819 1.26411 0
M  V30 5514 C 553.946 3.08766 -1.85298 0
M  V30 5515 C 553.799 2.95672 -3.38966 0
M  V30 5516 C 555.118 4.08622 -1.63451 0
M  V30 5517 H 552.237 0.618279 -0.401123 0
M  V30 5518 H 554.879 1.11212 -1.54051 0
M  V30 5519 H 553.029 3.59252 -1.47887 0
M  V30 5520 H 554.701 2.52527 -3.86041 0
M  V30 5521 H 552.944 2.31634 -3.6678 0
M  V30 5522 H 553.615 3.93776 -3.86839 0
M  V30 5523 H 556.091 3.67038 -1.96015 0
M  V30 5524 H 554.967 5.03514 -2.18551 0
M  V30 5525 H 555.228 4.3834 -0.575357 0
M  V30 5526 N 554.287 1.06798 1.15896 0
M  V30 5527 C 555.234 0.683314 2.20453 0
M  V30 5528 C 556.204 -0.32255 1.62938 0
M  V30 5529 O 557.389 -0.210276 1.89638 0
M  V30 5530 C 554.529 0.0813266 3.45004 0
M  V30 5531 C 553.642 1.13799 4.16742 0
M  V30 5532 C 552.777 0.501598 5.28826 0
M  V30 5533 C 551.816 1.54144 5.92373 0
M  V30 5534 N 550.953 0.928038 6.9594 0
M  V30 5535 H 555.793 1.57932 2.52708 0
M  V30 5536 H 553.33 0.789544 1.24115 0
M  V30 5537 H 555.288 -0.285274 4.16224 0
M  V30 5538 H 553.918 -0.77806 3.13283 0
M  V30 5539 H 552.97 1.62223 3.44075 0
M  V30 5540 H 554.282 1.92664 4.60089 0
M  V30 5541 H 553.436 0.0823162 6.06644 0
M  V30 5542 H 552.175 -0.318883 4.86656 0
M  V30 5543 H 551.18 1.97056 5.13273 0
M  V30 5544 H 552.405 2.3641 6.36621 0
M  V30 5545 H 550.351 0.12836 6.55874 0
M  V30 5546 H 550.268 1.65401 7.37685 0
M  V30 5547 H 551.536 0.534071 7.77668 0
M  V30 5548 N 555.766 -1.3263 0.851289 0
M  V30 5549 C 556.994 -2.01563 0.466899 0
M  V30 5550 C 557.409 -1.63996 -0.935447 0
M  V30 5551 O 556.766 -0.85957 -1.6099 0
M  V30 5552 C 556.817 -3.56613 0.592433 0
M  V30 5553 O 556.538 -3.92828 1.93954 0
M  V30 5554 C 558.039 -4.42818 0.206612 0
M  V30 5555 H 555.259 -0.645307 0.183902 0
M  V30 5556 H 557.803 -1.69285 1.1473 0
M  V30 5557 H 555.958 -3.87379 -0.0401936 0
M  V30 5558 H 556.372 -4.87545 1.9339 0
M  V30 5559 H 557.846 -5.50918 0.345462 0
M  V30 5560 H 558.323 -4.30844 -0.85264 0
M  V30 5561 H 558.929 -4.17434 0.814176 0
M  V30 5562 N 557.244 -0.608902 -1.45362 0
M  V30 5563 C 558.154 0.110969 -2.34337 0
M  V30 5564 C 559.17 0.859007 -1.51318 0
M  V30 5565 O 560.346 0.816296 -1.84116 0
M  V30 5566 C 557.411 1.09494 -3.28956 0
M  V30 5567 C 556.472 0.348718 -4.27881 0
M  V30 5568 C 555.705 1.28582 -5.17979 0
M  V30 5569 O 555.928 2.52369 -5.11533 0
M  V30 5570 O 554.862 0.782172 -5.96796 0
M  V30 5571 H 558.688 -0.620258 -2.97299 0
M  V30 5572 H 556.273 -0.36916 -1.44767 0
M  V30 5573 H 558.155 1.66163 -3.87257 0
M  V30 5574 H 556.83 1.80717 -2.68557 0
M  V30 5575 H 555.737 -0.260465 -3.73192 0
M  V30 5576 H 557.07 -0.323049 -4.91139 0
M  V30 5577 N 558.722 1.53707 -0.348139 0
M  V30 5578 C 559.95 2.05406 0.248224 0
M  V30 5579 C 560.365 1.22282 1.43849 0
M  V30 5580 O 559.722 0.259244 1.80649 0
M  V30 5581 C 559.773 3.55446 0.658793 0
M  V30 5582 O 559.494 4.35417 -0.484149 0
M  V30 5583 C 560.995 4.23335 1.31539 0
M  V30 5584 H 558.215 0.669344 0.0471075 0
M  V30 5585 H 560.759 1.98257 -0.501456 0
M  V30 5586 H 558.914 3.62803 1.35841 0
M  V30 5587 H 559.328 5.24268 -0.155949 0
M  V30 5588 H 560.802 5.29692 1.55338 0
M  V30 5589 H 561.279 3.75967 2.27036 0
M  V30 5590 H 561.885 4.20184 0.657683 0
M  V30 5591 N 560.2 0.0768682 1.57412 0
M  V30 5592 C 561.428 -0.59997 1.9801 0
M  V30 5593 C 561.843 -1.62842 0.955408 0
M  V30 5594 O 561.2 -1.8241 -0.057314 0
M  V30 5595 C 561.251 -1.26401 3.38681 0
M  V30 5596 O 560.972 -0.276723 4.37225 0
M  V30 5597 C 562.473 -2.0282 3.94182 0
M  V30 5598 H 559.693 -0.162239 0.651091 0
M  V30 5599 H 562.237 0.150771 2.03943 0
M  V30 5600 H 560.392 -1.96581 3.33819 0
M  V30 5601 H 560.806 -0.753744 5.19056 0
M  V30 5602 H 562.28 -2.44667 4.94815 0
M  V30 5603 H 562.757 -2.88678 3.31001 0
M  V30 5604 H 563.363 -1.37496 4.02461 0
M  V30 5605 N 561.678 -1.56367 -0.196722 0
M  V30 5606 C 562.903 -1.84991 -0.937714 0
M  V30 5607 C 563.328 -0.660244 -1.76132 0
M  V30 5608 O 562.686 0.390967 -1.77034 0
M  V30 5609 C 562.734 -3.11828 -1.81096 0
M  V30 5610 O 561.838 -2.92266 -2.90955 0
M  V30 5611 H 561.179 -0.609193 -0.264159 0
M  V30 5612 H 563.709 -2.03595 -0.202529 0
M  V30 5613 H 563.719 -3.42579 -2.21594 0
M  V30 5614 H 562.394 -3.98037 -1.2058 0
M  V30 5615 H 560.971 -2.72809 -2.54224 0
M  V30 5616 N 563.156 0.464375 -1.50603 0
M  V30 5617 C 564.433 1.22549 -1.5245 0
M  V30 5618 C 564.813 2.09327 -0.273035 0
M  V30 5619 O 564.161 2.16074 0.743242 0
M  V30 5620 C 564.371 2.05074 -2.82393 0
M  V30 5621 C 565.719 2.63036 -3.33313 0
M  V30 5622 O 566.743 2.1531 -2.8376 0
M  V30 5623 O 565.602 3.5001 -4.19709 0
M  V30 5624 H 562.696 0.556471 -0.611775 0
M  V30 5625 H 565.242 0.475648 -1.62898 0
M  V30 5626 H 564.014 1.41169 -3.64948 0
M  V30 5627 H 563.637 2.87179 -2.7498 0
M  V30 5628 N 564.634 1.40294 0.718013 0
M  V30 5629 C 565.597 1.4012 1.81381 0
M  V30 5630 C 566.597 0.295405 1.58063 0
M  V30 5631 O 567.787 0.554187 1.6515 0
M  V30 5632 C 564.919 1.19056 3.19435 0
M  V30 5633 H 566.112 2.37645 1.82933 0
M  V30 5634 H 563.665 1.26107 0.923405 0
M  V30 5635 H 564.4 0.222809 3.23534 0
M  V30 5636 H 564.185 1.99152 3.37758 0
M  V30 5637 H 565.675 1.21716 3.99468 0
M  V30 5638 N 566.112 -0.949982 1.2575 0
M  V30 5639 C 567.36 -1.6918 1.10555 0
M  V30 5640 C 567.681 -1.91773 -0.353298 0
M  V30 5641 O 566.951 -1.50814 -1.25027 0
M  V30 5642 H 565.531 -0.626952 0.406129 0
M  V30 5643 H 568.193 -1.1419 1.57945 0
M  V30 5644 H 567.289 -2.66915 1.61749 0
M  V30 5645 N 567.59 -1.07411 -1.15328 0
M  V30 5646 C 568.867 -0.710732 -1.82231 0
M  V30 5647 C 569.247 0.806732 -1.95077 0
M  V30 5648 O 568.595 1.72139 -1.50268 0
M  V30 5649 C 568.805 -1.42586 -3.18544 0
M  V30 5650 C 570.153 -1.57836 -3.94174 0
M  V30 5651 O 571.177 -1.38669 -3.281 0
M  V30 5652 O 570.036 -1.8938 -5.12638 0
M  V30 5653 H 567.13 -0.25297 -0.78736 0
M  V30 5654 H 569.676 -1.17508 -1.22434 0
M  V30 5655 H 568.448 -2.46008 -3.04296 0
M  V30 5656 H 568.071 -0.952332 -3.86026 0
M  V30 5657 N 569.068 1.32177 -0.85831 0
M  V30 5658 C 570.316 1.96735 -0.462568 0
M  V30 5659 C 570.637 1.6824 0.985911 0
M  V30 5660 O 569.907 0.991564 1.68952 0
M  V30 5661 H 568.487 0.727849 -0.168064 0
M  V30 5662 H 571.149 1.61195 -1.09554 0
M  V30 5663 H 570.245 3.06068 -0.610647 0
M  V30 5664 N 570.547 0.616602 1.45037 0
M  V30 5665 C 571.477 -0.0840787 2.33349 0
M  V30 5666 C 572.458 -0.849641 1.4736 0
M  V30 5667 O 573.643 -0.818407 1.76113 0
M  V30 5668 C 570.773 -1.07604 3.3021 0
M  V30 5669 C 569.727 -0.423096 4.25904 0
M  V30 5670 C 569.053 -1.52394 5.12523 0
M  V30 5671 C 570.353 0.661457 5.18095 0
M  V30 5672 H 572.047 0.653333 2.92185 0
M  V30 5673 H 569.593 0.315634 1.40498 0
M  V30 5674 H 571.546 -1.57485 3.90866 0
M  V30 5675 H 570.27 -1.84416 2.69552 0
M  V30 5676 H 568.929 0.05493 3.66559 0
M  V30 5677 H 568.577 -2.28257 4.48227 0
M  V30 5678 H 568.277 -1.09251 5.77354 0
M  V30 5679 H 569.801 -2.02485 5.76049 0
M  V30 5680 H 571.215 0.246353 5.7277 0
M  V30 5681 H 569.612 1.01517 5.91451 0
M  V30 5682 H 570.682 1.53446 4.59981 0
M  V30 5683 N 572.025 -1.5352 0.356285 0
M  V30 5684 C 572.973 -2.26945 -0.50978 0
M  V30 5685 C 573.967 -1.29569 -1.09125 0
M  V30 5686 O 575.173 -1.47231 -1.03552 0
M  V30 5687 H 571.548 -0.729368 -0.183102 0
M  V30 5688 H 573.519 -2.98111 0.131374 0
M  V30 5689 C 572.268 -3.06466 -1.64237 0
M  V30 5690 H 571.591 -3.81233 -1.20423 0
M  V30 5691 H 573.031 -3.61035 -2.22327 0
M  V30 5692 C 571.49 -2.16737 -2.57928 0
M  V30 5693 O 572.02 -1.77195 -3.60507 0
M  V30 5694 N 570.226 -1.81558 -2.26903 0
M  V30 5695 H 569.773 -2.13913 -1.43524 0
M  V30 5696 H 569.731 -1.21806 -2.89846 0
M  V30 5697 N 573.503 -0.0852151 -1.57369 0
M  V30 5698 C 574.749 0.581666 -1.94279 0
M  V30 5699 C 575.082 1.68444 -0.966446 0
M  V30 5700 O 574.357 1.945 0.00215277 0
M  V30 5701 C 574.64 1.14609 -3.41375 0
M  V30 5702 C 574.493 0.0490414 -4.49773 0
M  V30 5703 C 575.812 2.04751 -3.8957 0
M  V30 5704 H 572.931 0.209972 -0.706456 0
M  V30 5705 H 575.573 -0.153915 -1.89376 0
M  V30 5706 H 573.723 1.77297 -3.45685 0
M  V30 5707 H 575.395 -0.584721 -4.57579 0
M  V30 5708 H 573.638 -0.618638 -4.29366 0
M  V30 5709 H 574.309 0.484601 -5.49869 0
M  V30 5710 H 576.785 1.51981 -3.87351 0
M  V30 5711 H 575.661 2.41173 -4.93079 0
M  V30 5712 H 575.922 2.96107 -3.28288 0
M  V30 5713 N 574.981 1.5647 0.188427 0
M  V30 5714 C 576.229 1.80655 0.905986 0
M  V30 5715 C 576.55 0.659391 1.83513 0
M  V30 5716 O 575.82 -0.321868 1.93238 0
M  V30 5717 H 574.4 0.666391 0.337538 0
M  V30 5718 H 577.062 1.93949 0.192339 0
M  V30 5719 H 576.158 2.74066 1.49313 0
M  V30 5720 N 576.459 -0.456382 1.50847 0
M  V30 5721 C 577.689 -1.22848 1.66108 0
M  V30 5722 C 578.097 -1.85936 0.349897 0
M  V30 5723 O 577.44 -1.70664 -0.679665 0
M  V30 5724 C 577.502 -2.36722 2.70561 0
M  V30 5725 C 577.166 -1.94154 4.13707 0
M  V30 5726 C 578.163 -1.4557 4.99105 0
M  V30 5727 C 575.848 -2.02426 4.59705 0
M  V30 5728 C 577.842 -1.0582 6.28555 0
M  V30 5729 C 575.529 -1.62287 5.89157 0
M  V30 5730 C 576.527 -1.14064 6.73408 0
M  V30 5731 O 576.215 -0.744873 8.00442 0
M  V30 5732 H 575.947 -0.377105 0.561042 0
M  V30 5733 H 578.501 -0.549431 1.97915 0
M  V30 5734 H 576.731 -3.07844 2.34027 0
M  V30 5735 H 578.42 -2.98646 2.74892 0
M  V30 5736 H 579.186 -1.38589 4.64777 0
M  V30 5737 H 575.065 -2.38908 3.94264 0
M  V30 5738 H 578.609 -0.6811 6.94267 0
M  V30 5739 H 574.506 -1.68932 6.23003 0
M  V30 5740 H 575.274 -0.87242 8.13837 0
M  V30 5741 N 577.937 -1.40673 -0.710563 0
M  V30 5742 C 579.186 -1.38525 -1.46607 0
M  V30 5743 C 579.499 0.0077024 -1.95598 0
M  V30 5744 O 580.705 0.151792 -2.71075 0
M  V30 5745 C 579.161 -2.43489 -2.6503 0
M  V30 5746 C 578.769 -3.88619 -2.22888 0
M  V30 5747 C 580.513 -2.50456 -3.42742 0
M  V30 5748 C 578.42 -4.85168 -3.3818 0
M  V30 5749 H 577.35 -0.515092 -0.550632 0
M  V30 5750 H 580.001 -1.66431 -0.772846 0
M  V30 5751 H 578.383 -2.0869 -3.36548 0
M  V30 5752 H 579.557 -4.32588 -1.58758 0
M  V30 5753 H 577.872 -3.85174 -1.58208 0
M  V30 5754 H 580.469 -3.19776 -4.28541 0
M  V30 5755 H 580.812 -1.53665 -3.86902 0
M  V30 5756 H 581.345 -2.84271 -2.78271 0
M  V30 5757 H 578.084 -5.8331 -2.99047 0
M  V30 5758 H 577.604 -4.4586 -4.01209 0
M  V30 5759 H 579.283 -5.05225 -4.04174 0
M  V30 5760 N 579.415 0.9433 -1.26252 0
M  V30 5761 C 580.692 1.66639 -1.02424 0
M  V30 5762 C 581.072 2.06335 0.446006 0
M  V30 5763 O 580.42 1.78551 1.42589 0
M  V30 5764 C 580.63 2.88019 -1.97094 0
M  V30 5765 C 581.978 3.59718 -2.25584 0
M  V30 5766 O 583.002 2.9812 -1.94943 0
M  V30 5767 O 581.861 4.7066 -2.77743 0
M  V30 5768 H 578.955 0.729643 -0.389294 0
M  V30 5769 H 581.501 0.995218 -1.37454 0
M  V30 5770 H 580.273 2.5556 -2.96319 0
M  V30 5771 H 579.896 3.62863 -1.62532 0
M  V30 5772 N 580.893 1.08022 1.14757 0
M  V30 5773 C 582.141 0.805913 1.85336 0
M  V30 5774 C 582.462 -0.670162 1.83122 0
M  V30 5775 O 581.732 -1.48567 1.2769 0
M  V30 5776 H 580.312 0.295138 0.686223 0
M  V30 5777 H 582.974 1.36538 1.3908 0
M  V30 5778 H 582.07 1.14655 2.90277 0
M  V30 5779 N 582.371 -1.3172 0.865308 0
M  V30 5780 C 583.619 -1.96487 0.472995 0
M  V30 5781 C 583.94 -1.68761 -0.976975 0
M  V30 5782 O 583.21 -1.00051 -1.68424 0
M  V30 5783 H 581.79 -0.726947 0.171922 0
M  V30 5784 H 584.452 -1.60612 1.10407 0
M  V30 5785 H 583.548 -3.0574 0.62687 0
M  V30 5786 N 583.85 -0.624285 -1.44708 0
M  V30 5787 C 585.127 -0.0572781 -1.95516 0
M  V30 5788 C 585.507 1.41516 -1.56641 0
M  V30 5789 O 584.855 2.12614 -0.837111 0
M  V30 5790 C 585.065 -0.272944 -3.47931 0
M  V30 5791 C 586.413 -0.162529 -4.24289 0
M  V30 5792 O 587.437 -0.203946 -3.55616 0
M  V30 5793 O 586.296 -0.0616847 -5.46465 0
M  V30 5794 H 583.389 0.0262219 -0.826584 0
M  V30 5795 H 585.936 -0.695512 -1.54793 0
M  V30 5796 H 584.707 -1.29492 -3.69253 0
M  V30 5797 H 584.331 0.399756 -3.95585 0
M  V30 5798 N 585.328 1.53329 -0.364422 0
M  V30 5799 C 586.574 2.02222 0.21855 0
M  V30 5800 C 586.929 1.24702 1.46517 0
M  V30 5801 O 586.222 0.331969 1.88702 0
M  V30 5802 C 586.416 3.52911 0.564661 0
M  V30 5803 C 586.245 4.45023 -0.646862 0
M  V30 5804 C 585.015 4.91838 -1.15858 0
M  V30 5805 C 587.213 4.91581 -1.51172 0
M  V30 5806 N 585.195 5.67955 -2.33025 0
M  V30 5807 C 586.566 5.66028 -2.53006 0
M  V30 5808 C 588.621 4.73656 -1.53473 0
M  V30 5809 C 587.324 6.24457 -3.56996 0
M  V30 5810 C 589.35 5.3295 -2.56356 0
M  V30 5811 C 588.712 6.07282 -3.56914 0
M  V30 5812 H 584.811 0.780832 0.0427199 0
M  V30 5813 H 587.395 1.87937 -0.508704 0
M  V30 5814 H 585.566 3.6736 1.26099 0
M  V30 5815 H 587.298 3.88528 1.13262 0
M  V30 5816 H 584.053 4.68043 -0.723393 0
M  V30 5817 H 584.477 6.10675 -2.92241 0
M  V30 5818 H 589.119 4.15714 -0.770842 0
M  V30 5819 H 586.837 6.81496 -4.34268 0
M  V30 5820 H 590.423 5.20976 -2.58989 0
M  V30 5821 H 589.303 6.52345 -4.35218 0
M  V30 5822 N 586.806 0.0935595 1.57322 0
M  V30 5823 C 587.739 -0.902505 2.09595 0
M  V30 5824 C 588.717 -1.27732 1.00615 0
M  V30 5825 O 589.901 -1.38283 1.28102 0
M  V30 5826 C 587.028 -2.20416 2.57166 0
M  V30 5827 C 586.074 -1.97932 3.7779 0
M  V30 5828 S 586.907 -1.21873 5.21447 0
M  V30 5829 C 588.063 -2.53273 5.72367 0
M  V30 5830 H 588.296 -0.457797 2.93754 0
M  V30 5831 H 585.829 -0.119694 1.53935 0
M  V30 5832 H 587.787 -2.95217 2.85232 0
M  V30 5833 H 586.448 -2.62008 1.73235 0
M  V30 5834 H 585.641 -2.94316 4.09138 0
M  V30 5835 H 585.243 -1.3126 3.5021 0
M  V30 5836 H 587.535 -3.49256 5.8054 0
M  V30 5837 H 588.478 -2.26505 6.70896 0
M  V30 5838 H 588.886 -2.61475 5.00291 0
M  V30 5839 N 588.284 -1.56567 -0.180126 0
M  V30 5840 C 589.512 -1.85618 -0.913972 0
M  V30 5841 C 589.927 -0.677892 -1.7621 0
M  V30 5842 O 589.284 0.353171 -1.7905 0
M  V30 5843 C 589.335 -3.13619 -1.79793 0
M  V30 5844 O 589.056 -4.26906 -0.98402 0
M  V30 5845 C 590.557 -3.55954 -2.64219 0
M  V30 5846 H 587.777 -0.616043 -0.265954 0
M  V30 5847 H 590.321 -2.03681 -0.182872 0
M  V30 5848 H 588.476 -2.97409 -2.48247 0
M  V30 5849 H 588.89 -4.9989 -1.58776 0
M  V30 5850 H 590.364 -4.48444 -3.21873 0
M  V30 5851 H 590.841 -2.79653 -3.38661 0
M  V30 5852 H 591.447 -3.74746 -2.01111 0
M  V30 5853 N 589.762 0.448376 -1.51087 0
M  V30 5854 C 590.992 1.21965 -1.66757 0
M  V30 5855 C 591.4 1.85748 -0.359753 0
M  V30 5856 O 590.743 1.71022 0.670604 0
M  V30 5857 C 590.805 2.35284 -2.71812 0
M  V30 5858 C 590.469 1.91957 -4.1473 0
M  V30 5859 C 591.466 1.42921 -4.9987 0
M  V30 5860 C 589.151 1.99985 -4.60772 0
M  V30 5861 C 591.145 1.02485 -6.29107 0
M  V30 5862 C 588.832 1.5916 -5.90009 0
M  V30 5863 C 589.83 1.10491 -6.74004 0
M  V30 5864 O 589.518 0.702413 -8.00825 0
M  V30 5865 H 589.25 0.374125 -0.563034 0
M  V30 5866 H 591.804 0.538927 -1.98204 0
M  V30 5867 H 590.034 3.06599 -2.35657 0
M  V30 5868 H 591.723 2.97184 -2.76472 0
M  V30 5869 H 592.489 1.36123 -4.65506 0
M  V30 5870 H 588.368 2.36814 -3.95525 0
M  V30 5871 H 591.912 0.644271 -6.94619 0
M  V30 5872 H 587.809 1.65626 -6.2389 0
M  V30 5873 H 588.577 0.829248 -8.14288 0
M  V30 5874 N 591.24 1.41047 0.703093 0
M  V30 5875 C 592.465 1.43537 1.49706 0
M  V30 5876 C 592.89 0.0401853 1.88057 0
M  V30 5877 O 592.248 -0.954785 1.54122 0
M  V30 5878 C 592.296 2.3433 2.74084 0
M  V30 5879 O 591.4 1.79515 3.71279 0
M  V30 5880 H 590.741 0.487454 0.450871 0
M  V30 5881 H 593.271 1.85422 0.86486 0
M  V30 5882 H 593.281 2.49947 3.22476 0
M  V30 5883 H 591.956 3.35708 2.45506 0
M  V30 5884 H 590.533 1.7331 3.30179 0
M  V30 5885 N 592.718 -0.936591 1.26751 0
M  V30 5886 C 593.964 -1.6858 1.12733 0
M  V30 5887 C 594.297 -1.91414 -0.327745 0
M  V30 5888 O 593.572 -1.49812 -1.24043 0
M  V30 5889 C 593.855 -3.05779 1.90187 0
M  V30 5890 C 593.708 -2.90242 3.43627 0
M  V30 5891 C 595.027 -4.0597 1.69931 0
M  V30 5892 H 592.146 -0.61182 0.410908 0
M  V30 5893 H 594.788 -1.08747 1.55801 0
M  V30 5894 H 592.938 -3.56853 1.53584 0
M  V30 5895 H 594.61 -2.46354 3.9001 0
M  V30 5896 H 592.853 -2.2577 3.70419 0
M  V30 5897 H 593.524 -3.87572 3.93055 0
M  V30 5898 H 596 -3.63874 2.0183 0
M  V30 5899 H 594.876 -4.99974 2.26534 0
M  V30 5900 H 595.137 -4.37369 0.64502 0
M  V30 5901 N 594.196 -1.08629 -1.14182 0
M  V30 5902 C 595.144 -0.71284 -2.21408 0
M  V30 5903 C 596.138 0.282457 -1.67029 0
M  V30 5904 O 597.344 0.144783 -1.79417 0
M  V30 5905 H 593.719 -0.212497 -0.721352 0
M  V30 5906 H 595.69 -1.6265 -2.50175 0
M  V30 5907 C 594.439 -0.140704 -3.47415 0
M  V30 5908 H 593.762 -0.897739 -3.8959 0
M  V30 5909 H 595.202 0.0827677 -4.23919 0
M  V30 5910 C 593.661 1.122 -3.17668 0
M  V30 5911 O 594.191 2.20652 -3.35672 0
M  V30 5912 N 592.397 1.03328 -2.71609 0
M  V30 5913 H 591.944 0.150666 -2.57159 0
M  V30 5914 H 591.902 1.8789 -2.52081 0
M  V30 5915 N 595.674 1.31259 -0.872281 0
M  V30 5916 C 596.923 1.95893 -0.480493 0
M  V30 5917 C 597.236 1.697 0.972688 0
M  V30 5918 O 598.442 2.28214 1.47073 0
M  V30 5919 C 596.898 3.50705 -0.808342 0
M  V30 5920 C 596.506 3.85735 -2.27844 0
M  V30 5921 C 598.25 4.21719 -0.485136 0
M  V30 5922 C 596.157 5.33668 -2.54858 0
M  V30 5923 H 595.087 0.733182 -0.175955 0
M  V30 5924 H 597.738 1.49396 -1.0655 0
M  V30 5925 H 596.12 3.95706 -0.152558 0
M  V30 5926 H 597.294 3.51686 -2.97748 0
M  V30 5927 H 595.609 3.27792 -2.56791 0
M  V30 5928 H 598.206 5.30559 -0.664166 0
M  V30 5929 H 598.549 4.12316 0.574592 0
M  V30 5930 H 599.082 3.82359 -1.09756 0
M  V30 5931 H 595.821 5.48109 -3.59523 0
M  V30 5932 H 595.341 5.69061 -1.8955 0
M  V30 5933 H 597.02 6.00958 -2.39706 0
M  V30 5934 N 597.152 0.631951 1.44375 0
M  V30 5935 C 598.563 0.219036 1.85411 0
M  V30 5936 C 598.914 -1.22974 1.52879 0
M  V30 5937 O 598.039 -1.93579 0.967266 0
M  V30 5938 C 598.634 0.39075 3.36539 0
M  V30 5939 C 597.193 0.0323351 3.76386 0
M  V30 5940 C 596.34 0.703744 2.68221 0
M  V30 5941 H 599.291 0.837056 1.3483 0
M  V30 5942 H 599.312 -0.370056 3.78696 0
M  V30 5943 H 598.824 1.44527 3.60185 0
M  V30 5944 H 596.925 -1.02042 3.58355 0
M  V30 5945 H 597.038 0.442969 4.77048 0
M  V30 5946 H 595.402 0.138974 2.54321 0
M  V30 5947 H 596.185 1.76088 2.947 0
M  V30 5948 N 598.631 -1.53133 0.372548 0
M  V30 5949 C 599.859 -2.05774 -0.215515 0
M  V30 5950 C 600.274 -1.24555 -1.41886 0
M  V30 5951 O 599.631 -0.287951 -1.80214 0
M  V30 5952 C 599.682 -3.5645 -0.602161 0
M  V30 5953 O 599.403 -4.34591 0.553359 0
M  V30 5954 C 600.904 -4.25374 -1.24787 0
M  V30 5955 H 598.124 -0.670009 -0.0364529 0
M  V30 5956 H 600.668 -1.97434 0.532934 0
M  V30 5957 H 598.823 -3.64918 -1.30052 0
M  V30 5958 H 599.237 -5.23954 0.239336 0
M  V30 5959 H 600.711 -5.32097 -1.46891 0
M  V30 5960 H 601.188 -3.79531 -2.21026 0
M  V30 5961 H 601.794 -4.21177 -0.590752 0
M  V30 5962 N 600.109 -0.101901 -1.5727 0
M  V30 5963 C 601.337 0.568392 -1.98939 0
M  V30 5964 C 601.752 1.61301 -0.981194 0
M  V30 5965 O 601.109 1.82478 0.0282869 0
M  V30 5966 C 601.16 1.20997 -3.40649 0
M  V30 5967 O 600.881 0.207129 -4.3761 0
M  V30 5968 C 602.382 1.96523 -3.97358 0
M  V30 5969 H 599.602 0.15186 -0.65359 0
M  V30 5970 H 602.146 -0.183198 -2.03678 0
M  V30 5971 H 600.301 1.91245 -3.36904 0
M  V30 5972 H 600.715 0.671071 -5.20189 0
M  V30 5973 H 602.189 2.36764 -4.98645 0
M  V30 5974 H 602.666 2.83376 -3.35552 0
M  V30 5975 H 603.272 1.31076 -4.04598 0
M  V30 5976 N 601.587 1.56661 0.17182 0
M  V30 5977 C 602.835 1.81606 0.886774 0
M  V30 5978 C 603.156 0.678818 1.82803 0
M  V30 5979 O 602.426 -0.301354 1.93568 0
M  V30 5980 H 601.006 0.669934 0.330451 0
M  V30 5981 H 603.668 1.94142 0.171757 0
M  V30 5982 H 602.764 2.75634 1.46398 0
M  V30 5983 N 603.065 -0.440357 1.51323 0
M  V30 5984 C 604.293 -1.21255 1.67645 0
M  V30 5985 C 604.708 -1.85088 0.37252 0
M  V30 5986 O 604.065 -1.70582 -0.648683 0
M  V30 5987 C 604.116 -2.29881 2.78993 0
M  V30 5988 O 603.837 -1.68659 4.04334 0
M  V30 5989 C 605.338 -3.20214 3.06558 0
M  V30 5990 H 602.558 -0.36558 0.562666 0
M  V30 5991 H 605.102 -0.52214 1.97722 0
M  V30 5992 H 603.257 -2.94643 2.51524 0
M  V30 5993 H 603.671 -2.40426 4.6615 0
M  V30 5994 H 605.145 -3.92575 3.88058 0
M  V30 5995 H 605.622 -3.80794 2.18844 0
M  V30 5996 H 606.228 -2.61156 3.35675 0
M  V30 5997 N 604.543 -1.41418 -0.695603 0
M  V30 5998 C 605.773 -1.43921 -1.48224 0
M  V30 5999 C 606.181 -0.0428855 -1.89151 0
M  V30 6000 O 605.524 0.948138 -1.5734 0
M  V30 6001 C 605.586 -2.28466 -2.77567 0
M  V30 6002 C 605.25 -3.76629 -2.58844 0
M  V30 6003 C 606.247 -4.6879 -2.24793 0
M  V30 6004 C 603.932 -4.2067 -2.74485 0
M  V30 6005 C 605.926 -6.02981 -2.06622 0
M  V30 6006 C 603.613 -5.54926 -2.55931 0
M  V30 6007 C 604.611 -6.45897 -2.2205 0
M  V30 6008 O 604.299 -7.77675 -2.03657 0
M  V30 6009 H 604.031 -0.492252 -0.463318 0
M  V30 6010 H 606.585 -1.86347 -0.863952 0
M  V30 6011 H 604.815 -1.80853 -3.41802 0
M  V30 6012 H 606.504 -2.2267 -3.39371 0
M  V30 6013 H 607.27 -4.36055 -2.12323 0
M  V30 6014 H 603.149 -3.50167 -2.9984 0
M  V30 6015 H 606.693 -6.73951 -1.80099 0
M  V30 6016 H 602.59 -5.8724 -2.67991 0
M  V30 6017 H 603.358 -7.88819 -2.1842 0
M  V30 6018 N 606.021 0.929856 -1.27246 0
M  V30 6019 C 606.968 2.03017 -1.09785 0
M  V30 6020 C 607.938 1.661 0.000456744 0
M  V30 6021 O 609.123 1.90116 -0.161462 0
M  V30 6022 C 606.263 3.36878 -0.748816 0
M  V30 6023 C 605.376 3.86763 -1.92453 0
M  V30 6024 C 604.511 5.09061 -1.51758 0
M  V30 6025 C 603.55 5.51237 -2.66091 0
M  V30 6026 N 602.687 6.64732 -2.25999 0
M  V30 6027 H 607.527 2.17285 -2.03939 0
M  V30 6028 H 605.064 1.06448 -1.01524 0
M  V30 6029 H 607.022 4.13855 -0.527283 0
M  V30 6030 H 605.652 3.22424 0.155771 0
M  V30 6031 H 604.704 3.06086 -2.25867 0
M  V30 6032 H 606.016 4.13994 -2.78227 0
M  V30 6033 H 605.17 5.93532 -1.25716 0
M  V30 6034 H 603.909 4.83602 -0.630896 0
M  V30 6035 H 602.914 4.65316 -2.92849 0
M  V30 6036 H 604.139 5.78692 -3.55377 0
M  V30 6037 H 602.085 6.40935 -1.3978 0
M  V30 6038 H 602.002 6.91607 -3.05313 0
M  V30 6039 H 603.27 7.52549 -2.03199 0
M  V30 6040 N 607.499 1.09233 1.13605 0
M  V30 6041 C 608.745 0.828385 1.8511 0
M  V30 6042 C 609.078 -0.64437 1.83198 0
M  V30 6043 O 608.353 -1.47428 1.26867 0
M  V30 6044 C 608.636 1.36167 3.33363 0
M  V30 6045 C 608.489 2.90038 3.438 0
M  V30 6046 C 609.808 0.993819 4.28732 0
M  V30 6047 H 606.927 0.30239 0.672108 0
M  V30 6048 H 609.569 1.35339 1.33355 0
M  V30 6049 H 607.719 0.9151 3.77569 0
M  V30 6050 H 609.391 3.43128 3.08319 0
M  V30 6051 H 607.634 3.27271 2.84739 0
M  V30 6052 H 608.305 3.22428 4.48045 0
M  V30 6053 H 610.781 1.37893 3.92587 0
M  V30 6054 H 609.657 1.39403 5.30903 0
M  V30 6055 H 609.918 -0.0982206 4.41991 0
M  V30 6056 N 608.977 -1.30795 0.87923 0
M  V30 6057 C 610.202 -2.01063 0.508769 0
M  V30 6058 C 610.627 -1.65508 -0.893803 0
M  V30 6059 O 609.985 -0.868616 -1.59138 0
M  V30 6060 C 610.033 -3.54054 0.683991 0
M  V30 6061 O 609.137 -4.11498 -0.272654 0
M  V30 6062 H 608.478 -0.632786 0.201191 0
M  V30 6063 H 611.008 -1.66776 1.18519 0
M  V30 6064 H 611.018 -4.03845 0.580798 0
M  V30 6065 H 609.693 -3.79271 1.70665 0
M  V30 6066 H 608.27 -3.72695 -0.12364 0
M  V30 6067 N 610.455 -0.639598 -1.44038 0
M  V30 6068 C 611.685 -0.154586 -2.06021 0
M  V30 6069 C 612.093 1.17951 -1.47933 0
M  V30 6070 O 611.436 1.73627 -0.59994 0
M  V30 6071 C 611.498 0.0255459 -3.59491 0
M  V30 6072 C 611.162 -1.2317 -4.40089 0
M  V30 6073 C 612.159 -2.15735 -4.73027 0
M  V30 6074 C 609.844 -1.46949 -4.80324 0
M  V30 6075 C 611.838 -3.30382 -5.45093 0
M  V30 6076 C 609.525 -2.61891 -5.52138 0
M  V30 6077 C 610.523 -3.53433 -5.84443 0
M  V30 6078 O 610.211 -4.6637 -6.54793 0
M  V30 6079 H 609.943 -0.0808543 -0.671147 0
M  V30 6080 H 612.497 -0.876541 -1.85758 0
M  V30 6081 H 610.727 0.802733 -3.78276 0
M  V30 6082 H 612.416 0.466184 -4.03214 0
M  V30 6083 H 613.182 -1.98602 -4.42473 0
M  V30 6084 H 609.061 -0.765815 -4.54595 0
M  V30 6085 H 612.605 -4.01856 -5.70226 0
M  V30 6086 H 608.502 -2.78964 -5.82108 0
M  V30 6087 H 609.27 -4.6546 -6.73267 0
M  V30 6088 N 611.933 1.52934 -0.380664 0
M  V30 6089 C 613.349 1.59571 -0.0302429 0
M  V30 6090 C 613.549 1.39509 1.45394 0
M  V30 6091 O 612.605 1.20777 2.21741 0
M  V30 6092 C 613.918 2.96519 -0.499691 0
M  V30 6093 C 615.466 3.09672 -0.455204 0
M  V30 6094 C 615.941 4.49056 -0.900703 0
M  V30 6095 N 617.432 4.55215 -0.856367 0
M  V30 6096 C 618.167 5.61282 -1.17259 0
M  V30 6097 N 617.663 6.75035 -1.55885 0
M  V30 6098 N 619.456 5.51343 -1.0944 0
M  V30 6099 H 611.607 1.64224 -1.347 0
M  V30 6100 H 613.87 0.771033 -0.551554 0
M  V30 6101 H 613.576 3.16388 -1.53595 0
M  V30 6102 H 613.45 3.77052 0.105789 0
M  V30 6103 H 615.837 2.89504 0.571949 0
M  V30 6104 H 615.918 2.31113 -1.09638 0
M  V30 6105 H 615.562 4.69964 -1.92604 0
M  V30 6106 H 615.492 5.26068 -0.236629 0
M  V30 6107 H 617.983 3.73546 -0.572013 0
M  V30 6108 H 618.296 7.51926 -1.784 0
M  V30 6109 H 616.641 6.76388 -1.59764 0
M  V30 6110 H 619.832 4.61356 -0.791713 0
M  V30 6111 H 620.005 6.33905 -1.34417 0
M  V30 6112 N 613.412 0.11024 1.57214 0
M  V30 6113 C 614.658 -0.550684 1.9518 0
M  V30 6114 C 614.991 -1.66885 0.993122 0
M  V30 6115 O 614.266 -1.94479 0.0287907 0
M  V30 6116 C 614.549 -1.09163 3.43155 0
M  V30 6117 C 614.402 0.0225198 4.49794 0
M  V30 6118 C 615.721 -1.98527 3.92778 0
M  V30 6119 H 612.84 -0.198706 0.709708 0
M  V30 6120 H 615.482 0.184024 1.89107 0
M  V30 6121 H 613.632 -1.71775 3.48462 0
M  V30 6122 H 615.304 0.657443 4.56591 0
M  V30 6123 H 613.547 0.686868 4.28328 0
M  V30 6124 H 614.218 -0.39706 5.5057 0
M  V30 6125 H 616.694 -1.458 3.8972 0
M  V30 6126 H 615.57 -2.33298 4.96853 0
M  V30 6127 H 615.831 -2.90846 3.32958 0
M  V30 6128 N 614.89 -1.56749 -0.16351 0
M  V30 6129 C 615.853 -1.96121 -1.18613 0
M  V30 6130 C 616.853 -0.845765 -1.36761 0
M  V30 6131 O 618.043 -1.11268 -1.34033 0
M  V30 6132 C 615.175 -2.26282 -2.54969 0
M  V30 6133 H 616.368 -2.87639 -0.848764 0
M  V30 6134 H 613.921 -1.50928 -0.406251 0
M  V30 6135 H 614.656 -1.37504 -2.93706 0
M  V30 6136 H 614.441 -3.07595 -2.43162 0
M  V30 6137 H 615.931 -2.57638 -3.28653 0
M  V30 6138 N 616.368 0.432326 -1.51554 0
M  V30 6139 C 617.331 1.50765 -1.72634 0
M  V30 6140 C 618.331 1.49334 -0.596314 0
M  V30 6141 O 619.521 1.51268 -0.863925 0
M  V30 6142 C 616.653 2.90284 -1.7874 0
M  V30 6143 H 617.846 1.33377 -2.68609 0
M  V30 6144 H 615.399 0.661329 -1.4162 0
M  V30 6145 H 616.134 3.13071 -0.845977 0
M  V30 6146 H 615.919 2.92727 -2.6087 0
M  V30 6147 H 617.409 3.68282 -1.96871 0
M  V30 6148 N 617.846 1.41785 0.688094 0
M  V30 6149 C 618.778 1.40159 1.81351 0
M  V30 6150 C 619.791 0.30262 1.59963 0
M  V30 6151 O 620.98 0.564841 1.69327 0
M  V30 6152 C 618.08 1.16517 3.1824 0
M  V30 6153 C 617.253 2.38597 3.66593 0
M  V30 6154 C 616.312 2.10699 4.82174 0
M  V30 6155 O 615.338 2.83798 4.93404 0
M  V30 6156 N 616.54 1.10187 5.69947 0
M  V30 6157 H 619.305 2.3716 1.83236 0
M  V30 6158 H 616.866 1.36494 0.870697 0
M  V30 6159 H 618.858 0.957941 3.93199 0
M  V30 6160 H 617.428 0.280873 3.11336 0
M  V30 6161 H 616.648 2.74974 2.82459 0
M  V30 6162 H 617.936 3.19919 3.95638 0
M  V30 6163 H 617.334 0.497016 5.63512 0
M  V30 6164 H 615.891 0.954518 6.44773 0
M  V30 6165 N 619.324 -0.923095 1.27737 0
M  V30 6166 C 620.287 -2.00587 1.10894 0
M  V30 6167 C 621.287 -1.60718 0.0514927 0
M  V30 6168 O 622.477 -1.71658 0.296481 0
M  V30 6169 C 619.609 -3.33829 0.690717 0
M  V30 6170 H 620.802 -2.16959 2.07048 0
M  V30 6171 H 618.355 -1.10451 1.1059 0
M  V30 6172 H 619.09 -3.23157 -0.272 0
M  V30 6173 H 618.875 -3.64125 1.45448 0
M  V30 6174 H 620.365 -4.13336 0.595252 0
M  V30 6175 N 620.802 -1.09834 -1.13024 0
M  V30 6176 C 622.05 -0.835297 -1.8403 0
M  V30 6177 C 622.371 0.640944 -1.84165 0
M  V30 6178 O 621.641 1.46517 -1.30037 0
M  V30 6179 H 620.221 -0.306018 -0.681441 0
M  V30 6180 H 622.883 -1.38734 -1.36891 0
M  V30 6181 H 621.979 -1.19258 -2.88416 0
M  V30 6182 N 622.28 1.30327 -0.886154 0
M  V30 6183 C 623.528 1.9571 -0.504195 0
M  V30 6184 C 623.849 1.70294 0.950003 0
M  V30 6185 O 623.119 1.02718 1.66811 0
M  V30 6186 H 621.699 0.72412 -0.183465 0
M  V30 6187 H 624.361 1.58835 -1.12949 0
M  V30 6188 H 623.457 3.04704 -0.675431 0
M  V30 6189 N 623.758 0.647228 1.43697 0
M  V30 6190 C 625.006 0.157876 2.01482 0
M  V30 6191 C 625.327 -1.23039 1.51282 0
M  V30 6192 O 624.597 -1.82071 0.722982 0
M  V30 6193 H 623.177 0.0553745 0.744945 0
M  V30 6194 H 625.839 0.83755 1.75986 0
M  V30 6195 H 624.935 0.137895 3.11795 0
M  V30 6196 N 625.236 -1.5273 0.388769 0
M  V30 6197 C 626.168 -2.24081 -0.481704 0
M  V30 6198 C 627.181 -1.26307 -1.02715 0
M  V30 6199 O 628.37 -1.52386 -0.929565 0
M  V30 6200 C 625.47 -2.94315 -1.68024 0
M  V30 6201 C 624.643 -4.18791 -1.26226 0
M  V30 6202 C 623.702 -4.72028 -2.32542 0
M  V30 6203 O 622.728 -5.35129 -1.93972 0
M  V30 6204 N 623.93 -4.51838 -3.64448 0
M  V30 6205 H 626.695 -2.9942 0.129591 0
M  V30 6206 H 624.256 -1.60465 0.2151 0
M  V30 6207 H 626.248 -3.26831 -2.38671 0
M  V30 6208 H 624.818 -2.22287 -2.19789 0
M  V30 6209 H 624.038 -3.92318 -0.384703 0
M  V30 6210 H 625.326 -4.99668 -0.959647 0
M  V30 6211 H 624.724 -4.01468 -3.98547 0
M  V30 6212 H 623.281 -4.88845 -4.31131 0
M  V30 6213 N 626.714 -0.118576 -1.57153 0
M  V30 6214 C 627.644 0.828436 -2.1831 0
M  V30 6215 C 628.625 1.27758 -1.12303 0
M  V30 6216 O 629.81 1.34026 -1.40537 0
M  V30 6217 C 626.94 2.07876 -2.78217 0
M  V30 6218 C 625.894 1.76742 -3.89803 0
M  V30 6219 C 625.22 3.08801 -4.36516 0
M  V30 6220 C 626.52 1.03606 -5.11921 0
M  V30 6221 H 628.214 0.318824 -2.97698 0
M  V30 6222 H 625.76 0.151911 -1.43196 0
M  V30 6223 H 627.713 2.74584 -3.19659 0
M  V30 6224 H 626.437 2.61161 -1.96118 0
M  V30 6225 H 625.096 1.12424 -3.48936 0
M  V30 6226 H 624.744 3.6002 -3.51276 0
M  V30 6227 H 624.444 2.88743 -5.11763 0
M  V30 6228 H 625.968 3.76627 -4.80608 0
M  V30 6229 H 627.382 1.60467 -5.50385 0
M  V30 6230 H 625.779 0.936454 -5.92748 0
M  V30 6231 H 626.849 0.0227421 -4.84895 0
M  V30 6232 N 628.193 1.56834 0.155195 0
M  V30 6233 C 629.125 1.94235 1.21677 0
M  V30 6234 C 630.138 0.83724 1.39621 0
M  V30 6235 O 631.327 1.11567 1.39338 0
M  V30 6236 C 628.427 2.19402 2.58294 0
M  V30 6237 C 627.6 3.50671 2.61436 0
M  V30 6238 C 626.659 3.64475 3.79532 0
M  V30 6239 O 625.685 4.36945 3.64784 0
M  V30 6240 N 626.887 3.00526 4.96653 0
M  V30 6241 H 629.652 2.85901 0.898932 0
M  V30 6242 H 627.213 1.58185 0.34483 0
M  V30 6243 H 629.205 2.25886 3.35794 0
M  V30 6244 H 627.775 1.34042 2.82403 0
M  V30 6245 H 626.995 3.55702 1.69912 0
M  V30 6246 H 628.283 4.3702 2.60559 0
M  V30 6247 H 627.681 2.41549 5.11538 0
M  V30 6248 H 626.238 3.12583 5.71958 0
M  V30 6249 N 629.671 -0.424282 1.51781 0
M  V30 6250 C 630.601 -1.52305 1.7699 0
M  V30 6251 C 631.582 -1.5839 0.620209 0
M  V30 6252 O 632.767 -1.73908 0.864268 0
M  V30 6253 C 629.897 -2.90271 1.90683 0
M  V30 6254 C 628.851 -2.99043 3.06198 0
M  V30 6255 C 628.177 -4.39116 3.05092 0
M  V30 6256 C 629.477 -2.7192 4.45934 0
M  V30 6257 H 631.171 -1.31461 2.68995 0
M  V30 6258 H 628.717 -0.630985 1.29439 0
M  V30 6259 H 630.67 -3.6711 2.06901 0
M  V30 6260 H 629.394 -3.12376 0.953365 0
M  V30 6261 H 628.053 -2.24646 2.89706 0
M  V30 6262 H 627.701 -4.58207 2.07498 0
M  V30 6263 H 627.401 -4.45912 3.82669 0
M  V30 6264 H 628.925 -5.17911 3.2342 0
M  V30 6265 H 630.339 -3.38487 4.62709 0
M  V30 6266 H 628.736 -2.90111 5.25315 0
M  V30 6267 H 629.806 -1.67445 4.55072 0
M  V30 6268 N 631.149 -1.42148 -0.680565 0
M  V30 6269 C 632.059 -1.47565 -1.82378 0
M  V30 6270 C 633.075 -0.36489 -1.70131 0
M  V30 6271 O 634.251 -0.614916 -1.91783 0
M  V30 6272 C 631.316 -1.37013 -3.18478 0
M  V30 6273 C 630.377 -2.58532 -3.42724 0
M  V30 6274 C 629.61 -2.48473 -4.72331 0
M  V30 6275 O 629.833 -1.51745 -5.49845 0
M  V30 6276 O 628.767 -3.38503 -4.97694 0
M  V30 6277 H 632.593 -2.44045 -1.80764 0
M  V30 6278 H 630.178 -1.23849 -0.835569 0
M  V30 6279 H 632.06 -1.33468 -3.99705 0
M  V30 6280 H 630.735 -0.436552 -3.20743 0
M  V30 6281 H 629.642 -2.67652 -2.61368 0
M  V30 6282 H 630.975 -3.50769 -3.45286 0
M  V30 6283 N 632.627 0.916307 -1.28225 0
M  V30 6284 C 633.574 2.01841 -1.11932 0
M  V30 6285 C 634.544 1.66091 -0.0171604 0
M  V30 6286 O 635.729 1.89934 -0.181617 0
M  V30 6287 C 632.869 3.36065 -0.784504 0
M  V30 6288 C 631.982 3.847 -1.96544 0
M  V30 6289 C 631.117 5.07423 -1.57149 0
M  V30 6290 C 630.156 5.48384 -2.71922 0
M  V30 6291 N 629.293 6.62298 -2.33037 0
M  V30 6292 H 634.133 2.1511 -2.06232 0
M  V30 6293 H 631.67 1.05366 -1.02647 0
M  V30 6294 H 633.628 4.13272 -0.571148 0
M  V30 6295 H 632.258 3.22571 0.121565 0
M  V30 6296 H 631.31 3.03673 -2.291 0
M  V30 6297 H 632.622 4.1102 -2.82603 0
M  V30 6298 H 631.776 5.92165 -1.32004 0
M  V30 6299 H 630.515 4.82906 -0.682153 0
M  V30 6300 H 629.52 4.62184 -2.97768 0
M  V30 6301 H 630.745 5.7489 -3.61494 0
M  V30 6302 H 628.691 6.39416 -1.4657 0
M  V30 6303 H 628.608 6.8833 -3.12631 0
M  V30 6304 H 629.876 7.50352 -2.11169 0
M  V30 6305 N 634.105 1.10431 1.1244 0
M  V30 6306 C 635.068 0.756542 2.16354 0
M  V30 6307 C 636.068 -0.21899 1.59302 0
M  V30 6308 O 637.258 0.00415969 1.742 0
M  V30 6309 C 634.39 0.120612 3.40687 0
M  V30 6310 H 635.583 1.67696 2.48632 0
M  V30 6311 H 633.136 0.904832 1.27446 0
M  V30 6312 H 633.871 -0.810536 3.14008 0
M  V30 6313 H 633.656 0.822693 3.83372 0
M  V30 6314 H 635.146 -0.106945 4.17463 0
M  V30 6315 N 635.583 -1.29855 0.893053 0
M  V30 6316 C 636.831 -1.9544 0.514566 0
M  V30 6317 C 637.152 -1.70795 -0.940959 0
M  V30 6318 O 636.422 -1.03601 -1.66264 0
M  V30 6319 H 635.002 -0.723137 0.187302 0
M  V30 6320 H 637.664 -1.58234 1.13789 0
M  V30 6321 H 636.76 -3.04341 0.691581 0
M  V30 6322 N 637.061 -0.65484 -1.43351 0
M  V30 6323 C 638.309 -0.168559 -2.01396 0
M  V30 6324 C 638.63 1.22235 -1.51933 0
M  V30 6325 O 637.9 1.81685 -0.732627 0
M  V30 6326 H 636.48 -0.0593244 -0.744641 0
M  V30 6327 H 639.142 -0.846871 -1.75539 0
M  V30 6328 H 638.238 -0.154428 -3.11718 0
M  V30 6329 N 638.539 1.52521 -0.396863 0
M  V30 6330 C 639.764 2.06571 0.185258 0
M  V30 6331 C 640.189 1.26605 1.39115 0
M  V30 6332 O 639.547 0.293055 1.78916 0
M  V30 6333 C 639.595 3.5674 0.526189 0
M  V30 6334 O 638.699 3.7929 1.61903 0
M  V30 6335 H 638.04 0.663712 0.0195474 0
M  V30 6336 H 640.57 1.966 -0.566519 0
M  V30 6337 H 640.58 4.00311 0.788338 0
M  V30 6338 H 639.255 4.14379 -0.355397 0
M  V30 6339 H 637.832 3.47605 1.35 0
M  V30 6340 N 640.017 0.126909 1.57088 0
M  V30 6341 C 641.428 -0.397201 1.82426 0
M  V30 6342 C 641.779 -1.66084 1.04453 0
M  V30 6343 O 640.904 -2.14534 0.283552 0
M  V30 6344 C 641.499 -0.727411 3.30899 0
M  V30 6345 C 640.058 -1.19612 3.56889 0
M  V30 6346 C 639.205 -0.20885 2.76512 0
M  V30 6347 H 642.156 0.351924 1.54749 0
M  V30 6348 H 642.177 -1.58407 3.45959 0
M  V30 6349 H 641.689 0.19247 3.87622 0
M  V30 6350 H 639.79 -2.13263 3.05532 0
M  V30 6351 H 639.903 -1.13598 4.65438 0
M  V30 6352 H 638.267 -0.697479 2.44964 0
M  V30 6353 H 639.05 0.704267 3.35998 0
M  V30 6354 N 641.495 -1.56914 -0.146875 0
M  V30 6355 C 642.741 -1.83628 -0.860741 0
M  V30 6356 C 643.074 -0.708528 -1.80813 0
M  V30 6357 O 642.349 0.287838 -1.92358 0
M  V30 6358 C 642.632 -3.20836 -1.63511 0
M  V30 6359 C 642.485 -4.44174 -0.709199 0
M  V30 6360 C 643.804 -3.55268 -2.59756 0
M  V30 6361 H 640.923 -0.667949 -0.311468 0
M  V30 6362 H 643.565 -1.89582 -0.125936 0
M  V30 6363 H 641.715 -3.15891 -2.26153 0
M  V30 6364 H 643.387 -4.61205 -0.0937781 0
M  V30 6365 H 641.63 -4.33796 -0.0187856 0
M  V30 6366 H 642.301 -5.36785 -1.28707 0
M  V30 6367 H 644.777 -3.60824 -2.07232 0
M  V30 6368 H 643.653 -4.52303 -3.10987 0
M  V30 6369 H 643.914 -2.81231 -3.41118 0
M  V30 6370 N 642.974 0.416227 -1.52004 0
M  V30 6371 C 644.204 1.18401 -1.69307 0
M  V30 6372 C 644.612 1.84943 -0.399072 0
M  V30 6373 O 643.955 1.72406 0.634177 0
M  V30 6374 C 644.017 2.29465 -2.76742 0
M  V30 6375 C 643.681 1.83117 -4.18709 0
M  V30 6376 C 644.678 1.32286 -5.02789 0
M  V30 6377 C 642.363 1.90167 -4.64911 0
M  V30 6378 C 644.357 0.891178 -6.31139 0
M  V30 6379 C 642.044 1.4661 -5.93253 0
M  V30 6380 C 643.042 0.961696 -6.76196 0
M  V30 6381 O 642.73 0.532388 -8.02135 0
M  V30 6382 H 642.462 0.362098 -0.570843 0
M  V30 6383 H 645.016 0.496764 -1.99302 0
M  V30 6384 H 643.246 3.01531 -2.42107 0
M  V30 6385 H 644.935 2.91252 -2.82713 0
M  V30 6386 H 645.701 1.26218 -4.68288 0
M  V30 6387 H 641.58 2.28371 -4.00459 0
M  V30 6388 H 645.124 0.496788 -6.95829 0
M  V30 6389 H 641.021 1.52355 -6.27263 0
M  V30 6390 H 641.789 0.656339 -8.15864 0
M  V30 6391 N 644.452 1.42507 0.673017 0
M  V30 6392 C 645.677 1.4668 1.46627 0
M  V30 6393 C 646.102 0.080066 1.8793 0
M  V30 6394 O 645.46 -0.921879 1.56112 0
M  V30 6395 C 645.508 2.40091 2.69051 0
M  V30 6396 O 644.612 1.8735 3.67387 0
M  V30 6397 H 643.953 0.496908 0.44043 0
M  V30 6398 H 646.483 1.87215 0.825334 0
M  V30 6399 H 646.493 2.56731 3.17101 0
M  V30 6400 H 645.168 3.4084 2.3833 0
M  V30 6401 H 643.745 1.80274 3.26429 0
M  V30 6402 N 645.93 -0.909495 1.28709 0
M  V30 6403 C 646.878 -2.03381 1.12866 0
M  V30 6404 C 647.872 -1.69335 0.0468074 0
M  V30 6405 O 649.078 -1.78819 0.205891 0
M  V30 6406 H 645.453 -0.666452 0.348348 0
M  V30 6407 H 647.424 -2.13885 2.08077 0
M  V30 6408 C 646.173 -3.38092 0.811742 0
M  V30 6409 H 645.496 -3.64786 1.63619 0
M  V30 6410 H 646.936 -4.17477 0.740869 0
M  V30 6411 C 645.395 -3.33395 -0.484679 0
M  V30 6412 O 645.925 -3.72089 -1.5137 0
M  V30 6413 N 644.131 -2.86491 -0.486961 0
M  V30 6414 H 643.678 -2.55199 0.350877 0
M  V30 6415 H 643.636 -2.83731 -1.3544 0
M  V30 6416 N 647.408 -1.11026 -1.11852 0
M  V30 6417 C 648.657 -0.851249 -1.82857 0
M  V30 6418 C 648.97 0.62514 -1.85341 0
M  V30 6419 O 650.176 1.00026 -2.52403 0
M  V30 6420 C 648.632 -1.47309 -3.28372 0
M  V30 6421 C 648.24 -2.9832 -3.34229 0
M  V30 6422 C 649.984 -1.29373 -4.04306 0
M  V30 6423 C 647.891 -3.53509 -4.74115 0
M  V30 6424 H 646.821 -0.314794 -0.685143 0
M  V30 6425 H 649.472 -1.33499 -1.25898 0
M  V30 6426 H 647.854 -0.917017 -3.85236 0
M  V30 6427 H 649.028 -3.60295 -2.87271 0
M  V30 6428 H 647.343 -3.15482 -2.71772 0
M  V30 6429 H 649.94 -1.68042 -5.07608 0
M  V30 6430 H 650.283 -0.235879 -4.15631 0
M  V30 6431 H 650.816 -1.8182 -3.53817 0
M  V30 6432 H 647.555 -4.58987 -4.67986 0
M  V30 6433 H 647.075 -2.96305 -5.21501 0
M  V30 6434 H 648.754 -3.51693 -5.43066 0
M  V30 6435 N 648.886 1.2938 -0.899927 0
M  V30 6436 C 649.834 2.29675 -0.367698 0
M  V30 6437 C 650.828 1.60787 0.533282 0
M  V30 6438 O 652.034 1.75126 0.416058 0
M  V30 6439 H 648.409 0.745284 -0.100279 0
M  V30 6440 H 650.38 2.72008 -1.22696 0
M  V30 6441 C 649.129 3.45512 0.389483 0
M  V30 6442 H 648.452 3.98713 -0.294575 0
M  V30 6443 H 649.892 4.17725 0.726744 0
M  V30 6444 C 648.351 2.969 1.59223 0
M  V30 6445 O 648.881 2.98195 2.69152 0
M  V30 6446 N 647.087 2.52728 1.43447 0
M  V30 6447 H 646.634 2.51873 0.540148 0
M  V30 6448 H 646.592 2.20561 2.24054 0
M  V30 6449 N 650.364 0.662433 1.43002 0
M  V30 6450 C 651.61 0.179857 2.02001 0
M  V30 6451 C 651.943 -1.20625 1.52195 0
M  V30 6452 O 651.218 -1.80726 0.718911 0
M  V30 6453 C 651.501 0.200845 3.59539 0
M  V30 6454 C 651.354 1.62153 4.19555 0
M  V30 6455 C 652.673 -0.457738 4.37713 0
M  V30 6456 H 649.792 0.0668305 0.733964 0
M  V30 6457 H 652.434 0.84487 1.70182 0
M  V30 6458 H 650.584 -0.365411 3.86778 0
M  V30 6459 H 652.256 2.23908 4.03315 0
M  V30 6460 H 650.499 2.16601 3.75854 0
M  V30 6461 H 651.17 1.58799 5.28665 0
M  V30 6462 H 653.646 0.0241495 4.16093 0
M  V30 6463 H 652.522 -0.412363 5.47349 0
M  V30 6464 H 652.783 -1.53336 4.14657 0
M  V30 6465 N 651.842 -1.52309 0.404946 0
M  V30 6466 C 653.253 -1.86585 -0.0655926 0
M  V30 6467 C 653.604 -1.3239 -1.44801 0
M  V30 6468 O 652.729 -0.6615 -2.06042 0
M  V30 6469 C 653.324 -3.38566 -0.125801 0
M  V30 6470 C 651.883 -3.72497 -0.540666 0
M  V30 6471 C 651.03 -2.75806 0.287487 0
M  V30 6472 H 653.981 -1.45995 0.622185 0
M  V30 6473 H 654.002 -3.68658 -0.941888 0
M  V30 6474 H 653.514 -3.77981 0.880473 0
M  V30 6475 H 651.615 -3.38659 -1.55373 0
M  V30 6476 H 651.728 -4.78234 -0.287956 0
M  V30 6477 H 650.092 -2.53474 -0.249561 0
M  V30 6478 H 650.875 -3.18059 1.29203 0
M  V30 6479 N 653.32 -0.135238 -1.57019 0
M  V30 6480 C 654.283 0.794707 -2.14981 0
M  V30 6481 C 655.283 1.18342 -1.08866 0
M  V30 6482 O 656.473 1.10627 -1.34563 0
M  V30 6483 C 653.605 2.07685 -2.70333 0
M  V30 6484 H 654.798 0.290696 -2.98488 0
M  V30 6485 H 652.351 0.114128 -1.55883 0
M  V30 6486 H 653.086 2.6248 -1.9046 0
M  V30 6487 H 652.871 1.80745 -3.47957 0
M  V30 6488 H 654.361 2.74127 -3.1503 0
M  V30 6489 N 654.798 1.5699 0.138552 0
M  V30 6490 C 656.026 1.87976 0.864437 0
M  V30 6491 C 656.441 0.724372 1.74351 0
M  V30 6492 O 655.798 -0.305575 1.79924 0
M  V30 6493 C 655.849 3.18276 1.71414 0
M  V30 6494 O 655.57 4.29365 0.870487 0
M  V30 6495 C 657.071 3.62834 2.54688 0
M  V30 6496 H 654.291 0.622878 0.249528 0
M  V30 6497 H 656.835 2.04094 0.128805 0
M  V30 6498 H 654.99 3.03886 2.40274 0
M  V30 6499 H 655.404 5.03924 1.45466 0
M  V30 6500 H 656.878 4.5682 3.0987 0
M  V30 6501 H 657.355 2.88533 3.31127 0
M  V30 6502 H 657.961 3.79946 1.91105 0
M  V30 6503 N 656.276 -0.40816 1.52223 0
M  V30 6504 C 657.524 -1.15274 1.66001 0
M  V30 6505 C 657.845 -1.91003 0.392803 0
M  V30 6506 O 657.115 -1.8673 -0.592336 0
M  V30 6507 H 655.695 -0.428526 0.611861 0
M  V30 6508 H 658.357 -0.46512 1.89269 0
M  V30 6509 H 657.453 -1.86628 2.50153 0
M  V30 6510 N 657.755 -1.42862 -0.66545 0
M  V30 6511 C 659.003 -1.43546 -1.42264 0
M  V30 6512 C 659.324 -0.0563116 -1.94919 0
M  V30 6513 O 658.594 0.906568 -1.73661 0
M  V30 6514 H 657.174 -0.528464 -0.527953 0
M  V30 6515 H 659.836 -1.78363 -0.785665 0
M  V30 6516 H 658.932 -2.14079 -2.27105 0
M  V30 6517 N 659.233 0.902656 -1.29189 0
M  V30 6518 C 660.479 1.6555 -1.18172 0
M  V30 6519 C 660.834 1.90569 0.264788 0
M  V30 6520 O 660.127 1.50292 1.1884 0
M  V30 6521 C 660.321 3.011 -1.92545 0
M  V30 6522 C 660.15 2.89312 -3.4428 0
M  V30 6523 C 658.92 2.90239 -4.1363 0
M  V30 6524 C 661.118 2.6656 -4.3983 0
M  V30 6525 N 659.1 2.69156 -5.5175 0
M  V30 6526 C 660.471 2.54429 -5.6539 0
M  V30 6527 C 662.526 2.51644 -4.29627 0
M  V30 6528 C 661.229 2.289 -6.81907 0
M  V30 6529 C 663.255 2.27498 -5.45892 0
M  V30 6530 C 662.617 2.16129 -6.70423 0
M  V30 6531 H 658.716 0.611519 -0.48741 0
M  V30 6532 H 661.3 1.06514 -1.62981 0
M  V30 6533 H 659.471 3.58202 -1.50154 0
M  V30 6534 H 661.203 3.65471 -1.73818 0
M  V30 6535 H 657.958 3.01412 -3.65305 0
M  V30 6536 H 658.382 2.61676 -6.24383 0
M  V30 6537 H 663.024 2.59178 -3.34045 0
M  V30 6538 H 660.742 2.20104 -7.77547 0
M  V30 6539 H 664.328 2.16805 -5.39895 0
M  V30 6540 H 663.208 1.97703 -7.5887 0
M  V30 6541 N 660.711 1.11618 1.11262 0
M  V30 6542 C 661.643 0.734015 2.17129 0
M  V30 6543 C 662.656 -0.235243 1.61091 0
M  V30 6544 O 663.845 -0.0178597 1.78491 0
M  V30 6545 C 660.945 0.0643682 3.38839 0
M  V30 6546 C 660.118 1.06092 4.24339 0
M  V30 6547 C 659.177 0.420482 5.24517 0
M  V30 6548 O 658.203 1.07495 5.58957 0
M  V30 6549 N 659.405 -0.815828 5.74739 0
M  V30 6550 H 662.17 1.64492 2.50524 0
M  V30 6551 H 659.731 1.00664 1.26801 0
M  V30 6552 H 661.723 -0.375851 4.02951 0
M  V30 6553 H 660.293 -0.749147 3.03491 0
M  V30 6554 H 659.513 1.67903 3.56654 0
M  V30 6555 H 660.801 1.73507 4.78302 0
M  V30 6556 H 660.199 -1.36668 5.48943 0
M  V30 6557 H 658.756 -1.199 6.40677 0
M  V30 6558 N 662.189 -1.289 0.906776 0
M  V30 6559 C 663.137 -2.29477 0.379873 0
M  V30 6560 C 664.131 -1.61068 -0.524747 0
M  V30 6561 O 665.337 -1.75344 -0.406765 0
M  V30 6562 H 661.712 -0.744742 0.10423 0
M  V30 6563 H 663.683 -2.71353 1.24137 0
M  V30 6564 C 662.432 -3.45713 -0.371154 0
M  V30 6565 H 661.755 -3.98551 0.315716 0
M  V30 6566 H 663.195 -4.18105 -0.704581 0
M  V30 6567 C 661.654 -2.9774 -1.57646 0
M  V30 6568 O 662.184 -2.99618 -2.67567 0
M  V30 6569 N 660.39 -2.53485 -1.42105 0
M  V30 6570 H 659.937 -2.52156 -0.526783 0
M  V30 6571 H 659.895 -2.21747 -2.22881 0
M  V30 6572 N 663.667 -0.670007 -1.42649 0
M  V30 6573 C 664.913 -0.19923 -2.02422 0
M  V30 6574 C 665.268 1.17947 -1.52007 0
M  V30 6575 O 664.561 1.77939 -0.710512 0
M  V30 6576 C 664.755 -0.168298 -3.57004 0
M  V30 6577 C 664.584 -1.54246 -4.22419 0
M  V30 6578 C 663.354 -2.13904 -4.57792 0
M  V30 6579 C 665.552 -2.4842 -4.50324 0
M  V30 6580 N 663.534 -3.44151 -5.08364 0
M  V30 6581 C 664.905 -3.63317 -5.02395 0
M  V30 6582 C 666.96 -2.47011 -4.32308 0
M  V30 6583 C 665.663 -4.77051 -5.38345 0
M  V30 6584 C 667.689 -3.59838 -4.6933 0
M  V30 6585 C 667.051 -4.73462 -5.21549 0
M  V30 6586 H 663.15 -0.117717 -0.773089 0
M  V30 6587 H 665.734 -0.881955 -1.73579 0
M  V30 6588 H 663.905 0.483824 -3.85375 0
M  V30 6589 H 665.637 0.314914 -4.03473 0
M  V30 6590 H 662.392 -1.66441 -4.4339 0
M  V30 6591 H 662.816 -4.10846 -5.38084 0
M  V30 6592 H 667.458 -1.60394 -3.91195 0
M  V30 6593 H 665.176 -5.64347 -5.78393 0
M  V30 6594 H 668.762 -3.59969 -4.57071 0
M  V30 6595 H 667.642 -5.59321 -5.49663 0
M  V30 6596 N 665.145 1.52092 -0.413018 0
M  V30 6597 C 666.077 2.24819 0.445994 0
M  V30 6598 C 667.09 1.27925 1.00692 0
M  V30 6599 O 668.279 1.53845 0.905204 0
M  V30 6600 C 665.379 2.96951 1.6332 0
M  V30 6601 C 664.552 4.20746 1.19548 0
M  V30 6602 C 663.611 4.75668 2.25003 0
M  V30 6603 O 662.637 5.38148 1.85434 0
M  V30 6604 N 663.839 4.57579 3.57214 0
M  V30 6605 H 666.604 2.99176 -0.177209 0
M  V30 6606 H 664.165 1.60102 -0.240601 0
M  V30 6607 H 666.157 3.30586 2.33441 0
M  V30 6608 H 664.727 2.25756 2.16225 0
M  V30 6609 H 663.947 3.92881 0.32224 0
M  V30 6610 H 665.235 5.01132 0.880033 0
M  V30 6611 H 664.633 4.07758 3.92109 0
M  V30 6612 H 663.19 4.95642 4.23299 0
M  V30 6613 N 666.623 0.143563 1.56945 0
M  V30 6614 C 667.851 -0.515447 2.00377 0
M  V30 6615 C 668.266 -1.58643 1.02361 0
M  V30 6616 O 667.623 -1.82489 0.0201039 0
M  V30 6617 C 667.674 -1.11923 3.43737 0
M  V30 6618 O 667.395 -0.0910318 4.38005 0
M  V30 6619 C 668.896 -1.85918 4.02429 0
M  V30 6620 H 666.116 -0.134478 0.657386 0
M  V30 6621 H 668.66 0.237135 2.0312 0
M  V30 6622 H 666.815 -1.82245 3.41856 0
M  V30 6623 H 667.229 -0.532916 5.21786 0
M  V30 6624 H 668.703 -2.2346 5.04747 0
M  V30 6625 H 669.18 -2.7438 3.42947 0
M  V30 6626 H 669.786 -1.20303 4.07931 0
M  V30 6627 N 668.101 -1.57061 -0.130224 0
M  V30 6628 C 669.35 -1.83446 -0.838488 0
M  V30 6629 C 669.663 -0.727468 -1.81569 0
M  V30 6630 O 670.869 -0.877394 -2.56932 0
M  V30 6631 C 669.325 -3.25201 -1.54182 0
M  V30 6632 C 668.933 -4.4388 -0.606178 0
M  V30 6633 C 670.677 -3.60844 -2.23588 0
M  V30 6634 C 668.584 -5.76661 -1.31209 0
M  V30 6635 H 667.514 -0.684185 -0.316871 0
M  V30 6636 H 670.165 -1.83273 -0.0912059 0
M  V30 6637 H 668.547 -3.1981 -2.33533 0
M  V30 6638 H 669.721 -4.60545 0.153308 0
M  V30 6639 H 668.036 -4.16395 -0.0196705 0
M  V30 6640 H 670.633 -4.57313 -2.77072 0
M  V30 6641 H 670.976 -2.87724 -3.00867 0
M  V30 6642 H 671.509 -3.67971 -1.51137 0
M  V30 6643 H 668.248 -6.52922 -0.580823 0
M  V30 6644 H 667.768 -5.63902 -2.04387 0
M  V30 6645 H 669.447 -6.20035 -1.8484 0
M  V30 6646 N 669.579 0.400081 -1.52437 0
M  V30 6647 C 670.804 1.17221 -1.71096 0
M  V30 6648 C 671.229 1.83269 -0.423565 0
M  V30 6649 O 670.587 1.70378 0.619751 0
M  V30 6650 C 670.635 2.20425 -2.85386 0
M  V30 6651 O 669.739 3.26769 -2.51586 0
M  V30 6652 H 669.08 0.341766 -0.569291 0
M  V30 6653 H 671.61 0.467772 -1.99181 0
M  V30 6654 H 671.62 2.64605 -3.10561 0
M  V30 6655 H 670.295 1.71737 -3.78786 0
M  V30 6656 H 668.872 2.87804 -2.37114 0
M  V30 6657 N 671.057 1.43213 0.657864 0
M  V30 6658 C 672.007 1.44459 1.76396 0
M  V30 6659 C 672.991 0.313641 1.57814 0
M  V30 6660 O 674.183 0.557094 1.68004 0
M  V30 6661 C 671.312 1.36586 3.14959 0
M  V30 6662 C 670.398 2.54692 3.39106 0
M  V30 6663 N 670.789 3.80059 3.33749 0
M  V30 6664 C 669.087 2.49316 3.69807 0
M  V30 6665 C 669.788 4.58606 3.57849 0
M  V30 6666 N 668.764 3.89267 3.79437 0
M  V30 6667 H 672.566 2.39265 1.70673 0
M  V30 6668 H 670.08 1.378 0.859357 0
M  V30 6669 H 672.077 1.35561 3.94245 0
M  V30 6670 H 670.737 0.427956 3.21867 0
M  V30 6671 H 671.748 4.12414 3.13266 0
M  V30 6672 H 668.425 1.6419 3.83859 0
M  V30 6673 H 669.815 5.67619 3.59525 0
M  V30 6674 N 672.536 -0.895792 1.29666 0
M  V30 6675 C 673.484 -2.02173 1.15017 0
M  V30 6676 C 674.478 -1.69276 0.0647651 0
M  V30 6677 O 675.684 -1.7859 0.224846 0
M  V30 6678 H 672.059 -0.662719 0.355397 0
M  V30 6679 H 674.03 -2.11666 2.10334 0
M  V30 6680 C 672.779 -3.37212 0.847555 0
M  V30 6681 H 672.102 -3.6303 1.67479 0
M  V30 6682 H 673.542 -4.16668 0.785106 0
M  V30 6683 C 672.001 -3.33891 -0.44929 0
M  V30 6684 O 672.531 -3.73673 -1.47415 0
M  V30 6685 N 670.737 -2.86991 -0.456547 0
M  V30 6686 H 670.284 -2.54813 0.377925 0
M  V30 6687 H 670.242 -2.85152 -1.32423 0
M  V30 6688 N 674.014 -1.12206 -1.10668 0
M  V30 6689 C 675.26 -0.877172 -1.82848 0
M  V30 6690 C 675.593 0.595571 -1.84842 0
M  V30 6691 O 674.868 1.44013 -1.30731 0
M  V30 6692 C 675.151 -1.44957 -3.29635 0
M  V30 6693 C 675.004 -2.99051 -3.35989 0
M  V30 6694 C 676.323 -1.10714 -4.25946 0
M  V30 6695 H 673.442 -0.320103 -0.663854 0
M  V30 6696 H 676.084 -1.38827 -1.2972 0
M  V30 6697 H 674.234 -1.01488 -3.7501 0
M  V30 6698 H 675.906 -3.51182 -2.99113 0
M  V30 6699 H 674.149 -3.34705 -2.75962 0
M  V30 6700 H 674.82 -3.34194 -4.39339 0
M  V30 6701 H 677.296 -1.48254 -3.88793 0
M  V30 6702 H 676.172 -1.5343 -5.2702 0
M  V30 6703 H 676.433 -0.019 -4.42096 0
M  V30 6704 N 675.492 1.28418 -0.913599 0
M  V30 6705 C 676.738 1.9527 -0.547484 0
M  V30 6706 C 677.071 1.71745 0.906486 0
M  V30 6707 O 676.346 1.03834 1.64465 0
M  V30 6708 C 676.629 3.49748 -0.857205 0
M  V30 6709 C 676.482 3.82675 -2.3639 0
M  V30 6710 C 677.801 4.3868 -0.353258 0
M  V30 6711 H 674.92 0.709236 -0.200381 0
M  V30 6712 H 677.562 1.51789 -1.14281 0
M  V30 6713 H 675.712 3.86915 -0.350548 0
M  V30 6714 H 677.384 3.55378 -2.94116 0
M  V30 6715 H 675.627 3.29724 -2.81894 0
M  V30 6716 H 676.298 4.90547 -2.53115 0
M  V30 6717 H 678.774 4.08584 -0.787288 0
M  V30 6718 H 677.65 5.45621 -0.599049 0
M  V30 6719 H 677.911 4.35753 0.746413 0
M  V30 6720 N 676.97 0.677563 1.42291 0
M  V30 6721 C 677.9 0.014968 2.33495 0
M  V30 6722 C 678.881 -0.786376 1.50831 0
M  V30 6723 O 680.066 -0.742975 1.79426 0
M  V30 6724 C 677.196 -0.935023 3.34477 0
M  V30 6725 C 676.15 -0.242074 4.27315 0
M  V30 6726 C 675.476 -1.30519 5.18526 0
M  V30 6727 C 676.776 0.880604 5.14823 0
M  V30 6728 H 678.47 0.776671 2.89151 0
M  V30 6729 H 676.016 0.37494 1.39033 0
M  V30 6730 H 677.969 -1.40766 3.97194 0
M  V30 6731 H 676.693 -1.72818 2.77131 0
M  V30 6732 H 675.352 0.210351 3.65996 0
M  V30 6733 H 675 -2.09041 4.57505 0
M  V30 6734 H 674.7 -0.846652 5.81468 0
M  V30 6735 H 676.224 -1.7787 5.84119 0
M  V30 6736 H 677.638 0.489062 5.7121 0
M  V30 6737 H 676.035 1.26511 5.86613 0
M  V30 6738 H 677.105 1.72818 4.53059 0
M  V30 6739 N 678.448 -1.51871 0.421078 0
M  V30 6740 C 679.859 -1.86644 -0.0457991 0
M  V30 6741 C 680.21 -1.33919 -1.43388 0
M  V30 6742 O 679.335 -0.683316 -2.05328 0
M  V30 6743 C 679.93 -3.38681 -0.0898844 0
M  V30 6744 C 678.489 -3.73049 -0.501127 0
M  V30 6745 C 677.636 -2.75485 0.316723 0
M  V30 6746 H 680.587 -1.45327 0.637635 0
M  V30 6747 H 680.608 -3.69636 -0.902734 0
M  V30 6748 H 680.12 -3.77025 0.920513 0
M  V30 6749 H 678.221 -3.40288 -1.51773 0
M  V30 6750 H 678.334 -4.78512 -0.237217 0
M  V30 6751 H 676.698 -2.53725 -0.222663 0
M  V30 6752 H 677.481 -3.16671 1.32569 0
M  V30 6753 N 679.926 -0.151884 -1.56866 0
M  V30 6754 C 680.889 0.771861 -2.15812 0
M  V30 6755 C 681.889 1.17181 -1.10115 0
M  V30 6756 O 683.079 1.09194 -1.35729 0
M  V30 6757 C 680.211 2.04806 -2.7252 0
M  V30 6758 H 681.404 0.259021 -2.98779 0
M  V30 6759 H 678.957 0.097588 -1.55995 0
M  V30 6760 H 679.692 2.60445 -1.93233 0
M  V30 6761 H 679.477 1.77044 -3.49854 0
M  V30 6762 H 680.967 2.70771 -3.1792 0
M  V30 6763 N 681.404 1.57128 0.121893 0
M  V30 6764 C 682.652 1.84335 0.828548 0
M  V30 6765 C 682.973 0.736632 1.80551 0
M  V30 6766 O 682.243 -0.23962 1.94429 0
M  V30 6767 H 680.823 0.680108 0.30897 0
M  V30 6768 H 683.485 1.9459 0.109906 0
M  V30 6769 H 682.581 2.80152 1.37554 0
M  V30 6770 N 682.882 -0.391992 1.52647 0
M  V30 6771 C 683.792 -1.503 1.80131 0
M  V30 6772 C 684.808 -1.59825 0.687882 0
M  V30 6773 O 685.984 -1.76218 0.975149 0
M  V30 6774 C 683.049 -2.85863 1.96171 0
M  V30 6775 C 682.11 -2.86084 3.20085 0
M  V30 6776 C 681.343 -4.15181 3.35351 0
M  V30 6777 O 681.566 -5.09981 2.55491 0
M  V30 6778 O 680.5 -4.22603 4.28591 0
M  V30 6779 H 684.326 -1.30007 2.74466 0
M  V30 6780 H 681.911 -0.579539 1.37701 0
M  V30 6781 H 683.793 -3.66236 2.08445 0
M  V30 6782 H 682.468 -3.06189 1.05025 0
M  V30 6783 H 681.375 -2.04504 3.13256 0
M  V30 6784 H 682.708 -2.7071 4.11068 0
M  V30 6785 N 684.36 -1.4356 -0.65026 0
M  V30 6786 C 685.292 -1.44918 -1.77571 0
M  V30 6787 C 686.305 -0.344925 -1.59104 0
M  V30 6788 O 687.494 -0.609537 -1.6777 0
M  V30 6789 C 684.594 -1.24914 -3.15039 0
M  V30 6790 C 683.767 -2.48232 -3.60138 0
M  V30 6791 C 682.826 -2.23409 -4.76419 0
M  V30 6792 O 681.852 -2.9678 -4.85706 0
M  V30 6793 N 683.054 -1.25259 -5.66825 0
M  V30 6794 H 685.819 -2.41935 -1.76883 0
M  V30 6795 H 683.38 -1.38754 -0.834202 0
M  V30 6796 H 685.372 -1.06185 -3.90521 0
M  V30 6797 H 683.942 -0.363319 -3.10481 0
M  V30 6798 H 683.162 -2.82366 -2.75069 0
M  V30 6799 H 684.45 -3.30296 -3.87017 0
M  V30 6800 H 683.848 -0.646246 -5.61997 0
M  V30 6801 H 682.405 -1.12513 -6.42016 0
M  V30 6802 N 685.838 0.888903 -1.30139 0
M  V30 6803 C 686.768 2.01046 -1.18755 0
M  V30 6804 C 687.749 1.69916 -0.0791438 0
M  V30 6805 O 688.934 1.92445 -0.260498 0
M  V30 6806 C 686.064 3.36109 -0.874518 0
M  V30 6807 C 685.018 3.81486 -1.94043 0
M  V30 6808 C 684.344 5.13796 -1.48047 0
M  V30 6809 C 685.644 4.00637 -3.35093 0
M  V30 6810 H 687.338 2.10828 -2.12584 0
M  V30 6811 H 684.884 1.01298 -1.02346 0
M  V30 6812 H 686.837 4.14089 -0.781548 0
M  V30 6813 H 685.561 3.26449 0.0994519 0
M  V30 6814 H 684.22 3.05731 -2.02297 0
M  V30 6815 H 683.868 5.0056 -0.494878 0
M  V30 6816 H 683.568 5.45127 -2.19341 0
M  V30 6817 H 685.092 5.94305 -1.40121 0
M  V30 6818 H 686.506 4.69067 -3.2962 0
M  V30 6819 H 684.903 4.43339 -4.04438 0
M  V30 6820 H 685.973 3.0462 -3.77273 0
M  V30 6821 N 687.317 1.12792 1.10072 0
M  V30 6822 C 688.566 0.880232 1.81479 0
M  V30 6823 C 688.879 -0.595575 1.86312 0
M  V30 6824 O 690.085 -0.959979 2.53962 0
M  V30 6825 C 688.541 1.52514 3.25987 0
M  V30 6826 C 688.149 3.036 3.29441 0
M  V30 6827 C 689.893 1.35788 4.02196 0
M  V30 6828 C 687.8 3.61007 4.68431 0
M  V30 6829 H 686.73 0.325654 0.680048 0
M  V30 6830 H 689.381 1.35485 1.23758 0
M  V30 6831 H 687.763 0.978188 3.83728 0
M  V30 6832 H 688.937 3.64819 2.81502 0
M  V30 6833 H 687.252 3.19765 2.66719 0
M  V30 6834 H 689.849 1.76096 5.0487 0
M  V30 6835 H 690.192 0.301972 4.15203 0
M  V30 6836 H 690.725 1.87426 3.50879 0
M  V30 6837 H 687.464 4.66375 4.60625 0
M  V30 6838 H 686.984 3.04564 5.16721 0
M  V30 6839 H 688.663 3.60289 5.37402 0
M  V30 6840 N 688.795 -1.27931 0.920396 0
M  V30 6841 C 689.758 -2.25345 0.41858 0
M  V30 6842 C 690.758 -1.54116 -0.458798 0
M  V30 6843 O 691.948 -1.72235 -0.260912 0
M  V30 6844 C 689.08 -3.38556 -0.399104 0
M  V30 6845 H 690.273 -2.71251 1.27918 0
M  V30 6846 H 687.826 -1.39728 0.700406 0
M  V30 6847 H 688.561 -2.98021 -1.27882 0
M  V30 6848 H 688.346 -3.91426 0.229863 0
M  V30 6849 H 689.836 -4.10976 -0.740817 0
M  V30 6850 N 690.273 -0.685099 -1.4193 0
M  V30 6851 C 691.203 -0.0273506 -2.33484 0
M  V30 6852 C 692.184 0.778366 -1.51246 0
M  V30 6853 O 693.369 0.733449 -1.79817 0
M  V30 6854 C 690.499 0.917272 -3.34968 0
M  V30 6855 C 689.453 0.21941 -4.27437 0
M  V30 6856 C 688.779 1.27768 -5.1921 0
M  V30 6857 C 690.079 -0.907894 -5.14349 0
M  V30 6858 H 691.773 -0.791994 -2.88735 0
M  V30 6859 H 689.319 -0.382308 -1.38832 0
M  V30 6860 H 691.272 1.38657 -3.97935 0
M  V30 6861 H 689.996 1.71346 -2.78043 0
M  V30 6862 H 688.655 -0.229757 -3.65879 0
M  V30 6863 H 688.303 2.06612 -4.58607 0
M  V30 6864 H 688.003 0.815803 -5.81909 0
M  V30 6865 H 689.527 1.7477 -5.85054 0
M  V30 6866 H 690.941 -0.519348 -5.70943 0
M  V30 6867 H 689.338 -1.2962 -5.85934 0
M  V30 6868 H 690.408 -1.75218 -4.52136 0
M  V30 6869 N 691.751 1.51645 -0.429126 0
M  V30 6870 C 692.976 2.06917 0.141399 0
M  V30 6871 C 693.401 1.29527 1.36398 0
M  V30 6872 O 692.759 0.33094 1.78254 0
M  V30 6873 C 692.807 3.57776 0.4504 0
M  V30 6874 O 691.911 3.82639 1.53821 0
M  V30 6875 H 691.252 0.663978 0.0054647 0
M  V30 6876 H 693.782 1.95355 -0.608093 0
M  V30 6877 H 693.792 4.01894 0.703249 0
M  V30 6878 H 692.467 4.13532 -0.443213 0
M  V30 6879 H 691.044 3.5039 1.27597 0
M  V30 6880 N 693.229 0.160201 1.56784 0
M  V30 6881 C 694.192 -0.760405 2.16219 0
M  V30 6882 C 695.192 -1.16595 1.10735 0
M  V30 6883 O 696.382 -1.08472 1.36306 0
M  V30 6884 C 693.514 -2.03358 2.73603 0
M  V30 6885 H 694.707 -0.243173 2.98912 0
M  V30 6886 H 692.26 -0.0893139 1.56045 0
M  V30 6887 H 692.995 -2.59416 1.94612 0
M  V30 6888 H 692.78 -1.75186 3.50788 0
M  V30 6889 H 694.27 -2.69081 3.19351 0
M  V30 6890 N 694.707 -1.5719 -0.113559 0
M  V30 6891 C 695.956 -1.84325 -0.818984 0
M  V30 6892 C 696.269 -0.746685 -1.80787 0
M  V30 6893 O 697.475 -0.904596 -2.55987 0
M  V30 6894 C 695.931 -3.26818 -1.50724 0
M  V30 6895 C 695.539 -4.44498 -0.559065 0
M  V30 6896 C 697.283 -3.63196 -2.19748 0
M  V30 6897 C 695.19 -5.7802 -1.25086 0
M  V30 6898 H 694.12 -0.687507 -0.309596 0
M  V30 6899 H 696.771 -1.8336 -0.0717621 0
M  V30 6900 H 695.153 -3.22269 -2.30128 0
M  V30 6901 H 696.327 -4.60356 0.202146 0
M  V30 6902 H 694.642 -4.16393 0.024495 0
M  V30 6903 H 697.239 -4.60226 -2.72206 0
M  V30 6904 H 697.582 -2.90899 -2.97798 0
M  V30 6905 H 698.115 -3.69553 -1.47226 0
M  V30 6906 H 694.854 -6.53501 -0.511539 0
M  V30 6907 H 694.374 -5.66038 -1.98395 0
M  V30 6908 H 696.053 -6.2196 -1.78253 0
M  V30 6909 N 696.185 0.383891 -1.52853 0
M  V30 6910 C 697.413 1.1495 -1.7203 0
M  V30 6911 C 697.828 1.83578 -0.440957 0
M  V30 6912 O 697.185 1.72872 0.584925 0
M  V30 6913 C 697.236 2.19368 -2.87333 0
M  V30 6914 O 696.957 1.53536 -4.10315 0
M  V30 6915 C 698.458 3.08616 -3.18231 0
M  V30 6916 H 695.678 0.344445 -0.575846 0
M  V30 6917 H 698.222 0.448397 -1.99524 0
M  V30 6918 H 696.377 2.85105 -2.62286 0
M  V30 6919 H 696.791 2.2296 -4.74752 0
M  V30 6920 H 698.265 3.77902 -4.02361 0
M  V30 6921 H 698.742 3.72409 -2.32826 0
M  V30 6922 H 699.348 2.48518 -3.45136 0
M  V30 6923 N 697.663 1.43903 0.642637 0
M  V30 6924 C 698.911 1.45791 1.39962 0
M  V30 6925 C 699.232 0.0873144 1.94804 0
M  V30 6926 O 698.502 -0.878825 1.75081 0
M  V30 6927 H 697.082 0.536797 0.519479 0
M  V30 6928 H 699.744 1.7959 0.757189 0
M  V30 6929 H 698.84 2.17665 2.2367 0
M  V30 6930 N 699.141 -0.881989 1.30609 0
M  V30 6931 C 700.389 -1.63082 1.19368 0
M  V30 6932 C 700.71 -1.93376 -0.251147 0
M  V30 6933 O 699.98 -1.5723 -1.16857 0
M  V30 6934 H 698.56 -0.604542 0.438791 0
M  V30 6935 H 701.222 -1.05658 1.63776 0
M  V30 6936 H 700.318 -2.57966 1.7567 0
M  V30 6937 N 700.619 -1.13374 -1.09472 0
M  V30 6938 C 701.866 -0.89519 -1.81639 0
M  V30 6939 C 702.194 0.57868 -1.85692 0
M  V30 6940 O 701.449 1.44426 -1.32059 0
M  V30 6941 C 701.748 -1.42759 -3.2765 0
M  V30 6942 C 701.414 -2.91822 -3.43731 0
M  V30 6943 C 700.076 -3.32521 -3.47827 0
M  V30 6944 C 702.428 -3.87727 -3.48307 0
M  V30 6945 C 699.756 -4.6781 -3.54078 0
M  V30 6946 C 702.108 -5.22859 -3.56091 0
M  V30 6947 C 700.772 -5.63086 -3.58456 0
M  V30 6948 H 700.042 -0.327573 -0.664663 0
M  V30 6949 H 702.689 -1.4156 -1.28969 0
M  V30 6950 H 700.994 -0.827871 -3.82954 0
M  V30 6951 H 702.691 -1.2191 -3.8202 0
M  V30 6952 H 699.281 -2.5935 -3.41226 0
M  V30 6953 H 703.465 -3.57371 -3.44383 0
M  V30 6954 H 698.721 -4.98353 -3.54195 0
M  V30 6955 H 702.895 -5.96989 -3.58577 0
M  V30 6956 H 700.522 -6.67905 -3.63052 0
M  V30 6957 N 702.098 1.27442 -0.927168 0
M  V30 6958 C 703.046 2.28844 -0.416333 0
M  V30 6959 C 704.04 1.61882 0.499057 0
M  V30 6960 O 705.246 1.75969 0.378817 0
M  V30 6961 H 701.621 0.742989 -0.116065 0
M  V30 6962 H 703.592 2.69344 -1.28438 0
M  V30 6963 C 702.341 3.4626 0.316107 0
M  V30 6964 H 701.664 3.97999 -0.379082 0
M  V30 6965 H 703.104 4.19173 0.637975 0
M  V30 6966 C 701.563 3.00211 1.5289 0
M  V30 6967 O 702.093 3.03837 2.62766 0
M  V30 6968 N 700.299 2.55713 1.38054 0
M  V30 6969 H 699.846 2.52962 0.4866 0
M  V30 6970 H 699.804 2.25264 2.19325 0
M  V30 6971 N 703.576 0.692616 1.41565 0
M  V30 6972 C 704.825 0.219452 2.00503 0
M  V30 6973 C 705.138 -1.18683 1.55479 0
M  V30 6974 O 706.344 -1.75731 2.06956 0
M  V30 6975 C 704.8 0.341451 3.58277 0
M  V30 6976 C 704.408 1.75291 4.12283 0
M  V30 6977 C 706.152 -0.0720899 4.24439 0
M  V30 6978 C 704.059 1.82673 5.62481 0
M  V30 6979 H 702.989 0.0782874 0.749925 0
M  V30 6980 H 705.64 0.860386 1.62079 0
M  V30 6981 H 704.022 -0.367683 3.94289 0
M  V30 6982 H 705.196 2.49057 3.87695 0
M  V30 6983 H 703.511 2.11587 3.58636 0
M  V30 6984 H 706.108 -0.0373385 5.34687 0
M  V30 6985 H 706.451 -1.11034 4.0122 0
M  V30 6986 H 706.984 0.586663 3.9345 0
M  V30 6987 H 703.723 2.84539 5.90523 0
M  V30 6988 H 703.243 1.13288 5.89004 0
M  V30 6989 H 704.922 1.58827 6.27203 0
M  V30 6990 N 705.054 -1.51416 0.437162 0
M  V30 6991 C 706.002 -2.29328 -0.388765 0
M  V30 6992 C 706.996 -1.35171 -1.02104 0
M  V30 6993 O 708.202 -1.52513 -0.956024 0
M  V30 6994 H 704.577 -0.738048 -0.144183 0
M  V30 6995 H 706.548 -2.96995 0.289212 0
M  V30 6996 C 705.297 -3.14741 -1.47761 0
M  V30 6997 H 704.62 -3.8708 -1.00045 0
M  V30 6998 H 706.06 -3.72313 -2.02877 0
M  V30 6999 C 704.519 -2.30105 -2.46076 0
M  V30 7000 O 705.049 -1.96055 -3.50607 0
M  V30 7001 N 703.255 -1.93331 -2.1696 0
M  V30 7002 H 702.802 -2.2122 -1.31983 0
M  V30 7003 H 702.76 -1.36999 -2.82982 0
M  V30 7004 N 706.532 -0.168513 -1.56696 0
M  V30 7005 C 707.778 0.471368 -1.97863 0
M  V30 7006 C 708.133 1.61049 -1.05267 0
M  V30 7007 O 707.426 1.9138 -0.0917908 0
M  V30 7008 C 707.62 1.00441 -3.42996 0
M  V30 7009 C 707.449 -0.081524 -4.49626 0
M  V30 7010 C 706.219 -0.530242 -5.0251 0
M  V30 7011 C 708.417 -0.880897 -5.067 0
M  V30 7012 N 706.399 -1.59678 -5.9277 0
M  V30 7013 C 707.77 -1.79742 -5.93374 0
M  V30 7014 C 709.825 -0.92629 -4.89208 0
M  V30 7015 C 708.528 -2.7555 -6.64428 0
M  V30 7016 C 710.554 -1.8723 -5.6098 0
M  V30 7017 C 709.916 -2.77631 -6.4738 0
M  V30 7018 H 706.015 0.140671 -0.769244 0
M  V30 7019 H 708.599 -0.268084 -1.92846 0
M  V30 7020 H 706.77 1.71339 -3.48565 0
M  V30 7021 H 708.502 1.61269 -3.7118 0
M  V30 7022 H 705.257 -0.12847 -4.73426 0
M  V30 7023 H 705.681 -2.13045 -6.42605 0
M  V30 7024 H 710.323 -0.241412 -4.2211 0
M  V30 7025 H 708.041 -3.45027 -7.30741 0
M  V30 7026 H 711.627 -1.91349 -5.49433 0
M  V30 7027 H 710.507 -3.4964 -7.01941 0
M  V30 7028 N 708.01 1.57248 0.105221 0
M  V30 7029 C 708.94 2.04374 1.12931 0
M  V30 7030 C 709.921 0.93074 1.42377 0
M  V30 7031 O 711.106 1.20136 1.52581 0
M  V30 7032 C 708.236 2.45967 2.45189 0
M  V30 7033 C 707.19 3.60838 2.30174 0
M  V30 7034 C 706.516 3.88374 3.67518 0
M  V30 7035 C 707.816 4.92084 1.75073 0
M  V30 7036 H 709.51 2.9018 0.737287 0
M  V30 7037 H 707.056 1.39601 0.353211 0
M  V30 7038 H 709.009 2.77542 3.17094 0
M  V30 7039 H 707.733 1.57148 2.86308 0
M  V30 7040 H 706.392 3.29493 1.60716 0
M  V30 7041 H 706.04 2.96739 4.06147 0
M  V30 7042 H 705.74 4.65703 3.58321 0
M  V30 7043 H 707.264 4.22415 4.40906 0
M  V30 7044 H 708.678 5.22106 2.36809 0
M  V30 7045 H 707.075 5.73507 1.76662 0
M  V30 7046 H 708.145 4.79684 0.709347 0
M  V30 7047 N 709.488 -0.375779 1.53054 0
M  V30 7048 C 710.435 -1.45978 1.78771 0
M  V30 7049 C 711.405 -1.53625 0.631552 0
M  V30 7050 O 712.59 -1.69674 0.872667 0
M  V30 7051 C 709.73 -2.8305 1.97425 0
M  V30 7052 C 708.843 -2.84451 3.25134 0
M  V30 7053 C 707.978 -4.13034 3.34031 0
M  V30 7054 C 707.017 -4.08536 4.55812 0
M  V30 7055 N 706.154 -5.2875 4.61918 0
M  V30 7056 H 710.994 -1.23349 2.71273 0
M  V30 7057 H 708.531 -0.598147 1.3439 0
M  V30 7058 H 710.489 -3.62666 2.06225 0
M  V30 7059 H 709.119 -3.04101 1.0827 0
M  V30 7060 H 708.171 -1.97127 3.25338 0
M  V30 7061 H 709.483 -2.76998 4.14818 0
M  V30 7062 H 708.637 -5.0106 3.42087 0
M  V30 7063 H 707.376 -4.23226 2.42345 0
M  V30 7064 H 706.381 -3.18897 4.47867 0
M  V30 7065 H 707.606 -3.99955 5.48828 0
M  V30 7066 H 705.552 -5.39547 3.73129 0
M  V30 7067 H 705.469 -5.23426 5.45492 0
M  V30 7068 H 706.737 -6.18637 4.74245 0
M  V30 7069 N 710.966 -1.44241 -0.634997 0
M  V30 7070 C 712.212 -1.47038 -1.39669 0
M  V30 7071 C 712.545 -0.101122 -1.93937 0
M  V30 7072 O 711.82 0.880699 -1.73418 0
M  V30 7073 C 712.103 -2.52763 -2.56482 0
M  V30 7074 C 711.956 -3.99032 -2.07589 0
M  V30 7075 C 713.275 -2.55031 -3.58674 0
M  V30 7076 H 710.394 -0.53537 -0.506506 0
M  V30 7077 H 713.036 -1.75898 -0.718317 0
M  V30 7078 H 711.186 -2.28284 -3.14354 0
M  V30 7079 H 712.858 -4.3463 -1.54577 0
M  V30 7080 H 711.101 -4.10994 -1.38804 0
M  V30 7081 H 711.772 -4.68649 -2.91671 0
M  V30 7082 H 714.248 -2.76893 -3.10595 0
M  V30 7083 H 713.124 -3.30916 -4.37934 0
M  V30 7084 H 713.385 -1.59085 -4.12486 0
M  V30 7085 N 712.444 0.87505 -1.31075 0
M  V30 7086 C 713.354 2.01441 -1.20244 0
M  V30 7087 C 714.37 1.73584 -0.120227 0
M  V30 7088 O 715.546 1.98559 -0.337063 0
M  V30 7089 C 712.611 3.34675 -0.905199 0
M  V30 7090 C 711.672 3.75889 -2.0738 0
M  V30 7091 C 710.905 5.02764 -1.79064 0
M  V30 7092 O 711.128 5.65795 -0.723318 0
M  V30 7093 O 710.062 5.40623 -2.64594 0
M  V30 7094 H 713.888 2.13509 -2.1598 0
M  V30 7095 H 711.473 1.00257 -1.10765 0
M  V30 7096 H 713.355 4.1458 -0.755057 0
M  V30 7097 H 712.03 3.23692 0.0221695 0
M  V30 7098 H 710.937 2.96645 -2.27931 0
M  V30 7099 H 712.27 3.91489 -2.98324 0
M  V30 7100 N 713.922 1.13953 1.08869 0
M  V30 7101 C 715.147 0.928559 1.85452 0
M  V30 7102 C 715.572 -0.517642 1.80837 0
M  V30 7103 O 714.93 -1.36779 1.19001 0
M  V30 7104 C 714.978 1.42814 3.31114 0
M  V30 7105 O 714.082 0.617129 4.07756 0
M  V30 7106 H 713.423 0.33235 0.574839 0
M  V30 7107 H 715.953 1.5156 1.37443 0
M  V30 7108 H 715.963 1.43425 3.8196 0
M  V30 7109 H 714.638 2.48109 3.33788 0
M  V30 7110 H 713.215 0.679365 3.66659 0
M  V30 7111 N 715.4 -1.26948 0.933913 0
M  V30 7112 C 716.628 -1.98186 0.59414 0
M  V30 7113 C 717.043 -1.69614 -0.829257 0
M  V30 7114 O 716.4 -0.960213 -1.55197 0
M  V30 7115 C 716.451 -3.52123 0.818026 0
M  V30 7116 O 716.172 -3.79698 2.18543 0
M  V30 7117 C 717.673 -4.40608 0.48781 0
M  V30 7118 H 714.893 -0.632305 0.224569 0
M  V30 7119 H 717.437 -1.61646 1.25263 0
M  V30 7120 H 715.592 -3.86851 0.206246 0
M  V30 7121 H 716.006 -4.7426 2.24005 0
M  V30 7122 H 717.48 -5.47606 0.695126 0
M  V30 7123 H 717.957 -4.35394 -0.576913 0
M  V30 7124 H 718.563 -4.11411 1.078 0
M  V30 7125 N 716.879 -0.700114 -1.41195 0
M  V30 7126 C 718.127 -0.232546 -2.00758 0
M  V30 7127 C 718.448 1.1734 -1.55745 0
M  V30 7128 O 717.718 1.79262 -0.790058 0
M  V30 7129 H 716.298 -0.0829845 -0.742376 0
M  V30 7130 H 718.96 -0.902289 -1.72756 0
M  V30 7131 H 718.056 -0.253521 -3.11069 0
M  V30 7132 N 718.357 1.51182 -0.445186 0
M  V30 7133 C 719.605 2.01753 0.11841 0
M  V30 7134 C 719.926 1.33087 1.42523 0
M  V30 7135 O 719.196 0.467891 1.9023 0
M  V30 7136 H 717.776 0.745536 0.0467492 0
M  V30 7137 H 720.438 1.85765 -0.589688 0
M  V30 7138 H 719.534 3.10762 0.288665 0
M  V30 7139 N 719.835 0.176821 1.56605 0
M  V30 7140 C 721.112 -0.513365 1.88743 0
M  V30 7141 C 721.492 -1.80929 1.08757 0
M  V30 7142 O 720.84 -2.27765 0.183127 0
M  V30 7143 C 721.05 -0.749925 3.40848 0
M  V30 7144 C 722.398 -1.07747 4.10701 0
M  V30 7145 O 723.422 -0.838277 3.46196 0
M  V30 7146 O 722.281 -1.52901 5.24675 0
M  V30 7147 H 719.375 -0.265296 0.783292 0
M  V30 7148 H 721.921 0.215669 1.68324 0
M  V30 7149 H 720.693 0.16599 3.90948 0
M  V30 7150 H 720.316 -1.53208 3.66897 0
M  V30 7151 N 721.313 -1.57302 -0.09688 0
M  V30 7152 C 722.261 -2.02942 -1.13654 0
M  V30 7153 C 723.255 -0.930173 -1.41577 0
M  V30 7154 O 724.461 -1.11535 -1.41279 0
M  V30 7155 H 720.836 -0.646726 -0.383731 0
M  V30 7156 H 722.807 -2.89452 -0.725267 0
M  V30 7157 C 721.556 -2.46815 -2.44903 0
M  V30 7158 H 720.879 -3.30979 -2.24261 0
M  V30 7159 H 722.319 -2.82527 -3.16156 0
M  V30 7160 C 720.778 -1.34071 -3.09074 0
M  V30 7161 O 721.308 -0.668856 -3.96092 0
M  V30 7162 N 719.514 -1.09214 -2.69296 0
M  V30 7163 H 719.061 -1.64029 -1.98626 0
M  V30 7164 H 719.019 -0.339785 -3.12559 0
M  V30 7165 N 722.791 0.367657 -1.53252 0
M  V30 7166 C 724.016 1.13566 -1.73544 0
M  V30 7167 C 724.441 1.82329 -0.462344 0
M  V30 7168 O 723.799 1.71655 0.583472 0
M  V30 7169 C 723.847 2.14322 -2.89997 0
M  V30 7170 O 722.951 3.21359 -2.58461 0
M  V30 7171 H 722.292 0.329614 -0.576412 0
M  V30 7172 H 724.822 0.425417 -2.00128 0
M  V30 7173 H 724.832 2.57958 -3.16104 0
M  V30 7174 H 723.507 1.63664 -3.82344 0
M  V30 7175 H 722.084 2.8271 -2.43165 0
M  V30 7176 N 724.269 1.44576 0.627338 0
M  V30 7177 C 725.517 1.47267 1.38408 0
M  V30 7178 C 725.838 0.107971 1.94701 0
M  V30 7179 O 725.108 -0.860206 1.76004 0
M  V30 7180 H 723.688 0.542276 0.513756 0
M  V30 7181 H 726.35 1.80383 0.738099 0
M  V30 7182 H 725.446 2.20025 2.21349 0
M  V30 7183 N 725.747 -0.868086 1.31537 0
M  V30 7184 C 726.975 -1.65402 1.24298 0
M  V30 7185 C 727.39 -1.87827 -0.191389 0
M  V30 7186 O 726.747 -1.43776 -1.12404 0
M  V30 7187 C 726.798 -3.02093 1.9855 0
M  V30 7188 O 726.519 -2.80668 3.36388 0
M  V30 7189 C 728.02 -3.96538 1.98173 0
M  V30 7190 H 725.24 -0.515598 0.429417 0
M  V30 7191 H 727.784 -1.0834 1.73444 0
M  V30 7192 H 725.939 -3.55838 1.53161 0
M  V30 7193 H 726.353 -3.67504 3.74221 0
M  V30 7194 H 727.827 -4.8976 2.54635 0
M  V30 7195 H 728.304 -4.28474 0.964697 0
M  V30 7196 H 728.91 -3.48729 2.4345 0
M  V30 7197 N 727.225 -1.14528 -1.08264 0
M  V30 7198 C 728.471 -0.91576 -1.80947 0
M  V30 7199 C 728.804 0.55623 -1.86064 0
M  V30 7200 O 728.079 1.41207 -1.33756 0
M  V30 7201 C 728.362 -1.51917 -3.26486 0
M  V30 7202 C 728.215 -3.06111 -3.2957 0
M  V30 7203 C 729.534 -1.19724 -4.23502 0
M  V30 7204 H 726.653 -0.334113 -0.656915 0
M  V30 7205 H 729.295 -1.41547 -1.26746 0
M  V30 7206 H 727.445 -1.0942 -3.72773 0
M  V30 7207 H 729.117 -3.57448 -2.91597 0
M  V30 7208 H 727.36 -3.40483 -2.688 0
M  V30 7209 H 728.031 -3.43438 -4.32151 0
M  V30 7210 H 730.507 -1.56467 -3.85561 0
M  V30 7211 H 729.383 -1.64575 -5.23647 0
M  V30 7212 H 729.644 -0.112771 -4.41956 0
M  V30 7213 N 728.703 1.26451 -0.940633 0
M  V30 7214 C 729.952 1.93071 -0.583656 0
M  V30 7215 C 730.265 1.74618 0.881366 0
M  V30 7216 O 731.471 2.35689 1.34769 0
M  V30 7217 C 729.927 3.45927 -0.993106 0
M  V30 7218 C 729.535 3.73115 -2.4797 0
M  V30 7219 C 731.279 4.18554 -0.707998 0
M  V30 7220 C 729.186 5.19408 -2.82788 0
M  V30 7221 H 728.116 0.722824 -0.214572 0
M  V30 7222 H 730.767 1.43538 -1.1432 0
M  V30 7223 H 729.149 3.94341 -0.362099 0
M  V30 7224 H 730.323 3.35408 -3.15971 0
M  V30 7225 H 728.638 3.13719 -2.73805 0
M  V30 7226 H 731.235 5.26293 -0.94447 0
M  V30 7227 H 731.578 4.14782 0.355225 0
M  V30 7228 H 732.111 3.76003 -1.2987 0
M  V30 7229 H 728.85 5.28281 -3.88071 0
M  V30 7230 H 728.37 5.58214 -2.19449 0
M  V30 7231 H 730.049 5.87407 -2.71224 0
M  V30 7232 N 730.181 0.707592 1.40822 0
M  V30 7233 C 731.144 0.0587224 2.29125 0
M  V30 7234 C 732.144 -0.695624 1.44975 0
M  V30 7235 O 733.334 -0.528718 1.65983 0
M  V30 7236 C 730.466 -0.926939 3.28056 0
M  V30 7237 H 731.659 0.836349 2.88002 0
M  V30 7238 H 729.212 0.471778 1.4901 0
M  V30 7239 H 729.947 -1.7319 2.74182 0
M  V30 7240 H 729.732 -0.389015 3.90165 0
M  V30 7241 H 731.222 -1.37837 3.94196 0
M  V30 7242 N 731.66 -1.50943 0.453197 0
M  V30 7243 C 732.888 -2.06628 -0.106135 0
M  V30 7244 C 733.303 -1.31901 -1.35084 0
M  V30 7245 O 732.66 -0.383074 -1.78434 0
M  V30 7246 C 732.711 -3.5914 -0.412368 0
M  V30 7247 O 732.432 -4.31047 0.782948 0
M  V30 7248 C 733.933 -4.31391 -1.02064 0
M  V30 7249 H 731.153 -0.670999 -0.000885896 0
M  V30 7250 H 733.697 -1.94331 0.63684 0
M  V30 7251 H 731.852 -3.71299 -1.10526 0
M  V30 7252 H 732.266 -5.21948 0.516736 0
M  V30 7253 H 733.74 -5.39135 -1.1848 0
M  V30 7254 H 734.217 -3.90714 -2.00598 0
M  V30 7255 H 734.823 -4.23716 -0.366664 0
M  V30 7256 N 733.138 -0.185124 -1.56509 0
M  V30 7257 C 734.387 0.456421 -1.96468 0
M  V30 7258 C 734.7 1.63448 -1.07444 0
M  V30 7259 O 735.906 2.34316 -1.37143 0
M  V30 7260 C 734.362 0.863404 -3.4939 0
M  V30 7261 C 733.97 -0.289815 -4.47062 0
M  V30 7262 C 735.714 1.47259 -3.98139 0
M  V30 7263 C 733.621 0.137571 -5.9124 0
M  V30 7264 H 732.551 0.17429 -0.733579 0
M  V30 7265 H 735.202 -0.275554 -1.81419 0
M  V30 7266 H 733.584 1.65176 -3.59907 0
M  V30 7267 H 734.758 -1.06728 -4.4827 0
M  V30 7268 H 733.073 -0.809851 -4.08449 0
M  V30 7269 H 735.67 1.80463 -5.03326 0
M  V30 7270 H 736.013 2.3755 -3.41871 0
M  V30 7271 H 736.546 0.748405 -3.90696 0
M  V30 7272 H 733.285 -0.730907 -6.51412 0
M  V30 7273 H 732.805 0.8801 -5.93308 0
M  V30 7274 H 734.484 0.576771 -6.44424 0
M  V30 7275 N 734.616 1.57351 0.0885366 0
M  V30 7276 C 735.548 1.99221 1.13329 0
M  V30 7277 C 736.561 0.895705 1.35945 0
M  V30 7278 O 737.75 1.17376 1.34481 0
M  V30 7279 C 734.85 2.3016 2.48756 0
M  V30 7280 C 734.023 3.61444 2.46327 0
M  V30 7281 C 733.082 3.80244 3.63732 0
M  V30 7282 O 732.108 4.52024 3.45924 0
M  V30 7283 N 733.31 3.2132 4.8346 0
M  V30 7284 H 736.075 2.89456 0.776862 0
M  V30 7285 H 733.636 1.59505 0.277428 0
M  V30 7286 H 735.628 2.39925 3.25911 0
M  V30 7287 H 734.198 1.459 2.76464 0
M  V30 7288 H 733.418 3.62588 1.54673 0
M  V30 7289 H 734.706 4.47678 2.41789 0
M  V30 7290 H 734.104 2.63028 5.00832 0
M  V30 7291 H 732.661 3.3656 5.58185 0
M  V30 7292 N 736.094 -0.359525 1.53444 0
M  V30 7293 C 737.057 -1.42357 1.7963 0
M  V30 7294 C 738.057 -1.46319 0.666884 0
M  V30 7295 O 739.247 -1.46974 0.935113 0
M  V30 7296 C 736.379 -2.81425 1.92387 0
M  V30 7297 H 737.572 -1.20409 2.74666 0
M  V30 7298 H 735.125 -0.593007 1.44614 0
M  V30 7299 H 735.86 -3.08679 0.994384 0
M  V30 7300 H 735.645 -2.79947 2.74539 0
M  V30 7301 H 737.135 -3.5847 2.14218 0
M  V30 7302 N 737.572 -1.44907 -0.619662 0
M  V30 7303 C 738.482 -1.55168 -1.75955 0
M  V30 7304 C 739.498 -0.43672 -1.6843 0
M  V30 7305 O 740.674 -0.695704 -1.89002 0
M  V30 7306 C 737.739 -1.50397 -3.12381 0
M  V30 7307 C 736.8 -2.72835 -3.31451 0
M  V30 7308 C 736.033 -2.68283 -4.61368 0
M  V30 7309 O 736.256 -1.74929 -5.42914 0
M  V30 7310 O 735.19 -3.59308 -4.82889 0
M  V30 7311 H 739.016 -2.51493 -1.7025 0
M  V30 7312 H 736.601 -1.27282 -0.782289 0
M  V30 7313 H 738.483 -1.50301 -3.93685 0
M  V30 7314 H 737.158 -0.572197 -3.18603 0
M  V30 7315 H 736.065 -2.78496 -2.49781 0
M  V30 7316 H 737.398 -3.65098 -3.30098 0
M  V30 7317 N 739.05 0.861098 -1.31996 0
M  V30 7318 C 740.327 1.59788 -1.12814 0
M  V30 7319 C 740.707 2.08753 0.313882 0
M  V30 7320 O 740.055 1.87258 1.30946 0
M  V30 7321 C 740.265 2.74901 -2.15012 0
M  V30 7322 C 741.613 3.44643 -2.48004 0
M  V30 7323 O 742.637 2.85119 -2.13508 0
M  V30 7324 O 741.496 4.52044 -3.07113 0
M  V30 7325 H 738.59 0.703408 -0.434909 0
M  V30 7326 H 741.136 0.905788 -1.43505 0
M  V30 7327 H 739.908 2.36198 -3.11971 0
M  V30 7328 H 739.531 3.51792 -1.85279 0
M  V30 7329 N 740.528 1.15101 1.07655 0
M  V30 7330 C 741.478 0.813448 2.12995 0
M  V30 7331 C 742.462 -0.200899 1.59641 0
M  V30 7332 O 743.654 -0.00209918 1.77 0
M  V30 7333 C 740.783 0.301078 3.41977 0
M  V30 7334 C 739.869 1.3454 4.02194 0
M  V30 7335 N 740.26 2.55181 4.36711 0
M  V30 7336 C 738.558 1.19742 4.29625 0
M  V30 7337 C 739.259 3.22094 4.84387 0
M  V30 7338 N 738.235 2.49486 4.82968 0
M  V30 7339 H 742.037 1.73105 2.37511 0
M  V30 7340 H 739.551 1.03601 1.25063 0
M  V30 7341 H 741.548 0.040914 4.1688 0
M  V30 7342 H 740.208 -0.610629 3.18907 0
M  V30 7343 H 741.219 2.92349 4.27496 0
M  V30 7344 H 737.896 0.345353 4.16069 0
M  V30 7345 H 739.286 4.24996 5.20411 0
M  V30 7346 N 742.006 -1.2595 0.947325 0
M  V30 7347 C 743.231 -1.98083 0.614633 0
M  V30 7348 C 743.656 -1.70013 -0.804815 0
M  V30 7349 O 743.014 -0.95175 -1.54309 0
M  V30 7350 C 743.062 -3.4993 0.870706 0
M  V30 7351 O 742.166 -4.12364 -0.0541451 0
M  V30 7352 H 741.507 -0.621232 0.234451 0
M  V30 7353 H 744.037 -1.60259 1.27193 0
M  V30 7354 H 744.047 -4.00198 0.794051 0
M  V30 7355 H 742.722 -3.69691 1.90529 0
M  V30 7356 H 741.299 -3.72826 0.0740917 0
M  V30 7357 N 743.484 -0.715051 -1.40445 0
M  V30 7358 C 744.416 -0.0227516 -2.29189 0
M  V30 7359 C 745.429 0.724313 -1.458 0
M  V30 7360 O 746.618 0.571781 -1.69094 0
M  V30 7361 C 743.718 0.992038 -3.24055 0
M  V30 7362 C 742.891 0.310613 -4.36296 0
M  V30 7363 C 741.95 1.23071 -5.11605 0
M  V30 7364 O 740.976 0.71571 -5.64682 0
M  V30 7365 N 742.178 2.56188 -5.2091 0
M  V30 7366 H 744.943 -0.78473 -2.89244 0
M  V30 7367 H 742.504 -0.562637 -1.51809 0
M  V30 7368 H 744.496 1.60973 -3.71308 0
M  V30 7369 H 743.066 1.65538 -2.65171 0
M  V30 7370 H 742.286 -0.487269 -3.91177 0
M  V30 7371 H 743.574 -0.162415 -5.08541 0
M  V30 7372 H 742.972 3.00527 -4.7927 0
M  V30 7373 H 741.529 3.13103 -5.71673 0
M  V30 7374 N 744.962 1.50701 -0.461195 0
M  V30 7375 C 745.894 2.26124 0.374244 0
M  V30 7376 C 746.907 1.31064 0.965715 0
M  V30 7377 O 748.096 1.56647 0.855801 0
M  V30 7378 C 745.196 3.01996 1.5379 0
M  V30 7379 C 744.369 4.24336 1.06101 0
M  V30 7380 C 743.428 4.82585 2.09756 0
M  V30 7381 O 742.454 5.43775 1.68219 0
M  V30 7382 N 743.656 4.68712 3.42475 0
M  V30 7383 H 746.421 2.9846 -0.2723 0
M  V30 7384 H 743.982 1.59256 -0.291415 0
M  V30 7385 H 745.974 3.37846 2.22806 0
M  V30 7386 H 744.544 2.32521 2.08933 0
M  V30 7387 H 743.764 3.93707 0.197085 0
M  V30 7388 H 745.052 5.03678 0.720156 0
M  V30 7389 H 744.45 4.20026 3.78938 0
M  V30 7390 H 743.007 5.08858 4.07317 0
M  V30 7391 N 746.441 0.193421 1.56409 0
M  V30 7392 C 747.666 -0.454552 2.02358 0
M  V30 7393 C 748.091 -1.54516 1.07268 0
M  V30 7394 O 747.449 -1.81214 0.0558962 0
M  V30 7395 C 747.497 -0.989469 3.46759 0
M  V30 7396 O 746.601 -2.10244 3.54783 0
M  V30 7397 H 745.942 -0.106417 0.655417 0
M  V30 7398 H 748.472 0.303807 2.02332 0
M  V30 7399 H 748.482 -1.30649 3.86516 0
M  V30 7400 H 747.157 -0.191083 4.15461 0
M  V30 7401 H 745.734 -1.79419 3.26899 0
M  V30 7402 N 747.919 -1.57396 -0.0801906 0
M  V30 7403 C 749.167 -1.86467 -0.779384 0
M  V30 7404 C 749.488 -0.784243 -1.78535 0
M  V30 7405 O 748.758 0.187986 -1.94996 0
M  V30 7406 H 747.338 -0.68806 -0.29083 0
M  V30 7407 H 750 -1.94813 -0.0582749 0
M  V30 7408 H 749.096 -2.83701 -1.30078 0
M  V30 7409 N 749.397 0.351382 -1.53633 0
M  V30 7410 C 750.625 1.11275 -1.74429 0
M  V30 7411 C 751.04 1.82602 -0.479798 0
M  V30 7412 O 750.397 1.74074 0.548125 0
M  V30 7413 C 750.448 2.13223 -2.91921 0
M  V30 7414 O 750.169 1.44798 -4.13479 0
M  V30 7415 C 751.67 3.01797 -3.24706 0
M  V30 7416 H 748.89 0.332153 -0.583023 0
M  V30 7417 H 751.434 0.405974 -2.0043 0
M  V30 7418 H 749.589 2.79477 -2.68274 0
M  V30 7419 H 750.003 2.12839 -4.79374 0
M  V30 7420 H 751.477 3.69282 -4.10286 0
M  V30 7421 H 751.954 3.67387 -2.40673 0
M  V30 7422 H 752.56 2.41141 -3.5033 0
M  V30 7423 N 750.875 1.45233 0.611969 0
M  V30 7424 C 751.807 1.49575 1.73666 0
M  V30 7425 C 752.82 0.386987 1.58134 0
M  V30 7426 O 754.009 0.653804 1.66095 0
M  V30 7427 C 751.109 1.33223 3.11617 0
M  V30 7428 C 750.282 2.57694 3.5343 0
M  V30 7429 C 749.341 2.35962 4.70328 0
M  V30 7430 O 748.367 3.09553 4.77667 0
M  V30 7431 N 749.569 1.40243 5.63305 0
M  V30 7432 H 752.334 2.46539 1.70407 0
M  V30 7433 H 749.895 1.40917 0.79712 0
M  V30 7434 H 751.887 1.16502 3.87569 0
M  V30 7435 H 750.457 0.44551 3.09409 0
M  V30 7436 H 749.677 2.8956 2.67486 0
M  V30 7437 H 750.965 3.40441 3.78124 0
M  V30 7438 H 750.363 0.795023 5.60086 0
M  V30 7439 H 748.92 1.29496 6.38807 0
M  V30 7440 N 752.353 -0.854086 1.3245 0
M  V30 7441 C 753.285 -1.96932 1.17262 0
M  V30 7442 C 754.298 -1.62445 0.107469 0
M  V30 7443 O 755.487 -1.74904 0.356481 0
M  V30 7444 C 752.587 -3.29971 0.772817 0
M  V30 7445 C 751.76 -3.92695 1.92638 0
M  V30 7446 C 750.819 -5.04068 1.51003 0
M  V30 7447 O 749.845 -5.24032 2.22213 0
M  V30 7448 N 751.047 -5.79076 0.406371 0
M  V30 7449 H 753.812 -2.10503 2.13327 0
M  V30 7450 H 751.373 -1.02897 1.24995 0
M  V30 7451 H 753.365 -4.01883 0.476684 0
M  V30 7452 H 751.935 -3.1245 -0.0967 0
M  V30 7453 H 751.155 -3.13563 2.38897 0
M  V30 7454 H 752.443 -4.31337 2.69863 0
M  V30 7455 H 751.841 -5.65393 -0.186302 0
M  V30 7456 H 750.398 -6.51579 0.169846 0
M  V30 7457 N 753.831 -1.1567 -1.07043 0
M  V30 7458 C 754.741 -0.870435 -2.17855 0
M  V30 7459 C 755.757 0.154452 -1.73313 0
M  V30 7460 O 756.933 -0.0203759 -2.0139 0
M  V30 7461 C 753.998 -0.367219 -3.4475 0
M  V30 7462 C 753.059 -1.45639 -4.03841 0
M  V30 7463 C 752.292 -0.977092 -5.2468 0
M  V30 7464 O 752.515 0.176127 -5.70128 0
M  V30 7465 O 751.449 -1.76215 -5.75527 0
M  V30 7466 H 755.275 -1.79687 -2.44839 0
M  V30 7467 H 752.86 -0.936064 -1.1644 0
M  V30 7468 H 754.742 -0.0931947 -4.21297 0
M  V30 7469 H 753.417 0.53131 -3.1931 0
M  V30 7470 H 752.324 -1.78406 -3.28819 0
M  V30 7471 H 753.657 -2.32995 -4.3356 0
M  V30 7472 N 755.309 1.25446 -0.953992 0
M  V30 7473 C 756.537 1.97215 -0.625595 0
M  V30 7474 C 756.952 1.70911 0.802168 0
M  V30 7475 O 756.309 0.984782 1.5365 0
M  V30 7476 C 756.36 3.50777 -0.873943 0
M  V30 7477 O 756.081 3.76173 -2.24556 0
M  V30 7478 C 757.582 4.39776 -0.557845 0
M  V30 7479 H 754.802 0.628652 -0.2346 0
M  V30 7480 H 757.346 1.59632 -1.27819 0
M  V30 7481 H 755.501 3.86474 -0.267765 0
M  V30 7482 H 755.915 4.70636 -2.31522 0
M  V30 7483 H 757.389 5.46431 -0.782157 0
M  V30 7484 H 757.866 4.36257 0.507573 0
M  V30 7485 H 758.472 4.09644 -1.14332 0
M  V30 7486 N 756.787 0.722489 1.40064 0
M  V30 7487 C 758.015 0.274838 2.05066 0
M  V30 7488 C 758.43 -1.08586 1.54449 0
M  V30 7489 O 757.787 -1.68375 0.704003 0
M  V30 7490 C 757.838 0.253673 3.60609 0
M  V30 7491 O 757.559 1.56064 4.0936 0
M  V30 7492 C 759.06 -0.211684 4.42794 0
M  V30 7493 H 756.28 0.12226 0.659768 0
M  V30 7494 H 758.824 0.982632 1.79345 0
M  V30 7495 H 756.979 -0.405137 3.85276 0
M  V30 7496 H 757.393 1.46576 5.03603 0
M  V30 7497 H 758.867 -0.175341 5.51721 0
M  V30 7498 H 759.344 -1.25493 4.2089 0
M  V30 7499 H 759.95 0.4171 4.2325 0
M  V30 7500 N 758.265 -1.50454 0.469181 0
M  V30 7501 C 759.493 -2.06729 -0.0842134 0
M  V30 7502 C 759.908 -1.33326 -1.33677 0
M  V30 7503 O 759.265 -0.401977 -1.78018 0
M  V30 7504 C 759.316 -3.59557 -0.374253 0
M  V30 7505 O 759.037 -4.30192 0.828622 0
M  V30 7506 C 760.538 -4.32449 -0.974824 0
M  V30 7507 H 757.758 -0.670971 0.006231 0
M  V30 7508 H 760.302 -1.93645 0.657415 0
M  V30 7509 H 758.457 -3.7245 -1.06581 0
M  V30 7510 H 758.871 -5.21371 0.572066 0
M  V30 7511 H 760.345 -5.40361 -1.12755 0
M  V30 7512 H 760.822 -3.92819 -1.96442 0
M  V30 7513 H 761.428 -4.24082 -0.321703 0
M  V30 7514 N 759.743 -0.201713 -1.56304 0
M  V30 7515 C 761.02 0.483273 -1.89536 0
M  V30 7516 C 761.4 1.79176 -1.11621 0
M  V30 7517 O 760.748 2.27445 -0.219339 0
M  V30 7518 C 760.958 0.695604 -3.41998 0
M  V30 7519 C 762.306 1.012 -4.12364 0
M  V30 7520 O 763.33 0.783094 -3.47485 0
M  V30 7521 O 762.189 1.44534 -5.27041 0
M  V30 7522 H 759.283 0.252801 -0.787414 0
M  V30 7523 H 761.829 -0.24242 -1.6796 0
M  V30 7524 H 760.601 -0.228165 -3.90634 0
M  V30 7525 H 760.224 1.47351 -3.69288 0
M  V30 7526 N 761.222 1.57436 0.0718424 0
M  V30 7527 C 762.45 1.91474 0.783932 0
M  V30 7528 C 762.865 0.797669 1.71122 0
M  V30 7529 O 762.222 -0.228989 1.81058 0
M  V30 7530 C 762.273 3.25259 1.57761 0
M  V30 7531 O 761.994 4.3267 0.687596 0
M  V30 7532 C 763.495 3.7331 2.3907 0
M  V30 7533 H 760.715 0.632901 0.222885 0
M  V30 7534 H 763.259 2.04457 0.0421262 0
M  V30 7535 H 761.414 3.13804 2.27169 0
M  V30 7536 H 761.828 5.09641 1.23962 0
M  V30 7537 H 763.302 4.69551 2.90216 0
M  V30 7538 H 763.779 3.02318 3.18591 0
M  V30 7539 H 764.385 3.8771 1.74818 0
M  V30 7540 N 762.7 -0.34323 1.53817 0
M  V30 7541 C 763.948 -1.0813 1.70741 0
M  V30 7542 C 764.269 -1.89165 0.473461 0
M  V30 7543 O 763.539 -1.89075 -0.512605 0
M  V30 7544 H 762.119 -0.40219 0.629486 0
M  V30 7545 H 764.781 -0.384426 1.91071 0
M  V30 7546 H 763.877 -1.7585 2.57843 0
M  V30 7547 N 764.178 -1.45556 -0.604258 0
M  V30 7548 C 765.426 -1.4945 -1.36048 0
M  V30 7549 C 765.747 -0.138933 -1.94504 0
M  V30 7550 O 765.017 0.832097 -1.7735 0
M  V30 7551 H 763.597 -0.550381 -0.505064 0
M  V30 7552 H 766.259 -1.81535 -0.709308 0
M  V30 7553 H 765.355 -2.23519 -2.17821 0
M  V30 7554 N 765.656 0.84705 -1.32902 0
M  V30 7555 C 766.904 1.5986 -1.2365 0
M  V30 7556 C 767.225 1.93974 0.199789 0
M  V30 7557 O 766.495 1.60273 1.12648 0
M  V30 7558 H 765.075 0.592696 -0.454665 0
M  V30 7559 H 767.737 1.01278 -1.66519 0
M  V30 7560 H 766.833 2.53218 -1.82448 0
M  V30 7561 N 767.134 1.16236 1.06428 0
M  V30 7562 C 768.081 0.86769 2.13869 0
M  V30 7563 C 769.051 -0.183298 1.65086 0
M  V30 7564 O 770.236 -0.0488002 1.90738 0
M  V30 7565 C 767.376 0.373427 3.43074 0
M  V30 7566 C 766.489 1.48708 4.05598 0
M  V30 7567 C 765.624 0.947977 5.22673 0
M  V30 7568 C 764.663 2.03793 5.77178 0
M  V30 7569 N 763.8 1.51451 6.85571 0
M  V30 7570 H 768.64 1.78781 2.38414 0
M  V30 7571 H 766.177 0.891892 1.16977 0
M  V30 7572 H 768.135 0.0685035 4.17144 0
M  V30 7573 H 766.765 -0.509752 3.1875 0
M  V30 7574 H 765.817 1.908 3.29089 0
M  V30 7575 H 767.129 2.30964 4.42105 0
M  V30 7576 H 766.283 0.596154 6.03764 0
M  V30 7577 H 765.022 0.0947081 4.87608 0
M  V30 7578 H 764.027 2.39847 4.94726 0
M  V30 7579 H 765.252 2.89514 6.14295 0
M  V30 7580 H 763.198 0.683755 6.52427 0
M  V30 7581 H 763.115 2.27325 7.21013 0
M  V30 7582 H 764.383 1.19123 7.70344 0
M  V30 7583 N 768.612 -1.24939 0.960631 0
M  V30 7584 C 769.56 -2.27659 0.47686 0
M  V30 7585 C 770.554 -1.63148 -0.455961 0
M  V30 7586 O 771.76 -1.76911 -0.332029 0
M  V30 7587 H 768.135 -0.739651 0.135723 0
M  V30 7588 H 770.106 -2.65844 1.35534 0
M  V30 7589 C 768.855 -3.46976 -0.224191 0
M  V30 7590 H 768.178 -3.96854 0.484471 0
M  V30 7591 H 769.618 -4.20717 -0.526615 0
M  V30 7592 C 768.077 -3.04159 -1.44876 0
M  V30 7593 O 768.607 -3.10697 -2.54618 0
M  V30 7594 N 766.813 -2.59284 -1.31226 0
M  V30 7595 H 766.36 -2.54164 -0.419361 0
M  V30 7596 H 766.318 -2.31 -2.13275 0
M  V30 7597 N 770.09 -0.729906 -1.39679 0
M  V30 7598 C 771.336 -0.27603 -2.00913 0
M  V30 7599 C 771.669 1.13227 -1.57776 0
M  V30 7600 O 770.944 1.7709 -0.804319 0
M  V30 7601 C 771.227 -0.372157 -3.58172 0
M  V30 7602 C 771.08 -1.81986 -4.11341 0
M  V30 7603 C 772.399 0.248378 -4.39399 0
M  V30 7604 H 769.518 -0.101773 -0.729939 0
M  V30 7605 H 772.16 -0.925104 -1.65957 0
M  V30 7606 H 770.31 0.180459 -3.88081 0
M  V30 7607 H 771.982 -2.42896 -3.92172 0
M  V30 7608 H 770.225 -2.34287 -3.65092 0
M  V30 7609 H 770.896 -1.83842 -5.20486 0
M  V30 7610 H 773.372 -0.222645 -4.15504 0
M  V30 7611 H 772.248 0.150746 -5.48693 0
M  V30 7612 H 772.509 1.33378 -4.21501 0
M  V30 7613 N 771.568 1.50203 -0.477153 0
M  V30 7614 C 772.816 2.01959 0.0755889 0
M  V30 7615 C 773.137 1.3608 1.39668 0
M  V30 7616 O 772.407 0.508136 1.89195 0
M  V30 7617 H 770.987 0.74636 0.0309248 0
M  V30 7618 H 773.649 1.84473 -0.628959 0
M  V30 7619 H 772.745 3.11305 0.222683 0
M  V30 7620 N 773.046 0.209999 1.56195 0
M  V30 7621 C 774.276 -0.429373 2.02089 0
M  V30 7622 C 774.684 -1.54703 1.0892 0
M  V30 7623 O 774.027 -1.83485 0.0889535 0
M  V30 7624 C 774.089 -1.03266 3.44349 0
M  V30 7625 C 773.753 -0.0518873 4.56971 0
M  V30 7626 C 774.75 0.744249 5.14545 0
M  V30 7627 C 772.435 0.0635185 5.0226 0
M  V30 7628 C 774.429 1.64261 6.15871 0
M  V30 7629 C 772.116 0.965423 6.03426 0
M  V30 7630 C 773.114 1.75352 6.60106 0
M  V30 7631 O 772.802 2.64029 7.59305 0
M  V30 7632 H 772.534 -0.110604 0.66689 0
M  V30 7633 H 775.088 0.320436 2.02885 0
M  V30 7634 H 773.318 -1.83134 3.40586 0
M  V30 7635 H 775.007 -1.57823 3.73961 0
M  V30 7636 H 775.773 0.665476 4.80413 0
M  V30 7637 H 771.652 -0.539762 4.57829 0
M  V30 7638 H 775.196 2.25819 6.60039 0
M  V30 7639 H 771.093 1.04526 6.36981 0
M  V30 7640 H 771.861 2.57974 7.76783 0
M  V30 7641 N 774.524 -1.57472 -0.0634922 0
M  V30 7642 C 775.773 -1.86837 -0.759928 0
M  V30 7643 C 776.086 -0.803823 -1.7832 0
M  V30 7644 O 777.292 -0.985578 -2.52979 0
M  V30 7645 C 775.748 -3.31448 -1.4025 0
M  V30 7646 C 775.356 -4.46052 -0.417368 0
M  V30 7647 C 777.1 -3.70003 -2.08082 0
M  V30 7648 C 775.007 -5.81707 -1.06633 0
M  V30 7649 H 773.937 -0.697009 -0.287567 0
M  V30 7650 H 776.588 -1.83495 -0.0133914 0
M  V30 7651 H 774.97 -3.29427 -2.19759 0
M  V30 7652 H 776.144 -4.5948 0.348503 0
M  V30 7653 H 774.459 -4.16104 0.156955 0
M  V30 7654 H 777.056 -4.68653 -2.57426 0
M  V30 7655 H 777.399 -3.00226 -2.88393 0
M  V30 7656 H 777.932 -3.7405 -1.35394 0
M  V30 7657 H 774.671 -6.54798 -0.303374 0
M  V30 7658 H 774.191 -5.72064 -1.80286 0
M  V30 7659 H 775.87 -6.27317 -1.58376 0
M  V30 7660 N 776.003 0.335068 -1.53997 0
M  V30 7661 C 777.28 1.09188 -1.62288 0
M  V30 7662 C 777.66 2.0626 -0.449458 0
M  V30 7663 O 777.008 2.21596 0.557444 0
M  V30 7664 C 777.218 1.80403 -2.98757 0
M  V30 7665 C 778.566 2.33841 -3.54406 0
M  V30 7666 O 779.59 1.90487 -3.00987 0
M  V30 7667 O 778.449 3.1318 -4.47862 0
M  V30 7668 H 775.543 0.502621 -0.656736 0
M  V30 7669 H 778.089 0.33588 -1.66343 0
M  V30 7670 H 776.861 1.09732 -3.75599 0
M  V30 7671 H 776.484 2.62841 -2.9833 0
M  V30 7672 N 777.481 1.45874 0.596531 0
M  V30 7673 C 778.444 1.54988 1.68853 0
M  V30 7674 C 779.444 0.428302 1.54991 0
M  V30 7675 O 780.634 0.692158 1.59859 0
M  V30 7676 C 777.766 1.457 3.08195 0
M  V30 7677 H 778.959 2.52294 1.62135 0
M  V30 7678 H 776.512 1.33479 0.813206 0
M  V30 7679 H 777.247 0.496204 3.20481 0
M  V30 7680 H 777.032 2.27061 3.19665 0
M  V30 7681 H 778.522 1.55133 3.87716 0
M  V30 7682 N 778.959 -0.83999 1.33349 0
M  V30 7683 C 780.207 -1.59202 1.24496 0
M  V30 7684 C 780.528 -1.94077 -0.189499 0
M  V30 7685 O 779.798 -1.60868 -1.11796 0
M  V30 7686 H 778.378 -0.590276 0.457802 0
M  V30 7687 H 781.04 -1.00394 1.67054 0
M  V30 7688 H 780.136 -2.52247 1.83788 0
M  V30 7689 N 780.437 -1.16799 -1.0581 0
M  V30 7690 C 781.714 -0.862616 -1.75551 0
M  V30 7691 C 782.094 0.6385 -2.01212 0
M  V30 7692 O 781.442 1.58784 -1.64317 0
M  V30 7693 C 781.652 -1.6907 -3.05314 0
M  V30 7694 C 783 -1.90675 -3.79379 0
M  V30 7695 O 784.024 -1.65976 -3.15167 0
M  V30 7696 O 782.883 -2.32145 -4.94743 0
M  V30 7697 H 779.977 -0.318789 -0.763088 0
M  V30 7698 H 782.523 -1.27461 -1.12034 0
M  V30 7699 H 781.295 -2.70912 -2.82352 0
M  V30 7700 H 780.918 -1.27606 -3.76567 0
M  V30 7701 N 781.915 1.24427 -0.967243 0
M  V30 7702 C 783.161 1.93089 -0.639404 0
M  V30 7703 C 783.516 1.7422 0.816407 0
M  V30 7704 O 782.809 1.08435 1.57964 0
M  V30 7705 C 783.003 3.44568 -0.949096 0
M  V30 7706 C 782.832 3.7817 -2.43346 0
M  V30 7707 C 781.602 3.99561 -3.09321 0
M  V30 7708 C 783.8 3.84687 -3.41351 0
M  V30 7709 N 781.782 4.20259 -4.475 0
M  V30 7710 C 783.153 4.10223 -4.64884 0
M  V30 7711 C 785.208 3.67421 -3.36015 0
M  V30 7712 C 783.911 4.20286 -5.8374 0
M  V30 7713 C 785.937 3.78731 -4.54221 0
M  V30 7714 C 785.299 4.04691 -5.76545 0
M  V30 7715 H 781.398 0.728291 -0.284809 0
M  V30 7716 H 783.982 1.49941 -1.24201 0
M  V30 7717 H 782.153 3.86582 -0.375308 0
M  V30 7718 H 783.885 4.00524 -0.579876 0
M  V30 7719 H 780.64 3.95946 -2.59853 0
M  V30 7720 H 781.064 4.34588 -5.19097 0
M  V30 7721 H 785.706 3.46358 -2.42479 0
M  V30 7722 H 783.424 4.40162 -6.77704 0
M  V30 7723 H 787.01 3.66743 -4.51653 0
M  V30 7724 H 785.89 4.1324 -6.66485 0
M  V30 7725 N 783.393 0.737304 1.3929 0
M  V30 7726 C 784.323 0.113988 2.33222 0
M  V30 7727 C 785.304 -0.721695 1.54031 0
M  V30 7728 O 786.489 -0.666206 1.82415 0
M  V30 7729 C 783.619 -0.792319 3.38141 0
M  V30 7730 C 782.573 -0.0606178 4.27957 0
M  V30 7731 C 781.899 -1.08409 5.23595 0
M  V30 7732 C 783.199 1.09817 5.10625 0
M  V30 7733 H 784.893 0.898611 2.85596 0
M  V30 7734 H 782.439 0.433571 1.37318 0
M  V30 7735 H 784.392 -1.23793 4.02807 0
M  V30 7736 H 783.116 -1.60908 2.84211 0
M  V30 7737 H 781.775 0.365393 3.64775 0
M  V30 7738 H 781.423 -1.89449 4.6596 0
M  V30 7739 H 781.123 -0.599269 5.84536 0
M  V30 7740 H 782.647 -1.52936 5.91137 0
M  V30 7741 H 784.061 0.730892 5.68622 0
M  V30 7742 H 782.458 1.51278 5.80719 0
M  V30 7743 H 783.528 1.91878 4.45321 0
M  V30 7744 N 784.871 -1.49948 0.485112 0
M  V30 7745 C 786.096 -2.073 -0.0645059 0
M  V30 7746 C 786.521 -1.345 -1.31497 0
M  V30 7747 O 785.879 -0.39687 -1.76903 0
M  V30 7748 C 785.927 -3.59201 -0.317304 0
M  V30 7749 O 785.031 -3.88085 -1.39514 0
M  V30 7750 H 784.372 -0.663723 0.0191822 0
M  V30 7751 H 786.902 -1.92963 0.680179 0
M  V30 7752 H 786.912 -4.04227 -0.553604 0
M  V30 7753 H 785.587 -4.11602 0.596387 0
M  V30 7754 H 784.164 -3.54885 -1.14504 0
M  V30 7755 N 786.349 -0.21828 -1.56081 0
M  V30 7756 C 787.579 0.41865 -2.02314 0
M  V30 7757 C 787.987 1.54124 -1.09739 0
M  V30 7758 O 787.33 1.83435 -0.0986829 0
M  V30 7759 C 787.392 1.01439 -3.44892 0
M  V30 7760 C 787.056 0.0276523 -4.56992 0
M  V30 7761 C 788.053 -0.771526 -5.14143 0
M  V30 7762 C 785.738 -0.0901537 -5.02219 0
M  V30 7763 C 787.732 -1.67525 -6.14991 0
M  V30 7764 C 785.419 -0.997411 -6.02905 0
M  V30 7765 C 786.417 -1.78851 -6.59167 0
M  V30 7766 O 786.105 -2.68052 -7.57894 0
M  V30 7767 H 785.837 0.107066 -0.667468 0
M  V30 7768 H 788.391 -0.331191 -2.02712 0
M  V30 7769 H 786.621 1.81326 -3.41552 0
M  V30 7770 H 788.31 1.55838 -3.74792 0
M  V30 7771 H 789.076 -0.690945 -4.80053 0
M  V30 7772 H 784.955 0.515474 -4.58109 0
M  V30 7773 H 788.499 -2.29316 -6.58832 0
M  V30 7774 H 784.396 -1.07902 -6.36418 0
M  V30 7775 H 785.164 -2.6209 -7.75404 0
M  V30 7776 N 787.827 1.57504 0.0551401 0
M  V30 7777 C 788.79 2.03826 1.04821 0
M  V30 7778 C 789.79 0.937968 1.30609 0
M  V30 7779 O 790.98 1.20237 1.2605 0
M  V30 7780 C 788.112 2.43309 2.38775 0
M  V30 7781 H 789.305 2.92802 0.6486 0
M  V30 7782 H 786.858 1.53368 0.301315 0
M  V30 7783 H 787.593 1.5741 2.83536 0
M  V30 7784 H 787.378 3.23615 2.21395 0
M  V30 7785 H 788.868 2.79666 3.10124 0
M  V30 7786 N 789.305 -0.326896 1.54172 0
M  V30 7787 C 790.553 -1.06313 1.71878 0
M  V30 7788 C 790.874 -1.88652 0.493498 0
M  V30 7789 O 790.144 -1.89608 -0.492522 0
M  V30 7790 H 788.724 -0.39549 0.633716 0
M  V30 7791 H 791.386 -0.364139 1.91468 0
M  V30 7792 H 790.482 -1.73105 2.59694 0
M  V30 7793 N 790.784 -1.46188 -0.588786 0
M  V30 7794 C 792.012 -1.54743 -1.37339 0
M  V30 7795 C 792.427 -0.186446 -1.87877 0
M  V30 7796 O 791.784 0.815247 -1.63279 0
M  V30 7797 C 791.835 -2.54727 -2.56508 0
M  V30 7798 O 791.556 -3.85539 -2.08066 0
M  V30 7799 C 793.057 -2.73163 -3.49137 0
M  V30 7800 H 790.277 -0.523484 -0.419768 0
M  V30 7801 H 792.821 -1.91543 -0.716345 0
M  V30 7802 H 790.976 -2.20948 -3.18215 0
M  V30 7803 H 791.39 -4.39905 -2.85629 0
M  V30 7804 H 792.864 -3.47057 -4.2925 0
M  V30 7805 H 793.341 -1.79856 -4.00685 0
M  V30 7806 H 793.947 -3.08014 -2.9327 0
M  V30 7807 N 792.262 0.832906 -1.33792 0
M  V30 7808 C 793.673 1.40489 -1.22963 0
M  V30 7809 C 794.024 1.95633 0.149026 0
M  V30 7810 O 793.149 1.8928 1.04891 0
M  V30 7811 C 793.744 2.55387 -2.22627 0
M  V30 7812 C 792.303 3.08522 -2.15618 0
M  V30 7813 C 791.45 1.81347 -2.09782 0
M  V30 7814 H 794.401 0.638156 -1.45304 0
M  V30 7815 H 794.422 3.33193 -1.83746 0
M  V30 7816 H 793.934 2.15222 -3.22957 0
M  V30 7817 H 792.035 3.53217 -1.18611 0
M  V30 7818 H 792.148 3.6829 -3.0643 0
M  V30 7819 H 790.512 2.01839 -1.55349 0
M  V30 7820 H 791.295 1.43369 -3.1193 0
M  V30 7821 N 793.74 1.17359 1.05189 0
M  V30 7822 C 794.986 0.963413 1.78455 0
M  V30 7823 C 795.319 -0.506703 1.87473 0
M  V30 7824 O 794.594 -1.37611 1.37453 0
M  V30 7825 C 794.877 1.60519 3.22344 0
M  V30 7826 C 794.73 3.14741 3.21338 0
M  V30 7827 C 796.049 1.3091 4.20179 0
M  V30 7828 H 793.168 0.351412 0.647826 0
M  V30 7829 H 795.81 1.44858 1.22948 0
M  V30 7830 H 793.96 1.19265 3.69741 0
M  V30 7831 H 795.632 3.65053 2.82017 0
M  V30 7832 H 793.875 3.4749 2.59679 0
M  V30 7833 H 794.546 3.54775 4.22894 0
M  V30 7834 H 797.022 1.66635 3.81277 0
M  V30 7835 H 795.898 1.784 5.191 0
M  V30 7836 H 796.159 0.229908 4.41502 0
M  V30 7837 N 795.218 -1.23913 0.973828 0
M  V30 7838 C 796.166 -2.27141 0.50098 0
M  V30 7839 C 797.16 -1.63623 -0.438631 0
M  V30 7840 O 798.366 -1.77253 -0.313247 0
M  V30 7841 H 794.741 -0.73817 0.14356 0
M  V30 7842 H 796.712 -2.64392 1.38346 0
M  V30 7843 C 795.461 -3.47195 -0.187377 0
M  V30 7844 H 794.784 -3.96318 0.526535 0
M  V30 7845 H 796.224 -4.21252 -0.481962 0
M  V30 7846 C 794.683 -3.05678 -1.41642 0
M  V30 7847 O 795.213 -3.1338 -2.51309 0
M  V30 7848 N 793.419 -2.60661 -1.28469 0
M  V30 7849 H 792.966 -2.54594 -0.39238 0
M  V30 7850 H 792.924 -2.33249 -2.10813 0
M  V30 7851 N 796.696 -0.74468 -1.38897 0
M  V30 7852 C 797.945 -0.293716 -1.9955 0
M  V30 7853 C 798.258 1.12831 -1.59777 0
M  V30 7854 O 799.464 1.67929 -2.13336 0
M  V30 7855 C 797.92 -0.474188 -3.56762 0
M  V30 7856 C 797.528 -1.90472 -4.05493 0
M  V30 7857 C 799.272 -0.0854875 -4.24414 0
M  V30 7858 C 797.179 -2.03423 -5.55314 0
M  V30 7859 H 796.109 -0.106066 -0.746502 0
M  V30 7860 H 798.76 -0.919948 -1.58774 0
M  V30 7861 H 797.142 0.221092 -3.95382 0
M  V30 7862 H 798.316 -2.63274 -3.78184 0
M  V30 7863 H 796.631 -2.24752 -3.50536 0
M  V30 7864 H 799.228 -0.161133 -5.34457 0
M  V30 7865 H 799.571 0.96066 -4.05064 0
M  V30 7866 H 800.104 -0.732286 -3.91002 0
M  V30 7867 H 796.843 -3.0626 -5.79556 0
M  V30 7868 H 796.363 -1.3507 -5.84394 0
M  V30 7869 H 798.042 -1.81996 -6.20876 0
M  V30 7870 N 798.174 1.49689 -0.493057 0
M  V30 7871 C 799.585 1.8665 -0.0433032 0
M  V30 7872 C 799.936 1.40607 1.36836 0
M  V30 7873 O 799.061 0.780503 2.01834 0
M  V30 7874 C 799.656 3.38724 -0.0718069 0
M  V30 7875 C 798.215 3.75015 0.32257 0
M  V30 7876 C 797.362 2.7366 -0.4478 0
M  V30 7877 H 800.313 1.42119 -0.706246 0
M  V30 7878 H 800.334 3.73522 0.725347 0
M  V30 7879 H 799.846 3.72204 -1.09935 0
M  V30 7880 H 797.947 3.47142 1.35364 0
M  V30 7881 H 798.06 4.79099 0.00864259 0
M  V30 7882 H 796.424 2.54498 0.101354 0
M  V30 7883 H 797.207 3.09985 -1.47527 0
M  V30 7884 N 799.652 0.226554 1.55963 0
M  V30 7885 C 800.877 -0.411527 2.03276 0
M  V30 7886 C 801.302 -1.52206 1.10521 0
M  V30 7887 O 800.66 -1.81054 0.0943217 0
M  V30 7888 C 800.708 -0.915694 3.4878 0
M  V30 7889 O 799.812 -2.02672 3.59163 0
M  V30 7890 H 799.153 -0.0924907 0.657527 0
M  V30 7891 H 801.683 0.346656 2.01642 0
M  V30 7892 H 801.693 -1.22421 3.892 0
M  V30 7893 H 800.368 -0.102915 4.15773 0
M  V30 7894 H 798.945 -1.72445 3.30632 0
M  V30 7895 N 801.13 -1.57531 -0.0467866 0
M  V30 7896 C 802.355 -1.93087 -0.757123 0
M  V30 7897 C 802.78 -0.825116 -1.69037 0
M  V30 7898 O 802.138 0.220449 -1.79955 0
M  V30 7899 C 802.186 -3.27669 -1.5055 0
M  V30 7900 O 801.29 -3.18667 -2.61773 0
M  V30 7901 H 800.631 -0.631597 -0.204892 0
M  V30 7902 H 803.161 -2.04599 -0.00755232 0
M  V30 7903 H 803.171 -3.6214 -1.87932 0
M  V30 7904 H 801.846 -4.07717 -0.820931 0
M  V30 7905 H 800.423 -2.95798 -2.27064 0
M  V30 7906 N 802.608 0.318715 -1.54344 0
M  V30 7907 C 803.856 1.054 -1.72439 0
M  V30 7908 C 804.177 1.88388 -0.503495 0
M  V30 7909 O 803.447 1.89866 0.48246 0
M  V30 7910 H 802.027 0.392124 -0.635805 0
M  V30 7911 H 804.689 0.35398 -1.91659 0
M  V30 7912 H 803.785 1.71726 -2.60608 0
M  V30 7913 N 804.086 1.46499 0.581025 0
M  V30 7914 C 805.311 1.55708 1.37002 0
M  V30 7915 C 805.736 0.19942 1.8704 0
M  V30 7916 O 805.094 -0.820731 1.61659 0
M  V30 7917 C 805.142 2.56716 2.53238 0
M  V30 7918 O 804.246 2.10336 3.54729 0
M  V30 7919 H 803.587 0.523912 0.407937 0
M  V30 7920 H 806.117 1.92085 0.704602 0
M  V30 7921 H 806.127 2.76378 3.00132 0
M  V30 7922 H 804.802 3.55307 2.16171 0
M  V30 7923 H 803.379 2.00669 3.14303 0
M  V30 7924 N 805.565 -0.825799 1.34232 0
M  V30 7925 C 806.795 -1.61129 1.29309 0
M  V30 7926 C 807.203 -1.88714 -0.135589 0
M  V30 7927 O 806.546 -1.47703 -1.09222 0
M  V30 7928 C 806.608 -2.97866 2.01287 0
M  V30 7929 C 806.272 -2.9319 3.50555 0
M  V30 7930 C 807.269 -2.67978 4.45515 0
M  V30 7931 C 804.954 -3.12913 3.92926 0
M  V30 7932 C 806.948 -2.62536 5.80822 0
M  V30 7933 C 804.635 -3.07096 5.28333 0
M  V30 7934 C 805.633 -2.8194 6.22092 0
M  V30 7935 O 805.321 -2.7605 7.55018 0
M  V30 7936 H 805.053 -0.507652 0.446391 0
M  V30 7937 H 807.607 -1.03575 1.77374 0
M  V30 7938 H 805.837 -3.57327 1.47832 0
M  V30 7939 H 807.526 -3.58848 1.89691 0
M  V30 7940 H 808.292 -2.52478 4.14101 0
M  V30 7941 H 804.171 -3.3151 3.20347 0
M  V30 7942 H 807.715 -2.42821 6.53975 0
M  V30 7943 H 803.612 -3.22148 5.59367 0
M  V30 7944 H 804.38 -2.91798 7.6472 0
M  V30 7945 N 807.043 -1.17915 -1.04565 0
M  V30 7946 C 807.973 -0.925033 -2.14395 0
M  V30 7947 C 808.954 0.135375 -1.6956 0
M  V30 7948 O 810.139 -0.0161774 -1.94193 0
M  V30 7949 C 807.269 -0.444469 -3.44444 0
M  V30 7950 C 806.223 -1.44478 -4.02877 0
M  V30 7951 C 805.549 -0.821933 -5.28345 0
M  V30 7952 C 806.849 -2.81995 -4.39632 0
M  V30 7953 H 808.543 -1.84354 -2.35911 0
M  V30 7954 H 806.089 -0.887806 -1.13375 0
M  V30 7955 H 808.042 -0.254078 -4.20633 0
M  V30 7956 H 806.766 0.509592 -3.226 0
M  V30 7957 H 805.425 -1.62203 -3.28764 0
M  V30 7958 H 805.073 0.139161 -5.02807 0
M  V30 7959 H 804.773 -1.48976 -5.68401 0
M  V30 7960 H 806.297 -0.641959 -6.07216 0
M  V30 7961 H 807.711 -2.67952 -5.06828 0
M  V30 7962 H 806.108 -3.45414 -4.90723 0
M  V30 7963 H 807.178 -3.35927 -3.49687 0
M  V30 7964 N 808.521 1.23394 -0.980386 0
M  V30 7965 C 809.77 1.91116 -0.644785 0
M  V30 7966 C 810.083 1.77333 0.825367 0
M  V30 7967 O 811.289 2.39858 1.27203 0
M  V30 7968 C 809.745 3.42592 -1.10266 0
M  V30 7969 C 809.353 3.65037 -2.59715 0
M  V30 7970 C 811.097 4.1609 -0.8408 0
M  V30 7971 C 809.004 5.10148 -2.9917 0
M  V30 7972 H 807.934 0.715632 -0.23746 0
M  V30 7973 H 810.585 1.39829 -1.18828 0
M  V30 7974 H 808.967 3.92989 -0.487372 0
M  V30 7975 H 810.141 3.25186 -3.26482 0
M  V30 7976 H 808.456 3.04849 -2.83647 0
M  V30 7977 H 811.053 5.23021 -1.11143 0
M  V30 7978 H 811.396 4.15702 0.223085 0
M  V30 7979 H 811.929 3.71681 -1.41767 0
M  V30 7980 H 808.668 5.15668 -4.04682 0
M  V30 7981 H 808.188 5.50949 -2.37097 0
M  V30 7982 H 809.867 5.7848 -2.89775 0
M  V30 7983 N 809.999 0.752036 1.385 0
M  V30 7984 C 810.909 0.125318 2.34265 0
M  V30 7985 C 811.925 -0.702437 1.59191 0
M  V30 7986 O 813.101 -0.626951 1.91393 0
M  V30 7987 C 810.166 -0.758486 3.38301 0
M  V30 7988 C 809.227 0.0834636 4.29219 0
M  V30 7989 C 808.46 -0.758252 5.28286 0
M  V30 7990 O 808.683 -1.99632 5.34325 0
M  V30 7991 O 807.617 -0.177878 6.01637 0
M  V30 7992 H 811.443 0.91617 2.89551 0
M  V30 7993 H 809.028 0.512911 1.4032 0
M  V30 7994 H 810.91 -1.26365 4.02007 0
M  V30 7995 H 809.585 -1.52786 2.85374 0
M  V30 7996 H 808.492 0.634545 3.68679 0
M  V30 7997 H 809.825 0.815455 4.85398 0
M  V30 7998 N 811.477 -1.49425 0.500989 0
M  V30 7999 C 812.707 -2.06561 -0.0402858 0
M  V30 8000 C 813.115 -1.36157 -1.31369 0
M  V30 8001 O 812.458 -0.433618 -1.78509 0
M  V30 8002 C 812.52 -3.5765 -0.364269 0
M  V30 8003 C 812.184 -4.49739 0.811417 0
M  V30 8004 C 813.181 -4.91255 1.7019 0
M  V30 8005 C 810.866 -4.92036 1.01022 0
M  V30 8006 C 812.86 -5.73806 2.77534 0
M  V30 8007 C 810.547 -5.74364 2.08683 0
M  V30 8008 C 811.545 -6.15154 2.96774 0
M  V30 8009 O 811.233 -6.95836 4.02577 0
M  V30 8010 H 810.965 -0.67578 0.0172357 0
M  V30 8011 H 813.519 -1.93193 0.697553 0
M  V30 8012 H 811.749 -3.69026 -1.1557 0
M  V30 8013 H 813.438 -3.97025 -0.844156 0
M  V30 8014 H 814.204 -4.59222 1.56013 0
M  V30 8015 H 810.083 -4.59789 0.333929 0
M  V30 8016 H 813.627 -6.05564 3.4632 0
M  V30 8017 H 809.524 -6.0581 2.22855 0
M  V30 8018 H 810.292 -7.14142 3.9993 0
M  V30 8019 N 812.955 -0.234822 -1.55841 0
M  V30 8020 C 814.371 0.120295 -1.59146 0
M  V30 8021 C 814.571 1.57896 -1.25184 0
M  V30 8022 O 813.627 2.32138 -0.993393 0
M  V30 8023 C 814.94 -0.217984 -2.99909 0
M  V30 8024 C 816.488 -0.161298 -3.12584 0
M  V30 8025 C 816.963 -0.473438 -4.55546 0
M  V30 8026 N 818.454 -0.423494 -4.6126 0
M  V30 8027 C 819.189 -0.638334 -5.69836 0
M  V30 8028 N 818.685 -0.915659 -6.86722 0
M  V30 8029 N 820.478 -0.569864 -5.59204 0
M  V30 8030 H 812.629 -1.18622 -1.76189 0
M  V30 8031 H 814.892 -0.476426 -0.819587 0
M  V30 8032 H 814.598 -1.2309 -3.29457 0
M  V30 8033 H 814.472 0.460707 -3.74376 0
M  V30 8034 H 816.859 0.842274 -2.82825 0
M  V30 8035 H 816.94 -0.873661 -2.40418 0
M  V30 8036 H 816.584 -1.47451 -4.86025 0
M  V30 8037 H 816.514 0.260268 -5.25956 0
M  V30 8038 H 819.005 -0.217383 -3.77274 0
M  V30 8039 H 819.318 -1.06734 -7.65394 0
M  V30 8040 H 817.663 -0.953 -6.88435 0
M  V30 8041 H 820.854 -0.35334 -4.66765 0
M  V30 8042 H 821.027 -0.740698 -6.43753 0
M  V30 8043 N 814.433 1.57553 0.0384317 0
M  V30 8044 C 815.679 1.89121 0.732199 0
M  V30 8045 C 816.012 0.831404 1.75503 0
M  V30 8046 O 815.287 -0.154642 1.93884 0
M  V30 8047 C 815.57 3.31338 1.41021 0
M  V30 8048 C 815.423 4.48004 0.401532 0
M  V30 8049 C 816.742 3.72318 2.34665 0
M  V30 8050 H 813.861 0.687819 0.264715 0
M  V30 8051 H 816.503 1.89999 -0.00496279 0
M  V30 8052 H 814.653 3.3072 2.03854 0
M  V30 8053 H 816.325 4.60755 -0.224159 0
M  V30 8054 H 814.568 4.32895 -0.280092 0
M  V30 8055 H 815.239 5.44377 0.91423 0
M  V30 8056 H 817.715 3.74243 1.81883 0
M  V30 8057 H 816.591 4.72652 2.7909 0
M  V30 8058 H 816.852 3.04062 3.20934 0
M  V30 8059 N 815.911 -0.310526 1.54511 0
M  V30 8060 C 816.874 -1.3657 1.84068 0
M  V30 8061 C 817.874 -1.44123 0.713097 0
M  V30 8062 O 819.064 -1.43924 0.981399 0
M  V30 8063 C 816.196 -2.75162 2.01243 0
M  V30 8064 H 817.389 -1.1161 2.78358 0
M  V30 8065 H 814.942 -0.546699 1.46427 0
M  V30 8066 H 815.677 -3.05359 1.09208 0
M  V30 8067 H 815.462 -2.71071 2.83307 0
M  V30 8068 H 816.952 -3.51473 2.25514 0
M  V30 8069 N 817.389 -1.46805 -0.573248 0
M  V30 8070 C 818.614 -1.56433 -1.36175 0
M  V30 8071 C 819.039 -0.209336 -1.86932 0
M  V30 8072 O 818.397 0.812146 -1.62092 0
M  V30 8073 C 818.445 -2.58055 -2.51873 0
M  V30 8074 O 817.549 -2.12214 -3.53609 0
M  V30 8075 H 816.89 -0.526068 -0.405153 0
M  V30 8076 H 819.42 -1.92456 -0.694405 0
M  V30 8077 H 819.43 -2.77966 -2.98662 0
M  V30 8078 H 818.105 -3.56448 -2.14284 0
M  V30 8079 H 816.682 -2.02333 -3.13234 0
M  V30 8080 N 818.867 0.818669 -1.34668 0
M  V30 8081 C 819.799 1.93754 -1.22442 0
M  V30 8082 C 820.812 1.62103 -0.150501 0
M  V30 8083 O 822.001 1.73898 -0.402728 0
M  V30 8084 C 819.101 3.27806 -0.860031 0
M  V30 8085 C 818.274 3.8745 -2.02981 0
M  V30 8086 C 817.333 4.99887 -1.64314 0
M  V30 8087 O 816.359 5.17957 -2.36029 0
M  V30 8088 N 817.561 5.77795 -0.55976 0
M  V30 8089 H 820.326 2.04773 -2.18833 0
M  V30 8090 H 817.887 0.995472 -1.27679 0
M  V30 8091 H 819.879 4.00478 -0.583068 0
M  V30 8092 H 818.449 3.12597 0.0138253 0
M  V30 8093 H 817.669 3.07119 -2.47127 0
M  V30 8094 H 818.957 4.2403 -2.81204 0
M  V30 8095 H 818.355 5.65688 0.0363329 0
M  V30 8096 H 816.912 6.50899 -0.342541 0
M  V30 8097 N 820.346 1.18468 1.03938 0
M  V30 8098 C 821.294 0.909286 2.14091 0
M  V30 8099 C 822.288 -0.130928 1.68893 0
M  V30 8100 O 823.494 0.0173403 1.79992 0
M  V30 8101 H 819.869 0.27658 0.699291 0
M  V30 8102 H 821.84 1.84514 2.34515 0
M  V30 8103 C 820.589 0.452922 3.44737 0
M  V30 8104 H 819.912 1.24485 3.79926 0
M  V30 8105 H 821.352 0.299238 4.22943 0
M  V30 8106 C 819.811 -0.831435 3.26479 0
M  V30 8107 O 820.341 -1.89535 3.54174 0
M  V30 8108 N 818.547 -0.784545 2.79809 0
M  V30 8109 H 818.094 0.0814746 2.57471 0
M  V30 8110 H 818.052 -1.64431 2.67973 0
M  V30 8111 N 821.824 -1.22873 0.986916 0
M  V30 8112 C 823.072 -1.91084 0.658121 0
M  V30 8113 C 823.393 -1.77304 -0.811675 0
M  V30 8114 O 822.663 -1.15649 -1.58121 0
M  V30 8115 H 821.243 -0.707251 0.240427 0
M  V30 8116 H 823.905 -1.49357 1.25213 0
M  V30 8117 H 823.001 -2.98373 0.915428 0
M  V30 8118 N 823.302 -0.75937 -1.38099 0
M  V30 8119 C 824.55 -0.317485 -1.99591 0
M  V30 8120 C 824.871 1.10628 -1.60581 0
M  V30 8121 O 824.141 1.7575 -0.865378 0
M  V30 8122 H 822.721 -0.114397 -0.738189 0
M  V30 8123 H 825.383 -0.974749 -1.68774 0
M  V30 8124 H 824.479 -0.385227 -3.09713 0
M  V30 8125 N 824.78 1.49157 -0.508906 0
M  V30 8126 C 826.028 2.02073 0.0327335 0
M  V30 8127 C 826.349 1.39012 1.3675 0
M  V30 8128 O 825.619 0.548153 1.88075 0
M  V30 8129 H 824.199 0.746848 0.0150864 0
M  V30 8130 H 826.861 1.83097 -0.667946 0
M  V30 8131 H 825.957 3.11707 0.1566 0
M  V30 8132 N 826.258 0.243083 1.55714 0
M  V30 8133 C 827.483 -0.389944 2.03701 0
M  V30 8134 C 827.908 -1.51025 1.12129 0
M  V30 8135 O 827.266 -1.80944 0.11352 0
M  V30 8136 C 827.314 -0.878649 3.49731 0
M  V30 8137 O 826.418 -1.98851 3.61292 0
M  V30 8138 H 825.759 -0.0855115 0.658471 0
M  V30 8139 H 828.289 0.368023 2.01263 0
M  V30 8140 H 828.299 -1.18287 3.90477 0
M  V30 8141 H 826.974 -0.0588107 4.15858 0
M  V30 8142 H 825.551 -1.68928 3.32442 0
M  V30 8143 N 827.736 -1.57571 -0.0300757 0
M  V30 8144 C 828.666 -2.0953 -1.03051 0
M  V30 8145 C 829.647 -0.99761 -1.37774 0
M  V30 8146 O 830.832 -1.27279 -1.46676 0
M  V30 8147 C 827.962 -2.57385 -2.33174 0
M  V30 8148 C 826.916 -3.71409 -2.12696 0
M  V30 8149 C 826.242 -4.05467 -3.4857 0
M  V30 8150 C 827.542 -4.99877 -1.51396 0
M  V30 8151 H 829.236 -2.93367 -0.597999 0
M  V30 8152 H 826.782 -1.41127 -0.286203 0
M  V30 8153 H 828.735 -2.92355 -3.03491 0
M  V30 8154 H 827.459 -1.70629 -2.78484 0
M  V30 8155 H 826.118 -3.36786 -1.44813 0
M  V30 8156 H 825.766 -3.15779 -3.91526 0
M  V30 8157 H 825.466 -4.82269 -3.35694 0
M  V30 8158 H 826.99 -4.4297 -4.2025 0
M  V30 8159 H 828.404 -5.3281 -2.11629 0
M  V30 8160 H 826.801 -5.81283 -1.49098 0
M  V30 8161 H 827.871 -4.82522 -0.479676 0
M  V30 8162 N 829.214 0.302327 -1.54673 0
M  V30 8163 C 830.442 1.05669 -1.77881 0
M  V30 8164 C 830.857 1.80983 -0.537648 0
M  V30 8165 O 830.214 1.7573 0.492467 0
M  V30 8166 C 830.265 2.03828 -2.98557 0
M  V30 8167 O 829.986 1.3157 -4.17877 0
M  V30 8168 C 831.487 2.91314 -3.34143 0
M  V30 8169 H 828.707 0.313436 -0.593295 0
M  V30 8170 H 831.251 0.342003 -2.0162 0
M  V30 8171 H 829.406 2.70801 -2.7703 0
M  V30 8172 H 829.82 1.97481 -4.85903 0
M  V30 8173 H 831.294 3.56042 -4.21827 0
M  V30 8174 H 831.771 3.59544 -2.52239 0
M  V30 8175 H 832.377 2.29874 -3.57824 0
M  V30 8176 N 830.692 1.47107 0.565454 0
M  V30 8177 C 831.939 1.53308 1.32299 0
M  V30 8178 C 832.267 0.1919 1.93551 0
M  V30 8179 O 831.522 -0.81435 1.77952 0
M  V30 8180 C 831.821 2.59309 2.45954 0
M  V30 8181 C 831.487 4.02827 2.02586 0
M  V30 8182 C 830.149 4.41897 1.90474 0
M  V30 8183 C 832.501 4.92913 1.6937 0
M  V30 8184 C 829.829 5.68898 1.4343 0
M  V30 8185 C 832.181 6.20368 1.238 0
M  V30 8186 C 830.845 6.58327 1.10278 0
M  V30 8187 H 830.115 0.560993 0.484116 0
M  V30 8188 H 832.762 1.80667 0.634965 0
M  V30 8189 H 831.067 2.25676 3.20277 0
M  V30 8190 H 832.764 2.61332 3.04149 0
M  V30 8191 H 829.354 3.71953 2.12952 0
M  V30 8192 H 833.538 4.63433 1.77605 0
M  V30 8193 H 828.794 5.97065 1.31618 0
M  V30 8194 H 832.968 6.89589 0.971586 0
M  V30 8195 H 830.595 7.56628 0.736027 0
M  V30 8196 N 832.17 -0.811516 1.35101 0
M  V30 8197 C 833.08 -1.95475 1.29718 0
M  V30 8198 C 834.096 -1.72813 0.202909 0
M  V30 8199 O 835.272 -1.96725 0.431414 0
M  V30 8200 C 832.337 -3.29975 1.06385 0
M  V30 8201 C 831.398 -3.65566 2.25077 0
M  V30 8202 C 830.631 -4.93648 2.02848 0
M  V30 8203 O 830.854 -5.617 0.992442 0
M  V30 8204 O 829.788 -5.27384 2.90087 0
M  V30 8205 H 833.614 -2.02961 2.25921 0
M  V30 8206 H 831.199 -0.948583 1.15422 0
M  V30 8207 H 833.081 -4.10506 0.951999 0
M  V30 8208 H 831.756 -3.2343 0.132294 0
M  V30 8209 H 830.663 -2.85432 2.41825 0
M  V30 8210 H 831.996 -3.7681 3.16662 0
M  V30 8211 N 833.648 -1.19017 -1.03309 0
M  V30 8212 C 834.558 -0.939303 -2.14975 0
M  V30 8213 C 835.574 0.0992359 -1.73717 0
M  V30 8214 O 836.75 -0.0844362 -2.01223 0
M  V30 8215 C 833.815 -0.476712 -3.43407 0
M  V30 8216 C 832.876 -1.58413 -3.99003 0
M  V30 8217 C 832.109 -1.14352 -5.21305 0
M  V30 8218 O 832.332 -0.00534408 -5.704 0
M  V30 8219 O 831.266 -1.94436 -5.6963 0
M  V30 8220 H 835.092 -1.87386 -2.38998 0
M  V30 8221 H 832.677 -0.972635 -1.13403 0
M  V30 8222 H 834.559 -0.22718 -4.20787 0
M  V30 8223 H 833.234 0.429455 -3.20839 0
M  V30 8224 H 832.141 -1.88777 -3.22977 0
M  V30 8225 H 833.474 -2.4667 -4.25928 0
M  V30 8226 N 835.127 1.22348 -0.993418 0
M  V30 8227 C 836.09 2.22522 -0.549251 0
M  V30 8228 C 837.09 1.56529 0.368164 0
M  V30 8229 O 838.28 1.73463 0.16005 0
M  V30 8230 C 835.412 3.40307 0.201037 0
M  V30 8231 H 836.605 2.63332 -1.43515 0
M  V30 8232 H 834.158 1.35407 -0.78068 0
M  V30 8233 H 834.893 3.0497 1.10289 0
M  V30 8234 H 834.678 3.8942 -0.457685 0
M  V30 8235 H 836.168 4.14597 0.499946 0
M  V30 8236 N 836.605 0.766683 1.37694 0
M  V30 8237 C 837.853 0.328065 1.9942 0
M  V30 8238 C 838.174 -1.09775 1.61166 0
M  V30 8239 O 837.444 -1.75288 0.874686 0
M  V30 8240 H 836.024 0.11831 0.737572 0
M  V30 8241 H 838.686 0.983686 1.68255 0
M  V30 8242 H 837.782 0.401647 3.09505 0
M  V30 8243 N 838.083 -1.48885 0.516809 0
M  V30 8244 C 839.331 -2.02088 -0.0220166 0
M  V30 8245 C 839.652 -1.39735 -1.36011 0
M  V30 8246 O 838.922 -0.558119 -1.87781 0
M  V30 8247 H 837.502 -0.746917 -0.0111255 0
M  V30 8248 H 840.164 -1.8274 0.677647 0
M  V30 8249 H 839.26 -3.11786 -0.140067 0
M  V30 8250 N 839.561 -0.251338 -1.55583 0
M  V30 8251 C 840.524 0.63305 -2.20284 0
M  V30 8252 C 841.524 1.09941 -1.17344 0
M  V30 8253 O 842.714 1.00341 -1.42399 0
M  V30 8254 C 839.846 1.8706 -2.84993 0
M  V30 8255 H 841.039 0.0684846 -2.99822 0
M  V30 8256 H 838.592 -0.00181653 -1.563 0
M  V30 8257 H 839.327 2.47629 -2.09405 0
M  V30 8258 H 839.112 1.54436 -3.60405 0
M  V30 8259 H 840.602 2.50004 -3.34496 0
M  V30 8260 N 841.039 1.57585 0.0217189 0
M  V30 8261 C 842.45 1.7787 0.567377 0
M  V30 8262 C 842.801 0.883337 1.7519 0
M  V30 8263 O 841.926 0.0800819 2.16252 0
M  V30 8264 C 842.521 3.2257 1.03606 0
M  V30 8265 C 841.08 3.44026 1.52718 0
M  V30 8266 C 840.227 2.73313 0.468545 0
M  V30 8267 H 843.178 1.57377 -0.2045 0
M  V30 8268 H 843.199 3.29488 1.9031 0
M  V30 8269 H 842.711 3.87711 0.173739 0
M  V30 8270 H 840.812 2.8407 2.41111 0
M  V30 8271 H 840.925 4.52659 1.56962 0
M  V30 8272 H 839.289 2.37299 0.925263 0
M  V30 8273 H 840.072 3.41141 -0.384438 0
M  V30 8274 N 842.517 -0.29412 1.54831 0
M  V30 8275 C 843.763 -1.02999 1.74697 0
M  V30 8276 C 844.096 -1.86687 0.534949 0
M  V30 8277 O 843.371 -1.88789 -0.467863 0
M  V30 8278 C 843.654 -1.93024 3.03996 0
M  V30 8279 C 843.507 -1.1247 4.35512 0
M  V30 8280 C 844.826 -2.92085 3.29203 0
M  V30 8281 H 841.945 -0.373039 0.635618 0
M  V30 8282 H 844.587 -0.304065 1.87551 0
M  V30 8283 H 842.737 -2.5492 2.93169 0
M  V30 8284 H 844.409 -0.528067 4.58268 0
M  V30 8285 H 842.652 -0.427574 4.31688 0
M  V30 8286 H 843.323 -1.78728 5.22265 0
M  V30 8287 H 845.799 -2.40319 3.39685 0
M  V30 8288 H 844.675 -3.52234 4.20978 0
M  V30 8289 H 844.936 -3.66107 2.47827 0
M  V30 8290 N 843.995 -1.47404 -0.557645 0
M  V30 8291 C 844.945 -1.56267 -1.66026 0
M  V30 8292 C 845.929 -0.42161 -1.55278 0
M  V30 8293 O 847.121 -0.671505 -1.63768 0
M  V30 8294 C 844.25 -1.57958 -3.04802 0
M  V30 8295 C 843.336 -2.77447 -3.20755 0
M  V30 8296 N 843.727 -4.02148 -3.06775 0
M  V30 8297 C 842.025 -2.74199 -3.51754 0
M  V30 8298 C 842.726 -4.82168 -3.25406 0
M  V30 8299 N 841.702 -4.14481 -3.5172 0
M  V30 8300 H 845.504 -2.50454 -1.53785 0
M  V30 8301 H 843.018 -1.43392 -0.762388 0
M  V30 8302 H 845.015 -1.62397 -3.8397 0
M  V30 8303 H 843.675 -0.648667 -3.18155 0
M  V30 8304 H 844.686 -4.33014 -2.84111 0
M  V30 8305 H 841.363 -1.90243 -3.71637 0
M  V30 8306 H 842.753 -5.91037 -3.19569 0
M  V30 8307 N 845.473 0.80434 -1.35529 0
M  V30 8308 C 846.721 1.55845 -1.28673 0
M  V30 8309 C 847.042 1.94511 0.137976 0
M  V30 8310 O 846.312 1.63775 1.07492 0
M  V30 8311 H 844.892 0.577931 -0.473291 0
M  V30 8312 H 847.554 0.959293 -1.69657 0
M  V30 8313 H 846.65 2.47285 -1.90411 0
M  V30 8314 N 846.951 1.19563 1.02676 0
M  V30 8315 C 848.179 1.02488 1.79732 0
M  V30 8316 C 848.594 -0.426302 1.83924 0
M  V30 8317 O 847.951 -1.29609 1.28483 0
M  V30 8318 C 848.002 1.58944 3.24683 0
M  V30 8319 O 847.723 2.98382 3.2078 0
M  V30 8320 C 849.224 1.46681 4.1833 0
M  V30 8321 H 846.444 0.361098 0.565552 0
M  V30 8322 H 848.988 1.58426 1.29311 0
M  V30 8323 H 847.143 1.0715 3.72287 0
M  V30 8324 H 847.557 3.24983 4.11687 0
M  V30 8325 H 849.031 1.90959 5.17918 0
M  V30 8326 H 849.508 0.417663 4.3721 0
M  V30 8327 H 850.114 1.97616 3.76601 0
M  V30 8328 N 848.429 -1.21819 0.999893 0
M  V30 8329 C 849.678 -1.90066 0.675108 0
M  V30 8330 C 849.991 -1.78624 -0.79705 0
M  V30 8331 O 851.197 -2.41851 -1.23371 0
M  V30 8332 C 849.653 -3.40795 1.15702 0
M  V30 8333 C 849.261 -3.60859 2.6549 0
M  V30 8334 C 851.005 -4.147 0.906889 0
M  V30 8335 C 848.912 -5.05324 3.07248 0
M  V30 8336 H 847.842 -0.711763 0.248815 0
M  V30 8337 H 850.493 -1.3792 1.21038 0
M  V30 8338 H 848.875 -3.92164 0.549832 0
M  V30 8339 H 850.049 -3.19951 3.31614 0
M  V30 8340 H 848.364 -3.00298 2.88461 0
M  V30 8341 H 850.961 -5.21187 1.1945 0
M  V30 8342 H 851.304 -4.16004 -0.156923 0
M  V30 8343 H 851.837 -3.69379 1.47662 0
M  V30 8344 H 848.576 -5.09164 4.12834 0
M  V30 8345 H 848.096 -5.47108 2.45832 0
M  V30 8346 H 849.775 -5.73797 2.98941 0
M  V30 8347 N 849.908 -0.773975 -1.37286 0
M  V30 8348 C 850.871 -0.167974 -2.28584 0
M  V30 8349 C 851.871 0.625662 -1.48129 0
M  V30 8350 O 853.061 0.448924 -1.68316 0
M  V30 8351 C 850.193 0.769364 -3.32105 0
M  V30 8352 H 851.386 -0.972806 -2.83684 0
M  V30 8353 H 848.939 -0.542335 -1.46589 0
M  V30 8354 H 849.674 1.59912 -2.82132 0
M  V30 8355 H 849.459 0.202419 -3.91577 0
M  V30 8356 H 850.949 1.18872 -4.00324 0
M  V30 8357 N 851.386 1.48609 -0.524698 0
M  V30 8358 C 852.635 2.01696 0.0132937 0
M  V30 8359 C 852.948 1.40751 1.35825 0
M  V30 8360 O 854.154 1.85304 1.9843 0
M  V30 8361 C 852.61 3.59824 0.0741012 0
M  V30 8362 C 852.218 4.2975 -1.26564 0
M  V30 8363 C 853.962 4.20774 0.5612 0
M  V30 8364 C 851.869 5.79798 -1.16571 0
M  V30 8365 H 850.799 0.753949 0.00873931 0
M  V30 8366 H 853.45 1.70922 -0.667684 0
M  V30 8367 H 851.832 3.87416 0.820043 0
M  V30 8368 H 853.006 4.13836 -2.02674 0
M  V30 8369 H 851.321 3.80649 -1.68806 0
M  V30 8370 H 853.918 5.30687 0.653853 0
M  V30 8371 H 854.261 3.85734 1.56573 0
M  V30 8372 H 854.794 3.97591 -0.128901 0
M  V30 8373 H 851.533 6.19403 -2.14523 0
M  V30 8374 H 851.053 5.9814 -0.445894 0
M  V30 8375 H 852.732 6.41337 -0.854186 0
M  V30 8376 N 852.864 0.259585 1.55447 0
M  V30 8377 C 854.275 -0.241165 1.85136 0
M  V30 8378 C 854.626 -1.56634 1.18153 0
M  V30 8379 O 853.751 -2.11359 0.464351 0
M  V30 8380 C 854.346 -0.444355 3.35873 0
M  V30 8381 C 852.905 -0.889354 3.65742 0
M  V30 8382 C 852.052 0.0262474 2.77288 0
M  V30 8383 H 855.003 0.481808 1.51209 0
M  V30 8384 H 855.024 -1.28517 3.58139 0
M  V30 8385 H 854.536 0.520289 3.84597 0
M  V30 8386 H 852.637 -1.86602 3.22507 0
M  V30 8387 H 852.75 -0.737432 4.73391 0
M  V30 8388 H 851.114 -0.487361 2.49994 0
M  V30 8389 H 851.897 0.986494 3.28821 0
M  V30 8390 N 854.342 -1.57594 -0.0133615 0
M  V30 8391 C 855.305 -2.06534 -0.993799 0
M  V30 8392 C 856.305 -0.972267 -1.28077 0
M  V30 8393 O 857.495 -1.23537 -1.22818 0
M  V30 8394 C 854.627 -2.49554 -2.3224 0
M  V30 8395 H 855.82 -2.94419 -0.570741 0
M  V30 8396 H 853.373 -1.54113 -0.260546 0
M  V30 8397 H 854.108 -1.64872 -2.79263 0
M  V30 8398 H 853.893 -3.29371 -2.12737 0
M  V30 8399 H 855.383 -2.8779 -3.026 0
M  V30 8400 N 855.82 0.285905 -1.54985 0
M  V30 8401 C 857.048 1.03776 -1.78992 0
M  V30 8402 C 857.463 1.80402 -0.556814 0
M  V30 8403 O 856.82 1.76242 0.473801 0
M  V30 8404 C 856.871 2.0065 -3.00702 0
M  V30 8405 O 856.592 1.27131 -4.19249 0
M  V30 8406 C 858.093 2.87753 -3.37214 0
M  V30 8407 H 855.313 0.307126 -0.596586 0
M  V30 8408 H 857.857 0.3206 -2.01971 0
M  V30 8409 H 856.012 2.67847 -2.79887 0
M  V30 8410 H 856.426 1.92316 -4.8797 0
M  V30 8411 H 857.9 3.51548 -4.2558 0
M  V30 8412 H 858.377 3.56848 -2.56039 0
M  V30 8413 H 858.983 2.26065 -3.60242 0
M  V30 8414 N 857.298 1.47698 0.54982 0
M  V30 8415 C 858.546 1.54397 1.30407 0
M  V30 8416 C 858.867 0.211026 1.93855 0
M  V30 8417 O 858.137 -0.765701 1.80316 0
M  V30 8418 H 856.717 0.568747 0.484289 0
M  V30 8419 H 859.379 1.84042 0.641444 0
M  V30 8420 H 858.475 2.31449 2.09375 0
M  V30 8421 N 858.776 -0.797141 1.35954 0
M  V30 8422 C 860.024 -1.55161 1.29497 0
M  V30 8423 C 860.345 -1.94582 -0.127659 0
M  V30 8424 O 859.615 -1.64343 -1.06622 0
M  V30 8425 H 858.195 -0.575413 0.47635 0
M  V30 8426 H 860.857 -0.950282 1.70164 0
M  V30 8427 H 859.953 -2.46272 1.9172 0
M  V30 8428 N 860.254 -1.20106 -1.0204 0
M  V30 8429 C 861.5 -1.02042 -1.75951 0
M  V30 8430 C 861.855 0.443229 -1.87225 0
M  V30 8431 O 861.148 1.32477 -1.38421 0
M  V30 8432 C 861.342 -1.63308 -3.17908 0
M  V30 8433 C 861.171 -3.15478 -3.20474 0
M  V30 8434 C 859.941 -3.84432 -3.27933 0
M  V30 8435 C 862.139 -4.12747 -3.06829 0
M  V30 8436 N 860.121 -5.23925 -3.19963 0
M  V30 8437 C 861.492 -5.38892 -3.06586 0
M  V30 8438 C 863.547 -4.03996 -2.91018 0
M  V30 8439 C 862.25 -6.57296 -2.92154 0
M  V30 8440 C 864.276 -5.22019 -2.77938 0
M  V30 8441 C 863.638 -6.47067 -2.78358 0
M  V30 8442 H 859.737 -0.427602 -0.654737 0
M  V30 8443 H 862.321 -1.52216 -1.21402 0
M  V30 8444 H 860.492 -1.15723 -3.7076 0
M  V30 8445 H 862.224 -1.38597 -3.80227 0
M  V30 8446 H 858.979 -3.35269 -3.34502 0
M  V30 8447 H 859.403 -5.9694 -3.19362 0
M  V30 8448 H 864.045 -3.0813 -2.8951 0
M  V30 8449 H 861.763 -7.5334 -2.92412 0
M  V30 8450 H 865.349 -5.17057 -2.66728 0
M  V30 8451 H 864.229 -7.36857 -2.6835 0
M  V30 8452 N 861.732 1.21287 -1.00634 0
M  V30 8453 C 862.664 2.2308 -0.526094 0
M  V30 8454 C 863.677 1.58157 0.386031 0
M  V30 8455 O 864.866 1.77528 0.186016 0
M  V30 8456 C 861.966 3.37937 0.255289 0
M  V30 8457 C 861.139 4.32449 -0.656236 0
M  V30 8458 C 860.198 5.26145 0.0757714 0
M  V30 8459 O 859.224 5.66601 -0.543325 0
M  V30 8460 N 860.426 5.6449 1.35391 0
M  V30 8461 H 863.191 2.64913 -1.40147 0
M  V30 8462 H 860.752 1.35724 -0.882641 0
M  V30 8463 H 862.744 3.97614 0.753977 0
M  V30 8464 H 861.314 2.95078 1.03187 0
M  V30 8465 H 860.534 3.70892 -1.3354 0
M  V30 8466 H 861.822 4.92526 -1.27653 0
M  V30 8467 H 861.22 5.33617 1.878 0
M  V30 8468 H 859.777 6.26524 1.79753 0
M  V30 8469 N 863.21 0.781244 1.36873 0
M  V30 8470 C 864.438 0.361566 2.03716 0
M  V30 8471 C 864.853 -1.01937 1.58916 0
M  V30 8472 O 864.21 -1.65237 0.774783 0
M  V30 8473 C 864.261 0.406391 3.59208 0
M  V30 8474 O 863.982 1.73286 4.02372 0
M  V30 8475 C 865.483 -0.0236894 4.43294 0
M  V30 8476 H 862.703 0.150133 0.653988 0
M  V30 8477 H 865.247 1.05781 1.75016 0
M  V30 8478 H 863.402 -0.241364 3.86647 0
M  V30 8479 H 863.816 1.67804 4.96933 0
M  V30 8480 H 865.29 0.0588205 5.51969 0
M  V30 8481 H 865.767 -1.07529 4.25833 0
M  V30 8482 H 866.373 0.59624 4.211 0
M  V30 8483 N 864.689 -1.48329 0.532571 0
M  V30 8484 C 865.935 -2.03399 0.00755104 0
M  V30 8485 C 866.29 -1.40213 -1.3175 0
M  V30 8486 O 865.583 -0.539633 -1.83844 0
M  V30 8487 C 865.777 -3.57 -0.168943 0
M  V30 8488 C 865.606 -4.35077 1.13745 0
M  V30 8489 C 864.376 -4.75915 1.69803 0
M  V30 8490 C 866.574 -4.71734 2.04869 0
M  V30 8491 N 864.556 -5.38538 2.94703 0
M  V30 8492 C 865.927 -5.34403 3.14346 0
M  V30 8493 C 867.982 -4.53665 2.05164 0
M  V30 8494 C 866.685 -5.80912 4.24186 0
M  V30 8495 C 868.711 -5.01157 3.13999 0
M  V30 8496 C 868.073 -5.63853 4.22195 0
M  V30 8497 H 864.172 -0.780743 0.0443253 0
M  V30 8498 H 866.756 -1.81119 0.714423 0
M  V30 8499 H 864.927 -3.79099 -0.844903 0
M  V30 8500 H 866.659 -3.98708 -0.693804 0
M  V30 8501 H 863.414 -4.57103 1.23909 0
M  V30 8502 H 863.838 -5.74413 3.583 0
M  V30 8503 H 868.48 -4.04571 1.22808 0
M  V30 8504 H 866.198 -6.2901 5.07318 0
M  V30 8505 H 869.784 -4.88965 3.15285 0
M  V30 8506 H 868.664 -5.99935 5.05023 0
M  V30 8507 N 866.167 -0.267825 -1.55308 0
M  V30 8508 C 867.395 0.354587 -2.03839 0
M  V30 8509 C 867.81 1.50007 -1.14644 0
M  V30 8510 O 867.167 1.81752 -0.165055 0
M  V30 8511 C 867.218 0.84254 -3.51544 0
M  V30 8512 O 866.939 -0.257318 -4.37344 0
M  V30 8513 C 868.44 1.53351 -4.15931 0
M  V30 8514 H 865.66 0.0818131 -0.665994 0
M  V30 8515 H 868.204 -0.397795 -2.00594 0
M  V30 8516 H 866.359 1.54503 -3.55257 0
M  V30 8517 H 866.773 0.116593 -5.2437 0
M  V30 8518 H 868.247 1.82643 -5.20908 0
M  V30 8519 H 868.724 2.4626 -3.63666 0
M  V30 8520 H 869.33 0.87506 -4.162 0
M  V30 8521 N 867.645 1.57599 0.00500368 0
M  V30 8522 C 868.873 1.94626 0.702016 0
M  V30 8523 C 869.288 0.86953 1.67585 0
M  V30 8524 O 868.645 -0.15199 1.81866 0
M  V30 8525 C 868.696 3.31658 1.43824 0
M  V30 8526 O 868.417 4.35197 0.503467 0
M  V30 8527 C 869.918 3.83114 2.23021 0
M  V30 8528 H 867.138 0.641785 0.195841 0
M  V30 8529 H 869.682 2.04451 -0.0446287 0
M  V30 8530 H 867.837 3.23156 2.13655 0
M  V30 8531 H 868.251 5.1444 1.02235 0
M  V30 8532 H 869.725 4.81438 2.7004 0
M  V30 8533 H 870.202 3.15559 3.05482 0
M  V30 8534 H 870.808 3.94775 1.58216 0
M  V30 8535 N 869.123 -0.277682 1.55134 0
M  V30 8536 C 870.372 -1.00766 1.74726 0
M  V30 8537 C 870.685 -1.87617 0.553092 0
M  V30 8538 O 871.891 -2.64058 0.631318 0
M  V30 8539 C 870.347 -1.84147 3.09221 0
M  V30 8540 C 869.955 -1.02186 4.3619 0
M  V30 8541 C 871.699 -2.56604 3.38164 0
M  V30 8542 C 869.606 -1.84978 5.61727 0
M  V30 8543 H 868.536 -0.379948 0.651273 0
M  V30 8544 H 871.187 -0.263543 1.81598 0
M  V30 8545 H 869.569 -2.62637 2.96375 0
M  V30 8546 H 870.743 -0.281459 4.5994 0
M  V30 8547 H 869.058 -0.412054 4.14356 0
M  V30 8548 H 871.655 -3.18942 4.29162 0
M  V30 8549 H 871.998 -3.26647 2.58085 0
M  V30 8550 H 872.531 -1.85147 3.52087 0
M  V30 8551 H 869.27 -1.19365 6.4454 0
M  V30 8552 H 868.79 -2.56628 5.42128 0
M  V30 8553 H 870.469 -2.42458 5.99853 0
M  V30 8554 N 870.601 -1.47988 -0.541979 0
M  V30 8555 C 871.533 -1.5769 -1.66332 0
M  V30 8556 C 872.546 -0.461994 -1.56107 0
M  V30 8557 O 873.735 -0.732306 -1.62787 0
M  V30 8558 C 870.835 -1.47939 -3.04905 0
M  V30 8559 C 870.008 -2.74263 -3.40733 0
M  V30 8560 C 869.067 -2.58133 -4.58534 0
M  V30 8561 O 868.093 -3.31991 -4.62354 0
M  V30 8562 N 869.295 -1.6696 -5.55972 0
M  V30 8563 H 872.06 -2.54389 -1.5845 0
M  V30 8564 H 869.621 -1.4456 -0.728979 0
M  V30 8565 H 871.613 -1.34861 -3.81569 0
M  V30 8566 H 870.183 -0.592626 -3.06931 0
M  V30 8567 H 869.403 -3.01992 -2.53366 0
M  V30 8568 H 870.691 -3.58094 -3.6145 0
M  V30 8569 H 870.089 -1.06134 -5.55655 0
M  V30 8570 H 868.646 -1.59826 -6.31901 0
M  V30 8571 N 872.079 0.78992 -1.36375 0
M  V30 8572 C 873.029 1.89227 -1.27189 0
M  V30 8573 C 874.013 1.60067 -0.163498 0
M  V30 8574 O 875.205 1.72507 -0.396262 0
M  V30 8575 C 872.334 3.26431 -1.06292 0
M  V30 8576 C 871.42 3.61602 -2.21596 0
M  V30 8577 N 871.811 3.68086 -3.4691 0
M  V30 8578 C 870.109 3.9166 -2.1335 0
M  V30 8579 C 870.81 3.99481 -4.22835 0
M  V30 8580 N 869.786 4.14438 -3.5177 0
M  V30 8581 H 873.588 1.92465 -2.22113 0
M  V30 8582 H 871.102 0.985414 -1.29087 0
M  V30 8583 H 873.099 4.05267 -0.97798 0
M  V30 8584 H 871.759 3.24468 -0.122676 0
M  V30 8585 H 872.77 3.50743 -3.81051 0
M  V30 8586 H 869.447 3.97626 -1.27279 0
M  V30 8587 H 870.837 4.11425 -5.31205 0
M  V30 8588 N 873.557 1.20646 1.01402 0
M  V30 8589 C 874.785 1.04389 1.78635 0
M  V30 8590 C 875.2 -0.406771 1.84366 0
M  V30 8591 O 874.557 -1.28239 1.2985 0
M  V30 8592 C 874.608 1.62378 3.22979 0
M  V30 8593 O 874.329 3.01768 3.17597 0
M  V30 8594 C 875.83 1.5111 4.1675 0
M  V30 8595 H 873.05 0.367077 0.56169 0
M  V30 8596 H 875.594 1.59789 1.27624 0
M  V30 8597 H 873.749 1.11092 3.7113 0
M  V30 8598 H 874.163 3.29331 4.08217 0
M  V30 8599 H 875.637 1.96441 5.15863 0
M  V30 8600 H 876.114 0.464011 4.36742 0
M  V30 8601 H 876.72 2.01599 3.74483 0
M  V30 8602 N 875.035 -1.20752 1.01276 0
M  V30 8603 C 876.281 -1.90302 0.700924 0
M  V30 8604 C 876.614 -1.78406 -0.767142 0
M  V30 8605 O 875.889 -1.16575 -1.55694 0
M  V30 8606 C 876.172 -3.41831 1.13242 0
M  V30 8607 C 876.025 -3.6268 2.66051 0
M  V30 8608 C 877.344 -4.34486 0.700738 0
M  V30 8609 H 874.463 -0.69107 0.256107 0
M  V30 8610 H 877.105 -1.42227 1.25982 0
M  V30 8611 H 875.255 -3.82906 0.656902 0
M  V30 8612 H 876.927 -3.30882 3.21426 0
M  V30 8613 H 875.17 -3.06281 3.07204 0
M  V30 8614 H 875.841 -4.68882 2.91296 0
M  V30 8615 H 878.317 -4.01036 1.10948 0
M  V30 8616 H 877.193 -5.39136 1.03073 0
M  V30 8617 H 877.454 -4.40307 -0.39778 0
M  V30 8618 N 876.513 -0.788492 -1.36457 0
M  V30 8619 C 877.461 -0.174192 -2.31947 0
M  V30 8620 C 878.455 0.665974 -1.5576 0
M  V30 8621 O 879.661 0.561161 -1.71029 0
M  V30 8622 H 876.036 -0.0375538 -0.751062 0
M  V30 8623 H 878.007 -0.995011 -2.81322 0
M  V30 8624 C 876.756 0.677276 -3.4104 0
M  V30 8625 H 876.079 0.0401418 -3.9978 0
M  V30 8626 H 877.519 1.07379 -4.10178 0
M  V30 8627 C 875.978 1.83512 -2.82533 0
M  V30 8628 O 876.508 2.93164 -2.74623 0
M  V30 8629 N 874.714 1.64095 -2.39836 0
M  V30 8630 H 874.261 0.749046 -2.46469 0
M  V30 8631 H 874.219 2.41726 -2.01037 0
M  V30 8632 N 877.991 1.48044 -0.54043 0
M  V30 8633 C 878.921 2.32597 0.205178 0
M  V30 8634 C 879.902 1.42748 0.925041 0
M  V30 8635 O 881.087 1.71624 0.908784 0
M  V30 8636 C 878.217 3.24175 1.24612 0
M  V30 8637 C 877.171 4.23131 0.64376 0
M  V30 8638 C 876.497 5.03915 1.78812 0
M  V30 8639 C 877.797 5.20831 -0.39144 0
M  V30 8640 H 879.491 2.95184 -0.500676 0
M  V30 8641 H 877.037 1.41948 -0.242225 0
M  V30 8642 H 878.99 3.82158 1.77576 0
M  V30 8643 H 877.714 2.59608 1.98169 0
M  V30 8644 H 876.373 3.66349 0.135554 0
M  V30 8645 H 876.021 4.35765 2.51232 0
M  V30 8646 H 875.721 5.709 1.39094 0
M  V30 8647 H 877.245 5.64753 2.32134 0
M  V30 8648 H 878.659 5.73277 0.0515064 0
M  V30 8649 H 877.056 5.95926 -0.706569 0
M  V30 8650 H 878.126 4.6733 -1.29345 0
M  V30 8651 N 879.47 0.276058 1.55163 0
M  V30 8652 C 880.695 -0.346648 2.04483 0
M  V30 8653 C 881.12 -1.48613 1.15308 0
M  V30 8654 O 880.478 -1.80663 0.151875 0
M  V30 8655 C 880.526 -0.804268 3.51517 0
M  V30 8656 O 879.63 -1.91143 3.65429 0
M  V30 8657 H 878.971 -0.0715251 0.660136 0
M  V30 8658 H 881.501 0.410631 2.00437 0
M  V30 8659 H 881.511 -1.09977 3.92898 0
M  V30 8660 H 880.186 0.0294123 4.1589 0
M  V30 8661 H 878.763 -1.61839 3.3595 0
M  V30 8662 N 880.948 -1.576 0.00335426 0
M  V30 8663 C 881.911 -2.07576 -0.971838 0
M  V30 8664 C 882.911 -0.985796 -1.27038 0
M  V30 8665 O 884.101 -1.24833 -1.21501 0
M  V30 8666 C 881.233 -2.52003 -2.29581 0
M  V30 8667 H 882.426 -2.95008 -0.539481 0
M  V30 8668 H 879.979 -1.54381 -0.244186 0
M  V30 8669 H 880.714 -1.67825 -2.77498 0
M  V30 8670 H 880.499 -3.31609 -2.09231 0
M  V30 8671 H 881.989 -2.90983 -2.99531 0
M  V30 8672 N 882.426 0.269451 -1.5528 0
M  V30 8673 C 883.674 0.998604 -1.75705 0
M  V30 8674 C 883.995 1.86691 -0.563175 0
M  V30 8675 O 883.265 1.91305 0.421811 0
M  V30 8676 H 881.845 0.371698 -0.647958 0
M  V30 8677 H 884.507 0.292826 -1.92688 0
M  V30 8678 H 883.603 1.63348 -2.6594 0
M  V30 8679 N 883.904 1.48273 0.534124 0
M  V30 8680 C 885.129 1.59988 1.31979 0
M  V30 8681 C 885.554 0.258824 1.86311 0
M  V30 8682 O 884.912 -0.768885 1.64188 0
M  V30 8683 C 884.96 2.64642 2.44943 0
M  V30 8684 O 884.064 2.21515 3.47858 0
M  V30 8685 H 883.405 0.536625 0.391063 0
M  V30 8686 H 885.935 1.94229 0.643135 0
M  V30 8687 H 885.945 2.85786 2.91187 0
M  V30 8688 H 884.62 3.62004 2.04758 0
M  V30 8689 H 883.197 2.10567 3.0776 0
M  V30 8690 N 885.382 -0.782676 1.36792 0
M  V30 8691 C 886.332 -1.8855 1.28191 0
M  V30 8692 C 887.316 -1.59978 0.171984 0
M  V30 8693 O 888.508 -1.72295 0.405405 0
M  V30 8694 C 885.637 -3.25862 1.08021 0
M  V30 8695 C 884.723 -3.60422 2.2351 0
M  V30 8696 N 885.114 -3.66241 3.48857 0
M  V30 8697 C 883.412 -3.90523 2.15424 0
M  V30 8698 C 884.113 -3.97233 4.24948 0
M  V30 8699 N 883.089 -4.12567 3.53963 0
M  V30 8700 H 886.891 -1.91285 2.23131 0
M  V30 8701 H 884.405 -0.978554 1.29607 0
M  V30 8702 H 886.402 -4.04742 0.999458 0
M  V30 8703 H 885.062 -3.24399 0.139882 0
M  V30 8704 H 886.073 -3.48717 3.82906 0
M  V30 8705 H 882.75 -3.96945 1.29386 0
M  V30 8706 H 884.14 -4.08602 5.33379 0
M  V30 8707 N 886.86 -1.21182 -1.00761 0
M  V30 8708 C 887.792 -0.926523 -2.09638 0
M  V30 8709 C 888.805 0.0892511 -1.62555 0
M  V30 8710 O 889.994 -0.142915 -1.77927 0
M  V30 8711 C 887.094 -0.369175 -3.36883 0
M  V30 8712 C 886.267 -1.43866 -4.13063 0
M  V30 8713 C 885.326 -0.891015 -5.18601 0
M  V30 8714 O 884.352 -1.57384 -5.47009 0
M  V30 8715 N 885.554 0.295057 -5.7975 0
M  V30 8716 H 888.319 -1.8638 -2.34697 0
M  V30 8717 H 885.88 -1.11671 -1.17223 0
M  V30 8718 H 887.872 0.011534 -4.04698 0
M  V30 8719 H 886.442 0.472861 -3.09003 0
M  V30 8720 H 885.662 -1.99332 -3.40089 0
M  V30 8721 H 886.95 -2.15866 -4.60738 0
M  V30 8722 H 886.348 0.8669 -5.59018 0
M  V30 8723 H 884.905 0.617306 -6.4887 0
M  V30 8724 N 888.338 1.20213 -1.01915 0
M  V30 8725 C 889.585 1.89647 -0.709955 0
M  V30 8726 C 889.913 1.7901 0.760631 0
M  V30 8727 O 889.168 1.17028 1.56853 0
M  V30 8728 C 889.467 3.40232 -1.09438 0
M  V30 8729 C 889.133 3.7107 -2.5616 0
M  V30 8730 C 887.795 3.79196 -2.96249 0
M  V30 8731 C 890.147 3.85169 -3.51133 0
M  V30 8732 C 887.475 3.98882 -4.30244 0
M  V30 8733 C 889.827 4.06365 -4.8482 0
M  V30 8734 C 888.491 4.12722 -5.24611 0
M  V30 8735 H 887.761 0.693967 -0.259791 0
M  V30 8736 H 890.408 1.42419 -1.2802 0
M  V30 8737 H 888.713 3.89292 -0.442596 0
M  V30 8738 H 890.41 3.92257 -0.832811 0
M  V30 8739 H 887 3.65346 -2.24099 0
M  V30 8740 H 891.184 3.78243 -3.21319 0
M  V30 8741 H 886.44 4.02039 -4.60624 0
M  V30 8742 H 890.614 4.16216 -5.58334 0
M  V30 8743 H 888.241 4.27728 -6.28453 0
M  V30 8744 N 889.816 0.795718 1.36037 0
M  V30 8745 C 891.064 0.370291 1.98679 0
M  V30 8746 C 891.385 -1.06332 1.63458 0
M  V30 8747 O 890.655 -1.73394 0.911671 0
M  V30 8748 H 889.235 0.133928 0.734896 0
M  V30 8749 H 891.897 1.01915 1.6613 0
M  V30 8750 H 890.993 0.467207 3.08583 0
M  V30 8751 N 891.294 -1.47756 0.548274 0
M  V30 8752 C 892.543 -2.01691 0.0187961 0
M  V30 8753 C 892.856 -1.42894 -1.33569 0
M  V30 8754 O 894.062 -1.88438 -1.95457 0
M  V30 8755 C 892.518 -3.59896 -0.016847 0
M  V30 8756 C 892.126 -4.27683 1.33385 0
M  V30 8757 C 893.87 -4.21614 -0.494188 0
M  V30 8758 C 891.777 -5.7787 1.2578 0
M  V30 8759 H 890.707 -0.753993 0.00325648 0
M  V30 8760 H 893.358 -1.69838 0.694792 0
M  V30 8761 H 891.74 -3.88672 -0.758304 0
M  V30 8762 H 892.914 -4.10559 2.09232 0
M  V30 8763 H 891.229 -3.77915 1.7484 0
M  V30 8764 H 893.826 -5.3166 -0.569342 0
M  V30 8765 H 894.169 -3.88176 -1.50417 0
M  V30 8766 H 894.702 -3.97336 0.192138 0
M  V30 8767 H 891.441 -6.15912 2.2435 0
M  V30 8768 H 890.961 -5.97355 0.540997 0
M  V30 8769 H 892.64 -6.39897 0.956109 0
M  V30 8770 N 892.772 -0.284283 -1.55015 0
M  V30 8771 C 893.719 0.599194 -2.22886 0
M  V30 8772 C 894.689 1.14264 -1.20553 0
M  V30 8773 O 895.874 1.19025 -1.49123 0
M  V30 8774 C 893.014 1.77317 -2.96062 0
M  V30 8775 C 892.127 1.26271 -4.13134 0
M  V30 8776 C 891.262 2.39922 -4.73931 0
M  V30 8777 C 890.301 1.85925 -5.8318 0
M  V30 8778 N 889.438 2.93084 -6.38002 0
M  V30 8779 H 894.278 0.0137816 -2.97997 0
M  V30 8780 H 891.815 -0.00496503 -1.47099 0
M  V30 8781 H 893.773 2.46339 -3.36709 0
M  V30 8782 H 892.403 2.33047 -2.23358 0
M  V30 8783 H 891.455 0.465296 -3.77544 0
M  V30 8784 H 892.767 0.827284 -4.91892 0
M  V30 8785 H 891.921 3.1692 -5.17346 0
M  V30 8786 H 890.66 2.86784 -3.9447 0
M  V30 8787 H 889.665 1.07409 -5.39206 0
M  V30 8788 H 890.89 1.39987 -6.64515 0
M  V30 8789 H 888.836 3.3931 -5.61431 0
M  V30 8790 H 888.753 2.53986 -7.12058 0
M  V30 8791 H 890.021 3.7003 -6.86075 0
M  V30 8792 N 894.251 1.57596 -0.0117121 0
M  V30 8793 C 895.214 2.08089 0.960816 0
M  V30 8794 C 896.214 0.992519 1.26514 0
M  V30 8795 O 897.404 1.25475 1.20837 0
M  V30 8796 C 894.536 2.53217 2.28241 0
M  V30 8797 H 895.729 2.9529 0.523829 0
M  V30 8798 H 893.282 1.54508 0.235995 0
M  V30 8799 H 894.017 1.69294 2.76604 0
M  V30 8800 H 893.802 3.32714 2.0747 0
M  V30 8801 H 895.292 2.92568 2.97983 0
M  V30 8802 N 895.729 -0.261212 1.5542 0
M  V30 8803 C 896.677 -1.34298 1.89913 0
M  V30 8804 C 897.671 -1.50547 0.776665 0
M  V30 8805 O 898.877 -1.52191 0.961139 0
M  V30 8806 H 895.252 -0.4494 0.602946 0
M  V30 8807 H 897.223 -1.02464 2.80256 0
M  V30 8808 C 895.972 -2.69423 2.19788 0
M  V30 8809 H 895.295 -2.57715 3.05652 0
M  V30 8810 H 896.735 -3.44026 2.47835 0
M  V30 8811 C 895.194 -3.21423 1.00939 0
M  V30 8812 O 895.724 -4.00921 0.250034 0
M  V30 8813 N 893.93 -2.7926 0.803883 0
M  V30 8814 H 893.477 -2.14724 1.42308 0
M  V30 8815 H 893.435 -3.14398 0.0103257 0
M  V30 8816 N 897.207 -1.48554 -0.526253 0
M  V30 8817 C 898.17 -1.62868 -1.61266 0
M  V30 8818 C 899.17 -0.501762 -1.52771 0
M  V30 8819 O 900.36 -0.76764 -1.56374 0
M  V30 8820 C 897.492 -1.60238 -3.00893 0
M  V30 8821 H 898.685 -2.59742 -1.49913 0
M  V30 8822 H 896.238 -1.37207 -0.748595 0
M  V30 8823 H 896.973 -0.648545 -3.17749 0
M  V30 8824 H 896.758 -2.42054 -3.08468 0
M  V30 8825 H 898.248 -1.73455 -3.79872 0
M  V30 8826 N 898.685 0.775411 -1.37205 0
M  V30 8827 C 899.933 1.53081 -1.3195 0
M  V30 8828 C 900.254 1.9476 0.0966864 0
M  V30 8829 O 899.524 1.66019 1.03993 0
M  V30 8830 H 898.104 0.567762 -0.485444 0
M  V30 8831 H 900.766 0.92309 -1.71654 0
M  V30 8832 H 899.862 2.4319 -1.95614 0
M  V30 8833 N 900.163 1.21714 1.00117 0
M  V30 8834 C 901.411 1.03465 1.73607 0
M  V30 8835 C 901.732 -0.432295 1.90148 0
M  V30 8836 O 901.002 -1.31157 1.45515 0
M  V30 8837 H 899.582 0.379857 0.643209 0
M  V30 8838 H 902.244 1.53088 1.20624 0
M  V30 8839 H 901.34 1.50574 2.73375 0
M  V30 8840 N 901.641 -1.19671 1.02551 0
M  V30 8841 C 902.887 -1.89818 0.730801 0
M  V30 8842 C 903.242 -1.77917 -0.732355 0
M  V30 8843 O 902.535 -1.15848 -1.5261 0
M  V30 8844 C 902.729 -3.39647 1.11241 0
M  V30 8845 C 902.558 -3.66129 2.61112 0
M  V30 8846 C 901.328 -3.84348 3.28032 0
M  V30 8847 C 903.526 -3.67963 3.59316 0
M  V30 8848 N 901.508 -3.98429 4.67041 0
M  V30 8849 C 902.879 -3.87575 4.83927 0
M  V30 8850 C 904.934 -3.50971 3.53162 0
M  V30 8851 C 903.637 -3.91957 6.03127 0
M  V30 8852 C 905.663 -3.56629 4.71773 0
M  V30 8853 C 905.025 -3.76722 5.95197 0
M  V30 8854 H 901.124 -0.713873 0.319232 0
M  V30 8855 H 903.708 -1.43844 1.31213 0
M  V30 8856 H 901.879 -3.84352 0.559324 0
M  V30 8857 H 903.611 -3.97301 0.77031 0
M  V30 8858 H 900.366 -3.83097 2.78448 0
M  V30 8859 H 900.79 -4.09327 5.39241 0
M  V30 8860 H 905.432 -3.34395 2.58728 0
M  V30 8861 H 903.15 -4.07326 6.97933 0
M  V30 8862 H 906.736 -3.44777 4.68637 0
M  V30 8863 H 905.616 -3.8097 6.85442 0
M  V30 8864 N 903.119 -0.802921 -1.35613 0
M  V30 8865 C 904.067 -0.198783 -2.31749 0
M  V30 8866 C 905.061 0.649416 -1.56458 0
M  V30 8867 O 906.267 0.542989 -1.71615 0
M  V30 8868 H 902.642 -0.0455177 -0.750621 0
M  V30 8869 H 904.613 -1.02479 -2.80251 0
M  V30 8870 C 903.362 0.641066 -3.41739 0
M  V30 8871 H 902.685 -0.00226244 -3.998 0
M  V30 8872 H 904.125 1.03022 -4.11294 0
M  V30 8873 C 902.584 1.80505 -2.84464 0
M  V30 8874 O 903.114 2.90235 -2.77717 0
M  V30 8875 N 901.32 1.61542 -2.41563 0
M  V30 8876 H 900.867 0.722863 -2.4725 0
M  V30 8877 H 900.825 2.39581 -2.03589 0
M  V30 8878 N 904.597 1.47463 -0.556102 0
M  V30 8879 C 905.527 2.32801 0.180497 0
M  V30 8880 C 906.508 1.43721 0.909848 0
M  V30 8881 O 907.693 1.72578 0.89053 0
M  V30 8882 C 904.823 3.25478 1.21167 0
M  V30 8883 C 903.777 4.2379 0.598846 0
M  V30 8884 C 903.103 5.05783 1.73457 0
M  V30 8885 C 904.403 5.20387 -0.446659 0
M  V30 8886 H 906.097 2.94636 -0.531956 0
M  V30 8887 H 903.643 1.41683 -0.257267 0
M  V30 8888 H 905.596 3.8402 1.73513 0
M  V30 8889 H 904.32 2.61695 1.95405 0
M  V30 8890 H 902.979 3.66472 0.0966897 0
M  V30 8891 H 902.627 4.38405 2.46596 0
M  V30 8892 H 902.327 5.72343 1.33031 0
M  V30 8893 H 903.851 5.67183 2.26131 0
M  V30 8894 H 905.265 5.73299 -0.00930019 0
M  V30 8895 H 903.662 5.95143 -0.769735 0
M  V30 8896 H 904.732 4.65932 -1.34295 0
M  V30 8897 N 906.075 0.2925 1.54862 0
M  V30 8898 C 907.023 -0.603186 2.24643 0
M  V30 8899 C 908.017 -1.1439 1.24946 0
M  V30 8900 O 909.223 -1.09552 1.42823 0
M  V30 8901 H 905.598 -0.213105 0.721173 0
M  V30 8902 H 907.569 0.00799278 2.98399 0
M  V30 8903 C 906.318 -1.76769 2.99413 0
M  V30 8904 H 905.641 -1.36084 3.75927 0
M  V30 8905 H 907.081 -2.37066 3.51533 0
M  V30 8906 C 905.54 -2.66669 2.05886 0
M  V30 8907 O 906.07 -3.67525 1.62136 0
M  V30 8908 N 904.276 -2.34216 1.7202 0
M  V30 8909 H 903.823 -1.52246 2.07795 0
M  V30 8910 H 903.781 -2.94635 1.09717 0
M  V30 8911 N 907.553 -1.57587 0.0200696 0
M  V30 8912 C 908.799 -1.92539 -0.655764 0
M  V30 8913 C 909.154 -0.896187 -1.70253 0
M  V30 8914 O 908.447 0.0890022 -1.91393 0
M  V30 8915 C 908.641 -3.32002 -1.32323 0
M  V30 8916 C 908.47 -4.48393 -0.342632 0
M  V30 8917 C 907.24 -5.05271 0.0542423 0
M  V30 8918 C 909.438 -5.12747 0.399388 0
M  V30 8919 N 907.42 -6.05181 1.03095 0
M  V30 8920 C 908.791 -6.07674 1.23014 0
M  V30 8921 C 910.846 -4.95761 0.461065 0
M  V30 8922 C 909.549 -6.87442 2.11698 0
M  V30 8923 C 911.575 -5.7613 1.33521 0
M  V30 8924 C 910.937 -6.70666 2.15376 0
M  V30 8925 H 907.036 -0.75256 -0.212549 0
M  V30 8926 H 909.62 -1.94514 0.0851247 0
M  V30 8927 H 907.791 -3.30863 -2.0343 0
M  V30 8928 H 909.523 -3.54327 -1.95537 0
M  V30 8929 H 906.278 -4.72529 -0.318327 0
M  V30 8930 H 906.702 -6.59824 1.51528 0
M  V30 8931 H 911.344 -4.22506 -0.15752 0
M  V30 8932 H 909.062 -7.60008 2.74616 0
M  V30 8933 H 912.648 -5.65023 1.38711 0
M  V30 8934 H 911.528 -7.31772 2.81922 0
M  V30 8935 N 909.032 0.252966 -1.55557 0
M  V30 8936 C 910.281 0.979736 -1.76307 0
M  V30 8937 C 910.594 1.86714 -0.582871 0
M  V30 8938 O 911.8 2.6302 -0.673247 0
M  V30 8939 C 910.256 1.79205 -3.12112 0
M  V30 8940 C 909.864 0.952333 -4.37761 0
M  V30 8941 C 911.608 2.51191 -3.42203 0
M  V30 8942 C 909.515 1.76018 -5.64599 0
M  V30 8943 H 908.445 0.369538 -0.657235 0
M  V30 8944 H 911.096 0.234619 -1.81994 0
M  V30 8945 H 909.478 2.57888 -3.00515 0
M  V30 8946 H 910.652 0.208251 -4.60329 0
M  V30 8947 H 908.967 0.346082 -4.14959 0
M  V30 8948 H 911.564 3.12074 -4.34182 0
M  V30 8949 H 911.907 3.22499 -2.63249 0
M  V30 8950 H 912.44 1.79523 -3.54988 0
M  V30 8951 H 909.179 1.09095 -6.46358 0
M  V30 8952 H 908.699 2.4797 -5.46142 0
M  V30 8953 H 910.378 2.32884 -6.03634 0
M  V30 8954 N 910.51 1.48831 0.518367 0
M  V30 8955 C 911.926 1.35209 0.847979 0
M  V30 8956 C 912.126 0.371927 1.98038 0
M  V30 8957 O 911.182 -0.202681 2.51685 0
M  V30 8958 C 912.495 2.7552 1.20455 0
M  V30 8959 C 914.043 2.84094 1.31377 0
M  V30 8960 C 914.518 4.25132 1.70372 0
M  V30 8961 N 916.009 4.27861 1.77453 0
M  V30 8962 C 916.744 5.3394 2.09035 0
M  V30 8963 N 916.24 6.50285 2.3896 0
M  V30 8964 N 918.033 5.21343 2.10139 0
M  V30 8965 H 910.184 2.11166 -0.228624 0
M  V30 8966 H 912.447 0.94717 -0.0396599 0
M  V30 8967 H 912.153 3.48861 0.445991 0
M  V30 8968 H 912.027 3.09785 2.15204 0
M  V30 8969 H 914.414 2.11001 2.06307 0
M  V30 8970 H 914.495 2.53433 0.347203 0
M  V30 8971 H 914.139 4.98745 0.959975 0
M  V30 8972 H 914.069 4.53245 2.68098 0
M  V30 8973 H 916.56 3.43945 1.56557 0
M  V30 8974 H 916.873 7.26961 2.62196 0
M  V30 8975 H 915.218 6.5354 2.36454 0
M  V30 8976 H 918.409 4.29462 1.86225 0
M  V30 8977 H 918.582 6.04112 2.34419 0
M  V30 8978 N 911.988 -0.768124 1.37614 0
M  V30 8979 C 913.237 -1.5221 1.32345 0
M  V30 8980 C 913.55 -1.95399 -0.0885761 0
M  V30 8981 O 914.756 -2.70216 -0.263752 0
M  V30 8982 C 913.212 -2.74872 2.32322 0
M  V30 8983 C 912.82 -2.38767 3.79071 0
M  V30 8984 C 914.564 -3.52805 2.36069 0
M  V30 8985 C 912.471 -3.57953 4.7077 0
M  V30 8986 H 911.401 -0.571461 0.491883 0
M  V30 8987 H 914.052 -0.841004 1.63093 0
M  V30 8988 H 912.434 -3.44889 1.94596 0
M  V30 8989 H 913.608 -1.7651 4.25654 0
M  V30 8990 H 911.923 -1.74 3.78303 0
M  V30 8991 H 914.52 -4.41397 3.01782 0
M  V30 8992 H 914.863 -3.92925 1.37535 0
M  V30 8993 H 915.396 -2.89788 2.72521 0
M  V30 8994 H 912.135 -3.22911 5.70446 0
M  V30 8995 H 911.655 -4.19302 4.28889 0
M  V30 8996 H 913.334 -4.2472 4.8808 0
M  V30 8997 N 913.466 -1.22244 -0.994698 0
M  V30 8998 C 914.414 -0.988118 -2.10568 0
M  V30 8999 C 915.408 0.0681541 -1.69263 0
M  V30 9000 O 916.614 -0.0841311 -1.79803 0
M  V30 9001 H 912.989 -0.302343 -0.688544 0
M  V30 9002 H 914.96 -1.93091 -2.27505 0
M  V30 9003 C 913.709 -0.580557 -3.42819 0
M  V30 9004 H 913.032 -1.385 -3.75044 0
M  V30 9005 H 914.472 -0.456004 -4.21541 0
M  V30 9006 C 912.931 0.709692 -3.2934 0
M  V30 9007 O 913.461 1.76259 -3.60965 0
M  V30 9008 N 911.667 0.680155 -2.82528 0
M  V30 9009 H 911.214 -0.176977 -2.56991 0
M  V30 9010 H 911.172 1.54372 -2.73892 0
M  V30 9011 N 914.944 1.19125 -1.03184 0
M  V30 9012 C 915.891 2.2245 -0.6152 0
M  V30 9013 C 916.861 1.61869 0.372502 0
M  V30 9014 O 918.046 1.88901 0.268491 0
M  V30 9015 C 915.186 3.45091 0.0248027 0
M  V30 9016 C 914.299 4.20044 -1.0093 0
M  V30 9017 C 913.434 5.30119 -0.338744 0
M  V30 9018 C 912.473 5.96833 -1.35855 0
M  V30 9019 N 911.61 6.98464 -0.713594 0
M  V30 9020 H 916.45 2.57445 -1.50086 0
M  V30 9021 H 913.987 1.26485 -0.751005 0
M  V30 9022 H 915.945 4.15149 0.413131 0
M  V30 9023 H 914.575 3.10742 0.874028 0
M  V30 9024 H 913.627 3.48901 -1.51566 0
M  V30 9025 H 914.939 4.65796 -1.78425 0
M  V30 9026 H 914.093 6.0661 0.104269 0
M  V30 9027 H 912.832 4.85446 0.468382 0
M  V30 9028 H 911.837 5.1909 -1.81179 0
M  V30 9029 H 913.062 6.4359 -2.16722 0
M  V30 9030 H 911.008 6.55959 0.0733863 0
M  V30 9031 H 910.925 7.42422 -1.42638 0
M  V30 9032 H 912.193 7.78943 -0.294681 0
M  V30 9033 N 916.422 0.810101 1.35185 0
M  V30 9034 C 917.65 0.404696 2.02903 0
M  V30 9035 C 918.065 -0.985434 1.61042 0
M  V30 9036 O 917.422 -1.63557 0.809658 0
M  V30 9037 C 917.473 0.482493 3.58266 0
M  V30 9038 O 917.194 1.81782 3.98606 0
M  V30 9039 C 918.695 0.070345 4.43244 0
M  V30 9040 H 915.915 0.163972 0.650657 0
M  V30 9041 H 918.459 1.0947 1.72733 0
M  V30 9042 H 916.614 -0.159296 3.87072 0
M  V30 9043 H 917.028 1.78306 4.93262 0
M  V30 9044 H 918.502 0.175888 5.5172 0
M  V30 9045 H 918.979 -0.984724 4.28018 0
M  V30 9046 H 919.585 0.685427 4.1974 0
M  V30 9047 N 917.9 -1.47166 0.563914 0
M  V30 9048 C 918.85 -2.27116 -0.20055 0
M  V30 9049 C 919.834 -1.34756 -0.879177 0
M  V30 9050 O 921.026 -1.59064 -0.776377 0
M  V30 9051 C 918.155 -3.20676 -1.22565 0
M  V30 9052 C 917.241 -4.20517 -0.550092 0
M  V30 9053 N 917.632 -5.04343 0.383662 0
M  V30 9054 C 915.93 -4.38708 -0.803186 0
M  V30 9055 C 916.631 -5.76491 0.776718 0
M  V30 9056 N 915.607 -5.43444 0.130047 0
M  V30 9057 H 919.409 -2.89312 0.517275 0
M  V30 9058 H 916.923 -1.57787 0.384334 0
M  V30 9059 H 918.92 -3.76643 -1.78733 0
M  V30 9060 H 917.58 -2.60038 -1.94449 0
M  V30 9061 H 918.591 -5.1232 0.758192 0
M  V30 9062 H 915.268 -3.89235 -1.51003 0
M  V30 9063 H 916.658 -6.5391 1.54437 0
M  V30 9064 O 919.417 -0.442777 -1.55312 0
M  V30 9065 H 920.108 0.0896089 -1.93493 0
M  V30 END ATOM
M  V30 BEGIN BOND
M  V30 END BOND
M  V30 END CTAB
M  END
$$$$
