drugbank_target|O07732 Cyclase (DB02596)
 OpenBabel12092120253D

  0  0  0     0  0            999 V3000
M  V30 BEGIN CTAB
M  V30 COUNTS 6957 7033 0 0 0
M  V30 BEGIN ATOM
M  V30 1 H -0.908 1.98254 -0.117106 0
M  V30 2 N 0 1.576 0 0
M  V30 3 C 0.933 2.03868 1.02534 0
M  V30 4 C 1.911 0.928543 1.3348 0
M  V30 5 O 3.095 1.19667 1.45644 0
M  V30 6 C 0.222 2.43627 2.35294 0
M  V30 7 C -0.732 3.65373 2.2001 0
M  V30 8 S 0.101 5.13292 1.52614 0
M  V30 9 C 1.257 5.56322 2.86805 0
M  V30 10 H 1.49 2.90518 0.631377 0
M  V30 11 H -0.977 1.52953 0.210867 0
M  V30 12 H 0.981 2.67203 3.11629 0
M  V30 13 H -0.358 1.57376 2.7183 0
M  V30 14 H -1.165 3.90944 3.18086 0
M  V30 15 H -1.563 3.418 1.51819 0
M  V30 16 H 0.729 5.58782 3.83104 0
M  V30 17 H 1.672 6.56266 2.65933 0
M  V30 18 H 2.08 4.83886 2.90714 0
M  V30 19 N 1.4781 -0.272755 1.55222 0
M  V30 20 C 2.4411 -1.32041 1.87344 0
M  V30 21 C 3.4411 -1.42342 0.74803 0
M  V30 22 O 4.6311 -1.41488 1.0162 0
M  V30 23 C 1.7631 -2.70173 2.07893 0
M  V30 24 H 2.9561 -1.04789 2.80997 0
M  V30 25 H 0.5091 -0.51083 1.47717 0
M  V30 26 H 1.2441 -3.02605 1.16622 0
M  V30 27 H 1.0291 -2.64082 2.89833 0
M  V30 28 H 2.5191 -3.45869 2.34017 0
M  V30 29 N 2.9562 -1.48159 -0.537278 0
M  V30 30 C 3.8882 -1.58218 -1.65831 0
M  V30 31 C 4.9012 -0.466948 -1.5596 0
M  V30 32 O 6.0902 -0.73747 -1.62553 0
M  V30 33 C 3.1902 -1.48906 -3.04434 0
M  V30 34 C 2.3632 -2.75343 -3.3986 0
M  V30 35 C 1.4222 -2.59588 -4.57712 0
M  V30 36 O 0.4482 -3.33457 -4.61297 0
M  V30 37 N 1.6502 -1.68724 -5.55439 0
M  V30 38 H 4.4152 -2.54891 -1.57641 0
M  V30 39 H 1.9762 -1.4479 -0.724386 0
M  V30 40 H 3.9682 -1.36072 -3.81139 0
M  V30 41 H 2.5382 -0.602368 -3.06741 0
M  V30 42 H 1.7582 -3.02795 -2.52406 0
M  V30 43 H 3.0462 -3.5924 -3.60311 0
M  V30 44 H 2.4442 -1.07898 -5.55315 0
M  V30 45 H 1.0012 -1.61832 -6.3139 0
M  V30 46 N 4.4343 0.785586 -1.36625 0
M  V30 47 C 5.3973 1.87999 -1.31107 0
M  V30 48 C 6.3973 1.59316 -0.217959 0
M  V30 49 O 7.5873 1.67656 -0.472977 0
M  V30 50 C 4.7193 3.24861 -1.03334 0
M  V30 51 H 5.9123 1.94307 -2.2844 0
M  V30 52 H 3.4653 0.983813 -1.21453 0
M  V30 53 H 4.2003 3.24235 -0.0647432 0
M  V30 54 H 3.9853 3.4707 -1.82441 0
M  V30 55 H 5.4753 4.04929 -1.02088 0
M  V30 56 N 5.9124 1.20967 1.01018 0
M  V30 57 C 7.3234 1.02319 1.56165 0
M  V30 58 C 7.6744 -0.418546 1.91684 0
M  V30 59 O 6.7994 -1.30096 1.72928 0
M  V30 60 C 7.3944 1.85109 2.8376 0
M  V30 61 C 5.9534 1.70809 3.35412 0
M  V30 62 C 5.1004 1.82643 2.08655 0
M  V30 63 H 8.0514 1.35065 0.833255 0
M  V30 64 H 8.0724 1.35827 3.55431 0
M  V30 65 H 7.5844 2.90035 2.57878 0
M  V30 66 H 5.6854 0.685464 3.66241 0
M  V30 67 H 5.7984 2.52467 4.07182 0
M  V30 68 H 4.1624 1.25896 2.21409 0
M  V30 69 H 4.9454 2.89066 1.85191 0
M  V30 70 N 7.3905 -1.2043 1.01659 0
M  V30 71 C 8.3405 -2.21076 0.557623 0
M  V30 72 C 9.3245 -1.56176 -0.387029 0
M  V30 73 O 10.5165 -1.7575 -0.209996 0
M  V30 74 C 7.6455 -3.43146 -0.102707 0
M  V30 75 C 6.7315 -4.15213 0.863652 0
M  V30 76 N 7.1225 -4.63662 2.02117 0
M  V30 77 C 5.4205 -4.40716 0.684472 0
M  V30 78 C 6.1215 -5.18868 2.62966 0
M  V30 79 N 5.0975 -5.0893 1.91027 0
M  V30 80 H 8.8995 -2.56201 1.44008 0
M  V30 81 H 6.4135 -1.36366 0.881931 0
M  V30 82 H 8.4105 -4.14475 -0.449054 0
M  V30 83 H 7.0705 -3.09526 -0.981003 0
M  V30 84 H 8.0815 -4.58877 2.40109 0
M  V30 85 H 4.7585 -4.17245 -0.14577 0
M  V30 86 H 6.1485 -5.6673 3.60924 0
M  V30 87 N 8.8686 -0.792821 -1.36206 0
M  V30 88 C 10.1176 -0.363353 -1.984 0
M  V30 89 C 10.4306 1.07172 -1.63626 0
M  V30 90 O 11.6366 1.60362 -2.19081 0
M  V30 91 C 10.0926 -0.59872 -3.54885 0
M  V30 92 C 9.7006 -2.04543 -3.9858 0
M  V30 93 C 11.4446 -0.233926 -4.23855 0
M  V30 94 C 9.3516 -2.22727 -5.47856 0
M  V30 95 H 8.2816 -0.13212 -0.742334 0
M  V30 96 H 10.9326 -0.974935 -1.55458 0
M  V30 97 H 9.3146 0.0826222 -3.95914 0
M  V30 98 H 10.4886 -2.76345 -3.68741 0
M  V30 99 H 8.8036 -2.36879 -3.42458 0
M  V30 100 H 11.4006 -0.348027 -5.33566 0
M  V30 101 H 11.7436 0.818351 -4.08177 0
M  V30 102 H 12.2766 -0.868639 -3.882 0
M  V30 103 H 9.0156 -3.2635 -5.68486 0
M  V30 104 H 8.5356 -1.55434 -5.7931 0
M  V30 105 H 10.2146 -2.03607 -6.14128 0
M  V30 106 N 10.3467 1.47872 -0.545128 0
M  V30 107 C 11.2967 2.26842 0.229456 0
M  V30 108 C 12.2807 1.33626 0.896267 0
M  V30 109 O 13.4727 1.58063 0.79657 0
M  V30 110 C 10.6017 3.19089 1.26638 0
M  V30 111 C 9.6877 4.19783 0.603598 0
M  V30 112 N 10.0787 5.0479 -0.319405 0
M  V30 113 C 8.3767 4.3765 0.858989 0
M  V30 114 C 9.0777 5.77433 -0.703241 0
M  V30 115 N 8.0537 5.43566 -0.0608309 0
M  V30 116 H 11.8557 2.89947 -0.480391 0
M  V30 117 H 9.3697 1.58263 -0.364209 0
M  V30 118 H 11.3667 3.74337 1.83515 0
M  V30 119 H 10.0267 2.5754 1.97745 0
M  V30 120 H 11.0377 5.13244 -0.692889 0
M  V30 121 H 7.7147 3.87281 1.55948 0
M  V30 122 H 9.1047 6.55824 -1.46098 0
M  V30 123 N 11.8248 0.280983 1.55075 0
M  V30 124 C 13.2408 -0.0729964 1.59433 0
M  V30 125 C 13.4408 -1.5411 1.29817 0
M  V30 126 O 12.4968 -2.29086 1.06187 0
M  V30 127 C 13.8098 0.306921 2.9913 0
M  V30 128 C 15.3578 0.254023 3.11968 0
M  V30 129 C 15.8328 0.608467 4.5394 0
M  V30 130 N 17.3238 0.560241 4.59799 0
M  V30 131 C 18.0588 0.80722 5.6769 0
M  V30 132 N 17.5548 1.11912 6.83701 0
M  V30 133 N 19.3478 0.735623 5.57266 0
M  V30 134 H 11.4988 1.238 1.7259 0
M  V30 135 H 13.7618 0.500547 0.805082 0
M  V30 136 H 13.4678 1.32816 3.25657 0
M  V30 137 H 13.3418 -0.349363 3.75579 0
M  V30 138 H 15.7288 -0.75794 2.852 0
M  V30 139 H 15.8098 0.944649 2.37718 0
M  V30 140 H 15.4538 1.61814 4.81434 0
M  V30 141 H 15.3838 -0.104013 5.26497 0
M  V30 142 H 17.8748 0.329288 3.76463 0
M  V30 143 H 18.1878 1.29409 7.61888 0
M  V30 144 H 16.5328 1.15695 6.85303 0
M  V30 145 H 19.7238 0.491752 4.6551 0
M  V30 146 H 19.8968 0.931482 6.4127 0
M  V30 147 N 13.3029 -1.57598 0.00835791 0
M  V30 148 C 14.5309 -1.95214 -0.68549 0
M  V30 149 C 14.9459 -0.883706 -1.66841 0
M  V30 150 O 14.3029 0.136565 -1.81988 0
M  V30 151 C 14.3539 -3.32865 -1.41007 0
M  V30 152 O 14.0749 -4.35609 -0.466552 0
M  V30 153 C 15.5759 -3.84991 -2.19765 0
M  V30 154 H 12.7959 -0.643422 -0.190392 0
M  V30 155 H 15.3399 -2.04406 0.0619607 0
M  V30 156 H 13.4949 -3.24956 -2.10908 0
M  V30 157 H 13.9089 -5.15288 -0.978699 0
M  V30 158 H 15.3829 -4.8371 -2.65948 0
M  V30 159 H 15.8599 -3.18137 -3.02796 0
M  V30 160 H 16.4659 -3.96103 -1.54864 0
M  V30 161 N 14.781 0.264519 -1.55364 0
M  V30 162 C 16.197 0.61215 -1.47394 0
M  V30 163 C 16.397 1.89134 -0.695018 0
M  V30 164 O 15.453 2.51563 -0.217275 0
M  V30 165 C 16.766 0.731235 -2.91674 0
M  V30 166 C 18.314 0.82473 -3.01939 0
M  V30 167 C 18.789 0.975522 -4.4749 0
M  V30 168 N 20.28 1.04083 -4.51354 0
M  V30 169 C 21.015 1.17646 -5.61201 0
M  V30 170 N 20.511 1.27874 -6.80896 0
M  V30 171 N 22.304 1.20823 -5.48961 0
M  V30 172 H 14.455 -0.575456 -2.04456 0
M  V30 173 H 16.718 -0.196099 -0.927496 0
M  V30 174 H 16.424 -0.138392 -3.51428 0
M  V30 175 H 16.298 1.60883 -3.41169 0
M  V30 176 H 18.685 1.68482 -2.42276 0
M  V30 177 H 18.766 -0.0776479 -2.55682 0
M  V30 178 H 18.41 0.120058 -5.07758 0
M  V30 179 H 18.34 1.89268 -4.91412 0
M  V30 180 H 20.831 0.973846 -3.65136 0
M  V30 181 H 21.144 1.38081 -7.60364 0
M  V30 182 H 19.489 1.24863 -6.83692 0
M  V30 183 H 22.68 1.12469 -4.54388 0
M  V30 184 H 22.853 1.31049 -6.3461 0
M  V30 185 N 16.2591 1.48442 0.529413 0
M  V30 186 C 17.4891 1.59919 1.30804 0
M  V30 187 C 17.8971 0.258792 1.87422 0
M  V30 188 O 17.2401 -0.762096 1.67146 0
M  V30 189 C 17.3021 2.58693 2.49636 0
M  V30 190 C 16.9661 4.03745 2.14101 0
M  V30 191 C 17.9631 4.9141 1.6974 0
M  V30 192 C 15.6481 4.49285 2.24607 0
M  V30 193 C 17.6421 6.22645 1.36351 0
M  V30 194 C 15.3291 5.8054 1.9083 0
M  V30 195 C 16.3271 6.67043 1.46773 0
M  V30 196 O 16.0151 7.95856 1.1344 0
M  V30 197 H 15.7471 0.541981 0.404021 0
M  V30 198 H 18.3011 1.95 0.645309 0
M  V30 199 H 16.5311 2.18734 3.18892 0
M  V30 200 H 18.2201 2.59999 3.11698 0
M  V30 201 H 18.9861 4.57465 1.61094 0
M  V30 202 H 14.8651 3.82142 2.57854 0
M  V30 203 H 18.4091 6.90119 1.01891 0
M  V30 204 H 14.3061 6.14022 1.99117 0
M  V30 205 H 15.0741 8.08613 1.26832 0
M  V30 206 N 17.7372 -0.778329 1.37039 0
M  V30 207 C 18.7002 -1.87301 1.32102 0
M  V30 208 C 19.7002 -1.59198 0.226405 0
M  V30 209 O 20.8902 -1.67403 0.481861 0
M  V30 210 C 18.0222 -3.24309 1.05055 0
M  V30 211 H 19.2152 -1.93093 2.29467 0
M  V30 212 H 16.7682 -0.977358 1.21973 0
M  V30 213 H 17.5032 -3.24196 0.0819373 0
M  V30 214 H 17.2882 -3.46098 1.84279 0
M  V30 215 H 18.7782 -4.04382 1.04234 0
M  V30 216 N 19.2153 -1.21501 -1.00376 0
M  V30 217 C 20.1623 -0.975387 -2.09177 0
M  V30 218 C 21.1323 0.0990615 -1.65804 0
M  V30 219 O 22.3173 -0.0483147 -1.90739 0
M  V30 220 C 19.4573 -0.547507 -3.40729 0
M  V30 221 C 18.5703 -1.69153 -3.97506 0
M  V30 222 C 17.7053 -1.2127 -5.17172 0
M  V30 223 C 16.7443 -2.32897 -5.66061 0
M  V30 224 N 15.8813 -1.86138 -6.76976 0
M  V30 225 H 20.7213 -1.9068 -2.29009 0
M  V30 226 H 18.2583 -0.950257 -1.12288 0
M  V30 227 H 20.2163 -0.280667 -4.16255 0
M  V30 228 H 18.8463 0.346904 -3.20931 0
M  V30 229 H 17.8983 -2.07298 -3.18954 0
M  V30 230 H 19.2103 -2.5316 -4.29781 0
M  V30 231 H 18.3643 -0.902591 -5.99948 0
M  V30 232 H 17.1033 -0.342692 -4.86495 0
M  V30 233 H 16.1083 -2.64709 -4.81881 0
M  V30 234 H 17.3333 -3.20396 -5.98768 0
M  V30 235 H 15.2793 -1.01484 -6.48103 0
M  V30 236 H 15.1963 -2.63717 -7.08512 0
M  V30 237 H 16.4643 -1.58165 -7.63285 0
M  V30 238 N 20.6934 1.19889 -1.02296 0
M  V30 239 C 21.9334 1.91125 -0.724602 0
M  V30 240 C 22.2974 1.77464 0.732835 0
M  V30 241 O 23.4984 2.43241 1.144 0
M  V30 242 C 21.7694 3.38187 -1.15604 0
M  V30 243 S 23.3284 4.27702 -0.980621 0
M  V30 244 H 20.1464 0.66018 -0.263976 0
M  V30 245 H 22.7484 1.44978 -1.31155 0
M  V30 246 H 21.4524 3.45653 -2.21251 0
M  V30 247 H 20.9834 3.89363 -0.562131 0
M  V30 248 H 22.9984 4.96073 0.112225 0
M  V30 249 N 22.1715 0.800033 1.35784 0
M  V30 250 C 23.4195 0.376597 1.9856 0
M  V30 251 C 23.7405 -1.05812 1.63795 0
M  V30 252 O 23.0105 -1.73103 0.917171 0
M  V30 253 H 21.5905 0.136261 0.734467 0
M  V30 254 H 24.2525 1.02442 1.65806 0
M  V30 255 H 23.3485 0.477002 3.08433 0
M  V30 256 N 23.6496 -1.47581 0.552962 0
M  V30 257 C 24.9266 -1.95563 -0.0381515 0
M  V30 258 C 25.3066 -1.49552 -1.48988 0
M  V30 259 O 24.6546 -0.732414 -2.16444 0
M  V30 260 C 24.8646 -3.48848 0.102919 0
M  V30 261 C 26.2126 -4.24577 -0.0446082 0
M  V30 262 O 27.2366 -3.56187 0.0302548 0
M  V30 263 O 26.0956 -5.46116 -0.204923 0
M  V30 264 H 23.1896 -0.824321 -0.0665067 0
M  V30 265 H 25.7356 -1.58001 0.619186 0
M  V30 266 H 24.5076 -3.75129 1.11328 0
M  V30 267 H 24.1306 -3.93165 -0.592224 0
M  V30 268 N 25.1277 -0.289203 -1.54924 0
M  V30 269 C 26.0607 0.633823 -2.19221 0
M  V30 270 C 27.0387 1.14174 -1.15772 0
M  V30 271 O 28.2227 1.21211 -1.44361 0
M  V30 272 C 25.3497 1.86592 -2.82668 0
M  V30 273 C 24.3957 1.49227 -3.99542 0
M  V30 274 S 25.2287 0.558312 -5.32582 0
M  V30 275 C 26.3847 1.79847 -5.99505 0
M  V30 276 H 26.6177 0.0875416 -2.97171 0
M  V30 277 H 24.1507 -0.0733899 -1.54225 0
M  V30 278 H 26.1087 2.57305 -3.19851 0
M  V30 279 H 24.7697 2.38335 -2.04585 0
M  V30 280 H 23.9627 2.40945 -4.42676 0
M  V30 281 H 23.5647 0.865193 -3.63855 0
M  V30 282 H 25.8567 2.7406 -6.19595 0
M  V30 283 H 26.7997 1.4099 -6.93922 0
M  V30 284 H 27.2077 1.96982 -5.29016 0
M  V30 285 N 26.6058 1.57591 -0.0167156 0
M  V30 286 C 27.8828 1.82547 0.702564 0
M  V30 287 C 28.2628 0.898018 1.91047 0
M  V30 288 O 27.6108 -0.0493456 2.28447 0
M  V30 289 C 27.8208 3.31459 1.09251 0
M  V30 290 C 29.1688 3.97622 1.48937 0
M  V30 291 O 30.1928 3.35881 1.18584 0
M  V30 292 O 29.0518 5.06415 2.05442 0
M  V30 293 H 26.1458 0.752268 0.343544 0
M  V30 294 H 28.6918 1.69644 -0.0434495 0
M  V30 295 H 27.4638 3.9061 0.23227 0
M  V30 296 H 27.0868 3.49422 1.89709 0
M  V30 297 N 28.0839 -0.256276 1.55502 0
M  V30 298 C 29.3329 -0.983486 1.76098 0
M  V30 299 C 29.6459 -1.86837 0.578896 0
M  V30 300 O 30.8519 -2.63163 0.667648 0
M  V30 301 C 29.3079 -1.79868 3.1173 0
M  V30 302 C 28.9159 -0.961648 4.37557 0
M  V30 303 C 30.6599 -2.51919 3.41668 0
M  V30 304 C 28.5669 -1.77219 5.64223 0
M  V30 305 H 27.4969 -0.370936 0.656447 0
M  V30 306 H 30.1479 -0.238492 1.81944 0
M  V30 307 H 28.5299 -2.58527 2.99966 0
M  V30 308 H 29.7039 -0.218048 4.60284 0
M  V30 309 H 28.0189 -0.354913 4.14885 0
M  V30 310 H 30.6159 -3.12998 4.33516 0
M  V30 311 H 30.9589 -3.23059 2.62562 0
M  V30 312 H 31.4919 -1.80278 3.54605 0
M  V30 313 H 28.2309 -1.10471 6.46124 0
M  V30 314 H 27.7509 -2.49132 5.45613 0
M  V30 315 H 29.4299 -2.34169 6.03137 0
M  V30 316 N 29.562 -1.4872 -0.521534 0
M  V30 317 C 30.525 -1.63379 -1.60748 0
M  V30 318 C 31.525 -0.50661 -1.52611 0
M  V30 319 O 32.715 -0.772601 -1.5613 0
M  V30 320 C 29.847 -1.61192 -3.00383 0
M  V30 321 H 31.04 -2.60217 -1.49087 0
M  V30 322 H 28.593 -1.37444 -0.744235 0
M  V30 323 H 29.328 -0.65863 -3.17541 0
M  V30 324 H 29.113 -2.43032 -3.07698 0
M  V30 325 H 30.603 -1.7466 -3.7932 0
M  V30 326 N 31.0401 0.771051 -1.3745 0
M  V30 327 C 32.2701 1.55789 -1.35696 0
M  V30 328 C 32.6781 1.89107 0.0594523 0
M  V30 329 O 32.0211 1.51984 1.03183 0
M  V30 330 C 32.0831 2.89515 -2.13123 0
M  V30 331 C 31.7471 2.78829 -3.62082 0
M  V30 332 C 32.7441 2.49812 -4.5595 0
M  V30 333 C 30.4291 2.9683 -4.05213 0
M  V30 334 C 32.4231 2.38923 -5.90927 0
M  V30 335 C 30.1101 2.85562 -5.40276 0
M  V30 336 C 31.1081 2.56649 -6.32946 0
M  V30 337 O 30.7961 2.45408 -7.65526 0
M  V30 338 H 30.5281 0.489257 -0.466481 0
M  V30 339 H 33.0821 0.963446 -1.81403 0
M  V30 340 H 31.3121 3.51081 -1.62107 0
M  V30 341 H 33.0011 3.50915 -2.03994 0
M  V30 342 H 33.7671 2.3559 -4.23937 0
M  V30 343 H 29.6461 3.18335 -3.33442 0
M  V30 344 H 33.1901 2.16277 -6.63227 0
M  V30 345 H 29.0871 2.99351 -5.71891 0
M  V30 346 H 29.8551 2.60753 -7.75855 0
M  V30 347 N 32.5182 1.22032 0.997298 0
M  V30 348 C 33.4502 0.944263 2.08845 0
M  V30 349 C 34.4632 -0.0754663 1.62625 0
M  V30 350 O 35.6522 0.157994 1.77799 0
M  V30 351 C 32.7522 0.397723 3.36558 0
M  V30 352 C 31.9252 1.47362 4.11829 0
M  V30 353 C 30.9842 0.934951 5.17827 0
M  V30 354 O 30.0102 1.62016 5.45655 0
M  V30 355 N 31.2122 -0.245895 5.79979 0
M  V30 356 H 33.9772 1.88363 2.33109 0
M  V30 357 H 31.5382 1.12661 1.16272 0
M  V30 358 H 33.5302 0.0227771 4.04694 0
M  V30 359 H 32.1002 -0.446646 3.09393 0
M  V30 360 H 31.3202 2.02208 3.38386 0
M  V30 361 H 32.6082 2.19764 4.58891 0
M  V30 362 H 32.0062 -0.819475 5.59733 0
M  V30 363 H 30.5632 -0.562272 6.4937 0
M  V30 364 N 33.9963 -1.19345 1.0293 0
M  V30 365 C 35.2423 -1.89318 0.727083 0
M  V30 366 C 35.5753 -1.79446 -0.742483 0
M  V30 367 O 34.8503 -1.1871 -1.54072 0
M  V30 368 C 35.1333 -3.40238 1.17942 0
M  V30 369 C 34.9863 -3.58979 2.71024 0
M  V30 370 C 36.3053 -4.33479 0.760548 0
M  V30 371 H 33.4243 -0.687475 0.265606 0
M  V30 372 H 36.0663 -1.40477 1.2793 0
M  V30 373 H 34.2163 -3.81964 0.709608 0
M  V30 374 H 35.8883 -3.26421 3.25955 0
M  V30 375 H 34.1313 -3.02018 3.11396 0
M  V30 376 H 34.8023 -4.64823 2.9773 0
M  V30 377 H 37.2783 -3.99469 1.16464 0
M  V30 378 H 36.1543 -5.37664 1.10493 0
M  V30 379 H 36.4153 -4.40813 -0.337063 0
M  V30 380 N 35.4744 -0.807222 -1.35358 0
M  V30 381 C 36.4044 -0.232509 -2.3234 0
M  V30 382 C 37.3854 0.642386 -1.57504 0
M  V30 383 O 38.5704 0.572526 -1.85569 0
M  V30 384 C 35.7004 0.619238 -3.41735 0
M  V30 385 C 34.6544 -0.157215 -4.27711 0
M  V30 386 C 33.9804 0.816273 -5.28433 0
M  V30 387 C 35.2804 -1.35656 -5.04376 0
M  V30 388 H 36.9744 -1.04276 -2.80654 0
M  V30 389 H 34.5204 -0.50288 -1.34934 0
M  V30 390 H 36.4734 1.03137 -4.08584 0
M  V30 391 H 35.1974 1.46239 -2.92031 0
M  V30 392 H 33.8564 -0.550525 -3.62443 0
M  V30 393 H 33.5044 1.65494 -4.74996 0
M  V30 394 H 33.2044 0.301067 -5.86828 0
M  V30 395 H 34.7284 1.22659 -5.98153 0
M  V30 396 H 36.1424 -1.01927 -5.64166 0
M  V30 397 H 34.5394 -1.8063 -5.7227 0
M  V30 398 H 35.6094 -2.14288 -4.34981 0
M  V30 399 N 36.9525 1.47285 -0.560781 0
M  V30 400 C 38.2005 2.02064 -0.0379868 0
M  V30 401 C 38.5215 1.43711 1.31803 0
M  V30 402 O 37.7915 0.61362 1.86042 0
M  V30 403 H 36.3715 0.746918 -0.0110531 0
M  V30 404 H 39.0335 1.80648 -0.731598 0
M  V30 405 H 38.1295 3.12064 0.0474463 0
M  V30 406 N 38.4306 0.297415 1.54768 0
M  V30 407 C 39.7076 -0.365847 1.92148 0
M  V30 408 C 40.0876 -1.71975 1.22424 0
M  V30 409 O 39.4356 -2.25666 0.358739 0
M  V30 410 C 39.6456 -0.484056 3.45627 0
M  V30 411 C 40.9936 -0.756594 4.17805 0
M  V30 412 O 42.0176 -0.568007 3.51642 0
M  V30 413 O 40.8766 -1.11863 5.34929 0
M  V30 414 H 37.9706 -0.203919 0.801465 0
M  V30 415 H 40.5166 0.34521 1.66152 0
M  V30 416 H 39.2886 0.467865 3.88493 0
M  V30 417 H 38.9116 -1.24372 3.77647 0
M  V30 418 N 39.9087 -1.5758 0.0250728 0
M  V30 419 C 41.1567 -1.91255 -0.653151 0
M  V30 420 C 41.4777 -0.901691 -1.729 0
M  V30 421 O 40.7477 0.0573785 -1.95816 0
M  V30 422 H 39.3277 -0.705942 -0.244243 0
M  V30 423 H 41.9897 -1.94767 0.0719209 0
M  V30 424 H 41.0857 -2.91752 -1.10847 0
M  V30 425 N 41.3868 0.248026 -1.55636 0
M  V30 426 C 42.7978 0.817177 -1.67866 0
M  V30 427 C 43.1488 1.86069 -0.622322 0
M  V30 428 O 42.2738 2.15157 0.231618 0
M  V30 429 C 42.8688 1.489 -3.04326 0
M  V30 430 C 41.4278 2.00587 -3.185 0
M  V30 431 C 40.5748 0.856573 -2.63739 0
M  V30 432 H 43.5258 0.0238579 -1.58682 0
M  V30 433 H 43.5468 2.35698 -2.98708 0
M  V30 434 H 43.0588 0.729279 -3.81186 0
M  V30 435 H 41.1598 2.79443 -2.4646 0
M  V30 436 H 41.2728 2.20402 -4.25393 0
M  V30 437 H 39.6368 1.25678 -2.21534 0
M  V30 438 H 40.4198 0.109953 -3.43124 0
M  V30 439 N 42.8649 1.48995 0.513639 0
M  V30 440 C 44.0929 1.61531 1.29288 0
M  V30 441 C 44.5079 0.281801 1.86685 0
M  V30 442 O 43.8649 -0.731111 1.67215 0
M  V30 443 C 43.9159 2.67449 2.43215 0
M  V30 444 O 43.6369 3.95626 1.88179 0
M  V30 445 C 45.1379 2.90575 3.34785 0
M  V30 446 H 42.3579 0.544165 0.392588 0
M  V30 447 H 44.9019 1.9494 0.617956 0
M  V30 448 H 43.0569 2.36853 3.0656 0
M  V30 449 H 43.4709 4.53868 2.62876 0
M  V30 450 H 44.9449 3.68449 4.11035 0
M  V30 451 H 45.4219 2.00011 3.91015 0
M  V30 452 H 46.0279 3.22538 2.77218 0
M  V30 453 N 44.343 -0.763751 1.37857 0
M  V30 454 C 45.62 -1.51244 1.24035 0
M  V30 455 C 46 -2.10472 -0.162649 0
M  V30 456 O 45.348 -1.96206 -1.17112 0
M  V30 457 C 45.558 -2.58694 2.34261 0
M  V30 458 C 46.906 -3.25878 2.72193 0
M  V30 459 O 47.93 -2.68993 2.33497 0
M  V30 460 O 46.789 -4.2874 3.38887 0
M  V30 461 H 43.883 -0.670243 0.484462 0
M  V30 462 H 46.429 -0.800031 1.49658 0
M  V30 463 H 45.201 -2.13105 3.2818 0
M  V30 464 H 44.824 -3.37527 2.10146 0
M  V30 465 N 45.8211 -1.22559 -0.990812 0
M  V30 466 C 46.7511 -1.0218 -2.09956 0
M  V30 467 C 47.7321 0.0579394 -1.70001 0
M  V30 468 O 48.9171 -0.104684 -1.93918 0
M  V30 469 C 46.0471 -0.601023 -3.4206 0
M  V30 470 C 45.0011 -1.62694 -3.95872 0
M  V30 471 C 44.3271 -1.06193 -5.24049 0
M  V30 472 C 45.6271 -3.01743 -4.2632 0
M  V30 473 H 47.3211 -1.94916 -2.27262 0
M  V30 474 H 44.8671 -0.938566 -1.09211 0
M  V30 475 H 46.8201 -0.445561 -4.19038 0
M  V30 476 H 45.5441 0.362005 -3.24588 0
M  V30 477 H 44.2031 -1.77021 -3.21028 0
M  V30 478 H 43.8511 -0.0901903 -5.02919 0
M  V30 479 H 43.5511 -1.74732 -5.61019 0
M  V30 480 H 45.0751 -0.918092 -6.03658 0
M  V30 481 H 46.4891 -2.90777 -4.94087 0
M  V30 482 H 44.8861 -3.67425 -4.74467 0
M  V30 483 H 45.9561 -3.51518 -3.34011 0
M  V30 484 N 47.2992 1.18797 -1.03562 0
M  V30 485 C 48.2292 2.24472 -0.643019 0
M  V30 486 C 49.2102 1.66433 0.351283 0
M  V30 487 O 50.3952 1.92803 0.232505 0
M  V30 488 C 47.5252 3.473 4.24935e-05 0
M  V30 489 C 46.4792 4.18055 -0.917257 0
M  V30 490 C 45.8052 5.34519 -0.138941 0
M  V30 491 C 47.1052 4.72109 -2.23407 0
M  V30 492 H 48.7992 2.57566 -1.52643 0
M  V30 493 H 46.3452 1.23806 -0.735394 0
M  V30 494 H 48.2982 4.20426 0.286383 0
M  V30 495 H 47.0222 3.13424 0.918299 0
M  V30 496 H 45.6812 3.46821 -1.1879 0
M  V30 497 H 45.3292 4.96891 0.781562 0
M  V30 498 H 45.0292 5.82794 -0.750005 0
M  V30 499 H 46.5532 6.10438 0.1405 0
M  V30 500 H 47.9672 5.36955 -2.00879 0
M  V30 501 H 46.3642 5.30897 -2.79765 0
M  V30 502 H 47.4342 3.89807 -2.88407 0
M  V30 503 N 48.7773 0.814389 1.34928 0
M  V30 504 C 50.0233 0.399013 1.98836 0
M  V30 505 C 50.3563 -1.03314 1.64438 0
M  V30 506 O 49.6313 -1.71811 0.911659 0
M  V30 507 C 49.9143 0.591629 3.55207 0
M  V30 508 C 49.7673 2.06928 3.99376 0
M  V30 509 C 51.0863 0.022199 4.40094 0
M  V30 510 H 48.2053 0.146451 0.722303 0
M  V30 511 H 50.8473 1.02537 1.59957 0
M  V30 512 H 48.9973 0.0584441 3.88456 0
M  V30 513 H 50.6693 2.66544 3.76499 0
M  V30 514 H 48.9123 2.56287 3.49999 0
M  V30 515 H 49.5833 2.1549 5.08201 0
M  V30 516 H 52.0593 0.477643 4.13349 0
M  V30 517 H 50.9353 0.186832 5.48582 0
M  V30 518 H 51.1963 -1.07215 4.28902 0
M  V30 519 N 50.2554 -1.46986 0.568584 0
M  V30 520 C 51.1854 -2.32946 -0.160753 0
M  V30 521 C 52.1664 -1.44487 -0.897631 0
M  V30 522 O 53.3514 -1.73327 -0.875867 0
M  V30 523 C 50.4814 -3.26494 -1.18403 0
M  V30 524 C 49.4354 -4.24282 -0.562895 0
M  V30 525 C 48.7614 -5.07236 -1.69163 0
M  V30 526 C 50.0614 -5.19989 0.490761 0
M  V30 527 H 51.7554 -2.94175 0.556916 0
M  V30 528 H 49.3014 -1.4146 0.26927 0
M  V30 529 H 51.2544 -3.85477 -1.70251 0
M  V30 530 H 49.9784 -2.63343 -1.93179 0
M  V30 531 H 48.6374 -3.66541 -0.0656164 0
M  V30 532 H 48.2854 -4.4048 -2.42871 0
M  V30 533 H 47.9854 -5.7345 -1.28174 0
M  V30 534 H 49.5094 -5.6908 -2.21314 0
M  V30 535 H 50.9234 -5.73271 0.0579047 0
M  V30 536 H 49.3204 -5.94469 0.820165 0
M  V30 537 H 50.3904 -4.64777 1.3824 0
M  V30 538 N 51.7335 -0.305618 -1.54608 0
M  V30 539 C 53.1445 0.186098 -1.8577 0
M  V30 540 C 53.4955 1.53058 -1.22751 0
M  V30 541 O 52.6205 2.09888 -0.526893 0
M  V30 542 C 53.2155 0.344449 -3.37044 0
M  V30 543 C 51.7745 0.780384 -3.68221 0
M  V30 544 C 50.9215 -0.108554 -2.77087 0
M  V30 545 H 53.8725 -0.526485 -1.49712 0
M  V30 546 H 53.8935 1.17828 -3.61796 0
M  V30 547 H 53.4055 -0.634235 -3.82883 0
M  V30 548 H 51.5065 1.76945 -3.27904 0
M  V30 549 H 51.6195 0.596572 -4.75371 0
M  V30 550 H 49.9835 0.412931 -2.5133 0
M  V30 551 H 50.7665 -1.08368 -3.25747 0
M  V30 552 N 53.2116 1.57565 -0.0334293 0
M  V30 553 C 54.4596 1.91598 0.642999 0
M  V30 554 C 54.7806 0.910847 1.7242 0
M  V30 555 O 54.0506 -0.0469931 1.95844 0
M  V30 556 H 52.6306 0.707228 0.240496 0
M  V30 557 H 55.2926 1.94726 -0.0822488 0
M  V30 558 H 54.3886 2.92336 1.09298 0
M  V30 559 N 54.6897 -0.239769 1.55765 0
M  V30 560 C 56.1007 -0.808263 1.68297 0
M  V30 561 C 56.4517 -1.85736 0.632181 0
M  V30 562 O 55.5767 -2.15277 -0.220204 0
M  V30 563 C 56.1717 -1.47284 3.05111 0
M  V30 564 C 54.7307 -1.98895 3.19559 0
M  V30 565 C 53.8777 -0.842575 2.64189 0
M  V30 566 H 56.8287 -0.0154422 1.58692 0
M  V30 567 H 56.8497 -2.34111 2.99954 0
M  V30 568 H 56.3617 -0.709053 3.81568 0
M  V30 569 H 54.4627 -2.78132 2.47938 0
M  V30 570 H 54.5757 -2.18143 4.26556 0
M  V30 571 H 52.9397 -1.24501 2.22197 0
M  V30 572 H 53.7227 -0.0917552 3.43177 0
M  V30 573 N 56.1678 -1.49265 -0.50573 0
M  V30 574 C 57.4148 -1.58513 -1.26015 0
M  V30 575 C 57.7428 -0.26972 -1.92621 0
M  V30 576 O 56.9978 0.741997 -1.81088 0
M  V30 577 C 57.2968 -2.69008 -2.35308 0
M  V30 578 C 56.9628 -4.10662 -1.86192 0
M  V30 579 C 55.6248 -4.49212 -1.72516 0
M  V30 580 C 57.9768 -4.99336 -1.49375 0
M  V30 581 C 55.3048 -5.74214 -1.20394 0
M  V30 582 C 57.6568 -6.24852 -0.987072 0
M  V30 583 C 56.3208 -6.62236 -0.836669 0
M  V30 584 H 55.5908 -0.580041 -0.461122 0
M  V30 585 H 58.2378 -1.83078 -0.561665 0
M  V30 586 H 56.5428 -2.38396 -3.10926 0
M  V30 587 H 58.2398 -2.73373 -2.93374 0
M  V30 588 H 54.8298 -3.8023 -1.97795 0
M  V30 589 H 59.0138 -4.70212 -1.5879 0
M  V30 590 H 54.2698 -6.01883 -1.07458 0
M  V30 591 H 58.4438 -6.92944 -0.692983 0
M  V30 592 H 56.0708 -7.58979 -0.430607 0
M  V30 593 N 57.6459 0.756429 -1.3826 0
M  V30 594 C 58.8919 1.51772 -1.34511 0
M  V30 595 C 59.2249 1.94089 0.0656691 0
M  V30 596 O 58.4999 1.65221 1.02626 0
M  V30 597 C 58.7829 2.77226 -2.29821 0
M  V30 598 C 58.6359 2.41065 -3.79747 0
M  V30 599 C 59.9549 3.79236 -2.23312 0
M  V30 600 H 57.0739 0.550578 -0.489931 0
M  V30 601 H 59.7159 0.866607 -1.69086 0
M  V30 602 H 57.8659 3.32784 -2.00467 0
M  V30 603 H 59.5379 1.91303 -4.19763 0
M  V30 604 H 57.7809 1.7356 -3.97567 0
M  V30 605 H 58.4519 3.3081 -4.41892 0
M  V30 606 H 60.9279 3.3321 -2.49219 0
M  V30 607 H 59.8039 4.64714 -2.92116 0
M  V30 608 H 60.0649 4.24615 -1.23102 0
M  V30 609 N 59.124 1.23083 0.984299 0
M  V30 610 C 60.535 1.05609 1.5396 0
M  V30 611 C 60.886 -0.377793 1.92528 0
M  V30 612 O 60.011 -1.26398 1.75649 0
M  V30 613 C 60.606 1.91087 2.7977 0
M  V30 614 C 59.165 1.77885 3.31713 0
M  V30 615 C 58.312 1.87028 2.04733 0
M  V30 616 H 61.263 1.36802 0.804419 0
M  V30 617 H 61.284 1.43336 3.5247 0
M  V30 618 H 60.796 2.9544 2.51668 0
M  V30 619 H 58.897 0.762995 3.64704 0
M  V30 620 H 59.01 2.61047 4.01735 0
M  V30 621 H 57.374 1.30565 2.18689 0
M  V30 622 H 58.157 2.92929 1.79017 0
M  V30 623 N 60.6021 -1.18246 1.0419 0
M  V30 624 C 61.8511 -1.87588 0.741194 0
M  V30 625 C 62.1641 -1.81303 -0.734066 0
M  V30 626 O 63.3701 -2.46019 -1.14834 0
M  V30 627 C 61.8261 -3.36538 1.27555 0
M  V30 628 C 61.4341 -3.51349 2.77953 0
M  V30 629 C 63.1781 -4.11273 1.05143 0
M  V30 630 C 61.0851 -4.94265 3.2474 0
M  V30 631 H 60.0151 -0.702622 0.273565 0
M  V30 632 H 62.6661 -1.33601 1.25789 0
M  V30 633 H 61.0481 -3.9 0.686703 0
M  V30 634 H 62.2221 -3.08153 3.42605 0
M  V30 635 H 60.5371 -2.90022 2.98791 0
M  V30 636 H 63.1341 -5.16689 1.37611 0
M  V30 637 H 63.4771 -4.16298 -0.0112774 0
M  V30 638 H 64.0101 -3.63987 1.60495 0
M  V30 639 H 60.7491 -4.94408 4.30396 0
M  V30 640 H 60.2691 -5.38172 2.64823 0
M  V30 641 H 61.9481 -5.62987 3.18834 0
M  V30 642 N 62.0802 -0.821533 -1.34494 0
M  V30 643 C 63.3572 -0.33159 -1.92769 0
M  V30 644 C 63.7372 1.18088 -1.74981 0
M  V30 645 O 63.0852 1.98733 -1.12772 0
M  V30 646 C 63.2952 -0.759398 -3.40638 0
M  V30 647 C 64.6432 -0.757433 -4.1779 0
M  V30 648 O 65.6672 -0.70189 -3.49216 0
M  V30 649 O 64.5262 -0.829361 -5.4017 0
M  V30 650 H 61.6202 -0.0902502 -0.822061 0
M  V30 651 H 64.1662 -0.906231 -1.43477 0
M  V30 652 H 62.9382 -1.8012 -3.47379 0
M  V30 653 H 62.5612 -0.160378 -3.97276 0
M  V30 654 N 63.5583 1.46682 -0.576371 0
M  V30 655 C 64.7833 2.07304 -0.0630475 0
M  V30 656 C 65.2083 1.42329 1.2298 0
M  V30 657 O 64.5663 0.504865 1.74129 0
M  V30 658 C 64.6143 3.60472 0.095895 0
M  V30 659 O 63.7183 3.95927 1.15394 0
M  V30 660 H 63.0593 0.661288 -0.0599463 0
M  V30 661 H 65.5893 1.88417 -0.797511 0
M  V30 662 H 65.5993 4.06865 0.304071 0
M  V30 663 H 64.2743 4.07157 -0.84828 0
M  V30 664 H 62.8513 3.61252 0.924724 0
M  V30 665 N 65.0364 0.313813 1.54444 0
M  V30 666 C 66.2854 -0.292519 1.99568 0
M  V30 667 C 66.5984 -1.54011 1.20582 0
M  V30 668 O 67.8044 -2.22183 1.56035 0
M  V30 669 C 66.2604 -0.571752 3.55329 0
M  V30 670 C 65.8684 0.658229 4.43138 0
M  V30 671 C 67.6124 -1.13857 4.08946 0
M  V30 672 C 65.5194 0.351439 5.90355 0
M  V30 673 H 64.4494 -0.113079 0.745472 0
M  V30 674 H 67.1004 0.424518 1.78522 0
M  V30 675 H 65.4824 -1.34872 3.72325 0
M  V30 676 H 66.6564 1.43403 4.37918 0
M  V30 677 H 64.9714 1.14458 4.0036 0
M  V30 678 H 67.5684 -1.38257 5.16516 0
M  V30 679 H 67.9114 -2.08489 3.6033 0
M  V30 680 H 68.4444 -0.423015 3.95544 0
M  V30 681 H 65.1834 1.26667 6.43145 0
M  V30 682 H 64.7034 -0.386842 5.98551 0
M  V30 683 H 66.3824 -0.0423134 6.46986 0
M  V30 684 N 66.5145 -1.57545 0.0417849 0
M  V30 685 C 67.7915 -1.83642 -0.673433 0
M  V30 686 C 68.1715 -0.928298 -1.89594 0
M  V30 687 O 67.5195 0.0129955 -2.28496 0
M  V30 688 C 67.7295 -3.33155 -1.03964 0
M  V30 689 C 69.0775 -3.99941 -1.42592 0
M  V30 690 O 70.1015 -3.37725 -1.13226 0
M  V30 691 O 68.9605 -5.09619 -1.9736 0
M  V30 692 H 66.0545 -0.757638 -0.331533 0
M  V30 693 H 68.6005 -1.69554 0.070433 0
M  V30 694 H 67.3725 -3.9093 -0.170098 0
M  V30 695 H 66.9955 -3.52396 -1.84126 0
M  V30 696 N 67.9926 0.231505 -1.5589 0
M  V30 697 C 69.2696 0.981096 -1.69215 0
M  V30 698 C 69.6496 2.02799 -0.586164 0
M  V30 699 O 68.9976 2.24823 0.408253 0
M  V30 700 C 69.2076 1.60054 -3.10135 0
M  V30 701 C 70.5556 2.09658 -3.69227 0
M  V30 702 O 71.5796 1.69967 -3.13033 0
M  V30 703 O 70.4386 2.8258 -4.67772 0
M  V30 704 H 67.5326 0.457653 -0.688827 0
M  V30 705 H 70.0786 0.224073 -1.68214 0
M  V30 706 H 68.8506 0.844105 -3.82087 0
M  V30 707 H 68.4736 2.42336 -3.15212 0
M  V30 708 N 69.4707 1.49531 0.497807 0
M  V30 709 C 70.3807 1.69176 1.62532 0
M  V30 710 C 71.3967 0.5744 1.64246 0
M  V30 711 O 72.5727 0.849497 1.82608 0
M  V30 712 C 69.6377 1.75695 2.98885 0
M  V30 713 C 68.6987 2.9929 3.07773 0
M  V30 714 C 67.9317 3.05488 4.37622 0
M  V30 715 O 68.1547 2.19192 5.26603 0
M  V30 716 O 67.0887 3.9798 4.51548 0
M  V30 717 H 70.9147 2.647 1.48887 0
M  V30 718 H 68.4997 1.3331 0.674441 0
M  V30 719 H 70.3817 1.82317 3.79919 0
M  V30 720 H 69.0567 0.8335 3.12785 0
M  V30 721 H 67.9637 2.98183 2.25915 0
M  V30 722 H 69.2967 3.91125 2.98801 0
M  V30 723 N 70.9488 -0.749086 1.3866 0
M  V30 724 C 72.3598 -1.32664 1.31366 0
M  V30 725 C 72.7108 -1.96179 -0.028484 0
M  V30 726 O 71.8358 -1.9537 -0.93057 0
M  V30 727 C 72.4308 -2.41219 2.37905 0
M  V30 728 C 70.9898 -2.94684 2.34176 0
M  V30 729 C 70.1368 -1.68108 2.20533 0
M  V30 730 H 73.0878 -0.547628 1.48952 0
M  V30 731 H 73.1088 -3.21268 2.0388 0
M  V30 732 H 72.6208 -1.94962 3.35576 0
M  V30 733 H 70.7218 -3.45258 1.401 0
M  V30 734 H 70.8348 -3.48757 3.2849 0
M  V30 735 H 69.1988 -1.91907 1.67463 0
M  V30 736 H 69.9818 -1.23923 3.20153 0
M  V30 737 N 72.4269 -1.23603 -0.977757 0
M  V30 738 C 73.6519 -1.09735 -1.75991 0
M  V30 739 C 74.0769 0.346858 -1.84874 0
M  V30 740 O 73.4349 1.25093 -1.3123 0
M  V30 741 C 73.4829 -1.73051 -3.16363 0
M  V30 742 O 72.5869 -0.994452 -4.0023 0
M  V30 743 H 71.9279 -0.384476 -0.541364 0
M  V30 744 H 74.4579 -1.6371 -1.2272 0
M  V30 745 H 74.4679 -1.78398 -3.66931 0
M  V30 746 H 73.1429 -2.78137 -3.09213 0
M  V30 747 H 71.7199 -1.01812 -3.58732 0
M  V30 748 N 73.905 1.17692 -1.04816 0
M  V30 749 C 74.835 2.23777 -0.666791 0
M  V30 750 C 75.816 1.66796 0.33361 0
M  V30 751 O 77.001 1.93039 0.212042 0
M  V30 752 C 74.131 3.47281 -0.0367933 0
M  V30 753 C 73.085 4.17059 -0.961546 0
M  V30 754 C 72.411 5.34342 -0.195626 0
M  V30 755 C 73.711 4.69713 -2.28402 0
M  V30 756 H 75.405 2.55933 -1.55367 0
M  V30 757 H 72.951 1.23019 -0.748484 0
M  V30 758 H 74.904 4.20706 0.241775 0
M  V30 759 H 73.628 3.14381 0.885004 0
M  V30 760 H 72.287 3.45541 -1.22462 0
M  V30 761 H 71.935 4.97692 0.728816 0
M  V30 762 H 71.635 5.81966 -0.811775 0
M  V30 763 H 73.159 6.10553 0.0757473 0
M  V30 764 H 74.573 5.34794 -2.06563 0
M  V30 765 H 72.97 5.279 -2.8538 0
M  V30 766 H 74.04 3.86726 -2.92525 0
M  V30 767 N 75.3831 0.828654 1.34056 0
M  V30 768 C 76.6131 0.431993 2.02033 0
M  V30 769 C 77.0211 -0.96844 1.62536 0
M  V30 770 O 76.3641 -1.6391 0.829408 0
M  V30 771 C 76.4261 0.461224 3.56529 0
M  V30 772 C 76.0901 1.81599 4.1937 0
M  V30 773 C 77.0871 2.7777 4.39477 0
M  V30 774 C 74.7721 2.10604 4.56017 0
M  V30 775 C 76.7661 4.01115 4.95364 0
M  V30 776 C 74.4531 3.34207 5.11614 0
M  V30 777 C 75.4511 4.2928 5.31232 0
M  V30 778 O 75.1391 5.50699 5.8565 0
M  V30 779 H 74.8711 0.170943 0.654029 0
M  V30 780 H 77.4251 1.11988 1.72185 0
M  V30 781 H 75.6551 -0.283388 3.8566 0
M  V30 782 H 77.3441 0.0838149 4.05813 0
M  V30 783 H 78.1101 2.56659 4.11523 0
M  V30 784 H 73.9891 1.37402 4.40047 0
M  V30 785 H 77.5331 4.75333 5.10592 0
M  V30 786 H 73.4301 3.55179 5.38997 0
M  V30 787 H 74.1981 5.52298 6.04077 0
M  V30 788 N 76.8612 -1.46375 0.584142 0
M  V30 789 C 78.2772 -1.57694 0.245929 0
M  V30 790 C 78.4772 -1.57903 -1.25175 0
M  V30 791 O 77.5332 -1.49676 -2.03355 0
M  V30 792 C 78.8462 -2.87028 0.896402 0
M  V30 793 C 80.3942 -3.00662 0.870127 0
M  V30 794 C 80.8692 -4.32734 1.50017 0
M  V30 795 N 82.3602 -4.39436 1.46458 0
M  V30 796 C 83.0952 -5.40248 1.92144 0
M  V30 797 N 82.5912 -6.47726 2.4581 0
M  V30 798 N 84.3842 -5.31459 1.83052 0
M  V30 799 H 76.5352 -1.44483 1.55687 0
M  V30 800 H 78.7982 -0.689291 0.650831 0
M  V30 801 H 78.5042 -2.9269 1.95002 0
M  V30 802 H 78.3782 -3.75014 0.405486 0
M  V30 803 H 80.7652 -2.94581 -0.174871 0
M  V30 804 H 80.8462 -2.14148 1.39908 0
M  V30 805 H 80.4902 -4.39573 2.54437 0
M  V30 806 H 80.4202 -5.18025 0.946432 0
M  V30 807 H 82.9112 -3.62367 1.07231 0
M  V30 808 H 83.2242 -7.20863 2.78525 0
M  V30 809 H 81.5692 -6.48542 2.49836 0
M  V30 810 H 84.7602 -4.46396 1.40883 0
M  V30 811 H 84.9332 -6.09881 2.18973 0
M  V30 812 N 78.3393 -0.321999 -1.54275 0
M  V30 813 C 79.5863 0.281044 -2.0054 0
M  V30 814 C 79.9143 1.52265 -1.21019 0
M  V30 815 O 79.1693 1.93687 -0.279982 0
M  V30 816 C 79.4683 0.661769 -3.5122 0
M  V30 817 C 79.1343 -0.480482 -4.48333 0
M  V30 818 C 77.7963 -0.794005 -4.74604 0
M  V30 819 C 80.1483 -1.24783 -5.06042 0
M  V30 820 C 77.4763 -1.87763 -5.55844 0
M  V30 821 C 79.8283 -2.32153 -5.88462 0
M  V30 822 C 78.4923 -2.64089 -6.13036 0
M  V30 823 H 77.7623 0.102841 -0.733829 0
M  V30 824 H 80.4093 -0.445453 -1.86247 0
M  V30 825 H 78.7143 1.46867 -3.63232 0
M  V30 826 H 80.4113 1.13989 -3.84457 0
M  V30 827 H 77.0013 -0.226039 -4.28004 0
M  V30 828 H 81.1853 -1.01887 -4.85729 0
M  V30 829 H 76.4413 -2.12954 -5.73115 0
M  V30 830 H 80.6153 -2.92057 -6.32199 0
M  V30 831 H 78.2423 -3.48185 -6.75775 0
M  V30 832 N 79.8174 1.5752 -0.0501392 0
M  V30 833 C 80.7674 2.07981 0.934231 0
M  V30 834 C 81.7514 0.984745 1.27246 0
M  V30 835 O 82.9434 1.24809 1.25506 0
M  V30 836 C 80.0724 2.62751 2.20945 0
M  V30 837 C 79.1584 3.79225 1.89865 0
M  V30 838 N 79.5494 4.89036 1.29142 0
M  V30 839 C 77.8474 3.88111 2.19741 0
M  V30 840 C 78.5484 5.70084 1.15669 0
M  V30 841 N 77.5244 5.17659 1.65923 0
M  V30 842 H 81.3264 2.90277 0.460053 0
M  V30 843 H 78.8404 1.61665 0.15434 0
M  V30 844 H 80.8374 2.97205 2.9236 0
M  V30 845 H 79.4974 1.81894 2.6897 0
M  V30 846 H 80.5084 5.08854 0.963756 0
M  V30 847 H 77.1854 3.18194 2.70293 0
M  V30 848 H 78.5754 6.68395 0.685356 0
M  V30 849 N 81.2955 -0.223234 1.56011 0
M  V30 850 C 82.7115 -0.572856 1.48965 0
M  V30 851 C 82.9115 -1.87225 0.74492 0
M  V30 852 O 81.9675 -2.50899 0.283896 0
M  V30 853 C 83.2805 -0.653646 2.9351 0
M  V30 854 C 84.8285 -0.744386 3.0402 0
M  V30 855 C 85.3035 -0.856535 4.49919 0
M  V30 856 N 86.7945 -0.9208 4.53955 0
M  V30 857 C 87.5295 -1.02726 5.64123 0
M  V30 858 N 87.0255 -1.09777 6.84047 0
M  V30 859 N 88.8185 -1.06226 5.51971 0
M  V30 860 H 80.9695 0.629462 2.02858 0
M  V30 861 H 83.2325 0.220621 0.921971 0
M  V30 862 H 82.9385 0.231518 3.50937 0
M  V30 863 H 82.8125 -1.51781 3.45315 0
M  V30 864 H 85.1995 -1.61999 2.46658 0
M  V30 865 H 85.2805 0.14541 2.55386 0
M  V30 866 H 84.9245 0.0146069 5.07898 0
M  V30 867 H 84.8545 -1.76172 4.96257 0
M  V30 868 H 87.3455 -0.876694 3.6759 0
M  V30 869 H 87.6585 -1.17872 7.63758 0
M  V30 870 H 86.0035 -1.06693 6.86762 0
M  V30 871 H 89.1945 -1.00382 4.5721 0
M  V30 872 H 89.3675 -1.14177 6.37862 0
M  V30 873 N 82.7736 -1.49793 -0.48987 0
M  V30 874 C 84.1896 -1.36803 -0.822022 0
M  V30 875 C 84.3896 -0.409652 -1.97292 0
M  V30 876 O 83.4456 0.154614 -2.52026 0
M  V30 877 C 84.7586 -2.77768 -1.15175 0
M  V30 878 C 86.3066 -2.86549 -1.25931 0
M  V30 879 C 86.7816 -4.28306 -1.62228 0
M  V30 880 N 88.2726 -4.31169 -1.69256 0
M  V30 881 C 89.0076 -5.37832 -1.98807 0
M  V30 882 N 88.5036 -6.54726 -2.26507 0
M  V30 883 N 90.2966 -5.25258 -2.00152 0
M  V30 884 H 82.4476 -2.10691 0.268881 0
M  V30 885 H 84.7106 -0.946241 0.057728 0
M  V30 886 H 84.4166 -3.49648 -0.379335 0
M  V30 887 H 84.2906 -3.13836 -2.09253 0
M  V30 888 H 86.6776 -2.14899 -2.02243 0
M  V30 889 H 86.7586 -2.54049 -0.298776 0
M  V30 890 H 86.4026 -5.00486 -0.864622 0
M  V30 891 H 86.3326 -4.58279 -2.594 0
M  V30 892 H 88.8236 -3.4687 -1.49965 0
M  V30 893 H 89.1366 -7.31833 -2.48276 0
M  V30 894 H 87.4816 -6.57933 -2.23939 0
M  V30 895 H 90.6726 -4.32938 -1.77996 0
M  V30 896 H 90.8456 -6.08476 -2.22848 0
M  V30 897 N 84.2517 0.741722 -1.39055 0
M  V30 898 C 85.1817 1.869 -1.39966 0
M  V30 899 C 86.1627 1.6804 -0.26392 0
M  V30 900 O 87.3477 1.88458 -0.468755 0
M  V30 901 C 84.4777 3.24572 -1.23574 0
M  V30 902 C 83.4317 3.58056 -2.34477 0
M  V30 903 C 82.7577 4.94593 -2.0318 0
M  V30 904 C 84.0577 3.61716 -3.76774 0
M  V30 905 H 85.7517 1.86395 -2.34302 0
M  V30 906 H 83.2977 0.895361 -1.1278 0
M  V30 907 H 85.2507 4.031 -1.22834 0
M  V30 908 H 83.9747 3.25587 -0.257045 0
M  V30 909 H 82.6337 2.81854 -2.34423 0
M  V30 910 H 82.2817 4.92181 -1.03765 0
M  V30 911 H 81.9817 5.17964 -2.77465 0
M  V30 912 H 83.5057 5.75486 -2.04079 0
M  V30 913 H 84.9197 4.30335 -3.78794 0
M  V30 914 H 83.3167 3.96603 -4.50362 0
M  V30 915 H 84.3867 2.61672 -4.08235 0
M  V30 916 N 85.7298 1.2412 0.971189 0
M  V30 917 C 86.6928 1.03156 2.04674 0
M  V30 918 C 87.6928 -0.00990322 1.60797 0
M  V30 919 O 88.8828 0.230729 1.72665 0
M  V30 920 C 86.0148 0.562765 3.36223 0
M  V30 921 H 87.2078 1.98614 2.24705 0
M  V30 922 H 84.7608 1.06293 1.14593 0
M  V30 923 H 85.4958 -0.395176 3.21883 0
M  V30 924 H 85.2808 1.31441 3.69413 0
M  V30 925 H 86.7708 0.437015 4.15307 0
M  V30 926 N 87.2079 -1.17134 1.05439 0
M  V30 927 C 88.4329 -1.91913 0.786396 0
M  V30 928 C 88.8579 -1.7643 -0.652234 0
M  V30 929 O 88.2159 -1.08372 -1.45345 0
M  V30 930 C 88.2639 -3.40921 1.17497 0
M  V30 931 O 87.3679 -4.11244 0.308589 0
M  V30 932 H 86.7089 -0.598215 0.288158 0
M  V30 933 H 89.2389 -1.48457 1.4079 0
M  V30 934 H 89.2489 -3.91668 1.14281 0
M  V30 935 H 87.9239 -3.5151 2.22292 0
M  V30 936 H 86.5009 -3.70731 0.40157 0
M  V30 937 N 88.686 -0.835752 -1.33615 0
M  V30 938 C 89.933 -0.429959 -1.97883 0
M  V30 939 C 90.261 1.01006 -1.66217 0
M  V30 940 O 89.516 1.72047 -0.93265 0
M  V30 941 C 89.815 -0.593925 -3.52431 0
M  V30 942 C 89.481 -2.00158 -4.04039 0
M  V30 943 C 88.143 -2.38662 -4.17844 0
M  V30 944 C 90.495 -2.92117 -4.31644 0
M  V30 945 C 87.823 -3.68435 -4.56588 0
M  V30 946 C 90.175 -4.21368 -4.71838 0
M  V30 947 C 88.839 -4.59833 -4.83849 0
M  V30 948 H 88.109 -0.157333 -0.724104 0
M  V30 949 H 90.756 -1.06217 -1.59343 0
M  V30 950 H 89.061 0.121619 -3.91611 0
M  V30 951 H 90.758 -0.260282 -4.00154 0
M  V30 952 H 87.348 -1.69252 -3.93766 0
M  V30 953 H 91.532 -2.63608 -4.20505 0
M  V30 954 H 86.788 -3.98046 -4.64079 0
M  V30 955 H 90.962 -4.92703 -4.92155 0
M  V30 956 H 88.589 -5.60438 -5.13627 0
M  V30 957 N 90.1641 1.46063 -0.591896 0
M  V30 958 C 91.3891 2.07226 -0.0850314 0
M  V30 959 C 91.8141 1.43625 1.21463 0
M  V30 960 O 91.1721 0.523305 1.73583 0
M  V30 961 C 91.2201 3.60554 0.0576567 0
M  V30 962 O 90.3241 3.97128 1.11188 0
M  V30 963 H 89.6651 0.660615 -0.0669568 0
M  V30 964 H 92.1951 1.8756 -0.81745 0
M  V30 965 H 92.2051 4.07165 0.2609 0
M  V30 966 H 90.8801 4.06235 -0.891416 0
M  V30 967 H 89.4571 3.62213 0.886356 0
M  V30 968 N 91.6422 0.330177 1.54103 0
M  V30 969 C 93.0582 -0.0222371 1.59585 0
M  V30 970 C 93.2582 -1.49902 1.34654 0
M  V30 971 O 92.3142 -2.25592 1.13421 0
M  V30 972 C 93.6272 0.401932 2.98002 0
M  V30 973 C 95.1752 0.353145 3.11001 0
M  V30 974 C 95.6502 0.752576 4.51775 0
M  V30 975 N 97.1412 0.706239 4.57784 0
M  V30 976 C 97.8762 0.987417 5.64834 0
M  V30 977 N 97.3722 1.33607 6.79795 0
M  V30 978 N 99.1652 0.91254 5.54643 0
M  V30 979 H 91.3162 1.29228 1.68564 0
M  V30 980 H 93.5792 0.525906 0.78875 0
M  V30 981 H 93.2852 1.4311 3.21267 0
M  V30 982 H 93.1592 -0.229699 3.765 0
M  V30 983 H 95.5462 -0.666822 2.87467 0
M  V30 984 H 95.6272 1.0198 2.34593 0
M  V30 985 H 95.2712 1.77049 4.76042 0
M  V30 986 H 95.2012 0.0635409 5.26562 0
M  V30 987 H 97.6922 0.44889 3.75224 0
M  V30 988 H 98.0052 1.53582 7.57385 0
M  V30 989 H 96.3502 1.37439 6.81275 0
M  V30 990 H 99.5412 0.639601 4.6371 0
M  V30 991 H 99.7142 1.13503 6.37982 0
M  V30 992 N 93.1203 -1.57491 0.0584922 0
M  V30 993 C 94.3663 -1.93264 -0.614558 0
M  V30 994 C 94.6993 -0.937717 -1.7006 0
M  V30 995 O 93.9743 0.0351652 -1.94468 0
M  V30 996 C 94.2573 -3.3938 -1.20386 0
M  V30 997 C 94.1103 -4.49625 -0.125375 0
M  V30 998 C 95.4293 -3.86039 -2.11334 0
M  V30 999 H 92.5483 -0.702791 -0.221933 0
M  V30 1000 H 95.1903 -1.8961 0.12175 0
M  V30 1001 H 93.3403 -3.42626 -1.83139 0
M  V30 1002 H 95.0123 -4.58506 0.506971 0
M  V30 1003 H 93.2553 -4.30354 0.545672 0
M  V30 1004 H 93.9263 -5.48967 -0.577861 0
M  V30 1005 H 96.4023 -3.84716 -1.58534 0
M  V30 1006 H 95.2783 -4.88914 -2.49507 0
M  V30 1007 H 95.5393 -3.23215 -3.01636 0
M  V30 1008 N 94.5984 0.214957 -1.56127 0
M  V30 1009 C 95.8474 0.936451 -1.78643 0
M  V30 1010 C 96.1604 1.85237 -0.628229 0
M  V30 1011 O 97.3664 2.613 -0.737186 0
M  V30 1012 C 95.8224 1.7154 -3.16389 0
M  V30 1013 C 95.4304 0.845299 -4.39953 0
M  V30 1014 C 97.1744 2.42772 -3.48227 0
M  V30 1015 C 95.0814 1.62198 -5.68723 0
M  V30 1016 H 94.0114 0.353401 -0.666051 0
M  V30 1017 H 96.6624 0.190169 -1.82512 0
M  V30 1018 H 95.0444 2.50484 -3.06715 0
M  V30 1019 H 96.2184 0.0959353 -4.607 0
M  V30 1020 H 94.5334 0.244789 -4.1568 0
M  V30 1021 H 97.1304 3.01394 -4.41663 0
M  V30 1022 H 97.4734 3.15984 -2.71035 0
M  V30 1023 H 98.0064 1.70813 -3.5926 0
M  V30 1024 H 94.7454 0.933011 -6.48826 0
M  V30 1025 H 94.2654 2.34579 -5.52026 0
M  V30 1026 H 95.9444 2.18095 -6.09133 0
M  V30 1027 N 96.0765 1.50051 0.48192 0
M  V30 1028 C 97.4925 1.37237 0.814756 0
M  V30 1029 C 97.6925 0.420109 1.97072 0
M  V30 1030 O 96.7485 -0.141246 2.52105 0
M  V30 1031 C 98.0615 2.78375 1.13701 0
M  V30 1032 C 99.6095 2.87213 1.2441 0
M  V30 1033 C 100.084 4.29161 1.59954 0
M  V30 1034 N 101.575 4.32061 1.66967 0
M  V30 1035 C 102.31 5.38879 1.95952 0
M  V30 1036 N 101.806 6.55918 2.23031 0
M  V30 1037 N 103.599 5.26312 1.97363 0
M  V30 1038 H 95.7505 2.10546 -0.28005 0
M  V30 1039 H 98.0135 0.945921 -0.0627454 0
M  V30 1040 H 97.7195 3.49845 0.360787 0
M  V30 1041 H 97.5935 3.14941 2.07586 0
M  V30 1042 H 99.9805 2.15969 2.01101 0
M  V30 1043 H 100.061 2.54204 0.285299 0
M  V30 1044 H 99.7055 5.00938 0.838067 0
M  V30 1045 H 99.6355 4.59648 2.56966 0
M  V30 1046 H 102.126 3.47661 1.48123 0
M  V30 1047 H 102.439 7.33139 2.44391 0
M  V30 1048 H 100.784 6.59112 2.20447 0
M  V30 1049 H 103.975 4.33876 1.75697 0
M  V30 1050 H 104.148 6.09649 2.19618 0
M  V30 1051 N 97.5546 -0.734337 1.39446 0
M  V30 1052 C 98.4846 -1.86155 1.40955 0
M  V30 1053 C 99.4656 -1.67898 0.272827 0
M  V30 1054 O 100.651 -1.88207 0.478743 0
M  V30 1055 C 97.7806 -3.23912 1.25294 0
M  V30 1056 C 96.7346 -3.56808 2.36373 0
M  V30 1057 C 96.0606 -4.93508 2.058 0
M  V30 1058 C 97.3606 -3.59713 3.78687 0
M  V30 1059 H 99.0546 -1.8515 2.35287 0
M  V30 1060 H 96.6006 -0.889367 1.13253 0
M  V30 1061 H 98.5536 -4.02443 1.2497 0
M  V30 1062 H 97.2776 -3.25446 0.274308 0
M  V30 1063 H 95.9366 -2.80606 2.35914 0
M  V30 1064 H 95.5846 -4.91623 1.06374 0
M  V30 1065 H 95.2846 -5.16486 2.80208 0
M  V30 1066 H 96.8086 -5.74396 2.07128 0
M  V30 1067 H 98.2226 -4.2832 3.81071 0
M  V30 1068 H 96.6196 -3.94209 4.52459 0
M  V30 1069 H 97.6896 -2.59504 4.09617 0
M  V30 1070 N 99.0327 -1.24633 -0.964593 0
M  V30 1071 C 100.31 -0.995809 -1.68354 0
M  V30 1072 C 100.69 0.480964 -2.05548 0
M  V30 1073 O 100.038 1.45599 -1.76105 0
M  V30 1074 C 100.248 -1.92177 -2.91323 0
M  V30 1075 C 101.596 -2.19446 -3.63495 0
M  V30 1076 O 102.62 -1.89855 -3.01386 0
M  V30 1077 O 101.479 -2.69714 -4.75307 0
M  V30 1078 H 98.5727 -0.376854 -0.736146 0
M  V30 1079 H 101.119 -1.35745 -1.0184 0
M  V30 1080 H 99.8907 -2.91938 -2.60553 0
M  V30 1081 H 99.5137 -1.56349 -3.65569 0
M  V30 1082 N 100.511 1.16574 -1.06058 0
M  V30 1083 C 101.461 2.18854 -0.63929 0
M  V30 1084 C 102.445 1.57505 0.328798 0
M  V30 1085 O 103.637 1.76408 0.144623 0
M  V30 1086 C 100.766 3.43291 -0.0247203 0
M  V30 1087 C 99.8518 4.11722 -1.01716 0
M  V30 1088 N 100.243 4.55841 -2.19186 0
M  V30 1089 C 98.5408 4.37872 -0.847569 0
M  V30 1090 C 99.2418 5.08751 -2.82042 0
M  V30 1091 N 98.2178 5.01489 -2.09784 0
M  V30 1092 H 102.02 2.5068 -1.53417 0
M  V30 1093 H 99.5338 1.32999 -0.931935 0
M  V30 1094 H 101.531 4.15856 0.294915 0
M  V30 1095 H 100.191 3.12954 0.865448 0
M  V30 1096 H 101.202 4.49649 -2.56975 0
M  V30 1097 H 97.8788 4.17499 -0.00918848 0
M  V30 1098 H 99.2688 5.52944 -3.81709 0
M  V30 1099 N 101.989 0.842826 1.3317 0
M  V30 1100 C 103.405 0.531128 1.50503 0
M  V30 1101 C 103.605 -0.940734 1.78192 0
M  V30 1102 O 102.661 -1.72436 1.84451 0
M  V30 1103 C 103.974 1.40789 2.65705 0
M  V30 1104 C 105.522 1.40708 2.79589 0
M  V30 1105 C 105.997 2.26878 3.97857 0
M  V30 1106 N 107.488 2.24609 4.05099 0
M  V30 1107 C 108.223 2.88019 4.95815 0
M  V30 1108 N 107.719 3.60496 5.9162 0
M  V30 1109 N 109.512 2.77469 4.88843 0
M  V30 1110 H 101.663 1.79557 1.1346 0
M  V30 1111 H 103.926 0.766267 0.558156 0
M  V30 1112 H 103.632 2.454 2.51936 0
M  V30 1113 H 103.506 1.08677 3.61205 0
M  V30 1114 H 105.893 0.368668 2.92788 0
M  V30 1115 H 105.974 1.76829 1.84838 0
M  V30 1116 H 105.618 3.3078 3.85418 0
M  V30 1117 H 105.548 1.88096 4.91861 0
M  V30 1118 H 108.039 1.71906 3.36536 0
M  V30 1119 H 108.352 4.06076 6.57512 0
M  V30 1120 H 106.697 3.64604 5.91683 0
M  V30 1121 H 109.888 2.20406 4.12963 0
M  V30 1122 H 110.061 3.2717 5.59342 0
M  V30 1123 N 103.467 -1.45747 0.599634 0
M  V30 1124 C 104.715 -2.01893 0.0915472 0
M  V30 1125 C 105.036 -1.47155 -1.27946 0
M  V30 1126 O 104.306 -0.66273 -1.84349 0
M  V30 1127 H 102.886 -0.746363 0.0308524 0
M  V30 1128 H 105.548 -1.78645 0.779237 0
M  V30 1129 H 104.644 -3.1208 0.0353086 0
M  V30 1130 N 104.945 -0.338344 -1.53925 0
M  V30 1131 C 106.191 0.260143 -2.01125 0
M  V30 1132 C 106.524 1.50617 -1.22589 0
M  V30 1133 O 105.799 1.91979 -0.312113 0
M  V30 1134 C 106.082 0.579499 -3.55407 0
M  V30 1135 C 105.935 -0.678264 -4.44657 0
M  V30 1136 C 107.254 1.39122 -4.17532 0
M  V30 1137 H 104.373 0.0930772 -0.731099 0
M  V30 1138 H 107.015 -0.457852 -1.84401 0
M  V30 1139 H 105.165 1.19118 -3.69788 0
M  V30 1140 H 106.837 -1.31631 -4.42121 0
M  V30 1141 H 105.08 -1.3042 -4.13731 0
M  V30 1142 H 105.751 -0.410143 -5.50474 0
M  V30 1143 H 108.227 0.874035 -4.06817 0
M  V30 1144 H 107.103 1.58342 -5.25565 0
M  V30 1145 H 107.364 2.39178 -3.71815 0
M  V30 1146 N 106.423 1.57458 -0.0668435 0
M  V30 1147 C 107.671 1.92919 0.602214 0
M  V30 1148 C 107.992 0.947215 1.70449 0
M  V30 1149 O 107.262 -0.00544117 1.95899 0
M  V30 1150 H 105.842 0.71217 0.22544 0
M  V30 1151 H 108.504 1.94508 -0.123535 0
M  V30 1152 H 107.6 2.94589 1.03073 0
M  V30 1153 N 107.901 -0.206675 1.56239 0
M  V30 1154 C 108.831 -1.25909 1.96645 0
M  V30 1155 C 109.812 -1.48097 0.836734 0
M  V30 1156 O 110.997 -1.6003 1.10019 0
M  V30 1157 C 108.127 -2.6058 2.29599 0
M  V30 1158 C 107.081 -2.53024 3.452 0
M  V30 1159 C 106.407 -3.91861 3.63798 0
M  V30 1160 C 107.707 -2.06524 4.79734 0
M  V30 1161 H 109.401 -0.923369 2.84806 0
M  V30 1162 H 106.947 -0.442735 1.37025 0
M  V30 1163 H 108.9 -3.34375 2.56459 0
M  V30 1164 H 107.624 -2.95869 1.38307 0
M  V30 1165 H 106.283 -1.81684 3.18412 0
M  V30 1166 H 105.931 -4.24483 2.69857 0
M  V30 1167 H 105.631 -3.87683 4.4156 0
M  V30 1168 H 107.155 -4.67296 3.93022 0
M  V30 1169 H 108.569 -2.70072 5.05702 0
M  V30 1170 H 106.966 -2.13374 5.60885 0
M  V30 1171 H 108.036 -1.01802 4.74093 0
M  V30 1172 N 109.379 -1.50304 -0.473955 0
M  V30 1173 C 110.604 -1.65175 -1.25427 0
M  V30 1174 C 111.029 -0.333673 -1.85117 0
M  V30 1175 O 110.387 0.702114 -1.67153 0
M  V30 1176 C 110.435 -2.74295 -2.34082 0
M  V30 1177 O 109.539 -2.35349 -3.38651 0
M  V30 1178 H 108.88 -0.551944 -0.369126 0
M  V30 1179 H 111.41 -1.96662 -0.564364 0
M  V30 1180 H 111.42 -2.97285 -2.79438 0
M  V30 1181 H 110.095 -3.69959 -1.90008 0
M  V30 1182 H 108.672 -2.22794 -2.99027 0
M  V30 1183 N 110.857 0.726932 -1.39834 0
M  V30 1184 C 112.082 1.52121 -1.40976 0
M  V30 1185 C 112.507 1.88098 -0.00826029 0
M  V30 1186 O 111.865 1.52479 0.980807 0
M  V30 1187 C 111.913 2.78021 -2.29644 0
M  V30 1188 O 111.017 3.74272 -1.73188 0
M  V30 1189 H 110.358 0.45908 -0.479731 0
M  V30 1190 H 112.888 0.896207 -1.83927 0
M  V30 1191 H 112.898 3.26671 -2.44438 0
M  V30 1192 H 111.573 2.51169 -3.31492 0
M  V30 1193 H 110.15 3.33073 -1.6768 0
M  V30 1194 N 112.336 1.25143 0.95797 0
M  V30 1195 C 113.752 1.01892 1.22842 0
M  V30 1196 C 113.952 -0.266311 1.99732 0
M  V30 1197 O 113.008 -0.979913 2.3271 0
M  V30 1198 C 114.321 2.24004 2.00606 0
M  V30 1199 C 115.869 2.28731 2.13662 0
M  V30 1200 C 116.344 3.5049 2.94823 0
M  V30 1201 N 117.835 3.50866 3.02403 0
M  V30 1202 C 118.57 4.4174 3.65586 0
M  V30 1203 N 118.066 5.42882 4.30408 0
M  V30 1204 N 119.859 4.29429 3.62694 0
M  V30 1205 H 112.01 2.07718 0.443493 0
M  V30 1206 H 114.273 0.912031 0.258657 0
M  V30 1207 H 113.979 3.17395 1.51503 0
M  V30 1208 H 113.853 2.26907 3.01319 0
M  V30 1209 H 116.24 1.35865 2.61963 0
M  V30 1210 H 116.321 2.29848 1.12265 0
M  V30 1211 H 115.965 4.43676 2.47213 0
M  V30 1212 H 115.895 3.46617 3.96439 0
M  V30 1213 H 118.386 2.777 2.56302 0
M  V30 1214 H 118.699 6.0844 4.76467 0
M  V30 1215 H 117.044 5.46758 4.29047 0
M  V30 1216 H 120.235 3.49643 3.11236 0
M  V30 1217 H 120.408 5.00448 4.1165 0
M  V30 1218 N 113.814 -1.1601 1.06675 0
M  V30 1219 C 114.744 -2.22688 0.702307 0
M  V30 1220 C 115.725 -1.67306 -0.307032 0
M  V30 1221 O 116.91 -1.93352 -0.181305 0
M  V30 1222 C 114.04 -3.47178 0.092038 0
M  V30 1223 C 112.994 -4.15477 1.02777 0
M  V30 1224 C 112.32 -5.33963 0.28061 0
M  V30 1225 C 113.62 -4.66019 2.35846 0
M  V30 1226 H 115.314 -2.53429 1.59419 0
M  V30 1227 H 112.86 -1.21813 0.767961 0
M  V30 1228 H 114.813 -4.21037 -0.174814 0
M  V30 1229 H 113.537 -3.15749 -0.834877 0
M  V30 1230 H 112.196 -3.43549 1.27944 0
M  V30 1231 H 111.844 -4.98788 -0.649545 0
M  V30 1232 H 111.544 -5.806 0.904258 0
M  V30 1233 H 113.068 -6.10596 0.021396 0
M  V30 1234 H 114.482 -5.3144 2.15045 0
M  V30 1235 H 112.879 -5.23293 2.93743 0
M  V30 1236 H 113.949 -3.82023 2.98641 0
M  V30 1237 N 115.292 -0.849877 -1.32721 0
M  V30 1238 C 116.255 -0.296122 -2.27279 0
M  V30 1239 C 117.255 0.541458 -1.5141 0
M  V30 1240 O 118.445 0.353658 -1.70572 0
M  V30 1241 C 115.577 0.581579 -3.35902 0
M  V30 1242 H 116.77 -1.13064 -2.77771 0
M  V30 1243 H 114.323 -0.62383 -1.43311 0
M  V30 1244 H 115.058 1.43809 -2.9067 0
M  V30 1245 H 114.843 -0.0178814 -3.92096 0
M  V30 1246 H 116.333 0.961951 -4.0637 0
M  V30 1247 N 116.77 1.45427 -0.607355 0
M  V30 1248 C 117.733 2.28974 0.101693 0
M  V30 1249 C 118.733 1.39754 0.795329 0
M  V30 1250 O 119.923 1.61878 0.643527 0
M  V30 1251 C 117.055 3.20768 1.15414 0
M  V30 1252 H 118.248 2.93147 -0.632844 0
M  V30 1253 H 115.801 1.51945 -0.366391 0
M  V30 1254 H 116.536 2.61395 1.91945 0
M  V30 1255 H 116.321 3.86489 0.66098 0
M  V30 1256 H 117.811 3.83589 1.65073 0
M  V30 1257 N 118.248 0.346503 1.53744 0
M  V30 1258 C 119.497 -0.250122 2.00143 0
M  V30 1259 C 119.81 -1.51418 1.23822 0
M  V30 1260 O 121.016 -2.18823 1.60713 0
M  V30 1261 C 119.472 -0.496252 3.56462 0
M  V30 1262 C 119.08 0.752077 4.41642 0
M  V30 1263 C 120.824 -1.05157 4.11269 0
M  V30 1264 C 118.731 0.476583 5.89477 0
M  V30 1265 H 117.661 -0.0972409 0.747703 0
M  V30 1266 H 120.312 0.46229 1.77581 0
M  V30 1267 H 118.694 -1.26944 3.75102 0
M  V30 1268 H 119.868 1.5266 4.34778 0
M  V30 1269 H 118.183 1.22925 3.97842 0
M  V30 1270 H 120.78 -1.27269 5.19333 0
M  V30 1271 H 121.123 -2.00799 3.64672 0
M  V30 1272 H 121.656 -0.339019 3.96353 0
M  V30 1273 H 118.395 1.4028 6.40314 0
M  V30 1274 H 117.915 -0.259794 5.99237 0
M  V30 1275 H 119.594 0.0949315 6.4693 0
M  V30 1276 N 119.726 -1.57421 0.075193 0
M  V30 1277 C 120.954 -1.97946 -0.602076 0
M  V30 1278 C 121.369 -0.953674 -1.62943 0
M  V30 1279 O 120.726 0.0592551 -1.82404 0
M  V30 1280 C 120.777 -3.38546 -1.26762 0
M  V30 1281 O 120.498 -4.37195 -0.281376 0
M  V30 1282 C 121.999 -3.93966 -2.03239 0
M  V30 1283 H 119.219 -0.650918 -0.162931 0
M  V30 1284 H 121.763 -2.03959 0.148601 0
M  V30 1285 H 119.918 -3.33609 -1.96936 0
M  V30 1286 H 120.332 -5.18975 -0.759267 0
M  V30 1287 H 121.806 -4.94555 -2.45193 0
M  V30 1288 H 122.283 -3.30693 -2.8903 0
M  V30 1289 H 122.889 -4.02315 -1.37924 0
M  V30 1290 N 121.204 0.198386 -1.56346 0
M  V30 1291 C 122.432 0.935572 -1.84539 0
M  V30 1292 C 122.847 1.76989 -0.657281 0
M  V30 1293 O 122.204 1.78626 0.374043 0
M  V30 1294 C 122.255 1.8344 -3.11499 0
M  V30 1295 O 121.976 1.03377 -4.25728 0
M  V30 1296 C 123.477 2.68355 -3.52846 0
M  V30 1297 H 120.697 0.273126 -0.612897 0
M  V30 1298 H 123.241 0.20663 -2.03453 0
M  V30 1299 H 121.396 2.51701 -2.94492 0
M  V30 1300 H 121.81 1.64599 -4.98003 0
M  V30 1301 H 123.284 3.27085 -4.44657 0
M  V30 1302 H 123.761 3.41901 -2.75681 0
M  V30 1303 H 124.367 2.05471 -3.72373 0
M  V30 1304 N 122.682 1.50554 0.465978 0
M  V30 1305 C 123.612 1.72722 1.57128 0
M  V30 1306 C 124.593 0.576294 1.6004 0
M  V30 1307 O 125.778 0.81598 1.76225 0
M  V30 1308 C 122.908 1.82605 2.95419 0
M  V30 1309 C 121.862 2.97835 3.07373 0
M  V30 1310 C 121.188 2.92867 4.47363 0
M  V30 1311 C 122.488 4.38265 2.84114 0
M  V30 1312 H 124.182 2.65267 1.38829 0
M  V30 1313 H 121.728 1.2765 0.666441 0
M  V30 1314 H 123.681 1.96698 3.72677 0
M  V30 1315 H 122.405 0.866858 3.14886 0
M  V30 1316 H 121.064 2.83401 2.3255 0
M  V30 1317 H 120.712 1.94783 4.63755 0
M  V30 1318 H 120.412 3.70227 4.56296 0
M  V30 1319 H 121.936 3.09015 5.26633 0
M  V30 1320 H 123.35 4.53198 3.51118 0
M  V30 1321 H 121.747 5.17115 3.04487 0
M  V30 1322 H 122.817 4.50281 1.7993 0
M  V30 1323 N 124.16 -0.719506 1.40217 0
M  V30 1324 C 125.408 -1.47641 1.3801 0
M  V30 1325 C 125.729 -1.94992 -0.018145 0
M  V30 1326 O 124.999 -1.70073 -0.972207 0
M  V30 1327 H 123.579 -0.547744 0.507923 0
M  V30 1328 H 126.241 -0.853187 1.75233 0
M  V30 1329 H 125.337 -2.35112 2.05253 0
M  V30 1330 N 125.638 -1.25649 -0.95132 0
M  V30 1331 C 127.049 -1.09654 -1.51106 0
M  V30 1332 C 127.4 0.326615 -1.93462 0
M  V30 1333 O 126.525 1.21697 -1.78938 0
M  V30 1334 C 127.12 -1.98437 -2.74605 0
M  V30 1335 C 125.679 -1.86618 -3.2688 0
M  V30 1336 C 124.826 -1.9239 -1.99703 0
M  V30 1337 H 127.777 -1.38887 -0.767865 0
M  V30 1338 H 127.798 -1.5263 -3.48546 0
M  V30 1339 H 127.31 -3.02009 -2.43746 0
M  V30 1340 H 125.411 -0.859421 -3.62553 0
M  V30 1341 H 125.524 -2.71607 -3.94673 0
M  V30 1342 H 123.888 -1.36317 -2.15151 0
M  V30 1343 H 124.671 -2.97573 -1.71188 0
M  V30 1344 N 127.117 1.15442 -1.07289 0
M  V30 1345 C 128.064 2.20161 -0.692653 0
M  V30 1346 C 129.034 1.63073 0.31564 0
M  V30 1347 O 130.219 1.89725 0.202235 0
M  V30 1348 C 127.359 3.44967 -0.0959509 0
M  V30 1349 C 126.472 4.16256 -1.15564 0
M  V30 1350 C 125.607 5.28609 -0.524011 0
M  V30 1351 C 124.646 5.91715 -1.56653 0
M  V30 1352 N 123.783 6.9554 -0.957531 0
M  V30 1353 H 128.623 2.52037 -1.59002 0
M  V30 1354 H 126.16 1.2378 -0.794798 0
M  V30 1355 H 128.118 4.16341 0.267628 0
M  V30 1356 H 126.748 3.1361 0.764772 0
M  V30 1357 H 125.8 3.43385 -1.6368 0
M  V30 1358 H 127.112 4.59268 -1.94613 0
M  V30 1359 H 126.266 6.06604 -0.108032 0
M  V30 1360 H 125.005 4.86787 0.29825 0
M  V30 1361 H 124.01 5.12433 -1.9923 0
M  V30 1362 H 125.235 6.35614 -2.39107 0
M  V30 1363 H 123.181 6.55814 -0.156162 0
M  V30 1364 H 123.098 7.36977 -1.68526 0
M  V30 1365 H 124.366 7.77435 -0.567032 0
M  V30 1366 N 128.595 0.856903 1.32268 0
M  V30 1367 C 129.842 0.461386 1.97174 0
M  V30 1368 C 130.17 -0.983491 1.67803 0
M  V30 1369 O 129.425 -1.70541 0.959903 0
M  V30 1370 C 129.724 0.649919 3.51441 0
M  V30 1371 C 129.39 2.0656 4.00804 0
M  V30 1372 C 128.052 2.45279 4.13995 0
M  V30 1373 C 130.404 2.98947 4.26943 0
M  V30 1374 C 127.732 3.75653 4.50668 0
M  V30 1375 C 130.084 4.28822 4.65075 0
M  V30 1376 C 128.748 4.67472 4.76472 0
M  V30 1377 H 128.018 0.168833 0.72151 0
M  V30 1378 H 130.665 1.08739 1.57633 0
M  V30 1379 H 128.97 -0.0593018 3.91755 0
M  V30 1380 H 130.667 0.32391 3.9969 0
M  V30 1381 H 127.257 1.75495 3.91024 0
M  V30 1382 H 131.441 2.70265 4.16258 0
M  V30 1383 H 126.697 4.05379 4.57688 0
M  V30 1384 H 130.871 5.0047 4.84255 0
M  V30 1385 H 128.498 5.68539 5.04646 0
M  V30 1386 N 130.073 -1.45103 0.615059 0
M  V30 1387 C 131.319 -2.03035 0.121804 0
M  V30 1388 C 131.674 -1.47393 -1.23665 0
M  V30 1389 O 130.967 -0.642061 -1.80522 0
M  V30 1390 C 131.161 -3.57386 0.0318797 0
M  V30 1391 C 130.99 -4.28 1.38007 0
M  V30 1392 C 129.76 -4.65624 1.9627 0
M  V30 1393 C 131.958 -4.5948 2.31047 0
M  V30 1394 N 129.94 -5.21132 3.24492 0
M  V30 1395 C 131.311 -5.159 3.43872 0
M  V30 1396 C 133.366 -4.41423 2.30326 0
M  V30 1397 C 132.069 -5.56165 4.5615 0
M  V30 1398 C 134.095 -4.82726 3.41658 0
M  V30 1399 C 133.457 -5.39245 4.53205 0
M  V30 1400 H 129.556 -0.77702 0.0881159 0
M  V30 1401 H 132.14 -1.76819 0.815044 0
M  V30 1402 H 130.311 -3.83247 -0.630599 0
M  V30 1403 H 132.043 -4.01976 -0.468721 0
M  V30 1404 H 128.798 -4.49421 1.49392 0
M  V30 1405 H 129.222 -5.53377 3.90004 0
M  V30 1406 H 133.864 -3.97033 1.45343 0
M  V30 1407 H 131.582 -5.99517 5.41854 0
M  V30 1408 H 135.168 -4.7048 3.42257 0
M  V30 1409 H 134.048 -5.70616 5.37929 0
M  V30 1410 N 131.551 -0.354651 -1.53558 0
M  V30 1411 C 132.514 0.484566 -2.24019 0
M  V30 1412 C 133.514 1.01861 -1.24422 0
M  V30 1413 O 134.704 0.906097 -1.4878 0
M  V30 1414 C 131.836 1.67615 -2.96847 0
M  V30 1415 H 133.029 -0.131843 -2.9961 0
M  V30 1416 H 130.582 -0.106165 -1.55939 0
M  V30 1417 H 131.317 2.33095 -2.25471 0
M  V30 1418 H 131.102 1.30029 -3.69912 0
M  V30 1419 H 132.592 2.27114 -3.50441 0
M  V30 1420 N 133.029 1.57378 -0.0835403 0
M  V30 1421 C 133.961 2.10389 0.909338 0
M  V30 1422 C 134.974 1.03858 1.25369 0
M  V30 1423 O 136.163 1.31338 1.20882 0
M  V30 1424 C 133.263 2.55908 2.2218 0
M  V30 1425 C 132.436 3.86145 2.05453 0
M  V30 1426 C 131.495 4.17633 3.20108 0
M  V30 1427 O 130.521 4.87043 2.94581 0
M  V30 1428 N 131.723 3.72113 4.45547 0
M  V30 1429 H 134.488 2.962 0.456657 0
M  V30 1430 H 132.049 1.61579 0.101877 0
M  V30 1431 H 134.041 2.74027 2.97811 0
M  V30 1432 H 132.611 1.75171 2.58909 0
M  V30 1433 H 131.831 3.7729 1.1422 0
M  V30 1434 H 133.119 4.7137 1.91541 0
M  V30 1435 H 132.517 3.16062 4.69171 0
M  V30 1436 H 131.074 3.95409 5.18165 0
M  V30 1437 N 134.507 -0.190092 1.56449 0
M  V30 1438 C 135.784 -0.935886 1.71757 0
M  V30 1439 C 136.164 -2.01173 0.639726 0
M  V30 1440 O 135.512 -2.25827 -0.348502 0
M  V30 1441 C 135.722 -1.51775 3.1427 0
M  V30 1442 C 137.07 -1.99794 3.74656 0
M  V30 1443 O 138.094 -1.61607 3.1743 0
M  V30 1444 O 136.953 -2.70079 4.751 0
M  V30 1445 H 134.047 -0.439229 0.700719 0
M  V30 1446 H 136.593 -0.179395 1.68749 0
M  V30 1447 H 135.365 -0.742505 3.84191 0
M  V30 1448 H 134.988 -2.33894 3.21527 0
M  V30 1449 N 135.985 -1.50799 -0.457987 0
M  V30 1450 C 136.948 -1.7005 -1.53674 0
M  V30 1451 C 137.948 -0.570881 -1.50325 0
M  V30 1452 O 139.138 -0.838126 -1.52712 0
M  V30 1453 C 136.27 -1.73788 -2.93276 0
M  V30 1454 H 137.463 -2.66306 -1.37917 0
M  V30 1455 H 135.016 -1.40477 -0.685271 0
M  V30 1456 H 135.751 -0.792717 -3.14462 0
M  V30 1457 H 135.536 -2.55864 -2.97113 0
M  V30 1458 H 137.026 -1.90591 -3.71571 0
M  V30 1459 N 137.463 0.71206 -1.40597 0
M  V30 1460 C 138.712 1.46754 -1.38369 0
M  V30 1461 C 139.025 1.95598 0.0097839 0
M  V30 1462 O 140.231 2.71059 0.154677 0
M  V30 1463 C 138.687 2.65289 -2.43207 0
M  V30 1464 C 138.295 2.23301 -3.88382 0
M  V30 1465 C 140.039 3.43008 -2.50091 0
M  V30 1466 C 137.946 3.38696 -4.84808 0
M  V30 1467 H 136.876 0.55118 -0.514506 0
M  V30 1468 H 139.527 0.774616 -1.66349 0
M  V30 1469 H 137.909 3.36769 -2.08332 0
M  V30 1470 H 139.083 1.59218 -4.32419 0
M  V30 1471 H 137.398 1.58618 -3.85006 0
M  V30 1472 H 139.995 4.28881 -3.1932 0
M  V30 1473 H 140.338 3.87065 -1.53253 0
M  V30 1474 H 140.871 2.78574 -2.83974 0
M  V30 1475 H 137.61 2.99668 -5.82992 0
M  V30 1476 H 137.13 4.01683 -4.45433 0
M  V30 1477 H 138.809 4.04712 -5.04794 0
M  V30 1478 N 138.941 1.26152 0.944643 0
M  V30 1479 C 139.904 1.07474 2.0244 0
M  V30 1480 C 140.904 0.0242064 1.60782 0
M  V30 1481 O 142.094 0.267302 1.72137 0
M  V30 1482 C 139.226 0.633956 3.34953 0
M  V30 1483 H 140.419 2.03336 2.20442 0
M  V30 1484 H 137.972 1.087 1.12312 0
M  V30 1485 H 138.707 -0.326811 3.22649 0
M  V30 1486 H 138.492 1.39247 3.66542 0
M  V30 1487 H 139.982 0.52501 4.14287 0
M  V30 1488 N 140.419 -1.14872 1.07899 0
M  V30 1489 C 141.665 -1.86064 0.806725 0
M  V30 1490 C 141.998 -1.82434 -0.665706 0
M  V30 1491 O 141.273 -1.25138 -1.48899 0
M  V30 1492 C 141.556 -3.34929 1.32267 0
M  V30 1493 C 141.409 -3.47161 2.86006 0
M  V30 1494 C 142.728 -4.29863 0.943717 0
M  V30 1495 H 139.847 -0.675591 0.294526 0
M  V30 1496 H 142.489 -1.34925 1.33773 0
M  V30 1497 H 140.639 -3.78611 0.870974 0
M  V30 1498 H 142.311 -3.12302 3.39507 0
M  V30 1499 H 140.554 -2.88539 3.23925 0
M  V30 1500 H 141.225 -4.51777 3.17177 0
M  V30 1501 H 143.701 -3.9417 1.33302 0
M  V30 1502 H 142.577 -5.32494 1.33198 0
M  V30 1503 H 142.838 -4.41846 -0.149796 0
M  V30 1504 N 141.898 -0.863906 -1.31812 0
M  V30 1505 C 142.831 -0.259963 -2.26714 0
M  V30 1506 C 143.809 0.607392 -1.50829 0
M  V30 1507 O 144.993 0.562155 -1.79922 0
M  V30 1508 C 142.12 0.632456 -3.32743 0
M  V30 1509 C 141.166 -0.162743 -4.26189 0
M  V30 1510 S 141.999 -1.53726 -5.12961 0
M  V30 1511 C 143.155 -0.650803 -6.22507 0
M  V30 1512 H 143.388 -1.06445 -2.77591 0
M  V30 1513 H 140.921 -0.662071 -1.39485 0
M  V30 1514 H 142.879 1.14167 -3.94305 0
M  V30 1515 H 141.54 1.41083 -2.80632 0
M  V30 1516 H 140.733 0.517366 -5.01338 0
M  V30 1517 H 140.335 -0.60385 -3.69093 0
M  V30 1518 H 142.627 0.141134 -6.77353 0
M  V30 1519 H 143.57 -1.37322 -6.94657 0
M  V30 1520 H 143.978 -0.221041 -5.64067 0
M  V30 1521 N 143.376 1.44774 -0.622745 0
M  V30 1522 C 144.653 1.95522 -0.0551974 0
M  V30 1523 C 145.033 1.5649 1.41683 0
M  V30 1524 O 144.381 0.834848 2.12703 0
M  V30 1525 C 144.591 3.4796 -0.269242 0
M  V30 1526 C 145.939 4.24306 -0.158014 0
M  V30 1527 O 146.963 3.55637 -0.200162 0
M  V30 1528 O 145.822 5.46471 -0.0558693 0
M  V30 1529 H 142.916 0.826556 0.0271015 0
M  V30 1530 H 145.462 1.54866 -0.693864 0
M  V30 1531 H 144.234 3.6939 -1.29099 0
M  V30 1532 H 143.857 3.95543 0.403966 0
M  V30 1533 N 144.854 0.36279 1.53368 0
M  V30 1534 C 145.817 -0.472679 2.24273 0
M  V30 1535 C 146.817 -1.012 1.24961 0
M  V30 1536 O 148.007 -0.898194 1.49259 0
M  V30 1537 C 145.139 -1.66039 2.97731 0
M  V30 1538 H 146.332 0.14773 2.99536 0
M  V30 1539 H 143.885 0.114434 1.55881 0
M  V30 1540 H 144.62 -2.31896 2.26704 0
M  V30 1541 H 144.405 -1.28066 3.70596 0
M  V30 1542 H 145.895 -2.25252 3.51641 0
M  V30 1543 N 146.332 -1.57332 0.0918853 0
M  V30 1544 C 147.578 -1.94524 -0.573425 0
M  V30 1545 C 147.911 -0.973578 -1.68033 0
M  V30 1546 O 147.186 -0.00609226 -1.94499 0
M  V30 1547 C 147.469 -3.41858 -1.13161 0
M  V30 1548 C 147.322 -4.4979 -0.0299747 0
M  V30 1549 C 148.641 -3.90435 -2.03098 0
M  V30 1550 H 145.76 -0.70734 -0.206975 0
M  V30 1551 H 148.402 -1.89309 0.161942 0
M  V30 1552 H 146.552 -3.46433 -1.7583 0
M  V30 1553 H 148.224 -4.57327 0.604112 0
M  V30 1554 H 146.467 -4.291 0.636833 0
M  V30 1555 H 147.138 -5.50069 -0.461287 0
M  V30 1556 H 149.614 -3.87992 -1.50338 0
M  V30 1557 H 148.49 -4.94097 -2.39081 0
M  V30 1558 H 148.751 -3.29541 -2.94712 0
M  V30 1559 N 147.81 0.181792 -1.56548 0
M  V30 1560 C 149.058 0.89832 -1.81038 0
M  V30 1561 C 149.379 1.83232 -0.667164 0
M  V30 1562 O 148.649 1.93372 0.313673 0
M  V30 1563 H 147.229 0.33471 -0.667816 0
M  V30 1564 H 149.891 0.184116 -1.94028 0
M  V30 1565 H 148.987 1.4815 -2.74696 0
M  V30 1566 N 149.288 1.51039 0.449983 0
M  V30 1567 C 150.528 1.64732 1.21007 0
M  V30 1568 C 150.892 0.349865 1.88785 0
M  V30 1569 O 152.093 0.362431 2.66345 0
M  V30 1570 C 150.364 2.80902 2.20973 0
M  V30 1571 S 151.923 3.14851 3.05638 0
M  V30 1572 H 148.741 0.5805 0.410538 0
M  V30 1573 H 151.343 1.88901 0.503634 0
M  V30 1574 H 150.047 3.73627 1.69796 0
M  V30 1575 H 149.578 2.58882 2.96215 0
M  V30 1576 H 151.593 2.60306 4.22439 0
M  V30 1577 N 150.766 -0.704594 1.40972 0
M  V30 1578 C 151.676 -1.84856 1.44448 0
M  V30 1579 C 152.692 -1.70726 0.335961 0
M  V30 1580 O 153.868 -1.92799 0.582276 0
M  V30 1581 C 150.933 -3.20758 1.31587 0
M  V30 1582 C 149.994 -3.47063 2.52677 0
M  V30 1583 C 149.227 -4.76481 2.4042 0
M  V30 1584 O 149.45 -5.52341 1.42391 0
M  V30 1585 O 148.384 -5.03367 3.30007 0
M  V30 1586 H 152.21 -1.8488 2.40942 0
M  V30 1587 H 149.795 -0.85647 1.22413 0
M  V30 1588 H 151.677 -4.01913 1.26665 0
M  V30 1589 H 150.352 -3.21438 0.382049 0
M  V30 1590 H 149.259 -2.65873 2.63177 0
M  V30 1591 H 150.592 -3.5119 3.44858 0
M  V30 1592 N 152.244 -1.26651 -0.937939 0
M  V30 1593 C 153.176 -1.04283 -2.04102 0
M  V30 1594 C 154.189 -0.00221014 -1.628 0
M  V30 1595 O 155.378 -0.242645 -1.76843 0
M  V30 1596 C 152.478 -0.557846 -3.34277 0
M  V30 1597 C 151.651 -1.66843 -4.04329 0
M  V30 1598 C 150.71 -1.18095 -5.12777 0
M  V30 1599 O 149.736 -1.87865 -5.37304 0
M  V30 1600 N 150.938 -0.0311006 -5.80492 0
M  V30 1601 H 153.703 -1.9927 -2.23856 0
M  V30 1602 H 151.264 -1.1808 -1.10764 0
M  V30 1603 H 153.256 -0.215836 -4.04124 0
M  V30 1604 H 151.826 0.298523 -3.11171 0
M  V30 1605 H 151.046 -2.18123 -3.28353 0
M  V30 1606 H 152.334 -2.41408 -4.47883 0
M  V30 1607 H 151.732 0.551486 -5.63005 0
M  V30 1608 H 150.289 0.251809 -6.51313 0
M  V30 1609 N 153.722 1.14298 -1.08507 0
M  V30 1610 C 154.685 2.17607 -0.719711 0
M  V30 1611 C 155.685 1.58907 0.245997 0
M  V30 1612 O 156.875 1.74181 0.0254081 0
M  V30 1613 C 154.007 3.40842 -0.0627695 0
M  V30 1614 H 155.2 2.51443 -1.63452 0
M  V30 1615 H 152.753 1.28963 -0.88307 0
M  V30 1616 H 153.488 3.12587 0.863716 0
M  V30 1617 H 153.273 3.84713 -0.757504 0
M  V30 1618 H 154.763 4.17221 0.177786 0
M  V30 1619 N 155.201 0.870884 1.31352 0
M  V30 1620 C 156.429 0.49677 2.00848 0
M  V30 1621 C 156.844 -0.910998 1.65367 0
M  V30 1622 O 156.201 -1.59696 0.883374 0
M  V30 1623 C 156.252 0.645308 3.55694 0
M  V30 1624 O 155.973 1.99764 3.89905 0
M  V30 1625 C 157.474 0.272326 4.42463 0
M  V30 1626 H 154.694 0.193462 0.642506 0
M  V30 1627 H 157.238 1.1723 1.67563 0
M  V30 1628 H 155.393 0.0173176 3.87396 0
M  V30 1629 H 155.807 2.00607 4.84621 0
M  V30 1630 H 157.281 0.427208 5.50344 0
M  V30 1631 H 157.758 -0.788587 4.32062 0
M  V30 1632 H 158.364 0.876054 4.1618 0
M  V30 1633 N 156.679 -1.44442 0.630414 0
M  V30 1634 C 157.928 -2.01267 0.132073 0
M  V30 1635 C 158.241 -1.50172 -1.25331 0
M  V30 1636 O 159.447 -1.9912 -1.84562 0
M  V30 1637 C 157.903 -3.59422 0.185362 0
M  V30 1638 C 157.511 -4.19514 1.57201 0
M  V30 1639 C 159.255 -4.23724 -0.256553 0
M  V30 1640 C 157.162 -5.69891 1.58045 0
M  V30 1641 H 156.092 -0.752619 0.0456092 0
M  V30 1642 H 158.743 -1.65666 0.789106 0
M  V30 1643 H 157.125 -3.92318 -0.538759 0
M  V30 1644 H 158.299 -3.98156 2.31966 0
M  V30 1645 H 156.614 -3.67496 1.95795 0
M  V30 1646 H 159.211 -5.34019 -0.269767 0
M  V30 1647 H 159.554 -3.96013 -1.28372 0
M  V30 1648 H 160.087 -3.95629 0.41505 0
M  V30 1649 H 156.826 -6.02336 2.58597 0
M  V30 1650 H 156.346 -5.93373 0.875725 0
M  V30 1651 H 158.025 -6.33515 1.31408 0
M  V30 1652 N 158.157 -0.370918 -1.53173 0
M  V30 1653 C 159.404 0.217102 -2.01333 0
M  V30 1654 C 159.732 1.48338 -1.25802 0
M  V30 1655 O 158.987 1.92698 -0.34146 0
M  V30 1656 C 159.286 0.549696 -3.53147 0
M  V30 1657 C 158.952 -0.622872 -4.46577 0
M  V30 1658 C 157.614 -0.944595 -4.71838 0
M  V30 1659 C 159.966 -1.40819 -5.01816 0
M  V30 1660 C 157.294 -2.05351 -5.49589 0
M  V30 1661 C 159.646 -2.50757 -5.80778 0
M  V30 1662 C 158.31 -2.83458 -6.04324 0
M  V30 1663 H 157.58 0.0794431 -0.736729 0
M  V30 1664 H 160.227 -0.504481 -1.84736 0
M  V30 1665 H 158.532 1.35237 -3.6772 0
M  V30 1666 H 160.229 1.017 -3.87889 0
M  V30 1667 H 156.819 -0.36209 -4.27068 0
M  V30 1668 H 161.003 -1.17289 -4.82242 0
M  V30 1669 H 156.259 -2.3108 -5.6605 0
M  V30 1670 H 160.433 -3.12022 -6.22588 0
M  V30 1671 H 158.06 -3.69508 -6.64355 0
M  V30 1672 N 159.635 1.57281 -0.100228 0
M  V30 1673 C 160.598 2.13158 0.842398 0
M  V30 1674 C 161.598 1.06202 1.20738 0
M  V30 1675 O 162.788 1.32066 1.13597 0
M  V30 1676 C 159.92 2.65639 2.13655 0
M  V30 1677 H 161.113 2.97766 0.357114 0
M  V30 1678 H 158.666 1.5559 0.148823 0
M  V30 1679 H 159.401 1.84566 2.66657 0
M  V30 1680 H 159.186 3.43844 1.88451 0
M  V30 1681 H 160.676 3.08846 2.81077 0
M  V30 1682 N 161.113 -0.173488 1.56642 0
M  V30 1683 C 162.524 -0.736155 1.71574 0
M  V30 1684 C 162.875 -1.82888 0.710389 0
M  V30 1685 O 162 -2.16017 -0.1287 0
M  V30 1686 C 162.595 -1.34211 3.11083 0
M  V30 1687 C 161.154 -1.85162 3.27707 0
M  V30 1688 C 160.301 -0.729765 2.67525 0
M  V30 1689 H 163.252 0.0518786 1.58615 0
M  V30 1690 H 163.273 -2.21178 3.09613 0
M  V30 1691 H 162.785 -0.546579 3.84232 0
M  V30 1692 H 160.886 -2.67366 2.59512 0
M  V30 1693 H 160.999 -1.99855 4.35425 0
M  V30 1694 H 159.363 -1.14965 2.27278 0
M  V30 1695 H 160.146 0.0538806 3.43258 0
M  V30 1696 N 162.591 -1.51276 -0.441967 0
M  V30 1697 C 163.816 -1.67799 -1.21895 0
M  V30 1698 C 164.241 -0.372864 -1.84367 0
M  V30 1699 O 163.599 0.666501 -1.68604 0
M  V30 1700 C 163.647 -2.79199 -2.28211 0
M  V30 1701 O 162.751 -2.42479 -3.33583 0
M  V30 1702 H 162.092 -0.559649 -0.357336 0
M  V30 1703 H 164.622 -1.97815 -0.522522 0
M  V30 1704 H 164.632 -3.03146 -2.73069 0
M  V30 1705 H 163.307 -3.73906 -1.82118 0
M  V30 1706 H 161.884 -2.29087 -2.94234 0
M  V30 1707 N 164.069 0.697108 -1.41344 0
M  V30 1708 C 165.316 1.45714 -1.40619 0
M  V30 1709 C 165.644 1.94494 -0.0147907 0
M  V30 1710 O 164.899 1.69794 0.973066 0
M  V30 1711 C 165.198 2.68553 -2.35826 0
M  V30 1712 C 164.864 2.38438 -3.82698 0
M  V30 1713 C 163.526 2.29936 -4.22709 0
M  V30 1714 C 165.878 2.13567 -4.75435 0
M  V30 1715 C 163.206 1.94656 -5.53467 0
M  V30 1716 C 165.558 1.79797 -6.06511 0
M  V30 1717 C 164.222 1.69789 -6.45545 0
M  V30 1718 H 163.492 0.533206 -0.51456 0
M  V30 1719 H 166.139 0.796901 -1.74131 0
M  V30 1720 H 164.444 3.39503 -1.95563 0
M  V30 1721 H 166.141 3.2669 -2.32539 0
M  V30 1722 H 162.731 2.4595 -3.51008 0
M  V30 1723 H 166.915 2.19082 -4.45328 0
M  V30 1724 H 162.171 1.8546 -5.82593 0
M  V30 1725 H 166.345 1.59572 -6.77872 0
M  V30 1726 H 163.972 1.4222 -7.46778 0
M  V30 1727 N 165.547 1.27147 0.931209 0
M  V30 1728 C 166.497 1.06227 2.01742 0
M  V30 1729 C 167.481 -0.00859065 1.60898 0
M  V30 1730 O 168.673 0.209537 1.75755 0
M  V30 1731 C 165.802 0.707787 3.35924 0
M  V30 1732 C 164.888 1.81661 3.83223 0
M  V30 1733 N 165.279 3.05564 4.03069 0
M  V30 1734 C 163.577 1.70249 4.12227 0
M  V30 1735 C 164.278 3.77697 4.42403 0
M  V30 1736 N 163.254 3.0544 4.49675 0
M  V30 1737 H 167.056 2.00261 2.15111 0
M  V30 1738 H 164.57 1.1781 1.11779 0
M  V30 1739 H 166.567 0.539043 4.134 0
M  V30 1740 H 165.227 -0.224964 3.2392 0
M  V30 1741 H 166.238 3.41363 3.89476 0
M  V30 1742 H 162.915 0.840329 4.08956 0
M  V30 1743 H 164.305 4.84168 4.65866 0
M  V30 1744 N 167.025 -1.13721 1.09112 0
M  V30 1745 C 167.988 -2.17222 0.731241 0
M  V30 1746 C 168.988 -1.59035 -0.237566 0
M  V30 1747 O 170.178 -1.74192 -0.0161704 0
M  V30 1748 C 167.31 -3.40804 0.0808443 0
M  V30 1749 H 168.503 -2.50573 1.64783 0
M  V30 1750 H 166.056 -1.28493 0.889897 0
M  V30 1751 H 166.791 -3.1304 -0.847127 0
M  V30 1752 H 166.576 -3.84306 0.777896 0
M  V30 1753 H 168.066 -4.1731 -0.155657 0
M  V30 1754 N 168.503 -0.877838 -1.30888 0
M  V30 1755 C 169.436 -0.283995 -2.26426 0
M  V30 1756 C 170.414 0.591361 -1.51465 0
M  V30 1757 O 171.598 0.54304 -1.80509 0
M  V30 1758 C 168.725 0.597129 -3.33395 0
M  V30 1759 C 167.771 -0.207937 -4.25993 0
M  V30 1760 S 168.604 -1.59158 -5.11301 0
M  V30 1761 C 169.76 -0.716791 -6.21782 0
M  V30 1762 H 169.993 -1.09383 -2.76446 0
M  V30 1763 H 167.526 -0.676828 -1.38775 0
M  V30 1764 H 169.484 1.09978 -3.95493 0
M  V30 1765 H 168.145 1.38099 -2.82113 0
M  V30 1766 H 167.338 0.464163 -5.01858 0
M  V30 1767 H 166.94 -0.642963 -3.68432 0
M  V30 1768 H 169.232 0.0692833 -6.77465 0
M  V30 1769 H 170.175 -1.44682 -6.93161 0
M  V30 1770 H 170.583 -0.280855 -5.63801 0
M  V30 1771 N 169.982 1.44106 -0.638065 0
M  V30 1772 C 170.93 2.3248 0.0748149 0
M  V30 1773 C 171.924 1.47746 0.828702 0
M  V30 1774 O 173.13 1.64049 0.740816 0
M  V30 1775 H 169.505 0.750771 0.0429686 0
M  V30 1776 H 171.476 2.90348 -0.688504 0
M  V30 1777 C 170.225 3.31843 1.03805 0
M  V30 1778 H 169.548 3.97059 0.467375 0
M  V30 1779 H 170.988 3.96345 1.50622 0
M  V30 1780 C 169.447 2.61291 2.1267 0
M  V30 1781 O 169.977 2.41702 3.20847 0
M  V30 1782 N 168.183 2.20915 1.88798 0
M  V30 1783 H 167.73 2.37047 1.00829 0
M  V30 1784 H 167.688 1.74038 2.61836 0
M  V30 1785 N 171.46 0.379036 1.52974 0
M  V30 1786 C 172.708 -0.206014 2.01047 0
M  V30 1787 C 173.029 -1.48175 1.26765 0
M  V30 1788 O 172.299 -1.92085 0.384743 0
M  V30 1789 H 170.879 -0.0791184 0.742798 0
M  V30 1790 H 173.541 0.508366 1.88153 0
M  V30 1791 H 172.637 -0.423501 3.09213 0
M  V30 1792 N 172.938 -1.57226 0.108567 0
M  V30 1793 C 173.868 -2.17778 -0.84232 0
M  V30 1794 C 174.849 -1.11487 -1.2847 0
M  V30 1795 O 176.034 -1.39681 -1.34918 0
M  V30 1796 C 173.164 -2.76888 -2.09644 0
M  V30 1797 C 172.118 -3.88669 -1.79221 0
M  V30 1798 C 171.444 -4.34541 -3.11574 0
M  V30 1799 C 172.744 -5.11251 -1.06864 0
M  V30 1800 H 174.438 -2.97489 -0.337774 0
M  V30 1801 H 171.984 -1.43097 -0.161025 0
M  V30 1802 H 173.937 -3.17904 -2.76614 0
M  V30 1803 H 172.661 -1.94451 -2.62405 0
M  V30 1804 H 171.32 -3.48213 -1.14644 0
M  V30 1805 H 170.968 -3.48977 -3.62249 0
M  V30 1806 H 170.668 -5.09914 -2.91996 0
M  V30 1807 H 172.192 -4.782 -3.7968 0
M  V30 1808 H 173.606 -5.49352 -1.63968 0
M  V30 1809 H 172.003 -5.9214 -0.974178 0
M  V30 1810 H 173.073 -4.8487 -0.0536168 0
M  V30 1811 N 174.416 0.165178 -1.56732 0
M  V30 1812 C 175.662 0.882112 -1.82611 0
M  V30 1813 C 175.995 1.81628 -0.687378 0
M  V30 1814 O 175.27 1.92009 0.310267 0
M  V30 1815 C 175.553 1.67245 -3.18906 0
M  V30 1816 C 175.406 0.760987 -4.43316 0
M  V30 1817 C 176.725 2.63884 -3.52212 0
M  V30 1818 H 173.844 0.319242 -0.664269 0
M  V30 1819 H 176.486 0.148052 -1.89422 0
M  V30 1820 H 174.636 2.29824 -3.1323 0
M  V30 1821 H 176.308 0.147596 -4.61064 0
M  V30 1822 H 174.551 0.0694102 -4.33744 0
M  V30 1823 H 175.222 1.34962 -5.35247 0
M  V30 1824 H 177.698 2.11429 -3.58381 0
M  V30 1825 H 176.574 3.16245 -4.48643 0
M  V30 1826 H 176.835 3.44377 -2.77231 0
M  V30 1827 N 175.894 1.51508 0.433938 0
M  V30 1828 C 176.824 1.76016 1.53429 0
M  V30 1829 C 177.805 0.610112 1.58782 0
M  V30 1830 O 178.99 0.853177 1.74455 0
M  V30 1831 C 176.12 1.88831 2.9148 0
M  V30 1832 C 175.074 3.04288 3.00987 0
M  V30 1833 C 174.4 3.0229 4.4105 0
M  V30 1834 C 175.7 4.44193 2.74754 0
M  V30 1835 H 177.394 2.68152 1.33171 0
M  V30 1836 H 174.94 1.29035 0.639214 0
M  V30 1837 H 176.893 2.04559 3.6842 0
M  V30 1838 H 175.617 0.933455 3.12976 0
M  V30 1839 H 174.276 2.8827 2.26486 0
M  V30 1840 H 173.924 2.04576 4.59519 0
M  V30 1841 H 173.624 3.79822 4.4834 0
M  V30 1842 H 175.148 3.20116 5.1996 0
M  V30 1843 H 176.562 4.60544 3.41426 0
M  V30 1844 H 174.959 5.23457 2.9345 0
M  V30 1845 H 176.029 4.53996 1.70339 0
M  V30 1846 N 177.372 -0.689602 1.41712 0
M  V30 1847 C 178.335 -1.78521 1.43746 0
M  V30 1848 C 179.335 -1.57436 0.327191 0
M  V30 1849 O 180.525 -1.64 0.587348 0
M  V30 1850 C 177.657 -3.16971 1.25467 0
M  V30 1851 H 178.85 -1.78108 2.41283 0
M  V30 1852 H 176.403 -0.89781 1.27942 0
M  V30 1853 H 177.138 -3.23019 0.287948 0
M  V30 1854 H 176.923 -3.33678 2.05917 0
M  V30 1855 H 178.413 -3.96935 1.2974 0
M  V30 1856 N 178.85 -1.27639 -0.924453 0
M  V30 1857 C 179.813 -1.10681 -2.00705 0
M  V30 1858 C 180.813 -0.0497823 -1.60723 0
M  V30 1859 O 182.003 -0.294654 -1.7169 0
M  V30 1860 C 179.135 -0.687164 -3.33902 0
M  V30 1861 H 180.328 -2.06817 -2.17179 0
M  V30 1862 H 177.881 -1.10473 -1.10569 0
M  V30 1863 H 178.616 0.275439 -3.23128 0
M  V30 1864 H 178.401 -1.45061 -3.6428 0
M  V30 1865 H 179.891 -0.590853 -4.13399 0
M  V30 1866 N 180.328 1.1314 -1.09713 0
M  V30 1867 C 181.605 1.80762 -0.747302 0
M  V30 1868 C 181.985 1.96663 0.767265 0
M  V30 1869 O 181.333 1.53706 1.69076 0
M  V30 1870 C 181.543 3.15606 -1.48975 0
M  V30 1871 C 182.891 3.90914 -1.65746 0
M  V30 1872 O 183.915 3.25239 -1.45251 0
M  V30 1873 O 182.774 5.08718 -1.9967 0
M  V30 1874 H 179.868 0.782103 -0.268782 0
M  V30 1875 H 182.414 1.20041 -1.19951 0
M  V30 1876 H 181.186 2.99278 -2.52088 0
M  V30 1877 H 180.809 3.84029 -1.02991 0
M  V30 1878 N 181.806 0.884767 1.30421 0
M  V30 1879 C 183.036 0.517293 2.00019 0
M  V30 1880 C 183.444 -0.898632 1.66497 0
M  V30 1881 O 182.787 -1.60245 0.898181 0
M  V30 1882 C 182.849 0.612025 3.54252 0
M  V30 1883 C 182.513 1.99222 4.1129 0
M  V30 1884 C 183.51 2.9616 4.273 0
M  V30 1885 C 181.195 2.29755 4.46674 0
M  V30 1886 C 183.189 4.21764 4.77906 0
M  V30 1887 C 180.876 3.55606 4.96979 0
M  V30 1888 C 181.874 4.51425 5.12547 0
M  V30 1889 O 181.562 5.75043 5.61766 0
M  V30 1890 H 181.294 0.198529 0.64619 0
M  V30 1891 H 183.848 1.1919 1.67281 0
M  V30 1892 H 182.078 -0.119561 3.86515 0
M  V30 1893 H 183.767 0.255859 4.05093 0
M  V30 1894 H 184.533 2.73882 4.00267 0
M  V30 1895 H 180.412 1.55942 4.33824 0
M  V30 1896 H 183.956 4.96561 4.89972 0
M  V30 1897 H 179.853 3.7772 5.23448 0
M  V30 1898 H 180.621 5.77422 5.80109 0
M  V30 1899 N 183.284 -1.43765 0.645699 0
M  V30 1900 C 184.695 -1.85193 0.236719 0
M  V30 1901 C 185.046 -1.54045 -1.21509 0
M  V30 1902 O 184.171 -0.985694 -1.92647 0
M  V30 1903 C 184.766 -3.36151 0.422845 0
M  V30 1904 C 183.325 -3.76338 0.0682492 0
M  V30 1905 C 182.472 -2.67538 0.729306 0
M  V30 1906 H 185.423 -1.34025 0.849883 0
M  V30 1907 H 185.444 -3.79032 -0.333904 0
M  V30 1908 H 184.956 -3.5879 1.47958 0
M  V30 1909 H 183.057 -3.59312 -0.986179 0
M  V30 1910 H 183.17 -4.76603 0.488469 0
M  V30 1911 H 181.534 -2.54176 0.163235 0
M  V30 1912 H 182.317 -2.93006 1.78892 0
M  V30 1913 N 184.763 -0.387143 -1.52771 0
M  V30 1914 C 185.673 0.456442 -2.30117 0
M  V30 1915 C 186.689 1.07342 -1.36944 0
M  V30 1916 O 187.865 1.07971 -1.70013 0
M  V30 1917 C 184.93 1.56957 -3.09136 0
M  V30 1918 C 183.991 0.977916 -4.18014 0
M  V30 1919 C 183.224 2.038 -4.93256 0
M  V30 1920 O 183.447 3.25271 -4.68567 0
M  V30 1921 O 182.381 1.6565 -5.78657 0
M  V30 1922 H 186.207 -0.17359 -3.03203 0
M  V30 1923 H 183.792 -0.150919 -1.48636 0
M  V30 1924 H 185.674 2.21628 -3.58412 0
M  V30 1925 H 184.349 2.18461 -2.38865 0
M  V30 1926 H 183.256 0.294525 -3.72939 0
M  V30 1927 H 184.589 0.407128 -4.90513 0
M  V30 1928 N 186.241 1.57166 -0.116904 0
M  V30 1929 C 187.657 1.5779 0.239693 0
M  V30 1930 C 187.857 1.1295 1.66867 0
M  V30 1931 O 186.913 0.81592 2.38954 0
M  V30 1932 C 188.226 3.00699 0.00828202 0
M  V30 1933 C 189.774 3.12912 0.0743438 0
M  V30 1934 C 190.249 4.57817 -0.129348 0
M  V30 1935 N 191.74 4.63139 -0.075247 0
M  V30 1936 C 192.475 5.73023 -0.207788 0
M  V30 1937 N 191.971 6.91665 -0.396382 0
M  V30 1938 N 193.764 5.61906 -0.14751 0
M  V30 1939 H 185.915 1.84615 -1.05029 0
M  V30 1940 H 188.178 0.85311 -0.41341 0
M  V30 1941 H 187.884 3.37784 -0.979531 0
M  V30 1942 H 187.758 3.69848 0.741077 0
M  V30 1943 H 190.145 2.75686 1.05268 0
M  V30 1944 H 190.226 2.4631 -0.690297 0
M  V30 1945 H 189.87 4.95742 -1.10465 0
M  V30 1946 H 189.8 5.22507 0.655253 0
M  V30 1947 H 192.291 3.7784 0.0670898 0
M  V30 1948 H 192.604 7.71255 -0.488437 0
M  V30 1949 H 190.949 6.93654 -0.432329 0
M  V30 1950 H 194.14 4.681 -0.00115036 0
M  V30 1951 H 194.313 6.47501 -0.254247 0
M  V30 1952 N 187.719 -0.156864 1.56817 0
M  V30 1953 C 188.965 -0.872416 1.83076 0
M  V30 1954 C 189.298 -1.81261 0.697001 0
M  V30 1955 O 188.573 -1.92171 -0.30008 0
M  V30 1956 C 188.856 -1.65551 3.19789 0
M  V30 1957 C 188.709 -0.737467 4.43713 0
M  V30 1958 C 190.028 -2.62012 3.53606 0
M  V30 1959 H 187.147 -0.315715 0.665953 0
M  V30 1960 H 189.789 -0.138004 1.89498 0
M  V30 1961 H 187.939 -2.28159 3.14445 0
M  V30 1962 H 189.611 -0.123143 4.61136 0
M  V30 1963 H 187.854 -0.0464067 4.33775 0
M  V30 1964 H 188.525 -1.32122 5.35955 0
M  V30 1965 H 191.001 -2.09525 3.59497 0
M  V30 1966 H 189.877 -3.13861 4.50314 0
M  V30 1967 H 190.138 -3.42902 2.79053 0
M  V30 1968 N 189.197 -1.51736 -0.425897 0
M  V30 1969 C 190.613 -1.40166 -0.76326 0
M  V30 1970 C 190.813 -0.492962 -1.95377 0
M  V30 1971 O 189.869 0.0475815 -2.52455 0
M  V30 1972 C 191.182 -2.82403 -1.03291 0
M  V30 1973 C 192.73 -2.91632 -1.13665 0
M  V30 1974 C 193.205 -4.34801 -1.43916 0
M  V30 1975 N 194.696 -4.3796 -1.50816 0
M  V30 1976 C 195.431 -5.4578 -1.75817 0
M  V30 1977 N 194.927 -6.63744 -1.98534 0
M  V30 1978 N 196.72 -5.33274 -1.77694 0
M  V30 1979 H 188.871 -2.09361 0.358 0
M  V30 1980 H 191.134 -0.942941 0.0978094 0
M  V30 1981 H 190.84 -3.50943 -0.230696 0
M  V30 1982 H 190.714 -3.22428 -1.95754 0
M  V30 1983 H 193.101 -2.23284 -1.92947 0
M  V30 1984 H 193.182 -2.55088 -0.190756 0
M  V30 1985 H 192.826 -5.03703 -0.65157 0
M  V30 1986 H 192.756 -4.68868 -2.39729 0
M  V30 1987 H 195.247 -3.52919 -1.35118 0
M  V30 1988 H 195.56 -7.41704 -2.17013 0
M  V30 1989 H 193.905 -6.66839 -1.95832 0
M  V30 1990 H 197.096 -4.40098 -1.59473 0
M  V30 1991 H 197.269 -6.1738 -1.9684 0
M  V30 1992 N 190.675 0.682077 -1.42076 0
M  V30 1993 C 191.9 1.47558 -1.45744 0
M  V30 1994 C 192.325 1.87977 -0.0680981 0
M  V30 1995 O 191.683 1.55522 0.9318 0
M  V30 1996 C 191.731 2.70575 -2.38373 0
M  V30 1997 O 190.835 3.68573 -1.85007 0
M  V30 1998 H 190.176 0.443585 -0.494093 0
M  V30 1999 H 192.706 0.837238 -1.86686 0
M  V30 2000 H 192.716 3.18729 -2.54707 0
M  V30 2001 H 191.391 2.40495 -3.39315 0
M  V30 2002 H 189.968 3.2757 -1.78192 0
M  V30 2003 N 192.153 1.28127 0.917671 0
M  V30 2004 C 193.083 1.14248 2.03641 0
M  V30 2005 C 194.064 0.0412748 1.7005 0
M  V30 2006 O 195.249 0.217566 1.92977 0
M  V30 2007 C 192.379 0.799431 3.37974 0
M  V30 2008 C 191.333 1.85497 3.85713 0
M  V30 2009 C 190.659 1.36565 5.16966 0
M  V30 2010 C 191.959 3.26085 4.08002 0
M  V30 2011 H 193.653 2.07835 2.15511 0
M  V30 2012 H 191.199 1.00064 1.03553 0
M  V30 2013 H 193.152 0.689114 4.15727 0
M  V30 2014 H 191.876 -0.172145 3.26146 0
M  V30 2015 H 190.535 1.95437 3.10161 0
M  V30 2016 H 190.183 0.383253 5.01538 0
M  V30 2017 H 189.883 2.07143 5.49878 0
M  V30 2018 H 191.407 1.26848 5.97279 0
M  V30 2019 H 192.821 3.19089 4.76293 0
M  V30 2020 H 191.218 3.94462 4.52238 0
M  V30 2021 H 192.288 3.70394 3.12948 0
M  V30 2022 N 193.631 -1.12557 1.10312 0
M  V30 2023 C 194.88 -1.83395 0.839588 0
M  V30 2024 C 195.193 -1.84939 -0.636929 0
M  V30 2025 O 196.399 -2.51761 -1.01631 0
M  V30 2026 C 194.855 -3.29303 1.45215 0
M  V30 2027 C 194.463 -3.36122 2.96186 0
M  V30 2028 C 196.207 -4.05121 1.26796 0
M  V30 2029 C 194.114 -4.76357 3.50483 0
M  V30 2030 H 193.044 -0.687133 0.310425 0
M  V30 2031 H 195.695 -1.26746 1.32694 0
M  V30 2032 H 194.077 -3.85812 0.892469 0
M  V30 2033 H 195.251 -2.89559 3.58458 0
M  V30 2034 H 193.566 -2.73776 3.13745 0
M  V30 2035 H 196.163 -5.08668 1.64806 0
M  V30 2036 H 196.506 -4.15773 0.209409 0
M  V30 2037 H 197.039 -3.54967 1.79563 0
M  V30 2038 H 193.778 -4.70899 4.55998 0
M  V30 2039 H 193.298 -5.23377 2.92978 0
M  V30 2040 H 194.977 -5.45294 3.48228 0
M  V30 2041 N 195.109 -0.891671 -1.2995 0
M  V30 2042 C 196.355 -0.514261 -1.96171 0
M  V30 2043 C 196.688 0.935506 -1.70182 0
M  V30 2044 O 195.963 1.66204 -1.01028 0
M  V30 2045 C 196.246 -0.797719 -3.51153 0
M  V30 2046 C 196.099 -2.2986 -3.86632 0
M  V30 2047 C 197.418 -0.278749 -4.39216 0
M  V30 2048 H 194.537 -0.188314 -0.712535 0
M  V30 2049 H 197.179 -1.11689 -1.53706 0
M  V30 2050 H 195.329 -0.284826 -3.87455 0
M  V30 2051 H 197.001 -2.88042 -3.60319 0
M  V30 2052 H 195.244 -2.76257 -3.34462 0
M  V30 2053 H 195.915 -2.44753 -4.94773 0
M  V30 2054 H 198.391 -0.717825 -4.09862 0
M  V30 2055 H 197.267 -0.506353 -5.46559 0
M  V30 2056 H 197.528 0.820266 -4.34424 0
M  V30 2057 N 196.587 1.43421 -0.653314 0
M  V30 2058 C 197.833 2.02111 -0.166992 0
M  V30 2059 C 198.166 1.51423 1.21592 0
M  V30 2060 O 197.441 0.707389 1.8118 0
M  V30 2061 C 197.724 3.5966 -0.177948 0
M  V30 2062 C 197.577 4.20579 -1.59478 0
M  V30 2063 C 198.896 4.37413 0.4856 0
M  V30 2064 H 196.015 0.734374 -0.0621557 0
M  V30 2065 H 198.657 1.70717 -0.834016 0
M  V30 2066 H 196.807 3.86537 0.390032 0
M  V30 2067 H 198.479 4.04732 -2.21336 0
M  V30 2068 H 196.722 3.77226 -2.14204 0
M  V30 2069 H 197.393 5.29665 -1.5543 0
M  V30 2070 H 199.869 4.161 0.00234528 0
M  V30 2071 H 198.745 5.47075 0.447207 0
M  V30 2072 H 199.006 4.13672 1.55974 0
M  V30 2073 N 198.065 0.39524 1.52563 0
M  V30 2074 C 199.013 -0.451859 2.28169 0
M  V30 2075 C 200.007 -1.05792 1.32304 0
M  V30 2076 O 201.213 -0.997718 1.49818 0
M  V30 2077 H 197.588 -0.164481 0.733792 0
M  V30 2078 H 199.559 0.207199 2.9768 0
M  V30 2079 C 198.308 -1.56385 3.10546 0
M  V30 2080 H 197.631 -1.10682 3.84174 0
M  V30 2081 H 199.071 -2.13067 3.66577 0
M  V30 2082 C 197.53 -2.52328 2.23231 0
M  V30 2083 O 198.06 -3.5588 1.86312 0
M  V30 2084 N 196.266 -2.22209 1.87274 0
M  V30 2085 H 195.813 -1.38033 2.17496 0
M  V30 2086 H 195.771 -2.86652 1.29143 0
M  V30 2087 N 199.544 -1.57102 0.125237 0
M  V30 2088 C 200.792 -1.95021 -0.530198 0
M  V30 2089 C 201.113 -1.00982 -1.66816 0
M  V30 2090 O 200.383 -0.0672693 -1.95784 0
M  V30 2091 H 198.963 -0.720046 -0.198853 0
M  V30 2092 H 201.625 -1.93916 0.19564 0
M  V30 2093 H 200.721 -2.98211 -0.920681 0
M  V30 2094 N 201.022 0.148545 -1.56898 0
M  V30 2095 C 202.247 0.880385 -1.87787 0
M  V30 2096 C 202.672 1.74018 -0.714093 0
M  V30 2097 O 202.03 1.78153 0.336343 0
M  V30 2098 C 202.078 1.71422 -3.17249 0
M  V30 2099 O 201.182 2.8183 -3.01074 0
M  V30 2100 H 200.523 0.245301 -0.617028 0
M  V30 2101 H 203.053 0.139826 -2.04122 0
M  V30 2102 H 203.063 2.10954 -3.49231 0
M  V30 2103 H 201.738 1.08284 -4.01556 0
M  V30 2104 H 200.315 2.45715 -2.80497 0
M  V30 2105 N 202.5 1.5196 0.417844 0
M  V30 2106 C 203.463 1.74065 1.49111 0
M  V30 2107 C 204.463 0.610537 1.48758 0
M  V30 2108 O 205.653 0.87832 1.50437 0
M  V30 2109 C 202.785 1.81502 2.88565 0
M  V30 2110 H 203.978 2.69869 1.30807 0
M  V30 2111 H 201.531 1.42244 0.647785 0
M  V30 2112 H 202.266 0.875813 3.1225 0
M  V30 2113 H 202.051 2.63651 2.90225 0
M  V30 2114 H 203.541 2.00376 3.66387 0
M  V30 2115 N 203.978 -0.674533 1.42435 0
M  V30 2116 C 205.394 -0.98769 1.25367 0
M  V30 2117 C 205.594 -2.00879 0.158044 0
M  V30 2118 O 204.65 -2.48075 -0.470633 0
M  V30 2119 C 205.963 -1.49224 2.6106 0
M  V30 2120 C 207.511 -1.61 2.68417 0
M  V30 2121 C 207.986 -2.14852 4.04478 0
M  V30 2122 N 209.477 -2.22185 4.06434 0
M  V30 2123 C 210.212 -2.64928 5.08528 0
M  V30 2124 N 209.708 -3.07121 6.21006 0
M  V30 2125 N 211.501 -2.64679 4.95885 0
M  V30 2126 H 203.652 0.00152503 2.124 0
M  V30 2127 H 205.915 -0.0618434 0.945981 0
M  V30 2128 H 205.621 -0.816453 3.42092 0
M  V30 2129 H 205.495 -2.47094 2.84999 0
M  V30 2130 H 207.882 -2.27686 1.87732 0
M  V30 2131 H 207.963 -0.616195 2.48267 0
M  V30 2132 H 207.607 -1.48775 4.85622 0
M  V30 2133 H 207.537 -3.15024 4.2198 0
M  V30 2134 H 210.028 -1.92435 3.25234 0
M  V30 2135 H 210.341 -3.38423 6.94759 0
M  V30 2136 H 208.686 -3.04978 6.24511 0
M  V30 2137 H 211.877 -2.31078 4.07088 0
M  V30 2138 H 212.05 -2.9767 5.75584 0
M  V30 2139 N 205.456 -1.28612 -0.910864 0
M  V30 2140 C 206.867 -1.14406 -1.47541 0
M  V30 2141 C 207.218 0.264901 -1.94403 0
M  V30 2142 O 206.343 1.15942 -1.82719 0
M  V30 2143 C 206.938 -2.07073 -2.68153 0
M  V30 2144 C 205.497 -1.96923 -3.20778 0
M  V30 2145 C 204.644 -1.98646 -1.93481 0
M  V30 2146 H 207.595 -1.41259 -0.723291 0
M  V30 2147 H 207.616 -1.63642 -3.43514 0
M  V30 2148 H 207.128 -3.09611 -2.34015 0
M  V30 2149 H 205.229 -0.97433 -3.59635 0
M  V30 2150 H 205.342 -2.84026 -3.85832 0
M  V30 2151 H 203.706 -1.43093 -2.10705 0
M  V30 2152 H 204.489 -3.02868 -1.61634 0
M  V30 2153 N 206.934 1.1197 -1.10907 0
M  V30 2154 C 207.864 2.19928 -0.784473 0
M  V30 2155 C 208.845 1.6833 0.244726 0
M  V30 2156 O 210.03 1.93892 0.109418 0
M  V30 2157 C 207.16 3.46597 -0.220827 0
M  V30 2158 C 206.114 4.11376 -1.18127 0
M  V30 2159 C 205.44 5.32554 -0.478594 0
M  V30 2160 C 206.74 4.56945 -2.52979 0
M  V30 2161 H 208.434 2.47337 -1.68715 0
M  V30 2162 H 205.98 1.18879 -0.812642 0
M  V30 2163 H 207.933 4.21396 0.0184278 0
M  V30 2164 H 206.657 3.1863 0.717113 0
M  V30 2165 H 205.316 3.38564 -1.40606 0
M  V30 2166 H 204.964 5.00856 0.463976 0
M  V30 2167 H 204.664 5.76844 -1.11912 0
M  V30 2168 H 206.188 6.10096 -0.248 0
M  V30 2169 H 207.602 5.23093 -2.3462 0
M  V30 2170 H 205.999 5.1203 -3.12962 0
M  V30 2171 H 207.069 3.70676 -3.12614 0
M  V30 2172 N 208.412 0.89855 1.29475 0
M  V30 2173 C 209.658 0.534065 1.96263 0
M  V30 2174 C 210.013 -0.909415 1.69551 0
M  V30 2175 O 209.306 -1.63596 0.997349 0
M  V30 2176 C 209.5 0.761398 3.49195 0
M  V30 2177 C 209.329 2.22542 3.90775 0
M  V30 2178 C 208.099 2.87264 4.15701 0
M  V30 2179 C 210.297 3.20051 4.02581 0
M  V30 2180 N 208.279 4.24121 4.4384 0
M  V30 2181 C 209.65 4.42023 4.34759 0
M  V30 2182 C 211.705 3.15657 3.85052 0
M  V30 2183 C 210.408 5.60161 4.51235 0
M  V30 2184 C 212.434 4.33078 4.02737 0
M  V30 2185 C 211.796 5.5382 4.35273 0
M  V30 2186 H 207.895 0.245013 0.742625 0
M  V30 2187 H 210.479 1.15912 1.56437 0
M  V30 2188 H 208.65 0.165732 3.88046 0
M  V30 2189 H 210.382 0.362462 4.03074 0
M  V30 2190 H 207.137 2.38064 4.09417 0
M  V30 2191 H 207.561 4.94839 4.6202 0
M  V30 2192 H 212.203 2.23396 3.58962 0
M  V30 2193 H 209.921 6.52913 4.76162 0
M  V30 2194 H 213.507 4.31163 3.90628 0
M  V30 2195 H 212.387 6.43166 4.48672 0
M  V30 2196 N 209.89 -1.43072 0.660911 0
M  V30 2197 C 210.853 -2.29194 -0.0166406 0
M  V30 2198 C 211.853 -1.42609 -0.742912 0
M  V30 2199 O 213.043 -1.64155 -0.583004 0
M  V30 2200 C 210.175 -3.24831 -1.0343 0
M  V30 2201 H 211.368 -2.90596 0.741208 0
M  V30 2202 H 208.921 -1.5048 0.422532 0
M  V30 2203 H 209.656 -2.68339 -1.82111 0
M  V30 2204 H 209.441 -3.88676 -0.517082 0
M  V30 2205 H 210.931 -3.89451 -1.50723 0
M  V30 2206 N 211.368 -0.403325 -1.52352 0
M  V30 2207 C 212.779 0.0675782 -1.86578 0
M  V30 2208 C 213.13 1.44941 -1.32236 0
M  V30 2209 O 212.255 2.06112 -0.659307 0
M  V30 2210 C 212.85 0.129404 -3.38553 0
M  V30 2211 C 211.409 0.544629 -3.72439 0
M  V30 2212 C 210.556 -0.284551 -2.75836 0
M  V30 2213 H 213.507 -0.620631 -1.46061 0
M  V30 2214 H 213.528 0.94581 -3.68558 0
M  V30 2215 H 213.04 -0.87645 -3.78074 0
M  V30 2216 H 211.141 1.55734 -3.38493 0
M  V30 2217 H 211.254 0.293046 -4.78203 0
M  V30 2218 H 209.618 0.252258 -2.53448 0
M  V30 2219 H 210.401 -1.28865 -3.18196 0
M  V30 2220 N 212.846 1.57033 -0.133567 0
M  V30 2221 C 214.123 1.87256 0.56522 0
M  V30 2222 C 214.503 1.03726 1.83859 0
M  V30 2223 O 213.851 0.120247 2.28183 0
M  V30 2224 C 214.061 3.3865 0.843636 0
M  V30 2225 C 215.409 4.07574 1.19032 0
M  V30 2226 O 216.433 3.43752 0.933429 0
M  V30 2227 O 215.292 5.20259 1.67312 0
M  V30 2228 H 212.386 0.775678 0.286796 0
M  V30 2229 H 214.932 1.68855 -0.169168 0
M  V30 2230 H 213.704 3.91257 -0.0581149 0
M  V30 2231 H 213.327 3.62532 1.63268 0
M  V30 2232 N 214.325 -0.140222 1.56975 0
M  V30 2233 C 215.555 -0.865181 1.87612 0
M  V30 2234 C 215.963 -1.74942 0.72055 0
M  V30 2235 O 215.306 -1.80917 -0.318561 0
M  V30 2236 C 215.368 -1.76782 3.13031 0
M  V30 2237 C 215.032 -1.06005 4.44536 0
M  V30 2238 C 216.029 -0.410768 5.18275 0
M  V30 2239 C 213.714 -1.04754 4.91255 0
M  V30 2240 C 215.708 0.241572 6.36942 0
M  V30 2241 C 213.395 -0.391394 6.09845 0
M  V30 2242 C 214.393 0.252029 6.82535 0
M  V30 2243 O 214.081 0.897757 7.98871 0
M  V30 2244 H 213.813 -0.255188 0.625983 0
M  V30 2245 H 216.367 -0.135653 2.04952 0
M  V30 2246 H 214.597 -2.53846 2.91718 0
M  V30 2247 H 216.286 -2.36533 3.29859 0
M  V30 2248 H 217.052 -0.412195 4.83245 0
M  V30 2249 H 212.931 -1.53777 4.34596 0
M  V30 2250 H 216.475 0.744375 6.93617 0
M  V30 2251 H 212.372 -0.387656 6.44335 0
M  V30 2252 H 213.14 0.800102 8.1458 0
M  V30 2253 N 215.803 -1.52179 -0.40978 0
M  V30 2254 C 217.214 -1.58377 -0.988615 0
M  V30 2255 C 217.565 -0.423879 -1.91566 0
M  V30 2256 O 216.69 0.455844 -2.11544 0
M  V30 2257 C 217.285 -2.87044 -1.79976 0
M  V30 2258 C 215.844 -2.95722 -2.32863 0
M  V30 2259 C 214.991 -2.53309 -1.12828 0
M  V30 2260 H 217.942 -1.57558 -0.190039 0
M  V30 2261 H 217.963 -2.7236 -2.65707 0
M  V30 2262 H 217.475 -3.71444 -1.12478 0
M  V30 2263 H 215.576 -2.15814 -3.03735 0
M  V30 2264 H 215.689 -3.99951 -2.63773 0
M  V30 2265 H 214.053 -2.07142 -1.48204 0
M  V30 2266 H 214.836 -3.40082 -0.46897 0
M  V30 2267 N 217.281 0.66697 -1.42791 0
M  V30 2268 C 218.527 1.4291 -1.43891 0
M  V30 2269 C 218.86 1.94114 -0.0578972 0
M  V30 2270 O 218.135 1.71414 0.91911 0
M  V30 2271 C 218.418 2.62049 -2.46987 0
M  V30 2272 C 218.271 2.16426 -3.94309 0
M  V30 2273 C 219.59 3.64266 -2.46978 0
M  V30 2274 H 216.709 0.518306 -0.523954 0
M  V30 2275 H 219.351 0.757321 -1.74255 0
M  V30 2276 H 217.501 3.19361 -2.21225 0
M  V30 2277 H 219.173 1.64221 -4.31079 0
M  V30 2278 H 217.416 1.47925 -4.078 0
M  V30 2279 H 218.087 3.02038 -4.62036 0
M  V30 2280 H 220.563 3.16686 -2.69906 0
M  V30 2281 H 219.439 4.45196 -3.21079 0
M  V30 2282 H 219.7 4.15927 -1.49857 0
M  V30 2283 N 218.759 1.29093 0.90403 0
M  V30 2284 C 220.007 1.16583 1.65085 0
M  V30 2285 C 220.328 -0.283933 1.92922 0
M  V30 2286 O 219.598 -1.19509 1.55224 0
M  V30 2287 H 218.178 0.428467 0.611903 0
M  V30 2288 H 220.84 1.61959 1.08422 0
M  V30 2289 H 219.936 1.71266 2.6091 0
M  V30 2290 N 220.237 -1.11381 1.11499 0
M  V30 2291 C 221.2 -2.15622 0.777153 0
M  V30 2292 C 222.2 -1.59504 -0.203779 0
M  V30 2293 O 223.39 -1.74188 0.020782 0
M  V30 2294 C 220.522 -3.40556 0.153116 0
M  V30 2295 H 221.715 -2.47021 1.70061 0
M  V30 2296 H 219.268 -1.26577 0.916952 0
M  V30 2297 H 220.003 -3.14767 -0.780536 0
M  V30 2298 H 219.788 -3.8257 0.859238 0
M  V30 2299 H 221.278 -4.17546 -0.0671044 0
M  V30 2300 N 221.715 -0.905404 -1.28997 0
M  V30 2301 C 222.647 -0.344748 -2.26592 0
M  V30 2302 C 223.66 0.512135 -1.54535 0
M  V30 2303 O 224.849 0.328368 -1.75454 0
M  V30 2304 C 221.949 0.526587 -3.34784 0
M  V30 2305 C 221.122 -0.305871 -4.36329 0
M  V30 2306 C 220.181 0.499209 -5.23827 0
M  V30 2307 O 219.207 -0.0853004 -5.69136 0
M  V30 2308 N 220.409 1.80408 -5.51755 0
M  V30 2309 H 223.174 -1.18359 -2.75338 0
M  V30 2310 H 220.735 -0.770481 -1.42391 0
M  V30 2311 H 222.727 1.07171 -3.90252 0
M  V30 2312 H 221.297 1.26613 -2.85811 0
M  V30 2313 H 220.517 -1.0324 -3.80441 0
M  V30 2314 H 221.805 -0.875773 -5.01206 0
M  V30 2315 H 221.203 2.3016 -5.16762 0
M  V30 2316 H 219.76 2.29621 -6.10014 0
M  V30 2317 N 223.193 1.4272 -0.668489 0
M  V30 2318 C 224.439 2.01923 -0.188419 0
M  V30 2319 C 224.772 1.52704 1.19979 0
M  V30 2320 O 224.047 0.726566 1.8042 0
M  V30 2321 C 224.33 3.59451 -0.216085 0
M  V30 2322 C 224.183 4.18864 -1.6393 0
M  V30 2323 C 225.502 4.37903 0.439179 0
M  V30 2324 H 222.621 0.733674 -0.0699412 0
M  V30 2325 H 225.263 1.69822 -0.852076 0
M  V30 2326 H 223.413 3.86929 0.349012 0
M  V30 2327 H 225.085 4.02362 -2.25616 0
M  V30 2328 H 223.328 3.74933 -2.18193 0
M  V30 2329 H 223.999 5.27987 -1.61039 0
M  V30 2330 H 226.475 4.16079 -0.0417878 0
M  V30 2331 H 225.351 5.47519 0.389157 0
M  V30 2332 H 225.612 4.15303 1.51577 0
M  V30 2333 N 224.671 0.411399 1.52136 0
M  V30 2334 C 226.087 0.0623865 1.59478 0
M  V30 2335 C 226.287 -1.42554 1.4241 0
M  V30 2336 O 225.343 -2.19263 1.2522 0
M  V30 2337 C 226.656 0.559331 2.95452 0
M  V30 2338 C 228.204 0.517503 3.08692 0
M  V30 2339 C 228.679 0.990994 4.4715 0
M  V30 2340 N 230.17 0.947908 4.53397 0
M  V30 2341 C 230.905 1.28544 5.58806 0
M  V30 2342 N 230.401 1.69454 6.71757 0
M  V30 2343 N 232.194 1.20526 5.49026 0
M  V30 2344 H 224.345 1.37982 1.61477 0
M  V30 2345 H 226.608 0.566977 0.759764 0
M  V30 2346 H 226.314 1.59938 3.1323 0
M  V30 2347 H 226.188 -0.0298014 3.77188 0
M  V30 2348 H 228.575 -0.513505 2.90598 0
M  V30 2349 H 228.656 1.14272 2.28857 0
M  V30 2350 H 228.3 2.02034 4.65988 0
M  V30 2351 H 228.23 0.34257 5.25485 0
M  V30 2352 H 230.721 0.647157 3.72317 0
M  V30 2353 H 231.034 1.93513 7.48179 0
M  V30 2354 H 229.379 1.73359 6.73032 0
M  V30 2355 H 232.57 0.884505 4.59667 0
M  V30 2356 H 232.743 1.47161 6.31069 0
M  V30 2357 N 226.149 -1.5696 0.141893 0
M  V30 2358 C 227.565 -1.58151 -0.21456 0
M  V30 2359 C 227.765 -1.1559 -1.65049 0
M  V30 2360 O 226.821 -0.853832 -2.37626 0
M  V30 2361 C 228.134 -3.00674 0.0395576 0
M  V30 2362 C 229.682 -3.1299 -0.0245529 0
M  V30 2363 C 230.157 -4.57554 0.202167 0
M  V30 2364 N 231.648 -4.62961 0.148919 0
M  V30 2365 C 232.383 -5.7262 0.298924 0
M  V30 2366 N 231.879 -6.90947 0.50637 0
M  V30 2367 N 233.672 -5.61601 0.236886 0
M  V30 2368 H 225.823 -1.8292 1.07953 0
M  V30 2369 H 228.086 -0.846425 0.42693 0
M  V30 2370 H 227.792 -3.36183 1.03315 0
M  V30 2371 H 227.666 -3.70981 -0.682143 0
M  V30 2372 H 230.053 -2.77326 -1.00869 0
M  V30 2373 H 230.134 -2.4518 0.729396 0
M  V30 2374 H 229.778 -4.93922 1.18338 0
M  V30 2375 H 229.708 -5.23484 -0.572044 0
M  V30 2376 H 232.199 -3.77899 -0.00697015 0
M  V30 2377 H 232.512 -7.7038 0.611076 0
M  V30 2378 H 230.857 -6.92878 0.542628 0
M  V30 2379 H 234.048 -4.68039 0.0756209 0
M  V30 2380 H 234.221 -6.47015 0.357227 0
M  V30 2381 N 227.627 0.131896 -1.57047 0
M  V30 2382 C 228.59 1.14638 -1.98471 0
M  V30 2383 C 229.59 1.35029 -0.873148 0
M  V30 2384 O 230.78 1.31764 -1.13946 0
M  V30 2385 C 227.912 2.50358 -2.31373 0
M  V30 2386 H 229.105 0.79064 -2.8929 0
M  V30 2387 H 226.658 0.375761 -1.51716 0
M  V30 2388 H 227.393 2.90876 -1.43393 0
M  V30 2389 H 227.178 2.36915 -3.12432 0
M  V30 2390 H 228.668 3.23395 -2.64207 0
M  V30 2391 N 229.106 1.52395 0.401703 0
M  V30 2392 C 230.383 1.57387 1.16141 0
M  V30 2393 C 230.763 0.359359 2.08019 0
M  V30 2394 O 230.111 -0.65326 2.18963 0
M  V30 2395 C 230.321 2.90631 1.93221 0
M  V30 2396 C 231.669 3.43904 2.49028 0
M  V30 2397 O 232.693 2.92421 2.03393 0
M  V30 2398 O 231.552 4.33823 3.32356 0
M  V30 2399 H 228.646 0.634262 0.530698 0
M  V30 2400 H 231.192 1.64725 0.407883 0
M  V30 2401 H 229.964 3.70473 1.25958 0
M  V30 2402 H 229.587 2.8662 2.75563 0
M  V30 2403 N 230.584 -0.659388 1.43143 0
M  V30 2404 C 231.995 -1.24041 1.39537 0
M  V30 2405 C 232.346 -1.95963 0.0963364 0
M  V30 2406 O 231.471 -2.00892 -0.804438 0
M  V30 2407 C 232.066 -2.25601 2.52764 0
M  V30 2408 C 230.625 -2.79195 2.52443 0
M  V30 2409 C 229.772 -1.53743 2.30778 0
M  V30 2410 H 232.723 -0.451792 1.52133 0
M  V30 2411 H 232.744 -3.07651 2.23899 0
M  V30 2412 H 232.256 -1.73226 3.47296 0
M  V30 2413 H 230.357 -3.35649 1.61773 0
M  V30 2414 H 230.47 -3.2716 3.50004 0
M  V30 2415 H 228.834 -1.80869 1.79328 0
M  V30 2416 H 229.617 -1.03312 3.27386 0
M  V30 2417 N 232.062 -1.29571 -0.897171 0
M  V30 2418 C 233.309 -1.17689 -1.6479 0
M  V30 2419 C 233.637 0.27107 -1.92602 0
M  V30 2420 O 232.892 1.21193 -1.53658 0
M  V30 2421 C 233.191 -1.9382 -3.00281 0
M  V30 2422 C 232.857 -3.43522 -2.92068 0
M  V30 2423 C 231.519 -3.84348 -2.89535 0
M  V30 2424 C 233.871 -4.38906 -2.81089 0
M  V30 2425 C 231.199 -5.18869 -2.73846 0
M  V30 2426 C 233.551 -5.73521 -2.66939 0
M  V30 2427 C 232.215 -6.13601 -2.62774 0
M  V30 2428 H 231.485 -0.430654 -0.603008 0
M  V30 2429 H 234.132 -1.60536 -1.04404 0
M  V30 2430 H 232.437 -1.4357 -3.64547 0
M  V30 2431 H 234.134 -1.82028 -3.57305 0
M  V30 2432 H 230.724 -3.11072 -2.94842 0
M  V30 2433 H 234.908 -4.08315 -2.82121 0
M  V30 2434 H 230.164 -5.4903 -2.69027 0
M  V30 2435 H 234.338 -6.47078 -2.57416 0
M  V30 2436 H 231.965 -7.17786 -2.50375 0
M  V30 2437 N 233.54 1.10788 -1.12088 0
M  V30 2438 C 234.47 2.19083 -0.807755 0
M  V30 2439 C 235.451 1.6858 0.226859 0
M  V30 2440 O 236.636 1.93997 0.0888475 0
M  V30 2441 C 233.766 3.46344 -0.257576 0
M  V30 2442 C 232.72 4.101 -1.22483 0
M  V30 2443 C 232.046 5.32016 -0.535052 0
M  V30 2444 C 233.346 4.54236 -2.57811 0
M  V30 2445 H 235.04 2.45534 -1.71328 0
M  V30 2446 H 232.586 1.1801 -0.825205 0
M  V30 2447 H 234.539 4.21392 -0.0262679 0
M  V30 2448 H 233.263 3.19373 0.683278 0
M  V30 2449 H 231.922 3.37054 -1.44189 0
M  V30 2450 H 231.57 5.01319 0.410827 0
M  V30 2451 H 231.27 5.75625 -1.18024 0
M  V30 2452 H 232.794 6.09799 -0.312695 0
M  V30 2453 H 234.208 5.20575 -2.40155 0
M  V30 2454 H 232.605 5.08682 -3.18375 0
M  V30 2455 H 233.675 3.6734 -3.16528 0
M  V30 2456 N 235.018 0.912232 1.28515 0
M  V30 2457 C 236.246 0.560416 1.99166 0
M  V30 2458 C 236.661 -0.857927 1.68182 0
M  V30 2459 O 236.018 -1.56805 0.933733 0
M  V30 2460 C 236.069 0.758142 3.53461 0
M  V30 2461 O 235.79 2.12067 3.83352 0
M  V30 2462 C 237.291 0.412954 4.41372 0
M  V30 2463 H 234.511 0.213805 0.636026 0
M  V30 2464 H 237.055 1.22502 1.63749 0
M  V30 2465 H 235.21 0.140556 3.87145 0
M  V30 2466 H 235.624 2.15923 4.77993 0
M  V30 2467 H 237.098 0.60208 5.48707 0
M  V30 2468 H 237.575 -0.65073 4.34353 0
M  V30 2469 H 238.181 1.00802 4.13182 0
M  V30 2470 N 236.496 -1.42363 0.676048 0
M  V30 2471 C 237.742 -2.0182 0.199125 0
M  V30 2472 C 238.075 -1.53339 -1.19168 0
M  V30 2473 O 237.35 -0.736124 -1.80032 0
M  V30 2474 C 237.633 -3.59331 0.235144 0
M  V30 2475 C 237.486 -4.17989 1.66149 0
M  V30 2476 C 238.805 -4.3813 -0.41595 0
M  V30 2477 H 235.924 -0.733293 0.0738311 0
M  V30 2478 H 238.566 -1.69368 0.86107 0
M  V30 2479 H 236.716 -3.87109 -0.328487 0
M  V30 2480 H 238.388 -4.0116 2.27747 0
M  V30 2481 H 236.631 -3.7377 2.20178 0
M  V30 2482 H 237.302 -5.27126 1.63837 0
M  V30 2483 H 239.778 -4.16051 0.0638529 0
M  V30 2484 H 238.654 -5.47717 -0.360115 0
M  V30 2485 H 238.915 -4.16101 -1.49373 0
M  V30 2486 N 237.974 -0.419461 -1.51915 0
M  V30 2487 C 238.937 0.389116 -2.25873 0
M  V30 2488 C 239.937 0.964924 -1.28631 0
M  V30 2489 O 241.127 0.842179 -1.52489 0
M  V30 2490 C 238.259 1.54874 -3.03689 0
M  V30 2491 H 239.452 -0.258799 -2.98781 0
M  V30 2492 H 237.005 -0.172209 -1.55348 0
M  V30 2493 H 237.74 2.23323 -2.35154 0
M  V30 2494 H 237.525 1.14223 -3.75094 0
M  V30 2495 H 239.015 2.12046 -3.59759 0
M  V30 2496 N 239.452 1.56882 -0.150215 0
M  V30 2497 C 240.382 2.19935 0.784284 0
M  V30 2498 C 241.363 1.14854 1.25469 0
M  V30 2499 O 242.548 1.43209 1.31168 0
M  V30 2500 C 239.678 2.82349 2.02229 0
M  V30 2501 C 238.632 3.93285 1.68853 0
M  V30 2502 C 237.958 4.42649 2.99944 0
M  V30 2503 C 239.258 5.13904 0.932714 0
M  V30 2504 H 240.952 2.9828 0.258781 0
M  V30 2505 H 238.498 1.43473 0.123029 0
M  V30 2506 H 240.451 3.25126 2.68088 0
M  V30 2507 H 239.175 2.0134 2.57157 0
M  V30 2508 H 237.834 3.5113 1.05371 0
M  V30 2509 H 237.482 3.58458 3.52869 0
M  V30 2510 H 237.182 5.17476 2.78374 0
M  V30 2511 H 238.706 4.88099 3.66868 0
M  V30 2512 H 240.12 5.53506 1.49345 0
M  V30 2513 H 238.517 5.94515 0.81684 0
M  V30 2514 H 239.587 4.84842 -0.0749568 0
M  V30 2515 N 240.93 -0.123565 1.57115 0
M  V30 2516 C 241.84 -1.17074 2.033 0
M  V30 2517 C 242.856 -1.4561 0.952559 0
M  V30 2518 O 244.032 -1.56817 1.26374 0
M  V30 2519 C 241.097 -2.47857 2.42421 0
M  V30 2520 C 240.158 -2.26758 3.64526 0
M  V30 2521 C 239.391 -3.51305 4.01771 0
M  V30 2522 O 239.614 -4.5843 3.39409 0
M  V30 2523 O 238.548 -3.42578 4.94898 0
M  V30 2524 H 242.374 -0.808555 2.92739 0
M  V30 2525 H 239.959 -0.334027 1.45618 0
M  V30 2526 H 241.841 -3.2492 2.68338 0
M  V30 2527 H 240.516 -2.83558 1.5613 0
M  V30 2528 H 239.423 -1.47569 3.43765 0
M  V30 2529 H 240.756 -1.95963 4.51508 0
M  V30 2530 N 242.408 -1.52605 -0.393616 0
M  V30 2531 C 243.819 -1.59417 -0.971761 0
M  V30 2532 C 244.17 -0.444173 -1.91106 0
M  V30 2533 O 243.295 0.433382 -2.12016 0
M  V30 2534 C 243.89 -2.88936 -1.76921 0
M  V30 2535 C 242.449 -2.98175 -2.29714 0
M  V30 2536 C 241.596 -2.54491 -1.10135 0
M  V30 2537 H 244.547 -1.57751 -0.173317 0
M  V30 2538 H 244.568 -2.75163 -2.62804 0
M  V30 2539 H 244.08 -3.72616 -1.08532 0
M  V30 2540 H 242.181 -2.19024 -3.01429 0
M  V30 2541 H 242.294 -4.02726 -2.59517 0
M  V30 2542 H 240.658 -2.08702 -1.45999 0
M  V30 2543 H 241.441 -3.4056 -0.432874 0
M  V30 2544 N 243.887 0.651787 -1.4349 0
M  V30 2545 C 245.164 1.40909 -1.35661 0
M  V30 2546 C 245.544 2.11099 -0.00511733 0
M  V30 2547 O 244.892 2.04892 1.0115 0
M  V30 2548 C 245.102 2.3926 -2.54078 0
M  V30 2549 C 246.45 3.03217 -2.97228 0
M  V30 2550 O 247.474 2.49588 -2.54135 0
M  V30 2551 O 246.333 4.00455 -3.71885 0
M  V30 2552 H 243.427 0.629625 -0.536191 0
M  V30 2553 H 245.973 0.678575 -1.55542 0
M  V30 2554 H 244.745 1.86352 -3.44076 0
M  V30 2555 H 244.368 3.1976 -2.36303 0
M  V30 2556 N 245.365 1.30045 0.890287 0
M  V30 2557 C 246.328 1.15963 1.977 0
M  V30 2558 C 247.328 0.0923777 1.60534 0
M  V30 2559 O 248.518 0.340071 1.70848 0
M  V30 2560 C 245.65 0.775451 3.31963 0
M  V30 2561 H 246.843 2.12502 2.11619 0
M  V30 2562 H 244.396 1.13366 1.07601 0
M  V30 2563 H 245.131 -0.189671 3.23745 0
M  V30 2564 H 244.916 1.54668 3.60306 0
M  V30 2565 H 246.406 0.700251 4.11687 0
M  V30 2566 N 246.843 -1.10192 1.12674 0
M  V30 2567 C 248.089 -1.82475 0.884915 0
M  V30 2568 C 248.422 -1.85093 -0.58773 0
M  V30 2569 O 247.697 -1.3134 -1.43457 0
M  V30 2570 C 247.98 -3.29018 1.46353 0
M  V30 2571 C 247.833 -3.34718 3.00473 0
M  V30 2572 C 249.152 -4.25473 1.12519 0
M  V30 2573 H 246.271 -0.662492 0.322915 0
M  V30 2574 H 248.913 -1.2913 1.39375 0
M  V30 2575 H 247.063 -3.74576 1.03077 0
M  V30 2576 H 248.735 -2.97622 3.52447 0
M  V30 2577 H 246.978 -2.74541 3.35872 0
M  V30 2578 H 247.649 -4.37918 3.36053 0
M  V30 2579 H 250.125 -3.88161 1.499 0
M  V30 2580 H 249.001 -5.26365 1.55663 0
M  V30 2581 H 249.262 -4.42084 0.0377407 0
M  V30 2582 N 248.321 -0.919034 -1.28029 0
M  V30 2583 C 249.231 -0.416756 -2.30869 0
M  V30 2584 C 250.247 0.498235 -1.66714 0
M  V30 2585 O 251.423 0.383144 -1.97722 0
M  V30 2586 C 248.488 0.330274 -3.45123 0
M  V30 2587 C 247.549 -0.618578 -4.2482 0
M  V30 2588 C 246.782 0.0928959 -5.33619 0
M  V30 2589 O 247.005 1.31375 -5.55065 0
M  V30 2590 O 245.939 -0.574499 -5.99152 0
M  V30 2591 H 249.765 -1.27043 -2.75851 0
M  V30 2592 H 247.35 -0.684052 -1.3282 0
M  V30 2593 H 249.232 0.751972 -4.14636 0
M  V30 2594 H 247.907 1.1597 -3.02213 0
M  V30 2595 H 246.814 -1.08978 -3.57875 0
M  V30 2596 H 248.147 -1.41497 -4.71423 0
M  V30 2597 N 249.799 1.42003 -0.683588 0
M  V30 2598 C 251.215 1.55625 -0.353976 0
M  V30 2599 C 251.415 1.66151 1.14 0
M  V30 2600 O 250.471 1.63329 1.92561 0
M  V30 2601 C 251.784 2.80171 -1.092 0
M  V30 2602 C 253.332 2.93954 -1.07518 0
M  V30 2603 C 253.807 4.21372 -1.79471 0
M  V30 2604 N 255.298 4.28303 -1.76381 0
M  V30 2605 C 256.033 5.25729 -2.28904 0
M  V30 2606 N 255.529 6.29254 -2.89846 0
M  V30 2607 N 257.322 5.17586 -2.19228 0
M  V30 2608 H 249.473 1.33415 -1.6527 0
M  V30 2609 H 251.736 0.64282 -0.696769 0
M  V30 2610 H 251.442 2.78561 -2.14701 0
M  V30 2611 H 251.316 3.7133 -0.662862 0
M  V30 2612 H 253.703 2.95086 -0.028475 0
M  V30 2613 H 253.784 2.04002 -1.54328 0
M  V30 2614 H 253.428 4.21001 -2.84114 0
M  V30 2615 H 253.358 5.10275 -1.30104 0
M  V30 2616 H 255.849 3.54119 -1.31939 0
M  V30 2617 H 256.162 6.99964 -3.27522 0
M  V30 2618 H 254.507 6.29791 -2.93919 0
M  V30 2619 H 257.698 4.35631 -1.71299 0
M  V30 2620 H 257.871 5.93348 -2.60466 0
M  V30 2621 N 251.277 0.427512 1.51691 0
M  V30 2622 C 252.525 -0.141948 2.01601 0
M  V30 2623 C 252.846 -1.44067 1.31414 0
M  V30 2624 O 252.116 -1.90763 0.445658 0
M  V30 2625 H 250.696 -0.0554468 0.744939 0
M  V30 2626 H 253.358 0.567968 1.86441 0
M  V30 2627 H 252.454 -0.324913 3.10404 0
M  V30 2628 N 252.755 -1.56801 0.158532 0
M  V30 2629 C 254.002 -1.9649 -0.489679 0
M  V30 2630 C 254.33 -1.04394 -1.6411 0
M  V30 2631 O 253.585 -0.0754401 -1.95555 0
M  V30 2632 C 253.884 -3.4235 -1.02623 0
M  V30 2633 C 253.55 -4.50899 0.00794526 0
M  V30 2634 C 252.212 -4.80312 0.292207 0
M  V30 2635 C 254.564 -5.16333 0.710584 0
M  V30 2636 C 251.892 -5.72461 1.28472 0
M  V30 2637 C 254.244 -6.09553 1.69199 0
M  V30 2638 C 252.908 -6.37339 1.98383 0
M  V30 2639 H 252.178 -0.719009 -0.179186 0
M  V30 2640 H 254.825 -1.8989 0.247798 0
M  V30 2641 H 253.13 -3.45838 -1.84128 0
M  V30 2642 H 254.827 -3.70393 -1.53656 0
M  V30 2643 H 251.417 -4.28015 -0.22379 0
M  V30 2644 H 255.601 -4.93732 0.504174 0
M  V30 2645 H 250.857 -5.92278 1.51714 0
M  V30 2646 H 255.031 -6.59327 2.24189 0
M  V30 2647 H 252.658 -7.08546 2.7544 0
M  V30 2648 N 254.233 0.115231 -1.57178 0
M  V30 2649 C 255.51 0.852873 -1.76027 0
M  V30 2650 C 255.89 1.97892 -0.73498 0
M  V30 2651 O 255.238 2.27232 0.24036 0
M  V30 2652 C 255.448 1.36608 -3.21153 0
M  V30 2653 C 256.796 1.81692 -3.83762 0
M  V30 2654 O 257.82 1.46278 -3.24779 0
M  V30 2655 O 256.679 2.47104 -4.87444 0
M  V30 2656 H 253.773 0.405296 -0.720877 0
M  V30 2657 H 256.319 0.0986785 -1.69413 0
M  V30 2658 H 255.091 0.558357 -3.87296 0
M  V30 2659 H 254.714 2.18287 -3.3232 0
M  V30 2660 N 255.711 1.52812 0.385517 0
M  V30 2661 C 256.957 1.68275 1.13188 0
M  V30 2662 C 257.29 0.423179 1.89533 0
M  V30 2663 O 256.565 -0.579113 1.85679 0
M  V30 2664 C 256.848 2.92001 2.1073 0
M  V30 2665 C 256.701 4.28067 1.38125 0
M  V30 2666 C 258.02 3.11283 3.11113 0
M  V30 2667 H 255.139 0.612352 0.410115 0
M  V30 2668 H 257.781 1.85415 0.414869 0
M  V30 2669 H 255.931 2.77519 2.71874 0
M  V30 2670 H 257.603 4.54324 0.799187 0
M  V30 2671 H 255.846 4.28388 0.683092 0
M  V30 2672 H 256.517 5.10733 2.09417 0
M  V30 2673 H 258.993 3.2482 2.6006 0
M  V30 2674 H 257.869 3.99325 3.76605 0
M  V30 2675 H 258.13 2.25656 3.80173 0
M  V30 2676 N 257.189 -0.644168 1.43834 0
M  V30 2677 C 258.119 -1.76814 1.52509 0
M  V30 2678 C 259.1 -1.65823 0.379052 0
M  V30 2679 O 260.285 -1.84781 0.597466 0
M  V30 2680 C 257.415 -3.15288 1.4564 0
M  V30 2681 C 256.369 -3.41053 2.58586 0
M  V30 2682 C 255.695 -4.79421 2.36769 0
M  V30 2683 C 256.995 -3.34902 4.00797 0
M  V30 2684 H 258.689 -1.69812 2.46586 0
M  V30 2685 H 256.235 -0.815542 1.1868 0
M  V30 2686 H 258.188 -3.93681 1.50311 0
M  V30 2687 H 256.912 -3.23043 0.480725 0
M  V30 2688 H 255.571 -2.65035 2.53282 0
M  V30 2689 H 255.219 -4.83863 1.37424 0
M  V30 2690 H 254.919 -4.9762 3.12487 0
M  V30 2691 H 256.443 -5.6006 2.43238 0
M  V30 2692 H 257.857 -4.03218 4.07539 0
M  V30 2693 H 256.254 -3.64637 4.76613 0
M  V30 2694 H 257.324 -2.32928 4.25291 0
M  V30 2695 N 258.668 -1.30515 -0.883378 0
M  V30 2696 C 259.893 -1.22487 -1.67367 0
M  V30 2697 C 260.318 0.208767 -1.86938 0
M  V30 2698 O 259.676 1.15015 -1.40148 0
M  V30 2699 C 259.724 -1.96041 -3.02655 0
M  V30 2700 O 258.828 -1.28859 -3.91751 0
M  V30 2701 H 258.169 -0.423573 -0.511353 0
M  V30 2702 H 260.699 -1.72362 -1.10239 0
M  V30 2703 H 260.709 -2.05124 -3.52687 0
M  V30 2704 H 259.384 -3.00307 -2.8773 0
M  V30 2705 H 257.961 -1.28141 -3.50192 0
M  V30 2706 N 260.146 1.09593 -1.13257 0
M  V30 2707 C 261.395 1.81105 -0.887917 0
M  V30 2708 C 261.708 1.86563 0.587672 0
M  V30 2709 O 262.914 2.54367 0.949204 0
M  V30 2710 C 261.37 3.25338 -1.53895 0
M  V30 2711 C 260.978 3.28151 -3.04994 0
M  V30 2712 C 262.722 4.01617 -1.37492 0
M  V30 2713 C 260.629 4.66897 -3.6299 0
M  V30 2714 H 259.559 0.678661 -0.328534 0
M  V30 2715 H 262.21 1.23183 -1.36008 0
M  V30 2716 H 260.592 3.8331 -0.994446 0
M  V30 2717 H 261.766 2.79953 -3.66009 0
M  V30 2718 H 260.081 2.65361 -3.20893 0
M  V30 2719 H 262.678 5.04119 -1.78235 0
M  V30 2720 H 263.021 4.15072 -0.31957 0
M  V30 2721 H 263.554 3.50082 -1.88912 0
M  V30 2722 H 260.293 4.58643 -4.68323 0
M  V30 2723 H 259.813 5.15426 -3.06752 0
M  V30 2724 H 261.492 5.3587 -3.62563 0
M  V30 2725 N 261.624 0.925811 1.2754 0
M  V30 2726 C 262.87 0.566092 1.94739 0
M  V30 2727 C 263.203 -0.890057 1.72603 0
M  V30 2728 O 262.478 -1.63467 1.05399 0
M  V30 2729 C 262.761 0.89054 3.48915 0
M  V30 2730 C 262.614 2.4003 3.80402 0
M  V30 2731 C 263.933 0.395101 4.38323 0
M  V30 2732 H 261.052 0.20714 0.707292 0
M  V30 2733 H 263.694 1.15725 1.50691 0
M  V30 2734 H 261.844 0.387452 3.86563 0
M  V30 2735 H 263.516 2.97494 3.52555 0
M  V30 2736 H 261.759 2.85028 3.2702 0
M  V30 2737 H 262.43 2.57785 4.8811 0
M  V30 2738 H 264.906 0.826241 4.07814 0
M  V30 2739 H 263.782 0.651086 5.45025 0
M  V30 2740 H 264.043 -0.704798 4.36446 0
M  V30 2741 N 263.102 -1.41638 0.69111 0
M  V30 2742 C 264.065 -2.29178 0.0319786 0
M  V30 2743 C 265.065 -1.44153 -0.712496 0
M  V30 2744 O 266.255 -1.65354 -0.548053 0
M  V30 2745 C 263.387 -3.26952 -0.965161 0
M  V30 2746 H 264.58 -2.88959 0.802681 0
M  V30 2747 H 262.133 -1.4955 0.454356 0
M  V30 2748 H 262.868 -2.72142 -1.76378 0
M  V30 2749 H 262.653 -3.89685 -0.434522 0
M  V30 2750 H 264.143 -3.92561 -1.42428 0
M  V30 2751 N 264.58 -0.43555 -1.51462 0
M  V30 2752 C 265.991 0.0279871 -1.86679 0
M  V30 2753 C 266.342 1.42104 -1.35281 0
M  V30 2754 O 265.467 2.04667 -0.702878 0
M  V30 2755 C 266.062 0.0575626 -3.38751 0
M  V30 2756 C 264.621 0.465507 -3.7351 0
M  V30 2757 C 263.768 -0.342996 -2.75171 0
M  V30 2758 H 266.719 -0.651473 -1.44712 0
M  V30 2759 H 266.74 0.867421 -3.70481 0
M  V30 2760 H 266.252 -0.956448 -3.7613 0
M  V30 2761 H 264.353 1.48519 -3.41721 0
M  V30 2762 H 264.466 0.191546 -4.78717 0
M  V30 2763 H 262.83 0.198442 -2.53926 0
M  V30 2764 H 263.613 -1.35585 -3.15391 0
M  V30 2765 N 266.058 1.56714 -0.166846 0
M  V30 2766 C 267.286 2.0112 0.485644 0
M  V30 2767 C 267.701 1.04705 1.57106 0
M  V30 2768 O 267.058 0.0471923 1.82439 0
M  V30 2769 C 267.109 3.45361 1.06808 0
M  V30 2770 O 266.83 4.38092 0.0259995 0
M  V30 2771 C 268.331 4.05145 1.79924 0
M  V30 2772 H 265.551 0.65931 0.124704 0
M  V30 2773 H 268.095 2.02746 -0.267262 0
M  V30 2774 H 266.25 3.44524 1.7715 0
M  V30 2775 H 266.664 5.22519 0.455398 0
M  V30 2776 H 268.138 5.08009 2.15942 0
M  V30 2777 H 268.615 3.46982 2.69258 0
M  V30 2778 H 269.221 4.09672 1.14234 0
M  V30 2779 N 267.536 -0.106894 1.57237 0
M  V30 2780 C 268.782 -0.81373 1.85759 0
M  V30 2781 C 269.115 -1.78952 0.754315 0
M  V30 2782 O 268.39 -1.93029 -0.23879 0
M  V30 2783 C 268.673 -1.55293 3.24894 0
M  V30 2784 C 268.526 -0.595929 4.45835 0
M  V30 2785 C 269.845 -2.5063 3.61763 0
M  V30 2786 H 266.964 -0.294369 0.67566 0
M  V30 2787 H 269.606 -0.0776472 1.89841 0
M  V30 2788 H 267.756 -2.1804 3.21544 0
M  V30 2789 H 269.428 0.0236262 4.61294 0
M  V30 2790 H 267.671 0.0916191 4.33703 0
M  V30 2791 H 268.342 -1.15004 5.39887 0
M  V30 2792 H 270.818 -1.97982 3.65981 0
M  V30 2793 H 269.694 -2.99376 4.60071 0
M  V30 2794 H 269.955 -3.3385 2.89821 0
M  V30 2795 N 269.014 -1.53014 -0.377408 0
M  V30 2796 C 269.977 -1.77957 -1.44444 0
M  V30 2797 C 270.977 -0.649763 -1.47087 0
M  V30 2798 O 272.167 -0.917897 -1.48055 0
M  V30 2799 C 269.299 -1.89089 -2.83651 0
M  V30 2800 H 270.492 -2.73243 -1.23606 0
M  V30 2801 H 268.045 -1.43912 -0.609844 0
M  V30 2802 H 268.78 -0.958293 -3.09818 0
M  V30 2803 H 268.565 -2.71254 -2.83132 0
M  V30 2804 H 270.055 -2.1002 -3.60945 0
M  V30 2805 N 270.492 0.636531 -1.44174 0
M  V30 2806 C 271.74 1.39343 -1.46383 0
M  V30 2807 C 272.061 1.94766 -0.0955715 0
M  V30 2808 O 271.331 1.75452 0.871395 0
M  V30 2809 H 269.911 0.517199 -0.538994 0
M  V30 2810 H 272.573 0.74957 -1.7991 0
M  V30 2811 H 271.669 2.22746 -2.18611 0
M  V30 2812 N 271.97 1.30982 0.876444 0
M  V30 2813 C 273.247 1.10942 1.61094 0
M  V30 2814 C 273.627 -0.338223 2.08373 0
M  V30 2815 O 272.975 -1.33122 1.85717 0
M  V30 2816 C 273.185 2.11789 2.77392 0
M  V30 2817 C 274.533 2.43965 3.47514 0
M  V30 2818 O 275.557 2.10166 2.87591 0
M  V30 2819 O 274.416 3.01817 4.55597 0
M  V30 2820 H 271.51 0.42667 0.708436 0
M  V30 2821 H 274.056 1.42438 0.922474 0
M  V30 2822 H 272.828 3.09194 2.39823 0
M  V30 2823 H 272.451 1.81161 3.5393 0
M  V30 2824 N 273.449 -1.08991 1.13837 0
M  V30 2825 C 274.726 -1.77863 0.813876 0
M  V30 2826 C 275.106 -1.99375 -0.693746 0
M  V30 2827 O 274.454 -1.59875 -1.63255 0
M  V30 2828 C 274.664 -3.0986 1.60586 0
M  V30 2829 C 276.012 -3.84493 1.8014 0
M  V30 2830 O 277.036 -3.19624 1.57222 0
M  V30 2831 O 275.895 -5.00957 2.18413 0
M  V30 2832 H 272.989 -0.771589 0.297624 0
M  V30 2833 H 275.535 -1.15507 1.24323 0
M  V30 2834 H 274.307 -2.89715 2.63022 0
M  V30 2835 H 273.93 -3.79942 1.17173 0
M  V30 2836 N 274.927 -0.932562 -1.27047 0
M  V30 2837 C 276.173 -0.576412 -1.94436 0
M  V30 2838 C 276.506 0.880891 -1.73072 0
M  V30 2839 O 275.781 1.62905 -1.06264 0
M  V30 2840 C 276.064 -0.909031 -3.48437 0
M  V30 2841 C 275.917 -2.42044 -3.79123 0
M  V30 2842 C 277.236 -0.418341 -4.38107 0
M  V30 2843 H 274.355 -0.210888 -0.706184 0
M  V30 2844 H 276.997 -1.16522 -1.50075 0
M  V30 2845 H 275.147 -0.407947 -3.86352 0
M  V30 2846 H 276.819 -2.99359 -3.50973 0
M  V30 2847 H 275.062 -2.86758 -3.25503 0
M  V30 2848 H 275.733 -2.6037 -4.86736 0
M  V30 2849 H 278.209 -0.847856 -4.0737 0
M  V30 2850 H 277.085 -0.679981 -5.44672 0
M  V30 2851 H 277.346 0.681642 -4.36814 0
M  V30 2852 N 276.405 1.4127 -0.698611 0
M  V30 2853 C 277.652 2.0118 -0.230865 0
M  V30 2854 C 277.98 1.55338 1.17049 0
M  V30 2855 O 277.235 0.756775 1.80475 0
M  V30 2856 C 277.534 3.56592 -0.240192 0
M  V30 2857 C 277.2 4.21955 -1.58948 0
M  V30 2858 C 275.862 4.39524 -1.95887 0
M  V30 2859 C 278.214 4.58576 -2.47704 0
M  V30 2860 C 275.542 4.90992 -3.2116 0
M  V30 2861 C 277.894 5.11435 -3.72313 0
M  V30 2862 C 276.558 5.27215 -4.0939 0
M  V30 2863 H 275.828 0.736169 -0.0844796 0
M  V30 2864 H 278.475 1.69124 -0.8983 0
M  V30 2865 H 276.78 3.88456 0.510797 0
M  V30 2866 H 278.477 4.00758 0.139296 0
M  V30 2867 H 275.067 4.08657 -1.29219 0
M  V30 2868 H 279.251 4.44654 -2.20445 0
M  V30 2869 H 274.507 5.01393 -3.49878 0
M  V30 2870 H 278.681 5.38752 -4.4127 0
M  V30 2871 H 276.308 5.66859 -5.06533 0
M  V30 2872 N 277.883 0.443576 1.51229 0
M  V30 2873 C 279.299 0.0962001 1.5931 0
M  V30 2874 C 279.499 -1.39501 1.45402 0
M  V30 2875 O 278.555 -2.16557 1.29843 0
M  V30 2876 C 279.868 0.621875 2.94199 0
M  V30 2877 C 281.416 0.582865 3.07525 0
M  V30 2878 C 281.891 1.08562 4.44948 0
M  V30 2879 N 283.382 1.04387 4.51284 0
M  V30 2880 C 284.117 1.40368 5.55954 0
M  V30 2881 N 283.613 1.83664 6.68011 0
M  V30 2882 N 285.406 1.32145 5.46346 0
M  V30 2883 H 277.557 1.41376 1.58514 0
M  V30 2884 H 279.82 0.582965 0.747567 0
M  V30 2885 H 279.526 1.66546 3.09767 0
M  V30 2886 H 279.4 0.0502125 3.77167 0
M  V30 2887 H 281.787 -0.451749 2.91622 0
M  V30 2888 H 281.868 1.191 2.26382 0
M  V30 2889 H 281.512 2.11873 4.61598 0
M  V30 2890 H 281.442 0.453956 5.2464 0
M  V30 2891 H 283.933 0.725986 3.70861 0
M  V30 2892 H 284.246 2.0934 7.43906 0
M  V30 2893 H 282.591 1.87596 6.69203 0
M  V30 2894 H 285.782 0.981808 4.57688 0
M  V30 2895 H 285.955 1.60514 6.27805 0
M  V30 2896 N 279.361 -1.56624 0.175154 0
M  V30 2897 C 280.324 -2.16934 -0.739738 0
M  V30 2898 C 281.324 -1.11842 -1.15533 0
M  V30 2899 O 282.514 -1.37335 -1.07167 0
M  V30 2900 C 279.646 -2.75531 -2.00738 0
M  V30 2901 H 280.839 -2.99131 -0.214639 0
M  V30 2902 H 278.392 -1.56123 -0.0744197 0
M  V30 2903 H 279.127 -1.97078 -2.57548 0
M  V30 2904 H 278.912 -3.52444 -1.71831 0
M  V30 2905 H 280.402 -3.21904 -2.66021 0
M  V30 2906 N 280.839 0.0985539 -1.57292 0
M  V30 2907 C 282.085 0.798769 -1.87059 0
M  V30 2908 C 282.44 1.76514 -0.76555 0
M  V30 2909 O 281.733 1.90181 0.232752 0
M  V30 2910 C 281.927 1.56927 -3.21105 0
M  V30 2911 C 281.756 0.679026 -4.44544 0
M  V30 2912 C 280.526 0.326071 -5.04247 0
M  V30 2913 C 282.724 -0.0124715 -5.14298 0
M  V30 2914 N 280.706 -0.572702 -6.11223 0
M  V30 2915 C 282.077 -0.769446 -6.15207 0
M  V30 2916 C 284.132 -0.0867545 -4.97824 0
M  V30 2917 C 282.835 -1.59376 -7.01421 0
M  V30 2918 C 284.861 -0.897955 -5.84543 0
M  V30 2919 C 284.223 -1.64306 -6.84969 0
M  V30 2920 H 280.322 0.268568 -0.734435 0
M  V30 2921 H 282.906 0.0614664 -1.94603 0
M  V30 2922 H 281.077 2.27748 -3.1462 0
M  V30 2923 H 282.809 2.21641 -3.38611 0
M  V30 2924 H 279.564 0.67295 -4.68795 0
M  V30 2925 H 279.988 -1.01454 -6.69355 0
M  V30 2926 H 284.63 0.474963 -4.20124 0
M  V30 2927 H 282.348 -2.16655 -7.78515 0
M  V30 2928 H 285.934 -0.958059 -5.73858 0
M  V30 2929 H 284.814 -2.26065 -7.50909 0
M  V30 2930 N 282.317 1.53212 0.369288 0
M  V30 2931 C 283.563 1.70413 1.11046 0
M  V30 2932 C 283.918 0.448509 1.87099 0
M  V30 2933 O 283.211 -0.558382 1.83283 0
M  V30 2934 C 283.405 2.89101 2.10132 0
M  V30 2935 C 283.234 4.26084 1.43814 0
M  V30 2936 C 282.004 4.90994 1.19384 0
M  V30 2937 C 284.202 5.06754 0.877802 0
M  V30 2938 N 282.184 6.11911 0.49377 0
M  V30 2939 C 283.555 6.1924 0.306891 0
M  V30 2940 C 285.61 4.91814 0.776129 0
M  V30 2941 C 284.313 7.1842 -0.355774 0
M  V30 2942 C 286.339 5.91263 0.127252 0
M  V30 2943 C 285.701 7.03069 -0.432801 0
M  V30 2944 H 281.8 0.676872 0.391623 0
M  V30 2945 H 284.384 1.90603 0.397334 0
M  V30 2946 H 282.555 2.70456 2.78761 0
M  V30 2947 H 284.287 2.95142 2.76899 0
M  V30 2948 H 281.042 4.50074 1.47413 0
M  V30 2949 H 281.466 6.76813 0.159207 0
M  V30 2950 H 286.108 4.05564 1.19489 0
M  V30 2951 H 283.826 8.04264 -0.786499 0
M  V30 2952 H 287.412 5.81779 0.0495613 0
M  V30 2953 H 286.292 7.78702 -0.926958 0
M  V30 2954 N 283.795 -0.628877 1.44509 0
M  V30 2955 C 285.072 -1.38733 1.37886 0
M  V30 2956 C 285.452 -2.11065 0.0387008 0
M  V30 2957 O 284.8 -2.06476 -0.97878 0
M  V30 2958 C 285.01 -2.35188 2.57852 0
M  V30 2959 C 286.358 -2.9845 3.02014 0
M  V30 2960 O 287.382 -2.45513 2.58073 0
M  V30 2961 O 286.241 -3.94487 3.78209 0
M  V30 2962 H 283.335 -0.621015 0.54614 0
M  V30 2963 H 285.881 -0.653744 1.56602 0
M  V30 2964 H 284.653 -1.80855 3.46998 0
M  V30 2965 H 284.276 -3.1596 2.4136 0
M  V30 2966 N 285.273 -1.31445 -0.869486 0
M  V30 2967 C 286.203 -1.21727 -1.99261 0
M  V30 2968 C 287.184 -0.104359 -1.6978 0
M  V30 2969 O 288.369 -0.289038 -1.92037 0
M  V30 2970 C 285.499 -0.924317 -3.34774 0
M  V30 2971 C 284.453 -1.99685 -3.78563 0
M  V30 2972 C 283.779 -1.55658 -5.11541 0
M  V30 2973 C 285.079 -3.41003 -3.95619 0
M  V30 2974 H 286.773 -2.1569 -2.07649 0
M  V30 2975 H 284.319 -1.03839 -0.997675 0
M  V30 2976 H 286.272 -0.842934 -4.12883 0
M  V30 2977 H 284.996 0.0509793 -3.2656 0
M  V30 2978 H 283.655 -2.06813 -3.02694 0
M  V30 2979 H 283.303 -0.569132 -4.9977 0
M  V30 2980 H 283.003 -2.27409 -5.41811 0
M  V30 2981 H 284.527 -1.48928 -5.92159 0
M  V30 2982 H 285.941 -3.36547 -4.64122 0
M  V30 2983 H 284.338 -4.10975 -4.37286 0
M  V30 2984 H 285.408 -3.81754 -2.98985 0
M  V30 2985 N 286.751 1.08385 -1.14413 0
M  V30 2986 C 287.714 2.13486 -0.834048 0
M  V30 2987 C 288.714 1.59988 0.161418 0
M  V30 2988 O 289.904 1.74071 -0.0669575 0
M  V30 2989 C 287.036 3.4003 -0.243354 0
M  V30 2990 H 288.229 2.42425 -1.7655 0
M  V30 2991 H 285.782 1.24101 -0.950189 0
M  V30 2992 H 286.517 3.16726 0.696807 0
M  V30 2993 H 286.302 3.80157 -0.960367 0
M  V30 2994 H 287.792 4.17577 -0.0436242 0
M  V30 2995 N 288.23 0.939286 1.26551 0
M  V30 2996 C 289.478 0.58469 1.93457 0
M  V30 2997 C 289.799 -0.878774 1.74076 0
M  V30 2998 O 289.069 -1.62421 1.09528 0
M  V30 2999 H 287.649 0.21325 0.715914 0
M  V30 3000 H 290.311 1.1942 1.54029 0
M  V30 3001 H 289.407 0.800849 3.0165 0
M  V30 3002 N 289.708 -1.40897 0.706093 0
M  V30 3003 C 290.656 -2.32572 0.0361893 0
M  V30 3004 C 291.65 -1.51532 -0.757266 0
M  V30 3005 O 292.856 -1.67396 -0.661703 0
M  V30 3006 H 289.231 -0.751966 -0.00709935 0
M  V30 3007 H 291.202 -2.86733 0.826249 0
M  V30 3008 C 289.951 -3.36418 -0.87854 0
M  V30 3009 H 289.274 -3.98836 -0.277401 0
M  V30 3010 H 290.714 -4.0308 -1.3154 0
M  V30 3011 C 289.173 -2.71141 -1.99961 0
M  V30 3012 O 289.703 -2.56735 -3.0895 0
M  V30 3013 N 287.909 -2.29671 -1.78043 0
M  V30 3014 H 287.456 -2.41588 -0.894042 0
M  V30 3015 H 287.414 -1.86332 -2.53235 0
M  V30 3016 N 291.186 -0.45159 -1.50991 0
M  V30 3017 C 292.602 -0.104647 -1.59257 0
M  V30 3018 C 292.802 1.38728 -1.4614 0
M  V30 3019 O 291.858 2.15866 -1.30989 0
M  V30 3020 C 293.171 -0.637468 -2.93865 0
M  V30 3021 C 294.719 -0.599166 -3.07212 0
M  V30 3022 C 295.194 -1.1092 -4.44366 0
M  V30 3023 N 296.685 -1.06778 -4.50725 0
M  V30 3024 C 297.42 -1.43314 -5.55201 0
M  V30 3025 N 296.916 -1.87204 -6.67028 0
M  V30 3026 N 298.709 -1.3504 -5.45638 0
M  V30 3027 H 290.86 -1.42214 -1.57762 0
M  V30 3028 H 293.123 -0.586921 -0.744465 0
M  V30 3029 H 292.829 -1.68187 -3.08879 0
M  V30 3030 H 292.703 -0.0702139 -3.77135 0
M  V30 3031 H 295.09 0.436277 -2.91857 0
M  V30 3032 H 295.171 -1.20299 -2.25747 0
M  V30 3033 H 294.815 -2.14318 -4.60467 0
M  V30 3034 H 294.745 -0.481773 -5.24392 0
M  V30 3035 H 297.236 -0.745643 -3.70471 0
M  V30 3036 H 297.549 -2.13282 -7.42786 0
M  V30 3037 H 295.894 -1.91142 -6.68199 0
M  V30 3038 H 299.085 -1.00607 -4.57161 0
M  V30 3039 H 299.258 -1.63841 -6.26945 0
M  V30 3040 N 292.664 1.56529 -0.183458 0
M  V30 3041 C 293.627 2.17324 0.728223 0
M  V30 3042 C 294.627 1.12453 1.14939 0
M  V30 3043 O 295.817 1.37902 1.06437 0
M  V30 3044 C 292.949 2.76591 1.99274 0
M  V30 3045 H 294.142 2.99241 0.198772 0
M  V30 3046 H 291.695 1.5616 0.0661391 0
M  V30 3047 H 292.43 1.98441 2.56499 0
M  V30 3048 H 292.215 3.5335 1.69959 0
M  V30 3049 H 293.705 3.23311 2.6431 0
M  V30 3050 N 294.142 -0.090211 1.57342 0
M  V30 3051 C 295.39 -0.791241 1.85967 0
M  V30 3052 C 295.711 -1.7903 0.772859 0
M  V30 3053 O 294.981 -1.94872 -0.200398 0
M  V30 3054 H 293.561 -0.295205 0.686195 0
M  V30 3055 H 296.223 -0.0706782 1.94772 0
M  V30 3056 H 295.319 -1.31882 2.82867 0
M  V30 3057 N 295.62 -1.53406 -0.361157 0
M  V30 3058 C 297.031 -1.61442 -0.937728 0
M  V30 3059 C 297.382 -0.48461 -1.90121 0
M  V30 3060 O 296.507 0.388312 -2.12888 0
M  V30 3061 C 297.102 -2.92624 -1.70753 0
M  V30 3062 C 295.661 -3.02981 -2.23337 0
M  V30 3063 C 294.808 -2.5677 -1.04712 0
M  V30 3064 H 297.759 -1.58083 -0.139816 0
M  V30 3065 H 297.78 -2.80675 -2.56908 0
M  V30 3066 H 297.292 -3.74834 -1.00604 0
M  V30 3067 H 295.393 -2.25368 -2.96715 0
M  V30 3068 H 295.506 -4.0814 -2.50916 0
M  V30 3069 H 293.87 -2.11752 -1.41539 0
M  V30 3070 H 294.653 -3.41402 -0.360539 0
M  V30 3071 N 297.098 0.621204 -1.44841 0
M  V30 3072 C 298.509 1.20298 -1.42777 0
M  V30 3073 C 298.86 1.95639 -0.148259 0
M  V30 3074 O 297.985 2.02955 0.750892 0
M  V30 3075 C 298.58 2.1882 -2.58657 0
M  V30 3076 C 297.139 2.72403 -2.59756 0
M  V30 3077 C 296.286 1.4757 -2.34773 0
M  V30 3078 H 299.237 0.411297 -1.53278 0
M  V30 3079 H 299.258 3.01607 -2.31977 0
M  V30 3080 H 298.77 1.63957 -3.51766 0
M  V30 3081 H 296.871 3.31242 -1.70615 0
M  V30 3082 H 296.984 3.17765 -3.58556 0
M  V30 3083 H 295.348 1.76051 -1.8406 0
M  V30 3084 H 296.131 0.945954 -3.3001 0
M  V30 3085 N 298.576 1.31904 0.862503 0
M  V30 3086 C 299.801 1.25135 1.65397 0
M  V30 3087 C 300.226 -0.179 1.87246 0
M  V30 3088 O 299.584 -1.1277 1.4196 0
M  V30 3089 C 299.632 2.00832 2.99498 0
M  V30 3090 O 298.736 1.35075 3.89652 0
M  V30 3091 H 298.077 0.431655 0.504549 0
M  V30 3092 H 300.607 1.74094 1.07483 0
M  V30 3093 H 300.617 2.10709 3.49379 0
M  V30 3094 H 299.292 3.04847 2.82916 0
M  V30 3095 H 297.869 1.33696 3.48109 0
M  V30 3096 N 300.054 -1.07777 1.14986 0
M  V30 3097 C 301.303 -1.79669 0.916617 0
M  V30 3098 C 301.616 -1.87474 -0.557917 0
M  V30 3099 O 302.822 -2.55845 -0.908617 0
M  V30 3100 C 301.278 -3.22848 1.59051 0
M  V30 3101 C 300.886 -3.23257 3.10176 0
M  V30 3102 C 302.63 -3.99379 1.43864 0
M  V30 3103 C 300.537 -4.61063 3.70372 0
M  V30 3104 H 299.467 -0.673349 0.33929 0
M  V30 3105 H 302.118 -1.21003 1.37951 0
M  V30 3106 H 300.5 -3.8168 1.0553 0
M  V30 3107 H 301.674 -2.74095 3.70417 0
M  V30 3108 H 299.989 -2.60222 3.25074 0
M  V30 3109 H 302.586 -5.0122 1.86232 0
M  V30 3110 H 302.929 -4.14511 0.385564 0
M  V30 3111 H 303.462 -3.47032 1.94457 0
M  V30 3112 H 300.201 -4.51135 4.7556 0
M  V30 3113 H 299.721 -5.1048 3.14913 0
M  V30 3114 H 301.4 -5.30034 3.71043 0
M  V30 3115 N 301.532 -0.945985 -1.26051 0
M  V30 3116 C 302.495 -0.463897 -2.24456 0
M  V30 3117 C 303.495 0.427655 -1.55009 0
M  V30 3118 O 304.685 0.226157 -1.72726 0
M  V30 3119 C 301.817 0.330812 -3.39291 0
M  V30 3120 H 303.01 -1.33357 -2.68619 0
M  V30 3121 H 300.563 -0.728416 -1.38289 0
M  V30 3122 H 301.298 1.21852 -3.00537 0
M  V30 3123 H 301.083 -0.308679 -3.90883 0
M  V30 3124 H 302.573 0.657865 -4.12386 0
M  V30 3125 N 303.011 1.40521 -0.713556 0
M  V30 3126 C 304.427 1.54839 -0.386907 0
M  V30 3127 C 304.627 1.68532 1.1045 0
M  V30 3128 O 303.683 1.67377 1.89053 0
M  V30 3129 C 304.996 2.77792 -1.15118 0
M  V30 3130 C 306.544 2.91607 -1.13729 0
M  V30 3131 C 307.019 4.1747 -1.88368 0
M  V30 3132 N 308.51 4.24466 -1.85427 0
M  V30 3133 C 309.245 5.20755 -2.40004 0
M  V30 3134 N 308.741 6.22965 -3.03129 0
M  V30 3135 N 310.534 5.1282 -2.30158 0
M  V30 3136 H 302.685 1.29879 -1.68063 0
M  V30 3137 H 304.948 0.627896 -0.710247 0
M  V30 3138 H 304.654 2.73944 -2.20561 0
M  V30 3139 H 304.528 3.6984 -0.741477 0
M  V30 3140 H 306.915 2.94959 -0.0910608 0
M  V30 3141 H 306.996 2.00682 -1.5862 0
M  V30 3142 H 306.64 4.1488 -2.9298 0
M  V30 3143 H 306.57 5.074 -1.40898 0
M  V30 3144 H 309.061 3.51241 -1.3942 0
M  V30 3145 H 309.374 6.92859 -3.42295 0
M  V30 3146 H 307.719 6.23415 -3.07212 0
M  V30 3147 H 310.91 4.31899 -1.80501 0
M  V30 3148 H 311.083 5.87689 -2.72993 0
M  V30 3149 N 304.489 0.459591 1.5075 0
M  V30 3150 C 305.452 -0.329093 2.26825 0
M  V30 3151 C 306.452 -0.930481 1.31144 0
M  V30 3152 O 307.642 -0.801453 1.54669 0
M  V30 3153 C 304.774 -1.46768 3.07688 0
M  V30 3154 H 305.967 0.337924 2.9799 0
M  V30 3155 H 303.52 0.213336 1.54837 0
M  V30 3156 H 304.255 -2.17009 2.40993 0
M  V30 3157 H 304.04 -1.04238 3.77991 0
M  V30 3158 H 305.53 -2.02433 3.65254 0
M  V30 3159 N 305.967 -1.56429 0.191757 0
M  V30 3160 C 307.213 -1.97777 -0.448554 0
M  V30 3161 C 307.546 -1.07847 -1.61501 0
M  V30 3162 O 306.821 -0.129774 -1.94067 0
M  V30 3163 C 307.104 -3.48362 -0.911906 0
M  V30 3164 C 306.957 -4.4907 0.256136 0
M  V30 3165 C 308.276 -4.02561 -1.77857 0
M  V30 3166 H 305.395 -0.719071 -0.161572 0
M  V30 3167 H 308.037 -1.87896 0.282007 0
M  V30 3168 H 306.187 -3.56914 -1.53442 0
M  V30 3169 H 307.859 -4.5256 0.893733 0
M  V30 3170 H 306.102 -4.24181 0.908436 0
M  V30 3171 H 306.773 -5.51889 -0.11053 0
M  V30 3172 H 309.249 -3.96767 -1.25359 0
M  V30 3173 H 308.125 -5.08301 -2.07174 0
M  V30 3174 H 308.386 -3.47616 -2.73158 0
M  V30 3175 N 307.445 0.0818655 -1.57387 0
M  V30 3176 C 308.67 0.799946 -1.91352 0
M  V30 3177 C 309.095 1.70833 -0.787258 0
M  V30 3178 O 308.453 1.79419 0.26048 0
M  V30 3179 C 308.501 1.57812 -3.24234 0
M  V30 3180 O 307.605 2.68806 -3.12757 0
M  V30 3181 H 306.946 0.21891 -0.626877 0
M  V30 3182 H 309.476 0.0531256 -2.04531 0
M  V30 3183 H 309.486 1.95952 -3.57864 0
M  V30 3184 H 308.161 0.911548 -4.05788 0
M  V30 3185 H 306.738 2.33597 -2.90666 0
M  V30 3186 N 308.923 1.53595 0.353017 0
M  V30 3187 C 309.87 1.80919 1.43308 0
M  V30 3188 C 310.84 0.654288 1.5267 0
M  V30 3189 O 312.025 0.897759 1.6836 0
M  V30 3190 C 309.165 2.01605 2.80089 0
M  V30 3191 C 308.278 3.29321 2.79593 0
M  V30 3192 C 307.413 3.40125 4.0803 0
M  V30 3193 C 306.452 4.61826 4.01725 0
M  V30 3194 N 305.589 4.69716 5.21834 0
M  V30 3195 H 310.429 2.73074 1.19308 0
M  V30 3196 H 307.966 1.35263 0.578131 0
M  V30 3197 H 309.924 2.11586 3.59565 0
M  V30 3198 H 308.554 1.12772 3.0246 0
M  V30 3199 H 307.606 3.28229 1.92276 0
M  V30 3200 H 308.918 4.18884 2.70809 0
M  V30 3201 H 308.072 3.49488 4.95927 0
M  V30 3202 H 306.811 2.48601 4.19582 0
M  V30 3203 H 305.816 4.52552 3.12213 0
M  V30 3204 H 307.041 5.54705 3.91764 0
M  V30 3205 H 304.987 3.81097 5.33948 0
M  V30 3206 H 304.904 5.53202 5.1527 0
M  V30 3207 H 306.172 4.83376 6.11529 0
M  V30 3208 N 310.401 -0.613514 1.45168 0
M  V30 3209 C 311.647 -1.37471 1.49096 0
M  V30 3210 C 311.98 -1.93765 0.129901 0
M  V30 3211 O 311.255 -1.74707 -0.854858 0
M  V30 3212 C 311.538 -2.52701 2.56542 0
M  V30 3213 C 311.391 -2.01643 4.0207 0
M  V30 3214 C 312.71 -3.54849 2.60327 0
M  V30 3215 H 309.829 -0.498502 0.54283 0
M  V30 3216 H 312.471 -0.692125 1.76945 0
M  V30 3217 H 310.621 -3.10931 2.32926 0
M  V30 3218 H 312.293 -1.48108 4.36877 0
M  V30 3219 H 310.536 -1.32688 4.13009 0
M  V30 3220 H 311.207 -2.84681 4.72928 0
M  V30 3221 H 313.683 -3.0645 2.81474 0
M  V30 3222 H 312.559 -4.32973 3.37381 0
M  V30 3223 H 312.82 -4.10079 1.6519 0
M  V30 3224 N 311.879 -1.3236 -0.855495 0
M  V30 3225 C 313.128 -1.22226 -1.60448 0
M  V30 3226 C 313.441 0.214733 -1.94418 0
M  V30 3227 O 314.647 0.437917 -2.67945 0
M  V30 3228 C 313.103 -2.14063 -2.89318 0
M  V30 3229 C 312.711 -3.62839 -2.62777 0
M  V30 3230 C 314.455 -2.12764 -3.67331 0
M  V30 3231 C 312.362 -4.4664 -3.87643 0
M  V30 3232 H 311.292 -0.453904 -0.602069 0
M  V30 3233 H 313.943 -1.57314 -0.944698 0
M  V30 3234 H 312.325 -1.71889 -3.5675 0
M  V30 3235 H 313.499 -4.1335 -2.03662 0
M  V30 3236 H 311.814 -3.66261 -1.98096 0
M  V30 3237 H 314.411 -2.72611 -4.59987 0
M  V30 3238 H 314.754 -1.11841 -4.00995 0
M  V30 3239 H 315.287 -2.53214 -3.06802 0
M  V30 3240 H 312.026 -5.48373 -3.5912 0
M  V30 3241 H 311.546 -4.0088 -4.46156 0
M  V30 3242 H 313.225 -4.59597 -4.55389 0
M  V30 3243 N 313.357 1.07166 -1.15556 0
M  V30 3244 C 314.32 2.12589 -0.856644 0
M  V30 3245 C 315.32 1.6015 0.14444 0
M  V30 3246 O 316.51 1.7399 -0.0854163 0
M  V30 3247 C 313.642 3.39753 -0.279405 0
M  V30 3248 H 314.835 2.40539 -1.79112 0
M  V30 3249 H 312.388 1.23086 -0.963298 0
M  V30 3250 H 313.123 3.17447 0.663174 0
M  V30 3251 H 312.908 3.79117 -1.00063 0
M  V30 3252 H 314.398 4.17507 -0.0879113 0
M  V30 3253 N 314.835 0.952656 1.25548 0
M  V30 3254 C 315.745 0.47782 2.29682 0
M  V30 3255 C 316.761 -0.453859 1.67977 0
M  V30 3256 O 317.937 -0.330587 1.98668 0
M  V30 3257 C 315.002 -0.238655 3.45878 0
M  V30 3258 C 314.063 0.730994 4.23031 0
M  V30 3259 C 313.296 0.0486165 5.33678 0
M  V30 3260 O 313.519 -1.16612 5.58353 0
M  V30 3261 O 312.453 0.733152 5.97418 0
M  V30 3262 H 316.279 1.34312 2.72386 0
M  V30 3263 H 313.864 0.719026 1.30959 0
M  V30 3264 H 315.746 -0.641774 4.16484 0
M  V30 3265 H 314.421 -1.07916 3.05181 0
M  V30 3266 H 313.328 1.18428 3.5486 0
M  V30 3267 H 314.661 1.53946 4.67506 0
M  V30 3268 N 316.313 -1.40141 0.720998 0
M  V30 3269 C 317.276 -2.29058 0.0805834 0
M  V30 3270 C 318.276 -1.45632 -0.681758 0
M  V30 3271 O 319.466 -1.6648 -0.512856 0
M  V30 3272 C 316.598 -3.28925 -0.895593 0
M  V30 3273 H 317.791 -2.87191 0.863793 0
M  V30 3274 H 315.344 -1.48553 0.485975 0
M  V30 3275 H 316.079 -2.75822 -1.70566 0
M  V30 3276 H 315.864 -3.90519 -0.351766 0
M  V30 3277 H 317.354 -3.95494 -1.34069 0
M  V30 3278 N 317.792 -0.46758 -1.50504 0
M  V30 3279 C 319.069 0.15003 -1.95024 0
M  V30 3280 C 319.449 1.57304 -1.40779 0
M  V30 3281 O 318.797 2.20281 -0.607319 0
M  V30 3282 C 319.007 0.0969324 -3.48865 0
M  V30 3283 C 320.355 0.287565 -4.23625 0
M  V30 3284 O 321.379 0.173678 -3.55776 0
M  V30 3285 O 320.238 0.517186 -5.44047 0
M  V30 3286 H 317.332 0.113582 -0.819163 0
M  V30 3287 H 319.878 -0.52773 -1.61286 0
M  V30 3288 H 318.65 -0.896732 -3.80886 0
M  V30 3289 H 318.273 0.816303 -3.8913 0
M  V30 3290 N 319.27 1.56325 -0.20005 0
M  V30 3291 C 320.516 1.98012 0.438059 0
M  V30 3292 C 320.849 1.08702 1.60927 0
M  V30 3293 O 320.124 0.140064 1.93995 0
M  V30 3294 C 320.407 3.48841 0.893419 0
M  V30 3295 C 320.26 4.48928 -0.279947 0
M  V30 3296 C 321.579 4.03498 1.75719 0
M  V30 3297 H 318.698 0.719918 0.157757 0
M  V30 3298 H 321.34 1.87743 -0.291968 0
M  V30 3299 H 319.49 3.57723 1.51547 0
M  V30 3300 H 321.162 4.52079 -0.91772 0
M  V30 3301 H 319.405 4.23694 -0.930919 0
M  V30 3302 H 320.076 5.5194 0.0812601 0
M  V30 3303 H 322.552 3.97427 1.23253 0
M  V30 3304 H 321.428 5.09393 2.04476 0
M  V30 3305 H 321.689 3.4906 2.71311 0
M  V30 3306 N 320.748 -0.0735177 1.57428 0
M  V30 3307 C 322.164 -0.428264 1.53747 0
M  V30 3308 C 322.364 -1.79272 0.91998 0
M  V30 3309 O 321.42 -2.47051 0.521745 0
M  V30 3310 C 322.733 -0.370914 2.98404 0
M  V30 3311 C 324.281 -0.451224 3.0973 0
M  V30 3312 C 324.756 -0.4238 4.56035 0
M  V30 3313 N 326.247 -0.483925 4.60665 0
M  V30 3314 C 326.982 -0.484891 5.71346 0
M  V30 3315 N 326.478 -0.440775 6.91396 0
M  V30 3316 N 328.271 -0.531319 5.59583 0
M  V30 3317 H 320.422 0.819949 1.95935 0
M  V30 3318 H 322.685 0.307493 0.896745 0
M  V30 3319 H 322.391 0.564956 3.47133 0
M  V30 3320 H 322.265 -1.18176 3.5821 0
M  V30 3321 H 324.652 -1.37752 2.60976 0
M  V30 3322 H 324.733 0.388167 2.52838 0
M  V30 3323 H 324.377 0.498638 5.05446 0
M  V30 3324 H 324.307 -1.2807 5.10789 0
M  V30 3325 H 326.798 -0.522338 3.74273 0
M  V30 3326 H 327.111 -0.44539 7.71515 0
M  V30 3327 H 325.456 -0.40749 6.93804 0
M  V30 3328 H 328.647 -0.563464 4.64696 0
M  V30 3329 H 328.82 -0.528603 6.4584 0
M  V30 3330 N 322.226 -1.5378 -0.344866 0
M  V30 3331 C 323.503 -1.61589 -1.10219 0
M  V30 3332 C 323.883 -0.436316 -2.06542 0
M  V30 3333 O 323.231 0.571543 -2.21237 0
M  V30 3334 C 323.441 -2.97602 -1.82301 0
M  V30 3335 C 324.789 -3.5291 -2.36093 0
M  V30 3336 O 325.813 -2.99768 -1.924 0
M  V30 3337 O 324.672 -4.45859 -3.16026 0
M  V30 3338 H 321.766 -0.653522 -0.506792 0
M  V30 3339 H 324.312 -1.66126 -0.346465 0
M  V30 3340 H 323.084 -3.74893 -1.12121 0
M  V30 3341 H 322.707 -2.9665 -2.64735 0
M  V30 3342 N 323.704 0.605807 -1.45491 0
M  V30 3343 C 324.95 1.36679 -1.49823 0
M  V30 3344 C 325.283 1.93693 -0.140175 0
M  V30 3345 O 324.558 1.75158 0.845581 0
M  V30 3346 C 324.841 2.51337 -2.57879 0
M  V30 3347 C 324.694 1.99508 -4.03134 0
M  V30 3348 C 326.013 3.53463 -2.62205 0
M  V30 3349 H 323.132 0.495617 -0.545466 0
M  V30 3350 H 325.774 0.682732 -1.7731 0
M  V30 3351 H 323.924 3.09691 -2.34571 0
M  V30 3352 H 325.596 1.45789 -4.37656 0
M  V30 3353 H 323.839 1.30496 -4.13707 0
M  V30 3354 H 324.51 2.82169 -4.74431 0
M  V30 3355 H 326.986 3.04953 -2.83095 0
M  V30 3356 H 325.862 4.31178 -3.39672 0
M  V30 3357 H 326.123 4.09197 -1.67363 0
M  V30 3358 N 325.182 1.32811 0.848464 0
M  V30 3359 C 326.112 1.24882 1.97299 0
M  V30 3360 C 327.093 0.131357 1.69592 0
M  V30 3361 O 328.278 0.319553 1.91553 0
M  V30 3362 C 325.408 0.97746 3.33261 0
M  V30 3363 C 324.362 2.05682 3.75338 0
M  V30 3364 C 323.688 1.63777 5.09 0
M  V30 3365 C 324.988 3.47254 3.90144 0
M  V30 3366 H 326.682 2.18966 2.04191 0
M  V30 3367 H 324.228 1.05413 0.981029 0
M  V30 3368 H 326.181 0.908513 4.1149 0
M  V30 3369 H 324.905 0.000980011 3.266 0
M  V30 3370 H 323.564 2.11603 2.99366 0
M  V30 3371 H 323.212 0.648569 4.98801 0
M  V30 3372 H 322.912 2.36 5.38124 0
M  V30 3373 H 324.436 1.5833 5.89715 0
M  V30 3374 H 325.85 3.43888 4.58709 0
M  V30 3375 H 324.247 4.1788 4.30693 0
M  V30 3376 H 325.317 3.86462 2.92874 0
M  V30 3377 N 326.66 -1.06551 1.16123 0
M  V30 3378 C 327.908 -1.78947 0.939267 0
M  V30 3379 C 328.229 -1.87532 -0.534476 0
M  V30 3380 O 327.499 -1.38211 -1.38833 0
M  V30 3381 H 326.079 -0.662807 0.344523 0
M  V30 3382 H 328.741 -1.28725 1.46342 0
M  V30 3383 H 327.837 -2.81117 1.35572 0
M  V30 3384 N 328.138 -0.959301 -1.25041 0
M  V30 3385 C 329.088 -0.453888 -2.23436 0
M  V30 3386 C 330.072 0.459461 -1.542 0
M  V30 3387 O 331.264 0.291752 -1.74579 0
M  V30 3388 C 328.393 0.262667 -3.42294 0
M  V30 3389 C 327.479 -0.669022 -4.1879 0
M  V30 3390 N 327.87 -1.80267 -4.72586 0
M  V30 3391 C 326.168 -0.47814 -4.4343 0
M  V30 3392 C 326.869 -2.38475 -5.3057 0
M  V30 3393 N 325.845 -1.67078 -5.17287 0
M  V30 3394 H 329.647 -1.319 -2.6264 0
M  V30 3395 H 327.161 -0.817358 -1.40332 0
M  V30 3396 H 329.158 0.641911 -4.11929 0
M  V30 3397 H 327.818 1.12432 -3.04613 0
M  V30 3398 H 328.829 -2.18442 -4.69578 0
M  V30 3399 H 325.506 0.340249 -4.16111 0
M  V30 3400 H 326.896 -3.34094 -5.8295 0
M  V30 3401 N 329.616 1.39756 -0.72842 0
M  V30 3402 C 330.865 1.99879 -0.270407 0
M  V30 3403 C 331.178 1.58449 1.14688 0
M  V30 3404 O 332.384 2.11362 1.70407 0
M  V30 3405 C 330.84 3.57292 -0.43252 0
M  V30 3406 C 330.448 4.07688 -1.85727 0
M  V30 3407 C 332.192 4.24485 -0.0359507 0
M  V30 3408 C 330.099 5.5765 -1.96928 0
M  V30 3409 H 329.029 0.747689 -0.0973472 0
M  V30 3410 H 331.68 1.59837 -0.901355 0
M  V30 3411 H 330.062 3.95097 0.267219 0
M  V30 3412 H 331.236 3.81231 -2.58843 0
M  V30 3413 H 329.551 3.53135 -2.20646 0
M  V30 3414 H 332.148 5.34609 -0.0987484 0
M  V30 3415 H 332.491 4.03915 1.00787 0
M  V30 3416 H 333.024 3.9183 -0.686604 0
M  V30 3417 H 329.763 5.8309 -2.99476 0
M  V30 3418 H 329.283 5.8593 -1.28241 0
M  V30 3419 H 330.962 6.22957 -1.74737 0
M  V30 3420 N 331.094 0.475555 1.50254 0
M  V30 3421 C 332.004 -0.321501 2.32387 0
M  V30 3422 C 333.02 -0.991755 1.42969 0
M  V30 3423 O 334.196 -0.978747 1.76018 0
M  V30 3424 C 331.261 -1.38667 3.17762 0
M  V30 3425 C 330.322 -0.732538 4.23004 0
M  V30 3426 C 329.555 -1.74695 5.04299 0
M  V30 3427 O 329.778 -2.97399 4.86734 0
M  V30 3428 O 328.712 -1.31631 5.8733 0
M  V30 3429 H 332.538 0.350071 3.01676 0
M  V30 3430 H 330.123 0.237321 1.47503 0
M  V30 3431 H 332.005 -2.00354 3.70724 0
M  V30 3432 H 330.68 -2.04163 2.51196 0
M  V30 3433 H 329.587 -0.0765902 3.74022 0
M  V30 3434 H 330.92 -0.120452 4.92053 0
M  V30 3435 N 332.573 -1.56217 0.208337 0
M  V30 3436 C 333.536 -2.18455 -0.693557 0
M  V30 3437 C 334.536 -1.14268 -1.13135 0
M  V30 3438 O 335.726 -1.39577 -1.0423 0
M  V30 3439 C 332.858 -2.79727 -1.94848 0
M  V30 3440 H 334.051 -2.99519 -0.15114 0
M  V30 3441 H 331.604 -1.56245 -0.041287 0
M  V30 3442 H 332.339 -2.02497 -2.53309 0
M  V30 3443 H 332.124 -3.56009 -1.64316 0
M  V30 3444 H 333.614 -3.27475 -2.59133 0
M  V30 3445 N 334.051 0.0651679 -1.57465 0
M  V30 3446 C 335.462 0.616213 -1.76238 0
M  V30 3447 C 335.813 1.7756 -0.834689 0
M  V30 3448 O 334.938 2.1639 -0.0204156 0
M  V30 3449 C 335.533 1.12462 -3.1959 0
M  V30 3450 C 334.092 1.62147 -3.39684 0
M  V30 3451 C 333.239 0.543739 -2.71917 0
M  V30 3452 H 336.19 -0.161022 -1.57881 0
M  V30 3453 H 336.211 1.99324 -3.24114 0
M  V30 3454 H 335.723 0.280592 -3.87084 0
M  V30 3455 H 333.824 2.48854 -2.77313 0
M  V30 3456 H 333.937 1.69385 -4.48158 0
M  V30 3457 H 332.301 0.990352 -2.34657 0
M  V30 3458 H 333.084 -0.290216 -3.42071 0
M  V30 3459 N 335.529 1.53961 0.336706 0
M  V30 3460 C 336.757 1.75483 1.09605 0
M  V30 3461 C 337.172 0.4972 1.82136 0
M  V30 3462 O 336.529 -0.53149 1.74589 0
M  V30 3463 C 336.58 2.93943 2.10428 0
M  V30 3464 O 336.301 4.14842 1.40846 0
M  V30 3465 C 337.802 3.27571 2.98684 0
M  V30 3466 H 335.022 0.586166 0.326574 0
M  V30 3467 H 337.566 2.00808 0.38683 0
M  V30 3468 H 335.721 2.70929 2.76905 0
M  V30 3469 H 336.135 4.81383 2.08255 0
M  V30 3470 H 337.609 4.13791 3.6535 0
M  V30 3471 H 338.086 2.44168 3.65074 0
M  V30 3472 H 338.692 3.52615 2.37787 0
M  V30 3473 N 337.007 -0.598083 1.45811 0
M  V30 3474 C 337.937 -1.71873 1.58057 0
M  V30 3475 C 338.918 -1.64533 0.431615 0
M  V30 3476 O 340.103 -1.82787 0.65595 0
M  V30 3477 C 337.233 -3.10495 1.55597 0
M  V30 3478 C 336.187 -3.32654 2.69305 0
M  V30 3479 C 335.513 -4.71646 2.51902 0
M  V30 3480 C 336.813 -3.21981 4.11248 0
M  V30 3481 H 338.507 -1.61881 2.51863 0
M  V30 3482 H 336.053 -0.777372 1.21214 0
M  V30 3483 H 338.006 -3.88699 1.6276 0
M  V30 3484 H 336.73 -3.2135 0.583255 0
M  V30 3485 H 335.389 -2.56843 2.61586 0
M  V30 3486 H 335.037 -4.79246 1.52748 0
M  V30 3487 H 334.737 -4.87426 3.2816 0
M  V30 3488 H 336.261 -5.52038 2.60933 0
M  V30 3489 H 337.675 -3.90049 4.20161 0
M  V30 3490 H 336.072 -3.49289 4.87972 0
M  V30 3491 H 337.142 -2.1928 4.32486 0
M  V30 3492 N 338.485 -1.33259 -0.841409 0
M  V30 3493 C 339.734 -1.23921 -1.59143 0
M  V30 3494 C 340.047 0.1941 -1.94635 0
M  V30 3495 O 341.253 0.409474 -2.68394 0
M  V30 3496 C 339.709 -2.17119 -2.87032 0
M  V30 3497 C 339.317 -3.65606 -2.58914 0
M  V30 3498 C 341.061 -2.16648 -3.65053 0
M  V30 3499 C 338.968 -4.50726 -3.82884 0
M  V30 3500 H 337.898 -0.460264 -0.597221 0
M  V30 3501 H 340.549 -1.58307 -0.927959 0
M  V30 3502 H 338.931 -1.75663 -3.54906 0
M  V30 3503 H 340.105 -4.15487 -1.99267 0
M  V30 3504 H 338.42 -3.68341 -1.942 0
M  V30 3505 H 341.017 -2.77474 -4.57069 0
M  V30 3506 H 341.36 -1.16088 -3.99787 0
M  V30 3507 H 341.893 -2.56453 -3.041 0
M  V30 3508 H 338.632 -5.52151 -3.53283 0
M  V30 3509 H 338.152 -4.0559 -4.41879 0
M  V30 3510 H 339.831 -4.64401 -4.50489 0
M  V30 3511 N 339.963 1.05934 -1.16686 0
M  V30 3512 C 340.893 2.1546 -0.899949 0
M  V30 3513 C 341.874 1.69391 0.155154 0
M  V30 3514 O 343.059 1.94199 0.00648693 0
M  V30 3515 C 340.189 3.44939 -0.404241 0
M  V30 3516 C 339.143 4.04536 -1.39767 0
M  V30 3517 C 338.469 5.29268 -0.760216 0
M  V30 3518 C 339.769 4.42893 -2.76845 0
M  V30 3519 H 341.463 2.38046 -1.81588 0
M  V30 3520 H 339.009 1.14404 -0.874514 0
M  V30 3521 H 340.962 4.20901 -0.204971 0
M  V30 3522 H 339.686 3.21983 0.547206 0
M  V30 3523 H 338.345 3.30635 -1.58355 0
M  V30 3524 H 337.993 5.02611 0.197831 0
M  V30 3525 H 337.693 5.70101 -1.42332 0
M  V30 3526 H 339.217 6.07924 -0.57105 0
M  V30 3527 H 340.631 5.09921 -2.62019 0
M  V30 3528 H 339.028 4.94721 -3.39663 0
M  V30 3529 H 340.098 3.53584 -3.31823 0
M  V30 3530 N 341.441 0.965919 1.2453 0
M  V30 3531 C 342.391 0.465731 2.23193 0
M  V30 3532 C 343.375 -0.451277 1.54442 0
M  V30 3533 O 344.567 -0.282489 1.74731 0
M  V30 3534 C 341.696 -0.244511 3.42428 0
M  V30 3535 C 340.782 0.691222 4.18429 0
M  V30 3536 N 341.173 1.82771 4.71623 0
M  V30 3537 C 339.471 0.501649 4.4317 0
M  V30 3538 C 340.172 2.41285 5.29298 0
M  V30 3539 N 339.148 1.69819 5.16394 0
M  V30 3540 H 342.95 1.33291 2.61937 0
M  V30 3541 H 340.464 0.824789 1.39896 0
M  V30 3542 H 342.461 -0.620056 4.12263 0
M  V30 3543 H 341.121 -1.10815 3.05205 0
M  V30 3544 H 342.132 2.20929 4.68413 0
M  V30 3545 H 338.809 -0.318177 4.16286 0
M  V30 3546 H 340.199 3.37181 5.8117 0
M  V30 3547 N 342.919 -1.39368 0.735821 0
M  V30 3548 C 344.335 -1.54204 0.411492 0
M  V30 3549 C 344.535 -1.70268 -1.07755 0
M  V30 3550 O 343.591 -1.70364 -1.86366 0
M  V30 3551 C 344.904 -2.75925 1.19523 0
M  V30 3552 C 346.452 -2.89761 1.18354 0
M  V30 3553 C 346.927 -4.14421 1.94986 0
M  V30 3554 N 348.418 -4.21462 1.92156 0
M  V30 3555 C 349.153 -5.16871 2.48258 0
M  V30 3556 N 348.649 -6.18063 3.13001 0
M  V30 3557 N 350.442 -5.09093 2.38287 0
M  V30 3558 H 342.593 -1.27189 1.70108 0
M  V30 3559 H 344.856 -0.616517 0.720147 0
M  V30 3560 H 344.562 -2.70401 2.24892 0
M  V30 3561 H 344.436 -3.68614 0.800222 0
M  V30 3562 H 346.823 -2.94777 0.137975 0
M  V30 3563 H 346.904 -1.98133 1.61793 0
M  V30 3564 H 346.548 -4.10166 2.99543 0
M  V30 3565 H 346.478 -5.05095 1.48953 0
M  V30 3566 H 348.969 -3.48979 1.44991 0
M  V30 3567 H 349.282 -6.87326 3.53275 0
M  V30 3568 H 347.627 -6.18448 3.17091 0
M  V30 3569 H 350.818 -4.28973 1.8735 0
M  V30 3570 H 350.991 -5.83272 2.82308 0
M  V30 3571 N 344.397 -0.483516 -1.5 0
M  V30 3572 C 345.643 0.0672592 -2.02688 0
M  V30 3573 C 345.976 1.38247 -1.36387 0
M  V30 3574 O 345.251 1.88131 -0.493675 0
M  V30 3575 C 345.534 0.238109 -3.59312 0
M  V30 3576 C 345.387 -1.099 -4.36168 0
M  V30 3577 C 346.706 0.986916 -4.28892 0
M  V30 3578 H 343.825 0.0229696 -0.736642 0
M  V30 3579 H 346.467 -0.631527 -1.79197 0
M  V30 3580 H 344.617 0.8333 -3.79458 0
M  V30 3581 H 346.289 -1.73172 -4.27562 0
M  V30 3582 H 344.532 -1.69261 -3.99416 0
M  V30 3583 H 345.203 -0.932954 -5.44059 0
M  V30 3584 H 347.679 0.482302 -4.13295 0
M  V30 3585 H 346.555 1.07527 -5.38265 0
M  V30 3586 H 346.816 2.0265 -3.92919 0
M  V30 3587 N 345.875 1.56104 -0.216619 0
M  V30 3588 C 347.123 1.97781 0.415593 0
M  V30 3589 C 347.444 1.10536 1.60645 0
M  V30 3590 O 346.714 0.181303 1.95059 0
M  V30 3591 H 345.294 0.730415 0.156534 0
M  V30 3592 H 347.956 1.92445 -0.308366 0
M  V30 3593 H 347.052 3.03072 0.74525 0
M  V30 3594 N 347.353 -0.0568162 1.57498 0
M  V30 3595 C 348.578 -0.769402 1.92601 0
M  V30 3596 C 349.003 -1.69559 0.814336 0
M  V30 3597 O 348.361 -1.79811 -0.231903 0
M  V30 3598 C 348.409 -1.52634 3.26704 0
M  V30 3599 O 347.513 -2.63797 3.16994 0
M  V30 3600 H 346.854 -0.208909 0.63028 0
M  V30 3601 H 349.384 -0.0205798 2.0459 0
M  V30 3602 H 349.394 -1.90234 3.60936 0
M  V30 3603 H 348.069 -0.846875 4.07186 0
M  V30 3604 H 346.646 -2.28943 2.94346 0
M  V30 3605 N 348.832 -1.54138 -0.328536 0
M  V30 3606 C 350.06 -1.76062 -1.08673 0
M  V30 3607 C 350.475 -0.506852 -1.81869 0
M  V30 3608 O 349.832 0.522223 -1.74869 0
M  V30 3609 C 349.883 -2.95054 -2.08866 0
M  V30 3610 O 349.604 -4.15583 -1.38644 0
M  V30 3611 C 351.105 -3.2915 -2.96943 0
M  V30 3612 H 348.325 -0.587889 -0.323461 0
M  V30 3613 H 350.869 -2.0101 -0.376175 0
M  V30 3614 H 349.024 -2.72394 -2.75464 0
M  V30 3615 H 349.438 -4.82481 -2.05699 0
M  V30 3616 H 350.912 -4.15723 -3.63151 0
M  V30 3617 H 351.389 -2.461 -3.63774 0
M  V30 3618 H 351.995 -3.53871 -2.35914 0
M  V30 3619 N 350.31 0.590341 -1.46126 0
M  V30 3620 C 351.54 1.37304 -1.54373 0
M  V30 3621 C 351.948 1.88332 -0.181071 0
M  V30 3622 O 351.291 1.63852 0.830559 0
M  V30 3623 C 351.353 2.6012 -2.48149 0
M  V30 3624 C 351.017 2.30613 -3.94546 0
M  V30 3625 C 352.014 1.89915 -4.83971 0
M  V30 3626 C 349.699 2.42993 -4.39613 0
M  V30 3627 C 351.693 1.61981 -6.16475 0
M  V30 3628 C 349.38 2.14672 -5.72153 0
M  V30 3629 C 350.378 1.7423 -6.60404 0
M  V30 3630 O 350.066 1.46251 -7.90485 0
M  V30 3631 H 349.798 0.426086 -0.524811 0
M  V30 3632 H 352.352 0.72539 -1.92165 0
M  V30 3633 H 350.582 3.27664 -2.05361 0
M  V30 3634 H 352.271 3.22182 -2.46887 0
M  V30 3635 H 353.037 1.79872 -4.50412 0
M  V30 3636 H 348.916 2.73435 -3.71153 0
M  V30 3637 H 352.46 1.30341 -6.85315 0
M  V30 3638 H 348.357 2.24337 -6.05263 0
M  V30 3639 H 349.125 1.6016 -8.02677 0
M  V30 3640 N 351.788 1.33704 0.83433 0
M  V30 3641 C 353.037 1.24763 1.58484 0
M  V30 3642 C 353.35 -0.183775 1.94735 0
M  V30 3643 O 354.556 -0.395234 2.68608 0
M  V30 3644 C 353.012 2.18638 2.85876 0
M  V30 3645 C 352.62 3.66974 2.56971 0
M  V30 3646 C 354.364 2.18581 3.63899 0
M  V30 3647 C 352.271 4.5275 3.80488 0
M  V30 3648 H 351.201 0.463425 0.594772 0
M  V30 3649 H 353.852 1.58797 0.919551 0
M  V30 3650 H 352.234 1.77542 3.5397 0
M  V30 3651 H 353.408 4.16538 1.9706 0
M  V30 3652 H 351.723 3.69366 1.92244 0
M  V30 3653 H 354.32 2.79894 4.55591 0
M  V30 3654 H 354.663 1.18207 3.99165 0
M  V30 3655 H 355.196 2.58062 3.02735 0
M  V30 3656 H 351.935 5.54017 3.5035 0
M  V30 3657 H 351.455 4.07927 4.39722 0
M  V30 3658 H 353.134 4.66784 4.4802 0
M  V30 3659 N 353.266 -1.05314 1.17247 0
M  V30 3660 C 354.677 -1.59753 0.96623 0
M  V30 3661 C 355.028 -1.9005 -0.487378 0
M  V30 3662 O 354.153 -1.68126 -1.36245 0
M  V30 3663 C 354.748 -2.90249 1.74759 0
M  V30 3664 C 353.307 -3.41352 1.58606 0
M  V30 3665 C 352.454 -2.15103 1.75002 0
M  V30 3666 H 355.405 -0.881406 1.31973 0
M  V30 3667 H 355.426 -3.60097 1.22925 0
M  V30 3668 H 354.938 -2.68166 2.8055 0
M  V30 3669 H 353.039 -3.68474 0.552985 0
M  V30 3670 H 353.152 -4.16019 2.37624 0
M  V30 3671 H 351.516 -2.25804 1.17833 0
M  V30 3672 H 352.299 -1.95491 2.82202 0
M  V30 3673 N 354.744 -0.972509 -1.24016 0
M  V30 3674 C 355.99 -0.637978 -1.92504 0
M  V30 3675 C 356.323 0.825383 -1.75787 0
M  V30 3676 O 355.598 1.59442 -1.11393 0
M  V30 3677 C 355.881 -1.01942 -3.45369 0
M  V30 3678 C 355.734 -2.53983 -3.71231 0
M  V30 3679 C 357.053 -0.55751 -4.36555 0
M  V30 3680 H 354.172 -0.233248 -0.699117 0
M  V30 3681 H 356.814 -1.21238 -1.46292 0
M  V30 3682 H 354.964 -0.530656 -3.84859 0
M  V30 3683 H 356.636 -3.10374 -3.41271 0
M  V30 3684 H 354.879 -2.96968 -3.16216 0
M  V30 3685 H 355.55 -2.75723 -4.78206 0
M  V30 3686 H 358.026 -0.977029 -4.04467 0
M  V30 3687 H 356.902 -0.85292 -5.42233 0
M  V30 3688 H 357.163 0.542328 -4.38761 0
M  V30 3689 N 356.222 1.38976 -0.743202 0
M  V30 3690 C 357.47 1.99948 -0.29417 0
M  V30 3691 C 357.791 1.59279 1.12495 0
M  V30 3692 O 357.061 0.844808 1.76748 0
M  V30 3693 H 355.641 0.739473 -0.105774 0
M  V30 3694 H 358.303 1.699 -0.954986 0
M  V30 3695 H 357.399 3.10142 -0.349056 0
M  V30 3696 N 357.7 0.491464 1.49741 0
M  V30 3697 C 358.65 -0.311086 2.25868 0
M  V30 3698 C 359.634 -0.943857 1.30308 0
M  V30 3699 O 360.826 -0.853035 1.55088 0
M  V30 3700 C 357.955 -1.38059 3.14316 0
M  V30 3701 C 357.041 -0.754541 4.17334 0
M  V30 3702 N 357.432 0.137216 5.05614 0
M  V30 3703 C 355.73 -1.01621 4.34269 0
M  V30 3704 C 356.431 0.494614 5.79593 0
M  V30 3705 N 355.407 -0.135169 5.43432 0
M  V30 3706 H 359.209 0.37555 2.91491 0
M  V30 3707 H 356.723 0.306917 1.59473 0
M  V30 3708 H 358.72 -1.96891 3.67477 0
M  V30 3709 H 357.38 -2.06901 2.50244 0
M  V30 3710 H 358.391 0.50741 5.15408 0
M  V30 3711 H 355.068 -1.69808 3.81407 0
M  V30 3712 H 356.458 1.2236 6.60665 0
M  V30 3713 N 359.178 -1.55987 0.224894 0
M  V30 3714 C 360.426 -1.97998 -0.405099 0
M  V30 3715 C 360.747 -1.11387 -1.60056 0
M  V30 3716 O 360.017 -0.191645 -1.9496 0
M  V30 3717 H 358.597 -0.731235 -0.152658 0
M  V30 3718 H 361.259 -1.92279 0.318567 0
M  V30 3719 H 360.355 -3.03463 -0.729167 0
M  V30 3720 N 360.656 0.0484629 -1.57525 0
M  V30 3721 C 362.072 0.40375 -1.54409 0
M  V30 3722 C 362.272 1.77786 -0.948384 0
M  V30 3723 O 361.328 2.46189 -0.560983 0
M  V30 3724 C 362.641 0.323394 -2.98956 0
M  V30 3725 C 364.189 0.401892 -3.10409 0
M  V30 3726 C 364.664 0.351195 -4.56652 0
M  V30 3727 N 366.155 0.410576 -4.61377 0
M  V30 3728 C 366.89 0.393933 -5.72045 0
M  V30 3729 N 366.386 0.330724 -6.9201 0
M  V30 3730 N 368.179 0.442227 -5.60358 0
M  V30 3731 H 360.33 -0.851016 -1.94606 0
M  V30 3732 H 362.593 -0.321721 -0.89174 0
M  V30 3733 H 362.299 -0.62011 -3.4619 0
M  V30 3734 H 362.173 1.12463 -3.60044 0
M  V30 3735 H 364.56 1.33582 -2.63134 0
M  V30 3736 H 364.641 -0.428342 -2.52188 0
M  V30 3737 H 364.285 -0.578987 -5.04589 0
M  V30 3738 H 364.215 1.19928 -5.12762 0
M  V30 3739 H 366.706 0.462729 -3.75056 0
M  V30 3740 H 367.019 0.322592 -7.72126 0
M  V30 3741 H 365.364 0.29706 -6.94365 0
M  V30 3742 H 368.555 0.489464 -4.65534 0
M  V30 3743 H 368.728 0.425788 -6.466 0
M  V30 3744 N 362.134 1.5431 0.320358 0
M  V30 3745 C 363.364 1.7638 1.07582 0
M  V30 3746 C 363.772 0.513944 1.82086 0
M  V30 3747 O 363.115 -0.525123 1.76035 0
M  V30 3748 C 363.177 2.9055 2.1171 0
M  V30 3749 C 362.841 4.2934 1.56575 0
M  V30 3750 C 363.838 5.10077 1.00586 0
M  V30 3751 C 361.523 4.75893 1.60722 0
M  V30 3752 C 363.517 6.35477 0.494756 0
M  V30 3753 C 361.204 6.0126 1.09224 0
M  V30 3754 C 362.202 6.80886 0.53696 0
M  V30 3755 O 361.89 8.03894 0.0297371 0
M  V30 3756 H 361.622 0.592369 0.325692 0
M  V30 3757 H 364.176 2.02019 0.37116 0
M  V30 3758 H 362.406 2.60489 2.85801 0
M  V30 3759 H 364.095 3.00373 2.73003 0
M  V30 3760 H 364.861 4.75265 0.966869 0
M  V30 3761 H 360.74 4.13957 2.02882 0
M  V30 3762 H 364.284 6.97574 0.0606842 0
M  V30 3763 H 360.181 6.35562 1.12831 0
M  V30 3764 H 360.949 8.18372 0.14486 0
M  V30 3765 N 363.613 -0.582584 1.46437 0
M  V30 3766 C 364.543 -1.70187 1.59871 0
M  V30 3767 C 365.524 -1.64066 0.449042 0
M  V30 3768 O 366.709 -1.82081 0.6753 0
M  V30 3769 C 363.839 -3.08827 1.58881 0
M  V30 3770 C 362.793 -3.29779 2.72819 0
M  V30 3771 C 362.119 -4.68947 2.5689 0
M  V30 3772 C 363.419 -3.17601 4.1464 0
M  V30 3773 H 365.113 -1.592 2.53566 0
M  V30 3774 H 362.659 -0.764472 1.22032 0
M  V30 3775 H 364.612 -3.86951 1.66873 0
M  V30 3776 H 363.336 -3.20713 0.617306 0
M  V30 3777 H 361.995 -2.54054 2.64296 0
M  V30 3778 H 361.643 -4.77599 1.57823 0
M  V30 3779 H 361.343 -4.83919 3.33312 0
M  V30 3780 H 362.867 -5.4924 2.66773 0
M  V30 3781 H 364.281 -3.8557 4.24274 0
M  V30 3782 H 362.678 -3.44094 4.9165 0
M  V30 3783 H 363.748 -2.14681 4.34788 0
M  V30 3784 N 365.091 -1.34144 -0.827227 0
M  V30 3785 C 366.054 -1.25264 -1.91942 0
M  V30 3786 C 367.054 -0.168866 -1.59911 0
M  V30 3787 O 368.244 -0.421198 -1.69031 0
M  V30 3788 C 365.376 -0.932952 -3.27885 0
M  V30 3789 H 366.569 -2.22357 -2.0124 0
M  V30 3790 H 364.122 -1.1837 -1.0207 0
M  V30 3791 H 364.857 0.0349917 -3.24281 0
M  V30 3792 H 364.642 -1.71682 -3.52516 0
M  V30 3793 H 366.132 -0.895874 -4.07877 0
M  V30 3794 N 366.569 1.04691 -1.17803 0
M  V30 3795 C 367.479 2.16057 -0.914151 0
M  V30 3796 C 368.495 1.73589 0.119503 0
M  V30 3797 O 369.671 2.01308 -0.0609468 0
M  V30 3798 C 366.736 3.4394 -0.436603 0
M  V30 3799 C 365.797 4.00825 -1.53746 0
M  V30 3800 C 365.03 5.22604 -1.0826 0
M  V30 3801 O 365.253 5.70367 0.0612244 0
M  V30 3802 O 364.187 5.7186 -1.87775 0
M  V30 3803 H 368.013 2.41169 -1.84584 0
M  V30 3804 H 365.598 1.1453 -0.959334 0
M  V30 3805 H 367.48 4.21024 -0.178057 0
M  V30 3806 H 366.155 3.20316 0.466869 0
M  V30 3807 H 365.062 3.25158 -1.84995 0
M  V30 3808 H 366.395 4.28778 -2.41683 0
M  V30 3809 N 368.047 0.979072 1.23499 0
M  V30 3810 C 368.997 0.489378 2.22686 0
M  V30 3811 C 369.981 -0.434871 1.54912 0
M  V30 3812 O 371.173 -0.263941 1.75021 0
M  V30 3813 C 368.302 -0.208178 3.42668 0
M  V30 3814 C 367.388 0.735563 4.17672 0
M  V30 3815 N 367.779 1.87763 4.69658 0
M  V30 3816 C 366.077 0.548625 4.42613 0
M  V30 3817 C 366.778 2.46886 5.26709 0
M  V30 3818 N 365.754 1.75287 5.14563 0
M  V30 3819 H 369.556 1.36062 2.60508 0
M  V30 3820 H 367.07 0.83958 1.39014 0
M  V30 3821 H 369.067 -0.576295 4.12898 0
M  V30 3822 H 367.727 -1.07572 3.06363 0
M  V30 3823 H 368.738 2.25885 4.66043 0
M  V30 3824 H 365.415 -0.274006 4.166 0
M  V30 3825 H 366.805 3.43326 5.77561 0
M  V30 3826 N 369.525 -1.3858 0.750561 0
M  V30 3827 C 370.774 -1.99424 0.302172 0
M  V30 3828 C 371.087 -1.60254 -1.12152 0
M  V30 3829 O 372.293 -2.14046 -1.67023 0
M  V30 3830 C 370.749 -3.56558 0.489307 0
M  V30 3831 C 370.357 -4.04682 1.92189 0
M  V30 3832 C 372.101 -4.24374 0.103478 0
M  V30 3833 C 370.008 -5.54446 2.05775 0
M  V30 3834 H 368.938 -0.746046 0.10923 0
M  V30 3835 H 371.589 -1.58383 0.92667 0
M  V30 3836 H 369.971 -3.95472 -0.204329 0
M  V30 3837 H 371.145 -3.77065 2.64875 0
M  V30 3838 H 369.46 -3.4958 2.26236 0
M  V30 3839 H 372.057 -5.34384 0.183787 0
M  V30 3840 H 372.4 -4.05468 -0.943481 0
M  V30 3841 H 372.933 -3.90688 0.748854 0
M  V30 3842 H 369.672 -5.78252 3.08714 0
M  V30 3843 H 369.192 -5.83816 1.37546 0
M  V30 3844 H 370.871 -6.20099 1.84626 0
M  V30 3845 N 371.003 -0.499398 -1.49478 0
M  V30 3846 C 371.966 0.268838 -2.27618 0
M  V30 3847 C 372.966 0.895383 -1.33565 0
M  V30 3848 O 374.156 0.760164 -1.56739 0
M  V30 3849 C 371.288 1.38559 -3.11471 0
M  V30 3850 H 372.481 -0.416812 -2.96989 0
M  V30 3851 H 370.034 -0.254313 -1.54217 0
M  V30 3852 H 370.769 2.10544 -2.46661 0
M  V30 3853 H 370.554 0.941797 -3.80621 0
M  V30 3854 H 372.044 1.92678 -3.70493 0
M  V30 3855 N 372.481 1.55866 -0.233164 0
M  V30 3856 C 373.729 1.9821 0.394593 0
M  V30 3857 C 374.05 1.12234 1.59463 0
M  V30 3858 O 373.32 0.201981 1.94856 0
M  V30 3859 H 371.9 0.732034 0.148778 0
M  V30 3860 H 374.562 1.92107 -0.32876 0
M  V30 3861 H 373.658 3.03845 0.713063 0
M  V30 3862 N 373.959 -0.0401083 1.57549 0
M  V30 3863 C 375.184 -0.748931 1.93406 0
M  V30 3864 C 375.609 -1.68686 0.832274 0
M  V30 3865 O 374.967 -1.80047 -0.212818 0
M  V30 3866 C 375.015 -1.4916 3.28304 0
M  V30 3867 O 374.119 -2.6042 3.19774 0
M  V30 3868 H 373.46 -0.202212 0.63246 0
M  V30 3869 H 375.99 0.00112086 2.046 0
M  V30 3870 H 376 -1.86395 3.62934 0
M  V30 3871 H 374.675 -0.80364 4.08062 0
M  V30 3872 H 373.252 -2.25808 2.96758 0
M  V30 3873 N 375.437 -1.54477 -0.31217 0
M  V30 3874 C 376.853 -1.45442 -0.657185 0
M  V30 3875 C 377.053 -0.63653 -1.91182 0
M  V30 3876 O 376.109 -0.139815 -2.52113 0
M  V30 3877 C 377.422 -2.89287 -0.82058 0
M  V30 3878 C 378.97 -2.9926 -0.917188 0
M  V30 3879 C 379.445 -4.44279 -1.11267 0
M  V30 3880 N 380.936 -4.4794 -1.17914 0
M  V30 3881 C 381.671 -5.57318 -1.34848 0
M  V30 3882 N 381.167 -6.76642 -1.48752 0
M  V30 3883 N 382.96 -5.44986 -1.37647 0
M  V30 3884 H 375.111 -2.06129 0.512313 0
M  V30 3885 H 377.374 -0.933088 0.167485 0
M  V30 3886 H 377.08 -3.51687 0.0302604 0
M  V30 3887 H 376.954 -3.36061 -1.71298 0
M  V30 3888 H 379.341 -2.36981 -1.75852 0
M  V30 3889 H 379.422 -2.558 -0.00101257 0
M  V30 3890 H 379.066 -5.07149 -0.27614 0
M  V30 3891 H 378.996 -4.85359 -2.04289 0
M  V30 3892 H 381.487 -3.61969 -1.08567 0
M  V30 3893 H 381.8 -7.55758 -1.61397 0
M  V30 3894 H 380.145 -6.79529 -1.45828 0
M  V30 3895 H 383.336 -4.50715 -1.26388 0
M  V30 3896 H 383.509 -6.3028 -1.50501 0
M  V30 3897 N 376.915 0.57481 -1.46744 0
M  V30 3898 C 377.845 1.69337 -1.60771 0
M  V30 3899 C 378.826 1.63825 -0.457736 0
M  V30 3900 O 380.011 1.8172 -0.684947 0
M  V30 3901 C 377.141 3.0798 -1.60517 0
M  V30 3902 C 376.095 3.28327 -2.74564 0
M  V30 3903 C 375.421 4.67578 -2.59373 0
M  V30 3904 C 376.721 3.15398 -4.16319 0
M  V30 3905 H 378.415 1.57853 -2.54407 0
M  V30 3906 H 375.961 0.75799 -1.22436 0
M  V30 3907 H 377.914 3.86061 -1.68923 0
M  V30 3908 H 376.638 3.20381 -0.634305 0
M  V30 3909 H 375.297 2.52649 -2.65639 0
M  V30 3910 H 374.945 4.76755 -1.60353 0
M  V30 3911 H 374.645 4.82144 -3.35873 0
M  V30 3912 H 376.169 5.47817 -2.69682 0
M  V30 3913 H 377.583 3.83315 -4.26313 0
M  V30 3914 H 375.98 3.41482 -4.93468 0
M  V30 3915 H 377.05 2.12372 -4.3592 0
M  V30 3916 N 378.394 1.34581 0.820102 0
M  V30 3917 C 379.64 1.27285 1.57881 0
M  V30 3918 C 379.973 -0.156137 1.93571 0
M  V30 3919 O 379.248 -1.10222 1.60254 0
M  V30 3920 C 379.531 2.16639 2.87645 0
M  V30 3921 C 379.384 3.68088 2.58517 0
M  V30 3922 C 380.703 2.05378 3.8924 0
M  V30 3923 H 377.822 0.463714 0.572833 0
M  V30 3924 H 380.464 1.64859 0.944539 0
M  V30 3925 H 378.614 1.84725 3.41773 0
M  V30 3926 H 380.286 4.10382 2.10676 0
M  V30 3927 H 378.529 3.89038 1.91917 0
M  V30 3928 H 379.2 4.2598 3.51063 0
M  V30 3929 H 381.676 2.33404 3.44473 0
M  V30 3930 H 380.552 2.7012 4.77835 0
M  V30 3931 H 380.813 1.0316 4.29896 0
M  V30 3932 N 379.872 -1.04064 1.18357 0
M  V30 3933 C 380.782 -2.15569 0.925596 0
M  V30 3934 C 381.798 -1.7365 -0.110295 0
M  V30 3935 O 382.974 -2.01273 0.0716218 0
M  V30 3936 C 380.039 -3.43704 0.454836 0
M  V30 3937 C 379.1 -4.00004 1.55869 0
M  V30 3938 C 378.333 -5.22023 1.1103 0
M  V30 3939 O 378.556 -5.70392 -0.0309756 0
M  V30 3940 O 377.49 -5.70856 1.90805 0
M  V30 3941 H 381.316 -2.40187 1.8586 0
M  V30 3942 H 378.901 -1.1402 0.965394 0
M  V30 3943 H 380.783 -4.20923 0.200382 0
M  V30 3944 H 379.458 -3.20559 -0.449876 0
M  V30 3945 H 378.365 -3.24172 1.86716 0
M  V30 3946 H 379.698 -4.2749 2.43953 0
M  V30 3947 N 381.35 -0.985608 -1.22978 0
M  V30 3948 C 382.28 -0.549649 -2.26939 0
M  V30 3949 C 383.261 0.419803 -1.64838 0
M  V30 3950 O 384.446 0.31203 -1.91677 0
M  V30 3951 C 381.576 0.143652 -3.47003 0
M  V30 3952 C 380.53 -0.743606 -4.21491 0
M  V30 3953 C 379.856 0.0822027 -5.34637 0
M  V30 3954 C 381.156 -2.03694 -4.80943 0
M  V30 3955 H 382.85 -1.41862 -2.63658 0
M  V30 3956 H 380.396 -0.683571 -1.26741 0
M  V30 3957 H 382.349 0.459985 -4.18882 0
M  V30 3958 H 381.073 1.04711 -3.09359 0
M  V30 3959 H 379.732 -1.04347 -3.51436 0
M  V30 3960 H 379.38 0.986359 -4.93234 0
M  V30 3961 H 379.08 -0.508377 -5.85397 0
M  V30 3962 H 380.604 0.392797 -6.09335 0
M  V30 3963 H 382.018 -1.78504 -5.44802 0
M  V30 3964 H 380.415 -2.57573 -5.42011 0
M  V30 3965 H 381.485 -2.72042 -4.01399 0
M  V30 3966 N 382.828 1.3818 -0.7579 0
M  V30 3967 C 384.239 1.82726 -0.383134 0
M  V30 3968 C 384.59 1.63214 1.08884 0
M  V30 3969 O 383.715 1.13566 1.84205 0
M  V30 3970 C 384.31 3.31728 -0.688631 0
M  V30 3971 C 382.869 3.74606 -0.367091 0
M  V30 3972 C 382.016 2.60896 -0.939599 0
M  V30 3973 H 384.967 1.26847 -0.953699 0
M  V30 3974 H 384.988 3.80487 0.0316492 0
M  V30 3975 H 384.5 3.45898 -1.76001 0
M  V30 3976 H 382.601 3.66013 0.697532 0
M  V30 3977 H 382.714 4.71215 -0.865658 0
M  V30 3978 H 381.078 2.52075 -0.3647 0
M  V30 3979 H 381.861 2.77864 -2.0161 0
M  V30 3980 N 384.306 0.507319 1.49211 0
M  V30 3981 C 385.554 -0.0348839 2.0207 0
M  V30 3982 C 385.875 -1.36898 1.38866 0
M  V30 3983 O 385.145 -1.88133 0.546151 0
M  V30 3984 H 383.725 -0.0158812 0.746831 0
M  V30 3985 H 386.387 0.665998 1.83168 0
M  V30 3986 H 385.483 -0.159917 3.1169 0
M  V30 3987 N 385.784 -1.5574 0.241426 0
M  V30 3988 C 387.012 -2.03208 -0.389134 0
M  V30 3989 C 387.427 -1.12082 -1.51931 0
M  V30 3990 O 386.784 -0.134183 -1.82006 0
M  V30 3991 C 386.835 -3.50064 -0.902087 0
M  V30 3992 O 386.556 -4.37717 0.18305 0
M  V30 3993 C 388.057 -4.13268 -1.60389 0
M  V30 3994 H 385.277 -0.664509 -0.0931053 0
M  V30 3995 H 387.821 -2.0124 0.36369 0
M  V30 3996 H 385.976 -3.52583 -1.60511 0
M  V30 3997 H 386.39 -5.24097 -0.205579 0
M  V30 3998 H 387.864 -5.17733 -1.91458 0
M  V30 3999 H 388.341 -3.59434 -2.52397 0
M  V30 4000 H 388.947 -4.14655 -0.945576 0
M  V30 4001 N 387.262 0.0317525 -1.57568 0
M  V30 4002 C 388.539 0.758366 -1.803 0
M  V30 4003 C 388.919 1.93718 -0.838845 0
M  V30 4004 O 388.267 2.28187 0.119571 0
M  V30 4005 C 388.477 1.19392 -3.27943 0
M  V30 4006 C 389.825 1.61094 -3.92854 0
M  V30 4007 O 390.849 1.28857 -3.32076 0
M  V30 4008 O 389.708 2.20918 -4.99858 0
M  V30 4009 H 386.802 0.366514 -0.741348 0
M  V30 4010 H 389.348 0.00873765 -1.69698 0
M  V30 4011 H 388.12 0.352275 -3.89711 0
M  V30 4012 H 387.743 2.00365 -3.43424 0
M  V30 4013 N 388.74 1.54641 0.303973 0
M  V30 4014 C 389.968 1.77768 1.05858 0
M  V30 4015 C 390.383 0.535722 1.8104 0
M  V30 4016 O 389.74 -0.494337 1.75677 0
M  V30 4017 C 389.791 2.9834 2.04146 0
M  V30 4018 O 389.512 4.17736 1.32015 0
M  V30 4019 C 391.013 3.33832 2.91669 0
M  V30 4020 H 388.233 0.592961 0.314067 0
M  V30 4021 H 390.777 2.01583 0.344149 0
M  V30 4022 H 388.932 2.76742 2.71096 0
M  V30 4023 H 389.346 4.85693 1.97998 0
M  V30 4024 H 390.82 4.21448 3.56491 0
M  V30 4025 H 391.297 2.51857 3.59812 0
M  V30 4026 H 391.903 3.57579 2.30254 0
M  V30 4027 N 390.218 -0.567019 1.47046 0
M  V30 4028 C 391.148 -1.68482 1.61667 0
M  V30 4029 C 392.129 -1.6358 0.466418 0
M  V30 4030 O 393.314 -1.81354 0.694574 0
M  V30 4031 C 390.444 -3.07124 1.62148 0
M  V30 4032 C 389.398 -3.26867 2.76301 0
M  V30 4033 C 388.724 -4.66196 2.61849 0
M  V30 4034 C 390.024 -3.13186 4.17986 0
M  V30 4035 H 391.718 -1.56502 2.5524 0
M  V30 4036 H 389.264 -0.751486 1.22836 0
M  V30 4037 H 391.217 -3.8516 1.70968 0
M  V30 4038 H 389.941 -3.2004 0.651287 0
M  V30 4039 H 388.6 -2.51237 2.66975 0
M  V30 4040 H 388.248 -4.75898 1.62879 0
M  V30 4041 H 387.948 -4.80356 3.38425 0
M  V30 4042 H 389.472 -5.46379 2.72584 0
M  V30 4043 H 390.886 -3.81049 4.2834 0
M  V30 4044 H 389.283 -3.3886 4.95272 0
M  V30 4045 H 390.353 -2.10057 4.3704 0
M  V30 4046 N 391.696 -1.35014 -0.812953 0
M  V30 4047 C 392.926 -1.30841 -1.59888 0
M  V30 4048 C 393.334 0.117576 -1.88834 0
M  V30 4049 O 392.677 1.07807 -1.48739 0
M  V30 4050 C 392.739 -2.0412 -2.95931 0
M  V30 4051 C 392.403 -3.53336 -2.89832 0
M  V30 4052 C 393.4 -4.48052 -2.63714 0
M  V30 4053 C 391.085 -3.95894 -3.0915 0
M  V30 4054 C 393.079 -5.833 -2.56982 0
M  V30 4055 C 390.766 -5.31239 -3.0204 0
M  V30 4056 C 391.764 -6.24754 -2.75991 0
M  V30 4057 O 391.452 -7.57617 -2.68833 0
M  V30 4058 H 391.184 -0.451215 -0.50337 0
M  V30 4059 H 393.738 -1.78354 -1.01877 0
M  V30 4060 H 391.968 -1.51235 -3.559 0
M  V30 4061 H 393.657 -1.93107 -3.57022 0
M  V30 4062 H 394.423 -4.16492 -2.48515 0
M  V30 4063 H 390.302 -3.23495 -3.28438 0
M  V30 4064 H 393.846 -6.56263 -2.36569 0
M  V30 4065 H 389.743 -5.62415 -3.16796 0
M  V30 4066 H 390.511 -7.67469 -2.84487 0
M  V30 4067 N 393.175 1.03435 -1.18907 0
M  V30 4068 C 394.421 1.7713 -0.99982 0
M  V30 4069 C 394.776 1.86695 0.465049 0
M  V30 4070 O 394.069 1.36866 1.34083 0
M  V30 4071 C 394.263 3.19792 -1.59586 0
M  V30 4072 C 394.092 3.24134 -3.11717 0
M  V30 4073 C 392.862 3.32398 -3.80578 0
M  V30 4074 C 395.06 3.11625 -4.09138 0
M  V30 4075 N 393.042 3.26055 -5.20155 0
M  V30 4076 C 394.413 3.12855 -5.35277 0
M  V30 4077 C 396.468 2.95713 -4.00572 0
M  V30 4078 C 395.171 2.99805 -6.53842 0
M  V30 4079 C 397.197 2.84011 -5.1874 0
M  V30 4080 C 396.559 2.8589 -6.43775 0
M  V30 4081 H 392.658 0.659683 -0.419931 0
M  V30 4082 H 395.242 1.2317 -1.50789 0
M  V30 4083 H 393.413 3.72085 -1.11389 0
M  V30 4084 H 395.145 3.81819 -1.3415 0
M  V30 4085 H 391.9 3.38392 -3.31342 0
M  V30 4086 H 392.324 3.26307 -5.93172 0
M  V30 4087 H 396.966 2.93086 -3.0473 0
M  V30 4088 H 394.684 3.01184 -7.49876 0
M  V30 4089 H 398.27 2.72744 -5.13909 0
M  V30 4090 H 397.15 2.76931 -7.33675 0
M  V30 4091 N 394.653 0.992116 1.22453 0
M  V30 4092 C 395.899 0.668523 1.91464 0
M  V30 4093 C 396.232 -0.797313 1.77078 0
M  V30 4094 O 395.507 -1.5765 1.13916 0
M  V30 4095 C 395.79 1.07424 3.43703 0
M  V30 4096 C 395.643 2.59857 3.67143 0
M  V30 4097 C 396.962 0.626891 4.35612 0
M  V30 4098 H 394.081 0.244341 0.695318 0
M  V30 4099 H 396.723 1.2355 1.44345 0
M  V30 4100 H 394.873 0.591816 3.83966 0
M  V30 4101 H 396.545 3.15764 3.3629 0
M  V30 4102 H 394.788 3.01961 3.11451 0
M  V30 4103 H 395.459 2.83296 4.73759 0
M  V30 4104 H 397.935 1.04125 4.02861 0
M  V30 4105 H 396.811 0.939076 5.40807 0
M  V30 4106 H 397.072 -0.472457 4.39568 0
M  V30 4107 N 396.131 -1.37776 0.765217 0
M  V30 4108 C 397.379 -1.99454 0.325943 0
M  V30 4109 C 397.7 -1.61049 -1.09947 0
M  V30 4110 O 396.97 -0.872821 -1.75381 0
M  V30 4111 H 395.55 -0.737697 0.117525 0
M  V30 4112 H 398.212 -1.68359 0.981895 0
M  V30 4113 H 397.308 -3.09547 0.398353 0
M  V30 4114 N 397.609 -0.515225 -1.4894 0
M  V30 4115 C 398.886 0.0879088 -1.95402 0
M  V30 4116 C 399.266 1.52745 -1.45712 0
M  V30 4117 O 398.614 2.18238 -0.677093 0
M  V30 4118 C 398.824 -0.0141055 -3.48997 0
M  V30 4119 C 400.172 0.152646 -4.24326 0
M  V30 4120 O 401.196 0.0604025 -3.56149 0
M  V30 4121 O 400.055 0.34384 -5.45417 0
M  V30 4122 H 397.149 0.0874636 -0.822362 0
M  V30 4123 H 399.695 -0.578775 -1.59525 0
M  V30 4124 H 398.467 -1.01745 -3.77841 0
M  V30 4125 H 398.09 0.692091 -3.9153 0
M  V30 4126 N 399.087 1.5561 -0.249682 0
M  V30 4127 C 400.315 2.03411 0.378352 0
M  V30 4128 C 400.73 1.12886 1.51335 0
M  V30 4129 O 400.087 0.143833 1.81932 0
M  V30 4130 C 400.138 3.50537 0.88351 0
M  V30 4131 O 399.859 4.37614 -0.20626 0
M  V30 4132 C 401.36 4.14113 1.58195 0
M  V30 4133 H 398.58 0.664994 0.08958 0
M  V30 4134 H 401.124 2.01044 -0.374357 0
M  V30 4135 H 399.279 3.5343 1.58639 0
M  V30 4136 H 399.693 5.24199 0.177782 0
M  V30 4137 H 401.167 5.18741 1.8871 0
M  V30 4138 H 401.644 3.60767 2.50487 0
M  V30 4139 H 402.25 4.15151 0.923573 0
M  V30 4140 N 400.565 -0.0233959 1.57583 0
M  V30 4141 C 401.813 -0.711654 1.89156 0
M  V30 4142 C 402.134 -1.75591 0.848096 0
M  V30 4143 O 401.404 -1.95547 -0.117566 0
M  V30 4144 H 399.984 -0.265835 0.698098 0
M  V30 4145 H 402.646 0.0119948 1.94896 0
M  V30 4146 H 401.742 -1.19766 2.88206 0
M  V30 4147 N 402.043 -1.548 -0.295768 0
M  V30 4148 C 403.454 -1.65274 -0.868411 0
M  V30 4149 C 403.805 -0.56481 -1.87894 0
M  V30 4150 O 402.93 0.29767 -2.14343 0
M  V30 4151 C 403.525 -2.99603 -1.58188 0
M  V30 4152 C 402.084 -3.12181 -2.10286 0
M  V30 4153 C 401.231 -2.6098 -0.93727 0
M  V30 4154 H 404.182 -1.58534 -0.0726422 0
M  V30 4155 H 404.203 -2.91319 -2.44772 0
M  V30 4156 H 403.715 -3.78764 -0.846151 0
M  V30 4157 H 401.816 -2.3775 -2.8689 0
M  V30 4158 H 401.929 -4.18415 -2.33379 0
M  V30 4159 H 400.293 -2.17564 -1.32431 0
M  V30 4160 H 401.076 -3.42623 -0.215414 0
M  V30 4161 N 403.521 0.559213 -1.47345 0
M  V30 4162 C 404.454 1.68201 -1.5422 0
M  V30 4163 C 405.432 1.57742 -0.394497 0
M  V30 4164 O 406.616 1.78628 -0.60201 0
M  V30 4165 C 403.743 3.0643 -1.44285 0
M  V30 4166 C 402.789 3.3534 -2.63532 0
M  V30 4167 S 403.622 3.24816 -4.25741 0
M  V30 4168 C 404.778 4.65542 -4.18355 0
M  V30 4169 H 405.011 1.62114 -2.49211 0
M  V30 4170 H 402.544 0.739871 -1.35519 0
M  V30 4171 H 404.502 3.86164 -1.3924 0
M  V30 4172 H 403.163 3.09984 -0.506816 0
M  V30 4173 H 402.356 4.36107 -2.52639 0
M  V30 4174 H 401.958 2.63221 -2.65689 0
M  V30 4175 H 404.25 5.56449 -3.86485 0
M  V30 4176 H 405.193 4.81493 -5.19202 0
M  V30 4177 H 405.601 4.43495 -3.49246 0
M  V30 4178 N 404.999 1.35443 0.805782 0
M  V30 4179 C 405.929 1.31095 1.93226 0
M  V30 4180 C 406.91 0.185244 1.69088 0
M  V30 4181 O 408.095 0.380332 1.90439 0
M  V30 4182 C 405.225 1.08299 3.29983 0
M  V30 4183 C 404.179 2.17519 3.68605 0
M  V30 4184 C 403.505 1.79887 5.03532 0
M  V30 4185 C 404.805 3.5949 3.78898 0
M  V30 4186 H 406.499 2.25352 1.97122 0
M  V30 4187 H 404.045 1.0848 0.946996 0
M  V30 4188 H 405.998 1.03897 4.08391 0
M  V30 4189 H 404.722 0.104885 3.26432 0
M  V30 4190 H 403.381 2.2102 2.92482 0
M  V30 4191 H 403.029 0.80693 4.96485 0
M  V30 4192 H 402.729 2.53001 5.30344 0
M  V30 4193 H 404.253 1.77011 5.84379 0
M  V30 4194 H 405.667 3.58307 4.47536 0
M  V30 4195 H 404.064 4.31371 4.1718 0
M  V30 4196 H 405.134 3.95584 2.80431 0
M  V30 4197 N 406.477 -1.02803 1.19454 0
M  V30 4198 C 407.754 -1.73299 0.907013 0
M  V30 4199 C 408.134 -2.02772 -0.587086 0
M  V30 4200 O 407.482 -1.68304 -1.54551 0
M  V30 4201 C 407.692 -3.00912 1.76785 0
M  V30 4202 C 409.04 -3.74403 2.00268 0
M  V30 4203 O 410.064 -3.10841 1.73943 0
M  V30 4204 O 408.923 -4.88675 2.4466 0
M  V30 4205 H 406.017 -0.754727 0.338106 0
M  V30 4206 H 408.563 -1.08754 1.30271 0
M  V30 4207 H 407.335 -2.75366 2.7801 0
M  V30 4208 H 406.958 -3.73197 1.37149 0
M  V30 4209 N 407.956 -0.998596 -1.21925 0
M  V30 4210 C 408.866 -0.562736 -2.27751 0
M  V30 4211 C 409.882 0.391203 -1.69545 0
M  V30 4212 O 411.058 0.256625 -1.99758 0
M  V30 4213 C 408.123 0.11012 -3.46525 0
M  V30 4214 C 407.184 -0.887495 -4.20026 0
M  V30 4215 C 406.417 -0.246654 -5.3313 0
M  V30 4216 O 406.64 0.958088 -5.62296 0
M  V30 4217 O 405.574 -0.954374 -5.94286 0
M  V30 4218 H 409.4 -1.44329 -2.67213 0
M  V30 4219 H 406.985 -0.767135 -1.28201 0
M  V30 4220 H 408.867 0.486756 -4.18579 0
M  V30 4221 H 407.542 0.965154 -3.08976 0
M  V30 4222 H 406.449 -1.31517 -3.5022 0
M  V30 4223 H 407.782 -1.71191 -4.6147 0
M  V30 4224 N 409.434 1.37368 -0.772513 0
M  V30 4225 C 410.683 1.98918 -0.333861 0
M  V30 4226 C 410.996 1.62017 1.09589 0
M  V30 4227 O 412.202 2.16676 1.63596 0
M  V30 4228 C 410.658 3.55735 -0.545971 0
M  V30 4229 C 410.266 4.01573 -1.98603 0
M  V30 4230 C 412.01 4.24156 -0.170979 0
M  V30 4231 C 409.917 5.51102 -2.1457 0
M  V30 4232 H 408.847 0.744214 -0.121085 0
M  V30 4233 H 411.498 1.56888 -0.95175 0
M  V30 4234 H 409.88 3.95748 0.141387 0
M  V30 4235 H 411.054 3.72803 -2.7084 0
M  V30 4236 H 409.369 3.45937 -2.31769 0
M  V30 4237 H 411.966 5.34024 -0.26878 0
M  V30 4238 H 412.309 4.06917 0.878855 0
M  V30 4239 H 412.842 3.89447 -0.810914 0
M  V30 4240 H 409.581 5.73268 -3.17875 0
M  V30 4241 H 409.101 5.81554 -1.46817 0
M  V30 4242 H 410.78 6.17083 -1.94468 0
M  V30 4243 N 410.912 0.523116 1.48665 0
M  V30 4244 C 411.822 -0.247406 2.33292 0
M  V30 4245 C 412.838 -0.945769 1.46052 0
M  V30 4246 O 414.014 -0.922253 1.79043 0
M  V30 4247 C 411.079 -1.28487 3.22012 0
M  V30 4248 C 410.14 -0.597592 4.2512 0
M  V30 4249 C 409.373 -1.58563 5.09601 0
M  V30 4250 O 409.596 -2.81763 4.95949 0
M  V30 4251 O 408.53 -1.12879 5.91221 0
M  V30 4252 H 412.356 0.445869 3.00409 0
M  V30 4253 H 409.941 0.284128 1.46673 0
M  V30 4254 H 411.823 -1.88459 3.7691 0
M  V30 4255 H 410.498 -1.96068 2.57564 0
M  V30 4256 H 409.405 0.0424407 3.74076 0
M  V30 4257 H 410.738 0.0361517 4.92187 0
M  V30 4258 N 412.39 -1.55475 0.257931 0
M  V30 4259 C 413.3 -2.2549 -0.647425 0
M  V30 4260 C 414.316 -1.2748 -1.18427 0
M  V30 4261 O 415.492 -1.6038 -1.2182 0
M  V30 4262 C 412.557 -2.94916 -1.82278 0
M  V30 4263 C 411.618 -4.08363 -1.32432 0
M  V30 4264 C 410.851 -4.74469 -2.44366 0
M  V30 4265 O 411.074 -4.39701 -3.63344 0
M  V30 4266 O 410.008 -5.62763 -2.13497 0
M  V30 4267 H 413.834 -3.03593 -0.0807707 0
M  V30 4268 H 411.419 -1.49377 0.0259962 0
M  V30 4269 H 413.301 -3.38606 -2.50846 0
M  V30 4270 H 411.976 -2.19744 -2.37685 0
M  V30 4271 H 410.883 -3.69166 -0.605605 0
M  V30 4272 H 412.216 -4.85385 -0.816211 0
M  V30 4273 N 413.868 0.0150385 -1.57593 0
M  V30 4274 C 415.115 0.703001 -1.89906 0
M  V30 4275 C 415.443 1.74604 -0.856944 0
M  V30 4276 O 414.698 1.95197 0.140287 0
M  V30 4277 C 414.997 1.39686 -3.28972 0
M  V30 4278 C 414.663 0.488457 -4.48246 0
M  V30 4279 C 413.325 0.2383 -4.8061 0
M  V30 4280 C 415.677 -0.137881 -5.21018 0
M  V30 4281 C 413.005 -0.646738 -5.83125 0
M  V30 4282 C 415.357 -1.0107 -6.24474 0
M  V30 4283 C 414.021 -1.27019 -6.55303 0
M  V30 4284 H 413.291 0.257246 -0.694914 0
M  V30 4285 H 415.938 -0.037259 -1.91464 0
M  V30 4286 H 414.243 2.21079 -3.23468 0
M  V30 4287 H 415.94 1.93495 -3.51227 0
M  V30 4288 H 412.53 0.693593 -4.22951 0
M  V30 4289 H 416.714 0.0423953 -4.96282 0
M  V30 4290 H 411.97 -0.855937 -6.05379 0
M  V30 4291 H 416.144 -1.50247 -6.79999 0
M  V30 4292 H 413.771 -1.95769 -7.3456 0
M  V30 4293 N 415.346 1.54954 0.287554 0
M  V30 4294 C 416.595 1.74081 1.01877 0
M  V30 4295 C 416.908 0.541135 1.87966 0
M  V30 4296 O 418.114 0.614491 2.64455 0
M  V30 4297 C 416.57 3.08042 1.86113 0
M  V30 4298 C 416.178 4.35531 1.04961 0
M  V30 4299 C 417.922 3.36523 2.58752 0
M  V30 4300 C 415.829 5.60538 1.88551 0
M  V30 4301 H 414.759 0.64884 0.384087 0
M  V30 4302 H 417.41 1.81426 0.275101 0
M  V30 4303 H 415.792 2.94696 2.64519 0
M  V30 4304 H 416.966 4.59751 0.31074 0
M  V30 4305 H 415.281 4.14085 0.43843 0
M  V30 4306 H 417.878 4.27122 3.21668 0
M  V30 4307 H 418.221 2.56 3.28283 0
M  V30 4308 H 418.754 3.50901 1.87386 0
M  V30 4309 H 415.493 6.43767 1.23466 0
M  V30 4310 H 415.013 5.40483 2.60074 0
M  V30 4311 H 416.692 5.98297 2.46273 0
M  V30 4312 N 416.824 -0.551391 1.4764 0
M  V30 4313 C 418.052 -1.33357 1.58189 0
M  V30 4314 C 418.467 -1.87342 0.234199 0
M  V30 4315 O 417.824 -1.65301 -0.77343 0
M  V30 4316 C 417.875 -2.49942 2.61173 0
M  V30 4317 O 417.596 -1.98187 3.90709 0
M  V30 4318 C 419.097 -3.42072 2.8196 0
M  V30 4319 H 416.317 -0.40631 0.533998 0
M  V30 4320 H 418.861 -0.667367 1.93304 0
M  V30 4321 H 417.016 -3.12489 2.28975 0
M  V30 4322 H 417.43 -2.74342 4.47031 0
M  V30 4323 H 418.904 -4.20278 3.57869 0
M  V30 4324 H 419.381 -3.95978 1.89995 0
M  V30 4325 H 419.987 -2.85336 3.15378 0
M  V30 4326 N 418.302 -1.35869 -0.798587 0
M  V30 4327 C 419.55 -1.29332 -1.55298 0
M  V30 4328 C 419.871 0.129729 -1.94568 0
M  V30 4329 O 419.141 1.06796 -1.6423 0
M  V30 4330 H 417.721 -0.475737 -0.57592 0
M  V30 4331 H 420.383 -1.70062 -0.952093 0
M  V30 4332 H 419.479 -1.91458 -2.46476 0
M  V30 4333 N 419.78 1.02168 -1.19998 0
M  V30 4334 C 421.026 1.75945 -1.00852 0
M  V30 4335 C 421.359 1.88702 0.458828 0
M  V30 4336 O 420.634 1.40911 1.34069 0
M  V30 4337 C 420.917 3.18154 -1.68671 0
M  V30 4338 C 420.77 3.13224 -3.22817 0
M  V30 4339 C 422.089 4.16711 -1.41561 0
M  V30 4340 H 419.208 0.638673 -0.367785 0
M  V30 4341 H 421.85 1.19222 -1.4794 0
M  V30 4342 H 420 3.66586 -1.28636 0
M  V30 4343 H 421.672 2.72635 -3.72112 0
M  V30 4344 H 419.915 2.50751 -3.53986 0
M  V30 4345 H 420.586 4.13728 -3.65422 0
M  V30 4346 H 423.062 3.76913 -1.76284 0
M  V30 4347 H 421.938 5.14391 -1.91553 0
M  V30 4348 H 422.199 4.40774 -0.342193 0
M  V30 4349 N 421.258 1.00505 1.21394 0
M  V30 4350 C 422.674 0.717873 1.42544 0
M  V30 4351 C 422.874 -0.706936 1.88692 0
M  V30 4352 O 421.93 -1.47627 2.04847 0
M  V30 4353 C 423.243 1.73377 2.45684 0
M  V30 4354 C 424.791 1.75059 2.59467 0
M  V30 4355 C 425.266 2.75545 3.6584 0
M  V30 4356 N 426.757 2.74213 3.73311 0
M  V30 4357 C 427.492 3.48626 4.55245 0
M  V30 4358 N 426.988 4.32678 5.41075 0
M  V30 4359 N 428.781 3.37276 4.49668 0
M  V30 4360 H 420.932 1.92506 0.897503 0
M  V30 4361 H 423.195 0.830919 0.456375 0
M  V30 4362 H 422.901 2.75395 2.18748 0
M  V30 4363 H 422.775 1.53647 3.44489 0
M  V30 4364 H 425.162 0.737337 2.8574 0
M  V30 4365 H 425.243 1.98861 1.60897 0
M  V30 4366 H 424.887 3.77028 3.40313 0
M  V30 4367 H 424.817 2.49009 4.64007 0
M  V30 4368 H 427.308 2.13234 3.11993 0
M  V30 4369 H 427.621 4.86253 6.00648 0
M  V30 4370 H 425.966 4.3676 5.40616 0
M  V30 4371 H 429.157 2.71043 3.81646 0
M  V30 4372 H 429.33 3.95524 5.13288 0
M  V30 4373 N 422.737 -1.36956 0.779787 0
M  V30 4374 C 423.985 -1.99097 0.347079 0
M  V30 4375 C 424.306 -1.62206 -1.08232 0
M  V30 4376 O 423.576 -0.891373 -1.74446 0
M  V30 4377 H 422.156 -0.736409 0.125342 0
M  V30 4378 H 424.818 -1.67308 0.999696 0
M  V30 4379 H 423.914 -3.09107 0.431162 0
M  V30 4380 N 424.215 -0.530993 -1.48385 0
M  V30 4381 C 425.463 0.00273189 -2.021 0
M  V30 4382 C 425.784 1.34672 -1.41027 0
M  V30 4383 O 425.054 1.8724 -0.576012 0
M  V30 4384 H 423.634 0.00399774 -0.746989 0
M  V30 4385 H 426.296 -0.695054 -1.82085 0
M  V30 4386 H 425.392 0.11031 -3.11905 0
M  V30 4387 N 425.693 1.55336 -0.266172 0
M  V30 4388 C 426.656 2.20878 0.612001 0
M  V30 4389 C 427.656 1.18388 1.08816 0
M  V30 4390 O 428.846 1.4335 0.989774 0
M  V30 4391 C 425.978 2.86765 1.84332 0
M  V30 4392 H 427.171 2.99873 0.0398718 0
M  V30 4393 H 424.724 1.56291 -0.0167309 0
M  V30 4394 H 425.459 2.11759 2.45619 0
M  V30 4395 H 425.244 3.61862 1.5099 0
M  V30 4396 H 426.734 3.36867 2.46801 0
M  V30 4397 N 427.171 -0.0066808 1.57599 0
M  V30 4398 C 428.448 -0.729586 1.81484 0
M  V30 4399 C 428.828 -1.92359 0.869558 0
M  V30 4400 O 428.176 -2.28348 -0.0832533 0
M  V30 4401 C 428.386 -1.1416 3.29801 0
M  V30 4402 C 429.734 -1.54823 3.95367 0
M  V30 4403 O 430.758 -1.23558 3.34084 0
M  V30 4404 O 429.617 -2.12937 5.03309 0
M  V30 4405 H 426.711 -0.354674 0.747085 0
M  V30 4406 H 429.257 0.0182609 1.6969 0
M  V30 4407 H 428.029 -0.290231 3.90222 0
M  V30 4408 H 427.652 -1.94876 3.46568 0
M  V30 4409 N 428.649 -1.55105 -0.279332 0
M  V30 4410 C 429.612 -1.86783 -1.32834 0
M  V30 4411 C 430.612 -0.74199 -1.42657 0
M  V30 4412 O 431.802 -1.0102 -1.41918 0
M  V30 4413 C 428.934 -2.06746 -2.71052 0
M  V30 4414 H 430.127 -2.8055 -1.05979 0
M  V30 4415 H 427.68 -1.47499 -0.517087 0
M  V30 4416 H 428.415 -1.15339 -3.03097 0
M  V30 4417 H 428.2 -2.88711 -2.65309 0
M  V30 4418 H 429.69 -2.32549 -3.46858 0
M  V30 4419 N 430.127 0.543554 -1.4793 0
M  V30 4420 C 431.037 1.67657 -1.64098 0
M  V30 4421 C 432.053 1.65934 -0.523622 0
M  V30 4422 O 433.229 1.85133 -0.792943 0
M  V30 4423 C 430.294 3.04146 -1.66421 0
M  V30 4424 C 429.355 3.16831 -2.89684 0
M  V30 4425 C 428.588 4.46809 -2.91886 0
M  V30 4426 O 428.811 5.33095 -2.02895 0
M  V30 4427 O 427.745 4.63573 -3.83906 0
M  V30 4428 H 431.571 1.56957 -2.59997 0
M  V30 4429 H 429.156 0.715116 -1.31173 0
M  V30 4430 H 431.038 3.85346 -1.70548 0
M  V30 4431 H 429.713 3.152 -0.736923 0
M  V30 4432 H 428.62 2.34977 -2.91095 0
M  V30 4433 H 429.953 3.10687 -3.81752 0
M  V30 4434 N 431.605 1.3629 0.791371 0
M  V30 4435 C 433.021 1.16661 1.08914 0
M  V30 4436 C 433.221 -0.0106266 2.01497 0
M  V30 4437 O 432.277 -0.676596 2.43266 0
M  V30 4438 C 433.59 2.47656 1.70549 0
M  V30 4439 C 435.138 2.54002 1.82899 0
M  V30 4440 C 435.613 3.85078 2.47949 0
M  V30 4441 N 437.104 3.86413 2.5542 0
M  V30 4442 C 437.839 4.84572 3.06557 0
M  V30 4443 N 437.335 5.93124 3.58016 0
M  V30 4444 N 439.128 4.71994 3.05251 0
M  V30 4445 H 431.279 2.11668 0.176238 0
M  V30 4446 H 433.542 0.937486 0.140796 0
M  V30 4447 H 433.248 3.34059 1.09989 0
M  V30 4448 H 433.122 2.63319 2.70079 0
M  V30 4449 H 435.509 1.68018 2.42598 0
M  V30 4450 H 435.59 2.42239 0.821808 0
M  V30 4451 H 435.234 4.71467 1.88895 0
M  V30 4452 H 435.164 3.94135 3.49235 0
M  V30 4453 H 437.655 3.07988 2.18979 0
M  V30 4454 H 437.968 6.63999 3.95381 0
M  V30 4455 H 436.313 5.96796 3.56173 0
M  V30 4456 H 439.504 3.86321 2.64336 0
M  V30 4457 H 439.677 5.48653 3.44796 0
M  V30 4458 N 433.083 -1.0153 1.20538 0
M  V30 4459 C 434.016 -2.09759 0.898695 0
M  V30 4460 C 434.994 -1.61909 -0.149733 0
M  V30 4461 O 436.178 -1.88486 -0.0230293 0
M  V30 4462 C 433.305 -3.36913 0.347512 0
M  V30 4463 C 432.351 -4.03655 1.37713 0
M  V30 4464 S 433.184 -4.47402 2.94265 0
M  V30 4465 C 434.34 -5.77756 2.40726 0
M  V30 4466 H 434.573 -2.3545 1.81523 0
M  V30 4467 H 432.106 -1.14665 1.03399 0
M  V30 4468 H 434.064 -4.10484 0.0360518 0
M  V30 4469 H 432.725 -3.09291 -0.547546 0
M  V30 4470 H 431.918 -4.9514 0.940872 0
M  V30 4471 H 431.52 -3.36313 1.63614 0
M  V30 4472 H 433.812 -6.52994 1.80569 0
M  V30 4473 H 434.755 -6.2618 3.30612 0
M  V30 4474 H 435.163 -5.34081 1.82806 0
M  V30 4475 N 434.561 -1.01147 -1.20859 0
M  V30 4476 C 435.491 -0.597663 -2.25722 0
M  V30 4477 C 436.472 0.384744 -1.65692 0
M  V30 4478 O 437.657 0.271303 -1.92296 0
M  V30 4479 C 434.787 0.0700149 -3.47229 0
M  V30 4480 C 433.741 -0.832843 -4.19819 0
M  V30 4481 C 433.067 -0.0312202 -5.34691 0
M  V30 4482 C 434.367 -2.1385 -4.76514 0
M  V30 4483 H 436.061 -1.47423 -2.60589 0
M  V30 4484 H 433.607 -0.710301 -1.25263 0
M  V30 4485 H 435.56 0.37103 -4.19763 0
M  V30 4486 H 434.284 0.981259 -3.11511 0
M  V30 4487 H 432.943 -1.11778 -3.49144 0
M  V30 4488 H 432.591 0.881515 -4.95215 0
M  V30 4489 H 432.291 -0.632434 -5.84187 0
M  V30 4490 H 433.815 0.26346 -6.10031 0
M  V30 4491 H 435.229 -1.9002 -5.40893 0
M  V30 4492 H 433.626 -2.69012 -5.36426 0
M  V30 4493 H 434.696 -2.80495 -3.95538 0
M  V30 4494 N 436.039 1.36541 -0.78704 0
M  V30 4495 C 437.002 2.28413 -0.189778 0
M  V30 4496 C 438.002 1.48719 0.611499 0
M  V30 4497 O 439.192 1.68737 0.432842 0
M  V30 4498 C 436.324 3.32824 0.737638 0
M  V30 4499 H 437.517 2.82743 -0.999831 0
M  V30 4500 H 435.07 1.46065 -0.556298 0
M  V30 4501 H 435.805 2.83646 1.57212 0
M  V30 4502 H 435.59 3.91752 0.165044 0
M  V30 4503 H 437.08 4.0144 1.15047 0
M  V30 4504 N 437.518 0.538854 1.48102 0
M  V30 4505 C 438.746 0.0123136 2.06896 0
M  V30 4506 C 439.161 -1.27312 1.39417 0
M  V30 4507 O 438.518 -1.75949 0.484582 0
M  V30 4508 C 438.569 -0.206118 3.60912 0
M  V30 4509 O 438.29 1.0284 4.25859 0
M  V30 4510 C 439.791 -0.772033 4.36526 0
M  V30 4511 H 437.011 0.0375239 0.66995 0
M  V30 4512 H 439.555 0.747032 1.90367 0
M  V30 4513 H 437.71 -0.89091 3.77017 0
M  V30 4514 H 438.124 0.814654 5.18135 0
M  V30 4515 H 439.598 -0.874251 5.45033 0
M  V30 4516 H 440.075 -1.77904 4.01555 0
M  V30 4517 H 440.681 -0.123526 4.25121 0
M  V30 4518 N 438.996 -1.55193 0.274407 0
M  V30 4519 C 440.245 -1.98758 -0.343213 0
M  V30 4520 C 440.558 -1.16624 -1.5703 0
M  V30 4521 O 441.764 -1.5033 -2.26082 0
M  V30 4522 C 440.22 -3.53759 -0.661996 0
M  V30 4523 C 439.828 -4.4467 0.54524 0
M  V30 4524 C 441.572 -4.05916 -1.24228 0
M  V30 4525 C 439.479 -5.91058 0.201084 0
M  V30 4526 H 438.409 -0.742353 -0.132014 0
M  V30 4527 H 441.06 -1.79545 0.378948 0
M  V30 4528 H 439.442 -3.68772 -1.44304 0
M  V30 4529 H 440.616 -4.41426 1.32212 0
M  V30 4530 H 438.931 -4.03143 1.04232 0
M  V30 4531 H 441.528 -5.12831 -1.51357 0
M  V30 4532 H 441.871 -3.54908 -2.17592 0
M  V30 4533 H 442.404 -3.9434 -0.523542 0
M  V30 4534 H 439.143 -6.46161 1.10258 0
M  V30 4535 H 438.663 -5.97373 -0.539045 0
M  V30 4536 H 440.342 -6.46669 -0.206954 0
M  V30 4537 N 440.474 -0.00167713 -1.576 0
M  V30 4538 C 441.407 1.02317 -2.03977 0
M  V30 4539 C 442.385 1.33381 -0.929963 0
M  V30 4540 O 443.569 1.45517 -1.19822 0
M  V30 4541 C 440.696 2.35035 -2.43878 0
M  V30 4542 C 439.742 2.19621 -3.65607 0
M  V30 4543 S 440.575 1.52068 -5.13455 0
M  V30 4544 C 441.731 2.86212 -5.56627 0
M  V30 4545 H 441.964 0.628285 -2.90585 0
M  V30 4546 H 439.497 0.209239 -1.52976 0
M  V30 4547 H 441.455 3.11345 -2.67534 0
M  V30 4548 H 440.116 2.71663 -1.57665 0
M  V30 4549 H 439.309 3.1767 -3.91282 0
M  V30 4550 H 438.911 1.51455 -3.41961 0
M  V30 4551 H 441.203 3.82509 -5.59189 0
M  V30 4552 H 442.146 2.65235 -6.56549 0
M  V30 4553 H 442.554 2.90199 -4.84195 0
M  V30 4554 N 441.952 1.55251 0.271103 0
M  V30 4555 C 443.199 1.75946 1.00245 0
M  V30 4556 C 443.527 0.561611 1.86215 0
M  V30 4557 O 442.782 -0.455832 1.90317 0
M  V30 4558 C 443.081 3.01879 1.91321 0
M  V30 4559 C 442.747 4.34337 1.21086 0
M  V30 4560 C 441.409 4.70338 1.01666 0
M  V30 4561 C 443.761 5.16325 0.71119 0
M  V30 4562 C 441.089 5.8588 0.310099 0
M  V30 4563 C 443.441 6.32597 0.0182157 0
M  V30 4564 C 442.105 6.67236 -0.18768 0
M  V30 4565 H 441.375 0.643833 0.366824 0
M  V30 4566 H 444.022 1.89521 0.27458 0
M  V30 4567 H 442.327 2.83212 2.70736 0
M  V30 4568 H 444.024 3.15088 2.48033 0
M  V30 4569 H 440.614 4.06043 1.37213 0
M  V30 4570 H 444.798 4.88987 0.848844 0
M  V30 4571 H 440.054 6.1124 0.139873 0
M  V30 4572 H 444.228 6.9538 -0.376711 0
M  V30 4573 H 441.855 7.56618 -0.73715 0
M  V30 4574 N 443.43 -0.535701 1.48216 0
M  V30 4575 C 444.658 -1.31671 1.59594 0
M  V30 4576 C 445.073 -1.87083 0.254056 0
M  V30 4577 O 444.43 -1.66112 -0.755854 0
M  V30 4578 C 444.481 -2.47158 2.63809 0
M  V30 4579 O 444.202 -1.94032 3.92789 0
M  V30 4580 C 445.703 -3.39062 2.85573 0
M  V30 4581 H 442.923 -0.400623 0.538277 0
M  V30 4582 H 445.467 -0.646827 1.94001 0
M  V30 4583 H 443.622 -3.10043 2.32276 0
M  V30 4584 H 444.036 -2.69585 4.49916 0
M  V30 4585 H 445.51 -4.16459 3.62306 0
M  V30 4586 H 445.987 -3.93941 1.94184 0
M  V30 4587 H 446.593 -2.81975 3.18387 0
M  V30 4588 N 444.908 -1.36708 -0.784132 0
M  V30 4589 C 446.185 -1.21776 -1.53069 0
M  V30 4590 C 446.565 0.193876 -2.10208 0
M  V30 4591 O 445.913 1.20012 -1.94446 0
M  V30 4592 C 446.123 -2.30395 -2.62143 0
M  V30 4593 C 447.471 -2.67325 -3.29882 0
M  V30 4594 O 448.495 -2.29478 -2.7243 0
M  V30 4595 O 447.354 -3.32485 -4.33724 0
M  V30 4596 H 444.448 -0.474459 -0.677361 0
M  V30 4597 H 446.994 -1.48454 -0.82216 0
M  V30 4598 H 445.766 -3.2498 -2.17953 0
M  V30 4599 H 445.389 -2.05112 -3.40609 0
M  V30 4600 N 446.386 1.0089 -1.21074 0
M  V30 4601 C 447.635 1.74019 -1.01981 0
M  V30 4602 C 447.948 1.90408 0.447665 0
M  V30 4603 O 449.154 2.60707 0.757906 0
M  V30 4604 C 447.61 3.13026 -1.77603 0
M  V30 4605 C 447.218 3.04623 -3.28495 0
M  V30 4606 C 448.962 3.90312 -1.66904 0
M  V30 4607 C 446.869 4.38685 -3.96623 0
M  V30 4608 H 445.799 0.652422 -0.377971 0
M  V30 4609 H 448.45 1.12755 -1.44771 0
M  V30 4610 H 446.832 3.74878 -1.27604 0
M  V30 4611 H 448.006 2.52032 -3.85767 0
M  V30 4612 H 446.321 2.40827 -3.39693 0
M  V30 4613 H 448.918 4.8951 -2.15138 0
M  V30 4614 H 449.261 4.11558 -0.62658 0
M  V30 4615 H 449.794 3.35104 -2.14359 0
M  V30 4616 H 446.533 4.22641 -5.01054 0
M  V30 4617 H 446.053 4.91252 -3.4414 0
M  V30 4618 H 447.732 5.075 -4.01314 0
M  V30 4619 N 447.864 1.01787 1.20321 0
M  V30 4620 C 449.11 0.708985 1.90003 0
M  V30 4621 C 449.443 -0.759572 1.78729 0
M  V30 4622 O 448.718 -1.55198 1.17234 0
M  V30 4623 C 449.001 1.1469 3.41348 0
M  V30 4624 C 448.854 2.67586 3.61549 0
M  V30 4625 C 450.173 0.71915 4.34185 0
M  V30 4626 H 447.292 0.259034 0.689978 0
M  V30 4627 H 449.934 1.26584 1.41692 0
M  V30 4628 H 448.084 0.673128 3.82624 0
M  V30 4629 H 449.756 3.22826 3.29517 0
M  V30 4630 H 447.999 3.085 3.04976 0
M  V30 4631 H 448.67 2.93281 4.67643 0
M  V30 4632 H 451.146 1.12647 4.00562 0
M  V30 4633 H 450.022 1.05358 5.38694 0
M  V30 4634 H 450.283 -0.379111 4.40472 0
M  V30 4635 N 449.342 -1.36122 0.79427 0
M  V30 4636 C 450.59 -1.98718 0.368177 0
M  V30 4637 C 450.911 -1.63345 -1.06506 0
M  V30 4638 O 450.181 -0.909825 -1.73491 0
M  V30 4639 H 448.761 -0.735038 0.133146 0
M  V30 4640 H 451.423 -1.66239 1.01739 0
M  V30 4641 H 450.519 -3.08633 0.463923 0
M  V30 4642 N 450.82 -0.546701 -1.47814 0
M  V30 4643 C 452.045 -0.021268 -2.07389 0
M  V30 4644 C 452.47 1.25822 -1.39822 0
M  V30 4645 O 451.828 1.75111 -0.46968 0
M  V30 4646 C 451.876 0.168502 -3.60206 0
M  V30 4647 O 450.98 1.23347 -3.93522 0
M  V30 4648 H 450.321 -0.0466108 -0.662362 0
M  V30 4649 H 452.851 -0.759387 -1.89985 0
M  V30 4650 H 452.861 0.385982 -4.0617 0
M  V30 4651 H 451.536 -0.766075 -4.08784 0
M  V30 4652 H 450.113 0.997319 -3.59316 0
M  V30 4653 N 452.299 1.55045 -0.282633 0
M  V30 4654 C 453.527 2.04168 0.33512 0
M  V30 4655 C 453.942 1.16071 1.48906 0
M  V30 4656 O 453.299 0.182391 1.81586 0
M  V30 4657 C 453.35 3.52332 0.808957 0
M  V30 4658 O 453.071 4.37078 -0.299038 0
M  V30 4659 C 454.572 4.17375 1.49375 0
M  V30 4660 H 451.792 0.666744 0.0754543 0
M  V30 4661 H 454.336 2.00205 -0.416918 0
M  V30 4662 H 452.491 3.56715 1.51106 0
M  V30 4663 H 452.905 5.24458 0.0665514 0
M  V30 4664 H 454.379 5.22627 1.77664 0
M  V30 4665 H 454.856 3.65999 2.42778 0
M  V30 4666 H 455.462 4.17016 0.835305 0
M  V30 4667 N 453.777 0.010035 1.57597 0
M  V30 4668 C 454.709 -1.00649 2.05918 0
M  V30 4669 C 455.722 -1.30077 0.978964 0
M  V30 4670 O 456.911 -1.26878 1.25556 0
M  V30 4671 C 454.011 -2.33876 2.45265 0
M  V30 4672 C 453.184 -2.23242 3.7614 0
M  V30 4673 C 452.243 -3.39242 4.02245 0
M  V30 4674 O 451.269 -3.1698 4.72771 0
M  V30 4675 N 452.471 -4.6242 3.50924 0
M  V30 4676 H 455.236 -0.594333 2.93748 0
M  V30 4677 H 452.797 -0.17714 1.60928 0
M  V30 4678 H 454.789 -3.1027 2.59836 0
M  V30 4679 H 453.359 -2.66799 1.62902 0
M  V30 4680 H 452.579 -1.31696 3.71551 0
M  V30 4681 H 453.867 -2.13321 4.61922 0
M  V30 4682 H 453.265 -4.83404 2.93832 0
M  V30 4683 H 451.822 -5.36046 3.70807 0
M  V30 4684 N 455.255 -1.55392 -0.262866 0
M  V30 4685 C 456.205 -1.85355 -1.32768 0
M  V30 4686 C 457.189 -0.713188 -1.44231 0
M  V30 4687 O 458.381 -0.974765 -1.47741 0
M  V30 4688 C 455.51 -2.13781 -2.68612 0
M  V30 4689 C 454.596 -3.34104 -2.61219 0
M  V30 4690 N 454.987 -4.53766 -2.2345 0
M  V30 4691 C 453.285 -3.36895 -2.92263 0
M  V30 4692 C 453.986 -5.35877 -2.26298 0
M  V30 4693 N 452.962 -4.74536 -2.65172 0
M  V30 4694 H 456.764 -2.75413 -1.02591 0
M  V30 4695 H 454.278 -1.55405 -0.471503 0
M  V30 4696 H 456.275 -2.33407 -3.45437 0
M  V30 4697 H 454.935 -1.25013 -2.99669 0
M  V30 4698 H 455.946 -4.79682 -1.95258 0
M  V30 4699 H 452.623 -2.58351 -3.27965 0
M  V30 4700 H 454.013 -6.41577 -1.99572 0
M  V30 4701 N 456.733 0.527833 -1.48498 0
M  V30 4702 C 457.696 1.61439 -1.62696 0
M  V30 4703 C 458.696 1.52824 -0.500136 0
M  V30 4704 O 459.886 1.56456 -0.765976 0
M  V30 4705 C 457.018 3.01063 -1.59918 0
M  V30 4706 H 458.211 1.50189 -2.59583 0
M  V30 4707 H 455.764 0.750055 -1.37127 0
M  V30 4708 H 456.499 3.17818 -0.645163 0
M  V30 4709 H 456.284 3.08725 -2.41726 0
M  V30 4710 H 457.774 3.80057 -1.73051 0
M  V30 4711 N 458.211 1.37122 0.776871 0
M  V30 4712 C 459.174 1.32301 1.8716 0
M  V30 4713 C 460.174 0.228099 1.59174 0
M  V30 4714 O 461.364 0.483642 1.67352 0
M  V30 4715 C 458.496 1.054 3.24197 0
M  V30 4716 H 459.689 2.29673 1.92848 0
M  V30 4717 H 457.242 1.22077 0.97606 0
M  V30 4718 H 457.977 0.0853872 3.24188 0
M  V30 4719 H 457.762 1.84648 3.45901 0
M  V30 4720 H 459.252 1.04664 4.04271 0
M  V30 4721 N 459.689 -1.00246 1.21608 0
M  V30 4722 C 460.652 -2.07233 0.979133 0
M  V30 4723 C 461.652 -1.6072 -0.0508219 0
M  V30 4724 O 462.842 -1.73196 0.186712 0
M  V30 4725 C 459.974 -3.37546 0.477016 0
M  V30 4726 H 461.167 -2.29687 1.92831 0
M  V30 4727 H 458.72 -1.17261 1.03342 0
M  V30 4728 H 459.455 -3.20773 -0.476966 0
M  V30 4729 H 459.24 -3.72638 1.21997 0
M  V30 4730 H 460.73 -4.16285 0.331181 0
M  V30 4731 N 461.167 -1.02423 -1.1978 0
M  V30 4732 C 462.097 -0.62157 -2.25075 0
M  V30 4733 C 463.078 0.367148 -1.6609 0
M  V30 4734 O 464.263 0.250892 -1.92573 0
M  V30 4735 C 461.393 0.0331826 -3.47284 0
M  V30 4736 C 460.347 -0.877323 -4.18912 0
M  V30 4737 C 459.673 -0.0879296 -5.34628 0
M  V30 4738 C 460.973 -2.18892 -4.74219 0
M  V30 4739 H 462.667 -1.50179 -2.59011 0
M  V30 4740 H 460.213 -0.723547 -1.24502 0
M  V30 4741 H 462.166 0.326488 -4.20133 0
M  V30 4742 H 460.89 0.948164 -3.12534 0
M  V30 4743 H 459.549 -1.15475 -3.47938 0
M  V30 4744 H 459.197 0.828941 -4.96123 0
M  V30 4745 H 458.897 -0.694359 -5.83483 0
M  V30 4746 H 460.421 0.198743 -6.10276 0
M  V30 4747 H 461.835 -1.95746 -5.38847 0
M  V30 4748 H 460.232 -2.74686 -5.33542 0
M  V30 4749 H 461.302 -2.84674 -3.92541 0
M  V30 4750 N 462.645 1.35699 -0.801477 0
M  V30 4751 C 463.893 1.9852 -0.37871 0
M  V30 4752 C 464.214 1.63907 1.05638 0
M  V30 4753 O 463.484 0.919013 1.73006 0
M  V30 4754 H 462.064 0.734322 -0.137042 0
M  V30 4755 H 464.726 1.65697 -1.02619 0
M  V30 4756 H 463.822 3.08382 -0.480284 0
M  V30 4757 N 464.123 0.554532 1.47522 0
M  V30 4758 C 465.4 -0.0360704 1.95567 0
M  V30 4759 C 465.78 -1.48828 1.49711 0
M  V30 4760 O 465.128 -2.16366 0.734717 0
M  V30 4761 C 465.338 0.106631 3.48837 0
M  V30 4762 C 466.686 -0.0400899 4.24581 0
M  V30 4763 O 467.71 0.0340453 3.56184 0
M  V30 4764 O 466.569 -0.199111 5.46137 0
M  V30 4765 H 463.663 -0.0656294 0.824392 0
M  V30 4766 H 466.209 0.620867 1.57935 0
M  V30 4767 H 464.981 1.11727 3.7501 0
M  V30 4768 H 464.604 -0.58804 3.93227 0
M  V30 4769 N 465.601 -1.54893 0.290851 0
M  V30 4770 C 466.878 -1.91991 -0.373989 0
M  V30 4771 C 467.258 -1.21694 -1.72493 0
M  V30 4772 O 466.606 -0.34917 -2.25816 0
M  V30 4773 C 466.816 -3.45419 -0.498703 0
M  V30 4774 C 468.164 -4.1748 -0.774298 0
M  V30 4775 O 469.188 -3.51398 -0.582908 0
M  V30 4776 O 468.047 -5.3445 -1.14129 0
M  V30 4777 H 465.141 -0.800593 -0.207315 0
M  V30 4778 H 467.687 -1.66297 0.338164 0
M  V30 4779 H 466.459 -3.88688 0.451392 0
M  V30 4780 H 466.082 -3.77117 -1.25972 0
M  V30 4781 N 467.08 -0.0183926 -1.57589 0
M  V30 4782 C 468.496 0.337897 -1.55982 0
M  V30 4783 C 468.696 1.73604 -1.02294 0
M  V30 4784 O 467.752 2.43589 -0.664895 0
M  V30 4785 C 469.065 0.196305 -3.00059 0
M  V30 4786 C 470.613 0.269875 -3.11834 0
M  V30 4787 C 471.088 0.157197 -4.5773 0
M  V30 4788 N 472.579 0.214521 -4.62703 0
M  V30 4789 C 473.314 0.150955 -5.73201 0
M  V30 4790 N 472.81 0.0369212 -6.9279 0
M  V30 4791 N 474.603 0.204162 -5.61729 0
M  V30 4792 H 466.754 -0.93279 -1.90821 0
M  V30 4793 H 469.017 -0.359253 -0.877292 0
M  V30 4794 H 468.723 -0.766383 -3.43248 0
M  V30 4795 H 468.597 0.970908 -3.6449 0
M  V30 4796 H 470.984 1.22302 -2.68563 0
M  V30 4797 H 471.065 -0.534918 -2.50144 0
M  V30 4798 H 470.709 -0.792479 -5.01679 0
M  V30 4799 H 470.639 0.980717 -5.17387 0
M  V30 4800 H 473.13 0.303238 -3.76681 0
M  V30 4801 H 473.443 -0.00518321 -7.728 0
M  V30 4802 H 471.788 0.0022886 -6.95 0
M  V30 4803 H 474.979 0.291575 -4.67191 0
M  V30 4804 H 475.152 0.15116 -6.47824 0
M  V30 4805 N 468.558 1.5553 0.254621 0
M  V30 4806 C 469.804 1.7818 0.980989 0
M  V30 4807 C 470.159 0.586059 1.83257 0
M  V30 4808 O 469.452 -0.420889 1.8692 0
M  V30 4809 C 469.646 3.03891 1.88109 0
M  V30 4810 C 469.475 4.35578 1.11812 0
M  V30 4811 C 468.245 4.98497 0.826343 0
M  V30 4812 C 470.443 5.11869 0.499486 0
M  V30 4813 N 468.425 6.13888 0.0385095 0
M  V30 4814 C 469.796 6.1981 -0.153292 0
M  V30 4815 C 471.851 4.96216 0.409175 0
M  V30 4816 C 470.554 7.13801 -0.8877 0
M  V30 4817 C 472.58 5.90578 -0.311683 0
M  V30 4818 C 471.942 6.97922 -0.953129 0
M  V30 4819 H 468.041 0.704057 0.340335 0
M  V30 4820 H 470.625 1.93025 0.254855 0
M  V30 4821 H 468.796 2.90389 2.57932 0
M  V30 4822 H 470.528 3.14869 2.54244 0
M  V30 4823 H 467.283 4.59769 1.13621 0
M  V30 4824 H 467.707 6.76129 -0.343275 0
M  V30 4825 H 472.349 4.1331 0.890765 0
M  V30 4826 H 470.067 7.96214 -1.38092 0
M  V30 4827 H 473.653 5.80544 -0.382125 0
M  V30 4828 H 472.533 7.69681 -1.50203 0
M  V30 4829 N 470.036 -0.519951 1.48776 0
M  V30 4830 C 471.452 -0.849418 1.35119 0
M  V30 4831 C 471.652 -1.98077 0.36982 0
M  V30 4832 O 470.708 -2.51664 -0.205359 0
M  V30 4833 C 472.021 -1.20748 2.75391 0
M  V30 4834 C 473.569 -1.31679 2.83954 0
M  V30 4835 C 474.044 -1.70824 4.24951 0
M  V30 4836 N 475.535 -1.77908 4.27672 0
M  V30 4837 C 476.27 -2.09603 5.33717 0
M  V30 4838 N 475.766 -2.39652 6.5003 0
M  V30 4839 N 477.559 -2.10694 5.21119 0
M  V30 4840 H 469.71 0.226377 2.1119 0
M  V30 4841 H 471.973 0.0386519 0.947212 0
M  V30 4842 H 471.679 -0.449703 3.48813 0
M  V30 4843 H 471.553 -2.15534 3.09556 0
M  V30 4844 H 473.94 -2.06532 2.10781 0
M  V30 4845 H 474.021 -0.3499 2.53396 0
M  V30 4846 H 473.665 -0.965282 4.98643 0
M  V30 4847 H 473.595 -2.6858 4.52959 0
M  V30 4848 H 476.086 -1.56923 3.43779 0
M  V30 4849 H 476.399 -2.6297 7.26682 0
M  V30 4850 H 474.744 -2.37149 6.53288 0
M  V30 4851 H 477.935 -1.86682 4.29264 0
M  V30 4852 H 478.108 -2.35062 6.03863 0
M  V30 4853 N 471.514 -1.37532 -0.769588 0
M  V30 4854 C 472.791 -1.23392 -1.51768 0
M  V30 4855 C 473.171 0.17157 -2.10402 0
M  V30 4856 O 472.519 1.17943 -1.95708 0
M  V30 4857 C 472.729 -2.33163 -2.59685 0
M  V30 4858 C 474.077 -2.70809 -3.27028 0
M  V30 4859 O 475.101 -2.32355 -2.69981 0
M  V30 4860 O 473.96 -3.37066 -4.30173 0
M  V30 4861 H 471.054 -0.481617 -0.67229 0
M  V30 4862 H 473.6 -1.49318 -0.806368 0
M  V30 4863 H 472.372 -3.27273 -2.14494 0
M  V30 4864 H 471.995 -2.08713 -3.38415 0
M  V30 4865 N 472.992 0.995999 -1.22138 0
M  V30 4866 C 473.922 2.10387 -1.01289 0
M  V30 4867 C 474.903 1.69975 0.0651454 0
M  V30 4868 O 476.088 1.9396 -0.0964628 0
M  V30 4869 C 473.218 3.42312 -0.586517 0
M  V30 4870 C 472.172 3.96558 -1.61014 0
M  V30 4871 C 471.498 5.24494 -1.0397 0
M  V30 4872 C 472.798 4.27595 -2.99933 0
M  V30 4873 H 474.492 2.28086 -1.93951 0
M  V30 4874 H 472.038 1.09607 -0.933928 0
M  V30 4875 H 473.991 4.19223 -0.427793 0
M  V30 4876 H 472.715 3.24431 0.375761 0
M  V30 4877 H 471.374 3.21776 -1.75658 0
M  V30 4878 H 471.022 5.02953 -0.0688703 0
M  V30 4879 H 470.722 5.61755 -1.72352 0
M  V30 4880 H 472.246 6.04042 -0.892494 0
M  V30 4881 H 473.66 4.95315 -2.8868 0
M  V30 4882 H 472.057 4.76021 -3.6541 0
M  V30 4883 H 473.127 3.35498 -3.50099 0
M  V30 4884 N 474.47 1.03057 1.19235 0
M  V30 4885 C 475.4 0.633497 2.24742 0
M  V30 4886 C 476.381 -0.358335 1.66283 0
M  V30 4887 O 477.566 -0.240676 1.92703 0
M  V30 4888 C 474.696 -0.0147648 3.47297 0
M  V30 4889 C 473.65 0.899527 4.18441 0
M  V30 4890 C 472.976 0.116281 5.34574 0
M  V30 4891 C 474.276 2.21404 4.73051 0
M  V30 4892 H 475.97 1.5155 2.58211 0
M  V30 4893 H 473.516 0.73014 1.24117 0
M  V30 4894 H 475.469 -0.304202 4.20301 0
M  V30 4895 H 474.193 -0.931577 3.13032 0
M  V30 4896 H 472.852 1.17319 3.47321 0
M  V30 4897 H 472.5 -0.802619 4.96555 0
M  V30 4898 H 472.2 0.725293 5.83107 0
M  V30 4899 H 473.724 -0.166376 6.10373 0
M  V30 4900 H 475.138 1.98601 5.37802 0
M  V30 4901 H 473.535 2.77512 5.32078 0
M  V30 4902 H 474.605 2.86752 3.91026 0
M  V30 4903 N 475.948 -1.35272 0.808662 0
M  V30 4904 C 477.225 -1.93077 0.313181 0
M  V30 4905 C 477.605 -1.73847 -1.19752 0
M  V30 4906 O 476.953 -1.1087 -1.998 0
M  V30 4907 C 477.163 -3.41347 0.726859 0
M  V30 4908 C 478.511 -4.18493 0.717532 0
M  V30 4909 O 479.535 -3.4987 0.668535 0
M  V30 4910 O 478.394 -5.40937 0.777779 0
M  V30 4911 H 475.488 -0.822885 0.0824018 0
M  V30 4912 H 478.034 -1.44335 0.892499 0
M  V30 4913 H 476.806 -3.49082 1.76797 0
M  V30 4914 H 476.429 -3.97411 0.122461 0
M  V30 4915 N 477.426 -0.562348 -1.47226 0
M  V30 4916 C 478.374 0.195476 -2.31777 0
M  V30 4917 C 479.368 0.90433 -1.43242 0
M  V30 4918 O 480.574 0.825031 -1.59979 0
M  V30 4919 H 476.949 0.0819095 -0.747526 0
M  V30 4920 H 478.92 -0.536753 -2.93533 0
M  V30 4921 C 477.669 1.20902 -3.26003 0
M  V30 4922 H 476.992 0.672997 -3.94095 0
M  V30 4923 H 478.432 1.71006 -3.87986 0
M  V30 4924 C 476.891 2.25955 -2.49891 0
M  V30 4925 O 477.421 3.32969 -2.2471 0
M  V30 4926 N 475.627 2.00019 -2.1081 0
M  V30 4927 H 475.174 1.13006 -2.31489 0
M  V30 4928 H 475.132 2.70523 -1.60201 0
M  V30 4929 N 478.904 1.54736 -0.299062 0
M  V30 4930 C 479.854 2.20155 0.592932 0
M  V30 4931 C 480.838 1.1739 1.10038 0
M  V30 4932 O 482.03 1.43116 1.04147 0
M  V30 4933 C 479.159 2.94437 1.76527 0
M  V30 4934 C 478.245 4.04516 1.27388 0
M  V30 4935 N 478.636 5.03319 0.500339 0
M  V30 4936 C 476.934 4.18022 1.55478 0
M  V30 4937 C 477.635 5.81209 0.238909 0
M  V30 4938 N 476.611 5.37408 0.818163 0
M  V30 4939 H 480.413 2.93899 -0.00563596 0
M  V30 4940 H 477.927 1.62068 -0.103732 0
M  V30 4941 H 479.924 3.3977 2.41582 0
M  V30 4942 H 478.584 2.22209 2.36756 0
M  V30 4943 H 479.595 5.17696 0.145419 0
M  V30 4944 H 476.272 3.56998 2.16469 0
M  V30 4945 H 477.662 6.70812 -0.382223 0
M  V30 4946 N 480.382 0.0267497 1.57577 0
M  V30 4947 C 481.659 -0.690926 1.82991 0
M  V30 4948 C 482.039 -1.90471 0.910164 0
M  V30 4949 O 481.387 -2.28474 -0.0347985 0
M  V30 4950 C 481.597 -1.07139 3.32148 0
M  V30 4951 C 482.945 -1.46402 3.98562 0
M  V30 4952 O 483.969 -1.16443 3.36629 0
M  V30 4953 O 482.828 -2.02214 5.07712 0
M  V30 4954 H 479.922 -0.338747 0.75444 0
M  V30 4955 H 482.468 0.0542506 1.69613 0
M  V30 4956 H 481.24 -0.207394 3.9075 0
M  V30 4957 H 480.863 -1.87481 3.50623 0
M  V30 4958 N 481.861 -1.55662 -0.24637 0
M  V30 4959 C 483.089 -1.81575 -0.991876 0
M  V30 4960 C 483.504 -0.602545 -1.78927 0
M  V30 4961 O 482.861 0.428795 -1.77391 0
M  V30 4962 C 482.912 -3.05711 -1.92933 0
M  V30 4963 O 482.633 -4.22348 -1.1642 0
M  V30 4964 C 484.134 -3.44428 -2.79078 0
M  V30 4965 H 481.354 -0.604209 -0.291844 0
M  V30 4966 H 483.898 -2.02722 -0.269095 0
M  V30 4967 H 482.053 -2.86612 -2.60638 0
M  V30 4968 H 482.467 -4.92706 -1.79835 0
M  V30 4969 H 483.941 -4.34388 -3.40603 0
M  V30 4970 H 484.418 -2.65037 -3.50217 0
M  V30 4971 H 485.024 -3.65879 -2.16824 0
M  V30 4972 N 483.339 0.512053 -1.4905 0
M  V30 4973 C 484.588 1.26343 -1.57227 0
M  V30 4974 C 484.901 1.93876 -0.259155 0
M  V30 4975 O 486.107 2.70612 -0.219358 0
M  V30 4976 C 484.563 2.29343 -2.77362 0
M  V30 4977 C 484.171 1.67799 -4.15388 0
M  V30 4978 C 485.915 3.05378 -2.94864 0
M  V30 4979 C 483.822 2.68845 -5.2676 0
M  V30 4980 H 482.752 0.475231 -0.585382 0
M  V30 4981 H 485.403 0.53862 -1.75417 0
M  V30 4982 H 483.785 3.04938 -2.52643 0
M  V30 4983 H 484.959 0.982715 -4.50199 0
M  V30 4984 H 483.274 1.04194 -4.03153 0
M  V30 4985 H 485.871 3.80921 -3.75238 0
M  V30 4986 H 486.214 3.62327 -2.05 0
M  V30 4987 H 486.747 2.36898 -3.19569 0
M  V30 4988 H 483.486 2.16692 -6.18647 0
M  V30 4989 H 483.006 3.36647 -4.96416 0
M  V30 4990 H 484.685 3.31487 -5.5563 0
M  V30 4991 N 484.817 1.37938 0.762283 0
M  V30 4992 C 486.063 1.33866 1.52341 0
M  V30 4993 C 486.396 -0.0738961 1.94059 0
M  V30 4994 O 485.671 -1.03326 1.64785 0
M  V30 4995 C 485.954 2.28644 2.78197 0
M  V30 4996 C 485.807 3.78722 2.42672 0
M  V30 4997 C 487.126 2.21702 3.80179 0
M  V30 4998 H 484.245 0.487593 0.55265 0
M  V30 4999 H 486.887 1.68717 0.873767 0
M  V30 5000 H 485.037 1.99055 3.33631 0
M  V30 5001 H 486.709 4.18948 1.93081 0
M  V30 5002 H 484.952 3.96827 1.75244 0
M  V30 5003 H 485.623 4.40486 3.3268 0
M  V30 5004 H 488.099 2.47805 3.34263 0
M  V30 5005 H 486.975 2.90143 4.65949 0
M  V30 5006 H 487.236 1.21301 4.25133 0
M  V30 5007 N 486.295 -0.989507 1.22664 0
M  V30 5008 C 487.535 -1.7447 1.06488 0
M  V30 5009 C 487.899 -1.8794 -0.392737 0
M  V30 5010 O 489.1 -2.60175 -0.675446 0
M  V30 5011 C 487.371 -3.11043 1.76031 0
M  V30 5012 S 488.93 -4.02258 1.7531 0
M  V30 5013 H 485.748 -0.600123 0.381278 0
M  V30 5014 H 488.35 -1.18283 1.55658 0
M  V30 5015 H 487.054 -2.98884 2.81241 0
M  V30 5016 H 486.585 -3.72301 1.27105 0
M  V30 5017 H 488.6 -4.89623 0.805208 0
M  V30 5018 N 487.773 -1.03688 -1.18687 0
M  V30 5019 C 488.723 -0.595067 -2.20098 0
M  V30 5020 C 489.707 0.360465 -1.5681 0
M  V30 5021 O 490.899 0.180136 -1.76081 0
M  V30 5022 C 488.028 0.0444495 -3.43271 0
M  V30 5023 C 487.114 -0.934002 -4.13687 0
M  V30 5024 N 487.505 -2.09957 -4.60165 0
M  V30 5025 C 485.803 -0.759177 -4.39491 0
M  V30 5026 C 486.504 -2.71735 -5.1433 0
M  V30 5027 N 485.48 -1.99638 -5.05614 0
M  V30 5028 H 489.282 -1.48336 -2.5372 0
M  V30 5029 H 486.796 -0.904949 -1.3485 0
M  V30 5030 H 488.793 0.37864 -4.15177 0
M  V30 5031 H 487.453 0.928325 -3.11147 0
M  V30 5032 H 488.464 -2.47863 -4.54735 0
M  V30 5033 H 485.141 0.0749292 -4.17433 0
M  V30 5034 H 486.531 -3.70492 -5.60523 0
M  V30 5035 N 489.251 1.34841 -0.815825 0
M  V30 5036 C 490.161 2.33425 -0.234462 0
M  V30 5037 C 491.177 1.62295 0.627413 0
M  V30 5038 O 492.353 1.94109 0.536987 0
M  V30 5039 C 489.418 3.41471 0.599849 0
M  V30 5040 C 488.479 4.28362 -0.283596 0
M  V30 5041 C 487.712 5.31248 0.51099 0
M  V30 5042 O 487.935 5.43056 1.7449 0
M  V30 5043 O 486.869 6.01812 -0.10297 0
M  V30 5044 H 490.695 2.84962 -1.05024 0
M  V30 5045 H 488.28 1.37774 -0.577809 0
M  V30 5046 H 490.162 4.07464 1.07475 0
M  V30 5047 H 488.837 2.9219 1.39308 0
M  V30 5048 H 487.744 3.65318 -0.805836 0
M  V30 5049 H 489.077 4.81066 -1.041 0
M  V30 5050 N 490.729 0.570148 1.46925 0
M  V30 5051 C 491.978 0.0487352 2.01641 0
M  V30 5052 C 492.291 -1.31433 1.44861 0
M  V30 5053 O 493.497 -1.92638 1.91318 0
M  V30 5054 C 491.953 0.0365817 3.59881 0
M  V30 5055 C 491.561 1.39719 4.25655 0
M  V30 5056 C 493.305 -0.431545 4.22301 0
M  V30 5057 C 491.212 1.34345 5.75939 0
M  V30 5058 H 490.142 0.0144492 0.753862 0
M  V30 5059 H 492.793 0.719928 1.68788 0
M  V30 5060 H 491.175 -0.700522 3.89755 0
M  V30 5061 H 492.349 2.15303 4.07408 0
M  V30 5062 H 490.664 1.80431 3.75278 0
M  V30 5063 H 493.261 -0.490354 5.32447 0
M  V30 5064 H 493.604 -1.44638 3.90366 0
M  V30 5065 H 494.137 0.251102 3.97007 0
M  V30 5066 H 490.876 2.33469 6.12513 0
M  V30 5067 H 490.396 0.629615 5.96486 0
M  V30 5068 H 492.075 1.051 6.38407 0
M  V30 5069 N 492.207 -1.54576 0.307264 0
M  V30 5070 C 493.139 -2.21212 -0.599807 0
M  V30 5071 C 494.152 -1.20685 -1.09266 0
M  V30 5072 O 495.341 -1.47244 -1.00903 0
M  V30 5073 C 492.441 -2.84994 -1.83389 0
M  V30 5074 C 491.614 -4.11511 -1.48248 0
M  V30 5075 C 490.673 -4.59038 -2.57237 0
M  V30 5076 O 489.699 -5.24095 -2.22065 0
M  V30 5077 N 490.901 -4.31884 -3.87887 0
M  V30 5078 H 493.666 -2.99686 -0.0293075 0
M  V30 5079 H 491.227 -1.61379 0.129738 0
M  V30 5080 H 493.219 -3.1372 -2.5566 0
M  V30 5081 H 491.789 -2.10324 -2.31263 0
M  V30 5082 H 491.009 -3.89728 -0.592122 0
M  V30 5083 H 492.297 -4.93879 -1.22316 0
M  V30 5084 H 491.695 -3.79778 -4.19268 0
M  V30 5085 H 490.252 -4.65304 -4.56438 0
M  V30 5086 N 493.685 -0.035106 -1.57561 0
M  V30 5087 C 495.101 0.321334 -1.56332 0
M  V30 5088 C 495.301 1.72509 -1.04129 0
M  V30 5089 O 494.357 2.4287 -0.690694 0
M  V30 5090 C 495.67 0.164469 -3.0025 0
M  V30 5091 C 497.218 0.236786 -3.12103 0
M  V30 5092 C 497.693 0.10864 -4.57871 0
M  V30 5093 N 499.184 0.165433 -4.62904 0
M  V30 5094 C 499.919 0.0901506 -5.73329 0
M  V30 5095 N 499.415 -0.0365606 -6.9279 0
M  V30 5096 N 501.208 0.144572 -5.61914 0
M  V30 5097 H 493.359 -0.952976 -1.89821 0
M  V30 5098 H 495.622 -0.368537 -0.873432 0
M  V30 5099 H 495.328 -0.802746 -3.42416 0
M  V30 5100 H 495.202 0.932194 -3.655 0
M  V30 5101 H 497.589 1.19446 -2.69845 0
M  V30 5102 H 497.67 -0.561419 -2.49563 0
M  V30 5103 H 497.314 -0.845644 -5.00811 0
M  V30 5104 H 497.244 0.925786 -5.18398 0
M  V30 5105 H 499.735 0.263269 -3.76982 0
M  V30 5106 H 500.048 -0.0871487 -7.72751 0
M  V30 5107 H 498.393 -0.0714256 -6.94963 0
M  V30 5108 H 501.584 0.242006 -4.67474 0
M  V30 5109 H 501.757 0.0824413 -6.47948 0
M  V30 5110 N 495.163 1.55791 0.238111 0
M  V30 5111 C 496.41 1.78033 0.964907 0
M  V30 5112 C 496.738 0.600984 1.84982 0
M  V30 5113 O 495.993 -0.41536 1.91241 0
M  V30 5114 C 496.292 3.05869 1.84875 0
M  V30 5115 C 495.958 4.36808 1.11846 0
M  V30 5116 C 494.62 4.72388 0.916662 0
M  V30 5117 C 496.972 5.17717 0.60151 0
M  V30 5118 C 494.3 5.86406 0.185756 0
M  V30 5119 C 496.652 6.32494 -0.115972 0
M  V30 5120 C 495.316 6.66688 -0.329168 0
M  V30 5121 H 494.586 0.651469 0.353085 0
M  V30 5122 H 497.233 1.90061 0.234318 0
M  V30 5123 H 495.538 2.88891 2.64668 0
M  V30 5124 H 497.235 3.20278 2.41294 0
M  V30 5125 H 493.825 4.08862 1.28569 0
M  V30 5126 H 498.009 4.90678 0.744932 0
M  V30 5127 H 493.265 6.11399 0.0101886 0
M  V30 5128 H 497.439 6.94425 -0.524127 0
M  V30 5129 H 495.066 7.54884 -0.897474 0
M  V30 5130 N 496.642 -0.504142 1.49319 0
M  V30 5131 C 497.89 -1.25598 1.58334 0
M  V30 5132 C 498.211 -1.93114 0.270538 0
M  V30 5133 O 497.481 -1.82585 -0.709891 0
M  V30 5134 H 496.061 -0.466571 0.58337 0
M  V30 5135 H 498.723 -0.584547 1.85928 0
M  V30 5136 H 497.819 -2.02159 2.37778 0
M  V30 5137 N 498.12 -1.38341 -0.754957 0
M  V30 5138 C 499.368 -1.34208 -1.51105 0
M  V30 5139 C 499.689 0.0677634 -1.94882 0
M  V30 5140 O 498.959 1.01517 -1.67544 0
M  V30 5141 H 497.539 -0.493819 -0.560493 0
M  V30 5142 H 500.201 -1.73005 -0.897507 0
M  V30 5143 H 499.297 -1.99203 -2.4026 0
M  V30 5144 N 499.598 0.982988 -1.23187 0
M  V30 5145 C 501.014 1.2487 -0.993967 0
M  V30 5146 C 501.214 1.99155 0.306498 0
M  V30 5147 O 500.27 2.30688 1.0266 0
M  V30 5148 C 501.583 2.05078 -2.19917 0
M  V30 5149 C 503.131 2.18227 -2.2438 0
M  V30 5150 C 503.606 3.01825 -3.44479 0
M  V30 5151 N 505.097 3.09411 -3.44702 0
M  V30 5152 C 505.832 3.74412 -4.34285 0
M  V30 5153 N 505.328 4.41259 -5.341 0
M  V30 5154 N 507.121 3.71273 -4.22035 0
M  V30 5155 H 499.272 0.485253 -2.06783 0
M  V30 5156 H 501.535 0.276979 -0.906635 0
M  V30 5157 H 501.241 1.57867 -3.14279 0
M  V30 5158 H 501.115 3.05829 -2.2079 0
M  V30 5159 H 503.502 2.64648 -1.30559 0
M  V30 5160 H 503.583 1.16873 -2.2754 0
M  V30 5161 H 503.227 2.56102 -4.38605 0
M  V30 5162 H 503.157 4.03342 -3.38559 0
M  V30 5163 H 505.648 2.61845 -2.7248 0
M  V30 5164 H 505.961 4.88629 -5.98717 0
M  V30 5165 H 504.306 4.39975 -5.38002 0
M  V30 5166 H 507.497 3.18217 -3.43301 0
M  V30 5167 H 507.67 4.21649 -4.92053 0
M  V30 5168 N 501.076 1.04316 1.18135 0
M  V30 5169 C 501.986 0.646876 2.25505 0
M  V30 5170 C 503.002 -0.328008 1.7088 0
M  V30 5171 O 504.178 -0.182309 2.00573 0
M  V30 5172 C 501.243 0.0185664 3.46695 0
M  V30 5173 C 500.304 1.04277 4.16443 0
M  V30 5174 C 499.537 0.444352 5.31847 0
M  V30 5175 O 499.76 -0.748735 5.65465 0
M  V30 5176 O 498.694 1.17428 5.90334 0
M  V30 5177 H 502.52 1.54147 2.61672 0
M  V30 5178 H 500.105 0.814188 1.25265 0
M  V30 5179 H 501.987 -0.331068 4.20097 0
M  V30 5180 H 500.662 -0.849814 3.12346 0
M  V30 5181 H 499.569 1.44425 3.45098 0
M  V30 5182 H 500.902 1.882 4.54798 0
M  V30 5183 N 502.554 -1.34406 0.822964 0
M  V30 5184 C 503.8 -1.98578 0.411666 0
M  V30 5185 C 504.133 -1.65093 -1.02264 0
M  V30 5186 O 503.408 -0.92258 -1.71227 0
M  V30 5187 C 503.691 -3.54823 0.614235 0
M  V30 5188 C 503.544 -3.9805 2.09466 0
M  V30 5189 C 504.863 -4.40071 0.050221 0
M  V30 5190 H 501.982 -0.721355 0.151047 0
M  V30 5191 H 504.624 -1.59301 1.03554 0
M  V30 5192 H 502.774 -3.88411 0.0831774 0
M  V30 5193 H 504.446 -3.74795 2.68936 0
M  V30 5194 H 502.689 -3.4836 2.5851 0
M  V30 5195 H 503.36 -5.06819 2.18721 0
M  V30 5196 H 505.836 -4.13037 0.503953 0
M  V30 5197 H 504.712 -5.48452 0.221759 0
M  V30 5198 H 504.973 -4.29576 -1.04482 0
M  V30 5199 N 504.032 -0.577932 -1.46621 0
M  V30 5200 C 504.98 0.170882 -2.31971 0
M  V30 5201 C 505.974 0.889086 -1.44193 0
M  V30 5202 O 507.18 0.808017 -1.60845 0
M  V30 5203 H 503.555 0.0739763 -0.748353 0
M  V30 5204 H 505.526 -0.567856 -2.92947 0
M  V30 5205 C 504.275 1.17438 -3.27267 0
M  V30 5206 H 503.598 0.63116 -3.94787 0
M  V30 5207 H 505.038 1.66882 -3.89778 0
M  V30 5208 C 503.497 2.23292 -2.52274 0
M  V30 5209 O 504.027 3.30567 -2.28229 0
M  V30 5210 N 502.233 1.97772 -2.12919 0
M  V30 5211 H 501.78 1.10545 -2.32675 0
M  V30 5212 H 501.738 2.68809 -1.63062 0
M  V30 5213 N 505.51 1.54411 -0.315457 0
M  V30 5214 C 506.738 2.04833 0.291738 0
M  V30 5215 C 507.153 1.19203 1.46411 0
M  V30 5216 O 506.51 0.220867 1.81159 0
M  V30 5217 C 506.561 3.53969 0.73404 0
M  V30 5218 O 506.282 4.36346 -0.391682 0
M  V30 5219 C 507.783 4.2045 1.40489 0
M  V30 5220 H 505.003 0.668195 0.0612947 0
M  V30 5221 H 507.547 1.99276 -0.45929 0
M  V30 5222 H 505.702 3.5984 1.43506 0
M  V30 5223 H 506.116 5.24481 -0.0447088 0
M  V30 5224 H 507.59 5.26278 1.66539 0
M  V30 5225 H 508.067 3.71067 2.3496 0
M  V30 5226 H 508.673 4.18694 0.746662 0
M  V30 5227 N 506.988 0.0434614 1.5754 0
M  V30 5228 C 507.951 -0.918696 2.09982 0
M  V30 5229 C 508.951 -1.24488 1.01781 0
M  V30 5230 O 510.141 -1.18284 1.27885 0
M  V30 5231 C 507.273 -2.23093 2.57764 0
M  V30 5232 H 508.466 -0.464229 2.96285 0
M  V30 5233 H 506.019 -0.204818 1.54952 0
M  V30 5234 H 506.754 -2.73137 1.74832 0
M  V30 5235 H 506.539 -2.00724 3.36827 0
M  V30 5236 H 508.029 -2.92028 2.98512 0
M  V30 5237 N 508.466 -1.55915 -0.229846 0
M  V30 5238 C 509.714 -1.7819 -0.953565 0
M  V30 5239 C 510.035 -0.610504 -1.85197 0
M  V30 5240 O 509.305 0.372988 -1.92316 0
M  V30 5241 H 507.885 -0.657208 -0.355087 0
M  V30 5242 H 510.547 -1.9337 -0.243693 0
M  V30 5243 H 509.643 -2.70011 -1.56527 0
M  V30 5244 N 509.944 0.496216 -1.49584 0
M  V30 5245 C 511.221 1.25755 -1.49816 0
M  V30 5246 C 511.601 2.09859 -0.228572 0
M  V30 5247 O 510.949 2.14449 0.788908 0
M  V30 5248 C 511.159 2.11017 -2.7798 0
M  V30 5249 C 512.507 2.70047 -3.27658 0
M  V30 5250 O 513.531 2.21281 -2.79129 0
M  V30 5251 O 512.39 3.58834 -4.1219 0
M  V30 5252 H 509.484 0.569322 -0.599834 0
M  V30 5253 H 512.03 0.510094 -1.61852 0
M  V30 5254 H 510.802 1.48879 -3.61871 0
M  V30 5255 H 510.425 2.92947 -2.68827 0
M  V30 5256 N 511.423 1.38739 0.74761 0
M  V30 5257 C 512.671 1.35007 1.50391 0
M  V30 5258 C 512.992 -0.0574274 1.94915 0
M  V30 5259 O 512.262 -1.00628 1.6808 0
M  V30 5260 H 510.842 0.496784 0.557866 0
M  V30 5261 H 513.504 1.73479 0.888319 0
M  V30 5262 H 512.6 2.00474 2.392 0
M  V30 5263 N 512.901 -0.976442 1.23707 0
M  V30 5264 C 514.148 -1.71827 1.07153 0
M  V30 5265 C 514.476 -1.9053 -0.390982 0
M  V30 5266 O 513.731 -1.45779 -1.30564 0
M  V30 5267 C 514.03 -3.11814 1.74662 0
M  V30 5268 C 513.696 -3.12978 3.24585 0
M  V30 5269 C 512.358 -3.13003 3.6549 0
M  V30 5270 C 514.71 -3.07986 4.20469 0
M  V30 5271 C 512.038 -3.05757 5.00729 0
M  V30 5272 C 514.39 -3.02282 5.55705 0
M  V30 5273 C 513.054 -3.00631 5.95968 0
M  V30 5274 H 512.324 -0.628758 0.392102 0
M  V30 5275 H 514.971 -1.14239 1.53693 0
M  V30 5276 H 513.276 -3.72812 1.20492 0
M  V30 5277 H 514.973 -3.67989 1.59328 0
M  V30 5278 H 511.563 -3.13718 2.92026 0
M  V30 5279 H 515.747 -3.07103 3.89874 0
M  V30 5280 H 511.003 -3.02834 5.31132 0
M  V30 5281 H 515.177 -2.97376 6.29714 0
M  V30 5282 H 512.804 -2.94771 7.00724 0
M  V30 5283 N 514.379 -1.04941 -1.1758 0
M  V30 5284 C 515.625 -0.759112 -1.88057 0
M  V30 5285 C 515.958 0.711918 -1.8068 0
M  V30 5286 O 515.233 1.52035 -1.21308 0
M  V30 5287 C 515.516 -1.237 -3.38187 0
M  V30 5288 C 515.369 -2.77078 -3.54327 0
M  V30 5289 C 516.688 -0.834014 -4.32125 0
M  V30 5290 H 513.807 -0.277237 -0.682868 0
M  V30 5291 H 516.449 -1.30296 -1.38286 0
M  V30 5292 H 514.599 -0.774337 -3.80705 0
M  V30 5293 H 516.271 -3.31449 -3.20842 0
M  V30 5294 H 514.514 -3.16477 -2.96689 0
M  V30 5295 H 515.185 -3.05577 -4.59703 0
M  V30 5296 H 517.661 -1.23228 -3.97434 0
M  V30 5297 H 516.537 -1.19603 -5.35711 0
M  V30 5298 H 516.798 0.262195 -4.41322 0
M  V30 5299 N 515.857 1.33968 -0.830081 0
M  V30 5300 C 516.82 2.27694 -0.26235 0
M  V30 5301 C 517.82 1.50589 0.563876 0
M  V30 5302 O 519.01 1.70028 0.378941 0
M  V30 5303 C 516.142 3.35002 0.63138 0
M  V30 5304 H 517.335 2.79419 -1.08928 0
M  V30 5305 H 514.888 1.44221 -0.602486 0
M  V30 5306 H 515.623 2.88504 1.48109 0
M  V30 5307 H 515.408 3.92079 0.0403276 0
M  V30 5308 H 516.898 4.04897 1.02217 0
M  V30 5309 N 517.335 0.585699 1.46312 0
M  V30 5310 C 518.563 0.0781299 2.06752 0
M  V30 5311 C 518.978 -1.22812 1.43396 0
M  V30 5312 O 518.335 -1.74318 0.540314 0
M  V30 5313 C 518.386 -0.0911927 3.61385 0
M  V30 5314 O 518.107 1.16336 4.22371 0
M  V30 5315 C 519.608 -0.632765 4.38761 0
M  V30 5316 H 516.828 0.0588188 0.668417 0
M  V30 5317 H 519.372 0.807218 1.87894 0
M  V30 5318 H 517.527 -0.770514 3.7966 0
M  V30 5319 H 517.941 0.979082 5.15281 0
M  V30 5320 H 519.415 -0.70041 5.47538 0
M  V30 5321 H 519.892 -1.65039 4.07012 0
M  V30 5322 H 520.498 0.0117856 4.25298 0
M  V30 5323 N 518.813 -1.54241 0.323641 0
M  V30 5324 C 520.06 -2.0057 -0.27891 0
M  V30 5325 C 520.388 -1.21181 -1.52136 0
M  V30 5326 O 519.643 -0.282043 -1.93657 0
M  V30 5327 C 519.942 -3.5129 -0.658031 0
M  V30 5328 C 519.608 -4.48281 0.485252 0
M  V30 5329 C 518.27 -4.74519 0.799055 0
M  V30 5330 C 520.622 -5.05909 1.25322 0
M  V30 5331 C 517.95 -5.55643 1.88354 0
M  V30 5332 C 520.302 -5.88215 2.32779 0
M  V30 5333 C 518.966 -6.12755 2.64741 0
M  V30 5334 H 518.236 -0.733938 -0.10206 0
M  V30 5335 H 520.883 -1.862 0.447435 0
M  V30 5336 H 519.188 -3.63388 -1.4648 0
M  V30 5337 H 520.885 -3.84578 -1.1358 0
M  V30 5338 H 517.475 -4.27979 0.230593 0
M  V30 5339 H 521.659 -4.8562 1.02404 0
M  V30 5340 H 516.915 -5.72888 2.13564 0
M  V30 5341 H 521.089 -6.31888 2.92729 0
M  V30 5342 H 518.716 -6.75404 3.48904 0
M  V30 5343 N 520.291 -0.0518155 -1.57515 0
M  V30 5344 C 521.519 0.631395 -1.9703 0
M  V30 5345 C 521.934 1.64341 -0.92938 0
M  V30 5346 O 521.291 1.82296 0.0863266 0
M  V30 5347 C 521.342 1.31774 -3.36627 0
M  V30 5348 O 521.063 0.346247 -4.3673 0
M  V30 5349 C 522.564 2.09065 -3.90905 0
M  V30 5350 H 519.784 0.172576 -0.648428 0
M  V30 5351 H 522.328 -0.118306 -2.04158 0
M  V30 5352 H 520.483 2.01867 -3.30649 0
M  V30 5353 H 520.897 0.836226 -5.17791 0
M  V30 5354 H 522.371 2.52508 -4.9086 0
M  V30 5355 H 522.848 2.93908 -3.26366 0
M  V30 5356 H 523.454 1.43882 -4.00223 0
M  V30 5357 N 521.769 1.56035 0.221574 0
M  V30 5358 C 522.994 1.83476 0.967026 0
M  V30 5359 C 523.419 0.632139 1.7716 0
M  V30 5360 O 522.777 -0.419082 1.7639 0
M  V30 5361 C 522.825 3.08907 1.86034 0
M  V30 5362 O 521.929 2.876 2.95567 0
M  V30 5363 H 521.27 0.604913 0.273817 0
M  V30 5364 H 523.8 2.03247 0.234893 0
M  V30 5365 H 523.81 3.3901 2.27016 0
M  V30 5366 H 522.485 3.96068 1.26898 0
M  V30 5367 H 521.062 2.6873 2.58532 0
M  V30 5368 N 523.247 -0.488276 1.49845 0
M  V30 5369 C 524.658 -1.06955 1.53028 0
M  V30 5370 C 525.009 -1.9351 0.323797 0
M  V30 5371 O 524.134 -2.08891 -0.565116 0
M  V30 5372 C 524.729 -1.94643 2.77307 0
M  V30 5373 C 523.288 -2.4791 2.83227 0
M  V30 5374 C 522.435 -1.25833 2.47106 0
M  V30 5375 H 525.386 -0.271626 1.56358 0
M  V30 5376 H 525.407 -2.79496 2.5819 0
M  V30 5377 H 524.919 -1.31621 3.65099 0
M  V30 5378 H 523.02 -3.14535 1.99745 0
M  V30 5379 H 523.133 -2.84193 3.85709 0
M  V30 5380 H 521.497 -1.58764 1.99163 0
M  V30 5381 H 522.28 -0.644993 3.37186 0
M  V30 5382 N 524.725 -1.39134 -0.740242 0
M  V30 5383 C 525.95 -1.39518 -1.53459 0
M  V30 5384 C 526.375 0.00968883 -1.88098 0
M  V30 5385 O 525.733 0.995312 -1.51536 0
M  V30 5386 C 525.781 -2.26981 -2.802 0
M  V30 5387 O 524.885 -1.69609 -3.75908 0
M  V30 5388 H 524.226 -0.475328 -0.463637 0
M  V30 5389 H 526.756 -1.83064 -0.913717 0
M  V30 5390 H 526.766 -2.41309 -3.28989 0
M  V30 5391 H 525.441 -3.29081 -2.5432 0
M  V30 5392 H 524.018 -1.64495 -3.34658 0
M  V30 5393 N 526.204 0.969867 -1.24223 0
M  V30 5394 C 527.167 2.04564 -1.03373 0
M  V30 5395 C 528.167 1.60798 0.00819206 0
M  V30 5396 O 529.357 1.72641 -0.232567 0
M  V30 5397 C 526.489 3.36163 -0.566343 0
M  V30 5398 H 527.682 2.24494 -1.98853 0
M  V30 5399 H 525.235 1.1448 -1.06415 0
M  V30 5400 H 525.97 3.21925 0.391751 0
M  V30 5401 H 525.755 3.69273 -1.31834 0
M  V30 5402 H 527.245 4.1526 -0.441435 0
M  V30 5403 N 527.682 1.05563 1.17022 0
M  V30 5404 C 528.645 0.664098 2.19368 0
M  V30 5405 C 529.645 -0.286358 1.5823 0
M  V30 5406 O 530.835 -0.069728 1.7406 0
M  V30 5407 C 527.967 -0.0239932 3.40892 0
M  V30 5408 H 529.16 1.57 2.55521 0
M  V30 5409 H 526.713 0.849964 1.31169 0
M  V30 5410 H 527.448 -0.942988 3.10287 0
M  V30 5411 H 527.233 0.659351 3.86516 0
M  V30 5412 H 528.723 -0.283909 4.16634 0
M  V30 5413 N 529.16 -1.33526 0.837174 0
M  V30 5414 C 530.409 -1.97098 0.428387 0
M  V30 5415 C 530.722 -1.67062 -1.01734 0
M  V30 5416 O 531.928 -2.24235 -1.53072 0
M  V30 5417 C 530.384 -3.52725 0.715075 0
M  V30 5418 C 529.992 -3.9164 2.17537 0
M  V30 5419 C 531.736 -4.22857 0.373154 0
M  V30 5420 C 529.643 -5.40237 2.40619 0
M  V30 5421 H 528.573 -0.737589 0.156455 0
M  V30 5422 H 531.224 -1.52169 1.02552 0
M  V30 5423 H 529.606 -3.95971 0.0475904 0
M  V30 5424 H 530.78 -3.59456 2.88319 0
M  V30 5425 H 529.095 -3.34485 2.4801 0
M  V30 5426 H 531.692 -5.32133 0.523264 0
M  V30 5427 H 532.035 -4.10647 -0.683708 0
M  V30 5428 H 532.568 -3.85135 0.995801 0
M  V30 5429 H 529.307 -5.57449 3.44864 0
M  V30 5430 H 528.827 -5.73887 1.74396 0
M  V30 5431 H 530.506 -6.07102 2.23688 0
M  V30 5432 N 530.638 -0.59345 -1.46 0
M  V30 5433 C 531.601 0.123538 -2.28867 0
M  V30 5434 C 532.601 0.808628 -1.38989 0
M  V30 5435 O 533.791 0.658945 -1.61256 0
M  V30 5436 C 530.923 1.1847 -3.19653 0
M  V30 5437 H 532.116 -0.604843 -2.93737 0
M  V30 5438 H 529.669 -0.351875 -1.52288 0
M  V30 5439 H 530.404 1.94431 -2.59552 0
M  V30 5440 H 530.189 0.69783 -3.8584 0
M  V30 5441 H 531.679 1.68726 -3.81997 0
M  V30 5442 N 532.116 1.54067 -0.331816 0
M  V30 5443 C 533.356 2.02625 0.26876 0
M  V30 5444 C 533.72 1.21462 1.48697 0
M  V30 5445 O 534.921 1.59863 2.16096 0
M  V30 5446 C 533.192 3.52554 0.586577 0
M  V30 5447 S 534.751 4.23035 1.16563 0
M  V30 5448 H 531.569 0.706395 0.0807862 0
M  V30 5449 H 534.171 1.89844 -0.466856 0
M  V30 5450 H 532.875 4.09242 -0.308046 0
M  V30 5451 H 532.406 3.69432 1.35217 0
M  V30 5452 H 534.421 4.31382 2.45203 0
M  V30 5453 N 533.594 0.0601682 1.57485 0
M  V30 5454 C 534.557 -0.896373 2.10945 0
M  V30 5455 C 535.557 -1.23402 1.03095 0
M  V30 5456 O 536.747 -1.16921 1.29132 0
M  V30 5457 C 533.879 -2.20346 2.60116 0
M  V30 5458 H 535.072 -0.432778 2.96761 0
M  V30 5459 H 532.625 -0.188372 1.55161 0
M  V30 5460 H 533.36 -2.71268 1.7772 0
M  V30 5461 H 533.145 -1.9714 3.38937 0
M  V30 5462 H 534.635 -2.88846 3.01592 0
M  V30 5463 N 535.072 -1.5615 -0.213296 0
M  V30 5464 C 536.349 -1.70349 -0.961281 0
M  V30 5465 C 536.729 -0.609791 -2.02101 0
M  V30 5466 O 536.077 0.381987 -2.25285 0
M  V30 5467 C 536.287 -3.11982 -1.56424 0
M  V30 5468 C 537.635 -3.71649 -2.05334 0
M  V30 5469 O 538.659 -3.14995 -1.66302 0
M  V30 5470 O 537.518 -4.71038 -2.77102 0
M  V30 5471 H 534.612 -0.694121 -0.449582 0
M  V30 5472 H 537.158 -1.68464 -0.204426 0
M  V30 5473 H 535.93 -3.83046 -0.799457 0
M  V30 5474 H 535.553 -3.18019 -2.38641 0
M  V30 5475 N 536.55 0.480323 -1.50102 0
M  V30 5476 C 537.827 1.24159 -1.51142 0
M  V30 5477 C 538.207 2.09605 -0.250818 0
M  V30 5478 O 537.555 2.15274 0.766118 0
M  V30 5479 C 537.765 2.08057 -2.80202 0
M  V30 5480 C 539.113 2.66556 -3.30504 0
M  V30 5481 O 540.137 2.18308 -2.81461 0
M  V30 5482 O 538.996 3.54442 -4.15973 0
M  V30 5483 H 536.09 0.562928 -0.605839 0
M  V30 5484 H 538.636 0.492899 -1.62384 0
M  V30 5485 H 537.408 1.45032 -3.6343 0
M  V30 5486 H 537.031 2.90079 -2.71919 0
M  V30 5487 N 538.028 1.39524 0.732853 0
M  V30 5488 C 539.277 1.36175 1.48792 0
M  V30 5489 C 539.59 -0.0388195 1.95561 0
M  V30 5490 O 540.796 -0.194899 2.708 0
M  V30 5491 C 539.252 2.39242 2.68871 0
M  V30 5492 C 538.86 3.85024 2.29042 0
M  V30 5493 C 540.604 2.44972 3.46683 0
M  V30 5494 C 538.511 4.79727 3.45856 0
M  V30 5495 H 537.441 0.506267 0.558757 0
M  V30 5496 H 540.092 1.65181 0.799226 0
M  V30 5497 H 538.474 2.0331 3.39825 0
M  V30 5498 H 539.648 4.30008 1.6562 0
M  V30 5499 H 537.963 3.82609 1.64316 0
M  V30 5500 H 540.56 3.12918 4.33574 0
M  V30 5501 H 540.903 1.4749 3.89297 0
M  V30 5502 H 541.436 2.79808 2.82759 0
M  V30 5503 H 538.175 5.78479 3.08289 0
M  V30 5504 H 537.695 4.39421 4.08251 0
M  V30 5505 H 539.374 4.98731 4.12161 0
M  V30 5506 N 539.506 -0.963266 1.24736 0
M  V30 5507 C 540.752 -1.70933 1.09131 0
M  V30 5508 C 541.085 -1.90676 -0.368273 0
M  V30 5509 O 540.36 -1.47147 -1.27193 0
M  V30 5510 C 540.643 -3.09744 1.83658 0
M  V30 5511 C 540.496 -2.97465 3.37394 0
M  V30 5512 C 541.815 -4.09483 1.61282 0
M  V30 5513 H 538.934 -0.620398 0.397838 0
M  V30 5514 H 541.576 -1.12028 1.53459 0
M  V30 5515 H 539.726 -3.60031 1.4598 0
M  V30 5516 H 541.398 -2.54571 3.84696 0
M  V30 5517 H 539.641 -2.33576 3.65547 0
M  V30 5518 H 540.312 -3.95822 3.84745 0
M  V30 5519 H 542.788 -3.68073 1.94066 0
M  V30 5520 H 541.664 -5.04666 2.15878 0
M  V30 5521 H 541.925 -4.38639 0.552102 0
M  V30 5522 N 540.985 -1.06182 -1.16461 0
M  V30 5523 C 542.262 -0.691364 -1.82974 0
M  V30 5524 C 542.642 0.827377 -1.9421 0
M  V30 5525 O 541.99 1.73723 -1.48434 0
M  V30 5526 C 542.2 -1.39199 -3.20038 0
M  V30 5527 C 543.548 -1.53647 -3.95825 0
M  V30 5528 O 544.572 -1.35181 -3.29552 0
M  V30 5529 O 543.431 -1.83932 -5.14618 0
M  V30 5530 H 540.525 -0.244605 -0.789998 0
M  V30 5531 H 543.071 -1.16203 -1.23673 0
M  V30 5532 H 541.843 -2.42766 -3.06888 0
M  V30 5533 H 541.466 -0.911335 -3.87015 0
M  V30 5534 N 542.463 1.3308 -0.844243 0
M  V30 5535 C 543.426 2.27403 -0.286485 0
M  V30 5536 C 544.426 1.51179 0.547872 0
M  V30 5537 O 545.616 1.70421 0.360886 0
M  V30 5538 C 542.748 3.35653 0.595813 0
M  V30 5539 H 543.941 2.78248 -1.11885 0
M  V30 5540 H 541.494 1.43574 -0.617749 0
M  V30 5541 H 542.229 2.90058 1.4504 0
M  V30 5542 H 542.014 3.921 -0.00125994 0
M  V30 5543 H 543.504 4.05958 0.979168 0
M  V30 5544 N 543.941 0.601185 1.45683 0
M  V30 5545 C 545.187 0.0940202 2.02582 0
M  V30 5546 C 545.52 -1.26972 1.46941 0
M  V30 5547 O 544.795 -1.83613 0.641612 0
M  V30 5548 C 545.078 0.0481715 3.60068 0
M  V30 5549 C 544.931 1.44212 4.26055 0
M  V30 5550 C 546.25 -0.642975 4.35378 0
M  V30 5551 H 543.369 0.0356404 0.736138 0
M  V30 5552 H 546.011 0.771929 1.73612 0
M  V30 5553 H 544.161 -0.529128 3.8488 0
M  V30 5554 H 545.833 2.06601 4.12449 0
M  V30 5555 H 544.076 2.00465 3.84703 0
M  V30 5556 H 544.747 1.36234 5.34925 0
M  V30 5557 H 547.223 -0.152351 4.15821 0
M  V30 5558 H 546.099 -0.644141 5.45107 0
M  V30 5559 H 546.36 -1.70785 4.0778 0
M  V30 5560 N 545.419 -1.53889 0.339982 0
M  V30 5561 C 546.382 -2.23547 -0.50592 0
M  V30 5562 C 547.382 -1.23445 -1.03044 0
M  V30 5563 O 548.572 -1.47909 -0.920253 0
M  V30 5564 C 545.704 -2.95234 -1.7044 0
M  V30 5565 H 546.897 -2.99722 0.103247 0
M  V30 5566 H 544.45 -1.56033 0.0912804 0
M  V30 5567 H 545.185 -2.23236 -2.35236 0
M  V30 5568 H 544.97 -3.68654 -1.33553 0
M  V30 5569 H 546.46 -3.48258 -2.30447 0
M  V30 5570 N 546.897 -0.0685191 -1.57451 0
M  V30 5571 C 547.86 0.885173 -2.11417 0
M  V30 5572 C 548.86 1.22853 -1.03748 0
M  V30 5573 O 550.05 1.16235 -1.2975 0
M  V30 5574 C 547.182 2.18964 -2.61281 0
M  V30 5575 H 548.375 0.417034 -2.96986 0
M  V30 5576 H 545.928 0.18014 -1.55258 0
M  V30 5577 H 546.663 2.70321 -1.79156 0
M  V30 5578 H 546.448 1.9534 -3.39977 0
M  V30 5579 H 547.938 2.87242 -3.0312 0
M  V30 5580 N 548.375 1.56261 0.205012 0
M  V30 5581 C 549.305 1.96779 1.257 0
M  V30 5582 C 550.286 0.838309 1.48008 0
M  V30 5583 O 551.471 1.10189 1.59913 0
M  V30 5584 C 548.601 2.29876 2.60335 0
M  V30 5585 C 547.555 3.45469 2.52656 0
M  V30 5586 C 546.881 3.64215 3.91473 0
M  V30 5587 C 548.181 4.79954 2.06014 0
M  V30 5588 H 549.875 2.84904 0.920338 0
M  V30 5589 H 547.421 1.37072 0.441277 0
M  V30 5590 H 549.374 2.56814 3.34102 0
M  V30 5591 H 548.098 1.38622 2.95722 0
M  V30 5592 H 546.757 3.18605 1.81345 0
M  V30 5593 H 546.405 2.70309 4.24196 0
M  V30 5594 H 546.105 4.41973 3.87213 0
M  V30 5595 H 547.629 3.93519 4.66878 0
M  V30 5596 H 549.043 5.05989 2.69533 0
M  V30 5597 H 547.44 5.61111 2.12777 0
M  V30 5598 H 548.51 4.74201 1.01297 0
M  V30 5599 N 549.853 -0.472356 1.50355 0
M  V30 5600 C 551.101 -1.22211 1.60962 0
M  V30 5601 C 551.422 -1.92497 0.311439 0
M  V30 5602 O 550.692 -1.8405 -0.671002 0
M  V30 5603 H 549.272 -0.454092 0.593135 0
M  V30 5604 H 551.934 -0.544977 1.87126 0
M  V30 5605 H 551.03 -1.9707 2.42012 0
M  V30 5606 N 551.331 -1.39911 -0.725443 0
M  V30 5607 C 552.58 -1.36963 -1.48068 0
M  V30 5608 C 552.893 0.0284478 -1.95579 0
M  V30 5609 O 554.099 0.180535 -2.70899 0
M  V30 5610 C 552.555 -2.40664 -2.67598 0
M  V30 5611 C 552.163 -3.86234 -2.26997 0
M  V30 5612 C 553.907 -2.46807 -3.45379 0
M  V30 5613 C 551.814 -4.81554 -3.43307 0
M  V30 5614 H 550.744 -0.509223 -0.556065 0
M  V30 5615 H 553.395 -1.65602 -0.790454 0
M  V30 5616 H 551.777 -2.05109 -3.38742 0
M  V30 5617 H 552.951 -4.3088 -1.63337 0
M  V30 5618 H 551.266 -3.83475 -1.62284 0
M  V30 5619 H 553.863 -3.15213 -4.31909 0
M  V30 5620 H 554.206 -1.49552 -3.8851 0
M  V30 5621 H 554.739 -2.81303 -2.81271 0
M  V30 5622 H 551.478 -5.80106 -3.05217 0
M  V30 5623 H 550.998 -4.4158 -4.05915 0
M  V30 5624 H 552.677 -5.0091 -4.0951 0
M  V30 5625 N 552.809 0.956637 -1.25245 0
M  V30 5626 C 553.719 2.0868 -1.0719 0
M  V30 5627 C 554.735 1.73997 -0.00959074 0
M  V30 5628 O 555.911 2.00301 -0.210104 0
M  V30 5629 C 552.976 3.39754 -0.690526 0
M  V30 5630 C 552.037 3.88316 -1.83055 0
M  V30 5631 C 551.27 5.13134 -1.46728 0
M  V30 5632 O 551.493 5.6925 -0.362029 0
M  V30 5633 O 550.427 5.56356 -2.29677 0
M  V30 5634 H 554.253 2.26813 -2.01965 0
M  V30 5635 H 551.838 1.07098 -1.04165 0
M  V30 5636 H 553.72 4.18543 -0.489871 0
M  V30 5637 H 552.395 3.22896 0.227981 0
M  V30 5638 H 551.302 3.1054 -2.08604 0
M  V30 5639 H 552.635 4.09669 -2.72822 0
M  V30 5640 N 554.287 1.06798 1.15896 0
M  V30 5641 C 555.533 0.788934 1.86825 0
M  V30 5642 C 555.866 -0.683084 1.8179 0
M  V30 5643 O 555.141 -1.50086 1.23711 0
M  V30 5644 C 555.424 1.29065 3.36176 0
M  V30 5645 C 555.277 2.8268 3.49874 0
M  V30 5646 C 556.596 0.902655 4.30744 0
M  V30 5647 H 553.715 0.288066 0.678371 0
M  V30 5648 H 556.357 1.32479 1.36195 0
M  V30 5649 H 554.507 0.834806 3.79425 0
M  V30 5650 H 556.179 3.36511 3.15528 0
M  V30 5651 H 554.422 3.21157 2.91617 0
M  V30 5652 H 555.093 3.12852 4.54783 0
M  V30 5653 H 557.569 1.29535 3.95424 0
M  V30 5654 H 556.445 1.28111 5.3374 0
M  V30 5655 H 556.706 -0.191951 4.41683 0
M  V30 5656 N 555.766 -1.3263 0.851289 0
M  V30 5657 C 557.182 -1.50162 0.5407 0
M  V30 5658 C 557.382 -1.78788 -0.929369 0
M  V30 5659 O 556.438 -1.85545 -1.71258 0
M  V30 5660 C 557.751 -2.64803 1.42478 0
M  V30 5661 C 559.299 -2.78688 1.42485 0
M  V30 5662 C 559.774 -3.96405 2.29407 0
M  V30 5663 N 561.265 -4.0366 2.27184 0
M  V30 5664 C 562 -4.93971 2.9117 0
M  V30 5665 N 561.496 -5.89313 3.64256 0
M  V30 5666 N 563.289 -4.87066 2.80576 0
M  V30 5667 H 555.44 -1.12315 1.80275 0
M  V30 5668 H 557.703 -0.553266 0.769806 0
M  V30 5669 H 557.409 -2.50368 2.46999 0
M  V30 5670 H 557.283 -3.60506 1.10974 0
M  V30 5671 H 559.67 -2.92547 0.387304 0
M  V30 5672 H 559.751 -1.83708 1.78002 0
M  V30 5673 H 559.395 -3.83304 3.33228 0
M  V30 5674 H 559.325 -4.90654 1.91224 0
M  V30 5675 H 561.816 -3.35435 1.74045 0
M  V30 5676 H 562.129 -6.54913 4.10255 0
M  V30 5677 H 560.474 -5.8935 3.68364 0
M  V30 5678 H 563.665 -4.11552 2.23031 0
M  V30 5679 H 563.838 -5.57248 3.30725 0
M  V30 5680 N 557.244 -0.608902 -1.45362 0
M  V30 5681 C 558.493 -0.10218 -2.01441 0
M  V30 5682 C 558.806 1.27546 -1.48295 0
M  V30 5683 O 560.012 1.87498 -1.96359 0
M  V30 5684 C 558.468 -0.131985 -3.59658 0
M  V30 5685 C 558.076 -1.50956 -4.21801 0
M  V30 5686 C 559.82 0.319427 -4.23296 0
M  V30 5687 C 557.727 -1.49568 -5.72174 0
M  V30 5688 H 556.657 -0.0344314 -0.753213 0
M  V30 5689 H 559.308 -0.764426 -1.6682 0
M  V30 5690 H 557.69 0.596939 -3.91475 0
M  V30 5691 H 558.864 -2.26029 -4.01556 0
M  V30 5692 H 557.179 -1.90318 -3.70362 0
M  V30 5693 H 559.776 0.349013 -5.3356 0
M  V30 5694 H 560.119 1.34237 -3.94064 0
M  V30 5695 H 560.652 -0.356273 -3.96201 0
M  V30 5696 H 557.391 -2.49626 -6.06108 0
M  V30 5697 H 556.911 -0.787542 -5.94607 0
M  V30 5698 H 558.59 -1.21989 -6.35396 0
M  V30 5699 N 558.722 1.53707 -0.348139 0
M  V30 5700 C 559.97 2.00591 0.246478 0
M  V30 5701 C 560.291 1.23753 1.50699 0
M  V30 5702 O 559.561 0.345964 1.92821 0
M  V30 5703 H 558.141 0.741053 0.0940679 0
M  V30 5704 H 560.803 1.89139 -0.470354 0
M  V30 5705 H 559.899 3.08297 0.485714 0
M  V30 5706 N 560.2 0.0768682 1.57412 0
M  V30 5707 C 561.449 -0.590679 1.92857 0
M  V30 5708 C 561.762 -1.70461 0.959293 0
M  V30 5709 O 562.968 -2.43207 1.20675 0
M  V30 5710 C 561.424 -1.10204 3.42612 0
M  V30 5711 C 561.032 -0.0188447 4.47996 0
M  V30 5712 C 562.776 -1.74336 3.87049 0
M  V30 5713 C 560.683 -0.544536 5.88888 0
M  V30 5714 H 559.613 -0.224411 0.71983 0
M  V30 5715 H 562.264 0.149924 1.82887 0
M  V30 5716 H 560.646 -1.89577 3.47673 0
M  V30 5717 H 561.82 0.755936 4.54557 0
M  V30 5718 H 560.135 0.526555 4.13057 0
M  V30 5719 H 562.732 -2.14708 4.89699 0
M  V30 5720 H 563.075 -2.60537 3.24694 0
M  V30 5721 H 563.608 -1.01577 3.84613 0
M  V30 5722 H 560.347 0.280426 6.549 0
M  V30 5723 H 559.867 -1.28673 5.85836 0
M  V30 5724 H 561.546 -1.01933 6.3892 0
M  V30 5725 N 561.678 -1.56367 -0.196722 0
M  V30 5726 C 562.628 -1.9082 -1.24787 0
M  V30 5727 C 563.612 -0.773719 -1.41076 0
M  V30 5728 O 564.804 -1.03655 -1.43474 0
M  V30 5729 C 561.933 -2.24982 -2.59303 0
M  V30 5730 C 561.019 -3.44882 -2.46814 0
M  V30 5731 N 561.41 -4.62835 -2.04003 0
M  V30 5732 C 559.708 -3.48988 -2.77711 0
M  V30 5733 C 560.409 -5.44993 -2.03366 0
M  V30 5734 N 559.385 -4.85356 -2.44807 0
M  V30 5735 H 563.187 -2.79516 -0.908175 0
M  V30 5736 H 560.701 -1.57265 -0.405166 0
M  V30 5737 H 562.698 -2.47848 -3.35227 0
M  V30 5738 H 561.358 -1.37611 -2.94098 0
M  V30 5739 H 562.369 -4.87532 -1.74738 0
M  V30 5740 H 559.046 -2.72029 -3.16712 0
M  V30 5741 H 560.436 -6.49464 -1.72181 0
M  V30 5742 N 563.156 0.464375 -1.50603 0
M  V30 5743 C 564.119 1.54393 -1.69397 0
M  V30 5744 C 565.119 1.50566 -0.564504 0
M  V30 5745 O 566.309 1.53066 -0.831645 0
M  V30 5746 C 563.441 2.9401 -1.72543 0
M  V30 5747 H 564.634 1.39044 -2.65719 0
M  V30 5748 H 562.187 0.69122 -1.40185 0
M  V30 5749 H 562.922 3.14795 -0.77938 0
M  V30 5750 H 562.707 2.98195 -2.54602 0
M  V30 5751 H 564.197 3.72375 -1.89015 0
M  V30 5752 N 564.634 1.40294 0.718013 0
M  V30 5753 C 565.882 1.38167 1.47494 0
M  V30 5754 C 566.203 -0.01607 1.94993 0
M  V30 5755 O 565.473 -0.970396 1.70177 0
M  V30 5756 H 564.053 0.508505 0.547203 0
M  V30 5757 H 566.715 1.75324 0.851322 0
M  V30 5758 H 565.811 2.05503 2.34894 0
M  V30 5759 N 566.112 -0.949982 1.2575 0
M  V30 5760 C 567.022 -2.08109 1.08295 0
M  V30 5761 C 568.038 -1.7399 0.0188181 0
M  V30 5762 O 569.214 -2.00187 0.220724 0
M  V30 5763 C 566.279 -3.39383 0.708534 0
M  V30 5764 C 565.34 -3.8734 1.85111 0
M  V30 5765 C 564.573 -5.12349 1.49447 0
M  V30 5766 O 564.796 -5.6905 0.392212 0
M  V30 5767 O 563.73 -5.5513 2.32624 0
M  V30 5768 H 567.556 -2.25738 2.03165 0
M  V30 5769 H 565.141 -1.06545 1.04731 0
M  V30 5770 H 567.023 -4.18277 0.512061 0
M  V30 5771 H 565.698 -3.23013 -0.210854 0
M  V30 5772 H 564.605 -3.09429 2.10248 0
M  V30 5773 H 565.938 -4.08216 2.74991 0
M  V30 5774 N 567.59 -1.07411 -1.15328 0
M  V30 5775 C 568.836 -0.798831 -1.86404 0
M  V30 5776 C 569.169 0.673433 -1.8215 0
M  V30 5777 O 568.444 1.49428 -1.24505 0
M  V30 5778 C 568.727 -1.30846 -3.35487 0
M  V30 5779 C 568.58 -2.84532 -3.4837 0
M  V30 5780 C 569.899 -0.925486 -4.30259 0
M  V30 5781 H 567.018 -0.291659 -0.676834 0
M  V30 5782 H 569.66 -1.332 -1.35491 0
M  V30 5783 H 567.81 -0.854916 -3.78977 0
M  V30 5784 H 569.482 -3.3818 -3.13739 0
M  V30 5785 H 567.725 -3.22699 -2.8991 0
M  V30 5786 H 568.396 -3.15259 -4.53118 0
M  V30 5787 H 570.872 -1.3163 -3.94731 0
M  V30 5788 H 569.748 -1.3094 -5.33053 0
M  V30 5789 H 570.009 0.168525 -4.41779 0
M  V30 5790 N 569.068 1.32177 -0.85831 0
M  V30 5791 C 569.978 2.32561 -0.308606 0
M  V30 5792 C 570.994 1.64209 0.575462 0
M  V30 5793 O 572.17 1.95719 0.474961 0
M  V30 5794 C 569.235 3.43207 0.490909 0
M  V30 5795 C 568.296 4.27243 -0.419733 0
M  V30 5796 C 567.529 5.32605 0.341719 0
M  V30 5797 O 567.752 5.48332 1.57125 0
M  V30 5798 O 566.686 6.0118 -0.294379 0
M  V30 5799 H 570.512 2.81477 -1.14037 0
M  V30 5800 H 568.097 1.35866 -0.621349 0
M  V30 5801 H 569.979 4.10677 0.944574 0
M  V30 5802 H 568.654 2.96474 1.29941 0
M  V30 5803 H 567.561 3.62569 -0.921652 0
M  V30 5804 H 568.894 4.7751 -1.19352 0
M  V30 5805 N 570.547 0.616602 1.45037 0
M  V30 5806 C 571.793 0.115501 2.02471 0
M  V30 5807 C 572.126 -1.25406 1.4828 0
M  V30 5808 O 571.401 -1.82922 0.661051 0
M  V30 5809 C 571.684 0.0863588 3.59996 0
M  V30 5810 C 571.537 1.48723 4.24501 0
M  V30 5811 C 572.856 -0.596762 4.36035 0
M  V30 5812 H 569.975 0.0434461 0.735718 0
M  V30 5813 H 572.617 0.7903 1.72784 0
M  V30 5814 H 570.767 -0.488277 3.85419 0
M  V30 5815 H 572.439 2.10964 4.10234 0
M  V30 5816 H 570.682 2.04534 3.82555 0
M  V30 5817 H 571.353 1.419 5.3345 0
M  V30 5818 H 573.829 -0.10824 4.15959 0
M  V30 5819 H 572.705 -0.586289 5.4576 0
M  V30 5820 H 572.966 -1.66451 4.09569 0
M  V30 5821 N 572.025 -1.5352 0.356285 0
M  V30 5822 C 573.441 -1.59599 0.00485267 0
M  V30 5823 C 573.641 -1.37179 -1.47595 0
M  V30 5824 O 572.697 -1.17234 -2.23635 0
M  V30 5825 C 574.01 -2.97277 0.452454 0
M  V30 5826 C 575.558 -3.10357 0.405881 0
M  V30 5827 C 576.033 -4.50432 0.829148 0
M  V30 5828 N 577.524 -4.5652 0.783838 0
M  V30 5829 C 578.259 -5.63077 1.08315 0
M  V30 5830 N 577.755 -6.77429 1.45126 0
M  V30 5831 N 579.548 -5.53014 1.00655 0
M  V30 5832 H 571.699 -1.66346 1.32071 0
M  V30 5833 H 573.962 -0.77971 0.539218 0
M  V30 5834 H 573.668 -3.18792 1.48542 0
M  V30 5835 H 573.542 -3.76836 -0.165762 0
M  V30 5836 H 575.929 -2.88558 -0.617934 0
M  V30 5837 H 576.01 -2.32828 1.05947 0
M  V30 5838 H 575.654 -4.72968 1.85103 0
M  V30 5839 H 575.584 -5.26378 0.152906 0
M  V30 5840 H 578.075 -3.74408 0.512513 0
M  V30 5841 H 578.388 -7.54669 1.66415 0
M  V30 5842 H 576.733 -6.78844 1.48983 0
M  V30 5843 H 579.924 -4.62557 0.718215 0
M  V30 5844 H 580.097 -6.35964 1.24315 0
M  V30 5845 N 573.503 -0.0852151 -1.57369 0
M  V30 5846 C 574.78 0.622534 -1.85429 0
M  V30 5847 C 575.16 1.86962 -0.980229 0
M  V30 5848 O 574.508 2.28445 -0.0500219 0
M  V30 5849 C 574.718 0.947374 -3.35896 0
M  V30 5850 C 576.066 1.31509 -4.03721 0
M  V30 5851 O 577.09 1.03869 -3.40719 0
M  V30 5852 O 575.949 1.83231 -5.14868 0
M  V30 5853 H 573.043 0.310513 -0.766492 0
M  V30 5854 H 575.589 -0.117164 -1.69295 0
M  V30 5855 H 574.361 0.0622264 -3.91251 0
M  V30 5856 H 573.984 1.74338 -3.5734 0
M  V30 5857 N 574.981 1.5647 0.188427 0
M  V30 5858 C 575.944 1.9421 1.21718 0
M  V30 5859 C 576.944 0.823901 1.38089 0
M  V30 5860 O 578.134 1.09122 1.35787 0
M  V30 5861 C 575.266 2.22197 2.58537 0
M  V30 5862 H 576.459 2.86252 0.894418 0
M  V30 5863 H 574.012 1.50263 0.430211 0
M  V30 5864 H 574.747 1.32814 2.95856 0
M  V30 5865 H 574.532 3.03688 2.48025 0
M  V30 5866 H 576.022 2.52376 3.3271 0
M  V30 5867 N 576.459 -0.456382 1.50847 0
M  V30 5868 C 577.684 -1.2349 1.66628 0
M  V30 5869 C 578.109 -1.84715 0.355254 0
M  V30 5870 O 577.467 -1.67961 -0.682559 0
M  V30 5871 C 577.515 -2.30865 2.77009 0
M  V30 5872 O 576.619 -3.35882 2.39285 0
M  V30 5873 H 575.96 -0.36266 0.556214 0
M  V30 5874 H 578.49 -0.541374 1.97308 0
M  V30 5875 H 578.5 -2.75949 3.00526 0
M  V30 5876 H 577.175 -1.85677 3.72152 0
M  V30 5877 H 575.752 -2.96406 2.26269 0
M  V30 5878 N 577.937 -1.40673 -0.710563 0
M  V30 5879 C 578.887 -1.37812 -1.81636 0
M  V30 5880 C 579.871 -0.254853 -1.58869 0
M  V30 5881 O 581.063 -0.494356 -1.69956 0
M  V30 5882 C 578.192 -1.24802 -3.19811 0
M  V30 5883 C 577.278 -2.41931 -3.48325 0
M  V30 5884 N 577.669 -3.67411 -3.47625 0
M  V30 5885 C 575.967 -2.35419 -3.78806 0
M  V30 5886 C 576.668 -4.45008 -3.74623 0
M  V30 5887 N 575.644 -3.74916 -3.93623 0
M  V30 5888 H 579.446 -2.32766 -1.79436 0
M  V30 5889 H 576.96 -1.34516 -0.909909 0
M  V30 5890 H 578.957 -1.20835 -3.99004 0
M  V30 5891 H 577.617 -0.308202 -3.23234 0
M  V30 5892 H 578.628 -4.00503 -3.28356 0
M  V30 5893 H 575.305 -1.4983 -3.89689 0
M  V30 5894 H 576.695 -5.53884 -3.80344 0
M  V30 5895 N 579.415 0.9433 -1.26252 0
M  V30 5896 C 580.663 1.68592 -1.11451 0
M  V30 5897 C 580.984 1.91957 0.343123 0
M  V30 5898 O 580.254 1.51475 1.24226 0
M  V30 5899 H 578.834 0.624789 -0.409448 0
M  V30 5900 H 581.496 1.13351 -1.58548 0
M  V30 5901 H 580.592 2.66054 -1.63162 0
M  V30 5902 N 580.893 1.08022 1.14757 0
M  V30 5903 C 582.121 0.828847 1.89572 0
M  V30 5904 C 582.536 -0.618621 1.78377 0
M  V30 5905 O 581.893 -1.42482 1.1404 0
M  V30 5906 C 581.944 1.23677 3.39685 0
M  V30 5907 O 581.665 2.62746 3.50566 0
M  V30 5908 C 583.166 1.01569 4.31507 0
M  V30 5909 H 580.386 0.299196 0.600602 0
M  V30 5910 H 582.93 1.43846 1.45357 0
M  V30 5911 H 581.085 0.671347 3.81539 0
M  V30 5912 H 581.499 2.79573 4.43778 0
M  V30 5913 H 582.973 1.35055 5.35223 0
M  V30 5914 H 583.45 -0.0475433 4.39174 0
M  V30 5915 H 584.056 1.56636 3.95405 0
M  V30 5916 N 582.371 -1.3172 0.865308 0
M  V30 5917 C 583.648 -1.91574 0.394789 0
M  V30 5918 C 584.028 -1.78769 -1.12271 0
M  V30 5919 O 583.376 -1.19245 -1.94918 0
M  V30 5920 C 583.586 -3.37957 0.870982 0
M  V30 5921 C 584.934 -4.15073 0.894384 0
M  V30 5922 O 585.958 -3.4672 0.816325 0
M  V30 5923 O 584.817 -5.37151 1.00651 0
M  V30 5924 H 581.911 -0.818649 0.117229 0
M  V30 5925 H 584.457 -1.4042 0.952913 0
M  V30 5926 H 583.229 -3.41269 1.91444 0
M  V30 5927 H 582.852 -3.96534 0.290907 0
M  V30 5928 N 583.85 -0.624285 -1.44708 0
M  V30 5929 C 585.096 -0.126237 -2.02407 0
M  V30 5930 C 585.428 1.24618 -1.48943 0
M  V30 5931 O 584.704 1.82569 -0.670742 0
M  V30 5932 C 584.986 -0.105449 -3.59946 0
M  V30 5933 C 584.84 -1.50972 -4.23707 0
M  V30 5934 C 586.159 0.573629 -4.36346 0
M  V30 5935 H 583.278 -0.0473472 -0.735478 0
M  V30 5936 H 585.92 -0.799452 -1.72362 0
M  V30 5937 H 584.07 0.46783 -3.85673 0
M  V30 5938 H 585.742 -2.13136 -4.0911 0
M  V30 5939 H 583.985 -2.0656 -3.81465 0
M  V30 5940 H 584.656 -1.44727 -5.32689 0
M  V30 5941 H 587.132 0.0861787 -4.16011 0
M  V30 5942 H 586.008 0.557338 -5.46063 0
M  V30 5943 H 586.269 1.64276 -4.10446 0
M  V30 5944 N 585.328 1.53329 -0.364422 0
M  V30 5945 C 586.291 2.24323 0.470292 0
M  V30 5946 C 587.291 1.25068 1.01067 0
M  V30 5947 O 588.481 1.49354 0.896605 0
M  V30 5948 C 585.613 2.97908 1.65722 0
M  V30 5949 H 586.806 2.9952 -0.150917 0
M  V30 5950 H 584.359 1.55868 -0.116092 0
M  V30 5951 H 585.094 2.2695 2.31655 0
M  V30 5952 H 584.879 3.70732 1.27671 0
M  V30 5953 H 586.369 3.5188 2.24878 0
M  V30 5954 N 586.806 0.0935595 1.57322 0
M  V30 5955 C 588.054 -0.569383 1.93913 0
M  V30 5956 C 588.375 -1.68817 0.976009 0
M  V30 5957 O 587.645 -1.9588 0.0278099 0
M  V30 5958 H 586.225 -0.21332 0.715894 0
M  V30 5959 H 588.887 0.156531 1.9427 0
M  V30 5960 H 587.983 -0.980577 2.96296 0
M  V30 5961 N 588.284 -1.56567 -0.180126 0
M  V30 5962 C 589.53 -1.81761 -0.899497 0
M  V30 5963 C 589.863 -0.670015 -1.82276 0
M  V30 5964 O 589.138 0.328575 -1.91705 0
M  V30 5965 C 589.421 -3.17296 -1.7028 0
M  V30 5966 C 589.274 -4.4257 -0.803255 0
M  V30 5967 C 590.593 -3.49678 -2.67233 0
M  V30 5968 H 587.712 -0.661192 -0.325567 0
M  V30 5969 H 590.354 -1.89272 -0.16612 0
M  V30 5970 H 588.504 -3.11023 -2.32802 0
M  V30 5971 H 590.176 -4.60902 -0.191585 0
M  V30 5972 H 588.419 -4.33658 -0.110796 0
M  V30 5973 H 589.09 -5.33935 -1.40064 0
M  V30 5974 H 591.566 -3.56347 -2.14839 0
M  V30 5975 H 590.442 -4.45605 -3.20511 0
M  V30 5976 H 590.703 -2.73932 -3.47007 0
M  V30 5977 N 589.762 0.448376 -1.51087 0
M  V30 5978 C 590.725 1.52588 -1.71025 0
M  V30 5979 C 591.725 1.49958 -0.580442 0
M  V30 5980 O 592.915 1.52176 -0.847833 0
M  V30 5981 C 590.047 2.92163 -1.75652 0
M  V30 5982 H 591.24 1.36218 -2.67179 0
M  V30 5983 H 588.793 0.676313 -1.4091 0
M  V30 5984 H 589.528 3.13951 -0.812724 0
M  V30 5985 H 589.313 2.95478 -2.57751 0
M  V30 5986 H 590.803 3.70349 -1.92953 0
M  V30 5987 N 591.24 1.41047 0.703093 0
M  V30 5988 C 592.486 1.40207 1.46526 0
M  V30 5989 C 592.819 0.00847763 1.94198 0
M  V30 5990 O 592.094 -0.962437 1.69019 0
M  V30 5991 C 592.377 2.40238 2.6825 0
M  V30 5992 C 592.23 3.88674 2.26391 0
M  V30 5993 C 593.549 2.37627 3.70434 0
M  V30 5994 H 590.668 0.510594 0.531472 0
M  V30 5995 H 593.31 1.72271 0.801422 0
M  V30 5996 H 591.46 2.13026 3.24888 0
M  V30 5997 H 593.132 4.2676 1.75138 0
M  V30 5998 H 591.375 4.03903 1.58255 0
M  V30 5999 H 592.046 4.542 3.13698 0
M  V30 6000 H 594.522 2.61759 3.23452 0
M  V30 6001 H 593.398 3.09645 4.53223 0
M  V30 6002 H 593.659 1.39223 4.19606 0
M  V30 6003 N 592.718 -0.936591 1.26751 0
M  V30 6004 C 593.668 -2.0219 1.05371 0
M  V30 6005 C 594.652 -1.60893 -0.0154112 0
M  V30 6006 O 595.844 -1.75843 0.202085 0
M  V30 6007 C 592.973 -3.36222 0.693541 0
M  V30 6008 C 592.059 -3.8399 1.80035 0
M  V30 6009 N 592.45 -4.0436 3.03852 0
M  V30 6010 C 590.748 -4.12945 1.685 0
M  V30 6011 C 591.449 -4.44 3.75818 0
M  V30 6012 N 590.425 -4.50966 3.03531 0
M  V30 6013 H 594.227 -2.15958 1.99347 0
M  V30 6014 H 591.741 -1.12277 1.17335 0
M  V30 6015 H 593.738 -4.13625 0.521513 0
M  V30 6016 H 592.398 -3.23821 -0.238693 0
M  V30 6017 H 593.409 -3.9092 3.39709 0
M  V30 6018 H 590.086 -4.09308 0.822986 0
M  V30 6019 H 591.476 -4.67914 4.82189 0
M  V30 6020 N 594.196 -1.08629 -1.14182 0
M  V30 6021 C 595.445 -0.812271 -1.84621 0
M  V30 6022 C 595.758 0.664313 -1.83973 0
M  V30 6023 O 596.964 1.05357 -2.50224 0
M  V30 6024 C 595.42 -1.4031 -3.31423 0
M  V30 6025 C 595.028 -2.91164 -3.40481 0
M  V30 6026 C 596.772 -1.20767 -4.06959 0
M  V30 6027 C 594.679 -3.43373 -4.81507 0
M  V30 6028 H 593.609 -0.30019 -0.691666 0
M  V30 6029 H 596.26 -1.30798 -1.28701 0
M  V30 6030 H 594.642 -0.835096 -3.87094 0
M  V30 6031 H 595.816 -3.5412 -2.94848 0
M  V30 6032 H 594.131 -3.09646 -2.78403 0
M  V30 6033 H 596.728 -1.57237 -5.11058 0
M  V30 6034 H 597.071 -0.147664 -4.16038 0
M  V30 6035 H 597.604 -1.74274 -3.57594 0
M  V30 6036 H 594.343 -4.48958 -4.77616 0
M  V30 6037 H 593.863 -2.85176 -5.27669 0
M  V30 6038 H 595.542 -3.40095 -5.50404 0
M  V30 6039 N 595.674 1.31259 -0.872281 0
M  V30 6040 C 596.922 1.96233 -0.483409 0
M  V30 6041 C 597.243 1.69276 0.968012 0
M  V30 6042 O 596.513 1.00943 1.67891 0
M  V30 6043 H 595.093 0.726025 -0.175774 0
M  V30 6044 H 597.755 1.60024 -1.11258 0
M  V30 6045 H 596.851 3.05403 -0.643075 0
M  V30 6046 N 597.152 0.631951 1.44375 0
M  V30 6047 C 598.115 -0.0628142 2.29114 0
M  V30 6048 C 599.115 -0.771494 1.41084 0
M  V30 6049 O 600.305 -0.615959 1.62947 0
M  V30 6050 C 597.437 -1.09953 3.22681 0
M  V30 6051 H 598.63 0.682509 2.92031 0
M  V30 6052 H 596.183 0.392128 1.51301 0
M  V30 6053 H 596.918 -1.87481 2.64616 0
M  V30 6054 H 596.703 -0.595286 3.87555 0
M  V30 6055 H 598.193 -1.58538 3.86336 0
M  V30 6056 N 598.631 -1.53133 0.372548 0
M  V30 6057 C 600.047 -1.59585 0.02178 0
M  V30 6058 C 600.247 -1.38736 -1.46132 0
M  V30 6059 O 599.303 -1.19599 -2.22379 0
M  V30 6060 C 600.616 -2.9678 0.483959 0
M  V30 6061 C 602.164 -3.09909 0.438775 0
M  V30 6062 C 602.639 -4.49527 0.876876 0
M  V30 6063 N 604.13 -4.55663 0.832214 0
M  V30 6064 C 604.865 -5.61896 1.14281 0
M  V30 6065 N 604.361 -6.75852 1.52303 0
M  V30 6066 N 606.154 -5.51916 1.06515 0
M  V30 6067 H 598.305 -1.64936 1.33827 0
M  V30 6068 H 600.568 -0.773947 0.547458 0
M  V30 6069 H 600.274 -3.17198 1.51915 0
M  V30 6070 H 600.148 -3.7699 -0.125784 0
M  V30 6071 H 602.535 -2.89197 -0.587294 0
M  V30 6072 H 602.616 -2.31691 1.0841 0
M  V30 6073 H 602.26 -4.70979 1.90109 0
M  V30 6074 H 602.19 -5.26186 0.208727 0
M  V30 6075 H 604.681 -3.73844 0.552195 0
M  V30 6076 H 604.994 -7.52862 1.7441 0
M  V30 6077 H 603.339 -6.77226 1.56175 0
M  V30 6078 H 606.53 -4.6177 0.767235 0
M  V30 6079 H 606.703 -6.34609 1.31053 0
M  V30 6080 N 600.109 -0.101901 -1.5727 0
M  V30 6081 C 601.355 0.561027 -1.94885 0
M  V30 6082 C 601.688 1.6741 -0.984258 0
M  V30 6083 O 600.963 1.94491 -0.0184767 0
M  V30 6084 C 601.246 1.10982 -3.42571 0
M  V30 6085 C 601.099 0.00133418 -4.498 0
M  V30 6086 C 602.418 2.00608 -3.9172 0
M  V30 6087 H 599.537 0.202467 -0.708644 0
M  V30 6088 H 602.179 -0.173992 -1.89202 0
M  V30 6089 H 600.329 1.73621 -3.47546 0
M  V30 6090 H 602.001 -0.63322 -4.56933 0
M  V30 6091 H 600.244 -0.664143 -4.28686 0
M  V30 6092 H 600.915 0.426253 -5.50352 0
M  V30 6093 H 603.391 1.47864 -3.88941 0
M  V30 6094 H 602.267 2.3593 -4.95609 0
M  V30 6095 H 602.528 2.92608 -3.3141 0
M  V30 6096 N 601.587 1.56661 0.17182 0
M  V30 6097 C 602.827 1.83762 0.895029 0
M  V30 6098 C 603.191 0.682752 1.79451 0
M  V30 6099 O 604.392 0.834208 2.55528 0
M  V30 6100 C 602.663 3.15976 1.67015 0
M  V30 6101 S 604.222 3.64558 2.44219 0
M  V30 6102 H 601.04 0.644713 0.299778 0
M  V30 6103 H 603.642 1.94871 0.156701 0
M  V30 6104 H 602.346 3.98021 1.00039 0
M  V30 6105 H 601.877 3.07807 2.44986 0
M  V30 6106 H 603.892 3.31845 3.68909 0
M  V30 6107 N 603.065 -0.440357 1.51323 0
M  V30 6108 C 604.028 -1.51679 1.71832 0
M  V30 6109 C 605.028 -1.49648 0.588386 0
M  V30 6110 O 606.218 -1.51724 0.855891 0
M  V30 6111 C 603.35 -2.91228 1.77199 0
M  V30 6112 H 604.543 -1.34799 2.67898 0
M  V30 6113 H 602.096 -0.66883 1.41267 0
M  V30 6114 H 602.831 -3.13516 0.829363 0
M  V30 6115 H 602.616 -2.94107 2.59314 0
M  V30 6116 H 604.106 -3.69321 1.94915 0
M  V30 6117 N 604.543 -1.41418 -0.695603 0
M  V30 6118 C 605.473 -1.46035 -1.82197 0
M  V30 6119 C 606.454 -0.319025 -1.67082 0
M  V30 6120 O 607.639 -0.530462 -1.86815 0
M  V30 6121 C 604.769 -1.34179 -3.20333 0
M  V30 6122 C 603.723 -2.46123 -3.50154 0
M  V30 6123 C 603.049 -2.19332 -4.87645 0
M  V30 6124 C 604.349 -3.88463 -3.49133 0
M  V30 6125 H 606.043 -2.40303 -1.78591 0
M  V30 6126 H 603.589 -1.15663 -0.857797 0
M  V30 6127 H 605.542 -1.36021 -3.98844 0
M  V30 6128 H 604.266 -0.363952 -3.24566 0
M  V30 6129 H 602.925 -2.43563 -2.73994 0
M  V30 6130 H 602.573 -1.19891 -4.88503 0
M  V30 6131 H 602.273 -2.94344 -5.08562 0
M  V30 6132 H 603.797 -2.22889 -5.68465 0
M  V30 6133 H 605.211 -3.92738 -4.17648 0
M  V30 6134 H 603.608 -4.63158 -3.81582 0
M  V30 6135 H 604.678 -4.16617 -2.48109 0
M  V30 6136 N 606.021 0.929856 -1.27246 0
M  V30 6137 C 606.984 2.01172 -1.09829 0
M  V30 6138 C 607.984 1.60743 -0.0429687 0
M  V30 6139 O 609.174 1.71813 -0.287373 0
M  V30 6140 C 606.306 3.34191 -0.673003 0
M  V30 6141 H 607.499 2.18054 -2.05895 0
M  V30 6142 H 605.052 1.11036 -1.10003 0
M  V30 6143 H 605.787 3.23009 0.289134 0
M  V30 6144 H 605.572 3.64892 -1.43515 0
M  V30 6145 H 607.062 4.13646 -0.573323 0
M  V30 6146 N 607.499 1.09233 1.13605 0
M  V30 6147 C 608.747 0.825525 1.84471 0
M  V30 6148 C 609.068 -0.650702 1.83823 0
M  V30 6149 O 608.338 -1.47204 1.29259 0
M  V30 6150 H 606.918 0.3024 0.683054 0
M  V30 6151 H 609.58 1.38006 1.37624 0
M  V30 6152 H 608.676 1.17727 2.89045 0
M  V30 6153 N 608.977 -1.30795 0.87923 0
M  V30 6154 C 610.388 -1.78535 0.546093 0
M  V30 6155 C 610.739 -1.72354 -0.937467 0
M  V30 6156 O 609.864 -1.2969 -1.73233 0
M  V30 6157 C 610.459 -3.24181 0.9845 0
M  V30 6158 C 609.018 -3.69779 0.702871 0
M  V30 6159 C 608.165 -2.51377 1.17068 0
M  V30 6160 H 611.116 -1.17746 1.06403 0
M  V30 6161 H 611.137 -3.79227 0.311045 0
M  V30 6162 H 610.649 -3.28647 2.06429 0
M  V30 6163 H 608.75 -3.70806 -0.365166 0
M  V30 6164 H 608.863 -4.61507 1.28639 0
M  V30 6165 H 607.227 -2.47768 0.590172 0
M  V30 6166 H 608.01 -2.58584 2.25808 0
M  V30 6167 N 610.455 -0.639598 -1.44038 0
M  V30 6168 C 611.68 -0.153117 -2.06834 0
M  V30 6169 C 612.105 1.16676 -1.47541 0
M  V30 6170 O 611.463 1.71769 -0.580093 0
M  V30 6171 C 611.511 -0.0609169 -3.60549 0
M  V30 6172 O 610.615 0.98071 -4.00569 0
M  V30 6173 H 609.956 -0.0886402 -0.658057 0
M  V30 6174 H 612.486 -0.878674 -1.84771 0
M  V30 6175 H 612.496 0.126892 -4.07803 0
M  V30 6176 H 611.171 -1.0245 -4.03084 0
M  V30 6177 H 609.748 0.766789 -3.64931 0
M  V30 6178 N 611.933 1.52934 -0.380664 0
M  V30 6179 C 612.843 2.29921 0.466192 0
M  V30 6180 C 613.859 1.36488 1.07922 0
M  V30 6181 O 615.035 1.69553 1.0869 0
M  V30 6182 C 612.1 3.08468 1.58266 0
M  V30 6183 C 611.161 4.17595 0.995627 0
M  V30 6184 C 610.394 4.92387 2.05889 0
M  V30 6185 O 610.617 4.67184 3.27254 0
M  V30 6186 O 609.551 5.77949 1.68102 0
M  V30 6187 H 613.377 3.03274 -0.160735 0
M  V30 6188 H 610.962 1.48698 -0.144617 0
M  V30 6189 H 612.844 3.57469 2.23145 0
M  V30 6190 H 611.519 2.37937 2.19471 0
M  V30 6191 H 610.426 3.72811 0.310332 0
M  V30 6192 H 611.759 4.90336 0.427918 0
M  V30 6193 N 613.412 0.11024 1.57214 0
M  V30 6194 C 614.658 -0.550684 1.9518 0
M  V30 6195 C 614.991 -1.66885 0.993122 0
M  V30 6196 O 614.266 -1.94479 0.0287907 0
M  V30 6197 C 614.549 -1.09163 3.43155 0
M  V30 6198 C 614.402 0.0225198 4.49794 0
M  V30 6199 C 615.721 -1.98527 3.92778 0
M  V30 6200 H 612.84 -0.198706 0.709708 0
M  V30 6201 H 615.482 0.184024 1.89107 0
M  V30 6202 H 613.632 -1.71775 3.48462 0
M  V30 6203 H 615.304 0.657443 4.56591 0
M  V30 6204 H 613.547 0.686868 4.28328 0
M  V30 6205 H 614.218 -0.39706 5.5057 0
M  V30 6206 H 616.694 -1.458 3.8972 0
M  V30 6207 H 615.57 -2.33298 4.96853 0
M  V30 6208 H 615.831 -2.90846 3.32958 0
M  V30 6209 N 614.89 -1.56749 -0.16351 0
M  V30 6210 C 615.82 -2.00042 -1.20438 0
M  V30 6211 C 616.801 -0.877256 -1.45733 0
M  V30 6212 O 617.986 -1.1439 -1.56935 0
M  V30 6213 C 615.116 -2.36697 -2.54149 0
M  V30 6214 C 614.07 -3.52046 -2.43408 0
M  V30 6215 C 613.396 -3.74466 -3.81679 0
M  V30 6216 C 614.696 -4.85247 -1.93216 0
M  V30 6217 H 616.39 -2.87244 -0.844477 0
M  V30 6218 H 613.936 -1.38194 -0.40478 0
M  V30 6219 H 615.889 -2.65582 -3.27176 0
M  V30 6220 H 614.613 -1.46414 -2.91943 0
M  V30 6221 H 613.272 -3.23301 -1.72834 0
M  V30 6222 H 612.92 -2.81461 -4.1688 0
M  V30 6223 H 612.62 -4.52084 -3.75359 0
M  V30 6224 H 614.144 -4.0576 -4.5628 0
M  V30 6225 H 615.558 -5.12957 -2.56023 0
M  V30 6226 H 613.955 -5.66556 -1.97825 0
M  V30 6227 H 615.025 -4.7672 -0.88689 0
M  V30 6228 N 616.368 0.432326 -1.51554 0
M  V30 6229 C 617.614 1.18309 -1.64714 0
M  V30 6230 C 617.947 1.90745 -0.364696 0
M  V30 6231 O 617.222 1.8381 0.635936 0
M  V30 6232 C 617.505 2.1961 -2.85383 0
M  V30 6233 C 617.358 1.51223 -4.23617 0
M  V30 6234 C 618.677 3.20538 -3.01569 0
M  V30 6235 H 615.796 0.428751 -0.599451 0
M  V30 6236 H 618.438 0.471689 -1.84052 0
M  V30 6237 H 616.588 2.8028 -2.69027 0
M  V30 6238 H 618.26 0.938516 -4.51652 0
M  V30 6239 H 616.503 0.814501 -4.26085 0
M  V30 6240 H 617.174 2.25024 -5.04052 0
M  V30 6241 H 619.65 2.69926 -3.16669 0
M  V30 6242 H 618.526 3.88706 -3.87555 0
M  V30 6243 H 618.787 3.86933 -2.13859 0
M  V30 6244 N 617.846 1.41785 0.688094 0
M  V30 6245 C 619.071 1.45117 1.48175 0
M  V30 6246 C 619.496 0.060129 1.88004 0
M  V30 6247 O 618.854 -0.938385 1.55126 0
M  V30 6248 C 618.902 2.37224 2.71583 0
M  V30 6249 O 618.006 1.83443 3.69354 0
M  V30 6250 H 617.347 0.492208 0.445676 0
M  V30 6251 H 619.877 1.86329 0.845145 0
M  V30 6252 H 619.887 2.53353 3.19806 0
M  V30 6253 H 618.562 3.38293 2.41931 0
M  V30 6254 H 617.139 1.76802 3.28322 0
M  V30 6255 N 619.324 -0.923095 1.27737 0
M  V30 6256 C 620.549 -1.71054 1.17283 0
M  V30 6257 C 620.974 -1.86208 -0.266153 0
M  V30 6258 O 620.332 -1.36545 -1.1927 0
M  V30 6259 C 620.38 -3.0854 1.86642 0
M  V30 6260 O 619.484 -3.95528 1.16752 0
M  V30 6261 H 618.825 -0.524136 0.407649 0
M  V30 6262 H 621.355 -1.15487 1.6889 0
M  V30 6263 H 621.365 -3.58828 1.94182 0
M  V30 6264 H 620.04 -2.96828 2.91317 0
M  V30 6265 H 618.617 -3.53967 1.17312 0
M  V30 6266 N 620.802 -1.09834 -1.13024 0
M  V30 6267 C 622.03 -0.858902 -1.8823 0
M  V30 6268 C 622.445 0.590164 -1.79339 0
M  V30 6269 O 621.802 1.4065 -1.16292 0
M  V30 6270 C 621.853 -1.29066 -3.37675 0
M  V30 6271 O 621.574 -2.6829 -3.46341 0
M  V30 6272 C 623.075 -1.08421 -4.29837 0
M  V30 6273 H 620.295 -0.308713 -0.595766 0
M  V30 6274 H 622.839 -1.4614 -1.4305 0
M  V30 6275 H 620.994 -0.731961 -3.80422 0
M  V30 6276 H 621.408 -2.86598 -4.39274 0
M  V30 6277 H 622.882 -1.43553 -5.33007 0
M  V30 6278 H 623.359 -0.0223315 -4.39194 0
M  V30 6279 H 623.965 -1.62907 -3.92863 0
M  V30 6280 N 622.28 1.30327 -0.886154 0
M  V30 6281 C 623.526 1.96388 -0.505941 0
M  V30 6282 C 623.859 1.69784 0.942712 0
M  V30 6283 O 623.134 1.00322 1.6663 0
M  V30 6284 C 623.417 3.51488 -0.782826 0
M  V30 6285 C 623.27 3.87603 -2.28219 0
M  V30 6286 C 624.589 4.39331 -0.260128 0
M  V30 6287 H 621.708 0.713327 -0.185292 0
M  V30 6288 H 624.35 1.54178 -1.11036 0
M  V30 6289 H 622.5 3.87572 -0.268399 0
M  V30 6290 H 624.172 3.61537 -2.86512 0
M  V30 6291 H 622.415 3.3563 -2.74837 0
M  V30 6292 H 623.086 4.95806 -2.42653 0
M  V30 6293 H 625.562 4.10162 -0.700444 0
M  V30 6294 H 624.438 5.46769 -0.483179 0
M  V30 6295 H 624.699 4.34072 0.838674 0
M  V30 6296 N 623.758 0.647228 1.43697 0
M  V30 6297 C 625.174 0.314256 1.56476 0
M  V30 6298 C 625.374 -1.18191 1.63196 0
M  V30 6299 O 624.43 -1.96655 1.58376 0
M  V30 6300 C 625.743 1.02034 2.82859 0
M  V30 6301 C 627.291 1.00002 2.96595 0
M  V30 6302 C 627.766 1.68689 4.25803 0
M  V30 6303 N 629.257 1.65424 4.32654 0
M  V30 6304 C 629.992 2.1545 5.31384 0
M  V30 6305 N 629.488 2.73738 6.36427 0
M  V30 6306 N 631.281 2.05985 5.22998 0
M  V30 6307 H 623.432 1.61821 1.37578 0
M  V30 6308 H 625.695 0.680184 0.660344 0
M  V30 6309 H 625.401 2.07542 2.83935 0
M  V30 6310 H 625.275 0.568146 3.72897 0
M  V30 6311 H 627.662 -0.0466319 2.95063 0
M  V30 6312 H 627.743 1.49086 2.07863 0
M  V30 6313 H 627.387 2.73308 4.28095 0
M  V30 6314 H 627.317 1.17076 5.13421 0
M  V30 6315 H 629.808 1.22884 3.57363 0
M  V30 6316 H 630.121 3.09602 7.08072 0
M  V30 6317 H 628.466 2.77796 6.37067 0
M  V30 6318 H 631.657 1.60157 4.39849 0
M  V30 6319 H 631.83 2.45281 5.99784 0
M  V30 6320 N 625.236 -1.5273 0.388769 0
M  V30 6321 C 626.513 -1.93981 -0.251133 0
M  V30 6322 C 626.893 -1.32418 -1.64404 0
M  V30 6323 O 626.241 -0.492074 -2.23139 0
M  V30 6324 C 626.451 -3.47891 -0.27802 0
M  V30 6325 C 627.799 -4.21559 -0.507229 0
M  V30 6326 O 628.823 -3.54394 -0.358252 0
M  V30 6327 O 627.682 -5.40626 -0.799094 0
M  V30 6328 H 624.776 -0.812157 -0.15598 0
M  V30 6329 H 627.322 -1.63809 0.443237 0
M  V30 6330 H 626.094 -3.8503 0.697669 0
M  V30 6331 H 625.717 -3.84364 -1.01733 0
M  V30 6332 N 626.714 -0.118576 -1.57153 0
M  V30 6333 C 627.963 0.539339 -1.94355 0
M  V30 6334 C 628.276 1.67858 -1.00415 0
M  V30 6335 O 629.482 2.39922 -1.27081 0
M  V30 6336 C 627.938 1.01082 -3.45414 0
M  V30 6337 C 627.546 -0.0999402 -4.47889 0
M  V30 6338 C 629.29 1.64013 -3.91535 0
M  V30 6339 C 627.197 0.388212 -5.90124 0
M  V30 6340 H 626.127 0.205247 -0.725527 0
M  V30 6341 H 628.778 -0.19836 -1.82425 0
M  V30 6342 H 627.16 1.80292 -3.52577 0
M  V30 6343 H 628.334 -0.876189 -4.52393 0
M  V30 6344 H 626.649 -0.635885 -4.11516 0
M  V30 6345 H 629.246 2.01649 -4.95219 0
M  V30 6346 H 629.589 2.51836 -3.31488 0
M  V30 6347 H 630.122 0.913439 -3.87171 0
M  V30 6348 H 626.861 -0.453963 -6.53926 0
M  V30 6349 H 626.381 1.13095 -5.89041 0
M  V30 6350 H 628.06 0.849574 -6.41398 0
M  V30 6351 N 628.193 1.56834 0.155195 0
M  V30 6352 C 629.439 1.83169 0.870467 0
M  V30 6353 C 629.772 0.698929 1.81187 0
M  V30 6354 O 629.047 -0.298035 1.92203 0
M  V30 6355 C 629.33 3.19965 1.65211 0
M  V30 6356 C 629.183 4.43792 0.732744 0
M  V30 6357 C 630.502 3.53885 2.61636 0
M  V30 6358 H 627.621 0.666288 0.315006 0
M  V30 6359 H 630.263 1.89513 0.135988 0
M  V30 6360 H 628.413 3.14687 2.27825 0
M  V30 6361 H 630.085 4.61148 0.118236 0
M  V30 6362 H 628.328 4.3378 0.0417906 0
M  V30 6363 H 628.999 5.36095 1.31552 0
M  V30 6364 H 631.475 3.5972 2.09143 0
M  V30 6365 H 630.351 4.50648 3.13381 0
M  V30 6366 H 630.612 2.79418 3.42605 0
M  V30 6367 N 629.671 -0.424282 1.51781 0
M  V30 6368 C 630.634 -1.49848 1.73431 0
M  V30 6369 C 631.634 -1.49016 0.604225 0
M  V30 6370 O 632.824 -1.50808 0.871935 0
M  V30 6371 C 629.956 -2.89332 1.80277 0
M  V30 6372 H 631.149 -1.3195 2.69312 0
M  V30 6373 H 628.702 -0.653809 1.41968 0
M  V30 6374 H 629.437 -3.12618 0.862568 0
M  V30 6375 H 629.222 -2.9134 2.62419 0
M  V30 6376 H 630.712 -3.67233 1.98821 0
M  V30 6377 N 631.149 -1.42148 -0.680565 0
M  V30 6378 C 632.397 -1.42029 -1.43779 0
M  V30 6379 C 632.718 -0.0356347 -1.94967 0
M  V30 6380 O 631.988 0.924936 -1.7269 0
M  V30 6381 H 630.568 -0.522835 -0.533529 0
M  V30 6382 H 633.23 -1.7752 -0.804538 0
M  V30 6383 H 632.326 -2.11658 -2.29363 0
M  V30 6384 N 632.627 0.916307 -1.28225 0
M  V30 6385 C 633.852 1.7043 -1.18188 0
M  V30 6386 C 634.277 1.86346 0.256274 0
M  V30 6387 O 633.635 1.37175 1.18544 0
M  V30 6388 C 633.683 3.07546 -1.88275 0
M  V30 6389 O 632.787 3.94904 -1.18848 0
M  V30 6390 H 632.128 0.521967 -0.410423 0
M  V30 6391 H 634.658 1.14589 -1.69501 0
M  V30 6392 H 634.668 3.57793 -1.96082 0
M  V30 6393 H 633.343 2.95279 -2.92887 0
M  V30 6394 H 631.92 3.53339 -1.19187 0
M  V30 6395 N 634.105 1.10431 1.1244 0
M  V30 6396 C 635.521 0.836096 1.35947 0
M  V30 6397 C 635.721 -0.544475 1.94004 0
M  V30 6398 O 634.777 -1.29735 2.16622 0
M  V30 6399 C 636.09 1.93575 2.30107 0
M  V30 6400 C 637.638 1.9642 2.43697 0
M  V30 6401 C 638.113 3.05559 3.41171 0
M  V30 6402 N 639.604 3.04865 3.48728 0
M  V30 6403 C 640.339 3.85954 4.24061 0
M  V30 6404 N 639.835 4.76977 5.02458 0
M  V30 6405 N 641.628 3.74172 4.19466 0
M  V30 6406 H 633.779 1.9942 0.731124 0
M  V30 6407 H 636.042 0.866607 0.384312 0
M  V30 6408 H 635.748 2.92943 1.94621 0
M  V30 6409 H 635.622 1.8229 3.30227 0
M  V30 6410 H 638.009 0.97685 2.78463 0
M  V30 6411 H 638.09 2.11782 1.43465 0
M  V30 6412 H 637.734 4.04513 3.07135 0
M  V30 6413 H 637.664 2.87438 4.41234 0
M  V30 6414 H 640.155 2.38908 2.92799 0
M  V30 6415 H 640.468 5.35409 5.57277 0
M  V30 6416 H 638.813 4.81006 5.01655 0
M  V30 6417 H 642.004 3.02412 3.57302 0
M  V30 6418 H 642.177 4.37602 4.77921 0
M  V30 6419 N 635.583 -1.29855 0.893053 0
M  V30 6420 C 636.533 -2.25493 0.337211 0
M  V30 6421 C 637.517 -1.51606 -0.53894 0
M  V30 6422 O 638.709 -1.72828 -0.382043 0
M  V30 6423 C 635.838 -3.40467 -0.440117 0
M  V30 6424 C 634.924 -4.217 0.450578 0
M  V30 6425 N 635.315 -4.81312 1.55476 0
M  V30 6426 C 633.613 -4.45315 0.247154 0
M  V30 6427 C 634.314 -5.42241 2.10593 0
M  V30 6428 N 633.29 -5.25267 1.39982 0
M  V30 6429 H 637.092 -2.69137 1.18079 0
M  V30 6430 H 634.606 -1.44388 0.743359 0
M  V30 6431 H 636.603 -4.08038 -0.855021 0
M  V30 6432 H 635.263 -2.98361 -1.28104 0
M  V30 6433 H 636.274 -4.80291 1.93755 0
M  V30 6434 H 632.951 -4.13782 -0.555939 0
M  V30 6435 H 634.341 -5.99517 3.03362 0
M  V30 6436 N 637.061 -0.65484 -1.43351 0
M  V30 6437 C 638.477 -0.32255 -1.56307 0
M  V30 6438 C 638.677 1.17324 -1.63821 0
M  V30 6439 O 637.733 1.95813 -1.59417 0
M  V30 6440 C 639.046 -1.03533 -2.82314 0
M  V30 6441 C 640.594 -1.01574 -2.9606 0
M  V30 6442 C 641.069 -1.70945 -4.24902 0
M  V30 6443 N 642.56 -1.67716 -4.3177 0
M  V30 6444 C 643.295 -2.18265 -5.30234 0
M  V30 6445 N 642.791 -2.7711 -6.34966 0
M  V30 6446 N 644.584 -2.08756 -5.21898 0
M  V30 6447 H 636.735 -1.62549 -1.36717 0
M  V30 6448 H 638.998 -0.683676 -0.656727 0
M  V30 6449 H 638.704 -2.09045 -2.8283 0
M  V30 6450 H 638.578 -0.587913 -3.7259 0
M  V30 6451 H 640.965 0.0309834 -2.95084 0
M  V30 6452 H 641.046 -1.50186 -2.07069 0
M  V30 6453 H 640.69 -2.75574 -4.26639 0
M  V30 6454 H 640.62 -1.19797 -5.12793 0
M  V30 6455 H 643.111 -1.24777 -3.56706 0
M  V30 6456 H 643.424 -3.13353 -7.06421 0
M  V30 6457 H 641.769 -2.81171 -6.35585 0
M  V30 6458 H 644.96 -1.62488 -4.38994 0
M  V30 6459 H 645.133 -2.48459 -5.98475 0
M  V30 6460 N 638.539 1.52521 -0.396863 0
M  V30 6461 C 639.786 2.01672 0.182898 0
M  V30 6462 C 640.114 1.28302 1.46181 0
M  V30 6463 O 639.369 0.374118 1.92091 0
M  V30 6464 C 639.668 3.5403 0.489677 0
M  V30 6465 C 639.334 4.45456 -0.698581 0
M  V30 6466 C 637.996 4.70166 -1.02454 0
M  V30 6467 C 640.348 4.99354 -1.49316 0
M  V30 6468 C 637.676 5.46024 -2.1465 0
M  V30 6469 C 640.028 5.76439 -2.60579 0
M  V30 6470 C 638.692 5.99426 -2.93675 0
M  V30 6471 H 637.962 0.737971 0.066927 0
M  V30 6472 H 640.609 1.83853 -0.535764 0
M  V30 6473 H 638.914 3.69963 1.28976 0
M  V30 6474 H 640.611 3.8956 0.951018 0
M  V30 6475 H 637.201 4.26392 -0.434525 0
M  V30 6476 H 641.385 4.80182 -1.25457 0
M  V30 6477 H 636.641 5.62046 -2.40654 0
M  V30 6478 H 640.815 6.17202 -3.22544 0
M  V30 6479 H 638.442 6.57988 -3.80731 0
M  V30 6480 N 640.017 0.126909 1.57088 0
M  V30 6481 C 640.98 -0.806097 2.14557 0
M  V30 6482 C 641.98 -1.18918 1.08236 0
M  V30 6483 O 643.17 -1.11339 1.33975 0
M  V30 6484 C 640.302 -2.09116 2.69227 0
M  V30 6485 H 641.495 -0.306522 2.98329 0
M  V30 6486 H 639.048 -0.122393 1.5582 0
M  V30 6487 H 639.783 -2.63486 1.89065 0
M  V30 6488 H 639.568 -1.82588 3.46993 0
M  V30 6489 H 641.058 -2.75794 3.13572 0
M  V30 6490 N 641.495 -1.56914 -0.146875 0
M  V30 6491 C 642.405 -2.0154 -1.20079 0
M  V30 6492 C 643.421 -0.930838 -1.47008 0
M  V30 6493 O 644.597 -1.24032 -1.58676 0
M  V30 6494 C 641.662 -2.38715 -2.51428 0
M  V30 6495 C 640.723 -3.6112 -2.32145 0
M  V30 6496 C 639.956 -3.96512 -3.57231 0
M  V30 6497 O 640.179 -3.32566 -4.63418 0
M  V30 6498 O 639.113 -4.89758 -3.49887 0
M  V30 6499 H 642.939 -2.91506 -0.851924 0
M  V30 6500 H 640.524 -1.45106 -0.355607 0
M  V30 6501 H 642.406 -2.63485 -3.28867 0
M  V30 6502 H 641.081 -1.51903 -2.85845 0
M  V30 6503 H 639.988 -3.41536 -1.52656 0
M  V30 6504 H 641.321 -4.48549 -2.02644 0
M  V30 6505 N 642.974 0.416227 -1.52004 0
M  V30 6506 C 644.39 0.754319 -1.40649 0
M  V30 6507 C 644.59 1.95059 -0.505392 0
M  V30 6508 O 643.646 2.5248 0.0315057 0
M  V30 6509 C 644.959 1.0149 -2.83055 0
M  V30 6510 C 646.507 1.11805 -2.9235 0
M  V30 6511 C 646.982 1.41144 -4.35709 0
M  V30 6512 N 648.473 1.48024 -4.38911 0
M  V30 6513 C 649.208 1.72338 -5.46889 0
M  V30 6514 N 648.704 1.94303 -6.64995 0
M  V30 6515 N 650.497 1.74294 -5.34395 0
M  V30 6516 H 642.648 -0.371324 -2.09129 0
M  V30 6517 H 644.911 -0.103811 -0.942299 0
M  V30 6518 H 644.617 0.208345 -3.51082 0
M  V30 6519 H 644.491 1.93697 -3.23668 0
M  V30 6520 H 646.878 1.91521 -2.24508 0
M  V30 6521 H 646.959 0.17451 -2.55204 0
M  V30 6522 H 646.603 0.619484 -5.04108 0
M  V30 6523 H 646.533 2.36739 -4.70385 0
M  V30 6524 H 649.024 1.32868 -3.53772 0
M  V30 6525 H 649.337 2.12286 -7.43071 0
M  V30 6526 H 647.682 1.91582 -6.68073 0
M  V30 6527 H 650.873 1.56667 -4.41104 0
M  V30 6528 H 651.046 1.92904 -6.18621 0
M  V30 6529 N 644.452 1.42507 0.673017 0
M  V30 6530 C 645.7 1.42789 1.43023 0
M  V30 6531 C 646.021 0.0459738 1.94946 0
M  V30 6532 O 645.291 -0.915765 1.73178 0
M  V30 6533 H 643.871 0.525657 0.530748 0
M  V30 6534 H 646.533 1.77944 0.795113 0
M  V30 6535 H 645.629 2.12872 2.28237 0
M  V30 6536 N 645.93 -0.909495 1.28709 0
M  V30 6537 C 646.84 -2.04558 1.14861 0
M  V30 6538 C 647.856 -1.73842 0.0741621 0
M  V30 6539 O 649.032 -1.99383 0.2843 0
M  V30 6540 C 646.097 -3.36957 0.816148 0
M  V30 6541 C 645.158 -3.81255 1.97341 0
M  V30 6542 C 644.391 -5.07335 1.65671 0
M  V30 6543 O 644.614 -5.67514 0.573053 0
M  V30 6544 O 643.548 -5.47449 2.50167 0
M  V30 6545 H 647.374 -2.19161 2.10243 0
M  V30 6546 H 644.959 -1.03159 1.08068 0
M  V30 6547 H 646.841 -4.16436 0.644873 0
M  V30 6548 H 645.516 -3.2352 -0.107983 0
M  V30 6549 H 644.423 -3.02584 2.19986 0
M  V30 6550 H 645.756 -3.99261 2.87839 0
M  V30 6551 N 647.408 -1.11026 -1.11852 0
M  V30 6552 C 648.34 -0.72249 -2.17515 0
M  V30 6553 C 649.353 0.243782 -1.60964 0
M  V30 6554 O 650.542 0.0273252 -1.78479 0
M  V30 6555 C 647.642 -0.0463979 -3.38868 0
M  V30 6556 C 646.815 -1.0384 -4.24895 0
M  V30 6557 C 645.874 -0.392659 -5.24733 0
M  V30 6558 O 644.9 -1.0453 -5.5952 0
M  V30 6559 N 646.102 0.846296 -5.74298 0
M  V30 6560 H 648.867 -1.63161 -2.51393 0
M  V30 6561 H 646.428 -0.999899 -1.27333 0
M  V30 6562 H 648.42 0.397215 -4.02746 0
M  V30 6563 H 646.99 0.765231 -3.03089 0
M  V30 6564 H 646.21 -1.6601 -3.57539 0
M  V30 6565 H 647.498 -1.70968 -4.79215 0
M  V30 6566 H 646.896 1.39578 -5.4821 0
M  V30 6567 H 645.453 1.23296 -6.40032 0
M  V30 6568 N 648.886 1.2938 -0.899927 0
M  V30 6569 C 649.796 2.31462 -0.382437 0
M  V30 6570 C 650.812 1.65956 0.522929 0
M  V30 6571 O 651.988 1.97131 0.412454 0
M  V30 6572 C 649.053 3.44595 0.381472 0
M  V30 6573 C 648.114 4.25692 -0.555444 0
M  V30 6574 C 647.347 5.33422 0.172102 0
M  V30 6575 O 647.57 5.53053 1.396 0
M  V30 6576 O 646.504 5.99939 -0.485491 0
M  V30 6577 H 650.33 2.77706 -1.22934 0
M  V30 6578 H 647.915 1.33821 -0.664259 0
M  V30 6579 H 649.797 4.13474 0.813442 0
M  V30 6580 H 648.472 3.00458 1.20443 0
M  V30 6581 H 647.379 3.59453 -1.03653 0
M  V30 6582 H 648.712 4.73471 -1.34483 0
M  V30 6583 N 650.364 0.662433 1.43002 0
M  V30 6584 C 651.294 -0.00979809 2.33498 0
M  V30 6585 C 652.275 -0.802329 1.49989 0
M  V30 6586 O 653.46 -0.761964 1.78627 0
M  V30 6587 C 650.59 -0.970446 3.33466 0
M  V30 6588 C 649.544 -0.287383 4.27034 0
M  V30 6589 C 648.87 -1.36012 5.17112 0
M  V30 6590 C 650.17 0.82595 5.15728 0
M  V30 6591 H 651.864 0.745959 2.89958 0
M  V30 6592 H 649.41 0.360172 1.39423 0
M  V30 6593 H 651.363 -1.44971 3.95679 0
M  V30 6594 H 650.087 -1.75748 2.75282 0
M  V30 6595 H 648.746 0.17152 3.66199 0
M  V30 6596 H 648.394 -2.13882 4.55262 0
M  V30 6597 H 648.094 -0.908276 5.80538 0
M  V30 6598 H 649.618 -1.84056 5.82199 0
M  V30 6599 H 651.032 0.42845 5.71697 0
M  V30 6600 H 649.429 1.20282 5.87922 0
M  V30 6601 H 650.499 1.68003 4.54866 0
M  V30 6602 N 651.842 -1.52309 0.404946 0
M  V30 6603 C 652.789 -2.26898 -0.422597 0
M  V30 6604 C 653.759 -1.2914 -1.04461 0
M  V30 6605 O 654.944 -1.57996 -1.06967 0
M  V30 6606 C 652.084 -3.09053 -1.53559 0
M  V30 6607 C 651.197 -4.21762 -0.934908 0
M  V30 6608 C 650.332 -4.91283 -2.02025 0
M  V30 6609 C 649.371 -5.95962 -1.39628 0
M  V30 6610 N 648.508 -6.59017 -2.42159 0
M  V30 6611 H 653.348 -2.97188 0.219903 0
M  V30 6612 H 650.885 -1.46607 0.120282 0
M  V30 6613 H 652.843 -3.54987 -2.19181 0
M  V30 6614 H 651.473 -2.40942 -2.14818 0
M  V30 6615 H 650.525 -3.80029 -0.167854 0
M  V30 6616 H 651.837 -4.96864 -0.439073 0
M  V30 6617 H 650.991 -5.40601 -2.75383 0
M  V30 6618 H 649.73 -4.15741 -2.54973 0
M  V30 6619 H 648.735 -5.45968 -0.648023 0
M  V30 6620 H 649.96 -6.73445 -0.874553 0
M  V30 6621 H 647.906 -5.86306 -2.94247 0
M  V30 6622 H 647.823 -7.2978 -1.97376 0
M  V30 6623 H 649.091 -7.12974 -3.15099 0
M  V30 6624 N 653.32 -0.135238 -1.57019 0
M  V30 6625 C 654.568 0.51777 -1.95355 0
M  V30 6626 C 654.889 1.6617 -1.02042 0
M  V30 6627 O 654.159 1.95738 -0.0797343 0
M  V30 6628 H 652.739 0.194264 -0.721298 0
M  V30 6629 H 655.401 -0.207983 -1.93787 0
M  V30 6630 H 654.497 0.901675 -2.98791 0
M  V30 6631 N 654.798 1.5699 0.138552 0
M  V30 6632 C 656.044 1.84081 0.85099 0
M  V30 6633 C 656.377 0.718107 1.80435 0
M  V30 6634 O 655.652 -0.277633 1.92508 0
M  V30 6635 C 655.935 3.21699 1.61808 0
M  V30 6636 C 655.788 4.44544 0.685633 0
M  V30 6637 C 657.107 3.5664 2.57868 0
M  V30 6638 H 654.226 0.669592 0.307922 0
M  V30 6639 H 656.868 1.89646 0.11588 0
M  V30 6640 H 655.018 3.17086 2.24474 0
M  V30 6641 H 656.69 4.61248 0.0693179 0
M  V30 6642 H 654.933 4.338 -0.00421993 0
M  V30 6643 H 655.604 5.3746 1.25858 0
M  V30 6644 H 658.08 3.61918 2.05316 0
M  V30 6645 H 656.956 4.53946 3.08584 0
M  V30 6646 H 657.217 2.83036 3.39622 0
M  V30 6647 N 656.276 -0.40816 1.52223 0
M  V30 6648 C 657.687 -0.986929 1.58482 0
M  V30 6649 C 658.038 -1.91521 0.425917 0
M  V30 6650 O 657.163 -2.11593 -0.453593 0
M  V30 6651 C 657.758 -1.7967 2.87235 0
M  V30 6652 C 656.317 -2.32549 2.9597 0
M  V30 6653 C 655.464 -1.12558 2.53428 0
M  V30 6654 H 658.415 -0.188362 1.57578 0
M  V30 6655 H 658.436 -2.65417 2.72642 0
M  V30 6656 H 657.948 -1.12082 3.71563 0
M  V30 6657 H 656.049 -3.03505 2.16137 0
M  V30 6658 H 656.162 -2.63348 4.00231 0
M  V30 6659 H 654.526 -1.47984 2.07299 0
M  V30 6660 H 655.309 -0.465351 3.40131 0
M  V30 6661 N 657.755 -1.42862 -0.66545 0
M  V30 6662 C 659.003 -1.43546 -1.42264 0
M  V30 6663 C 659.324 -0.0563116 -1.94919 0
M  V30 6664 O 658.594 0.906568 -1.73661 0
M  V30 6665 H 657.174 -0.528464 -0.527953 0
M  V30 6666 H 659.836 -1.78363 -0.785665 0
M  V30 6667 H 658.932 -2.14079 -2.27105 0
M  V30 6668 N 659.233 0.902656 -1.29189 0
M  V30 6669 C 660.649 1.18296 -1.07137 0
M  V30 6670 C 660.849 2.00701 0.179223 0
M  V30 6671 O 659.905 2.3675 0.877812 0
M  V30 6672 C 661.218 1.90677 -2.32514 0
M  V30 6673 C 662.766 2.03515 -2.37804 0
M  V30 6674 C 663.241 2.79307 -3.62976 0
M  V30 6675 N 664.732 2.86862 -3.63681 0
M  V30 6676 C 665.467 3.46035 -4.57217 0
M  V30 6677 N 664.963 4.06399 -5.61081 0
M  V30 6678 N 666.756 3.43681 -4.44792 0
M  V30 6679 H 658.907 0.352765 -2.0945 0
M  V30 6680 H 661.17 0.21876 -0.922414 0
M  V30 6681 H 660.876 1.3756 -3.23682 0
M  V30 6682 H 660.75 2.91169 -2.39793 0
M  V30 6683 H 663.137 2.55809 -1.47125 0
M  V30 6684 H 663.218 1.02166 -2.34512 0
M  V30 6685 H 662.862 2.2769 -4.54004 0
M  V30 6686 H 662.792 3.80995 -3.63525 0
M  V30 6687 H 665.283 2.43987 -2.88581 0
M  V30 6688 H 665.596 4.49564 -6.2858 0
M  V30 6689 H 663.941 4.0487 -5.64894 0
M  V30 6690 H 667.132 2.9574 -3.62843 0
M  V30 6691 H 667.305 3.89503 -5.17872 0
M  V30 6692 N 660.711 1.11618 1.11262 0
M  V30 6693 C 661.957 0.877377 1.83504 0
M  V30 6694 C 662.312 -0.590606 1.83111 0
M  V30 6695 O 661.605 -1.43057 1.27456 0
M  V30 6696 C 661.799 1.37529 3.2988 0
M  V30 6697 C 661.628 2.89014 3.4453 0
M  V30 6698 C 660.398 3.57157 3.57445 0
M  V30 6699 C 662.596 3.8706 3.38658 0
M  V30 6700 N 660.578 4.96842 3.60585 0
M  V30 6701 C 661.949 5.12825 3.4844 0
M  V30 6702 C 664.004 3.79593 3.22201 0
M  V30 6703 C 662.707 6.32002 3.43462 0
M  V30 6704 C 664.733 4.98282 3.18542 0
M  V30 6705 C 664.095 6.22901 3.28897 0
M  V30 6706 H 660.194 0.37422 0.686646 0
M  V30 6707 H 662.778 1.42087 1.33114 0
M  V30 6708 H 660.949 0.85895 3.78783 0
M  V30 6709 H 662.681 1.07944 3.90039 0
M  V30 6710 H 659.436 3.07628 3.60086 0
M  V30 6711 H 659.86 5.69674 3.65788 0
M  V30 6712 H 664.502 2.84149 3.1308 0
M  V30 6713 H 662.22 7.27721 3.51352 0
M  V30 6714 H 665.806 4.94226 3.06972 0
M  V30 6715 H 664.686 7.13202 3.26056 0
M  V30 6716 N 662.189 -1.289 0.906776 0
M  V30 6717 C 663.605 -1.47733 0.603902 0
M  V30 6718 C 663.805 -1.82568 -0.852702 0
M  V30 6719 O 662.861 -1.92642 -1.63234 0
M  V30 6720 C 664.174 -2.58522 1.53581 0
M  V30 6721 C 665.722 -2.72394 1.54177 0
M  V30 6722 C 666.197 -3.86318 2.46013 0
M  V30 6723 N 667.688 -3.93661 2.441 0
M  V30 6724 C 668.423 -4.81177 3.11859 0
M  V30 6725 N 667.919 -5.73333 3.88923 0
M  V30 6726 N 669.712 -4.74728 3.00981 0
M  V30 6727 H 661.863 -1.04567 1.84877 0
M  V30 6728 H 664.126 -0.520118 0.792579 0
M  V30 6729 H 663.832 -2.39667 2.57396 0
M  V30 6730 H 663.706 -3.55475 1.26165 0
M  V30 6731 H 666.093 -2.90641 0.511034 0
M  V30 6732 H 666.174 -1.75993 1.85634 0
M  V30 6733 H 665.818 -3.68826 3.49185 0
M  V30 6734 H 665.748 -4.82102 2.11862 0
M  V30 6735 H 668.239 -3.27751 1.88115 0
M  V30 6736 H 668.552 -6.36923 4.37663 0
M  V30 6737 H 666.897 -5.73196 3.93029 0
M  V30 6738 H 670.088 -4.01722 2.40286 0
M  V30 6739 H 670.261 -5.42719 3.54062 0
M  V30 6740 N 663.667 -0.670007 -1.42649 0
M  V30 6741 C 664.597 -0.00258501 -2.335 0
M  V30 6742 C 665.578 0.794364 -1.50412 0
M  V30 6743 O 666.763 0.75248 -1.79029 0
M  V30 6744 C 663.893 0.952748 -3.33976 0
M  V30 6745 C 662.847 0.264733 -4.2718 0
M  V30 6746 C 662.173 1.33267 -5.17826 0
M  V30 6747 C 663.473 -0.853289 -5.15283 0
M  V30 6748 H 665.167 -0.761326 -2.89559 0
M  V30 6749 H 662.713 -0.367561 -1.3923 0
M  V30 6750 H 664.666 1.4287 -3.96442 0
M  V30 6751 H 663.39 1.74285 -2.7621 0
M  V30 6752 H 662.049 -0.190938 -3.66102 0
M  V30 6753 H 661.697 2.11464 -4.5639 0
M  V30 6754 H 661.397 0.877476 -5.81011 0
M  V30 6755 H 662.921 1.80965 -5.83167 0
M  V30 6756 H 664.335 -0.458763 -5.71462 0
M  V30 6757 H 662.732 -1.23398 -5.87276 0
M  V30 6758 H 663.802 -1.70412 -4.53969 0
M  V30 6759 N 665.145 1.52092 -0.413018 0
M  V30 6760 C 666.385 2.03765 0.160975 0
M  V30 6761 C 666.749 1.29174 1.4205 0
M  V30 6762 O 667.95 1.71093 2.07318 0
M  V30 6763 C 666.221 3.55167 0.398871 0
M  V30 6764 S 667.78 4.28619 0.939755 0
M  V30 6765 H 664.598 0.709685 0.0432281 0
M  V30 6766 H 667.2 1.87102 -0.566831 0
M  V30 6767 H 665.904 4.07034 -0.524544 0
M  V30 6768 H 665.435 3.7608 1.15444 0
M  V30 6769 H 667.45 4.43773 2.21991 0
M  V30 6770 N 666.623 0.143563 1.56945 0
M  V30 6771 C 667.869 -0.50916 1.96304 0
M  V30 6772 C 668.202 -1.64741 1.0283 0
M  V30 6773 O 667.477 -1.94374 0.0700361 0
M  V30 6774 C 667.76 -1.0186 3.45393 0
M  V30 6775 C 667.613 0.117923 4.49645 0
M  V30 6776 C 668.932 -1.90151 3.96901 0
M  V30 6777 H 666.051 -0.183608 0.713763 0
M  V30 6778 H 668.693 0.224095 1.88674 0
M  V30 6779 H 666.843 -1.64345 3.52027 0
M  V30 6780 H 668.515 0.754145 4.55094 0
M  V30 6781 H 666.758 0.777568 4.26774 0
M  V30 6782 H 667.429 -0.280187 5.51288 0
M  V30 6783 H 669.905 -1.375 3.92725 0
M  V30 6784 H 668.781 -2.22707 5.0169 0
M  V30 6785 H 669.042 -2.83718 3.39052 0
M  V30 6786 N 668.101 -1.57061 -0.130224 0
M  V30 6787 C 669.031 -2.02552 -1.16168 0
M  V30 6788 C 670.012 -0.907971 -1.4384 0
M  V30 6789 O 671.197 -1.17693 -1.54473 0
M  V30 6790 C 668.327 -2.42035 -2.49071 0
M  V30 6791 C 667.281 -3.5713 -2.35886 0
M  V30 6792 C 666.607 -3.82478 -3.7365 0
M  V30 6793 C 667.907 -4.89236 -1.8288 0
M  V30 6794 H 669.601 -2.8897 -0.783359 0
M  V30 6795 H 667.147 -1.39021 -0.375376 0
M  V30 6796 H 669.1 -2.72462 -3.21469 0
M  V30 6797 H 667.824 -1.52573 -2.88771 0
M  V30 6798 H 666.483 -3.26895 -1.65938 0
M  V30 6799 H 666.131 -2.9024 -4.10816 0
M  V30 6800 H 665.831 -4.59944 -3.65685 0
M  V30 6801 H 667.355 -4.15347 -4.47571 0
M  V30 6802 H 668.769 -5.18272 -2.45085 0
M  V30 6803 H 667.166 -5.70624 -1.85763 0
M  V30 6804 H 668.236 -4.78494 -0.785571 0
M  V30 6805 N 669.579 0.400081 -1.52437 0
M  V30 6806 C 670.512 1.50929 -1.7116 0
M  V30 6807 C 671.49 1.52679 -0.559275 0
M  V30 6808 O 672.674 1.71251 -0.787735 0
M  V30 6809 C 669.801 2.89433 -1.75915 0
M  V30 6810 C 668.847 3.05556 -2.97553 0
M  V30 6811 S 669.68 2.77919 -4.57735 0
M  V30 6812 C 670.836 4.18636 -4.6529 0
M  V30 6813 H 671.069 1.3482 -2.64973 0
M  V30 6814 H 668.602 0.592245 -1.4259 0
M  V30 6815 H 670.56 3.69253 -1.7934 0
M  V30 6816 H 669.221 3.02877 -0.832137 0
M  V30 6817 H 668.414 4.0691 -2.97388 0
M  V30 6818 H 668.016 2.33615 -2.92062 0
M  V30 6819 H 670.308 5.12406 -4.43223 0
M  V30 6820 H 671.251 4.23821 -5.67258 0
M  V30 6821 H 671.659 4.04029 -3.94234 0
M  V30 6822 N 671.057 1.43213 0.657864 0
M  V30 6823 C 672.473 1.26511 0.972992 0
M  V30 6824 C 672.673 0.181477 2.00681 0
M  V30 6825 O 671.729 -0.441649 2.48608 0
M  V30 6826 C 673.042 2.62784 1.46168 0
M  V30 6827 C 674.59 2.70278 1.57857 0
M  V30 6828 C 675.065 4.06958 2.10117 0
M  V30 6829 N 676.556 4.08999 2.17426 0
M  V30 6830 C 677.291 5.11585 2.58975 0
M  V30 6831 N 676.787 6.24548 2.99853 0
M  V30 6832 N 678.58 4.9894 2.58873 0
M  V30 6833 H 670.731 2.12384 -0.0263129 0
M  V30 6834 H 672.994 0.946638 0.0507992 0
M  V30 6835 H 672.7 3.43022 0.776474 0
M  V30 6836 H 672.574 2.87863 2.43751 0
M  V30 6837 H 674.961 1.90376 2.25479 0
M  V30 6838 H 675.042 2.4897 0.587179 0
M  V30 6839 H 674.686 4.87325 1.43098 0
M  V30 6840 H 674.616 4.25628 3.10078 0
M  V30 6841 H 677.107 3.27457 1.88627 0
M  V30 6842 H 677.42 6.98661 3.30292 0
M  V30 6843 H 675.765 6.28027 2.97669 0
M  V30 6844 H 678.956 4.09757 2.26311 0
M  V30 6845 H 679.129 5.79019 2.90932 0
M  V30 6846 N 672.536 -0.895792 1.29666 0
M  V30 6847 C 673.813 -1.62723 1.08538 0
M  V30 6848 C 674.193 -2.07848 -0.369119 0
M  V30 6849 O 673.541 -1.8372 -1.35864 0
M  V30 6850 C 673.751 -2.80505 2.07648 0
M  V30 6851 C 675.099 -3.51098 2.3878 0
M  V30 6852 O 676.123 -2.90679 2.05874 0
M  V30 6853 O 674.982 -4.60028 2.9502 0
M  V30 6854 H 672.076 -0.714692 0.416106 0
M  V30 6855 H 674.622 -0.943517 1.41053 0
M  V30 6856 H 673.394 -2.44386 3.05599 0
M  V30 6857 H 673.017 -3.5658 1.75887 0
M  V30 6858 N 674.014 -1.12206 -1.10668 0
M  V30 6859 C 675.291 -0.787382 -1.79052 0
M  V30 6860 C 675.671 0.723267 -1.98323 0
M  V30 6861 O 675.019 1.6561 -1.57434 0
M  V30 6862 C 675.229 -1.55968 -3.1221 0
M  V30 6863 C 676.577 -1.74413 -3.87125 0
M  V30 6864 O 677.601 -1.5246 -3.21923 0
M  V30 6865 O 676.46 -2.10952 -5.04144 0
M  V30 6866 H 673.554 -0.286137 -0.775922 0
M  V30 6867 H 676.1 -1.22595 -1.1734 0
M  V30 6868 H 674.872 -2.58692 -2.93588 0
M  V30 6869 H 674.495 -1.1152 -3.8164 0
M  V30 6870 N 675.492 1.28418 -0.913599 0
M  V30 6871 C 676.455 2.25564 -0.406624 0
M  V30 6872 C 677.455 1.5387 0.466965 0
M  V30 6873 O 678.645 1.72094 0.270042 0
M  V30 6874 C 675.777 3.38339 0.417053 0
M  V30 6875 H 676.97 2.71926 -1.26477 0
M  V30 6876 H 674.523 1.40098 -0.692986 0
M  V30 6877 H 675.258 2.97339 1.29461 0
M  V30 6878 H 675.043 3.91542 -0.209102 0
M  V30 6879 H 676.533 4.10578 0.762602 0
M  V30 6880 N 676.97 0.677563 1.42291 0
M  V30 6881 C 678.198 0.209459 2.05837 0
M  V30 6882 C 678.613 -1.13444 1.50917 0
M  V30 6883 O 677.97 -1.70529 0.65008 0
M  V30 6884 C 678.021 0.138819 3.61233 0
M  V30 6885 O 677.742 1.42962 4.14118 0
M  V30 6886 C 679.243 -0.352449 4.41897 0
M  V30 6887 H 676.463 0.101209 0.663323 0
M  V30 6888 H 679.007 0.925077 1.8238 0
M  V30 6889 H 677.162 -0.527505 3.83792 0
M  V30 6890 H 677.576 1.3048 5.08011 0
M  V30 6891 H 679.05 -0.350778 5.50884 0
M  V30 6892 H 679.527 -1.3882 4.16684 0
M  V30 6893 H 680.133 0.282236 4.24362 0
M  V30 6894 N 678.448 -1.51871 0.421078 0
M  V30 6895 C 679.864 -1.59435 0.0725398 0
M  V30 6896 C 680.064 -1.43315 -1.41644 0
M  V30 6897 O 679.12 -1.26614 -2.18461 0
M  V30 6898 C 680.433 -2.9509 0.578132 0
M  V30 6899 C 681.981 -3.08356 0.537149 0
M  V30 6900 C 682.456 -4.4651 1.01945 0
M  V30 6901 N 683.947 -4.52784 0.976758 0
M  V30 6902 C 684.682 -5.57976 1.32099 0
M  V30 6903 N 684.178 -6.70664 1.73727 0
M  V30 6904 N 685.971 -5.48248 1.2402 0
M  V30 6905 H 678.122 -1.60595 1.39007 0
M  V30 6906 H 680.385 -0.756138 0.571803 0
M  V30 6907 H 680.091 -3.12205 1.61929 0
M  V30 6908 H 679.965 -3.772 -0.00578374 0
M  V30 6909 H 682.352 -2.90919 -0.494991 0
M  V30 6910 H 682.433 -2.28125 1.15727 0
M  V30 6911 H 682.077 -4.64692 2.04997 0
M  V30 6912 H 682.007 -5.25256 0.376023 0
M  V30 6913 H 684.498 -3.71898 0.670851 0
M  V30 6914 H 684.811 -7.46932 1.98274 0
M  V30 6915 H 683.156 -6.71914 1.77641 0
M  V30 6916 H 686.347 -4.59095 0.913756 0
M  V30 6917 H 686.52 -6.30119 1.51176 0
M  V30 6918 N 679.926 -0.151884 -1.56866 0
M  V30 6919 C 681.154 0.504813 -2.00647 0
M  V30 6920 C 681.569 1.58098 -1.03201 0
M  V30 6921 O 680.926 1.82476 -0.0297814 0
M  V30 6922 C 680.977 1.10099 -3.44326 0
M  V30 6923 O 680.698 0.0678021 -4.38048 0
M  V30 6924 C 682.199 1.83782 -4.03409 0
M  V30 6925 H 679.419 0.130989 -0.65809 0
M  V30 6926 H 681.963 -0.247903 -2.02992 0
M  V30 6927 H 680.118 1.8043 -3.42817 0
M  V30 6928 H 680.532 0.505237 -5.22061 0
M  V30 6929 H 682.006 2.2078 -5.05925 0
M  V30 6930 H 682.483 2.72557 -3.44397 0
M  V30 6931 H 683.089 1.18138 -4.08563 0
M  V30 6932 N 681.404 1.57128 0.121893 0
M  V30 6933 C 682.82 1.52357 0.47534 0
M  V30 6934 C 683.02 0.864417 1.82017 0
M  V30 6935 O 682.076 0.445529 2.48538 0
M  V30 6936 C 683.389 2.97122 0.4625 0
M  V30 6937 C 684.937 3.08196 0.546255 0
M  V30 6938 C 685.412 4.54516 0.563833 0
M  V30 6939 N 686.903 4.58959 0.625353 0
M  V30 6940 C 687.638 5.69585 0.660354 0
M  V30 6941 N 687.134 6.89714 0.653175 0
M  V30 6942 N 688.927 5.57685 0.703143 0
M  V30 6943 H 681.078 1.98364 -0.75931 0
M  V30 6944 H 683.341 0.905777 -0.279772 0
M  V30 6945 H 683.047 3.48706 -0.457943 0
M  V30 6946 H 682.921 3.54406 1.29136 0
M  V30 6947 H 685.308 2.56617 1.45712 0
M  V30 6948 H 685.389 2.53912 -0.310234 0
M  V30 6949 H 685.033 5.06741 -0.342974 0
M  V30 6950 H 684.963 5.06609 1.43716 0
M  V30 6951 H 687.454 3.72489 0.637182 0
M  V30 6952 H 687.767 7.69781 0.682425 0
M  V30 6953 H 686.112 6.92223 0.620646 0
M  V30 6954 H 689.303 4.62744 0.706095 0
M  V30 6955 H 689.476 6.43909 0.726952 0
M  V30 6956 O 682.921 -0.266262 1.5929 0
M  V30 6957 H 683.612 -0.91096 1.70942 0
M  V30 END ATOM
M  V30 BEGIN BOND
M  V30 END BOND
M  V30 END CTAB
M  END
$$$$
